drugbank_target|P22303 Acetylcholinesterase (DB00122; DB00382; DB00411; DB00449; DB00483; DB00545; DB00674; DB00677; DB00733; DB00805; DB00843; DB00863; DB00944; DB00981; DB00989; DB01010; DB01122; DB01199; DB01245; DB01400; DB01805; DB02166; DB02226; DB02343; DB02404; DB02673; DB02825; DB02845; DB03005; DB03128; DB03283; DB03348; DB03359; DB03740; DB03814; DB04021; DB04114; DB04556; DB04614; DB04615; DB04616; DB04617; DB04859; DB04864; DB04892; DB04924; DB06525; DB07555; DB07701; DB07756; DB07846; DB08167; DB08357; DB08615; DB08996; DB13503; DB14006)
 OpenBabel12092119313D

  0  0  0     0  0            999 V3000
M  V30 BEGIN CTAB
M  V30 COUNTS 9460 9609 0 0 0
M  V30 BEGIN ATOM
M  V30 1 H -0.908 1.98254 -0.117106 0
M  V30 2 N 0 1.576 0 0
M  V30 3 C 0.933 2.03868 1.02534 0
M  V30 4 C 1.911 0.928543 1.3348 0
M  V30 5 O 3.095 1.19667 1.45644 0
M  V30 6 C 0.222 2.43627 2.35294 0
M  V30 7 C -0.732 3.65373 2.2001 0
M  V30 8 S 0.101 5.13292 1.52614 0
M  V30 9 C 1.257 5.56322 2.86805 0
M  V30 10 H 1.49 2.90518 0.631377 0
M  V30 11 H -0.977 1.52953 0.210867 0
M  V30 12 H 0.981 2.67203 3.11629 0
M  V30 13 H -0.358 1.57376 2.7183 0
M  V30 14 H -1.165 3.90944 3.18086 0
M  V30 15 H -1.563 3.418 1.51819 0
M  V30 16 H 0.729 5.58782 3.83104 0
M  V30 17 H 1.672 6.56266 2.65933 0
M  V30 18 H 2.08 4.83886 2.90714 0
M  V30 19 N 1.4781 -0.272755 1.55222 0
M  V30 20 C 2.8941 -0.619959 1.47067 0
M  V30 21 C 3.0941 -1.895 0.684978 0
M  V30 22 O 2.1501 -2.51675 0.203931 0
M  V30 23 C 3.4631 -0.746693 2.91282 0
M  V30 24 C 5.0111 -0.840731 3.01497 0
M  V30 25 C 5.4861 -0.99924 4.46967 0
M  V30 26 N 6.9771 -1.06476 4.50796 0
M  V30 27 C 7.7121 -1.20621 5.6057 0
M  V30 28 N 7.2081 -1.31483 6.80209 0
M  V30 29 N 9.0011 -1.23733 5.48312 0
M  V30 30 H 1.1521 0.564606 2.04758 0
M  V30 31 H 3.4151 0.191177 0.928523 0
M  V30 32 H 3.1211 0.119753 3.51496 0
M  V30 33 H 2.9951 -1.6269 3.40311 0
M  V30 34 H 5.3821 -1.69764 2.41379 0
M  V30 35 H 5.4631 0.0640874 2.5572 0
M  V30 36 H 5.1071 -0.146984 5.07687 0
M  V30 37 H 5.0371 -1.91871 4.90401 0
M  V30 38 H 7.5281 -0.993196 3.64615 0
M  V30 39 H 7.8411 -1.42111 7.59621 0
M  V30 40 H 6.1861 -1.28487 6.8302 0
M  V30 41 H 9.3771 -1.14877 4.53785 0
M  V30 42 H 9.5501 -1.34412 6.33906 0
M  V30 43 N 2.9562 -1.48159 -0.537278 0
M  V30 44 C 4.3672 -1.49429 -1.11928 0
M  V30 45 C 4.7182 -0.26 -1.9447 0
M  V30 46 O 3.8432 0.633489 -2.0692 0
M  V30 47 C 4.4382 -2.70758 -2.03656 0
M  V30 48 C 2.9972 -2.74923 -2.57088 0
M  V30 49 C 2.1442 -2.42835 -1.3389 0
M  V30 50 H 5.0952 -1.55381 -0.322886 0
M  V30 51 H 5.1162 -2.48861 -2.87834 0
M  V30 52 H 4.6282 -3.60575 -1.43553 0
M  V30 53 H 2.7292 -1.89296 -3.20933 0
M  V30 54 H 2.8422 -3.76157 -2.9672 0
M  V30 55 H 1.2062 -1.93836 -1.65226 0
M  V30 56 H 1.9892 -3.34884 -0.755504 0
M  V30 57 N 4.4343 0.785586 -1.36625 0
M  V30 58 C 5.8453 1.36101 -1.27803 0
M  V30 59 C 6.1963 1.96035 0.0804875 0
M  V30 60 O 5.3213 1.92834 0.982042 0
M  V30 61 C 5.9163 2.47442 -2.31426 0
M  V30 62 C 4.4753 3.00789 -2.26281 0
M  V30 63 C 3.6223 1.73896 -2.15999 0
M  V30 64 H 6.5733 0.586928 -1.47448 0
M  V30 65 H 6.5943 3.2656 -1.95291 0
M  V30 66 H 6.1063 2.03791 -3.30289 0
M  V30 67 H 4.2073 3.48851 -1.30896 0
M  V30 68 H 4.3203 3.57343 -3.19128 0
M  V30 69 H 2.6843 1.9628 -1.62316 0
M  V30 70 H 3.4673 1.32368 -3.16755 0
M  V30 71 N 5.9124 1.20967 1.01018 0
M  V30 72 C 6.8444 0.922059 2.09835 0
M  V30 73 C 7.8574 -0.0927106 1.62536 0
M  V30 74 O 9.0464 0.139127 1.77957 0
M  V30 75 C 6.1464 0.362004 3.36961 0
M  V30 76 C 5.3194 1.42986 4.13369 0
M  V30 77 C 4.3784 0.879976 5.1879 0
M  V30 78 O 3.4044 1.56219 5.47343 0
M  V30 79 N 4.6064 -0.307396 5.79686 0
M  V30 80 H 7.3714 1.8588 2.35093 0
M  V30 81 H 4.9324 1.11422 1.1746 0
M  V30 82 H 6.9244 -0.0201474 4.04695 0
M  V30 83 H 5.4944 -0.479437 3.08902 0
M  V30 84 H 4.7144 1.98608 3.40512 0
M  V30 85 H 6.0024 2.14885 4.61196 0
M  V30 86 H 5.4004 -0.878796 5.58832 0
M  V30 87 H 3.9574 -0.631115 6.48737 0
M  V30 88 N 7.3905 -1.2043 1.01659 0
M  V30 89 C 8.6305 -1.91507 0.714456 0
M  V30 90 C 8.9945 -1.77073 -0.742237 0
M  V30 91 O 10.1955 -2.42631 -1.15688 0
M  V30 92 C 8.4665 -3.38795 1.13809 0
M  V30 93 S 10.0255 -4.28216 0.957925 0
M  V30 94 H 6.8435 -0.661571 0.260471 0
M  V30 95 H 9.4455 -1.45671 1.30384 0
M  V30 96 H 8.1495 -3.46822 2.19415 0
M  V30 97 H 7.6805 -3.89656 0.541474 0
M  V30 98 H 9.6955 -4.96007 -0.138531 0
M  V30 99 N 8.8686 -0.792821 -1.36206 0
M  V30 100 C 9.7986 -0.207853 -2.32573 0
M  V30 101 C 10.7796 0.659055 -1.56813 0
M  V30 102 O 11.9646 0.592176 -1.84951 0
M  V30 103 C 9.0946 0.655449 -3.41059 0
M  V30 104 C 8.0486 -0.111842 -4.27854 0
M  V30 105 C 7.3746 0.872274 -5.27537 0
M  V30 106 C 8.6746 -1.30299 -5.05786 0
M  V30 107 H 10.3686 -1.01294 -2.81744 0
M  V30 108 H 7.9146 -0.48854 -1.3546 0
M  V30 109 H 9.8676 1.07464 -4.07467 0
M  V30 110 H 8.5916 1.49328 -2.90463 0
M  V30 111 H 7.2506 -0.512053 -3.63006 0
M  V30 112 H 6.8986 1.70523 -4.73214 0
M  V30 113 H 6.5986 0.363291 -5.86476 0
M  V30 114 H 8.1226 1.28996 -5.96818 0
M  V30 115 H 9.5366 -0.959379 -5.65216 0
M  V30 116 H 7.9336 -1.7455 -5.74154 0
M  V30 117 H 9.0036 -2.09663 -4.37229 0
M  V30 118 N 10.3467 1.47872 -0.545128 0
M  V30 119 C 11.2767 2.32661 0.197793 0
M  V30 120 C 12.2577 1.43041 0.920504 0
M  V30 121 O 13.4427 1.71912 0.90333 0
M  V30 122 C 10.5727 3.24569 1.23582 0
M  V30 123 C 9.5267 4.23333 0.630323 0
M  V30 124 C 8.8527 5.0448 1.77211 0
M  V30 125 C 10.1527 5.20704 -0.407974 0
M  V30 126 H 11.8467 2.95024 -0.510045 0
M  V30 127 H 9.3927 1.4187 -0.246731 0
M  V30 128 H 11.3457 3.8272 1.76362 0
M  V30 129 H 10.0697 2.60236 1.97344 0
M  V30 130 H 8.7287 3.6639 0.123922 0
M  V30 131 H 8.3767 4.36561 2.49847 0
M  V30 132 H 8.0767 5.71339 1.37281 0
M  V30 133 H 9.6007 5.65487 2.3034 0
M  V30 134 H 11.0147 5.7329 0.033305 0
M  V30 135 H 9.4117 5.95699 -0.725486 0
M  V30 136 H 10.4817 4.66917 -1.30828 0
M  V30 137 N 11.8248 0.280983 1.55075 0
M  V30 138 C 12.7748 -0.618585 2.19448 0
M  V30 139 C 13.7588 -1.11401 1.16098 0
M  V30 140 O 14.9508 -1.0581 1.41891 0
M  V30 141 C 12.0798 -1.79951 2.92357 0
M  V30 142 C 11.1658 -1.321 4.03002 0
M  V30 143 N 11.5568 -0.559044 5.02701 0
M  V30 144 C 9.8548 -1.60346 4.16179 0
M  V30 145 C 10.5558 -0.306722 5.80891 0
M  V30 146 N 9.5318 -0.880825 5.36416 0
M  V30 147 H 13.3338 -0.0286638 2.93886 0
M  V30 148 H 10.8478 0.0848104 1.62178 0
M  V30 149 H 12.8448 -2.45531 3.36927 0
M  V30 150 H 11.5048 -2.39333 2.19431 0
M  V30 151 H 12.5158 -0.205827 5.17491 0
M  V30 152 H 9.1928 -2.20621 3.54447 0
M  V30 153 H 10.5828 0.30391 6.71212 0
M  V30 154 N 13.3029 -1.57598 0.00835791 0
M  V30 155 C 14.5309 -1.95214 -0.68549 0
M  V30 156 C 14.9459 -0.883706 -1.66841 0
M  V30 157 O 14.3029 0.136565 -1.81988 0
M  V30 158 C 14.3539 -3.32865 -1.41007 0
M  V30 159 O 14.0749 -4.35609 -0.466552 0
M  V30 160 C 15.5759 -3.84991 -2.19765 0
M  V30 161 H 12.7959 -0.643422 -0.190392 0
M  V30 162 H 15.3399 -2.04406 0.0619607 0
M  V30 163 H 13.4949 -3.24956 -2.10908 0
M  V30 164 H 13.9089 -5.15288 -0.978699 0
M  V30 165 H 15.3829 -4.8371 -2.65948 0
M  V30 166 H 15.8599 -3.18137 -3.02796 0
M  V30 167 H 16.4659 -3.96103 -1.54864 0
M  V30 168 N 14.781 0.264519 -1.55364 0
M  V30 169 C 16.192 0.834936 -1.6699 0
M  V30 170 C 16.543 1.86718 -0.602552 0
M  V30 171 O 15.668 2.14899 0.254425 0
M  V30 172 C 16.263 1.5212 -3.02729 0
M  V30 173 C 14.822 2.03954 -3.16354 0
M  V30 174 C 13.969 0.884498 -2.62815 0
M  V30 175 H 16.92 0.0406869 -1.58648 0
M  V30 176 H 16.941 2.38853 -2.96191 0
M  V30 177 H 16.453 0.769668 -3.80392 0
M  V30 178 H 14.554 2.82041 -2.43482 0
M  V30 179 H 14.667 2.24902 -4.23032 0
M  V30 180 H 13.031 1.2802 -2.20188 0
M  V30 181 H 13.814 0.14634 -3.42988 0
M  V30 182 N 16.2591 1.48442 0.529413 0
M  V30 183 C 17.4841 1.60406 1.31471 0
M  V30 184 C 17.9091 0.264738 1.86228 0
M  V30 185 O 17.2671 -0.763668 1.64432 0
M  V30 186 C 17.3151 2.65419 2.44101 0
M  V30 187 O 16.4191 2.22618 3.47153 0
M  V30 188 H 15.7601 0.537863 0.389357 0
M  V30 189 H 18.2901 1.94432 0.636965 0
M  V30 190 H 18.3001 2.86709 2.90279 0
M  V30 191 H 16.9751 3.62652 2.03608 0
M  V30 192 H 15.5521 2.11543 3.0709 0
M  V30 193 N 17.7372 -0.778329 1.37039 0
M  V30 194 C 18.6672 -1.90546 1.34962 0
M  V30 195 C 19.6482 -1.68681 0.219274 0
M  V30 196 O 20.8332 -1.89634 0.418624 0
M  V30 197 C 17.9632 -3.27734 1.14925 0
M  V30 198 C 16.9172 -3.64147 2.24902 0
M  V30 199 C 16.2432 -4.99806 1.89996 0
M  V30 200 C 17.5432 -3.71579 3.67051 0
M  V30 201 H 19.2372 -1.92541 2.29277 0
M  V30 202 H 16.7832 -0.924948 1.10366 0
M  V30 203 H 18.7362 -4.06215 1.12104 0
M  V30 204 H 17.4602 -3.26154 0.170631 0
M  V30 205 H 16.1192 -2.8797 2.26868 0
M  V30 206 H 15.7672 -4.94759 0.906796 0
M  V30 207 H 15.4672 -5.25139 2.63634 0
M  V30 208 H 16.9912 -5.80694 1.88749 0
M  V30 209 H 18.4052 -4.40227 3.67251 0
M  V30 210 H 16.8022 -4.08405 4.39688 0
M  V30 211 H 17.8722 -2.72404 4.01154 0
M  V30 212 N 19.2153 -1.21501 -1.00376 0
M  V30 213 C 20.1783 -0.976927 -2.07337 0
M  V30 214 C 21.1783 0.0525322 -1.60714 0
M  V30 215 O 22.3683 -0.184869 -1.73216 0
M  V30 216 C 19.5003 -0.473423 -3.37597 0
M  V30 217 H 20.6933 -1.92587 -2.29892 0
M  V30 218 H 18.2463 -1.03217 -1.17371 0
M  V30 219 H 18.9813 0.480379 -3.20722 0
M  V30 220 H 18.7663 -1.216 -3.72768 0
M  V30 221 H 20.2563 -0.32675 -4.1632 0
M  V30 222 N 20.6934 1.19889 -1.02296 0
M  V30 223 C 21.9184 1.9393 -0.735237 0
M  V30 224 C 22.3434 1.74639 0.698782 0
M  V30 225 O 21.7014 1.04481 1.48167 0
M  V30 226 C 21.7494 3.43916 -1.08417 0
M  V30 227 O 20.8534 4.11917 -0.199446 0
M  V30 228 H 20.1944 0.605645 -0.272196 0
M  V30 229 H 22.7244 1.52137 -1.36804 0
M  V30 230 H 22.7344 3.9456 -1.03856 0
M  V30 231 H 21.4094 3.5728 -2.12894 0
M  V30 232 H 19.9864 3.71666 -0.303136 0
M  V30 233 N 22.1715 0.800033 1.35784 0
M  V30 234 C 23.5825 0.439142 1.81462 0
M  V30 235 C 23.9335 -1.03813 1.66485 0
M  V30 236 O 23.0585 -1.80626 1.19177 0
M  V30 237 C 23.6535 0.790314 3.29453 0
M  V30 238 C 22.2125 0.482111 3.733 0
M  V30 239 C 21.3595 1.01938 2.57883 0
M  V30 240 H 24.3105 0.992254 1.23855 0
M  V30 241 H 24.3315 0.0853677 3.80404 0
M  V30 242 H 23.8435 1.86554 3.40322 0
M  V30 243 H 21.9445 -0.584652 3.67984 0
M  V30 244 H 22.0575 1.01015 4.6833 0
M  V30 245 H 20.4215 0.442043 2.50835 0
M  V30 246 H 21.2045 2.10059 2.71533 0
M  V30 247 N 23.6496 -1.47581 0.552962 0
M  V30 248 C 24.5796 -2.32762 -0.185451 0
M  V30 249 C 25.5606 -1.43527 -0.912905 0
M  V30 250 O 26.7456 -1.72388 -0.894201 0
M  V30 251 C 23.8756 -3.25219 -1.21859 0
M  V30 252 C 22.8296 -4.23661 -0.607864 0
M  V30 253 C 22.1556 -5.05413 -1.74533 0
M  V30 254 C 23.4556 -5.20481 0.435582 0
M  V30 255 H 25.1496 -2.94749 0.525684 0
M  V30 256 H 22.6956 -1.41738 0.254251 0
M  V30 257 H 24.6486 -3.8365 -1.7433 0
M  V30 258 H 23.3726 -2.61279 -1.95961 0
M  V30 259 H 22.0316 -3.66451 -0.104489 0
M  V30 260 H 21.6796 -4.3788 -2.47529 0
M  V30 261 H 21.3796 -5.72059 -1.34249 0
M  V30 262 H 22.9036 -5.66701 -2.27338 0
M  V30 263 H 24.3176 -5.733 -0.00290157 0
M  V30 264 H 22.7146 -5.95305 0.757067 0
M  V30 265 H 23.7846 -4.66217 1.33303 0
M  V30 266 N 25.1277 -0.289203 -1.54924 0
M  V30 267 C 26.0577 0.58549 -2.2604 0
M  V30 268 C 27.0387 1.14753 -1.25562 0
M  V30 269 O 28.2237 1.17906 -1.54311 0
M  V30 270 C 25.3537 1.76305 -2.99222 0
M  V30 271 C 24.3077 1.33191 -4.06748 0
M  V30 272 C 23.6337 2.5937 -4.6758 0
M  V30 273 C 24.9337 0.471775 -5.20165 0
M  V30 274 H 26.6277 -0.00763532 -2.99399 0
M  V30 275 H 24.1737 -0.00511229 -1.43999 0
M  V30 276 H 26.1267 2.38097 -3.47689 0
M  V30 277 H 24.8507 2.38223 -2.23422 0
M  V30 278 H 23.5097 0.737121 -3.59113 0
M  V30 279 H 23.1577 3.19576 -3.88433 0
M  V30 280 H 22.8577 2.31228 -5.40192 0
M  V30 281 H 24.3817 3.21985 -5.18804 0
M  V30 282 H 25.7957 0.995056 -5.64599 0
M  V30 283 H 24.1927 0.284639 -5.99425 0
M  V30 284 H 25.2627 -0.506041 -4.82252 0
M  V30 285 N 26.6058 1.57591 -0.0167156 0
M  V30 286 C 27.5358 2.12496 0.967858 0
M  V30 287 C 28.5168 1.03807 1.34752 0
M  V30 288 O 29.7018 1.31577 1.42833 0
M  V30 289 C 26.8318 2.64194 2.25431 0
M  V30 290 C 25.7858 3.77559 2.01576 0
M  V30 291 C 25.1118 4.15636 3.36379 0
M  V30 292 C 26.4118 5.04151 1.36489 0
M  V30 293 H 28.1058 2.95013 0.510643 0
M  V30 294 H 25.6518 1.41915 0.244181 0
M  V30 295 H 27.6048 3.01236 2.94678 0
M  V30 296 H 26.3288 1.78821 2.73296 0
M  V30 297 H 24.9878 3.40937 1.34751 0
M  V30 298 H 24.6358 3.27263 3.81979 0
M  V30 299 H 24.3358 4.92022 3.21229 0
M  V30 300 H 25.8598 4.5525 4.06915 0
M  V30 301 H 27.2738 5.38857 1.95718 0
M  V30 302 H 25.6708 5.85453 1.31776 0
M  V30 303 H 26.7408 4.83733 0.336219 0
M  V30 304 N 28.0839 -0.256276 1.55502 0
M  V30 305 C 29.0139 -1.32102 1.92539 0
M  V30 306 C 29.9949 -1.50684 0.789194 0
M  V30 307 O 31.1799 -1.63449 1.04872 0
M  V30 308 C 28.3099 -2.67752 2.21192 0
M  V30 309 C 27.2639 -2.63878 3.36975 0
M  V30 310 C 26.5899 -4.03236 3.51147 0
M  V30 311 C 27.8899 -2.21682 4.72921 0
M  V30 312 H 29.5839 -1.01351 2.81724 0
M  V30 313 H 27.1299 -0.486105 1.35547 0
M  V30 314 H 29.0829 -3.42365 2.45691 0
M  V30 315 H 27.8069 -3.0012 1.28824 0
M  V30 316 H 26.4659 -1.91722 3.12471 0
M  V30 317 H 26.1139 -4.32854 2.56216 0
M  V30 318 H 25.8139 -4.01535 4.29003 0
M  V30 319 H 27.3379 -4.79563 3.77957 0
M  V30 320 H 28.7519 -2.86023 4.96854 0
M  V30 321 H 27.1489 -2.3111 5.53812 0
M  V30 322 H 28.2189 -1.16833 4.70615 0
M  V30 323 N 29.562 -1.4872 -0.521534 0
M  V30 324 C 30.492 -1.66771 -1.63431 0
M  V30 325 C 31.473 -0.516499 -1.62069 0
M  V30 326 O 32.658 -0.750013 -1.79132 0
M  V30 327 C 29.788 -1.71515 -3.01993 0
M  V30 328 C 28.742 -2.86222 -3.18216 0
M  V30 329 C 28.068 -2.76061 -4.57924 0
M  V30 330 C 29.368 -4.27419 -3.00184 0
M  V30 331 H 31.062 -2.59932 -1.48579 0
M  V30 332 H 28.608 -1.25089 -0.713358 0
M  V30 333 H 30.561 -1.82731 -3.7972 0
M  V30 334 H 29.285 -0.749393 -3.17886 0
M  V30 335 H 27.944 -2.74575 -2.42908 0
M  V30 336 H 27.592 -1.77437 -4.70665 0
M  V30 337 H 27.292 -3.53037 -4.69722 0
M  V30 338 H 28.816 -2.89256 -5.37739 0
M  V30 339 H 30.23 -4.39855 -3.67697 0
M  V30 340 H 28.627 -5.05458 -3.2347 0
M  V30 341 H 29.697 -4.43293 -1.96518 0
M  V30 342 N 31.0401 0.771051 -1.3745 0
M  V30 343 C 31.9701 1.89827 -1.3597 0
M  V30 344 C 32.9511 1.68562 -0.228216 0
M  V30 345 O 34.1361 1.8941 -0.428675 0
M  V30 346 C 31.2661 3.2712 -1.16662 0
M  V30 347 C 30.2201 3.6295 -2.2683 0
M  V30 348 C 29.5461 4.98791 -1.92644 0
M  V30 349 C 30.8461 3.69627 -3.69017 0
M  V30 350 H 32.5401 1.91323 -2.30295 0
M  V30 351 H 30.0861 0.919082 -1.10855 0
M  V30 352 H 32.0391 4.05615 -1.14256 0
M  V30 353 H 30.7631 3.26059 -0.187926 0
M  V30 354 H 29.4221 2.86763 -2.28392 0
M  V30 355 H 29.0701 4.94271 -0.933021 0
M  V30 356 H 28.7701 5.23733 -2.66416 0
M  V30 357 H 30.2941 5.79685 -1.91826 0
M  V30 358 H 31.7081 4.38273 -3.69581 0
M  V30 359 H 30.1051 4.06067 -4.41848 0
M  V30 360 H 31.1751 2.70273 -4.02592 0
M  V30 361 N 32.5182 1.22032 0.997298 0
M  V30 362 C 33.7642 1.05382 1.73972 0
M  V30 363 C 34.1192 -0.407419 1.88037 0
M  V30 364 O 33.4122 -1.29811 1.40924 0
M  V30 365 C 33.6062 1.69345 3.14733 0
M  V30 366 C 33.4352 3.21537 3.14395 0
M  V30 367 C 32.2052 3.9062 3.20537 0
M  V30 368 C 34.4032 4.18527 2.98897 0
M  V30 369 N 32.3852 5.29935 3.09906 0
M  V30 370 C 33.7562 5.44645 2.96247 0
M  V30 371 C 35.8112 4.09476 2.83255 0
M  V30 372 C 34.5142 6.62752 2.79557 0
M  V30 373 C 36.5402 5.27228 2.67926 0
M  V30 374 C 35.9022 6.52262 2.65959 0
M  V30 375 H 32.0012 0.440018 0.646458 0
M  V30 376 H 34.5852 1.54505 1.18475 0
M  V30 377 H 32.7562 1.22778 3.68484 0
M  V30 378 H 34.4882 1.45828 3.77513 0
M  V30 379 H 31.2432 3.41592 3.28043 0
M  V30 380 H 31.6672 6.02926 3.07912 0
M  V30 381 H 36.3092 3.13598 2.83577 0
M  V30 382 H 34.0272 7.58783 2.77982 0
M  V30 383 H 37.6132 5.22053 2.56812 0
M  V30 384 H 36.4932 7.41844 2.54239 0
M  V30 385 N 33.9963 -1.19345 1.0293 0
M  V30 386 C 34.9263 -2.2481 0.631105 0
M  V30 387 C 35.9073 -1.66245 -0.360104 0
M  V30 388 O 37.0923 -1.92677 -0.242726 0
M  V30 389 C 34.2223 -3.47295 -0.0184607 0
M  V30 390 C 33.1763 -4.18536 0.895073 0
M  V30 391 C 32.5023 -5.34586 0.110592 0
M  V30 392 C 33.8023 -4.73287 2.209 0
M  V30 393 H 35.4963 -2.58372 1.51275 0
M  V30 394 H 33.0423 -1.24194 0.728818 0
M  V30 395 H 34.9953 -4.20268 -0.308675 0
M  V30 396 H 33.7193 -3.12933 -0.934907 0
M  V30 397 H 32.3783 -3.47446 1.16949 0
M  V30 398 H 32.0263 -4.96469 -0.807902 0
M  V30 399 H 31.7263 -5.83183 0.719087 0
M  V30 400 H 33.2503 -6.10355 -0.172871 0
M  V30 401 H 34.6643 -5.38013 1.98028 0
M  V30 402 H 33.0613 -5.32373 2.76946 0
M  V30 403 H 34.1313 -3.91331 2.86336 0
M  V30 404 N 35.4744 -0.807222 -1.35358 0
M  V30 405 C 36.4044 -0.232509 -2.3234 0
M  V30 406 C 37.3854 0.642386 -1.57504 0
M  V30 407 O 38.5704 0.572526 -1.85569 0
M  V30 408 C 35.7004 0.619238 -3.41735 0
M  V30 409 C 34.6544 -0.157215 -4.27711 0
M  V30 410 C 33.9804 0.816273 -5.28433 0
M  V30 411 C 35.2804 -1.35656 -5.04376 0
M  V30 412 H 36.9744 -1.04276 -2.80654 0
M  V30 413 H 34.5204 -0.50288 -1.34934 0
M  V30 414 H 36.4734 1.03137 -4.08584 0
M  V30 415 H 35.1974 1.46239 -2.92031 0
M  V30 416 H 33.8564 -0.550525 -3.62443 0
M  V30 417 H 33.5044 1.65494 -4.74996 0
M  V30 418 H 33.2044 0.301067 -5.86828 0
M  V30 419 H 34.7284 1.22659 -5.98153 0
M  V30 420 H 36.1424 -1.01927 -5.64166 0
M  V30 421 H 34.5394 -1.8063 -5.7227 0
M  V30 422 H 35.6094 -2.14288 -4.34981 0
M  V30 423 N 36.9525 1.47285 -0.560781 0
M  V30 424 C 38.2005 2.02064 -0.0379868 0
M  V30 425 C 38.5215 1.43711 1.31803 0
M  V30 426 O 37.7915 0.61362 1.86042 0
M  V30 427 H 36.3715 0.746918 -0.0110531 0
M  V30 428 H 39.0335 1.80648 -0.731598 0
M  V30 429 H 38.1295 3.12064 0.0474463 0
M  V30 430 N 38.4306 0.297415 1.54768 0
M  V30 431 C 39.6786 -0.312295 1.99673 0
M  V30 432 C 39.9996 -1.54686 1.18732 0
M  V30 433 O 39.2696 -1.93854 0.282382 0
M  V30 434 H 37.8496 -0.118381 0.73756 0
M  V30 435 H 40.5116 0.407915 1.90583 0
M  V30 436 H 39.6076 -0.586813 3.06534 0
M  V30 437 N 39.9087 -1.5758 0.0250728 0
M  V30 438 C 41.1567 -1.91255 -0.653151 0
M  V30 439 C 41.4777 -0.901691 -1.729 0
M  V30 440 O 40.7477 0.0573785 -1.95816 0
M  V30 441 H 39.3277 -0.705942 -0.244243 0
M  V30 442 H 41.9897 -1.94767 0.0719209 0
M  V30 443 H 41.0857 -2.91752 -1.10847 0
M  V30 444 N 41.3868 0.248026 -1.55636 0
M  V30 445 C 42.6328 0.97767 -1.77678 0
M  V30 446 C 42.9658 1.85016 -0.590135 0
M  V30 447 O 42.2408 1.90095 0.411611 0
M  V30 448 C 42.5238 1.83914 -3.09593 0
M  V30 449 C 42.3768 0.99491 -4.38659 0
M  V30 450 C 43.6958 2.82183 -3.37729 0
M  V30 451 H 40.8148 0.354005 -0.646413 0
M  V30 452 H 43.4568 0.248253 -1.88371 0
M  V30 453 H 41.6068 2.46104 -3.00608 0
M  V30 454 H 43.2788 0.391789 -4.59633 0
M  V30 455 H 41.5218 0.299231 -4.32767 0
M  V30 456 H 42.1928 1.63145 -5.2734 0
M  V30 457 H 44.6688 2.30129 -3.4667 0
M  V30 458 H 43.5448 3.39582 -4.31249 0
M  V30 459 H 43.8058 3.58588 -2.58586 0
M  V30 460 N 42.8649 1.48995 0.513639 0
M  V30 461 C 44.1129 1.57531 1.26604 0
M  V30 462 C 44.4339 0.258236 1.93283 0
M  V30 463 O 43.7039 -0.721502 1.8213 0
M  V30 464 H 42.2839 0.580387 0.470276 0
M  V30 465 H 44.9459 1.85552 0.596373 0
M  V30 466 H 44.0419 2.36486 2.03669 0
M  V30 467 N 44.343 -0.763751 1.37857 0
M  V30 468 C 45.306 -1.85889 1.34081 0
M  V30 469 C 46.306 -1.58949 0.243277 0
M  V30 470 O 47.496 -1.66882 0.499589 0
M  V30 471 C 44.628 -3.23176 1.08489 0
M  V30 472 H 45.821 -1.90648 2.31502 0
M  V30 473 H 43.374 -0.964367 1.23003 0
M  V30 474 H 44.109 -3.24091 0.116318 0
M  V30 475 H 43.894 -3.44124 1.8794 0
M  V30 476 H 45.384 -4.03254 1.08517 0
M  V30 477 N 45.8211 -1.22559 -0.990812 0
M  V30 478 C 46.7311 -1.01394 -2.11557 0
M  V30 479 C 47.7471 0.0383962 -1.73958 0
M  V30 480 O 48.9231 -0.154787 -2.00804 0
M  V30 481 C 45.9881 -0.596569 -3.41529 0
M  V30 482 C 45.0491 -1.72276 -3.93217 0
M  V30 483 C 44.2821 -1.32521 -5.16985 0
M  V30 484 O 44.5051 -0.204909 -5.70032 0
M  V30 485 O 43.4391 -2.14247 -5.62478 0
M  V30 486 H 47.2651 -1.95633 -2.32296 0
M  V30 487 H 44.8501 -1.01172 -1.0993 0
M  V30 488 H 46.7321 -0.374263 -4.19735 0
M  V30 489 H 45.4071 0.316939 -3.22145 0
M  V30 490 H 44.3141 -1.99961 -3.16174 0
M  V30 491 H 45.6471 -2.61421 -4.17037 0
M  V30 492 N 47.2992 1.18797 -1.03562 0
M  V30 493 C 48.5472 1.88278 -0.734569 0
M  V30 494 C 48.8682 1.8043 0.739586 0
M  V30 495 O 48.1382 1.21925 1.53333 0
M  V30 496 H 46.7182 0.696991 -0.268725 0
M  V30 497 H 49.3802 1.44192 -1.31129 0
M  V30 498 H 48.4762 2.94443 -1.03489 0
M  V30 499 N 48.7773 0.814389 1.34928 0
M  V30 500 C 50.1933 0.499084 1.51596 0
M  V30 501 C 50.3933 -0.978319 1.76157 0
M  V30 502 O 49.4493 -1.76309 1.80752 0
M  V30 503 C 50.7623 1.35121 2.68631 0
M  V30 504 C 52.3103 1.34746 2.82511 0
M  V30 505 C 52.7853 2.18388 4.0258 0
M  V30 506 N 54.2763 2.15966 4.09772 0
M  V30 507 C 55.0113 2.77437 5.01813 0
M  V30 508 N 54.5073 3.47866 5.99134 0
M  V30 509 N 56.3003 2.67037 4.94619 0
M  V30 510 H 48.4513 1.7711 1.17243 0
M  V30 511 H 50.7143 0.754256 0.574284 0
M  V30 512 H 50.4203 2.40001 2.57085 0
M  V30 513 H 50.2943 1.00991 3.63429 0
M  V30 514 H 52.6813 0.30648 2.93504 0
M  V30 515 H 52.7623 1.72869 1.88547 0
M  V30 516 H 52.4063 3.2253 3.92347 0
M  V30 517 H 52.3363 1.77621 4.9574 0
M  V30 518 H 54.8273 1.64729 3.40107 0
M  V30 519 H 55.1403 3.92038 6.65977 0
M  V30 520 H 53.4853 3.51972 5.99284 0
M  V30 521 H 56.6763 2.11597 4.17546 0
M  V30 522 H 56.8493 3.15232 5.66156 0
M  V30 523 N 50.2554 -1.46986 0.568584 0
M  V30 524 C 51.1654 -2.33942 -0.17555 0
M  V30 525 C 52.1814 -1.48891 -0.90041 0
M  V30 526 O 53.3574 -1.81794 -0.86676 0
M  V30 527 C 50.4224 -3.25811 -1.18524 0
M  V30 528 C 49.4834 -4.26757 -0.466582 0
M  V30 529 C 48.7164 -5.14236 -1.42817 0
M  V30 530 O 48.9394 -5.04379 -2.66379 0
M  V30 531 O 47.8734 -5.94412 -0.946453 0
M  V30 532 H 51.6994 -2.98896 0.538036 0
M  V30 533 H 49.2844 -1.4573 0.329097 0
M  V30 534 H 51.1664 -3.82527 -1.76779 0
M  V30 535 H 49.8414 -2.63471 -1.88055 0
M  V30 536 H 48.7484 -3.73769 0.157451 0
M  V30 537 H 50.0814 -4.91843 0.187485 0
M  V30 538 N 51.7335 -0.305618 -1.54608 0
M  V30 539 C 53.0105 0.355652 -1.92339 0
M  V30 540 C 53.3905 1.71324 -1.23335 0
M  V30 541 O 52.7385 2.25473 -0.370702 0
M  V30 542 C 52.9485 0.46572 -3.45879 0
M  V30 543 C 54.2965 0.734426 -4.182 0
M  V30 544 O 55.3205 0.54935 -3.51938 0
M  V30 545 O 54.1795 1.09024 -5.35515 0
M  V30 546 H 51.2735 0.199666 -0.802535 0
M  V30 547 H 53.8195 -0.354017 -1.65966 0
M  V30 548 H 52.5915 -0.488461 -3.88239 0
M  V30 549 H 52.2145 1.22367 -3.78301 0
M  V30 550 N 53.2116 1.57565 -0.0334293 0
M  V30 551 C 54.1746 2.09393 0.932048 0
M  V30 552 C 55.1746 1.00986 1.25134 0
M  V30 553 O 56.3646 1.27129 1.19096 0
M  V30 554 C 53.4966 2.56338 2.2473 0
M  V30 555 H 54.6896 2.95984 0.483085 0
M  V30 556 H 52.2426 1.54819 0.21468 0
M  V30 557 H 52.9776 1.7309 2.74245 0
M  V30 558 H 52.7626 3.35542 2.02865 0
M  V30 559 H 54.2526 2.96646 2.93923 0
M  V30 560 N 54.6897 -0.239769 1.55765 0
M  V30 561 C 55.5997 -1.31831 1.94056 0
M  V30 562 C 56.6157 -1.52275 0.841925 0
M  V30 563 O 57.7917 -1.65759 1.14394 0
M  V30 564 C 54.8567 -2.65156 2.23368 0
M  V30 565 C 53.9177 -2.53173 3.46701 0
M  V30 566 C 53.1507 -3.8014 3.74606 0
M  V30 567 O 53.3737 -4.82343 3.04469 0
M  V30 568 O 52.3077 -3.78344 4.68123 0
M  V30 569 H 56.1337 -1.02347 2.85935 0
M  V30 570 H 53.7187 -0.441123 1.42739 0
M  V30 571 H 55.6007 -3.43929 2.43497 0
M  V30 572 H 54.2757 -2.94358 1.34666 0
M  V30 573 H 53.1827 -1.72662 3.31871 0
M  V30 574 H 54.5157 -2.28915 4.35728 0
M  V30 575 N 56.1678 -1.49265 -0.50573 0
M  V30 576 C 57.0978 -1.68495 -1.61653 0
M  V30 577 C 58.0788 -0.53366 -1.61512 0
M  V30 578 O 59.2638 -0.76897 -1.78327 0
M  V30 579 C 56.3938 -1.74709 -3.00157 0
M  V30 580 C 55.3478 -2.89581 -3.15162 0
M  V30 581 C 54.6738 -2.80903 -4.5497 0
M  V30 582 C 55.9738 -4.30578 -2.95634 0
M  V30 583 H 57.6678 -2.61493 -1.45814 0
M  V30 584 H 55.2138 -1.25838 -0.70005 0
M  V30 585 H 57.1668 -1.86748 -3.77761 0
M  V30 586 H 55.8908 -0.783067 -3.17074 0
M  V30 587 H 54.5498 -2.77136 -2.39982 0
M  V30 588 H 54.1978 -1.82419 -4.68756 0
M  V30 589 H 53.8978 -3.57999 -4.65951 0
M  V30 590 H 55.4218 -2.94944 -5.34641 0
M  V30 591 H 56.8358 -4.4373 -3.63011 0
M  V30 592 H 55.2328 -5.0886 -3.18091 0
M  V30 593 H 56.3028 -4.45352 -1.91806 0
M  V30 594 N 57.6459 0.756429 -1.3826 0
M  V30 595 C 58.5759 1.88374 -1.37976 0
M  V30 596 C 59.5569 1.68311 -0.246082 0
M  V30 597 O 60.7419 1.88944 -0.44874 0
M  V30 598 C 57.8719 3.25864 -1.20125 0
M  V30 599 C 56.8259 3.60523 -2.30666 0
M  V30 600 C 56.1519 4.9672 -1.97923 0
M  V30 601 C 57.4519 3.65692 -3.72916 0
M  V30 602 H 59.1459 1.88869 -2.32312 0
M  V30 603 H 56.6919 0.907272 -1.11824 0
M  V30 604 H 58.6449 4.0438 -1.18552 0
M  V30 605 H 57.3689 3.25841 -0.222498 0
M  V30 606 H 56.0279 2.84324 -2.3142 0
M  V30 607 H 55.6759 4.93253 -0.985393 0
M  V30 608 H 55.3759 5.20878 -2.71955 0
M  V30 609 H 56.8999 5.77618 -1.97964 0
M  V30 610 H 58.3139 4.34328 -3.74208 0
M  V30 611 H 56.7109 4.01358 -4.4613 0
M  V30 612 H 57.7809 2.65987 -4.05436 0
M  V30 613 N 59.124 1.23083 0.984299 0
M  V30 614 C 60.37 1.06214 1.72761 0
M  V30 615 C 60.703 -0.400584 1.90024 0
M  V30 616 O 59.978 -1.29672 1.44967 0
M  V30 617 C 60.261 1.78375 3.12817 0
M  V30 618 C 60.114 3.32296 3.03149 0
M  V30 619 C 61.433 1.54309 4.12161 0
M  V30 620 H 58.552 0.387251 0.627061 0
M  V30 621 H 61.194 1.51536 1.14616 0
M  V30 622 H 59.344 1.39848 3.62457 0
M  V30 623 H 61.016 3.8032 2.61064 0
M  V30 624 H 59.259 3.6153 2.39747 0
M  V30 625 H 59.93 3.77972 4.02295 0
M  V30 626 H 62.406 1.87791 3.71314 0
M  V30 627 H 61.282 2.07281 5.08258 0
M  V30 628 H 61.543 0.477572 4.39513 0
M  V30 629 N 60.6021 -1.18246 1.0419 0
M  V30 630 C 61.8301 -1.92195 0.766072 0
M  V30 631 C 62.2451 -1.76247 -0.676933 0
M  V30 632 O 61.6021 -1.09293 -1.46155 0
M  V30 633 C 61.6531 -3.43568 1.12442 0
M  V30 634 O 61.3741 -3.59015 2.51078 0
M  V30 635 C 62.8751 -4.34613 0.873275 0
M  V30 636 H 60.0951 -0.610114 0.279288 0
M  V30 637 H 62.6391 -1.50007 1.38989 0
M  V30 638 H 60.7941 -3.8354 0.545542 0
M  V30 639 H 61.2081 -4.5273 2.64831 0
M  V30 640 H 62.6821 -5.39374 1.17385 0
M  V30 641 H 63.1591 -4.38781 -0.191909 0
M  V30 642 H 63.7651 -4.00341 1.43551 0
M  V30 643 N 62.0802 -0.821533 -1.34494 0
M  V30 644 C 63.3262 -0.409552 -1.98622 0
M  V30 645 C 63.6592 1.0244 -1.64984 0
M  V30 646 O 62.9342 1.71325 -0.920758 0
M  V30 647 C 63.2172 -0.610458 -3.54888 0
M  V30 648 C 63.0702 -2.09043 -3.98273 0
M  V30 649 C 64.3892 -0.0455379 -4.40076 0
M  V30 650 H 61.5082 -0.15028 -0.721516 0
M  V30 651 H 64.1502 -1.03384 -1.59411 0
M  V30 652 H 62.3002 -0.079044 -3.8842 0
M  V30 653 H 63.9722 -2.68537 -3.75081 0
M  V30 654 H 62.2152 -2.58139 -3.48635 0
M  V30 655 H 62.8862 -2.18182 -5.07051 0
M  V30 656 H 65.3622 -0.499557 -4.1309 0
M  V30 657 H 64.2382 -0.215922 -5.48475 0
M  V30 658 H 64.4992 1.04939 -4.29465 0
M  V30 659 N 63.5583 1.46682 -0.576371 0
M  V30 660 C 64.9743 1.57822 -0.237562 0
M  V30 661 C 65.1743 1.57237 1.26011 0
M  V30 662 O 64.2303 1.48596 2.04146 0
M  V30 663 C 65.5433 2.87499 -0.881168 0
M  V30 664 C 67.0913 3.01119 -0.85417 0
M  V30 665 C 67.5663 4.33524 -1.4772 0
M  V30 666 N 69.0573 4.40207 -1.44125 0
M  V30 667 C 69.7923 5.4126 -1.89276 0
M  V30 668 N 69.2883 6.49021 -2.42371 0
M  V30 669 N 71.0813 5.32422 -1.80231 0
M  V30 670 H 63.2323 1.45306 -1.54919 0
M  V30 671 H 65.4953 0.692733 -0.647167 0
M  V30 672 H 65.2013 2.9372 -1.93447 0
M  V30 673 H 65.0753 3.75224 -0.385592 0
M  V30 674 H 67.4623 2.94485 0.190491 0
M  V30 675 H 67.5433 2.14887 -1.3877 0
M  V30 676 H 67.1873 4.40916 -2.52103 0
M  V30 677 H 67.1173 5.1852 -0.918947 0
M  V30 678 H 69.6083 3.62931 -1.05307 0
M  V30 679 H 69.9213 7.2233 -2.74698 0
M  V30 680 H 68.2663 6.49858 -2.46393 0
M  V30 681 H 71.4573 4.47137 -1.38514 0
M  V30 682 H 71.6303 6.11034 -2.15735 0
M  V30 683 N 65.0364 0.313813 1.54444 0
M  V30 684 C 66.2844 -0.291099 1.99993 0
M  V30 685 C 66.6054 -1.53418 1.20366 0
M  V30 686 O 65.8754 -1.93544 0.302927 0
M  V30 687 H 64.4554 -0.110552 0.738774 0
M  V30 688 H 67.1174 0.428106 1.9014 0
M  V30 689 H 66.2134 -0.554268 3.07139 0
M  V30 690 N 66.5145 -1.57545 0.0417849 0
M  V30 691 C 67.7625 -1.91937 -0.632829 0
M  V30 692 C 68.0835 -0.919978 -1.71934 0
M  V30 693 O 67.3535 0.0366064 -1.95866 0
M  V30 694 H 65.9335 -0.708493 -0.236742 0
M  V30 695 H 68.5955 -1.9468 0.0925745 0
M  V30 696 H 67.6915 -2.92912 -1.07746 0
M  V30 697 N 67.9926 0.231505 -1.5589 0
M  V30 698 C 69.4086 0.580748 -1.48659 0
M  V30 699 C 69.6086 1.87617 -0.73498 0
M  V30 700 O 68.6646 2.51046 -0.270586 0
M  V30 701 C 69.9776 0.669202 -2.93159 0
M  V30 702 C 71.5256 0.760499 -3.03621 0
M  V30 703 C 72.0006 0.880383 -4.49459 0
M  V30 704 N 73.4916 0.944861 -4.53461 0
M  V30 705 C 74.2266 1.05716 -5.63571 0
M  V30 706 N 73.7226 1.13403 -6.83456 0
M  V30 707 N 75.5156 1.09152 -5.514 0
M  V30 708 H 67.6666 -0.618695 -2.03189 0
M  V30 709 H 69.9296 -0.215728 -0.923128 0
M  V30 710 H 69.6356 -0.212904 -3.51055 0
M  V30 711 H 69.5096 1.5361 -3.44505 0
M  V30 712 H 71.8966 1.63305 -2.45796 0
M  V30 713 H 71.9776 -0.131864 -2.5546 0
M  V30 714 H 71.6216 0.0123284 -5.07899 0
M  V30 715 H 71.5516 1.78802 -4.95316 0
M  V30 716 H 74.0426 0.896176 -3.6712 0
M  V30 717 H 74.3556 1.21921 -7.63122 0
M  V30 718 H 72.7006 1.10333 -6.86186 0
M  V30 719 H 75.8916 1.02805 -4.56671 0
M  V30 720 H 76.0646 1.17558 -6.37247 0
M  V30 721 N 69.4707 1.49531 0.497807 0
M  V30 722 C 70.4007 1.6935 1.60757 0
M  V30 723 C 71.3817 0.542218 1.61227 0
M  V30 724 O 72.5667 0.778417 1.77917 0
M  V30 725 C 69.6967 1.76298 2.99226 0
M  V30 726 C 68.6507 2.91248 3.13622 0
M  V30 727 C 67.9767 2.83312 4.53474 0
M  V30 728 C 69.2767 4.3214 2.93346 0
M  V30 729 H 70.9707 2.62263 1.44425 0
M  V30 730 H 68.5167 1.26208 0.693367 0
M  V30 731 H 70.4697 1.88749 3.76765 0
M  V30 732 H 69.1937 0.799871 3.16654 0
M  V30 733 H 67.8527 2.78404 2.38509 0
M  V30 734 H 67.5007 1.84902 4.67782 0
M  V30 735 H 67.2007 3.60465 4.64046 0
M  V30 736 H 68.7247 2.97775 5.33069 0
M  V30 737 H 70.1387 4.45649 3.60652 0
M  V30 738 H 68.5357 5.1054 3.15387 0
M  V30 739 H 69.6057 4.46363 1.89441 0
M  V30 740 N 70.9488 -0.749086 1.3866 0
M  V30 741 C 72.3648 -1.05276 1.19955 0
M  V30 742 C 72.5648 -2.01435 0.05134 0
M  V30 743 O 71.6208 -2.45232 -0.60147 0
M  V30 744 C 72.9338 -1.62853 2.52783 0
M  V30 745 C 74.4818 -1.75002 2.59506 0
M  V30 746 C 74.9568 -2.35991 3.92521 0
M  V30 747 N 76.4478 -2.43416 3.94085 0
M  V30 748 C 77.1828 -2.91511 4.9377 0
M  V30 749 N 76.6788 -3.39608 6.03853 0
M  V30 750 N 78.4718 -2.90592 4.81157 0
M  V30 751 H 70.6228 -0.111066 2.12109 0
M  V30 752 H 72.8858 -0.111901 0.941373 0
M  V30 753 H 72.5918 -0.99664 3.37283 0
M  V30 754 H 72.4658 -2.61854 2.715 0
M  V30 755 H 74.8528 -2.37317 1.75398 0
M  V30 756 H 74.9338 -0.74693 2.44652 0
M  V30 757 H 74.5778 -1.74308 4.77053 0
M  V30 758 H 74.5078 -3.3695 4.04688 0
M  V30 759 H 76.9988 -2.09405 3.14576 0
M  V30 760 H 77.3118 -3.74775 6.75843 0
M  V30 761 H 75.6568 -3.37653 6.07466 0
M  V30 762 H 78.8478 -2.52332 3.94267 0
M  V30 763 H 79.0208 -3.27762 5.58996 0
M  V30 764 N 72.4269 -1.23603 -0.977757 0
M  V30 765 C 73.6749 -1.06759 -1.71601 0
M  V30 766 C 73.9959 0.395929 -1.90938 0
M  V30 767 O 73.2659 1.28356 -1.47992 0
M  V30 768 H 71.8459 -0.392062 -0.635843 0
M  V30 769 H 74.5079 -1.55362 -1.1768 0
M  V30 770 H 73.6039 -1.55763 -2.70452 0
M  V30 771 N 73.905 1.17692 -1.04816 0
M  V30 772 C 75.154 1.87192 -0.751132 0
M  V30 773 C 75.467 1.8169 0.724441 0
M  V30 774 O 76.673 2.46625 1.13527 0
M  V30 775 C 75.129 3.35857 -1.29338 0
M  V30 776 C 74.737 3.4987 -2.79812 0
M  V30 777 C 76.481 4.10709 -1.07322 0
M  V30 778 C 74.388 4.92536 -3.27356 0
M  V30 779 H 73.318 0.701162 -0.277288 0
M  V30 780 H 75.969 1.32932 -1.26496 0
M  V30 781 H 74.351 3.89631 -0.707376 0
M  V30 782 H 75.525 3.06332 -3.44235 0
M  V30 783 H 73.84 2.88433 -3.00325 0
M  V30 784 H 76.437 5.15952 -1.4035 0
M  V30 785 H 76.78 4.16299 -0.0108001 0
M  V30 786 H 77.313 3.6313 -1.62423 0
M  V30 787 H 74.052 4.92119 -4.33012 0
M  V30 788 H 73.572 5.3676 -2.67673 0
M  V30 789 H 75.251 5.61288 -3.21815 0
M  V30 790 N 75.3831 0.828654 1.34056 0
M  V30 791 C 76.7991 0.515135 1.51058 0
M  V30 792 C 76.9991 -0.959581 1.77184 0
M  V30 793 O 76.0551 -1.74382 1.82612 0
M  V30 794 C 77.3681 1.37963 2.67183 0
M  V30 795 C 78.9161 1.37735 2.81066 0
M  V30 796 C 79.3911 2.22645 4.00241 0
M  V30 797 N 80.8821 2.203 4.07458 0
M  V30 798 C 81.6171 2.82744 4.98842 0
M  V30 799 N 81.1131 3.54201 5.9541 0
M  V30 800 N 82.9061 2.72268 4.91759 0
M  V30 801 H 75.0571 1.78343 1.15358 0
M  V30 802 H 77.3201 0.760304 0.566252 0
M  V30 803 H 77.0261 2.42714 2.54525 0
M  V30 804 H 76.9001 1.0484 3.62338 0
M  V30 805 H 79.2871 0.337593 2.93163 0
M  V30 806 H 79.3681 1.74859 1.86703 0
M  V30 807 H 79.0121 3.26674 3.88905 0
M  V30 808 H 78.9421 1.82869 4.93829 0
M  V30 809 H 81.4331 1.68327 3.38341 0
M  V30 810 H 81.7461 3.9908 6.61782 0
M  V30 811 H 80.0911 3.58308 5.95517 0
M  V30 812 H 83.2821 2.16014 4.15278 0
M  V30 813 H 83.4551 3.21219 5.62781 0
M  V30 814 N 76.8612 -1.46375 0.584142 0
M  V30 815 C 77.7912 -2.33103 -0.136037 0
M  V30 816 C 78.7722 -1.45431 -0.882255 0
M  V30 817 O 79.9572 -1.74246 -0.857434 0
M  V30 818 C 77.0872 -3.27731 -1.14933 0
M  V30 819 C 76.0412 -4.24855 -0.517862 0
M  V30 820 C 75.3672 -5.09001 -1.63773 0
M  V30 821 C 76.6672 -5.19439 0.545886 0
M  V30 822 H 78.3612 -2.93568 0.588086 0
M  V30 823 H 75.9072 -1.41166 0.284259 0
M  V30 824 H 77.8602 -3.87261 -1.66153 0
M  V30 825 H 76.5842 -2.65377 -1.90375 0
M  V30 826 H 75.2432 -3.6659 -0.0267361 0
M  V30 827 H 74.8912 -4.43031 -2.38185 0
M  V30 828 H 74.5912 -5.74777 -1.22085 0
M  V30 829 H 76.1152 -5.71396 -2.15266 0
M  V30 830 H 77.5292 -5.73177 0.118704 0
M  V30 831 H 75.9262 -5.93566 0.88317 0
M  V30 832 H 76.9962 -4.63285 1.43162 0
M  V30 833 N 78.3393 -0.321999 -1.54275 0
M  V30 834 C 79.2863 0.544664 -2.24281 0
M  V30 835 C 80.2563 1.1129 -1.23303 0
M  V30 836 O 81.4413 1.15354 -1.51981 0
M  V30 837 C 78.5813 1.70045 -3.00298 0
M  V30 838 C 77.6943 1.16159 -4.1609 0
M  V30 839 C 76.8293 2.28293 -4.79641 0
M  V30 840 C 75.8683 1.71648 -5.8754 0
M  V30 841 N 75.0053 2.77438 -6.44959 0
M  V30 842 H 79.8453 -0.0588907 -2.97942 0
M  V30 843 H 77.3823 -0.0408345 -1.47043 0
M  V30 844 H 79.3403 2.38054 -3.42616 0
M  V30 845 H 77.9703 2.27531 -2.28975 0
M  V30 846 H 77.0223 0.373092 -3.78566 0
M  V30 847 H 78.3343 0.707087 -4.93763 0
M  V30 848 H 77.4883 3.0421 -5.2492 0
M  V30 849 H 76.2273 2.77079 -4.01346 0
M  V30 850 H 75.2323 0.942282 -5.41665 0
M  V30 851 H 76.4573 1.23741 -6.67731 0
M  V30 852 H 74.4033 3.25519 -5.69538 0
M  V30 853 H 74.3203 2.36547 -7.1804 0
M  V30 854 H 75.5883 3.53189 -6.94894 0
M  V30 855 N 79.8174 1.5752 -0.0501392 0
M  V30 856 C 81.0454 1.96963 0.633492 0
M  V30 857 C 81.4604 0.927631 1.6444 0
M  V30 858 O 80.8174 -0.0882665 1.82286 0
M  V30 859 C 80.8684 3.36487 1.32132 0
M  V30 860 O 80.5894 4.36693 0.350894 0
M  V30 861 C 82.0904 3.90682 2.09481 0
M  V30 862 H 79.3104 0.648244 0.173266 0
M  V30 863 H 81.8544 2.0417 -0.116134 0
M  V30 864 H 80.0094 3.30434 2.02218 0
M  V30 865 H 80.4234 5.17702 0.841735 0
M  V30 866 H 81.8974 4.90591 2.5303 0
M  V30 867 H 82.3744 3.26053 2.94255 0
M  V30 868 H 82.9804 4.00069 1.44307 0
M  V30 869 N 81.2955 -0.223234 1.56011 0
M  V30 870 C 82.7065 -0.790368 1.69145 0
M  V30 871 C 83.0575 -1.85055 0.651845 0
M  V30 872 O 82.1825 -2.15498 -0.197359 0
M  V30 873 C 82.7775 -1.4404 3.06656 0
M  V30 874 C 81.3365 -1.95494 3.2165 0
M  V30 875 C 80.4835 -0.814506 2.65068 0
M  V30 876 H 83.4345 0.00139011 1.587 0
M  V30 877 H 83.4555 -2.30916 3.0242 0
M  V30 878 H 82.9675 -0.668543 3.82298 0
M  V30 879 H 81.0685 -2.75487 2.50874 0
M  V30 880 H 81.1815 -2.13607 4.28846 0
M  V30 881 H 79.5455 -1.22137 2.23505 0
M  V30 882 H 80.3285 -0.0553515 3.43255 0
M  V30 883 N 82.7736 -1.49793 -0.48987 0
M  V30 884 C 84.0216 -1.59525 -1.24081 0
M  V30 885 C 84.3426 -0.288953 -1.92847 0
M  V30 886 O 83.6126 0.692436 -1.83254 0
M  V30 887 H 82.1926 -0.587796 -0.460983 0
M  V30 888 H 84.8546 -1.86477 -0.566778 0
M  V30 889 H 83.9506 -2.39696 -1.99881 0
M  V30 890 N 84.2517 0.741722 -1.39055 0
M  V30 891 C 85.4997 1.49818 -1.35643 0
M  V30 892 C 85.8207 1.94938 0.0491642 0
M  V30 893 O 85.0907 1.68505 0.999141 0
M  V30 894 H 83.6707 0.555755 -0.499144 0
M  V30 895 H 86.3327 0.880957 -1.73854 0
M  V30 896 H 85.4287 2.38348 -2.01486 0
M  V30 897 N 85.7298 1.2412 0.971189 0
M  V30 898 C 87.1408 1.07236 1.52831 0
M  V30 899 C 87.4918 -0.357352 1.92918 0
M  V30 900 O 86.6168 -1.24528 1.76979 0
M  V30 901 C 87.2118 1.94043 2.77728 0
M  V30 902 C 85.7708 1.81394 3.29808 0
M  V30 903 C 84.9178 1.89189 2.02738 0
M  V30 904 H 87.8688 1.37648 0.789864 0
M  V30 905 H 87.8898 1.47066 3.5093 0
M  V30 906 H 87.4018 2.98093 2.4852 0
M  V30 907 H 85.5028 0.801634 3.63874 0
M  V30 908 H 85.6158 2.65294 3.98944 0
M  V30 909 H 83.9798 1.32877 2.17292 0
M  V30 910 H 84.7628 2.94812 1.759 0
M  V30 911 N 87.2079 -1.17134 1.05439 0
M  V30 912 C 88.4539 -1.87733 0.767077 0
M  V30 913 C 88.7869 -1.8098 -0.704253 0
M  V30 914 O 88.0619 -1.21951 -1.5152 0
M  V30 915 C 88.3449 -3.37659 1.25133 0
M  V30 916 C 88.1979 -3.53149 2.78578 0
M  V30 917 C 89.5169 -4.31768 0.852324 0
M  V30 918 H 86.6359 -0.681687 0.280129 0
M  V30 919 H 89.2779 -1.37732 1.30881 0
M  V30 920 H 87.4279 -3.80373 0.790469 0
M  V30 921 H 89.0999 -3.19434 3.32806 0
M  V30 922 H 87.3429 -2.95345 3.17732 0
M  V30 923 H 88.0139 -4.58403 3.07523 0
M  V30 924 H 90.4899 -3.96909 1.24911 0
M  V30 925 H 89.3659 -5.35199 1.21873 0
M  V30 926 H 89.6269 -4.41429 -0.243485 0
M  V30 927 N 88.686 -0.835752 -1.33615 0
M  V30 928 C 89.911 -0.442389 -2.02627 0
M  V30 929 C 90.336 0.947735 -1.62479 0
M  V30 930 O 89.694 1.61907 -0.815826 0
M  V30 931 C 89.742 -0.567216 -3.56111 0
M  V30 932 O 88.846 0.407799 -4.10379 0
M  V30 933 H 88.187 -0.180278 -0.639059 0
M  V30 934 H 90.717 -1.12972 -1.70583 0
M  V30 935 H 90.727 -0.447708 -4.05536 0
M  V30 936 H 89.402 -1.58103 -3.84677 0
M  V30 937 H 87.979 0.246107 -3.72087 0
M  V30 938 N 90.1641 1.46063 -0.591896 0
M  V30 939 C 91.1271 2.28854 0.125973 0
M  V30 940 C 92.1271 1.38903 0.810107 0
M  V30 941 O 93.3171 1.61186 0.66066 0
M  V30 942 C 90.4491 3.19526 1.1881 0
M  V30 943 H 91.6421 2.93802 -0.601717 0
M  V30 944 H 89.1951 1.52325 -0.350254 0
M  V30 945 H 89.9301 2.59345 1.94707 0
M  V30 946 H 89.7151 3.85766 0.701936 0
M  V30 947 H 91.2051 3.81817 1.69132 0
M  V30 948 N 91.6422 0.330177 1.54103 0
M  V30 949 C 92.8892 -0.270405 2.00686 0
M  V30 950 C 93.2172 -1.51621 1.21825 0
M  V30 951 O 92.4722 -1.93536 0.29025 0
M  V30 952 C 92.7712 -0.643134 3.51566 0
M  V30 953 C 92.4372 0.504251 4.48072 0
M  V30 954 C 91.0992 0.819163 4.74176 0
M  V30 955 C 93.4512 1.27465 5.05373 0
M  V30 956 C 90.7792 1.90708 5.5484 0
M  V30 957 C 93.1312 2.35271 5.87223 0
M  V30 958 C 91.7952 2.67336 6.11627 0
M  V30 959 H 91.0652 -0.0989482 0.734364 0
M  V30 960 H 93.7122 0.455324 1.86008 0
M  V30 961 H 92.0172 -1.44938 3.64006 0
M  V30 962 H 93.7142 -1.11949 3.85056 0
M  V30 963 H 90.3042 0.248733 4.27878 0
M  V30 964 H 94.4882 1.04462 4.85182 0
M  V30 965 H 89.7442 2.15991 5.71977 0
M  V30 966 H 93.9182 2.95405 6.30641 0
M  V30 967 H 91.5452 3.51763 6.73919 0
M  V30 968 N 93.1203 -1.57491 0.0584922 0
M  V30 969 C 94.0503 -2.14988 -0.911178 0
M  V30 970 C 95.0313 -1.07343 -1.31952 0
M  V30 971 O 96.2163 -1.35318 -1.39294 0
M  V30 972 C 93.3463 -2.70078 -2.18347 0
M  V30 973 C 92.3003 -3.82771 -1.91495 0
M  V30 974 C 91.6263 -4.24408 -3.25241 0
M  V30 975 C 92.9263 -5.07592 -1.23075 0
M  V30 976 H 94.6203 -2.96263 -0.432246 0
M  V30 977 H 92.1663 -1.42512 -0.206469 0
M  V30 978 H 94.1193 -3.08943 -2.86587 0
M  V30 979 H 92.8433 -1.86005 -2.68458 0
M  V30 980 H 91.5023 -3.44389 -1.25664 0
M  V30 981 H 91.1503 -3.37275 -3.73168 0
M  V30 982 H 90.8503 -5.00366 -3.08071 0
M  V30 983 H 92.3743 -4.65879 -3.94701 0
M  V30 984 H 93.7883 -5.43857 -1.81362 0
M  V30 985 H 92.1853 -5.88741 -1.16207 0
M  V30 986 H 93.2553 -4.84454 -0.207847 0
M  V30 987 N 94.5984 0.214957 -1.56127 0
M  V30 988 C 95.8464 0.936518 -1.79091 0
M  V30 989 C 96.1674 1.84606 -0.628148 0
M  V30 990 O 95.4374 1.92664 0.35462 0
M  V30 991 H 94.0174 0.3488 -0.660566 0
M  V30 992 H 96.6794 0.22523 -1.93594 0
M  V30 993 H 95.7754 1.53943 -2.71492 0
M  V30 994 N 96.0765 1.50051 0.48192 0
M  V30 995 C 97.3255 1.59741 1.23149 0
M  V30 996 C 97.6385 0.298163 1.93314 0
M  V30 997 O 98.8445 0.273835 2.70116 0
M  V30 998 C 97.3005 2.81926 2.23708 0
M  V30 999 C 96.9085 4.18685 1.59396 0
M  V30 1000 C 98.6525 3.00956 2.99375 0
M  V30 1001 C 96.5595 5.3207 2.58178 0
M  V30 1002 H 95.4895 0.594838 0.46334 0
M  V30 1003 H 98.1405 1.76467 0.503169 0
M  V30 1004 H 96.5225 2.58736 2.99786 0
M  V30 1005 H 97.6965 4.52088 0.891811 0
M  V30 1006 H 96.0115 4.05171 0.960503 0
M  V30 1007 H 98.6085 3.82836 3.73283 0
M  V30 1008 H 98.9515 2.12258 3.58123 0
M  V30 1009 H 99.4845 3.24277 2.30411 0
M  V30 1010 H 96.2235 6.22888 2.04184 0
M  V30 1011 H 95.7435 5.03098 3.26577 0
M  V30 1012 H 97.4225 5.62196 3.20225 0
M  V30 1013 N 97.5546 -0.734337 1.39446 0
M  V30 1014 C 98.9656 -1.31264 1.32766 0
M  V30 1015 C 99.3166 -1.96198 -0.00767497 0
M  V30 1016 O 98.4416 -1.96346 -0.909796 0
M  V30 1017 C 99.0366 -2.38682 2.4045 0
M  V30 1018 C 97.5956 -2.92184 2.37288 0
M  V30 1019 C 96.7426 -1.6576 2.22304 0
M  V30 1020 H 99.6936 -0.531799 1.49525 0
M  V30 1021 H 99.7146 -3.19087 2.07276 0
M  V30 1022 H 99.2266 -1.91392 3.37625 0
M  V30 1023 H 97.3276 -3.43752 1.43754 0
M  V30 1024 H 97.4406 -3.45253 3.3217 0
M  V30 1025 H 95.8046 -1.9012 1.69489 0
M  V30 1026 H 96.5876 -1.20521 3.21449 0
M  V30 1027 N 99.0327 -1.24633 -0.964593 0
M  V30 1028 C 100.28 -1.08788 -1.70796 0
M  V30 1029 C 100.608 0.372783 -1.90894 0
M  V30 1030 O 99.8627 1.29167 -1.47018 0
M  V30 1031 C 100.162 -1.7763 -3.10133 0
M  V30 1032 C 99.8277 -3.27557 -3.09866 0
M  V30 1033 C 98.4897 -3.6846 -3.09501 0
M  V30 1034 C 100.842 -4.23389 -3.03959 0
M  V30 1035 C 98.1697 -5.03624 -3.00965 0
M  V30 1036 C 100.522 -5.58565 -2.96965 0
M  V30 1037 C 99.1857 -5.98809 -2.9493 0
M  V30 1038 H 98.4557 -0.398084 -0.624988 0
M  V30 1039 H 101.103 -1.54777 -1.12767 0
M  V30 1040 H 99.4077 -1.24044 -3.71645 0
M  V30 1041 H 101.105 -1.62832 -3.66451 0
M  V30 1042 H 97.6947 -2.95006 -3.10917 0
M  V30 1043 H 101.879 -3.92787 -3.03368 0
M  V30 1044 H 97.1347 -5.33998 -2.97752 0
M  V30 1045 H 101.309 -6.32523 -2.91354 0
M  V30 1046 H 98.9357 -7.03505 -2.88071 0
M  V30 1047 N 100.511 1.16574 -1.06058 0
M  V30 1048 C 101.474 2.19085 -0.673392 0
M  V30 1049 C 102.474 1.5835 0.279648 0
M  V30 1050 O 103.664 1.74088 0.0623488 0
M  V30 1051 C 100.796 3.40899 0.00954234 0
M  V30 1052 H 101.989 2.54853 -1.58081 0
M  V30 1053 H 99.5418 1.30808 -0.855516 0
M  V30 1054 H 100.277 3.10684 0.929826 0
M  V30 1055 H 100.062 3.86233 -0.67573 0
M  V30 1056 H 101.552 4.1675 0.266245 0
M  V30 1057 N 101.989 0.842826 1.3317 0
M  V30 1058 C 102.899 0.281444 2.32906 0
M  V30 1059 C 103.915 -0.594587 1.63526 0
M  V30 1060 O 105.091 -0.49777 1.95152 0
M  V30 1061 C 102.156 -0.530929 3.42611 0
M  V30 1062 C 101.217 0.369843 4.27704 0
M  V30 1063 C 100.45 -0.403853 5.3217 0
M  V30 1064 O 100.673 -1.63513 5.46461 0
M  V30 1065 O 99.6069 0.224199 6.01482 0
M  V30 1066 H 103.433 1.10744 2.82789 0
M  V30 1067 H 101.018 0.60545 1.36582 0
M  V30 1068 H 102.9 -0.992437 4.09547 0
M  V30 1069 H 101.575 -1.33392 2.94938 0
M  V30 1070 H 100.482 0.879275 3.6362 0
M  V30 1071 H 101.815 1.13771 4.78871 0
M  V30 1072 N 103.467 -1.45747 0.599634 0
M  V30 1073 C 104.878 -1.85853 0.177681 0
M  V30 1074 C 105.229 -1.50102 -1.26348 0
M  V30 1075 O 104.354 -0.923905 -1.95686 0
M  V30 1076 C 104.949 -3.37326 0.315688 0
M  V30 1077 C 103.508 -3.76365 -0.0515144 0
M  V30 1078 C 102.655 -2.69722 0.643822 0
M  V30 1079 H 105.606 -1.36661 0.806814 0
M  V30 1080 H 105.627 -3.77778 -0.454321 0
M  V30 1081 H 105.139 -3.63315 1.36468 0
M  V30 1082 H 103.24 -3.55993 -1.09999 0
M  V30 1083 H 103.353 -4.77916 0.336594 0
M  V30 1084 H 101.717 -2.54567 0.0822881 0
M  V30 1085 H 102.5 -2.98549 1.6948 0
M  V30 1086 N 104.945 -0.338344 -1.53925 0
M  V30 1087 C 106.356 0.146651 -1.86123 0
M  V30 1088 C 106.707 1.5042 -1.2597 0
M  V30 1089 O 105.832 2.08723 -0.571294 0
M  V30 1090 C 106.427 0.272879 -3.37699 0
M  V30 1091 C 104.986 0.702103 -3.69794 0
M  V30 1092 C 104.133 -0.167304 -2.76795 0
M  V30 1093 H 107.084 -0.558123 -1.48562 0
M  V30 1094 H 107.105 1.10128 -3.64214 0
M  V30 1095 H 106.617 -0.715307 -3.81451 0
M  V30 1096 H 104.718 1.6995 -3.31584 0
M  V30 1097 H 104.831 0.495604 -4.7653 0
M  V30 1098 H 103.195 0.359527 -2.5215 0
M  V30 1099 H 103.978 -1.15253 -3.23375 0
M  V30 1100 N 106.423 1.57458 -0.0668435 0
M  V30 1101 C 107.356 2.08033 0.93795 0
M  V30 1102 C 108.334 0.984321 1.29421 0
M  V30 1103 O 109.518 1.25736 1.40437 0
M  V30 1104 C 106.645 2.53388 2.24749 0
M  V30 1105 C 105.691 3.74376 2.04315 0
M  V30 1106 S 106.524 5.19303 1.30706 0
M  V30 1107 C 107.68 5.67986 2.62951 0
M  V30 1108 H 107.913 2.92935 0.50759 0
M  V30 1109 H 105.446 1.5371 0.145804 0
M  V30 1110 H 107.404 2.8018 3.00016 0
M  V30 1111 H 106.065 1.68763 2.64911 0
M  V30 1112 H 105.258 4.04083 3.01218 0
M  V30 1113 H 104.86 3.47931 1.37186 0
M  V30 1114 H 107.152 5.74528 3.5906 0
M  V30 1115 H 108.095 6.66955 2.3786 0
M  V30 1116 H 108.503 4.95781 2.69929 0
M  V30 1117 N 107.901 -0.206675 1.56239 0
M  V30 1118 C 109.149 -0.927007 1.79586 0
M  V30 1119 C 109.47 -1.8427 0.637929 0
M  V30 1120 O 108.74 -1.92849 -0.344398 0
M  V30 1121 H 107.32 -0.345292 0.662407 0
M  V30 1122 H 109.982 -0.21496 1.93711 0
M  V30 1123 H 109.078 -1.52501 2.72305 0
M  V30 1124 N 109.379 -1.50304 -0.473955 0
M  V30 1125 C 110.79 -1.54042 -1.0549 0
M  V30 1126 C 111.141 -0.342248 -1.93192 0
M  V30 1127 O 110.266 0.545157 -2.09421 0
M  V30 1128 C 110.861 -2.79152 -1.91989 0
M  V30 1129 C 109.42 -2.8558 -2.45196 0
M  V30 1130 C 108.567 -2.48295 -1.2347 0
M  V30 1131 H 111.518 -1.5661 -0.256693 0
M  V30 1132 H 111.539 -2.60845 -2.7702 0
M  V30 1133 H 111.051 -3.66339 -1.28131 0
M  V30 1134 H 109.152 -2.02738 -3.12615 0
M  V30 1135 H 109.265 -3.88403 -2.80499 0
M  V30 1136 H 107.629 -2.00669 -1.56856 0
M  V30 1137 H 108.412 -3.37787 -0.612789 0
M  V30 1138 N 110.857 0.726932 -1.39834 0
M  V30 1139 C 112.273 1.03354 -1.21615 0
M  V30 1140 C 112.473 2.01327 -0.08338 0
M  V30 1141 O 111.529 2.46158 0.56238 0
M  V30 1142 C 112.842 1.58811 -2.55342 0
M  V30 1143 C 114.39 1.70851 -2.62257 0
M  V30 1144 C 114.865 2.29716 -3.96225 0
M  V30 1145 N 116.356 2.37116 -3.97907 0
M  V30 1146 C 117.091 2.83619 -4.98345 0
M  V30 1147 N 116.587 3.29958 -6.09179 0
M  V30 1148 N 118.38 2.82901 -4.8572 0
M  V30 1149 H 110.531 0.0773069 -2.12259 0
M  V30 1150 H 112.794 0.0969102 -0.943034 0
M  V30 1151 H 112.5 0.942855 -3.38826 0
M  V30 1152 H 112.374 2.57502 -2.75632 0
M  V30 1153 H 114.761 2.34497 -1.79152 0
M  V30 1154 H 114.842 0.707913 -2.45809 0
M  V30 1155 H 114.486 1.66696 -4.79765 0
M  V30 1156 H 114.416 3.30469 -4.09997 0
M  V30 1157 H 116.907 2.04374 -3.17868 0
M  V30 1158 H 117.22 3.63976 -6.8172 0
M  V30 1159 H 115.565 3.27946 -6.12761 0
M  V30 1160 H 118.756 2.46027 -3.98231 0
M  V30 1161 H 118.929 3.18827 -5.6414 0
M  V30 1162 N 112.336 1.25143 0.95797 0
M  V30 1163 C 113.752 1.01892 1.22842 0
M  V30 1164 C 113.952 -0.266311 1.99732 0
M  V30 1165 O 113.008 -0.979913 2.3271 0
M  V30 1166 C 114.321 2.24004 2.00606 0
M  V30 1167 C 115.869 2.28731 2.13662 0
M  V30 1168 C 116.344 3.5049 2.94823 0
M  V30 1169 N 117.835 3.50866 3.02403 0
M  V30 1170 C 118.57 4.4174 3.65586 0
M  V30 1171 N 118.066 5.42882 4.30408 0
M  V30 1172 N 119.859 4.29429 3.62694 0
M  V30 1173 H 112.01 2.07718 0.443493 0
M  V30 1174 H 114.273 0.912031 0.258657 0
M  V30 1175 H 113.979 3.17395 1.51503 0
M  V30 1176 H 113.853 2.26907 3.01319 0
M  V30 1177 H 116.24 1.35865 2.61963 0
M  V30 1178 H 116.321 2.29848 1.12265 0
M  V30 1179 H 115.965 4.43676 2.47213 0
M  V30 1180 H 115.895 3.46617 3.96439 0
M  V30 1181 H 118.386 2.777 2.56302 0
M  V30 1182 H 118.699 6.0844 4.76467 0
M  V30 1183 H 117.044 5.46758 4.29047 0
M  V30 1184 H 120.235 3.49643 3.11236 0
M  V30 1185 H 120.408 5.00448 4.1165 0
M  V30 1186 N 113.814 -1.1601 1.06675 0
M  V30 1187 C 115.061 -1.86633 0.785781 0
M  V30 1188 C 115.389 -1.81929 -0.687896 0
M  V30 1189 O 114.644 -1.23253 -1.52011 0
M  V30 1190 C 114.943 -3.35547 1.23057 0
M  V30 1191 C 114.609 -3.60448 2.70902 0
M  V30 1192 C 113.271 -3.66954 3.11285 0
M  V30 1193 C 115.623 -3.7071 3.66365 0
M  V30 1194 C 112.951 -3.81225 4.45965 0
M  V30 1195 C 115.303 -3.86503 5.00797 0
M  V30 1196 C 113.967 -3.91252 5.40813 0
M  V30 1197 H 113.237 -0.682937 0.287538 0
M  V30 1198 H 115.884 -1.37146 1.33654 0
M  V30 1199 H 114.189 -3.87193 0.59907 0
M  V30 1200 H 115.886 -3.88583 0.990163 0
M  V30 1201 H 112.476 -3.56021 2.38636 0
M  V30 1202 H 116.66 -3.64991 3.36296 0
M  V30 1203 H 111.916 -3.83155 4.76447 0
M  V30 1204 H 116.09 -3.93385 5.74649 0
M  V30 1205 H 113.717 -4.02062 6.45174 0
M  V30 1206 N 115.292 -0.849877 -1.32721 0
M  V30 1207 C 116.222 -0.306308 -2.31482 0
M  V30 1208 C 117.203 0.591952 -1.59468 0
M  V30 1209 O 118.388 0.513199 -1.87296 0
M  V30 1210 C 115.518 0.510204 -3.43532 0
M  V30 1211 C 114.472 -0.293209 -4.26994 0
M  V30 1212 C 113.798 0.647743 -5.30762 0
M  V30 1213 C 115.098 -1.51634 -4.99804 0
M  V30 1214 H 116.792 -1.13153 -2.77195 0
M  V30 1215 H 114.338 -0.545553 -1.33266 0
M  V30 1216 H 116.291 0.900856 -4.11658 0
M  V30 1217 H 115.015 1.36874 -2.96535 0
M  V30 1218 H 113.674 -0.665555 -3.60508 0
M  V30 1219 H 113.322 1.50299 -4.8002 0
M  V30 1220 H 113.022 0.11422 -5.87489 0
M  V30 1221 H 114.546 1.03567 -6.01753 0
M  V30 1222 H 115.96 -1.19824 -5.60638 0
M  V30 1223 H 114.357 -1.98745 -5.66234 0
M  V30 1224 H 115.427 -2.28018 -4.27943 0
M  V30 1225 N 116.77 1.45427 -0.607355 0
M  V30 1226 C 118.181 1.85756 -0.187535 0
M  V30 1227 C 118.532 1.5077 1.25551 0
M  V30 1228 O 117.657 0.93427 1.95193 0
M  V30 1229 C 118.252 3.37154 -0.333572 0
M  V30 1230 C 116.811 3.76387 0.0315542 0
M  V30 1231 C 115.958 2.69377 -0.658117 0
M  V30 1232 H 118.909 1.36231 -0.81405 0
M  V30 1233 H 118.93 3.78014 0.43428 0
M  V30 1234 H 118.442 3.62586 -1.38393 0
M  V30 1235 H 116.543 3.56571 1.0811 0
M  V30 1236 H 116.656 4.77731 -0.361935 0
M  V30 1237 H 115.02 2.5452 -0.0957873 0
M  V30 1238 H 115.803 2.97646 -1.7106 0
M  V30 1239 N 118.248 0.346503 1.53744 0
M  V30 1240 C 119.659 -0.136779 1.86198 0
M  V30 1241 C 120.01 -1.49749 1.26766 0
M  V30 1242 O 119.135 -2.08417 0.582355 0
M  V30 1243 C 119.73 -0.254966 3.37839 0
M  V30 1244 C 118.289 -0.682482 3.70161 0
M  V30 1245 C 117.436 0.181981 2.76702 0
M  V30 1246 H 120.387 0.565994 1.48264 0
M  V30 1247 H 120.408 -1.08195 3.64793 0
M  V30 1248 H 119.92 0.735526 3.81066 0
M  V30 1249 H 118.021 -1.68189 3.3248 0
M  V30 1250 H 118.134 -0.470326 4.76786 0
M  V30 1251 H 116.498 -0.34615 2.52337 0
M  V30 1252 H 117.281 1.16966 3.2276 0
M  V30 1253 N 119.726 -1.57421 0.075193 0
M  V30 1254 C 120.636 -2.1642 -0.905511 0
M  V30 1255 C 121.652 -1.12828 -1.32461 0
M  V30 1256 O 122.828 -1.45109 -1.39661 0
M  V30 1257 C 119.893 -2.71693 -2.15369 0
M  V30 1258 C 118.954 -3.90171 -1.79068 0
M  V30 1259 C 118.187 -4.42798 -2.97936 0
M  V30 1260 O 118.41 -3.94416 -4.12058 0
M  V30 1261 O 117.344 -5.34085 -2.77555 0
M  V30 1262 H 121.17 -3.00588 -0.433626 0
M  V30 1263 H 118.755 -1.48664 -0.148067 0
M  V30 1264 H 120.637 -3.07104 -2.88557 0
M  V30 1265 H 119.312 -1.90582 -2.61649 0
M  V30 1266 H 118.219 -3.59606 -1.03122 0
M  V30 1267 H 119.552 -4.72584 -1.37569 0
M  V30 1268 N 121.204 0.198386 -1.56346 0
M  V30 1269 C 122.615 0.763358 -1.70381 0
M  V30 1270 C 122.966 1.83995 -0.681203 0
M  V30 1271 O 122.091 2.15785 0.16305 0
M  V30 1272 C 122.686 1.39143 -3.08909 0
M  V30 1273 C 121.245 1.90352 -3.2472 0
M  V30 1274 C 120.392 0.772233 -2.6633 0
M  V30 1275 H 123.343 -0.0266377 -1.58678 0
M  V30 1276 H 123.364 2.26076 -3.06055 0
M  V30 1277 H 122.876 0.607638 -3.83314 0
M  V30 1278 H 120.977 2.71461 -2.55225 0
M  V30 1279 H 121.09 2.06757 -4.3219 0
M  V30 1280 H 119.454 1.18566 -2.2542 0
M  V30 1281 H 120.237 0.00073556 -3.433 0
M  V30 1282 N 122.682 1.50554 0.465978 0
M  V30 1283 C 123.629 1.6979 1.56333 0
M  V30 1284 C 124.599 0.539239 1.57103 0
M  V30 1285 O 125.784 0.770401 1.74555 0
M  V30 1286 C 122.924 1.80273 2.94271 0
M  V30 1287 C 122.037 3.07674 3.0325 0
M  V30 1288 C 121.172 3.08922 4.32135 0
M  V30 1289 C 120.211 4.30755 4.34875 0
M  V30 1290 N 119.348 4.29714 5.55239 0
M  V30 1291 H 124.188 2.63472 1.39235 0
M  V30 1292 H 121.725 1.30602 0.676873 0
M  V30 1293 H 123.683 1.84332 3.74269 0
M  V30 1294 H 122.313 0.900258 3.09992 0
M  V30 1295 H 121.365 3.13062 2.16094 0
M  V30 1296 H 122.677 3.97642 3.01135 0
M  V30 1297 H 121.831 3.11738 5.20485 0
M  V30 1298 H 120.57 2.16792 4.36866 0
M  V30 1299 H 119.575 4.28146 3.44922 0
M  V30 1300 H 120.8 5.24117 4.31831 0
M  V30 1301 H 118.746 3.4044 5.60746 0
M  V30 1302 H 118.663 5.13456 5.54886 0
M  V30 1303 H 119.931 4.36683 6.457 0
M  V30 1304 N 124.16 -0.719506 1.40217 0
M  V30 1305 C 125.092 -1.84428 1.36084 0
M  V30 1306 C 126.105 -1.60597 0.266913 0
M  V30 1307 O 127.294 -1.70544 0.526983 0
M  V30 1308 C 124.394 -3.20757 1.094 0
M  V30 1309 C 123.567 -3.71817 2.30372 0
M  V30 1310 C 122.626 -4.86748 1.99907 0
M  V30 1311 O 121.652 -4.99603 2.72737 0
M  V30 1312 N 122.854 -5.7226 0.974635 0
M  V30 1313 H 125.619 -1.88473 2.33019 0
M  V30 1314 H 123.18 -0.900885 1.3452 0
M  V30 1315 H 125.172 -3.95235 0.870116 0
M  V30 1316 H 123.742 -3.11884 0.211452 0
M  V30 1317 H 122.962 -2.88514 2.68614 0
M  V30 1318 H 124.25 -4.02666 3.11026 0
M  V30 1319 H 123.648 -5.6448 0.371368 0
M  V30 1320 H 122.205 -6.46739 0.810656 0
M  V30 1321 N 125.638 -1.25649 -0.95132 0
M  V30 1322 C 127.049 -1.09654 -1.51106 0
M  V30 1323 C 127.4 0.326615 -1.93462 0
M  V30 1324 O 126.525 1.21697 -1.78938 0
M  V30 1325 C 127.12 -1.98437 -2.74605 0
M  V30 1326 C 125.679 -1.86618 -3.2688 0
M  V30 1327 C 124.826 -1.9239 -1.99703 0
M  V30 1328 H 127.777 -1.38887 -0.767865 0
M  V30 1329 H 127.798 -1.5263 -3.48546 0
M  V30 1330 H 127.31 -3.02009 -2.43746 0
M  V30 1331 H 125.411 -0.859421 -3.62553 0
M  V30 1332 H 125.524 -2.71607 -3.94673 0
M  V30 1333 H 123.888 -1.36317 -2.15151 0
M  V30 1334 H 124.671 -2.97573 -1.71188 0
M  V30 1335 N 127.117 1.15442 -1.07289 0
M  V30 1336 C 128.363 1.8672 -0.806679 0
M  V30 1337 C 128.718 1.80723 0.660084 0
M  V30 1338 O 128.011 1.21902 1.47819 0
M  V30 1339 C 128.205 3.3489 -1.24834 0
M  V30 1340 C 128.034 3.55313 -2.7565 0
M  V30 1341 C 126.804 3.7082 -3.4325 0
M  V30 1342 C 129.002 3.53188 -3.73848 0
M  V30 1343 N 126.984 3.7929 -4.82713 0
M  V30 1344 C 128.355 3.67765 -4.99149 0
M  V30 1345 C 130.41 3.36459 -3.67015 0
M  V30 1346 C 129.113 3.6734 -6.18428 0
M  V30 1347 C 131.139 3.37333 -4.85758 0
M  V30 1348 C 130.501 3.52438 -6.09891 0
M  V30 1349 H 126.6 0.700433 -0.347733 0
M  V30 1350 H 129.184 1.38441 -1.36902 0
M  V30 1351 H 127.355 3.81786 -0.713713 0
M  V30 1352 H 129.087 3.93875 -0.929745 0
M  V30 1353 H 125.842 3.71568 -2.93656 0
M  V30 1354 H 126.266 3.8727 -5.55294 0
M  V30 1355 H 130.908 3.237 -2.71989 0
M  V30 1356 H 128.626 3.78878 -7.13777 0
M  V30 1357 H 132.212 3.25617 -4.82146 0
M  V30 1358 H 131.092 3.53047 -7.00234 0
M  V30 1359 N 128.595 0.856903 1.32268 0
M  V30 1360 C 129.82 0.474569 2.01897 0
M  V30 1361 C 130.245 -0.921766 1.63967 0
M  V30 1362 O 129.603 -1.60589 0.84148 0
M  V30 1363 C 129.651 0.623799 3.55164 0
M  V30 1364 O 128.755 -0.342459 4.10976 0
M  V30 1365 H 128.096 0.190422 0.63611 0
M  V30 1366 H 130.626 1.15672 1.68764 0
M  V30 1367 H 130.636 0.512169 4.04773 0
M  V30 1368 H 129.311 1.64202 3.82113 0
M  V30 1369 H 127.888 -0.18688 3.72431 0
M  V30 1370 N 130.073 -1.45103 0.615059 0
M  V30 1371 C 131.321 -2.01784 0.112955 0
M  V30 1372 C 131.642 -1.48504 -1.26378 0
M  V30 1373 O 130.912 -0.682245 -1.83636 0
M  V30 1374 H 129.492 -0.745993 0.0387668 0
M  V30 1375 H 132.154 -1.77808 0.798141 0
M  V30 1376 H 131.25 -3.12025 0.0684069 0
M  V30 1377 N 131.551 -0.354651 -1.53558 0
M  V30 1378 C 132.797 0.238797 -2.01389 0
M  V30 1379 C 133.13 1.49309 -1.2418 0
M  V30 1380 O 132.405 1.91638 -0.332457 0
M  V30 1381 C 132.688 0.541771 -3.56001 0
M  V30 1382 C 132.541 -0.725388 -4.43912 0
M  V30 1383 C 133.86 1.34685 -4.18984 0
M  V30 1384 H 130.979 0.0853177 -0.732045 0
M  V30 1385 H 133.621 -0.477384 -1.83905 0
M  V30 1386 H 131.771 1.15189 -3.71031 0
M  V30 1387 H 133.443 -1.36313 -4.407 0
M  V30 1388 H 131.686 -1.34801 -4.12324 0
M  V30 1389 H 132.357 -0.468505 -5.50008 0
M  V30 1390 H 134.833 0.830837 -4.07721 0
M  V30 1391 H 133.709 1.52759 -5.27215 0
M  V30 1392 H 133.97 2.35221 -3.74331 0
M  V30 1393 N 133.029 1.57378 -0.0835403 0
M  V30 1394 C 134.275 1.94217 0.583733 0
M  V30 1395 C 134.608 0.964653 1.68547 0
M  V30 1396 O 133.883 -0.00422258 1.945 0
M  V30 1397 C 134.166 3.41253 1.14972 0
M  V30 1398 C 134.019 4.49768 0.0538277 0
M  V30 1399 C 135.338 3.89352 2.05166 0
M  V30 1400 H 132.457 0.706233 0.210724 0
M  V30 1401 H 135.099 1.89392 -0.1519 0
M  V30 1402 H 133.249 3.45496 1.77665 0
M  V30 1403 H 134.921 4.57641 -0.579851 0
M  V30 1404 H 133.164 4.29432 -0.614068 0
M  V30 1405 H 133.835 5.49817 0.490452 0
M  V30 1406 H 136.311 3.87189 1.52393 0
M  V30 1407 H 135.187 4.92822 2.41698 0
M  V30 1408 H 135.448 3.27973 2.96456 0
M  V30 1409 N 134.507 -0.190092 1.56449 0
M  V30 1410 C 135.784 -0.935886 1.71757 0
M  V30 1411 C 136.164 -2.01173 0.639726 0
M  V30 1412 O 135.512 -2.25827 -0.348502 0
M  V30 1413 C 135.722 -1.51775 3.1427 0
M  V30 1414 C 137.07 -1.99794 3.74656 0
M  V30 1415 O 138.094 -1.61607 3.1743 0
M  V30 1416 O 136.953 -2.70079 4.751 0
M  V30 1417 H 134.047 -0.439229 0.700719 0
M  V30 1418 H 136.593 -0.179395 1.68749 0
M  V30 1419 H 135.365 -0.742505 3.84191 0
M  V30 1420 H 134.988 -2.33894 3.21527 0
M  V30 1421 N 135.985 -1.50799 -0.457987 0
M  V30 1422 C 136.948 -1.7005 -1.53674 0
M  V30 1423 C 137.948 -0.570881 -1.50325 0
M  V30 1424 O 139.138 -0.838126 -1.52712 0
M  V30 1425 C 136.27 -1.73788 -2.93276 0
M  V30 1426 H 137.463 -2.66306 -1.37917 0
M  V30 1427 H 135.016 -1.40477 -0.685271 0
M  V30 1428 H 135.751 -0.792717 -3.14462 0
M  V30 1429 H 135.536 -2.55864 -2.97113 0
M  V30 1430 H 137.026 -1.90591 -3.71571 0
M  V30 1431 N 137.463 0.71206 -1.40597 0
M  V30 1432 C 138.691 1.50111 -1.42388 0
M  V30 1433 C 139.106 1.88784 -0.0245395 0
M  V30 1434 O 138.463 1.55681 0.952351 0
M  V30 1435 C 138.514 2.7742 -2.31776 0
M  V30 1436 O 138.235 2.40382 -3.66262 0
M  V30 1437 C 139.736 3.7129 -2.42196 0
M  V30 1438 H 136.956 0.46314 -0.485533 0
M  V30 1439 H 139.5 0.878068 -1.8469 0
M  V30 1440 H 137.655 3.36001 -1.92827 0
M  V30 1441 H 138.069 3.22324 -4.13772 0
M  V30 1442 H 139.543 4.57448 -3.08943 0
M  V30 1443 H 140.02 4.14641 -1.44809 0
M  V30 1444 H 140.626 3.18619 -2.81712 0
M  V30 1445 N 138.941 1.26152 0.944643 0
M  V30 1446 C 140.169 1.14259 1.72489 0
M  V30 1447 C 140.584 -0.302555 1.8636 0
M  V30 1448 O 139.941 -1.20741 1.36849 0
M  V30 1449 C 139.992 1.80266 3.13347 0
M  V30 1450 O 139.713 3.19133 3.00143 0
M  V30 1451 C 141.214 1.74283 4.07603 0
M  V30 1452 H 138.434 0.398051 0.540181 0
M  V30 1453 H 140.978 1.66706 1.18446 0
M  V30 1454 H 139.133 1.31766 3.64303 0
M  V30 1455 H 139.547 3.51744 3.89071 0
M  V30 1456 H 141.021 2.25111 5.04013 0
M  V30 1457 H 141.498 0.708631 4.33446 0
M  V30 1458 H 142.104 2.22319 3.62567 0
M  V30 1459 N 140.419 -1.14872 1.07899 0
M  V30 1460 C 141.666 -1.85789 0.805532 0
M  V30 1461 C 141.994 -1.82649 -0.668561 0
M  V30 1462 O 141.249 -1.24858 -1.50695 0
M  V30 1463 C 141.548 -3.34223 1.26609 0
M  V30 1464 C 141.214 -3.57555 2.74709 0
M  V30 1465 C 139.876 -3.63631 3.1516 0
M  V30 1466 C 142.228 -3.66803 3.70277 0
M  V30 1467 C 139.556 -3.76473 4.49983 0
M  V30 1468 C 141.908 -3.8117 5.04869 0
M  V30 1469 C 140.572 -3.85494 5.44932 0
M  V30 1470 H 139.842 -0.679849 0.294765 0
M  V30 1471 H 142.489 -1.3572 1.35101 0
M  V30 1472 H 140.794 -3.86536 0.640103 0
M  V30 1473 H 142.491 -3.87511 1.03132 0
M  V30 1474 H 139.081 -3.5347 2.42398 0
M  V30 1475 H 143.265 -3.61404 3.40149 0
M  V30 1476 H 138.521 -3.7808 4.80484 0
M  V30 1477 H 142.695 -3.87268 5.78789 0
M  V30 1478 H 140.322 -3.95197 6.49403 0
M  V30 1479 N 141.898 -0.863906 -1.31812 0
M  V30 1480 C 142.83 -0.272485 -2.27575 0
M  V30 1481 C 143.843 0.56104 -1.52827 0
M  V30 1482 O 145.032 0.384021 -1.7432 0
M  V30 1483 C 142.132 0.63283 -3.32939 0
M  V30 1484 C 141.305 -0.166902 -4.37081 0
M  V30 1485 C 140.364 0.665608 -5.21973 0
M  V30 1486 O 139.39 0.0958091 -5.69119 0
M  V30 1487 N 140.592 1.9787 -5.45736 0
M  V30 1488 H 143.357 -1.0954 -2.78964 0
M  V30 1489 H 140.918 -0.724791 -1.4477 0
M  V30 1490 H 142.91 1.19532 -3.86645 0
M  V30 1491 H 141.48 1.35642 -2.81638 0
M  V30 1492 H 140.7 -0.910838 -3.83533 0
M  V30 1493 H 141.988 -0.715874 -5.03739 0
M  V30 1494 H 141.386 2.46484 -5.09178 0
M  V30 1495 H 139.943 2.48911 -6.024 0
M  V30 1496 N 143.376 1.44774 -0.622745 0
M  V30 1497 C 144.601 2.06999 -0.128968 0
M  V30 1498 C 145.026 1.4617 1.1839 0
M  V30 1499 O 144.384 0.560007 1.72434 0
M  V30 1500 C 144.432 3.60595 -0.0188351 0
M  V30 1501 O 143.536 3.99398 1.02739 0
M  V30 1502 H 142.877 0.659047 -0.0809544 0
M  V30 1503 H 145.407 1.85784 -0.85705 0
M  V30 1504 H 145.417 4.07627 0.174476 0
M  V30 1505 H 144.092 4.04252 -0.977384 0
M  V30 1506 H 142.669 3.64011 0.809326 0
M  V30 1507 N 144.854 0.36279 1.53368 0
M  V30 1508 C 146.1 -0.228113 2.01513 0
M  V30 1509 C 146.433 -1.48648 1.2497 0
M  V30 1510 O 145.708 -1.91459 0.342616 0
M  V30 1511 C 145.991 -0.522884 3.56284 0
M  V30 1512 C 145.844 0.74892 4.43521 0
M  V30 1513 C 147.163 -1.32461 4.19693 0
M  V30 1514 H 144.282 -0.0814343 0.732487 0
M  V30 1515 H 146.924 0.48713 1.83649 0
M  V30 1516 H 145.074 -1.1322 3.71636 0
M  V30 1517 H 146.746 1.38648 4.39971 0
M  V30 1518 H 144.989 1.36986 4.11603 0
M  V30 1519 H 145.66 0.497667 5.49752 0
M  V30 1520 H 148.136 -0.809203 4.08156 0
M  V30 1521 H 147.012 -1.49961 5.28018 0
M  V30 1522 H 147.273 -2.33232 3.75573 0
M  V30 1523 N 146.332 -1.57332 0.0918853 0
M  V30 1524 C 147.572 -1.96117 -0.575988 0
M  V30 1525 C 147.936 -0.972499 -1.65549 0
M  V30 1526 O 149.137 -1.24872 -2.38034 0
M  V30 1527 C 147.408 -3.39407 -1.11973 0
M  V30 1528 S 148.967 -4.00185 -1.79992 0
M  V30 1529 H 145.785 -0.685682 -0.188045 0
M  V30 1530 H 148.387 -1.94755 0.170525 0
M  V30 1531 H 147.091 -4.09131 -0.322504 0
M  V30 1532 H 146.622 -3.44358 -1.90214 0
M  V30 1533 H 148.637 -3.88728 -3.08391 0
M  V30 1534 N 147.81 0.181792 -1.56548 0
M  V30 1535 C 149.04 0.914618 -1.85252 0
M  V30 1536 C 149.448 1.76791 -0.673914 0
M  V30 1537 O 148.791 1.80009 0.366416 0
M  V30 1538 C 148.853 1.85019 -3.08234 0
M  V30 1539 C 148.517 1.17754 -4.41569 0
M  V30 1540 C 149.514 0.548035 -5.17003 0
M  V30 1541 C 147.199 1.17742 -4.88305 0
M  V30 1542 C 149.193 -0.0726128 -6.37359 0
M  V30 1543 C 146.88 0.552946 -6.08593 0
M  V30 1544 C 147.878 -0.070978 -6.82963 0
M  V30 1545 O 147.566 -0.685635 -8.00971 0
M  V30 1546 H 147.298 0.271695 -0.618998 0
M  V30 1547 H 149.852 0.189944 -2.0452 0
M  V30 1548 H 148.082 2.61491 -2.84885 0
M  V30 1549 H 149.771 2.45195 -3.23472 0
M  V30 1550 H 150.537 0.540174 -4.81982 0
M  V30 1551 H 146.416 1.65246 -4.30366 0
M  V30 1552 H 149.96 -0.560213 -6.95347 0
M  V30 1553 H 145.857 0.558354 -6.43081 0
M  V30 1554 H 146.625 -0.58385 -8.16415 0
M  V30 1555 N 149.288 1.51039 0.449983 0
M  V30 1556 C 150.22 1.67617 1.56324 0
M  V30 1557 C 151.233 0.557083 1.52972 0
M  V30 1558 O 152.422 0.830989 1.57977 0
M  V30 1559 C 149.522 1.66402 2.95235 0
M  V30 1560 C 148.695 2.9469 3.23229 0
M  V30 1561 C 147.754 2.85832 4.41799 0
M  V30 1562 O 146.78 3.59785 4.41071 0
M  V30 1563 N 147.982 2.00821 5.44657 0
M  V30 1564 H 150.747 2.63648 1.42512 0
M  V30 1565 H 148.308 1.48767 0.638737 0
M  V30 1566 H 150.3 1.58062 3.72557 0
M  V30 1567 H 148.87 0.780182 3.02708 0
M  V30 1568 H 148.09 3.16996 2.34323 0
M  V30 1569 H 149.378 3.79636 3.38754 0
M  V30 1570 H 148.776 1.40091 5.48079 0
M  V30 1571 H 147.333 1.98368 6.20881 0
M  V30 1572 N 150.766 -0.704594 1.40972 0
M  V30 1573 C 151.996 -1.49138 1.42974 0
M  V30 1574 C 152.404 -1.89175 0.0308406 0
M  V30 1575 O 151.747 -1.56734 -0.958138 0
M  V30 1576 C 151.809 -2.79016 2.26694 0
M  V30 1577 C 151.473 -2.61236 3.74973 0
M  V30 1578 C 152.47 -2.27773 4.67349 0
M  V30 1579 C 150.155 -2.77158 4.18914 0
M  V30 1580 C 152.149 -2.10457 6.01653 0
M  V30 1581 C 149.836 -2.59459 5.53285 0
M  V30 1582 C 150.834 -2.26158 6.4447 0
M  V30 1583 O 150.522 -2.08605 7.76363 0
M  V30 1584 H 150.254 -0.466443 0.489292 0
M  V30 1585 H 152.808 -0.8758 1.85793 0
M  V30 1586 H 151.038 -3.42947 1.78673 0
M  V30 1587 H 152.727 -3.40782 2.20504 0
M  V30 1588 H 153.493 -2.15095 4.34694 0
M  V30 1589 H 149.372 -3.02064 3.48251 0
M  V30 1590 H 152.916 -1.84387 6.72791 0
M  V30 1591 H 148.813 -2.71725 5.85522 0
M  V30 1592 H 149.581 -2.23439 7.87412 0
M  V30 1593 N 152.244 -1.26651 -0.937939 0
M  V30 1594 C 153.49 -1.12553 -1.687 0
M  V30 1595 C 153.823 0.329782 -1.91379 0
M  V30 1596 O 153.098 1.24202 -1.4968 0
M  V30 1597 C 153.381 -1.89862 -3.05981 0
M  V30 1598 C 153.234 -3.43318 -2.90607 0
M  V30 1599 C 154.553 -1.69499 -4.0615 0
M  V30 1600 H 151.672 -0.410257 -0.612257 0
M  V30 1601 H 154.314 -1.55685 -1.08913 0
M  V30 1602 H 152.464 -1.53204 -3.57017 0
M  V30 1603 H 154.136 -3.89747 -2.46769 0
M  V30 1604 H 152.379 -3.70179 -2.26164 0
M  V30 1605 H 153.05 -3.92642 -3.8799 0
M  V30 1606 H 155.526 -2.01442 -3.64088 0
M  V30 1607 H 154.402 -2.26002 -5.00214 0
M  V30 1608 H 154.663 -0.640365 -4.37438 0
M  V30 1609 N 153.722 1.14298 -1.08507 0
M  V30 1610 C 154.999 1.81544 -0.728088 0
M  V30 1611 C 155.379 1.95838 0.78808 0
M  V30 1612 O 154.727 1.51904 1.70697 0
M  V30 1613 C 154.937 3.17169 -1.45619 0
M  V30 1614 C 156.285 3.9265 -1.61591 0
M  V30 1615 O 157.309 3.26762 -1.41793 0
M  V30 1616 O 156.168 5.10807 -1.94263 0
M  V30 1617 H 153.262 0.78491 -0.260471 0
M  V30 1618 H 155.808 1.21307 -1.18671 0
M  V30 1619 H 154.58 3.01934 -2.489 0
M  V30 1620 H 154.203 3.851 -0.989124 0
M  V30 1621 N 155.201 0.870884 1.31352 0
M  V30 1622 C 156.429 0.49677 2.00848 0
M  V30 1623 C 156.844 -0.910998 1.65367 0
M  V30 1624 O 156.201 -1.59696 0.883374 0
M  V30 1625 C 156.252 0.645308 3.55694 0
M  V30 1626 O 155.973 1.99764 3.89905 0
M  V30 1627 C 157.474 0.272326 4.42463 0
M  V30 1628 H 154.694 0.193462 0.642506 0
M  V30 1629 H 157.238 1.1723 1.67563 0
M  V30 1630 H 155.393 0.0173176 3.87396 0
M  V30 1631 H 155.807 2.00607 4.84621 0
M  V30 1632 H 157.281 0.427208 5.50344 0
M  V30 1633 H 157.758 -0.788587 4.32062 0
M  V30 1634 H 158.364 0.876054 4.1618 0
M  V30 1635 N 156.679 -1.44442 0.630414 0
M  V30 1636 C 157.609 -2.33418 -0.0618083 0
M  V30 1637 C 158.59 -1.48165 -0.835541 0
M  V30 1638 O 159.775 -1.76886 -0.801564 0
M  V30 1639 C 156.905 -3.31222 -1.04449 0
M  V30 1640 C 155.859 -4.26288 -0.382436 0
M  V30 1641 C 155.185 -5.13954 -1.47497 0
M  V30 1642 C 156.485 -5.1744 0.710865 0
M  V30 1643 H 158.179 -2.91548 0.681184 0
M  V30 1644 H 155.725 -1.40191 0.329026 0
M  V30 1645 H 157.678 -3.92351 -1.53748 0
M  V30 1646 H 156.402 -2.71299 -1.81836 0
M  V30 1647 H 155.061 -3.6649 0.0899054 0
M  V30 1648 H 154.709 -4.50385 -2.2397 0
M  V30 1649 H 154.409 -5.7837 -1.03737 0
M  V30 1650 H 155.933 -5.77955 -1.96979 0
M  V30 1651 H 157.347 -5.72509 0.300996 0
M  V30 1652 H 155.744 -5.90455 1.07156 0
M  V30 1653 H 156.814 -4.58496 1.57829 0
M  V30 1654 N 158.157 -0.370918 -1.53173 0
M  V30 1655 C 159.387 0.217389 -2.05453 0
M  V30 1656 C 159.795 1.42568 -1.24382 0
M  V30 1657 O 159.138 1.81571 -0.278839 0
M  V30 1658 C 159.2 0.669827 -3.53205 0
M  V30 1659 C 158.864 -0.4225 -4.55043 0
M  V30 1660 C 159.861 -1.27407 -5.04047 0
M  V30 1661 C 157.546 -0.58427 -4.9889 0
M  V30 1662 C 159.54 -2.27271 -5.95505 0
M  V30 1663 C 157.227 -1.58627 -5.90153 0
M  V30 1664 C 158.225 -2.42892 -6.38351 0
M  V30 1665 O 157.913 -3.41382 -7.27814 0
M  V30 1666 H 157.645 0.0408171 -0.674767 0
M  V30 1667 H 160.199 -0.5292 -1.98466 0
M  V30 1668 H 158.429 1.4681 -3.57748 0
M  V30 1669 H 160.118 1.18173 -3.88317 0
M  V30 1670 H 160.884 -1.16031 -4.70916 0
M  V30 1671 H 156.763 0.061851 -4.60959 0
M  V30 1672 H 160.307 -2.93079 -6.33049 0
M  V30 1673 H 156.204 -1.70048 -6.22699 0
M  V30 1674 H 156.972 -3.37173 -7.45826 0
M  V30 1675 N 159.635 1.57281 -0.100228 0
M  V30 1676 C 161.046 1.81725 0.428107 0
M  V30 1677 C 161.397 1.01619 1.67833 0
M  V30 1678 O 160.522 0.247098 2.14985 0
M  V30 1679 C 161.117 3.29617 0.78347 0
M  V30 1680 C 159.676 3.54808 1.25653 0
M  V30 1681 C 158.823 2.76118 0.255752 0
M  V30 1682 H 161.774 1.55324 -0.325608 0
M  V30 1683 H 161.795 3.4322 1.64256 0
M  V30 1684 H 161.307 3.87893 -0.12665 0
M  V30 1685 H 159.408 3.01868 2.18418 0
M  V30 1686 H 159.521 4.63443 1.21482 0
M  V30 1687 H 157.885 2.43745 0.738956 0
M  V30 1688 H 158.668 3.37145 -0.647136 0
M  V30 1689 N 161.113 -0.173488 1.56642 0
M  V30 1690 C 162.361 -0.888706 1.81512 0
M  V30 1691 C 162.682 -1.82875 0.676872 0
M  V30 1692 O 161.952 -1.93536 -0.303414 0
M  V30 1693 H 160.532 -0.331164 0.669582 0
M  V30 1694 H 163.194 -0.173823 1.94123 0
M  V30 1695 H 162.29 -1.46691 2.75478 0
M  V30 1696 N 162.591 -1.51276 -0.441967 0
M  V30 1697 C 163.838 -1.63715 -1.19179 0
M  V30 1698 C 164.166 -0.351175 -1.91303 0
M  V30 1699 O 163.421 0.664524 -1.84072 0
M  V30 1700 C 163.72 -2.78746 -2.23686 0
M  V30 1701 C 163.386 -4.18189 -1.68607 0
M  V30 1702 C 162.048 -4.56125 -1.53308 0
M  V30 1703 C 164.4 -5.05222 -1.28062 0
M  V30 1704 C 161.728 -5.78804 -0.959317 0
M  V30 1705 C 164.08 -6.28476 -0.721162 0
M  V30 1706 C 162.744 -6.65188 -0.55504 0
M  V30 1707 H 162.014 -0.599076 -0.436106 0
M  V30 1708 H 164.661 -1.85296 -0.48351 0
M  V30 1709 H 162.966 -2.51369 -3.00535 0
M  V30 1710 H 164.663 -2.8557 -2.81515 0
M  V30 1711 H 161.253 -3.88277 -1.8149 0
M  V30 1712 H 165.437 -4.76524 -1.38704 0
M  V30 1713 H 160.693 -6.05899 -0.81833 0
M  V30 1714 H 164.867 -6.95259 -0.398458 0
M  V30 1715 H 162.494 -7.60123 -0.108311 0
M  V30 1716 N 164.069 0.697108 -1.41344 0
M  V30 1717 C 164.979 1.84088 -1.45427 0
M  V30 1718 C 165.995 1.70545 -0.34501 0
M  V30 1719 O 167.171 1.92488 -0.592492 0
M  V30 1720 C 164.236 3.20056 -1.33286 0
M  V30 1721 C 163.297 3.45718 -2.54514 0
M  V30 1722 C 162.53 4.75199 -2.42944 0
M  V30 1723 O 162.753 5.51579 -1.45318 0
M  V30 1724 O 161.687 5.0161 -3.32672 0
M  V30 1725 H 165.513 1.836 -2.41919 0
M  V30 1726 H 163.098 0.849966 -1.22866 0
M  V30 1727 H 164.98 4.01236 -1.28794 0
M  V30 1728 H 163.655 3.2123 -0.39909 0
M  V30 1729 H 162.562 2.64474 -2.64583 0
M  V30 1730 H 163.895 3.49356 -3.46715 0
M  V30 1731 N 165.547 1.27147 0.931209 0
M  V30 1732 C 166.795 1.13055 1.6752 0
M  V30 1733 C 167.116 -0.324791 1.92276 0
M  V30 1734 O 166.386 -1.22775 1.52654 0
M  V30 1735 H 164.966 0.415391 0.620854 0
M  V30 1736 H 167.628 1.59623 1.11833 0
M  V30 1737 H 166.724 1.65694 2.64485 0
M  V30 1738 N 167.025 -1.13721 1.09112 0
M  V30 1739 C 168.253 -1.88773 0.846899 0
M  V30 1740 C 168.668 -1.7896 -0.601572 0
M  V30 1741 O 168.025 -1.15394 -1.41388 0
M  V30 1742 C 168.076 -3.3849 1.26913 0
M  V30 1743 O 167.797 -3.48043 2.66079 0
M  V30 1744 C 169.298 -4.30518 1.05682 0
M  V30 1745 H 166.518 -0.59772 0.304914 0
M  V30 1746 H 169.062 -1.43977 1.45227 0
M  V30 1747 H 167.217 -3.80881 0.707723 0
M  V30 1748 H 167.631 -4.4109 2.83795 0
M  V30 1749 H 169.105 -5.3391 1.40156 0
M  V30 1750 H 169.582 -4.392 -0.00563416 0
M  V30 1751 H 170.188 -3.93893 1.60402 0
M  V30 1752 N 168.503 -0.877838 -1.30888 0
M  V30 1753 C 169.413 -0.343096 -2.32078 0
M  V30 1754 C 170.429 0.551022 -1.65045 0
M  V30 1755 O 171.605 0.445854 -1.96403 0
M  V30 1756 C 168.67 0.439905 -3.43898 0
M  V30 1757 C 167.731 -0.483111 -4.26573 0
M  V30 1758 C 166.964 0.262616 -5.33053 0
M  V30 1759 O 167.187 1.48967 -5.50604 0
M  V30 1760 O 166.121 -0.383593 -6.00676 0
M  V30 1761 H 169.947 -1.18203 -2.79753 0
M  V30 1762 H 167.532 -0.64145 -1.34929 0
M  V30 1763 H 169.414 0.883504 -4.12034 0
M  V30 1764 H 168.089 1.25526 -2.98371 0
M  V30 1765 H 166.996 -0.975374 -3.61161 0
M  V30 1766 H 168.329 -1.26427 -4.75686 0
M  V30 1767 N 169.982 1.44106 -0.638065 0
M  V30 1768 C 170.915 2.27924 0.112161 0
M  V30 1769 C 171.893 1.38945 0.844574 0
M  V30 1770 O 173.077 1.68386 0.847248 0
M  V30 1771 C 170.204 3.18029 1.16512 0
M  V30 1772 C 169.25 4.23163 0.532458 0
M  V30 1773 S 170.083 5.31131 -0.682666 0
M  V30 1774 C 171.239 6.24805 0.37013 0
M  V30 1775 H 171.472 2.91205 -0.598887 0
M  V30 1776 H 169.005 1.48394 -0.426441 0
M  V30 1777 H 170.963 3.70492 1.76766 0
M  V30 1778 H 169.624 2.53955 1.8484 0
M  V30 1779 H 168.817 4.86252 1.32571 0
M  V30 1780 H 168.419 3.74 0.00437644 0
M  V30 1781 H 170.711 6.66042 1.24071 0
M  V30 1782 H 171.654 7.07741 -0.225349 0
M  V30 1783 H 172.062 5.60154 0.699141 0
M  V30 1784 N 171.46 0.379036 1.52974 0
M  V30 1785 C 172.706 -0.199244 2.02422 0
M  V30 1786 C 173.061 -1.4532 1.26095 0
M  V30 1787 O 172.354 -1.88377 0.34996 0
M  V30 1788 C 172.548 -0.53096 3.53434 0
M  V30 1789 C 172.377 0.689298 4.44386 0
M  V30 1790 C 171.147 1.20546 4.9071 0
M  V30 1791 C 173.345 1.55856 4.90116 0
M  V30 1792 N 171.327 2.38434 5.65705 0
M  V30 1793 C 172.698 2.58396 5.63588 0
M  V30 1794 C 174.753 1.57986 4.7217 0
M  V30 1795 C 173.456 3.62939 6.21022 0
M  V30 1796 C 175.482 2.6143 5.30479 0
M  V30 1797 C 174.844 3.62693 6.03849 0
M  V30 1798 H 170.943 -0.0352671 0.781204 0
M  V30 1799 H 173.527 0.526614 1.87443 0
M  V30 1800 H 171.698 -1.22588 3.68547 0
M  V30 1801 H 173.43 -1.0955 3.89591 0
M  V30 1802 H 170.185 0.768022 4.67331 0
M  V30 1803 H 170.609 2.98055 6.07859 0
M  V30 1804 H 175.251 0.810475 4.14959 0
M  V30 1805 H 172.969 4.40751 6.77321 0
M  V30 1806 H 176.555 2.63949 5.18481 0
M  V30 1807 H 175.435 4.41424 6.48163 0
M  V30 1808 N 172.938 -1.57226 0.108567 0
M  V30 1809 C 173.886 -2.16002 -0.862885 0
M  V30 1810 C 174.88 -1.10644 -1.28274 0
M  V30 1811 O 176.086 -1.28966 -1.2557 0
M  V30 1812 H 172.461 -0.691148 -0.296342 0
M  V30 1813 H 174.432 -2.96427 -0.342575 0
M  V30 1814 C 173.181 -2.76576 -2.10716 0
M  V30 1815 H 172.504 -3.5734 -1.793 0
M  V30 1816 H 173.944 -3.21253 -2.76717 0
M  V30 1817 C 172.403 -1.73137 -2.89007 0
M  V30 1818 O 172.933 -1.17842 -3.84026 0
M  V30 1819 N 171.139 -1.43317 -2.52801 0
M  V30 1820 H 170.686 -1.88473 -1.75601 0
M  V30 1821 H 170.644 -0.743485 -3.05483 0
M  V30 1822 N 174.416 0.165178 -1.56732 0
M  V30 1823 C 175.827 0.727046 -1.71962 0
M  V30 1824 C 176.178 1.82508 -0.720078 0
M  V30 1825 O 175.303 2.16082 0.117242 0
M  V30 1826 C 175.898 1.32559 -3.11791 0
M  V30 1827 C 174.457 1.83422 -3.28684 0
M  V30 1828 C 173.604 0.715567 -2.67908 0
M  V30 1829 H 176.555 -0.0602896 -1.58585 0
M  V30 1830 H 176.576 2.19533 -3.10782 0
M  V30 1831 H 176.088 0.526195 -3.84516 0
M  V30 1832 H 174.189 2.65986 -2.60926 0
M  V30 1833 H 174.302 1.97543 -4.36478 0
M  V30 1834 H 172.666 1.13758 -2.27884 0
M  V30 1835 H 173.449 -0.0720836 -3.43224 0
M  V30 1836 N 175.894 1.51508 0.433938 0
M  V30 1837 C 176.842 1.73646 1.54757 0
M  V30 1838 C 177.836 0.602854 1.5831 0
M  V30 1839 O 179.042 0.784318 1.62014 0
M  V30 1840 H 175.417 0.548718 0.51421 0
M  V30 1841 H 177.388 2.66991 1.33261 0
M  V30 1842 C 176.137 1.88172 2.92381 0
M  V30 1843 H 175.46 2.74808 2.90381 0
M  V30 1844 H 176.9 2.07672 3.6966 0
M  V30 1845 C 175.359 0.64239 3.30719 0
M  V30 1846 O 175.889 -0.201362 4.01195 0
M  V30 1847 N 174.095 0.485489 2.86516 0
M  V30 1848 H 173.642 1.17318 2.29334 0
M  V30 1849 H 173.6 -0.342482 3.12529 0
M  V30 1850 N 177.372 -0.689602 1.41712 0
M  V30 1851 C 178.788 -1.00093 1.24312 0
M  V30 1852 C 178.988 -2.01036 0.136729 0
M  V30 1853 O 178.044 -2.47562 -0.496918 0
M  V30 1854 C 179.357 -1.51985 2.59463 0
M  V30 1855 C 180.905 -1.63838 2.66695 0
M  V30 1856 C 181.38 -2.1913 4.02177 0
M  V30 1857 N 182.871 -2.26483 4.04054 0
M  V30 1858 C 183.606 -2.70306 5.0569 0
M  V30 1859 N 183.102 -3.13691 6.17713 0
M  V30 1860 N 184.895 -2.69923 4.9305 0
M  V30 1861 H 177.046 -0.0210029 2.1239 0
M  V30 1862 H 179.309 -0.0718733 0.945272 0
M  V30 1863 H 179.015 -0.85269 3.41207 0
M  V30 1864 H 178.889 -2.50103 2.82362 0
M  V30 1865 H 181.276 -2.29664 1.85306 0
M  V30 1866 H 181.357 -0.642492 2.476 0
M  V30 1867 H 181.001 -1.53918 4.84016 0
M  V30 1868 H 180.931 -3.19482 4.18615 0
M  V30 1869 H 183.422 -1.95874 3.23174 0
M  V30 1870 H 183.735 -3.45773 6.9113 0
M  V30 1871 H 182.08 -3.11585 6.21241 0
M  V30 1872 H 185.271 -2.35382 4.04614 0
M  V30 1873 H 185.444 -3.03758 5.72394 0
M  V30 1874 N 178.85 -1.27639 -0.924453 0
M  V30 1875 C 179.76 -1.12466 -2.05885 0
M  V30 1876 C 180.776 -0.053869 -1.73917 0
M  V30 1877 O 181.952 -0.261012 -1.99702 0
M  V30 1878 C 179.017 -0.776768 -3.37886 0
M  V30 1879 C 178.078 -1.92878 -3.83532 0
M  V30 1880 C 177.311 -1.59739 -5.09234 0
M  V30 1881 O 177.534 -0.506782 -5.68144 0
M  V30 1882 O 176.468 -2.43761 -5.50331 0
M  V30 1883 H 180.294 -2.07671 -2.21599 0
M  V30 1884 H 177.879 -1.06857 -1.04413 0
M  V30 1885 H 179.761 -0.596229 -4.17161 0
M  V30 1886 H 178.436 0.145732 -3.23372 0
M  V30 1887 H 177.343 -2.1644 -3.0513 0
M  V30 1888 H 178.676 -2.8316 -4.02593 0
M  V30 1889 N 180.328 1.1314 -1.09713 0
M  V30 1890 C 181.258 2.20748 -0.761102 0
M  V30 1891 C 182.239 1.68061 0.262566 0
M  V30 1892 O 183.424 1.93765 0.129977 0
M  V30 1893 C 180.554 3.46812 -0.184054 0
M  V30 1894 C 179.508 4.12606 -1.13757 0
M  V30 1895 C 178.834 5.33031 -0.422083 0
M  V30 1896 C 180.134 4.59603 -2.48118 0
M  V30 1897 H 181.828 2.49113 -1.66082 0
M  V30 1898 H 179.374 1.19734 -0.799987 0
M  V30 1899 H 181.327 4.21353 0.0631215 0
M  V30 1900 H 180.051 3.17851 0.750868 0
M  V30 1901 H 178.71 3.40036 -1.37007 0
M  V30 1902 H 178.358 5.00335 0.517072 0
M  V30 1903 H 178.058 5.77999 -1.05788 0
M  V30 1904 H 179.582 6.10325 -0.183277 0
M  V30 1905 H 180.996 5.25552 -2.29059 0
M  V30 1906 H 179.393 5.15321 -3.07514 0
M  V30 1907 H 180.463 3.73971 -3.08665 0
M  V30 1908 N 181.806 0.884767 1.30421 0
M  V30 1909 C 183.031 0.517288 2.00845 0
M  V30 1910 C 183.456 -0.886779 1.65885 0
M  V30 1911 O 182.814 -1.58768 0.875354 0
M  V30 1912 C 182.862 0.698994 3.5376 0
M  V30 1913 O 181.966 -0.255208 4.1161 0
M  V30 1914 H 181.307 0.203872 0.631927 0
M  V30 1915 H 183.837 1.19225 1.66272 0
M  V30 1916 H 183.847 0.597912 4.03595 0
M  V30 1917 H 182.522 1.72271 3.78544 0
M  V30 1918 H 181.099 -0.10784 3.72744 0
M  V30 1919 N 183.284 -1.43765 0.645699 0
M  V30 1920 C 184.194 -2.34544 -0.0512957 0
M  V30 1921 C 185.21 -1.53455 -0.82022 0
M  V30 1922 O 186.386 -1.86133 -0.769176 0
M  V30 1923 C 183.451 -3.31636 -1.01087 0
M  V30 1924 C 182.512 -4.2863 -0.239712 0
M  V30 1925 C 181.745 -5.21084 -1.15358 0
M  V30 1926 O 181.968 -5.1779 -2.39269 0
M  V30 1927 O 180.902 -5.98593 -0.630038 0
M  V30 1928 H 184.728 -2.95624 0.695718 0
M  V30 1929 H 182.313 -1.43781 0.405882 0
M  V30 1930 H 184.195 -3.9136 -1.56254 0
M  V30 1931 H 182.87 -2.73069 -1.73824 0
M  V30 1932 H 181.777 -3.72408 0.355356 0
M  V30 1933 H 183.11 -4.90157 0.447936 0
M  V30 1934 N 184.763 -0.387143 -1.52771 0
M  V30 1935 C 186.04 0.253197 -1.93954 0
M  V30 1936 C 186.42 1.64545 -1.32243 0
M  V30 1937 O 185.768 2.23191 -0.489699 0
M  V30 1938 C 185.978 0.281722 -3.47861 0
M  V30 1939 C 187.326 0.511715 -4.21505 0
M  V30 1940 O 188.35 0.362023 -3.54356 0
M  V30 1941 O 187.209 0.804847 -5.40541 0
M  V30 1942 H 184.303 0.156845 -0.811991 0
M  V30 1943 H 186.849 -0.441494 -1.63856 0
M  V30 1944 H 185.621 -0.693571 -3.85104 0
M  V30 1945 H 185.244 1.02142 -3.84256 0
M  V30 1946 N 186.241 1.57166 -0.116904 0
M  V30 1947 C 187.481 1.97008 0.544715 0
M  V30 1948 C 187.845 0.998713 1.63981 0
M  V30 1949 O 189.046 1.28644 2.36018 0
M  V30 1950 C 187.317 3.41145 1.06559 0
M  V30 1951 S 188.876 4.02998 1.73603 0
M  V30 1952 H 185.694 0.688587 0.177112 0
M  V30 1953 H 188.296 1.94459 -0.201487 0
M  V30 1954 H 187 4.09592 0.257374 0
M  V30 1955 H 186.531 3.4734 1.84712 0
M  V30 1956 H 188.546 3.93585 3.02168 0
M  V30 1957 N 187.719 -0.156864 1.56817 0
M  V30 1958 C 188.649 -1.19589 2.00551 0
M  V30 1959 C 189.63 -1.4536 0.883426 0
M  V30 1960 O 190.815 -1.56449 1.15054 0
M  V30 1961 C 187.945 -2.53143 2.37773 0
M  V30 1962 C 186.899 -2.41913 3.53075 0
M  V30 1963 C 186.225 -3.80088 3.76081 0
M  V30 1964 C 187.525 -1.91157 4.86062 0
M  V30 1965 H 189.219 -0.832293 2.87599 0
M  V30 1966 H 186.765 -0.398918 1.38364 0
M  V30 1967 H 188.718 -3.26047 2.66967 0
M  V30 1968 H 187.442 -2.91319 1.4765 0
M  V30 1969 H 186.101 -1.71462 3.24031 0
M  V30 1970 H 185.749 -4.15683 2.83225 0
M  V30 1971 H 185.449 -3.73439 4.53671 0
M  V30 1972 H 186.973 -4.54556 4.0769 0
M  V30 1973 H 188.387 -2.53846 5.14038 0
M  V30 1974 H 186.784 -1.95422 5.67389 0
M  V30 1975 H 187.854 -0.866673 4.77092 0
M  V30 1976 N 189.197 -1.51736 -0.425897 0
M  V30 1977 C 190.427 -1.68549 -1.19476 0
M  V30 1978 C 190.835 -0.387288 -1.85194 0
M  V30 1979 O 190.178 0.645142 -1.71999 0
M  V30 1980 C 190.24 -2.75275 -2.31223 0
M  V30 1981 C 189.904 -4.17534 -1.8578 0
M  V30 1982 C 190.901 -5.01936 -1.35485 0
M  V30 1983 C 188.586 -4.6369 -1.93123 0
M  V30 1984 C 190.58 -6.30559 -0.931347 0
M  V30 1985 C 188.267 -5.92307 -1.50384 0
M  V30 1986 C 189.265 -6.75569 -1.00473 0
M  V30 1987 O 188.953 -8.0178 -0.583452 0
M  V30 1988 H 188.685 -0.568525 -0.365725 0
M  V30 1989 H 191.239 -1.98982 -0.509444 0
M  V30 1990 H 189.469 -2.40182 -3.03067 0
M  V30 1991 H 191.158 -2.80853 -2.93047 0
M  V30 1992 H 191.924 -4.67475 -1.29197 0
M  V30 1993 H 187.803 -3.98997 -2.30916 0
M  V30 1994 H 191.347 -6.95498 -0.541084 0
M  V30 1995 H 187.244 -6.2628 -1.56346 0
M  V30 1996 H 188.012 -8.1543 -0.708275 0
M  V30 1997 N 190.675 0.682077 -1.42076 0
M  V30 1998 C 191.605 1.80796 -1.47767 0
M  V30 1999 C 192.586 1.6677 -0.334954 0
M  V30 2000 O 193.771 1.863 -0.548264 0
M  V30 2001 C 190.901 3.19038 -1.37229 0
M  V30 2002 C 189.855 3.47789 -2.49453 0
M  V30 2003 C 189.181 4.8553 -2.23975 0
M  V30 2004 C 190.481 3.45411 -3.91776 0
M  V30 2005 H 192.175 1.7629 -2.41997 0
M  V30 2006 H 189.721 0.846721 -1.16476 0
M  V30 2007 H 191.674 3.97528 -1.39821 0
M  V30 2008 H 190.398 3.24204 -0.394907 0
M  V30 2009 H 189.057 2.71657 -2.46166 0
M  V30 2010 H 188.705 4.87337 -1.24547 0
M  V30 2011 H 188.405 5.0573 -2.99184 0
M  V30 2012 H 189.929 5.66312 -2.28304 0
M  V30 2013 H 191.343 4.13882 -3.96705 0
M  V30 2014 H 189.74 3.77145 -4.66778 0
M  V30 2015 H 190.81 2.44122 -4.18966 0
M  V30 2016 N 192.153 1.28127 0.917671 0
M  V30 2017 C 193.101 1.11569 2.04096 0
M  V30 2018 C 194.095 0.0360242 1.69362 0
M  V30 2019 O 195.301 0.194501 1.78946 0
M  V30 2020 H 191.676 0.344097 0.668656 0
M  V30 2021 H 193.647 2.06711 2.15205 0
M  V30 2022 C 192.396 0.790197 3.38602 0
M  V30 2023 H 191.719 1.61293 3.6582 0
M  V30 2024 H 193.159 0.714271 4.1794 0
M  V30 2025 C 191.618 -0.505897 3.3308 0
M  V30 2026 O 192.148 -1.53736 3.71117 0
M  V30 2027 N 190.354 -0.505193 2.86175 0
M  V30 2028 H 189.901 0.334621 2.55417 0
M  V30 2029 H 189.859 -1.37243 2.82863 0
M  V30 2030 N 193.631 -1.12557 1.10312 0
M  V30 2031 C 194.877 -1.84311 0.846011 0
M  V30 2032 C 195.21 -1.83805 -0.626859 0
M  V30 2033 O 194.485 -1.28268 -1.46211 0
M  V30 2034 C 194.768 -3.32048 1.39341 0
M  V30 2035 C 194.621 -3.41016 2.93305 0
M  V30 2036 C 195.94 -4.27764 1.03468 0
M  V30 2037 H 193.059 -0.669192 0.30879 0
M  V30 2038 H 195.701 -1.32057 1.36605 0
M  V30 2039 H 193.851 -3.76678 0.951087 0
M  V30 2040 H 195.523 -3.05031 3.46055 0
M  V30 2041 H 193.766 -2.81603 3.29973 0
M  V30 2042 H 194.437 -4.44948 3.26689 0
M  V30 2043 H 196.913 -3.91253 1.41633 0
M  V30 2044 H 195.789 -5.29549 1.44463 0
M  V30 2045 H 196.05 -4.42064 -0.0560404 0
M  V30 2046 N 195.109 -0.891671 -1.2995 0
M  V30 2047 C 196.355 -0.523649 -1.96544 0
M  V30 2048 C 196.71 0.918394 -1.69066 0
M  V30 2049 O 196.003 1.64122 -0.988659 0
M  V30 2050 C 196.197 -0.742868 -3.49594 0
M  V30 2051 C 196.026 -2.20467 -3.9195 0
M  V30 2052 C 194.796 -2.85055 -4.17219 0
M  V30 2053 C 196.994 -3.17912 -4.04273 0
M  V30 2054 N 194.976 -4.21762 -4.46083 0
M  V30 2055 C 196.347 -4.39712 -4.37097 0
M  V30 2056 C 198.402 -3.1361 -3.86721 0
M  V30 2057 C 197.105 -5.5776 -4.54199 0
M  V30 2058 C 199.131 -4.30936 -4.05028 0
M  V30 2059 C 198.493 -5.51504 -4.38204 0
M  V30 2060 H 194.592 -0.241072 -0.743914 0
M  V30 2061 H 197.176 -1.15081 -1.5705 0
M  V30 2062 H 195.347 -0.14515 -3.88129 0
M  V30 2063 H 197.079 -0.341081 -4.0326 0
M  V30 2064 H 193.834 -2.35889 -4.10674 0
M  V30 2065 H 194.258 -4.92382 -4.64638 0
M  V30 2066 H 198.9 -2.21489 -3.60142 0
M  V30 2067 H 196.618 -6.50379 -4.79618 0
M  V30 2068 H 200.204 -4.29085 -3.92909 0
M  V30 2069 H 199.084 -6.40778 -4.52077 0
M  V30 2070 N 196.587 1.43421 -0.653314 0
M  V30 2071 C 197.815 2.06163 -0.174491 0
M  V30 2072 C 198.23 1.48969 1.1599 0
M  V30 2073 O 197.587 0.621042 1.71608 0
M  V30 2074 C 197.638 3.61417 -0.0774865 0
M  V30 2075 O 197.359 4.16485 -1.35912 0
M  V30 2076 C 198.86 4.41235 0.427402 0
M  V30 2077 H 196.08 0.664946 -0.0899353 0
M  V30 2078 H 198.624 1.83924 -0.893988 0
M  V30 2079 H 196.779 3.82841 0.59257 0
M  V30 2080 H 197.193 5.10153 -1.21839 0
M  V30 2081 H 198.667 5.5021 0.44423 0
M  V30 2082 H 199.144 4.14268 1.45873 0
M  V30 2083 H 199.75 4.2478 -0.210167 0
M  V30 2084 N 198.065 0.39524 1.52563 0
M  V30 2085 C 199.476 -0.0774719 1.86539 0
M  V30 2086 C 199.827 -1.45641 1.31466 0
M  V30 2087 O 198.952 -2.06459 0.648367 0
M  V30 2088 C 199.547 -0.147356 3.38479 0
M  V30 2089 C 198.106 -0.564373 3.72145 0
M  V30 2090 C 197.253 0.269919 2.75983 0
M  V30 2091 H 200.204 0.612876 1.46388 0
M  V30 2092 H 200.225 -0.965343 3.68051 0
M  V30 2093 H 199.737 0.856387 3.78534 0
M  V30 2094 H 197.838 -1.57527 3.37663 0
M  V30 2095 H 197.951 -0.318402 4.78041 0
M  V30 2096 H 196.315 -0.265696 2.5331 0
M  V30 2097 H 197.098 1.27175 3.18875 0
M  V30 2098 N 199.544 -1.57102 0.125237 0
M  V30 2099 C 200.774 -1.99472 -0.538015 0
M  V30 2100 C 201.182 -1.00395 -1.60366 0
M  V30 2101 O 200.525 0.0103875 -1.83697 0
M  V30 2102 C 200.587 -3.38262 -1.21734 0
M  V30 2103 C 200.251 -4.56021 -0.298897 0
M  V30 2104 C 201.248 -5.17817 0.464943 0
M  V30 2105 C 198.933 -5.01869 -0.208149 0
M  V30 2106 C 200.927 -6.23852 1.3072 0
M  V30 2107 C 198.614 -6.07763 0.637736 0
M  V30 2108 C 199.612 -6.68622 1.39403 0
M  V30 2109 O 199.3 -7.7247 2.22586 0
M  V30 2110 H 199.032 -0.659934 -0.146501 0
M  V30 2111 H 201.586 -2.04321 0.210267 0
M  V30 2112 H 199.816 -3.30185 -2.01282 0
M  V30 2113 H 201.505 -3.6488 -1.77813 0
M  V30 2114 H 202.271 -4.83308 0.404741 0
M  V30 2115 H 198.15 -4.54241 -0.786522 0
M  V30 2116 H 201.694 -6.71284 1.898 0
M  V30 2117 H 197.591 -6.41701 0.699309 0
M  V30 2118 H 198.359 -7.89595 2.15596 0
M  V30 2119 N 201.022 0.148545 -1.56898 0
M  V30 2120 C 202.433 0.708766 -1.72723 0
M  V30 2121 C 202.784 1.81734 -0.739395 0
M  V30 2122 O 201.909 2.16194 0.0943169 0
M  V30 2123 C 202.504 1.29245 -3.13179 0
M  V30 2124 C 201.063 1.79925 -3.30611 0
M  V30 2125 C 200.21 0.687111 -2.68652 0
M  V30 2126 H 203.161 -0.0771063 -1.58513 0
M  V30 2127 H 203.182 2.16224 -3.13093 0
M  V30 2128 H 202.694 0.485382 -3.85053 0
M  V30 2129 H 200.795 2.63203 -2.63732 0
M  V30 2130 H 200.908 1.92903 -4.38549 0
M  V30 2131 H 199.272 1.11335 -2.29078 0
M  V30 2132 H 200.055 -0.108483 -3.43129 0
M  V30 2133 N 202.5 1.5196 0.417844 0
M  V30 2134 C 203.916 1.40569 0.755816 0
M  V30 2135 C 204.116 0.503316 1.95113 0
M  V30 2136 O 203.172 -0.0341925 2.52477 0
M  V30 2137 C 204.485 2.82947 1.01791 0
M  V30 2138 C 206.033 2.92231 1.12116 0
M  V30 2139 C 206.508 4.35559 1.41608 0
M  V30 2140 N 207.999 4.38753 1.48491 0
M  V30 2141 C 208.734 5.46705 1.7292 0
M  V30 2142 N 208.23 6.64788 1.95011 0
M  V30 2143 N 210.023 5.34209 1.74863 0
M  V30 2144 H 202.174 2.09168 -0.369098 0
M  V30 2145 H 204.437 0.942409 -0.102809 0
M  V30 2146 H 204.143 3.5106 0.212081 0
M  V30 2147 H 204.017 3.23462 1.94042 0
M  V30 2148 H 206.404 2.24304 1.9176 0
M  V30 2149 H 206.485 2.55185 0.177225 0
M  V30 2150 H 206.129 5.04042 0.624848 0
M  V30 2151 H 206.059 4.70133 2.37239 0
M  V30 2152 H 208.55 3.5363 1.33244 0
M  V30 2153 H 208.863 7.42845 2.13076 0
M  V30 2154 H 207.208 6.67869 1.92293 0
M  V30 2155 H 210.399 4.40937 1.57137 0
M  V30 2156 H 210.572 6.18415 1.93563 0
M  V30 2157 N 203.978 -0.674533 1.42435 0
M  V30 2158 C 205.389 -1.25514 1.38214 0
M  V30 2159 C 205.74 -1.96055 0.0755464 0
M  V30 2160 O 204.865 -2.00028 -0.8257 0
M  V30 2161 C 205.46 -2.28269 2.50357 0
M  V30 2162 C 204.019 -2.81856 2.49467 0
M  V30 2163 C 203.166 -1.56182 2.29134 0
M  V30 2164 H 206.117 -0.467902 1.51646 0
M  V30 2165 H 206.138 -3.10009 2.20624 0
M  V30 2166 H 205.65 -1.769 3.45439 0
M  V30 2167 H 203.751 -3.37346 1.58204 0
M  V30 2168 H 203.864 -3.30854 3.46515 0
M  V30 2169 H 202.228 -1.82761 1.774 0
M  V30 2170 H 203.011 -1.06778 3.26272 0
M  V30 2171 N 205.456 -1.28612 -0.910864 0
M  V30 2172 C 206.684 -1.18792 -1.69399 0
M  V30 2173 C 207.099 0.253039 -1.87097 0
M  V30 2174 O 206.456 1.17071 -1.40003 0
M  V30 2175 C 206.507 -1.88511 -3.08457 0
M  V30 2176 O 206.228 -3.26979 -2.91576 0
M  V30 2177 C 207.729 -1.85029 -4.02839 0
M  V30 2178 H 204.949 -0.412233 -0.529438 0
M  V30 2179 H 207.493 -1.69788 -1.13984 0
M  V30 2180 H 205.648 -1.41379 -3.60681 0
M  V30 2181 H 206.062 -3.61936 -3.79608 0
M  V30 2182 H 207.536 -2.38395 -4.97867 0
M  V30 2183 H 208.013 -0.823303 -4.31414 0
M  V30 2184 H 208.619 -2.31853 -3.56545 0
M  V30 2185 N 206.934 1.1197 -1.10907 0
M  V30 2186 C 208.159 1.87942 -0.877064 0
M  V30 2187 C 208.584 1.79341 0.567314 0
M  V30 2188 O 207.942 1.15184 1.40009 0
M  V30 2189 C 207.99 3.34926 -1.33629 0
M  V30 2190 O 207.094 4.09303 -0.504447 0
M  V30 2191 H 206.435 0.583785 -0.316371 0
M  V30 2192 H 208.965 1.4157 -1.47712 0
M  V30 2193 H 208.975 3.8577 -1.32837 0
M  V30 2194 H 207.65 3.40504 -2.3881 0
M  V30 2195 H 206.227 3.68393 -0.577993 0
M  V30 2196 N 208.412 0.89855 1.29475 0
M  V30 2197 C 209.823 0.572537 1.77705 0
M  V30 2198 C 210.174 -0.911778 1.73727 0
M  V30 2199 O 209.299 -1.71288 1.32247 0
M  V30 2200 C 209.894 1.03252 3.22683 0
M  V30 2201 C 208.453 0.757687 3.68695 0
M  V30 2202 C 207.6 1.20787 2.49612 0
M  V30 2203 H 210.551 1.08139 1.16153 0
M  V30 2204 H 210.572 0.367307 3.78723 0
M  V30 2205 H 210.084 2.11285 3.25546 0
M  V30 2206 H 208.185 -0.310079 3.71308 0
M  V30 2207 H 208.298 1.35476 4.59547 0
M  V30 2208 H 206.662 0.626888 2.46865 0
M  V30 2209 H 207.445 2.29622 2.55203 0
M  V30 2210 N 209.89 -1.43072 0.660911 0
M  V30 2211 C 211.118 -2.06067 0.185422 0
M  V30 2212 C 211.533 -1.49582 -1.15198 0
M  V30 2213 O 210.89 -0.630134 -1.71276 0
M  V30 2214 C 210.941 -3.61371 0.0966523 0
M  V30 2215 O 210.662 -4.15758 1.38119 0
M  V30 2216 C 212.163 -4.41455 -0.403996 0
M  V30 2217 H 209.383 -0.664459 0.0934604 0
M  V30 2218 H 211.927 -1.83447 0.90373 0
M  V30 2219 H 210.082 -3.8315 -0.572259 0
M  V30 2220 H 210.496 -5.09499 1.24542 0
M  V30 2221 H 211.97 -5.50437 -0.415045 0
M  V30 2222 H 212.447 -4.15036 -1.43674 0
M  V30 2223 H 213.053 -4.24663 0.232691 0
M  V30 2224 N 211.368 -0.403325 -1.52352 0
M  V30 2225 C 212.779 0.0675782 -1.86578 0
M  V30 2226 C 213.13 1.44941 -1.32236 0
M  V30 2227 O 212.255 2.06112 -0.659307 0
M  V30 2228 C 212.85 0.129404 -3.38553 0
M  V30 2229 C 211.409 0.544629 -3.72439 0
M  V30 2230 C 210.556 -0.284551 -2.75836 0
M  V30 2231 H 213.507 -0.620631 -1.46061 0
M  V30 2232 H 213.528 0.94581 -3.68558 0
M  V30 2233 H 213.04 -0.87645 -3.78074 0
M  V30 2234 H 211.141 1.55734 -3.38493 0
M  V30 2235 H 211.254 0.293046 -4.78203 0
M  V30 2236 H 209.618 0.252258 -2.53448 0
M  V30 2237 H 210.401 -1.28865 -3.18196 0
M  V30 2238 N 212.846 1.57033 -0.133567 0
M  V30 2239 C 214.092 1.95976 0.521649 0
M  V30 2240 C 214.425 1.01779 1.65393 0
M  V30 2241 O 213.7 0.0576581 1.94415 0
M  V30 2242 C 213.983 3.44738 1.04057 0
M  V30 2243 C 213.836 4.49711 -0.0892897 0
M  V30 2244 C 215.155 3.95682 1.92675 0
M  V30 2245 H 212.274 0.712579 0.188149 0
M  V30 2246 H 214.916 1.88813 -0.212076 0
M  V30 2247 H 213.066 3.50973 1.66583 0
M  V30 2248 H 214.738 4.55565 -0.725152 0
M  V30 2249 H 212.981 4.27261 -0.750378 0
M  V30 2250 H 213.652 5.51099 0.315284 0
M  V30 2251 H 216.128 3.91841 1.39998 0
M  V30 2252 H 215.004 5.00262 2.25897 0
M  V30 2253 H 215.265 3.37239 2.85872 0
M  V30 2254 N 214.325 -0.140222 1.56975 0
M  V30 2255 C 215.255 -1.17456 2.01808 0
M  V30 2256 C 216.236 -1.44415 0.898794 0
M  V30 2257 O 217.421 -1.5522 1.16707 0
M  V30 2258 C 214.551 -2.50607 2.40444 0
M  V30 2259 C 213.505 -2.38155 3.55621 0
M  V30 2260 C 212.831 -3.76078 3.80091 0
M  V30 2261 C 214.131 -1.85991 4.88062 0
M  V30 2262 H 215.825 -0.801743 2.88466 0
M  V30 2263 H 213.371 -0.38422 1.38779 0
M  V30 2264 H 215.324 -3.23197 2.7041 0
M  V30 2265 H 214.048 -2.89737 1.50732 0
M  V30 2266 H 212.707 -1.68016 3.25832 0
M  V30 2267 H 212.355 -4.12656 2.87618 0
M  V30 2268 H 212.055 -3.68606 4.57606 0
M  V30 2269 H 213.579 -4.50206 4.12488 0
M  V30 2270 H 214.993 -2.4838 5.16701 0
M  V30 2271 H 213.39 -1.89393 5.6943 0
M  V30 2272 H 214.46 -0.816023 4.77984 0
M  V30 2273 N 215.803 -1.52179 -0.40978 0
M  V30 2274 C 217.049 -1.66453 -1.15851 0
M  V30 2275 C 217.382 -0.392972 -1.90182 0
M  V30 2276 O 216.657 0.608579 -1.84734 0
M  V30 2277 C 216.94 -2.88612 -2.15349 0
M  V30 2278 C 216.793 -4.25815 -1.44918 0
M  V30 2279 C 218.112 -3.06294 -3.16026 0
M  V30 2280 H 215.231 -0.60575 -0.419805 0
M  V30 2281 H 217.873 -1.84732 -0.444314 0
M  V30 2282 H 216.023 -2.73158 -2.76255 0
M  V30 2283 H 217.695 -4.52995 -0.871365 0
M  V30 2284 H 215.938 -4.27247 -0.751159 0
M  V30 2285 H 216.609 -5.07337 -2.17516 0
M  V30 2286 H 219.085 -3.20641 -2.65195 0
M  V30 2287 H 217.961 -3.93283 -3.8291 0
M  V30 2288 H 218.222 -2.19579 -3.83715 0
M  V30 2289 N 217.281 0.66697 -1.42791 0
M  V30 2290 C 218.527 1.42754 -1.44889 0
M  V30 2291 C 218.882 1.92283 -0.0669755 0
M  V30 2292 O 218.175 1.68494 0.912154 0
M  V30 2293 C 218.369 2.6349 -2.4147 0
M  V30 2294 C 218.198 2.25776 -3.88915 0
M  V30 2295 C 216.968 2.1476 -4.57391 0
M  V30 2296 C 219.166 1.86927 -4.79127 0
M  V30 2297 N 217.148 1.70232 -5.89826 0
M  V30 2298 C 218.519 1.53378 -6.00729 0
M  V30 2299 C 220.574 1.73989 -4.66511 0
M  V30 2300 C 219.277 1.08187 -7.11117 0
M  V30 2301 C 221.303 1.30203 -5.76889 0
M  V30 2302 C 220.665 0.975818 -6.97608 0
M  V30 2303 H 216.764 0.518559 -0.585338 0
M  V30 2304 H 219.348 0.768906 -1.78874 0
M  V30 2305 H 217.519 3.27033 -2.09533 0
M  V30 2306 H 219.251 3.30123 -2.34096 0
M  V30 2307 H 216.006 2.3408 -4.11708 0
M  V30 2308 H 216.43 1.50369 -6.6009 0
M  V30 2309 H 221.072 1.97853 -3.7365 0
M  V30 2310 H 218.79 0.830701 -8.03819 0
M  V30 2311 H 222.376 1.20701 -5.69142 0
M  V30 2312 H 221.256 0.642157 -7.81566 0
M  V30 2313 N 218.759 1.29093 0.90403 0
M  V30 2314 C 220.008 1.16187 1.64874 0
M  V30 2315 C 220.321 -0.286742 1.93487 0
M  V30 2316 O 221.527 -0.537062 2.66135 0
M  V30 2317 C 219.983 2.03177 2.97064 0
M  V30 2318 C 219.591 3.52836 2.76062 0
M  V30 2319 C 221.335 1.98984 3.74974 0
M  V30 2320 C 219.242 4.31945 4.03952 0
M  V30 2321 H 218.172 0.431246 0.618501 0
M  V30 2322 H 220.823 1.53699 1.00243 0
M  V30 2323 H 219.205 1.5853 3.62883 0
M  V30 2324 H 220.379 4.05507 2.18863 0
M  V30 2325 H 218.694 3.58656 2.11553 0
M  V30 2326 H 221.291 2.55351 4.69787 0
M  V30 2327 H 221.634 0.968815 4.0487 0
M  V30 2328 H 222.167 2.41652 3.15989 0
M  V30 2329 H 218.906 5.34667 3.79225 0
M  V30 2330 H 218.426 3.84045 4.60727 0
M  V30 2331 H 220.105 4.42379 4.72133 0
M  V30 2332 N 220.237 -1.11381 1.11499 0
M  V30 2333 C 221.467 -1.86663 0.885464 0
M  V30 2334 C 221.875 -1.80464 -0.568281 0
M  V30 2335 O 221.218 -1.18445 -1.40415 0
M  V30 2336 C 221.28 -3.36337 1.26956 0
M  V30 2337 C 220.944 -3.66304 2.73259 0
M  V30 2338 C 221.941 -3.63733 3.71476 0
M  V30 2339 C 219.626 -3.9529 3.09921 0
M  V30 2340 C 221.62 -3.89725 5.04374 0
M  V30 2341 C 219.307 -4.20941 4.43004 0
M  V30 2342 C 220.305 -4.18147 5.40039 0
M  V30 2343 O 219.993 -4.43153 6.70724 0
M  V30 2344 H 219.725 -0.597114 0.316908 0
M  V30 2345 H 222.279 -1.41782 1.48617 0
M  V30 2346 H 220.509 -3.81826 0.611999 0
M  V30 2347 H 222.198 -3.92986 1.01573 0
M  V30 2348 H 222.964 -3.41389 3.44498 0
M  V30 2349 H 218.843 -3.966 2.35009 0
M  V30 2350 H 222.387 -3.8746 5.80104 0
M  V30 2351 H 218.284 -4.42761 4.69716 0
M  V30 2352 H 219.052 -4.60717 6.76522 0
M  V30 2353 N 221.715 -0.905404 -1.28997 0
M  V30 2354 C 222.963 -0.533192 -1.9494 0
M  V30 2355 C 223.284 0.924618 -1.71685 0
M  V30 2356 O 222.554 1.65268 -1.05183 0
M  V30 2357 H 221.134 -0.194194 -0.721317 0
M  V30 2358 H 223.796 -1.15294 -1.57141 0
M  V30 2359 H 222.892 -0.72059 -3.03667 0
M  V30 2360 N 223.193 1.4272 -0.668489 0
M  V30 2361 C 224.441 2.01226 -0.187769 0
M  V30 2362 C 224.762 1.53092 1.2078 0
M  V30 2363 O 224.032 0.74993 1.80977 0
M  V30 2364 H 222.612 0.744041 -0.0664272 0
M  V30 2365 H 225.274 1.74723 -0.863583 0
M  V30 2366 H 224.37 3.11556 -0.184166 0
M  V30 2367 N 224.671 0.411399 1.52136 0
M  V30 2368 C 225.919 -0.163322 2.01439 0
M  V30 2369 C 226.24 -1.45453 1.29879 0
M  V30 2370 O 225.51 -1.91225 0.4254 0
M  V30 2371 H 224.09 -0.0633447 0.744309 0
M  V30 2372 H 226.752 0.548161 1.87033 0
M  V30 2373 H 225.848 -0.357817 3.10042 0
M  V30 2374 N 226.149 -1.5696 0.141893 0
M  V30 2375 C 227.396 -1.9596 -0.510492 0
M  V30 2376 C 227.724 -1.02648 -1.65208 0
M  V30 2377 O 226.979 -0.0546947 -1.95624 0
M  V30 2378 C 227.278 -3.41242 -1.06249 0
M  V30 2379 C 226.944 -4.50882 -0.0398791 0
M  V30 2380 C 225.606 -4.80595 0.241247 0
M  V30 2381 C 227.958 -5.17058 0.65578 0
M  V30 2382 C 225.286 -5.73792 1.22393 0
M  V30 2383 C 227.638 -6.11313 1.62724 0
M  V30 2384 C 226.302 -6.39407 1.91612 0
M  V30 2385 H 225.572 -0.717068 -0.186802 0
M  V30 2386 H 228.219 -1.90142 0.227643 0
M  V30 2387 H 226.524 -3.43866 -1.87785 0
M  V30 2388 H 228.221 -3.68742 -1.57576 0
M  V30 2389 H 224.811 -4.27754 -0.269174 0
M  V30 2390 H 228.995 -4.94239 0.451779 0
M  V30 2391 H 224.251 -5.93853 1.45424 0
M  V30 2392 H 228.425 -6.61668 2.17183 0
M  V30 2393 H 226.052 -7.11427 2.6791 0
M  V30 2394 N 227.627 0.131896 -1.57047 0
M  V30 2395 C 228.857 0.855219 -1.88068 0
M  V30 2396 C 229.265 1.74557 -0.729817 0
M  V30 2397 O 228.608 1.81083 0.308962 0
M  V30 2398 C 228.67 1.75119 -3.13964 0
M  V30 2399 C 228.334 1.03646 -4.45091 0
M  V30 2400 C 229.331 0.383276 -5.18485 0
M  V30 2401 C 227.016 1.02148 -4.91804 0
M  V30 2402 C 229.01 -0.275347 -6.36805 0
M  V30 2403 C 226.697 0.359047 -6.10044 0
M  V30 2404 C 227.695 -0.288222 -6.82392 0
M  V30 2405 O 227.383 -0.94011 -7.98384 0
M  V30 2406 H 227.115 0.251864 -0.627328 0
M  V30 2407 H 229.669 0.124782 -2.05021 0
M  V30 2408 H 227.899 2.52295 -2.9306 0
M  V30 2409 H 229.588 2.3478 -3.31109 0
M  V30 2410 H 230.354 0.386562 -4.83457 0
M  V30 2411 H 226.233 1.5147 -4.35405 0
M  V30 2412 H 229.777 -0.781148 -6.93213 0
M  V30 2413 H 225.674 0.35348 -6.44531 0
M  V30 2414 H 226.442 -0.84329 -8.14144 0
M  V30 2415 N 229.106 1.52395 0.401703 0
M  V30 2416 C 230.331 1.70972 1.17403 0
M  V30 2417 C 230.756 0.421615 1.83314 0
M  V30 2418 O 230.114 -0.621564 1.70312 0
M  V30 2419 C 230.162 2.85151 2.20728 0
M  V30 2420 O 229.266 2.51238 3.27037 0
M  V30 2421 H 228.607 0.568927 0.342372 0
M  V30 2422 H 231.137 1.99131 0.469891 0
M  V30 2423 H 231.147 3.10279 2.64936 0
M  V30 2424 H 229.822 3.78603 1.7214 0
M  V30 2425 H 228.399 2.36808 2.88057 0
M  V30 2426 N 230.584 -0.659388 1.43143 0
M  V30 2427 C 231.832 -1.41654 1.44147 0
M  V30 2428 C 232.153 -1.94893 0.0645739 0
M  V30 2429 O 231.423 -1.74044 -0.899198 0
M  V30 2430 H 230.003 -0.525708 0.530697 0
M  V30 2431 H 232.665 -0.778097 1.78694 0
M  V30 2432 H 231.761 -2.26195 2.1504 0
M  V30 2433 N 232.062 -1.29571 -0.897171 0
M  V30 2434 C 233.025 -1.14913 -1.98312 0
M  V30 2435 C 234.025 -0.0838629 -1.60581 0
M  V30 2436 O 235.215 -0.331006 -1.71026 0
M  V30 2437 C 232.347 -0.757835 -3.3237 0
M  V30 2438 H 233.54 -2.11377 -2.12743 0
M  V30 2439 H 231.093 -1.12793 -1.08201 0
M  V30 2440 H 231.828 0.206837 -3.2364 0
M  V30 2441 H 231.613 -1.52755 -3.61121 0
M  V30 2442 H 233.103 -0.678408 -4.12053 0
M  V30 2443 N 233.54 1.10788 -1.12088 0
M  V30 2444 C 234.765 1.87002 -0.896949 0
M  V30 2445 C 235.19 1.79933 0.548261 0
M  V30 2446 O 234.548 1.16662 1.38779 0
M  V30 2447 C 234.596 3.3349 -1.37174 0
M  V30 2448 O 233.7 4.08745 -0.547831 0
M  V30 2449 H 233.041 0.580397 -0.322545 0
M  V30 2450 H 235.571 1.39996 -1.49206 0
M  V30 2451 H 235.581 3.84339 -1.36922 0
M  V30 2452 H 234.256 3.37951 -2.42408 0
M  V30 2453 H 232.833 3.6776 -0.617034 0
M  V30 2454 N 235.018 0.912232 1.28515 0
M  V30 2455 C 236.243 0.559774 1.99703 0
M  V30 2456 C 236.668 -0.851393 1.67729 0
M  V30 2457 O 236.026 -1.56875 0.908834 0
M  V30 2458 C 236.074 0.773874 3.52198 0
M  V30 2459 O 235.178 -0.167842 4.12058 0
M  V30 2460 H 234.519 0.21723 0.627461 0
M  V30 2461 H 237.049 1.22725 1.63706 0
M  V30 2462 H 237.059 0.683386 4.02236 0
M  V30 2463 H 235.734 1.80261 3.74805 0
M  V30 2464 H 234.311 -0.0287509 3.72889 0
M  V30 2465 N 236.496 -1.42363 0.676048 0
M  V30 2466 C 237.426 -2.33497 0.0124832 0
M  V30 2467 C 238.407 -1.50748 -0.787981 0
M  V30 2468 O 239.592 -1.79346 -0.744884 0
M  V30 2469 C 236.722 -3.34377 -0.938582 0
M  V30 2470 C 235.676 -4.27289 -0.246622 0
M  V30 2471 C 235.002 -5.18386 -1.31071 0
M  V30 2472 C 236.302 -5.14916 0.875125 0
M  V30 2473 H 237.996 -2.89233 0.773593 0
M  V30 2474 H 235.542 -1.39073 0.37346 0
M  V30 2475 H 237.495 -3.97044 -1.41188 0
M  V30 2476 H 236.219 -2.76947 -1.73113 0
M  V30 2477 H 234.878 -3.66018 0.206456 0
M  V30 2478 H 234.526 -4.57282 -2.09528 0
M  V30 2479 H 234.226 -5.81378 -0.852839 0
M  V30 2480 H 235.75 -5.83929 -1.78492 0
M  V30 2481 H 237.164 -5.71262 0.482983 0
M  V30 2482 H 235.561 -5.86747 1.25887 0
M  V30 2483 H 236.631 -4.53242 1.72335 0
M  V30 2484 N 237.974 -0.419461 -1.51915 0
M  V30 2485 C 239.251 0.211999 -1.94448 0
M  V30 2486 C 239.631 1.61703 -1.35703 0
M  V30 2487 O 238.979 2.22102 -0.536931 0
M  V30 2488 C 239.189 0.207872 -3.4838 0
M  V30 2489 C 240.537 0.422192 -4.22496 0
M  V30 2490 O 241.561 0.286778 -3.55044 0
M  V30 2491 O 240.42 0.690009 -5.42126 0
M  V30 2492 H 237.514 0.139586 -0.815135 0
M  V30 2493 H 240.06 -0.476151 -1.62883 0
M  V30 2494 H 238.832 -0.775102 -3.83546 0
M  V30 2495 H 238.455 0.939688 -3.86336 0
M  V30 2496 N 239.452 1.56882 -0.150215 0
M  V30 2497 C 240.698 1.96518 0.500834 0
M  V30 2498 C 241.031 1.03527 1.64304 0
M  V30 2499 O 240.306 0.0782751 1.94342 0
M  V30 2500 C 240.589 3.45822 1.00395 0
M  V30 2501 C 240.442 4.49591 -0.136983 0
M  V30 2502 C 241.761 3.97704 1.88467 0
M  V30 2503 H 238.88 0.714535 0.18058 0
M  V30 2504 H 241.522 1.88577 -0.232091 0
M  V30 2505 H 239.672 3.5272 1.62851 0
M  V30 2506 H 241.344 4.5477 -0.77343 0
M  V30 2507 H 239.587 4.26441 -0.795652 0
M  V30 2508 H 240.258 5.51402 0.256815 0
M  V30 2509 H 242.734 3.93304 1.35834 0
M  V30 2510 H 241.61 5.0263 2.20578 0
M  V30 2511 H 241.871 3.40252 2.82279 0
M  V30 2512 N 240.93 -0.123565 1.57115 0
M  V30 2513 C 242.16 -0.845233 1.88519 0
M  V30 2514 C 242.568 -1.74168 0.739064 0
M  V30 2515 O 241.911 -1.81244 -0.299355 0
M  V30 2516 C 241.973 -1.73452 3.14888 0
M  V30 2517 C 241.637 -1.01285 4.45635 0
M  V30 2518 C 242.634 -0.355774 5.18681 0
M  V30 2519 C 240.319 -0.99538 4.92339 0
M  V30 2520 C 242.313 0.309114 6.3665 0
M  V30 2521 C 240 -0.32669 6.10226 0
M  V30 2522 C 240.998 0.324406 6.82229 0
M  V30 2523 O 240.686 0.982437 7.97874 0
M  V30 2524 H 240.418 -0.248534 0.628655 0
M  V30 2525 H 242.972 -0.113907 2.05084 0
M  V30 2526 H 241.202 -2.50737 2.94394 0
M  V30 2527 H 242.891 -2.33021 3.32349 0
M  V30 2528 H 243.657 -0.360918 4.83655 0
M  V30 2529 H 239.536 -1.49159 4.36202 0
M  V30 2530 H 243.08 0.8179 6.92789 0
M  V30 2531 H 238.977 -0.319294 6.4471 0
M  V30 2532 H 239.745 0.886454 8.13686 0
M  V30 2533 N 242.408 -1.52605 -0.393616 0
M  V30 2534 C 243.685 -1.58001 -1.15304 0
M  V30 2535 C 244.065 -0.370385 -2.07825 0
M  V30 2536 O 243.413 0.641638 -2.19306 0
M  V30 2537 C 243.623 -2.91652 -1.91677 0
M  V30 2538 C 244.971 -3.4522 -2.47201 0
M  V30 2539 O 245.995 -2.93495 -2.01839 0
M  V30 2540 O 244.854 -4.35579 -3.3005 0
M  V30 2541 H 241.948 -0.637068 -0.527327 0
M  V30 2542 H 244.494 -1.64939 -0.399141 0
M  V30 2543 H 243.266 -3.71136 -1.23992 0
M  V30 2544 H 242.889 -2.88077 -2.74039 0
M  V30 2545 N 243.887 0.651787 -1.4349 0
M  V30 2546 C 245.135 1.40888 -1.44897 0
M  V30 2547 C 245.456 1.94856 -0.0749086 0
M  V30 2548 O 244.726 1.74518 0.889956 0
M  V30 2549 H 243.306 0.522887 -0.533478 0
M  V30 2550 H 245.968 0.768609 -1.79104 0
M  V30 2551 H 245.064 2.25052 -2.16236 0
M  V30 2552 N 245.365 1.30045 0.890287 0
M  V30 2553 C 246.781 1.08261 1.17268 0
M  V30 2554 C 246.981 -0.160063 2.00863 0
M  V30 2555 O 246.037 -0.855181 2.37577 0
M  V30 2556 C 247.35 2.34323 1.8845 0
M  V30 2557 C 248.898 2.39735 2.01237 0
M  V30 2558 C 249.373 3.65625 2.7583 0
M  V30 2559 N 250.864 3.66402 2.83379 0
M  V30 2560 C 251.599 4.60498 3.41657 0
M  V30 2561 N 251.095 5.64933 4.01026 0
M  V30 2562 N 252.888 4.48051 3.39421 0
M  V30 2563 H 245.039 2.09777 0.332762 0
M  V30 2564 H 247.302 0.92446 0.209948 0
M  V30 2565 H 247.008 3.2498 1.34465 0
M  V30 2566 H 246.882 2.4256 2.88867 0
M  V30 2567 H 249.269 1.4956 2.54393 0
M  V30 2568 H 249.35 2.35476 0.999232 0
M  V30 2569 H 248.994 4.56156 2.23347 0
M  V30 2570 H 248.924 3.67144 3.77509 0
M  V30 2571 H 251.415 2.90896 2.41222 0
M  V30 2572 H 251.728 6.32841 4.43545 0
M  V30 2573 H 250.073 5.68732 3.99461 0
M  V30 2574 H 253.264 3.65649 2.92264 0
M  V30 2575 H 253.437 5.21565 3.84544 0
M  V30 2576 N 246.843 -1.10192 1.12674 0
M  V30 2577 C 248.09 -1.82205 0.883606 0
M  V30 2578 C 248.418 -1.8532 -0.590492 0
M  V30 2579 O 247.673 -1.31137 -1.45264 0
M  V30 2580 C 247.972 -3.28552 1.4067 0
M  V30 2581 C 247.638 -3.45582 2.89627 0
M  V30 2582 C 246.3 -3.49937 3.30299 0
M  V30 2583 C 248.652 -3.50768 3.85501 0
M  V30 2584 C 245.98 -3.57049 4.65546 0
M  V30 2585 C 248.332 -3.59414 5.20581 0
M  V30 2586 C 246.996 -3.62034 5.60792 0
M  V30 2587 H 246.266 -0.666735 0.323334 0
M  V30 2588 H 248.913 -1.29868 1.40736 0
M  V30 2589 H 247.218 -3.83473 0.80347 0
M  V30 2590 H 248.915 -3.82788 1.19475 0
M  V30 2591 H 245.505 -3.42871 2.57172 0
M  V30 2592 H 249.689 -3.46651 3.55171 0
M  V30 2593 H 244.945 -3.57361 4.96088 0
M  V30 2594 H 249.119 -3.62371 5.94693 0
M  V30 2595 H 246.746 -3.67298 6.6558 0
M  V30 2596 N 248.321 -0.919034 -1.28029 0
M  V30 2597 C 249.251 -0.428581 -2.29533 0
M  V30 2598 C 250.232 0.50659 -1.62381 0
M  V30 2599 O 251.417 0.413195 -1.89753 0
M  V30 2600 C 248.547 0.327388 -3.45753 0
M  V30 2601 C 247.501 -0.519137 -4.2484 0
M  V30 2602 C 246.827 0.365486 -5.33449 0
M  V30 2603 C 248.127 -1.77914 -4.91064 0
M  V30 2604 H 249.821 -1.27687 -2.70807 0
M  V30 2605 H 247.367 -0.615428 -1.30186 0
M  V30 2606 H 249.32 0.681378 -4.15855 0
M  V30 2607 H 248.044 1.20963 -3.03374 0
M  V30 2608 H 246.703 -0.855717 -3.56473 0
M  V30 2609 H 246.351 1.24642 -4.87312 0
M  V30 2610 H 246.051 -0.197356 -5.87268 0
M  V30 2611 H 247.575 0.715241 -6.06396 0
M  V30 2612 H 248.989 -1.49374 -5.53498 0
M  V30 2613 H 247.386 -2.2848 -5.54903 0
M  V30 2614 H 248.456 -2.50382 -4.15255 0
M  V30 2615 N 249.799 1.42003 -0.683588 0
M  V30 2616 C 251.045 2.01712 -0.209825 0
M  V30 2617 C 251.378 1.53968 1.18353 0
M  V30 2618 O 250.653 0.745661 1.79639 0
M  V30 2619 C 250.936 3.59202 -0.254197 0
M  V30 2620 C 250.789 4.17102 -1.68363 0
M  V30 2621 C 252.108 4.38344 0.392709 0
M  V30 2622 H 249.227 0.732891 -0.0777189 0
M  V30 2623 H 251.869 1.68909 -0.87004 0
M  V30 2624 H 250.019 3.87278 0.307954 0
M  V30 2625 H 251.691 3.99946 -2.29871 0
M  V30 2626 H 249.934 3.72597 -2.22157 0
M  V30 2627 H 250.605 5.26249 -1.6663 0
M  V30 2628 H 253.081 4.16011 -0.0859162 0
M  V30 2629 H 251.957 5.47901 0.331063 0
M  V30 2630 H 252.218 4.16887 1.47164 0
M  V30 2631 N 251.277 0.427512 1.51691 0
M  V30 2632 C 252.209 -0.424521 2.25234 0
M  V30 2633 C 253.222 -0.994671 1.2888 0
M  V30 2634 O 254.411 -0.890483 1.54702 0
M  V30 2635 C 251.511 -1.60479 2.98496 0
M  V30 2636 C 250.684 -1.15527 4.21868 0
M  V30 2637 C 249.743 -2.20454 4.77793 0
M  V30 2638 O 248.769 -1.8029 5.39893 0
M  V30 2639 N 249.971 -3.52831 4.60967 0
M  V30 2640 H 252.736 0.205749 2.98993 0
M  V30 2641 H 250.297 0.255867 1.59865 0
M  V30 2642 H 252.289 -2.30276 3.32799 0
M  V30 2643 H 250.859 -2.14061 2.27809 0
M  V30 2644 H 250.079 -0.284736 3.9317 0
M  V30 2645 H 251.367 -0.832173 5.01949 0
M  V30 2646 H 250.765 -3.88201 4.11481 0
M  V30 2647 H 249.322 -4.18551 4.99658 0
M  V30 2648 N 252.755 -1.56801 0.158532 0
M  V30 2649 C 253.718 -2.16138 -0.762705 0
M  V30 2650 C 254.718 -1.1061 -1.16713 0
M  V30 2651 O 255.908 -1.36191 -1.08617 0
M  V30 2652 C 253.04 -2.73386 -2.03649 0
M  V30 2653 H 254.233 -2.98886 -0.246354 0
M  V30 2654 H 251.786 -1.56035 -0.0909744 0
M  V30 2655 H 252.521 -1.94335 -2.59623 0
M  V30 2656 H 252.306 -3.50601 -1.75559 0
M  V30 2657 H 253.796 -3.19065 -2.6942 0
M  V30 2658 N 254.233 0.115231 -1.57178 0
M  V30 2659 C 255.143 1.15994 -2.03918 0
M  V30 2660 C 256.159 1.45103 -0.960268 0
M  V30 2661 O 257.335 1.56144 -1.27204 0
M  V30 2662 C 254.4 2.46568 -2.43732 0
M  V30 2663 C 253.461 2.24822 -3.65723 0
M  V30 2664 C 252.694 3.4917 -4.03629 0
M  V30 2665 O 252.917 4.56623 -3.41835 0
M  V30 2666 O 251.851 3.39949 -4.96708 0
M  V30 2667 H 255.677 0.793019 -2.93164 0
M  V30 2668 H 253.262 0.3263 -1.45793 0
M  V30 2669 H 255.144 3.23492 -2.70057 0
M  V30 2670 H 253.819 2.82726 -1.57631 0
M  V30 2671 H 252.726 1.45744 -3.44542 0
M  V30 2672 H 254.059 1.93566 -4.52541 0
M  V30 2673 N 255.711 1.52812 0.385517 0
M  V30 2674 C 257.127 1.4214 0.725829 0
M  V30 2675 C 257.327 0.544589 1.94001 0
M  V30 2676 O 256.383 0.0193693 2.52493 0
M  V30 2677 C 257.696 2.85042 0.957668 0
M  V30 2678 C 259.244 2.94543 1.05892 0
M  V30 2679 C 259.719 4.38464 1.32337 0
M  V30 2680 N 261.21 4.41804 1.39151 0
M  V30 2681 C 261.945 5.5025 1.61285 0
M  V30 2682 N 261.441 6.68775 1.80866 0
M  V30 2683 N 263.234 5.37798 1.63492 0
M  V30 2684 H 255.385 2.08338 -0.413383 0
M  V30 2685 H 257.648 0.940016 -0.122775 0
M  V30 2686 H 257.354 3.51431 0.137568 0
M  V30 2687 H 257.228 3.27505 1.87137 0
M  V30 2688 H 259.615 2.28321 1.86959 0
M  V30 2689 H 259.696 2.55504 0.123057 0
M  V30 2690 H 259.34 5.05254 0.517793 0
M  V30 2691 H 259.27 4.75059 2.27214 0
M  V30 2692 H 261.761 3.56377 1.25713 0
M  V30 2693 H 262.074 7.47197 1.97271 0
M  V30 2694 H 260.419 6.71797 1.78083 0
M  V30 2695 H 263.61 4.44171 1.47749 0
M  V30 2696 H 263.783 6.22382 1.80402 0
M  V30 2697 N 257.189 -0.644168 1.43834 0
M  V30 2698 C 258.417 -1.43147 1.49387 0
M  V30 2699 C 258.832 -1.88452 0.114583 0
M  V30 2700 O 258.189 -1.60047 -0.876989 0
M  V30 2701 C 258.24 -2.66046 2.44748 0
M  V30 2702 O 257.961 -2.22633 3.77314 0
M  V30 2703 C 259.462 -3.59311 2.59635 0
M  V30 2704 H 256.682 -0.439447 0.507077 0
M  V30 2705 H 259.226 -0.78895 1.88669 0
M  V30 2706 H 257.381 -3.26418 2.08638 0
M  V30 2707 H 257.795 -3.02216 4.28679 0
M  V30 2708 H 259.269 -4.42187 3.30416 0
M  V30 2709 H 259.746 -4.07259 1.64427 0
M  V30 2710 H 260.352 -3.04816 2.96593 0
M  V30 2711 N 258.668 -1.30515 -0.883378 0
M  V30 2712 C 259.914 -1.19607 -1.63774 0
M  V30 2713 C 260.247 0.248314 -1.92606 0
M  V30 2714 O 259.522 1.17742 -1.54813 0
M  V30 2715 C 259.805 -2.02669 -2.97653 0
M  V30 2716 C 259.658 -3.55335 -2.75784 0
M  V30 2717 C 260.977 -1.86573 -3.98596 0
M  V30 2718 H 258.096 -0.435856 -0.594305 0
M  V30 2719 H 260.738 -1.60165 -1.02212 0
M  V30 2720 H 258.888 -1.68208 -3.50197 0
M  V30 2721 H 260.56 -3.99863 -2.30016 0
M  V30 2722 H 258.803 -3.79438 -2.1026 0
M  V30 2723 H 259.474 -4.08745 -3.70988 0
M  V30 2724 H 261.95 -2.16703 -3.55217 0
M  V30 2725 H 260.826 -2.47014 -4.90179 0
M  V30 2726 H 261.087 -0.825321 -4.34328 0
M  V30 2727 N 260.146 1.09593 -1.13257 0
M  V30 2728 C 261.076 2.18214 -0.830946 0
M  V30 2729 C 262.057 1.68812 0.208966 0
M  V30 2730 O 263.242 1.9408 0.0682666 0
M  V30 2731 C 260.372 3.46051 -0.294296 0
M  V30 2732 C 259.326 4.08778 -1.26826 0
M  V30 2733 C 258.652 5.31419 -0.591449 0
M  V30 2734 C 259.952 4.51476 -2.62615 0
M  V30 2735 H 261.646 2.43703 -1.73923 0
M  V30 2736 H 259.192 1.17128 -0.837675 0
M  V30 2737 H 261.145 4.2134 -0.0709606 0
M  V30 2738 H 259.869 3.20079 0.649366 0
M  V30 2739 H 258.528 3.35505 -1.47756 0
M  V30 2740 H 258.176 5.01727 0.357633 0
M  V30 2741 H 257.876 5.74341 -1.24123 0
M  V30 2742 H 259.4 6.09433 -0.377355 0
M  V30 2743 H 260.814 5.17999 -2.45663 0
M  V30 2744 H 259.211 5.05277 -3.23752 0
M  V30 2745 H 260.281 3.63962 -3.20406 0
M  V30 2746 N 261.624 0.925811 1.2754 0
M  V30 2747 C 262.87 0.566092 1.94739 0
M  V30 2748 C 263.203 -0.890057 1.72603 0
M  V30 2749 O 262.478 -1.63467 1.05399 0
M  V30 2750 C 262.761 0.89054 3.48915 0
M  V30 2751 C 262.614 2.4003 3.80402 0
M  V30 2752 C 263.933 0.395101 4.38323 0
M  V30 2753 H 261.052 0.20714 0.707292 0
M  V30 2754 H 263.694 1.15725 1.50691 0
M  V30 2755 H 261.844 0.387452 3.86563 0
M  V30 2756 H 263.516 2.97494 3.52555 0
M  V30 2757 H 261.759 2.85028 3.2702 0
M  V30 2758 H 262.43 2.57785 4.8811 0
M  V30 2759 H 264.906 0.826241 4.07814 0
M  V30 2760 H 263.782 0.651086 5.45025 0
M  V30 2761 H 264.043 -0.704798 4.36446 0
M  V30 2762 N 263.102 -1.41638 0.69111 0
M  V30 2763 C 264.327 -2.06148 0.227583 0
M  V30 2764 C 264.752 -1.51652 -1.11281 0
M  V30 2765 O 264.11 -0.64164 -1.69566 0
M  V30 2766 C 264.158 -3.60095 0.190858 0
M  V30 2767 O 263.262 -4.03845 -0.835664 0
M  V30 2768 H 262.603 -0.654434 0.112306 0
M  V30 2769 H 265.133 -1.81484 0.944714 0
M  V30 2770 H 265.143 -4.07995 0.020207 0
M  V30 2771 H 263.818 -3.99129 1.16915 0
M  V30 2772 H 262.395 -3.67458 -0.63473 0
M  V30 2773 N 264.58 -0.43555 -1.51462 0
M  V30 2774 C 265.513 0.421989 -2.24264 0
M  V30 2775 C 266.491 1.02619 -1.26127 0
M  V30 2776 O 267.675 1.069 -1.55257 0
M  V30 2777 C 264.802 1.588 -2.99166 0
M  V30 2778 C 263.848 1.10465 -4.11946 0
M  V30 2779 S 264.681 0.048146 -5.35478 0
M  V30 2780 C 265.837 1.21887 -6.13917 0
M  V30 2781 H 266.07 -0.196102 -2.96653 0
M  V30 2782 H 263.603 -0.220054 -1.52824 0
M  V30 2783 H 265.561 2.25647 -3.42919 0
M  V30 2784 H 264.222 2.1775 -2.26371 0
M  V30 2785 H 263.415 1.97654 -4.63626 0
M  V30 2786 H 263.017 0.51445 -3.70445 0
M  V30 2787 H 265.309 2.13756 -6.42895 0
M  V30 2788 H 266.252 0.742076 -7.04201 0
M  V30 2789 H 266.66 1.45663 -5.45383 0
M  V30 2790 N 266.058 1.56714 -0.166846 0
M  V30 2791 C 267.006 2.19056 0.782123 0
M  V30 2792 C 268 1.15328 1.24079 0
M  V30 2793 O 269.206 1.33537 1.20697 0
M  V30 2794 H 265.581 0.70167 0.270486 0
M  V30 2795 H 267.552 2.97494 0.232322 0
M  V30 2796 C 266.301 2.84206 2.00306 0
M  V30 2797 H 265.624 3.63748 1.65914 0
M  V30 2798 H 267.064 3.31302 2.64604 0
M  V30 2799 C 265.523 1.83744 2.82382 0
M  V30 2800 O 266.053 1.32014 3.79388 0
M  V30 2801 N 264.259 1.52601 2.47308 0
M  V30 2802 H 263.806 1.9486 1.68485 0
M  V30 2803 H 263.764 0.856351 3.02513 0
M  V30 2804 N 267.536 -0.106894 1.57237 0
M  V30 2805 C 268.766 -0.825191 1.89405 0
M  V30 2806 C 269.174 -1.73374 0.757496 0
M  V30 2807 O 268.517 -1.81552 -0.280115 0
M  V30 2808 C 268.579 -1.70102 3.1671 0
M  V30 2809 C 268.243 -0.965523 4.46684 0
M  V30 2810 C 269.24 -0.300741 5.19029 0
M  V30 2811 C 266.925 -0.943105 4.93367 0
M  V30 2812 C 268.919 0.376622 6.36286 0
M  V30 2813 C 266.606 -0.261949 6.10538 0
M  V30 2814 C 267.604 0.396748 6.81847 0
M  V30 2815 O 267.292 1.06701 7.96787 0
M  V30 2816 H 267.024 -0.241852 0.631255 0
M  V30 2817 H 269.578 -0.0921491 2.05193 0
M  V30 2818 H 267.808 -2.47601 2.97036 0
M  V30 2819 H 269.497 -2.29483 3.34802 0
M  V30 2820 H 270.263 -0.309599 4.84011 0
M  V30 2821 H 266.142 -1.44524 4.3776 0
M  V30 2822 H 269.686 0.891334 6.91882 0
M  V30 2823 H 265.583 -0.250896 6.45012 0
M  V30 2824 H 266.351 0.972707 8.127 0
M  V30 2825 N 269.014 -1.53014 -0.377408 0
M  V30 2826 C 270.43 -1.42523 -0.718281 0
M  V30 2827 C 270.63 -0.55487 -1.9371 0
M  V30 2828 O 269.686 -0.0327593 -2.52479 0
M  V30 2829 C 270.999 -2.85546 -0.942539 0
M  V30 2830 C 272.547 -2.95101 -1.04329 0
M  V30 2831 C 273.022 -4.3916 -1.3001 0
M  V30 2832 N 274.513 -4.42536 -1.36806 0
M  V30 2833 C 275.248 -5.51097 -1.58364 0
M  V30 2834 N 274.744 -6.69724 -1.77317 0
M  V30 2835 N 276.537 -5.38657 -1.60638 0
M  V30 2836 H 268.688 -2.08116 0.424426 0
M  V30 2837 H 270.951 -0.939352 0.127759 0
M  V30 2838 H 270.657 -3.51499 -0.118929 0
M  V30 2839 H 270.531 -3.28493 -1.85397 0
M  V30 2840 H 272.918 -2.29309 -1.85745 0
M  V30 2841 H 272.999 -2.55566 -0.109505 0
M  V30 2842 H 272.643 -5.05521 -0.490991 0
M  V30 2843 H 272.573 -4.76258 -2.24691 0
M  V30 2844 H 275.064 -3.57039 -1.23821 0
M  V30 2845 H 275.377 -7.48233 -1.93306 0
M  V30 2846 H 273.722 -6.72732 -1.74518 0
M  V30 2847 H 276.913 -4.44948 -1.45391 0
M  V30 2848 H 277.086 -6.2333 -1.77098 0
M  V30 2849 N 270.492 0.636531 -1.44174 0
M  V30 2850 C 271.738 1.39826 -1.4689 0
M  V30 2851 C 272.071 1.93947 -0.0990585 0
M  V30 2852 O 271.346 1.73325 0.882544 0
M  V30 2853 C 271.629 2.56751 -2.5249 0
M  V30 2854 C 271.482 2.08014 -3.98811 0
M  V30 2855 C 272.801 3.58946 -2.54649 0
M  V30 2856 H 269.92 0.507075 -0.53483 0
M  V30 2857 H 272.562 0.720188 -1.75822 0
M  V30 2858 H 270.712 3.14597 -2.2795 0
M  V30 2859 H 272.384 1.5504 -4.34466 0
M  V30 2860 H 270.627 1.39242 -4.10846 0
M  V30 2861 H 271.298 2.92169 -4.68339 0
M  V30 2862 H 273.774 3.1089 -2.76563 0
M  V30 2863 H 272.65 4.38286 -3.3045 0
M  V30 2864 H 272.911 4.12655 -1.58646 0
M  V30 2865 N 271.97 1.30982 0.876444 0
M  V30 2866 C 273.218 1.20058 1.62575 0
M  V30 2867 C 273.539 -0.242947 1.93481 0
M  V30 2868 O 272.809 -1.1619 1.57724 0
M  V30 2869 H 271.389 0.44135 0.602677 0
M  V30 2870 H 274.051 1.64222 1.04962 0
M  V30 2871 H 273.147 1.76762 2.57219 0
M  V30 2872 N 273.449 -1.08991 1.13837 0
M  V30 2873 C 274.412 -2.13925 0.822715 0
M  V30 2874 C 275.412 -1.599 -0.1699 0
M  V30 2875 O 276.602 -1.74104 0.0577251 0
M  V30 2876 C 273.734 -3.40155 0.225318 0
M  V30 2877 H 274.927 -2.43358 1.75262 0
M  V30 2878 H 272.48 -1.24603 0.943594 0
M  V30 2879 H 273.215 -3.16352 -0.713594 0
M  V30 2880 H 273 -3.80661 0.940193 0
M  V30 2881 H 274.49 -4.17594 0.0214784 0
M  V30 2882 N 274.927 -0.932562 -1.27047 0
M  V30 2883 C 276.174 -0.575559 -1.94148 0
M  V30 2884 C 276.502 0.883984 -1.73251 0
M  V30 2885 O 275.757 1.64655 -1.0577 0
M  V30 2886 C 276.056 -0.853713 -3.47054 0
M  V30 2887 C 275.722 -2.29577 -3.88079 0
M  V30 2888 C 274.384 -2.68999 -3.9899 0
M  V30 2889 C 276.736 -3.23331 -4.08787 0
M  V30 2890 C 274.064 -4.01289 -4.28 0
M  V30 2891 C 276.416 -4.55207 -4.39282 0
M  V30 2892 C 275.08 -4.94457 -4.48407 0
M  V30 2893 H 274.35 -0.210612 -0.710439 0
M  V30 2894 H 276.997 -1.17744 -1.51025 0
M  V30 2895 H 275.302 -0.169204 -3.91434 0
M  V30 2896 H 276.999 -0.55639 -3.97121 0
M  V30 2897 H 273.589 -1.97994 -3.80127 0
M  V30 2898 H 277.773 -2.94074 -3.99793 0
M  V30 2899 H 273.029 -4.31374 -4.33275 0
M  V30 2900 H 277.203 -5.27852 -4.54252 0
M  V30 2901 H 274.83 -5.96994 -4.7064 0
M  V30 2902 N 276.405 1.4127 -0.698611 0
M  V30 2903 C 277.653 2.00782 -0.230409 0
M  V30 2904 C 277.974 1.5562 1.17505 0
M  V30 2905 O 277.244 0.78815 1.79346 0
M  V30 2906 H 275.824 0.742464 -0.0821944 0
M  V30 2907 H 278.486 1.72852 -0.90045 0
M  V30 2908 H 277.582 3.11095 -0.25021 0
M  V30 2909 N 277.883 0.443576 1.51229 0
M  V30 2910 C 279.13 -0.120796 2.02139 0
M  V30 2911 C 279.458 -1.42166 1.32736 0
M  V30 2912 O 278.713 -1.90849 0.43301 0
M  V30 2913 C 279.012 -0.380579 3.55368 0
M  V30 2914 C 278.678 0.83523 4.43097 0
M  V30 2915 C 277.34 1.16864 4.66794 0
M  V30 2916 C 279.692 1.64601 4.94526 0
M  V30 2917 C 277.02 2.31339 5.39165 0
M  V30 2918 C 279.372 2.78181 5.68153 0
M  V30 2919 C 278.036 3.11969 5.90112 0
M  V30 2920 H 277.306 -0.0442023 0.73968 0
M  V30 2921 H 279.953 0.592046 1.82118 0
M  V30 2922 H 278.258 -1.17538 3.73754 0
M  V30 2923 H 279.955 -0.830777 3.923 0
M  V30 2924 H 276.545 0.565437 4.24854 0
M  V30 2925 H 280.729 1.40163 4.76097 0
M  V30 2926 H 275.985 2.57823 5.5438 0
M  V30 2927 H 280.159 3.41371 6.06992 0
M  V30 2928 H 277.786 4.00784 6.45969 0
M  V30 2929 N 279.361 -1.56624 0.175154 0
M  V30 2930 C 280.291 -2.21155 -0.749195 0
M  V30 2931 C 281.272 -1.16836 -1.23626 0
M  V30 2932 O 282.457 -1.45277 -1.28873 0
M  V30 2933 C 279.587 -2.8553 -1.97711 0
M  V30 2934 C 278.541 -3.95921 -1.62575 0
M  V30 2935 C 277.867 -4.47365 -2.92864 0
M  V30 2936 C 279.167 -5.15323 -0.850838 0
M  V30 2937 H 280.861 -2.98653 -0.211295 0
M  V30 2938 H 278.407 -1.43651 -0.100188 0
M  V30 2939 H 280.36 -3.2935 -2.62881 0
M  V30 2940 H 279.084 -2.05406 -2.53921 0
M  V30 2941 H 277.743 -3.52762 -0.997719 0
M  V30 2942 H 277.391 -3.64027 -3.47122 0
M  V30 2943 H 277.091 -5.21839 -2.70106 0
M  V30 2944 H 278.615 -4.93873 -3.59056 0
M  V30 2945 H 280.029 -5.55812 -1.40521 0
M  V30 2946 H 278.426 -5.95739 -0.722154 0
M  V30 2947 H 279.496 -4.84661 0.152082 0
M  V30 2948 N 280.839 0.0985539 -1.57292 0
M  V30 2949 C 281.802 1.10402 -2.00858 0
M  V30 2950 C 282.802 1.33146 -0.901593 0
M  V30 2951 O 283.992 1.29318 -1.16716 0
M  V30 2952 C 281.124 2.45394 -2.36632 0
M  V30 2953 H 282.317 0.729099 -2.90902 0
M  V30 2954 H 279.87 0.343495 -1.52479 0
M  V30 2955 H 280.605 2.87769 -1.49531 0
M  V30 2956 H 280.39 2.30235 -3.17387 0
M  V30 2957 H 281.88 3.17718 -2.71007 0
M  V30 2958 N 282.317 1.53212 0.369288 0
M  V30 2959 C 283.247 1.82365 1.45826 0
M  V30 2960 C 284.228 0.676907 1.56051 0
M  V30 2961 O 285.413 0.926401 1.70679 0
M  V30 2962 C 282.543 2.01023 2.83208 0
M  V30 2963 C 281.497 3.1678 2.8781 0
M  V30 2964 C 280.823 3.20724 4.27832 0
M  V30 2965 C 282.123 4.55447 2.55667 0
M  V30 2966 H 283.817 2.73559 1.21678 0
M  V30 2967 H 281.363 1.3163 0.583911 0
M  V30 2968 H 283.316 2.20001 3.59413 0
M  V30 2969 H 282.04 1.06536 3.08736 0
M  V30 2970 H 280.699 2.97616 2.14056 0
M  V30 2971 H 280.347 2.23882 4.50429 0
M  V30 2972 H 280.047 3.98496 4.31827 0
M  V30 2973 H 281.571 3.41881 5.05915 0
M  V30 2974 H 282.985 4.74611 3.21586 0
M  V30 2975 H 281.382 5.35432 2.70984 0
M  V30 2976 H 282.452 4.60812 1.5093 0
M  V30 2977 N 283.795 -0.628877 1.44509 0
M  V30 2978 C 285.206 -1.21054 1.42137 0
M  V30 2979 C 285.557 -1.95715 0.137881 0
M  V30 2980 O 284.682 -2.02554 -0.761645 0
M  V30 2981 C 285.277 -2.20189 2.57493 0
M  V30 2982 C 283.836 -2.73777 2.58308 0
M  V30 2983 C 282.983 -1.48813 2.33987 0
M  V30 2984 H 285.934 -0.41942 1.53057 0
M  V30 2985 H 285.955 -3.02833 2.30375 0
M  V30 2986 H 285.467 -1.6582 3.50892 0
M  V30 2987 H 283.568 -3.32142 1.68856 0
M  V30 2988 H 283.681 -3.19662 3.56865 0
M  V30 2989 H 282.045 -1.77024 1.83124 0
M  V30 2990 H 282.828 -0.963442 3.29504 0
M  V30 2991 N 285.273 -1.31445 -0.869486 0
M  V30 2992 C 286.521 -1.20918 -1.61936 0
M  V30 2993 C 286.842 0.232683 -1.93607 0
M  V30 2994 O 286.112 1.15352 -1.58338 0
M  V30 2995 H 284.692 -0.44454 -0.600328 0
M  V30 2996 H 287.354 -1.64776 -1.0409 0
M  V30 2997 H 286.45 -1.78124 -2.56278 0
M  V30 2998 N 286.751 1.08385 -1.14413 0
M  V30 2999 C 287.976 1.85057 -0.936413 0
M  V30 3000 C 288.401 1.81055 0.509971 0
M  V30 3001 O 287.759 1.1958 1.36273 0
M  V30 3002 C 287.807 3.30505 -1.44217 0
M  V30 3003 O 286.911 4.07491 -0.634409 0
M  V30 3004 H 286.252 0.573425 -0.334784 0
M  V30 3005 H 288.782 1.36799 -1.52142 0
M  V30 3006 H 288.792 3.81348 -1.45043 0
M  V30 3007 H 287.467 3.32734 -2.49522 0
M  V30 3008 H 286.044 3.66368 -0.694902 0
M  V30 3009 N 288.23 0.939286 1.26551 0
M  V30 3010 C 289.646 0.641304 1.46149 0
M  V30 3011 C 289.846 -0.805964 1.84679 0
M  V30 3012 O 288.902 -1.58278 1.96734 0
M  V30 3013 C 290.215 1.6011 2.54529 0
M  V30 3014 C 291.763 1.6106 2.68382 0
M  V30 3015 C 292.238 2.55765 3.79932 0
M  V30 3016 N 293.729 2.5404 3.87322 0
M  V30 3017 C 294.464 3.24004 4.73085 0
M  V30 3018 N 293.96 4.03388 5.63249 0
M  V30 3019 N 295.753 3.12965 4.66914 0
M  V30 3020 H 287.904 1.87478 0.998285 0
M  V30 3021 H 290.167 0.805559 0.499779 0
M  V30 3022 H 289.873 2.63412 2.33039 0
M  V30 3023 H 289.747 1.35171 3.52149 0
M  V30 3024 H 292.134 0.584835 2.89247 0
M  V30 3025 H 292.215 1.90053 1.71212 0
M  V30 3026 H 291.859 3.58458 3.5982 0
M  V30 3027 H 291.789 2.24063 4.76554 0
M  V30 3028 H 294.28 1.96396 3.22858 0
M  V30 3029 H 294.593 4.5373 6.25579 0
M  V30 3030 H 292.938 4.07489 5.63008 0
M  V30 3031 H 296.129 2.50432 3.95476 0
M  V30 3032 H 296.302 3.67759 5.33533 0
M  V30 3033 N 289.708 -1.40897 0.706093 0
M  V30 3034 C 290.618 -2.3455 0.0482286 0
M  V30 3035 C 291.634 -1.56796 -0.754396 0
M  V30 3036 O 292.81 -1.89228 -0.689538 0
M  V30 3037 C 289.875 -3.35625 -0.869303 0
M  V30 3038 C 288.936 -4.29261 -0.0576994 0
M  V30 3039 C 288.169 -5.25508 -0.931531 0
M  V30 3040 O 288.392 -5.27472 -2.17092 0
M  V30 3041 O 287.326 -6.00727 -0.375587 0
M  V30 3042 H 291.152 -2.92407 0.820476 0
M  V30 3043 H 288.737 -1.4193 0.4665 0
M  V30 3044 H 290.619 -3.97635 -1.39514 0
M  V30 3045 H 289.294 -2.80196 -1.62086 0
M  V30 3046 H 288.201 -3.70566 0.512988 0
M  V30 3047 H 289.534 -4.87817 0.655426 0
M  V30 3048 N 291.186 -0.45159 -1.50991 0
M  V30 3049 C 292.149 0.341117 -2.26647 0
M  V30 3050 C 293.149 0.937422 -1.30649 0
M  V30 3051 O 294.339 0.809644 -1.54241 0
M  V30 3052 C 291.471 1.48398 -3.06905 0
M  V30 3053 H 292.664 -0.322117 -2.98165 0
M  V30 3054 H 290.217 -0.205122 -1.54948 0
M  V30 3055 H 290.952 2.18284 -2.39838 0
M  V30 3056 H 290.737 1.06241 -3.77432 0
M  V30 3057 H 292.227 2.04367 -3.64176 0
M  V30 3058 N 292.664 1.56529 -0.183458 0
M  V30 3059 C 294.075 1.83739 0.331177 0
M  V30 3060 C 294.426 1.10373 1.62211 0
M  V30 3061 O 293.551 0.36071 2.13373 0
M  V30 3062 C 294.146 3.33306 0.607646 0
M  V30 3063 C 292.705 3.60969 1.06668 0
M  V30 3064 C 291.852 2.77086 0.109029 0
M  V30 3065 H 294.803 1.53379 -0.407484 0
M  V30 3066 H 294.824 3.51444 1.45832 0
M  V30 3067 H 294.336 3.86677 -0.332086 0
M  V30 3068 H 292.437 3.13021 2.0211 0
M  V30 3069 H 292.55 4.69231 0.967447 0
M  V30 3070 H 290.914 2.47319 0.608714 0
M  V30 3071 H 291.697 3.33241 -0.82494 0
M  V30 3072 N 294.142 -0.090211 1.57342 0
M  V30 3073 C 295.39 -0.791241 1.85967 0
M  V30 3074 C 295.711 -1.7903 0.772859 0
M  V30 3075 O 294.981 -1.94872 -0.200398 0
M  V30 3076 H 293.561 -0.295205 0.686195 0
M  V30 3077 H 296.223 -0.0706782 1.94772 0
M  V30 3078 H 295.319 -1.31882 2.82867 0
M  V30 3079 N 295.62 -1.53406 -0.361157 0
M  V30 3080 C 296.568 -1.80832 -1.46296 0
M  V30 3081 C 297.562 -0.677699 -1.55253 0
M  V30 3082 O 298.768 -0.860723 -1.58087 0
M  V30 3083 H 295.143 -0.572627 -0.487445 0
M  V30 3084 H 297.114 -2.73045 -1.20371 0
M  V30 3085 C 295.863 -2.01907 -2.8307 0
M  V30 3086 H 295.186 -2.88349 -2.76938 0
M  V30 3087 H 296.626 -2.25072 -3.59331 0
M  V30 3088 C 295.085 -0.799449 -3.27277 0
M  V30 3089 O 295.615 0.00971761 -4.01699 0
M  V30 3090 N 293.821 -0.621637 -2.83873 0
M  V30 3091 H 293.368 -1.28126 -2.23476 0
M  V30 3092 H 293.326 0.19298 -3.13807 0
M  V30 3093 N 297.098 0.621204 -1.44841 0
M  V30 3094 C 298.344 1.3826 -1.48365 0
M  V30 3095 C 298.677 1.93831 -0.119624 0
M  V30 3096 O 297.952 1.74251 0.864111 0
M  V30 3097 C 298.235 2.54058 -2.55199 0
M  V30 3098 C 298.088 2.03772 -4.00995 0
M  V30 3099 C 299.407 3.56225 -2.58442 0
M  V30 3100 H 296.526 0.501374 -0.540179 0
M  V30 3101 H 299.168 0.7015 -1.76576 0
M  V30 3102 H 297.318 3.12162 -2.31274 0
M  V30 3103 H 298.99 1.50423 -4.36086 0
M  V30 3104 H 297.233 1.34876 -4.12299 0
M  V30 3105 H 297.904 2.87185 -4.71411 0
M  V30 3106 H 300.38 3.07939 -2.79844 0
M  V30 3107 H 299.256 4.34756 -3.3508 0
M  V30 3108 H 299.517 4.10949 -1.63013 0
M  V30 3109 N 298.576 1.31904 0.862503 0
M  V30 3110 C 299.824 1.21776 1.61292 0
M  V30 3111 C 300.145 -0.222413 1.93727 0
M  V30 3112 O 299.415 -1.1451 1.58947 0
M  V30 3113 H 297.995 0.447717 0.597962 0
M  V30 3114 H 300.657 1.65326 1.03215 0
M  V30 3115 H 299.753 1.7948 2.5533 0
M  V30 3116 N 300.054 -1.07777 1.14986 0
M  V30 3117 C 300.984 -2.16865 0.865557 0
M  V30 3118 C 301.965 -1.69123 -0.182083 0
M  V30 3119 O 303.15 -1.94164 -0.0373815 0
M  V30 3120 C 300.28 -3.45539 0.349313 0
M  V30 3121 C 299.234 -4.06708 1.33313 0
M  V30 3122 C 298.56 -5.30411 0.675918 0
M  V30 3123 C 299.86 -4.47241 2.69764 0
M  V30 3124 H 301.554 -2.40905 1.77778 0
M  V30 3125 H 299.1 -1.15781 0.856203 0
M  V30 3126 H 301.053 -4.21174 0.137983 0
M  V30 3127 H 299.777 -3.21072 -0.598362 0
M  V30 3128 H 298.436 -3.33112 1.53075 0
M  V30 3129 H 298.084 -5.02232 -0.277767 0
M  V30 3130 H 297.784 -5.72293 1.33244 0
M  V30 3131 H 299.308 -6.08755 0.474262 0
M  V30 3132 H 300.722 -5.14025 2.53873 0
M  V30 3133 H 299.119 -5.00062 3.3175 0
M  V30 3134 H 300.189 -3.58818 3.26156 0
M  V30 3135 N 301.532 -0.945985 -1.26051 0
M  V30 3136 C 302.462 -0.477172 -2.28572 0
M  V30 3137 C 303.443 0.472032 -1.63419 0
M  V30 3138 O 304.628 0.372853 -1.90587 0
M  V30 3139 C 301.758 0.253975 -3.4637 0
M  V30 3140 C 300.712 -0.609135 -4.23643 0
M  V30 3141 C 300.038 0.252252 -5.34105 0
M  V30 3142 C 301.338 -1.8829 -4.8718 0
M  V30 3143 H 303.032 -1.33402 -2.68038 0
M  V30 3144 H 300.578 -0.642904 -1.28852 0
M  V30 3145 H 302.531 0.593016 -4.17207 0
M  V30 3146 H 301.255 1.145 -3.05871 0
M  V30 3147 H 299.914 -0.931138 -3.54578 0
M  V30 3148 H 299.562 1.14278 -4.89846 0
M  V30 3149 H 299.262 -0.32188 -5.86718 0
M  V30 3150 H 300.786 0.586454 -6.07777 0
M  V30 3151 H 302.2 -1.61081 -5.50205 0
M  V30 3152 H 300.597 -2.40199 -5.49931 0
M  V30 3153 H 301.667 -2.59134 -4.09851 0
M  V30 3154 N 303.011 1.40521 -0.713556 0
M  V30 3155 C 304.288 1.94775 -0.17943 0
M  V30 3156 C 304.668 1.65184 1.31444 0
M  V30 3157 O 304.016 0.968429 2.06963 0
M  V30 3158 C 304.226 3.45543 -0.489986 0
M  V30 3159 C 305.574 4.22442 -0.427536 0
M  V30 3160 O 306.598 3.53644 -0.425929 0
M  V30 3161 O 305.457 5.4501 -0.403292 0
M  V30 3162 H 302.551 0.826606 -0.0255192 0
M  V30 3163 H 305.097 1.5014 -0.790949 0
M  V30 3164 H 303.869 3.60432 -1.5233 0
M  V30 3165 H 303.492 3.97311 0.151598 0
M  V30 3166 N 304.489 0.459591 1.5075 0
M  V30 3167 C 305.421 -0.37665 2.26084 0
M  V30 3168 C 306.434 -0.967109 1.30961 0
M  V30 3169 O 307.623 -0.857468 1.56556 0
M  V30 3170 C 304.723 -1.54112 3.01832 0
M  V30 3171 C 303.896 -1.06553 4.24223 0
M  V30 3172 C 302.955 -2.1027 4.82362 0
M  V30 3173 O 301.981 -1.68798 5.43595 0
M  V30 3174 N 303.183 -3.42974 4.68347 0
M  V30 3175 H 305.948 0.269124 2.98489 0
M  V30 3176 H 303.509 0.28972 1.59287 0
M  V30 3177 H 305.501 -2.23165 3.37608 0
M  V30 3178 H 304.071 -2.0918 2.32298 0
M  V30 3179 H 303.291 -0.201274 3.93686 0
M  V30 3180 H 304.579 -0.725516 5.03601 0
M  V30 3181 H 303.977 -3.79385 4.19623 0
M  V30 3182 H 302.534 -4.07858 5.08424 0
M  V30 3183 N 305.967 -1.56429 0.191757 0
M  V30 3184 C 307.383 -1.58754 -0.164137 0
M  V30 3185 C 307.583 -1.20782 -1.61288 0
M  V30 3186 O 306.639 -0.928999 -2.34789 0
M  V30 3187 C 307.952 -3.00396 0.135195 0
M  V30 3188 C 309.5 -3.1291 0.0750351 0
M  V30 3189 C 309.975 -4.56679 0.347632 0
M  V30 3190 N 311.466 -4.62252 0.296131 0
M  V30 3191 C 312.201 -5.71379 0.480948 0
M  V30 3192 N 311.697 -6.88986 0.725933 0
M  V30 3193 N 313.49 -5.60563 0.415435 0
M  V30 3194 H 305.641 -1.79393 1.13718 0
M  V30 3195 H 307.904 -0.832414 0.453643 0
M  V30 3196 H 307.61 -3.32726 1.13958 0
M  V30 3197 H 307.484 -3.72963 -0.563773 0
M  V30 3198 H 309.871 -2.80394 -0.919948 0
M  V30 3199 H 309.952 -2.42736 0.807029 0
M  V30 3200 H 309.596 -4.89907 1.33992 0
M  V30 3201 H 309.526 -5.25039 -0.405212 0
M  V30 3202 H 312.017 -3.7773 0.113259 0
M  V30 3203 H 312.33 -7.68046 0.855857 0
M  V30 3204 H 310.675 -6.90801 0.762788 0
M  V30 3205 H 313.866 -4.67561 0.224486 0
M  V30 3206 H 314.039 -6.45551 0.562889 0
M  V30 3207 N 307.445 0.0818655 -1.57387 0
M  V30 3208 C 308.375 1.09885 -2.06028 0
M  V30 3209 C 309.356 1.4098 -0.951774 0
M  V30 3210 O 310.541 1.50781 -1.22387 0
M  V30 3211 C 307.671 2.4151 -2.4958 0
M  V30 3212 C 306.625 2.24792 -3.64215 0
M  V30 3213 C 305.951 3.61712 -3.93787 0
M  V30 3214 C 307.251 1.67749 -4.94629 0
M  V30 3215 H 308.945 0.694128 -2.91243 0
M  V30 3216 H 306.491 0.332448 -1.4011 0
M  V30 3217 H 308.444 3.12939 -2.82219 0
M  V30 3218 H 307.168 2.83943 -1.61381 0
M  V30 3219 H 305.827 1.55807 -3.31843 0
M  V30 3220 H 305.475 4.01697 -3.02735 0
M  V30 3221 H 305.175 3.51368 -4.70971 0
M  V30 3222 H 306.699 4.34587 -4.28913 0
M  V30 3223 H 308.113 2.29032 -5.25564 0
M  V30 3224 H 306.51 1.68128 -5.76067 0
M  V30 3225 H 307.58 0.638059 -4.80684 0
M  V30 3226 N 308.923 1.53595 0.353017 0
M  V30 3227 C 309.886 1.80232 1.41594 0
M  V30 3228 C 310.886 0.673081 1.46035 0
M  V30 3229 O 312.076 0.941335 1.46576 0
M  V30 3230 C 309.208 1.93578 2.80607 0
M  V30 3231 H 310.401 2.75174 1.19244 0
M  V30 3232 H 307.954 1.44864 0.586872 0
M  V30 3233 H 308.689 1.00746 3.08254 0
M  V30 3234 H 308.474 2.75724 2.78781 0
M  V30 3235 H 309.964 2.15735 3.57558 0
M  V30 3236 N 310.401 -0.613514 1.45168 0
M  V30 3237 C 311.331 -1.7354 1.56225 0
M  V30 3238 C 312.312 -1.64981 0.41414 0
M  V30 3239 O 313.497 -1.83472 0.636526 0
M  V30 3240 C 310.627 -3.12128 1.52295 0
M  V30 3241 C 309.581 -3.35491 2.65762 0
M  V30 3242 C 308.907 -4.74291 2.46885 0
M  V30 3243 C 310.207 -3.26325 4.0781 0
M  V30 3244 H 311.901 -1.64543 2.50132 0
M  V30 3245 H 309.447 -0.790185 1.20383 0
M  V30 3246 H 311.4 -3.90404 1.58628 0
M  V30 3247 H 310.124 -3.2195 0.549139 0
M  V30 3248 H 308.783 -2.59603 2.58847 0
M  V30 3249 H 308.431 -4.80839 1.47657 0
M  V30 3250 H 308.131 -4.9088 3.22972 0
M  V30 3251 H 309.655 -5.54775 2.55063 0
M  V30 3252 H 311.069 -3.94483 4.16 0
M  V30 3253 H 309.466 -3.54445 4.8424 0
M  V30 3254 H 310.536 -2.23855 4.30136 0
M  V30 3255 N 311.879 -1.3236 -0.855495 0
M  V30 3256 C 312.811 -1.17052 -1.97057 0
M  V30 3257 C 313.824 -0.10574 -1.62456 0
M  V30 3258 O 315.013 -0.354619 -1.74942 0
M  V30 3259 C 312.113 -0.769305 -3.30053 0
M  V30 3260 C 311.286 -1.9222 -3.929 0
M  V30 3261 C 310.345 -1.50466 -5.04228 0
M  V30 3262 O 309.371 -2.21655 -5.24269 0
M  V30 3263 N 310.573 -0.400209 -5.79119 0
M  V30 3264 H 313.338 -2.13103 -2.1073 0
M  V30 3265 H 310.899 -1.24885 -1.0303 0
M  V30 3266 H 312.891 -0.472407 -4.01933 0
M  V30 3267 H 311.461 0.100025 -3.1244 0
M  V30 3268 H 310.681 -2.38563 -3.13817 0
M  V30 3269 H 311.969 -2.69403 -4.31624 0
M  V30 3270 H 311.367 0.192319 -5.65373 0
M  V30 3271 H 309.924 -0.162912 -6.51596 0
M  V30 3272 N 313.357 1.07166 -1.15556 0
M  V30 3273 C 314.603 1.80222 -0.942961 0
M  V30 3274 C 314.958 1.85121 0.524209 0
M  V30 3275 O 314.251 1.32531 1.38369 0
M  V30 3276 C 314.445 3.24707 -1.49332 0
M  V30 3277 C 314.274 3.33887 -3.01247 0
M  V30 3278 C 313.044 3.44337 -3.69811 0
M  V30 3279 C 315.242 3.24484 -3.99017 0
M  V30 3280 N 313.224 3.42439 -5.09518 0
M  V30 3281 C 314.595 3.29726 -5.25053 0
M  V30 3282 C 316.65 3.08307 -3.90962 0
M  V30 3283 C 315.353 3.20455 -6.43973 0
M  V30 3284 C 317.379 3.00371 -5.09442 0
M  V30 3285 C 316.741 3.06227 -6.34354 0
M  V30 3286 H 312.84 0.672709 -0.398731 0
M  V30 3287 H 315.424 1.27905 -1.46794 0
M  V30 3288 H 313.595 3.7544 -0.994946 0
M  V30 3289 H 315.327 3.85894 -1.21935 0
M  V30 3290 H 312.082 3.48762 -3.20409 0
M  V30 3291 H 312.506 3.45013 -5.8249 0
M  V30 3292 H 317.148 3.02633 -2.95251 0
M  V30 3293 H 314.866 3.24888 -7.39914 0
M  V30 3294 H 318.452 2.88955 -5.04971 0
M  V30 3295 H 317.332 3.00132 -7.24493 0
M  V30 3296 N 314.835 0.952656 1.25548 0
M  V30 3297 C 316.081 0.607272 1.93494 0
M  V30 3298 C 316.414 -0.853245 1.74452 0
M  V30 3299 O 315.689 -1.61194 1.08843 0
M  V30 3300 C 315.972 0.96435 3.46947 0
M  V30 3301 C 315.825 2.48045 3.75225 0
M  V30 3302 C 317.144 0.487987 4.37386 0
M  V30 3303 H 314.263 0.222096 0.702739 0
M  V30 3304 H 316.905 1.18895 1.48203 0
M  V30 3305 H 315.055 0.469361 3.85654 0
M  V30 3306 H 316.727 3.04905 3.46166 0
M  V30 3307 H 314.97 2.919 3.209 0
M  V30 3308 H 315.641 2.6808 4.82532 0
M  V30 3309 H 318.117 0.912558 4.0597 0
M  V30 3310 H 316.993 0.766547 5.43521 0
M  V30 3311 H 317.254 -0.612063 4.37843 0
M  V30 3312 N 316.313 -1.40141 0.720998 0
M  V30 3313 C 317.245 -2.29177 0.0324669 0
M  V30 3314 C 318.258 -1.46105 -0.718126 0
M  V30 3315 O 319.447 -1.69335 -0.564608 0
M  V30 3316 C 316.547 -3.24473 -0.978292 0
M  V30 3317 C 315.72 -4.36423 -0.292115 0
M  V30 3318 C 314.779 -5.12122 -1.20901 0
M  V30 3319 O 313.805 -5.64981 -0.691766 0
M  V30 3320 N 315.007 -5.21992 -2.53978 0
M  V30 3321 H 317.772 -2.88909 0.796984 0
M  V30 3322 H 315.333 -1.51569 0.569068 0
M  V30 3323 H 317.325 -3.71987 -1.59398 0
M  V30 3324 H 315.895 -2.65871 -1.64413 0
M  V30 3325 H 315.115 -3.90967 0.503847 0
M  V30 3326 H 316.403 -5.08467 0.183971 0
M  V30 3327 H 315.801 -4.8054 -2.98493 0
M  V30 3328 H 314.358 -5.72995 -3.10677 0
M  V30 3329 N 317.792 -0.46758 -1.50504 0
M  V30 3330 C 318.702 0.33382 -2.32213 0
M  V30 3331 C 319.718 0.999323 -1.42441 0
M  V30 3332 O 320.894 0.988068 -1.75497 0
M  V30 3333 C 317.959 1.4035 -3.17022 0
M  V30 3334 C 317.02 0.754961 -4.2261 0
M  V30 3335 C 316.253 1.77367 -5.03365 0
M  V30 3336 O 316.476 2.99976 -4.8515 0
M  V30 3337 O 315.41 1.34744 -5.86624 0
M  V30 3338 H 319.236 -0.334067 -3.01857 0
M  V30 3339 H 316.821 -0.229496 -1.47627 0
M  V30 3340 H 318.703 2.02318 -3.69656 0
M  V30 3341 H 317.378 2.05492 -2.5011 0
M  V30 3342 H 316.285 0.0964244 -3.73976 0
M  V30 3343 H 317.618 0.146545 -4.91982 0
M  V30 3344 N 319.27 1.56325 -0.20005 0
M  V30 3345 C 320.218 2.20666 0.735482 0
M  V30 3346 C 321.212 1.17934 1.21605 0
M  V30 3347 O 322.418 1.36068 1.17837 0
M  V30 3348 H 318.793 0.70725 0.255542 0
M  V30 3349 H 320.764 2.9792 0.169166 0
M  V30 3350 C 319.513 2.88391 1.94232 0
M  V30 3351 H 318.836 3.67185 1.58161 0
M  V30 3352 H 320.276 3.3684 2.57517 0
M  V30 3353 C 318.735 1.89692 2.78421 0
M  V30 3354 O 319.265 1.40032 3.76502 0
M  V30 3355 N 317.471 1.57813 2.44015 0
M  V30 3356 H 317.018 1.9839 1.64314 0
M  V30 3357 H 316.976 0.920325 3.00628 0
M  V30 3358 N 320.748 -0.0735177 1.57428 0
M  V30 3359 C 321.994 -0.774145 1.87443 0
M  V30 3360 C 322.327 -1.77311 0.792103 0
M  V30 3361 O 321.602 -1.93492 -0.197793 0
M  V30 3362 C 321.885 -1.48367 3.28115 0
M  V30 3363 C 321.738 -0.501227 4.46999 0
M  V30 3364 C 323.057 -2.429 3.66998 0
M  V30 3365 H 320.176 -0.279971 0.681752 0
M  V30 3366 H 322.818 -0.0373616 1.89963 0
M  V30 3367 H 320.968 -2.11171 3.26097 0
M  V30 3368 H 322.64 0.121468 4.6114 0
M  V30 3369 H 320.883 0.183593 4.33411 0
M  V30 3370 H 321.554 -1.03526 5.42205 0
M  V30 3371 H 324.03 -1.90175 3.70098 0
M  V30 3372 H 322.906 -2.89549 4.66318 0
M  V30 3373 H 323.167 -3.27628 2.96837 0
M  V30 3374 N 322.226 -1.5378 -0.344866 0
M  V30 3375 C 323.189 -1.80981 -1.40637 0
M  V30 3376 C 324.189 -0.680816 -1.45676 0
M  V30 3377 O 325.379 -0.949095 -1.46075 0
M  V30 3378 C 322.511 -1.95063 -2.79577 0
M  V30 3379 H 323.704 -2.75803 -1.17783 0
M  V30 3380 H 321.257 -1.45173 -0.579181 0
M  V30 3381 H 321.992 -1.02379 -3.07716 0
M  V30 3382 H 321.777 -2.77198 -2.77315 0
M  V30 3383 H 323.267 -2.17629 -3.56409 0
M  V30 3384 N 323.704 0.605807 -1.45491 0
M  V30 3385 C 324.667 1.69836 -1.5391 0
M  V30 3386 C 325.667 1.55261 -0.418424 0
M  V30 3387 O 326.857 1.60296 -0.681965 0
M  V30 3388 C 323.989 3.09117 -1.43734 0
M  V30 3389 H 325.182 1.63738 -2.51257 0
M  V30 3390 H 322.735 0.821689 -1.32959 0
M  V30 3391 H 323.47 3.20791 -0.475788 0
M  V30 3392 H 323.255 3.21104 -2.25021 0
M  V30 3393 H 324.745 3.88696 -1.52661 0
M  V30 3394 N 325.182 1.32811 0.848464 0
M  V30 3395 C 326.429 1.23724 1.60308 0
M  V30 3396 C 326.757 -0.1994 1.93475 0
M  V30 3397 O 326.012 -1.15406 1.5805 0
M  V30 3398 C 326.311 2.04831 2.92881 0
M  V30 3399 C 325.977 3.54125 2.79117 0
M  V30 3400 C 324.639 3.94829 2.7507 0
M  V30 3401 C 326.991 4.49036 2.64606 0
M  V30 3402 C 324.319 5.28675 2.544 0
M  V30 3403 C 326.671 5.83033 2.4547 0
M  V30 3404 C 325.335 6.22931 2.39819 0
M  V30 3405 H 324.605 0.452737 0.586609 0
M  V30 3406 H 327.252 1.64301 0.983743 0
M  V30 3407 H 325.557 1.57001 3.58968 0
M  V30 3408 H 327.254 1.95164 3.50303 0
M  V30 3409 H 323.844 3.21801 2.83094 0
M  V30 3410 H 328.028 4.18505 2.66772 0
M  V30 3411 H 323.284 5.58637 2.48465 0
M  V30 3412 H 327.458 6.56186 2.33222 0
M  V30 3413 H 325.085 7.26584 2.23562 0
M  V30 3414 N 326.66 -1.06551 1.16123 0
M  V30 3415 C 327.908 -1.78947 0.939267 0
M  V30 3416 C 328.229 -1.87532 -0.534476 0
M  V30 3417 O 327.499 -1.38211 -1.38833 0
M  V30 3418 H 326.079 -0.662807 0.344523 0
M  V30 3419 H 328.741 -1.28725 1.46342 0
M  V30 3420 H 327.837 -2.81117 1.35572 0
M  V30 3421 N 328.138 -0.959301 -1.25041 0
M  V30 3422 C 329.386 -0.615393 -1.92503 0
M  V30 3423 C 329.707 0.850969 -1.75452 0
M  V30 3424 O 328.977 1.60658 -1.12098 0
M  V30 3425 H 327.557 -0.224613 -0.712431 0
M  V30 3426 H 330.219 -1.21855 -1.5211 0
M  V30 3427 H 329.315 -0.848738 -3.00338 0
M  V30 3428 N 329.616 1.39756 -0.72842 0
M  V30 3429 C 330.893 1.94574 -0.200079 0
M  V30 3430 C 331.273 1.66569 1.29684 0
M  V30 3431 O 330.621 0.990326 2.05924 0
M  V30 3432 C 330.831 3.45004 -0.526608 0
M  V30 3433 C 332.179 4.21965 -0.472318 0
M  V30 3434 O 333.203 3.53173 -0.463413 0
M  V30 3435 O 332.062 5.44552 -0.461075 0
M  V30 3436 H 329.156 0.826289 -0.0342851 0
M  V30 3437 H 331.702 1.49293 -0.806829 0
M  V30 3438 H 330.474 3.58796 -1.56144 0
M  V30 3439 H 330.097 3.97449 0.109449 0
M  V30 3440 N 331.094 0.475555 1.50254 0
M  V30 3441 C 332.505 0.0215174 1.86688 0
M  V30 3442 C 332.856 -1.38467 1.39001 0
M  V30 3443 O 331.981 -2.02732 0.756894 0
M  V30 3444 C 332.576 0.0322715 3.38785 0
M  V30 3445 C 331.135 -0.366314 3.74613 0
M  V30 3446 C 330.282 0.415832 2.74164 0
M  V30 3447 H 333.233 0.689612 1.42934 0
M  V30 3448 H 333.254 -0.76889 3.7265 0
M  V30 3449 H 332.766 1.05584 3.73462 0
M  V30 3450 H 330.867 -1.39406 3.45538 0
M  V30 3451 H 330.98 -0.064555 4.79057 0
M  V30 3452 H 329.344 -0.131048 2.54363 0
M  V30 3453 H 330.127 1.43899 3.11686 0
M  V30 3454 N 332.573 -1.56217 0.208337 0
M  V30 3455 C 333.801 -2.02337 -0.43215 0
M  V30 3456 C 334.216 -1.08834 -1.54275 0
M  V30 3457 O 333.573 -0.0955462 -1.8225 0
M  V30 3458 C 333.624 -3.48072 -0.976138 0
M  V30 3459 O 333.345 -4.38007 0.0901621 0
M  V30 3460 C 334.846 -4.09773 -1.69119 0
M  V30 3461 H 332.066 -0.662385 -0.10718 0
M  V30 3462 H 334.61 -2.01966 0.320923 0
M  V30 3463 H 332.765 -3.49099 -1.67954 0
M  V30 3464 H 333.179 -5.23543 -0.316701 0
M  V30 3465 H 334.653 -5.13556 -2.02397 0
M  V30 3466 H 335.13 -3.53999 -2.59964 0
M  V30 3467 H 335.736 -4.12556 -1.03332 0
M  V30 3468 N 334.051 0.0651679 -1.57465 0
M  V30 3469 C 335.276 0.779605 -1.9219 0
M  V30 3470 C 335.701 1.69988 -0.805333 0
M  V30 3471 O 335.059 1.79685 0.241435 0
M  V30 3472 C 335.107 1.54364 -3.2589 0
M  V30 3473 O 334.211 2.65474 -3.1559 0
M  V30 3474 H 333.552 0.212249 -0.629163 0
M  V30 3475 H 336.082 0.0314294 -2.04576 0
M  V30 3476 H 336.092 1.92146 -3.59922 0
M  V30 3477 H 334.767 0.868457 -4.06732 0
M  V30 3478 H 333.344 2.30501 -2.93128 0
M  V30 3479 N 335.529 1.53961 0.336706 0
M  V30 3480 C 336.775 1.7179 1.07777 0
M  V30 3481 C 337.108 0.483263 1.88091 0
M  V30 3482 O 336.383 -0.519747 1.87427 0
M  V30 3483 C 336.666 2.98558 2.01334 0
M  V30 3484 C 336.519 4.32245 1.24437 0
M  V30 3485 C 337.838 3.21023 3.01052 0
M  V30 3486 H 334.957 0.625089 0.390426 0
M  V30 3487 H 337.599 1.86641 0.35567 0
M  V30 3488 H 335.749 2.86028 2.62908 0
M  V30 3489 H 337.421 4.56637 0.654243 0
M  V30 3490 H 335.664 4.30344 0.546458 0
M  V30 3491 H 336.335 5.17137 1.93063 0
M  V30 3492 H 338.811 3.32929 2.49595 0
M  V30 3493 H 337.687 4.11104 3.6371 0
M  V30 3494 H 337.948 2.37637 3.72802 0
M  V30 3495 N 337.007 -0.598083 1.45811 0
M  V30 3496 C 338.235 -1.38322 1.53866 0
M  V30 3497 C 338.65 -1.87992 0.174479 0
M  V30 3498 O 338.007 -1.62756 -0.825627 0
M  V30 3499 C 338.058 -2.58125 2.53089 0
M  V30 3500 O 337.779 -2.10516 3.84206 0
M  V30 3501 C 339.28 -3.50869 2.70935 0
M  V30 3502 H 336.5 -0.423093 0.520801 0
M  V30 3503 H 339.044 -0.728527 1.91083 0
M  V30 3504 H 337.199 -3.19615 2.18917 0
M  V30 3505 H 337.613 -2.88425 4.38077 0
M  V30 3506 H 339.087 -4.31451 3.44317 0
M  V30 3507 H 339.564 -4.01822 1.77301 0
M  V30 3508 H 340.17 -2.95225 3.06141 0
M  V30 3509 N 338.485 -1.33259 -0.841409 0
M  V30 3510 C 339.415 -1.25926 -1.96634 0
M  V30 3511 C 340.396 -0.140349 -1.6952 0
M  V30 3512 O 341.581 -0.329707 -1.91381 0
M  V30 3513 C 338.711 -0.99512 -3.32738 0
M  V30 3514 C 337.665 -2.0767 -3.74242 0
M  V30 3515 C 336.991 -1.66474 -5.08125 0
M  V30 3516 C 338.291 -3.49318 -3.88297 0
M  V30 3517 H 339.985 -2.20046 -2.03027 0
M  V30 3518 H 337.531 -1.05931 -0.975425 0
M  V30 3519 H 339.484 -0.930323 -4.11002 0
M  V30 3520 H 338.208 -0.0183004 -3.26595 0
M  V30 3521 H 336.867 -2.13187 -2.98239 0
M  V30 3522 H 336.515 -0.675012 -4.9845 0
M  V30 3523 H 336.215 -2.3885 -5.36865 0
M  V30 3524 H 337.739 -1.61455 -5.88867 0
M  V30 3525 H 339.153 -3.46316 -4.56879 0
M  V30 3526 H 337.55 -4.20158 -4.28471 0
M  V30 3527 H 338.62 -3.8801 -2.9082 0
M  V30 3528 N 339.963 1.05934 -1.16686 0
M  V30 3529 C 341.21 1.788 -0.950622 0
M  V30 3530 C 341.538 1.87384 0.521305 0
M  V30 3531 O 340.793 1.36438 1.40297 0
M  V30 3532 C 341.092 3.23105 -1.52767 0
M  V30 3533 C 340.758 3.34594 -3.02254 0
M  V30 3534 C 339.42 3.37437 -3.43059 0
M  V30 3535 C 341.772 3.36219 -3.98254 0
M  V30 3536 C 339.1 3.39525 -4.78477 0
M  V30 3537 C 341.452 3.39845 -5.33562 0
M  V30 3538 C 340.116 3.40971 -5.73842 0
M  V30 3539 H 339.386 0.654275 -0.347857 0
M  V30 3540 H 342.033 1.24555 -1.45459 0
M  V30 3541 H 340.338 3.80227 -0.94524 0
M  V30 3542 H 342.035 3.7809 -1.336 0
M  V30 3543 H 338.625 3.3309 -2.6972 0
M  V30 3544 H 342.809 3.33231 -3.67792 0
M  V30 3545 H 338.065 3.38703 -5.09009 0
M  V30 3546 H 342.239 3.4005 -6.07733 0
M  V30 3547 H 339.866 3.42342 -6.78753 0
M  V30 3548 N 341.441 0.965919 1.2453 0
M  V30 3549 C 342.689 0.625593 1.92174 0
M  V30 3550 C 343.01 -0.841652 1.75901 0
M  V30 3551 O 342.28 -1.60061 1.12948 0
M  V30 3552 H 340.86 0.228388 0.71123 0
M  V30 3553 H 343.522 1.2266 1.51461 0
M  V30 3554 H 342.618 0.864653 2.99884 0
M  V30 3555 N 342.919 -1.39368 0.735821 0
M  V30 3556 C 343.829 -2.34395 0.0979693 0
M  V30 3557 C 344.845 -1.58361 -0.720968 0
M  V30 3558 O 346.021 -1.90648 -0.649245 0
M  V30 3559 C 343.086 -3.37393 -0.797916 0
M  V30 3560 C 342.147 -4.29287 0.0333662 0
M  V30 3561 C 341.38 -5.27365 -0.819854 0
M  V30 3562 O 341.603 -5.31959 -2.05855 0
M  V30 3563 O 340.537 -6.01389 -0.248079 0
M  V30 3564 H 344.363 -2.90601 0.882315 0
M  V30 3565 H 341.948 -1.40909 0.4965 0
M  V30 3566 H 343.83 -4.00505 -1.31048 0
M  V30 3567 H 342.505 -2.83571 -1.56106 0
M  V30 3568 H 341.412 -3.69395 0.591475 0
M  V30 3569 H 342.745 -4.86317 0.758752 0
M  V30 3570 N 344.397 -0.483516 -1.5 0
M  V30 3571 C 345.622 0.0667119 -2.07293 0
M  V30 3572 C 346.047 1.3164 -1.3436 0
M  V30 3573 O 345.405 1.76945 -0.394987 0
M  V30 3574 C 345.453 0.321126 -3.59167 0
M  V30 3575 O 344.557 1.39927 -3.87936 0
M  V30 3576 H 343.898 -0.0184758 -0.663743 0
M  V30 3577 H 346.428 -0.678125 -1.93035 0
M  V30 3578 H 346.438 0.557906 -4.04168 0
M  V30 3579 H 345.113 -0.592007 -4.11665 0
M  V30 3580 H 343.69 1.14882 -3.54763 0
M  V30 3581 N 345.875 1.56104 -0.216619 0
M  V30 3582 C 346.838 2.18819 0.681962 0
M  V30 3583 C 347.838 1.14866 1.12528 0
M  V30 3584 O 349.028 1.40128 1.03488 0
M  V30 3585 C 346.16 2.80756 1.93362 0
M  V30 3586 H 347.353 2.99595 0.135254 0
M  V30 3587 H 344.906 1.56265 0.0330003 0
M  V30 3588 H 345.641 2.03837 2.52232 0
M  V30 3589 H 345.426 3.56876 1.62426 0
M  V30 3590 H 346.916 3.28844 2.57393 0
M  V30 3591 N 347.353 -0.0568162 1.57498 0
M  V30 3592 C 348.601 -0.751617 1.87604 0
M  V30 3593 C 348.922 -1.77351 0.81066 0
M  V30 3594 O 348.192 -1.95254 -0.159018 0
M  V30 3595 H 346.772 -0.280583 0.692302 0
M  V30 3596 H 349.434 -0.0293483 1.94878 0
M  V30 3597 H 348.53 -1.25852 2.856 0
M  V30 3598 N 348.832 -1.54138 -0.328536 0
M  V30 3599 C 349.795 -1.82462 -1.38709 0
M  V30 3600 C 350.795 -0.696229 -1.44946 0
M  V30 3601 O 351.985 -0.964535 -1.4506 0
M  V30 3602 C 349.117 -1.98018 -2.77492 0
M  V30 3603 H 350.31 -2.77037 -1.14851 0
M  V30 3604 H 347.863 -1.45779 -0.563751 0
M  V30 3605 H 348.598 -1.05637 -3.06613 0
M  V30 3606 H 348.383 -2.80124 -2.74359 0
M  V30 3607 H 349.873 -2.21396 -3.54081 0
M  V30 3608 N 350.31 0.590341 -1.46126 0
M  V30 3609 C 351.273 1.68194 -1.55703 0
M  V30 3610 C 352.273 1.54808 -0.434868 0
M  V30 3611 O 353.463 1.59564 -0.698928 0
M  V30 3612 C 350.595 3.07575 -1.47005 0
M  V30 3613 H 351.788 1.61064 -2.52979 0
M  V30 3614 H 349.341 0.807541 -1.33823 0
M  V30 3615 H 350.076 3.20268 -0.509785 0
M  V30 3616 H 349.861 3.187 -2.28414 0
M  V30 3617 H 351.351 3.87055 -1.56776 0
M  V30 3618 N 351.788 1.33704 0.83433 0
M  V30 3619 C 353.013 1.28615 1.62705 0
M  V30 3620 C 353.438 -0.139242 1.87584 0
M  V30 3621 O 352.796 -1.09734 1.4432 0
M  V30 3622 C 352.844 2.07139 2.95171 0
M  V30 3623 O 351.948 1.4331 3.86699 0
M  V30 3624 H 351.289 0.44226 0.49528 0
M  V30 3625 H 353.819 1.76335 1.03766 0
M  V30 3626 H 353.829 2.18073 3.44831 0
M  V30 3627 H 352.504 3.10779 2.76386 0
M  V30 3628 H 351.081 1.4105 3.45195 0
M  V30 3629 N 353.266 -1.05314 1.17247 0
M  V30 3630 C 354.512 -1.78557 0.961513 0
M  V30 3631 C 354.845 -1.87419 -0.508697 0
M  V30 3632 O 354.12 -1.37307 -1.37757 0
M  V30 3633 C 354.403 -3.22514 1.60176 0
M  V30 3634 C 354.256 -3.21673 3.14399 0
M  V30 3635 C 355.575 -4.20318 1.30463 0
M  V30 3636 H 352.694 -0.6482 0.350723 0
M  V30 3637 H 355.336 -1.23102 1.44727 0
M  V30 3638 H 353.486 -3.69867 1.18871 0
M  V30 3639 H 355.158 -2.82405 3.64753 0
M  V30 3640 H 353.401 -2.60048 3.47214 0
M  V30 3641 H 354.072 -4.23271 3.54324 0
M  V30 3642 H 356.548 -3.81454 1.66229 0
M  V30 3643 H 355.424 -5.19289 1.77848 0
M  V30 3644 H 355.685 -4.41526 0.22521 0
M  V30 3645 N 354.744 -0.972509 -1.24016 0
M  V30 3646 C 355.992 -0.635776 -1.91839 0
M  V30 3647 C 356.313 0.832312 -1.76345 0
M  V30 3648 O 355.583 1.5946 -1.13795 0
M  V30 3649 H 354.163 -0.232157 -0.710009 0
M  V30 3650 H 356.825 -1.23462 -1.50809 0
M  V30 3651 H 355.921 -0.880545 -2.99421 0
M  V30 3652 N 356.222 1.38976 -0.743202 0
M  V30 3653 C 357.155 2.28128 -0.0572165 0
M  V30 3654 C 358.133 1.44827 0.739182 0
M  V30 3655 O 359.317 1.74207 0.720009 0
M  V30 3656 C 356.444 3.25796 0.926001 0
M  V30 3657 C 355.49 4.25947 0.217099 0
M  V30 3658 S 356.323 5.24604 -1.07477 0
M  V30 3659 C 357.479 6.25829 -0.0943545 0
M  V30 3660 H 357.712 2.85961 -0.813246 0
M  V30 3661 H 355.245 1.44822 -0.535341 0
M  V30 3662 H 357.203 3.82583 1.48797 0
M  V30 3663 H 355.864 2.66966 1.65493 0
M  V30 3664 H 355.057 4.94746 0.961372 0
M  V30 3665 H 354.659 3.73002 -0.273059 0
M  V30 3666 H 356.951 6.73411 0.743239 0
M  V30 3667 H 357.894 7.0412 -0.749713 0
M  V30 3668 H 358.302 5.63797 0.281706 0
M  V30 3669 N 357.7 0.491464 1.49741 0
M  V30 3670 C 358.65 -0.311086 2.25868 0
M  V30 3671 C 359.634 -0.943857 1.30308 0
M  V30 3672 O 360.826 -0.853035 1.55088 0
M  V30 3673 C 357.955 -1.38059 3.14316 0
M  V30 3674 C 357.041 -0.754541 4.17334 0
M  V30 3675 N 357.432 0.137216 5.05614 0
M  V30 3676 C 355.73 -1.01621 4.34269 0
M  V30 3677 C 356.431 0.494614 5.79593 0
M  V30 3678 N 355.407 -0.135169 5.43432 0
M  V30 3679 H 359.209 0.37555 2.91491 0
M  V30 3680 H 356.723 0.306917 1.59473 0
M  V30 3681 H 358.72 -1.96891 3.67477 0
M  V30 3682 H 357.38 -2.06901 2.50244 0
M  V30 3683 H 358.391 0.50741 5.15408 0
M  V30 3684 H 355.068 -1.69808 3.81407 0
M  V30 3685 H 356.458 1.2236 6.60665 0
M  V30 3686 N 359.178 -1.55987 0.224894 0
M  V30 3687 C 360.108 -2.23426 -0.678457 0
M  V30 3688 C 361.089 -1.20709 -1.19847 0
M  V30 3689 O 362.274 -1.49304 -1.24186 0
M  V30 3690 C 359.404 -2.91676 -1.88527 0
M  V30 3691 C 358.358 -4.00893 -1.49896 0
M  V30 3692 C 357.684 -4.56455 -2.78483 0
M  V30 3693 C 358.984 -5.17769 -0.686461 0
M  V30 3694 H 360.678 -2.99175 -0.116173 0
M  V30 3695 H 358.224 -1.43897 -0.054436 0
M  V30 3696 H 360.177 -3.37547 -2.5227 0
M  V30 3697 H 358.901 -2.1338 -2.47258 0
M  V30 3698 H 357.56 -3.55758 -0.884985 0
M  V30 3699 H 357.208 -3.74886 -3.35365 0
M  V30 3700 H 356.908 -5.30169 -2.53368 0
M  V30 3701 H 358.432 -5.05047 -3.43162 0
M  V30 3702 H 359.846 -5.60001 -1.22767 0
M  V30 3703 H 358.243 -5.97735 -0.532259 0
M  V30 3704 H 359.313 -4.83932 0.306196 0
M  V30 3705 N 360.656 0.0484629 -1.57525 0
M  V30 3706 C 361.586 1.0549 -2.08313 0
M  V30 3707 C 362.567 1.38929 -0.981463 0
M  V30 3708 O 363.752 1.48151 -1.25558 0
M  V30 3709 C 360.882 2.36162 -2.54646 0
M  V30 3710 C 359.836 2.17016 -3.68901 0
M  V30 3711 C 359.162 3.53278 -4.01371 0
M  V30 3712 C 360.462 1.57219 -4.98076 0
M  V30 3713 H 362.156 0.632195 -2.92649 0
M  V30 3714 H 359.702 0.302654 -1.40784 0
M  V30 3715 H 361.655 3.06882 -2.88793 0
M  V30 3716 H 360.379 2.80456 -1.67368 0
M  V30 3717 H 359.038 1.48733 -3.35073 0
M  V30 3718 H 358.686 3.95185 -3.11188 0
M  V30 3719 H 358.386 3.41299 -4.78318 0
M  V30 3720 H 359.91 4.25391 -4.38035 0
M  V30 3721 H 361.324 2.17832 -5.30304 0
M  V30 3722 H 359.721 1.55871 -5.79503 0
M  V30 3723 H 360.791 0.535956 -4.81929 0
M  V30 3724 N 362.134 1.5431 0.320358 0
M  V30 3725 C 363.359 1.76954 1.08175 0
M  V30 3726 C 363.784 0.518193 1.80821 0
M  V30 3727 O 363.142 -0.530411 1.73368 0
M  V30 3728 C 363.19 2.96451 2.05303 0
M  V30 3729 O 362.294 2.68221 3.13259 0
M  V30 3730 H 361.635 0.586275 0.311733 0
M  V30 3731 H 364.165 2.01342 0.363676 0
M  V30 3732 H 364.175 3.23887 2.48116 0
M  V30 3733 H 362.85 3.87196 1.51829 0
M  V30 3734 H 361.427 2.51744 2.75099 0
M  V30 3735 N 363.613 -0.582584 1.46437 0
M  V30 3736 C 365.024 -1.1647 1.45916 0
M  V30 3737 C 365.375 -1.95177 0.200077 0
M  V30 3738 O 364.5 -2.04874 -0.696819 0
M  V30 3739 C 365.095 -2.11885 2.64367 0
M  V30 3740 C 363.654 -2.65421 2.66887 0
M  V30 3741 C 362.801 -1.41294 2.38603 0
M  V30 3742 H 365.752 -0.370514 1.54314 0
M  V30 3743 H 365.773 -2.9535 2.39892 0
M  V30 3744 H 365.285 -1.54573 3.5599 0
M  V30 3745 H 363.386 -3.26602 1.79338 0
M  V30 3746 H 363.499 -3.08147 3.66854 0
M  V30 3747 H 361.863 -1.71109 1.88663 0
M  V30 3748 H 362.646 -0.858125 3.32402 0
M  V30 3749 N 365.091 -1.34144 -0.827227 0
M  V30 3750 C 366.502 -1.23557 -1.39966 0
M  V30 3751 C 366.853 0.140731 -1.95695 0
M  V30 3752 O 365.978 1.04087 -1.89723 0
M  V30 3753 C 366.573 -2.23708 -2.54441 0
M  V30 3754 C 365.132 -2.16924 -3.07605 0
M  V30 3755 C 364.279 -2.10549 -1.80456 0
M  V30 3756 H 367.23 -1.45573 -0.631991 0
M  V30 3757 H 367.251 -1.85157 -3.32411 0
M  V30 3758 H 366.763 -3.23866 -2.13851 0
M  V30 3759 H 364.864 -1.20107 -3.52711 0
M  V30 3760 H 364.977 -3.07988 -3.66988 0
M  V30 3761 H 363.341 -1.56203 -2.01178 0
M  V30 3762 H 364.124 -3.12535 -1.42046 0
M  V30 3763 N 366.569 1.04691 -1.17803 0
M  V30 3764 C 367.794 1.81984 -0.994813 0
M  V30 3765 C 368.219 1.82586 0.452112 0
M  V30 3766 O 367.577 1.23854 1.324 0
M  V30 3767 C 367.625 3.2575 -1.54659 0
M  V30 3768 O 366.729 4.05267 -0.763728 0
M  V30 3769 H 366.07 0.562483 -0.352857 0
M  V30 3770 H 368.6 1.3189 -1.56417 0
M  V30 3771 H 368.61 3.76541 -1.57102 0
M  V30 3772 H 367.285 3.24627 -2.59981 0
M  V30 3773 H 365.862 3.63972 -0.811108 0
M  V30 3774 N 368.047 0.979072 1.23499 0
M  V30 3775 C 369.463 0.687475 1.44034 0
M  V30 3776 C 369.663 -0.746801 1.8715 0
M  V30 3777 O 368.719 -1.51939 2.0167 0
M  V30 3778 C 370.032 1.68127 2.49307 0
M  V30 3779 C 371.58 1.69516 2.63122 0
M  V30 3780 C 372.055 2.67723 3.71603 0
M  V30 3781 N 373.546 2.66233 3.79044 0
M  V30 3782 C 374.281 3.38891 4.62537 0
M  V30 3783 N 373.777 4.21103 5.50131 0
M  V30 3784 N 375.57 3.27661 4.56721 0
M  V30 3785 H 367.721 1.90559 0.938135 0
M  V30 3786 H 369.984 0.821051 0.473897 0
M  V30 3787 H 369.69 2.70693 2.2454 0
M  V30 3788 H 369.564 1.46306 3.4767 0
M  V30 3789 H 371.951 0.676561 2.8724 0
M  V30 3790 H 372.032 1.95404 1.65079 0
M  V30 3791 H 371.676 3.69724 3.48233 0
M  V30 3792 H 371.606 2.39111 4.69184 0
M  V30 3793 H 374.097 2.06568 3.16446 0
M  V30 3794 H 374.41 4.73403 6.10827 0
M  V30 3795 H 372.755 4.25195 5.49759 0
M  V30 3796 H 375.946 2.62887 3.87309 0
M  V30 3797 H 376.119 3.84547 5.21562 0
M  V30 3798 N 369.525 -1.3858 0.750561 0
M  V30 3799 C 370.773 -1.99789 0.30477 0
M  V30 3800 C 371.094 -1.59874 -1.11649 0
M  V30 3801 O 370.364 -0.85417 -1.76297 0
M  V30 3802 H 368.944 -0.738902 0.109694 0
M  V30 3803 H 371.606 -1.69391 0.963983 0
M  V30 3804 H 370.702 -3.09952 0.365499 0
M  V30 3805 N 371.003 -0.499398 -1.49478 0
M  V30 3806 C 371.933 0.269244 -2.31943 0
M  V30 3807 C 372.914 0.964054 -1.40143 0
M  V30 3808 O 374.099 0.955767 -1.69052 0
M  V30 3809 C 371.229 1.33504 -3.20615 0
M  V30 3810 C 370.183 0.760202 -4.21195 0
M  V30 3811 C 369.509 1.9264 -4.98792 0
M  V30 3812 C 370.809 -0.247661 -5.21712 0
M  V30 3813 H 372.503 -0.419082 -2.96452 0
M  V30 3814 H 370.049 -0.202988 -1.42562 0
M  V30 3815 H 372.002 1.88048 -3.77115 0
M  V30 3816 H 370.726 2.05253 -2.54045 0
M  V30 3817 H 369.385 0.23653 -3.65836 0
M  V30 3818 H 369.033 2.63154 -4.28671 0
M  V30 3819 H 368.733 1.54785 -5.66847 0
M  V30 3820 H 370.257 2.4762 -5.58137 0
M  V30 3821 H 371.671 0.209579 -5.72917 0
M  V30 3822 H 370.068 -0.541962 -5.97648 0
M  V30 3823 H 371.138 -1.16409 -4.7072 0
M  V30 3824 N 372.481 1.55866 -0.233164 0
M  V30 3825 C 373.728 1.98603 0.395374 0
M  V30 3826 C 374.056 1.12105 1.58942 0
M  V30 3827 O 373.311 0.168656 1.94972 0
M  V30 3828 C 373.61 3.46856 0.861724 0
M  V30 3829 C 373.276 4.50348 -0.223066 0
M  V30 3830 C 371.938 4.78371 -0.521038 0
M  V30 3831 C 374.29 5.12355 -0.956124 0
M  V30 3832 C 371.618 5.6568 -1.55638 0
M  V30 3833 C 373.97 6.00786 -1.98089 0
M  V30 3834 C 372.634 6.27148 -2.28565 0
M  V30 3835 H 371.904 0.726739 0.144677 0
M  V30 3836 H 374.551 1.88491 -0.338114 0
M  V30 3837 H 372.856 3.5423 1.67418 0
M  V30 3838 H 374.553 3.77302 1.35809 0
M  V30 3839 H 371.143 4.28596 0.0193234 0
M  V30 3840 H 375.327 4.90765 -0.739166 0
M  V30 3841 H 370.583 5.84365 -1.798 0
M  V30 3842 H 374.757 6.4788 -2.55391 0
M  V30 3843 H 372.384 6.94597 -3.08932 0
M  V30 3844 N 373.959 -0.0401083 1.57549 0
M  V30 3845 C 374.909 -1.05175 2.02292 0
M  V30 3846 C 375.893 -1.32674 0.910294 0
M  V30 3847 O 377.085 -1.32444 1.17421 0
M  V30 3848 C 374.214 -2.35622 2.49674 0
M  V30 3849 C 373.3 -2.11261 3.67736 0
M  V30 3850 N 373.691 -1.56923 4.80842 0
M  V30 3851 C 371.989 -2.41596 3.74897 0
M  V30 3852 C 372.69 -1.48111 5.62528 0
M  V30 3853 N 371.666 -1.95282 5.07312 0
M  V30 3854 H 375.468 -0.625455 2.87168 0
M  V30 3855 H 372.982 -0.246624 1.60516 0
M  V30 3856 H 374.979 -3.08893 2.79983 0
M  V30 3857 H 373.639 -2.7894 1.662 0
M  V30 3858 H 374.65 -1.25345 5.02503 0
M  V30 3859 H 371.327 -2.88064 3.02201 0
M  V30 3860 H 372.717 -1.06683 6.63377 0
M  V30 3861 N 375.437 -1.54477 -0.31217 0
M  V30 3862 C 376.853 -1.45442 -0.657185 0
M  V30 3863 C 377.053 -0.63653 -1.91182 0
M  V30 3864 O 376.109 -0.139815 -2.52113 0
M  V30 3865 C 377.422 -2.89287 -0.82058 0
M  V30 3866 C 378.97 -2.9926 -0.917188 0
M  V30 3867 C 379.445 -4.44279 -1.11267 0
M  V30 3868 N 380.936 -4.4794 -1.17914 0
M  V30 3869 C 381.671 -5.57318 -1.34848 0
M  V30 3870 N 381.167 -6.76642 -1.48752 0
M  V30 3871 N 382.96 -5.44986 -1.37647 0
M  V30 3872 H 375.111 -2.06129 0.512313 0
M  V30 3873 H 377.374 -0.933088 0.167485 0
M  V30 3874 H 377.08 -3.51687 0.0302604 0
M  V30 3875 H 376.954 -3.36061 -1.71298 0
M  V30 3876 H 379.341 -2.36981 -1.75852 0
M  V30 3877 H 379.422 -2.558 -0.00101257 0
M  V30 3878 H 379.066 -5.07149 -0.27614 0
M  V30 3879 H 378.996 -4.85359 -2.04289 0
M  V30 3880 H 381.487 -3.61969 -1.08567 0
M  V30 3881 H 381.8 -7.55758 -1.61397 0
M  V30 3882 H 380.145 -6.79529 -1.45828 0
M  V30 3883 H 383.336 -4.50715 -1.26388 0
M  V30 3884 H 383.509 -6.3028 -1.50501 0
M  V30 3885 N 376.915 0.57481 -1.46744 0
M  V30 3886 C 377.878 1.66533 -1.57478 0
M  V30 3887 C 378.878 1.54338 -0.451263 0
M  V30 3888 O 380.068 1.58814 -0.715813 0
M  V30 3889 C 377.2 3.05999 -1.50259 0
M  V30 3890 H 378.393 1.58372 -2.54673 0
M  V30 3891 H 375.946 0.793301 -1.34672 0
M  V30 3892 H 376.681 3.19709 -0.543725 0
M  V30 3893 H 376.466 3.16259 -2.31781 0
M  V30 3894 H 377.956 3.8537 -1.60872 0
M  V30 3895 N 378.394 1.34581 0.820102 0
M  V30 3896 C 379.64 1.27285 1.57881 0
M  V30 3897 C 379.973 -0.156137 1.93571 0
M  V30 3898 O 379.248 -1.10222 1.60254 0
M  V30 3899 C 379.531 2.16639 2.87645 0
M  V30 3900 C 379.384 3.68088 2.58517 0
M  V30 3901 C 380.703 2.05378 3.8924 0
M  V30 3902 H 377.822 0.463714 0.572833 0
M  V30 3903 H 380.464 1.64859 0.944539 0
M  V30 3904 H 378.614 1.84725 3.41773 0
M  V30 3905 H 380.286 4.10382 2.10676 0
M  V30 3906 H 378.529 3.89038 1.91917 0
M  V30 3907 H 379.2 4.2598 3.51063 0
M  V30 3908 H 381.676 2.33404 3.44473 0
M  V30 3909 H 380.552 2.7012 4.77835 0
M  V30 3910 H 380.813 1.0316 4.29896 0
M  V30 3911 N 379.872 -1.04064 1.18357 0
M  V30 3912 C 380.802 -2.14001 0.934113 0
M  V30 3913 C 381.783 -1.69616 -0.128186 0
M  V30 3914 O 382.968 -1.94185 0.0244093 0
M  V30 3915 C 380.098 -3.44253 0.459066 0
M  V30 3916 C 379.052 -4.02261 1.46185 0
M  V30 3917 C 378.378 -5.27992 0.844322 0
M  V30 3918 C 379.678 -4.38432 2.83856 0
M  V30 3919 H 381.372 -2.35127 1.85352 0
M  V30 3920 H 378.918 -1.12998 0.892604 0
M  V30 3921 H 380.871 -4.20522 0.271907 0
M  V30 3922 H 379.595 -3.22813 -0.495912 0
M  V30 3923 H 378.254 -3.28074 1.63595 0
M  V30 3924 H 377.902 -5.02862 -0.117845 0
M  V30 3925 H 377.602 -5.67765 1.51384 0
M  V30 3926 H 379.126 -6.06938 0.667693 0
M  V30 3927 H 380.54 -5.05688 2.70098 0
M  V30 3928 H 378.937 -4.89254 3.47491 0
M  V30 3929 H 380.007 -3.4826 3.37406 0
M  V30 3930 N 381.35 -0.985608 -1.22978 0
M  V30 3931 C 382.282 -0.488154 -2.23941 0
M  V30 3932 C 383.295 0.41282 -1.57479 0
M  V30 3933 O 384.484 0.216121 -1.77187 0
M  V30 3934 C 381.584 0.312611 -3.37455 0
M  V30 3935 C 380.757 -0.582741 -4.33501 0
M  V30 3936 C 379.816 0.165064 -5.25941 0
M  V30 3937 O 378.842 -0.447077 -5.67442 0
M  V30 3938 N 380.044 1.44953 -5.62111 0
M  V30 3939 H 382.809 -1.3563 -2.67254 0
M  V30 3940 H 380.37 -0.859477 -1.37203 0
M  V30 3941 H 382.362 0.821357 -3.96277 0
M  V30 3942 H 380.932 1.0818 -2.93285 0
M  V30 3943 H 380.152 -1.27225 -3.73105 0
M  V30 3944 H 381.44 -1.19275 -4.94622 0
M  V30 3945 H 380.838 1.9683 -5.30353 0
M  V30 3946 H 379.395 1.90361 -6.23383 0
M  V30 3947 N 382.828 1.3818 -0.7579 0
M  V30 3948 C 384.053 2.04827 -0.325679 0
M  V30 3949 C 384.478 1.56788 1.03919 0
M  V30 3950 O 383.836 0.721811 1.66312 0
M  V30 3951 C 383.884 3.58774 -0.362447 0
M  V30 3952 O 382.988 4.07372 0.642033 0
M  V30 3953 H 382.329 0.64833 -0.143402 0
M  V30 3954 H 384.859 1.7677 -1.03023 0
M  V30 3955 H 384.869 4.07434 -0.214844 0
M  V30 3956 H 383.544 3.93096 -1.35824 0
M  V30 3957 H 382.121 3.70068 0.458688 0
M  V30 3958 N 384.306 0.507319 1.49211 0
M  V30 3959 C 385.554 -0.0348839 2.0207 0
M  V30 3960 C 385.875 -1.36898 1.38866 0
M  V30 3961 O 385.145 -1.88133 0.546151 0
M  V30 3962 H 383.725 -0.0158812 0.746831 0
M  V30 3963 H 386.387 0.665998 1.83168 0
M  V30 3964 H 385.483 -0.159917 3.1169 0
M  V30 3965 N 385.784 -1.5574 0.241426 0
M  V30 3966 C 386.747 -2.19877 -0.647063 0
M  V30 3967 C 387.747 -1.16642 -1.10686 0
M  V30 3968 O 388.937 -1.41757 -1.01245 0
M  V30 3969 C 386.069 -2.83797 -1.88871 0
M  V30 3970 H 387.262 -2.99772 -0.087574 0
M  V30 3971 H 384.815 -1.56298 -0.00813574 0
M  V30 3972 H 385.55 -2.07824 -2.48957 0
M  V30 3973 H 385.335 -3.59414 -1.56728 0
M  V30 3974 H 386.825 -3.32898 -2.52129 0
M  V30 3975 N 387.262 0.0317525 -1.57568 0
M  V30 3976 C 388.673 0.578692 -1.77505 0
M  V30 3977 C 389.024 1.75749 -0.872164 0
M  V30 3978 O 388.149 2.16298 -0.0663106 0
M  V30 3979 C 388.744 1.05658 -3.21904 0
M  V30 3980 C 387.303 1.54906 -3.43047 0
M  V30 3981 C 386.45 0.485939 -2.73009 0
M  V30 3982 H 389.401 -0.194475 -1.57504 0
M  V30 3983 H 389.422 1.92404 -3.28269 0
M  V30 3984 H 388.934 0.198422 -3.87592 0
M  V30 3985 H 387.035 2.42915 -2.82529 0
M  V30 3986 H 387.148 1.59841 -4.5165 0
M  V30 3987 H 385.512 0.940354 -2.36705 0
M  V30 3988 H 386.295 -0.362709 -3.41379 0
M  V30 3989 N 388.74 1.54641 0.303973 0
M  V30 3990 C 389.688 1.86137 1.39484 0
M  V30 3991 C 390.682 0.734854 1.52631 0
M  V30 3992 O 391.888 0.918803 1.54784 0
M  V30 3993 H 388.263 0.590324 0.465856 0
M  V30 3994 H 390.234 2.77324 1.10154 0
M  V30 3995 C 388.983 2.12274 2.75382 0
M  V30 3996 H 388.306 2.98429 2.66046 0
M  V30 3997 H 389.746 2.38254 3.5073 0
M  V30 3998 C 388.205 0.920365 3.24085 0
M  V30 3999 O 388.735 0.139377 4.01458 0
M  V30 4000 N 386.941 0.726566 2.81371 0
M  V30 4001 H 386.488 1.36332 2.18567 0
M  V30 4002 H 386.446 -0.0763799 3.14307 0
M  V30 4003 N 390.218 -0.567019 1.47046 0
M  V30 4004 C 391.466 -1.322 1.52864 0
M  V30 4005 C 391.787 -1.94088 0.188388 0
M  V30 4006 O 391.057 -1.7941 -0.786693 0
M  V30 4007 H 389.637 -0.490894 0.563056 0
M  V30 4008 H 392.299 -0.662879 1.83281 0
M  V30 4009 H 391.395 -2.12062 2.2899 0
M  V30 4010 N 391.696 -1.35014 -0.812953 0
M  V30 4011 C 393.107 -1.25035 -1.38648 0
M  V30 4012 C 393.458 0.119967 -1.95833 0
M  V30 4013 O 392.583 1.02069 -1.90816 0
M  V30 4014 C 393.178 -2.26394 -2.52054 0
M  V30 4015 C 391.737 -2.20175 -3.05287 0
M  V30 4016 C 390.884 -2.12451 -1.78213 0
M  V30 4017 H 393.835 -1.46235 -0.616516 0
M  V30 4018 H 393.856 -1.88672 -3.30429 0
M  V30 4019 H 393.368 -3.26116 -2.10404 0
M  V30 4020 H 391.469 -1.23841 -3.51417 0
M  V30 4021 H 391.582 -3.11863 -3.63701 0
M  V30 4022 H 389.946 -1.58328 -1.9951 0
M  V30 4023 H 390.729 -3.14024 -1.38723 0
M  V30 4024 N 393.175 1.03435 -1.18907 0
M  V30 4025 C 394.421 1.7713 -0.99982 0
M  V30 4026 C 394.776 1.86695 0.465049 0
M  V30 4027 O 394.069 1.36866 1.34083 0
M  V30 4028 C 394.263 3.19792 -1.59586 0
M  V30 4029 C 394.092 3.24134 -3.11717 0
M  V30 4030 C 392.862 3.32398 -3.80578 0
M  V30 4031 C 395.06 3.11625 -4.09138 0
M  V30 4032 N 393.042 3.26055 -5.20155 0
M  V30 4033 C 394.413 3.12855 -5.35277 0
M  V30 4034 C 396.468 2.95713 -4.00572 0
M  V30 4035 C 395.171 2.99805 -6.53842 0
M  V30 4036 C 397.197 2.84011 -5.1874 0
M  V30 4037 C 396.559 2.8589 -6.43775 0
M  V30 4038 H 392.658 0.659683 -0.419931 0
M  V30 4039 H 395.242 1.2317 -1.50789 0
M  V30 4040 H 393.413 3.72085 -1.11389 0
M  V30 4041 H 395.145 3.81819 -1.3415 0
M  V30 4042 H 391.9 3.38392 -3.31342 0
M  V30 4043 H 392.324 3.26307 -5.93172 0
M  V30 4044 H 396.966 2.93086 -3.0473 0
M  V30 4045 H 394.684 3.01184 -7.49876 0
M  V30 4046 H 398.27 2.72744 -5.13909 0
M  V30 4047 H 397.15 2.76931 -7.33675 0
M  V30 4048 N 394.653 0.992116 1.22453 0
M  V30 4049 C 395.616 0.546883 2.2258 0
M  V30 4050 C 396.616 -0.369829 1.56489 0
M  V30 4051 O 397.806 -0.161896 1.73446 0
M  V30 4052 C 394.938 -0.204659 3.40285 0
M  V30 4053 H 396.131 1.43234 2.63484 0
M  V30 4054 H 393.684 0.779239 1.3549 0
M  V30 4055 H 394.419 -1.10614 3.04853 0
M  V30 4056 H 394.204 0.45354 3.89468 0
M  V30 4057 H 395.694 -0.504358 4.14543 0
M  V30 4058 N 396.131 -1.37776 0.765217 0
M  V30 4059 C 397.359 -2.04124 0.337767 0
M  V30 4060 C 397.774 -1.57715 -1.03785 0
M  V30 4061 O 397.131 -0.755447 -1.6613 0
M  V30 4062 C 397.182 -3.59658 0.364442 0
M  V30 4063 O 396.903 -4.04367 1.68579 0
M  V30 4064 C 398.404 -4.43236 -0.0754221 0
M  V30 4065 H 395.624 -0.655696 0.142491 0
M  V30 4066 H 398.168 -1.76238 1.03732 0
M  V30 4067 H 396.323 -3.86339 -0.286471 0
M  V30 4068 H 396.737 -4.98857 1.61993 0
M  V30 4069 H 398.211 -5.52 -0.00560067 0
M  V30 4070 H 398.688 -4.2455 -1.12491 0
M  V30 4071 H 399.294 -4.21767 0.547055 0
M  V30 4072 N 397.609 -0.515225 -1.4894 0
M  V30 4073 C 398.855 0.0242508 -2.02785 0
M  V30 4074 C 399.188 1.35323 -1.39289 0
M  V30 4075 O 398.463 1.87041 -0.533469 0
M  V30 4076 C 398.746 0.16184 -3.59736 0
M  V30 4077 C 398.599 -1.19127 -4.33738 0
M  V30 4078 C 399.918 0.895719 -4.30888 0
M  V30 4079 H 397.037 0.00733914 -0.736963 0
M  V30 4080 H 399.679 -0.669395 -1.77818 0
M  V30 4081 H 397.829 0.752624 -3.8114 0
M  V30 4082 H 399.501 -1.82202 -4.23792 0
M  V30 4083 H 397.744 -1.77695 -3.95736 0
M  V30 4084 H 398.415 -1.04815 -5.41957 0
M  V30 4085 H 400.891 0.394528 -4.14225 0
M  V30 4086 H 399.767 0.960859 -5.40425 0
M  V30 4087 H 400.028 1.9427 -3.97129 0
M  V30 4088 N 399.087 1.5561 -0.249682 0
M  V30 4089 C 400.335 1.98618 0.373548 0
M  V30 4090 C 400.656 1.13919 1.58264 0
M  V30 4091 O 399.926 0.222637 1.94631 0
M  V30 4092 H 398.506 0.733571 0.141006 0
M  V30 4093 H 401.168 1.91748 -0.349117 0
M  V30 4094 H 400.264 3.04584 0.680796 0
M  V30 4095 N 400.565 -0.0233959 1.57583 0
M  V30 4096 C 401.498 -1.05549 2.02323 0
M  V30 4097 C 402.476 -1.34843 0.908626 0
M  V30 4098 O 403.66 -1.47404 1.17491 0
M  V30 4099 C 400.787 -2.38885 2.40108 0
M  V30 4100 C 399.833 -2.2541 3.62067 0
M  V30 4101 S 400.666 -1.60217 5.1097 0
M  V30 4102 C 401.822 -2.95032 5.52003 0
M  V30 4103 H 402.055 -0.674435 2.89549 0
M  V30 4104 H 399.588 -0.23355 1.52623 0
M  V30 4105 H 401.546 -3.15562 2.62547 0
M  V30 4106 H 400.207 -2.74137 1.53323 0
M  V30 4107 H 399.4 -3.23854 3.86179 0
M  V30 4108 H 399.002 -1.56876 3.39508 0
M  V30 4109 H 401.294 -3.91357 5.53033 0
M  V30 4110 H 402.237 -2.75646 6.52246 0
M  V30 4111 H 402.645 -2.97865 4.79517 0
M  V30 4112 N 402.043 -1.548 -0.295768 0
M  V30 4113 C 403.291 -1.73985 -1.02828 0
M  V30 4114 C 403.612 -0.531406 -1.87619 0
M  V30 4115 O 402.882 0.454221 -1.90561 0
M  V30 4116 H 401.462 -0.641556 -0.382642 0
M  V30 4117 H 404.124 -1.92163 -0.325489 0
M  V30 4118 H 403.22 -2.63129 -1.67838 0
M  V30 4119 N 403.521 0.559213 -1.47345 0
M  V30 4120 C 404.431 1.69388 -1.62311 0
M  V30 4121 C 405.447 1.6648 -0.505993 0
M  V30 4122 O 406.623 1.85964 -0.773262 0
M  V30 4123 C 403.688 3.05894 -1.63185 0
M  V30 4124 C 402.749 3.19885 -2.86307 0
M  V30 4125 C 401.982 4.49879 -2.87131 0
M  V30 4126 O 402.205 5.35217 -1.97229 0
M  V30 4127 O 401.139 4.67618 -3.78968 0
M  V30 4128 H 404.965 1.59706 -2.58317 0
M  V30 4129 H 402.55 0.728989 -1.30407 0
M  V30 4130 H 404.432 3.87133 -1.66451 0
M  V30 4131 H 403.107 3.15964 -0.70345 0
M  V30 4132 H 402.014 2.38052 -2.88587 0
M  V30 4133 H 403.347 3.14718 -3.78435 0
M  V30 4134 N 404.999 1.35443 0.805782 0
M  V30 4135 C 405.962 1.28301 1.89925 0
M  V30 4136 C 406.962 0.194285 1.59622 0
M  V30 4137 O 408.152 0.448036 1.6834 0
M  V30 4138 C 405.284 0.984997 3.2636 0
M  V30 4139 H 406.477 2.2553 1.97677 0
M  V30 4140 H 404.03 1.19979 1.00173 0
M  V30 4141 H 404.765 0.016603 3.24296 0
M  V30 4142 H 404.55 1.77269 3.4974 0
M  V30 4143 H 406.04 0.960651 4.064 0
M  V30 4144 N 406.477 -1.02803 1.19454 0
M  V30 4145 C 407.893 -1.28473 0.946937 0
M  V30 4146 C 408.093 -1.97881 -0.380202 0
M  V30 4147 O 407.149 -2.26719 -1.11151 0
M  V30 4148 C 408.462 -2.13099 2.12154 0
M  V30 4149 C 410.01 -2.26404 2.16126 0
M  V30 4150 C 410.485 -3.14402 3.33039 0
M  V30 4151 N 411.976 -3.21991 3.32981 0
M  V30 4152 C 412.711 -3.90272 4.20089 0
M  V30 4153 N 412.207 -4.60777 5.17355 0
M  V30 4154 N 414 -3.8668 4.07964 0
M  V30 4155 H 406.151 -0.561665 2.04839 0
M  V30 4156 H 408.414 -0.310438 0.89573 0
M  V30 4157 H 408.12 -1.69422 3.08203 0
M  V30 4158 H 407.994 -3.13813 2.09287 0
M  V30 4159 H 410.381 -2.69311 1.20647 0
M  V30 4160 H 410.462 -1.25237 2.23045 0
M  V30 4161 H 410.106 -2.72204 4.28798 0
M  V30 4162 H 410.036 -4.1563 3.23356 0
M  V30 4163 H 412.527 -2.71778 2.62574 0
M  V30 4164 H 412.84 -5.10513 5.80169 0
M  V30 4165 H 411.185 -4.5964 5.21302 0
M  V30 4166 H 414.376 -3.30739 3.31254 0
M  V30 4167 H 414.549 -4.39621 4.76064 0
M  V30 4168 N 407.956 -0.998596 -1.21925 0
M  V30 4169 C 409.372 -0.710303 -1.42923 0
M  V30 4170 C 409.572 0.716933 -1.88314 0
M  V30 4171 O 408.628 1.48712 -2.04062 0
M  V30 4172 C 409.941 -1.72072 -2.466 0
M  V30 4173 C 411.489 -1.73681 -2.60392 0
M  V30 4174 C 411.964 -2.73601 -3.67296 0
M  V30 4175 N 413.455 -2.7223 -3.7476 0
M  V30 4176 C 414.19 -3.46206 -4.57087 0
M  V30 4177 N 413.686 -4.29802 -5.43362 0
M  V30 4178 N 415.479 -3.34886 -4.51451 0
M  V30 4179 H 407.63 -1.92028 -0.9077 0
M  V30 4180 H 409.893 -0.828487 -0.460775 0
M  V30 4181 H 409.599 -2.74231 -2.20206 0
M  V30 4182 H 409.473 -1.51818 -3.45299 0
M  V30 4183 H 411.86 -0.722173 -2.86127 0
M  V30 4184 H 411.941 -1.98005 -1.61949 0
M  V30 4185 H 411.585 -3.75217 -3.42307 0
M  V30 4186 H 411.515 -2.46545 -4.65321 0
M  V30 4187 H 414.006 -2.11576 -3.1312 0
M  V30 4188 H 414.319 -4.83061 -6.03218 0
M  V30 4189 H 412.664 -4.33887 -5.42925 0
M  V30 4190 H 415.855 -2.69015 -3.83078 0
M  V30 4191 H 416.028 -3.92796 -5.15379 0
M  V30 4192 N 409.434 1.37368 -0.772513 0
M  V30 4193 C 410.85 1.53059 -0.452231 0
M  V30 4194 C 411.05 1.73065 1.03203 0
M  V30 4195 O 410.106 1.75245 1.81784 0
M  V30 4196 C 411.419 2.72659 -1.26797 0
M  V30 4197 C 412.967 2.86521 -1.25995 0
M  V30 4198 C 413.442 4.09105 -2.05905 0
M  V30 4199 N 414.933 4.16219 -2.03263 0
M  V30 4200 C 415.668 5.10107 -2.61875 0
M  V30 4201 N 415.164 6.09547 -3.29278 0
M  V30 4202 N 416.957 5.02596 -2.51701 0
M  V30 4203 H 409.108 1.22634 -1.7342 0
M  V30 4204 H 411.371 0.597206 -0.736239 0
M  V30 4205 H 411.077 2.64343 -2.31982 0
M  V30 4206 H 410.951 3.66363 -0.897672 0
M  V30 4207 H 413.338 2.94308 -0.216081 0
M  V30 4208 H 413.419 1.93774 -1.66989 0
M  V30 4209 H 413.063 4.0208 -3.10313 0
M  V30 4210 H 412.993 5.00968 -1.62292 0
M  V30 4211 H 415.484 3.45012 -1.54192 0
M  V30 4212 H 415.797 6.77718 -3.71374 0
M  V30 4213 H 414.142 6.09824 -3.33377 0
M  V30 4214 H 417.333 4.23855 -1.98657 0
M  V30 4215 H 417.506 5.75582 -2.97673 0
M  V30 4216 N 410.912 0.523116 1.48665 0
M  V30 4217 C 411.875 -0.232592 2.28017 0
M  V30 4218 C 412.875 -0.874021 1.34972 0
M  V30 4219 O 414.065 -0.735132 1.57929 0
M  V30 4220 C 411.197 -1.33586 3.13636 0
M  V30 4221 H 412.39 0.464008 2.96289 0
M  V30 4222 H 409.943 0.278816 1.53793 0
M  V30 4223 H 410.678 -2.06593 2.4998 0
M  V30 4224 H 410.463 -0.881125 3.82071 0
M  V30 4225 H 411.953 -1.86759 3.73511 0
M  V30 4226 N 412.39 -1.55475 0.257931 0
M  V30 4227 C 413.618 -2.03609 -0.367559 0
M  V30 4228 C 414.033 -1.13687 -1.50734 0
M  V30 4229 O 413.39 -0.153479 -1.81853 0
M  V30 4230 C 413.441 -3.51001 -0.864908 0
M  V30 4231 O 413.162 -4.37499 0.229465 0
M  V30 4232 C 414.663 -4.14946 -1.55997 0
M  V30 4233 H 411.883 -0.665459 -0.0860521 0
M  V30 4234 H 414.427 -2.00843 0.385014 0
M  V30 4235 H 412.582 -3.54266 -1.56762 0
M  V30 4236 H 412.996 -5.24286 -0.14998 0
M  V30 4237 H 414.47 -5.19735 -1.85956 0
M  V30 4238 H 414.947 -3.6209 -2.4857 0
M  V30 4239 H 415.553 -4.15635 -0.901543 0
M  V30 4240 N 413.868 0.0150385 -1.57593 0
M  V30 4241 C 414.8 1.03912 -2.04291 0
M  V30 4242 C 415.813 1.31618 -0.958146 0
M  V30 4243 O 417.002 1.28859 -1.23522 0
M  V30 4244 C 414.102 2.37749 -2.41514 0
M  V30 4245 C 413.275 2.29198 -3.72541 0
M  V30 4246 C 412.334 3.45598 -3.96797 0
M  V30 4247 O 411.36 3.24461 -4.67668 0
M  V30 4248 N 412.562 4.67945 -3.43523 0
M  V30 4249 H 415.327 0.64099 -2.92765 0
M  V30 4250 H 412.888 0.20272 -1.60626 0
M  V30 4251 H 414.88 3.14364 -2.54867 0
M  V30 4252 H 413.45 2.69357 -1.58637 0
M  V30 4253 H 412.67 1.3759 -3.69408 0
M  V30 4254 H 413.958 2.20642 -4.5847 0
M  V30 4255 H 413.356 4.88017 -2.86104 0
M  V30 4256 H 411.913 5.41878 -3.62232 0
M  V30 4257 N 415.346 1.54954 0.287554 0
M  V30 4258 C 416.276 1.89839 1.35954 0
M  V30 4259 C 417.257 0.758675 1.52244 0
M  V30 4260 O 418.442 1.01557 1.65529 0
M  V30 4261 C 415.572 2.15753 2.72154 0
M  V30 4262 C 414.526 3.3159 2.70614 0
M  V30 4263 C 413.852 3.42952 4.10229 0
M  V30 4264 C 415.152 4.68359 2.31165 0
M  V30 4265 H 416.846 2.79625 1.07007 0
M  V30 4266 H 414.392 1.3454 0.513316 0
M  V30 4267 H 416.345 2.38743 3.47246 0
M  V30 4268 H 415.069 1.22752 3.02654 0
M  V30 4269 H 413.728 3.08545 1.97979 0
M  V30 4270 H 413.376 2.47443 4.37928 0
M  V30 4271 H 413.076 4.20826 4.10097 0
M  V30 4272 H 414.6 3.68218 4.87081 0
M  V30 4273 H 416.014 4.9099 2.95976 0
M  V30 4274 H 414.411 5.49044 2.42221 0
M  V30 4275 H 415.481 4.68165 1.26291 0
M  V30 4276 N 416.824 -0.551391 1.4764 0
M  V30 4277 C 417.787 -1.64007 1.60107 0
M  V30 4278 C 418.787 -1.53601 0.47576 0
M  V30 4279 O 419.977 -1.57655 0.740988 0
M  V30 4280 C 417.109 -3.03569 1.55108 0
M  V30 4281 H 418.302 -1.543 2.57161 0
M  V30 4282 H 415.855 -0.771776 1.35917 0
M  V30 4283 H 416.59 -3.18804 0.594519 0
M  V30 4284 H 416.375 -3.12532 2.36783 0
M  V30 4285 H 417.865 -3.82762 1.66982 0
M  V30 4286 N 418.302 -1.35869 -0.798587 0
M  V30 4287 C 419.252 -1.25982 -1.90033 0
M  V30 4288 C 420.236 -0.153303 -1.60168 0
M  V30 4289 O 421.428 -0.38527 -1.72756 0
M  V30 4290 C 418.557 -1.04211 -3.27101 0
M  V30 4291 C 417.643 -2.19289 -3.63006 0
M  V30 4292 N 418.034 -3.44559 -3.70287 0
M  V30 4293 C 416.332 -2.10852 -3.93011 0
M  V30 4294 C 417.033 -4.20283 -4.02166 0
M  V30 4295 N 416.009 -3.49124 -4.16669 0
M  V30 4296 H 419.811 -2.20883 -1.93876 0
M  V30 4297 H 417.325 -1.28457 -0.993614 0
M  V30 4298 H 419.322 -0.952155 -4.05881 0
M  V30 4299 H 417.982 -0.102013 -3.2454 0
M  V30 4300 H 418.993 -3.7881 -3.53162 0
M  V30 4301 H 415.67 -1.24744 -3.98428 0
M  V30 4302 H 417.06 -5.28575 -4.14799 0
M  V30 4303 N 419.78 1.02168 -1.19998 0
M  V30 4304 C 420.71 2.12488 -0.96804 0
M  V30 4305 C 421.691 1.69799 0.101185 0
M  V30 4306 O 422.876 1.94121 -0.0552993 0
M  V30 4307 C 420.006 3.43479 -0.513776 0
M  V30 4308 C 418.96 3.99884 -1.52566 0
M  V30 4309 C 418.286 5.26582 -0.928214 0
M  V30 4310 C 419.586 4.33861 -2.90795 0
M  V30 4311 H 421.28 2.32149 -1.89069 0
M  V30 4312 H 418.826 1.11564 -0.910468 0
M  V30 4313 H 420.779 4.20036 -0.338774 0
M  V30 4314 H 419.503 3.23561 0.444493 0
M  V30 4315 H 418.162 3.25429 -1.68794 0
M  V30 4316 H 417.81 5.02986 0.0378289 0
M  V30 4317 H 417.51 5.65284 -1.60397 0
M  V30 4318 H 419.034 6.05799 -0.764167 0
M  V30 4319 H 420.448 5.01327 -2.78109 0
M  V30 4320 H 418.845 4.83664 -3.55231 0
M  V30 4321 H 419.915 3.42848 -3.42904 0
M  V30 4322 N 421.258 1.00505 1.21394 0
M  V30 4323 C 422.504 0.688793 1.90745 0
M  V30 4324 C 422.837 -0.778486 1.77914 0
M  V30 4325 O 422.112 -1.56433 1.15581 0
M  V30 4326 C 422.395 1.11063 3.42545 0
M  V30 4327 C 422.248 2.63737 3.64367 0
M  V30 4328 C 423.567 0.673059 4.34923 0
M  V30 4329 H 420.686 0.251702 0.692687 0
M  V30 4330 H 423.328 1.25074 1.43026 0
M  V30 4331 H 421.478 0.632508 3.83317 0
M  V30 4332 H 423.15 3.19313 3.32922 0
M  V30 4333 H 421.393 3.05248 3.08231 0
M  V30 4334 H 422.064 2.88305 4.70727 0
M  V30 4335 H 424.54 1.08392 4.01734 0
M  V30 4336 H 423.416 0.996383 5.39781 0
M  V30 4337 H 423.677 -0.425808 4.40045 0
M  V30 4338 N 422.737 -1.36956 0.779787 0
M  V30 4339 C 423.985 -1.99097 0.347079 0
M  V30 4340 C 424.306 -1.62206 -1.08232 0
M  V30 4341 O 423.576 -0.891373 -1.74446 0
M  V30 4342 H 422.156 -0.736409 0.125342 0
M  V30 4343 H 424.818 -1.67308 0.999696 0
M  V30 4344 H 423.914 -3.09107 0.431162 0
M  V30 4345 N 424.215 -0.530993 -1.48385 0
M  V30 4346 C 425.455 0.000718982 -2.044 0
M  V30 4347 C 425.819 1.31485 -1.39913 0
M  V30 4348 O 427.02 1.93265 -1.86821 0
M  V30 4349 C 425.291 0.119177 -3.57201 0
M  V30 4350 S 426.85 0.600806 -4.34667 0
M  V30 4351 H 423.668 -0.0125473 -0.710889 0
M  V30 4352 H 426.27 -0.711783 -1.82082 0
M  V30 4353 H 424.974 -0.842061 -4.01668 0
M  V30 4354 H 424.505 0.856026 -3.83974 0
M  V30 4355 H 426.52 1.86514 -4.59812 0
M  V30 4356 N 425.693 1.55336 -0.266172 0
M  V30 4357 C 427.104 1.85236 0.233315 0
M  V30 4358 C 427.455 1.18816 1.56132 0
M  V30 4359 O 426.58 0.473307 2.11161 0
M  V30 4360 C 427.175 3.36059 0.430113 0
M  V30 4361 C 425.734 3.66116 0.873842 0
M  V30 4362 C 424.881 2.77274 -0.0380016 0
M  V30 4363 H 427.832 1.51004 -0.488214 0
M  V30 4364 H 427.853 3.58681 1.26998 0
M  V30 4365 H 427.365 3.84373 -0.536588 0
M  V30 4366 H 425.466 3.23295 1.85233 0
M  V30 4367 H 425.579 4.73699 0.717358 0
M  V30 4368 H 423.943 2.50198 0.476759 0
M  V30 4369 H 424.726 3.284 -1.00042 0
M  V30 4370 N 427.171 -0.0066808 1.57599 0
M  V30 4371 C 428.582 -0.550379 1.78403 0
M  V30 4372 C 428.933 -1.74339 0.900014 0
M  V30 4373 O 428.058 -2.16166 0.100713 0
M  V30 4374 C 428.653 -1.00523 3.23544 0
M  V30 4375 C 427.212 -1.49428 3.45468 0
M  V30 4376 C 426.359 -0.442444 2.73748 0
M  V30 4377 H 429.31 0.219508 1.57175 0
M  V30 4378 H 429.331 -1.87157 3.31289 0
M  V30 4379 H 428.843 -0.136735 3.87859 0
M  V30 4380 H 426.944 -2.3839 2.86358 0
M  V30 4381 H 427.057 -1.52635 4.54136 0
M  V30 4382 H 425.421 -0.902578 2.38171 0
M  V30 4383 H 426.204 0.416973 3.40758 0
M  V30 4384 N 428.649 -1.55105 -0.279332 0
M  V30 4385 C 429.897 -1.75066 -1.00977 0
M  V30 4386 C 430.218 -0.551276 -1.87045 0
M  V30 4387 O 429.488 0.433984 -1.91032 0
M  V30 4388 H 428.068 -0.645578 -0.375816 0
M  V30 4389 H 430.73 -1.92497 -0.305089 0
M  V30 4390 H 429.826 -2.64894 -1.65038 0
M  V30 4391 N 430.127 0.543554 -1.4793 0
M  V30 4392 C 431.375 1.29752 -1.54948 0
M  V30 4393 C 431.696 1.93764 -0.219242 0
M  V30 4394 O 430.966 1.80639 0.75805 0
M  V30 4395 H 429.546 0.481874 -0.570795 0
M  V30 4396 H 432.208 0.633636 -1.84312 0
M  V30 4397 H 431.304 2.08392 -2.32334 0
M  V30 4398 N 431.605 1.3629 0.791371 0
M  V30 4399 C 432.833 1.33562 1.58016 0
M  V30 4400 C 433.248 -0.0835616 1.88615 0
M  V30 4401 O 432.605 -1.0399 1.49974 0
M  V30 4402 C 432.656 2.15517 2.90232 0
M  V30 4403 O 432.377 3.51902 2.60953 0
M  V30 4404 C 433.878 2.20546 3.84544 0
M  V30 4405 H 431.098 0.458226 0.490173 0
M  V30 4406 H 433.642 1.79361 0.982345 0
M  V30 4407 H 431.797 1.73278 3.46487 0
M  V30 4408 H 432.211 3.94644 3.4548 0
M  V30 4409 H 433.685 2.82252 4.74382 0
M  V30 4410 H 434.162 1.20838 4.2225 0
M  V30 4411 H 434.768 2.63013 3.34222 0
M  V30 4412 N 433.083 -1.0153 1.20538 0
M  V30 4413 C 434.331 -1.74803 1.01432 0
M  V30 4414 C 434.652 -1.8963 -0.454456 0
M  V30 4415 O 433.922 -1.43975 -1.32846 0
M  V30 4416 H 432.502 -0.647598 0.372324 0
M  V30 4417 H 435.164 -1.22402 1.5167 0
M  V30 4418 H 434.26 -2.75114 1.47373 0
M  V30 4419 N 434.561 -1.01147 -1.20859 0
M  V30 4420 C 435.809 -0.696486 -1.89719 0
M  V30 4421 C 436.13 0.775788 -1.78904 0
M  V30 4422 O 435.4 1.55759 -1.18811 0
M  V30 4423 H 433.98 -0.254628 -0.702263 0
M  V30 4424 H 436.642 -1.28197 -1.46804 0
M  V30 4425 H 435.738 -0.975357 -2.96468 0
M  V30 4426 N 436.039 1.36541 -0.78704 0
M  V30 4427 C 436.987 2.31965 -0.171724 0
M  V30 4428 C 437.981 1.55689 0.667631 0
M  V30 4429 O 439.187 1.70969 0.562981 0
M  V30 4430 H 435.562 0.751101 -0.0367545 0
M  V30 4431 H 437.533 2.81428 -0.992017 0
M  V30 4432 C 436.282 3.40968 0.680904 0
M  V30 4433 H 435.605 3.99775 0.0443961 0
M  V30 4434 H 437.045 4.10063 1.07815 0
M  V30 4435 C 435.504 2.82338 1.83813 0
M  V30 4436 O 436.034 2.74311 2.93456 0
M  V30 4437 N 434.24 2.39661 1.6435 0
M  V30 4438 H 433.787 2.46389 0.751668 0
M  V30 4439 H 433.745 2.00779 2.4194 0
M  V30 4440 N 437.518 0.538854 1.48102 0
M  V30 4441 C 438.795 -0.0568108 1.95517 0
M  V30 4442 C 439.175 -1.50408 1.48124 0
M  V30 4443 O 438.523 -2.17133 0.711727 0
M  V30 4444 C 438.733 0.0696262 3.48931 0
M  V30 4445 C 440.081 -0.0851202 4.24515 0
M  V30 4446 O 441.105 -0.0037347 3.562 0
M  V30 4447 O 439.964 -0.257025 5.45895 0
M  V30 4448 H 437.058 -0.0743695 0.823649 0
M  V30 4449 H 439.604 0.604081 1.58584 0
M  V30 4450 H 438.376 1.07744 3.76174 0
M  V30 4451 H 437.999 -0.629714 3.92582 0
M  V30 4452 N 438.996 -1.55193 0.274407 0
M  V30 4453 C 440.224 -2.03987 -0.345943 0
M  V30 4454 C 440.639 -1.15279 -1.4952 0
M  V30 4455 O 439.996 -0.172759 -1.8168 0
M  V30 4456 C 440.047 -3.51898 -0.827631 0
M  V30 4457 O 439.768 -4.37231 0.275855 0
M  V30 4458 C 441.269 -4.16577 -1.51587 0
M  V30 4459 H 438.489 -0.666335 -0.0789892 0
M  V30 4460 H 441.033 -2.00423 0.406294 0
M  V30 4461 H 439.188 -3.55909 -1.52996 0
M  V30 4462 H 439.602 -5.24415 -0.0943638 0
M  V30 4463 H 441.076 -5.21678 -1.80433 0
M  V30 4464 H 441.553 -3.64707 -2.44716 0
M  V30 4465 H 442.159 -4.16568 -0.857409 0
M  V30 4466 N 440.474 -0.00167713 -1.576 0
M  V30 4467 C 441.384 1.00548 -2.1196 0
M  V30 4468 C 442.4 1.3758 -1.06526 0
M  V30 4469 O 443.576 1.46278 -1.38436 0
M  V30 4470 C 440.641 2.27809 -2.6135 0
M  V30 4471 C 439.702 1.97074 -3.81393 0
M  V30 4472 C 438.935 3.18267 -4.28417 0
M  V30 4473 O 439.158 4.30009 -3.74765 0
M  V30 4474 O 438.092 3.02167 -5.20556 0
M  V30 4475 H 441.918 0.573373 -2.98238 0
M  V30 4476 H 439.503 0.217255 -1.47812 0
M  V30 4477 H 441.385 3.02568 -2.93309 0
M  V30 4478 H 440.06 2.70254 -1.78169 0
M  V30 4479 H 438.967 1.19785 -3.54404 0
M  V30 4480 H 440.3 1.59464 -4.65652 0
M  V30 4481 N 441.952 1.55251 0.271103 0
M  V30 4482 C 442.882 1.9127 1.33933 0
M  V30 4483 C 443.863 0.77478 1.5143 0
M  V30 4484 O 445.048 1.03307 1.64442 0
M  V30 4485 C 442.178 2.18627 2.69851 0
M  V30 4486 C 441.132 3.34442 2.67081 0
M  V30 4487 C 440.458 3.47284 4.06569 0
M  V30 4488 C 441.758 4.70784 2.26185 0
M  V30 4489 H 443.452 2.80744 1.04035 0
M  V30 4490 H 440.998 1.35077 0.499017 0
M  V30 4491 H 442.951 2.42413 3.44694 0
M  V30 4492 H 441.675 1.25955 3.01335 0
M  V30 4493 H 440.334 3.10627 1.94695 0
M  V30 4494 H 439.982 2.52074 4.35279 0
M  V30 4495 H 439.682 4.25152 4.0561 0
M  V30 4496 H 441.206 3.73363 4.83148 0
M  V30 4497 H 442.62 4.94102 2.90751 0
M  V30 4498 H 441.017 5.51582 2.36384 0
M  V30 4499 H 442.087 4.69478 1.21319 0
M  V30 4500 N 443.43 -0.535701 1.48216 0
M  V30 4501 C 444.676 -1.29375 1.56173 0
M  V30 4502 C 445.009 -1.92804 0.232429 0
M  V30 4503 O 444.284 -1.78992 -0.761048 0
M  V30 4504 C 444.567 -2.38747 2.69577 0
M  V30 4505 C 444.42 -1.80046 4.12193 0
M  V30 4506 C 445.739 -3.40551 2.78771 0
M  V30 4507 H 442.858 -0.469027 0.568491 0
M  V30 4508 H 445.5 -0.597358 1.80365 0
M  V30 4509 H 443.65 -2.98147 2.4908 0
M  V30 4510 H 445.322 -1.24742 4.44114 0
M  V30 4511 H 443.565 -1.10609 4.19462 0
M  V30 4512 H 444.236 -2.59212 4.87353 0
M  V30 4513 H 446.712 -2.91099 2.97322 0
M  V30 4514 H 445.588 -4.1448 3.59857 0
M  V30 4515 H 445.849 -4.00746 1.86696 0
M  V30 4516 N 444.908 -1.36708 -0.784132 0
M  V30 4517 C 445.871 -1.31307 -1.87859 0
M  V30 4518 C 446.871 -0.219654 -1.59293 0
M  V30 4519 O 448.061 -0.47476 -1.67606 0
M  V30 4520 C 445.193 -1.03679 -3.24751 0
M  V30 4521 H 446.386 -2.28647 -1.94064 0
M  V30 4522 H 443.939 -1.21558 -0.98252 0
M  V30 4523 H 444.674 -0.0681936 -3.24228 0
M  V30 4524 H 444.459 -1.82811 -3.46876 0
M  V30 4525 H 445.949 -1.02518 -4.04821 0
M  V30 4526 N 446.386 1.0089 -1.21074 0
M  V30 4527 C 447.626 1.76142 -1.03699 0
M  V30 4528 C 447.99 1.87292 0.422587 0
M  V30 4529 O 449.191 2.59068 0.716752 0
M  V30 4530 C 447.462 3.13805 -1.7106 0
M  V30 4531 S 449.021 4.04996 -1.68889 0
M  V30 4532 H 445.839 0.606113 -0.371683 0
M  V30 4533 H 448.441 1.20744 -1.53756 0
M  V30 4534 H 447.145 3.0332 -2.76451 0
M  V30 4535 H 446.676 3.74276 -1.21166 0
M  V30 4536 H 448.691 4.90842 -0.727211 0
M  V30 4537 N 447.864 1.01787 1.20321 0
M  V30 4538 C 448.794 0.609625 2.25401 0
M  V30 4539 C 449.775 -0.375951 1.65893 0
M  V30 4540 O 450.96 -0.261101 1.92437 0
M  V30 4541 C 448.09 -0.0515995 3.47262 0
M  V30 4542 C 447.044 0.855095 4.19371 0
M  V30 4543 C 446.37 0.0595757 5.34667 0
M  V30 4544 C 447.67 2.16374 4.75373 0
M  V30 4545 H 449.364 1.48803 2.59804 0
M  V30 4546 H 446.91 0.716934 1.24884 0
M  V30 4547 H 448.863 -0.348764 4.19954 0
M  V30 4548 H 447.587 -0.964726 3.12027 0
M  V30 4549 H 446.246 1.13628 3.48546 0
M  V30 4550 H 445.894 -0.85524 4.95676 0
M  V30 4551 H 445.594 0.663406 5.83843 0
M  V30 4552 H 447.118 -0.231105 6.10162 0
M  V30 4553 H 448.532 1.92885 5.39878 0
M  V30 4554 H 446.929 2.71853 5.34991 0
M  V30 4555 H 447.999 2.82589 3.94045 0
M  V30 4556 N 449.342 -1.36122 0.79427 0
M  V30 4557 C 450.758 -1.5232 0.476525 0
M  V30 4558 C 450.958 -1.74685 -1.00436 0
M  V30 4559 O 450.014 -1.78115 -1.78973 0
M  V30 4560 C 451.327 -2.70607 1.31119 0
M  V30 4561 C 452.875 -2.8448 1.30537 0
M  V30 4562 C 453.35 -4.05778 2.12387 0
M  V30 4563 N 454.841 -4.12933 2.09859 0
M  V30 4564 C 455.576 -5.05876 2.69957 0
M  V30 4565 N 455.072 -6.04232 3.38934 0
M  V30 4566 N 456.865 -4.98528 2.59665 0
M  V30 4567 H 449.016 -1.1986 1.75349 0
M  V30 4568 H 451.279 -0.585418 0.745647 0
M  V30 4569 H 450.985 -2.60619 2.36158 0
M  V30 4570 H 450.859 -3.64888 0.955843 0
M  V30 4571 H 453.246 -2.93927 0.262876 0
M  V30 4572 H 453.327 -1.91093 1.70051 0
M  V30 4573 H 452.971 -3.97092 3.1667 0
M  V30 4574 H 452.901 -4.98323 1.70242 0
M  V30 4575 H 455.392 -3.42515 1.59662 0
M  V30 4576 H 455.705 -6.71724 3.82109 0
M  V30 4577 H 454.05 -6.04443 3.43036 0
M  V30 4578 H 457.241 -4.20641 2.05375 0
M  V30 4579 H 457.414 -5.70773 3.06793 0
M  V30 4580 N 450.82 -0.546701 -1.47814 0
M  V30 4581 C 452.048 -0.0232857 -2.06887 0
M  V30 4582 C 452.463 1.26571 -1.4009 0
M  V30 4583 O 451.82 1.7569 -0.493906 0
M  V30 4584 C 451.871 0.186975 -3.61016 0
M  V30 4585 O 451.592 -1.05097 -4.25307 0
M  V30 4586 C 453.093 0.748872 -4.36929 0
M  V30 4587 H 450.313 -0.0410763 -0.669742 0
M  V30 4588 H 452.857 -0.757117 -1.89968 0
M  V30 4589 H 451.012 0.870903 -3.77484 0
M  V30 4590 H 451.426 -0.842121 -5.17695 0
M  V30 4591 H 452.9 0.845334 -5.45489 0
M  V30 4592 H 453.377 1.75772 -4.02493 0
M  V30 4593 H 453.983 0.100979 -4.2518 0
M  V30 4594 N 452.299 1.55045 -0.282633 0
M  V30 4595 C 453.715 1.59441 0.0712997 0
M  V30 4596 C 453.915 1.2998 1.53972 0
M  V30 4597 O 452.971 1.06431 2.28973 0
M  V30 4598 C 454.284 2.99097 -0.310104 0
M  V30 4599 C 455.832 3.1194 -0.257343 0
M  V30 4600 C 456.307 4.53875 -0.613297 0
M  V30 4601 N 457.798 4.5974 -0.565134 0
M  V30 4602 C 458.533 5.67603 -0.81326 0
M  V30 4603 N 458.029 6.83582 -1.1264 0
M  V30 4604 N 459.822 5.57187 -0.741553 0
M  V30 4605 H 451.973 1.72458 -1.23984 0
M  V30 4606 H 454.236 0.804549 -0.501403 0
M  V30 4607 H 453.942 3.25516 -1.33163 0
M  V30 4608 H 453.816 3.75616 0.345366 0
M  V30 4609 H 456.203 2.85281 0.754905 0
M  V30 4610 H 456.284 2.37618 -0.947178 0
M  V30 4611 H 455.928 4.81261 -1.62327 0
M  V30 4612 H 455.858 5.26508 0.09841 0
M  V30 4613 H 458.349 3.76427 -0.333294 0
M  V30 4614 H 458.662 7.6175 -1.30219 0
M  V30 4615 H 457.007 6.85179 -1.16425 0
M  V30 4616 H 460.198 4.65457 -0.496705 0
M  V30 4617 H 460.371 6.41171 -0.938306 0
M  V30 4618 N 453.777 0.010035 1.57597 0
M  V30 4619 C 455.188 -0.531426 1.78977 0
M  V30 4620 C 455.539 -1.73375 0.918454 0
M  V30 4621 O 454.664 -2.16047 0.123635 0
M  V30 4622 C 455.259 -0.97086 3.24592 0
M  V30 4623 C 453.818 -1.45756 3.47033 0
M  V30 4624 C 452.965 -0.413384 2.74201 0
M  V30 4625 H 455.916 0.236166 1.56933 0
M  V30 4626 H 455.937 -1.83633 3.33255 0
M  V30 4627 H 455.449 -0.0955893 3.87982 0
M  V30 4628 H 453.55 -2.35339 2.88871 0
M  V30 4629 H 453.663 -1.4781 4.55729 0
M  V30 4630 H 452.027 -0.877266 2.39115 0
M  V30 4631 H 452.81 0.453092 3.40297 0
M  V30 4632 N 455.255 -1.55392 -0.262866 0
M  V30 4633 C 456.218 -1.88181 -1.30846 0
M  V30 4634 C 457.218 -0.757079 -1.41862 0
M  V30 4635 O 458.408 -1.02519 -1.40838 0
M  V30 4636 C 455.54 -2.09609 -2.68844 0
M  V30 4637 H 456.733 -2.81659 -1.02997 0
M  V30 4638 H 454.286 -1.48039 -0.501414 0
M  V30 4639 H 455.021 -1.18547 -3.01856 0
M  V30 4640 H 454.806 -2.91508 -2.62231 0
M  V30 4641 H 456.296 -2.36215 -3.44372 0
M  V30 4642 N 456.733 0.527833 -1.48498 0
M  V30 4643 C 457.665 1.6482 -1.5927 0
M  V30 4644 C 458.678 1.55659 -0.476869 0
M  V30 4645 O 459.867 1.62081 -0.747806 0
M  V30 4646 C 456.967 3.0348 -1.50842 0
M  V30 4647 C 456.14 3.381 -2.77502 0
M  V30 4648 C 455.199 4.5605 -2.62497 0
M  V30 4649 O 454.225 4.59165 -3.36387 0
M  V30 4650 N 455.427 5.54353 -1.72257 0
M  V30 4651 H 458.192 1.56015 -2.55889 0
M  V30 4652 H 455.753 0.715152 -1.45249 0
M  V30 4653 H 457.745 3.80264 -1.38496 0
M  V30 4654 H 456.315 3.06352 -0.621887 0
M  V30 4655 H 455.535 2.50473 -3.04396 0
M  V30 4656 H 456.823 3.58017 -3.61527 0
M  V30 4657 H 456.221 5.54617 -1.11431 0
M  V30 4658 H 454.778 6.30347 -1.65849 0
M  V30 4659 N 458.211 1.37122 0.776871 0
M  V30 4660 C 459.457 1.32243 1.53752 0
M  V30 4661 C 459.79 -0.0944745 1.9397 0
M  V30 4662 O 459.065 -1.05068 1.6368 0
M  V30 4663 C 459.348 2.25681 2.80607 0
M  V30 4664 C 459.201 3.76127 2.46676 0
M  V30 4665 C 460.52 2.17657 3.82509 0
M  V30 4666 H 457.639 0.481704 0.557791 0
M  V30 4667 H 460.281 1.6778 0.891612 0
M  V30 4668 H 458.431 1.95505 3.35723 0
M  V30 4669 H 460.103 4.16877 1.97513 0
M  V30 4670 H 458.346 3.94946 1.79443 0
M  V30 4671 H 459.017 4.36933 3.37333 0
M  V30 4672 H 461.493 2.44245 3.36873 0
M  V30 4673 H 460.369 2.85185 4.69 0
M  V30 4674 H 460.63 1.16785 4.26396 0
M  V30 4675 N 459.689 -1.00246 1.21608 0
M  V30 4676 C 460.619 -2.10921 1.00172 0
M  V30 4677 C 461.6 -1.69938 -0.0741587 0
M  V30 4678 O 462.785 -1.94009 0.0861753 0
M  V30 4679 C 459.915 -3.42618 0.568355 0
M  V30 4680 C 458.869 -3.97407 1.58909 0
M  V30 4681 C 458.195 -5.25038 1.01187 0
M  V30 4682 C 459.495 -4.2918 2.97661 0
M  V30 4683 H 461.189 -2.29112 1.92739 0
M  V30 4684 H 458.735 -1.10101 0.928102 0
M  V30 4685 H 460.688 -4.19444 0.405555 0
M  V30 4686 H 459.412 -3.24227 -0.392961 0
M  V30 4687 H 458.071 -3.22703 1.73949 0
M  V30 4688 H 457.719 -5.02982 0.0421965 0
M  V30 4689 H 457.419 -5.62661 1.6937 0
M  V30 4690 H 458.943 -6.04507 0.860448 0
M  V30 4691 H 460.357 -4.96839 2.86049 0
M  V30 4692 H 458.754 -4.77952 3.6288 0
M  V30 4693 H 459.824 -3.3735 3.48315 0
M  V30 4694 N 461.167 -1.02423 -1.1978 0
M  V30 4695 C 462.413 -0.719051 -1.89625 0
M  V30 4696 C 462.746 0.750083 -1.7913 0
M  V30 4697 O 462.021 1.54574 -1.18056 0
M  V30 4698 C 462.304 -1.16499 -3.40735 0
M  V30 4699 C 462.157 -2.695 -3.60125 0
M  V30 4700 C 463.476 -0.742166 -4.33797 0
M  V30 4701 H 460.595 -0.26269 -0.688595 0
M  V30 4702 H 463.237 -1.27333 -1.41018 0
M  V30 4703 H 461.387 -0.69341 -3.82262 0
M  V30 4704 H 463.059 -3.24569 -3.278 0
M  V30 4705 H 461.302 -3.10113 -3.03336 0
M  V30 4706 H 461.973 -2.95757 -4.66081 0
M  V30 4707 H 464.449 -1.1477 -3.99959 0
M  V30 4708 H 463.325 -1.08213 -5.38127 0
M  V30 4709 H 463.586 0.355747 -4.40666 0
M  V30 4710 N 462.645 1.35699 -0.801477 0
M  V30 4711 C 463.593 2.3177 -0.196317 0
M  V30 4712 C 464.587 1.56388 0.651081 0
M  V30 4713 O 465.793 1.71557 0.544815 0
M  V30 4714 H 462.168 0.750669 -0.0447189 0
M  V30 4715 H 464.139 2.8036 -1.02181 0
M  V30 4716 C 462.888 3.41671 0.644702 0
M  V30 4717 H 462.211 3.998 0.0019921 0
M  V30 4718 H 463.651 4.11184 1.0346 0
M  V30 4719 C 462.11 2.84271 1.80808 0
M  V30 4720 O 462.64 2.77408 2.9053 0
M  V30 4721 N 460.846 2.41391 1.61799 0
M  V30 4722 H 460.393 2.47173 0.725493 0
M  V30 4723 H 460.351 2.03334 2.39797 0
M  V30 4724 N 464.123 0.554532 1.47522 0
M  V30 4725 C 465.073 -0.215008 2.26984 0
M  V30 4726 C 466.057 -0.88774 1.34194 0
M  V30 4727 O 467.249 -0.786489 1.58567 0
M  V30 4728 C 464.378 -1.24604 3.19889 0
M  V30 4729 C 463.464 -0.576857 4.20159 0
M  V30 4730 N 463.855 0.351541 5.04577 0
M  V30 4731 C 462.153 -0.831104 4.38188 0
M  V30 4732 C 462.854 0.739995 5.76974 0
M  V30 4733 N 461.83 0.0954407 5.43516 0
M  V30 4734 H 465.632 0.498843 2.89636 0
M  V30 4735 H 463.146 0.374279 1.58028 0
M  V30 4736 H 465.143 -1.81128 3.75498 0
M  V30 4737 H 463.803 -1.96101 2.58794 0
M  V30 4738 H 464.814 0.725556 5.12792 0
M  V30 4739 H 461.491 -1.53479 3.88266 0
M  V30 4740 H 462.881 1.50271 6.5488 0
M  V30 4741 N 465.601 -1.54893 0.290851 0
M  V30 4742 C 466.511 -2.26812 -0.59945 0
M  V30 4743 C 467.527 -1.29963 -1.15696 0
M  V30 4744 O 468.703 -1.62928 -1.18391 0
M  V30 4745 C 465.768 -2.98716 -1.75982 0
M  V30 4746 C 464.829 -4.1108 -1.2374 0
M  V30 4747 C 464.062 -4.79546 -2.34246 0
M  V30 4748 O 464.285 -4.47309 -3.53936 0
M  V30 4749 O 463.219 -5.67165 -2.01512 0
M  V30 4750 H 467.045 -3.03696 -0.0163561 0
M  V30 4751 H 464.63 -1.49289 0.0576755 0
M  V30 4752 H 466.512 -3.43851 -2.43607 0
M  V30 4753 H 465.187 -2.24737 -2.3297 0
M  V30 4754 H 464.094 -3.70367 -0.527163 0
M  V30 4755 H 465.427 -4.87007 -0.71307 0
M  V30 4756 N 467.08 -0.0183926 -1.57589 0
M  V30 4757 C 468.326 0.657813 -1.92469 0
M  V30 4758 C 468.681 1.70349 -0.894375 0
M  V30 4759 O 467.974 1.91384 0.0910389 0
M  V30 4760 C 468.168 1.32676 -3.31861 0
M  V30 4761 C 467.997 0.347403 -4.48356 0
M  V30 4762 C 466.767 -0.0488653 -5.05276 0
M  V30 4763 C 468.965 -0.393931 -5.12789 0
M  V30 4764 N 466.947 -1.02451 -6.05291 0
M  V30 4765 C 468.318 -1.22367 -6.07804 0
M  V30 4766 C 470.373 -0.455789 -4.95809 0
M  V30 4767 C 469.076 -2.10966 -6.87667 0
M  V30 4768 C 471.102 -1.32908 -5.76272 0
M  V30 4769 C 470.464 -2.14662 -6.70894 0
M  V30 4770 H 466.563 0.21335 -0.752334 0
M  V30 4771 H 469.147 -0.0830547 -1.94523 0
M  V30 4772 H 467.318 2.03782 -3.30647 0
M  V30 4773 H 469.05 1.95913 -3.54119 0
M  V30 4774 H 465.805 0.323356 -4.72495 0
M  V30 4775 H 466.229 -1.50826 -6.59985 0
M  V30 4776 H 470.871 0.162017 -4.22489 0
M  V30 4777 H 468.589 -2.73807 -7.603 0
M  V30 4778 H 472.175 -1.38109 -5.6517 0
M  V30 4779 H 471.055 -2.81143 -7.32071 0
M  V30 4780 N 468.558 1.5553 0.254621 0
M  V30 4781 C 469.508 1.86057 1.31783 0
M  V30 4782 C 470.492 0.720827 1.4385 0
M  V30 4783 O 471.684 0.982586 1.47222 0
M  V30 4784 C 468.813 2.15203 2.67475 0
M  V30 4785 C 467.899 3.35484 2.59444 0
M  V30 4786 N 468.29 4.54945 2.2104 0
M  V30 4787 C 466.588 3.38441 2.90472 0
M  V30 4788 C 467.289 5.3707 2.23453 0
M  V30 4789 N 466.265 4.75936 2.62652 0
M  V30 4790 H 470.067 2.75953 1.01129 0
M  V30 4791 H 467.581 1.55653 0.463255 0
M  V30 4792 H 469.578 2.35235 3.44195 0
M  V30 4793 H 468.238 1.26601 2.99002 0
M  V30 4794 H 469.249 4.8071 1.92712 0
M  V30 4795 H 465.926 2.60087 3.2659 0
M  V30 4796 H 467.316 6.42626 1.96166 0
M  V30 4797 N 470.036 -0.519951 1.48776 0
M  V30 4798 C 471.282 -1.27711 1.57536 0
M  V30 4799 C 471.615 -1.92547 0.252866 0
M  V30 4800 O 470.89 -1.7979 -0.742021 0
M  V30 4801 C 471.173 -2.35875 2.72094 0
M  V30 4802 C 471.026 -1.75664 4.1408 0
M  V30 4803 C 472.345 -3.37575 2.82367 0
M  V30 4804 H 469.464 -0.462971 0.573434 0
M  V30 4805 H 472.106 -0.578194 1.80989 0
M  V30 4806 H 470.256 -2.95488 2.52228 0
M  V30 4807 H 471.928 -1.20025 4.45412 0
M  V30 4808 H 470.171 -1.06154 4.20611 0
M  V30 4809 H 470.842 -2.54029 4.90075 0
M  V30 4810 H 473.318 -2.87929 3.00393 0
M  V30 4811 H 472.194 -4.1064 3.64233 0
M  V30 4812 H 472.455 -3.98743 1.90936 0
M  V30 4813 N 471.514 -1.37532 -0.769588 0
M  V30 4814 C 472.444 -1.36172 -1.89682 0
M  V30 4815 C 473.425 -0.23001 -1.68538 0
M  V30 4816 O 474.61 -0.43069 -1.89364 0
M  V30 4817 C 471.74 -1.1701 -3.26995 0
M  V30 4818 C 470.694 -2.27216 -3.62708 0
M  V30 4819 C 470.02 -1.93174 -4.98586 0
M  V30 4820 C 471.32 -3.6941 -3.69234 0
M  V30 4821 H 473.014 -2.30499 -1.91078 0
M  V30 4822 H 470.56 -1.10953 -0.917902 0
M  V30 4823 H 472.513 -1.14688 -4.05493 0
M  V30 4824 H 471.237 -0.191395 -3.26039 0
M  V30 4825 H 469.896 -2.28697 -2.86519 0
M  V30 4826 H 469.544 -0.938281 -4.94171 0
M  V30 4827 H 469.244 -2.66973 -5.23449 0
M  V30 4828 H 470.768 -1.92443 -5.79481 0
M  V30 4829 H 472.182 -3.70047 -4.37879 0
M  V30 4830 H 470.579 -4.4228 -4.05597 0
M  V30 4831 H 471.649 -4.0288 -2.69844 0
M  V30 4832 N 472.992 0.995999 -1.22138 0
M  V30 4833 C 474.403 1.54961 -1.04135 0
M  V30 4834 C 474.754 1.92159 0.396147 0
M  V30 4835 O 473.879 1.74435 1.28069 0
M  V30 4836 C 474.474 2.81581 -1.88408 0
M  V30 4837 C 473.033 3.33396 -1.74712 0
M  V30 4838 C 472.18 2.06509 -1.85066 0
M  V30 4839 H 475.131 0.817436 -1.36028 0
M  V30 4840 H 475.152 3.53822 -1.39966 0
M  V30 4841 H 474.664 2.54476 -2.93025 0
M  V30 4842 H 472.765 3.65416 -0.728159 0
M  V30 4843 H 472.878 4.04208 -2.57202 0
M  V30 4844 H 471.242 2.19925 -1.28472 0
M  V30 4845 H 472.025 1.81804 -2.91208 0
M  V30 4846 N 474.47 1.03057 1.19235 0
M  V30 4847 C 475.402 0.570932 2.21975 0
M  V30 4848 C 476.415 -0.354088 1.58903 0
M  V30 4849 O 477.604 -0.150211 1.77867 0
M  V30 4850 C 474.704 -0.187152 3.38383 0
M  V30 4851 C 473.877 0.743231 4.31039 0
M  V30 4852 C 472.936 0.0302493 5.26191 0
M  V30 4853 O 471.962 0.657371 5.65391 0
M  V30 4854 N 473.164 -1.23991 5.67104 0
M  V30 4855 H 475.929 1.45456 2.62036 0
M  V30 4856 H 473.49 0.909807 1.33918 0
M  V30 4857 H 475.482 -0.673715 3.99053 0
M  V30 4858 H 474.052 -0.972205 2.97098 0
M  V30 4859 H 473.272 1.40985 3.68126 0
M  V30 4860 H 474.56 1.3755 4.89854 0
M  V30 4861 H 473.958 -1.77011 5.37293 0
M  V30 4862 H 472.515 -1.67093 6.30018 0
M  V30 4863 N 475.948 -1.35272 0.808662 0
M  V30 4864 C 476.858 -2.33546 0.222079 0
M  V30 4865 C 477.874 -1.6196 -0.636011 0
M  V30 4866 O 479.05 -1.93822 -0.547274 0
M  V30 4867 C 476.115 -3.41148 -0.61795 0
M  V30 4868 C 475.176 -4.28507 0.260875 0
M  V30 4869 C 474.409 -5.3097 -0.539156 0
M  V30 4870 O 474.632 -5.42123 -1.77367 0
M  V30 4871 O 473.566 -6.01858 0.0710526 0
M  V30 4872 H 477.392 -2.85515 1.03512 0
M  V30 4873 H 474.977 -1.38079 0.570495 0
M  V30 4874 H 476.859 -4.06889 -1.09634 0
M  V30 4875 H 475.534 -2.91447 -1.40855 0
M  V30 4876 H 474.441 -3.6574 0.786451 0
M  V30 4877 H 475.774 -4.81611 1.01547 0
M  V30 4878 N 477.426 -0.562348 -1.47226 0
M  V30 4879 C 478.651 -0.0432632 -2.07355 0
M  V30 4880 C 479.076 1.24332 -1.41149 0
M  V30 4881 O 478.434 1.74603 -0.488226 0
M  V30 4882 C 478.482 0.130288 -3.60365 0
M  V30 4883 O 477.586 1.19166 -3.94808 0
M  V30 4884 H 476.927 -0.0536334 -0.66183 0
M  V30 4885 H 479.457 -0.779495 -1.89169 0
M  V30 4886 H 479.467 0.342881 -4.06557 0
M  V30 4887 H 478.142 -0.809389 -4.07948 0
M  V30 4888 H 476.719 0.959153 -3.60354 0
M  V30 4889 N 478.904 1.54736 -0.299062 0
M  V30 4890 C 480.15 2.00397 0.311244 0
M  V30 4891 C 480.483 1.18716 1.53688 0
M  V30 4892 O 479.758 0.263154 1.92712 0
M  V30 4893 C 480.041 3.53817 0.669761 0
M  V30 4894 C 479.894 4.46239 -0.564882 0
M  V30 4895 C 481.213 4.13856 1.49702 0
M  V30 4896 H 478.332 0.728493 0.111653 0
M  V30 4897 H 480.974 1.85506 -0.410774 0
M  V30 4898 H 479.124 3.66637 1.28491 0
M  V30 4899 H 480.796 4.45328 -1.20337 0
M  V30 4900 H 479.039 4.16916 -1.19849 0
M  V30 4901 H 479.71 5.5134 -0.269918 0
M  V30 4902 H 482.186 4.04461 0.977284 0
M  V30 4903 H 481.062 5.21365 1.71666 0
M  V30 4904 H 481.323 3.65608 2.48563 0
M  V30 4905 N 480.382 0.0267497 1.57577 0
M  V30 4906 C 481.629 -0.652404 1.91703 0
M  V30 4907 C 481.957 -1.72271 0.902936 0
M  V30 4908 O 481.212 -1.955 -0.0884843 0
M  V30 4909 C 481.511 -1.30914 3.3256 0
M  V30 4910 C 481.177 -0.369441 4.49384 0
M  V30 4911 C 479.839 -0.110791 4.81072 0
M  V30 4912 C 482.191 0.275971 5.20469 0
M  V30 4913 C 479.519 0.801116 5.81205 0
M  V30 4914 C 481.871 1.17592 6.21575 0
M  V30 4915 C 480.535 1.44348 6.51705 0
M  V30 4916 H 479.805 -0.238732 0.70149 0
M  V30 4917 H 482.452 0.0880091 1.91298 0
M  V30 4918 H 480.757 -2.12425 3.29216 0
M  V30 4919 H 482.454 -1.84115 3.56234 0
M  V30 4920 H 479.044 -0.581211 4.24641 0
M  V30 4921 H 483.228 0.0892 4.9622 0
M  V30 4922 H 478.484 1.01614 6.02897 0
M  V30 4923 H 482.658 1.68223 6.75777 0
M  V30 4924 H 480.285 2.15176 7.29111 0
M  V30 4925 N 481.861 -1.55662 -0.24637 0
M  V30 4926 C 483.277 -1.48098 -0.594907 0
M  V30 4927 C 483.477 -0.717044 -1.8831 0
M  V30 4928 O 482.533 -0.246618 -2.51293 0
M  V30 4929 C 483.846 -2.92507 -0.697146 0
M  V30 4930 C 485.394 -3.02881 -0.789436 0
M  V30 4931 C 485.869 -4.48598 -0.923232 0
M  V30 4932 N 487.36 -4.52538 -0.988088 0
M  V30 4933 C 488.095 -5.62536 -1.11089 0
M  V30 4934 N 487.591 -6.82342 -1.19919 0
M  V30 4935 N 489.384 -5.50334 -1.14408 0
M  V30 4936 H 481.535 -2.0377 0.599278 0
M  V30 4937 H 483.798 -0.925145 0.20691 0
M  V30 4938 H 483.504 -3.51242 0.179396 0
M  V30 4939 H 483.378 -3.43024 -1.5689 0
M  V30 4940 H 485.765 -2.44226 -1.65643 0
M  V30 4941 H 485.846 -2.55574 0.107482 0
M  V30 4942 H 485.49 -5.07864 -0.0607927 0
M  V30 4943 H 485.42 -4.93587 -1.8352 0
M  V30 4944 H 487.911 -3.66248 -0.931167 0
M  V30 4945 H 488.224 -7.61924 -1.29197 0
M  V30 4946 H 486.569 -6.85102 -1.16876 0
M  V30 4947 H 489.76 -4.5567 -1.07158 0
M  V30 4948 H 489.933 -6.36096 -1.23634 0
M  V30 4949 N 483.339 0.512053 -1.4905 0
M  V30 4950 C 484.586 1.26686 -1.57978 0
M  V30 4951 C 484.914 1.92733 -0.261553 0
M  V30 4952 O 484.169 1.80772 0.749667 0
M  V30 4953 C 484.468 2.36446 -2.68008 0
M  V30 4954 C 484.134 1.87932 -4.09869 0
M  V30 4955 C 482.796 1.74419 -4.48477 0
M  V30 4956 C 485.148 1.5149 -4.98698 0
M  V30 4957 C 482.476 1.22827 -5.73699 0
M  V30 4958 C 484.828 1.01355 -6.24428 0
M  V30 4959 C 483.492 0.864735 -6.61875 0
M  V30 4960 H 482.762 0.463577 -0.578081 0
M  V30 4961 H 485.409 0.569421 -1.82838 0
M  V30 4962 H 483.714 3.11933 -2.37076 0
M  V30 4963 H 485.411 2.9453 -2.72127 0
M  V30 4964 H 482.001 1.99405 -3.79389 0
M  V30 4965 H 486.185 1.60782 -4.69535 0
M  V30 4966 H 481.441 1.10008 -6.01422 0
M  V30 4967 H 485.615 0.722351 -6.92644 0
M  V30 4968 H 483.242 0.462777 -7.5879 0
M  V30 4969 N 484.817 1.37938 0.762283 0
M  V30 4970 C 486.042 1.37059 1.55659 0
M  V30 4971 C 486.467 -0.0396123 1.88058 0
M  V30 4972 O 485.825 -1.01929 1.49934 0
M  V30 4973 C 485.873 2.22494 2.83776 0
M  V30 4974 O 484.977 1.63607 3.78559 0
M  V30 4975 H 484.318 0.467892 0.47114 0
M  V30 4976 H 486.848 1.81587 0.942725 0
M  V30 4977 H 486.858 2.36045 3.32786 0
M  V30 4978 H 485.533 3.24993 2.59524 0
M  V30 4979 H 484.11 1.5915 3.37233 0
M  V30 4980 N 486.295 -0.989507 1.22664 0
M  V30 4981 C 487.542 -1.72953 1.05325 0
M  V30 4982 C 487.87 -1.90104 -0.411168 0
M  V30 4983 O 487.125 -1.44386 -1.32103 0
M  V30 4984 C 487.424 -3.13649 1.71345 0
M  V30 4985 C 487.09 -3.16403 3.21248 0
M  V30 4986 C 485.752 -3.16862 3.62149 0
M  V30 4987 C 488.104 -3.12428 4.17179 0
M  V30 4988 C 485.432 -3.11051 4.97458 0
M  V30 4989 C 487.784 -3.08159 5.52468 0
M  V30 4990 C 486.448 -3.06935 5.92746 0
M  V30 4991 H 485.718 -0.632881 0.385412 0
M  V30 4992 H 488.365 -1.15863 1.52473 0
M  V30 4993 H 486.67 -3.74069 1.16532 0
M  V30 4994 H 488.367 -3.69658 1.55416 0
M  V30 4995 H 484.957 -3.16798 2.88682 0
M  V30 4996 H 489.141 -3.11221 3.86595 0
M  V30 4997 H 484.397 -3.0845 5.27891 0
M  V30 4998 H 488.571 -3.04039 6.26525 0
M  V30 4999 H 486.198 -3.02186 6.97558 0
M  V30 5000 N 487.773 -1.03688 -1.18687 0
M  V30 5001 C 489.019 -0.739123 -1.88851 0
M  V30 5002 C 489.352 0.731042 -1.79915 0
M  V30 5003 O 488.627 1.53313 -1.19688 0
M  V30 5004 C 488.91 -1.20106 -3.3948 0
M  V30 5005 C 488.763 -2.73304 -3.57246 0
M  V30 5006 C 490.082 -0.788134 -4.32986 0
M  V30 5007 H 487.201 -0.269978 -0.68577 0
M  V30 5008 H 489.843 -1.28822 -1.3966 0
M  V30 5009 H 487.993 -0.733915 -3.81505 0
M  V30 5010 H 489.665 -3.28027 -3.24339 0
M  V30 5011 H 487.908 -3.13313 -3.00029 0
M  V30 5012 H 488.579 -3.00684 -4.62918 0
M  V30 5013 H 491.055 -1.19005 -3.98719 0
M  V30 5014 H 489.931 -1.13915 -5.36949 0
M  V30 5015 H 490.192 0.308988 -4.41019 0
M  V30 5016 N 489.251 1.34841 -0.815825 0
M  V30 5017 C 490.662 1.80937 -0.46029 0
M  V30 5018 C 491.013 1.67685 1.01863 0
M  V30 5019 O 490.138 1.21277 1.79223 0
M  V30 5020 C 490.733 3.28509 -0.828708 0
M  V30 5021 C 489.292 3.72712 -0.525644 0
M  V30 5022 C 488.439 2.56676 -1.04941 0
M  V30 5023 H 491.39 1.22688 -1.00664 0
M  V30 5024 H 491.411 3.80279 -0.129757 0
M  V30 5025 H 490.923 3.38122 -1.90513 0
M  V30 5026 H 489.024 3.68642 0.541666 0
M  V30 5027 H 489.137 4.67119 -1.06474 0
M  V30 5028 H 487.501 2.50302 -0.471286 0
M  V30 5029 H 488.284 2.69063 -2.13214 0
M  V30 5030 N 490.729 0.570148 1.46925 0
M  V30 5031 C 491.975 0.0510284 2.02736 0
M  V30 5032 C 492.308 -1.3006 1.44215 0
M  V30 5033 O 491.583 -1.84932 0.602521 0
M  V30 5034 C 491.866 -0.028215 3.60089 0
M  V30 5035 C 491.719 1.35142 4.29018 0
M  V30 5036 C 493.038 -0.735181 4.33916 0
M  V30 5037 H 490.157 0.0200178 0.736728 0
M  V30 5038 H 492.799 0.73493 1.75211 0
M  V30 5039 H 490.949 -0.610648 3.83671 0
M  V30 5040 H 492.621 1.97806 4.16738 0
M  V30 5041 H 490.864 1.9226 3.88868 0
M  V30 5042 H 491.535 1.24857 5.37694 0
M  V30 5043 H 494.011 -0.240519 4.15404 0
M  V30 5044 H 492.887 -0.759622 5.43618 0
M  V30 5045 H 493.148 -1.79397 4.04066 0
M  V30 5046 N 492.207 -1.54576 0.307264 0
M  V30 5047 C 493.453 -2.0056 -0.300612 0
M  V30 5048 C 493.786 -1.1953 -1.53057 0
M  V30 5049 O 493.061 -0.27337 -1.92569 0
M  V30 5050 C 493.344 -3.54167 -0.650987 0
M  V30 5051 C 493.197 -4.45933 0.588539 0
M  V30 5052 C 494.516 -4.14645 -1.47506 0
M  V30 5053 H 491.635 -0.729075 -0.107788 0
M  V30 5054 H 494.277 -1.85286 0.420606 0
M  V30 5055 H 492.427 -3.67313 -1.26544 0
M  V30 5056 H 494.099 -4.44683 1.22697 0
M  V30 5057 H 492.342 -4.16274 1.22058 0
M  V30 5058 H 493.013 -5.51189 0.299153 0
M  V30 5059 H 495.489 -4.04973 -0.955821 0
M  V30 5060 H 494.365 -5.22269 -1.68899 0
M  V30 5061 H 494.626 -3.66921 -2.4662 0
M  V30 5062 N 493.685 -0.035106 -1.57561 0
M  V30 5063 C 494.962 0.681212 -1.83354 0
M  V30 5064 C 495.342 1.89986 -0.920252 0
M  V30 5065 O 494.69 2.28489 0.0226815 0
M  V30 5066 C 494.9 1.05376 -3.32712 0
M  V30 5067 C 496.248 1.44286 -3.99333 0
M  V30 5068 O 497.272 1.14656 -3.37242 0
M  V30 5069 O 496.131 1.99518 -5.08778 0
M  V30 5070 H 493.225 0.334741 -0.756226 0
M  V30 5071 H 495.771 -0.0632448 -1.69582 0
M  V30 5072 H 494.543 0.186668 -3.90854 0
M  V30 5073 H 494.166 1.85619 -3.51613 0
M  V30 5074 N 495.163 1.55791 0.238111 0
M  V30 5075 C 496.411 1.77681 0.963001 0
M  V30 5076 C 496.732 0.600674 1.85518 0
M  V30 5077 O 496.002 -0.383182 1.92116 0
M  V30 5078 H 494.582 0.655315 0.358568 0
M  V30 5079 H 497.244 1.93239 0.253945 0
M  V30 5080 H 496.34 2.69177 1.57956 0
M  V30 5081 N 496.642 -0.504142 1.49319 0
M  V30 5082 C 497.919 -1.26548 1.49147 0
M  V30 5083 C 498.299 -2.09977 0.21744 0
M  V30 5084 O 497.647 -2.14028 -0.800269 0
M  V30 5085 C 497.857 -2.12489 2.76857 0
M  V30 5086 C 499.205 -2.7178 3.26222 0
M  V30 5087 O 500.229 -2.22758 2.77952 0
M  V30 5088 O 499.088 -3.61015 4.10281 0
M  V30 5089 H 496.182 -0.572495 0.596806 0
M  V30 5090 H 498.728 -0.51867 1.61579 0
M  V30 5091 H 497.5 -1.50796 3.61077 0
M  V30 5092 H 497.123 -2.94368 2.6727 0
M  V30 5093 N 498.12 -1.38341 -0.754957 0
M  V30 5094 C 499.367 -1.34473 -1.51404 0
M  V30 5095 C 499.695 0.0656458 -1.94389 0
M  V30 5096 O 498.95 1.04244 -1.65625 0
M  V30 5097 C 499.249 -2.2452 -2.78075 0
M  V30 5098 C 498.915 -3.72512 -2.54059 0
M  V30 5099 C 497.577 -4.1284 -2.47218 0
M  V30 5100 C 499.929 -4.66197 -2.33044 0
M  V30 5101 C 497.257 -5.44945 -2.17376 0
M  V30 5102 C 499.609 -5.98558 -2.04723 0
M  V30 5103 C 498.273 -6.37972 -1.96337 0
M  V30 5104 H 497.543 -0.492072 -0.554027 0
M  V30 5105 H 500.19 -1.70687 -0.868223 0
M  V30 5106 H 498.495 -1.81357 -3.473 0
M  V30 5107 H 500.192 -2.18832 -3.36026 0
M  V30 5108 H 496.782 -3.40538 -2.60253 0
M  V30 5109 H 500.966 -4.35888 -2.37309 0
M  V30 5110 H 496.222 -5.74426 -2.09391 0
M  V30 5111 H 500.396 -6.70693 -1.87465 0
M  V30 5112 H 498.023 -7.40258 -1.72978 0
M  V30 5113 N 499.598 0.982988 -1.23187 0
M  V30 5114 C 500.528 2.09301 -1.03515 0
M  V30 5115 C 501.509 1.70035 0.0471136 0
M  V30 5116 O 502.694 1.93847 -0.117029 0
M  V30 5117 C 499.824 3.4167 -0.622791 0
M  V30 5118 C 498.778 3.94828 -1.65211 0
M  V30 5119 C 498.104 5.23362 -1.09527 0
M  V30 5120 C 499.404 4.2439 -3.04451 0
M  V30 5121 H 501.098 2.26016 -1.96359 0
M  V30 5122 H 498.644 1.08611 -0.945501 0
M  V30 5123 H 500.597 4.18746 -0.472233 0
M  V30 5124 H 499.321 3.24811 0.341329 0
M  V30 5125 H 497.98 3.19895 -1.79061 0
M  V30 5126 H 497.628 5.02852 -0.122211 0
M  V30 5127 H 497.328 5.59895 -1.783 0
M  V30 5128 H 498.852 6.03062 -0.956511 0
M  V30 5129 H 500.266 4.92225 -2.93917 0
M  V30 5130 H 498.663 4.72118 -3.70438 0
M  V30 5131 H 499.733 3.31765 -3.53638 0
M  V30 5132 N 501.076 1.04316 1.18135 0
M  V30 5133 C 502.301 0.768047 1.92655 0
M  V30 5134 C 502.726 -0.66904 1.758 0
M  V30 5135 O 502.084 -1.46372 1.06981 0
M  V30 5136 C 502.132 1.14239 3.42026 0
M  V30 5137 O 501.236 0.269333 4.1152 0
M  V30 5138 H 500.577 0.282436 0.600937 0
M  V30 5139 H 503.107 1.39367 1.49793 0
M  V30 5140 H 503.117 1.10538 3.92741 0
M  V30 5141 H 501.792 2.18928 3.53615 0
M  V30 5142 H 500.369 0.366175 3.71098 0
M  V30 5143 N 502.554 -1.34406 0.822964 0
M  V30 5144 C 503.831 -1.92733 0.333641 0
M  V30 5145 C 504.211 -1.75107 -1.17901 0
M  V30 5146 O 503.559 -1.12983 -1.98613 0
M  V30 5147 C 503.769 -3.40557 0.763023 0
M  V30 5148 C 505.117 -4.17709 0.761879 0
M  V30 5149 O 506.141 -3.49141 0.705606 0
M  V30 5150 O 505 -5.40082 0.835109 0
M  V30 5151 H 502.094 -0.821964 0.0911249 0
M  V30 5152 H 504.64 -1.4338 0.907757 0
M  V30 5153 H 503.412 -3.47187 1.8049 0
M  V30 5154 H 503.035 -3.97259 0.164605 0
M  V30 5155 N 504.032 -0.577932 -1.46621 0
M  V30 5156 C 505.26 -0.0671642 -2.06791 0
M  V30 5157 C 505.675 1.23571 -1.42743 0
M  V30 5158 O 505.032 1.74602 -0.531062 0
M  V30 5159 C 505.083 0.110357 -3.61332 0
M  V30 5160 O 504.804 -1.14095 -4.22982 0
M  V30 5161 C 506.305 0.656025 -4.38419 0
M  V30 5162 H 503.525 -0.0552732 -0.66872 0
M  V30 5163 H 506.069 -0.797242 -1.8832 0
M  V30 5164 H 504.224 0.790637 -3.79246 0
M  V30 5165 H 504.638 -0.951742 -5.15793 0
M  V30 5166 H 506.112 0.729438 -5.47159 0
M  V30 5167 H 506.589 1.67195 -4.06131 0
M  V30 5168 H 507.195 0.0107692 -4.25299 0
M  V30 5169 N 505.51 1.54411 -0.315457 0
M  V30 5170 C 506.921 1.85885 0.174265 0
M  V30 5171 C 507.272 1.23723 1.52273 0
M  V30 5172 O 506.397 0.540246 2.09548 0
M  V30 5173 C 506.992 3.37257 0.322981 0
M  V30 5174 C 505.551 3.68711 0.756922 0
M  V30 5175 C 504.698 2.77013 -0.126195 0
M  V30 5176 H 507.649 1.49374 -0.536007 0
M  V30 5177 H 507.67 3.62539 1.15522 0
M  V30 5178 H 507.182 3.82471 -0.658602 0
M  V30 5179 H 505.283 3.29024 1.74854 0
M  V30 5180 H 505.396 4.75741 0.566291 0
M  V30 5181 H 503.76 2.51588 0.39692 0
M  V30 5182 H 504.543 3.25051 -1.1044 0
M  V30 5183 N 506.988 0.0434614 1.5754 0
M  V30 5184 C 507.898 -0.94893 2.14552 0
M  V30 5185 C 508.914 -1.34707 1.10136 0
M  V30 5186 O 510.09 -1.42557 1.42266 0
M  V30 5187 C 507.155 -2.208 2.67298 0
M  V30 5188 C 506.216 -1.86893 3.86484 0
M  V30 5189 C 505.449 -3.06797 4.36705 0
M  V30 5190 O 505.672 -4.19921 3.86034 0
M  V30 5191 O 504.606 -2.8826 5.28384 0
M  V30 5192 H 508.432 -0.494099 2.99654 0
M  V30 5193 H 506.017 -0.177989 1.48336 0
M  V30 5194 H 507.899 -2.94686 3.01228 0
M  V30 5195 H 506.574 -2.65436 1.85272 0
M  V30 5196 H 505.481 -1.10347 3.57455 0
M  V30 5197 H 506.814 -1.47062 4.69716 0
M  V30 5198 N 508.466 -1.55915 -0.229846 0
M  V30 5199 C 509.429 -1.90914 -1.26824 0
M  V30 5200 C 510.429 -0.786999 -1.40225 0
M  V30 5201 O 511.619 -1.05484 -1.38632 0
M  V30 5202 C 508.751 -2.15264 -2.64337 0
M  V30 5203 H 509.944 -2.8378 -0.969998 0
M  V30 5204 H 507.497 -1.49069 -0.4699 0
M  V30 5205 H 508.232 -1.24923 -2.99274 0
M  V30 5206 H 508.017 -2.97005 -2.55989 0
M  V30 5207 H 509.507 -2.43467 -3.39284 0
M  V30 5208 N 509.944 0.496216 -1.49584 0
M  V30 5209 C 510.874 1.60576 -1.69521 0
M  V30 5210 C 511.855 1.61169 -0.543933 0
M  V30 5211 O 513.04 1.77834 -0.78031 0
M  V30 5212 C 510.17 2.99038 -1.76616 0
M  V30 5213 C 509.124 3.13312 -2.91581 0
M  V30 5214 C 508.45 4.53172 -2.83794 0
M  V30 5215 C 509.75 2.92886 -4.32452 0
M  V30 5216 H 511.444 1.44146 -2.62416 0
M  V30 5217 H 508.99 0.692024 -1.26282 0
M  V30 5218 H 510.943 3.76564 -1.8915 0
M  V30 5219 H 509.667 3.16568 -0.80324 0
M  V30 5220 H 508.326 2.38213 -2.78658 0
M  V30 5221 H 507.974 4.67585 -1.854 0
M  V30 5222 H 507.674 4.63662 -3.60958 0
M  V30 5223 H 509.198 5.32752 -2.98342 0
M  V30 5224 H 510.612 3.60178 -4.46032 0
M  V30 5225 H 509.009 3.14844 -5.10875 0
M  V30 5226 H 510.079 1.88966 -4.46565 0
M  V30 5227 N 511.423 1.38739 0.74761 0
M  V30 5228 C 512.672 1.3459 1.50228 0
M  V30 5229 C 512.985 -0.0595592 1.95509 0
M  V30 5230 O 514.191 -0.22361 2.70578 0
M  V30 5231 C 512.647 2.36377 2.71393 0
M  V30 5232 C 512.255 3.82573 2.33113 0
M  V30 5233 C 513.999 2.41281 3.49262 0
M  V30 5234 C 511.906 4.76032 3.50924 0
M  V30 5235 H 510.836 0.500312 0.564096 0
M  V30 5236 H 513.487 1.64324 0.8167 0
M  V30 5237 H 511.869 1.99694 3.41962 0
M  V30 5238 H 513.043 4.28227 1.70171 0
M  V30 5239 H 511.358 3.80844 1.68365 0
M  V30 5240 H 513.955 3.08301 4.36869 0
M  V30 5241 H 514.298 1.43353 3.9084 0
M  V30 5242 H 514.831 2.76793 2.85711 0
M  V30 5243 H 511.57 5.75177 3.14408 0
M  V30 5244 H 511.09 4.35066 4.12889 0
M  V30 5245 H 512.769 4.94331 4.17427 0
M  V30 5246 N 512.901 -0.976442 1.23707 0
M  V30 5247 C 513.849 -2.09078 1.01927 0
M  V30 5248 C 514.843 -1.69345 -0.0430193 0
M  V30 5249 O 516.049 -1.79659 0.110814 0
M  V30 5250 H 512.424 -0.68398 0.312531 0
M  V30 5251 H 514.395 -2.24614 1.96447 0
M  V30 5252 C 513.144 -3.41919 0.631385 0
M  V30 5253 H 512.467 -3.72946 1.44053 0
M  V30 5254 H 513.907 -4.20817 0.518532 0
M  V30 5255 C 512.366 -3.30357 -0.660723 0
M  V30 5256 O 512.896 -3.63542 -1.70881 0
M  V30 5257 N 511.102 -2.83507 -0.638139 0
M  V30 5258 H 510.649 -2.567 0.215108 0
M  V30 5259 H 510.607 -2.76153 -1.50289 0
M  V30 5260 N 514.379 -1.04941 -1.1758 0
M  V30 5261 C 515.342 -0.652456 -2.19717 0
M  V30 5262 C 516.342 0.294745 -1.58076 0
M  V30 5263 O 517.532 0.0789579 -1.74021 0
M  V30 5264 C 514.664 0.0420712 -3.40874 0
M  V30 5265 H 515.857 -1.55642 -2.5635 0
M  V30 5266 H 513.41 -0.842995 -1.31618 0
M  V30 5267 H 514.145 0.95943 -3.09783 0
M  V30 5268 H 513.93 -0.638844 -3.86861 0
M  V30 5269 H 515.42 0.306 -4.16477 0
M  V30 5270 N 515.857 1.33968 -0.830081 0
M  V30 5271 C 517.105 1.97672 -0.420734 0
M  V30 5272 C 517.426 1.66111 1.02138 0
M  V30 5273 O 516.696 0.955503 1.71017 0
M  V30 5274 H 515.276 0.73125 -0.152587 0
M  V30 5275 H 517.938 1.63483 -1.0611 0
M  V30 5276 H 517.034 3.07294 -0.545588 0
M  V30 5277 N 517.335 0.585699 1.46312 0
M  V30 5278 C 518.612 0.00542031 1.95599 0
M  V30 5279 C 518.992 -1.45619 1.52834 0
M  V30 5280 O 518.34 -2.14759 0.780446 0
M  V30 5281 C 518.55 0.180601 3.48532 0
M  V30 5282 C 519.898 0.049979 4.24571 0
M  V30 5283 O 520.922 0.109589 3.56031 0
M  V30 5284 O 519.781 -0.0832226 5.46437 0
M  V30 5285 H 516.875 -0.0481281 0.825598 0
M  V30 5286 H 519.421 0.654227 1.56582 0
M  V30 5287 H 518.193 1.19657 3.72556 0
M  V30 5288 H 517.816 -0.504498 3.94386 0
M  V30 5289 N 518.813 -1.54241 0.323641 0
M  V30 5290 C 520.06 -2.0057 -0.27891 0
M  V30 5291 C 520.388 -1.21181 -1.52136 0
M  V30 5292 O 519.643 -0.282043 -1.93657 0
M  V30 5293 C 519.942 -3.5129 -0.658031 0
M  V30 5294 C 519.608 -4.48281 0.485252 0
M  V30 5295 C 518.27 -4.74519 0.799055 0
M  V30 5296 C 520.622 -5.05909 1.25322 0
M  V30 5297 C 517.95 -5.55643 1.88354 0
M  V30 5298 C 520.302 -5.88215 2.32779 0
M  V30 5299 C 518.966 -6.12755 2.64741 0
M  V30 5300 H 518.236 -0.733938 -0.10206 0
M  V30 5301 H 520.883 -1.862 0.447435 0
M  V30 5302 H 519.188 -3.63388 -1.4648 0
M  V30 5303 H 520.885 -3.84578 -1.1358 0
M  V30 5304 H 517.475 -4.27979 0.230593 0
M  V30 5305 H 521.659 -4.8562 1.02404 0
M  V30 5306 H 516.915 -5.72888 2.13564 0
M  V30 5307 H 521.089 -6.31888 2.92729 0
M  V30 5308 H 518.716 -6.75404 3.48904 0
M  V30 5309 N 520.291 -0.0518155 -1.57515 0
M  V30 5310 C 521.241 0.932017 -2.0808 0
M  V30 5311 C 522.225 1.27141 -0.986098 0
M  V30 5312 O 523.417 1.25373 -1.24943 0
M  V30 5313 C 520.546 2.20665 -2.62986 0
M  V30 5314 C 519.632 1.89462 -3.79427 0
M  V30 5315 N 520.023 1.28621 -4.89173 0
M  V30 5316 C 518.321 2.19327 -3.88345 0
M  V30 5317 C 519.022 1.15062 -5.70207 0
M  V30 5318 N 517.998 1.65372 -5.17835 0
M  V30 5319 H 521.8 0.456964 -2.90326 0
M  V30 5320 H 519.314 0.152619 -1.61681 0
M  V30 5321 H 521.311 2.92044 -2.97516 0
M  V30 5322 H 519.971 2.68776 -1.8218 0
M  V30 5323 H 520.982 0.958341 -5.08956 0
M  V30 5324 H 517.659 2.69955 -3.18482 0
M  V30 5325 H 519.049 0.678243 -6.68468 0
M  V30 5326 N 521.769 1.56035 0.221574 0
M  V30 5327 C 523.017 1.78693 0.944102 0
M  V30 5328 C 523.338 0.620317 1.8487 0
M  V30 5329 O 522.608 -0.362784 1.92512 0
M  V30 5330 H 521.188 0.659082 0.351597 0
M  V30 5331 H 523.85 1.93497 0.233435 0
M  V30 5332 H 522.946 2.70837 1.55093 0
M  V30 5333 N 523.247 -0.488276 1.49845 0
M  V30 5334 C 524.177 -1.59675 1.70371 0
M  V30 5335 C 525.158 -1.60878 0.552473 0
M  V30 5336 O 526.343 -1.77417 0.78973 0
M  V30 5337 C 523.473 -2.98098 1.782 0
M  V30 5338 C 522.427 -3.11761 2.93239 0
M  V30 5339 C 521.753 -4.51661 2.86193 0
M  V30 5340 C 523.053 -2.90589 4.33999 0
M  V30 5341 H 524.747 -1.42752 2.63177 0
M  V30 5342 H 522.293 -0.685317 1.26647 0
M  V30 5343 H 524.246 -3.75555 1.91144 0
M  V30 5344 H 522.97 -3.16138 0.820018 0
M  V30 5345 H 521.629 -2.36732 2.79917 0
M  V30 5346 H 521.277 -4.66595 1.87877 0
M  V30 5347 H 520.977 -4.61742 3.63412 0
M  V30 5348 H 522.501 -5.31162 3.01163 0
M  V30 5349 H 523.915 -3.57807 4.47936 0
M  V30 5350 H 522.312 -3.1213 5.12538 0
M  V30 5351 H 523.382 -1.86595 4.4756 0
M  V30 5352 N 524.725 -1.39134 -0.740242 0
M  V30 5353 C 525.657 -1.33332 -1.86428 0
M  V30 5354 C 526.67 -0.243042 -1.60976 0
M  V30 5355 O 527.859 -0.501608 -1.71307 0
M  V30 5356 C 524.959 -1.04626 -3.22346 0
M  V30 5357 C 524.132 -2.24826 -3.75196 0
M  V30 5358 C 523.191 -1.92659 -4.89662 0
M  V30 5359 O 522.217 -2.6529 -5.03597 0
M  V30 5360 N 523.419 -0.889575 -5.73643 0
M  V30 5361 H 526.184 -2.30196 -1.91911 0
M  V30 5362 H 523.745 -1.33168 -0.920756 0
M  V30 5363 H 525.737 -0.811347 -3.96484 0
M  V30 5364 H 524.307 -0.165129 -3.12164 0
M  V30 5365 H 523.527 -2.64301 -2.9247 0
M  V30 5366 H 524.815 -3.05015 -4.07239 0
M  V30 5367 H 524.213 -0.287529 -5.64969 0
M  V30 5368 H 522.77 -0.714557 -6.47871 0
M  V30 5369 N 526.204 0.969867 -1.24223 0
M  V30 5370 C 527.45 1.7151 -1.08223 0
M  V30 5371 C 527.783 1.90478 0.37838 0
M  V30 5372 O 527.058 1.4647 1.27971 0
M  V30 5373 C 527.341 3.10714 -1.82013 0
M  V30 5374 C 527.194 2.9925 -3.35811 0
M  V30 5375 C 528.513 4.10332 -1.59108 0
M  V30 5376 H 525.632 0.622499 -0.394543 0
M  V30 5377 H 528.274 1.1284 -1.52863 0
M  V30 5378 H 526.424 3.608 -1.44068 0
M  V30 5379 H 528.096 2.56608 -3.83341 0
M  V30 5380 H 526.339 2.35512 -3.64303 0
M  V30 5381 H 527.01 3.97857 -3.82641 0
M  V30 5382 H 529.486 3.69097 -1.92111 0
M  V30 5383 H 528.362 5.05804 -2.13198 0
M  V30 5384 H 528.623 4.38926 -0.528832 0
M  V30 5385 N 527.682 1.05563 1.17022 0
M  V30 5386 C 528.612 0.681026 2.23348 0
M  V30 5387 C 529.593 -0.322983 1.67005 0
M  V30 5388 O 530.778 -0.199746 1.9317 0
M  V30 5389 C 527.908 0.0589053 3.4725 0
M  V30 5390 C 526.862 0.988082 4.16438 0
M  V30 5391 C 526.188 0.229646 5.34207 0
M  V30 5392 C 527.488 2.31388 4.68249 0
M  V30 5393 H 529.182 1.56993 2.54938 0
M  V30 5394 H 526.728 0.756302 1.2254 0
M  V30 5395 H 528.681 -0.214982 4.20851 0
M  V30 5396 H 527.405 -0.864968 3.14938 0
M  V30 5397 H 526.064 1.24659 3.44754 0
M  V30 5398 H 525.712 -0.697111 4.98146 0
M  V30 5399 H 525.412 0.848815 5.81437 0
M  V30 5400 H 526.936 -0.0368694 6.10589 0
M  V30 5401 H 528.35 2.09964 5.33468 0
M  V30 5402 H 526.747 2.88736 5.26072 0
M  V30 5403 H 527.817 2.94982 3.84855 0
M  V30 5404 N 529.16 -1.33526 0.837174 0
M  V30 5405 C 530.406 -1.9813 0.432704 0
M  V30 5406 C 530.739 -1.66168 -1.00508 0
M  V30 5407 O 530.014 -0.94069 -1.70239 0
M  V30 5408 C 530.297 -3.54151 0.651834 0
M  V30 5409 C 530.15 -3.95806 2.13676 0
M  V30 5410 C 531.469 -4.39993 0.0968937 0
M  V30 5411 H 528.588 -0.719713 0.15869 0
M  V30 5412 H 531.23 -1.58193 1.05237 0
M  V30 5413 H 529.38 -3.88301 0.124369 0
M  V30 5414 H 531.052 -3.71921 2.72896 0
M  V30 5415 H 529.295 -3.45599 2.62191 0
M  V30 5416 H 529.966 -5.0447 2.24084 0
M  V30 5417 H 532.442 -4.12479 0.547733 0
M  V30 5418 H 531.318 -5.48186 0.279917 0
M  V30 5419 H 531.579 -4.3066 -0.9992 0
M  V30 5420 N 530.638 -0.59345 -1.46 0
M  V30 5421 C 531.886 -0.082988 -2.0193 0
M  V30 5422 C 532.207 1.28569 -1.46612 0
M  V30 5423 O 531.477 1.84629 -0.654909 0
M  V30 5424 H 530.057 -0.0276882 -0.746487 0
M  V30 5425 H 532.719 -0.771657 -1.78973 0
M  V30 5426 H 531.815 -0.022079 -3.12092 0
M  V30 5427 N 532.116 1.54067 -0.331816 0
M  V30 5428 C 533.362 2.01012 0.268667 0
M  V30 5429 C 533.695 1.2195 1.51136 0
M  V30 5430 O 532.97 0.303972 1.9211 0
M  V30 5431 C 533.253 3.55158 0.59456 0
M  V30 5432 C 533.106 4.4494 -0.659409 0
M  V30 5433 C 534.425 4.16939 1.4089 0
M  V30 5434 H 531.544 0.730698 0.0961756 0
M  V30 5435 H 534.186 1.84593 -0.450031 0
M  V30 5436 H 532.336 3.6928 1.20685 0
M  V30 5437 H 534.008 4.42675 -1.29756 0
M  V30 5438 H 532.251 4.1428 -1.28665 0
M  V30 5439 H 532.922 5.50643 -0.386804 0
M  V30 5440 H 535.398 4.06443 0.891272 0
M  V30 5441 H 534.274 5.24889 1.60569 0
M  V30 5442 H 534.535 3.70798 2.40752 0
M  V30 5443 N 533.594 0.0601682 1.57485 0
M  V30 5444 C 534.84 -0.612501 1.93329 0
M  V30 5445 C 535.173 -1.6996 0.939526 0
M  V30 5446 O 534.448 -1.94472 -0.0330957 0
M  V30 5447 C 534.731 -1.20025 3.39508 0
M  V30 5448 C 534.584 -0.12059 4.49638 0
M  V30 5449 C 535.903 -2.10923 3.86264 0
M  V30 5450 H 533.022 -0.221185 0.703027 0
M  V30 5451 H 535.664 0.123768 1.89596 0
M  V30 5452 H 533.814 -1.82774 3.42821 0
M  V30 5453 H 535.486 0.51185 4.58452 0
M  V30 5454 H 533.729 0.550251 4.30296 0
M  V30 5455 H 534.4 -0.572019 5.49028 0
M  V30 5456 H 536.876 -1.58124 3.84884 0
M  V30 5457 H 535.752 -2.48987 4.8918 0
M  V30 5458 H 536.013 -3.01292 3.23536 0
M  V30 5459 N 535.072 -1.5615 -0.213296 0
M  V30 5460 C 536.019 -1.93086 -1.26437 0
M  V30 5461 C 536.989 -0.789086 -1.4616 0
M  V30 5462 O 538.174 -1.04569 -1.59593 0
M  V30 5463 C 535.314 -2.26003 -2.608 0
M  V30 5464 C 534.427 -3.53156 -2.48807 0
M  V30 5465 C 533.562 -3.7548 -3.7575 0
M  V30 5466 C 532.601 -4.96119 -3.58514 0
M  V30 5467 N 531.738 -5.14791 -4.77425 0
M  V30 5468 H 536.578 -2.82707 -0.942376 0
M  V30 5469 H 534.115 -1.39919 -0.454001 0
M  V30 5470 H 536.073 -2.431 -3.39055 0
M  V30 5471 H 534.703 -1.39546 -2.91079 0
M  V30 5472 H 533.755 -3.44207 -1.61944 0
M  V30 5473 H 535.067 -4.41565 -2.31996 0
M  V30 5474 H 534.221 -3.92718 -4.62447 0
M  V30 5475 H 532.96 -2.85368 -3.95495 0
M  V30 5476 H 531.965 -4.78823 -2.70201 0
M  V30 5477 H 533.19 -5.87724 -3.40231 0
M  V30 5478 H 531.136 -4.27623 -4.97468 0
M  V30 5479 H 531.053 -5.97347 -4.63371 0
M  V30 5480 H 532.321 -5.36471 -5.65525 0
M  V30 5481 N 536.55 0.480323 -1.50102 0
M  V30 5482 C 537.827 1.24159 -1.51142 0
M  V30 5483 C 538.207 2.09605 -0.250818 0
M  V30 5484 O 537.555 2.15274 0.766118 0
M  V30 5485 C 537.765 2.08057 -2.80202 0
M  V30 5486 C 539.113 2.66556 -3.30504 0
M  V30 5487 O 540.137 2.18308 -2.81461 0
M  V30 5488 O 538.996 3.54442 -4.15973 0
M  V30 5489 H 536.09 0.562928 -0.605839 0
M  V30 5490 H 538.636 0.492899 -1.62384 0
M  V30 5491 H 537.408 1.45032 -3.6343 0
M  V30 5492 H 537.031 2.90079 -2.71919 0
M  V30 5493 N 538.028 1.39524 0.732853 0
M  V30 5494 C 538.938 1.40695 1.87729 0
M  V30 5495 C 539.954 0.301496 1.71368 0
M  V30 5496 O 541.13 0.543313 1.93933 0
M  V30 5497 C 538.195 1.25098 3.23344 0
M  V30 5498 C 537.256 2.45634 3.52083 0
M  V30 5499 C 536.489 2.30772 4.81228 0
M  V30 5500 O 536.712 1.31233 5.55098 0
M  V30 5501 O 535.646 3.19799 5.09914 0
M  V30 5502 H 539.472 2.37168 1.89697 0
M  V30 5503 H 537.057 1.20663 0.880959 0
M  V30 5504 H 538.939 1.18541 4.04383 0
M  V30 5505 H 537.614 0.317209 3.22142 0
M  V30 5506 H 536.521 2.57767 2.71122 0
M  V30 5507 H 537.854 3.37712 3.58066 0
M  V30 5508 N 539.506 -0.963266 1.24736 0
M  V30 5509 C 540.754 -1.70343 1.08755 0
M  V30 5510 C 541.075 -1.91387 -0.373619 0
M  V30 5511 O 540.345 -1.4948 -1.2662 0
M  V30 5512 H 538.925 -0.631224 0.399456 0
M  V30 5513 H 541.587 -1.15859 1.56725 0
M  V30 5514 H 540.683 -2.68616 1.58909 0
M  V30 5515 N 540.985 -1.06182 -1.16461 0
M  V30 5516 C 542.21 -0.798599 -1.91408 0
M  V30 5517 C 542.635 0.640987 -1.76842 0
M  V30 5518 O 541.993 1.44652 -1.09296 0
M  V30 5519 C 542.041 -1.19665 -3.40165 0
M  V30 5520 O 541.145 -0.334768 -4.11039 0
M  V30 5521 H 540.486 -0.291961 -0.596368 0
M  V30 5522 H 543.016 -1.41732 -1.47557 0
M  V30 5523 H 543.026 -1.16772 -3.90933 0
M  V30 5524 H 541.701 -2.24526 -3.50087 0
M  V30 5525 H 540.278 -0.425168 -3.70468 0
M  V30 5526 N 542.463 1.3308 -0.844243 0
M  V30 5527 C 543.693 2.01515 -0.455541 0
M  V30 5528 C 544.101 1.63655 0.949406 0
M  V30 5529 O 543.444 0.84848 1.62931 0
M  V30 5530 C 543.506 3.55967 -0.502801 0
M  V30 5531 C 543.17 4.17222 -1.86481 0
M  V30 5532 C 544.167 4.36205 -2.8288 0
M  V30 5533 C 541.852 4.53528 -2.15911 0
M  V30 5534 C 543.846 4.90649 -4.06869 0
M  V30 5535 C 541.533 5.07679 -3.40155 0
M  V30 5536 C 542.531 5.26186 -4.35451 0
M  V30 5537 O 542.219 5.79183 -5.57496 0
M  V30 5538 H 541.951 0.65199 -0.178565 0
M  V30 5539 H 544.505 1.70867 -1.1399 0
M  V30 5540 H 542.735 3.85965 0.23836 0
M  V30 5541 H 544.424 4.05688 -0.131169 0
M  V30 5542 H 545.19 4.085 -2.61444 0
M  V30 5543 H 541.069 4.38414 -1.42528 0
M  V30 5544 H 544.613 5.0501 -4.81259 0
M  V30 5545 H 540.51 5.34815 -3.61446 0
M  V30 5546 H 541.278 5.97591 -5.5931 0
M  V30 5547 N 543.941 0.601185 1.45683 0
M  V30 5548 C 545.188 0.0938811 2.02282 0
M  V30 5549 C 545.516 -1.27315 1.47041 0
M  V30 5550 O 544.771 -1.85193 0.632623 0
M  V30 5551 C 545.07 -0.00222425 3.574 0
M  V30 5552 C 544.736 1.29963 4.31764 0
M  V30 5553 C 543.398 1.65625 4.51798 0
M  V30 5554 C 545.75 2.1603 4.74321 0
M  V30 5555 C 543.078 2.87119 5.11644 0
M  V30 5556 C 545.43 3.36766 5.3551 0
M  V30 5557 C 544.094 3.72689 5.53768 0
M  V30 5558 H 543.364 0.0343535 0.740203 0
M  V30 5559 H 546.011 0.781522 1.74827 0
M  V30 5560 H 544.316 -0.773096 3.84097 0
M  V30 5561 H 546.013 -0.410794 3.9889 0
M  V30 5562 H 542.603 1.01204 4.1648 0
M  V30 5563 H 546.787 1.89778 4.58582 0
M  V30 5564 H 542.043 3.15065 5.2397 0
M  V30 5565 H 546.217 4.03713 5.67441 0
M  V30 5566 H 543.844 4.66918 5.99909 0
M  V30 5567 N 545.419 -1.53889 0.339982 0
M  V30 5568 C 546.349 -2.27843 -0.510856 0
M  V30 5569 C 547.33 -1.29267 -1.10563 0
M  V30 5570 O 548.515 -1.58104 -1.12768 0
M  V30 5571 C 545.645 -3.04857 -1.66372 0
M  V30 5572 C 544.599 -4.10907 -1.19746 0
M  V30 5573 C 543.925 -4.75855 -2.43857 0
M  V30 5574 C 545.225 -5.21435 -0.300501 0
M  V30 5575 H 546.919 -2.99212 0.106067 0
M  V30 5576 H 544.465 -1.43904 0.0524533 0
M  V30 5577 H 546.418 -3.5533 -2.26537 0
M  V30 5578 H 545.142 -2.31133 -2.30749 0
M  V30 5579 H 543.801 -3.61342 -0.618654 0
M  V30 5580 H 543.449 -3.9873 -3.06633 0
M  V30 5581 H 543.149 -5.47502 -2.13343 0
M  V30 5582 H 544.673 -5.2911 -3.04754 0
M  V30 5583 H 546.087 -5.67565 -0.80889 0
M  V30 5584 H 544.484 -6.00036 -0.0874076 0
M  V30 5585 H 545.554 -4.80328 0.664321 0
M  V30 5586 N 546.897 -0.0685191 -1.57451 0
M  V30 5587 C 548.143 0.602239 -1.93652 0
M  V30 5588 C 548.476 1.6946 -0.948526 0
M  V30 5589 O 547.751 1.94487 0.022782 0
M  V30 5590 C 548.034 1.18223 -3.4014 0
M  V30 5591 C 547.887 0.0967431 -4.49696 0
M  V30 5592 C 549.206 2.08872 -3.87377 0
M  V30 5593 H 546.325 0.217453 -0.70419 0
M  V30 5594 H 548.967 -0.133821 -1.89528 0
M  V30 5595 H 547.117 1.80953 -3.43785 0
M  V30 5596 H 548.789 -0.536155 -4.58174 0
M  V30 5597 H 547.032 -0.573063 -4.29998 0
M  V30 5598 H 547.703 0.542894 -5.49324 0
M  V30 5599 H 550.179 1.56081 -3.85717 0
M  V30 5600 H 549.055 2.46389 -4.90493 0
M  V30 5601 H 549.316 2.99572 -3.25129 0
M  V30 5602 N 548.375 1.56261 0.205012 0
M  V30 5603 C 549.605 1.83874 0.942018 0
M  V30 5604 C 550.013 0.647595 1.77772 0
M  V30 5605 O 549.356 -0.393098 1.79445 0
M  V30 5606 C 549.418 3.05453 1.89575 0
M  V30 5607 C 549.082 4.39772 1.24296 0
M  V30 5608 C 550.079 5.16133 0.624724 0
M  V30 5609 C 547.764 4.86504 1.24978 0
M  V30 5610 C 549.758 6.37396 0.0220117 0
M  V30 5611 C 547.445 6.07705 0.643232 0
M  V30 5612 C 548.443 6.82993 0.0304164 0
M  V30 5613 O 548.131 8.019 -0.566654 0
M  V30 5614 H 547.863 0.614896 0.280854 0
M  V30 5615 H 550.417 2.04215 0.220285 0
M  V30 5616 H 548.647 2.80972 2.65691 0
M  V30 5617 H 550.336 3.19797 2.4997 0
M  V30 5618 H 551.102 4.81127 0.611666 0
M  V30 5619 H 546.981 4.27865 1.71616 0
M  V30 5620 H 550.525 6.96102 -0.456926 0
M  V30 5621 H 546.422 6.42181 0.653759 0
M  V30 5622 H 547.19 8.17192 -0.462588 0
M  V30 5623 N 549.853 -0.472356 1.50355 0
M  V30 5624 C 551.101 -1.22211 1.60962 0
M  V30 5625 C 551.422 -1.92497 0.311439 0
M  V30 5626 O 550.692 -1.8405 -0.671002 0
M  V30 5627 H 549.272 -0.454092 0.593135 0
M  V30 5628 H 551.934 -0.544977 1.87126 0
M  V30 5629 H 551.03 -1.9707 2.42012 0
M  V30 5630 N 551.331 -1.39911 -0.725443 0
M  V30 5631 C 552.294 -1.39156 -1.82121 0
M  V30 5632 C 553.294 -0.287018 -1.58218 0
M  V30 5633 O 554.484 -0.545421 -1.65441 0
M  V30 5634 C 551.616 -1.1736 -3.20062 0
M  V30 5635 H 552.809 -2.36672 -1.84191 0
M  V30 5636 H 550.362 -1.25615 -0.930079 0
M  V30 5637 H 551.097 -0.205648 -3.23647 0
M  V30 5638 H 550.882 -1.97358 -3.3881 0
M  V30 5639 H 552.372 -1.19596 -4.00108 0
M  V30 5640 N 552.809 0.956637 -1.25245 0
M  V30 5641 C 554.22 1.51569 -1.09012 0
M  V30 5642 C 554.571 1.93322 0.334813 0
M  V30 5643 O 553.696 1.78421 1.22454 0
M  V30 5644 C 554.291 2.75444 -1.97271 0
M  V30 5645 C 552.85 3.27669 -1.8523 0
M  V30 5646 C 551.997 2.00517 -1.91542 0
M  V30 5647 H 554.948 0.773746 -1.3856 0
M  V30 5648 H 554.969 3.4919 -1.51151 0
M  V30 5649 H 554.481 2.45024 -3.00973 0
M  V30 5650 H 552.582 3.62914 -0.844045 0
M  V30 5651 H 552.695 3.9582 -2.69932 0
M  V30 5652 H 551.059 2.15727 -1.35404 0
M  V30 5653 H 551.842 1.72448 -2.96844 0
M  V30 5654 N 554.287 1.06798 1.15896 0
M  V30 5655 C 555.535 0.786211 1.8618 0
M  V30 5656 C 555.856 -0.689547 1.82401 0
M  V30 5657 O 555.126 -1.49913 1.26107 0
M  V30 5658 H 553.706 0.287843 0.689315 0
M  V30 5659 H 556.368 1.35055 1.40521 0
M  V30 5660 H 555.464 1.1157 2.91477 0
M  V30 5661 N 555.766 -1.3263 0.851289 0
M  V30 5662 C 557.013 -1.97368 0.453023 0
M  V30 5663 C 557.341 -1.67384 -0.990596 0
M  V30 5664 O 556.596 -0.952665 -1.70947 0
M  V30 5665 C 556.895 -3.51713 0.635015 0
M  V30 5666 C 556.561 -4.01676 2.04859 0
M  V30 5667 C 555.223 -4.15031 2.43522 0
M  V30 5668 C 557.575 -4.28206 2.97135 0
M  V30 5669 C 554.903 -4.52257 3.73739 0
M  V30 5670 C 557.255 -4.66889 4.26846 0
M  V30 5671 C 555.919 -4.7845 4.65448 0
M  V30 5672 H 555.189 -0.722219 0.165773 0
M  V30 5673 H 557.836 -1.58092 1.0807 0
M  V30 5674 H 556.141 -3.91726 -0.0759081 0
M  V30 5675 H 557.838 -3.99823 0.306964 0
M  V30 5676 H 554.428 -3.91764 1.73836 0
M  V30 5677 H 558.612 -4.174 2.68498 0
M  V30 5678 H 553.868 -4.59402 4.03435 0
M  V30 5679 H 558.042 -4.86372 4.98413 0
M  V30 5680 H 555.669 -5.07052 5.66395 0
M  V30 5681 N 557.244 -0.608902 -1.45362 0
M  V30 5682 C 558.469 -0.10921 -2.07112 0
M  V30 5683 C 558.894 1.19779 -1.45033 0
M  V30 5684 O 558.252 1.72961 -0.543527 0
M  V30 5685 C 558.3 0.0155745 -3.60597 0
M  V30 5686 O 557.404 1.06546 -3.98399 0
M  V30 5687 H 556.745 -0.0746619 -0.659789 0
M  V30 5688 H 559.275 -0.839283 -1.86594 0
M  V30 5689 H 559.285 0.213364 -4.07442 0
M  V30 5690 H 557.96 -0.938765 -4.05167 0
M  V30 5691 H 556.537 0.844024 -3.63223 0
M  V30 5692 N 558.722 1.53707 -0.348139 0
M  V30 5693 C 559.669 2.25173 0.506518 0
M  V30 5694 C 560.639 1.25174 1.09182 0
M  V30 5695 O 561.824 1.53917 1.12757 0
M  V30 5696 C 558.964 3.03141 1.64923 0
M  V30 5697 C 558.077 4.18002 1.0908 0
M  V30 5698 C 557.212 4.83447 2.20119 0
M  V30 5699 C 556.251 5.90369 1.61651 0
M  V30 5700 N 555.388 6.49575 2.66451 0
M  V30 5701 H 560.228 2.97799 -0.109452 0
M  V30 5702 H 557.765 1.46953 -0.0657866 0
M  V30 5703 H 559.723 3.46607 2.32205 0
M  V30 5704 H 558.353 2.32803 2.23612 0
M  V30 5705 H 557.405 3.79145 0.308783 0
M  V30 5706 H 558.717 4.94892 0.623178 0
M  V30 5707 H 557.871 5.30008 2.95257 0
M  V30 5708 H 556.61 4.05991 2.70227 0
M  V30 5709 H 555.615 5.43186 0.850209 0
M  V30 5710 H 556.84 6.69735 1.1239 0
M  V30 5711 H 554.786 5.74981 3.15805 0
M  V30 5712 H 554.703 7.21952 2.24325 0
M  V30 5713 H 555.971 7.00789 3.41344 0
M  V30 5714 N 560.2 0.0768682 1.57412 0
M  V30 5715 C 561.477 -0.632359 1.85096 0
M  V30 5716 C 561.857 -1.87479 0.9703 0
M  V30 5717 O 561.205 -2.28469 0.0379062 0
M  V30 5718 C 561.415 -0.965174 3.35388 0
M  V30 5719 C 562.763 -1.33648 4.03018 0
M  V30 5720 O 563.787 -1.05675 3.40164 0
M  V30 5721 O 562.646 -1.85959 5.13889 0
M  V30 5722 H 559.74 -0.314574 0.764835 0
M  V30 5723 H 562.286 0.108184 1.69355 0
M  V30 5724 H 561.058 -0.0829745 3.91212 0
M  V30 5725 H 560.681 -1.76231 3.5641 0
M  V30 5726 N 561.678 -1.56367 -0.196722 0
M  V30 5727 C 562.626 -1.95304 -1.2633 0
M  V30 5728 C 563.62 -0.838252 -1.47206 0
M  V30 5729 O 564.826 -1.02325 -1.48087 0
M  V30 5730 H 561.201 -0.621013 -0.424083 0
M  V30 5731 H 563.172 -2.84254 -0.907879 0
M  V30 5732 C 561.921 -2.3074 -2.60104 0
M  V30 5733 H 561.244 -3.16047 -2.44856 0
M  V30 5734 H 562.684 -2.61849 -3.33484 0
M  V30 5735 C 561.143 -1.14143 -3.16975 0
M  V30 5736 O 561.673 -0.415602 -3.99544 0
M  V30 5737 N 559.879 -0.91867 -2.75697 0
M  V30 5738 H 559.426 -1.51065 -2.08656 0
M  V30 5739 H 559.384 -0.140321 -3.14087 0
M  V30 5740 N 563.156 0.464375 -1.50603 0
M  V30 5741 C 564.066 1.58723 -1.72754 0
M  V30 5742 C 565.082 1.62925 -0.610844 0
M  V30 5743 O 566.258 1.8067 -0.889963 0
M  V30 5744 C 563.323 2.94897 -1.82309 0
M  V30 5745 C 562.384 3.0103 -3.06071 0
M  V30 5746 C 561.617 4.30708 -3.1516 0
M  V30 5747 O 561.84 5.2159 -2.30868 0
M  V30 5748 O 560.774 4.42571 -4.0794 0
M  V30 5749 H 564.6 1.42954 -2.67951 0
M  V30 5750 H 562.185 0.644579 -1.3478 0
M  V30 5751 H 564.067 3.75764 -1.90735 0
M  V30 5752 H 562.742 3.10851 -0.902967 0
M  V30 5753 H 561.649 2.19217 -3.03142 0
M  V30 5754 H 562.982 2.90014 -3.97684 0
M  V30 5755 N 564.634 1.40294 0.718013 0
M  V30 5756 C 565.859 1.41941 1.5122 0
M  V30 5757 C 566.284 0.0202371 1.88089 0
M  V30 5758 O 565.642 -0.971078 1.53101 0
M  V30 5759 C 565.69 2.3141 2.76554 0
M  V30 5760 O 564.794 1.75567 3.73162 0
M  V30 5761 H 564.135 0.482644 0.456016 0
M  V30 5762 H 566.665 1.84494 0.884478 0
M  V30 5763 H 566.675 2.46513 3.25108 0
M  V30 5764 H 565.35 3.33085 2.49053 0
M  V30 5765 H 563.927 1.69798 3.31999 0
M  V30 5766 N 566.112 -0.949982 1.2575 0
M  V30 5767 C 567.042 -2.06483 1.09028 0
M  V30 5768 C 568.023 -1.701 -0.00201532 0
M  V30 5769 O 569.208 -1.93469 0.168383 0
M  V30 5770 C 566.338 -3.39899 0.71316 0
M  V30 5771 C 565.292 -3.90309 1.75621 0
M  V30 5772 C 564.618 -5.20274 1.23365 0
M  V30 5773 C 565.918 -4.16169 3.15596 0
M  V30 5774 H 567.612 -2.20731 2.02283 0
M  V30 5775 H 565.158 -1.06066 0.973964 0
M  V30 5776 H 567.111 -4.17346 0.58309 0
M  V30 5777 H 565.835 -3.25602 -0.255091 0
M  V30 5778 H 564.494 -3.15035 1.8748 0
M  V30 5779 H 564.142 -5.02351 0.255491 0
M  V30 5780 H 563.842 -5.54971 1.93082 0
M  V30 5781 H 565.366 -6.00314 1.11607 0
M  V30 5782 H 566.78 -4.84259 3.06864 0
M  V30 5783 H 565.177 -4.62131 3.82825 0
M  V30 5784 H 566.247 -3.22273 3.6231 0
M  V30 5785 N 567.59 -1.07411 -1.15328 0
M  V30 5786 C 568.839 -0.792643 -1.85473 0
M  V30 5787 C 569.152 0.683789 -1.83259 0
M  V30 5788 O 570.358 1.08005 -2.49093 0
M  V30 5789 C 568.814 -1.36787 -3.32892 0
M  V30 5790 C 568.422 -2.87536 -3.43551 0
M  V30 5791 C 570.166 -1.16444 -4.08217 0
M  V30 5792 C 568.073 -3.38247 -4.85122 0
M  V30 5793 H 567.003 -0.292838 -0.694811 0
M  V30 5794 H 569.654 -1.29426 -1.30082 0
M  V30 5795 H 568.036 -0.793993 -3.87958 0
M  V30 5796 H 569.21 -3.50973 -2.98588 0
M  V30 5797 H 567.525 -3.06676 -2.81672 0
M  V30 5798 H 570.122 -1.51808 -5.12697 0
M  V30 5799 H 570.465 -0.10353 -4.16171 0
M  V30 5800 H 570.998 -1.70472 -3.59422 0
M  V30 5801 H 567.737 -4.43866 -4.82351 0
M  V30 5802 H 567.257 -2.79564 -5.30664 0
M  V30 5803 H 568.936 -3.34238 -5.5398 0
M  V30 5804 N 569.068 1.32177 -0.85831 0
M  V30 5805 C 570.293 2.01847 -0.476718 0
M  V30 5806 C 570.718 1.64065 0.920021 0
M  V30 5807 O 570.076 0.843189 1.60499 0
M  V30 5808 C 570.124 3.55097 -0.627578 0
M  V30 5809 O 569.228 4.11012 0.338086 0
M  V30 5810 H 568.569 0.635907 -0.191099 0
M  V30 5811 H 571.099 1.68641 -1.15851 0
M  V30 5812 H 571.109 4.04718 -0.516476 0
M  V30 5813 H 569.784 3.81938 -1.64609 0
M  V30 5814 H 568.361 3.72451 0.182917 0
M  V30 5815 N 570.547 0.616602 1.45037 0
M  V30 5816 C 571.963 0.280994 1.57107 0
M  V30 5817 C 572.163 -1.21627 1.60653 0
M  V30 5818 O 571.219 -1.9997 1.54169 0
M  V30 5819 C 572.532 0.960116 2.8496 0
M  V30 5820 C 574.08 0.936884 2.98649 0
M  V30 5821 C 574.555 1.59619 4.29285 0
M  V30 5822 N 576.046 1.5621 4.36065 0
M  V30 5823 C 576.781 2.04131 5.35834 0
M  V30 5824 N 576.277 2.60177 6.4209 0
M  V30 5825 N 578.07 1.94845 5.27249 0
M  V30 5826 H 570.221 1.58867 1.40979 0
M  V30 5827 H 572.484 0.666024 0.674623 0
M  V30 5828 H 572.19 2.01473 2.88273 0
M  V30 5829 H 572.064 0.488921 3.74018 0
M  V30 5830 H 574.451 -0.109209 2.94898 0
M  V30 5831 H 574.532 1.44643 2.10979 0
M  V30 5832 H 574.176 2.64166 4.33796 0
M  V30 5833 H 574.106 1.06159 5.15789 0
M  V30 5834 H 576.597 1.15276 3.59889 0
M  V30 5835 H 576.91 2.94513 7.1448 0
M  V30 5836 H 575.255 2.64221 6.42816 0
M  V30 5837 H 578.446 1.50792 4.43147 0
M  V30 5838 H 578.619 2.32504 6.04852 0
M  V30 5839 N 572.025 -1.5352 0.356285 0
M  V30 5840 C 572.988 -2.24071 -0.482182 0
M  V30 5841 C 573.988 -1.24531 -1.01729 0
M  V30 5842 O 575.178 -1.48876 -0.904513 0
M  V30 5843 C 572.31 -2.97025 -1.67299 0
M  V30 5844 H 573.503 -2.99596 0.135031 0
M  V30 5845 H 571.056 -1.55928 0.107825 0
M  V30 5846 H 571.791 -2.25719 -2.32855 0
M  V30 5847 H 571.576 -3.7005 -1.29636 0
M  V30 5848 H 573.066 -3.50683 -2.26741 0
M  V30 5849 N 573.503 -0.0852151 -1.57369 0
M  V30 5850 C 574.413 0.891712 -2.16992 0
M  V30 5851 C 575.429 1.3174 -1.13669 0
M  V30 5852 O 576.605 1.38735 -1.45995 0
M  V30 5853 C 573.67 2.13635 -2.73059 0
M  V30 5854 C 572.731 1.7658 -3.91303 0
M  V30 5855 C 571.964 2.95111 -4.44686 0
M  V30 5856 O 572.187 4.09539 -3.97032 0
M  V30 5857 O 571.121 2.74149 -5.35841 0
M  V30 5858 H 574.947 0.414477 -3.00858 0
M  V30 5859 H 572.532 0.138598 -1.48756 0
M  V30 5860 H 574.414 2.86595 -3.08935 0
M  V30 5861 H 573.089 2.6043 -1.92244 0
M  V30 5862 H 571.996 1.00831 -3.60255 0
M  V30 5863 H 573.329 1.34557 -4.7345 0
M  V30 5864 N 574.981 1.5647 0.188427 0
M  V30 5865 C 576.228 1.81013 0.907779 0
M  V30 5866 C 576.556 0.65953 1.82977 0
M  V30 5867 O 575.811 -0.354308 1.92466 0
M  V30 5868 C 576.11 3.11596 1.7505 0
M  V30 5869 C 575.776 4.40145 0.978922 0
M  V30 5870 C 574.438 4.75066 0.765912 0
M  V30 5871 C 576.79 5.19369 0.436498 0
M  V30 5872 C 574.118 5.867 -0.00089868 0
M  V30 5873 C 576.47 6.31805 -0.317136 0
M  V30 5874 C 575.134 6.65303 -0.541103 0
M  V30 5875 H 574.404 0.662373 0.33218 0
M  V30 5876 H 577.051 1.9071 0.173732 0
M  V30 5877 H 575.356 2.97165 2.55343 0
M  V30 5878 H 577.053 3.27793 2.30983 0
M  V30 5879 H 573.643 4.12745 1.15497 0
M  V30 5880 H 577.827 4.92799 0.588449 0
M  V30 5881 H 573.083 6.11122 -0.184329 0
M  V30 5882 H 577.257 6.92406 -0.744788 0
M  V30 5883 H 574.884 7.51646 -1.13718 0
M  V30 5884 N 576.459 -0.456382 1.50847 0
M  V30 5885 C 577.389 -1.56025 1.73719 0
M  V30 5886 C 578.37 -1.5967 0.586473 0
M  V30 5887 O 579.555 -1.75702 0.827185 0
M  V30 5888 C 576.685 -2.94251 1.84483 0
M  V30 5889 C 575.639 -3.05471 2.99786 0
M  V30 5890 C 574.965 -4.45489 2.95709 0
M  V30 5891 C 576.265 -2.81318 4.40065 0
M  V30 5892 H 577.959 -1.37138 2.66146 0
M  V30 5893 H 575.505 -0.658299 1.28072 0
M  V30 5894 H 577.458 -3.71417 1.99067 0
M  V30 5895 H 576.182 -3.14328 0.886891 0
M  V30 5896 H 574.841 -2.30741 2.84876 0
M  V30 5897 H 574.489 -4.62505 1.97732 0
M  V30 5898 H 574.189 -4.53929 3.73125 0
M  V30 5899 H 575.713 -5.24655 3.12362 0
M  V30 5900 H 577.127 -3.48226 4.55425 0
M  V30 5901 H 575.524 -3.01188 5.19043 0
M  V30 5902 H 576.594 -1.7706 4.51418 0
M  V30 5903 N 577.937 -1.40673 -0.710563 0
M  V30 5904 C 578.9 -1.4108 -1.80635 0
M  V30 5905 C 579.9 -0.303783 -1.57904 0
M  V30 5906 O 581.09 -0.562937 -1.64853 0
M  V30 5907 C 578.222 -1.20748 -3.18799 0
M  V30 5908 H 579.415 -2.38612 -1.81671 0
M  V30 5909 H 576.968 -1.26595 -0.916704 0
M  V30 5910 H 577.703 -0.239964 -3.23411 0
M  V30 5911 H 577.488 -2.00941 -3.36698 0
M  V30 5912 H 578.978 -1.23833 -3.98817 0
M  V30 5913 N 579.415 0.9433 -1.26252 0
M  V30 5914 C 580.663 1.68592 -1.11451 0
M  V30 5915 C 580.984 1.91957 0.343123 0
M  V30 5916 O 580.254 1.51475 1.24226 0
M  V30 5917 H 578.834 0.624789 -0.409448 0
M  V30 5918 H 581.496 1.13351 -1.58548 0
M  V30 5919 H 580.592 2.66054 -1.63162 0
M  V30 5920 N 580.893 1.08022 1.14757 0
M  V30 5921 C 582.139 0.808705 1.85978 0
M  V30 5922 C 582.472 -0.663764 1.82504 0
M  V30 5923 O 581.747 -1.48765 1.25296 0
M  V30 5924 C 582.03 1.32623 3.34788 0
M  V30 5925 C 581.883 2.86375 3.46856 0
M  V30 5926 C 583.202 0.948291 4.29762 0
M  V30 5927 H 580.321 0.295244 0.675278 0
M  V30 5928 H 582.963 1.33917 1.34783 0
M  V30 5929 H 581.113 0.875002 3.78518 0
M  V30 5930 H 582.785 3.39839 3.11941 0
M  V30 5931 H 581.028 3.24232 2.88194 0
M  V30 5932 H 581.699 3.17658 4.51439 0
M  V30 5933 H 584.175 1.33722 3.94028 0
M  V30 5934 H 583.051 1.33765 5.32352 0
M  V30 5935 H 583.312 -0.145094 4.41862 0
M  V30 5936 N 582.371 -1.3172 0.865308 0
M  V30 5937 C 583.787 -1.4958 0.556596 0
M  V30 5938 C 583.987 -1.79763 -0.910353 0
M  V30 5939 O 583.043 -1.87351 -1.6928 0
M  V30 5940 C 584.356 -2.63277 1.45279 0
M  V30 5941 C 585.904 -2.77161 1.45433 0
M  V30 5942 C 586.379 -3.93949 2.33598 0
M  V30 5943 N 587.87 -4.01228 2.31453 0
M  V30 5944 C 588.605 -4.90855 2.96393 0
M  V30 5945 N 588.101 -5.85416 3.70486 0
M  V30 5946 N 589.894 -4.84063 2.85726 0
M  V30 5947 H 582.045 -1.10396 1.81456 0
M  V30 5948 H 584.308 -0.54507 0.775631 0
M  V30 5949 H 584.014 -2.47734 2.49641 0
M  V30 5950 H 583.888 -3.59309 1.14792 0
M  V30 5951 H 586.275 -2.9212 0.41831 0
M  V30 5952 H 586.356 -1.8181 1.79941 0
M  V30 5953 H 586 -3.79748 3.37274 0
M  V30 5954 H 585.93 -4.88598 1.96417 0
M  V30 5955 H 588.421 -3.3357 1.77593 0
M  V30 5956 H 588.734 -6.50525 4.17178 0
M  V30 5957 H 587.079 -5.85409 3.74594 0
M  V30 5958 H 590.27 -4.09163 2.27384 0
M  V30 5959 H 590.443 -5.53708 3.36617 0
M  V30 5960 N 583.85 -0.624285 -1.44708 0
M  V30 5961 C 585.096 -0.126237 -2.02407 0
M  V30 5962 C 585.428 1.24618 -1.48943 0
M  V30 5963 O 584.704 1.82569 -0.670742 0
M  V30 5964 C 584.986 -0.105449 -3.59946 0
M  V30 5965 C 584.84 -1.50972 -4.23707 0
M  V30 5966 C 586.159 0.573629 -4.36346 0
M  V30 5967 H 583.278 -0.0473472 -0.735478 0
M  V30 5968 H 585.92 -0.799452 -1.72362 0
M  V30 5969 H 584.07 0.46783 -3.85673 0
M  V30 5970 H 585.742 -2.13136 -4.0911 0
M  V30 5971 H 583.985 -2.0656 -3.81465 0
M  V30 5972 H 584.656 -1.44727 -5.32689 0
M  V30 5973 H 587.132 0.0861787 -4.16011 0
M  V30 5974 H 586.008 0.557338 -5.46063 0
M  V30 5975 H 586.269 1.64276 -4.10446 0
M  V30 5976 N 585.328 1.53329 -0.364422 0
M  V30 5977 C 586.576 2.00842 0.225189 0
M  V30 5978 C 586.897 1.25345 1.49378 0
M  V30 5979 O 586.167 0.366396 1.92443 0
M  V30 5980 H 584.747 0.742009 0.0862027 0
M  V30 5981 H 587.409 1.8863 -0.490389 0
M  V30 5982 H 586.505 3.08795 0.452987 0
M  V30 5983 N 586.806 0.0935595 1.57322 0
M  V30 5984 C 588.052 -0.571355 1.94585 0
M  V30 5985 C 588.385 -1.67929 0.975366 0
M  V30 5986 O 587.66 -1.94498 0.00816206 0
M  V30 5987 C 587.943 -1.12797 3.41978 0
M  V30 5988 C 587.796 -0.0251881 4.49793 0
M  V30 5989 C 589.115 -2.02682 3.90651 0
M  V30 5990 H 586.234 -0.206223 0.70756 0
M  V30 5991 H 588.876 0.163956 1.89291 0
M  V30 5992 H 587.026 -1.75461 3.4662 0
M  V30 5993 H 588.698 0.608979 4.57263 0
M  V30 5994 H 586.941 0.641399 4.29032 0
M  V30 5995 H 587.612 -0.455433 5.50118 0
M  V30 5996 H 590.088 -1.49925 3.88152 0
M  V30 5997 H 588.964 -2.38555 4.94351 0
M  V30 5998 H 589.225 -2.94362 3.29854 0
M  V30 5999 N 588.284 -1.56567 -0.180126 0
M  V30 6000 C 589.695 -1.7126 -0.743422 0
M  V30 6001 C 590.046 -0.70263 -1.83187 0
M  V30 6002 O 589.171 0.137856 -2.1596 0
M  V30 6003 C 589.766 -3.10512 -1.35528 0
M  V30 6004 C 588.325 -3.26919 -1.8655 0
M  V30 6005 C 587.472 -2.67213 -0.741099 0
M  V30 6006 H 590.423 -1.58636 0.0451543 0
M  V30 6007 H 590.444 -3.08673 -2.22489 0
M  V30 6008 H 589.956 -3.83997 -0.562862 0
M  V30 6009 H 588.057 -2.58376 -2.68464 0
M  V30 6010 H 588.17 -4.34574 -2.01699 0
M  V30 6011 H 586.534 -2.26788 -1.15927 0
M  V30 6012 H 587.317 -3.43277 0.0393291 0
M  V30 6013 N 589.762 0.448376 -1.51087 0
M  V30 6014 C 590.694 1.56146 -1.67783 0
M  V30 6015 C 591.707 1.52913 -0.55871 0
M  V30 6016 O 592.896 1.57889 -0.83267 0
M  V30 6017 C 589.996 2.95057 -1.66716 0
M  V30 6018 C 589.169 3.22915 -2.95033 0
M  V30 6019 C 588.228 4.41495 -2.86302 0
M  V30 6020 O 587.254 4.40688 -3.60254 0
M  V30 6021 N 588.456 5.44443 -2.014 0
M  V30 6022 H 591.221 1.42232 -2.638 0
M  V30 6023 H 588.782 0.637153 -1.48835 0
M  V30 6024 H 590.774 3.72388 -1.58458 0
M  V30 6025 H 589.344 3.02624 -0.783403 0
M  V30 6026 H 588.564 2.33985 -3.17245 0
M  V30 6027 H 589.852 3.38349 -3.79996 0
M  V30 6028 H 589.25 5.4793 -1.40674 0
M  V30 6029 H 587.807 6.2067 -1.99029 0
M  V30 6030 N 591.24 1.41047 0.703093 0
M  V30 6031 C 592.486 1.40207 1.46526 0
M  V30 6032 C 592.819 0.00847763 1.94198 0
M  V30 6033 O 592.094 -0.962437 1.69019 0
M  V30 6034 C 592.377 2.40238 2.6825 0
M  V30 6035 C 592.23 3.88674 2.26391 0
M  V30 6036 C 593.549 2.37627 3.70434 0
M  V30 6037 H 590.668 0.510594 0.531472 0
M  V30 6038 H 593.31 1.72271 0.801422 0
M  V30 6039 H 591.46 2.13026 3.24888 0
M  V30 6040 H 593.132 4.2676 1.75138 0
M  V30 6041 H 591.375 4.03903 1.58255 0
M  V30 6042 H 592.046 4.542 3.13698 0
M  V30 6043 H 594.522 2.61759 3.23452 0
M  V30 6044 H 593.398 3.09645 4.53223 0
M  V30 6045 H 593.659 1.39223 4.19606 0
M  V30 6046 N 592.718 -0.936591 1.26751 0
M  V30 6047 C 593.943 -1.72288 1.15462 0
M  V30 6048 C 594.368 -1.85915 -0.285887 0
M  V30 6049 O 593.726 -1.35272 -1.20711 0
M  V30 6050 C 593.774 -3.10503 1.83359 0
M  V30 6051 O 592.878 -3.96745 1.1255 0
M  V30 6052 H 592.219 -0.52843 0.402067 0
M  V30 6053 H 594.749 -1.17271 1.67656 0
M  V30 6054 H 594.759 -3.60867 1.90365 0
M  V30 6055 H 593.434 -2.99901 2.88153 0
M  V30 6056 H 592.011 -3.55191 1.13551 0
M  V30 6057 N 594.196 -1.08629 -1.14182 0
M  V30 6058 C 595.473 -0.73002 -1.81466 0
M  V30 6059 C 595.853 0.785996 -1.95922 0
M  V30 6060 O 595.201 1.70535 -1.52086 0
M  V30 6061 C 595.411 -1.45957 -3.17014 0
M  V30 6062 C 596.759 -1.62008 -3.92477 0
M  V30 6063 O 597.783 -1.42141 -3.26611 0
M  V30 6064 O 596.642 -1.94806 -5.106 0
M  V30 6065 H 593.736 -0.261307 -0.784632 0
M  V30 6066 H 596.282 -1.188 -1.2118 0
M  V30 6067 H 595.054 -2.49221 -3.01669 0
M  V30 6068 H 594.677 -0.993222 -3.84995 0
M  V30 6069 N 595.674 1.31259 -0.872281 0
M  V30 6070 C 596.604 2.30929 -0.345554 0
M  V30 6071 C 597.585 1.60449 0.5648 0
M  V30 6072 O 598.77 1.8814 0.481335 0
M  V30 6073 C 595.9 3.44348 0.451823 0
M  V30 6074 C 594.854 4.26435 -0.365641 0
M  V30 6075 C 594.18 5.31785 0.557562 0
M  V30 6076 C 595.48 4.97159 -1.60095 0
M  V30 6077 H 597.174 2.75234 -1.17841 0
M  V30 6078 H 594.72 1.3232 -0.568094 0
M  V30 6079 H 596.673 4.13128 0.830854 0
M  V30 6080 H 595.397 2.98816 1.31821 0
M  V30 6081 H 594.056 3.59326 -0.726649 0
M  V30 6082 H 593.704 4.82502 1.4213 0
M  V30 6083 H 593.404 5.87598 0.0144878 0
M  V30 6084 H 594.928 6.03424 0.933387 0
M  V30 6085 H 596.342 5.58523 -1.29323 0
M  V30 6086 H 594.739 5.62779 -2.08327 0
M  V30 6087 H 595.809 4.24012 -2.35249 0
M  V30 6088 N 597.152 0.631951 1.44375 0
M  V30 6089 C 598.115 -0.0628142 2.29114 0
M  V30 6090 C 599.115 -0.771494 1.41084 0
M  V30 6091 O 600.305 -0.615959 1.62947 0
M  V30 6092 C 597.437 -1.09953 3.22681 0
M  V30 6093 H 598.63 0.682509 2.92031 0
M  V30 6094 H 596.183 0.392128 1.51301 0
M  V30 6095 H 596.918 -1.87481 2.64616 0
M  V30 6096 H 596.703 -0.595286 3.87555 0
M  V30 6097 H 598.193 -1.58538 3.86336 0
M  V30 6098 N 598.631 -1.53133 0.372548 0
M  V30 6099 C 599.594 -2.24569 -0.458389 0
M  V30 6100 C 600.594 -1.25603 -1.00402 0
M  V30 6101 O 601.784 -1.49827 -0.888672 0
M  V30 6102 C 598.916 -2.98783 -1.6414 0
M  V30 6103 H 600.109 -2.99436 0.166799 0
M  V30 6104 H 597.662 -1.55805 0.124357 0
M  V30 6105 H 598.397 -2.28176 -2.30448 0
M  V30 6106 H 598.182 -3.71404 -1.25704 0
M  V30 6107 H 599.672 -3.53068 -2.23008 0
M  V30 6108 N 600.109 -0.101901 -1.5727 0
M  V30 6109 C 601.019 0.868647 -2.17926 0
M  V30 6110 C 602.035 1.30527 -1.1506 0
M  V30 6111 O 603.211 1.37178 -1.47459 0
M  V30 6112 C 600.276 2.10727 -2.75309 0
M  V30 6113 C 599.337 1.7242 -3.93154 0
M  V30 6114 C 598.57 2.90377 -4.47791 0
M  V30 6115 O 598.793 4.05305 -4.01353 0
M  V30 6116 O 597.727 2.6845 -5.38719 0
M  V30 6117 H 601.553 0.382544 -3.01281 0
M  V30 6118 H 599.138 0.122812 -1.48894 0
M  V30 6119 H 601.02 2.83303 -3.11958 0
M  V30 6120 H 599.695 2.58376 -1.94996 0
M  V30 6121 H 598.602 0.970039 -3.61305 0
M  V30 6122 H 599.935 1.29528 -4.74851 0
M  V30 6123 N 601.587 1.56661 0.17182 0
M  V30 6124 C 602.55 1.9549 1.19651 0
M  V30 6125 C 603.55 0.838501 1.37207 0
M  V30 6126 O 604.74 1.10556 1.34622 0
M  V30 6127 C 601.872 2.24927 2.56166 0
M  V30 6128 H 603.065 2.87184 0.864007 0
M  V30 6129 H 600.618 1.50711 0.41425 0
M  V30 6130 H 601.353 1.35944 2.94431 0
M  V30 6131 H 601.138 3.06301 2.4479 0
M  V30 6132 H 602.628 2.55891 3.30014 0
M  V30 6133 N 603.065 -0.440357 1.51323 0
M  V30 6134 C 604.311 -1.19181 1.64085 0
M  V30 6135 C 604.644 -1.90936 0.354575 0
M  V30 6136 O 603.919 -1.8347 -0.645675 0
M  V30 6137 C 604.202 -2.2112 2.84215 0
M  V30 6138 C 604.055 -1.53468 4.22809 0
M  V30 6139 C 605.374 -3.22133 2.99864 0
M  V30 6140 H 602.493 -0.431924 0.597169 0
M  V30 6141 H 605.135 -0.481443 1.83799 0
M  V30 6142 H 603.285 -2.81703 2.67537 0
M  V30 6143 H 604.957 -0.962455 4.51148 0
M  V30 6144 H 603.2 -0.837086 4.25647 0
M  V30 6145 H 603.871 -2.27694 5.02852 0
M  V30 6146 H 606.347 -2.71601 3.15233 0
M  V30 6147 H 605.223 -3.90756 3.85488 0
M  V30 6148 H 605.484 -3.88061 2.11804 0
M  V30 6149 N 604.543 -1.41418 -0.695603 0
M  V30 6150 C 605.789 -1.40982 -1.4578 0
M  V30 6151 C 606.122 -0.0187763 -1.94191 0
M  V30 6152 O 605.397 0.95346 -1.69527 0
M  V30 6153 C 605.68 -2.41657 -2.66972 0
M  V30 6154 C 605.533 -3.89869 -2.24327 0
M  V30 6155 C 606.852 -2.39589 -3.69168 0
M  V30 6156 H 603.971 -0.513405 -0.528757 0
M  V30 6157 H 606.613 -1.72693 -0.792275 0
M  V30 6158 H 604.763 -2.14746 -3.23754 0
M  V30 6159 H 606.435 -4.27683 -1.72872 0
M  V30 6160 H 604.678 -4.04737 -1.56111 0
M  V30 6161 H 605.349 -4.55857 -3.11285 0
M  V30 6162 H 607.825 -2.63471 -3.2206 0
M  V30 6163 H 606.701 -3.12044 -4.51575 0
M  V30 6164 H 606.962 -1.41447 -4.18862 0
M  V30 6165 N 606.021 0.929856 -1.27246 0
M  V30 6166 C 606.951 2.04722 -1.12299 0
M  V30 6167 C 607.932 1.70082 -0.0250464 0
M  V30 6168 O 609.117 1.93176 -0.199141 0
M  V30 6169 C 606.247 3.38721 -0.767145 0
M  V30 6170 C 605.201 3.87466 -1.81808 0
M  V30 6171 C 604.527 5.18246 -1.31626 0
M  V30 6172 C 605.827 4.11095 -3.22177 0
M  V30 6173 H 607.521 2.17485 -2.05769 0
M  V30 6174 H 605.067 1.04503 -0.990715 0
M  V30 6175 H 607.02 4.16366 -0.649413 0
M  V30 6176 H 605.744 3.25967 0.203259 0
M  V30 6177 H 604.403 3.12012 -1.92468 0
M  V30 6178 H 604.051 5.01881 -0.335378 0
M  V30 6179 H 603.751 5.51829 -2.01887 0
M  V30 6180 H 605.275 5.98462 -1.21143 0
M  V30 6181 H 606.689 4.79316 -3.1453 0
M  V30 6182 H 605.086 4.55982 -3.90129 0
M  V30 6183 H 606.156 3.16468 -3.67391 0
M  V30 6184 N 607.499 1.09233 1.13605 0
M  V30 6185 C 608.449 0.6994 2.17008 0
M  V30 6186 C 609.433 -0.285238 1.58352 0
M  V30 6187 O 610.625 -0.09592 1.7674 0
M  V30 6188 C 607.754 0.11938 3.43092 0
M  V30 6189 C 606.84 1.13031 4.0876 0
M  V30 6190 N 607.231 2.31673 4.49623 0
M  V30 6191 C 605.529 0.967999 4.35369 0
M  V30 6192 C 606.23 2.95964 5.00779 0
M  V30 6193 N 605.206 2.23534 4.95513 0
M  V30 6194 H 609.008 1.60272 2.46354 0
M  V30 6195 H 606.522 0.968257 1.30378 0
M  V30 6196 H 608.519 -0.180122 4.16511 0
M  V30 6197 H 607.179 -0.778816 3.15221 0
M  V30 6198 H 608.19 2.69277 4.42391 0
M  V30 6199 H 604.867 0.124319 4.17315 0
M  V30 6200 H 606.257 3.96813 5.42208 0
M  V30 6201 N 608.977 -1.30795 0.87923 0
M  V30 6202 C 610.207 -2.00237 0.50881 0
M  V30 6203 C 610.615 -1.66115 -0.905682 0
M  V30 6204 O 609.958 -0.89138 -1.60624 0
M  V30 6205 C 610.02 -3.54508 0.597003 0
M  V30 6206 C 609.684 -4.12131 1.97477 0
M  V30 6207 C 610.681 -4.28552 2.94346 0
M  V30 6208 C 608.366 -4.47644 2.2786 0
M  V30 6209 C 610.36 -4.79689 4.19735 0
M  V30 6210 C 608.047 -4.98481 3.53496 0
M  V30 6211 C 609.045 -5.14456 4.49248 0
M  V30 6212 O 608.733 -5.64199 5.72656 0
M  V30 6213 H 608.465 -0.647026 0.195788 0
M  V30 6214 H 611.019 -1.67785 1.1848 0
M  V30 6215 H 609.249 -3.86461 -0.135945 0
M  V30 6216 H 610.938 -4.05198 0.238684 0
M  V30 6217 H 611.704 -4.01424 2.72183 0
M  V30 6218 H 607.583 -4.34481 1.54102 0
M  V30 6219 H 611.127 -4.92073 4.9448 0
M  V30 6220 H 607.024 -5.25044 3.75498 0
M  V30 6221 H 607.792 -5.82551 5.74957 0
M  V30 6222 N 610.455 -0.639598 -1.44038 0
M  V30 6223 C 611.683 -0.154811 -2.0632 0
M  V30 6224 C 612.098 1.17406 -1.47856 0
M  V30 6225 O 611.455 1.72193 -0.604638 0
M  V30 6226 C 611.506 -0.0429958 -3.61474 0
M  V30 6227 O 611.227 -1.31932 -4.17763 0
M  V30 6228 C 612.728 0.469486 -4.40807 0
M  V30 6229 H 609.948 -0.0835862 -0.665773 0
M  V30 6230 H 612.492 -0.876397 -1.84769 0
M  V30 6231 H 610.647 0.629075 -3.82258 0
M  V30 6232 H 611.061 -1.16965 -5.11292 0
M  V30 6233 H 612.535 0.496712 -5.49761 0
M  V30 6234 H 613.012 1.49819 -4.12857 0
M  V30 6235 H 613.618 -0.169624 -4.24962 0
M  V30 6236 N 611.933 1.52934 -0.380664 0
M  V30 6237 C 613.21 1.93845 0.261417 0
M  V30 6238 C 613.59 1.31544 1.65104 0
M  V30 6239 O 612.938 0.480234 2.23397 0
M  V30 6240 C 613.148 3.47739 0.296466 0
M  V30 6241 C 614.496 4.21284 0.529578 0
M  V30 6242 O 615.52 3.54199 0.377041 0
M  V30 6243 O 614.379 5.40195 0.827753 0
M  V30 6244 H 611.473 0.811318 0.160285 0
M  V30 6245 H 614.019 1.64042 -0.434544 0
M  V30 6246 H 612.791 3.85395 -0.67724 0
M  V30 6247 H 612.414 3.8382 1.0377 0
M  V30 6248 N 613.412 0.11024 1.57214 0
M  V30 6249 C 614.658 -0.544479 1.95977 0
M  V30 6250 C 615.013 -1.64845 0.992171 0
M  V30 6251 O 614.306 -1.91589 0.0206981 0
M  V30 6252 C 614.5 -1.13102 3.39032 0
M  V30 6253 C 614.329 -0.0854079 4.49619 0
M  V30 6254 C 613.099 0.343373 5.04132 0
M  V30 6255 C 615.297 0.692232 5.0962 0
M  V30 6256 N 613.279 1.37567 5.98288 0
M  V30 6257 C 614.65 1.57596 5.99636 0
M  V30 6258 C 616.705 0.744085 4.92309 0
M  V30 6259 C 615.408 2.50701 6.74197 0
M  V30 6260 C 617.434 1.6628 5.67543 0
M  V30 6261 C 616.796 2.53412 6.57238 0
M  V30 6262 H 612.895 -0.169124 0.763493 0
M  V30 6263 H 615.479 0.196326 1.93708 0
M  V30 6264 H 613.65 -1.84158 3.41965 0
M  V30 6265 H 615.382 -1.74934 3.64939 0
M  V30 6266 H 612.137 -0.0473277 4.73576 0
M  V30 6267 H 612.561 1.89048 6.50069 0
M  V30 6268 H 617.203 0.0845825 4.22715 0
M  V30 6269 H 614.921 3.17669 7.43043 0
M  V30 6270 H 618.507 1.70825 5.56156 0
M  V30 6271 H 617.387 3.23347 7.14434 0
M  V30 6272 N 614.89 -1.56749 -0.16351 0
M  V30 6273 C 615.82 -2.00042 -1.20438 0
M  V30 6274 C 616.801 -0.877256 -1.45733 0
M  V30 6275 O 617.986 -1.1439 -1.56935 0
M  V30 6276 C 615.116 -2.36697 -2.54149 0
M  V30 6277 C 614.07 -3.52046 -2.43408 0
M  V30 6278 C 613.396 -3.74466 -3.81679 0
M  V30 6279 C 614.696 -4.85247 -1.93216 0
M  V30 6280 H 616.39 -2.87244 -0.844477 0
M  V30 6281 H 613.936 -1.38194 -0.40478 0
M  V30 6282 H 615.889 -2.65582 -3.27176 0
M  V30 6283 H 614.613 -1.46414 -2.91943 0
M  V30 6284 H 613.272 -3.23301 -1.72834 0
M  V30 6285 H 612.92 -2.81461 -4.1688 0
M  V30 6286 H 612.62 -4.52084 -3.75359 0
M  V30 6287 H 614.144 -4.0576 -4.5628 0
M  V30 6288 H 615.558 -5.12957 -2.56023 0
M  V30 6289 H 613.955 -5.66556 -1.97825 0
M  V30 6290 H 615.025 -4.7672 -0.88689 0
M  V30 6291 N 616.368 0.432326 -1.51554 0
M  V30 6292 C 617.318 1.52366 -1.69614 0
M  V30 6293 C 618.302 1.51205 -0.550083 0
M  V30 6294 O 619.494 1.57573 -0.806206 0
M  V30 6295 C 616.623 2.90513 -1.82913 0
M  V30 6296 C 615.709 2.9641 -3.03318 0
M  V30 6297 N 616.1 2.72043 -4.26411 0
M  V30 6298 C 614.398 3.27572 -3.02675 0
M  V30 6299 C 615.099 2.83912 -5.07709 0
M  V30 6300 N 614.075 3.15798 -4.42462 0
M  V30 6301 H 617.877 1.32285 -2.62446 0
M  V30 6302 H 615.391 0.639708 -1.4927 0
M  V30 6303 H 617.388 3.69032 -1.93962 0
M  V30 6304 H 616.048 3.1161 -0.912655 0
M  V30 6305 H 617.059 2.46876 -4.55272 0
M  V30 6306 H 613.736 3.54411 -2.20678 0
M  V30 6307 H 615.126 2.68984 -6.15709 0
M  V30 6308 N 617.846 1.41785 0.688094 0
M  V30 6309 C 619.257 1.3701 1.26828 0
M  V30 6310 C 619.608 0.056835 1.96118 0
M  V30 6311 O 618.733 -0.84475 1.99231 0
M  V30 6312 C 619.328 2.48168 2.30648 0
M  V30 6313 C 617.887 2.46766 2.84224 0
M  V30 6314 C 617.034 2.27633 1.58361 0
M  V30 6315 H 619.985 1.51192 0.482351 0
M  V30 6316 H 620.006 2.17655 3.121 0
M  V30 6317 H 619.518 3.43735 1.80188 0
M  V30 6318 H 617.619 1.54978 3.3884 0
M  V30 6319 H 617.732 3.43342 3.34145 0
M  V30 6320 H 616.096 1.75648 1.84445 0
M  V30 6321 H 616.879 3.25238 1.09887 0
M  V30 6322 N 619.324 -0.923095 1.27737 0
M  V30 6323 C 620.234 -2.05765 1.12685 0
M  V30 6324 C 621.25 -1.73911 0.0557197 0
M  V30 6325 O 622.426 -1.99674 0.263137 0
M  V30 6326 C 619.491 -3.37804 0.780363 0
M  V30 6327 C 618.552 -3.83326 1.93286 0
M  V30 6328 C 617.785 -5.09064 1.60281 0
M  V30 6329 O 618.008 -5.6809 0.512828 0
M  V30 6330 O 616.942 -5.50071 2.44347 0
M  V30 6331 H 620.768 -2.21378 2.07907 0
M  V30 6332 H 618.353 -1.04299 1.06968 0
M  V30 6333 H 620.235 -4.17097 0.600668 0
M  V30 6334 H 618.91 -3.23387 -0.142291 0
M  V30 6335 H 617.817 -3.049 2.16764 0
M  V30 6336 H 619.15 -4.02292 2.83588 0
M  V30 6337 N 620.802 -1.09834 -1.13024 0
M  V30 6338 C 622.079 -0.749225 -1.80682 0
M  V30 6339 C 622.459 0.765171 -1.96744 0
M  V30 6340 O 621.807 1.68912 -1.53886 0
M  V30 6341 C 622.017 -1.49311 -3.15448 0
M  V30 6342 C 623.365 -1.66162 -3.90737 0
M  V30 6343 O 624.389 -1.45597 -3.25085 0
M  V30 6344 O 623.248 -2.00211 -5.08505 0
M  V30 6345 H 620.342 -0.269614 -0.781817 0
M  V30 6346 H 622.888 -1.20078 -1.19914 0
M  V30 6347 H 621.66 -2.52407 -2.99009 0
M  V30 6348 H 621.283 -1.034 -3.8392 0
M  V30 6349 N 622.28 1.30327 -0.886154 0
M  V30 6350 C 623.691 1.78243 -0.555554 0
M  V30 6351 C 624.042 1.72849 0.928314 0
M  V30 6352 O 623.167 1.30607 1.72542 0
M  V30 6353 C 623.762 3.23654 -1.00168 0
M  V30 6354 C 622.321 3.69401 -0.722471 0
M  V30 6355 C 621.468 2.50753 -1.18399 0
M  V30 6356 H 624.419 1.1718 -1.07026 0
M  V30 6357 H 624.44 3.79056 -0.331152 0
M  V30 6358 H 623.952 3.27548 -2.08169 0
M  V30 6359 H 622.053 3.70995 0.345496 0
M  V30 6360 H 622.166 4.60818 -1.31085 0
M  V30 6361 H 620.53 2.47452 -0.603303 0
M  V30 6362 H 621.313 2.57383 -2.27176 0
M  V30 6363 N 623.758 0.647228 1.43697 0
M  V30 6364 C 624.721 -0.0385101 2.29168 0
M  V30 6365 C 625.721 -0.756487 1.41894 0
M  V30 6366 O 626.911 -0.598641 1.63591 0
M  V30 6367 C 624.043 -1.06524 3.23829 0
M  V30 6368 H 625.236 0.713445 2.9129 0
M  V30 6369 H 622.789 0.408153 1.50877 0
M  V30 6370 H 623.524 -1.84664 2.66589 0
M  V30 6371 H 623.309 -0.554147 3.88164 0
M  V30 6372 H 624.799 -1.54432 3.87996 0
M  V30 6373 N 625.236 -1.5273 0.388769 0
M  V30 6374 C 626.652 -1.59553 0.0387049 0
M  V30 6375 C 626.852 -1.40278 -1.44652 0
M  V30 6376 O 625.908 -1.21951 -2.21098 0
M  V30 6377 C 627.221 -2.9625 0.515409 0
M  V30 6378 C 628.769 -3.09426 0.471621 0
M  V30 6379 C 629.244 -4.48572 0.924505 0
M  V30 6380 N 630.735 -4.54754 0.880496 0
M  V30 6381 C 631.47 -5.60653 1.20234 0
M  V30 6382 N 630.966 -6.74198 1.59463 0
M  V30 6383 N 632.759 -5.50755 1.12363 0
M  V30 6384 H 624.91 -1.63508 1.35569 0
M  V30 6385 H 627.173 -0.768097 0.555636 0
M  V30 6386 H 626.879 -3.15569 1.5527 0
M  V30 6387 H 626.753 -3.77102 -0.085792 0
M  V30 6388 H 629.14 -2.89804 -0.556588 0
M  V30 6389 H 629.221 -2.30528 1.10862 0
M  V30 6390 H 628.865 -4.68936 1.95094 0
M  V30 6391 H 628.795 -5.25935 0.264524 0
M  V30 6392 H 631.286 -3.73237 0.591815 0
M  V30 6393 H 631.599 -7.5097 1.82385 0
M  V30 6394 H 629.944 -6.75531 1.63349 0
M  V30 6395 H 633.135 -4.6093 0.816169 0
M  V30 6396 H 633.308 -6.33184 1.37777 0
M  V30 6397 N 626.714 -0.118576 -1.57153 0
M  V30 6398 C 627.644 0.828436 -2.1831 0
M  V30 6399 C 628.625 1.27758 -1.12303 0
M  V30 6400 O 629.81 1.34026 -1.40537 0
M  V30 6401 C 626.94 2.07876 -2.78217 0
M  V30 6402 C 625.894 1.76742 -3.89803 0
M  V30 6403 C 625.22 3.08801 -4.36516 0
M  V30 6404 C 626.52 1.03606 -5.11921 0
M  V30 6405 H 628.214 0.318824 -2.97698 0
M  V30 6406 H 625.76 0.151911 -1.43196 0
M  V30 6407 H 627.713 2.74584 -3.19659 0
M  V30 6408 H 626.437 2.61161 -1.96118 0
M  V30 6409 H 625.096 1.12424 -3.48936 0
M  V30 6410 H 624.744 3.6002 -3.51276 0
M  V30 6411 H 624.444 2.88743 -5.11763 0
M  V30 6412 H 625.968 3.76627 -4.80608 0
M  V30 6413 H 627.382 1.60467 -5.50385 0
M  V30 6414 H 625.779 0.936454 -5.92748 0
M  V30 6415 H 626.849 0.0227421 -4.84895 0
M  V30 6416 N 628.193 1.56834 0.155195 0
M  V30 6417 C 629.609 1.51315 0.50755 0
M  V30 6418 C 629.809 0.825614 1.83809 0
M  V30 6419 O 628.865 0.39271 2.49427 0
M  V30 6420 C 630.178 2.96074 0.52542 0
M  V30 6421 C 631.726 3.06968 0.611505 0
M  V30 6422 C 632.201 4.53218 0.660115 0
M  V30 6423 N 633.692 4.5753 0.722564 0
M  V30 6424 C 634.427 5.68056 0.781023 0
M  V30 6425 N 633.923 6.88173 0.799327 0
M  V30 6426 N 635.716 5.56068 0.821278 0
M  V30 6427 H 627.867 1.9993 -0.717063 0
M  V30 6428 H 630.13 0.911507 -0.260496 0
M  V30 6429 H 629.836 3.49599 -0.383875 0
M  V30 6430 H 629.71 3.51587 1.36624 0
M  V30 6431 H 632.097 2.53468 1.51122 0
M  V30 6432 H 632.178 2.54513 -0.256306 0
M  V30 6433 H 631.822 5.07354 -0.23541 0
M  V30 6434 H 631.752 5.03447 1.5443 0
M  V30 6435 H 634.243 3.71054 0.716049 0
M  V30 6436 H 634.556 7.6816 0.845553 0
M  V30 6437 H 632.901 6.90751 0.767337 0
M  V30 6438 H 636.092 4.61142 0.804091 0
M  V30 6439 H 636.265 6.42223 0.863372 0
M  V30 6440 N 629.671 -0.424282 1.51781 0
M  V30 6441 C 630.581 -1.54087 1.76902 0
M  V30 6442 C 631.597 -1.61249 0.653826 0
M  V30 6443 O 632.773 -1.78247 0.937552 0
M  V30 6444 C 629.838 -2.8996 1.90063 0
M  V30 6445 C 628.899 -2.92809 3.13945 0
M  V30 6446 C 628.132 -4.22201 3.26469 0
M  V30 6447 O 628.355 -5.15286 2.44616 0
M  V30 6448 O 627.289 -4.31599 4.1953 0
M  V30 6449 H 631.115 -1.358 2.71647 0
M  V30 6450 H 628.7 -0.608618 1.36441 0
M  V30 6451 H 630.582 -3.70575 2.0063 0
M  V30 6452 H 629.257 -3.08347 0.985067 0
M  V30 6453 H 628.164 -2.11102 3.08847 0
M  V30 6454 H 629.497 -2.79369 4.05233 0
M  V30 6455 N 631.149 -1.42148 -0.680565 0
M  V30 6456 C 632.112 -1.4488 -1.77602 0
M  V30 6457 C 633.112 -0.337209 -1.57224 0
M  V30 6458 O 634.302 -0.597778 -1.63622 0
M  V30 6459 C 631.434 -1.27483 -3.16166 0
M  V30 6460 H 632.627 -2.42412 -1.76568 0
M  V30 6461 H 630.18 -1.28511 -0.889645 0
M  V30 6462 H 630.915 -0.30851 -3.22829 0
M  V30 6463 H 630.7 -2.08037 -3.3236 0
M  V30 6464 H 632.19 -1.32265 -3.96101 0
M  V30 6465 N 632.627 0.916307 -1.28225 0
M  V30 6466 C 633.557 2.0352 -1.14464 0
M  V30 6467 C 634.538 1.70045 -0.0430844 0
M  V30 6468 O 635.723 1.92954 -0.219619 0
M  V30 6469 C 632.853 3.37889 -0.803027 0
M  V30 6470 C 631.807 3.85516 -1.85908 0
M  V30 6471 C 631.133 5.1682 -1.37116 0
M  V30 6472 C 632.433 4.07655 -3.26519 0
M  V30 6473 H 634.127 2.1529 -2.08064 0
M  V30 6474 H 631.673 1.03446 -1.00174 0
M  V30 6475 H 633.626 4.15654 -0.693537 0
M  V30 6476 H 632.35 3.26164 0.168674 0
M  V30 6477 H 631.009 3.09953 -1.95767 0
M  V30 6478 H 630.657 5.01497 -0.38859 0
M  V30 6479 H 630.357 5.49657 -2.07728 0
M  V30 6480 H 631.881 5.97143 -1.27484 0
M  V30 6481 H 633.295 4.75953 -3.19596 0
M  V30 6482 H 631.692 4.51818 -3.94943 0
M  V30 6483 H 632.762 3.12553 -3.70727 0
M  V30 6484 N 634.105 1.10431 1.1244 0
M  V30 6485 C 635.33 0.869089 1.88313 0
M  V30 6486 C 635.755 -0.574912 1.79099 0
M  V30 6487 O 635.113 -1.40496 1.14589 0
M  V30 6488 C 635.161 1.32208 3.3549 0
M  V30 6489 O 634.265 0.487092 4.09513 0
M  V30 6490 H 633.606 0.313894 0.585121 0
M  V30 6491 H 636.136 1.47111 1.42195 0
M  V30 6492 H 636.146 1.31201 3.86329 0
M  V30 6493 H 634.821 2.37364 3.41513 0
M  V30 6494 H 633.398 0.562372 3.68635 0
M  V30 6495 N 635.583 -1.29855 0.893053 0
M  V30 6496 C 636.86 -1.90694 0.435336 0
M  V30 6497 C 637.24 -1.8111 -1.08454 0
M  V30 6498 O 636.588 -1.23352 -1.92345 0
M  V30 6499 C 636.798 -3.36033 0.942472 0
M  V30 6500 C 638.146 -4.13083 0.982226 0
M  V30 6501 O 639.17 -3.4491 0.889686 0
M  V30 6502 O 638.029 -5.34896 1.12022 0
M  V30 6503 H 635.123 -0.815978 0.134567 0
M  V30 6504 H 637.669 -1.38367 0.982484 0
M  V30 6505 H 636.441 -3.37132 1.9864 0
M  V30 6506 H 636.064 -3.95828 0.374952 0
M  V30 6507 N 637.061 -0.65484 -1.43351 0
M  V30 6508 C 638.307 -0.169142 -2.02093 0
M  V30 6509 C 638.64 1.21431 -1.51553 0
M  V30 6510 O 637.915 1.81105 -0.709317 0
M  V30 6511 C 638.198 -0.181775 -3.59641 0
M  V30 6512 C 638.051 -1.59926 -4.20409 0
M  V30 6513 C 639.37 0.480945 -4.37464 0
M  V30 6514 H 636.489 -0.0629371 -0.734308 0
M  V30 6515 H 639.131 -0.835833 -1.70628 0
M  V30 6516 H 637.281 0.385918 -3.86578 0
M  V30 6517 H 638.953 -2.21766 -4.04497 0
M  V30 6518 H 637.196 -2.14605 -3.76998 0
M  V30 6519 H 637.867 -1.55994 -5.295 0
M  V30 6520 H 640.343 -0.00208273 -4.161 0
M  V30 6521 H 639.219 0.441384 -5.47122 0
M  V30 6522 H 639.48 1.55533 -4.13838 0
M  V30 6523 N 638.539 1.52521 -0.396863 0
M  V30 6524 C 639.785 2.01971 0.183169 0
M  V30 6525 C 640.118 1.2825 1.45827 0
M  V30 6526 O 639.393 0.385179 1.90648 0
M  V30 6527 C 639.676 3.5736 0.443391 0
M  V30 6528 C 639.529 4.41743 -0.84753 0
M  V30 6529 C 640.848 4.22539 1.2308 0
M  V30 6530 H 637.967 0.734119 0.0650976 0
M  V30 6531 H 640.609 1.82519 -0.527918 0
M  V30 6532 H 638.759 3.74066 1.04914 0
M  V30 6533 H 640.431 4.36773 -1.48414 0
M  V30 6534 H 638.674 4.0845 -1.4612 0
M  V30 6535 H 639.345 5.48507 -0.620003 0
M  V30 6536 H 641.821 4.09857 0.718084 0
M  V30 6537 H 640.697 5.31227 1.38162 0
M  V30 6538 H 640.958 3.80675 2.24808 0
M  V30 6539 N 640.017 0.126909 1.57088 0
M  V30 6540 C 641.265 -0.528123 1.95078 0
M  V30 6541 C 641.586 -1.66708 1.0116 0
M  V30 6542 O 640.856 -1.95777 0.0693527 0
M  V30 6543 H 639.436 -0.198087 0.720257 0
M  V30 6544 H 642.098 0.197703 1.93895 0
M  V30 6545 H 641.194 -0.917507 2.98309 0
M  V30 6546 N 641.495 -1.56914 -0.146875 0
M  V30 6547 C 642.772 -1.74273 -0.888165 0
M  V30 6548 C 643.152 -0.69496 -1.99333 0
M  V30 6549 O 642.5 0.286093 -2.26702 0
M  V30 6550 C 642.71 -3.18336 -1.43051 0
M  V30 6551 C 644.058 -3.80024 -1.89387 0
M  V30 6552 O 645.082 -3.21765 -1.52792 0
M  V30 6553 O 643.941 -4.82367 -2.56874 0
M  V30 6554 H 641.035 -0.712565 -0.419738 0
M  V30 6555 H 643.581 -1.6918 -0.132791 0
M  V30 6556 H 642.353 -3.86092 -0.636274 0
M  V30 6557 H 641.976 -3.27854 -2.24938 0
M  V30 6558 N 642.974 0.416227 -1.52004 0
M  V30 6559 C 643.924 1.50558 -1.7122 0
M  V30 6560 C 644.908 1.50613 -0.56609 0
M  V30 6561 O 646.1 1.56709 -0.822874 0
M  V30 6562 C 643.229 2.88556 -1.85984 0
M  V30 6563 C 642.315 2.93177 -3.06445 0
M  V30 6564 N 642.706 2.67505 -4.29272 0
M  V30 6565 C 641.004 3.24343 -3.06133 0
M  V30 6566 C 641.705 2.78511 -5.10692 0
M  V30 6567 N 640.681 3.11087 -4.45787 0
M  V30 6568 H 644.483 1.29494 -2.63834 0
M  V30 6569 H 641.997 0.62384 -1.4994 0
M  V30 6570 H 643.994 3.66954 -1.97865 0
M  V30 6571 H 642.654 3.10624 -0.945654 0
M  V30 6572 H 643.665 2.42033 -4.57865 0
M  V30 6573 H 640.342 3.52051 -2.24425 0
M  V30 6574 H 641.732 2.62438 -6.18527 0
M  V30 6575 N 644.452 1.42507 0.673017 0
M  V30 6576 C 645.4 1.46362 1.80779 0
M  V30 6577 C 646.394 0.339166 1.6597 0
M  V30 6578 O 647.6 0.512262 1.72557 0
M  V30 6579 H 643.975 0.458433 0.596107 0
M  V30 6580 H 645.946 2.41953 1.74646 0
M  V30 6581 C 644.695 1.38462 3.18941 0
M  V30 6582 H 644.018 2.24283 3.30964 0
M  V30 6583 H 645.458 1.45221 3.98355 0
M  V30 6584 C 643.917 0.0996354 3.36753 0
M  V30 6585 O 644.447 -0.846894 3.92671 0
M  V30 6586 N 642.653 0.016211 2.90595 0
M  V30 6587 H 642.2 0.78725 2.45276 0
M  V30 6588 H 642.158 -0.84291 3.0289 0
M  V30 6589 N 645.93 -0.909495 1.28709 0
M  V30 6590 C 647.176 -1.66151 1.16283 0
M  V30 6591 C 647.509 -1.92067 -0.287069 0
M  V30 6592 O 646.784 -1.52409 -1.20837 0
M  V30 6593 C 647.067 -3.01676 1.9663 0
M  V30 6594 C 646.92 -2.82888 3.49707 0
M  V30 6595 C 648.239 -4.02274 1.78504 0
M  V30 6596 H 645.358 -0.602966 0.423793 0
M  V30 6597 H 648 -1.05418 1.58073 0
M  V30 6598 H 646.15 -3.53515 1.61119 0
M  V30 6599 H 647.822 -2.38026 3.95147 0
M  V30 6600 H 646.065 -2.17862 3.75125 0
M  V30 6601 H 646.736 -3.79147 4.01187 0
M  V30 6602 H 649.212 -3.59511 2.09503 0
M  V30 6603 H 648.088 -4.95056 2.37088 0
M  V30 6604 H 648.349 -4.35903 0.737647 0
M  V30 6605 N 647.408 -1.11026 -1.11852 0
M  V30 6606 C 648.654 -0.857729 -1.83768 0
M  V30 6607 C 648.987 0.615143 -1.842 0
M  V30 6608 O 648.262 1.45391 -1.29196 0
M  V30 6609 C 648.545 -1.41453 -3.31154 0
M  V30 6610 C 648.398 -2.95471 -3.39142 0
M  V30 6611 C 649.717 -1.0619 -4.27097 0
M  V30 6612 H 646.836 -0.313044 -0.667212 0
M  V30 6613 H 649.478 -1.37443 -1.31185 0
M  V30 6614 H 647.628 -0.975052 -3.76065 0
M  V30 6615 H 649.3 -3.4799 -3.02821 0
M  V30 6616 H 647.543 -3.31759 -2.79497 0
M  V30 6617 H 648.214 -3.29515 -4.42859 0
M  V30 6618 H 650.69 -1.44122 -3.90344 0
M  V30 6619 H 649.566 -1.47832 -5.28618 0
M  V30 6620 H 649.827 0.0278912 -4.42091 0
M  V30 6621 N 648.886 1.2938 -0.899927 0
M  V30 6622 C 650.126 1.97332 -0.532871 0
M  V30 6623 C 650.49 1.69385 0.904029 0
M  V30 6624 O 651.691 2.30793 1.37797 0
M  V30 6625 C 649.962 3.47927 -0.817393 0
M  V30 6626 S 651.521 4.3528 -0.55468 0
M  V30 6627 H 648.339 0.682966 -0.197683 0
M  V30 6628 H 650.941 1.57189 -1.16241 0
M  V30 6629 H 649.645 3.65761 -1.86138 0
M  V30 6630 H 649.176 3.93006 -0.175978 0
M  V30 6631 H 651.191 4.92557 0.600182 0
M  V30 6632 N 650.364 0.662433 1.43002 0
M  V30 6633 C 651.775 0.258315 1.84904 0
M  V30 6634 C 652.126 -1.19703 1.55453 0
M  V30 6635 O 651.251 -1.91484 1.00811 0
M  V30 6636 C 651.846 0.462047 3.35635 0
M  V30 6637 C 650.405 0.112165 3.76233 0
M  V30 6638 C 649.552 0.760479 2.66668 0
M  V30 6639 H 652.503 0.865467 1.33024 0
M  V30 6640 H 652.524 -0.289646 3.79396 0
M  V30 6641 H 652.036 1.52135 3.57039 0
M  V30 6642 H 650.137 -0.944179 3.60439 0
M  V30 6643 H 650.25 0.544058 4.76001 0
M  V30 6644 H 648.614 0.192887 2.53969 0
M  V30 6645 H 649.397 1.82299 2.90898 0
M  V30 6646 N 651.842 -1.52309 0.404946 0
M  V30 6647 C 653.088 -2.02065 -0.172455 0
M  V30 6648 C 653.421 -1.29022 -1.45145 0
M  V30 6649 O 652.696 -0.395284 -1.90441 0
M  V30 6650 C 652.979 -3.5759 -0.424433 0
M  V30 6651 C 652.832 -4.41287 0.870945 0
M  V30 6652 C 654.151 -4.23186 -1.20837 0
M  V30 6653 H 651.27 -0.734454 -0.0612035 0
M  V30 6654 H 653.912 -1.82236 0.53759 0
M  V30 6655 H 652.062 -3.74617 -1.02929 0
M  V30 6656 H 653.734 -4.3598 1.50729 0
M  V30 6657 H 651.977 -4.07669 1.48284 0
M  V30 6658 H 652.648 -5.48171 0.649083 0
M  V30 6659 H 655.124 -4.10232 -0.696338 0
M  V30 6660 H 654 -5.31953 -1.35343 0
M  V30 6661 H 654.261 -3.81862 -2.22786 0
M  V30 6662 N 653.32 -0.135238 -1.57019 0
M  V30 6663 C 654.283 0.794707 -2.14981 0
M  V30 6664 C 655.283 1.18342 -1.08866 0
M  V30 6665 O 656.473 1.10627 -1.34563 0
M  V30 6666 C 653.605 2.07685 -2.70333 0
M  V30 6667 H 654.798 0.290696 -2.98488 0
M  V30 6668 H 652.351 0.114128 -1.55883 0
M  V30 6669 H 653.086 2.6248 -1.9046 0
M  V30 6670 H 652.871 1.80745 -3.47957 0
M  V30 6671 H 654.361 2.74127 -3.1503 0
M  V30 6672 N 654.798 1.5699 0.138552 0
M  V30 6673 C 655.73 1.95515 1.1961 0
M  V30 6674 C 656.743 0.852002 1.38726 0
M  V30 6675 O 657.932 1.13038 1.38147 0
M  V30 6676 C 655.032 2.2213 2.55952 0
M  V30 6677 C 654.205 3.53424 2.57702 0
M  V30 6678 C 653.264 3.6848 3.75645 0
M  V30 6679 O 652.29 4.4079 3.60129 0
M  V30 6680 N 653.492 3.05777 4.93438 0
M  V30 6681 H 656.257 2.86838 0.868557 0
M  V30 6682 H 653.818 1.58542 0.328033 0
M  V30 6683 H 655.81 2.29435 3.33379 0
M  V30 6684 H 654.38 1.3703 2.80965 0
M  V30 6685 H 653.6 3.57484 1.6613 0
M  V30 6686 H 654.888 4.39759 2.55909 0
M  V30 6687 H 654.286 2.46961 5.08947 0
M  V30 6688 H 652.843 3.18631 5.6861 0
M  V30 6689 N 656.276 -0.40816 1.52223 0
M  V30 6690 C 657.206 -1.5042 1.78595 0
M  V30 6691 C 658.187 -1.57723 0.636974 0
M  V30 6692 O 659.372 -1.72982 0.882664 0
M  V30 6693 C 656.502 -2.88232 1.93751 0
M  V30 6694 C 655.456 -2.95779 3.09352 0
M  V30 6695 C 654.782 -4.35855 3.09732 0
M  V30 6696 C 656.082 -2.67175 4.48793 0
M  V30 6697 H 657.776 -1.28601 2.70374 0
M  V30 6698 H 655.322 -0.617221 1.30101 0
M  V30 6699 H 657.275 -3.64895 2.10783 0
M  V30 6700 H 655.999 -3.11347 0.986443 0
M  V30 6701 H 654.658 -2.21561 2.92072 0
M  V30 6702 H 654.306 -4.55981 2.12346 0
M  V30 6703 H 654.006 -4.41829 3.87377 0
M  V30 6704 H 655.53 -5.14451 3.28895 0
M  V30 6705 H 656.944 -3.3356 4.66273 0
M  V30 6706 H 655.341 -2.84523 5.28362 0
M  V30 6707 H 656.411 -1.62609 4.56822 0
M  V30 6708 N 657.755 -1.42862 -0.66545 0
M  V30 6709 C 658.718 -1.46756 -1.76055 0
M  V30 6710 C 659.718 -0.353866 -1.56858 0
M  V30 6711 O 660.908 -0.615099 -1.62979 0
M  V30 6712 C 658.04 -1.30829 -3.14796 0
M  V30 6713 H 659.233 -2.44271 -1.73987 0
M  V30 6714 H 656.786 -1.29447 -0.875965 0
M  V30 6715 H 657.521 -0.342733 -3.22484 0
M  V30 6716 H 657.306 -2.11551 -3.30134 0
M  V30 6717 H 658.796 -1.36458 -3.94676 0
M  V30 6718 N 659.233 0.902656 -1.29189 0
M  V30 6719 C 660.481 1.6496 -1.16758 0
M  V30 6720 C 660.802 1.92952 0.28188 0
M  V30 6721 O 660.072 1.55351 1.19344 0
M  V30 6722 H 658.652 0.611447 -0.429118 0
M  V30 6723 H 661.314 1.0825 -1.62074 0
M  V30 6724 H 660.41 2.60728 -1.71544 0
M  V30 6725 N 660.711 1.11618 1.11262 0
M  V30 6726 C 662.127 0.850468 1.35053 0
M  V30 6727 C 662.327 -0.523868 1.94571 0
M  V30 6728 O 661.383 -1.2743 2.17986 0
M  V30 6729 C 662.696 1.96005 2.28041 0
M  V30 6730 C 664.244 1.98993 2.416 0
M  V30 6731 C 664.719 3.0916 3.37911 0
M  V30 6732 N 666.21 3.08547 3.45475 0
M  V30 6733 C 666.945 3.9043 4.19943 0
M  V30 6734 N 666.441 4.8228 4.97371 0
M  V30 6735 N 668.234 3.786 4.15474 0
M  V30 6736 H 660.385 2.00184 0.709932 0
M  V30 6737 H 662.648 0.870635 0.375099 0
M  V30 6738 H 662.354 2.9499 1.91503 0
M  V30 6739 H 662.228 1.85782 3.28275 0
M  V30 6740 H 664.615 1.00633 2.77411 0
M  V30 6741 H 664.696 2.13292 1.4121 0
M  V30 6742 H 664.34 4.07748 3.02827 0
M  V30 6743 H 664.27 2.92102 4.3816 0
M  V30 6744 H 666.761 2.42 2.90249 0
M  V30 6745 H 667.074 5.41289 5.51567 0
M  V30 6746 H 665.419 4.863 4.96525 0
M  V30 6747 H 668.61 3.06185 3.54074 0
M  V30 6748 H 668.783 4.42647 4.73253 0
M  V30 6749 N 662.189 -1.289 0.906776 0
M  V30 6750 C 663.119 -2.29932 0.406659 0
M  V30 6751 C 664.1 -1.6189 -0.522061 0
M  V30 6752 O 665.285 -1.8935 -0.431283 0
M  V30 6753 C 662.415 -3.45425 -0.360366 0
M  V30 6754 C 661.369 -4.25316 0.478574 0
M  V30 6755 C 660.695 -5.33076 -0.416373 0
M  V30 6756 C 661.995 -4.92739 1.7322 0
M  V30 6757 H 663.689 -2.72013 1.25097 0
M  V30 6758 H 661.235 -1.30768 0.602977 0
M  V30 6759 H 663.188 -4.15186 -0.721029 0
M  V30 6760 H 661.912 -3.02206 -1.23852 0
M  V30 6761 H 660.571 -3.57273 0.821662 0
M  V30 6762 H 660.219 -4.86101 -1.29287 0
M  V30 6763 H 659.919 -5.8743 0.141309 0
M  V30 6764 H 661.443 -6.05686 -0.773072 0
M  V30 6765 H 662.857 -5.54898 1.44086 0
M  V30 6766 H 661.254 -5.57057 2.23175 0
M  V30 6767 H 662.324 -4.17625 2.46408 0
M  V30 6768 N 663.667 -0.670007 -1.42649 0
M  V30 6769 C 664.63 0.00204659 -2.292 0
M  V30 6770 C 665.63 0.733817 -1.4308 0
M  V30 6771 O 666.82 0.57254 -1.64522 0
M  V30 6772 C 663.952 1.01359 -3.25483 0
M  V30 6773 H 665.145 -0.759696 -2.90118 0
M  V30 6774 H 662.698 -0.432105 -1.50208 0
M  V30 6775 H 663.433 1.80399 -2.69493 0
M  V30 6776 H 663.218 0.492323 -3.88997 0
M  V30 6777 H 664.708 1.4824 -3.90403 0
M  V30 6778 N 665.145 1.52092 -0.413018 0
M  V30 6779 C 666.108 2.25706 0.398687 0
M  V30 6780 C 667.108 1.28221 0.970368 0
M  V30 6781 O 668.298 1.52131 0.848635 0
M  V30 6782 C 665.43 3.03029 1.5616 0
M  V30 6783 H 666.623 2.98888 -0.246131 0
M  V30 6784 H 664.176 1.5542 -0.165622 0
M  V30 6785 H 664.911 2.34205 2.24317 0
M  V30 6786 H 664.696 3.74606 1.15812 0
M  V30 6787 H 666.186 3.58857 2.13569 0
M  V30 6788 N 666.623 0.143563 1.56945 0
M  V30 6789 C 667.555 -0.828353 2.13708 0
M  V30 6790 C 668.568 -1.21313 1.08568 0
M  V30 6791 O 669.757 -1.1578 1.35857 0
M  V30 6792 C 666.857 -2.12248 2.64204 0
M  V30 6793 C 666.03 -1.90561 3.93707 0
M  V30 6794 C 665.089 -3.03931 4.29549 0
M  V30 6795 O 664.115 -2.75772 4.97934 0
M  V30 6796 N 665.317 -4.31016 3.88852 0
M  V30 6797 H 668.082 -0.343242 2.97728 0
M  V30 6798 H 665.643 -0.0401152 1.6185 0
M  V30 6799 H 667.635 -2.87132 2.85197 0
M  V30 6800 H 666.205 -2.52033 1.84928 0
M  V30 6801 H 665.425 -0.997327 3.81375 0
M  V30 6802 H 666.713 -1.73405 4.78339 0
M  V30 6803 H 666.111 -4.56762 3.33743 0
M  V30 6804 H 664.668 -5.02691 4.14903 0
M  V30 6805 N 668.101 -1.57061 -0.130224 0
M  V30 6806 C 669.349 -1.83893 -0.838313 0
M  V30 6807 C 669.67 -0.727046 -1.80939 0
M  V30 6808 O 668.94 0.249927 -1.94299 0
M  V30 6809 H 667.52 -0.67846 -0.312573 0
M  V30 6810 H 670.182 -1.94529 -0.120224 0
M  V30 6811 H 669.278 -2.79419 -1.39038 0
M  V30 6812 N 669.579 0.400081 -1.52437 0
M  V30 6813 C 670.542 1.4707 -1.75793 0
M  V30 6814 C 671.542 1.48036 -0.627856 0
M  V30 6815 O 672.732 1.49401 -0.895817 0
M  V30 6816 C 669.864 2.86427 -1.84858 0
M  V30 6817 H 671.057 1.27649 -2.71377 0
M  V30 6818 H 668.61 0.631141 -1.42991 0
M  V30 6819 H 669.345 3.11207 -0.912194 0
M  V30 6820 H 669.13 2.87128 -2.6702 0
M  V30 6821 H 670.62 3.64023 -2.04638 0
M  V30 6822 N 671.057 1.43213 0.657864 0
M  V30 6823 C 672.473 1.26511 0.972992 0
M  V30 6824 C 672.673 0.181477 2.00681 0
M  V30 6825 O 671.729 -0.441649 2.48608 0
M  V30 6826 C 673.042 2.62784 1.46168 0
M  V30 6827 C 674.59 2.70278 1.57857 0
M  V30 6828 C 675.065 4.06958 2.10117 0
M  V30 6829 N 676.556 4.08999 2.17426 0
M  V30 6830 C 677.291 5.11585 2.58975 0
M  V30 6831 N 676.787 6.24548 2.99853 0
M  V30 6832 N 678.58 4.9894 2.58873 0
M  V30 6833 H 670.731 2.12384 -0.0263129 0
M  V30 6834 H 672.994 0.946638 0.0507992 0
M  V30 6835 H 672.7 3.43022 0.776474 0
M  V30 6836 H 672.574 2.87863 2.43751 0
M  V30 6837 H 674.961 1.90376 2.25479 0
M  V30 6838 H 675.042 2.4897 0.587179 0
M  V30 6839 H 674.686 4.87325 1.43098 0
M  V30 6840 H 674.616 4.25628 3.10078 0
M  V30 6841 H 677.107 3.27457 1.88627 0
M  V30 6842 H 677.42 6.98661 3.30292 0
M  V30 6843 H 675.765 6.28027 2.97669 0
M  V30 6844 H 678.956 4.09757 2.26311 0
M  V30 6845 H 679.129 5.79019 2.90932 0
M  V30 6846 N 672.536 -0.895792 1.29666 0
M  V30 6847 C 673.782 -1.64908 1.18039 0
M  V30 6848 C 674.115 -1.9236 -0.266682 0
M  V30 6849 O 673.39 -1.53682 -1.19214 0
M  V30 6850 C 673.673 -2.99574 1.99819 0
M  V30 6851 C 673.526 -2.79163 3.52687 0
M  V30 6852 C 674.845 -4.00358 1.82761 0
M  V30 6853 H 671.964 -0.598437 0.430165 0
M  V30 6854 H 674.606 -1.03736 1.59182 0
M  V30 6855 H 672.756 -3.51786 1.64859 0
M  V30 6856 H 674.428 -2.33821 3.9765 0
M  V30 6857 H 672.671 -2.13871 3.77414 0
M  V30 6858 H 673.342 -3.74871 4.05186 0
M  V30 6859 H 675.818 -3.57268 2.13304 0
M  V30 6860 H 674.694 -4.92514 2.42325 0
M  V30 6861 H 674.955 -4.35096 0.783839 0
M  V30 6862 N 674.014 -1.12206 -1.10668 0
M  V30 6863 C 675.244 -0.897332 -1.86095 0
M  V30 6864 C 675.652 0.556778 -1.80822 0
M  V30 6865 O 674.995 1.39658 -1.19337 0
M  V30 6866 C 675.057 -1.29095 -3.35522 0
M  V30 6867 C 674.721 -2.75586 -3.64556 0
M  V30 6868 C 675.718 -3.73785 -3.6136 0
M  V30 6869 C 673.403 -3.12432 -3.93309 0
M  V30 6870 C 675.397 -5.06845 -3.86506 0
M  V30 6871 C 673.084 -4.45675 -4.18111 0
M  V30 6872 C 674.082 -5.42691 -4.147 0
M  V30 6873 O 673.77 -6.73532 -4.38873 0
M  V30 6874 H 673.502 -0.320704 -0.595084 0
M  V30 6875 H 676.056 -1.49517 -1.40833 0
M  V30 6876 H 674.286 -0.636299 -3.81429 0
M  V30 6877 H 675.975 -1.04073 -3.92331 0
M  V30 6878 H 676.741 -3.46664 -3.39189 0
M  V30 6879 H 672.62 -2.3753 -3.95096 0
M  V30 6880 H 676.164 -5.82559 -3.83758 0
M  V30 6881 H 672.061 -4.72526 -4.39761 0
M  V30 6882 H 672.829 -6.79442 -4.564 0
M  V30 6883 N 675.492 1.28418 -0.913599 0
M  V30 6884 C 676.455 2.25564 -0.406624 0
M  V30 6885 C 677.455 1.5387 0.466965 0
M  V30 6886 O 678.645 1.72094 0.270042 0
M  V30 6887 C 675.777 3.38339 0.417053 0
M  V30 6888 H 676.97 2.71926 -1.26477 0
M  V30 6889 H 674.523 1.40098 -0.692986 0
M  V30 6890 H 675.258 2.97339 1.29461 0
M  V30 6891 H 675.043 3.91542 -0.209102 0
M  V30 6892 H 676.533 4.10578 0.762602 0
M  V30 6893 N 676.97 0.677563 1.42291 0
M  V30 6894 C 678.2 0.209155 2.05539 0
M  V30 6895 C 678.608 -1.13987 1.51009 0
M  V30 6896 O 677.951 -1.71976 0.645764 0
M  V30 6897 C 678.013 0.0697758 3.59432 0
M  V30 6898 C 677.677 1.34795 4.36668 0
M  V30 6899 C 678.674 2.28201 4.67141 0
M  V30 6900 C 676.359 1.59632 4.76259 0
M  V30 6901 C 678.353 3.44718 5.36142 0
M  V30 6902 C 676.04 2.76437 5.45 0
M  V30 6903 C 677.038 3.68805 5.74867 0
M  V30 6904 O 676.726 4.83567 6.42198 0
M  V30 6905 H 676.458 0.0986202 0.668768 0
M  V30 6906 H 679.012 0.925483 1.83368 0
M  V30 6907 H 677.242 -0.702157 3.80272 0
M  V30 6908 H 678.931 -0.359115 4.04308 0
M  V30 6909 H 679.697 2.10264 4.37052 0
M  V30 6910 H 675.576 0.886073 4.52404 0
M  V30 6911 H 679.12 4.16833 5.59371 0
M  V30 6912 H 675.017 2.94299 5.74507 0
M  V30 6913 H 675.785 4.83147 6.6069 0
M  V30 6914 N 678.448 -1.51871 0.421078 0
M  V30 6915 C 679.694 -2.02237 -0.151014 0
M  V30 6916 C 680.027 -1.30554 -1.43768 0
M  V30 6917 O 679.302 -0.41546 -1.90011 0
M  V30 6918 C 679.585 -3.5802 -0.386482 0
M  V30 6919 C 679.438 -4.40339 0.9177 0
M  V30 6920 C 680.757 -4.24444 -1.16342 0
M  V30 6921 H 677.876 -0.735062 -0.0534102 0
M  V30 6922 H 680.518 -1.81656 0.556888 0
M  V30 6923 H 678.668 -3.75688 -0.989494 0
M  V30 6924 H 680.34 -4.34357 1.55344 0
M  V30 6925 H 678.583 -4.06073 1.526 0
M  V30 6926 H 679.254 -5.47451 0.707187 0
M  V30 6927 H 681.73 -4.10948 -0.652788 0
M  V30 6928 H 680.606 -5.33358 -1.29693 0
M  V30 6929 H 680.867 -3.84204 -2.18724 0
M  V30 6930 N 679.926 -0.151884 -1.56866 0
M  V30 6931 C 681.173 0.498004 -1.96281 0
M  V30 6932 C 681.501 1.64551 -1.03698 0
M  V30 6933 O 680.756 1.95585 -0.0671497 0
M  V30 6934 C 681.055 1.04074 -3.41911 0
M  V30 6935 C 680.721 0.0111688 -4.50899 0
M  V30 6936 C 679.383 -0.271844 -4.80432 0
M  V30 6937 C 681.735 -0.68869 -5.1663 0
M  V30 6938 C 679.063 -1.26044 -5.73001 0
M  V30 6939 C 681.415 -1.66613 -6.10264 0
M  V30 6940 C 680.079 -1.9568 -6.38174 0
M  V30 6941 H 679.349 0.182233 -0.718242 0
M  V30 6942 H 681.996 -0.239746 -1.89993 0
M  V30 6943 H 680.301 1.85592 -3.45055 0
M  V30 6944 H 681.998 1.55224 -3.69738 0
M  V30 6945 H 678.588 0.241932 -4.27917 0
M  V30 6946 H 682.772 -0.48324 -4.93942 0
M  V30 6947 H 678.028 -1.49202 -5.92915 0
M  V30 6948 H 682.202 -2.21392 -6.60272 0
M  V30 6949 H 679.829 -2.72434 -7.09707 0
M  V30 6950 N 681.404 1.57128 0.121893 0
M  V30 6951 C 682.314 2.03425 1.16857 0
M  V30 6952 C 683.33 0.954108 1.45509 0
M  V30 6953 O 684.506 1.26541 1.56682 0
M  V30 6954 C 681.571 2.42685 2.47599 0
M  V30 6955 C 680.632 3.64767 2.2637 0
M  V30 6956 C 679.865 4.02145 3.50878 0
M  V30 6957 O 680.088 3.39897 4.58068 0
M  V30 6958 O 679.022 4.95262 3.42051 0
M  V30 6959 H 682.848 2.92825 0.80544 0
M  V30 6960 H 680.433 1.45654 0.332477 0
M  V30 6961 H 682.315 2.68684 3.24634 0
M  V30 6962 H 680.99 1.56432 2.83392 0
M  V30 6963 H 679.897 3.43922 1.47203 0
M  V30 6964 H 681.23 4.51716 1.95482 0
M  V30 6965 N 682.882 -0.391992 1.52647 0
M  V30 6966 C 683.832 -1.47815 1.73594 0
M  V30 6967 C 684.816 -1.49693 0.589979 0
M  V30 6968 O 686.008 -1.5538 0.847701 0
M  V30 6969 C 683.137 -2.85561 1.90551 0
M  V30 6970 C 682.223 -2.88264 3.1107 0
M  V30 6971 N 682.614 -2.60642 4.33474 0
M  V30 6972 C 680.912 -3.19432 3.11254 0
M  V30 6973 C 681.613 -2.70351 5.15058 0
M  V30 6974 N 680.589 -3.03956 4.50679 0
M  V30 6975 H 684.391 -1.2528 2.65861 0
M  V30 6976 H 681.905 -0.599907 1.50913 0
M  V30 6977 H 683.902 -3.63759 2.03678 0
M  V30 6978 H 682.562 -3.09081 0.994952 0
M  V30 6979 H 683.573 -2.34718 4.61658 0
M  V30 6980 H 680.25 -3.48436 2.29997 0
M  V30 6981 H 681.64 -2.52565 6.22624 0
M  V30 6982 N 684.36 -1.4356 -0.65026 0
M  V30 6983 C 685.776 -1.27025 -0.966269 0
M  V30 6984 C 685.976 -0.192117 -2.00582 0
M  V30 6985 O 685.032 0.428459 -2.48838 0
M  V30 6986 C 686.345 -2.63556 -1.44772 0
M  V30 6987 C 687.893 -2.71111 -1.56421 0
M  V30 6988 C 688.368 -4.08067 -2.07956 0
M  V30 6989 N 689.859 -4.10146 -2.15254 0
M  V30 6990 C 690.594 -5.12952 -2.56258 0
M  V30 6991 N 690.09 -6.26129 -2.96537 0
M  V30 6992 N 691.883 -5.00306 -2.56224 0
M  V30 6993 H 684.034 -2.12367 0.0375758 0
M  V30 6994 H 686.297 -0.946894 -0.0457782 0
M  V30 6995 H 686.003 -3.43429 -0.758271 0
M  V30 6996 H 685.877 -2.89152 -2.42221 0
M  V30 6997 H 688.264 -1.91569 -2.24467 0
M  V30 6998 H 688.345 -2.49277 -0.573967 0
M  V30 6999 H 687.989 -4.88077 -1.40511 0
M  V30 7000 H 687.919 -4.27266 -3.07817 0
M  V30 7001 H 690.41 -3.28453 -1.86887 0
M  V30 7002 H 690.723 -7.00403 -3.26582 0
M  V30 7003 H 689.068 -6.29597 -2.94334 0
M  V30 7004 H 692.259 -4.10952 -2.24135 0
M  V30 7005 H 692.432 -5.80553 -2.87857 0
M  V30 7006 N 685.838 0.888903 -1.30139 0
M  V30 7007 C 686.801 1.97576 -1.16174 0
M  V30 7008 C 687.801 1.60525 -0.094086 0
M  V30 7009 O 688.991 1.70812 -0.341889 0
M  V30 7010 C 686.123 3.3188 -0.778983 0
M  V30 7011 H 687.316 2.11393 -2.12728 0
M  V30 7012 H 684.869 1.0748 -1.1348 0
M  V30 7013 H 685.604 3.23765 0.186225 0
M  V30 7014 H 685.389 3.60141 -1.55051 0
M  V30 7015 H 686.879 4.11612 -0.704631 0
M  V30 7016 N 687.317 1.12792 1.10072 0
M  V30 7017 C 688.542 0.908838 1.86427 0
M  V30 7018 C 688.967 -0.536793 1.80278 0
M  V30 7019 O 688.325 -1.38033 1.17543 0
M  V30 7020 C 688.373 1.39295 3.3261 0
M  V30 7021 O 687.477 0.573846 4.08388 0
M  V30 7022 H 686.818 0.326234 0.578331 0
M  V30 7023 H 689.348 1.50094 1.39043 0
M  V30 7024 H 689.358 1.39366 3.83459 0
M  V30 7025 H 688.033 2.44555 3.36401 0
M  V30 7026 H 686.61 0.640438 3.67359 0
M  V30 7027 N 688.795 -1.27931 0.920396 0
M  V30 7028 C 690.023 -1.98805 0.573087 0
M  V30 7029 C 690.438 -1.68724 -0.847201 0
M  V30 7030 O 689.795 -0.943699 -1.56207 0
M  V30 7031 C 689.846 -3.52971 0.780633 0
M  V30 7032 O 689.567 -3.81994 2.14504 0
M  V30 7033 C 691.068 -4.411 0.44105 0
M  V30 7034 H 688.288 -0.634651 0.21785 0
M  V30 7035 H 690.832 -1.62965 1.23542 0
M  V30 7036 H 688.987 -3.87048 0.165204 0
M  V30 7037 H 689.401 -4.76609 2.18962 0
M  V30 7038 H 690.875 -5.48312 0.637006 0
M  V30 7039 H 691.352 -4.34758 -0.62306 0
M  V30 7040 H 691.958 -4.12532 1.0343 0
M  V30 7041 N 690.273 -0.685099 -1.4193 0
M  V30 7042 C 691.203 -0.0273506 -2.33484 0
M  V30 7043 C 692.184 0.778366 -1.51246 0
M  V30 7044 O 693.369 0.733449 -1.79817 0
M  V30 7045 C 690.499 0.917272 -3.34968 0
M  V30 7046 C 689.453 0.21941 -4.27437 0
M  V30 7047 C 688.779 1.27768 -5.1921 0
M  V30 7048 C 690.079 -0.907894 -5.14349 0
M  V30 7049 H 691.773 -0.791994 -2.88735 0
M  V30 7050 H 689.319 -0.382308 -1.38832 0
M  V30 7051 H 691.272 1.38657 -3.97935 0
M  V30 7052 H 689.996 1.71346 -2.78043 0
M  V30 7053 H 688.655 -0.229757 -3.65879 0
M  V30 7054 H 688.303 2.06612 -4.58607 0
M  V30 7055 H 688.003 0.815803 -5.81909 0
M  V30 7056 H 689.527 1.7477 -5.85054 0
M  V30 7057 H 690.941 -0.519348 -5.70943 0
M  V30 7058 H 689.338 -1.2962 -5.85934 0
M  V30 7059 H 690.408 -1.75218 -4.52136 0
M  V30 7060 N 691.751 1.51645 -0.429126 0
M  V30 7061 C 692.976 2.06917 0.141399 0
M  V30 7062 C 693.401 1.29527 1.36398 0
M  V30 7063 O 692.759 0.33094 1.78254 0
M  V30 7064 C 692.807 3.57776 0.4504 0
M  V30 7065 O 691.911 3.82639 1.53821 0
M  V30 7066 H 691.252 0.663978 0.0054647 0
M  V30 7067 H 693.782 1.95355 -0.608093 0
M  V30 7068 H 693.792 4.01894 0.703249 0
M  V30 7069 H 692.467 4.13532 -0.443213 0
M  V30 7070 H 691.044 3.5039 1.27597 0
M  V30 7071 N 693.229 0.160201 1.56784 0
M  V30 7072 C 694.475 -0.481855 1.9761 0
M  V30 7073 C 694.83 -1.61605 1.04411 0
M  V30 7074 O 694.123 -1.91426 0.0816402 0
M  V30 7075 C 694.317 -1.02259 3.42459 0
M  V30 7076 C 694.146 0.0576781 4.49663 0
M  V30 7077 C 692.916 0.503585 5.02784 0
M  V30 7078 C 695.114 0.854013 5.0716 0
M  V30 7079 N 693.096 1.56532 5.93608 0
M  V30 7080 C 694.467 1.76593 5.94319 0
M  V30 7081 C 696.522 0.900333 4.89692 0
M  V30 7082 C 695.225 2.72023 6.6588 0
M  V30 7083 C 697.251 1.84252 5.61965 0
M  V30 7084 C 696.613 2.74194 6.48843 0
M  V30 7085 H 692.712 -0.144748 0.768487 0
M  V30 7086 H 695.296 0.257853 1.92985 0
M  V30 7087 H 693.467 -1.73186 3.47651 0
M  V30 7088 H 695.199 -1.63235 3.70319 0
M  V30 7089 H 691.954 0.103361 4.73487 0
M  V30 7090 H 692.378 2.09634 6.43726 0
M  V30 7091 H 697.02 0.219023 4.22232 0
M  V30 7092 H 694.738 3.41147 7.3256 0
M  V30 7093 H 698.324 1.88433 5.5044 0
M  V30 7094 H 697.204 3.45912 7.03786 0
M  V30 7095 N 694.707 -1.5719 -0.113559 0
M  V30 7096 C 696.118 -1.74259 -0.670116 0
M  V30 7097 C 696.469 -0.779694 -1.80042 0
M  V30 7098 O 695.594 0.0461353 -2.16351 0
M  V30 7099 C 696.189 -3.15981 -1.22236 0
M  V30 7100 C 694.748 -3.34537 -1.72516 0
M  V30 7101 C 693.895 -2.70116 -0.627098 0
M  V30 7102 H 696.846 -1.58301 0.112396 0
M  V30 7103 H 696.867 -3.17832 -2.09197 0
M  V30 7104 H 696.379 -3.86038 -0.39949 0
M  V30 7105 H 694.48 -2.6953 -2.57263 0
M  V30 7106 H 694.593 -4.42737 -1.83086 0
M  V30 7107 H 692.957 -2.31501 -1.06204 0
M  V30 7108 H 693.74 -3.42802 0.184889 0
M  V30 7109 N 696.185 0.383891 -1.52853 0
M  V30 7110 C 697.115 1.47559 -1.80965 0
M  V30 7111 C 698.096 1.5669 -0.661986 0
M  V30 7112 O 699.281 1.71556 -0.910072 0
M  V30 7113 C 696.411 2.85114 -1.98312 0
M  V30 7114 C 695.365 2.9082 -3.14019 0
M  V30 7115 C 694.691 4.30873 -3.16627 0
M  V30 7116 C 695.991 2.60001 -4.52986 0
M  V30 7117 H 697.685 1.24283 -2.72386 0
M  V30 7118 H 695.231 0.596445 -1.31067 0
M  V30 7119 H 697.184 3.61496 -2.16561 0
M  V30 7120 H 695.908 3.09738 -1.03585 0
M  V30 7121 H 694.567 2.16886 -2.9556 0
M  V30 7122 H 694.215 4.52545 -2.19573 0
M  V30 7123 H 693.915 4.3561 -3.94357 0
M  V30 7124 H 695.439 5.09154 -3.37038 0
M  V30 7125 H 696.853 3.261 -4.71521 0
M  V30 7126 H 695.25 2.76081 -5.32822 0
M  V30 7127 H 696.32 1.5532 -4.59351 0
M  V30 7128 N 697.663 1.43903 0.642637 0
M  V30 7129 C 698.909 1.47291 1.40275 0
M  V30 7130 C 699.264 0.0996024 1.92142 0
M  V30 7131 O 698.557 -0.883423 1.70018 0
M  V30 7132 C 698.751 2.45907 2.59354 0
M  V30 7133 C 698.58 3.92691 2.19143 0
M  V30 7134 C 697.35 4.6097 2.06966 0
M  V30 7135 C 699.548 4.82231 1.78768 0
M  V30 7136 N 697.53 5.9263 1.60196 0
M  V30 7137 C 698.901 6.03246 1.43159 0
M  V30 7138 C 700.956 4.69397 1.66045 0
M  V30 7139 C 699.659 7.12851 0.961014 0
M  V30 7140 C 701.685 5.79016 1.20392 0
M  V30 7141 C 701.047 6.99164 0.857271 0
M  V30 7142 H 697.146 0.594055 0.50855 0
M  V30 7143 H 699.73 1.80153 0.738434 0
M  V30 7144 H 697.901 2.15054 3.23429 0
M  V30 7145 H 699.633 2.39665 3.26102 0
M  V30 7146 H 696.388 4.15622 2.27058 0
M  V30 7147 H 696.812 6.62547 1.39143 0
M  V30 7148 H 701.454 3.76954 1.91482 0
M  V30 7149 H 699.172 8.05113 0.694148 0
M  V30 7150 H 702.758 5.71109 1.11023 0
M  V30 7151 H 701.638 7.82544 0.509408 0
M  V30 7152 N 699.141 -0.881989 1.30609 0
M  V30 7153 C 700.074 -1.99066 1.11571 0
M  V30 7154 C 701.052 -1.62584 0.022516 0
M  V30 7155 O 702.236 -1.87671 0.176644 0
M  V30 7156 C 699.363 -3.3134 0.702237 0
M  V30 7157 C 698.409 -3.86807 1.79673 0
M  V30 7158 S 699.242 -4.13735 3.39976 0
M  V30 7159 C 700.398 -5.49024 3.00538 0
M  V30 7160 H 700.631 -2.1491 2.05429 0
M  V30 7161 H 698.164 -1.03074 1.14957 0
M  V30 7162 H 700.122 -4.07796 0.470415 0
M  V30 7163 H 698.783 -3.13349 -0.217034 0
M  V30 7164 H 697.976 -4.82397 1.45977 0
M  V30 7165 H 697.578 -3.17102 1.98298 0
M  V30 7166 H 699.87 -6.30208 2.48684 0
M  V30 7167 H 700.813 -5.8766 3.95046 0
M  V30 7168 H 701.221 -5.11726 2.3832 0
M  V30 7169 N 700.619 -1.13374 -1.09472 0
M  V30 7170 C 701.867 -0.893422 -1.8128 0
M  V30 7171 C 702.188 0.582029 -1.86111 0
M  V30 7172 O 701.458 1.42305 -1.34633 0
M  V30 7173 H 700.038 -0.327543 -0.67136 0
M  V30 7174 H 702.7 -1.43018 -1.32408 0
M  V30 7175 H 701.796 -1.28374 -2.84476 0
M  V30 7176 N 702.098 1.27442 -0.927168 0
M  V30 7177 C 703.344 1.94679 -0.568164 0
M  V30 7178 C 703.677 1.72697 0.888219 0
M  V30 7179 O 702.952 1.05573 1.63354 0
M  V30 7180 C 703.235 3.4882 -0.894253 0
M  V30 7181 C 703.088 3.80146 -2.40435 0
M  V30 7182 C 704.407 4.38281 -0.399766 0
M  V30 7183 H 701.526 0.707071 -0.207892 0
M  V30 7184 H 704.168 1.50568 -1.15885 0
M  V30 7185 H 702.318 3.86522 -0.391566 0
M  V30 7186 H 703.99 3.52238 -2.97869 0
M  V30 7187 H 702.233 3.26716 -2.85375 0
M  V30 7188 H 702.904 4.87835 -2.58304 0
M  V30 7189 H 705.38 4.07726 -0.83058 0
M  V30 7190 H 704.256 5.44955 -0.656885 0
M  V30 7191 H 704.517 4.36521 0.700153 0
M  V30 7192 N 703.576 0.692616 1.41565 0
M  V30 7193 C 704.987 0.297478 1.84315 0
M  V30 7194 C 705.338 -1.16379 1.57957 0
M  V30 7195 O 704.463 -1.89303 1.0485 0
M  V30 7196 C 705.058 0.533136 3.34579 0
M  V30 7197 C 703.617 0.191944 3.7591 0
M  V30 7198 C 702.764 0.816873 2.64995 0
M  V30 7199 H 705.715 0.893488 1.31158 0
M  V30 7200 H 705.736 -0.209105 3.79925 0
M  V30 7201 H 705.248 1.59674 3.53731 0
M  V30 7202 H 703.349 -0.867512 3.6236 0
M  V30 7203 H 703.462 0.644902 4.7474 0
M  V30 7204 H 701.826 0.246715 2.53502 0
M  V30 7205 H 702.609 1.88429 2.86966 0
M  V30 7206 N 705.054 -1.51416 0.437162 0
M  V30 7207 C 706.004 -2.24599 -0.392311 0
M  V30 7208 C 706.988 -1.2682 -0.990221 0
M  V30 7209 O 708.18 -1.51912 -0.908391 0
M  V30 7210 C 705.309 -3.09134 -1.49301 0
M  V30 7211 C 704.395 -4.14342 -0.904503 0
M  V30 7212 N 704.786 -5.0578 -0.0451511 0
M  V30 7213 C 703.084 -4.30323 -1.1721 0
M  V30 7214 C 703.785 -5.81 0.285344 0
M  V30 7215 N 702.761 -5.42591 -0.330993 0
M  V30 7216 H 706.563 -2.92655 0.270221 0
M  V30 7217 H 704.077 -1.60476 0.249226 0
M  V30 7218 H 706.074 -3.6014 -2.10011 0
M  V30 7219 H 704.734 -2.42622 -2.15788 0
M  V30 7220 H 705.745 -5.16903 0.321271 0
M  V30 7221 H 702.422 -3.75037 -1.83448 0
M  V30 7222 H 703.812 -6.64646 0.984626 0
M  V30 7223 N 706.532 -0.168513 -1.56696 0
M  V30 7224 C 707.78 0.476216 -1.96409 0
M  V30 7225 C 708.101 1.63968 -1.05544 0
M  V30 7226 O 707.371 1.95525 -0.121235 0
M  V30 7227 H 705.951 0.178921 -0.725256 0
M  V30 7228 H 708.613 -0.249042 -1.93302 0
M  V30 7229 H 707.709 0.838094 -3.00637 0
M  V30 7230 N 708.01 1.57248 0.105221 0
M  V30 7231 C 709.24 1.89492 0.823175 0
M  V30 7232 C 709.648 0.75934 1.73294 0
M  V30 7233 O 708.991 -0.278182 1.81581 0
M  V30 7234 C 709.053 3.16891 1.69765 0
M  V30 7235 C 708.717 4.46787 0.960769 0
M  V30 7236 C 709.714 5.19061 0.295218 0
M  V30 7237 C 707.399 4.93467 0.937854 0
M  V30 7238 C 709.393 6.36246 -0.383393 0
M  V30 7239 C 707.08 6.10566 0.255452 0
M  V30 7240 C 708.078 6.81804 -0.404003 0
M  V30 7241 O 707.766 7.96673 -1.07549 0
M  V30 7242 H 707.498 0.631512 0.24118 0
M  V30 7243 H 710.052 2.05203 0.0899655 0
M  V30 7244 H 708.282 2.973 2.47285 0
M  V30 7245 H 709.971 3.35046 2.29126 0
M  V30 7246 H 710.737 4.84044 0.304448 0
M  V30 7247 H 706.616 4.37913 1.44058 0
M  V30 7248 H 710.16 6.91787 -0.898696 0
M  V30 7249 H 706.057 6.45039 0.244032 0
M  V30 7250 H 706.825 8.12596 -0.981355 0
M  V30 7251 N 709.488 -0.375779 1.53054 0
M  V30 7252 C 710.398 -1.48381 1.81715 0
M  V30 7253 C 711.414 -1.59087 0.704795 0
M  V30 7254 O 712.59 -1.75174 0.993785 0
M  V30 7255 C 709.655 -2.83767 1.99192 0
M  V30 7256 C 708.716 -2.82673 3.23102 0
M  V30 7257 C 707.949 -4.11601 3.39736 0
M  V30 7258 O 708.172 -5.07243 2.60885 0
M  V30 7259 O 707.106 -4.18034 4.33049 0
M  V30 7260 H 710.932 -1.27089 2.7583 0
M  V30 7261 H 708.517 -0.564902 1.38308 0
M  V30 7262 H 710.399 -3.64004 2.12318 0
M  V30 7263 H 709.074 -3.05057 1.08267 0
M  V30 7264 H 707.981 -2.0117 3.15407 0
M  V30 7265 H 709.314 -2.66335 4.13916 0
M  V30 7266 N 710.966 -1.44241 -0.634997 0
M  V30 7267 C 712.215 -1.46102 -1.39058 0
M  V30 7268 C 712.528 -0.0959909 -1.95364 0
M  V30 7269 O 713.734 0.00788751 -2.71499 0
M  V30 7270 C 712.19 -2.57195 -2.51751 0
M  V30 7271 C 711.798 -3.99888 -2.01974 0
M  V30 7272 C 713.542 -2.68272 -3.28984 0
M  V30 7273 C 711.449 -5.02412 -3.11987 0
M  V30 7274 H 710.379 -0.543556 -0.522554 0
M  V30 7275 H 713.03 -1.70294 -0.683538 0
M  V30 7276 H 711.412 -2.26237 -3.25012 0
M  V30 7277 H 712.586 -4.40396 -1.35604 0
M  V30 7278 H 710.901 -3.93019 -1.37568 0
M  V30 7279 H 713.498 -3.42042 -4.10988 0
M  V30 7280 H 713.841 -1.73957 -3.78212 0
M  V30 7281 H 714.374 -2.98622 -2.62812 0
M  V30 7282 H 711.113 -5.98342 -2.67707 0
M  V30 7283 H 710.633 -4.66501 -3.77011 0
M  V30 7284 H 712.312 -5.25939 -3.76825 0
M  V30 7285 N 712.444 0.87505 -1.31075 0
M  V30 7286 C 713.354 2.01441 -1.20244 0
M  V30 7287 C 714.37 1.73584 -0.120227 0
M  V30 7288 O 715.546 1.98559 -0.337063 0
M  V30 7289 C 712.611 3.34675 -0.905199 0
M  V30 7290 C 711.672 3.75889 -2.0738 0
M  V30 7291 C 710.905 5.02764 -1.79064 0
M  V30 7292 O 711.128 5.65795 -0.723318 0
M  V30 7293 O 710.062 5.40623 -2.64594 0
M  V30 7294 H 713.888 2.13509 -2.1598 0
M  V30 7295 H 711.473 1.00257 -1.10765 0
M  V30 7296 H 713.355 4.1458 -0.755057 0
M  V30 7297 H 712.03 3.23692 0.0221695 0
M  V30 7298 H 710.937 2.96645 -2.27931 0
M  V30 7299 H 712.27 3.91489 -2.98324 0
M  V30 7300 N 713.922 1.13953 1.08869 0
M  V30 7301 C 715.169 0.90481 1.81161 0
M  V30 7302 C 715.497 -0.568824 1.85996 0
M  V30 7303 O 714.752 -1.43723 1.32823 0
M  V30 7304 C 715.051 1.44495 3.26888 0
M  V30 7305 C 714.717 2.93641 3.42178 0
M  V30 7306 C 713.379 3.34361 3.46059 0
M  V30 7307 C 715.731 3.89568 3.46246 0
M  V30 7308 C 713.059 4.69681 3.51592 0
M  V30 7309 C 715.411 5.2474 3.53314 0
M  V30 7310 C 714.075 5.64979 3.55465 0
M  V30 7311 H 713.345 0.331094 0.662916 0
M  V30 7312 H 715.992 1.42242 1.28217 0
M  V30 7313 H 714.297 0.848169 3.82509 0
M  V30 7314 H 715.994 1.23934 3.81368 0
M  V30 7315 H 712.584 2.61156 3.39846 0
M  V30 7316 H 716.768 3.59192 3.42483 0
M  V30 7317 H 712.024 5.00224 3.51547 0
M  V30 7318 H 716.198 5.98882 3.55406 0
M  V30 7319 H 713.825 6.69821 3.59505 0
M  V30 7320 N 715.4 -1.26948 0.933913 0
M  V30 7321 C 716.649 -1.93378 0.573409 0
M  V30 7322 C 716.962 -1.74148 -0.890614 0
M  V30 7323 O 718.168 -2.34971 -1.36017 0
M  V30 7324 C 716.624 -3.46449 0.974747 0
M  V30 7325 C 716.232 -3.74425 2.45988 0
M  V30 7326 C 717.976 -4.18924 0.685791 0
M  V30 7327 C 715.883 -5.209 2.8003 0
M  V30 7328 H 714.813 -0.723952 0.210736 0
M  V30 7329 H 717.464 -1.44143 1.13557 0
M  V30 7330 H 715.846 -3.94528 0.341181 0
M  V30 7331 H 717.02 -3.37079 3.14188 0
M  V30 7332 H 715.335 -3.15167 2.72138 0
M  V30 7333 H 717.932 -5.26786 0.916546 0
M  V30 7334 H 718.275 -4.14587 -0.377217 0
M  V30 7335 H 718.808 -3.76687 1.27874 0
M  V30 7336 H 715.547 -5.30332 3.85264 0
M  V30 7337 H 715.067 -5.59369 2.16485 0
M  V30 7338 H 716.746 -5.88837 2.68105 0
M  V30 7339 N 716.879 -0.700114 -1.41195 0
M  V30 7340 C 718.126 -0.233006 -2.01155 0
M  V30 7341 C 718.454 1.16883 -1.55462 0
M  V30 7342 O 717.709 1.80395 -0.758695 0
M  V30 7343 C 718.008 -0.243986 -3.56566 0
M  V30 7344 C 717.674 -1.59397 -4.21786 0
M  V30 7345 C 716.336 -1.96355 -4.39316 0
M  V30 7346 C 718.688 -2.48192 -4.58312 0
M  V30 7347 C 716.016 -3.21683 -4.9065 0
M  V30 7348 C 718.368 -3.72857 -5.11039 0
M  V30 7349 C 717.032 -4.09951 -5.26779 0
M  V30 7350 H 716.302 -0.085263 -0.736078 0
M  V30 7351 H 718.949 -0.9001 -1.69028 0
M  V30 7352 H 717.254 0.506663 -3.8851 0
M  V30 7353 H 718.951 0.135031 -4.00773 0
M  V30 7354 H 715.541 -1.29654 -4.08519 0
M  V30 7355 H 719.725 -2.20918 -4.4442 0
M  V30 7356 H 714.981 -3.50412 -5.01021 0
M  V30 7357 H 719.155 -4.41844 -5.38282 0
M  V30 7358 H 716.782 -5.07136 -5.66319 0
M  V30 7359 N 718.357 1.51182 -0.445186 0
M  V30 7360 C 719.605 2.01753 0.11841 0
M  V30 7361 C 719.926 1.33087 1.42523 0
M  V30 7362 O 719.196 0.467891 1.9023 0
M  V30 7363 H 717.776 0.745536 0.0467492 0
M  V30 7364 H 720.438 1.85765 -0.589688 0
M  V30 7365 H 719.534 3.10762 0.288665 0
M  V30 7366 N 719.835 0.176821 1.56605 0
M  V30 7367 C 721.084 -0.466833 1.96223 0
M  V30 7368 C 721.397 -1.64015 1.06576 0
M  V30 7369 O 722.603 -2.3504 1.35898 0
M  V30 7370 C 721.059 -0.881921 3.48927 0
M  V30 7371 C 720.667 0.266102 4.47209 0
M  V30 7372 C 722.411 -1.49368 3.97353 0
M  V30 7373 C 720.318 -0.168923 5.91159 0
M  V30 7374 H 719.248 -0.178178 0.732645 0
M  V30 7375 H 721.899 0.265929 1.81563 0
M  V30 7376 H 720.281 -1.67082 3.59026 0
M  V30 7377 H 721.455 1.04349 4.4883 0
M  V30 7378 H 719.77 0.788178 4.08872 0
M  V30 7379 H 722.367 -1.8313 5.02362 0
M  V30 7380 H 722.71 -2.3936 3.40606 0
M  V30 7381 H 723.243 -0.769114 3.90294 0
M  V30 7382 H 719.982 0.696351 6.51791 0
M  V30 7383 H 719.502 -0.911552 5.92833 0
M  V30 7384 H 721.181 -0.610938 6.44109 0
M  V30 7385 N 721.313 -1.57302 -0.09688 0
M  V30 7386 C 722.724 -1.7496 -0.651595 0
M  V30 7387 C 723.075 -0.798746 -1.79205 0
M  V30 7388 O 722.2 0.0231858 -2.16388 0
M  V30 7389 C 722.795 -3.17259 -1.18878 0
M  V30 7390 C 721.354 -3.36348 -1.68958 0
M  V30 7391 C 720.501 -2.70766 -0.598413 0
M  V30 7392 H 723.452 -1.58173 0.12918 0
M  V30 7393 H 723.473 -3.20033 -2.05814 0
M  V30 7394 H 722.985 -3.8644 -0.358523 0
M  V30 7395 H 721.086 -2.72243 -2.5439 0
M  V30 7396 H 721.199 -4.44654 -1.7838 0
M  V30 7397 H 719.563 -2.32615 -1.03743 0
M  V30 7398 H 720.346 -3.42586 0.221238 0
M  V30 7399 N 722.791 0.367657 -1.53252 0
M  V30 7400 C 723.721 1.45632 -1.8252 0
M  V30 7401 C 724.702 1.55979 -0.678568 0
M  V30 7402 O 725.887 1.70581 -0.928217 0
M  V30 7403 C 723.017 2.82994 -2.01325 0
M  V30 7404 C 721.971 2.87473 -3.17086 0
M  V30 7405 C 721.297 4.2749 -3.21179 0
M  V30 7406 C 722.597 2.55182 -4.55719 0
M  V30 7407 H 724.291 1.21387 -2.73689 0
M  V30 7408 H 721.837 0.58251 -1.31692 0
M  V30 7409 H 723.79 3.59179 -2.20383 0
M  V30 7410 H 722.514 3.08622 -1.06864 0
M  V30 7411 H 721.173 2.13739 -2.97844 0
M  V30 7412 H 720.821 4.5019 -2.24361 0
M  V30 7413 H 720.521 4.31403 -3.98955 0
M  V30 7414 H 722.045 5.0555 -3.42419 0
M  V30 7415 H 723.459 3.21081 -4.74953 0
M  V30 7416 H 721.856 2.70414 -5.3572 0
M  V30 7417 H 722.926 1.5044 -4.60973 0
M  V30 7418 N 724.269 1.44576 0.627338 0
M  V30 7419 C 725.546 1.38033 1.38586 0
M  V30 7420 C 725.926 0.0409468 2.1106 0
M  V30 7421 O 725.274 -0.976582 2.0658 0
M  V30 7422 C 725.484 2.58102 2.34913 0
M  V30 7423 C 726.832 3.02332 2.98129 0
M  V30 7424 O 727.856 2.58334 2.45238 0
M  V30 7425 O 726.715 3.78628 3.94085 0
M  V30 7426 H 723.809 0.546801 0.620434 0
M  V30 7427 H 726.355 1.56672 0.652077 0
M  V30 7428 H 725.127 3.4719 1.80485 0
M  V30 7429 H 724.75 2.41696 3.15703 0
M  V30 7430 N 725.747 -0.868086 1.31537 0
M  V30 7431 C 727.158 -1.437 1.19195 0
M  V30 7432 C 727.509 -1.95169 -0.200842 0
M  V30 7433 O 726.634 -1.86432 -1.09872 0
M  V30 7434 C 727.229 -2.612 2.15778 0
M  V30 7435 C 725.788 -3.1413 2.07363 0
M  V30 7436 C 724.935 -1.86845 2.049 0
M  V30 7437 H 727.886 -0.676457 1.43561 0
M  V30 7438 H 727.907 -3.37948 1.74847 0
M  V30 7439 H 727.419 -2.23709 3.17137 0
M  V30 7440 H 725.52 -3.56238 1.09204 0
M  V30 7441 H 725.633 -3.76285 2.96557 0
M  V30 7442 H 723.997 -2.05886 1.49943 0
M  V30 7443 H 724.78 -1.51589 3.08019 0
M  V30 7444 N 727.225 -1.14528 -1.08264 0
M  V30 7445 C 728.45 -0.938381 -1.84957 0
M  V30 7446 C 728.875 0.508044 -1.81109 0
M  V30 7447 O 728.233 1.36146 -1.19724 0
M  V30 7448 C 728.281 -1.44568 -3.30352 0
M  V30 7449 O 727.385 -0.638745 -4.07423 0
M  V30 7450 H 726.726 -0.335394 -0.573068 0
M  V30 7451 H 729.256 -1.52287 -1.36637 0
M  V30 7452 H 729.266 -1.45449 -3.81194 0
M  V30 7453 H 727.941 -2.49876 -3.32468 0
M  V30 7454 H 726.518 -0.698801 -3.66294 0
M  V30 7455 N 728.703 1.26451 -0.940633 0
M  V30 7456 C 730.119 1.4608 -0.642859 0
M  V30 7457 C 730.319 1.84765 0.803998 0
M  V30 7458 O 729.375 1.96902 1.58069 0
M  V30 7459 C 730.688 2.54359 -1.60381 0
M  V30 7460 C 732.236 2.6821 -1.61345 0
M  V30 7461 C 732.711 3.79659 -2.56169 0
M  V30 7462 N 734.202 3.87051 -2.54452 0
M  V30 7463 C 734.937 4.72739 -3.24507 0
M  V30 7464 N 734.433 5.6282 -4.03987 0
M  V30 7465 N 736.226 4.66581 -3.13462 0
M  V30 7466 H 728.377 0.996289 -1.87584 0
M  V30 7467 H 730.64 0.498921 -0.80609 0
M  V30 7468 H 730.346 2.32758 -2.6366 0
M  V30 7469 H 730.22 3.52005 -1.35545 0
M  V30 7470 H 732.607 2.89184 -0.587913 0
M  V30 7471 H 732.688 1.7101 -1.90235 0
M  V30 7472 H 732.332 3.59438 -3.58841 0
M  V30 7473 H 732.262 4.76315 -2.2457 0
M  V30 7474 H 734.753 3.22649 -1.96739 0
M  V30 7475 H 735.066 6.25095 -4.54396 0
M  V30 7476 H 733.411 5.62574 -4.08088 0
M  V30 7477 H 736.602 3.9521 -2.50852 0
M  V30 7478 H 736.775 5.33141 -3.68327 0
M  V30 7479 N 730.181 0.707592 1.40822 0
M  V30 7480 C 731.129 0.0386643 2.32568 0
M  V30 7481 C 732.123 -0.755653 1.51612 0
M  V30 7482 O 733.329 -0.659921 1.67467 0
M  V30 7483 H 729.704 -0.00629912 0.751974 0
M  V30 7484 H 731.675 0.8293 2.86645 0
M  V30 7485 C 730.424 -0.87496 3.36511 0
M  V30 7486 H 729.747 -0.273157 3.98866 0
M  V30 7487 H 731.187 -1.31111 4.03219 0
M  V30 7488 C 729.646 -1.99672 2.71353 0
M  V30 7489 O 730.176 -3.08676 2.57064 0
M  V30 7490 N 728.382 -1.77799 2.29861 0
M  V30 7491 H 727.929 -0.89147 2.41683 0
M  V30 7492 H 727.887 -2.53036 1.86601 0
M  V30 7493 N 731.66 -1.50943 0.453197 0
M  V30 7494 C 732.89 -2.06328 -0.105981 0
M  V30 7495 C 733.298 -1.31909 -1.35634 0
M  V30 7496 O 732.641 -0.376607 -1.79798 0
M  V30 7497 C 732.703 -3.5631 -0.477868 0
M  V30 7498 C 732.367 -4.52093 0.667925 0
M  V30 7499 C 733.364 -4.96421 1.54475 0
M  V30 7500 C 731.049 -4.95001 0.853168 0
M  V30 7501 C 733.043 -5.82346 2.59138 0
M  V30 7502 C 730.73 -5.80713 1.90305 0
M  V30 7503 C 731.728 -6.24284 2.77053 0
M  V30 7504 O 731.416 -7.08291 3.80236 0
M  V30 7505 H 731.148 -0.675986 -0.00427247 0
M  V30 7506 H 733.702 -1.95314 0.635738 0
M  V30 7507 H 731.932 -3.65163 -1.27252 0
M  V30 7508 H 733.621 -3.94138 -0.970039 0
M  V30 7509 H 734.387 -4.63953 1.41324 0
M  V30 7510 H 730.266 -4.60619 0.187482 0
M  V30 7511 H 733.81 -6.16276 3.2688 0
M  V30 7512 H 729.707 -6.12593 2.03469 0
M  V30 7513 H 730.475 -7.26504 3.77007 0
M  V30 7514 N 733.138 -0.185124 -1.56509 0
M  V30 7515 C 734.366 0.462139 -2.01673 0
M  V30 7516 C 734.781 1.55873 -1.06532 0
M  V30 7517 O 734.138 1.82371 -0.0684805 0
M  V30 7518 C 734.189 1.0277 -3.46584 0
M  V30 7519 O 733.91 -0.0251296 -4.38093 0
M  V30 7520 C 735.411 1.75183 -4.07217 0
M  V30 7521 H 732.631 0.117001 -0.660721 0
M  V30 7522 H 735.175 -0.290905 -2.0242 0
M  V30 7523 H 733.33 1.73118 -3.46568 0
M  V30 7524 H 733.744 0.394387 -5.23015 0
M  V30 7525 H 735.218 2.09999 -5.10494 0
M  V30 7526 H 735.695 2.6519 -3.50101 0
M  V30 7527 H 736.301 1.09445 -4.10977 0
M  V30 7528 N 734.616 1.57351 0.0885366 0
M  V30 7529 C 735.579 2.01557 1.09121 0
M  V30 7530 C 736.579 0.910052 1.3257 0
M  V30 7531 O 737.769 1.17537 1.28572 0
M  V30 7532 C 734.901 2.38189 2.43883 0
M  V30 7533 H 736.094 2.91361 0.710562 0
M  V30 7534 H 733.647 1.52694 0.333779 0
M  V30 7535 H 734.382 1.5136 2.86811 0
M  V30 7536 H 734.167 3.18846 2.28209 0
M  V30 7537 H 735.657 2.73025 3.15986 0
M  V30 7538 N 736.094 -0.359525 1.53444 0
M  V30 7539 C 737.004 -1.46445 1.83278 0
M  V30 7540 C 738.02 -1.5833 0.721629 0
M  V30 7541 O 739.196 -1.7411 1.01231 0
M  V30 7542 C 736.261 -2.81638 2.02191 0
M  V30 7543 C 735.322 -2.7923 3.26082 0
M  V30 7544 C 734.555 -4.07974 3.44082 0
M  V30 7545 O 734.778 -5.04447 2.66251 0
M  V30 7546 O 733.712 -4.13417 4.37458 0
M  V30 7547 H 737.538 -1.24156 2.77162 0
M  V30 7548 H 735.123 -0.550201 1.389 0
M  V30 7549 H 737.005 -3.61732 2.16167 0
M  V30 7550 H 735.68 -3.03892 1.11496 0
M  V30 7551 H 734.587 -1.97813 3.17523 0
M  V30 7552 H 735.92 -2.6193 4.16718 0
M  V30 7553 N 737.572 -1.44907 -0.619662 0
M  V30 7554 C 738.482 -1.55168 -1.75955 0
M  V30 7555 C 739.498 -0.43672 -1.6843 0
M  V30 7556 O 740.674 -0.695704 -1.89002 0
M  V30 7557 C 737.739 -1.50397 -3.12381 0
M  V30 7558 C 736.8 -2.72835 -3.31451 0
M  V30 7559 C 736.033 -2.68283 -4.61368 0
M  V30 7560 O 736.256 -1.74929 -5.42914 0
M  V30 7561 O 735.19 -3.59308 -4.82889 0
M  V30 7562 H 739.016 -2.51493 -1.7025 0
M  V30 7563 H 736.601 -1.27282 -0.782289 0
M  V30 7564 H 738.483 -1.50301 -3.93685 0
M  V30 7565 H 737.158 -0.572197 -3.18603 0
M  V30 7566 H 736.065 -2.78496 -2.49781 0
M  V30 7567 H 737.398 -3.65098 -3.30098 0
M  V30 7568 N 739.05 0.861098 -1.31996 0
M  V30 7569 C 739.997 1.96912 -1.20392 0
M  V30 7570 C 740.967 1.65869 -0.0875899 0
M  V30 7571 O 742.152 1.88992 -0.262011 0
M  V30 7572 C 739.292 3.32435 -0.926335 0
M  V30 7573 C 738.405 3.76018 -2.12684 0
M  V30 7574 C 737.54 5.00301 -1.78529 0
M  V30 7575 C 736.579 5.36357 -2.94937 0
M  V30 7576 N 735.716 6.51818 -2.60917 0
M  V30 7577 H 740.556 2.06169 -2.1517 0
M  V30 7578 H 738.093 1.00917 -1.07024 0
M  V30 7579 H 740.051 4.10478 -0.745917 0
M  V30 7580 H 738.681 3.22796 -0.0153578 0
M  V30 7581 H 737.733 2.93683 -2.41774 0
M  V30 7582 H 739.045 3.98664 -2.99781 0
M  V30 7583 H 738.199 5.86034 -1.57001 0
M  V30 7584 H 736.938 4.79578 -0.886356 0
M  V30 7585 H 735.943 4.49139 -3.17103 0
M  V30 7586 H 737.168 5.59041 -3.85552 0
M  V30 7587 H 735.114 6.32624 -1.73558 0
M  V30 7588 H 735.031 6.7445 -3.41544 0
M  V30 7589 H 736.299 7.4072 -2.42804 0
M  V30 7590 N 740.528 1.15101 1.07655 0
M  V30 7591 C 741.777 0.918528 1.79572 0
M  V30 7592 C 742.09 -0.555922 1.87534 0
M  V30 7593 O 743.296 -0.905893 2.55941 0
M  V30 7594 C 741.752 1.59394 3.22679 0
M  V30 7595 C 741.36 3.1052 3.22927 0
M  V30 7596 C 743.104 1.44289 3.99225 0
M  V30 7597 C 741.011 3.70862 4.60668 0
M  V30 7598 H 739.941 0.340006 0.672987 0
M  V30 7599 H 742.592 1.38079 1.20857 0
M  V30 7600 H 740.974 1.05936 3.81567 0
M  V30 7601 H 742.148 3.70708 2.737 0
M  V30 7602 H 740.463 3.25351 2.59876 0
M  V30 7603 H 743.06 1.86766 5.01022 0
M  V30 7604 H 743.403 0.389975 4.14469 0
M  V30 7605 H 743.936 1.94826 3.46825 0
M  V30 7606 H 740.675 4.7604 4.50628 0
M  V30 7607 H 740.195 3.15456 5.10145 0
M  V30 7608 H 741.874 3.71607 5.29639 0
M  V30 7609 N 742.006 -1.2595 0.947325 0
M  V30 7610 C 743.253 -1.93463 0.598178 0
M  V30 7611 C 743.581 -1.74271 -0.863705 0
M  V30 7612 O 742.836 -1.07684 -1.63409 0
M  V30 7613 C 743.135 -3.46034 0.894158 0
M  V30 7614 C 742.801 -3.85373 2.3409 0
M  V30 7615 C 741.463 -3.95823 2.73637 0
M  V30 7616 C 743.815 -4.04986 3.2808 0
M  V30 7617 C 741.143 -4.23288 4.06257 0
M  V30 7618 C 743.495 -4.3394 4.60303 0
M  V30 7619 C 742.159 -4.42606 4.99656 0
M  V30 7620 H 741.429 -0.707933 0.218889 0
M  V30 7621 H 744.076 -1.4964 1.19499 0
M  V30 7622 H 742.381 -3.9121 0.214874 0
M  V30 7623 H 744.078 -3.96445 0.602698 0
M  V30 7624 H 740.668 -3.7779 2.02417 0
M  V30 7625 H 744.852 -3.96333 2.9872 0
M  V30 7626 H 740.108 -4.28211 4.36401 0
M  V30 7627 H 744.282 -4.48061 5.33118 0
M  V30 7628 H 741.909 -4.63641 6.02446 0
M  V30 7629 N 743.484 -0.715051 -1.40445 0
M  V30 7630 C 744.447 -0.0708726 -2.2909 0
M  V30 7631 C 745.447 0.687926 -1.45342 0
M  V30 7632 O 746.637 0.519908 -1.66261 0
M  V30 7633 C 743.769 0.909528 -3.28543 0
M  V30 7634 H 744.962 -0.851611 -2.87555 0
M  V30 7635 H 742.515 -0.479674 -1.48758 0
M  V30 7636 H 743.25 1.71734 -2.75096 0
M  V30 7637 H 743.035 0.368318 -3.90366 0
M  V30 7638 H 744.525 1.35744 -3.94922 0
M  V30 7639 N 744.962 1.50701 -0.461195 0
M  V30 7640 C 745.894 2.26124 0.374244 0
M  V30 7641 C 746.907 1.31064 0.965715 0
M  V30 7642 O 748.096 1.56647 0.855801 0
M  V30 7643 C 745.196 3.01996 1.5379 0
M  V30 7644 C 744.369 4.24336 1.06101 0
M  V30 7645 C 743.428 4.82585 2.09756 0
M  V30 7646 O 742.454 5.43775 1.68219 0
M  V30 7647 N 743.656 4.68712 3.42475 0
M  V30 7648 H 746.421 2.9846 -0.2723 0
M  V30 7649 H 743.982 1.59256 -0.291415 0
M  V30 7650 H 745.974 3.37846 2.22806 0
M  V30 7651 H 744.544 2.32521 2.08933 0
M  V30 7652 H 743.764 3.93707 0.197085 0
M  V30 7653 H 745.052 5.03678 0.720156 0
M  V30 7654 H 744.45 4.20026 3.78938 0
M  V30 7655 H 743.007 5.08858 4.07317 0
M  V30 7656 N 746.441 0.193421 1.56409 0
M  V30 7657 C 747.857 -0.162447 1.58771 0
M  V30 7658 C 748.057 -1.6116 1.20954 0
M  V30 7659 O 747.113 -2.3469 0.931497 0
M  V30 7660 C 748.426 0.138391 3.00381 0
M  V30 7661 C 749.974 0.0783649 3.12902 0
M  V30 7662 C 750.449 0.352491 4.56642 0
M  V30 7663 N 751.94 0.30105 4.62221 0
M  V30 7664 C 752.675 0.487028 5.71328 0
M  V30 7665 N 752.171 0.733265 6.88909 0
M  V30 7666 N 753.964 0.4214 5.60518 0
M  V30 7667 H 746.115 1.13909 1.79272 0
M  V30 7668 H 748.378 0.454528 0.83193 0
M  V30 7669 H 748.084 1.14312 3.32604 0
M  V30 7670 H 747.958 -0.559804 3.73023 0
M  V30 7671 H 750.345 -0.916963 2.80492 0
M  V30 7672 H 750.426 0.809611 2.4265 0
M  V30 7673 H 750.07 1.34513 4.89764 0
M  V30 7674 H 750 -0.399624 5.25081 0
M  V30 7675 H 752.491 0.117279 3.77718 0
M  V30 7676 H 752.804 0.86403 7.67955 0
M  V30 7677 H 751.149 0.770138 6.9072 0
M  V30 7678 H 754.34 0.229461 4.67537 0
M  V30 7679 H 754.513 0.569758 6.4549 0
M  V30 7680 N 747.919 -1.57396 -0.0801906 0
M  V30 7681 C 748.849 -2.06145 -1.09665 0
M  V30 7682 C 749.83 -0.953273 -1.40878 0
M  V30 7683 O 751.015 -1.22548 -1.50651 0
M  V30 7684 C 748.145 -2.49836 -2.41245 0
M  V30 7685 C 747.099 -3.64454 -2.24405 0
M  V30 7686 C 746.425 -3.94172 -3.61293 0
M  V30 7687 C 747.725 -4.94807 -1.67223 0
M  V30 7688 H 749.419 -2.91316 -0.691028 0
M  V30 7689 H 746.965 -1.40145 -0.330957 0
M  V30 7690 H 748.918 -2.82552 -3.12638 0
M  V30 7691 H 747.642 -1.61683 -2.83771 0
M  V30 7692 H 746.301 -3.32008 -1.55454 0
M  V30 7693 H 745.949 -3.03163 -4.01374 0
M  V30 7694 H 745.649 -4.71345 -3.50867 0
M  V30 7695 H 747.173 -4.29376 -4.3413 0
M  V30 7696 H 748.587 -5.25807 -2.28472 0
M  V30 7697 H 746.984 -5.76245 -1.67515 0
M  V30 7698 H 748.054 -4.80751 -0.632944 0
M  V30 7699 N 749.397 0.351382 -1.53633 0
M  V30 7700 C 750.33 1.45407 -1.75875 0
M  V30 7701 C 751.308 1.50822 -0.607566 0
M  V30 7702 O 752.492 1.68658 -0.841818 0
M  V30 7703 C 749.619 2.8369 -1.85034 0
M  V30 7704 C 748.665 2.95935 -3.07123 0
M  V30 7705 S 749.498 2.63215 -4.66345 0
M  V30 7706 C 750.654 4.03622 -4.78373 0
M  V30 7707 H 750.887 1.26322 -2.69128 0
M  V30 7708 H 748.42 0.546581 -1.44402 0
M  V30 7709 H 750.378 3.6336 -1.90996 0
M  V30 7710 H 749.039 3.00076 -0.928074 0
M  V30 7711 H 748.232 3.97243 -3.10183 0
M  V30 7712 H 747.834 2.24205 -2.99346 0
M  V30 7713 H 750.126 4.98046 -4.593 0
M  V30 7714 H 751.069 4.05559 -5.80454 0
M  V30 7715 H 751.477 3.91282 -4.06889 0
M  V30 7716 N 750.875 1.45233 0.611969 0
M  V30 7717 C 752.291 1.29542 0.932251 0
M  V30 7718 C 752.491 0.24523 2.00002 0
M  V30 7719 O 751.547 -0.362333 2.49887 0
M  V30 7720 C 752.86 2.67301 1.37733 0
M  V30 7721 C 754.408 2.75163 1.49178 0
M  V30 7722 C 754.883 4.13437 1.97064 0
M  V30 7723 N 756.374 4.15709 2.04304 0
M  V30 7724 C 757.109 5.19566 2.42568 0
M  V30 7725 N 756.605 6.33771 2.79832 0
M  V30 7726 N 758.398 5.06923 2.42869 0
M  V30 7727 H 750.549 2.12192 -0.0938679 0
M  V30 7728 H 752.812 0.947775 0.0206569 0
M  V30 7729 H 752.518 3.45318 0.666951 0
M  V30 7730 H 752.392 2.95472 2.3447 0
M  V30 7731 H 754.779 1.97453 2.19309 0
M  V30 7732 H 754.86 2.50712 0.507674 0
M  V30 7733 H 754.504 4.91631 1.27521 0
M  V30 7734 H 754.434 4.35277 2.9638 0
M  V30 7735 H 756.925 3.33293 1.78113 0
M  V30 7736 H 757.238 7.08815 3.07898 0
M  V30 7737 H 755.583 6.37179 2.77538 0
M  V30 7738 H 758.774 4.1675 2.1316 0
M  V30 7739 H 758.947 5.87981 2.72364 0
M  V30 7740 N 752.353 -0.854086 1.3245 0
M  V30 7741 C 753.583 -1.63836 1.25862 0
M  V30 7742 C 753.991 -1.88383 -0.175588 0
M  V30 7743 O 753.334 -1.45353 -1.1233 0
M  V30 7744 C 753.396 -3.02068 1.94923 0
M  V30 7745 C 753.06 -3.0056 3.44257 0
M  V30 7746 C 754.057 -2.77368 4.39731 0
M  V30 7747 C 751.742 -3.21177 3.862 0
M  V30 7748 C 753.736 -2.74797 5.75122 0
M  V30 7749 C 751.423 -3.18234 5.217 0
M  V30 7750 C 752.421 -2.95072 6.15972 0
M  V30 7751 O 752.109 -2.92003 7.48992 0
M  V30 7752 H 751.841 -0.517007 0.435523 0
M  V30 7753 H 754.395 -1.07314 1.75137 0
M  V30 7754 H 752.625 -3.60382 1.40219 0
M  V30 7755 H 754.314 -3.62791 1.82037 0
M  V30 7756 H 755.08 -2.61205 4.08653 0
M  V30 7757 H 750.959 -3.38231 3.13243 0
M  V30 7758 H 754.503 -2.56638 6.48678 0
M  V30 7759 H 750.4 -3.33941 5.52407 0
M  V30 7760 H 751.168 -3.07953 7.58358 0
M  V30 7761 N 753.831 -1.1567 -1.07043 0
M  V30 7762 C 755.077 -0.944878 -1.80121 0
M  V30 7763 C 755.432 0.522239 -1.85177 0
M  V30 7764 O 754.725 1.38228 -1.32678 0
M  V30 7765 C 754.919 -1.49677 -3.24548 0
M  V30 7766 C 754.748 -3.01602 -3.33566 0
M  V30 7767 C 753.518 -3.70177 -3.43943 0
M  V30 7768 C 755.716 -3.99362 -3.24059 0
M  V30 7769 N 753.698 -5.09882 -3.41896 0
M  V30 7770 C 755.069 -5.25404 -3.29167 0
M  V30 7771 C 757.124 -3.91289 -3.07891 0
M  V30 7772 C 755.827 -6.44314 -3.19769 0
M  V30 7773 C 757.853 -5.09761 -2.99829 0
M  V30 7774 C 757.215 -6.34679 -3.05552 0
M  V30 7775 H 753.314 -0.399447 -0.672284 0
M  V30 7776 H 755.898 -1.4693 -1.27749 0
M  V30 7777 H 754.069 -0.998941 -3.75334 0
M  V30 7778 H 755.801 -1.22346 -3.85764 0
M  V30 7779 H 752.556 -3.2078 -3.48421 0
M  V30 7780 H 752.98 -5.82857 -3.44393 0
M  V30 7781 H 757.622 -2.95573 -3.02318 0
M  V30 7782 H 755.34 -7.4026 -3.24101 0
M  V30 7783 H 758.926 -5.05279 -2.88418 0
M  V30 7784 H 757.806 -7.24812 -2.99361 0
M  V30 7785 N 755.309 1.25446 -0.953992 0
M  V30 7786 C 756.272 2.24156 -0.478179 0
M  V30 7787 C 757.272 1.55278 0.417776 0
M  V30 7788 O 758.462 1.72866 0.215155 0
M  V30 7789 C 755.594 3.39495 0.309202 0
M  V30 7790 H 756.787 2.67764 -1.35064 0
M  V30 7791 H 754.34 1.37822 -0.737206 0
M  V30 7792 H 755.075 3.01307 1.19936 0
M  V30 7793 H 754.86 3.90679 -0.333562 0
M  V30 7794 H 756.35 4.12796 0.631594 0
M  V30 7795 N 756.787 0.722489 1.40064 0
M  V30 7796 C 757.735 0.063329 2.32514 0
M  V30 7797 C 758.729 -0.73953 1.52405 0
M  V30 7798 O 759.935 -0.642122 1.68157 0
M  V30 7799 H 756.31 0.00167692 0.751998 0
M  V30 7800 H 758.281 0.859656 2.85749 0
M  V30 7801 C 757.03 -0.839219 3.3742 0
M  V30 7802 H 756.353 -0.230836 3.99133 0
M  V30 7803 H 757.793 -1.26827 4.04587 0
M  V30 7804 C 756.252 -1.96783 2.73456 0
M  V30 7805 O 756.782 -3.05933 2.60323 0
M  V30 7806 N 754.988 -1.75351 2.31734 0
M  V30 7807 H 754.535 -0.865787 2.42615 0
M  V30 7808 H 754.493 -2.51043 1.89275 0
M  V30 7809 N 758.265 -1.50454 0.469181 0
M  V30 7810 C 759.512 -2.02315 -0.086469 0
M  V30 7811 C 759.84 -1.3513 -1.39893 0
M  V30 7812 O 759.095 -0.465341 -1.90087 0
M  V30 7813 C 759.394 -3.55963 -0.320207 0
M  V30 7814 C 759.06 -4.41615 0.910318 0
M  V30 7815 C 757.722 -4.64743 1.2477 0
M  V30 7816 C 760.074 -4.91661 1.72971 0
M  V30 7817 C 757.402 -5.35161 2.40457 0
M  V30 7818 C 759.754 -5.6335 2.87785 0
M  V30 7819 C 758.418 -5.84732 3.2194 0
M  V30 7820 H 757.688 -0.740324 -0.0316412 0
M  V30 7821 H 760.335 -1.81087 0.622872 0
M  V30 7822 H 758.64 -3.75695 -1.11177 0
M  V30 7823 H 760.337 -3.93653 -0.764071 0
M  V30 7824 H 756.927 -4.23833 0.637467 0
M  V30 7825 H 761.111 -4.73649 1.48224 0
M  V30 7826 H 756.367 -5.49924 2.67196 0
M  V30 7827 H 760.541 -6.0111 3.51624 0
M  V30 7828 H 758.168 -6.39074 4.1169 0
M  V30 7829 N 759.743 -0.201713 -1.56304 0
M  V30 7830 C 760.706 0.702811 -2.18159 0
M  V30 7831 C 761.706 1.13619 -1.13787 0
M  V30 7832 O 762.896 1.0482 -1.39134 0
M  V30 7833 C 760.028 1.96032 -2.78898 0
M  V30 7834 H 761.221 0.163836 -2.99452 0
M  V30 7835 H 758.774 0.04791 -1.56227 0
M  V30 7836 H 759.509 2.54165 -2.01421 0
M  V30 7837 H 759.294 1.65824 -3.55309 0
M  V30 7838 H 760.784 2.60519 -3.26373 0
M  V30 7839 N 761.222 1.57436 0.0718424 0
M  V30 7840 C 762.638 1.53792 0.426628 0
M  V30 7841 C 762.838 0.921887 1.79174 0
M  V30 7842 O 761.894 0.524374 2.46995 0
M  V30 7843 C 763.207 2.98443 0.367739 0
M  V30 7844 C 764.755 3.09778 0.447928 0
M  V30 7845 C 765.23 4.5608 0.418946 0
M  V30 7846 N 766.721 4.60716 0.479022 0
M  V30 7847 C 767.456 5.71397 0.47881 0
M  V30 7848 N 766.952 6.91443 0.433417 0
M  V30 7849 N 768.745 5.59639 0.525364 0
M  V30 7850 H 760.896 1.95848 -0.822033 0
M  V30 7851 H 763.159 0.896418 -0.308447 0
M  V30 7852 H 762.865 3.47072 -0.56865 0
M  V30 7853 H 762.739 3.58335 1.17795 0
M  V30 7854 H 765.126 2.61122 1.37474 0
M  V30 7855 H 765.207 2.52796 -0.390857 0
M  V30 7856 H 764.851 5.05393 -0.504016 0
M  V30 7857 H 764.781 5.10925 1.27526 0
M  V30 7858 H 767.272 3.74328 0.518355 0
M  V30 7859 H 767.585 7.71562 0.43718 0
M  V30 7860 H 765.93 6.93847 0.400106 0
M  V30 7861 H 769.121 4.64756 0.558519 0
M  V30 7862 H 769.294 6.45896 0.52173 0
M  V30 7863 N 762.7 -0.34323 1.53817 0
M  V30 7864 C 763.928 -1.10348 1.75017 0
M  V30 7865 C 764.343 -1.82345 0.489475 0
M  V30 7866 O 763.7 -1.74362 -0.538886 0
M  V30 7867 C 763.751 -2.11672 2.93048 0
M  V30 7868 O 763.472 -1.42603 4.14241 0
M  V30 7869 C 764.973 -3.0007 3.26301 0
M  V30 7870 H 762.193 -0.329056 0.584776 0
M  V30 7871 H 764.737 -0.395339 2.00642 0
M  V30 7872 H 762.892 -2.78051 2.69753 0
M  V30 7873 H 763.306 -2.10294 4.80496 0
M  V30 7874 H 764.78 -3.67101 4.12239 0
M  V30 7875 H 765.257 -3.66105 2.42618 0
M  V30 7876 H 765.863 -2.3928 3.51604 0
M  V30 7877 N 764.178 -1.45556 -0.604258 0
M  V30 7878 C 765.426 -1.4945 -1.36048 0
M  V30 7879 C 765.747 -0.138933 -1.94504 0
M  V30 7880 O 765.017 0.832097 -1.7735 0
M  V30 7881 H 763.597 -0.550381 -0.505064 0
M  V30 7882 H 766.259 -1.81535 -0.709308 0
M  V30 7883 H 765.355 -2.23519 -2.17821 0
M  V30 7884 N 765.656 0.84705 -1.32902 0
M  V30 7885 C 766.933 1.58583 -1.14503 0
M  V30 7886 C 767.313 2.09075 0.291724 0
M  V30 7887 O 766.661 1.88636 1.28952 0
M  V30 7888 C 766.871 2.72605 -2.17916 0
M  V30 7889 C 768.219 3.41993 -2.51646 0
M  V30 7890 O 769.243 2.82838 -2.1652 0
M  V30 7891 O 768.102 4.48761 -3.1189 0
M  V30 7892 H 765.196 0.698756 -0.442345 0
M  V30 7893 H 767.742 0.890516 -1.44457 0
M  V30 7894 H 766.514 2.32876 -3.14459 0
M  V30 7895 H 766.137 3.49807 -1.89 0
M  V30 7896 N 767.134 1.16236 1.06428 0
M  V30 7897 C 768.545 0.950942 1.60667 0
M  V30 7898 C 768.896 -0.505491 1.89576 0
M  V30 7899 O 768.021 -1.37843 1.66818 0
M  V30 7900 C 768.616 1.71982 2.91904 0
M  V30 7901 C 767.175 1.55342 3.4285 0
M  V30 7902 C 766.322 1.72942 2.16763 0
M  V30 7903 H 769.273 1.31126 0.893959 0
M  V30 7904 H 769.294 1.19483 3.61253 0
M  V30 7905 H 768.806 2.77978 2.70831 0
M  V30 7906 H 766.907 0.5178 3.68985 0
M  V30 7907 H 767.02 2.33643 4.18267 0
M  V30 7908 H 765.384 1.15673 2.26918 0
M  V30 7909 H 766.167 2.80324 1.98175 0
M  V30 7910 N 768.612 -1.24939 0.960631 0
M  V30 7911 C 769.56 -2.27659 0.47686 0
M  V30 7912 C 770.554 -1.63148 -0.455961 0
M  V30 7913 O 771.76 -1.76911 -0.332029 0
M  V30 7914 H 768.135 -0.739651 0.135723 0
M  V30 7915 H 770.106 -2.65844 1.35534 0
M  V30 7916 C 768.855 -3.46976 -0.224191 0
M  V30 7917 H 768.178 -3.96854 0.484471 0
M  V30 7918 H 769.618 -4.20717 -0.526615 0
M  V30 7919 C 768.077 -3.04159 -1.44876 0
M  V30 7920 O 768.607 -3.10697 -2.54618 0
M  V30 7921 N 766.813 -2.59284 -1.31226 0
M  V30 7922 H 766.36 -2.54164 -0.419361 0
M  V30 7923 H 766.318 -2.31 -2.13275 0
M  V30 7924 N 770.09 -0.729906 -1.39679 0
M  V30 7925 C 771 -0.0880322 -2.34435 0
M  V30 7926 C 772.016 0.727674 -1.58053 0
M  V30 7927 O 773.192 0.657321 -1.90371 0
M  V30 7928 C 770.257 0.812211 -3.37052 0
M  V30 7929 C 769.318 -0.0151681 -4.29297 0
M  V30 7930 C 768.551 0.842202 -5.27013 0
M  V30 7931 O 768.774 2.08108 -5.31081 0
M  V30 7932 O 767.708 0.27357 -6.01278 0
M  V30 7933 H 771.534 -0.869989 -2.90972 0
M  V30 7934 H 769.119 -0.490522 -1.41118 0
M  V30 7935 H 771.001 1.32745 -3.99946 0
M  V30 7936 H 769.676 1.57307 -2.82907 0
M  V30 7937 H 768.583 -0.575811 -3.69642 0
M  V30 7938 H 769.916 -0.738129 -4.86634 0
M  V30 7939 N 771.568 1.50203 -0.477153 0
M  V30 7940 C 772.979 1.86685 -0.0235041 0
M  V30 7941 C 773.33 1.39148 1.38319 0
M  V30 7942 O 772.455 0.759051 2.02651 0
M  V30 7943 C 773.05 3.38781 -0.0358767 0
M  V30 7944 C 771.609 3.74652 0.362327 0
M  V30 7945 C 770.756 2.7412 -0.41875 0
M  V30 7946 H 773.707 1.4286 -0.691133 0
M  V30 7947 H 773.728 3.72732 0.764924 0
M  V30 7948 H 773.24 3.73349 -1.05981 0
M  V30 7949 H 771.341 3.45686 1.39039 0
M  V30 7950 H 771.454 4.79063 0.059457 0
M  V30 7951 H 769.818 2.54376 0.128341 0
M  V30 7952 H 770.601 3.11532 -1.44231 0
M  V30 7953 N 773.046 0.209999 1.56195 0
M  V30 7954 C 774.462 -0.145598 1.58934 0
M  V30 7955 C 774.662 -1.59868 1.22656 0
M  V30 7956 O 773.718 -2.33689 0.956336 0
M  V30 7957 C 775.031 0.170243 3.00218 0
M  V30 7958 C 776.579 0.111548 3.12801 0
M  V30 7959 C 777.054 0.400904 4.56242 0
M  V30 7960 N 778.545 0.350058 4.61875 0
M  V30 7961 C 779.28 0.547598 5.70779 0
M  V30 7962 N 778.776 0.806291 6.88092 0
M  V30 7963 N 780.569 0.480827 5.6004 0
M  V30 7964 H 772.72 1.15804 1.78054 0
M  V30 7965 H 774.983 0.463326 0.827063 0
M  V30 7966 H 774.689 1.17833 3.31373 0
M  V30 7967 H 774.563 -0.520208 3.73596 0
M  V30 7968 H 776.95 -0.887162 2.81449 0
M  V30 7969 H 777.031 0.835302 2.41777 0
M  V30 7970 H 776.675 1.397 4.8831 0
M  V30 7971 H 776.605 -0.34391 5.25476 0
M  V30 7972 H 779.096 0.157334 3.77572 0
M  V30 7973 H 779.409 0.945433 7.66995 0
M  V30 7974 H 777.754 0.843355 6.89864 0
M  V30 7975 H 780.945 0.279037 4.67268 0
M  V30 7976 H 781.118 0.638189 6.4485 0
M  V30 7977 N 774.524 -1.57472 -0.0634922 0
M  V30 7978 C 775.801 -1.78736 -0.794538 0
M  V30 7979 C 776.181 -0.799645 -1.95369 0
M  V30 7980 O 775.529 0.165521 -2.279 0
M  V30 7981 C 775.739 -3.25471 -1.25975 0
M  V30 7982 C 777.087 -3.89528 -1.68976 0
M  V30 7983 O 778.111 -3.29412 -1.35521 0
M  V30 7984 O 776.97 -4.95305 -2.30944 0
M  V30 7985 H 774.064 -0.733813 -0.381376 0
M  V30 7986 H 776.61 -1.69646 -0.0429258 0
M  V30 7987 H 775.382 -3.88922 -0.430721 0
M  V30 7988 H 775.005 -3.39317 -2.07243 0
M  V30 7989 N 776.003 0.335068 -1.53997 0
M  V30 7990 C 777.414 0.910191 -1.6301 0
M  V30 7991 C 777.765 1.89271 -0.516809 0
M  V30 7992 O 776.89 2.13516 0.352123 0
M  V30 7993 C 777.485 1.65761 -2.9548 0
M  V30 7994 C 776.044 2.18163 -3.06728 0
M  V30 7995 C 775.191 1.00338 -2.5851 0
M  V30 7996 H 778.142 0.112965 -1.58297 0
M  V30 7997 H 778.163 2.52107 -2.84995 0
M  V30 7998 H 777.675 0.94227 -3.76488 0
M  V30 7999 H 775.776 2.92847 -2.30372 0
M  V30 8000 H 775.889 2.43952 -4.1234 0
M  V30 8001 H 774.253 1.37925 -2.14124 0
M  V30 8002 H 775.036 0.30254 -3.41964 0
M  V30 8003 N 777.481 1.45874 0.596531 0
M  V30 8004 C 778.428 1.55389 1.70655 0
M  V30 8005 C 779.398 0.399036 1.61236 0
M  V30 8006 O 780.583 0.61396 1.80652 0
M  V30 8007 C 777.723 1.53705 3.0898 0
M  V30 8008 C 776.836 2.79823 3.29125 0
M  V30 8009 C 775.971 2.69735 4.5762 0
M  V30 8010 C 775.01 3.90856 4.71061 0
M  V30 8011 N 774.147 3.79237 5.90867 0
M  V30 8012 H 778.987 2.50211 1.61859 0
M  V30 8013 H 776.524 1.24146 0.789069 0
M  V30 8014 H 778.482 1.50715 3.89026 0
M  V30 8015 H 777.112 0.624247 3.16706 0
M  V30 8016 H 776.164 2.92852 2.42779 0
M  V30 8017 H 777.476 3.69628 3.34927 0
M  V30 8018 H 776.63 2.64773 5.45875 0
M  V30 8019 H 775.369 1.77547 4.54234 0
M  V30 8020 H 774.374 3.96164 3.81227 0
M  V30 8021 H 775.599 4.84124 4.76236 0
M  V30 8022 H 773.545 2.89825 5.88504 0
M  V30 8023 H 773.462 4.62686 5.97877 0
M  V30 8024 H 774.73 3.78227 6.8159 0
M  V30 8025 N 778.959 -0.83999 1.33349 0
M  V30 8026 C 779.922 -1.93128 1.23426 0
M  V30 8027 C 780.922 -1.60065 0.153599 0
M  V30 8028 O 782.112 -1.69425 0.405049 0
M  V30 8029 C 779.244 -3.28761 0.901622 0
M  V30 8030 H 780.437 -2.03352 2.20427 0
M  V30 8031 H 777.99 -1.03194 1.17391 0
M  V30 8032 H 778.725 -3.24233 -0.0659337 0
M  V30 8033 H 778.51 -3.54138 1.68311 0
M  V30 8034 H 780 -4.08714 0.856913 0
M  V30 8035 N 780.437 -1.16799 -1.0581 0
M  V30 8036 C 781.848 -0.95945 -1.60161 0
M  V30 8037 C 782.199 0.49543 -1.89842 0
M  V30 8038 O 781.324 1.36957 -1.67546 0
M  V30 8039 C 781.919 -1.73527 -2.90987 0
M  V30 8040 C 780.478 -1.57158 -3.42021 0
M  V30 8041 C 779.625 -1.74089 -2.15843 0
M  V30 8042 H 782.576 -1.31598 -0.886992 0
M  V30 8043 H 782.597 -1.21397 -3.60615 0
M  V30 8044 H 782.109 -2.79411 -2.69353 0
M  V30 8045 H 780.21 -0.537361 -3.68705 0
M  V30 8046 H 780.323 -2.35858 -4.17022 0
M  V30 8047 H 778.687 -1.16874 -2.26302 0
M  V30 8048 H 779.47 -2.81371 -1.96686 0
M  V30 8049 N 781.915 1.24427 -0.967243 0
M  V30 8050 C 782.847 2.24641 -0.454856 0
M  V30 8051 C 783.86 1.56849 0.436152 0
M  V30 8052 O 785.049 1.76846 0.242401 0
M  V30 8053 C 782.149 3.36954 0.362672 0
M  V30 8054 C 781.322 4.34318 -0.518324 0
M  V30 8055 C 780.381 5.25638 0.243122 0
M  V30 8056 O 779.407 5.68043 -0.362791 0
M  V30 8057 N 780.609 5.59897 1.53282 0
M  V30 8058 H 783.374 2.69238 -1.31648 0
M  V30 8059 H 780.935 1.38464 -0.839015 0
M  V30 8060 H 782.927 3.95014 0.880094 0
M  V30 8061 H 781.497 2.91646 1.12522 0
M  V30 8062 H 780.717 3.74953 -1.21672 0
M  V30 8063 H 782.005 4.96338 -1.11919 0
M  V30 8064 H 781.403 5.27373 2.04682 0
M  V30 8065 H 779.96 6.20488 1.99594 0
M  V30 8066 N 783.393 0.737304 1.3929 0
M  V30 8067 C 784.639 0.295581 2.01241 0
M  V30 8068 C 784.994 -1.10561 1.57461 0
M  V30 8069 O 784.287 -1.74346 0.7946 0
M  V30 8070 C 784.481 0.338438 3.55794 0
M  V30 8071 C 784.31 1.74225 4.14579 0
M  V30 8072 C 783.08 2.35502 4.47065 0
M  V30 8073 C 785.278 2.69623 4.37959 0
M  V30 8074 N 783.26 3.68014 4.91365 0
M  V30 8075 C 784.631 3.86873 4.84489 0
M  V30 8076 C 786.686 2.67355 4.2003 0
M  V30 8077 C 785.389 5.02193 5.14971 0
M  V30 8078 C 787.415 3.8182 4.51627 0
M  V30 8079 C 786.777 4.97806 4.98366 0
M  V30 8080 H 782.876 0.154468 0.766592 0
M  V30 8081 H 785.46 0.963768 1.69173 0
M  V30 8082 H 783.631 -0.299406 3.87244 0
M  V30 8083 H 785.363 -0.122053 4.04516 0
M  V30 8084 H 782.118 1.87406 4.34943 0
M  V30 8085 H 782.542 4.36051 5.17869 0
M  V30 8086 H 787.184 1.78876 3.83097 0
M  V30 8087 H 784.902 5.913 5.50809 0
M  V30 8088 H 788.488 3.81366 4.39376 0
M  V30 8089 H 787.368 5.84909 5.22351 0
M  V30 8090 N 784.871 -1.49948 0.485112 0
M  V30 8091 C 786.282 -1.8667 0.0334041 0
M  V30 8092 C 786.633 -1.3988 -1.37579 0
M  V30 8093 O 785.758 -0.769788 -2.02245 0
M  V30 8094 C 786.353 -3.38757 0.0538426 0
M  V30 8095 C 784.912 -3.74839 -0.342453 0
M  V30 8096 C 784.059 -2.73894 0.433281 0
M  V30 8097 H 787.01 -1.42492 0.698699 0
M  V30 8098 H 787.031 -3.73132 -0.745146 0
M  V30 8099 H 786.543 -3.72782 1.07959 0
M  V30 8100 H 784.644 -3.46419 -1.37203 0
M  V30 8101 H 784.757 -4.79088 -0.0340503 0
M  V30 8102 H 783.121 -2.54441 -0.114849 0
M  V30 8103 H 783.904 -3.10763 1.45881 0
M  V30 8104 N 786.349 -0.21828 -1.56081 0
M  V30 8105 C 787.76 0.290166 -1.84431 0
M  V30 8106 C 788.111 1.59712 -1.13958 0
M  V30 8107 O 787.236 2.12516 -0.40815 0
M  V30 8108 C 787.831 0.53325 -3.34577 0
M  V30 8109 C 786.39 0.986011 -3.63256 0
M  V30 8110 C 785.537 0.0472798 -2.7726 0
M  V30 8111 H 788.488 -0.441548 -1.52434 0
M  V30 8112 H 788.509 1.37967 -3.54606 0
M  V30 8113 H 788.021 -0.418137 -3.85841 0
M  V30 8114 H 786.122 1.95087 -3.17446 0
M  V30 8115 H 786.235 0.862684 -4.71269 0
M  V30 8116 H 784.599 0.553471 -2.48614 0
M  V30 8117 H 785.382 -0.898966 -3.31321 0
M  V30 8118 N 787.827 1.57504 0.0551401 0
M  V30 8119 C 789.057 1.92015 0.762472 0
M  V30 8120 C 789.465 0.814088 1.7079 0
M  V30 8121 O 788.808 -0.220273 1.82375 0
M  V30 8122 C 788.87 3.22132 1.59598 0
M  V30 8123 C 788.534 4.49617 0.818141 0
M  V30 8124 C 789.531 5.19738 0.129933 0
M  V30 8125 C 787.216 4.96201 0.780387 0
M  V30 8126 C 789.21 6.34704 -0.585616 0
M  V30 8127 C 786.897 6.11069 0.0610756 0
M  V30 8128 C 787.895 6.80174 -0.62071 0
M  V30 8129 O 787.583 7.92849 -1.3284 0
M  V30 8130 H 787.315 0.638866 0.220967 0
M  V30 8131 H 789.869 2.05385 0.0246362 0
M  V30 8132 H 788.099 3.05016 2.37701 0
M  V30 8133 H 789.788 3.42166 2.18351 0
M  V30 8134 H 790.554 4.84767 0.150299 0
M  V30 8135 H 786.433 4.42275 1.30054 0
M  V30 8136 H 789.977 6.88578 -1.11833 0
M  V30 8137 H 785.874 6.45488 0.0386945 0
M  V30 8138 H 786.642 8.09062 -1.23938 0
M  V30 8139 N 789.305 -0.326896 1.54172 0
M  V30 8140 C 790.533 -1.08486 1.76177 0
M  V30 8141 C 790.948 -1.81815 0.508788 0
M  V30 8142 O 790.305 -1.74924 -0.520362 0
M  V30 8143 C 790.356 -2.08552 2.95276 0
M  V30 8144 O 790.077 -1.38202 4.15731 0
M  V30 8145 C 791.578 -2.96593 3.29466 0
M  V30 8146 H 788.798 -0.322835 0.588233 0
M  V30 8147 H 791.342 -0.374036 2.0105 0
M  V30 8148 H 789.497 -2.75174 2.72687 0
M  V30 8149 H 789.911 -2.05186 4.827 0
M  V30 8150 H 791.385 -3.62708 4.16109 0
M  V30 8151 H 791.862 -3.63511 2.46487 0
M  V30 8152 H 792.468 -2.35537 3.54122 0
M  V30 8153 N 790.784 -1.46188 -0.588786 0
M  V30 8154 C 791.747 -1.55882 -1.68029 0
M  V30 8155 C 792.747 -0.436515 -1.54762 0
M  V30 8156 O 793.937 -0.700626 -1.59489 0
M  V30 8157 C 791.069 -1.47332 -3.07418 0
M  V30 8158 H 792.262 -2.5315 -1.60795 0
M  V30 8159 H 789.815 -1.33908 -0.806116 0
M  V30 8160 H 790.55 -0.513193 -3.20214 0
M  V30 8161 H 790.335 -2.28753 -3.18456 0
M  V30 8162 H 791.825 -1.57187 -3.86887 0
M  V30 8163 N 792.262 0.832906 -1.33792 0
M  V30 8164 C 793.51 1.58539 -1.25338 0
M  V30 8165 C 793.831 1.94175 0.179204 0
M  V30 8166 O 793.101 1.61458 1.10941 0
M  V30 8167 H 791.681 0.58784 -0.460926 0
M  V30 8168 H 794.343 0.995064 -1.67584 0
M  V30 8169 H 793.439 2.51268 -1.85123 0
M  V30 8170 N 793.74 1.17359 1.05189 0
M  V30 8171 C 794.703 0.892604 2.11105 0
M  V30 8172 C 795.703 -0.117236 1.60372 0
M  V30 8173 O 796.893 0.114936 1.7382 0
M  V30 8174 C 794.025 0.337032 3.3923 0
M  V30 8175 H 795.218 1.83169 2.37464 0
M  V30 8176 H 792.771 0.984051 1.21434 0
M  V30 8177 H 793.506 -0.609198 3.18527 0
M  V30 8178 H 793.291 1.06484 3.77364 0
M  V30 8179 H 794.781 0.158763 4.17298 0
M  V30 8180 N 795.218 -1.23913 0.973828 0
M  V30 8181 C 796.15 -2.24397 0.466763 0
M  V30 8182 C 797.163 -1.57078 -0.427828 0
M  V30 8183 O 798.352 -1.76973 -0.233019 0
M  V30 8184 C 795.452 -3.37141 -0.344798 0
M  V30 8185 C 794.625 -4.34037 0.541349 0
M  V30 8186 C 793.684 -5.2576 -0.215243 0
M  V30 8187 O 792.71 -5.67842 0.39291 0
M  V30 8188 N 793.912 -5.60702 -1.5031 0
M  V30 8189 H 796.677 -2.68536 1.33074 0
M  V30 8190 H 794.238 -1.38017 0.846346 0
M  V30 8191 H 796.23 -3.95476 -0.859133 0
M  V30 8192 H 794.8 -2.92239 -1.10974 0
M  V30 8193 H 794.02 -3.74302 1.23659 0
M  V30 8194 H 795.308 -4.95738 1.1455 0
M  V30 8195 H 794.706 -5.28451 -2.01882 0
M  V30 8196 H 793.263 -6.21538 -1.96301 0
M  V30 8197 N 796.696 -0.74468 -1.38897 0
M  V30 8198 C 797.628 -0.0713608 -2.29089 0
M  V30 8199 C 798.641 0.693224 -1.47303 0
M  V30 8200 O 799.83 0.535785 -1.70269 0
M  V30 8201 C 796.93 0.923078 -3.26087 0
M  V30 8202 C 796.103 0.217998 -4.36856 0
M  V30 8203 C 795.162 1.12192 -5.14101 0
M  V30 8204 O 794.188 0.595771 -5.66073 0
M  V30 8205 N 795.39 2.45082 -5.26227 0
M  V30 8206 H 798.155 -0.845906 -2.87514 0
M  V30 8207 H 795.716 -0.594712 -1.50581 0
M  V30 8208 H 797.708 1.53061 -3.74639 0
M  V30 8209 H 796.278 1.59876 -2.68623 0
M  V30 8210 H 795.498 -0.570134 -3.90055 0
M  V30 8211 H 796.786 -0.270248 -5.08082 0
M  V30 8212 H 796.184 2.90294 -4.85537 0
M  V30 8213 H 794.741 3.00907 -5.78185 0
M  V30 8214 N 798.174 1.49689 -0.493057 0
M  V30 8215 C 799.404 2.06536 0.0512397 0
M  V30 8216 C 799.812 1.35459 1.32089 0
M  V30 8217 O 799.155 0.424145 1.78736 0
M  V30 8218 C 799.217 3.57452 0.383231 0
M  V30 8219 C 798.881 4.50163 -0.787555 0
M  V30 8220 C 799.878 4.92151 -1.67582 0
M  V30 8221 C 797.563 4.92565 -0.984109 0
M  V30 8222 C 799.557 5.7527 -2.74487 0
M  V30 8223 C 797.244 5.75463 -2.05634 0
M  V30 8224 C 798.242 6.16719 -2.93507 0
M  V30 8225 O 797.93 6.97961 -3.98881 0
M  V30 8226 H 797.662 0.675862 -0.0136516 0
M  V30 8227 H 800.216 1.9356 -0.687298 0
M  V30 8228 H 798.446 3.68408 1.17526 0
M  V30 8229 H 800.135 3.96572 0.8652 0
M  V30 8230 H 800.901 4.60043 -1.53575 0
M  V30 8231 H 796.78 4.5996 -0.309541 0
M  V30 8232 H 800.324 6.07392 -3.43104 0
M  V30 8233 H 796.221 6.06983 -2.19639 0
M  V30 8234 H 796.989 7.16253 -3.96137 0
M  V30 8235 N 799.652 0.226554 1.55963 0
M  V30 8236 C 800.898 -0.404387 1.98727 0
M  V30 8237 C 801.231 -1.59059 1.11418 0
M  V30 8238 O 800.506 -1.93729 0.172971 0
M  V30 8239 C 800.789 -0.834081 3.50307 0
M  V30 8240 C 800.642 0.356104 4.48388 0
M  V30 8241 C 801.961 -1.68845 4.06423 0
M  V30 8242 H 799.08 -0.145515 0.722492 0
M  V30 8243 H 801.722 0.323791 1.87221 0
M  V30 8244 H 799.872 -1.45454 3.60244 0
M  V30 8245 H 801.544 0.99432 4.50456 0
M  V30 8246 H 799.787 1.0027 4.22053 0
M  V30 8247 H 800.458 0.0124333 5.51999 0
M  V30 8248 H 802.934 -1.16489 3.99461 0
M  V30 8249 H 801.81 -1.958 5.1279 0
M  V30 8250 H 802.071 -2.65347 3.53615 0
M  V30 8251 N 801.13 -1.57531 -0.0467866 0
M  V30 8252 C 802.355 -1.93087 -0.757123 0
M  V30 8253 C 802.78 -0.825116 -1.69037 0
M  V30 8254 O 802.138 0.220449 -1.79955 0
M  V30 8255 C 802.186 -3.27669 -1.5055 0
M  V30 8256 O 801.29 -3.18667 -2.61773 0
M  V30 8257 H 800.631 -0.631597 -0.204892 0
M  V30 8258 H 803.161 -2.04599 -0.00755232 0
M  V30 8259 H 803.171 -3.6214 -1.87932 0
M  V30 8260 H 801.846 -4.07717 -0.820931 0
M  V30 8261 H 800.423 -2.95798 -2.27064 0
M  V30 8262 N 802.608 0.318715 -1.54344 0
M  V30 8263 C 803.538 1.39751 -1.87061 0
M  V30 8264 C 804.519 1.53741 -0.727848 0
M  V30 8265 O 805.704 1.67541 -0.982016 0
M  V30 8266 C 802.834 2.76446 -2.10226 0
M  V30 8267 C 801.788 2.77239 -3.26071 0
M  V30 8268 C 801.114 4.17056 -3.34617 0
M  V30 8269 C 802.414 2.40555 -4.63606 0
M  V30 8270 H 804.108 1.12619 -2.77412 0
M  V30 8271 H 801.654 0.540318 -1.33479 0
M  V30 8272 H 803.607 3.51985 -2.31699 0
M  V30 8273 H 802.331 3.05066 -1.16629 0
M  V30 8274 H 800.99 2.04155 -3.04493 0
M  V30 8275 H 800.638 4.42824 -2.3857 0
M  V30 8276 H 800.338 4.18492 -4.12478 0
M  V30 8277 H 801.862 4.94401 -3.5833 0
M  V30 8278 H 803.276 3.05808 -4.84927 0
M  V30 8279 H 801.673 2.53234 -5.44052 0
M  V30 8280 H 802.743 1.35698 -4.65526 0
M  V30 8281 N 804.086 1.46499 0.581025 0
M  V30 8282 C 805.363 1.42372 1.34125 0
M  V30 8283 C 805.743 0.108073 2.10823 0
M  V30 8284 O 805.091 -0.910366 2.09582 0
M  V30 8285 C 805.301 2.65445 2.26583 0
M  V30 8286 C 806.649 3.11664 2.88359 0
M  V30 8287 O 807.673 2.66006 2.36896 0
M  V30 8288 O 806.532 3.90974 3.81839 0
M  V30 8289 H 803.626 0.566262 0.602724 0
M  V30 8290 H 806.172 1.58667 0.601903 0
M  V30 8291 H 804.944 3.52756 1.69348 0
M  V30 8292 H 804.567 2.51618 3.07854 0
M  V30 8293 N 805.565 -0.825799 1.34232 0
M  V30 8294 C 806.495 -1.95151 1.28212 0
M  V30 8295 C 807.476 -1.69345 0.160123 0
M  V30 8296 O 808.661 -1.90983 0.352019 0
M  V30 8297 C 805.791 -3.31554 1.03388 0
M  V30 8298 C 804.745 -3.71793 2.12023 0
M  V30 8299 C 804.071 -5.06147 1.72392 0
M  V30 8300 C 805.371 -3.84193 3.53826 0
M  V30 8301 H 807.065 -2.00445 2.22401 0
M  V30 8302 H 804.611 -0.962996 1.07063 0
M  V30 8303 H 806.564 -4.09889 0.978225 0
M  V30 8304 H 805.288 -3.26551 0.0564142 0
M  V30 8305 H 803.947 -2.95731 2.16654 0
M  V30 8306 H 803.595 -4.97628 0.733137 0
M  V30 8307 H 803.295 -5.34041 2.451 0
M  V30 8308 H 804.819 -5.86943 1.68317 0
M  V30 8309 H 806.233 -4.52806 3.51624 0
M  V30 8310 H 804.63 -4.23538 4.2513 0
M  V30 8311 H 805.7 -2.86272 3.91377 0
M  V30 8312 N 807.043 -1.17915 -1.04565 0
M  V30 8313 C 808.459 -0.927761 -1.29864 0
M  V30 8314 C 808.659 0.409536 -1.97294 0
M  V30 8315 O 807.715 1.14505 -2.25044 0
M  V30 8316 C 809.028 -2.08967 -2.16225 0
M  V30 8317 C 810.576 -2.12741 -2.29587 0
M  V30 8318 C 811.051 -3.28335 -3.19312 0
M  V30 8319 N 812.542 -3.28164 -3.26898 0
M  V30 8320 C 813.277 -4.14249 -3.96466 0
M  V30 8321 N 812.773 -5.10457 -4.68407 0
M  V30 8322 N 814.566 -4.02179 -3.92694 0
M  V30 8323 H 806.717 -2.03983 -0.592011 0
M  V30 8324 H 808.98 -0.891023 -0.323701 0
M  V30 8325 H 808.686 -3.05654 -1.73979 0
M  V30 8326 H 808.56 -2.04606 -3.16885 0
M  V30 8327 H 810.947 -1.16636 -2.71072 0
M  V30 8328 H 811.028 -2.21162 -1.28535 0
M  V30 8329 H 810.672 -4.2471 -2.78539 0
M  V30 8330 H 810.602 -3.17151 -4.20384 0
M  V30 8331 H 813.093 -2.58511 -2.75646 0
M  V30 8332 H 813.406 -5.72526 -5.1907 0
M  V30 8333 H 811.751 -5.14422 -4.67328 0
M  V30 8334 H 814.942 -3.26308 -3.3562 0
M  V30 8335 H 815.115 -4.69486 -4.4664 0
M  V30 8336 N 808.521 1.23394 -0.980386 0
M  V30 8337 C 809.932 1.73631 -0.686239 0
M  V30 8338 C 810.283 1.79259 0.797541 0
M  V30 8339 O 809.408 1.43046 1.62379 0
M  V30 8340 C 810.003 3.15332 -1.239 0
M  V30 8341 C 808.562 3.63024 -0.994494 0
M  V30 8342 C 807.709 2.41279 -1.36673 0
M  V30 8343 H 810.66 1.08918 -1.15423 0
M  V30 8344 H 810.681 3.75556 -0.611414 0
M  V30 8345 H 810.193 3.11204 -2.31892 0
M  V30 8346 H 808.294 3.72535 0.0693492 0
M  V30 8347 H 808.407 4.49825 -1.64906 0
M  V30 8348 H 806.771 2.42295 -0.785195 0
M  V30 8349 H 807.554 2.39822 -2.45642 0
M  V30 8350 N 809.999 0.752036 1.385 0
M  V30 8351 C 810.929 0.138718 2.33088 0
M  V30 8352 C 811.91 -0.705318 1.54788 0
M  V30 8353 O 813.095 -0.646821 1.83112 0
M  V30 8354 C 810.225 -0.75641 3.38963 0
M  V30 8355 C 809.179 -0.0152239 4.27997 0
M  V30 8356 C 808.505 -1.0285 5.24715 0
M  V30 8357 C 809.805 1.15226 5.09431 0
M  V30 8358 H 811.499 0.928852 2.84627 0
M  V30 8359 H 809.045 0.448111 1.3685 0
M  V30 8360 H 810.998 -1.19513 4.04097 0
M  V30 8361 H 809.722 -1.57885 2.85902 0
M  V30 8362 H 808.381 0.404061 3.64366 0
M  V30 8363 H 808.029 -1.84496 4.67943 0
M  V30 8364 H 807.729 -0.537238 5.85139 0
M  V30 8365 H 809.253 -1.46657 5.92726 0
M  V30 8366 H 810.667 0.791161 5.67815 0
M  V30 8367 H 809.064 1.57428 5.79082 0
M  V30 8368 H 810.134 1.9659 4.43261 0
M  V30 8369 N 811.477 -1.49425 0.500989 0
M  V30 8370 C 812.387 -2.32899 -0.282011 0
M  V30 8371 C 813.403 -1.44632 -0.967346 0
M  V30 8372 O 814.579 -1.77654 -0.94873 0
M  V30 8373 C 811.644 -3.20069 -1.33253 0
M  V30 8374 C 810.705 -4.24186 -0.660636 0
M  V30 8375 C 809.938 -5.07191 -1.6611 0
M  V30 8376 O 810.161 -4.91712 -2.89094 0
M  V30 8377 O 809.095 -5.8948 -1.21643 0
M  V30 8378 H 812.921 -3.01038 0.401224 0
M  V30 8379 H 810.506 -1.47079 0.262323 0
M  V30 8380 H 812.388 -3.74071 -1.94033 0
M  V30 8381 H 811.063 -2.54625 -1.9987 0
M  V30 8382 H 809.97 -3.74098 -0.0130959 0
M  V30 8383 H 811.303 -4.92186 -0.0369179 0
M  V30 8384 N 812.955 -0.234822 -1.55841 0
M  V30 8385 C 814.201 0.393843 -1.98939 0
M  V30 8386 C 814.534 1.58466 -1.1226 0
M  V30 8387 O 813.809 1.93635 -0.183242 0
M  V30 8388 C 814.092 0.815492 -3.50745 0
M  V30 8389 C 813.945 -0.379878 -4.48193 0
M  V30 8390 C 815.264 1.66687 -4.07312 0
M  V30 8391 H 812.383 0.141681 -0.723253 0
M  V30 8392 H 815.025 -0.333716 -1.87046 0
M  V30 8393 H 813.175 1.43541 -3.6101 0
M  V30 8394 H 814.847 -1.0182 -4.49923 0
M  V30 8395 H 813.09 -1.02507 -4.21515 0
M  V30 8396 H 813.761 -0.0417069 -5.51984 0
M  V30 8397 H 816.237 1.14369 -4.00074 0
M  V30 8398 H 815.113 1.93078 -5.13821 0
M  V30 8399 H 815.374 2.63468 -3.55017 0
M  V30 8400 N 814.433 1.57553 0.0384317 0
M  V30 8401 C 815.849 1.54663 0.39391 0
M  V30 8402 C 816.049 0.959685 1.77179 0
M  V30 8403 O 815.105 0.576647 2.45827 0
M  V30 8404 C 816.418 2.99156 0.304352 0
M  V30 8405 C 817.966 3.10659 0.382119 0
M  V30 8406 C 818.441 4.56866 0.322111 0
M  V30 8407 N 819.932 4.61629 0.38119 0
M  V30 8408 C 820.667 5.72284 0.357501 0
M  V30 8409 N 820.163 6.92207 0.286654 0
M  V30 8410 N 821.956 5.60628 0.406538 0
M  V30 8411 H 814.107 1.9406 -0.86339 0
M  V30 8412 H 816.37 0.889673 -0.327392 0
M  V30 8413 H 816.076 3.45788 -0.642141 0
M  V30 8414 H 815.95 3.60753 1.10168 0
M  V30 8415 H 818.337 2.6398 1.31904 0
M  V30 8416 H 818.418 2.5191 -0.444391 0
M  V30 8417 H 818.062 5.0421 -0.611104 0
M  V30 8418 H 817.992 5.13515 1.1666 0
M  V30 8419 H 820.483 3.75343 0.438838 0
M  V30 8420 H 820.796 7.72316 0.273421 0
M  V30 8421 H 819.141 6.9454 0.252841 0
M  V30 8422 H 822.332 4.65836 0.459812 0
M  V30 8423 H 822.505 6.46858 0.384608 0
M  V30 8424 N 815.911 -0.310526 1.54511 0
M  V30 8425 C 817.327 -0.655637 1.45511 0
M  V30 8426 C 817.527 -1.91114 0.638564 0
M  V30 8427 O 816.583 -2.52098 0.142497 0
M  V30 8428 C 817.896 -0.817501 2.89374 0
M  V30 8429 C 819.444 -0.914003 2.99358 0
M  V30 8430 C 819.919 -1.10794 4.44397 0
M  V30 8431 N 821.41 -1.17437 4.48066 0
M  V30 8432 C 822.145 -1.34255 5.57461 0
M  V30 8433 N 821.641 -1.48032 6.768 0
M  V30 8434 N 823.434 -1.37067 5.45132 0
M  V30 8435 H 815.585 0.514506 2.06074 0
M  V30 8436 H 817.848 0.168478 0.932909 0
M  V30 8437 H 817.554 0.034003 3.51684 0
M  V30 8438 H 817.428 -1.7094 3.36243 0
M  V30 8439 H 819.815 -1.756 2.37168 0
M  V30 8440 H 819.896 0.00170958 2.558 0
M  V30 8441 H 819.54 -0.270743 5.07178 0
M  V30 8442 H 819.47 -2.03773 4.85576 0
M  V30 8443 H 821.961 -1.08181 3.62084 0
M  V30 8444 H 822.274 -1.60593 7.5593 0
M  V30 8445 H 820.619 -1.45105 6.79683 0
M  V30 8446 H 823.81 -1.25909 4.50849 0
M  V30 8447 H 823.983 -1.49831 6.3044 0
M  V30 8448 N 817.389 -1.46805 -0.573248 0
M  V30 8449 C 818.637 -1.52302 -1.32847 0
M  V30 8450 C 818.958 -0.180159 -1.94166 0
M  V30 8451 O 818.228 0.794291 -1.79075 0
M  V30 8452 H 816.808 -0.56097 -0.493276 0
M  V30 8453 H 819.47 -1.82998 -0.670642 0
M  V30 8454 H 818.566 -2.28089 -2.13031 0
M  V30 8455 N 818.867 0.818669 -1.34668 0
M  V30 8456 C 819.797 1.94468 -1.29245 0
M  V30 8457 C 820.778 1.69257 -0.169101 0
M  V30 8458 O 821.963 1.90794 -0.362143 0
M  V30 8459 C 819.093 3.31001 -1.05145 0
M  V30 8460 C 818.047 3.70663 -2.13992 0
M  V30 8461 C 817.373 5.05226 -1.75074 0
M  V30 8462 C 818.673 3.82312 -3.55858 0
M  V30 8463 H 820.367 1.99263 -2.2346 0
M  V30 8464 H 817.913 0.957304 -1.07572 0
M  V30 8465 H 819.866 4.09364 -0.999949 0
M  V30 8466 H 818.59 3.26517 -0.0737312 0
M  V30 8467 H 817.249 2.94578 -2.18219 0
M  V30 8468 H 816.897 4.97233 -0.759518 0
M  V30 8469 H 816.597 5.32734 -2.47928 0
M  V30 8470 H 818.121 5.86042 -1.71427 0
M  V30 8471 H 819.535 4.50935 -3.5402 0
M  V30 8472 H 817.932 4.21278 -4.2737 0
M  V30 8473 H 819.002 2.84193 -3.9289 0
M  V30 8474 N 820.346 1.18468 1.03938 0
M  V30 8475 C 821.762 0.934635 1.29371 0
M  V30 8476 C 821.962 -0.399067 1.97509 0
M  V30 8477 O 821.018 -1.13309 2.25648 0
M  V30 8478 C 822.331 2.10111 2.15114 0
M  V30 8479 C 823.879 2.13955 2.28456 0
M  V30 8480 C 824.354 3.30024 3.17566 0
M  V30 8481 N 825.845 3.29893 3.25153 0
M  V30 8482 C 826.58 4.16346 3.94263 0
M  V30 8483 N 826.076 5.12934 4.65693 0
M  V30 8484 N 827.869 4.04256 3.90556 0
M  V30 8485 H 820.02 2.04294 0.581185 0
M  V30 8486 H 822.283 0.892727 0.318971 0
M  V30 8487 H 821.989 3.06572 1.72355 0
M  V30 8488 H 821.863 2.06283 3.15796 0
M  V30 8489 H 824.25 1.18072 2.7045 0
M  V30 8490 H 824.331 2.2184 1.2736 0
M  V30 8491 H 823.975 4.26181 2.76283 0
M  V30 8492 H 823.905 3.19376 4.18697 0
M  V30 8493 H 826.396 2.59969 2.74271 0
M  V30 8494 H 826.709 5.75271 5.16026 0
M  V30 8495 H 825.054 5.16893 4.64593 0
M  V30 8496 H 828.245 3.28083 3.33885 0
M  V30 8497 H 828.418 4.71848 4.44144 0
M  V30 8498 N 821.824 -1.22873 0.986916 0
M  V30 8499 C 822.787 -2.2281 0.537442 0
M  V30 8500 C 823.787 -1.56331 -0.37646 0
M  V30 8501 O 824.977 -1.73376 -0.169247 0
M  V30 8502 C 822.109 -3.40195 -0.219082 0
M  V30 8503 H 823.302 -2.64089 1.42116 0
M  V30 8504 H 820.855 -1.35819 0.773488 0
M  V30 8505 H 821.59 -3.04381 -1.11905 0
M  V30 8506 H 821.375 -3.89657 0.437026 0
M  V30 8507 H 822.865 -4.14326 -0.521926 0
M  V30 8508 N 823.302 -0.75937 -1.38099 0
M  V30 8509 C 824.234 -0.0956547 -2.29 0
M  V30 8510 C 825.247 0.677561 -1.4803 0
M  V30 8511 O 826.436 0.517696 -1.70828 0
M  V30 8512 C 823.536 0.88844 -3.27047 0
M  V30 8513 C 822.709 0.171652 -4.37063 0
M  V30 8514 C 821.768 1.06733 -5.15262 0
M  V30 8515 O 820.794 0.535698 -5.66674 0
M  V30 8516 N 821.996 2.39486 -5.28797 0
M  V30 8517 H 824.761 -0.876354 -2.86601 0
M  V30 8518 H 822.322 -0.61065 -1.49942 0
M  V30 8519 H 824.314 1.49079 -3.76241 0
M  V30 8520 H 822.884 1.57018 -2.70304 0
M  V30 8521 H 822.104 -0.611473 -3.89429 0
M  V30 8522 H 823.392 -0.324121 -5.07767 0
M  V30 8523 H 822.79 2.85127 -4.88589 0
M  V30 8524 H 821.347 2.94758 -5.81344 0
M  V30 8525 N 824.78 1.49157 -0.508906 0
M  V30 8526 C 825.743 2.27784 0.25434 0
M  V30 8527 C 826.743 1.34132 0.88686 0
M  V30 8528 O 827.933 1.5722 0.750168 0
M  V30 8529 C 825.065 3.12347 1.36573 0
M  V30 8530 H 826.258 2.96718 -0.435714 0
M  V30 8531 H 823.811 1.54052 -0.264128 0
M  V30 8532 H 824.546 2.47997 2.08969 0
M  V30 8533 H 824.331 3.81213 0.917543 0
M  V30 8534 H 825.821 3.71712 1.90315 0
M  V30 8535 N 826.258 0.243083 1.55714 0
M  V30 8536 C 827.498 -0.384303 2.00755 0
M  V30 8537 C 827.862 -1.55406 1.12752 0
M  V30 8538 O 829.063 -2.24892 1.47231 0
M  V30 8539 C 827.334 -0.787419 3.48618 0
M  V30 8540 S 828.893 -1.40587 4.15669 0
M  V30 8541 H 825.711 -0.121088 0.700613 0
M  V30 8542 H 828.313 0.357423 1.92205 0
M  V30 8543 H 827.017 0.0732892 4.10335 0
M  V30 8544 H 826.548 -1.56142 3.61086 0
M  V30 8545 H 828.563 -2.69493 4.16639 0
M  V30 8546 N 827.736 -1.57571 -0.0300757 0
M  V30 8547 C 828.699 -2.05468 -1.01565 0
M  V30 8548 C 829.699 -0.958628 -1.29101 0
M  V30 8549 O 830.889 -1.22228 -1.24121 0
M  V30 8550 C 828.021 -2.47077 -2.34874 0
M  V30 8551 H 829.214 -2.93797 -0.601936 0
M  V30 8552 H 826.767 -1.53828 -0.276878 0
M  V30 8553 H 827.502 -1.61901 -2.80996 0
M  V30 8554 H 827.287 -3.27097 -2.16218 0
M  V30 8555 H 828.777 -2.84564 -3.05635 0
M  V30 8556 N 829.214 0.302327 -1.54673 0
M  V30 8557 C 830.461 1.0377 -1.73891 0
M  V30 8558 C 830.789 1.87309 -0.523979 0
M  V30 8559 O 830.044 1.8936 0.494084 0
M  V30 8560 C 830.343 1.97365 -2.97963 0
M  V30 8561 C 830.009 1.29812 -4.3181 0
M  V30 8562 C 828.671 1.11121 -4.68194 0
M  V30 8563 C 831.023 0.815073 -5.14787 0
M  V30 8564 C 828.351 0.428077 -5.85136 0
M  V30 8565 C 830.703 0.145665 -6.32432 0
M  V30 8566 C 829.367 -0.0532098 -6.67479 0
M  V30 8567 H 828.637 0.379721 -0.636312 0
M  V30 8568 H 831.284 0.312708 -1.8893 0
M  V30 8569 H 829.589 2.76387 -2.777 0
M  V30 8570 H 831.286 2.54331 -3.10027 0
M  V30 8571 H 827.876 1.45366 -4.03196 0
M  V30 8572 H 832.06 0.947191 -4.87178 0
M  V30 8573 H 827.316 0.262995 -6.10834 0
M  V30 8574 H 831.49 -0.236533 -6.95998 0
M  V30 8575 H 829.117 -0.58456 -7.57949 0
M  V30 8576 N 830.692 1.47107 0.565454 0
M  V30 8577 C 831.938 1.54519 1.3227 0
M  V30 8578 C 832.293 0.201313 1.91344 0
M  V30 8579 O 831.586 -0.792058 1.74462 0
M  V30 8580 C 831.78 2.59309 2.45954 0
M  V30 8581 C 831.609 4.03756 1.98019 0
M  V30 8582 C 830.379 4.71293 1.8224 0
M  V30 8583 C 832.577 4.91029 1.52955 0
M  V30 8584 N 830.559 6.00288 1.28557 0
M  V30 8585 C 831.93 6.09986 1.10981 0
M  V30 8586 C 833.985 4.77539 1.4093 0
M  V30 8587 C 832.688 7.16943 0.581796 0
M  V30 8588 C 834.714 5.84584 0.895307 0
M  V30 8589 C 834.076 7.02725 0.485454 0
M  V30 8590 H 830.175 0.620177 0.476345 0
M  V30 8591 H 832.759 1.83814 0.641901 0
M  V30 8592 H 830.93 2.31896 3.11575 0
M  V30 8593 H 832.662 2.56614 3.1294 0
M  V30 8594 H 829.417 4.27074 2.04707 0
M  V30 8595 H 829.841 6.68991 1.03828 0
M  V30 8596 H 834.483 3.86574 1.71231 0
M  V30 8597 H 832.201 8.07661 0.266399 0
M  V30 8598 H 835.787 5.76191 0.805939 0
M  V30 8599 H 834.667 7.84144 0.0938828 0
M  V30 8600 N 832.17 -0.811516 1.35101 0
M  V30 8601 C 833.118 -1.94449 1.27642 0
M  V30 8602 C 834.112 -1.68522 0.172287 0
M  V30 8603 O 835.318 -1.76799 0.337967 0
M  V30 8604 H 831.693 -0.638776 0.396824 0
M  V30 8605 H 833.664 -1.97861 2.23369 0
M  V30 8606 C 832.413 -3.31139 1.06029 0
M  V30 8607 H 831.736 -3.51644 1.90227 0
M  V30 8608 H 833.176 -4.10831 1.0485 0
M  V30 8609 C 831.635 -3.36072 -0.236039 0
M  V30 8610 O 832.165 -3.82292 -1.23353 0
M  V30 8611 N 830.371 -2.89314 -0.273107 0
M  V30 8612 H 829.918 -2.51893 0.539211 0
M  V30 8613 H 829.876 -2.92996 -1.1402 0
M  V30 8614 N 833.648 -1.19017 -1.03309 0
M  V30 8615 C 835.064 -0.941483 -1.28873 0
M  V30 8616 C 835.264 0.388587 -1.97718 0
M  V30 8617 O 834.32 1.12111 -2.26246 0
M  V30 8618 C 835.633 -2.11249 -2.13996 0
M  V30 8619 C 837.181 -2.15164 -2.27318 0
M  V30 8620 C 837.656 -3.31704 -3.15811 0
M  V30 8621 N 839.147 -3.31613 -3.23399 0
M  V30 8622 C 839.882 -4.18431 -3.9205 0
M  V30 8623 N 839.378 -5.15397 -4.62966 0
M  V30 8624 N 841.171 -4.06321 -3.88406 0
M  V30 8625 H 833.322 -2.04599 -0.570343 0
M  V30 8626 H 835.585 -0.894406 -0.314232 0
M  V30 8627 H 835.291 -3.07482 -1.70727 0
M  V30 8628 H 835.165 -2.07955 -3.14697 0
M  V30 8629 H 837.552 -1.19504 -2.6982 0
M  V30 8630 H 837.633 -2.22513 -1.26182 0
M  V30 8631 H 837.277 -4.2764 -2.74019 0
M  V30 8632 H 837.207 -3.21592 -4.16997 0
M  V30 8633 H 839.698 -2.6142 -2.72888 0
M  V30 8634 H 840.011 -5.78 -5.12968 0
M  V30 8635 H 838.356 -5.19349 -4.61846 0
M  V30 8636 H 841.547 -3.29849 -3.3214 0
M  V30 8637 H 841.72 -4.74196 -4.41635 0
M  V30 8638 N 835.127 1.22348 -0.993418 0
M  V30 8639 C 836.374 1.9111 -0.669568 0
M  V30 8640 C 836.702 1.77357 0.79843 0
M  V30 8641 O 835.957 1.13675 1.593 0
M  V30 8642 C 836.256 3.42477 -1.02197 0
M  V30 8643 C 835.922 3.7642 -2.48232 0
M  V30 8644 C 834.584 3.85395 -2.88139 0
M  V30 8645 C 836.936 3.9253 -3.42884 0
M  V30 8646 C 834.264 4.07918 -4.21687 0
M  V30 8647 C 836.616 4.16557 -4.76091 0
M  V30 8648 C 835.28 4.23757 -5.15739 0
M  V30 8649 H 834.55 0.699321 -0.245012 0
M  V30 8650 H 837.197 1.45102 -1.2497 0
M  V30 8651 H 835.502 3.90143 -0.359921 0
M  V30 8652 H 837.199 3.93935 -0.74942 0
M  V30 8653 H 833.789 3.70017 -2.16299 0
M  V30 8654 H 837.973 3.84974 -3.13224 0
M  V30 8655 H 833.229 4.11719 -4.51993 0
M  V30 8656 H 837.403 4.27966 -5.4938 0
M  V30 8657 H 835.03 4.40962 -6.19239 0
M  V30 8658 N 836.605 0.766683 1.37694 0
M  V30 8659 C 837.535 0.163432 2.32927 0
M  V30 8660 C 838.516 -0.688861 1.55527 0
M  V30 8661 O 839.701 -0.627363 1.83787 0
M  V30 8662 C 836.831 -0.720416 3.39746 0
M  V30 8663 C 835.785 0.0301718 4.27989 0
M  V30 8664 C 835.111 -0.972788 5.25776 0
M  V30 8665 C 836.411 1.20623 5.0818 0
M  V30 8666 H 838.105 0.958988 2.83626 0
M  V30 8667 H 835.651 0.462601 1.36367 0
M  V30 8668 H 837.604 -1.15221 4.05342 0
M  V30 8669 H 836.328 -1.54844 2.8756 0
M  V30 8670 H 834.987 0.442685 3.63917 0
M  V30 8671 H 834.635 -1.79522 4.69873 0
M  V30 8672 H 834.335 -0.475145 5.85676 0
M  V30 8673 H 835.859 -1.40362 5.94248 0
M  V30 8674 H 837.273 0.851341 5.66944 0
M  V30 8675 H 835.67 1.63561 5.7738 0
M  V30 8676 H 836.74 2.01281 4.41151 0
M  V30 8677 N 838.083 -1.48885 0.516809 0
M  V30 8678 C 839.494 -1.86557 0.0729921 0
M  V30 8679 C 839.845 -1.42767 -1.34581 0
M  V30 8680 O 838.97 -0.812514 -2.00567 0
M  V30 8681 C 839.565 -3.38567 0.125686 0
M  V30 8682 C 838.124 -3.75481 -0.262867 0
M  V30 8683 C 837.271 -2.72913 0.491281 0
M  V30 8684 H 840.222 -1.40978 0.728767 0
M  V30 8685 H 840.243 -3.74629 -0.665831 0
M  V30 8686 H 839.755 -3.70408 1.15842 0
M  V30 8687 H 837.856 -3.49251 -1.29824 0
M  V30 8688 H 837.969 -4.79052 0.067579 0
M  V30 8689 H 836.333 -2.54627 -0.0608525 0
M  V30 8690 H 837.116 -3.07599 1.5244 0
M  V30 8691 N 839.561 -0.251338 -1.55583 0
M  V30 8692 C 840.508 0.646337 -2.21565 0
M  V30 8693 C 841.478 1.16796 -1.18102 0
M  V30 8694 O 842.663 1.22162 -1.46564 0
M  V30 8695 C 839.803 1.83557 -2.92234 0
M  V30 8696 C 838.916 1.35006 -4.10363 0
M  V30 8697 C 838.051 2.4992 -4.68736 0
M  V30 8698 C 837.09 1.98253 -5.79105 0
M  V30 8699 N 836.227 3.06551 -6.31642 0
M  V30 8700 H 841.067 0.0769881 -2.97901 0
M  V30 8701 H 838.604 0.026238 -1.47077 0
M  V30 8702 H 840.562 2.53425 -3.31408 0
M  V30 8703 H 839.192 2.37733 -2.18364 0
M  V30 8704 H 838.244 0.545274 -3.76472 0
M  V30 8705 H 839.556 0.931435 -4.90026 0
M  V30 8706 H 838.71 3.27823 -5.10507 0
M  V30 8707 H 837.449 2.95086 -3.88298 0
M  V30 8708 H 836.454 1.18822 -5.36807 0
M  V30 8709 H 837.679 1.54051 -6.61396 0
M  V30 8710 H 835.625 3.51143 -5.54107 0
M  V30 8711 H 835.542 2.69033 -7.06511 0
M  V30 8712 H 836.81 3.84499 -6.78071 0
M  V30 8713 N 841.039 1.57585 0.0217189 0
M  V30 8714 C 841.969 2.10073 1.01939 0
M  V30 8715 C 842.95 1.0049 1.37243 0
M  V30 8716 O 844.135 1.28055 1.45999 0
M  V30 8717 C 841.265 2.58618 2.31806 0
M  V30 8718 C 840.219 3.72531 2.10724 0
M  V30 8719 C 839.545 4.07309 3.46415 0
M  V30 8720 C 840.845 5.00672 1.48743 0
M  V30 8721 H 842.539 2.9368 0.582432 0
M  V30 8722 H 840.085 1.41277 0.278715 0
M  V30 8723 H 842.038 2.9396 3.01936 0
M  V30 8724 H 840.762 1.72104 2.77575 0
M  V30 8725 H 839.421 3.37549 1.43025 0
M  V30 8726 H 839.069 3.17851 3.89846 0
M  V30 8727 H 838.769 4.84042 3.33132 0
M  V30 8728 H 840.293 4.45192 4.17895 0
M  V30 8729 H 841.707 5.33925 2.088 0
M  V30 8730 H 840.104 5.82065 1.46013 0
M  V30 8731 H 841.174 4.82769 0.45408 0
M  V30 8732 N 842.517 -0.29412 1.54831 0
M  V30 8733 C 843.447 -1.36757 1.89261 0
M  V30 8734 C 844.428 -1.52564 0.752214 0
M  V30 8735 O 845.613 -1.65958 1.00855 0
M  V30 8736 C 842.743 -2.73066 2.14597 0
M  V30 8737 C 841.697 -2.72017 3.3044 0
M  V30 8738 C 841.023 -4.11679 3.4121 0
M  V30 8739 C 842.323 -2.33149 4.67375 0
M  V30 8740 H 844.017 -1.08191 2.79169 0
M  V30 8741 H 841.563 -0.519014 1.34321 0
M  V30 8742 H 843.516 -3.48255 2.37269 0
M  V30 8743 H 842.24 -3.03172 1.21467 0
M  V30 8744 H 840.899 -1.99285 3.07703 0
M  V30 8745 H 840.547 -4.38973 2.45584 0
M  V30 8746 H 840.247 -4.11877 4.19084 0
M  V30 8747 H 841.771 -4.88637 3.6615 0
M  V30 8748 H 843.185 -2.98054 4.89731 0
M  V30 8749 H 841.582 -2.44546 5.48012 0
M  V30 8750 H 842.652 -1.28275 4.67626 0
M  V30 8751 N 843.995 -1.47404 -0.557645 0
M  V30 8752 C 845.22 -1.57868 -1.34508 0
M  V30 8753 C 845.645 -0.229151 -1.86699 0
M  V30 8754 O 845.003 0.794908 -1.62944 0
M  V30 8755 C 845.051 -2.60712 -2.49122 0
M  V30 8756 O 844.155 -2.15952 -3.51338 0
M  V30 8757 H 843.496 -0.530335 -0.399551 0
M  V30 8758 H 846.026 -1.93181 -0.673954 0
M  V30 8759 H 846.036 -2.81118 -2.95697 0
M  V30 8760 H 844.711 -3.58701 -2.10491 0
M  V30 8761 H 843.288 -2.05644 -3.11071 0
M  V30 8762 N 845.473 0.80434 -1.35529 0
M  V30 8763 C 846.436 1.89788 -1.28503 0
M  V30 8764 C 847.436 1.59601 -0.195983 0
M  V30 8765 O 848.626 1.68292 -0.449827 0
M  V30 8766 C 845.758 3.26255 -0.98847 0
M  V30 8767 H 846.951 1.97436 -2.25741 0
M  V30 8768 H 844.504 1.00046 -1.20086 0
M  V30 8769 H 845.239 3.24294 -0.0200541 0
M  V30 8770 H 845.024 3.49551 -1.77641 0
M  V30 8771 H 846.514 4.06298 -0.964975 0
M  V30 8772 N 846.951 1.19563 1.02676 0
M  V30 8773 C 848.179 1.02488 1.79732 0
M  V30 8774 C 848.594 -0.426302 1.83924 0
M  V30 8775 O 847.951 -1.29609 1.28483 0
M  V30 8776 C 848.002 1.58944 3.24683 0
M  V30 8777 O 847.723 2.98382 3.2078 0
M  V30 8778 C 849.224 1.46681 4.1833 0
M  V30 8779 H 846.444 0.361098 0.565552 0
M  V30 8780 H 848.988 1.58426 1.29311 0
M  V30 8781 H 847.143 1.0715 3.72287 0
M  V30 8782 H 847.557 3.24983 4.11687 0
M  V30 8783 H 849.031 1.90959 5.17918 0
M  V30 8784 H 849.508 0.417663 4.3721 0
M  V30 8785 H 850.114 1.97616 3.76601 0
M  V30 8786 N 848.429 -1.21819 0.999893 0
M  V30 8787 C 849.706 -1.86318 0.595384 0
M  V30 8788 C 850.086 -1.8965 -0.927143 0
M  V30 8789 O 849.434 -1.3921 -1.81199 0
M  V30 8790 C 849.644 -3.26837 1.22387 0
M  V30 8791 C 850.992 -4.03272 1.32878 0
M  V30 8792 O 852.016 -3.36129 1.1788 0
M  V30 8793 O 850.875 -5.23477 1.56952 0
M  V30 8794 H 847.969 -0.801638 0.203238 0
M  V30 8795 H 850.515 -1.29542 1.09622 0
M  V30 8796 H 849.287 -3.19084 2.26497 0
M  V30 8797 H 848.91 -3.91226 0.709069 0
M  V30 8798 N 849.908 -0.773975 -1.37286 0
M  V30 8799 C 851.136 -0.350758 -2.03905 0
M  V30 8800 C 851.551 1.02779 -1.58373 0
M  V30 8801 O 850.908 1.65646 -0.766009 0
M  V30 8802 C 850.959 -0.387335 -3.59419 0
M  V30 8803 O 850.68 -1.7115 -4.03286 0
M  V30 8804 C 852.181 0.047198 -4.43275 0
M  V30 8805 H 849.401 -0.146663 -0.654775 0
M  V30 8806 H 851.945 -1.04852 -1.75574 0
M  V30 8807 H 850.1 0.261865 -3.86514 0
M  V30 8808 H 850.514 -1.65166 -4.97816 0
M  V30 8809 H 851.988 -0.0295474 -5.51992 0
M  V30 8810 H 852.465 1.09786 -4.25257 0
M  V30 8811 H 853.071 -0.573899 -4.2141 0
M  V30 8812 N 851.386 1.48609 -0.524698 0
M  V30 8813 C 852.316 2.32366 0.229837 0
M  V30 8814 C 853.297 1.41759 0.940129 0
M  V30 8815 O 854.482 1.7065 0.926936 0
M  V30 8816 C 851.612 3.22835 1.28043 0
M  V30 8817 C 850.566 4.22424 0.688603 0
M  V30 8818 C 849.892 5.0199 1.84146 0
M  V30 8819 C 851.192 5.21217 -0.336176 0
M  V30 8820 H 852.886 2.95698 -0.469339 0
M  V30 8821 H 850.432 1.42197 -0.227156 0
M  V30 8822 H 852.385 3.80253 1.8162 0
M  V30 8823 H 851.109 2.57492 2.00912 0
M  V30 8824 H 849.768 3.66185 0.174402 0
M  V30 8825 H 849.416 4.33076 2.5584 0
M  V30 8826 H 849.116 5.69392 1.45142 0
M  V30 8827 H 850.64 5.62259 2.38111 0
M  V30 8828 H 852.054 5.7319 0.112307 0
M  V30 8829 H 850.451 5.96642 -0.643324 0
M  V30 8830 H 851.521 4.68676 -1.24381 0
M  V30 8831 N 852.864 0.259585 1.55447 0
M  V30 8832 C 854.141 -0.412595 1.91199 0
M  V30 8833 C 854.521 -1.74909 1.18194 0
M  V30 8834 O 853.869 -2.26474 0.303603 0
M  V30 8835 C 854.079 -0.568195 3.44344 0
M  V30 8836 C 855.427 -0.858253 4.15836 0
M  V30 8837 O 856.451 -0.653588 3.50152 0
M  V30 8838 O 855.31 -1.24874 5.32042 0
M  V30 8839 H 852.404 -0.223403 0.796254 0
M  V30 8840 H 854.95 0.30459 1.66944 0
M  V30 8841 H 853.722 0.372989 3.89518 0
M  V30 8842 H 853.345 -1.33544 3.74502 0
M  V30 8843 N 854.342 -1.57594 -0.0133615 0
M  V30 8844 C 855.252 -2.10991 -1.02566 0
M  V30 8845 C 856.268 -1.05208 -1.3859 0
M  V30 8846 O 857.444 -1.37034 -1.47593 0
M  V30 8847 C 854.509 -2.59165 -2.30292 0
M  V30 8848 C 853.57 -3.79495 -2.00704 0
M  V30 8849 C 852.803 -4.25361 -3.22341 0
M  V30 8850 O 853.026 -3.70645 -4.33565 0
M  V30 8851 O 851.96 -5.17649 -3.07121 0
M  V30 8852 H 855.786 -2.97678 -0.601806 0
M  V30 8853 H 853.371 -1.47598 -0.23135 0
M  V30 8854 H 855.253 -2.90409 -3.05354 0
M  V30 8855 H 853.928 -1.75582 -2.71942 0
M  V30 8856 H 852.835 -3.53245 -1.23161 0
M  V30 8857 H 854.168 -4.64109 -1.639 0
M  V30 8858 N 855.82 0.285905 -1.54985 0
M  V30 8859 C 856.783 1.33625 -1.86218 0
M  V30 8860 C 857.783 1.42971 -0.735936 0
M  V30 8861 O 858.973 1.42345 -1.00417 0
M  V30 8862 C 856.105 2.71926 -2.05595 0
M  V30 8863 H 857.298 1.07167 -2.80099 0
M  V30 8864 H 854.851 0.523335 -1.47278 0
M  V30 8865 H 855.586 3.03583 -1.14053 0
M  V30 8866 H 855.371 2.6653 -2.87583 0
M  V30 8867 H 856.861 3.47841 -2.31077 0
M  V30 8868 N 857.298 1.47698 0.54982 0
M  V30 8869 C 858.208 1.63386 1.68351 0
M  V30 8870 C 859.224 0.516583 1.66155 0
M  V30 8871 O 860.4 0.785088 1.85468 0
M  V30 8872 C 857.465 1.6513 3.04849 0
M  V30 8873 C 856.526 2.88338 3.18056 0
M  V30 8874 C 855.759 2.8999 4.48042 0
M  V30 8875 O 855.982 2.00633 5.3395 0
M  V30 8876 O 854.916 3.81938 4.65196 0
M  V30 8877 H 858.742 2.59329 1.58057 0
M  V30 8878 H 856.327 1.30869 0.72067 0
M  V30 8879 H 858.209 1.68913 3.86065 0
M  V30 8880 H 856.884 0.723555 3.1551 0
M  V30 8881 H 855.791 2.90097 2.36209 0
M  V30 8882 H 857.124 3.80431 3.12302 0
M  V30 8883 N 858.776 -0.797141 1.35954 0
M  V30 8884 C 860.192 -1.09408 1.16198 0
M  V30 8885 C 860.392 -2.01491 -0.0191682 0
M  V30 8886 O 859.448 -2.42977 -0.686902 0
M  V30 8887 C 860.761 -1.71597 2.46931 0
M  V30 8888 C 862.309 -1.83974 2.53224 0
M  V30 8889 C 862.784 -2.49579 3.84024 0
M  V30 8890 N 864.275 -2.57055 3.85327 0
M  V30 8891 C 865.01 -3.08608 4.83268 0
M  V30 8892 N 864.506 -3.60527 5.91601 0
M  V30 8893 N 866.299 -3.07249 4.70696 0
M  V30 8894 H 858.45 -0.185209 2.11591 0
M  V30 8895 H 860.713 -0.144768 0.936881 0
M  V30 8896 H 860.419 -1.11404 3.3359 0
M  V30 8897 H 860.293 -2.71193 2.62172 0
M  V30 8898 H 862.68 -2.43308 1.66988 0
M  V30 8899 H 862.761 -0.83207 2.41889 0
M  V30 8900 H 862.405 -1.90892 4.70662 0
M  V30 8901 H 862.335 -3.50902 3.92651 0
M  V30 8902 H 864.826 -2.20283 3.07057 0
M  V30 8903 H 865.139 -3.98192 6.62317 0
M  V30 8904 H 863.484 -3.587 5.95281 0
M  V30 8905 H 866.675 -2.65972 3.85197 0
M  V30 8906 H 866.848 -3.47119 5.47186 0
M  V30 8907 N 860.254 -1.20106 -1.0204 0
M  V30 8908 C 861.186 -0.904236 -2.10609 0
M  V30 8909 C 862.199 0.106487 -1.62451 0
M  V30 8910 O 863.388 -0.124035 -1.78069 0
M  V30 8911 C 860.488 -0.333423 -3.37256 0
M  V30 8912 C 859.661 -1.39476 -4.14566 0
M  V30 8913 C 858.72 -0.835961 -5.19517 0
M  V30 8914 O 857.746 -1.51573 -5.48648 0
M  V30 8915 N 858.948 0.356531 -5.79404 0
M  V30 8916 H 861.713 -1.8388 -2.36661 0
M  V30 8917 H 859.274 -1.10422 -1.184 0
M  V30 8918 H 861.266 0.0544571 -4.04663 0
M  V30 8919 H 859.836 0.505608 -3.08484 0
M  V30 8920 H 859.056 -1.95714 -3.42184 0
M  V30 8921 H 860.344 -2.10967 -4.63001 0
M  V30 8922 H 859.742 0.926143 -5.58067 0
M  V30 8923 H 858.299 0.686093 -6.48179 0
M  V30 8924 N 861.732 1.21287 -1.00634 0
M  V30 8925 C 862.978 1.90957 -0.70051 0
M  V30 8926 C 863.333 1.76729 0.760567 0
M  V30 8927 O 862.626 1.13405 1.54434 0
M  V30 8928 C 862.82 3.41374 -1.05824 0
M  V30 8929 C 862.649 3.70237 -2.55254 0
M  V30 8930 C 861.419 3.89518 -3.21876 0
M  V30 8931 C 863.617 3.73633 -3.53417 0
M  V30 8932 N 861.599 4.05809 -4.60643 0
M  V30 8933 C 862.97 3.95225 -4.777 0
M  V30 8934 C 865.025 3.56545 -3.47534 0
M  V30 8935 C 863.728 4.01502 -5.96815 0
M  V30 8936 C 865.754 3.64089 -4.6604 0
M  V30 8937 C 865.116 3.86144 -5.89128 0
M  V30 8938 H 861.215 0.718861 -0.307835 0
M  V30 8939 H 863.799 1.45913 -1.28908 0
M  V30 8940 H 861.97 3.85193 -0.498106 0
M  V30 8941 H 863.702 3.98476 -0.707006 0
M  V30 8942 H 860.457 3.87479 -2.72318 0
M  V30 8943 H 860.881 4.17854 -5.32661 0
M  V30 8944 H 865.523 3.38469 -2.53375 0
M  V30 8945 H 863.241 4.18378 -6.91365 0
M  V30 8946 H 866.827 3.52188 -4.63092 0
M  V30 8947 H 865.707 3.91827 -6.79295 0
M  V30 8948 N 863.21 0.781244 1.36873 0
M  V30 8949 C 864.157 0.172146 2.30157 0
M  V30 8950 C 865.127 -0.679328 1.51573 0
M  V30 8951 O 866.312 -0.629713 1.80109 0
M  V30 8952 C 863.452 -0.693534 3.38059 0
M  V30 8953 C 862.565 0.175586 4.31643 0
M  V30 8954 C 861.7 -0.695695 5.26625 0
M  V30 8955 C 860.739 0.17538 6.11849 0
M  V30 8956 N 859.876 -0.654416 6.99043 0
M  V30 8957 H 864.716 0.973133 2.81663 0
M  V30 8958 H 862.253 0.491469 1.38647 0
M  V30 8959 H 864.211 -1.21035 3.99257 0
M  V30 8960 H 862.841 -1.46003 2.87894 0
M  V30 8961 H 861.893 0.810295 3.7167 0
M  V30 8962 H 863.205 0.847107 4.91554 0
M  V30 8963 H 862.359 -1.27863 5.93073 0
M  V30 8964 H 861.098 -1.40087 4.67148 0
M  V30 8965 H 860.103 0.77078 5.4437 0
M  V30 8966 H 861.328 0.87803 6.734 0
M  V30 8967 H 859.274 -1.34403 6.42084 0
M  V30 8968 H 859.191 -0.0403998 7.55989 0
M  V30 8969 H 860.459 -1.22144 7.69871 0
M  V30 8970 N 864.689 -1.48329 0.532571 0
M  V30 8971 C 865.652 -2.2816 -0.218069 0
M  V30 8972 C 866.652 -1.35526 -0.865409 0
M  V30 8973 O 867.842 -1.58394 -0.725061 0
M  V30 8974 C 864.974 -3.1448 -1.31586 0
M  V30 8975 H 866.167 -2.95987 0.482865 0
M  V30 8976 H 863.72 -1.53612 0.288603 0
M  V30 8977 H 864.455 -2.5129 -2.04997 0
M  V30 8978 H 864.24 -3.82625 -0.856779 0
M  V30 8979 H 865.73 -3.74693 -1.84377 0
M  V30 8980 N 866.167 -0.267825 -1.55308 0
M  V30 8981 C 867.077 0.633055 -2.25897 0
M  V30 8982 C 868.093 1.17613 -1.28231 0
M  V30 8983 O 869.269 1.20797 -1.61153 0
M  V30 8984 C 866.334 1.80397 -2.96071 0
M  V30 8985 C 865.395 1.29829 -4.09198 0
M  V30 8986 C 864.628 2.4134 -4.76016 0
M  V30 8987 O 864.851 3.60537 -4.42006 0
M  V30 8988 O 863.785 2.09909 -5.64111 0
M  V30 8989 H 867.611 0.0614381 -3.03638 0
M  V30 8990 H 865.196 -0.0355072 -1.49358 0
M  V30 8991 H 867.078 2.48685 -3.40197 0
M  V30 8992 H 865.753 2.36281 -2.21253 0
M  V30 8993 H 864.66 0.582086 -3.69544 0
M  V30 8994 H 865.993 0.785288 -4.85895 0
M  V30 8995 N 867.645 1.57599 0.00500368 0
M  V30 8996 C 868.892 1.90349 0.690895 0
M  V30 8997 C 869.22 0.868045 1.74055 0
M  V30 8998 O 868.475 -0.127855 1.95282 0
M  V30 8999 C 868.774 3.29855 1.37588 0
M  V30 9000 C 868.44 4.48548 0.459906 0
M  V30 9001 C 867.102 4.80752 0.207693 0
M  V30 9002 C 869.454 5.20919 -0.171054 0
M  V30 9003 C 866.782 5.82701 -0.683855 0
M  V30 9004 C 869.134 6.23818 -1.05045 0
M  V30 9005 C 867.798 6.54481 -1.31189 0
M  V30 9006 H 867.068 0.696538 0.252816 0
M  V30 9007 H 869.715 1.91436 -0.0494495 0
M  V30 9008 H 868.02 3.24869 2.19015 0
M  V30 9009 H 869.717 3.52452 1.91255 0
M  V30 9010 H 866.307 4.23384 0.666648 0
M  V30 9011 H 870.491 4.96299 0.0107942 0
M  V30 9012 H 865.747 6.04822 -0.894467 0
M  V30 9013 H 869.921 6.79029 -1.54574 0
M  V30 9014 H 867.548 7.33299 -2.00442 0
M  V30 9015 N 869.123 -0.277682 1.55134 0
M  V30 9016 C 870.073 -1.34531 1.8408 0
M  V30 9017 C 871.057 -1.44904 0.699393 0
M  V30 9018 O 872.249 -1.48664 0.960623 0
M  V30 9019 C 869.378 -2.7064 2.11208 0
M  V30 9020 C 868.464 -2.64396 3.31596 0
M  V30 9021 N 868.855 -2.2777 4.51613 0
M  V30 9022 C 867.153 -2.95464 3.34091 0
M  V30 9023 C 867.854 -2.31401 5.33693 0
M  V30 9024 N 866.83 -2.69688 4.71984 0
M  V30 9025 H 870.632 -1.05214 2.74421 0
M  V30 9026 H 868.146 -0.486311 1.54948 0
M  V30 9027 H 870.143 -3.47649 2.301 0
M  V30 9028 H 868.803 -3.00849 1.22148 0
M  V30 9029 H 869.814 -1.99827 4.77797 0
M  V30 9030 H 866.491 -3.30415 2.5521 0
M  V30 9031 H 867.881 -2.05685 6.39643 0
M  V30 9032 N 870.601 -1.47988 -0.541979 0
M  V30 9033 C 872.017 -1.33843 -0.869383 0
M  V30 9034 C 872.217 -0.340374 -1.98604 0
M  V30 9035 O 871.273 0.242696 -2.51331 0
M  V30 9036 C 872.586 -2.73568 -1.24823 0
M  V30 9037 C 874.134 -2.81967 -1.3588 0
M  V30 9038 C 874.609 -4.22368 -1.77114 0
M  V30 9039 N 876.1 -4.24983 -1.84237 0
M  V30 9040 C 876.835 -5.30547 -2.17503 0
M  V30 9041 N 876.331 -6.46401 -2.49275 0
M  V30 9042 N 878.124 -5.17933 -2.18406 0
M  V30 9043 H 870.275 -2.11503 0.195001 0
M  V30 9044 H 872.538 -0.947681 0.0245862 0
M  V30 9045 H 872.244 -3.48107 -0.501435 0
M  V30 9046 H 872.118 -3.06322 -2.20106 0
M  V30 9047 H 874.505 -2.07692 -2.09638 0
M  V30 9048 H 874.586 -2.52848 -0.387478 0
M  V30 9049 H 874.23 -4.97155 -1.0392 0
M  V30 9050 H 874.16 -4.48922 -2.75275 0
M  V30 9051 H 876.651 -3.41411 -1.62009 0
M  V30 9052 H 876.964 -7.22698 -2.73729 0
M  V30 9053 H 875.309 -6.49696 -2.46821 0
M  V30 9054 H 878.5 -4.26445 -1.93034 0
M  V30 9055 H 878.673 -6.00307 -2.44 0
M  V30 9056 N 872.079 0.78992 -1.36375 0
M  V30 9057 C 873.325 1.54939 -1.31778 0
M  V30 9058 C 873.68 1.92128 0.102327 0
M  V30 9059 O 872.973 1.59823 1.05675 0
M  V30 9060 C 873.167 2.83698 -2.17371 0
M  V30 9061 C 872.996 2.59093 -3.67561 0
M  V30 9062 C 871.766 2.5414 -4.36739 0
M  V30 9063 C 873.964 2.28325 -4.60838 0
M  V30 9064 N 871.946 2.21427 -5.72576 0
M  V30 9065 C 873.317 2.05596 -5.84919 0
M  V30 9066 C 875.372 2.14328 -4.49409 0
M  V30 9067 C 874.075 1.70285 -6.98853 0
M  V30 9068 C 876.101 1.80415 -5.63209 0
M  V30 9069 C 875.463 1.58533 -6.86328 0
M  V30 9070 H 871.562 0.568011 -0.537483 0
M  V30 9071 H 874.146 0.923183 -1.71422 0
M  V30 9072 H 872.317 3.44187 -1.79972 0
M  V30 9073 H 874.049 3.49425 -2.04167 0
M  V30 9074 H 870.804 2.69368 -3.89535 0
M  V30 9075 H 871.228 2.07818 -6.44314 0
M  V30 9076 H 875.87 2.29935 -3.54809 0
M  V30 9077 H 873.588 1.53415 -7.93404 0
M  V30 9078 H 877.174 1.70269 -5.56327 0
M  V30 9079 H 876.054 1.32677 -7.72895 0
M  V30 9080 N 873.557 1.20646 1.01402 0
M  V30 9081 C 874.782 1.04462 1.79172 0
M  V30 9082 C 875.207 -0.401588 1.83763 0
M  V30 9083 O 874.565 -1.28934 1.27459 0
M  V30 9084 C 874.613 1.63583 3.21361 0
M  V30 9085 O 873.717 0.875198 4.03006 0
M  V30 9086 H 873.058 0.368235 0.552539 0
M  V30 9087 H 875.588 1.59994 1.27526 0
M  V30 9088 H 875.598 1.67426 3.72065 0
M  V30 9089 H 874.273 2.68835 3.17334 0
M  V30 9090 H 872.85 0.911172 3.61597 0
M  V30 9091 N 875.035 -1.20752 1.01276 0
M  V30 9092 C 876.26 -1.94547 0.718769 0
M  V30 9093 C 876.685 -1.7404 -0.713563 0
M  V30 9094 O 876.043 -1.03221 -1.49047 0
M  V30 9095 C 876.091 -3.44823 1.05497 0
M  V30 9096 O 875.195 -4.12072 0.164516 0
M  V30 9097 H 874.536 -0.607931 0.267051 0
M  V30 9098 H 877.066 -1.53292 1.35509 0
M  V30 9099 H 877.076 -3.95427 1.00507 0
M  V30 9100 H 875.751 -3.59072 2.09858 0
M  V30 9101 H 874.328 -3.71909 0.271615 0
M  V30 9102 N 876.513 -0.788492 -1.36457 0
M  V30 9103 C 877.743 -0.371825 -2.03227 0
M  V30 9104 C 878.151 1.01627 -1.59589 0
M  V30 9105 O 877.494 1.663 -0.780382 0
M  V30 9106 C 877.556 -0.355179 -3.57741 0
M  V30 9107 C 877.22 -1.69069 -4.24576 0
M  V30 9108 C 878.217 -2.64601 -4.47529 0
M  V30 9109 C 875.902 -1.96973 -4.62068 0
M  V30 9110 C 877.896 -3.86232 -5.07054 0
M  V30 9111 C 875.583 -3.18872 -5.2131 0
M  V30 9112 C 876.581 -4.1332 -5.43742 0
M  V30 9113 O 876.269 -5.3307 -6.0174 0
M  V30 9114 H 876.001 -0.151452 -0.658816 0
M  V30 9115 H 878.555 -1.06827 -1.75434 0
M  V30 9116 H 876.785 0.397753 -3.84649 0
M  V30 9117 H 878.474 0.0366955 -4.05883 0
M  V30 9118 H 879.24 -2.44329 -4.18961 0
M  V30 9119 H 875.119 -1.24277 -4.43933 0
M  V30 9120 H 878.663 -4.59965 -5.24478 0
M  V30 9121 H 874.56 -3.39022 -5.49304 0
M  V30 9122 H 875.328 -5.34121 -6.20207 0
M  V30 9123 N 877.991 1.48044 -0.54043 0
M  V30 9124 C 878.924 2.26667 0.264083 0
M  V30 9125 C 879.902 1.32996 0.935456 0
M  V30 9126 O 881.086 1.62354 0.95778 0
M  V30 9127 C 878.213 3.09541 1.37485 0
M  V30 9128 C 877.259 4.18664 0.813792 0
M  V30 9129 S 878.092 5.34503 -0.326536 0
M  V30 9130 C 879.248 6.20939 0.786452 0
M  V30 9131 H 879.481 2.94554 -0.403129 0
M  V30 9132 H 877.014 1.5091 -0.326415 0
M  V30 9133 H 878.972 3.57863 2.01107 0
M  V30 9134 H 877.633 2.41048 2.01382 0
M  V30 9135 H 876.826 4.76316 1.6474 0
M  V30 9136 H 876.428 3.73136 0.254066 0
M  V30 9137 H 878.72 6.56273 1.68262 0
M  V30 9138 H 879.663 7.07667 0.247673 0
M  V30 9139 H 880.071 5.54236 1.07156 0
M  V30 9140 N 879.47 0.276058 1.55163 0
M  V30 9141 C 880.716 -0.340959 1.99913 0
M  V30 9142 C 881.049 -1.55434 1.16422 0
M  V30 9143 O 880.324 -1.93081 0.234517 0
M  V30 9144 C 880.607 -0.722211 3.52783 0
M  V30 9145 C 880.46 0.498575 4.47028 0
M  V30 9146 C 881.779 -1.5583 4.11589 0
M  V30 9147 H 878.898 -0.122455 0.726756 0
M  V30 9148 H 881.54 0.38319 1.86096 0
M  V30 9149 H 879.69 -1.33919 3.64689 0
M  V30 9150 H 881.362 1.13713 4.47065 0
M  V30 9151 H 879.605 1.13646 4.18649 0
M  V30 9152 H 880.276 0.188041 5.5168 0
M  V30 9153 H 882.752 -1.03722 4.02965 0
M  V30 9154 H 881.628 -1.79387 5.1876 0
M  V30 9155 H 881.889 -2.53963 3.61877 0
M  V30 9156 N 880.948 -1.576 0.00335426 0
M  V30 9157 C 881.898 -2.05116 -0.995562 0
M  V30 9158 C 882.882 -0.946535 -1.30113 0
M  V30 9159 O 884.074 -1.21028 -1.29156 0
M  V30 9160 C 881.203 -2.56077 -2.28648 0
M  V30 9161 C 880.289 -3.73422 -2.0104 0
M  V30 9162 N 880.68 -4.84986 -1.43603 0
M  V30 9163 C 878.978 -3.81416 -2.31166 0
M  V30 9164 C 879.679 -5.66399 -1.32542 0
M  V30 9165 N 878.655 -5.12505 -1.81218 0
M  V30 9166 H 882.457 -2.88783 -0.546025 0
M  V30 9167 H 879.971 -1.61135 -0.202265 0
M  V30 9168 H 881.968 -2.88395 -3.01055 0
M  V30 9169 H 880.628 -1.73829 -2.74251 0
M  V30 9170 H 881.639 -5.05768 -1.11439 0
M  V30 9171 H 878.316 -3.1003 -2.7962 0
M  V30 9172 H 879.706 -6.66066 -0.88348 0
M  V30 9173 N 882.426 0.269451 -1.5528 0
M  V30 9174 C 883.672 0.997946 -1.77236 0
M  V30 9175 C 884.027 1.83808 -0.568546 0
M  V30 9176 O 883.32 1.8651 0.438706 0
M  V30 9177 C 883.514 1.91 -3.02082 0
M  V30 9178 C 883.343 1.15963 -4.34491 0
M  V30 9179 C 882.113 0.873873 -4.97686 0
M  V30 9180 C 884.311 0.548307 -5.11369 0
M  V30 9181 N 882.293 0.0970863 -6.13823 0
M  V30 9182 C 883.664 -0.0941413 -6.19929 0
M  V30 9183 C 885.719 0.456507 -4.95803 0
M  V30 9184 C 884.422 -0.819547 -7.14616 0
M  V30 9185 C 886.448 -0.255315 -5.90849 0
M  V30 9186 C 885.81 -0.886488 -6.988 0
M  V30 9187 H 881.909 0.347038 -0.700777 0
M  V30 9188 H 884.493 0.273262 -1.92773 0
M  V30 9189 H 882.664 2.60691 -2.87915 0
M  V30 9190 H 884.396 2.57237 -3.12428 0
M  V30 9191 H 881.151 1.18003 -4.58663 0
M  V30 9192 H 881.575 -0.278741 -6.76426 0
M  V30 9193 H 886.217 0.930164 -4.12441 0
M  V30 9194 H 883.935 -1.30488 -7.97495 0
M  V30 9195 H 887.521 -0.32671 -5.80882 0
M  V30 9196 H 886.401 -1.42851 -7.71079 0
M  V30 9197 N 883.904 1.48273 0.534124 0
M  V30 9198 C 884.851 1.62487 1.6391 0
M  V30 9199 C 885.821 0.467062 1.59398 0
M  V30 9200 O 887.006 0.690029 1.77885 0
M  V30 9201 C 884.146 1.66671 3.02183 0
M  V30 9202 C 883.259 2.9353 3.16961 0
M  V30 9203 C 882.394 2.88902 4.45768 0
M  V30 9204 C 881.433 4.10483 4.54059 0
M  V30 9205 N 880.57 4.03956 5.74251 0
M  V30 9206 H 885.41 2.56851 1.51101 0
M  V30 9207 H 882.947 1.27381 0.735704 0
M  V30 9208 H 884.905 1.67079 3.82283 0
M  V30 9209 H 883.535 0.758011 3.13774 0
M  V30 9210 H 882.587 3.02886 2.3014 0
M  V30 9211 H 883.899 3.83501 3.18949 0
M  V30 9212 H 883.053 2.87688 5.34154 0
M  V30 9213 H 881.792 1.96652 4.46295 0
M  V30 9214 H 880.797 4.11977 3.64081 0
M  V30 9215 H 882.022 5.03887 4.55274 0
M  V30 9216 H 879.968 3.14525 5.75682 0
M  V30 9217 H 879.885 4.87628 5.77715 0
M  V30 9218 H 881.153 4.06795 6.64935 0
M  V30 9219 N 885.382 -0.782676 1.36792 0
M  V30 9220 C 886.33 -1.91698 1.31737 0
M  V30 9221 C 887.324 -1.68118 0.207994 0
M  V30 9222 O 888.53 -1.76042 0.375393 0
M  V30 9223 H 884.905 -0.630215 0.410284 0
M  V30 9224 H 886.876 -1.93078 2.27516 0
M  V30 9225 C 885.625 -3.28816 1.13029 0
M  V30 9226 H 884.948 -3.4753 1.97643 0
M  V30 9227 H 886.388 -4.08515 1.13541 0
M  V30 9228 C 884.847 -3.36497 -0.1647 0
M  V30 9229 O 885.377 -3.84822 -1.15216 0
M  V30 9230 N 883.583 -2.89828 -0.211678 0
M  V30 9231 H 883.13 -2.50693 0.59252 0
M  V30 9232 H 883.088 -2.95349 -1.07779 0
M  V30 9233 N 886.86 -1.21182 -1.00761 0
M  V30 9234 C 887.792 -0.926523 -2.09638 0
M  V30 9235 C 888.805 0.0892511 -1.62555 0
M  V30 9236 O 889.994 -0.142915 -1.77927 0
M  V30 9237 C 887.094 -0.369175 -3.36883 0
M  V30 9238 C 886.267 -1.43866 -4.13063 0
M  V30 9239 C 885.326 -0.891015 -5.18601 0
M  V30 9240 O 884.352 -1.57384 -5.47009 0
M  V30 9241 N 885.554 0.295057 -5.7975 0
M  V30 9242 H 888.319 -1.8638 -2.34697 0
M  V30 9243 H 885.88 -1.11671 -1.17223 0
M  V30 9244 H 887.872 0.011534 -4.04698 0
M  V30 9245 H 886.442 0.472861 -3.09003 0
M  V30 9246 H 885.662 -1.99332 -3.40089 0
M  V30 9247 H 886.95 -2.15866 -4.60738 0
M  V30 9248 H 886.348 0.8669 -5.59018 0
M  V30 9249 H 884.905 0.617306 -6.4887 0
M  V30 9250 N 888.338 1.20213 -1.01915 0
M  V30 9251 C 889.585 1.89647 -0.709955 0
M  V30 9252 C 889.913 1.7901 0.760631 0
M  V30 9253 O 889.168 1.17028 1.56853 0
M  V30 9254 C 889.467 3.40232 -1.09438 0
M  V30 9255 C 889.133 3.7107 -2.5616 0
M  V30 9256 C 887.795 3.79196 -2.96249 0
M  V30 9257 C 890.147 3.85169 -3.51133 0
M  V30 9258 C 887.475 3.98882 -4.30244 0
M  V30 9259 C 889.827 4.06365 -4.8482 0
M  V30 9260 C 888.491 4.12722 -5.24611 0
M  V30 9261 H 887.761 0.693967 -0.259791 0
M  V30 9262 H 890.408 1.42419 -1.2802 0
M  V30 9263 H 888.713 3.89292 -0.442596 0
M  V30 9264 H 890.41 3.92257 -0.832811 0
M  V30 9265 H 887 3.65346 -2.24099 0
M  V30 9266 H 891.184 3.78243 -3.21319 0
M  V30 9267 H 886.44 4.02039 -4.60624 0
M  V30 9268 H 890.614 4.16216 -5.58334 0
M  V30 9269 H 888.241 4.27728 -6.28453 0
M  V30 9270 N 889.816 0.795718 1.36037 0
M  V30 9271 C 891.093 0.294743 1.93367 0
M  V30 9272 C 891.473 -1.21406 1.72696 0
M  V30 9273 O 890.821 -2.00849 1.08959 0
M  V30 9274 C 891.031 0.694254 3.42025 0
M  V30 9275 C 892.379 0.677566 4.19159 0
M  V30 9276 O 893.403 0.635119 3.50492 0
M  V30 9277 O 892.262 0.726127 5.41655 0
M  V30 9278 H 889.356 0.0745459 0.823633 0
M  V30 9279 H 891.902 0.878685 1.4518 0
M  V30 9280 H 890.674 1.73458 3.50753 0
M  V30 9281 H 890.297 0.0845338 3.9751 0
M  V30 9282 N 891.294 -1.47756 0.548274 0
M  V30 9283 C 892.244 -2.26891 -0.224628 0
M  V30 9284 C 893.228 -1.33816 -0.893421 0
M  V30 9285 O 894.42 -1.58232 -0.793204 0
M  V30 9286 C 891.549 -3.19358 -1.25959 0
M  V30 9287 C 890.635 -4.1991 -0.594662 0
M  V30 9288 N 891.026 -5.04721 0.330148 0
M  V30 9289 C 889.324 -4.37832 -0.849672 0
M  V30 9290 C 890.025 -5.77282 0.71553 0
M  V30 9291 N 889.001 -5.43552 0.0723997 0
M  V30 9292 H 892.803 -2.89844 0.486561 0
M  V30 9293 H 890.317 -1.58185 0.367577 0
M  V30 9294 H 892.314 -3.74726 -1.82718 0
M  V30 9295 H 890.974 -2.57961 -1.97196 0
M  V30 9296 H 891.985 -5.13095 0.703811 0
M  V30 9297 H 888.662 -3.87612 -1.55123 0
M  V30 9298 H 890.052 -6.55512 1.47493 0
M  V30 9299 N 892.772 -0.284283 -1.55015 0
M  V30 9300 C 894.002 0.332465 -2.03907 0
M  V30 9301 C 894.41 1.49331 -1.16177 0
M  V30 9302 O 893.753 1.82851 -0.176395 0
M  V30 9303 C 893.815 0.867193 -3.48884 0
M  V30 9304 C 893.479 -0.166198 -4.56698 0
M  V30 9305 C 894.476 -0.988898 -5.10408 0
M  V30 9306 C 892.161 -0.303081 -5.01385 0
M  V30 9307 C 894.155 -1.93458 -6.07333 0
M  V30 9308 C 891.842 -1.25223 -5.98133 0
M  V30 9309 C 892.84 -2.06647 -6.50988 0
M  V30 9310 O 892.528 -2.99955 -7.45843 0
M  V30 9311 H 892.26 0.0786597 -0.671408 0
M  V30 9312 H 894.814 -0.416871 -2.01125 0
M  V30 9313 H 893.044 1.66676 -3.48935 0
M  V30 9314 H 894.733 1.39802 -3.81065 0
M  V30 9315 H 895.499 -0.89393 -4.76691 0
M  V30 9316 H 891.378 0.320711 -4.59883 0
M  V30 9317 H 894.922 -2.57053 -6.48513 0
M  V30 9318 H 890.819 -1.34798 -6.31268 0
M  V30 9319 H 891.587 -2.94742 -7.6359 0
M  V30 9320 N 894.251 1.57596 -0.0117121 0
M  V30 9321 C 895.476 1.95764 0.684938 0
M  V30 9322 C 895.901 0.887285 1.65858 0
M  V30 9323 O 895.259 -0.153508 1.80649 0
M  V30 9324 C 895.307 3.33031 1.38285 0
M  V30 9325 O 894.411 3.28163 2.49765 0
M  V30 9326 H 893.752 0.638767 0.181309 0
M  V30 9327 H 896.282 2.04486 -0.0683883 0
M  V30 9328 H 896.292 3.68866 1.74362 0
M  V30 9329 H 894.967 4.10483 0.669043 0
M  V30 9330 H 893.544 3.04021 2.15929 0
M  V30 9331 N 895.729 -0.261212 1.5542 0
M  V30 9332 C 896.676 -1.32315 1.89107 0
M  V30 9333 C 897.646 -1.48517 0.743767 0
M  V30 9334 O 898.831 -1.62733 0.996123 0
M  V30 9335 C 895.971 -2.67626 2.17877 0
M  V30 9336 C 895.084 -2.59549 3.45338 0
M  V30 9337 C 894.219 -3.87118 3.63748 0
M  V30 9338 C 893.258 -3.736 4.8486 0
M  V30 9339 N 892.395 -4.93029 4.99867 0
M  V30 9340 H 897.235 -1.02886 2.79675 0
M  V30 9341 H 894.772 -0.496812 1.38456 0
M  V30 9342 H 896.73 -3.4637 2.32559 0
M  V30 9343 H 895.36 -2.95232 1.30529 0
M  V30 9344 H 894.412 -1.72452 3.39064 0
M  V30 9345 H 895.724 -2.45465 4.34222 0
M  V30 9346 H 894.878 -4.74305 3.78312 0
M  V30 9347 H 893.617 -4.04084 2.73071 0
M  V30 9348 H 892.622 -2.84797 4.70288 0
M  V30 9349 H 893.847 -3.58143 5.76984 0
M  V30 9350 H 891.793 -5.10383 4.12123 0
M  V30 9351 H 891.71 -4.81521 5.82815 0
M  V30 9352 H 892.978 -5.81754 5.18828 0
M  V30 9353 N 897.207 -1.48554 -0.526253 0
M  V30 9354 C 898.139 -1.59446 -1.6465 0
M  V30 9355 C 899.152 -0.478525 -1.55608 0
M  V30 9356 O 900.341 -0.74953 -1.62001 0
M  V30 9357 C 897.441 -1.51164 -3.03319 0
M  V30 9358 C 896.614 -2.77861 -3.37805 0
M  V30 9359 C 895.673 -2.62982 -4.5577 0
M  V30 9360 O 894.699 -3.36876 -4.58806 0
M  V30 9361 N 895.901 -1.72847 -5.5417 0
M  V30 9362 H 898.666 -2.56055 -1.55743 0
M  V30 9363 H 896.227 -1.45325 -0.713606 0
M  V30 9364 H 898.219 -1.389 -3.80117 0
M  V30 9365 H 896.789 -0.625147 -3.06285 0
M  V30 9366 H 896.009 -3.04663 -2.50149 0
M  V30 9367 H 897.297 -3.61908 -3.57632 0
M  V30 9368 H 896.695 -1.12022 -5.54498 0
M  V30 9369 H 895.252 -1.6652 -6.3017 0
M  V30 9370 N 898.685 0.775411 -1.37205 0
M  V30 9371 C 899.962 1.5229 -1.22748 0
M  V30 9372 C 900.342 2.10327 0.180487 0
M  V30 9373 O 899.69 1.95206 1.18772 0
M  V30 9374 C 899.9 2.60671 -2.3206 0
M  V30 9375 C 901.248 3.28173 -2.6942 0
M  V30 9376 O 902.272 2.70963 -2.31208 0
M  V30 9377 O 901.131 4.31598 -3.3524 0
M  V30 9378 H 898.225 0.674326 -0.478762 0
M  V30 9379 H 900.771 0.812691 -1.48975 0
M  V30 9380 H 899.543 2.1588 -3.26361 0
M  V30 9381 H 899.166 3.39296 -2.07277 0
M  V30 9382 N 900.163 1.21714 1.00117 0
M  V30 9383 C 901.579 0.97532 1.26332 0
M  V30 9384 C 901.779 -0.336029 1.98678 0
M  V30 9385 O 900.835 -1.06073 2.29139 0
M  V30 9386 C 902.148 2.16848 2.0832 0
M  V30 9387 C 903.696 2.21115 2.21533 0
M  V30 9388 C 904.171 3.3996 3.06906 0
M  V30 9389 N 905.662 3.40071 3.14494 0
M  V30 9390 C 906.397 4.28678 3.80818 0
M  V30 9391 N 905.893 5.2749 4.49139 0
M  V30 9392 N 907.686 4.16476 3.77497 0
M  V30 9393 H 899.837 2.06039 0.515897 0
M  V30 9394 H 902.1 0.902423 0.290408 0
M  V30 9395 H 901.806 3.119 1.62515 0
M  V30 9396 H 901.68 2.16226 3.09073 0
M  V30 9397 H 904.067 1.26616 2.66557 0
M  V30 9398 H 904.148 2.2578 1.20238 0
M  V30 9399 H 903.792 4.34755 2.62585 0
M  V30 9400 H 903.722 3.32534 4.08324 0
M  V30 9401 H 906.213 2.68563 2.65861 0
M  V30 9402 H 906.526 5.91397 4.97463 0
M  V30 9403 H 904.871 5.31412 4.47914 0
M  V30 9404 H 908.062 3.38539 3.23278 0
M  V30 9405 H 908.235 4.85739 4.28908 0
M  V30 9406 N 901.641 -1.19671 1.02551 0
M  V30 9407 C 902.881 -1.90971 0.728668 0
M  V30 9408 C 903.245 -1.7762 -0.729057 0
M  V30 9409 O 904.446 -2.43484 -1.13882 0
M  V30 9410 C 902.717 -3.3794 1.16323 0
M  V30 9411 S 904.276 -4.27493 0.989722 0
M  V30 9412 H 901.094 -0.659617 0.265381 0
M  V30 9413 H 903.696 -1.44698 1.31463 0
M  V30 9414 H 902.4 -3.45181 2.21986 0
M  V30 9415 H 901.931 -3.89243 0.570417 0
M  V30 9416 H 903.946 -4.96096 -0.101666 0
M  V30 9417 N 903.119 -0.802921 -1.35613 0
M  V30 9418 C 904.344 -0.392846 -2.03645 0
M  V30 9419 C 904.769 0.987075 -1.6012 0
M  V30 9420 O 904.127 1.63849 -0.776101 0
M  V30 9421 C 904.175 -0.480208 -3.57388 0
M  V30 9422 O 903.279 0.507751 -4.09262 0
M  V30 9423 H 902.62 -0.16464 -0.643265 0
M  V30 9424 H 905.15 -1.08779 -1.73287 0
M  V30 9425 H 905.16 -0.348683 -4.06507 0
M  V30 9426 H 903.835 -1.48675 -3.88418 0
M  V30 9427 H 902.412 0.336769 -3.71376 0
M  V30 9428 N 904.597 1.47463 -0.556102 0
M  V30 9429 C 905.874 1.9557 0.0339892 0
M  V30 9430 C 906.254 1.49869 1.48669 0
M  V30 9431 O 905.602 0.737019 2.16288 0
M  V30 9432 C 905.812 3.48826 -0.110343 0
M  V30 9433 C 907.16 4.24585 0.0355716 0
M  V30 9434 O 908.184 3.5618 -0.0378356 0
M  V30 9435 O 907.043 5.46158 0.193299 0
M  V30 9436 H 904.137 0.824461 0.0647521 0
M  V30 9437 H 906.683 1.57868 -0.622547 0
M  V30 9438 H 905.455 3.74891 -1.12126 0
M  V30 9439 H 905.078 3.9329 0.583855 0
M  V30 9440 N 906.075 0.2925 1.54862 0
M  V30 9441 C 907.005 -0.580677 2.26165 0
M  V30 9442 C 907.986 -1.14485 1.25806 0
M  V30 9443 O 909.171 -1.17577 1.54562 0
M  V30 9444 C 906.301 -1.75668 2.99596 0
M  V30 9445 C 905.255 -1.32325 4.07031 0
M  V30 9446 C 904.581 -2.58374 4.68131 0
M  V30 9447 C 905.881 -0.460703 5.20264 0
M  V30 9448 H 907.575 0.0140075 2.99397 0
M  V30 9449 H 905.121 0.00817706 1.43998 0
M  V30 9450 H 907.074 -2.37356 3.48195 0
M  V30 9451 H 905.798 -2.37747 2.23928 0
M  V30 9452 H 904.457 -0.729477 3.59269 0
M  V30 9453 H 904.105 -3.18749 3.89112 0
M  V30 9454 H 903.805 -2.30078 5.40683 0
M  V30 9455 H 905.329 -3.2088 5.19489 0
M  V30 9456 H 906.743 -0.983037 5.64809 0
M  V30 9457 H 905.14 -0.271881 5.99484 0
M  V30 9458 H 906.21 0.516304 4.82143 0
M  V30 9459 O 907.592 -1.60718 0.15878 0
M  V30 9460 H 908.283 -1.88795 -0.433148 0
M  V30 END ATOM
M  V30 BEGIN BOND
M  V30 END BOND
M  V30 END CTAB
M  END
$$$$
