drugbank_target|D6R448 Penicillin-binding protein 2 (DB00713)
 OpenBabel12092121043D

  0  0  0     0  0            999 V3000
M  V30 BEGIN CTAB
M  V30 COUNTS 1499 1516 0 0 0
M  V30 BEGIN ATOM
M  V30 1 H -0.908 1.98254 -0.117106 0
M  V30 2 N 0 1.576 0 0
M  V30 3 C 0.963 2.07369 0.976253 0
M  V30 4 C 1.963 0.98309 1.27248 0
M  V30 5 O 3.153 1.24574 1.21766 0
M  V30 6 C 0.285 2.51514 2.30116 0
M  V30 7 H 1.478 2.94892 0.545759 0
M  V30 8 H -0.969 1.54328 0.247471 0
M  V30 9 H -0.234 1.67234 2.77855 0
M  V30 10 H -0.449 3.31163 2.09937 0
M  V30 11 H 1.041 2.90345 3.00149 0
M  V30 12 N 1.4781 -0.272755 1.55222 0
M  V30 13 C 2.7271 -1.00211 1.75045 0
M  V30 14 C 3.0401 -1.87441 0.559046 0
M  V30 15 O 4.2461 -2.63856 0.639698 0
M  V30 16 C 2.7021 -1.83165 3.09804 0
M  V30 17 C 2.3101 -1.008 4.36513 0
M  V30 18 C 4.0541 -2.55529 3.38977 0
M  V30 19 C 1.9611 -1.83194 5.62311 0
M  V30 20 H 0.8911 -0.377878 0.652476 0
M  V30 21 H 3.5421 -0.257776 1.8168 0
M  V30 22 H 1.9241 -2.61694 2.97207 0
M  V30 23 H 3.0981 -0.266855 4.60027 0
M  V30 24 H 1.4131 -0.398897 4.14485 0
M  V30 25 H 4.0101 -3.17578 4.30172 0
M  V30 26 H 4.3531 -3.25825 2.59121 0
M  V30 27 H 4.8861 -1.84029 3.52673 0
M  V30 28 H 1.6251 -1.17318 6.44916 0
M  V30 29 H 1.1451 -2.54905 5.4294 0
M  V30 30 H 2.8241 -2.40552 6.00619 0
M  V30 31 N 2.9562 -1.48159 -0.537278 0
M  V30 32 C 3.9062 -1.5854 -1.63857 0
M  V30 33 C 4.8902 -0.442969 -1.54682 0
M  V30 34 O 6.0822 -0.69401 -1.62827 0
M  V30 35 C 3.2112 -1.62144 -3.02596 0
M  V30 36 C 2.2972 -2.81841 -3.16901 0
M  V30 37 N 2.6882 -4.06337 -3.01204 0
M  V30 38 C 0.9862 -2.79021 -3.47942 0
M  V30 39 C 1.6872 -4.86606 -3.18731 0
M  V30 40 N 0.6632 -4.19288 -3.45974 0
M  V30 41 H 4.4652 -2.5255 -1.50319 0
M  V30 42 H 1.9792 -1.4443 -0.742555 0
M  V30 43 H 3.9762 -1.67674 -3.81695 0
M  V30 44 H 2.6362 -0.69245 -3.17231 0
M  V30 45 H 3.6472 -4.36888 -2.78117 0
M  V30 46 H 0.3242 -1.95347 -3.6898 0
M  V30 47 H 1.7142 -5.95385 -3.11394 0
M  V30 48 N 4.4343 0.785586 -1.36625 0
M  V30 49 C 5.8453 1.36101 -1.27803 0
M  V30 50 C 6.1963 1.96035 0.0804875 0
M  V30 51 O 5.3213 1.92834 0.982042 0
M  V30 52 C 5.9163 2.47442 -2.31426 0
M  V30 53 C 4.4753 3.00789 -2.26281 0
M  V30 54 C 3.6223 1.73896 -2.15999 0
M  V30 55 H 6.5733 0.586928 -1.47448 0
M  V30 56 H 6.5943 3.2656 -1.95291 0
M  V30 57 H 6.1063 2.03791 -3.30289 0
M  V30 58 H 4.2073 3.48851 -1.30896 0
M  V30 59 H 4.3203 3.57343 -3.19128 0
M  V30 60 H 2.6843 1.9628 -1.62316 0
M  V30 61 H 3.4673 1.32368 -3.16755 0
M  V30 62 N 5.9124 1.20967 1.01018 0
M  V30 63 C 6.8444 0.922059 2.09835 0
M  V30 64 C 7.8574 -0.0927106 1.62536 0
M  V30 65 O 9.0464 0.139127 1.77957 0
M  V30 66 C 6.1464 0.362004 3.36961 0
M  V30 67 C 5.3194 1.42986 4.13369 0
M  V30 68 C 4.3784 0.879976 5.1879 0
M  V30 69 O 3.4044 1.56219 5.47343 0
M  V30 70 N 4.6064 -0.307396 5.79686 0
M  V30 71 H 7.3714 1.8588 2.35093 0
M  V30 72 H 4.9324 1.11422 1.1746 0
M  V30 73 H 6.9244 -0.0201474 4.04695 0
M  V30 74 H 5.4944 -0.479437 3.08902 0
M  V30 75 H 4.7144 1.98608 3.40512 0
M  V30 76 H 6.0024 2.14885 4.61196 0
M  V30 77 H 5.4004 -0.878796 5.58832 0
M  V30 78 H 3.9574 -0.631115 6.48737 0
M  V30 79 N 7.3905 -1.2043 1.01659 0
M  V30 80 C 8.6185 -1.93777 0.725132 0
M  V30 81 C 9.0335 -1.74772 -0.714166 0
M  V30 82 O 8.3905 -1.06169 -1.4844 0
M  V30 83 C 8.4415 -3.45876 1.05129 0
M  V30 84 O 8.1625 -3.6426 2.43406 0
M  V30 85 C 9.6635 -4.36368 0.780891 0
M  V30 86 H 6.8835 -0.615901 0.266284 0
M  V30 87 H 9.4275 -1.52922 1.35776 0
M  V30 88 H 7.5825 -3.8461 0.464065 0
M  V30 89 H 7.9965 -4.58246 2.55169 0
M  V30 90 H 9.4705 -5.41743 1.05918 0
M  V30 91 H 9.9475 -4.38275 -0.284937 0
M  V30 92 H 10.5535 -4.03296 1.35027 0
M  V30 93 N 8.8686 -0.792821 -1.36206 0
M  V30 94 C 10.1166 -0.366062 -1.98757 0
M  V30 95 C 10.4376 1.0668 -1.63231 0
M  V30 96 O 9.7076 1.73587 -0.907978 0
M  V30 97 H 8.2876 -0.132364 -0.735179 0
M  V30 98 H 10.9496 -1.01562 -1.66347 0
M  V30 99 H 10.0456 -0.460638 -3.08682 0
M  V30 100 N 10.3467 1.47872 -0.545128 0
M  V30 101 C 11.2567 2.33633 0.212746 0
M  V30 102 C 12.2727 1.4744 0.923983 0
M  V30 103 O 13.4487 1.80393 0.895572 0
M  V30 104 C 10.5137 3.23884 1.23693 0
M  V30 105 C 9.5747 4.25961 0.534417 0
M  V30 106 C 8.8077 5.11899 1.5098 0
M  V30 107 O 9.0307 5.00077 2.7437 0
M  V30 108 O 7.9647 5.92831 1.0409 0
M  V30 109 H 11.7907 2.99714 -0.490416 0
M  V30 110 H 9.3757 1.46235 -0.305871 0
M  V30 111 H 11.2577 3.79666 1.82843 0
M  V30 112 H 9.9327 2.60446 1.92222 0
M  V30 113 H 8.8397 3.73972 -0.0979679 0
M  V30 114 H 10.1727 4.92079 -0.109213 0
M  V30 115 N 11.8248 0.280983 1.55075 0
M  V30 116 C 12.7548 -0.597469 2.25727 0
M  V30 117 C 13.7358 -1.15417 1.24952 0
M  V30 118 O 14.9208 -1.18722 1.53684 0
M  V30 119 C 12.0508 -1.7789 2.98283 0
M  V30 120 C 11.0048 -1.35347 4.06036 0
M  V30 121 C 10.3308 -2.61846 4.66198 0
M  V30 122 C 11.6308 -0.499354 5.19907 0
M  V30 123 H 13.3248 -0.00824265 2.99399 0
M  V30 124 H 10.8708 -0.0025244 1.44 0
M  V30 125 H 12.8238 -2.39937 3.46422 0
M  V30 126 H 11.5478 -2.39405 2.22155 0
M  V30 127 H 10.2068 -0.756156 3.58717 0
M  V30 128 H 9.8548 -3.21632 3.86732 0
M  V30 129 H 9.5548 -2.3409 5.38958 0
M  V30 130 H 11.0788 -3.24732 5.1709 0
M  V30 131 H 12.4928 -1.02498 5.64063 0
M  V30 132 H 10.8898 -0.316424 5.99265 0
M  V30 133 H 11.9598 0.480459 4.82514 0
M  V30 134 N 13.3029 -1.57598 0.00835791 0
M  V30 135 C 14.2329 -2.1198 -0.979113 0
M  V30 136 C 15.2139 -1.03091 -1.35301 0
M  V30 137 O 16.3989 -1.30818 -1.43528 0
M  V30 138 C 13.5289 -2.62995 -2.26828 0
M  V30 139 C 12.4829 -3.76485 -2.03576 0
M  V30 140 C 11.8089 -4.13846 -3.38579 0
M  V30 141 C 13.1089 -5.0342 -1.39161 0
M  V30 142 H 14.8029 -2.94738 -0.526281 0
M  V30 143 H 12.3489 -1.41783 -0.251704 0
M  V30 144 H 14.3019 -2.99669 -2.96271 0
M  V30 145 H 13.0259 -1.7737 -2.7424 0
M  V30 146 H 11.6849 -3.40217 -1.36557 0
M  V30 147 H 11.3329 -3.25232 -3.83709 0
M  V30 148 H 11.0329 -4.90312 -3.23834 0
M  V30 149 H 12.5569 -4.53086 -4.09323 0
M  V30 150 H 13.9709 -5.37812 -1.98573 0
M  V30 151 H 12.3679 -5.84746 -1.34878 0
M  V30 152 H 13.4379 -4.83548 -0.361868 0
M  V30 153 N 14.781 0.264519 -1.55364 0
M  V30 154 C 15.744 1.31046 -1.88042 0
M  V30 155 C 16.744 1.41943 -0.755569 0
M  V30 156 O 17.934 1.40947 -1.02369 0
M  V30 157 C 15.066 2.69067 -2.09323 0
M  V30 158 H 16.259 1.03297 -2.81549 0
M  V30 159 H 13.812 0.502989 -1.47986 0
M  V30 160 H 14.547 3.01982 -1.18226 0
M  V30 161 H 14.332 2.62542 -2.91229 0
M  V30 162 H 15.822 3.44623 -2.35848 0
M  V30 163 N 16.2591 1.48442 0.529413 0
M  V30 164 C 17.1891 1.65902 1.64313 0
M  V30 165 C 18.1701 0.507897 1.6234 0
M  V30 166 O 19.3551 0.740503 1.79528 0
M  V30 167 C 16.4851 1.69911 3.02898 0
M  V30 168 C 15.4391 2.8453 3.19729 0
M  V30 169 C 14.7651 2.73629 4.59381 0
M  V30 170 C 16.0651 4.25821 3.02447 0
M  V30 171 H 17.7591 2.5914 1.49955 0
M  V30 172 H 15.3051 1.24709 0.719982 0
M  V30 173 H 17.2581 1.80715 3.80684 0
M  V30 174 H 15.9821 0.732524 3.18279 0
M  V30 175 H 14.6411 2.73283 2.44361 0
M  V30 176 H 14.2891 1.74938 4.71599 0
M  V30 177 H 13.9891 3.50541 4.71588 0
M  V30 178 H 15.5131 2.86401 5.39265 0
M  V30 179 H 16.9271 4.37898 3.70024 0
M  V30 180 H 15.3241 5.03735 3.26146 0
M  V30 181 H 16.3941 4.42244 1.98867 0
M  V30 182 N 17.7372 -0.778329 1.37039 0
M  V30 183 C 18.9832 -1.53892 1.32079 0
M  V30 184 C 19.3162 -1.9396 -0.0965386 0
M  V30 185 O 18.5912 -1.63568 -1.05242 0
M  V30 186 C 18.8742 -2.80847 2.25382 0
M  V30 187 C 18.7272 -2.47076 3.75864 0
M  V30 188 C 20.0462 -3.82741 2.1725 0
M  V30 189 H 17.1652 -0.558303 0.48111 0
M  V30 190 H 19.8072 -0.893397 1.67685 0
M  V30 191 H 17.9572 -3.35931 1.95148 0
M  V30 192 H 19.6292 -1.97957 4.16666 0
M  V30 193 H 17.8722 -1.79863 3.94755 0
M  V30 194 H 18.5432 -3.37798 4.36574 0
M  V30 195 H 21.0192 -3.37133 2.43887 0
M  V30 196 H 19.8952 -4.69303 2.84686 0
M  V30 197 H 20.1562 -4.2652 1.16331 0
M  V30 198 N 19.2153 -1.21501 -1.00376 0
M  V30 199 C 20.4403 -1.05977 -1.78279 0
M  V30 200 C 20.8653 0.385994 -1.84097 0
M  V30 201 O 20.2233 1.27849 -1.28547 0
M  V30 202 C 20.2713 -1.66302 -3.19963 0
M  V30 203 O 19.3753 -0.909333 -4.0225 0
M  V30 204 H 18.7163 -0.372906 -0.549397 0
M  V30 205 H 21.2463 -1.6107 -1.26165 0
M  V30 206 H 21.2563 -1.70574 -3.70632 0
M  V30 207 H 19.9313 -2.71515 -3.15043 0
M  V30 208 H 18.5083 -0.941795 -3.60811 0
M  V30 209 N 20.6934 1.19889 -1.02296 0
M  V30 210 C 21.9214 1.9339 -0.735399 0
M  V30 211 C 22.3364 1.75148 0.704887 0
M  V30 212 O 21.6934 1.06954 1.47875 0
M  V30 213 C 21.7444 3.45313 -1.06962 0
M  V30 214 O 21.4654 3.62964 -2.45334 0
M  V30 215 C 22.9664 4.35948 -0.804021 0
M  V30 216 H 20.1864 0.61448 -0.269546 0
M  V30 217 H 22.7304 1.522 -1.36585 0
M  V30 218 H 20.8854 3.84359 -0.484455 0
M  V30 219 H 21.2994 4.56886 -2.57595 0
M  V30 220 H 22.7734 5.41174 -1.0879 0
M  V30 221 H 23.2504 4.3842 0.261691 0
M  V30 222 H 23.8564 4.02574 -1.37164 0
M  V30 223 N 22.1715 0.800033 1.35784 0
M  V30 224 C 23.5825 0.439142 1.81462 0
M  V30 225 C 23.9335 -1.03813 1.66485 0
M  V30 226 O 23.0585 -1.80626 1.19177 0
M  V30 227 C 23.6535 0.790314 3.29453 0
M  V30 228 C 22.2125 0.482111 3.733 0
M  V30 229 C 21.3595 1.01938 2.57883 0
M  V30 230 H 24.3105 0.992254 1.23855 0
M  V30 231 H 24.3315 0.0853677 3.80404 0
M  V30 232 H 23.8435 1.86554 3.40322 0
M  V30 233 H 21.9445 -0.584652 3.67984 0
M  V30 234 H 22.0575 1.01015 4.6833 0
M  V30 235 H 20.4215 0.442043 2.50835 0
M  V30 236 H 21.2045 2.10059 2.71533 0
M  V30 237 N 23.6496 -1.47581 0.552962 0
M  V30 238 C 24.8746 -2.07378 0.0300593 0
M  V30 239 C 25.2996 -1.40355 -1.25229 0
M  V30 240 O 24.6576 -0.477099 -1.7491 0
M  V30 241 C 24.7056 -3.60274 -0.153231 0
M  V30 242 O 23.8096 -3.94041 -1.21678 0
M  V30 243 H 23.1506 -0.662158 0.0494182 0
M  V30 244 H 25.6806 -1.89662 0.767434 0
M  V30 245 H 25.6906 -4.0633 -0.368761 0
M  V30 246 H 24.3656 -4.08455 0.783397 0
M  V30 247 H 22.9426 -3.59735 -0.982079 0
M  V30 248 N 25.1277 -0.289203 -1.54924 0
M  V30 249 C 26.3577 0.325989 -2.04012 0
M  V30 250 C 26.7657 1.48961 -1.1665 0
M  V30 251 O 26.1087 1.82794 -0.1822 0
M  V30 252 C 26.1707 0.856112 -3.49158 0
M  V30 253 C 25.8347 -0.180697 -4.56643 0
M  V30 254 C 26.8317 -1.0051 -5.10092 0
M  V30 255 C 24.5167 -0.318998 -5.01286 0
M  V30 256 C 26.5107 -1.95385 -6.06715 0
M  V30 257 C 24.1977 -1.27121 -5.97732 0
M  V30 258 C 25.1957 -2.08713 -6.50329 0
M  V30 259 O 24.8837 -3.02322 -7.44887 0
M  V30 260 H 24.6157 0.0765276 -0.671654 0
M  V30 261 H 27.1697 -0.423254 -2.00992 0
M  V30 262 H 25.3997 1.65567 -3.49463 0
M  V30 263 H 27.0887 1.38591 -3.81507 0
M  V30 264 H 27.8547 -0.90906 -4.76404 0
M  V30 265 H 23.7337 0.306108 -4.59983 0
M  V30 266 H 27.2777 -2.59111 -6.47694 0
M  V30 267 H 23.1747 -1.36801 -6.30837 0
M  V30 268 H 23.9427 -2.97165 -7.6265 0
M  V30 269 N 26.6058 1.57591 -0.0167156 0
M  V30 270 C 27.8828 1.82547 0.702564 0
M  V30 271 C 28.2628 0.898018 1.91047 0
M  V30 272 O 27.6108 -0.0493456 2.28447 0
M  V30 273 C 27.8208 3.31459 1.09251 0
M  V30 274 C 29.1688 3.97622 1.48937 0
M  V30 275 O 30.1928 3.35881 1.18584 0
M  V30 276 O 29.0518 5.06415 2.05442 0
M  V30 277 H 26.1458 0.752268 0.343544 0
M  V30 278 H 28.6918 1.69644 -0.0434495 0
M  V30 279 H 27.4638 3.9061 0.23227 0
M  V30 280 H 27.0868 3.49422 1.89709 0
M  V30 281 N 28.0839 -0.256276 1.55502 0
M  V30 282 C 29.3299 -0.987079 1.77157 0
M  V30 283 C 29.6629 -1.85327 0.580315 0
M  V30 284 O 28.9379 -1.89874 -0.421686 0
M  V30 285 C 29.2209 -1.85553 3.08613 0
M  V30 286 C 29.0739 -1.01816 4.38125 0
M  V30 287 C 30.3929 -2.8397 3.36228 0
M  V30 288 H 27.5119 -0.357428 0.644526 0
M  V30 289 H 30.1539 -0.258239 1.88237 0
M  V30 290 H 28.3039 -2.47695 2.99298 0
M  V30 291 H 29.9759 -0.416159 4.59419 0
M  V30 292 H 28.2189 -0.322178 4.32602 0
M  V30 293 H 28.8899 -1.65939 5.26468 0
M  V30 294 H 31.3659 -2.31964 3.45445 0
M  V30 295 H 30.2419 -3.41864 4.29442 0
M  V30 296 H 30.5029 -3.59955 2.56681 0
M  V30 297 N 29.562 -1.4872 -0.521534 0
M  V30 298 C 30.792 -1.6061 -1.29954 0
M  V30 299 C 31.2 -0.268728 -1.87282 0
M  V30 300 O 30.543 0.753221 -1.67548 0
M  V30 301 C 30.605 -2.60013 -2.48261 0
M  V30 302 C 30.269 -4.04874 -2.11957 0
M  V30 303 C 31.266 -4.92304 -1.67132 0
M  V30 304 C 28.951 -4.5047 -2.22221 0
M  V30 305 C 30.945 -6.2336 -1.33047 0
M  V30 306 C 28.632 -5.81544 -1.87748 0
M  V30 307 C 29.63 -6.67812 -1.43234 0
M  V30 308 O 29.318 -7.96446 -1.09217 0
M  V30 309 H 29.05 -0.544116 -0.401141 0
M  V30 310 H 31.604 -1.95339 -0.634958 0
M  V30 311 H 29.834 -2.20422 -3.17728 0
M  V30 312 H 31.523 -2.61648 -3.10315 0
M  V30 313 H 32.289 -4.58312 -1.58665 0
M  V30 314 H 28.168 -3.83504 -2.55823 0
M  V30 315 H 31.712 -6.90649 -0.982299 0
M  V30 316 H 27.609 -6.15069 -1.95858 0
M  V30 317 H 28.377 -8.09275 -1.22542 0
M  V30 318 N 31.0401 0.771051 -1.3745 0
M  V30 319 C 32.4511 1.34737 -1.29239 0
M  V30 320 C 32.8021 1.96109 0.0596908 0
M  V30 321 O 31.9271 1.93865 0.961534 0
M  V30 322 C 32.5221 2.44973 -2.34037 0
M  V30 323 C 31.0811 2.98372 -2.29458 0
M  V30 324 C 30.2281 1.71595 -2.17831 0
M  V30 325 H 33.1791 0.571256 -1.48062 0
M  V30 326 H 33.2001 3.24471 -1.98744 0
M  V30 327 H 32.7121 2.00276 -3.32432 0
M  V30 328 H 30.8131 3.47443 -1.34589 0
M  V30 329 H 30.9261 3.53939 -3.229 0
M  V30 330 H 29.2901 1.94547 -1.64388 0
M  V30 331 H 30.0731 1.29001 -3.18141 0
M  V30 332 N 32.5182 1.22032 0.997298 0
M  V30 333 C 33.7652 1.04222 1.73621 0
M  V30 334 C 34.0932 -0.423264 1.89839 0
M  V30 335 O 33.3482 -1.3302 1.43542 0
M  V30 336 C 33.6472 1.69345 3.14733 0
M  V30 337 C 33.3132 3.19226 3.18442 0
M  V30 338 C 31.9752 3.60124 3.19161 0
M  V30 339 C 34.3272 4.15181 3.15078 0
M  V30 340 C 31.6552 4.95467 3.14212 0
M  V30 341 C 34.0072 5.50495 3.1167 0
M  V30 342 C 32.6712 5.90779 3.10703 0
M  V30 343 H 31.9412 0.381374 0.635323 0
M  V30 344 H 34.5882 1.51732 1.16831 0
M  V30 345 H 32.8932 1.14147 3.74803 0
M  V30 346 H 34.5902 1.53059 3.7064 0
M  V30 347 H 31.1802 2.86659 3.18629 0
M  V30 348 H 35.3642 3.84605 3.13676 0
M  V30 349 H 30.6202 5.25916 3.11805 0
M  V30 350 H 34.7942 6.24576 3.08022 0
M  V30 351 H 32.4212 6.9562 3.06622 0
M  V30 352 N 33.9963 -1.19345 1.0293 0
M  V30 353 C 34.9293 -2.21347 0.555029 0
M  V30 354 C 35.9073 -1.57492 -0.404351 0
M  V30 355 O 37.0913 -1.85741 -0.321352 0
M  V30 356 C 34.2183 -3.38163 -0.19064 0
M  V30 357 C 33.2643 -4.20375 0.720236 0
M  V30 358 S 34.0973 -4.88371 2.19668 0
M  V30 359 C 35.2533 -6.08597 1.46153 0
M  V30 360 H 35.4863 -2.61235 1.41929 0
M  V30 361 H 33.0193 -1.29598 0.839272 0
M  V30 362 H 34.9773 -4.05871 -0.614724 0
M  V30 363 H 33.6383 -2.9671 -1.03063 0
M  V30 364 H 32.8313 -5.03793 0.14455 0
M  V30 365 H 32.4333 -3.57987 1.08266 0
M  V30 366 H 34.7253 -6.73354 0.748357 0
M  V30 367 H 35.6683 -6.7065 2.27233 0
M  V30 368 H 36.0763 -5.56297 0.958842 0
M  V30 369 N 35.4744 -0.807222 -1.35358 0
M  V30 370 C 36.7044 -0.399796 -2.02695 0
M  V30 371 C 37.1124 0.994176 -1.60974 0
M  V30 372 O 36.4554 1.65209 -0.803226 0
M  V30 373 C 36.5174 -0.404445 -3.57218 0
M  V30 374 C 36.1814 -1.74904 -4.22206 0
M  V30 375 C 37.1784 -2.70743 -4.4384 0
M  V30 376 C 34.8634 -2.03322 -4.5931 0
M  V30 377 C 36.8574 -3.93183 -5.01683 0
M  V30 378 C 34.5444 -3.26026 -5.16866 0
M  V30 379 C 35.5424 -4.20774 -5.37994 0
M  V30 380 O 35.2304 -5.41312 -5.94337 0
M  V30 381 H 34.9624 -0.160517 -0.656666 0
M  V30 382 H 37.5164 -1.09235 -1.73945 0
M  V30 383 H 35.7464 0.344707 -3.85161 0
M  V30 384 H 37.4354 -0.0192429 -4.05895 0
M  V30 385 H 38.2014 -2.5008 -4.15554 0
M  V30 386 H 34.0804 -1.30384 -4.42178 0
M  V30 387 H 37.6244 -4.6715 -5.1809 0
M  V30 388 H 33.5214 -3.46559 -5.44579 0
M  V30 389 H 34.2894 -5.42618 -6.12787 0
M  V30 390 N 36.9525 1.47285 -0.560781 0
M  V30 391 C 38.2005 2.02064 -0.0379868 0
M  V30 392 C 38.5215 1.43711 1.31803 0
M  V30 393 O 37.7915 0.61362 1.86042 0
M  V30 394 H 36.3715 0.746918 -0.0110531 0
M  V30 395 H 39.0335 1.80648 -0.731598 0
M  V30 396 H 38.1295 3.12064 0.0474463 0
M  V30 397 N 38.4306 0.297415 1.54768 0
M  V30 398 C 39.3636 -0.622188 2.19554 0
M  V30 399 C 40.3416 -1.13558 1.16376 0
M  V30 400 O 41.5256 -1.20444 1.45002 0
M  V30 401 C 38.6526 -1.8509 2.83653 0
M  V30 402 C 37.6986 -1.47106 4.00328 0
M  V30 403 S 38.5316 -0.53006 5.3287 0
M  V30 404 C 39.6876 -1.76665 6.0045 0
M  V30 405 H 39.9206 -0.0717806 2.97213 0
M  V30 406 H 37.4536 0.0815678 1.54184 0
M  V30 407 H 39.4116 -2.55605 3.21211 0
M  V30 408 H 38.0726 -2.37247 2.05846 0
M  V30 409 H 37.2656 -2.38594 4.43947 0
M  V30 410 H 36.8676 -0.845885 3.64309 0
M  V30 411 H 39.1596 -2.7077 6.21039 0
M  V30 412 H 40.1026 -1.37308 6.9466 0
M  V30 413 H 40.5106 -1.94174 5.30054 0
M  V30 414 N 39.9087 -1.5758 0.0250728 0
M  V30 415 C 41.1337 -1.96337 -0.668317 0
M  V30 416 C 41.5587 -0.901314 -1.651 0
M  V30 417 O 40.9167 0.138187 -1.80773 0
M  V30 418 C 40.9647 -3.34191 -1.35457 0
M  V30 419 O 40.0687 -3.30269 -2.46974 0
M  V30 420 H 39.4097 -0.640281 -0.175887 0
M  V30 421 H 41.9397 -2.0442 0.0857224 0
M  V30 422 H 41.9497 -3.70331 -1.71228 0
M  V30 423 H 40.6247 -4.11036 -0.634218 0
M  V30 424 H 39.2017 -3.05841 -2.13344 0
M  V30 425 N 41.3868 0.248026 -1.55636 0
M  V30 426 C 42.3348 1.32683 -1.91045 0
M  V30 427 C 43.3288 1.49883 -0.789401 0
M  V30 428 O 44.5348 1.51371 -0.974007 0
M  V30 429 H 40.9098 0.444272 -0.606734 0
M  V30 430 H 42.8808 1.00085 -2.81115 0
M  V30 431 C 41.6298 2.6755 -2.22064 0
M  V30 432 H 40.9528 2.55114 -3.07826 0
M  V30 433 H 42.3928 3.41912 -2.50743 0
M  V30 434 C 40.8518 3.20556 -1.0366 0
M  V30 435 O 41.3818 4.00695 -0.284016 0
M  V30 436 N 39.5878 2.78568 -0.82753 0
M  V30 437 H 39.1348 2.1351 -1.44123 0
M  V30 438 H 39.0928 3.14378 -0.0369803 0
M  V30 439 N 42.8649 1.48995 0.513639 0
M  V30 440 C 43.7749 1.67443 1.64317 0
M  V30 441 C 44.7909 0.556947 1.64846 0
M  V30 442 O 45.9669 0.830082 1.83498 0
M  V30 443 C 43.0319 1.72515 3.00732 0
M  V30 444 C 42.0929 2.96009 3.1093 0
M  V30 445 C 41.3259 3.00829 4.40837 0
M  V30 446 O 41.5489 2.13594 5.28898 0
M  V30 447 O 40.4829 3.93168 4.55744 0
M  V30 448 H 44.3089 2.63106 1.51687 0
M  V30 449 H 41.8939 1.32588 0.688543 0
M  V30 450 H 43.7759 1.78277 3.81831 0
M  V30 451 H 42.4509 0.800278 3.13651 0
M  V30 452 H 41.3579 2.9577 2.29065 0
M  V30 453 H 42.6909 3.87934 3.02933 0
M  V30 454 N 44.343 -0.763751 1.37857 0
M  V30 455 C 45.253 -1.90817 1.36478 0
M  V30 456 C 46.269 -1.71997 0.263248 0
M  V30 457 O 47.445 -1.95095 0.499979 0
M  V30 458 C 44.51 -3.2605 1.17864 0
M  V30 459 C 43.571 -3.57467 2.3773 0
M  V30 460 C 42.804 -4.86249 2.19995 0
M  V30 461 O 43.027 -5.57884 1.18836 0
M  V30 462 O 41.961 -5.16911 3.08361 0
M  V30 463 H 45.787 -1.94933 2.32884 0
M  V30 464 H 43.372 -0.907619 1.1867 0
M  V30 465 H 45.254 -4.06924 1.09504 0
M  V30 466 H 43.929 -3.22769 0.245372 0
M  V30 467 H 42.836 -2.76796 2.51664 0
M  V30 468 H 44.169 -3.655 3.29652 0
M  V30 469 N 45.8211 -1.22559 -0.990812 0
M  V30 470 C 47.0511 -1.07623 -1.76355 0
M  V30 471 C 47.4591 0.37601 -1.85426 0
M  V30 472 O 46.8021 1.27228 -1.32509 0
M  V30 473 C 46.8641 -1.61507 -3.21179 0
M  V30 474 C 46.5281 -3.10146 -3.35646 0
M  V30 475 C 47.5251 -4.07553 -3.22796 0
M  V30 476 C 45.2101 -3.49644 -3.60631 0
M  V30 477 C 47.2041 -5.42442 -3.34716 0
M  V30 478 C 44.8911 -4.84682 -3.72192 0
M  V30 479 C 45.8891 -5.8089 -3.59243 0
M  V30 480 O 45.5771 -7.13476 -3.70415 0
M  V30 481 H 45.3091 -0.377745 -0.560611 0
M  V30 482 H 47.8631 -1.62658 -1.25425 0
M  V30 483 H 46.0931 -1.00881 -3.73309 0
M  V30 484 H 47.7821 -1.42202 -3.80175 0
M  V30 485 H 48.5481 -3.78381 -3.03403 0
M  V30 486 H 44.4271 -2.75282 -3.69785 0
M  V30 487 H 47.9711 -6.17518 -3.24526 0
M  V30 488 H 43.8681 -5.13534 -3.91092 0
M  V30 489 H 44.6361 -7.21083 -3.87275 0
M  V30 490 N 47.2992 1.18797 -1.03562 0
M  V30 491 C 48.2472 2.24297 -0.615905 0
M  V30 492 C 49.2412 1.65643 0.354808 0
M  V30 493 O 50.4472 1.78618 0.22265 0
M  V30 494 H 46.8222 0.729909 -0.180934 0
M  V30 495 H 48.7932 2.5701 -1.5162 0
M  V30 496 C 47.5422 3.47698 0.0104735 0
M  V30 497 H 46.8652 3.93125 -0.727509 0
M  V30 498 H 48.3052 4.23159 0.266995 0
M  V30 499 C 46.7642 3.12489 1.25905 0
M  V30 500 O 47.2942 3.25761 2.35038 0
M  V30 501 N 45.5002 2.6686 1.15039 0
M  V30 502 H 45.0472 2.56261 0.262328 0
M  V30 503 H 45.0052 2.43674 1.98672 0
M  V30 504 N 48.7773 0.814389 1.34928 0
M  V30 505 C 49.7243 0.22822 2.29669 0
M  V30 506 C 50.6943 -0.642164 1.53184 0
M  V30 507 O 51.8793 -0.585605 1.81591 0
M  V30 508 C 49.0193 -0.61089 3.3965 0
M  V30 509 C 48.1323 0.280792 4.31086 0
M  V30 510 C 47.2673 -0.567067 5.28165 0
M  V30 511 C 46.3063 0.324531 6.11239 0
M  V30 512 N 45.4433 -0.483756 7.00431 0
M  V30 513 H 50.2833 1.04153 2.79206 0
M  V30 514 H 47.8203 0.525133 1.37407 0
M  V30 515 H 49.7783 -1.11263 4.0209 0
M  V30 516 H 48.4083 -1.38939 2.91369 0
M  V30 517 H 47.4603 0.900688 3.69583 0
M  V30 518 H 48.7723 0.966723 4.89342 0
M  V30 519 H 47.9263 -1.13363 5.96015 0
M  V30 520 H 46.6653 -1.28654 4.70425 0
M  V30 521 H 45.6703 0.903298 5.42329 0
M  V30 522 H 46.8953 1.04198 6.71059 0
M  V30 523 H 44.8413 -1.18706 6.45171 0
M  V30 524 H 44.7583 0.143965 7.55863 0
M  V30 525 H 46.0263 -1.03334 7.7262 0
M  V30 526 N 50.2554 -1.46986 0.568584 0
M  V30 527 C 51.1854 -2.32946 -0.160753 0
M  V30 528 C 52.1664 -1.44487 -0.897631 0
M  V30 529 O 53.3514 -1.73327 -0.875867 0
M  V30 530 C 50.4814 -3.26494 -1.18403 0
M  V30 531 C 49.4354 -4.24282 -0.562895 0
M  V30 532 C 48.7614 -5.07236 -1.69163 0
M  V30 533 C 50.0614 -5.19989 0.490761 0
M  V30 534 H 51.7554 -2.94175 0.556916 0
M  V30 535 H 49.3014 -1.4146 0.26927 0
M  V30 536 H 51.2544 -3.85477 -1.70251 0
M  V30 537 H 49.9784 -2.63343 -1.93179 0
M  V30 538 H 48.6374 -3.66541 -0.0656164 0
M  V30 539 H 48.2854 -4.4048 -2.42871 0
M  V30 540 H 47.9854 -5.7345 -1.28174 0
M  V30 541 H 49.5094 -5.6908 -2.21314 0
M  V30 542 H 50.9234 -5.73271 0.0579047 0
M  V30 543 H 49.3204 -5.94469 0.820165 0
M  V30 544 H 50.3904 -4.64777 1.3824 0
M  V30 545 N 51.7335 -0.305618 -1.54608 0
M  V30 546 C 52.9615 0.304775 -2.04643 0
M  V30 547 C 53.3765 1.47167 -1.18268 0
M  V30 548 O 52.7335 1.81296 -0.209328 0
M  V30 549 C 52.7845 0.756564 -3.53495 0
M  V30 550 O 52.5055 -0.36389 -4.36586 0
M  V30 551 C 54.0065 1.43163 -4.19546 0
M  V30 552 H 51.2265 0.0655481 -0.667791 0
M  V30 553 H 53.7705 -0.446592 -1.99564 0
M  V30 554 H 51.9255 1.45794 -3.58919 0
M  V30 555 H 52.3395 -0.0113121 -5.24499 0
M  V30 556 H 53.8135 1.69886 -5.25207 0
M  V30 557 H 54.2905 2.37318 -3.69563 0
M  V30 558 H 54.8965 0.773307 -4.18211 0
M  V30 559 N 53.2116 1.57565 -0.0334293 0
M  V30 560 C 54.1216 2.13943 0.962572 0
M  V30 561 C 55.1376 1.09276 1.35406 0
M  V30 562 O 56.3136 1.41355 1.4346 0
M  V30 563 C 53.3786 2.65887 2.22497 0
M  V30 564 C 52.4396 3.85286 1.8935 0
M  V30 565 C 51.6726 4.34743 3.09571 0
M  V30 566 O 51.8956 3.83352 4.22371 0
M  V30 567 O 50.8296 5.26538 2.91618 0
M  V30 568 H 54.6556 2.99333 0.513169 0
M  V30 569 H 52.2406 1.4822 0.18743 0
M  V30 570 H 54.1226 2.99346 2.96598 0
M  V30 571 H 52.7976 1.83578 2.6661 0
M  V30 572 H 51.7046 3.56746 1.1262 0
M  V30 573 H 53.0376 4.68771 1.5005 0
M  V30 574 N 54.6897 -0.239769 1.55765 0
M  V30 575 C 55.9667 -0.990056 1.68693 0
M  V30 576 C 56.3467 -2.03107 0.5754 0
M  V30 577 O 55.6947 -2.24604 -0.42017 0
M  V30 578 C 55.9047 -1.61696 3.09282 0
M  V30 579 C 57.2527 -2.11613 3.6811 0
M  V30 580 O 58.2767 -1.71624 3.12127 0
M  V30 581 O 57.1357 -2.85057 4.66267 0
M  V30 582 H 54.2297 -0.461299 0.686391 0
M  V30 583 H 56.7757 -0.232991 1.68093 0
M  V30 584 H 55.5477 -0.864357 3.81634 0
M  V30 585 H 55.1707 -2.44005 3.13923 0
M  V30 586 N 56.1678 -1.49265 -0.50573 0
M  V30 587 C 57.1148 -1.65585 -1.6078 0
M  V30 588 C 58.0848 -0.497396 -1.58478 0
M  V30 589 O 59.2698 -0.72385 -1.76536 0
M  V30 590 C 56.4098 -1.72408 -2.98948 0
M  V30 591 C 55.5228 -2.99525 -3.11301 0
M  V30 592 C 54.6578 -2.97356 -4.40174 0
M  V30 593 C 53.6968 -4.19074 -4.46143 0
M  V30 594 N 52.8338 -4.14841 -5.66437 0
M  V30 595 H 57.6738 -2.59688 -1.46172 0
M  V30 596 H 55.2108 -1.28761 -0.711261 0
M  V30 597 H 57.1688 -1.74344 -3.79025 0
M  V30 598 H 55.7988 -0.817753 -3.1227 0
M  V30 599 H 54.8508 -3.07222 -2.24318 0
M  V30 600 H 56.1628 -3.89518 -3.11572 0
M  V30 601 H 55.3168 -2.97829 -5.28567 0
M  V30 602 H 54.0558 -2.05133 -4.42461 0
M  V30 603 H 53.0608 -4.1885 -3.56153 0
M  V30 604 H 54.2858 -5.12483 -4.45575 0
M  V30 605 H 52.2318 -3.25453 -5.69575 0
M  V30 606 H 52.1488 -4.98564 -5.68304 0
M  V30 607 H 53.4168 -4.1941 -6.57051 0
M  V30 608 N 57.6459 0.756429 -1.3826 0
M  V30 609 C 58.5929 1.87011 -1.35261 0
M  V30 610 C 59.5629 1.64695 -0.215616 0
M  V30 611 O 60.7479 1.864 -0.407399 0
M  V30 612 C 57.8879 3.24275 -1.18068 0
M  V30 613 C 57.0009 3.58442 -2.41129 0
M  V30 614 C 56.1359 4.84994 -2.16689 0
M  V30 615 C 55.1749 5.11939 -3.35537 0
M  V30 616 N 54.3119 6.29685 -3.10549 0
M  V30 617 H 59.1519 1.8891 -2.30472 0
M  V30 618 H 56.6889 0.923373 -1.14509 0
M  V30 619 H 58.6469 4.03479 -1.06116 0
M  V30 620 H 57.2769 3.21711 -0.264973 0
M  V30 621 H 56.3289 2.74103 -2.63764 0
M  V30 622 H 57.6409 3.74283 -3.29717 0
M  V30 623 H 56.7949 5.72135 -2.01857 0
M  V30 624 H 55.5339 4.71286 -1.25462 0
M  V30 625 H 54.5389 4.23268 -3.50891 0
M  V30 626 H 55.7639 5.27546 -4.27635 0
M  V30 627 H 53.7099 6.17306 -2.21967 0
M  V30 628 H 53.6269 6.46014 -3.92686 0
M  V30 629 H 54.8949 7.19722 -2.99367 0
M  V30 630 N 59.124 1.23083 0.984299 0
M  V30 631 C 60.034 1.02515 2.11016 0
M  V30 632 C 61.05 -0.0291702 1.73976 0
M  V30 633 O 62.226 0.165434 2.00719 0
M  V30 634 C 59.291 0.614673 3.41208 0
M  V30 635 C 58.352 1.74359 3.92297 0
M  V30 636 C 57.585 1.35261 5.16275 0
M  V30 637 O 57.808 0.235136 5.69915 0
M  V30 638 O 56.742 2.17227 5.61334 0
M  V30 639 H 60.568 1.96862 2.31255 0
M  V30 640 H 58.153 1.01753 1.09392 0
M  V30 641 H 60.035 0.396518 4.1953 0
M  V30 642 H 58.71 -0.299851 3.22308 0
M  V30 643 H 57.617 2.01635 3.1511 0
M  V30 644 H 58.95 2.63629 4.15645 0
M  V30 645 N 60.6021 -1.18246 1.0419 0
M  V30 646 C 62.0131 -1.69914 0.773698 0
M  V30 647 C 62.3641 -1.83085 -0.705297 0
M  V30 648 O 61.4891 -1.51123 -1.5489 0
M  V30 649 C 62.0841 -3.08619 1.39784 0
M  V30 650 C 60.6431 -3.57494 1.17792 0
M  V30 651 C 59.7901 -2.34013 1.48773 0
M  V30 652 H 62.7411 -1.02904 1.20816 0
M  V30 653 H 62.7621 -3.71958 0.801714 0
M  V30 654 H 62.2741 -2.99001 2.47426 0
M  V30 655 H 60.3751 -3.72406 0.120295 0
M  V30 656 H 60.4881 -4.40852 1.87581 0
M  V30 657 H 58.8521 -2.37986 0.907463 0
M  V30 658 H 59.6351 -2.27013 2.57527 0
M  V30 659 N 62.0802 -0.821533 -1.34494 0
M  V30 660 C 63.0102 -0.257138 -2.3208 0
M  V30 661 C 63.9912 0.625645 -1.58176 0
M  V30 662 O 65.1762 0.552811 -1.86166 0
M  V30 663 C 62.3062 0.582958 -3.42372 0
M  V30 664 C 61.2602 -0.202571 -4.2752 0
M  V30 665 C 60.5862 0.760179 -5.29269 0
M  V30 666 C 61.8862 -1.40998 -5.02908 0
M  V30 667 H 63.5802 -1.07247 -2.79532 0
M  V30 668 H 61.1262 -0.517163 -1.34393 0
M  V30 669 H 63.0792 0.987972 -4.09655 0
M  V30 670 H 61.8032 1.43133 -2.93565 0
M  V30 671 H 60.4622 -0.588936 -3.61838 0
M  V30 672 H 60.1102 1.60447 -4.76724 0
M  V30 673 H 59.8102 0.238809 -5.87115 0
M  V30 674 H 61.3342 1.16308 -5.9942 0
M  V30 675 H 62.7482 -1.07905 -5.63054 0
M  V30 676 H 61.1452 -1.86689 -5.70322 0
M  V30 677 H 62.2152 -2.1889 -4.32684 0
M  V30 678 N 63.5583 1.46682 -0.576371 0
M  V30 679 C 64.4883 2.33028 0.148397 0
M  V30 680 C 65.4693 1.44961 0.889956 0
M  V30 681 O 66.6543 1.73789 0.866662 0
M  V30 682 C 63.7843 3.27117 1.1667 0
M  V30 683 C 62.7383 4.24575 0.540386 0
M  V30 684 C 62.0643 5.08126 1.6647 0
M  V30 685 C 63.3643 5.19722 -0.518331 0
M  V30 686 H 65.0583 2.93875 -0.572509 0
M  V30 687 H 62.6043 1.41315 -0.276768 0
M  V30 688 H 64.5573 3.86374 1.68204 0
M  V30 689 H 63.2813 2.64364 1.9178 0
M  V30 690 H 61.9403 3.66571 0.0461769 0
M  V30 691 H 61.5883 4.41762 2.40531 0
M  V30 692 H 61.2883 5.74122 1.25131 0
M  V30 693 H 62.8123 5.70246 2.18293 0
M  V30 694 H 64.2263 5.73232 -0.0883058 0
M  V30 695 H 62.6233 5.94026 -0.851679 0
M  V30 696 H 63.6933 4.64037 -1.40703 0
M  V30 697 N 65.0364 0.313813 1.54444 0
M  V30 698 C 65.9844 -0.572171 2.25453 0
M  V30 699 C 66.9784 -1.12657 1.2651 0
M  V30 700 O 68.1844 -1.07573 1.44319 0
M  V30 701 H 64.5594 -0.203146 0.724041 0
M  V30 702 H 66.5304 0.0491145 2.9836 0
M  V30 703 C 65.2794 -1.72626 3.0182 0
M  V30 704 H 64.6024 -1.30891 3.77767 0
M  V30 705 H 66.0424 -2.32199 3.54767 0
M  V30 706 C 64.5014 -2.63806 2.09542 0
M  V30 707 O 65.0314 -3.65256 1.67185 0
M  V30 708 N 63.2374 -2.31824 1.75232 0
M  V30 709 H 62.7844 -1.49368 2.09873 0
M  V30 710 H 62.7424 -2.93095 1.13767 0
M  V30 711 N 66.5145 -1.57545 0.0417849 0
M  V30 712 C 67.4615 -2.10977 -0.935805 0
M  V30 713 C 68.4315 -1.01486 -1.31491 0
M  V30 714 O 69.6165 -1.2898 -1.40602 0
M  V30 715 C 66.7565 -2.65169 -2.2086 0
M  V30 716 C 65.8695 -3.88714 -1.88482 0
M  V30 717 C 65.0045 -4.31254 -3.1015 0
M  V30 718 C 64.0435 -5.47524 -2.7365 0
M  V30 719 N 63.1805 -5.85162 -3.87982 0
M  V30 720 H 68.0205 -2.94218 -0.473249 0
M  V30 721 H 65.5575 -1.45415 -0.221981 0
M  V30 722 H 67.5155 -2.94685 -2.95325 0
M  V30 723 H 66.1455 -1.8474 -2.64709 0
M  V30 724 H 65.1975 -3.65849 -1.04205 0
M  V30 725 H 66.5095 -4.73245 -1.57608 0
M  V30 726 H 65.6635 -4.62273 -3.92923 0
M  V30 727 H 64.4025 -3.45516 -3.44195 0
M  V30 728 H 63.4075 -5.16187 -1.89291 0
M  V30 729 H 64.6325 -6.34971 -2.40807 0
M  V30 730 H 62.5785 -5.02377 -4.21846 0
M  V30 731 H 62.4955 -6.64362 -3.60775 0
M  V30 732 H 63.7635 -6.20791 -4.71422 0
M  V30 733 N 67.9926 0.231505 -1.5589 0
M  V30 734 C 69.2396 0.957352 -1.78441 0
M  V30 735 C 69.5676 1.84726 -0.60882 0
M  V30 736 O 68.8226 1.91416 0.40725 0
M  V30 737 C 69.1216 1.83577 -3.0665 0
M  V30 738 C 68.7876 1.09993 -4.37278 0
M  V30 739 C 67.4496 0.896629 -4.72773 0
M  V30 740 C 69.8016 0.579558 -5.17968 0
M  V30 741 C 67.1296 0.160896 -5.86479 0
M  V30 742 C 69.4816 -0.142783 -6.32439 0
M  V30 743 C 68.1456 -0.357427 -6.66542 0
M  V30 744 H 67.4156 0.35032 -0.65296 0
M  V30 745 H 70.0626 0.226259 -1.90159 0
M  V30 746 H 68.3676 2.63441 -2.90011 0
M  V30 747 H 70.0646 2.39934 -3.21298 0
M  V30 748 H 66.6546 1.26835 -4.09403 0
M  V30 749 H 70.8386 0.724125 -4.90989 0
M  V30 750 H 66.0946 -0.0157293 -6.11398 0
M  V30 751 H 70.2686 -0.553559 -6.94196 0
M  V30 752 H 67.8956 -0.929466 -7.54497 0
M  V30 753 N 69.4707 1.49531 0.497807 0
M  V30 754 C 70.4027 1.62559 1.61578 0
M  V30 755 C 71.4157 0.508134 1.54667 0
M  V30 756 O 72.6047 0.780309 1.60541 0
M  V30 757 C 69.7047 1.56925 3.00379 0
M  V30 758 C 68.8777 2.84257 3.3244 0
M  V30 759 C 67.9367 2.71632 4.50669 0
M  V30 760 O 66.9627 3.4557 4.52294 0
M  V30 761 N 68.1647 1.83391 5.5077 0
M  V30 762 H 70.9297 2.58981 1.50828 0
M  V30 763 H 68.4907 1.4666 0.685743 0
M  V30 764 H 70.4827 1.46129 3.77397 0
M  V30 765 H 69.0527 0.683483 3.05037 0
M  V30 766 H 68.2727 3.09381 2.44289 0
M  V30 767 H 69.5607 3.68666 3.5066 0
M  V30 768 H 68.9587 1.22583 5.52259 0
M  V30 769 H 67.5157 1.78515 6.26878 0
M  V30 770 N 70.9488 -0.749086 1.3866 0
M  V30 771 C 72.1978 -1.50371 1.3443 0
M  V30 772 C 72.5108 -1.95503 -0.0616397 0
M  V30 773 O 73.7168 -2.70554 -0.226489 0
M  V30 774 C 72.1728 -2.71644 2.36088 0
M  V30 775 C 71.7808 -2.3352 3.82325 0
M  V30 776 C 73.5248 -3.49518 2.40909 0
M  V30 777 C 71.4318 -3.51431 4.75658 0
M  V30 778 H 70.3618 -0.564628 0.499712 0
M  V30 779 H 73.0128 -0.818449 1.64237 0
M  V30 780 H 71.3948 -3.42175 1.9933 0
M  V30 781 H 72.5688 -1.70627 4.28046 0
M  V30 782 H 70.8838 -1.6877 3.80665 0
M  V30 783 H 73.4808 -4.37197 3.07836 0
M  V30 784 H 73.8238 -3.90992 1.42937 0
M  V30 785 H 74.3568 -2.86005 2.76489 0
M  V30 786 H 71.0958 -3.15019 5.74842 0
M  V30 787 H 70.6158 -4.13352 4.34627 0
M  V30 788 H 72.2948 -4.17953 4.93887 0
M  V30 789 N 72.4269 -1.23603 -0.977757 0
M  V30 790 C 73.6549 -1.09646 -1.75458 0
M  V30 791 C 74.0699 0.351859 -1.85492 0
M  V30 792 O 73.4269 1.24327 -1.336 0
M  V30 793 C 73.4779 -1.71895 -3.18016 0
M  V30 794 O 73.1989 -3.11063 -3.08498 0
M  V30 795 C 74.6999 -1.63415 -4.12081 0
M  V30 796 H 71.9199 -0.38359 -0.550545 0
M  V30 797 H 74.4639 -1.63507 -1.22824 0
M  V30 798 H 72.6189 -1.22061 -3.67668 0
M  V30 799 H 73.0329 -3.41305 -3.9826 0
M  V30 800 H 74.5069 -2.11669 -5.09804 0
M  V30 801 H 74.9839 -0.593462 -4.35172 0
M  V30 802 H 75.5899 -2.12628 -3.68334 0
M  V30 803 N 73.905 1.17692 -1.04816 0
M  V30 804 C 75.133 1.91786 -0.776254 0
M  V30 805 C 75.548 1.76604 0.667577 0
M  V30 806 O 74.905 1.10067 1.45573 0
M  V30 807 C 74.956 3.42967 -1.14263 0
M  V30 808 O 74.677 3.57678 -2.52978 0
M  V30 809 C 76.178 4.34144 -0.896311 0
M  V30 810 H 73.398 0.608624 -0.282519 0
M  V30 811 H 75.942 1.49268 -1.39783 0
M  V30 812 H 74.097 3.83245 -0.565874 0
M  V30 813 H 74.511 4.51319 -2.67229 0
M  V30 814 H 75.985 5.38744 -1.20244 0
M  V30 815 H 76.462 4.38876 0.168636 0
M  V30 816 H 77.068 3.99574 -1.45672 0
M  V30 817 N 75.3831 0.828654 1.34056 0
M  V30 818 C 76.6081 0.431637 2.02859 0
M  V30 819 C 77.0331 -0.956339 1.61975 0
M  V30 820 O 76.3911 -1.62338 0.807228 0
M  V30 821 C 76.4391 0.548323 3.56407 0
M  V30 822 O 75.5431 -0.429556 4.10157 0
M  V30 823 H 74.8841 0.176886 0.640006 0
M  V30 824 H 77.4141 1.12066 1.71179 0
M  V30 825 H 77.4241 0.426196 4.05768 0
M  V30 826 H 76.0991 1.5606 3.8551 0
M  V30 827 H 74.6761 -0.265836 3.71951 0
M  V30 828 N 76.8612 -1.46375 0.584142 0
M  V30 829 C 78.2722 -1.86031 0.157959 0
M  V30 830 C 78.6232 -1.48753 -1.27933 0
M  V30 831 O 77.7482 -0.903098 -1.96655 0
M  V30 832 C 78.3432 -3.37642 0.279892 0
M  V30 833 C 76.9022 -3.76289 -0.09143 0
M  V30 834 C 76.0492 -2.7039 0.615178 0
M  V30 835 H 79.0002 -1.37509 0.792274 0
M  V30 836 H 79.0212 -3.77275 -0.494364 0
M  V30 837 H 78.5332 -3.64742 1.32607 0
M  V30 838 H 76.6342 -3.54806 -1.13769 0
M  V30 839 H 76.7472 -4.78246 0.285886 0
M  V30 840 H 75.1112 -2.5464 0.0552833 0
M  V30 841 H 75.8942 -3.0033 1.66303 0
M  V30 842 N 78.3393 -0.321999 -1.54275 0
M  V30 843 C 79.5873 0.280489 -2.00144 0
M  V30 844 C 79.9083 1.52777 -1.21178 0
M  V30 845 O 79.1783 1.9338 -0.313187 0
M  V30 846 H 77.7583 0.106632 -0.73935 0
M  V30 847 H 80.4203 -0.438184 -1.8991 0
M  V30 848 H 79.5163 0.537972 -3.07428 0
M  V30 849 N 79.8174 1.5752 -0.0501392 0
M  V30 850 C 81.0424 1.97376 0.636997 0
M  V30 851 C 81.4674 0.927466 1.63645 0
M  V30 852 O 80.8254 -0.10941 1.8097 0
M  V30 853 C 80.8734 3.36304 1.30123 0
M  V30 854 O 79.9774 3.34156 2.41689 0
M  V30 855 H 79.3184 0.642998 0.165679 0
M  V30 856 H 81.8484 2.04258 -0.118233 0
M  V30 857 H 81.8584 3.73008 1.65315 0
M  V30 858 H 80.5334 4.11993 0.568746 0
M  V30 859 H 79.1104 3.09196 2.08451 0
M  V30 860 N 81.2955 -0.223234 1.56011 0
M  V30 861 C 82.5235 -0.964812 1.83027 0
M  V30 862 C 82.9385 -1.78013 0.62904 0
M  V30 863 O 82.2955 -1.78008 -0.402414 0
M  V30 864 C 82.3465 -1.88373 3.08542 0
M  V30 865 O 82.0675 -1.10137 4.2403 0
M  V30 866 C 83.5685 -2.73934 3.48533 0
M  V30 867 H 80.7885 -0.282842 0.608475 0
M  V30 868 H 83.3325 -0.238971 2.03099 0
M  V30 869 H 81.4875 -2.56354 2.9045 0
M  V30 870 H 81.9015 -1.72501 4.95322 0
M  V30 871 H 83.3755 -3.34117 4.39397 0
M  V30 872 H 83.8525 -3.46244 2.70207 0
M  V30 873 H 84.4585 -2.11369 3.69057 0
M  V30 874 N 82.7736 -1.49793 -0.48987 0
M  V30 875 C 83.7056 -1.63413 -1.60713 0
M  V30 876 C 84.7186 -0.516329 -1.54395 0
M  V30 877 O 85.9076 -0.788812 -1.60125 0
M  V30 878 C 83.0076 -1.58516 -2.99543 0
M  V30 879 C 82.1806 -2.86016 -3.30928 0
M  V30 880 C 81.2396 -2.74018 -4.49222 0
M  V30 881 O 80.2656 -3.47964 -4.50455 0
M  V30 882 N 81.4676 -1.86309 -5.4979 0
M  V30 883 H 84.2326 -2.59777 -1.49452 0
M  V30 884 H 81.7936 -1.47022 -0.677955 0
M  V30 885 H 83.7856 -1.48128 -3.76617 0
M  V30 886 H 82.3556 -0.69965 -3.0467 0
M  V30 887 H 81.5756 -3.10672 -2.42645 0
M  V30 888 H 82.8636 -3.70521 -3.487 0
M  V30 889 H 82.2616 -1.2551 -5.51601 0
M  V30 890 H 80.8186 -1.81837 -6.25922 0
M  V30 891 N 84.2517 0.741722 -1.39055 0
M  V30 892 C 85.1987 1.85566 -1.37237 0
M  V30 893 C 86.1687 1.64457 -0.233072 0
M  V30 894 O 87.3537 1.85957 -0.427147 0
M  V30 895 C 84.4937 3.23004 -1.215 0
M  V30 896 C 83.6067 3.55864 -2.44918 0
M  V30 897 C 82.7417 4.82669 -2.21821 0
M  V30 898 C 81.7807 5.08351 -3.40948 0
M  V30 899 N 80.9177 6.26356 -3.17211 0
M  V30 900 H 85.7577 1.86455 -2.32462 0
M  V30 901 H 83.2947 0.911176 -1.15482 0
M  V30 902 H 85.2527 4.02331 -1.10389 0
M  V30 903 H 83.8827 3.21411 -0.29908 0
M  V30 904 H 82.9347 2.7129 -2.66657 0
M  V30 905 H 84.2467 3.70765 -3.33668 0
M  V30 906 H 83.4007 5.69962 -2.07914 0
M  V30 907 H 82.1397 4.69929 -1.30454 0
M  V30 908 H 81.1447 4.19522 -3.55361 0
M  V30 909 H 82.3697 5.22981 -4.33207 0
M  V30 910 H 80.3157 6.14917 -2.28502 0
M  V30 911 H 80.2327 6.41813 -3.99515 0
M  V30 912 H 81.5007 7.16506 -3.06984 0
M  V30 913 N 85.7298 1.2412 0.971189 0
M  V30 914 C 86.9788 1.07284 1.70801 0
M  V30 915 C 87.2918 -0.388902 1.91695 0
M  V30 916 O 88.4978 -0.677379 2.62914 0
M  V30 917 C 86.9538 1.87145 3.07416 0
M  V30 918 C 86.5618 3.37707 2.94377 0
M  V30 919 C 88.3058 1.78828 3.84995 0
M  V30 920 C 86.2128 4.09925 4.26281 0
M  V30 921 H 85.1428 0.397854 0.64049 0
M  V30 922 H 87.7938 1.4817 1.0825 0
M  V30 923 H 86.1758 1.39071 3.70777 0
M  V30 924 H 87.3498 3.93335 2.4005 0
M  V30 925 H 85.6648 3.46938 2.30267 0
M  V30 926 H 88.2618 2.30089 4.82662 0
M  V30 927 H 88.6048 0.75284 4.09436 0
M  V30 928 H 89.1378 2.24563 3.28354 0
M  V30 929 H 85.8768 5.13813 4.07033 0
M  V30 930 H 85.3968 3.59083 4.80437 0
M  V30 931 H 87.0758 4.1673 4.94919 0
M  V30 932 N 87.2079 -1.17134 1.05439 0
M  V30 933 C 88.1379 -2.2342 0.678649 0
M  V30 934 C 89.1189 -1.66971 -0.32476 0
M  V30 935 O 90.3039 -1.93149 -0.201802 0
M  V30 936 C 87.4339 -3.47256 0.0552099 0
M  V30 937 C 86.3879 -4.16543 0.98365 0
M  V30 938 C 85.7139 -5.34231 0.223961 0
M  V30 939 C 87.0139 -4.68495 2.3089 0
M  V30 940 H 88.7079 -2.55105 1.56722 0
M  V30 941 H 86.2539 -1.2262 0.754998 0
M  V30 942 H 88.2069 -4.20828 -0.21946 0
M  V30 943 H 86.9309 -3.14846 -0.868319 0
M  V30 944 H 85.5899 -3.44887 1.24293 0
M  V30 945 H 85.2379 -4.98071 -0.702412 0
M  V30 946 H 84.9379 -5.81527 0.842627 0
M  V30 947 H 86.4619 -6.10585 -0.0433671 0
M  V30 948 H 87.8759 -5.33691 2.09396 0
M  V30 949 H 86.2729 -5.26379 2.88176 0
M  V30 950 H 87.3429 -3.85169 2.94572 0
M  V30 951 N 88.686 -0.835752 -1.33615 0
M  V30 952 C 89.914 -0.443344 -2.02094 0
M  V30 953 C 90.329 0.954522 -1.62894 0
M  V30 954 O 89.686 1.61982 -0.840723 0
M  V30 955 C 89.737 -0.550775 -3.5728 0
M  V30 956 O 89.458 -1.89356 -3.95065 0
M  V30 957 C 90.959 -0.154919 -4.43029 0
M  V30 958 H 88.179 -0.176359 -0.647409 0
M  V30 959 H 90.723 -1.12746 -1.70612 0
M  V30 960 H 88.878 0.0853997 -3.87306 0
M  V30 961 H 89.292 -1.87687 -4.89769 0
M  V30 962 H 90.766 -0.281144 -5.51284 0
M  V30 963 H 91.243 0.902863 -4.2982 0
M  V30 964 H 91.849 -0.765404 -4.18356 0
M  V30 965 N 90.1641 1.46063 -0.591896 0
M  V30 966 C 91.1271 2.28854 0.125973 0
M  V30 967 C 92.1271 1.38903 0.810107 0
M  V30 968 O 93.3171 1.61186 0.66066 0
M  V30 969 C 90.4491 3.19526 1.1881 0
M  V30 970 H 91.6421 2.93802 -0.601717 0
M  V30 971 H 89.1951 1.52325 -0.350254 0
M  V30 972 H 89.9301 2.59345 1.94707 0
M  V30 973 H 89.7151 3.85766 0.701936 0
M  V30 974 H 91.2051 3.81817 1.69132 0
M  V30 975 N 91.6422 0.330177 1.54103 0
M  V30 976 C 92.5752 -0.575477 2.20825 0
M  V30 977 C 93.5532 -1.11064 1.18758 0
M  V30 978 O 94.7372 -1.17341 1.47524 0
M  V30 979 C 91.8642 -1.79032 2.87516 0
M  V30 980 C 90.9102 -1.38581 4.03358 0
M  V30 981 S 91.7432 -0.416911 5.33875 0
M  V30 982 C 92.8992 -1.63889 6.04062 0
M  V30 983 H 93.1322 -0.00872114 2.97299 0
M  V30 984 H 90.6652 0.114254 1.53977 0
M  V30 985 H 92.6232 -2.48734 3.2656 0
M  V30 986 H 91.2842 -2.32827 2.10832 0
M  V30 987 H 90.4772 -2.29123 4.48908 0
M  V30 988 H 90.0792 -0.768419 3.66021 0
M  V30 989 H 92.3712 -2.57536 6.26643 0
M  V30 990 H 93.3142 -1.22542 6.97416 0
M  V30 991 H 93.7222 -1.82887 5.34053 0
M  V30 992 N 93.1203 -1.57491 0.0584922 0
M  V30 993 C 94.3693 -1.92155 -0.613146 0
M  V30 994 C 94.6823 -0.939334 -1.71569 0
M  V30 995 O 95.8883 -1.17829 -2.44599 0
M  V30 996 C 94.3443 -3.41303 -1.14195 0
M  V30 997 C 93.9523 -4.47944 -0.0711265 0
M  V30 998 C 95.6963 -3.84988 -1.78841 0
M  V30 999 C 93.6033 -5.88212 -0.613225 0
M  V30 1000 H 92.5333 -0.717162 -0.232796 0
M  V30 1001 H 95.1843 -1.83049 0.12857 0
M  V30 1002 H 93.5663 -3.45437 -1.93621 0
M  V30 1003 H 94.7403 -4.55408 0.702836 0
M  V30 1004 H 93.0553 -4.13644 0.478313 0
M  V30 1005 H 95.6523 -4.87159 -2.20408 0
M  V30 1006 H 95.9953 -3.21632 -2.64308 0
M  V30 1007 H 96.5283 -3.83401 -1.06059 0
M  V30 1008 H 93.2673 -6.55183 0.203978 0
M  V30 1009 H 92.7873 -5.84294 -1.35501 0
M  V30 1010 H 94.4663 -6.37687 -1.09383 0
M  V30 1011 N 94.5984 0.214957 -1.56127 0
M  V30 1012 C 95.8464 0.936518 -1.79091 0
M  V30 1013 C 96.1674 1.84606 -0.628148 0
M  V30 1014 O 95.4374 1.92664 0.35462 0
M  V30 1015 H 94.0174 0.3488 -0.660566 0
M  V30 1016 H 96.6794 0.22523 -1.93594 0
M  V30 1017 H 95.7754 1.53943 -2.71492 0
M  V30 1018 N 96.0765 1.50051 0.48192 0
M  V30 1019 C 97.0065 1.71046 1.58951 0
M  V30 1020 C 97.9875 0.559288 1.60642 0
M  V30 1021 O 99.1725 0.797243 1.77081 0
M  V30 1022 C 96.3025 1.79462 2.97339 0
M  V30 1023 C 95.2565 2.94558 3.10515 0
M  V30 1024 C 94.5825 2.88105 4.50444 0
M  V30 1025 C 95.8825 4.35227 2.88747 0
M  V30 1026 H 97.5765 2.6378 1.41635 0
M  V30 1027 H 95.1225 1.26936 0.679942 0
M  V30 1028 H 97.0755 1.92734 3.74742 0
M  V30 1029 H 95.7995 0.833412 3.15788 0
M  V30 1030 H 94.4585 2.80918 2.35543 0
M  V30 1031 H 94.1065 1.89853 4.65795 0
M  V30 1032 H 93.8065 3.65366 4.60197 0
M  V30 1033 H 95.3305 3.03412 5.29881 0
M  V30 1034 H 96.7445 4.49449 3.55905 0
M  V30 1035 H 95.1415 5.13856 3.09955 0
M  V30 1036 H 96.2115 4.48347 1.84696 0
M  V30 1037 N 97.5546 -0.734337 1.39446 0
M  V30 1038 C 98.5026 -1.86971 1.38364 0
M  V30 1039 C 99.4966 -1.67288 0.266687 0
M  V30 1040 O 100.703 -1.74621 0.436755 0
M  V30 1041 H 97.0776 -0.615474 0.432082 0
M  V30 1042 H 99.0486 -1.85 2.34132 0
M  V30 1043 C 97.7976 -3.2466 1.24465 0
M  V30 1044 H 97.1206 -3.40402 2.09682 0
M  V30 1045 H 98.5606 -4.04292 1.27764 0
M  V30 1046 C 97.0196 -3.36867 -0.0468674 0
M  V30 1047 O 97.5496 -3.88618 -1.01681 0
M  V30 1048 N 95.7556 -2.90391 -0.110145 0
M  V30 1049 H 95.3026 -2.48466 0.679868 0
M  V30 1050 H 95.2606 -2.98939 -0.973799 0
M  V30 1051 N 99.0327 -1.24633 -0.964593 0
M  V30 1052 C 99.9807 -1.03917 -2.08096 0
M  V30 1053 C 100.975 0.0268581 -1.69379 0
M  V30 1054 O 102.181 -0.127952 -1.79545 0
M  V30 1055 H 98.5557 -0.319044 -0.680966 0
M  V30 1056 H 100.527 -1.98581 -2.22729 0
M  V30 1057 C 99.2757 -0.663983 -3.41301 0
M  V30 1058 H 98.5987 -1.47605 -3.71555 0
M  V30 1059 H 100.039 -0.558663 -4.20303 0
M  V30 1060 C 98.4977 0.629169 -3.30973 0
M  V30 1061 O 99.0277 1.67404 -3.65156 0
M  V30 1062 N 97.2337 0.611057 -2.84103 0
M  V30 1063 H 96.7807 -0.239593 -2.56483 0
M  V30 1064 H 96.7387 1.47647 -2.77575 0
M  V30 1065 N 100.511 1.16574 -1.06058 0
M  V30 1066 C 101.458 2.20883 -0.669263 0
M  V30 1067 C 102.428 1.62729 0.332918 0
M  V30 1068 O 103.613 1.895 0.222346 0
M  V30 1069 C 100.753 3.45049 -0.0593572 0
M  V30 1070 C 99.8658 4.17458 -1.11143 0
M  V30 1071 C 99.0008 5.29135 -0.467916 0
M  V30 1072 C 98.0398 5.93343 -1.50369 0
M  V30 1073 N 97.1768 6.96516 -0.883706 0
M  V30 1074 H 102.017 2.53709 -1.5632 0
M  V30 1075 H 99.5538 1.24616 -0.781625 0
M  V30 1076 H 101.512 4.16033 0.311771 0
M  V30 1077 H 100.142 3.12781 0.797992 0
M  V30 1078 H 99.1938 3.45101 -1.60029 0
M  V30 1079 H 100.506 4.61307 -1.89731 0
M  V30 1080 H 99.6598 6.06684 -0.0436871 0
M  V30 1081 H 98.3988 4.86443 0.349864 0
M  V30 1082 H 97.4038 5.14517 -1.93784 0
M  V30 1083 H 98.6288 6.38114 -2.32352 0
M  V30 1084 H 96.5748 6.55943 -0.086595 0
M  V30 1085 H 96.4918 7.38723 -1.607 0
M  V30 1086 H 97.7598 7.77993 -0.484543 0
M  V30 1087 N 101.989 0.842826 1.3317 0
M  V30 1088 C 103.217 0.454055 2.01856 0
M  V30 1089 C 103.632 -0.94587 1.63397 0
M  V30 1090 O 102.989 -1.61534 0.849302 0
M  V30 1091 C 103.04 0.569715 3.56982 0
M  V30 1092 O 102.761 1.91448 3.94055 0
M  V30 1093 C 104.262 0.178412 4.42941 0
M  V30 1094 H 101.482 0.17979 0.646465 0
M  V30 1095 H 104.026 1.1365 1.70012 0
M  V30 1096 H 102.181 -0.0648587 3.87346 0
M  V30 1097 H 102.595 1.90282 4.88767 0
M  V30 1098 H 104.069 0.310376 5.51127 0
M  V30 1099 H 104.546 -0.880056 4.30293 0
M  V30 1100 H 105.152 0.787579 4.17944 0
M  V30 1101 N 103.467 -1.45747 0.599634 0
M  V30 1102 C 104.397 -2.33235 -0.111306 0
M  V30 1103 C 105.378 -1.46359 -0.866781 0
M  V30 1104 O 106.563 -1.75146 -0.838904 0
M  V30 1105 C 103.693 -3.28932 -1.11451 0
M  V30 1106 C 102.647 -4.25381 -0.472772 0
M  V30 1107 C 101.973 -5.1071 -1.58365 0
M  V30 1108 C 103.273 -5.18831 0.600948 0
M  V30 1109 H 104.967 -2.92927 0.61919 0
M  V30 1110 H 102.513 -1.40857 0.299215 0
M  V30 1111 H 104.466 -3.89002 -1.62036 0
M  V30 1112 H 103.19 -2.67381 -1.8755 0
M  V30 1113 H 101.849 -3.66598 0.0121472 0
M  V30 1114 H 101.497 -4.45533 -2.33473 0
M  V30 1115 H 101.197 -5.7604 -1.15982 0
M  V30 1116 H 102.721 -5.73647 -2.09194 0
M  V30 1117 H 104.135 -5.73019 0.179491 0
M  V30 1118 H 102.532 -5.92595 0.946076 0
M  V30 1119 H 103.602 -4.6174 1.48068 0
M  V30 1120 N 104.945 -0.338344 -1.53925 0
M  V30 1121 C 106.222 0.314774 -1.93051 0
M  V30 1122 C 106.602 1.68669 -1.26941 0
M  V30 1123 O 105.95 2.24636 -0.418445 0
M  V30 1124 C 106.16 0.392249 -3.46789 0
M  V30 1125 C 107.508 0.645554 -4.19664 0
M  V30 1126 O 108.532 0.474575 -3.53024 0
M  V30 1127 O 107.391 0.976408 -5.37707 0
M  V30 1128 H 104.485 0.182598 -0.80659 0
M  V30 1129 H 107.031 -0.389141 -1.65178 0
M  V30 1130 H 105.803 -0.570702 -3.87116 0
M  V30 1131 H 105.426 1.14316 -3.80812 0
M  V30 1132 N 106.423 1.57458 -0.0668435 0
M  V30 1133 C 107.7 1.8469 0.644132 0
M  V30 1134 C 108.08 0.958343 1.88093 0
M  V30 1135 O 107.428 0.0233579 2.28488 0
M  V30 1136 C 107.638 3.34767 0.986509 0
M  V30 1137 C 108.986 4.02159 1.36212 0
M  V30 1138 O 110.01 3.39484 1.07839 0
M  V30 1139 O 108.869 5.12694 1.89227 0
M  V30 1140 H 105.963 0.762816 0.319437 0
M  V30 1141 H 108.509 1.6942 -0.0973986 0
M  V30 1142 H 107.281 3.91151 0.107883 0
M  V30 1143 H 106.904 3.55281 1.78497 0
M  V30 1144 N 107.901 -0.206675 1.56239 0
M  V30 1145 C 108.848 -1.25617 1.93621 0
M  V30 1146 C 109.818 -1.45824 0.795274 0
M  V30 1147 O 111.003 -1.59148 1.05245 0
M  V30 1148 C 108.143 -2.59839 2.27107 0
M  V30 1149 C 107.256 -2.47308 3.54207 0
M  V30 1150 C 106.391 -3.74155 3.7707 0
M  V30 1151 C 105.43 -3.56407 4.97635 0
M  V30 1152 N 104.567 -4.75238 5.1681 0
M  V30 1153 H 109.407 -0.930383 2.83104 0
M  V30 1154 H 106.944 -0.448065 1.4011 0
M  V30 1155 H 108.902 -3.38021 2.44535 0
M  V30 1156 H 107.532 -2.90485 1.40778 0
M  V30 1157 H 106.584 -1.60483 3.4489 0
M  V30 1158 H 107.896 -2.30122 4.42544 0
M  V30 1159 H 107.05 -4.60778 3.94675 0
M  V30 1160 H 105.789 -3.94282 2.87042 0
M  V30 1161 H 104.794 -2.68168 4.79964 0
M  V30 1162 H 106.019 -3.37736 5.89161 0
M  V30 1163 H 103.965 -4.95651 4.29728 0
M  V30 1164 H 103.882 -4.60835 5.99306 0
M  V30 1165 H 105.15 -5.63246 5.38864 0
M  V30 1166 N 109.379 -1.50304 -0.473955 0
M  V30 1167 C 110.607 -1.64902 -1.24959 0
M  V30 1168 C 111.022 -0.331198 -1.85872 0
M  V30 1169 O 110.379 0.68652 -1.69095 0
M  V30 1170 C 110.43 -2.73803 -2.36038 0
M  V30 1171 O 110.151 -4.00477 -1.77624 0
M  V30 1172 C 111.652 -2.99349 -3.26964 0
M  V30 1173 H 108.872 -0.554383 -0.378022 0
M  V30 1174 H 111.416 -1.9651 -0.566054 0
M  V30 1175 H 109.571 -2.44898 -3.00173 0
M  V30 1176 H 109.985 -4.60678 -2.5075 0
M  V30 1177 H 111.459 -3.79217 -4.01121 0
M  V30 1178 H 111.936 -2.10307 -3.85574 0
M  V30 1179 H 112.542 -3.29774 -2.68569 0
M  V30 1180 N 110.857 0.726932 -1.39834 0
M  V30 1181 C 112.082 1.52121 -1.40976 0
M  V30 1182 C 112.507 1.88098 -0.00826029 0
M  V30 1183 O 111.865 1.52479 0.980807 0
M  V30 1184 C 111.913 2.78021 -2.29644 0
M  V30 1185 O 111.017 3.74272 -1.73188 0
M  V30 1186 H 110.358 0.45908 -0.479731 0
M  V30 1187 H 112.888 0.896207 -1.83927 0
M  V30 1188 H 112.898 3.26671 -2.44438 0
M  V30 1189 H 111.573 2.51169 -3.31492 0
M  V30 1190 H 110.15 3.33073 -1.6768 0
M  V30 1191 N 112.336 1.25143 0.95797 0
M  V30 1192 C 113.566 1.12261 1.73439 0
M  V30 1193 C 113.974 -0.326715 1.86358 0
M  V30 1194 O 113.317 -1.2367 1.35836 0
M  V30 1195 C 113.379 1.69966 3.16784 0
M  V30 1196 C 113.043 3.18936 3.27305 0
M  V30 1197 C 114.04 4.15968 3.11877 0
M  V30 1198 C 111.725 3.59083 3.51234 0
M  V30 1199 C 113.719 5.51126 3.20217 0
M  V30 1200 C 111.406 4.9438 3.5921 0
M  V30 1201 C 112.404 5.90211 3.43716 0
M  V30 1202 O 112.092 7.23046 3.51368 0
M  V30 1203 H 111.824 0.392476 0.550399 0
M  V30 1204 H 114.378 1.65927 1.21068 0
M  V30 1205 H 112.608 1.10744 3.70503 0
M  V30 1206 H 114.297 1.52232 3.76272 0
M  V30 1207 H 115.063 3.86292 2.93264 0
M  V30 1208 H 110.942 2.84989 3.62356 0
M  V30 1209 H 114.486 6.25905 3.0804 0
M  V30 1210 H 110.383 5.23723 3.77339 0
M  V30 1211 H 111.151 7.31097 3.6802 0
M  V30 1212 N 113.814 -1.1601 1.06675 0
M  V30 1213 C 114.761 -2.20525 0.680967 0
M  V30 1214 C 115.731 -1.62904 -0.324283 0
M  V30 1215 O 116.916 -1.89615 -0.212294 0
M  V30 1216 C 114.056 -3.45013 0.0776551 0
M  V30 1217 C 113.169 -4.16863 1.13355 0
M  V30 1218 C 112.304 -5.2888 0.49597 0
M  V30 1219 C 111.343 -5.92537 1.53513 0
M  V30 1220 N 110.48 -6.96038 0.920631 0
M  V30 1221 H 115.32 -2.52876 1.57663 0
M  V30 1222 H 112.857 -1.24199 0.788223 0
M  V30 1223 H 114.815 -4.16193 -0.289704 0
M  V30 1224 H 113.445 -3.132 -0.781393 0
M  V30 1225 H 112.497 -3.44248 1.61857 0
M  V30 1226 H 113.809 -4.60294 1.92174 0
M  V30 1227 H 112.963 -6.06653 0.0758604 0
M  V30 1228 H 111.702 -4.86622 -0.324062 0
M  V30 1229 H 110.707 -5.13482 1.9651 0
M  V30 1230 H 111.932 -6.36873 2.35733 0
M  V30 1231 H 109.878 -6.55888 0.12138 0
M  V30 1232 H 109.795 -7.3786 1.64616 0
M  V30 1233 H 111.063 -7.77725 0.525795 0
M  V30 1234 N 115.292 -0.849877 -1.32721 0
M  V30 1235 C 116.541 -0.447175 -1.96681 0
M  V30 1236 C 116.854 1.00135 -1.68025 0
M  V30 1237 O 118.06 1.50926 -2.25685 0
M  V30 1238 C 116.516 -0.7487 -3.52026 0
M  V30 1239 C 116.124 -2.21264 -3.89546 0
M  V30 1240 C 117.868 -0.413487 -4.22481 0
M  V30 1241 C 115.775 -2.45763 -5.37917 0
M  V30 1242 H 114.705 -0.163486 -0.736063 0
M  V30 1243 H 117.356 -1.03999 -1.51183 0
M  V30 1244 H 115.738 -0.0853727 -3.95908 0
M  V30 1245 H 116.912 -2.91736 -3.56689 0
M  V30 1246 H 115.227 -2.5119 -3.32103 0
M  V30 1247 H 117.824 -0.574017 -5.3161 0
M  V30 1248 H 118.167 0.644492 -4.11281 0
M  V30 1249 H 118.7 -1.03251 -3.84167 0
M  V30 1250 H 115.439 -3.50168 -5.54132 0
M  V30 1251 H 114.959 -1.79864 -5.72197 0
M  V30 1252 H 116.638 -2.29471 -6.0494 0
M  V30 1253 N 116.77 1.45427 -0.607355 0
M  V30 1254 C 118.047 1.9557 -0.0344566 0
M  V30 1255 C 118.427 1.54979 1.43334 0
M  V30 1256 O 117.775 0.812241 2.13576 0
M  V30 1257 C 117.985 3.48226 -0.232321 0
M  V30 1258 C 119.333 4.2445 -0.113001 0
M  V30 1259 O 120.357 3.55829 -0.162431 0
M  V30 1260 O 119.216 5.465 0.00209442 0
M  V30 1261 H 116.31 0.826222 0.0358667 0
M  V30 1262 H 118.856 1.55594 -0.6774 0
M  V30 1263 H 117.628 3.70739 -1.25174 0
M  V30 1264 H 117.251 3.95092 0.445896 0
M  V30 1265 N 118.248 0.346503 1.53744 0
M  V30 1266 C 119.496 -0.248612 2.00565 0
M  V30 1267 C 119.817 -1.5083 1.23593 0
M  V30 1268 O 119.087 -1.92858 0.343912 0
M  V30 1269 H 117.667 -0.0948564 0.740953 0
M  V30 1270 H 120.329 0.468341 1.89189 0
M  V30 1271 H 119.425 -0.488994 3.08245 0
M  V30 1272 N 119.726 -1.57421 0.075193 0
M  V30 1273 C 120.673 -2.12915 -0.890843 0
M  V30 1274 C 121.643 -1.04252 -1.29309 0
M  V30 1275 O 122.828 -1.31933 -1.37834 0
M  V30 1276 C 119.968 -2.69795 -2.15186 0
M  V30 1277 C 119.081 -3.92624 -1.80194 0
M  V30 1278 C 118.216 -4.37736 -3.00933 0
M  V30 1279 C 117.255 -5.53205 -2.61974 0
M  V30 1280 N 116.392 -5.9326 -3.75483 0
M  V30 1281 H 121.232 -2.95156 -0.410735 0
M  V30 1282 H 118.769 -1.45854 -0.191086 0
M  V30 1283 H 120.727 -3.00883 -2.89008 0
M  V30 1284 H 119.357 -1.90313 -2.60731 0
M  V30 1285 H 118.409 -3.67977 -0.964218 0
M  V30 1286 H 119.721 -4.76482 -1.47534 0
M  V30 1287 H 118.875 -4.70503 -3.8303 0
M  V30 1288 H 117.614 -3.52739 -3.36789 0
M  V30 1289 H 116.619 -5.20086 -1.783 0
M  V30 1290 H 117.844 -6.39936 -2.27284 0
M  V30 1291 H 115.79 -5.11212 -4.11094 0
M  V30 1292 H 115.707 -6.71865 -3.46602 0
M  V30 1293 H 116.975 -6.30651 -4.58148 0
M  V30 1294 N 121.204 0.198386 -1.56346 0
M  V30 1295 C 122.452 0.91747 -1.80075 0
M  V30 1296 C 122.773 1.83929 -0.647692 0
M  V30 1297 O 122.043 1.93029 0.334166 0
M  V30 1298 H 120.623 0.341774 -0.664228 0
M  V30 1299 H 123.285 0.204684 -1.93822 0
M  V30 1300 H 122.381 1.51055 -2.7311 0
M  V30 1301 N 122.682 1.50554 0.465978 0
M  V30 1302 C 123.928 1.63006 1.21658 0
M  V30 1303 C 124.283 0.328613 1.89573 0
M  V30 1304 O 123.576 -0.673813 1.79361 0
M  V30 1305 C 123.77 2.75152 2.28093 0
M  V30 1306 C 123.599 4.16075 1.7062 0
M  V30 1307 C 122.369 4.82408 1.50368 0
M  V30 1308 C 124.567 5.00145 1.1983 0
M  V30 1309 N 122.549 6.07532 0.881924 0
M  V30 1310 C 123.92 6.16035 0.700083 0
M  V30 1311 C 125.975 4.85882 1.08733 0
M  V30 1312 C 124.678 7.19228 0.101835 0
M  V30 1313 C 126.704 5.89257 0.503016 0
M  V30 1314 C 126.066 7.04398 0.0152005 0
M  V30 1315 H 122.165 0.650596 0.433877 0
M  V30 1316 H 124.749 1.8769 0.517746 0
M  V30 1317 H 122.92 2.52181 2.95397 0
M  V30 1318 H 124.652 2.76935 2.95109 0
M  V30 1319 H 121.407 4.39788 1.75737 0
M  V30 1320 H 121.831 6.7443 0.589312 0
M  V30 1321 H 126.473 3.97144 1.4504 0
M  V30 1322 H 124.191 8.07637 -0.273426 0
M  V30 1323 H 127.777 5.80286 0.419451 0
M  V30 1324 H 126.657 7.83021 -0.429856 0
M  V30 1325 N 124.16 -0.719506 1.40217 0
M  V30 1326 C 125.092 -1.84428 1.36084 0
M  V30 1327 C 126.105 -1.60597 0.266913 0
M  V30 1328 O 127.294 -1.70544 0.526983 0
M  V30 1329 C 124.394 -3.20757 1.094 0
M  V30 1330 C 123.567 -3.71817 2.30372 0
M  V30 1331 C 122.626 -4.86748 1.99907 0
M  V30 1332 O 121.652 -4.99603 2.72737 0
M  V30 1333 N 122.854 -5.7226 0.974635 0
M  V30 1334 H 125.619 -1.88473 2.33019 0
M  V30 1335 H 123.18 -0.900885 1.3452 0
M  V30 1336 H 125.172 -3.95235 0.870116 0
M  V30 1337 H 123.742 -3.11884 0.211452 0
M  V30 1338 H 122.962 -2.88514 2.68614 0
M  V30 1339 H 124.25 -4.02666 3.11026 0
M  V30 1340 H 123.648 -5.6448 0.371368 0
M  V30 1341 H 122.205 -6.46739 0.810656 0
M  V30 1342 N 125.638 -1.25649 -0.95132 0
M  V30 1343 C 126.585 -1.06323 -2.04851 0
M  V30 1344 C 127.555 0.0286491 -1.66075 0
M  V30 1345 O 128.74 -0.12917 -1.90362 0
M  V30 1346 C 125.88 -0.691529 -3.381 0
M  V30 1347 C 124.993 -1.85861 -3.89974 0
M  V30 1348 C 124.128 -1.43096 -5.11563 0
M  V30 1349 C 123.167 -2.56696 -5.55674 0
M  V30 1350 N 122.304 -2.14684 -6.68472 0
M  V30 1351 H 127.144 -2.00222 -2.20715 0
M  V30 1352 H 124.681 -0.997027 -1.08156 0
M  V30 1353 H 126.639 -0.456963 -4.1469 0
M  V30 1354 H 125.269 0.210474 -3.22113 0
M  V30 1355 H 124.321 -2.20639 -3.09875 0
M  V30 1356 H 125.633 -2.71161 -4.18657 0
M  V30 1357 H 124.787 -1.15624 -5.9558 0
M  V30 1358 H 123.526 -0.548722 -4.84603 0
M  V30 1359 H 122.531 -2.84909 -4.7022 0
M  V30 1360 H 123.756 -3.45503 -5.8464 0
M  V30 1361 H 121.702 -1.28881 -6.43215 0
M  V30 1362 H 121.619 -2.9353 -6.96689 0
M  V30 1363 H 122.887 -1.90397 -7.5589 0
M  V30 1364 N 127.117 1.15442 -1.07289 0
M  V30 1365 C 128.394 1.82306 -0.708792 0
M  V30 1366 C 128.774 1.94991 0.808807 0
M  V30 1367 O 128.122 1.50085 1.72298 0
M  V30 1368 C 128.332 3.18695 -1.42247 0
M  V30 1369 C 129.68 3.94341 -1.57417 0
M  V30 1370 O 130.704 3.28247 -1.38319 0
M  V30 1371 O 129.563 5.12839 -1.88834 0
M  V30 1372 H 126.657 0.787628 -0.252132 0
M  V30 1373 H 129.203 1.22559 -1.17377 0
M  V30 1374 H 127.975 3.04557 -2.45684 0
M  V30 1375 H 127.598 3.86128 -0.948223 0
M  V30 1376 N 128.595 0.856903 1.32268 0
M  V30 1377 C 129.542 0.301172 2.28827 0
M  V30 1378 C 130.512 -0.593104 1.5515 0
M  V30 1379 O 131.697 -0.527537 1.83362 0
M  V30 1380 C 128.837 -0.502523 3.41422 0
M  V30 1381 C 127.95 0.417797 4.29975 0
M  V30 1382 C 127.085 -0.398749 5.29701 0
M  V30 1383 C 126.124 0.518827 6.09897 0
M  V30 1384 N 125.261 -0.260674 7.01616 0
M  V30 1385 H 130.101 1.12983 2.75751 0
M  V30 1386 H 127.638 0.568582 1.35667 0
M  V30 1387 H 129.596 -0.984141 4.05426 0
M  V30 1388 H 128.226 -1.29599 2.95642 0
M  V30 1389 H 127.278 1.01781 3.66531 0
M  V30 1390 H 128.59 1.12191 4.86019 0
M  V30 1391 H 127.744 -0.943435 5.9932 0
M  V30 1392 H 126.483 -1.13622 4.7428 0
M  V30 1393 H 125.488 1.07538 5.39181 0
M  V30 1394 H 126.713 1.25495 6.67404 0
M  V30 1395 H 124.659 -0.981198 6.4862 0
M  V30 1396 H 124.576 0.384364 7.55022 0
M  V30 1397 H 125.844 -0.787014 7.75517 0
M  V30 1398 N 130.073 -1.45103 0.615059 0
M  V30 1399 C 131.298 -2.07064 0.117988 0
M  V30 1400 C 131.723 -1.4554 -1.19163 0
M  V30 1401 O 131.081 -0.550855 -1.72729 0
M  V30 1402 C 131.129 -3.606 -0.000288387 0
M  V30 1403 O 130.233 -3.98847 -1.04856 0
M  V30 1404 H 129.574 -0.659467 0.0774581 0
M  V30 1405 H 132.104 -1.86236 0.847186 0
M  V30 1406 H 132.114 -4.07529 -0.196091 0
M  V30 1407 H 130.789 -4.04765 0.955932 0
M  V30 1408 H 129.366 -3.63577 -0.828619 0
M  V30 1409 N 131.551 -0.354651 -1.53558 0
M  V30 1410 C 132.797 0.231422 -2.02079 0
M  V30 1411 C 133.152 1.47308 -1.23767 0
M  V30 1412 O 132.445 1.8891 -0.319947 0
M  V30 1413 C 132.639 0.587121 -3.52545 0
M  V30 1414 C 132.468 -0.618513 -4.45426 0
M  V30 1415 C 131.238 -1.12724 -4.92566 0
M  V30 1416 C 133.436 -1.48039 -4.92533 0
M  V30 1417 N 131.418 -2.29404 -5.69427 0
M  V30 1418 C 132.789 -2.49397 -5.67628 0
M  V30 1419 C 134.844 -1.50454 -4.74624 0
M  V30 1420 C 133.547 -3.53013 -6.26717 0
M  V30 1421 C 135.573 -2.52958 -5.34571 0
M  V30 1422 C 134.935 -3.5304 -6.09543 0
M  V30 1423 H 131.034 0.0476909 -0.780544 0
M  V30 1424 H 133.618 -0.496727 -1.88257 0
M  V30 1425 H 131.789 1.28436 -3.6655 0
M  V30 1426 H 133.521 1.15734 -3.87799 0
M  V30 1427 H 130.276 -0.693577 -4.68494 0
M  V30 1428 H 130.7 -2.88347 -6.12524 0
M  V30 1429 H 135.342 -0.744356 -4.16196 0
M  V30 1430 H 133.06 -4.2992 -6.84247 0
M  V30 1431 H 136.646 -2.55667 -5.22614 0
M  V30 1432 H 135.526 -4.31056 -6.55103 0
M  V30 1433 N 133.029 1.57378 -0.0835403 0
M  V30 1434 C 134.277 1.93547 0.581718 0
M  V30 1435 C 134.598 0.96524 1.69435 0
M  V30 1436 O 133.868 0.0153369 1.95894 0
M  V30 1437 H 132.448 0.714521 0.217874 0
M  V30 1438 H 135.11 1.94366 -0.144158 0
M  V30 1439 H 134.206 2.95665 0.999423 0
M  V30 1440 N 134.507 -0.190092 1.56449 0
M  V30 1441 C 135.755 -0.907908 1.80559 0
M  V30 1442 C 136.076 -1.83583 0.657438 0
M  V30 1443 O 135.346 -1.93203 -0.323924 0
M  V30 1444 H 133.926 -0.338247 0.666032 0
M  V30 1445 H 136.588 -0.194403 1.93928 0
M  V30 1446 H 135.684 -1.49604 2.73907 0
M  V30 1447 N 135.985 -1.50799 -0.457987 0
M  V30 1448 C 137.215 -1.65977 -1.23025 0
M  V30 1449 C 137.623 -0.347918 -1.85974 0
M  V30 1450 O 136.966 0.68148 -1.70592 0
M  V30 1451 C 137.028 -2.70309 -2.3701 0
M  V30 1452 C 136.692 -4.135 -1.94594 0
M  V30 1453 C 137.689 -4.98949 -1.46101 0
M  V30 1454 C 135.374 -4.5949 -2.02915 0
M  V30 1455 C 137.368 -6.28442 -1.06489 0
M  V30 1456 C 135.055 -5.88984 -1.62914 0
M  V30 1457 C 136.053 -6.73286 -1.1478 0
M  V30 1458 O 135.741 -8.00362 -0.75339 0
M  V30 1459 H 135.473 -0.56064 -0.377702 0
M  V30 1460 H 138.027 -1.97857 -0.551537 0
M  V30 1461 H 136.257 -2.337 -3.08093 0
M  V30 1462 H 137.946 -2.74574 -2.98938 0
M  V30 1463 H 138.712 -4.6463 -1.39084 0
M  V30 1464 H 134.591 -3.94009 -2.39328 0
M  V30 1465 H 138.135 -6.94194 -0.688488 0
M  V30 1466 H 134.032 -6.22822 -1.69595 0
M  V30 1467 H 134.8 -8.13744 -0.88108 0
M  V30 1468 N 137.463 0.71206 -1.40597 0
M  V30 1469 C 138.411 1.84746 -1.41321 0
M  V30 1470 C 139.405 1.66842 -0.293268 0
M  V30 1471 O 140.611 1.73904 -0.464481 0
M  V30 1472 H 136.986 0.608522 -0.441819 0
M  V30 1473 H 138.957 1.81252 -2.37045 0
M  V30 1474 C 137.706 3.22638 -1.29614 0
M  V30 1475 H 137.029 3.37023 -2.15071 0
M  V30 1476 H 138.469 4.02209 -1.3418 0
M  V30 1477 C 136.928 3.36899 -0.00673121 0
M  V30 1478 O 137.458 3.90186 0.954859 0
M  V30 1479 N 135.664 2.9053 0.0639327 0
M  V30 1480 H 135.211 2.47353 -0.719311 0
M  V30 1481 H 135.169 3.0045 0.926118 0
M  V30 1482 N 138.941 1.26152 0.944643 0
M  V30 1483 C 140.187 1.11657 1.69294 0
M  V30 1484 C 140.52 -0.339926 1.91202 0
M  V30 1485 O 139.795 -1.24994 1.49019 0
M  V30 1486 C 140.078 1.88236 3.06984 0
M  V30 1487 C 139.931 3.41772 2.92424 0
M  V30 1488 C 141.25 1.67343 4.07043 0
M  V30 1489 H 138.369 0.407004 0.614424 0
M  V30 1490 H 141.011 1.55106 1.09737 0
M  V30 1491 H 139.161 1.51308 3.57824 0
M  V30 1492 H 140.833 3.88433 2.48832 0
M  V30 1493 H 139.076 3.68974 2.28124 0
M  V30 1494 H 139.747 3.90579 3.90067 0
M  V30 1495 H 142.223 1.99509 3.65151 0
M  V30 1496 H 141.099 2.23346 5.01406 0
M  V30 1497 H 141.36 0.617158 4.37771 0
M  V30 1498 O 140.458 -1.07813 1.20244 0
M  V30 1499 H 141.149 -1.68494 0.955474 0
M  V30 END ATOM
M  V30 BEGIN BOND
M  V30 END BOND
M  V30 END CTAB
M  END
$$$$
