drugbank_target|Q14995 Nuclear receptor subfamily 1 group D member 2 (DB14013; DB14014)
 OpenBabel12092121123D

  0  0  0     0  0            999 V3000
M  V30 BEGIN CTAB
M  V30 COUNTS 8915 9000 0 0 0
M  V30 BEGIN ATOM
M  V30 1 H -0.908 1.98254 -0.117106 0
M  V30 2 N 0 1.576 0 0
M  V30 3 C 0.933 2.03868 1.02534 0
M  V30 4 C 1.911 0.928543 1.3348 0
M  V30 5 O 3.095 1.19667 1.45644 0
M  V30 6 C 0.222 2.43627 2.35294 0
M  V30 7 C -0.732 3.65373 2.2001 0
M  V30 8 S 0.101 5.13292 1.52614 0
M  V30 9 C 1.257 5.56322 2.86805 0
M  V30 10 H 1.49 2.90518 0.631377 0
M  V30 11 H -0.977 1.52953 0.210867 0
M  V30 12 H 0.981 2.67203 3.11629 0
M  V30 13 H -0.358 1.57376 2.7183 0
M  V30 14 H -1.165 3.90944 3.18086 0
M  V30 15 H -1.563 3.418 1.51819 0
M  V30 16 H 0.729 5.58782 3.83104 0
M  V30 17 H 1.672 6.56266 2.65933 0
M  V30 18 H 2.08 4.83886 2.90714 0
M  V30 19 N 1.4781 -0.272755 1.55222 0
M  V30 20 C 2.3881 -1.35918 1.91216 0
M  V30 21 C 3.4041 -1.54026 0.809436 0
M  V30 22 O 4.5801 -1.68148 1.10852 0
M  V30 23 C 1.6451 -2.69834 2.17693 0
M  V30 24 C 0.7061 -2.6047 3.41253 0
M  V30 25 C -0.0609 -3.88 3.66458 0
M  V30 26 O 0.1621 -4.88693 2.94169 0
M  V30 27 O -0.9039 -3.88189 4.59992 0
M  V30 28 H 2.9221 -1.0839 2.83699 0
M  V30 29 H 0.5071 -0.471301 1.41771 0
M  V30 30 H 2.3891 -3.49017 2.36147 0
M  V30 31 H 1.0641 -2.97148 1.28392 0
M  V30 32 H -0.0289 -1.79663 3.28134 0
M  V30 33 H 1.3041 -2.38106 4.30774 0
M  V30 34 N 2.9562 -1.48159 -0.537278 0
M  V30 35 C 4.2022 -1.56035 -1.29541 0
M  V30 36 C 4.5352 -0.230377 -1.92829 0
M  V30 37 O 3.8102 0.762952 -1.78911 0
M  V30 38 C 4.0932 -2.69323 -2.39034 0
M  V30 39 C 3.9462 -4.12002 -1.80485 0
M  V30 40 C 5.2652 -2.78408 -3.40847 0
M  V30 41 H 2.3842 -0.567992 -0.469632 0
M  V30 42 H 5.0262 -1.80302 -0.599277 0
M  V30 43 H 3.1762 -2.48763 -2.98412 0
M  V30 44 H 4.8482 -4.43981 -1.25215 0
M  V30 45 H 3.0912 -4.19344 -1.11055 0
M  V30 46 H 3.7622 -4.87077 -2.59731 0
M  V30 47 H 6.2382 -2.97012 -2.91416 0
M  V30 48 H 5.1142 -3.59416 -4.14863 0
M  V30 49 H 5.3752 -1.86269 -4.00944 0
M  V30 50 N 4.4343 0.785586 -1.36625 0
M  V30 51 C 5.3823 1.91978 -1.31329 0
M  V30 52 C 6.3763 1.68162 -0.204416 0
M  V30 53 O 7.5823 1.76122 -0.371645 0
M  V30 54 H 3.9573 0.631087 -0.408942 0
M  V30 55 H 5.9283 1.93562 -2.27104 0
M  V30 56 C 4.6773 3.29055 -1.12329 0
M  V30 57 H 4.0003 3.4795 -1.96903 0
M  V30 58 H 5.4403 4.08756 -1.12671 0
M  V30 59 C 3.8993 3.36461 0.171861 0
M  V30 60 O 4.4293 3.84576 1.16035 0
M  V30 61 N 2.6353 2.89782 0.217846 0
M  V30 62 H 2.1823 2.50819 -0.587183 0
M  V30 63 H 2.1403 2.95119 1.08408 0
M  V30 64 N 5.9124 1.20967 1.01018 0
M  V30 65 C 6.8754 0.965918 2.07853 0
M  V30 66 C 7.8754 -0.0610545 1.60684 0
M  V30 67 O 9.0654 0.175681 1.73312 0
M  V30 68 C 6.1974 0.455513 3.37843 0
M  V30 69 H 7.3904 1.91365 2.3091 0
M  V30 70 H 4.9434 1.02594 1.17916 0
M  V30 71 H 5.6784 -0.497381 3.20463 0
M  V30 72 H 5.4634 1.19622 3.73407 0
M  V30 73 H 6.9534 0.304667 4.16487 0
M  V30 74 N 7.3905 -1.2043 1.01659 0
M  V30 75 C 8.6385 -1.89423 0.704522 0
M  V30 76 C 8.9595 -1.79231 -0.768197 0
M  V30 77 O 8.2295 -1.1947 -1.55254 0
M  V30 78 H 6.8095 -0.701178 0.257602 0
M  V30 79 H 9.4715 -1.4626 1.28818 0
M  V30 80 H 8.5675 -2.96052 0.987916 0
M  V30 81 N 8.8686 -0.792821 -1.36206 0
M  V30 82 C 10.1166 -0.366062 -1.98757 0
M  V30 83 C 10.4376 1.0668 -1.63231 0
M  V30 84 O 9.7076 1.73587 -0.907978 0
M  V30 85 H 8.2876 -0.132364 -0.735179 0
M  V30 86 H 10.9496 -1.01562 -1.66347 0
M  V30 87 H 10.0456 -0.460638 -3.08682 0
M  V30 88 N 10.3467 1.47872 -0.545128 0
M  V30 89 C 11.5927 2.02793 -0.0166104 0
M  V30 90 C 11.9257 1.41987 1.32489 0
M  V30 91 O 11.2007 0.571045 1.85928 0
M  V30 92 C 11.4837 3.59989 0.0893294 0
M  V30 93 C 11.3367 4.3125 -1.27841 0
M  V30 94 C 12.6557 4.32606 0.808724 0
M  V30 95 H 9.7747 0.736962 -0.00751035 0
M  V30 96 H 12.4167 1.76433 -0.705085 0
M  V30 97 H 10.5667 3.82579 0.675681 0
M  V30 98 H 12.2387 4.20035 -1.90704 0
M  V30 99 H 10.4817 3.92076 -1.85632 0
M  V30 100 H 11.1527 5.39736 -1.15713 0
M  V30 101 H 13.6287 4.14936 0.310992 0
M  V30 102 H 12.5047 5.42251 0.851782 0
M  V30 103 H 12.7657 4.00963 1.86229 0
M  V30 104 N 11.8248 0.280983 1.55075 0
M  V30 105 C 13.0738 -0.334784 1.98902 0
M  V30 106 C 13.3868 -1.56534 1.17288 0
M  V30 107 O 14.5928 -2.25443 1.51287 0
M  V30 108 C 13.0488 -0.646994 3.54037 0
M  V30 109 C 12.6568 0.564085 4.44435 0
M  V30 110 C 14.4008 -1.22506 4.06439 0
M  V30 111 C 12.3078 0.226137 5.90967 0
M  V30 112 H 11.2378 -0.128866 0.742906 0
M  V30 113 H 13.8888 0.386556 1.79382 0
M  V30 114 H 12.2708 -1.42739 3.6938 0
M  V30 115 H 13.4448 1.34082 4.40861 0
M  V30 116 H 11.7598 1.0594 4.02698 0
M  V30 117 H 14.3568 -1.49182 5.13468 0
M  V30 118 H 14.6998 -2.16085 3.55827 0
M  V30 119 H 15.2328 -0.50682 3.94558 0
M  V30 120 H 11.9718 1.12996 6.45687 0
M  V30 121 H 11.4918 -0.513717 5.97596 0
M  V30 122 H 13.1708 -0.179539 6.46751 0
M  V30 123 N 13.3029 -1.57598 0.00835791 0
M  V30 124 C 14.2659 -2.07884 -0.965242 0
M  V30 125 C 15.2659 -0.989825 -1.26725 0
M  V30 126 O 16.4559 -1.25218 -1.21104 0
M  V30 127 C 13.5879 -2.52731 -2.28779 0
M  V30 128 H 14.7809 -2.95178 -0.530112 0
M  V30 129 H 12.3339 -1.54458 -0.239283 0
M  V30 130 H 13.0689 -1.68705 -2.76964 0
M  V30 131 H 12.8539 -3.32272 -2.08177 0
M  V30 132 H 14.3439 -2.91933 -2.98605 0
M  V30 133 N 14.781 0.264519 -1.55364 0
M  V30 134 C 16.011 1.01153 -1.80143 0
M  V30 135 C 16.419 1.80115 -0.579253 0
M  V30 136 O 15.762 1.77813 0.46132 0
M  V30 137 C 15.824 2.01098 -2.97993 0
M  V30 138 C 15.488 1.40995 -4.34706 0
M  V30 139 C 16.485 0.821316 -5.13372 0
M  V30 140 C 14.17 1.43461 -4.81378 0
M  V30 141 C 16.164 0.265339 -6.36847 0
M  V30 142 C 13.851 0.874771 -6.04807 0
M  V30 143 C 14.849 0.291146 -6.82379 0
M  V30 144 O 14.537 -0.260093 -8.03479 0
M  V30 145 H 14.269 0.304125 -0.603725 0
M  V30 146 H 16.823 0.298089 -2.03225 0
M  V30 147 H 15.053 2.76224 -2.70623 0
M  V30 148 H 16.742 2.61997 -3.1002 0
M  V30 149 H 17.508 0.794903 -4.78442 0
M  V30 150 H 13.387 1.87826 -4.21002 0
M  V30 151 H 16.931 -0.190837 -6.97339 0
M  V30 152 H 12.828 0.898452 -6.39217 0
M  V30 153 H 13.596 -0.150265 -8.18362 0
M  V30 154 N 16.2591 1.48442 0.529413 0
M  V30 155 C 17.5081 1.55742 1.28169 0
M  V30 156 C 17.8211 0.236511 1.94165 0
M  V30 157 O 19.0271 0.187761 2.7085 0
M  V30 158 C 17.4831 2.74667 2.32564 0
M  V30 159 C 17.0911 4.13402 1.72636 0
M  V30 160 C 18.8351 2.9128 3.08798 0
M  V30 161 C 16.7421 5.23587 2.74975 0
M  V30 162 H 15.6721 0.579796 0.48203 0
M  V30 163 H 18.3231 1.74776 0.559056 0
M  V30 164 H 16.7051 2.49067 3.07866 0
M  V30 165 H 17.8791 4.49022 1.03519 0
M  V30 166 H 16.1941 4.0191 1.08892 0
M  V30 167 H 18.7911 3.70767 3.85274 0
M  V30 168 H 19.1341 2.00757 3.64695 0
M  V30 169 H 19.6671 3.16782 2.40611 0
M  V30 170 H 16.4061 6.16076 2.23897 0
M  V30 171 H 15.9261 4.92454 3.42417 0
M  V30 172 H 17.6051 5.51724 3.37949 0
M  V30 173 N 17.7372 -0.778329 1.37039 0
M  V30 174 C 18.9622 -1.57248 1.35233 0
M  V30 175 C 19.3872 -1.87999 -0.0615568 0
M  V30 176 O 18.7452 -1.48734 -1.03672 0
M  V30 177 C 18.7932 -2.86353 2.19167 0
M  V30 178 O 17.8972 -3.80442 1.59178 0
M  V30 179 H 17.2382 -0.476569 0.462362 0
M  V30 180 H 19.7682 -0.963853 1.80474 0
M  V30 181 H 19.7782 -3.35519 2.32145 0
M  V30 182 H 18.4532 -2.63299 3.21942 0
M  V30 183 H 17.0302 -3.39067 1.55203 0
M  V30 184 N 19.2153 -1.21501 -1.00376 0
M  V30 185 C 20.4403 -1.05977 -1.78279 0
M  V30 186 C 20.8653 0.385994 -1.84097 0
M  V30 187 O 20.2233 1.27849 -1.28547 0
M  V30 188 C 20.2713 -1.66302 -3.19963 0
M  V30 189 O 19.3753 -0.909333 -4.0225 0
M  V30 190 H 18.7163 -0.372906 -0.549397 0
M  V30 191 H 21.2463 -1.6107 -1.26165 0
M  V30 192 H 21.2563 -1.70574 -3.70632 0
M  V30 193 H 19.9313 -2.71515 -3.15043 0
M  V30 194 H 18.5083 -0.941795 -3.60811 0
M  V30 195 N 20.6934 1.19889 -1.02296 0
M  V30 196 C 21.9184 1.9393 -0.735237 0
M  V30 197 C 22.3434 1.74639 0.698782 0
M  V30 198 O 21.7014 1.04481 1.48167 0
M  V30 199 C 21.7494 3.43916 -1.08417 0
M  V30 200 O 20.8534 4.11917 -0.199446 0
M  V30 201 H 20.1944 0.605645 -0.272196 0
M  V30 202 H 22.7244 1.52137 -1.36804 0
M  V30 203 H 22.7344 3.9456 -1.03856 0
M  V30 204 H 21.4094 3.5728 -2.12894 0
M  V30 205 H 19.9864 3.71666 -0.303136 0
M  V30 206 N 22.1715 0.800033 1.35784 0
M  V30 207 C 23.3965 0.388511 2.03729 0
M  V30 208 C 23.8215 -0.990481 1.5991 0
M  V30 209 O 23.1795 -1.64013 0.772612 0
M  V30 210 C 23.2275 0.4726 3.5749 0
M  V30 211 O 22.3315 -0.51646 4.09153 0
M  V30 212 H 21.6725 0.163271 0.643614 0
M  V30 213 H 24.2025 1.0841 1.73518 0
M  V30 214 H 24.2125 0.34003 4.06581 0
M  V30 215 H 22.8875 1.47848 3.88734 0
M  V30 216 H 21.4645 -0.344673 3.71304 0
M  V30 217 N 23.6496 -1.47581 0.552962 0
M  V30 218 C 24.8746 -2.07378 0.0300593 0
M  V30 219 C 25.2996 -1.40355 -1.25229 0
M  V30 220 O 24.6576 -0.477099 -1.7491 0
M  V30 221 C 24.7056 -3.60274 -0.153231 0
M  V30 222 O 23.8096 -3.94041 -1.21678 0
M  V30 223 H 23.1506 -0.662158 0.0494182 0
M  V30 224 H 25.6806 -1.89662 0.767434 0
M  V30 225 H 25.6906 -4.0633 -0.368761 0
M  V30 226 H 24.3656 -4.08455 0.783397 0
M  V30 227 H 22.9426 -3.59735 -0.982079 0
M  V30 228 N 25.1277 -0.289203 -1.54924 0
M  V30 229 C 26.0907 0.579144 -2.21762 0
M  V30 230 C 27.0907 1.07047 -1.1999 0
M  V30 231 O 28.2807 0.968384 -1.44803 0
M  V30 232 C 25.4127 1.80055 -2.8947 0
M  V30 233 H 26.6057 -0.00464908 -2.999 0
M  V30 234 H 24.1587 -0.0399306 -1.56249 0
M  V30 235 H 24.8937 2.42449 -2.15381 0
M  V30 236 H 24.6787 1.45602 -3.64064 0
M  V30 237 H 26.1687 2.41773 -3.40493 0
M  V30 238 N 26.6058 1.57591 -0.0167156 0
M  V30 239 C 27.8308 1.9598 0.67872 0
M  V30 240 C 28.2558 0.892546 1.65575 0
M  V30 241 O 27.6138 -0.147772 1.80697 0
M  V30 242 C 27.6618 3.33468 1.37227 0
M  V30 243 O 26.7658 3.28954 2.48722 0
M  V30 244 H 26.1068 0.639339 0.17928 0
M  V30 245 H 28.6368 2.04463 -0.0748802 0
M  V30 246 H 28.6468 3.69417 1.7319 0
M  V30 247 H 27.3218 4.10694 0.656007 0
M  V30 248 H 25.8988 3.04705 2.14963 0
M  V30 249 N 28.0839 -0.256276 1.55502 0
M  V30 250 C 29.3089 -1.00766 1.81276 0
M  V30 251 C 29.7339 -1.78524 0.59252 0
M  V30 252 O 29.0919 -1.75413 -0.45827 0
M  V30 253 C 29.1399 -1.92869 3.04687 0
M  V30 254 O 28.2439 -3.019 2.80945 0
M  V30 255 H 27.5849 -0.287224 0.598664 0
M  V30 256 H 30.1149 -0.280109 2.02674 0
M  V30 257 H 30.1249 -2.34511 3.33869 0
M  V30 258 H 28.7999 -1.35689 3.93143 0
M  V30 259 H 27.3769 -2.64454 2.62904 0
M  V30 260 N 29.562 -1.4872 -0.521534 0
M  V30 261 C 30.973 -1.50607 -1.10337 0
M  V30 262 C 31.324 -0.280612 -1.94183 0
M  V30 263 O 30.449 0.611507 -2.0758 0
M  V30 264 C 31.044 -2.72903 -2.00772 0
M  V30 265 C 29.603 -2.77634 -2.54158 0
M  V30 266 C 28.75 -2.44241 -1.31307 0
M  V30 267 H 31.701 -1.55714 -0.306388 0
M  V30 268 H 31.722 -2.519 -2.85178 0
M  V30 269 H 31.234 -3.62077 -1.39721 0
M  V30 270 H 29.335 -1.92689 -3.18907 0
M  V30 271 H 29.448 -3.79283 -2.92714 0
M  V30 272 H 27.812 -1.95577 -1.63161 0
M  V30 273 H 28.595 -3.35666 -0.719943 0
M  V30 274 N 31.0401 0.771051 -1.3745 0
M  V30 275 C 32.0031 1.86598 -1.33093 0
M  V30 276 C 33.0031 1.59076 -0.234845 0
M  V30 277 O 34.1931 1.67145 -0.490732 0
M  V30 278 C 31.3251 3.23747 -1.06773 0
M  V30 279 H 32.5181 1.91873 -2.30488 0
M  V30 280 H 30.0711 0.970876 -1.2249 0
M  V30 281 H 30.8061 3.24148 -0.099129 0
M  V30 282 H 30.5911 3.45115 -1.86112 0
M  V30 283 H 32.0811 4.03824 -1.06377 0
M  V30 284 N 32.5182 1.22032 0.997298 0
M  V30 285 C 33.7432 1.06921 1.77715 0
M  V30 286 C 34.1682 -0.376226 1.84299 0
M  V30 287 O 33.5262 -1.27165 1.29223 0
M  V30 288 C 33.5742 1.67996 3.19076 0
M  V30 289 O 32.6782 0.930653 4.01762 0
M  V30 290 H 32.0192 0.375814 0.547412 0
M  V30 291 H 34.5492 1.61737 1.25309 0
M  V30 292 H 34.5592 1.72538 3.69723 0
M  V30 293 H 33.2342 2.73182 3.13599 0
M  V30 294 H 31.8112 0.960917 3.60307 0
M  V30 295 N 33.9963 -1.19345 1.0293 0
M  V30 296 C 35.2363 -1.90738 0.734727 0
M  V30 297 C 35.6003 -1.7785 -0.723414 0
M  V30 298 O 36.8013 -2.43844 -1.13108 0
M  V30 299 C 35.0723 -3.37569 1.17396 0
M  V30 300 S 36.6313 -4.27176 1.00329 0
M  V30 301 H 33.4493 -0.658771 0.267474 0
M  V30 302 H 36.0513 -1.4428 1.31922 0
M  V30 303 H 34.7553 -3.44475 2.23081 0
M  V30 304 H 34.2863 -3.8906 0.582772 0
M  V30 305 H 36.3013 -4.96126 -0.0859152 0
M  V30 306 N 35.4744 -0.807222 -1.35358 0
M  V30 307 C 36.4244 -0.190706 -2.27201 0
M  V30 308 C 37.4084 0.635838 -1.47804 0
M  V30 309 O 38.6004 0.492991 -1.69996 0
M  V30 310 C 35.7294 0.659337 -3.36909 0
M  V30 311 C 34.8154 -0.176971 -4.23731 0
M  V30 312 N 35.2064 -1.24029 -4.90357 0
M  V30 313 C 33.5044 0.0412953 -4.45981 0
M  V30 314 C 34.2054 -1.75092 -5.54723 0
M  V30 315 N 33.1814 -1.05727 -5.33219 0
M  V30 316 H 36.9834 -1.0043 -2.76208 0
M  V30 317 H 34.4974 -0.648445 -1.48892 0
M  V30 318 H 36.4944 1.11706 -4.01656 0
M  V30 319 H 35.1544 1.47127 -2.89454 0
M  V30 320 H 36.1654 -1.62295 -4.91814 0
M  V30 321 H 32.8424 0.82232 -4.09322 0
M  V30 322 H 34.2324 -2.63963 -6.17878 0
M  V30 323 N 36.9525 1.47285 -0.560781 0
M  V30 324 C 38.1775 2.07359 -0.0410566 0
M  V30 325 C 38.6025 1.41017 1.24483 0
M  V30 326 O 37.9605 0.486368 1.74654 0
M  V30 327 C 38.0085 3.6035 0.134123 0
M  V30 328 O 37.1125 3.94681 1.19587 0
M  V30 329 H 36.4535 0.661887 -0.0529291 0
M  V30 330 H 38.9835 1.89252 -0.777482 0
M  V30 331 H 38.9935 4.0652 0.347207 0
M  V30 332 H 37.6685 4.08034 -0.805047 0
M  V30 333 H 36.2455 3.60251 0.962987 0
M  V30 334 N 38.4306 0.297415 1.54768 0
M  V30 335 C 39.3406 -0.58983 2.27064 0
M  V30 336 C 40.3566 -1.15144 1.30453 0
M  V30 337 O 41.5326 -1.17699 1.63428 0
M  V30 338 C 38.5976 -1.74714 2.9946 0
M  V30 339 C 37.6586 -1.21997 4.11601 0
M  V30 340 C 36.8916 -2.32212 4.80535 0
M  V30 341 O 37.1146 -3.52036 4.48806 0
M  V30 342 O 36.0486 -1.99106 5.68014 0
M  V30 343 H 39.8746 -0.00348199 3.037 0
M  V30 344 H 37.4596 0.0640035 1.49263 0
M  V30 345 H 39.3416 -2.42147 3.44881 0
M  V30 346 H 38.0166 -2.32016 2.25722 0
M  V30 347 H 36.9236 -0.511458 3.70587 0
M  V30 348 H 38.2566 -0.692419 4.87305 0
M  V30 349 N 39.9087 -1.5758 0.0250728 0
M  V30 350 C 41.1567 -1.91255 -0.653151 0
M  V30 351 C 41.4777 -0.901691 -1.729 0
M  V30 352 O 40.7477 0.0573785 -1.95816 0
M  V30 353 H 39.3277 -0.705942 -0.244243 0
M  V30 354 H 41.9897 -1.94767 0.0719209 0
M  V30 355 H 41.0857 -2.91752 -1.10847 0
M  V30 356 N 41.3868 0.248026 -1.55636 0
M  V30 357 C 42.6118 0.998028 -1.81808 0
M  V30 358 C 43.0368 1.78207 -0.601979 0
M  V30 359 O 42.3948 1.75653 0.448961 0
M  V30 360 C 42.4428 1.9125 -3.05705 0
M  V30 361 O 41.5468 3.00406 -2.82542 0
M  V30 362 H 40.8878 0.284045 -0.600179 0
M  V30 363 H 43.4178 0.269357 -2.02819 0
M  V30 364 H 43.4278 2.32737 -3.35108 0
M  V30 365 H 42.1028 1.33602 -3.93857 0
M  V30 366 H 40.6798 2.63056 -2.64303 0
M  V30 367 N 42.8649 1.48995 0.513639 0
M  V30 368 C 43.7749 1.67443 1.64317 0
M  V30 369 C 44.7909 0.556947 1.64846 0
M  V30 370 O 45.9669 0.830082 1.83498 0
M  V30 371 C 43.0319 1.72515 3.00732 0
M  V30 372 C 42.0929 2.96009 3.1093 0
M  V30 373 C 41.3259 3.00829 4.40837 0
M  V30 374 O 41.5489 2.13594 5.28898 0
M  V30 375 O 40.4829 3.93168 4.55744 0
M  V30 376 H 44.3089 2.63106 1.51687 0
M  V30 377 H 41.8939 1.32588 0.688543 0
M  V30 378 H 43.7759 1.78277 3.81831 0
M  V30 379 H 42.4509 0.800278 3.13651 0
M  V30 380 H 41.3579 2.9577 2.29065 0
M  V30 381 H 42.6909 3.87934 3.02933 0
M  V30 382 N 44.343 -0.763751 1.37857 0
M  V30 383 C 45.291 -1.89864 1.34367 0
M  V30 384 C 46.285 -1.67816 0.231143 0
M  V30 385 O 47.491 -1.75508 0.399617 0
M  V30 386 H 43.866 -0.624501 0.41893 0
M  V30 387 H 45.837 -1.89925 2.30155 0
M  V30 388 C 44.586 -3.27227 1.1755 0
M  V30 389 H 43.909 -3.44773 2.02414 0
M  V30 390 H 45.349 -4.06911 1.1916 0
M  V30 391 C 43.808 -3.36692 -0.118311 0
M  V30 392 O 44.338 -3.86374 -1.09902 0
M  V30 393 N 42.544 -2.90092 -0.171717 0
M  V30 394 H 42.091 -2.49853 0.627012 0
M  V30 395 H 42.049 -2.96806 -1.03699 0
M  V30 396 N 45.8211 -1.22559 -0.990812 0
M  V30 397 C 47.0461 -1.07862 -1.77145 0
M  V30 398 C 47.4711 0.366447 -1.84496 0
M  V30 399 O 46.8291 1.26478 -1.29896 0
M  V30 400 C 46.8771 -1.69686 -3.18181 0
M  V30 401 O 45.9811 -0.951946 -4.01263 0
M  V30 402 H 45.3221 -0.378712 -0.545411 0
M  V30 403 H 47.8521 -1.62399 -1.2445 0
M  V30 404 H 47.8621 -1.74496 -3.68802 0
M  V30 405 H 46.5371 -2.74841 -3.12146 0
M  V30 406 H 45.1141 -0.980011 -3.59792 0
M  V30 407 N 47.2992 1.18797 -1.03562 0
M  V30 408 C 48.5462 1.8865 -0.736023 0
M  V30 409 C 48.8742 1.80041 0.735889 0
M  V30 410 O 48.1292 1.19179 1.55225 0
M  V30 411 C 48.4282 3.38692 -1.14117 0
M  V30 412 C 48.0942 3.67504 -2.6125 0
M  V30 413 C 46.7562 3.75078 -3.01447 0
M  V30 414 C 49.1082 3.80293 -3.56408 0
M  V30 415 C 46.4362 3.92915 -4.35701 0
M  V30 416 C 48.7882 3.99645 -4.90374 0
M  V30 417 C 47.4522 4.05453 -5.30249 0
M  V30 418 H 46.7222 0.690321 -0.26933 0
M  V30 419 H 49.3692 1.40641 -1.29971 0
M  V30 420 H 47.6742 3.88645 -0.496202 0
M  V30 421 H 49.3712 3.91072 -0.886789 0
M  V30 422 H 45.9612 3.62223 -2.29113 0
M  V30 423 H 50.1452 3.73779 -3.26501 0
M  V30 424 H 45.4012 3.95653 -4.66121 0
M  V30 425 H 49.5752 4.08482 -5.64017 0
M  V30 426 H 47.2022 4.19027 -6.34288 0
M  V30 427 N 48.7773 0.814389 1.34928 0
M  V30 428 C 49.7093 0.187834 2.28429 0
M  V30 429 C 50.7223 -0.617374 1.5064 0
M  V30 430 O 51.9113 -0.448454 1.72775 0
M  V30 431 C 49.0113 -0.755962 3.30361 0
M  V30 432 C 48.1843 0.00456686 4.374 0
M  V30 433 C 47.2433 -0.858876 5.19143 0
M  V30 434 O 46.2693 -0.306968 5.68372 0
M  V30 435 N 47.4713 -2.17988 5.38016 0
M  V30 436 H 50.2363 0.991105 2.82838 0
M  V30 437 H 47.7973 0.670561 1.4736 0
M  V30 438 H 49.7893 -1.338 3.81942 0
M  V30 439 H 48.3593 -1.46001 2.7641 0
M  V30 440 H 47.5793 0.767865 3.86649 0
M  V30 441 H 48.8673 0.528422 5.06049 0
M  V30 442 H 48.2653 -2.65212 4.99679 0
M  V30 443 H 46.8223 -2.71098 5.92747 0
M  V30 444 N 50.2554 -1.46986 0.568584 0
M  V30 445 C 51.4804 -2.07335 0.0520528 0
M  V30 446 C 51.9054 -1.41675 -1.23733 0
M  V30 447 O 51.2634 -0.495623 -1.74394 0
M  V30 448 C 51.3114 -3.60417 -0.11501 0
M  V30 449 O 50.4154 -3.95309 -1.17492 0
M  V30 450 H 49.7564 -0.661597 0.0564385 0
M  V30 451 H 52.2864 -1.88837 0.787507 0
M  V30 452 H 52.2964 -4.06698 -0.325644 0
M  V30 453 H 50.9714 -4.07601 0.826675 0
M  V30 454 H 49.5484 -3.60757 -0.943869 0
M  V30 455 N 51.7335 -0.305618 -1.54608 0
M  V30 456 C 52.9585 0.307562 -2.05107 0
M  V30 457 C 53.3835 1.46385 -1.18123 0
M  V30 458 O 52.7415 1.8034 -0.186324 0
M  V30 459 C 52.7895 0.73704 -3.52987 0
M  V30 460 O 51.8935 1.84134 -3.6901 0
M  V30 461 H 51.2345 0.0589143 -0.661381 0
M  V30 462 H 53.7645 -0.448807 -1.99617 0
M  V30 463 H 53.7745 1.02459 -3.94925 0
M  V30 464 H 52.4495 -0.108773 -4.15758 0
M  V30 465 H 51.0265 1.55398 -3.38978 0
M  V30 466 N 53.2116 1.57565 -0.0334293 0
M  V30 467 C 54.4366 1.96689 0.657895 0
M  V30 468 C 54.8616 0.910057 1.64619 0
M  V30 469 O 54.2196 -0.128598 1.80843 0
M  V30 470 C 54.2676 3.34905 1.33683 0
M  V30 471 O 53.3716 3.31574 2.45219 0
M  V30 472 H 52.7126 0.641205 0.172489 0
M  V30 473 H 55.2426 2.04372 -0.0965621 0
M  V30 474 H 55.2526 3.71234 1.69262 0
M  V30 475 H 53.9276 4.11366 0.612411 0
M  V30 476 H 52.5046 3.06968 2.11719 0
M  V30 477 N 54.6897 -0.239769 1.55765 0
M  V30 478 C 55.9147 -0.988373 1.82335 0
M  V30 479 C 56.3397 -1.77886 0.611421 0
M  V30 480 O 55.6977 -1.75889 -0.439639 0
M  V30 481 C 55.7457 -1.89627 3.06715 0
M  V30 482 O 54.8497 -2.98904 2.84131 0
M  V30 483 H 54.1907 -0.280858 0.601677 0
M  V30 484 H 56.7207 -0.258597 2.02959 0
M  V30 485 H 56.7307 -2.30957 3.36338 0
M  V30 486 H 55.4057 -1.31511 3.9456 0
M  V30 487 H 53.9827 -2.61651 2.65694 0
M  V30 488 N 56.1678 -1.49265 -0.50573 0
M  V30 489 C 57.3928 -1.62478 -1.28902 0
M  V30 490 C 57.8178 -0.294332 -1.85783 0
M  V30 491 O 57.1758 0.737412 -1.65626 0
M  V30 492 C 57.2238 -2.69268 -2.39848 0
M  V30 493 O 56.3278 -2.28113 -3.43567 0
M  V30 494 H 55.6688 -0.54399 -0.380751 0
M  V30 495 H 58.1988 -1.95421 -0.605952 0
M  V30 496 H 58.2088 -2.91291 -2.85681 0
M  V30 497 H 56.8838 -3.65846 -1.97812 0
M  V30 498 H 55.4608 -2.16401 -3.03685 0
M  V30 499 N 57.6459 0.756429 -1.3826 0
M  V30 500 C 58.8919 1.51772 -1.34511 0
M  V30 501 C 59.2249 1.94089 0.0656691 0
M  V30 502 O 58.4999 1.65221 1.02626 0
M  V30 503 C 58.7829 2.77226 -2.29821 0
M  V30 504 C 58.6359 2.41065 -3.79747 0
M  V30 505 C 59.9549 3.79236 -2.23312 0
M  V30 506 H 57.0739 0.550578 -0.489931 0
M  V30 507 H 59.7159 0.866607 -1.69086 0
M  V30 508 H 57.8659 3.32784 -2.00467 0
M  V30 509 H 59.5379 1.91303 -4.19763 0
M  V30 510 H 57.7809 1.7356 -3.97567 0
M  V30 511 H 58.4519 3.3081 -4.41892 0
M  V30 512 H 60.9279 3.3321 -2.49219 0
M  V30 513 H 59.8039 4.64714 -2.92116 0
M  V30 514 H 60.0649 4.24615 -1.23102 0
M  V30 515 N 59.124 1.23083 0.984299 0
M  V30 516 C 60.535 1.05609 1.5396 0
M  V30 517 C 60.886 -0.377793 1.92528 0
M  V30 518 O 60.011 -1.26398 1.75649 0
M  V30 519 C 60.606 1.91087 2.7977 0
M  V30 520 C 59.165 1.77885 3.31713 0
M  V30 521 C 58.312 1.87028 2.04733 0
M  V30 522 H 61.263 1.36802 0.804419 0
M  V30 523 H 61.284 1.43336 3.5247 0
M  V30 524 H 60.796 2.9544 2.51668 0
M  V30 525 H 58.897 0.762995 3.64704 0
M  V30 526 H 59.01 2.61047 4.01735 0
M  V30 527 H 57.374 1.30565 2.18689 0
M  V30 528 H 58.157 2.92929 1.79017 0
M  V30 529 N 60.6021 -1.18246 1.0419 0
M  V30 530 C 61.8271 -1.92736 0.765996 0
M  V30 531 C 62.2521 -1.75728 -0.67091 0
M  V30 532 O 61.6101 -1.06825 -1.46486 0
M  V30 533 C 61.6581 -3.42148 1.13875 0
M  V30 534 O 60.7621 -4.11548 0.264954 0
M  V30 535 H 60.1031 -0.601238 0.281797 0
M  V30 536 H 62.6331 -1.49942 1.39207 0
M  V30 537 H 62.6431 -3.92858 1.1012 0
M  V30 538 H 61.3181 -3.53848 2.18551 0
M  V30 539 H 59.8951 -3.71137 0.362226 0
M  V30 540 N 62.0802 -0.821533 -1.34494 0
M  V30 541 C 63.3052 -0.420873 -2.03085 0
M  V30 542 C 63.7302 0.964915 -1.61465 0
M  V30 543 O 63.0882 1.62763 -0.798607 0
M  V30 544 C 63.1362 -0.529414 -3.56693 0
M  V30 545 O 62.2402 0.451302 -4.09923 0
M  V30 546 H 61.5812 -0.173489 -0.640935 0
M  V30 547 H 64.1112 -1.11157 -1.71771 0
M  V30 548 H 64.1212 -0.404671 -4.05988 0
M  V30 549 H 62.7962 -1.54014 -3.86332 0
M  V30 550 H 61.3732 0.285558 -3.71805 0
M  V30 551 N 63.5583 1.46682 -0.576371 0
M  V30 552 C 64.9693 1.86112 -0.148091 0
M  V30 553 C 65.3203 1.48073 1.2872 0
M  V30 554 O 64.4453 0.892656 1.97131 0
M  V30 555 C 65.0403 3.37786 -0.261982 0
M  V30 556 C 63.5993 3.76235 0.111384 0
M  V30 557 C 62.7463 2.70713 -0.60083 0
M  V30 558 H 65.6973 1.37927 -0.78497 0
M  V30 559 H 65.7183 3.77007 0.514364 0
M  V30 560 H 65.2303 3.6544 -1.30671 0
M  V30 561 H 63.3313 3.54198 1.15649 0
M  V30 562 H 63.4443 4.78391 -0.26052 0
M  V30 563 H 61.8083 2.54666 -0.0417783 0
M  V30 564 H 62.5913 3.01208 -1.64708 0
M  V30 565 N 65.0364 0.313813 1.54444 0
M  V30 566 C 65.9844 -0.572171 2.25453 0
M  V30 567 C 66.9784 -1.12657 1.2651 0
M  V30 568 O 68.1844 -1.07573 1.44319 0
M  V30 569 H 64.5594 -0.203146 0.724041 0
M  V30 570 H 66.5304 0.0491145 2.9836 0
M  V30 571 C 65.2794 -1.72626 3.0182 0
M  V30 572 H 64.6024 -1.30891 3.77767 0
M  V30 573 H 66.0424 -2.32199 3.54767 0
M  V30 574 C 64.5014 -2.63806 2.09542 0
M  V30 575 O 65.0314 -3.65256 1.67185 0
M  V30 576 N 63.2374 -2.31824 1.75232 0
M  V30 577 H 62.7844 -1.49368 2.09873 0
M  V30 578 H 62.7424 -2.93095 1.13767 0
M  V30 579 N 66.5145 -1.57545 0.0417849 0
M  V30 580 C 67.7395 -1.97035 -0.647455 0
M  V30 581 C 68.1645 -0.918775 -1.64135 0
M  V30 582 O 67.5225 0.119006 -1.80909 0
M  V30 583 C 67.5705 -3.35609 -1.31905 0
M  V30 584 O 66.6745 -3.3287 -2.43457 0
M  V30 585 H 66.0155 -0.64211 -0.169086 0
M  V30 586 H 68.5455 -2.04318 0.107399 0
M  V30 587 H 68.5555 -3.72126 -1.67291 0
M  V30 588 H 67.2305 -4.11685 -0.590586 0
M  V30 589 H 65.8075 -3.08087 -2.10088 0
M  V30 590 N 67.9926 0.231505 -1.5589 0
M  V30 591 C 69.2176 0.978689 -1.82856 0
M  V30 592 C 69.6426 1.77559 -0.620846 0
M  V30 593 O 69.0006 1.76119 0.430305 0
M  V30 594 C 69.0486 1.87997 -3.07716 0
M  V30 595 O 68.1526 2.97393 -2.85712 0
M  V30 596 H 67.4936 0.277663 -0.603158 0
M  V30 597 H 70.0236 0.24783 -2.03093 0
M  V30 598 H 70.0336 2.2917 -3.37558 0
M  V30 599 H 68.7086 1.29417 -3.95252 0
M  V30 600 H 67.2856 2.60238 -2.67078 0
M  V30 601 N 69.4707 1.49531 0.497807 0
M  V30 602 C 70.4187 1.66926 1.61983 0
M  V30 603 C 71.4127 0.535167 1.60724 0
M  V30 604 O 72.6187 0.714896 1.65195 0
M  V30 605 H 68.9937 0.526415 0.537021 0
M  V30 606 H 70.9647 2.61098 1.44465 0
M  V30 607 C 69.7137 1.75602 3.00099 0
M  V30 608 H 69.0367 2.62244 3.01775 0
M  V30 609 H 70.4767 1.91807 3.78135 0
M  V30 610 C 68.9357 0.501543 3.33146 0
M  V30 611 O 69.4657 -0.371342 3.9998 0
M  V30 612 N 67.6717 0.363531 2.88317 0
M  V30 613 H 67.2187 1.07485 2.34104 0
M  V30 614 H 67.1767 -0.474728 3.10795 0
M  V30 615 N 70.9488 -0.749086 1.3866 0
M  V30 616 C 72.1738 -1.54344 1.38538 0
M  V30 617 C 72.5988 -1.88088 -0.0216655 0
M  V30 618 O 71.9568 -1.50899 -1.00494 0
M  V30 619 C 72.0048 -2.8164 2.25192 0
M  V30 620 O 71.1088 -3.7698 1.67212 0
M  V30 621 H 70.4498 -0.466654 0.472367 0
M  V30 622 H 72.9798 -0.925355 1.82478 0
M  V30 623 H 72.9898 -3.30519 2.3921 0
M  V30 624 H 71.6648 -2.56411 3.27454 0
M  V30 625 H 70.2418 -3.35699 1.6236 0
M  V30 626 N 72.4269 -1.23603 -0.977757 0
M  V30 627 C 73.7039 -0.977897 -1.69401 0
M  V30 628 C 74.0839 0.502738 -2.05026 0
M  V30 629 O 73.4319 1.47459 -1.74551 0
M  V30 630 C 73.6419 -1.89077 -2.93345 0
M  V30 631 C 74.9899 -2.15579 -3.65802 0
M  V30 632 O 76.0139 -1.86648 -3.03383 0
M  V30 633 O 74.8729 -2.64658 -4.78141 0
M  V30 634 H 71.9669 -0.369025 -0.740101 0
M  V30 635 H 74.5129 -1.34657 -1.03274 0
M  V30 636 H 73.2849 -2.89158 -2.63634 0
M  V30 637 H 72.9079 -1.52463 -3.67207 0
M  V30 638 N 73.905 1.17692 -1.04816 0
M  V30 639 C 75.133 1.91786 -0.776254 0
M  V30 640 C 75.548 1.76604 0.667577 0
M  V30 641 O 74.905 1.10067 1.45573 0
M  V30 642 C 74.956 3.42967 -1.14263 0
M  V30 643 O 74.677 3.57678 -2.52978 0
M  V30 644 C 76.178 4.34144 -0.896311 0
M  V30 645 H 73.398 0.608624 -0.282519 0
M  V30 646 H 75.942 1.49268 -1.39783 0
M  V30 647 H 74.097 3.83245 -0.565874 0
M  V30 648 H 74.511 4.51319 -2.67229 0
M  V30 649 H 75.985 5.38744 -1.20244 0
M  V30 650 H 76.462 4.38876 0.168636 0
M  V30 651 H 77.068 3.99574 -1.45672 0
M  V30 652 N 75.3831 0.828654 1.34056 0
M  V30 653 C 76.3311 0.242973 2.31327 0
M  V30 654 C 77.3251 -0.61944 1.57668 0
M  V30 655 O 78.5311 -0.51014 1.7262 0
M  V30 656 H 74.9061 0.059834 0.749616 0
M  V30 657 H 76.8771 1.07809 2.78244 0
M  V30 658 C 75.6261 -0.575733 3.429 0
M  V30 659 H 74.9491 0.0785582 3.99723 0
M  V30 660 H 76.3891 -0.951547 4.13185 0
M  V30 661 C 74.8481 -1.75044 2.87856 0
M  V30 662 O 75.3781 -2.84882 2.83205 0
M  V30 663 N 73.5841 -1.56903 2.44602 0
M  V30 664 H 73.1311 -0.675547 2.48584 0
M  V30 665 H 73.0891 -2.35652 2.08124 0
M  V30 666 N 76.8612 -1.46375 0.584142 0
M  V30 667 C 78.1092 -2.01978 0.0701287 0
M  V30 668 C 78.4302 -1.4579 -1.295 0
M  V30 669 O 77.7002 -0.64314 -1.85042 0
M  V30 670 H 76.2802 -0.746648 0.0229345 0
M  V30 671 H 78.9422 -1.79461 0.760245 0
M  V30 672 H 78.0382 -3.121 0.0022064 0
M  V30 673 N 78.3393 -0.321999 -1.54275 0
M  V30 674 C 79.2873 0.560206 -2.25753 0
M  V30 675 C 80.2813 1.11984 -1.27106 0
M  V30 676 O 81.4873 1.06806 -1.44888 0
M  V30 677 H 77.8623 0.199304 -0.725108 0
M  V30 678 H 79.8333 -0.0649365 -2.98329 0
M  V30 679 C 78.5823 1.71023 -3.02731 0
M  V30 680 H 77.9053 1.28885 -3.78456 0
M  V30 681 H 79.3453 2.30314 -3.55993 0
M  V30 682 C 77.8043 2.62692 -2.10938 0
M  V30 683 O 78.3343 3.64364 -1.6912 0
M  V30 684 N 76.5403 2.30891 -1.76459 0
M  V30 685 H 76.0873 1.48253 -2.10663 0
M  V30 686 H 76.0453 2.92487 -1.1532 0
M  V30 687 N 79.8174 1.5752 -0.0501392 0
M  V30 688 C 81.2284 1.80271 0.485705 0
M  V30 689 C 81.5794 0.96228 1.70981 0
M  V30 690 O 80.7044 0.178578 2.15662 0
M  V30 691 C 81.2994 3.26957 0.887938 0
M  V30 692 C 79.8584 3.5063 1.36877 0
M  V30 693 C 79.0054 2.75165 0.343468 0
M  V30 694 H 81.9564 1.56281 -0.276028 0
M  V30 695 H 81.9774 3.37821 1.75093 0
M  V30 696 H 81.4894 3.881 -0.0031809 0
M  V30 697 H 79.5904 2.94766 2.27911 0
M  V30 698 H 79.7034 4.59343 1.36164 0
M  V30 699 H 78.0674 2.4127 0.816128 0
M  V30 700 H 78.8504 3.39034 -0.539548 0
M  V30 701 N 81.2955 -0.223234 1.56011 0
M  V30 702 C 82.2425 -1.27664 1.92277 0
M  V30 703 C 83.2125 -1.46659 0.779763 0
M  V30 704 O 84.3975 -1.60256 1.03551 0
M  V30 705 C 81.5375 -2.62234 2.24338 0
M  V30 706 C 80.6505 -2.51051 3.51564 0
M  V30 707 C 79.7855 -3.78133 3.7308 0
M  V30 708 C 78.8245 -3.61665 4.93827 0
M  V30 709 N 77.9615 -4.80693 5.11741 0
M  V30 710 H 82.8015 -0.960358 2.82101 0
M  V30 711 H 80.3385 -0.462901 1.39627 0
M  V30 712 H 82.2965 -3.40596 2.40936 0
M  V30 713 H 80.9265 -2.91961 1.3769 0
M  V30 714 H 79.9785 -1.64132 3.43169 0
M  V30 715 H 81.2905 -2.34803 4.40079 0
M  V30 716 H 80.4445 -4.64938 3.89766 0
M  V30 717 H 79.1835 -3.97304 2.82844 0
M  V30 718 H 78.1885 -2.73244 4.77093 0
M  V30 719 H 79.4135 -3.43966 5.85546 0
M  V30 720 H 77.3595 -5.00181 4.24446 0
M  V30 721 H 77.2765 -4.67165 5.94384 0
M  V30 722 H 78.5445 -5.6893 5.3286 0
M  V30 723 N 82.7736 -1.49793 -0.48987 0
M  V30 724 C 83.7216 -1.67783 -1.61095 0
M  V30 725 C 84.7156 -0.543683 -1.60438 0
M  V30 726 O 85.9216 -0.723647 -1.64813 0
M  V30 727 H 82.2966 -0.529255 -0.534222 0
M  V30 728 H 84.2676 -2.61861 -1.43078 0
M  V30 729 C 83.0166 -1.77191 -2.99164 0
M  V30 730 H 82.3396 -2.63841 -3.0038 0
M  V30 731 H 83.7796 -1.93809 -3.77113 0
M  V30 732 C 82.2386 -0.519203 -3.32875 0
M  V30 733 O 82.7686 0.350124 -4.00171 0
M  V30 734 N 80.9746 -0.378816 -2.8812 0
M  V30 735 H 80.5216 -1.08725 -2.33531 0
M  V30 736 H 80.4796 0.458239 -3.11043 0
M  V30 737 N 84.2517 0.741722 -1.39055 0
M  V30 738 C 85.4997 1.49818 -1.35643 0
M  V30 739 C 85.8207 1.94938 0.0491642 0
M  V30 740 O 85.0907 1.68505 0.999141 0
M  V30 741 H 83.6707 0.555755 -0.499144 0
M  V30 742 H 86.3327 0.880957 -1.73854 0
M  V30 743 H 85.4287 2.38348 -2.01486 0
M  V30 744 N 85.7298 1.2412 0.971189 0
M  V30 745 C 87.0068 0.986867 1.6888 0
M  V30 746 C 87.3868 -0.491857 2.0529 0
M  V30 747 O 86.7348 -1.46531 1.75331 0
M  V30 748 C 86.9448 1.9063 2.92338 0
M  V30 749 C 88.2928 2.17515 3.64654 0
M  V30 750 O 89.3168 1.88254 3.02388 0
M  V30 751 O 88.1758 2.6719 4.7673 0
M  V30 752 H 85.2698 0.372944 0.738134 0
M  V30 753 H 87.8158 1.35203 1.02559 0
M  V30 754 H 86.5878 2.90552 2.62097 0
M  V30 755 H 86.2108 1.54408 3.66393 0
M  V30 756 N 87.2079 -1.17134 1.05439 0
M  V30 757 C 88.1379 -2.2342 0.678649 0
M  V30 758 C 89.1189 -1.66971 -0.32476 0
M  V30 759 O 90.3039 -1.93149 -0.201802 0
M  V30 760 C 87.4339 -3.47256 0.0552099 0
M  V30 761 C 86.3879 -4.16543 0.98365 0
M  V30 762 C 85.7139 -5.34231 0.223961 0
M  V30 763 C 87.0139 -4.68495 2.3089 0
M  V30 764 H 88.7079 -2.55105 1.56722 0
M  V30 765 H 86.2539 -1.2262 0.754998 0
M  V30 766 H 88.2069 -4.20828 -0.21946 0
M  V30 767 H 86.9309 -3.14846 -0.868319 0
M  V30 768 H 85.5899 -3.44887 1.24293 0
M  V30 769 H 85.2379 -4.98071 -0.702412 0
M  V30 770 H 84.9379 -5.81527 0.842627 0
M  V30 771 H 86.4619 -6.10585 -0.0433671 0
M  V30 772 H 87.8759 -5.33691 2.09396 0
M  V30 773 H 86.2729 -5.26379 2.88176 0
M  V30 774 H 87.3429 -3.85169 2.94572 0
M  V30 775 N 88.686 -0.835752 -1.33615 0
M  V30 776 C 89.649 -0.272 -2.2758 0
M  V30 777 C 90.649 0.557487 -1.50827 0
M  V30 778 O 91.839 0.37173 -1.70188 0
M  V30 779 C 88.971 0.617173 -3.35267 0
M  V30 780 H 90.164 -1.10111 -2.78954 0
M  V30 781 H 87.717 -0.608594 -1.43965 0
M  V30 782 H 88.452 1.46884 -2.89129 0
M  V30 783 H 88.237 0.0237066 -3.92093 0
M  V30 784 H 89.727 1.005 -4.05326 0
M  V30 785 N 90.1641 1.46063 -0.591896 0
M  V30 786 C 91.1121 2.32124 0.148739 0
M  V30 787 C 92.1061 1.45035 0.875286 0
M  V30 788 O 93.3121 1.61609 0.792632 0
M  V30 789 H 89.6871 0.749024 0.066832 0
M  V30 790 H 91.6581 2.92392 -0.595783 0
M  V30 791 C 90.4071 3.28373 1.1431 0
M  V30 792 H 89.7301 3.95371 0.59346 0
M  V30 793 H 91.1701 3.91352 1.63155 0
M  V30 794 C 89.6291 2.54393 2.20875 0
M  V30 795 O 90.1591 2.31373 3.28374 0
M  V30 796 N 88.3651 2.14797 1.95731 0
M  V30 797 H 87.9121 2.33719 1.08319 0
M  V30 798 H 87.8701 1.65619 2.67241 0
M  V30 799 N 91.6422 0.330177 1.54103 0
M  V30 800 C 92.8912 -0.271336 1.99867 0
M  V30 801 C 93.2042 -1.52723 1.22209 0
M  V30 802 O 94.4102 -2.20515 1.58383 0
M  V30 803 C 92.8662 -0.534032 3.55916 0
M  V30 804 C 92.4742 0.705193 4.42415 0
M  V30 805 C 94.2182 -1.09514 4.1013 0
M  V30 806 C 92.1252 0.414035 5.89949 0
M  V30 807 H 91.0552 -0.105166 0.74663 0
M  V30 808 H 93.7062 0.443429 1.78062 0
M  V30 809 H 92.0882 -1.30915 3.73734 0
M  V30 810 H 93.2622 1.4804 4.36372 0
M  V30 811 H 91.5772 1.18698 3.99124 0
M  V30 812 H 94.1742 -1.3277 5.17954 0
M  V30 813 H 94.5172 -2.04656 3.62521 0
M  V30 814 H 95.0502 -0.381038 3.95971 0
M  V30 815 H 91.7892 1.33481 6.41766 0
M  V30 816 H 91.3092 -0.323336 5.98928 0
M  V30 817 H 92.9882 0.0263105 6.46995 0
M  V30 818 N 93.1203 -1.57491 0.0584922 0
M  V30 819 C 94.0303 -2.15448 -0.928414 0
M  V30 820 C 95.0463 -1.11416 -1.3365 0
M  V30 821 O 96.2223 -1.4362 -1.41193 0
M  V30 822 C 93.2873 -2.69393 -2.18239 0
M  V30 823 C 92.3483 -3.88249 -1.83196 0
M  V30 824 C 91.5813 -4.39613 -3.02616 0
M  V30 825 O 91.8043 -3.90023 -4.16219 0
M  V30 826 O 90.7383 -5.31111 -2.83204 0
M  V30 827 H 94.5643 -3.00112 -0.465483 0
M  V30 828 H 92.1493 -1.48499 -0.163826 0
M  V30 829 H 94.0313 -3.04026 -2.91798 0
M  V30 830 H 92.7063 -1.87796 -2.63656 0
M  V30 831 H 91.6133 -3.58492 -1.06931 0
M  V30 832 H 92.9463 -4.71098 -1.42573 0
M  V30 833 N 94.5984 0.214957 -1.56127 0
M  V30 834 C 95.8464 0.936518 -1.79091 0
M  V30 835 C 96.1674 1.84606 -0.628148 0
M  V30 836 O 95.4374 1.92664 0.35462 0
M  V30 837 H 94.0174 0.3488 -0.660566 0
M  V30 838 H 96.6794 0.22523 -1.93594 0
M  V30 839 H 95.7754 1.53943 -2.71492 0
M  V30 840 N 96.0765 1.50051 0.48192 0
M  V30 841 C 97.3255 1.59741 1.23149 0
M  V30 842 C 97.6385 0.298163 1.93314 0
M  V30 843 O 98.8445 0.273835 2.70116 0
M  V30 844 C 97.3005 2.81926 2.23708 0
M  V30 845 C 96.9085 4.18685 1.59396 0
M  V30 846 C 98.6525 3.00956 2.99375 0
M  V30 847 C 96.5595 5.3207 2.58178 0
M  V30 848 H 95.4895 0.594838 0.46334 0
M  V30 849 H 98.1405 1.76467 0.503169 0
M  V30 850 H 96.5225 2.58736 2.99786 0
M  V30 851 H 97.6965 4.52088 0.891811 0
M  V30 852 H 96.0115 4.05171 0.960503 0
M  V30 853 H 98.6085 3.82836 3.73283 0
M  V30 854 H 98.9515 2.12258 3.58123 0
M  V30 855 H 99.4845 3.24277 2.30411 0
M  V30 856 H 96.2235 6.22888 2.04184 0
M  V30 857 H 95.7435 5.03098 3.26577 0
M  V30 858 H 97.4225 5.62196 3.20225 0
M  V30 859 N 97.5546 -0.734337 1.39446 0
M  V30 860 C 98.4846 -1.86155 1.40955 0
M  V30 861 C 99.4656 -1.67898 0.272827 0
M  V30 862 O 100.651 -1.88207 0.478743 0
M  V30 863 C 97.7806 -3.23912 1.25294 0
M  V30 864 C 96.7346 -3.56808 2.36373 0
M  V30 865 C 96.0606 -4.93508 2.058 0
M  V30 866 C 97.3606 -3.59713 3.78687 0
M  V30 867 H 99.0546 -1.8515 2.35287 0
M  V30 868 H 96.6006 -0.889367 1.13253 0
M  V30 869 H 98.5536 -4.02443 1.2497 0
M  V30 870 H 97.2776 -3.25446 0.274308 0
M  V30 871 H 95.9366 -2.80606 2.35914 0
M  V30 872 H 95.5846 -4.91623 1.06374 0
M  V30 873 H 95.2846 -5.16486 2.80208 0
M  V30 874 H 96.8086 -5.74396 2.07128 0
M  V30 875 H 98.2226 -4.2832 3.81071 0
M  V30 876 H 96.6196 -3.94209 4.52459 0
M  V30 877 H 97.6896 -2.59504 4.09617 0
M  V30 878 N 99.0327 -1.24633 -0.964593 0
M  V30 879 C 99.9797 -1.04144 -2.05968 0
M  V30 880 C 100.95 0.046262 -1.66036 0
M  V30 881 O 102.135 -0.108972 -1.90489 0
M  V30 882 C 99.2747 -0.65563 -3.38815 0
M  V30 883 C 98.3877 -1.81714 -3.91923 0
M  V30 884 C 97.5227 -1.37662 -5.13052 0
M  V30 885 C 96.5617 -2.50788 -5.58365 0
M  V30 886 N 95.6987 -2.07582 -6.70712 0
M  V30 887 H 100.539 -1.9787 -2.22827 0
M  V30 888 H 98.0757 -0.9855 -1.09208 0
M  V30 889 H 100.034 -0.412954 -4.15151 0
M  V30 890 H 98.6637 0.244627 -3.21872 0
M  V30 891 H 97.7157 -2.1734 -3.12198 0
M  V30 892 H 99.0277 -2.66705 -4.21509 0
M  V30 893 H 98.1817 -1.093 -5.96773 0
M  V30 894 H 96.9207 -0.497293 -4.85158 0
M  V30 895 H 95.9257 -2.79906 -4.73215 0
M  V30 896 H 97.1507 -3.39283 -5.88272 0
M  V30 897 H 95.0967 -1.22051 -6.44546 0
M  V30 898 H 95.0137 -2.86125 -6.99763 0
M  V30 899 H 96.2817 -1.82369 -7.57867 0
M  V30 900 N 100.511 1.16574 -1.06058 0
M  V30 901 C 101.459 2.22941 -0.663343 0
M  V30 902 C 102.453 1.66358 0.319593 0
M  V30 903 O 103.659 1.7905 0.184713 0
M  V30 904 H 100.034 0.725907 -0.196376 0
M  V30 905 H 102.005 2.53736 -1.57037 0
M  V30 906 C 100.754 3.47642 -0.0632808 0
M  V30 907 H 100.077 3.91493 -0.810733 0
M  V30 908 H 101.517 4.2363 0.177177 0
M  V30 909 C 99.9758 3.1509 1.19248 0
M  V30 910 O 100.506 3.30673 2.28075 0
M  V30 911 N 98.7118 2.6924 1.09353 0
M  V30 912 H 98.2588 2.5676 0.207912 0
M  V30 913 H 98.2168 2.47833 1.93458 0
M  V30 914 N 101.989 0.842826 1.3317 0
M  V30 915 C 103.266 0.362216 1.92217 0
M  V30 916 C 103.646 -1.15289 1.76838 0
M  V30 917 O 102.994 -1.96914 1.15919 0
M  V30 918 C 103.204 0.813495 3.39387 0
M  V30 919 C 104.552 0.823804 4.16532 0
M  V30 920 O 105.576 0.757358 3.48055 0
M  V30 921 O 104.435 0.915193 5.38782 0
M  V30 922 H 101.529 0.103317 0.820521 0
M  V30 923 H 104.075 0.928942 1.42017 0
M  V30 924 H 102.847 1.85624 3.4447 0
M  V30 925 H 102.47 0.223561 3.96971 0
M  V30 926 N 103.467 -1.45747 0.599634 0
M  V30 927 C 104.883 -1.57424 0.26264 0
M  V30 928 C 105.083 -1.59222 -1.23493 0
M  V30 929 O 104.139 -1.51825 -2.01756 0
M  V30 930 C 105.452 -2.86061 0.926795 0
M  V30 931 C 107 -2.99722 0.901967 0
M  V30 932 C 107.475 -4.31119 1.54598 0
M  V30 933 N 108.966 -4.37858 1.5111 0
M  V30 934 C 109.701 -5.3818 1.97863 0
M  V30 935 N 109.197 -6.45083 2.52666 0
M  V30 936 N 110.99 -5.29487 1.88679 0
M  V30 937 H 103.141 -1.42823 1.57211 0
M  V30 938 H 105.404 -0.68235 0.658105 0
M  V30 939 H 105.11 -2.90605 1.98095 0
M  V30 940 H 104.984 -3.74563 0.445238 0
M  V30 941 H 107.371 -2.9475 -0.143617 0
M  V30 942 H 107.452 -2.12652 1.42171 0
M  V30 943 H 107.096 -4.36849 2.59085 0
M  V30 944 H 107.026 -5.16992 1.00132 0
M  V30 945 H 109.517 -3.61209 1.11068 0
M  V30 946 H 109.83 -7.17869 2.86155 0
M  V30 947 H 108.175 -6.45856 2.56701 0
M  V30 948 H 111.366 -4.44877 1.4561 0
M  V30 949 H 111.539 -6.07524 2.25429 0
M  V30 950 N 104.945 -0.338344 -1.53925 0
M  V30 951 C 106.194 0.260732 -2.00008 0
M  V30 952 C 106.507 1.52073 -1.23017 0
M  V30 953 O 107.713 2.19672 -1.5955 0
M  V30 954 C 106.169 0.51515 -3.56194 0
M  V30 955 C 105.777 -0.728645 -4.42035 0
M  V30 956 C 107.521 1.07337 -4.10706 0
M  V30 957 C 105.428 -0.445315 -5.89721 0
M  V30 958 H 104.358 0.101205 -0.747177 0
M  V30 959 H 107.009 -0.452866 -1.77824 0
M  V30 960 H 105.391 1.28932 -3.74423 0
M  V30 961 H 106.565 -1.50352 -4.35581 0
M  V30 962 H 104.88 -1.20813 -3.98489 0
M  V30 963 H 107.477 1.30022 -5.18651 0
M  V30 964 H 107.82 2.0273 -3.63602 0
M  V30 965 H 108.353 0.360034 -3.96167 0
M  V30 966 H 105.092 -1.36883 -6.41049 0
M  V30 967 H 104.612 0.291569 -5.99091 0
M  V30 968 H 106.291 -0.0606218 -6.46972 0
M  V30 969 N 106.423 1.57458 -0.0668435 0
M  V30 970 C 107.7 1.8469 0.644132 0
M  V30 971 C 108.08 0.958343 1.88093 0
M  V30 972 O 107.428 0.0233579 2.28488 0
M  V30 973 C 107.638 3.34767 0.986509 0
M  V30 974 C 108.986 4.02159 1.36212 0
M  V30 975 O 110.01 3.39484 1.07839 0
M  V30 976 O 108.869 5.12694 1.89227 0
M  V30 977 H 105.963 0.762816 0.319437 0
M  V30 978 H 108.509 1.6942 -0.0973986 0
M  V30 979 H 107.281 3.91151 0.107883 0
M  V30 980 H 106.904 3.55281 1.78497 0
M  V30 981 N 107.901 -0.206675 1.56239 0
M  V30 982 C 109.141 -0.93574 1.81723 0
M  V30 983 C 109.505 -1.80927 0.642609 0
M  V30 984 O 110.706 -2.57323 0.777081 0
M  V30 985 C 108.977 -1.74012 3.12177 0
M  V30 986 S 110.536 -2.52279 3.59028 0
M  V30 987 H 107.354 -0.314065 0.637875 0
M  V30 988 H 109.956 -0.200071 1.94474 0
M  V30 989 H 108.66 -1.0888 3.95693 0
M  V30 990 H 108.191 -2.51782 3.02274 0
M  V30 991 H 110.206 -3.76209 3.23545 0
M  V30 992 N 109.379 -1.50304 -0.473955 0
M  V30 993 C 110.604 -1.65175 -1.25427 0
M  V30 994 C 111.029 -0.333673 -1.85117 0
M  V30 995 O 110.387 0.702114 -1.67153 0
M  V30 996 C 110.435 -2.74295 -2.34082 0
M  V30 997 O 109.539 -2.35349 -3.38651 0
M  V30 998 H 108.88 -0.551944 -0.369126 0
M  V30 999 H 111.41 -1.96662 -0.564364 0
M  V30 1000 H 111.42 -2.97285 -2.79438 0
M  V30 1001 H 110.095 -3.69959 -1.90008 0
M  V30 1002 H 108.672 -2.22794 -2.99027 0
M  V30 1003 N 110.857 0.726932 -1.39834 0
M  V30 1004 C 111.79 1.8501 -1.33592 0
M  V30 1005 C 112.768 1.61262 -0.208191 0
M  V30 1006 O 113.952 1.84422 -0.389981 0
M  V30 1007 C 111.079 3.21143 -1.07633 0
M  V30 1008 C 110.125 3.63737 -2.22705 0
M  V30 1009 S 110.958 3.72167 -3.85035 0
M  V30 1010 C 112.114 5.11077 -3.61318 0
M  V30 1011 H 112.347 1.90022 -2.28646 0
M  V30 1012 H 109.88 0.892595 -1.25985 0
M  V30 1013 H 111.838 3.99747 -0.933415 0
M  V30 1014 H 110.499 3.13776 -0.142526 0
M  V30 1015 H 109.692 4.62551 -2.00155 0
M  V30 1016 H 109.294 2.9236 -2.33242 0
M  V30 1017 H 111.586 5.97656 -3.19083 0
M  V30 1018 H 112.529 5.38658 -4.59623 0
M  V30 1019 H 112.937 4.81135 -2.95245 0
M  V30 1020 N 112.336 1.25143 0.95797 0
M  V30 1021 C 113.283 1.05235 2.05412 0
M  V30 1022 C 114.253 -0.0374561 1.66058 0
M  V30 1023 O 115.438 0.119073 1.90428 0
M  V30 1024 C 112.578 0.673589 3.38462 0
M  V30 1025 C 111.691 1.8379 3.90954 0
M  V30 1026 C 110.826 1.40381 5.12315 0
M  V30 1027 C 109.865 2.53746 5.57027 0
M  V30 1028 N 109.002 2.11136 6.69601 0
M  V30 1029 H 113.842 1.99048 2.21774 0
M  V30 1030 H 111.379 0.991277 1.08683 0
M  V30 1031 H 113.337 0.434964 4.14926 0
M  V30 1032 H 111.967 -0.227554 3.21997 0
M  V30 1033 H 111.019 2.18992 3.11041 0
M  V30 1034 H 112.331 2.68937 4.20089 0
M  V30 1035 H 111.485 1.12464 5.96185 0
M  V30 1036 H 110.224 0.523015 4.84887 0
M  V30 1037 H 109.229 2.82412 4.71724 0
M  V30 1038 H 110.454 3.42398 5.86464 0
M  V30 1039 H 108.4 1.25468 6.4389 0
M  V30 1040 H 108.317 2.89832 6.98236 0
M  V30 1041 H 109.585 1.86385 7.56889 0
M  V30 1042 N 113.814 -1.1601 1.06675 0
M  V30 1043 C 115.042 -1.90527 0.806667 0
M  V30 1044 C 115.457 -1.77643 -0.639396 0
M  V30 1045 O 114.814 -1.12369 -1.43803 0
M  V30 1046 C 114.865 -3.41106 1.19705 0
M  V30 1047 O 114.586 -3.53608 2.58636 0
M  V30 1048 C 116.087 -4.32663 0.965266 0
M  V30 1049 H 113.307 -0.604053 0.292166 0
M  V30 1050 H 115.851 -1.47026 1.4214 0
M  V30 1051 H 114.006 -3.82296 0.626774 0
M  V30 1052 H 114.42 -4.47011 2.74375 0
M  V30 1053 H 115.894 -5.36763 1.288 0
M  V30 1054 H 116.371 -4.39089 -0.0987936 0
M  V30 1055 H 116.977 -3.97206 1.52011 0
M  V30 1056 N 115.292 -0.849877 -1.32721 0
M  V30 1057 C 116.517 -0.463856 -2.02146 0
M  V30 1058 C 116.942 0.930449 -1.63476 0
M  V30 1059 O 116.3 1.61033 -0.832952 0
M  V30 1060 C 116.348 -0.604955 -3.55489 0
M  V30 1061 O 115.452 0.36425 -4.10788 0
M  V30 1062 H 114.793 -0.187046 -0.637111 0
M  V30 1063 H 117.323 -1.14775 -1.69375 0
M  V30 1064 H 117.333 -0.490696 -4.05038 0
M  V30 1065 H 116.008 -1.62174 -3.82978 0
M  V30 1066 H 114.585 0.206628 -3.72327 0
M  V30 1067 N 116.77 1.45427 -0.607355 0
M  V30 1068 C 117.717 2.3053 0.111625 0
M  V30 1069 C 118.687 1.4209 0.860216 0
M  V30 1070 O 119.872 1.71019 0.845998 0
M  V30 1071 C 117.012 3.26992 1.10319 0
M  V30 1072 C 116.125 4.30535 0.355493 0
M  V30 1073 C 115.26 5.14105 1.33676 0
M  V30 1074 C 114.299 6.09376 0.576862 0
M  V30 1075 N 113.436 6.85727 1.5074 0
M  V30 1076 H 118.276 2.91477 -0.620093 0
M  V30 1077 H 115.813 1.43631 -0.317594 0
M  V30 1078 H 117.771 3.81385 1.6912 0
M  V30 1079 H 116.401 2.67799 1.80232 0
M  V30 1080 H 115.453 3.78805 -0.348023 0
M  V30 1081 H 116.765 4.98235 -0.237423 0
M  V30 1082 H 115.919 5.72897 1.99684 0
M  V30 1083 H 114.658 4.46423 1.9636 0
M  V30 1084 H 113.663 5.49715 -0.0968519 0
M  V30 1085 H 114.888 6.79085 -0.0449341 0
M  V30 1086 H 112.834 6.20735 2.12189 0
M  V30 1087 H 112.751 7.49778 0.967913 0
M  V30 1088 H 114.019 7.4906 2.15706 0
M  V30 1089 N 118.248 0.346503 1.53744 0
M  V30 1090 C 119.473 -0.253074 2.0585 0
M  V30 1091 C 119.898 -1.43202 1.21962 0
M  V30 1092 O 119.256 -1.79783 0.234073 0
M  V30 1093 C 119.304 -0.643193 3.54817 0
M  V30 1094 O 118.408 -1.74286 3.73762 0
M  V30 1095 H 117.749 -0.0413583 0.662711 0
M  V30 1096 H 120.279 0.501574 1.98357 0
M  V30 1097 H 120.289 -0.919526 3.97503 0
M  V30 1098 H 118.964 0.218966 4.15323 0
M  V30 1099 H 117.541 -1.46356 3.42979 0
M  V30 1100 N 119.726 -1.57421 0.075193 0
M  V30 1101 C 120.951 -1.98364 -0.605515 0
M  V30 1102 C 121.376 -0.953383 -1.62149 0
M  V30 1103 O 120.734 0.0806053 -1.81121 0
M  V30 1104 C 120.782 -3.38332 -1.24756 0
M  V30 1105 O 119.886 -3.37959 -2.36342 0
M  V30 1106 H 119.227 -0.645553 -0.155428 0
M  V30 1107 H 121.757 -2.04044 0.150714 0
M  V30 1108 H 121.767 -3.75591 -1.5936 0
M  V30 1109 H 120.442 -4.12846 -0.503129 0
M  V30 1110 H 119.019 -3.12474 -2.03506 0
M  V30 1111 N 121.204 0.198386 -1.56346 0
M  V30 1112 C 122.167 1.22952 -1.93431 0
M  V30 1113 C 123.167 1.38611 -0.815092 0
M  V30 1114 O 124.357 1.36479 -1.08255 0
M  V30 1115 C 121.489 2.59946 -2.20546 0
M  V30 1116 H 122.682 0.912626 -2.85677 0
M  V30 1117 H 120.235 0.43977 -1.49986 0
M  V30 1118 H 120.97 2.96696 -1.30927 0
M  V30 1119 H 120.755 2.49953 -3.02102 0
M  V30 1120 H 122.245 3.3431 -2.50253 0
M  V30 1121 N 122.682 1.50554 0.465978 0
M  V30 1122 C 124.093 1.54599 1.04671 0
M  V30 1123 C 124.444 0.352488 1.93008 0
M  V30 1124 O 123.569 -0.534044 2.09707 0
M  V30 1125 C 124.164 2.80166 1.90505 0
M  V30 1126 C 122.723 2.86876 2.43678 0
M  V30 1127 C 121.87 2.48947 1.22151 0
M  V30 1128 H 124.821 1.56744 0.248384 0
M  V30 1129 H 124.842 2.62311 2.75633 0
M  V30 1130 H 124.354 3.67013 1.26186 0
M  V30 1131 H 122.455 2.04393 3.11536 0
M  V30 1132 H 122.568 3.89885 2.78436 0
M  V30 1133 H 120.932 2.01498 1.5579 0
M  V30 1134 H 121.715 3.38107 0.594866 0
M  V30 1135 N 124.16 -0.719506 1.40217 0
M  V30 1136 C 125.408 -1.47641 1.3801 0
M  V30 1137 C 125.729 -1.94992 -0.018145 0
M  V30 1138 O 124.999 -1.70073 -0.972207 0
M  V30 1139 H 123.579 -0.547744 0.507923 0
M  V30 1140 H 126.241 -0.853187 1.75233 0
M  V30 1141 H 125.337 -2.35112 2.05253 0
M  V30 1142 N 125.638 -1.25649 -0.95132 0
M  V30 1143 C 126.571 -1.00644 -2.04807 0
M  V30 1144 C 127.549 0.0654271 -1.62468 0
M  V30 1145 O 128.733 -0.074911 -1.88351 0
M  V30 1146 C 125.86 -0.522052 -3.34653 0
M  V30 1147 C 124.906 -1.58495 -3.95957 0
M  V30 1148 S 125.739 -3.17108 -4.31512 0
M  V30 1149 C 126.895 -2.70412 -5.64471 0
M  V30 1150 H 127.128 -1.93508 -2.25703 0
M  V30 1151 H 124.661 -1.09216 -1.09139 0
M  V30 1152 H 126.619 -0.24923 -4.09743 0
M  V30 1153 H 125.28 0.386146 -3.11717 0
M  V30 1154 H 124.473 -1.1968 -4.89584 0
M  V30 1155 H 124.075 -1.80862 -3.2736 0
M  V30 1156 H 126.367 -2.14245 -6.42733 0
M  V30 1157 H 127.31 -3.62693 -6.08161 0
M  V30 1158 H 127.718 -2.10302 -5.23864 0
M  V30 1159 N 127.117 1.15442 -1.07289 0
M  V30 1160 C 128.345 1.90096 -0.81676 0
M  V30 1161 C 128.76 1.7798 0.629966 0
M  V30 1162 O 128.117 1.1313 1.43206 0
M  V30 1163 C 128.168 3.40466 -1.21512 0
M  V30 1164 O 127.889 3.52232 -2.60508 0
M  V30 1165 C 129.39 4.32145 -0.988198 0
M  V30 1166 H 126.61 0.602495 -0.295366 0
M  V30 1167 H 129.154 1.4627 -1.42918 0
M  V30 1168 H 127.309 3.81958 -0.647039 0
M  V30 1169 H 127.723 4.45549 -2.76742 0
M  V30 1170 H 129.197 5.36072 -1.31645 0
M  V30 1171 H 129.674 4.39135 0.0755063 0
M  V30 1172 H 130.28 3.96395 -1.54115 0
M  V30 1173 N 128.595 0.856903 1.32268 0
M  V30 1174 C 129.542 0.301172 2.28827 0
M  V30 1175 C 130.512 -0.593104 1.5515 0
M  V30 1176 O 131.697 -0.527537 1.83362 0
M  V30 1177 C 128.837 -0.502523 3.41422 0
M  V30 1178 C 127.95 0.417797 4.29975 0
M  V30 1179 C 127.085 -0.398749 5.29701 0
M  V30 1180 C 126.124 0.518827 6.09897 0
M  V30 1181 N 125.261 -0.260674 7.01616 0
M  V30 1182 H 130.101 1.12983 2.75751 0
M  V30 1183 H 127.638 0.568582 1.35667 0
M  V30 1184 H 129.596 -0.984141 4.05426 0
M  V30 1185 H 128.226 -1.29599 2.95642 0
M  V30 1186 H 127.278 1.01781 3.66531 0
M  V30 1187 H 128.59 1.12191 4.86019 0
M  V30 1188 H 127.744 -0.943435 5.9932 0
M  V30 1189 H 126.483 -1.13622 4.7428 0
M  V30 1190 H 125.488 1.07538 5.39181 0
M  V30 1191 H 126.713 1.25495 6.67404 0
M  V30 1192 H 124.659 -0.981198 6.4862 0
M  V30 1193 H 124.576 0.384364 7.55022 0
M  V30 1194 H 125.844 -0.787014 7.75517 0
M  V30 1195 N 130.073 -1.45103 0.615059 0
M  V30 1196 C 131.298 -2.07064 0.117988 0
M  V30 1197 C 131.723 -1.4554 -1.19163 0
M  V30 1198 O 131.081 -0.550855 -1.72729 0
M  V30 1199 C 131.129 -3.606 -0.000288387 0
M  V30 1200 O 130.233 -3.98847 -1.04856 0
M  V30 1201 H 129.574 -0.659467 0.0774581 0
M  V30 1202 H 132.104 -1.86236 0.847186 0
M  V30 1203 H 132.114 -4.07529 -0.196091 0
M  V30 1204 H 130.789 -4.04765 0.955932 0
M  V30 1205 H 129.366 -3.63577 -0.828619 0
M  V30 1206 N 131.551 -0.354651 -1.53558 0
M  V30 1207 C 132.501 0.513179 -2.2215 0
M  V30 1208 C 133.485 1.05734 -1.21281 0
M  V30 1209 O 134.677 0.989202 -1.46778 0
M  V30 1210 C 131.806 1.65798 -3.00609 0
M  V30 1211 C 130.892 1.12722 -4.08845 0
M  V30 1212 N 131.283 0.318563 -5.04796 0
M  V30 1213 C 129.581 1.40307 -4.23356 0
M  V30 1214 C 130.282 0.0292224 -5.81693 0
M  V30 1215 N 129.258 0.623891 -5.40008 0
M  V30 1216 H 133.06 -0.111586 -2.93688 0
M  V30 1217 H 130.574 -0.162091 -1.61589 0
M  V30 1218 H 132.571 2.29176 -3.48258 0
M  V30 1219 H 131.231 2.28591 -2.306 0
M  V30 1220 H 132.242 -0.0413091 -5.17884 0
M  V30 1221 H 128.919 2.03458 -3.6457 0
M  V30 1222 H 130.309 -0.623808 -6.68998 0
M  V30 1223 N 133.029 1.57378 -0.0835403 0
M  V30 1224 C 134.254 1.98682 0.594987 0
M  V30 1225 C 134.679 0.961969 1.61641 0
M  V30 1226 O 134.037 -0.0709989 1.81161 0
M  V30 1227 C 134.085 3.38988 1.2296 0
M  V30 1228 O 133.189 3.39208 2.34546 0
M  V30 1229 H 132.53 0.646368 0.152002 0
M  V30 1230 H 135.06 2.03961 -0.161533 0
M  V30 1231 H 135.07 3.76431 1.57366 0
M  V30 1232 H 133.745 4.13107 0.481228 0
M  V30 1233 H 132.322 3.13548 2.01846 0
M  V30 1234 N 134.507 -0.190092 1.56449 0
M  V30 1235 C 135.755 -0.907908 1.80559 0
M  V30 1236 C 136.076 -1.83583 0.657438 0
M  V30 1237 O 135.346 -1.93203 -0.323924 0
M  V30 1238 H 133.926 -0.338247 0.666032 0
M  V30 1239 H 136.588 -0.194403 1.93928 0
M  V30 1240 H 135.684 -1.49604 2.73907 0
M  V30 1241 N 135.985 -1.50799 -0.457987 0
M  V30 1242 C 137.231 -1.62683 -1.21088 0
M  V30 1243 C 137.564 -0.332268 -1.91336 0
M  V30 1244 O 136.839 0.667043 -1.82704 0
M  V30 1245 C 137.122 -2.81615 -2.24422 0
M  V30 1246 C 136.975 -4.20989 -1.58392 0
M  V30 1247 C 138.294 -2.96085 -3.2561 0
M  V30 1248 H 135.413 -0.592087 -0.438864 0
M  V30 1249 H 138.055 -1.83225 -0.50286 0
M  V30 1250 H 136.205 -2.64231 -2.84806 0
M  V30 1251 H 137.877 -4.49994 -1.01504 0
M  V30 1252 H 136.12 -4.24641 -0.886704 0
M  V30 1253 H 136.791 -5.0016 -2.33547 0
M  V30 1254 H 139.267 -3.12042 -2.75262 0
M  V30 1255 H 138.143 -3.80902 -3.95228 0
M  V30 1256 H 138.404 -2.0726 -3.90507 0
M  V30 1257 N 137.463 0.71206 -1.40597 0
M  V30 1258 C 138.691 1.50111 -1.42388 0
M  V30 1259 C 139.106 1.88784 -0.0245395 0
M  V30 1260 O 138.463 1.55681 0.952351 0
M  V30 1261 C 138.514 2.7742 -2.31776 0
M  V30 1262 O 138.235 2.40382 -3.66262 0
M  V30 1263 C 139.736 3.7129 -2.42196 0
M  V30 1264 H 136.956 0.46314 -0.485533 0
M  V30 1265 H 139.5 0.878068 -1.8469 0
M  V30 1266 H 137.655 3.36001 -1.92827 0
M  V30 1267 H 138.069 3.22324 -4.13772 0
M  V30 1268 H 139.543 4.57448 -3.08943 0
M  V30 1269 H 140.02 4.14641 -1.44809 0
M  V30 1270 H 140.626 3.18619 -2.81712 0
M  V30 1271 N 138.941 1.26152 0.944643 0
M  V30 1272 C 139.888 1.07408 2.04285 0
M  V30 1273 C 140.858 -0.0198413 1.66088 0
M  V30 1274 O 142.043 0.139264 1.90291 0
M  V30 1275 C 139.183 0.70945 3.37729 0
M  V30 1276 C 138.296 1.87926 3.88983 0
M  V30 1277 C 137.431 1.45807 5.10797 0
M  V30 1278 C 136.47 2.5964 5.54305 0
M  V30 1279 N 135.607 2.18226 6.67324 0
M  V30 1280 H 140.447 2.01389 2.1965 0
M  V30 1281 H 137.984 1.00275 1.07626 0
M  V30 1282 H 139.942 0.478948 4.14442 0
M  V30 1283 H 138.572 -0.193389 3.2222 0
M  V30 1284 H 137.624 2.22279 3.08701 0
M  V30 1285 H 138.936 2.73377 4.17213 0
M  V30 1286 H 138.09 1.18781 5.94959 0
M  V30 1287 H 136.829 0.574414 4.84305 0
M  V30 1288 H 135.834 2.87399 4.68702 0
M  V30 1289 H 137.059 3.48599 5.828 0
M  V30 1290 H 135.005 1.3229 6.42523 0
M  V30 1291 H 134.922 2.97221 6.95123 0
M  V30 1292 H 136.19 1.94403 7.54869 0
M  V30 1293 N 140.419 -1.14872 1.07899 0
M  V30 1294 C 141.666 -1.85789 0.805532 0
M  V30 1295 C 141.994 -1.82649 -0.668561 0
M  V30 1296 O 141.249 -1.24858 -1.50695 0
M  V30 1297 C 141.548 -3.34223 1.26609 0
M  V30 1298 C 141.214 -3.57555 2.74709 0
M  V30 1299 C 139.876 -3.63631 3.1516 0
M  V30 1300 C 142.228 -3.66803 3.70277 0
M  V30 1301 C 139.556 -3.76473 4.49983 0
M  V30 1302 C 141.908 -3.8117 5.04869 0
M  V30 1303 C 140.572 -3.85494 5.44932 0
M  V30 1304 H 139.842 -0.679849 0.294765 0
M  V30 1305 H 142.489 -1.3572 1.35101 0
M  V30 1306 H 140.794 -3.86536 0.640103 0
M  V30 1307 H 142.491 -3.87511 1.03132 0
M  V30 1308 H 139.081 -3.5347 2.42398 0
M  V30 1309 H 143.265 -3.61404 3.40149 0
M  V30 1310 H 138.521 -3.7808 4.80484 0
M  V30 1311 H 142.695 -3.87268 5.78789 0
M  V30 1312 H 140.322 -3.95197 6.49403 0
M  V30 1313 N 141.898 -0.863906 -1.31812 0
M  V30 1314 C 143.123 -0.48527 -2.01643 0
M  V30 1315 C 143.548 0.913058 -1.64453 0
M  V30 1316 O 142.906 1.6014 -0.849985 0
M  V30 1317 C 142.954 -0.642625 -3.54828 0
M  V30 1318 O 142.058 0.320659 -4.11151 0
M  V30 1319 H 141.399 -0.193793 -0.635091 0
M  V30 1320 H 143.929 -1.16565 -1.68148 0
M  V30 1321 H 143.939 -0.533628 -4.04495 0
M  V30 1322 H 142.614 -1.66227 -3.81237 0
M  V30 1323 H 141.191 0.167126 -3.72525 0
M  V30 1324 N 143.376 1.44774 -0.622745 0
M  V30 1325 C 144.624 2.01721 -0.123655 0
M  V30 1326 C 144.945 1.49172 1.25589 0
M  V30 1327 O 144.215 0.691974 1.83272 0
M  V30 1328 H 142.795 0.745777 -0.0427225 0
M  V30 1329 H 145.457 1.77382 -0.807559 0
M  V30 1330 H 144.553 3.11984 -0.0849534 0
M  V30 1331 N 144.854 0.36279 1.53368 0
M  V30 1332 C 145.787 -0.528507 2.21996 0
M  V30 1333 C 146.765 -1.0852 1.21087 0
M  V30 1334 O 147.949 -1.14186 1.4998 0
M  V30 1335 C 145.076 -1.72893 2.91249 0
M  V30 1336 C 144.122 -1.29994 4.06207 0
M  V30 1337 S 144.955 -0.303575 5.34639 0
M  V30 1338 C 146.111 -1.51039 6.07403 0
M  V30 1339 H 146.344 0.0543423 2.9725 0
M  V30 1340 H 143.877 0.146889 1.537 0
M  V30 1341 H 145.835 -2.41751 3.31763 0
M  V30 1342 H 144.496 -2.28303 2.15724 0
M  V30 1343 H 143.689 -2.19549 4.53667 0
M  V30 1344 H 143.291 -0.690608 3.67569 0
M  V30 1345 H 145.583 -2.44186 6.31965 0
M  V30 1346 H 146.526 -1.07721 6.99858 0
M  V30 1347 H 146.934 -1.71518 5.37812 0
M  V30 1348 N 146.332 -1.57332 0.0918853 0
M  V30 1349 C 147.578 -1.94524 -0.573425 0
M  V30 1350 C 147.911 -0.973578 -1.68033 0
M  V30 1351 O 147.186 -0.00609226 -1.94499 0
M  V30 1352 C 147.469 -3.41858 -1.13161 0
M  V30 1353 C 147.322 -4.4979 -0.0299747 0
M  V30 1354 C 148.641 -3.90435 -2.03098 0
M  V30 1355 H 145.76 -0.70734 -0.206975 0
M  V30 1356 H 148.402 -1.89309 0.161942 0
M  V30 1357 H 146.552 -3.46433 -1.7583 0
M  V30 1358 H 148.224 -4.57327 0.604112 0
M  V30 1359 H 146.467 -4.291 0.636833 0
M  V30 1360 H 147.138 -5.50069 -0.461287 0
M  V30 1361 H 149.614 -3.87992 -1.50338 0
M  V30 1362 H 148.49 -4.94097 -2.39081 0
M  V30 1363 H 148.751 -3.29541 -2.94712 0
M  V30 1364 N 147.81 0.181792 -1.56548 0
M  V30 1365 C 148.74 1.22765 -1.98623 0
M  V30 1366 C 149.721 1.46747 -0.860189 0
M  V30 1367 O 150.906 1.58259 -1.12551 0
M  V30 1368 C 148.036 2.56894 -2.33715 0
M  V30 1369 C 146.99 2.475 -3.49182 0
M  V30 1370 C 146.316 3.86023 -3.69986 0
M  V30 1371 C 147.616 1.98866 -4.82959 0
M  V30 1372 H 149.31 0.877942 -2.86239 0
M  V30 1373 H 146.856 0.42088 -1.37712 0
M  V30 1374 H 148.809 3.30253 -2.61746 0
M  V30 1375 H 147.533 2.93632 -1.42997 0
M  V30 1376 H 146.192 1.76596 -3.21262 0
M  V30 1377 H 145.84 4.20136 -2.76576 0
M  V30 1378 H 145.54 3.80609 -4.47672 0
M  V30 1379 H 147.064 4.60984 -4.00407 0
M  V30 1380 H 148.478 2.61992 -5.09934 0
M  V30 1381 H 146.875 2.04424 -5.64208 0
M  V30 1382 H 147.945 0.942465 -4.75653 0
M  V30 1383 N 149.288 1.51039 0.449983 0
M  V30 1384 C 150.218 1.74379 1.55288 0
M  V30 1385 C 151.199 0.593236 1.5942 0
M  V30 1386 O 152.384 0.834625 1.7535 0
M  V30 1387 C 149.514 1.85728 2.93466 0
M  V30 1388 C 148.468 3.01078 3.04197 0
M  V30 1389 C 147.794 2.97595 4.44231 0
M  V30 1390 C 149.094 4.41254 2.7945 0
M  V30 1391 H 150.788 2.66725 1.36008 0
M  V30 1392 H 148.334 1.2835 0.652864 0
M  V30 1393 H 150.287 2.0064 3.70569 0
M  V30 1394 H 149.011 0.900207 3.13949 0
M  V30 1395 H 147.67 2.85851 2.29531 0
M  V30 1396 H 147.318 1.99691 4.61663 0
M  V30 1397 H 147.018 3.75046 4.52343 0
M  V30 1398 H 148.542 3.14583 5.23326 0
M  V30 1399 H 149.956 4.56897 3.46292 0
M  V30 1400 H 148.353 5.20315 2.98985 0
M  V30 1401 H 149.423 4.52164 1.75144 0
M  V30 1402 N 150.766 -0.704594 1.40972 0
M  V30 1403 C 152.006 -1.47691 1.41304 0
M  V30 1404 C 152.37 -1.91992 0.0178582 0
M  V30 1405 O 153.571 -2.68599 -0.103996 0
M  V30 1406 C 151.842 -2.66254 2.38419 0
M  V30 1407 S 153.401 -3.55516 2.57204 0
M  V30 1408 H 150.219 -0.504808 0.500689 0
M  V30 1409 H 152.821 -0.822962 1.77335 0
M  V30 1410 H 151.525 -2.31897 3.38603 0
M  V30 1411 H 151.056 -3.3655 2.03711 0
M  V30 1412 H 153.071 -4.61115 1.83268 0
M  V30 1413 N 152.244 -1.26651 -0.937939 0
M  V30 1414 C 153.191 -1.0849 -2.03712 0
M  V30 1415 C 154.161 0.011033 -1.66096 0
M  V30 1416 O 155.346 -0.149353 -1.90215 0
M  V30 1417 C 152.486 -0.72735 -3.37348 0
M  V30 1418 C 151.599 -1.89986 -3.87981 0
M  V30 1419 C 150.734 -1.48513 -5.10017 0
M  V30 1420 C 149.773 -2.62575 -5.5292 0
M  V30 1421 N 148.91 -2.21762 -6.66158 0
M  V30 1422 H 153.75 -2.02551 -2.18579 0
M  V30 1423 H 151.287 -1.00844 -1.07093 0
M  V30 1424 H 153.245 -0.50092 -4.14182 0
M  V30 1425 H 151.875 0.176298 -3.22318 0
M  V30 1426 H 150.927 -2.23913 -3.07518 0
M  V30 1427 H 152.239 -2.75586 -4.15757 0
M  V30 1428 H 151.393 -1.21934 -5.94321 0
M  V30 1429 H 150.132 -0.60009 -4.83994 0
M  V30 1430 H 149.137 -2.8988 -4.67172 0
M  V30 1431 H 150.362 -3.51685 -5.80943 0
M  V30 1432 H 148.308 -1.35696 -6.41812 0
M  V30 1433 H 148.225 -3.00903 -6.93537 0
M  V30 1434 H 149.493 -1.98403 -7.53828 0
M  V30 1435 N 153.722 1.14298 -1.08507 0
M  V30 1436 C 154.968 1.85633 -0.816581 0
M  V30 1437 C 155.301 1.82784 0.656021 0
M  V30 1438 O 154.576 1.25926 1.48233 0
M  V30 1439 C 154.859 3.34223 -1.34041 0
M  V30 1440 C 154.712 3.45639 -2.87843 0
M  V30 1441 C 156.031 4.29356 -0.9665 0
M  V30 1442 H 153.15 0.67402 -0.298104 0
M  V30 1443 H 155.792 1.34214 -1.34487 0
M  V30 1444 H 153.942 3.78144 -0.89104 0
M  V30 1445 H 155.614 3.10498 -3.41158 0
M  V30 1446 H 153.857 2.86817 -3.25451 0
M  V30 1447 H 154.528 4.50089 -3.19569 0
M  V30 1448 H 157.004 3.93457 -1.35391 0
M  V30 1449 H 155.88 5.3178 -1.3602 0
M  V30 1450 H 156.141 4.41919 0.126362 0
M  V30 1451 N 155.201 0.870884 1.31352 0
M  V30 1452 C 156.441 0.488783 1.9847 0
M  V30 1453 C 156.805 -0.941536 1.67329 0
M  V30 1454 O 158.006 -1.42903 2.27667 0
M  V30 1455 C 156.277 0.739688 3.49662 0
M  V30 1456 S 157.836 0.457582 4.36408 0
M  V30 1457 H 154.654 0.18242 0.6872 0
M  V30 1458 H 157.256 1.12711 1.59739 0
M  V30 1459 H 155.96 1.77944 3.69816 0
M  V30 1460 H 155.491 0.0883905 3.93301 0
M  V30 1461 H 157.506 -0.709752 4.91098 0
M  V30 1462 N 156.679 -1.44442 0.630414 0
M  V30 1463 C 157.927 -2.01653 0.134351 0
M  V30 1464 C 158.248 -1.49836 -1.24796 0
M  V30 1465 O 157.518 -0.701684 -1.82902 0
M  V30 1466 H 156.098 -0.74554 0.0466769 0
M  V30 1467 H 158.76 -1.76952 0.816955 0
M  V30 1468 H 157.856 -3.11935 0.101498 0
M  V30 1469 N 158.157 -0.370918 -1.53173 0
M  V30 1470 C 159.434 0.273754 -1.93675 0
M  V30 1471 C 159.814 1.65938 -1.3049 0
M  V30 1472 O 159.162 2.23698 -0.465999 0
M  V30 1473 C 159.372 0.318602 -3.47543 0
M  V30 1474 C 160.72 0.556392 -4.20939 0
M  V30 1475 O 161.744 0.399587 -3.53952 0
M  V30 1476 O 160.603 0.862133 -5.39657 0
M  V30 1477 H 157.697 0.165448 -0.810281 0
M  V30 1478 H 160.243 -0.42409 -1.64315 0
M  V30 1479 H 159.015 -0.652687 -3.85818 0
M  V30 1480 H 158.638 1.06212 -3.83151 0
M  V30 1481 N 159.635 1.57281 -0.100228 0
M  V30 1482 C 160.881 1.94826 0.563101 0
M  V30 1483 C 161.214 0.982475 1.67514 0
M  V30 1484 O 160.489 0.0164069 1.94493 0
M  V30 1485 C 160.772 3.42453 1.11346 0
M  V30 1486 C 160.625 4.498 0.00612081 0
M  V30 1487 C 161.944 3.91506 2.01024 0
M  V30 1488 H 159.063 0.708428 0.203221 0
M  V30 1489 H 161.705 1.8922 -0.171979 0
M  V30 1490 H 159.855 3.47361 1.7399 0
M  V30 1491 H 161.527 4.57 -0.628357 0
M  V30 1492 H 159.77 4.28756 -0.659581 0
M  V30 1493 H 160.441 5.50306 0.432109 0
M  V30 1494 H 162.917 3.88784 1.48278 0
M  V30 1495 H 161.793 4.95358 2.36457 0
M  V30 1496 H 162.054 3.31099 2.92961 0
M  V30 1497 N 161.113 -0.173488 1.56642 0
M  V30 1498 C 162.076 -1.19859 1.95362 0
M  V30 1499 C 163.076 -1.37296 0.83704 0
M  V30 1500 O 164.266 -1.34739 1.10413 0
M  V30 1501 C 161.398 -2.56405 2.24654 0
M  V30 1502 H 162.591 -0.867062 2.87092 0
M  V30 1503 H 160.144 -0.415853 1.50666 0
M  V30 1504 H 160.879 -2.94576 1.35631 0
M  V30 1505 H 160.664 -2.45115 3.06041 0
M  V30 1506 H 162.154 -3.30287 2.5554 0
M  V30 1507 N 162.591 -1.51276 -0.441967 0
M  V30 1508 C 163.816 -1.67799 -1.21895 0
M  V30 1509 C 164.241 -0.372864 -1.84367 0
M  V30 1510 O 163.599 0.666501 -1.68604 0
M  V30 1511 C 163.647 -2.79199 -2.28211 0
M  V30 1512 O 162.751 -2.42479 -3.33583 0
M  V30 1513 H 162.092 -0.559649 -0.357336 0
M  V30 1514 H 164.622 -1.97815 -0.522522 0
M  V30 1515 H 164.632 -3.03146 -2.73069 0
M  V30 1516 H 163.307 -3.73906 -1.82118 0
M  V30 1517 H 161.884 -2.29087 -2.94234 0
M  V30 1518 N 164.069 0.697108 -1.41344 0
M  V30 1519 C 165.317 1.45426 -1.40341 0
M  V30 1520 C 165.638 1.94996 -0.0128787 0
M  V30 1521 O 164.908 1.71599 0.945027 0
M  V30 1522 H 163.488 0.539594 -0.516573 0
M  V30 1523 H 166.15 0.825201 -1.76569 0
M  V30 1524 H 165.246 2.31817 -2.08967 0
M  V30 1525 N 165.547 1.27147 0.931209 0
M  V30 1526 C 166.794 1.13278 1.67852 0
M  V30 1527 C 167.122 -0.32204 1.91815 0
M  V30 1528 O 166.377 -1.25224 1.50391 0
M  V30 1529 C 166.676 1.8579 3.05314 0
M  V30 1530 C 166.342 3.35657 3.01073 0
M  V30 1531 C 165.004 3.76536 2.99623 0
M  V30 1532 C 167.356 4.31299 2.92627 0
M  V30 1533 C 164.684 5.11426 2.87506 0
M  V30 1534 C 167.036 5.66242 2.82051 0
M  V30 1535 C 165.7 6.06418 2.7895 0
M  V30 1536 H 164.97 0.414515 0.614214 0
M  V30 1537 H 167.617 1.57712 1.08624 0
M  V30 1538 H 165.922 1.33854 3.68226 0
M  V30 1539 H 167.619 1.72491 3.62005 0
M  V30 1540 H 164.209 3.03146 3.02986 0
M  V30 1541 H 168.393 4.00692 2.92848 0
M  V30 1542 H 163.649 5.41705 2.83489 0
M  V30 1543 H 167.823 6.40026 2.74481 0
M  V30 1544 H 165.45 7.10895 2.69318 0
M  V30 1545 N 167.025 -1.13721 1.09112 0
M  V30 1546 C 167.975 -2.17082 0.697091 0
M  V30 1547 C 168.959 -1.58321 -0.286923 0
M  V30 1548 O 170.151 -1.7673 -0.0978008 0
M  V30 1549 C 167.28 -3.43105 0.115729 0
M  V30 1550 C 166.366 -4.0888 1.12596 0
M  V30 1551 N 166.757 -4.4987 2.31195 0
M  V30 1552 C 165.055 -4.35471 0.963366 0
M  V30 1553 C 165.756 -5.01094 2.95431 0
M  V30 1554 N 164.732 -4.95751 2.23006 0
M  V30 1555 H 168.534 -2.46524 1.6001 0
M  V30 1556 H 166.048 -1.30481 0.966869 0
M  V30 1557 H 168.045 -4.16491 -0.184555 0
M  V30 1558 H 166.705 -3.15138 -0.78217 0
M  V30 1559 H 167.716 -4.42678 2.68806 0
M  V30 1560 H 164.393 -4.17328 0.119878 0
M  V30 1561 H 165.783 -5.4263 3.96236 0
M  V30 1562 N 168.503 -0.877838 -1.30888 0
M  V30 1563 C 169.733 -0.506678 -2.00291 0
M  V30 1564 C 170.141 0.907449 -1.66018 0
M  V30 1565 O 169.484 1.60719 -0.88967 0
M  V30 1566 C 169.546 -0.59323 -3.54572 0
M  V30 1567 C 169.21 -1.97038 -4.12341 0
M  V30 1568 C 170.207 -2.93889 -4.28865 0
M  V30 1569 C 167.892 -2.27383 -4.47886 0
M  V30 1570 C 169.886 -4.19224 -4.80136 0
M  V30 1571 C 167.573 -3.52965 -4.98857 0
M  V30 1572 C 168.571 -4.48701 -5.14934 0
M  V30 1573 O 168.259 -5.72056 -5.64808 0
M  V30 1574 H 167.991 -0.1951 -0.647234 0
M  V30 1575 H 170.545 -1.18301 -1.6791 0
M  V30 1576 H 168.775 0.140057 -3.86446 0
M  V30 1577 H 170.464 -0.234372 -4.05223 0
M  V30 1578 H 171.23 -2.71756 -4.01714 0
M  V30 1579 H 167.109 -1.53639 -4.34645 0
M  V30 1580 H 170.653 -4.93956 -4.92599 0
M  V30 1581 H 166.55 -3.74939 -5.25443 0
M  V30 1582 H 167.318 -5.74337 -5.83163 0
M  V30 1583 N 169.982 1.44106 -0.638065 0
M  V30 1584 C 171.23 2.01579 -0.145043 0
M  V30 1585 C 171.551 1.50496 1.24 0
M  V30 1586 O 170.821 0.711374 1.82527 0
M  V30 1587 H 169.401 0.745282 -0.05063 0
M  V30 1588 H 172.063 1.76516 -0.826327 0
M  V30 1589 H 171.159 3.11877 -0.118039 0
M  V30 1590 N 171.46 0.379036 1.52974 0
M  V30 1591 C 172.706 -0.206727 2.01744 0
M  V30 1592 C 173.039 -1.47314 1.26539 0
M  V30 1593 O 172.314 -1.91084 0.362903 0
M  V30 1594 C 172.597 -0.485066 3.56818 0
M  V30 1595 C 172.45 0.795919 4.42702 0
M  V30 1596 C 173.769 -1.28003 4.21074 0
M  V30 1597 H 170.888 -0.0736607 0.73331 0
M  V30 1598 H 173.53 0.506581 1.83122 0
M  V30 1599 H 171.68 -1.09272 3.72816 0
M  V30 1600 H 173.352 1.43307 4.38476 0
M  V30 1601 H 171.595 1.41344 4.10127 0
M  V30 1602 H 172.266 0.555947 5.49193 0
M  V30 1603 H 174.742 -0.765867 4.08991 0
M  V30 1604 H 173.618 -1.44352 5.29579 0
M  V30 1605 H 173.879 -2.29236 3.78026 0
M  V30 1606 N 172.938 -1.57226 0.108567 0
M  V30 1607 C 173.888 -2.11305 -0.856396 0
M  V30 1608 C 174.872 -1.03129 -1.23504 0
M  V30 1609 O 176.064 -1.29381 -1.20787 0
M  V30 1610 C 173.193 -2.70771 -2.11041 0
M  V30 1611 C 172.279 -3.86011 -1.7566 0
M  V30 1612 N 172.67 -4.93492 -1.10902 0
M  V30 1613 C 170.968 -3.95999 -2.05185 0
M  V30 1614 C 171.669 -5.73984 -0.944308 0
M  V30 1615 N 170.645 -5.2346 -1.46596 0
M  V30 1616 H 174.447 -2.91784 -0.352002 0
M  V30 1617 H 171.961 -1.62126 -0.0942324 0
M  V30 1618 H 173.958 -3.07851 -2.81128 0
M  V30 1619 H 172.618 -1.91751 -2.62034 0
M  V30 1620 H 173.629 -5.1208 -0.774235 0
M  V30 1621 H 170.306 -3.28007 -2.58298 0
M  V30 1622 H 171.696 -6.70479 -0.436813 0
M  V30 1623 N 174.416 0.165178 -1.56732 0
M  V30 1624 C 175.379 1.18822 -1.95995 0
M  V30 1625 C 176.379 1.3685 -0.84431 0
M  V30 1626 O 177.569 1.34152 -1.11126 0
M  V30 1627 C 174.701 2.5521 -2.26011 0
M  V30 1628 H 175.894 0.851825 -2.87548 0
M  V30 1629 H 173.447 0.407857 -1.50885 0
M  V30 1630 H 174.182 2.93852 -1.37191 0
M  V30 1631 H 173.967 2.43489 -3.07336 0
M  V30 1632 H 175.457 3.28927 -2.57288 0
M  V30 1633 N 175.894 1.51508 0.433938 0
M  V30 1634 C 177.134 1.66006 1.19253 0
M  V30 1635 C 177.498 0.369868 1.88404 0
M  V30 1636 O 178.699 0.39066 2.65946 0
M  V30 1637 C 176.97 2.83229 2.17981 0
M  V30 1638 S 178.529 3.18075 3.02281 0
M  V30 1639 H 175.347 0.584821 0.404358 0
M  V30 1640 H 177.949 1.89425 0.48357 0
M  V30 1641 H 176.653 3.75407 1.65824 0
M  V30 1642 H 176.184 2.6201 2.93453 0
M  V30 1643 H 178.199 2.64772 4.19655 0
M  V30 1644 N 177.372 -0.689602 1.41712 0
M  V30 1645 C 178.282 -1.83314 1.46401 0
M  V30 1646 C 179.298 -1.7036 0.35405 0
M  V30 1647 O 180.474 -1.92171 0.602692 0
M  V30 1648 C 177.539 -3.19344 1.34982 0
M  V30 1649 C 176.6 -3.44363 2.56344 0
M  V30 1650 C 175.833 -4.73904 2.45461 0
M  V30 1651 O 176.056 -5.508 1.48241 0
M  V30 1652 O 174.99 -4.99839 3.35328 0
M  V30 1653 H 178.816 -1.82314 2.42889 0
M  V30 1654 H 176.401 -0.843438 1.23315 0
M  V30 1655 H 178.283 -4.00547 1.3092 0
M  V30 1656 H 176.958 -3.21014 0.41612 0
M  V30 1657 H 175.865 -2.63067 2.65982 0
M  V30 1658 H 177.198 -3.47512 3.48563 0
M  V30 1659 N 178.85 -1.27639 -0.924453 0
M  V30 1660 C 180.098 -1.13941 -1.66918 0
M  V30 1661 C 180.419 0.314589 -1.92446 0
M  V30 1662 O 179.689 1.21964 -1.53303 0
M  V30 1663 H 178.269 -0.418678 -0.618642 0
M  V30 1664 H 180.931 -1.60213 -1.10985 0
M  V30 1665 H 180.027 -1.67094 -2.63602 0
M  V30 1666 N 180.328 1.1314 -1.09713 0
M  V30 1667 C 181.568 1.8613 -0.844683 0
M  V30 1668 C 181.932 1.81765 0.618491 0
M  V30 1669 O 183.133 2.50024 0.98699 0
M  V30 1670 C 181.404 3.30151 -1.36877 0
M  V30 1671 S 182.963 4.206 -1.25064 0
M  V30 1672 H 179.781 0.642056 -0.305427 0
M  V30 1673 H 182.383 1.36343 -1.4011 0
M  V30 1674 H 181.087 3.30883 -2.42786 0
M  V30 1675 H 180.618 3.85 -0.808614 0
M  V30 1676 H 182.633 4.95783 -0.203486 0
M  V30 1677 N 181.806 0.884767 1.30421 0
M  V30 1678 C 182.753 0.349642 2.28136 0
M  V30 1679 C 183.723 -0.560061 1.56373 0
M  V30 1680 O 184.908 -0.488524 1.8444 0
M  V30 1681 C 182.048 -0.42999 3.42411 0
M  V30 1682 C 181.161 0.508907 4.28992 0
M  V30 1683 C 180.296 -0.286301 5.30428 0
M  V30 1684 C 179.335 0.648079 6.08659 0
M  V30 1685 N 178.472 -0.111792 7.02011 0
M  V30 1686 H 183.312 1.18807 2.73293 0
M  V30 1687 H 180.849 0.597231 1.3443 0
M  V30 1688 H 182.807 -0.897923 4.07423 0
M  V30 1689 H 181.437 -1.23299 2.98324 0
M  V30 1690 H 180.489 1.09533 3.64289 0
M  V30 1691 H 181.801 1.22475 4.8353 0
M  V30 1692 H 180.955 -0.816098 6.01186 0
M  V30 1693 H 179.694 -1.03536 4.76583 0
M  V30 1694 H 178.699 1.18951 5.36778 0
M  V30 1695 H 179.924 1.39623 6.64592 0
M  V30 1696 H 177.87 -0.843395 6.50556 0
M  V30 1697 H 177.787 0.544429 7.54037 0
M  V30 1698 H 179.055 -0.622339 7.77012 0
M  V30 1699 N 183.284 -1.43765 0.645699 0
M  V30 1700 C 184.532 -2.01499 0.155731 0
M  V30 1701 C 184.853 -1.51151 -1.232 0
M  V30 1702 O 184.123 -0.721044 -1.82148 0
M  V30 1703 H 182.703 -0.745003 0.0545817 0
M  V30 1704 H 185.365 -1.76075 0.835677 0
M  V30 1705 H 184.461 -3.1181 0.134577 0
M  V30 1706 N 184.763 -0.387143 -1.52771 0
M  V30 1707 C 186.01 0.195735 -2.01552 0
M  V30 1708 C 186.338 1.46995 -1.27369 0
M  V30 1709 O 185.593 1.92325 -0.361879 0
M  V30 1710 C 185.892 0.512209 -3.53711 0
M  V30 1711 C 185.558 -0.670202 -4.45891 0
M  V30 1712 C 184.22 -0.994586 -4.70809 0
M  V30 1713 C 186.572 -1.46134 -5.00294 0
M  V30 1714 C 183.9 -2.11169 -5.4738 0
M  V30 1715 C 186.252 -2.56903 -5.78086 0
M  V30 1716 C 184.916 -2.89852 -6.01284 0
M  V30 1717 H 184.186 0.0716246 -0.73753 0
M  V30 1718 H 186.833 -0.524046 -1.8419 0
M  V30 1719 H 185.138 1.31329 -3.69134 0
M  V30 1720 H 186.835 0.975804 -3.88946 0
M  V30 1721 H 183.425 -0.407366 -4.2666 0
M  V30 1722 H 187.609 -1.22397 -4.80971 0
M  V30 1723 H 182.865 -2.3707 -5.63567 0
M  V30 1724 H 187.039 -3.18608 -6.19243 0
M  V30 1725 H 184.666 -3.76533 -6.60399 0
M  V30 1726 N 186.241 1.57166 -0.116904 0
M  V30 1727 C 187.488 1.95123 0.541603 0
M  V30 1728 C 187.816 1.00006 1.6682 0
M  V30 1729 O 187.071 0.0235658 1.95686 0
M  V30 1730 C 187.37 3.39508 1.11664 0
M  V30 1731 C 187.036 4.50762 0.111606 0
M  V30 1732 C 185.698 4.80918 -0.164758 0
M  V30 1733 C 188.05 5.18036 -0.573438 0
M  V30 1734 C 185.378 5.75666 -1.13249 0
M  V30 1735 C 187.73 6.13824 -1.52978 0
M  V30 1736 C 186.394 6.42374 -1.81415 0
M  V30 1737 H 185.664 0.714005 0.198187 0
M  V30 1738 H 188.311 1.9048 -0.197365 0
M  V30 1739 H 186.616 3.40835 1.93232 0
M  V30 1740 H 188.313 3.66189 1.63422 0
M  V30 1741 H 184.903 4.27272 0.337192 0
M  V30 1742 H 189.087 4.94896 -0.373092 0
M  V30 1743 H 184.343 5.96092 -1.35958 0
M  V30 1744 H 188.517 6.65039 -2.06629 0
M  V30 1745 H 186.144 7.15599 -2.56557 0
M  V30 1746 N 187.719 -0.156864 1.56817 0
M  V30 1747 C 189.135 -0.50916 1.5126 0
M  V30 1748 C 189.335 -1.83897 0.823658 0
M  V30 1749 O 188.391 -2.49469 0.390055 0
M  V30 1750 C 189.704 -0.52857 2.96018 0
M  V30 1751 C 191.252 -0.614771 3.06903 0
M  V30 1752 C 191.727 -0.664938 4.53147 0
M  V30 1753 N 193.218 -0.727433 4.57452 0
M  V30 1754 C 193.953 -0.787067 5.67973 0
M  V30 1755 N 193.449 -0.806649 6.88088 0
M  V30 1756 N 195.242 -0.827195 5.5598 0
M  V30 1757 H 187.393 0.714935 2.00006 0
M  V30 1758 H 189.656 0.259526 0.911784 0
M  V30 1759 H 189.362 0.380154 3.49639 0
M  V30 1760 H 189.236 -1.36998 3.51442 0
M  V30 1761 H 191.623 -1.51392 2.53307 0
M  V30 1762 H 191.704 0.253597 2.5454 0
M  V30 1763 H 191.348 0.230011 5.07379 0
M  V30 1764 H 191.278 -1.54966 5.03282 0
M  V30 1765 H 193.769 -0.719998 3.70978 0
M  V30 1766 H 194.082 -0.853727 7.6807 0
M  V30 1767 H 192.427 -0.774687 6.90669 0
M  V30 1768 H 195.618 -0.808998 4.61056 0
M  V30 1769 H 195.791 -0.870206 6.4213 0
M  V30 1770 N 189.197 -1.51736 -0.425897 0
M  V30 1771 C 190.613 -1.40166 -0.76326 0
M  V30 1772 C 190.813 -0.492962 -1.95377 0
M  V30 1773 O 189.869 0.0475815 -2.52455 0
M  V30 1774 C 191.182 -2.82403 -1.03291 0
M  V30 1775 C 192.73 -2.91632 -1.13665 0
M  V30 1776 C 193.205 -4.34801 -1.43916 0
M  V30 1777 N 194.696 -4.3796 -1.50816 0
M  V30 1778 C 195.431 -5.4578 -1.75817 0
M  V30 1779 N 194.927 -6.63744 -1.98534 0
M  V30 1780 N 196.72 -5.33274 -1.77694 0
M  V30 1781 H 188.871 -2.09361 0.358 0
M  V30 1782 H 191.134 -0.942941 0.0978094 0
M  V30 1783 H 190.84 -3.50943 -0.230696 0
M  V30 1784 H 190.714 -3.22428 -1.95754 0
M  V30 1785 H 193.101 -2.23284 -1.92947 0
M  V30 1786 H 193.182 -2.55088 -0.190756 0
M  V30 1787 H 192.826 -5.03703 -0.65157 0
M  V30 1788 H 192.756 -4.68868 -2.39729 0
M  V30 1789 H 195.247 -3.52919 -1.35118 0
M  V30 1790 H 195.56 -7.41704 -2.17013 0
M  V30 1791 H 193.905 -6.66839 -1.95832 0
M  V30 1792 H 197.096 -4.40098 -1.59473 0
M  V30 1793 H 197.269 -6.1738 -1.9684 0
M  V30 1794 N 190.675 0.682077 -1.42076 0
M  V30 1795 C 191.9 1.47558 -1.45744 0
M  V30 1796 C 192.325 1.87977 -0.0680981 0
M  V30 1797 O 191.683 1.55522 0.9318 0
M  V30 1798 C 191.731 2.70575 -2.38373 0
M  V30 1799 O 190.835 3.68573 -1.85007 0
M  V30 1800 H 190.176 0.443585 -0.494093 0
M  V30 1801 H 192.706 0.837238 -1.86686 0
M  V30 1802 H 192.716 3.18729 -2.54707 0
M  V30 1803 H 191.391 2.40495 -3.39315 0
M  V30 1804 H 189.968 3.2757 -1.78192 0
M  V30 1805 N 192.153 1.28127 0.917671 0
M  V30 1806 C 193.402 1.14432 1.66097 0
M  V30 1807 C 193.715 -0.307247 1.93172 0
M  V30 1808 O 194.921 -0.565259 2.65551 0
M  V30 1809 C 193.377 2.00015 2.99202 0
M  V30 1810 C 192.985 3.49889 2.79789 0
M  V30 1811 C 194.729 1.94996 3.77064 0
M  V30 1812 C 192.636 4.27636 4.08511 0
M  V30 1813 H 191.566 0.424662 0.62304 0
M  V30 1814 H 194.217 1.52628 1.01868 0
M  V30 1815 H 192.599 1.54672 3.64544 0
M  V30 1816 H 193.773 4.03162 2.23152 0
M  V30 1817 H 192.088 3.56392 2.15345 0
M  V30 1818 H 194.685 2.50354 4.72469 0
M  V30 1819 H 195.028 0.925819 4.05875 0
M  V30 1820 H 195.561 2.38287 3.18534 0
M  V30 1821 H 192.3 5.30615 3.84874 0
M  V30 1822 H 191.82 3.79137 4.64774 0
M  V30 1823 H 193.499 4.37346 4.76799 0
M  V30 1824 N 193.631 -1.12557 1.10312 0
M  V30 1825 C 194.563 -2.17971 0.708625 0
M  V30 1826 C 195.576 -1.60806 -0.254027 0
M  V30 1827 O 196.765 -1.78458 -0.0386891 0
M  V30 1828 C 193.865 -3.38891 0.0248198 0
M  V30 1829 C 193.038 -4.25548 1.01132 0
M  V30 1830 C 192.097 -5.24972 0.35924 0
M  V30 1831 O 191.123 -5.60174 1.00965 0
M  V30 1832 N 192.325 -5.73747 -0.882847 0
M  V30 1833 H 195.09 -2.52427 1.61557 0
M  V30 1834 H 192.651 -1.27967 0.991771 0
M  V30 1835 H 194.643 -4.02485 -0.422852 0
M  V30 1836 H 193.213 -3.02596 -0.784514 0
M  V30 1837 H 192.433 -3.58589 1.6373 0
M  V30 1838 H 193.721 -4.80294 1.67914 0
M  V30 1839 H 193.119 -5.4731 -1.43065 0
M  V30 1840 H 191.676 -6.39234 -1.27369 0
M  V30 1841 N 195.109 -0.891671 -1.2995 0
M  V30 1842 C 196.041 -0.320695 -2.26945 0
M  V30 1843 C 197.054 0.528497 -1.53983 0
M  V30 1844 O 198.243 0.346959 -1.75096 0
M  V30 1845 C 195.343 0.562066 -3.34207 0
M  V30 1846 C 194.516 -0.259576 -4.36629 0
M  V30 1847 C 193.575 0.554739 -5.23268 0
M  V30 1848 O 192.601 -0.0249311 -5.69195 0
M  V30 1849 N 193.803 1.8625 -5.4981 0
M  V30 1850 H 196.568 -1.15432 -2.76578 0
M  V30 1851 H 194.129 -0.755336 -1.432 0
M  V30 1852 H 196.121 1.11304 -3.89093 0
M  V30 1853 H 194.691 1.29637 -2.84452 0
M  V30 1854 H 193.911 -0.991986 -3.81514 0
M  V30 1855 H 195.199 -0.822564 -5.02107 0
M  V30 1856 H 194.597 2.35628 -5.14292 0
M  V30 1857 H 193.154 2.36078 -6.07545 0
M  V30 1858 N 196.587 1.43421 -0.653314 0
M  V30 1859 C 197.535 2.32546 0.0501531 0
M  V30 1860 C 198.529 1.48617 0.812985 0
M  V30 1861 O 199.735 1.64825 0.723375 0
M  V30 1862 H 196.11 0.751185 0.0350032 0
M  V30 1863 H 198.081 2.89602 -0.719261 0
M  V30 1864 C 196.83 3.32925 1.00279 0
M  V30 1865 H 196.153 3.97532 0.425236 0
M  V30 1866 H 197.593 3.9792 1.46409 0
M  V30 1867 C 196.052 2.63532 2.09886 0
M  V30 1868 O 196.582 2.45092 3.18265 0
M  V30 1869 N 194.788 2.22905 1.86445 0
M  V30 1870 H 194.335 2.38103 0.98309 0
M  V30 1871 H 194.293 1.76805 2.59976 0
M  V30 1872 N 198.065 0.39524 1.52563 0
M  V30 1873 C 199.314 -0.186321 2.00838 0
M  V30 1874 C 199.627 -1.47402 1.28577 0
M  V30 1875 O 200.833 -2.13599 1.67593 0
M  V30 1876 C 199.289 -0.382595 3.57861 0
M  V30 1877 C 198.897 0.892202 4.39026 0
M  V30 1878 C 200.641 -0.9202 4.14406 0
M  V30 1879 C 198.548 0.66388 5.87662 0
M  V30 1880 H 197.478 -0.0734041 0.750418 0
M  V30 1881 H 200.129 0.518552 1.76021 0
M  V30 1882 H 198.511 -1.14946 3.7895 0
M  V30 1883 H 199.685 1.66414 4.29701 0
M  V30 1884 H 198 1.35519 3.9373 0
M  V30 1885 H 200.597 -1.10683 5.23119 0
M  V30 1886 H 200.94 -1.89096 3.70875 0
M  V30 1887 H 201.473 -0.212751 3.97231 0
M  V30 1888 H 198.212 1.6058 6.35527 0
M  V30 1889 H 197.732 -0.0690193 5.9976 0
M  V30 1890 H 199.411 0.300699 6.46301 0
M  V30 1891 N 199.544 -1.57102 0.125237 0
M  V30 1892 C 200.476 -2.12726 -0.853237 0
M  V30 1893 C 201.489 -1.07145 -1.22571 0
M  V30 1894 O 202.678 -1.34497 -1.17358 0
M  V30 1895 C 199.778 -2.61709 -2.15317 0
M  V30 1896 C 198.951 -3.91456 -1.95143 0
M  V30 1897 C 198.01 -4.25973 -3.08923 0
M  V30 1898 O 197.036 -4.94682 -2.81564 0
M  V30 1899 N 198.238 -3.83795 -4.35524 0
M  V30 1900 H 201.003 -2.97307 -0.377964 0
M  V30 1901 H 198.564 -1.61792 -0.0590011 0
M  V30 1902 H 200.556 -2.81826 -2.90441 0
M  V30 1903 H 199.126 -1.81974 -2.54174 0
M  V30 1904 H 198.346 -3.80185 -1.04177 0
M  V30 1905 H 199.634 -4.76283 -1.78976 0
M  V30 1906 H 199.032 -3.2839 -4.60626 0
M  V30 1907 H 197.589 -4.09008 -5.07499 0
M  V30 1908 N 201.022 0.148545 -1.56898 0
M  V30 1909 C 202.252 0.875118 -1.8715 0
M  V30 1910 C 202.66 1.75322 -0.711262 0
M  V30 1911 O 202.003 1.80745 0.328151 0
M  V30 1912 C 202.065 1.7844 -3.12089 0
M  V30 1913 C 201.729 1.08361 -4.43967 0
M  V30 1914 C 202.726 0.438247 -5.1805 0
M  V30 1915 C 200.411 1.07358 -4.90693 0
M  V30 1916 C 202.405 -0.20779 -6.37061 0
M  V30 1917 C 200.092 0.42373 -6.09629 0
M  V30 1918 C 201.09 -0.215829 -6.82659 0
M  V30 1919 O 200.778 -0.855378 -7.99336 0
M  V30 1920 H 200.51 0.258504 -0.624621 0
M  V30 1921 H 203.064 0.14652 -2.04877 0
M  V30 1922 H 201.294 2.55389 -2.90367 0
M  V30 1923 H 202.983 2.38279 -3.286 0
M  V30 1924 H 203.749 0.437817 -4.8302 0
M  V30 1925 H 199.628 1.5608 -4.33774 0
M  V30 1926 H 203.172 -0.70758 -6.94002 0
M  V30 1927 H 199.069 0.421822 -6.4412 0
M  V30 1928 H 199.837 -0.756892 -8.14993 0
M  V30 1929 N 202.5 1.5196 0.417844 0
M  V30 1930 C 203.447 1.74678 1.50852 0
M  V30 1931 C 204.417 0.588947 1.55308 0
M  V30 1932 O 205.602 0.825544 1.72016 0
M  V30 1933 C 202.742 1.89544 2.88387 0
M  V30 1934 C 201.855 3.17166 2.93309 0
M  V30 1935 C 200.99 3.22513 4.22088 0
M  V30 1936 C 200.029 4.44372 4.20951 0
M  V30 1937 N 199.166 4.47161 5.41287 0
M  V30 1938 H 204.006 2.67768 1.30783 0
M  V30 1939 H 201.543 1.32689 0.63498 0
M  V30 1940 H 203.501 1.96146 3.68216 0
M  V30 1941 H 202.131 0.998424 3.06971 0
M  V30 1942 H 201.183 3.19778 2.06024 0
M  V30 1943 H 202.495 4.07021 2.88332 0
M  V30 1944 H 201.649 3.28139 5.10303 0
M  V30 1945 H 200.388 2.30581 4.29748 0
M  V30 1946 H 199.393 4.38902 3.31127 0
M  V30 1947 H 200.618 5.3759 4.14938 0
M  V30 1948 H 198.564 3.58108 5.49632 0
M  V30 1949 H 198.481 5.3085 5.3827 0
M  V30 1950 H 199.749 4.57005 6.3148 0
M  V30 1951 N 203.978 -0.674533 1.42435 0
M  V30 1952 C 204.925 -1.78807 1.45934 0
M  V30 1953 C 205.895 -1.63157 0.311271 0
M  V30 1954 O 207.08 -1.83707 0.515383 0
M  V30 1955 C 204.22 -3.16839 1.36773 0
M  V30 1956 C 203.333 -3.43774 2.61617 0
M  V30 1957 C 202.468 -4.71536 2.44597 0
M  V30 1958 C 201.507 -4.91505 3.64814 0
M  V30 1959 N 200.644 -6.10508 3.46734 0
M  V30 1960 H 205.484 -1.75151 2.41093 0
M  V30 1961 H 203.021 -0.85504 1.19697 0
M  V30 1962 H 204.979 -3.96606 1.29459 0
M  V30 1963 H 203.609 -3.19619 0.452089 0
M  V30 1964 H 202.661 -2.58259 2.79297 0
M  V30 1965 H 203.973 -3.54423 3.50978 0
M  V30 1966 H 203.127 -5.59393 2.3487 0
M  V30 1967 H 201.866 -4.6317 1.52726 0
M  V30 1968 H 200.871 -4.0209 3.74972 0
M  V30 1969 H 202.096 -5.01716 4.57665 0
M  V30 1970 H 200.042 -6.03315 2.5758 0
M  V30 1971 H 199.959 -6.2202 4.29682 0
M  V30 1972 H 201.227 -7.01044 3.40819 0
M  V30 1973 N 205.456 -1.28612 -0.910864 0
M  V30 1974 C 206.696 -1.1719 -1.67469 0
M  V30 1975 C 207.06 0.274441 -1.90028 0
M  V30 1976 O 208.261 0.511425 -2.6389 0
M  V30 1977 C 206.532 -1.95137 -2.99427 0
M  V30 1978 S 208.091 -2.00122 -3.90508 0
M  V30 1979 H 204.909 -0.41806 -0.575106 0
M  V30 1980 H 207.511 -1.6275 -1.08317 0
M  V30 1981 H 206.215 -2.99381 -2.80712 0
M  V30 1982 H 205.746 -1.50137 -3.63624 0
M  V30 1983 H 207.761 -1.10981 -4.8363 0
M  V30 1984 N 206.934 1.1197 -1.10907 0
M  V30 1985 C 207.864 2.19928 -0.784473 0
M  V30 1986 C 208.845 1.6833 0.244726 0
M  V30 1987 O 210.03 1.93892 0.109418 0
M  V30 1988 C 207.16 3.46597 -0.220827 0
M  V30 1989 C 206.114 4.11376 -1.18127 0
M  V30 1990 C 205.44 5.32554 -0.478594 0
M  V30 1991 C 206.74 4.56945 -2.52979 0
M  V30 1992 H 208.434 2.47337 -1.68715 0
M  V30 1993 H 205.98 1.18879 -0.812642 0
M  V30 1994 H 207.933 4.21396 0.0184278 0
M  V30 1995 H 206.657 3.1863 0.717113 0
M  V30 1996 H 205.316 3.38564 -1.40606 0
M  V30 1997 H 204.964 5.00856 0.463976 0
M  V30 1998 H 204.664 5.76844 -1.11912 0
M  V30 1999 H 206.188 6.10096 -0.248 0
M  V30 2000 H 207.602 5.23093 -2.3462 0
M  V30 2001 H 205.999 5.1203 -3.12962 0
M  V30 2002 H 207.069 3.70676 -3.12614 0
M  V30 2003 N 208.412 0.89855 1.29475 0
M  V30 2004 C 209.359 0.373819 2.27753 0
M  V30 2005 C 210.329 -0.543444 1.56958 0
M  V30 2006 O 211.514 -0.468934 1.84948 0
M  V30 2007 C 208.654 -0.393648 3.42848 0
M  V30 2008 C 207.767 0.554379 4.28428 0
M  V30 2009 C 206.902 -0.230026 5.30702 0
M  V30 2010 C 205.941 0.712599 6.07938 0
M  V30 2011 N 205.078 -0.0373283 7.0209 0
M  V30 2012 H 209.918 1.21699 2.72017 0
M  V30 2013 H 207.455 0.611456 1.33789 0
M  V30 2014 H 209.413 -0.85466 4.08352 0
M  V30 2015 H 208.043 -1.20128 2.99615 0
M  V30 2016 H 207.095 1.13391 3.63107 0
M  V30 2017 H 208.407 1.27597 4.82204 0
M  V30 2018 H 207.561 -0.752288 6.02018 0
M  V30 2019 H 206.3 -0.984758 4.77654 0
M  V30 2020 H 205.305 1.24637 5.35486 0
M  V30 2021 H 206.53 1.46664 6.63074 0
M  V30 2022 H 204.476 -0.774348 6.51414 0
M  V30 2023 H 204.393 0.624374 7.53417 0
M  V30 2024 H 205.661 -0.539891 7.77628 0
M  V30 2025 N 209.89 -1.43072 0.660911 0
M  V30 2026 C 210.838 -2.32569 -0.0378199 0
M  V30 2027 C 211.832 -1.49046 -0.805092 0
M  V30 2028 O 213.038 -1.65206 -0.714624 0
M  V30 2029 H 209.413 -0.75136 -0.031019 0
M  V30 2030 H 211.384 -2.89216 0.734609 0
M  V30 2031 C 210.133 -3.33453 -0.985124 0
M  V30 2032 H 209.456 -3.97752 -0.404147 0
M  V30 2033 H 210.896 -3.98691 -1.44297 0
M  V30 2034 C 209.355 -2.64642 -2.08486 0
M  V30 2035 O 209.885 -2.46776 -3.16961 0
M  V30 2036 N 208.091 -2.23891 -1.8526 0
M  V30 2037 H 207.638 -2.38621 -0.970449 0
M  V30 2038 H 207.596 -1.78181 -2.59034 0
M  V30 2039 N 211.368 -0.403325 -1.52352 0
M  V30 2040 C 212.278 0.432009 -2.30588 0
M  V30 2041 C 213.294 1.05884 -1.38075 0
M  V30 2042 O 214.47 1.06161 -1.71148 0
M  V30 2043 C 211.535 1.53669 -3.10784 0
M  V30 2044 C 210.596 0.933525 -4.19027 0
M  V30 2045 C 209.829 1.98557 -4.9539 0
M  V30 2046 O 210.052 3.20283 -4.71991 0
M  V30 2047 O 208.986 1.59504 -5.80381 0
M  V30 2048 H 212.812 -0.205739 -3.03002 0
M  V30 2049 H 210.397 -0.166675 -1.48467 0
M  V30 2050 H 212.279 2.17814 -3.60742 0
M  V30 2051 H 210.954 2.15915 -2.41169 0
M  V30 2052 H 209.861 0.254954 -3.7323 0
M  V30 2053 H 211.194 0.35508 -4.90918 0
M  V30 2054 N 212.846 1.57033 -0.133567 0
M  V30 2055 C 213.794 2.17348 0.828412 0
M  V30 2056 C 214.788 1.12671 1.26498 0
M  V30 2057 O 215.994 1.30947 1.23502 0
M  V30 2058 H 212.369 0.695775 0.285309 0
M  V30 2059 H 214.34 2.96935 0.295372 0
M  V30 2060 C 213.089 2.79893 2.06289 0
M  V30 2061 H 212.412 3.60147 1.73592 0
M  V30 2062 H 213.852 3.25615 2.71572 0
M  V30 2063 C 212.311 1.77713 2.86216 0
M  V30 2064 O 212.841 1.23937 3.82103 0
M  V30 2065 N 211.047 1.47321 2.50489 0
M  V30 2066 H 210.594 1.91243 1.7258 0
M  V30 2067 H 210.552 0.79199 3.04261 0
M  V30 2068 N 214.325 -0.140222 1.56975 0
M  V30 2069 C 215.565 -0.857823 1.85528 0
M  V30 2070 C 215.929 -1.78039 0.718768 0
M  V30 2071 O 217.13 -2.53795 0.885521 0
M  V30 2072 C 215.401 -1.60615 3.19277 0
M  V30 2073 S 216.96 -2.36824 3.69405 0
M  V30 2074 H 213.778 -0.286727 0.650622 0
M  V30 2075 H 216.38 -0.117408 1.95147 0
M  V30 2076 H 215.084 -0.919994 3.99955 0
M  V30 2077 H 214.615 -2.38735 3.12681 0
M  V30 2078 H 216.63 -3.62148 3.3921 0
M  V30 2079 N 215.803 -1.52179 -0.40978 0
M  V30 2080 C 217.028 -1.70347 -1.18308 0
M  V30 2081 C 217.453 -0.411887 -1.83535 0
M  V30 2082 O 216.811 0.630587 -1.6998 0
M  V30 2083 C 216.859 -2.83977 -2.22238 0
M  V30 2084 O 215.963 -2.495 -3.28365 0
M  V30 2085 H 215.304 -0.567103 -0.345384 0
M  V30 2086 H 217.834 -1.98879 -0.480445 0
M  V30 2087 H 217.844 -3.0887 -2.66577 0
M  V30 2088 H 216.519 -3.77685 -1.74146 0
M  V30 2089 H 215.096 -2.35277 -2.89308 0
M  V30 2090 N 217.281 0.66697 -1.42791 0
M  V30 2091 C 218.53 1.42278 -1.42968 0
M  V30 2092 C 218.843 1.9553 -0.0524489 0
M  V30 2093 O 220.049 2.71414 0.068363 0
M  V30 2094 C 218.505 2.57418 -2.51524 0
M  V30 2095 C 218.113 2.10832 -3.9529 0
M  V30 2096 C 219.857 3.34878 -2.60877 0
M  V30 2097 C 217.764 3.23101 -4.95338 0
M  V30 2098 H 216.694 0.534533 -0.531781 0
M  V30 2099 H 219.345 0.721302 -1.68729 0
M  V30 2100 H 217.727 3.29971 -2.18941 0
M  V30 2101 H 218.901 1.4538 -4.37266 0
M  V30 2102 H 217.216 1.46289 -3.89857 0
M  V30 2103 H 219.813 4.18505 -3.32802 0
M  V30 2104 H 220.156 3.81993 -1.6549 0
M  V30 2105 H 220.689 2.69398 -2.92693 0
M  V30 2106 H 217.428 2.80969 -5.9223 0
M  V30 2107 H 216.948 3.87309 -4.57987 0
M  V30 2108 H 218.627 3.88447 -5.17415 0
M  V30 2109 N 218.759 1.29093 0.90403 0
M  V30 2110 C 219.692 1.08176 2.00931 0
M  V30 2111 C 220.67 -0.005083 1.62599 0
M  V30 2112 O 221.854 0.144765 1.87943 0
M  V30 2113 C 218.981 0.645897 3.32484 0
M  V30 2114 C 218.027 1.73081 3.89801 0
M  V30 2115 S 218.86 3.32905 4.19446 0
M  V30 2116 C 220.016 2.91176 5.54046 0
M  V30 2117 H 220.249 2.01752 2.18365 0
M  V30 2118 H 217.782 1.13191 1.0501 0
M  V30 2119 H 219.74 0.401131 4.08535 0
M  V30 2120 H 218.401 -0.270188 3.12936 0
M  V30 2121 H 217.594 1.37768 4.84805 0
M  V30 2122 H 217.196 1.92888 3.20422 0
M  V30 2123 H 219.488 2.37952 6.34338 0
M  V30 2124 H 220.431 3.85014 5.94281 0
M  V30 2125 H 220.839 2.296 5.15698 0
M  V30 2126 N 220.237 -1.11381 1.11499 0
M  V30 2127 C 221.653 -1.35143 0.849031 0
M  V30 2128 C 221.853 -1.94515 -0.525938 0
M  V30 2129 O 220.909 -2.1785 -1.27662 0
M  V30 2130 C 222.222 -2.28249 1.95762 0
M  V30 2131 C 223.77 -2.41812 1.98736 0
M  V30 2132 C 224.245 -3.3824 3.088 0
M  V30 2133 N 225.736 -3.45803 3.08179 0
M  V30 2134 C 226.471 -4.20358 3.89982 0
M  V30 2135 N 225.967 -4.97884 4.8175 0
M  V30 2136 N 227.76 -4.15877 3.78157 0
M  V30 2137 H 219.911 -0.712062 2.00109 0
M  V30 2138 H 222.174 -0.376025 0.870235 0
M  V30 2139 H 221.88 -1.91817 2.94787 0
M  V30 2140 H 221.754 -3.28473 1.85433 0
M  V30 2141 H 224.141 -2.77518 1.00338 0
M  V30 2142 H 224.222 -1.41437 2.13141 0
M  V30 2143 H 223.866 -3.03261 4.07425 0
M  V30 2144 H 223.796 -4.38471 2.91635 0
M  V30 2145 H 226.287 -2.90506 2.41691 0
M  V30 2146 H 226.6 -5.52142 5.40702 0
M  V30 2147 H 224.945 -4.97043 4.85771 0
M  V30 2148 H 228.136 -3.544 3.05808 0
M  V30 2149 H 228.309 -4.73723 4.42143 0
M  V30 2150 N 221.715 -0.905404 -1.28997 0
M  V30 2151 C 222.648 -0.331959 -2.25773 0
M  V30 2152 C 223.626 0.559099 -1.52685 0
M  V30 2153 O 224.81 0.50463 -1.8162 0
M  V30 2154 C 221.937 0.526276 -3.34586 0
M  V30 2155 C 220.983 -0.298249 -4.25456 0
M  V30 2156 S 221.816 -1.69968 -5.0781 0
M  V30 2157 C 222.972 -0.848519 -6.20122 0
M  V30 2158 H 223.205 -1.15222 -2.74064 0
M  V30 2159 H 220.738 -0.706112 -1.37308 0
M  V30 2160 H 222.696 1.01565 -3.97737 0
M  V30 2161 H 221.357 1.32084 -2.84978 0
M  V30 2162 H 220.55 0.357607 -5.0273 0
M  V30 2163 H 220.152 -0.720968 -3.66985 0
M  V30 2164 H 222.444 -0.0744325 -6.77459 0
M  V30 2165 H 223.387 -1.59353 -6.89937 0
M  V30 2166 H 223.795 -0.400383 -5.63078 0
M  V30 2167 N 223.193 1.4272 -0.668489 0
M  V30 2168 C 224.141 2.32586 0.0254857 0
M  V30 2169 C 225.135 1.49471 0.797176 0
M  V30 2170 O 226.341 1.65583 0.705853 0
M  V30 2171 H 222.716 0.751514 0.0270339 0
M  V30 2172 H 224.687 2.88823 -0.749936 0
M  V30 2173 C 223.436 3.3397 0.967427 0
M  V30 2174 H 222.759 3.97961 0.383048 0
M  V30 2175 H 224.199 3.9945 1.42181 0
M  V30 2176 C 222.658 2.65744 2.0708 0
M  V30 2177 O 223.188 2.48454 3.15648 0
M  V30 2178 N 221.394 2.2487 1.8407 0
M  V30 2179 H 220.941 2.39132 0.95778 0
M  V30 2180 H 220.899 1.79552 2.58086 0
M  V30 2181 N 224.671 0.411399 1.52136 0
M  V30 2182 C 226.087 0.0623865 1.59478 0
M  V30 2183 C 226.287 -1.42554 1.4241 0
M  V30 2184 O 225.343 -2.19263 1.2522 0
M  V30 2185 C 226.656 0.559331 2.95452 0
M  V30 2186 C 228.204 0.517503 3.08692 0
M  V30 2187 C 228.679 0.990994 4.4715 0
M  V30 2188 N 230.17 0.947908 4.53397 0
M  V30 2189 C 230.905 1.28544 5.58806 0
M  V30 2190 N 230.401 1.69454 6.71757 0
M  V30 2191 N 232.194 1.20526 5.49026 0
M  V30 2192 H 224.345 1.37982 1.61477 0
M  V30 2193 H 226.608 0.566977 0.759764 0
M  V30 2194 H 226.314 1.59938 3.1323 0
M  V30 2195 H 226.188 -0.0298014 3.77188 0
M  V30 2196 H 228.575 -0.513505 2.90598 0
M  V30 2197 H 228.656 1.14272 2.28857 0
M  V30 2198 H 228.3 2.02034 4.65988 0
M  V30 2199 H 228.23 0.34257 5.25485 0
M  V30 2200 H 230.721 0.647157 3.72317 0
M  V30 2201 H 231.034 1.93513 7.48179 0
M  V30 2202 H 229.379 1.73359 6.73032 0
M  V30 2203 H 232.57 0.884505 4.59667 0
M  V30 2204 H 232.743 1.47161 6.31069 0
M  V30 2205 N 226.149 -1.5696 0.141893 0
M  V30 2206 C 227.097 -2.17784 -0.816874 0
M  V30 2207 C 228.091 -1.1334 -1.25899 0
M  V30 2208 O 229.297 -1.316 -1.22806 0
M  V30 2209 H 225.672 -0.697278 -0.281615 0
M  V30 2210 H 227.643 -2.97087 -0.279621 0
M  V30 2211 C 226.392 -2.80983 -2.04802 0
M  V30 2212 H 225.715 -3.61062 -1.7168 0
M  V30 2213 H 227.155 -3.2705 -2.69841 0
M  V30 2214 C 225.614 -1.79228 -2.8527 0
M  V30 2215 O 226.144 -1.25962 -3.8144 0
M  V30 2216 N 224.35 -1.48647 -2.49704 0
M  V30 2217 H 223.897 -1.92155 -1.71564 0
M  V30 2218 H 223.855 -0.808115 -3.03837 0
M  V30 2219 N 227.627 0.131896 -1.57047 0
M  V30 2220 C 229.043 0.485031 -1.52051 0
M  V30 2221 C 229.243 1.82563 -0.85281 0
M  V30 2222 O 228.299 2.48817 -0.429694 0
M  V30 2223 C 229.612 0.481409 -2.96821 0
M  V30 2224 C 231.16 0.565868 -3.07842 0
M  V30 2225 C 231.635 0.592762 -4.54148 0
M  V30 2226 N 233.126 0.654564 -4.58552 0
M  V30 2227 C 233.861 0.696608 -5.69153 0
M  V30 2228 N 233.357 0.697078 -6.89284 0
M  V30 2229 N 235.15 0.738639 -5.57226 0
M  V30 2230 H 227.301 -0.746664 -1.98843 0
M  V30 2231 H 229.564 -0.273999 -0.90754 0
M  V30 2232 H 229.27 -0.435731 -3.4899 0
M  V30 2233 H 229.144 1.3139 -3.53577 0
M  V30 2234 H 231.531 1.47343 -2.55684 0
M  V30 2235 H 231.612 -0.29406 -2.54104 0
M  V30 2236 H 231.256 -0.310701 -5.06949 0
M  V30 2237 H 231.186 1.46939 -5.05684 0
M  V30 2238 H 233.677 0.660887 -3.72076 0
M  V30 2239 H 233.99 0.731426 -7.69331 0
M  V30 2240 H 232.335 0.66471 -6.91814 0
M  V30 2241 H 235.526 0.735545 -4.62285 0
M  V30 2242 H 235.699 0.767938 -6.43434 0
M  V30 2243 N 229.106 1.52395 0.401703 0
M  V30 2244 C 230.346 1.68498 1.15705 0
M  V30 2245 C 230.71 0.409748 1.87577 0
M  V30 2246 O 231.911 0.446983 2.65058 0
M  V30 2247 C 230.182 2.87789 2.11924 0
M  V30 2248 S 231.741 3.24415 2.95466 0
M  V30 2249 H 228.559 0.593267 0.391862 0
M  V30 2250 H 231.161 1.90408 0.443282 0
M  V30 2251 H 229.865 3.7884 1.57824 0
M  V30 2252 H 229.396 2.68175 2.87829 0
M  V30 2253 H 231.411 2.73614 4.13944 0
M  V30 2254 N 230.584 -0.659388 1.43143 0
M  V30 2255 C 231.516 -1.7849 1.43784 0
M  V30 2256 C 232.529 -1.5932 0.334787 0
M  V30 2257 O 233.718 -1.68155 0.598842 0
M  V30 2258 C 230.818 -3.15828 1.22906 0
M  V30 2259 C 229.991 -3.61711 2.45934 0
M  V30 2260 C 229.05 -4.77831 2.20371 0
M  V30 2261 O 228.076 -4.87586 2.93681 0
M  V30 2262 N 229.278 -5.67611 1.21647 0
M  V30 2263 H 232.043 -1.7842 2.40803 0
M  V30 2264 H 229.604 -0.84302 1.3822 0
M  V30 2265 H 231.596 -3.91189 1.03697 0
M  V30 2266 H 230.166 -3.10707 0.343542 0
M  V30 2267 H 229.386 -2.76861 2.80609 0
M  V30 2268 H 230.674 -3.89112 3.27825 0
M  V30 2269 H 230.072 -5.62397 0.610449 0
M  V30 2270 H 228.629 -6.42719 1.08423 0
M  V30 2271 N 232.062 -1.29571 -0.897171 0
M  V30 2272 C 232.994 -1.10724 -2.00681 0
M  V30 2273 C 234.007 -0.0540026 -1.6271 0
M  V30 2274 O 235.196 -0.298783 -1.75982 0
M  V30 2275 C 232.296 -0.663912 -3.32333 0
M  V30 2276 C 231.469 -1.79622 -3.98816 0
M  V30 2277 C 230.528 -1.34349 -5.0876 0
M  V30 2278 O 229.554 -2.04864 -5.31055 0
M  V30 2279 N 230.756 -0.215764 -5.80099 0
M  V30 2280 H 233.521 -2.06291 -2.17403 0
M  V30 2281 H 231.082 -1.21544 -1.06951 0
M  V30 2282 H 233.074 -0.344295 -4.03233 0
M  V30 2283 H 231.644 0.199375 -3.11964 0
M  V30 2284 H 230.864 -2.28459 -3.21248 0
M  V30 2285 H 232.152 -2.55535 -4.39976 0
M  V30 2286 H 231.55 0.372091 -5.64475 0
M  V30 2287 H 230.107 0.0444707 -6.51785 0
M  V30 2288 N 233.54 1.10788 -1.12088 0
M  V30 2289 C 234.78 1.84297 -0.883974 0
M  V30 2290 C 235.144 1.83036 0.579797 0
M  V30 2291 O 236.345 2.52061 0.933734 0
M  V30 2292 C 234.616 3.27173 -1.43849 0
M  V30 2293 S 236.175 4.17853 -1.33957 0
M  V30 2294 H 232.993 0.635433 -0.318977 0
M  V30 2295 H 235.595 1.33341 -1.4297 0
M  V30 2296 H 234.299 3.25658 -2.49749 0
M  V30 2297 H 233.83 3.83198 -0.890096 0
M  V30 2298 H 235.845 4.95239 -0.308603 0
M  V30 2299 N 235.018 0.912232 1.28515 0
M  V30 2300 C 236.434 0.610159 1.47476 0
M  V30 2301 C 236.634 -0.844955 1.82928 0
M  V30 2302 O 235.69 -1.62416 1.93332 0
M  V30 2303 C 237.003 1.54675 2.57868 0
M  V30 2304 C 238.551 1.55331 2.71738 0
M  V30 2305 C 239.026 2.47649 3.85272 0
M  V30 2306 N 240.517 2.45767 3.92623 0
M  V30 2307 C 241.252 3.13896 4.79851 0
M  V30 2308 N 240.748 3.9135 5.71679 0
M  V30 2309 N 242.541 3.02991 4.73448 0
M  V30 2310 H 234.692 1.85318 1.03783 0
M  V30 2311 H 236.955 0.794777 0.516753 0
M  V30 2312 H 236.661 2.5841 2.38574 0
M  V30 2313 H 236.535 1.27671 3.54937 0
M  V30 2314 H 238.922 0.52335 2.90422 0
M  V30 2315 H 239.003 1.86378 1.75205 0
M  V30 2316 H 238.647 3.50745 3.67342 0
M  V30 2317 H 238.577 2.13904 4.81199 0
M  V30 2318 H 241.068 1.89503 3.26951 0
M  V30 2319 H 241.381 4.40359 6.35062 0
M  V30 2320 H 239.726 3.95455 5.71524 0
M  V30 2321 H 242.917 2.41987 4.007 0
M  V30 2322 H 243.09 3.5636 5.41213 0
M  V30 2323 N 236.496 -1.42363 0.676048 0
M  V30 2324 C 237.743 -2.01522 0.19883 0
M  V30 2325 C 238.071 -1.53456 -1.19505 0
M  V30 2326 O 237.326 -0.727967 -1.81657 0
M  V30 2327 C 237.625 -3.56929 0.183431 0
M  V30 2328 C 237.291 -4.24431 1.52215 0
M  V30 2329 C 235.953 -4.42585 1.8887 0
M  V30 2330 C 238.305 -4.62459 2.40377 0
M  V30 2331 C 235.633 -4.96039 3.13309 0
M  V30 2332 C 237.985 -5.17294 3.64129 0
M  V30 2333 C 236.649 -5.33661 4.00951 0
M  V30 2334 H 235.919 -0.737419 0.0727571 0
M  V30 2335 H 238.566 -1.70531 0.871281 0
M  V30 2336 H 236.871 -3.87594 -0.572532 0
M  V30 2337 H 238.568 -4.00486 -0.203035 0
M  V30 2338 H 235.158 -4.10661 1.22701 0
M  V30 2339 H 239.342 -4.48105 2.13343 0
M  V30 2340 H 234.598 -5.06896 3.41857 0
M  V30 2341 H 238.772 -5.45704 4.32644 0
M  V30 2342 H 236.399 -5.74845 4.9745 0
M  V30 2343 N 237.974 -0.419461 -1.51915 0
M  V30 2344 C 238.921 0.400927 -2.27291 0
M  V30 2345 C 239.891 1.03224 -1.30131 0
M  V30 2346 O 241.076 1.05455 -1.59009 0
M  V30 2347 C 238.216 1.50603 -3.10504 0
M  V30 2348 C 237.329 0.89462 -4.22635 0
M  V30 2349 C 236.464 1.97328 -4.93189 0
M  V30 2350 C 235.503 1.33935 -5.97267 0
M  V30 2351 N 234.64 2.3586 -6.61298 0
M  V30 2352 H 239.48 -0.248251 -2.96964 0
M  V30 2353 H 237.017 -0.134266 -1.46486 0
M  V30 2354 H 238.975 2.15783 -3.57062 0
M  V30 2355 H 237.605 2.12509 -2.42981 0
M  V30 2356 H 236.657 0.131583 -3.80172 0
M  V30 2357 H 237.969 0.391641 -4.9726 0
M  V30 2358 H 237.123 2.70211 -5.43204 0
M  V30 2359 H 235.862 2.50994 -4.18155 0
M  V30 2360 H 234.867 0.595896 -5.46561 0
M  V30 2361 H 236.092 0.810252 -6.74249 0
M  V30 2362 H 234.038 2.88639 -5.89087 0
M  V30 2363 H 233.955 1.90403 -7.3163 0
M  V30 2364 H 235.223 3.08282 -7.15949 0
M  V30 2365 N 239.452 1.56882 -0.150215 0
M  V30 2366 C 240.399 2.16922 0.788244 0
M  V30 2367 C 241.369 1.10303 1.24187 0
M  V30 2368 O 242.554 1.38359 1.31383 0
M  V30 2369 C 239.694 2.79754 2.02068 0
M  V30 2370 C 238.807 4.00775 1.61257 0
M  V30 2371 C 237.942 4.51595 2.79705 0
M  V30 2372 C 236.981 5.65074 2.35282 0
M  V30 2373 N 236.118 6.10499 3.4675 0
M  V30 2374 H 240.958 2.96779 0.269444 0
M  V30 2375 H 238.495 1.46599 0.12128 0
M  V30 2376 H 240.453 3.14329 2.74323 0
M  V30 2377 H 239.083 2.02536 2.51354 0
M  V30 2378 H 238.135 3.72158 0.787553 0
M  V30 2379 H 239.447 4.82978 1.24633 0
M  V30 2380 H 238.601 4.88242 3.60145 0
M  V30 2381 H 237.34 3.68406 3.19576 0
M  V30 2382 H 236.345 5.28 1.53283 0
M  V30 2383 H 237.57 6.50052 1.96493 0
M  V30 2384 H 235.516 5.30243 3.86236 0
M  V30 2385 H 235.433 6.87637 3.14152 0
M  V30 2386 H 236.701 6.51791 4.27537 0
M  V30 2387 N 240.93 -0.123565 1.57115 0
M  V30 2388 C 242.17 -0.838097 1.86428 0
M  V30 2389 C 242.534 -1.77266 0.737611 0
M  V30 2390 O 243.735 -2.52842 0.912389 0
M  V30 2391 C 242.006 -1.57219 3.20962 0
M  V30 2392 S 243.565 -2.32893 3.71896 0
M  V30 2393 H 240.383 -0.279811 0.653626 0
M  V30 2394 H 242.985 -0.0967034 1.95261 0
M  V30 2395 H 241.689 -0.877522 4.00909 0
M  V30 2396 H 241.22 -2.35405 3.15195 0
M  V30 2397 H 243.235 -3.5853 3.43032 0
M  V30 2398 N 242.408 -1.52605 -0.393616 0
M  V30 2399 C 243.338 -1.80022 -1.48709 0
M  V30 2400 C 244.319 -0.651995 -1.57108 0
M  V30 2401 O 245.504 -0.89913 -1.72132 0
M  V30 2402 C 242.634 -1.96492 -2.86371 0
M  V30 2403 C 241.588 -3.12161 -2.92813 0
M  V30 2404 C 240.914 -3.13877 -4.3288 0
M  V30 2405 C 242.214 -4.51322 -2.6288 0
M  V30 2406 H 243.908 -2.71589 -1.26015 0
M  V30 2407 H 241.454 -1.30684 -0.604778 0
M  V30 2408 H 243.407 -2.14255 -3.62867 0
M  V30 2409 H 242.131 -1.01611 -3.10391 0
M  V30 2410 H 240.79 -2.94173 -2.18764 0
M  V30 2411 H 240.438 -2.16687 -4.53933 0
M  V30 2412 H 240.138 -3.91576 -4.38112 0
M  V30 2413 H 241.662 -3.33789 -5.1129 0
M  V30 2414 H 243.076 -4.69435 -3.29096 0
M  V30 2415 H 241.473 -5.31053 -2.79468 0
M  V30 2416 H 242.543 -4.58353 -1.58242 0
M  V30 2417 N 243.887 0.651787 -1.4349 0
M  V30 2418 C 245.112 1.44434 -1.48841 0
M  V30 2419 C 245.537 1.8779 -0.107955 0
M  V30 2420 O 244.895 1.57464 0.898602 0
M  V30 2421 C 244.943 2.65458 -2.44059 0
M  V30 2422 O 244.047 3.64566 -1.92784 0
M  V30 2423 H 243.388 0.433005 -0.503391 0
M  V30 2424 H 245.918 0.797451 -1.88419 0
M  V30 2425 H 245.928 3.13255 -2.6141 0
M  V30 2426 H 244.603 2.33244 -3.4434 0
M  V30 2427 H 243.18 3.23716 -1.851 0
M  V30 2428 N 245.365 1.30045 0.890287 0
M  V30 2429 C 246.611 1.18737 1.64406 0
M  V30 2430 C 246.944 -0.258525 1.92472 0
M  V30 2431 O 246.219 -1.18562 1.54186 0
M  V30 2432 C 246.502 2.01087 2.98724 0
M  V30 2433 C 246.355 3.53867 2.77665 0
M  V30 2434 C 247.674 1.84457 3.9958 0
M  V30 2435 H 244.793 0.432698 0.596608 0
M  V30 2436 H 247.435 1.5962 1.0306 0
M  V30 2437 H 245.585 1.66349 3.51084 0
M  V30 2438 H 247.257 3.98637 2.32133 0
M  V30 2439 H 245.5 3.78318 2.12269 0
M  V30 2440 H 246.171 4.06772 3.7315 0
M  V30 2441 H 248.647 2.14817 3.56361 0
M  V30 2442 H 247.523 2.44411 4.91482 0
M  V30 2443 H 247.784 0.802276 4.3476 0
M  V30 2444 N 246.843 -1.10192 1.12674 0
M  V30 2445 C 248.091 -1.81845 0.881861 0
M  V30 2446 C 248.412 -1.85737 -0.593867 0
M  V30 2447 O 247.682 -1.33724 -1.4316 0
M  V30 2448 H 246.262 -0.673432 0.323261 0
M  V30 2449 H 248.924 -1.33316 1.42172 0
M  V30 2450 H 248.02 -2.85288 1.2656 0
M  V30 2451 N 248.321 -0.919034 -1.28029 0
M  V30 2452 C 249.254 -0.355887 -2.25408 0
M  V30 2453 C 250.232 0.542874 -1.5327 0
M  V30 2454 O 251.416 0.485338 -1.82145 0
M  V30 2455 C 248.543 0.490759 -3.35126 0
M  V30 2456 C 247.589 -0.343358 -4.25116 0
M  V30 2457 S 248.422 -1.75344 -5.05979 0
M  V30 2458 C 249.578 -0.914244 -6.19187 0
M  V30 2459 H 249.811 -1.18123 -2.72826 0
M  V30 2460 H 247.344 -0.720636 -1.36551 0
M  V30 2461 H 249.302 0.973404 -3.98792 0
M  V30 2462 H 247.963 1.29054 -2.86363 0
M  V30 2463 H 247.156 0.304266 -5.03081 0
M  V30 2464 H 246.758 -0.759851 -3.662 0
M  V30 2465 H 249.05 -0.146282 -6.77342 0
M  V30 2466 H 249.993 -1.66661 -6.88208 0
M  V30 2467 H 250.401 -0.460082 -5.62622 0
M  V30 2468 N 249.799 1.42003 -0.683588 0
M  V30 2469 C 251.024 2.06265 -0.216647 0
M  V30 2470 C 251.449 1.51059 1.12083 0
M  V30 2471 O 250.807 0.632638 1.69904 0
M  V30 2472 C 250.855 3.60191 -0.171759 0
M  V30 2473 O 249.959 4.03396 0.857069 0
M  V30 2474 H 249.3 0.65502 -0.108834 0
M  V30 2475 H 251.83 1.81982 -0.935077 0
M  V30 2476 H 251.84 4.08 0.0014303 0
M  V30 2477 H 250.515 3.99743 -1.14796 0
M  V30 2478 H 249.092 3.67117 0.654208 0
M  V30 2479 N 251.277 0.427512 1.51691 0
M  V30 2480 C 252.693 0.0792977 1.59403 0
M  V30 2481 C 252.893 -1.41035 1.43914 0
M  V30 2482 O 251.949 -2.17922 1.27539 0
M  V30 2483 C 253.262 0.590636 2.94842 0
M  V30 2484 C 254.81 0.550215 3.08126 0
M  V30 2485 C 255.285 1.03836 4.46074 0
M  V30 2486 N 256.776 0.995943 4.52366 0
M  V30 2487 C 257.511 1.34463 5.57411 0
M  V30 2488 N 257.007 1.76569 6.69922 0
M  V30 2489 N 258.8 1.26343 5.47717 0
M  V30 2490 H 250.951 1.39687 1.60004 0
M  V30 2491 H 253.214 0.575003 0.753708 0
M  V30 2492 H 252.92 1.63251 3.11516 0
M  V30 2493 H 252.794 0.0102061 3.77199 0
M  V30 2494 H 255.181 -0.482654 2.91126 0
M  V30 2495 H 255.262 1.16693 2.27632 0
M  V30 2496 H 254.906 2.06965 4.63819 0
M  V30 2497 H 254.836 0.398286 5.25092 0
M  V30 2498 H 257.327 0.68661 3.7161 0
M  V30 2499 H 257.64 2.01438 7.46085 0
M  V30 2500 H 255.985 1.80488 6.71155 0
M  V30 2501 H 259.176 0.933209 4.58703 0
M  V30 2502 H 259.349 1.53846 6.29472 0
M  V30 2503 N 252.755 -1.56801 0.158532 0
M  V30 2504 C 254.032 -1.88131 -0.535357 0
M  V30 2505 C 254.412 -1.06638 -1.82186 0
M  V30 2506 O 253.76 -0.156533 -2.27963 0
M  V30 2507 C 253.97 -3.39949 -0.789653 0
M  V30 2508 C 255.318 -4.09416 -1.12533 0
M  V30 2509 O 256.342 -3.45194 -0.878622 0
M  V30 2510 O 255.201 -5.22855 -1.59014 0
M  V30 2511 H 252.295 -0.780143 -0.27442 0
M  V30 2512 H 254.841 -1.68564 0.19601 0
M  V30 2513 H 253.613 -3.91115 0.120353 0
M  V30 2514 H 253.236 -3.65084 -1.57479 0
M  V30 2515 N 254.233 0.115231 -1.57178 0
M  V30 2516 C 255.196 1.12526 -1.99676 0
M  V30 2517 C 256.196 1.34095 -0.88742 0
M  V30 2518 O 257.386 1.30548 -1.15337 0
M  V30 2519 C 254.518 2.4789 -2.34015 0
M  V30 2520 H 255.711 0.759912 -2.90113 0
M  V30 2521 H 253.264 0.359648 -1.52106 0
M  V30 2522 H 253.999 2.89339 -1.4647 0
M  V30 2523 H 253.784 2.33588 -3.14927 0
M  V30 2524 H 255.274 3.20575 -2.67622 0
M  V30 2525 N 255.711 1.52812 0.385517 0
M  V30 2526 C 256.957 1.68275 1.13188 0
M  V30 2527 C 257.29 0.423179 1.89533 0
M  V30 2528 O 256.565 -0.579113 1.85679 0
M  V30 2529 C 256.848 2.92001 2.1073 0
M  V30 2530 C 256.701 4.28067 1.38125 0
M  V30 2531 C 258.02 3.11283 3.11113 0
M  V30 2532 H 255.139 0.612352 0.410115 0
M  V30 2533 H 257.781 1.85415 0.414869 0
M  V30 2534 H 255.931 2.77519 2.71874 0
M  V30 2535 H 257.603 4.54324 0.799187 0
M  V30 2536 H 255.846 4.28388 0.683092 0
M  V30 2537 H 256.517 5.10733 2.09417 0
M  V30 2538 H 258.993 3.2482 2.6006 0
M  V30 2539 H 257.869 3.99325 3.76605 0
M  V30 2540 H 258.13 2.25656 3.80173 0
M  V30 2541 N 257.189 -0.644168 1.43834 0
M  V30 2542 C 258.605 -0.960875 1.27434 0
M  V30 2543 C 258.805 -2.00499 0.200618 0
M  V30 2544 O 257.861 -2.49018 -0.417906 0
M  V30 2545 C 259.174 -1.43653 2.64167 0
M  V30 2546 C 260.722 -1.55271 2.71772 0
M  V30 2547 C 261.197 -2.06224 4.08944 0
M  V30 2548 N 262.688 -2.13513 4.11055 0
M  V30 2549 C 263.423 -2.54081 5.14033 0
M  V30 2550 N 262.919 -2.9388 6.27381 0
M  V30 2551 N 264.712 -2.54101 5.01387 0
M  V30 2552 H 256.863 0.0465779 2.12349 0
M  V30 2553 H 259.126 -0.0417638 0.94708 0
M  V30 2554 H 258.832 -0.743706 3.43747 0
M  V30 2555 H 258.706 -2.40993 2.90176 0
M  V30 2556 H 261.093 -2.23653 1.92519 0
M  V30 2557 H 261.174 -0.563395 2.49519 0
M  V30 2558 H 260.818 -1.38441 4.88668 0
M  V30 2559 H 260.748 -3.06003 4.28567 0
M  V30 2560 H 263.239 -1.85493 3.29242 0
M  V30 2561 H 263.552 -3.2361 7.01781 0
M  V30 2562 H 261.897 -2.91663 6.30839 0
M  V30 2563 H 265.088 -2.22391 4.11898 0
M  V30 2564 H 265.261 -2.85394 5.81768 0
M  V30 2565 N 258.668 -1.30515 -0.883378 0
M  V30 2566 C 259.915 -1.1943 -1.63532 0
M  V30 2567 C 260.243 0.250627 -1.92878 0
M  V30 2568 O 259.498 1.19556 -1.54935 0
M  V30 2569 C 259.797 -1.96994 -2.98209 0
M  V30 2570 C 259.463 -3.466 -2.88408 0
M  V30 2571 C 258.125 -3.87397 -2.85442 0
M  V30 2572 C 260.477 -4.41863 -2.76418 0
M  V30 2573 C 257.805 -5.21745 -2.68327 0
M  V30 2574 C 260.157 -5.7632 -2.60841 0
M  V30 2575 C 258.821 -6.16354 -2.56251 0
M  V30 2576 H 258.091 -0.437025 -0.598406 0
M  V30 2577 H 260.738 -1.61635 -1.02696 0
M  V30 2578 H 259.043 -1.47429 -3.63004 0
M  V30 2579 H 260.74 -1.85808 -3.55354 0
M  V30 2580 H 257.33 -3.14182 -2.91527 0
M  V30 2581 H 261.514 -4.11285 -2.77775 0
M  V30 2582 H 256.77 -5.51853 -2.63189 0
M  V30 2583 H 260.944 -6.49772 -2.50538 0
M  V30 2584 H 258.571 -7.20401 -2.42748 0
M  V30 2585 N 260.146 1.09593 -1.13257 0
M  V30 2586 C 261.394 1.81375 -0.891492 0
M  V30 2587 C 261.715 1.86049 0.584009 0
M  V30 2588 O 260.985 1.34481 1.42449 0
M  V30 2589 H 259.565 0.671708 -0.326828 0
M  V30 2590 H 262.227 1.3256 -1.42877 0
M  V30 2591 H 261.323 2.84612 -1.28071 0
M  V30 2592 N 261.624 0.925811 1.2754 0
M  V30 2593 C 263.04 0.625767 1.46821 0
M  V30 2594 C 263.24 -0.825506 1.83814 0
M  V30 2595 O 262.296 -1.60356 1.95044 0
M  V30 2596 C 263.609 1.57402 2.56213 0
M  V30 2597 C 265.157 1.58204 2.70075 0
M  V30 2598 C 265.632 2.51721 3.82623 0
M  V30 2599 N 267.123 2.49917 3.89994 0
M  V30 2600 C 267.858 3.18968 4.76494 0
M  V30 2601 N 267.354 3.97391 5.67496 0
M  V30 2602 N 269.147 3.07996 4.70208 0
M  V30 2603 H 261.298 1.86409 1.01811 0
M  V30 2604 H 263.561 0.800213 0.508295 0
M  V30 2605 H 263.267 2.60925 2.35819 0
M  V30 2606 H 263.141 1.31428 3.53563 0
M  V30 2607 H 265.528 0.554124 2.89851 0
M  V30 2608 H 265.609 1.88226 1.73218 0
M  V30 2609 H 265.253 3.54622 3.63601 0
M  V30 2610 H 265.183 2.18996 4.78903 0
M  V30 2611 H 267.674 1.9296 3.24923 0
M  V30 2612 H 267.987 4.4707 6.30356 0
M  V30 2613 H 266.332 4.01495 5.67298 0
M  V30 2614 H 269.523 2.46223 3.9811 0
M  V30 2615 H 269.696 3.6208 5.37403 0
M  V30 2616 N 263.102 -1.41638 0.69111 0
M  V30 2617 C 264.351 -2.00526 0.217318 0
M  V30 2618 C 264.664 -1.55353 -1.18848 0
M  V30 2619 O 265.87 -2.06769 -1.75951 0
M  V30 2620 C 264.326 -3.58313 0.337639 0
M  V30 2621 C 263.934 -4.12469 1.74852 0
M  V30 2622 C 265.678 -4.24431 -0.0766066 0
M  V30 2623 C 263.585 -5.62675 1.82074 0
M  V30 2624 H 262.515 -0.750008 0.0774893 0
M  V30 2625 H 265.166 -1.6217 0.858661 0
M  V30 2626 H 263.548 -3.9425 -0.371879 0
M  V30 2627 H 264.722 -3.8796 2.48644 0
M  V30 2628 H 263.037 -3.58861 2.11205 0
M  V30 2629 H 265.634 -5.34683 -0.0430284 0
M  V30 2630 H 265.977 -4.01101 -1.1146 0
M  V30 2631 H 266.51 -3.93512 0.582476 0
M  V30 2632 H 263.249 -5.90826 2.83911 0
M  V30 2633 H 262.769 -5.89124 1.12661 0
M  V30 2634 H 264.448 -6.27371 1.58159 0
M  V30 2635 N 264.58 -0.43555 -1.51462 0
M  V30 2636 C 265.991 0.0279871 -1.86679 0
M  V30 2637 C 266.342 1.42104 -1.35281 0
M  V30 2638 O 265.467 2.04667 -0.702878 0
M  V30 2639 C 266.062 0.0575626 -3.38751 0
M  V30 2640 C 264.621 0.465507 -3.7351 0
M  V30 2641 C 263.768 -0.342996 -2.75171 0
M  V30 2642 H 266.719 -0.651473 -1.44712 0
M  V30 2643 H 266.74 0.867421 -3.70481 0
M  V30 2644 H 266.252 -0.956448 -3.7613 0
M  V30 2645 H 264.353 1.48519 -3.41721 0
M  V30 2646 H 264.466 0.191546 -4.78717 0
M  V30 2647 H 262.83 0.198442 -2.53926 0
M  V30 2648 H 263.613 -1.35585 -3.15391 0
M  V30 2649 N 266.058 1.56714 -0.166846 0
M  V30 2650 C 267.005 2.17746 0.765193 0
M  V30 2651 C 267.975 1.11614 1.23011 0
M  V30 2652 O 269.16 1.39745 1.29908 0
M  V30 2653 C 266.3 2.81882 1.9909 0
M  V30 2654 C 265.413 4.02462 1.56997 0
M  V30 2655 C 264.548 4.54537 2.749 0
M  V30 2656 C 263.587 5.67538 2.29275 0
M  V30 2657 N 262.724 6.14142 3.40255 0
M  V30 2658 H 267.564 2.97048 0.237952 0
M  V30 2659 H 265.101 1.4672 0.105725 0
M  V30 2660 H 267.059 3.17221 2.70974 0
M  V30 2661 H 265.689 2.05191 2.49192 0
M  V30 2662 H 264.741 3.72973 0.748037 0
M  V30 2663 H 266.053 4.84273 1.19503 0
M  V30 2664 H 265.207 4.92035 3.54946 0
M  V30 2665 H 263.946 3.71774 3.1565 0
M  V30 2666 H 262.951 5.29597 1.47674 0
M  V30 2667 H 264.176 6.52099 1.89588 0
M  V30 2668 H 262.122 5.3431 3.8059 0
M  V30 2669 H 262.039 6.9093 3.06841 0
M  V30 2670 H 263.307 6.56289 4.206 0
M  V30 2671 N 267.536 -0.106894 1.57237 0
M  V30 2672 C 268.952 -0.46078 1.52804 0
M  V30 2673 C 269.152 -1.81184 0.881746 0
M  V30 2674 O 268.208 -2.48102 0.469224 0
M  V30 2675 C 269.521 -0.434127 2.9755 0
M  V30 2676 C 271.069 -0.516821 3.08704 0
M  V30 2677 C 271.544 -0.520436 4.55033 0
M  V30 2678 N 273.035 -0.58153 4.59535 0
M  V30 2679 C 273.77 -0.605973 5.70189 0
M  V30 2680 N 273.266 -0.587331 6.90306 0
M  V30 2681 N 275.059 -0.649895 5.5833 0
M  V30 2682 H 267.21 0.778203 1.9763 0
M  V30 2683 H 269.473 0.288403 0.903066 0
M  V30 2684 H 269.179 0.491197 3.48253 0
M  V30 2685 H 269.053 -1.25748 3.55622 0
M  V30 2686 H 271.44 -1.43256 2.57995 0
M  V30 2687 H 271.521 0.334449 2.53604 0
M  V30 2688 H 271.165 0.391313 5.0639 0
M  V30 2689 H 271.095 -1.38876 5.07958 0
M  V30 2690 H 273.586 -0.60161 3.73081 0
M  V30 2691 H 273.899 -0.60894 7.70397 0
M  V30 2692 H 272.244 -0.554564 6.92784 0
M  V30 2693 H 275.435 -0.661907 4.63397 0
M  V30 2694 H 275.608 -0.665476 6.44574 0
M  V30 2695 N 269.014 -1.53014 -0.377408 0
M  V30 2696 C 269.924 -1.81557 -1.48574 0
M  V30 2697 C 270.94 -0.703102 -1.59162 0
M  V30 2698 O 272.116 -0.99192 -1.75279 0
M  V30 2699 C 269.181 -1.9889 -2.83978 0
M  V30 2700 C 268.242 -3.22801 -2.83016 0
M  V30 2701 C 267.475 -3.39298 -4.11962 0
M  V30 2702 O 267.698 -2.60345 -5.0752 0
M  V30 2703 O 266.632 -4.32604 -4.18494 0
M  V30 2704 H 270.458 -2.75695 -1.27382 0
M  V30 2705 H 268.043 -1.38248 -0.566373 0
M  V30 2706 H 269.925 -2.11931 -3.6423 0
M  V30 2707 H 268.6 -1.07942 -3.05172 0
M  V30 2708 H 267.507 -3.15193 -2.01505 0
M  V30 2709 H 268.84 -4.13632 -2.66775 0
M  V30 2710 N 270.492 0.636531 -1.44174 0
M  V30 2711 C 271.439 1.74875 -1.50624 0
M  V30 2712 C 272.409 1.62275 -0.35442 0
M  V30 2713 O 273.594 1.82276 -0.563908 0
M  V30 2714 C 270.734 3.13102 -1.45125 0
M  V30 2715 C 269.847 3.36717 -2.7064 0
M  V30 2716 C 268.982 4.64885 -2.57013 0
M  V30 2717 C 268.021 4.8166 -3.77717 0
M  V30 2718 N 267.158 6.01101 -3.62798 0
M  V30 2719 H 271.998 1.68697 -2.45653 0
M  V30 2720 H 269.535 0.823004 -1.21922 0
M  V30 2721 H 271.493 3.93034 -1.39929 0
M  V30 2722 H 270.123 3.18308 -0.536671 0
M  V30 2723 H 269.175 2.50763 -2.86046 0
M  V30 2724 H 270.487 3.44993 -3.60252 0
M  V30 2725 H 269.641 5.52969 -2.49619 0
M  V30 2726 H 268.38 4.58957 -1.64953 0
M  V30 2727 H 267.385 3.92007 -3.85501 0
M  V30 2728 H 268.61 4.89406 -4.70807 0
M  V30 2729 H 266.556 5.96273 -2.73486 0
M  V30 2730 H 266.473 6.10409 -4.46023 0
M  V30 2731 H 267.741 6.91761 -3.59286 0
M  V30 2732 N 271.97 1.30982 0.876444 0
M  V30 2733 C 272.902 1.13902 1.98894 0
M  V30 2734 C 273.915 0.0798815 1.62604 0
M  V30 2735 O 275.104 0.326743 1.75484 0
M  V30 2736 C 272.204 0.716699 3.31235 0
M  V30 2737 C 271.377 1.85945 3.95908 0
M  V30 2738 C 270.436 1.42426 5.06558 0
M  V30 2739 O 269.462 2.13287 5.27729 0
M  V30 2740 N 270.664 0.308025 5.79682 0
M  V30 2741 H 273.429 2.09724 2.14094 0
M  V30 2742 H 270.99 1.2323 1.05004 0
M  V30 2743 H 272.982 0.408403 4.02634 0
M  V30 2744 H 271.552 -0.149719 3.12241 0
M  V30 2745 H 270.772 2.33541 3.17573 0
M  V30 2746 H 272.06 2.62503 4.35855 0
M  V30 2747 H 271.458 -0.282241 5.64995 0
M  V30 2748 H 270.015 0.0592282 6.51773 0
M  V30 2749 N 273.449 -1.08991 1.13837 0
M  V30 2750 C 274.865 -1.33312 0.877506 0
M  V30 2751 C 275.065 -1.95587 -0.48456 0
M  V30 2752 O 274.121 -2.20509 -1.23013 0
M  V30 2753 C 275.434 -2.24045 2.0056 0
M  V30 2754 C 276.982 -2.37542 2.03821 0
M  V30 2755 C 277.457 -3.31614 3.15905 0
M  V30 2756 N 278.948 -3.39189 3.15445 0
M  V30 2757 C 279.683 -4.11992 3.98811 0
M  V30 2758 N 279.179 -4.87553 4.92203 0
M  V30 2759 N 280.972 -4.07762 3.86894 0
M  V30 2760 H 273.123 -0.669456 2.01574 0
M  V30 2761 H 275.386 -0.357482 0.878015 0
M  V30 2762 H 275.092 -1.85521 2.98789 0
M  V30 2763 H 274.966 -3.24466 1.92359 0
M  V30 2764 H 277.353 -2.75327 1.06202 0
M  V30 2765 H 277.434 -1.36884 2.16093 0
M  V30 2766 H 277.078 -2.94551 4.13766 0
M  V30 2767 H 277.008 -4.32186 3.0087 0
M  V30 2768 H 279.499 -2.85314 2.47799 0
M  V30 2769 H 279.812 -5.40549 5.52292 0
M  V30 2770 H 278.157 -4.86627 4.96205 0
M  V30 2771 H 281.348 -3.47833 3.13257 0
M  V30 2772 H 281.521 -4.64238 4.52092 0
M  V30 2773 N 274.927 -0.932562 -1.27047 0
M  V30 2774 C 275.86 -0.379774 -2.25018 0
M  V30 2775 C 276.838 0.526587 -1.53837 0
M  V30 2776 O 278.022 0.465992 -1.82649 0
M  V30 2777 C 275.149 0.455187 -3.35627 0
M  V30 2778 C 274.195 -0.388428 -4.24728 0
M  V30 2779 S 275.028 -1.80701 -5.04091 0
M  V30 2780 C 276.184 -0.979865 -6.18182 0
M  V30 2781 H 276.417 -1.2101 -2.71558 0
M  V30 2782 H 273.95 -0.735078 -1.35779 0
M  V30 2783 H 275.908 0.931052 -3.99802 0
M  V30 2784 H 274.569 1.26009 -2.87716 0
M  V30 2785 H 273.762 0.25089 -5.03375 0
M  V30 2786 H 273.364 -0.798649 -3.65373 0
M  V30 2787 H 275.656 -0.218115 -6.77149 0
M  V30 2788 H 276.599 -1.73951 -6.86401 0
M  V30 2789 H 277.007 -0.51973 -5.62102 0
M  V30 2790 N 276.405 1.4127 -0.698611 0
M  V30 2791 C 277.335 2.33447 -0.049629 0
M  V30 2792 C 278.316 1.51982 0.763898 0
M  V30 2793 O 279.501 1.80509 0.716257 0
M  V30 2794 C 276.631 3.35828 0.885267 0
M  V30 2795 C 275.585 4.27627 0.178613 0
M  V30 2796 C 274.911 5.20406 1.22807 0
M  V30 2797 C 276.211 5.13459 -0.956933 0
M  V30 2798 H 277.905 2.87966 -0.81951 0
M  V30 2799 H 275.451 1.38461 -0.395538 0
M  V30 2800 H 277.404 3.9924 1.34854 0
M  V30 2801 H 276.128 2.79666 1.68685 0
M  V30 2802 H 274.787 3.65643 -0.26466 0
M  V30 2803 H 274.435 4.60558 2.02226 0
M  V30 2804 H 274.135 5.82661 0.760239 0
M  V30 2805 H 275.659 5.86695 1.69179 0
M  V30 2806 H 277.073 5.70421 -0.573805 0
M  V30 2807 H 275.47 5.8467 -1.35205 0
M  V30 2808 H 276.54 4.50443 -1.79524 0
M  V30 2809 N 277.883 0.443576 1.51229 0
M  V30 2810 C 279.132 -0.122332 2.01329 0
M  V30 2811 C 279.445 -1.43237 1.33201 0
M  V30 2812 O 280.651 -2.0816 1.74304 0
M  V30 2813 C 279.107 -0.268551 3.58897 0
M  V30 2814 C 278.715 1.03142 4.35965 0
M  V30 2815 C 280.459 -0.787894 4.17124 0
M  V30 2816 C 278.366 0.850504 5.85252 0
M  V30 2817 H 277.296 -0.0494929 0.752374 0
M  V30 2818 H 279.947 0.574289 1.74282 0
M  V30 2819 H 278.329 -1.02832 3.82415 0
M  V30 2820 H 279.503 1.80001 4.24189 0
M  V30 2821 H 277.818 1.47977 3.89219 0
M  V30 2822 H 280.415 -0.939841 5.26375 0
M  V30 2823 H 280.758 -1.77201 3.76703 0
M  V30 2824 H 281.291 -0.0862669 3.97706 0
M  V30 2825 H 278.03 1.80718 6.30096 0
M  V30 2826 H 277.55 0.121825 5.99676 0
M  V30 2827 H 279.229 0.506163 6.45017 0
M  V30 2828 N 279.361 -1.56624 0.175154 0
M  V30 2829 C 280.271 -2.21741 -0.766042 0
M  V30 2830 C 281.287 -1.21023 -1.25018 0
M  V30 2831 O 282.463 -1.53697 -1.3015 0
M  V30 2832 C 279.528 -2.84839 -1.97655 0
M  V30 2833 C 278.589 -4.00769 -1.53892 0
M  V30 2834 C 277.822 -4.60849 -2.69173 0
M  V30 2835 O 278.045 -4.19823 -3.86141 0
M  V30 2836 O 276.979 -5.50655 -2.43028 0
M  V30 2837 H 280.805 -3.02738 -0.241585 0
M  V30 2838 H 278.39 -1.49305 -0.053222 0
M  V30 2839 H 280.272 -3.24834 -2.68442 0
M  V30 2840 H 278.947 -2.06836 -2.48999 0
M  V30 2841 H 277.854 -3.65436 -0.80044 0
M  V30 2842 H 279.187 -4.80376 -1.07236 0
M  V30 2843 N 280.839 0.0985539 -1.57292 0
M  V30 2844 C 281.772 1.15082 -1.97057 0
M  V30 2845 C 282.75 1.39025 -0.843255 0
M  V30 2846 O 283.934 1.52842 -1.10325 0
M  V30 2847 C 281.061 2.50069 -2.28437 0
M  V30 2848 C 280.107 2.42428 -3.509 0
M  V30 2849 S 280.94 1.84414 -5.02744 0
M  V30 2850 C 282.096 3.21032 -5.37298 0
M  V30 2851 H 282.329 0.811815 -2.86002 0
M  V30 2852 H 279.862 0.306102 -1.51335 0
M  V30 2853 H 281.82 3.27729 -2.47192 0
M  V30 2854 H 280.481 2.8114 -1.40069 0
M  V30 2855 H 279.674 3.41911 -3.70288 0
M  V30 2856 H 279.276 1.72896 -3.31637 0
M  V30 2857 H 281.568 4.17297 -5.33731 0
M  V30 2858 H 282.511 3.06452 -6.38352 0
M  V30 2859 H 282.919 3.20404 -4.64759 0
M  V30 2860 N 282.317 1.53212 0.369288 0
M  V30 2861 C 283.249 1.75668 1.47219 0
M  V30 2862 C 284.262 0.637387 1.49804 0
M  V30 2863 O 285.451 0.913561 1.5335 0
M  V30 2864 C 282.551 1.81818 2.85999 0
M  V30 2865 C 281.724 3.11409 3.07153 0
M  V30 2866 C 280.783 3.08849 4.26026 0
M  V30 2867 O 279.809 3.82659 4.2138 0
M  V30 2868 N 281.011 2.29409 5.33246 0
M  V30 2869 H 283.776 2.70832 1.28337 0
M  V30 2870 H 281.337 1.51944 0.55898 0
M  V30 2871 H 283.329 1.77588 3.63655 0
M  V30 2872 H 281.899 0.939544 2.98146 0
M  V30 2873 H 281.119 3.28971 2.1719 0
M  V30 2874 H 282.407 3.97059 3.18154 0
M  V30 2875 H 281.805 1.68946 5.39883 0
M  V30 2876 H 280.362 2.31001 6.09493 0
M  V30 2877 N 283.795 -0.628877 1.44509 0
M  V30 2878 C 285.02 -1.42048 1.5112 0
M  V30 2879 C 285.445 -1.87594 0.137818 0
M  V30 2880 O 284.803 -1.58873 -0.873437 0
M  V30 2881 C 284.851 -2.61541 2.48251 0
M  V30 2882 O 283.955 -3.61453 1.98559 0
M  V30 2883 H 283.296 -0.424942 0.510216 0
M  V30 2884 H 285.826 -0.767374 1.89664 0
M  V30 2885 H 285.836 -3.09057 2.66361 0
M  V30 2886 H 284.511 -2.27736 3.48007 0
M  V30 2887 H 283.088 -3.20731 1.90227 0
M  V30 2888 N 285.273 -1.31445 -0.869486 0
M  V30 2889 C 286.236 -1.19094 -1.9583 0
M  V30 2890 C 287.236 -0.117906 -1.60367 0
M  V30 2891 O 288.426 -0.367208 -1.70286 0
M  V30 2892 C 285.558 -0.828165 -3.30688 0
M  V30 2893 H 286.751 -2.15842 -2.08212 0
M  V30 2894 H 284.304 -1.15063 -1.05784 0
M  V30 2895 H 285.039 0.138142 -3.24006 0
M  V30 2896 H 284.824 -1.6038 -3.578 0
M  V30 2897 H 286.314 -0.765658 -4.10521 0
M  V30 2898 N 286.751 1.08385 -1.14413 0
M  V30 2899 C 287.684 2.14642 -0.774871 0
M  V30 2900 C 288.662 1.60761 0.243876 0
M  V30 2901 O 289.846 1.88031 0.132883 0
M  V30 2902 C 286.973 3.38366 -0.150491 0
M  V30 2903 C 286.019 4.10997 -1.13945 0
M  V30 2904 S 286.852 4.63797 -2.67679 0
M  V30 2905 C 288.008 5.90808 -2.06631 0
M  V30 2906 H 288.241 2.45633 -1.67487 0
M  V30 2907 H 285.774 1.20498 -0.96538 0
M  V30 2908 H 287.732 4.09996 0.203334 0
M  V30 2909 H 286.393 3.05572 0.72694 0
M  V30 2910 H 285.586 4.99783 -0.65059 0
M  V30 2911 H 285.188 3.4528 -1.43727 0
M  V30 2912 H 287.48 6.62411 -1.4219 0
M  V30 2913 H 288.423 6.4439 -2.93542 0
M  V30 2914 H 288.831 5.4383 -1.51357 0
M  V30 2915 N 288.23 0.939286 1.26551 0
M  V30 2916 C 289.177 0.446088 2.26448 0
M  V30 2917 C 290.147 -0.493234 1.58608 0
M  V30 2918 O 291.332 -0.409857 1.86346 0
M  V30 2919 C 288.472 -0.284375 3.43926 0
M  V30 2920 C 287.585 0.690399 4.26448 0
M  V30 2921 C 286.72 -0.0610712 5.31165 0
M  V30 2922 C 285.759 0.905649 6.05363 0
M  V30 2923 N 284.896 0.186055 7.01853 0
M  V30 2924 H 289.736 1.30291 2.68008 0
M  V30 2925 H 287.273 0.65371 1.31776 0
M  V30 2926 H 289.231 -0.724313 4.10864 0
M  V30 2927 H 287.861 -1.10535 3.03285 0
M  V30 2928 H 286.913 1.24885 3.59316 0
M  V30 2929 H 288.225 1.42873 4.779 0
M  V30 2930 H 287.379 -0.56038 6.04106 0
M  V30 2931 H 286.118 -0.832297 4.80546 0
M  V30 2932 H 285.123 1.4161 5.3125 0
M  V30 2933 H 286.348 1.67685 6.58072 0
M  V30 2934 H 284.294 -0.566714 6.53548 0
M  V30 2935 H 284.211 0.863752 7.51049 0
M  V30 2936 H 285.479 -0.292221 7.78952 0
M  V30 2937 N 289.708 -1.40897 0.706093 0
M  V30 2938 C 290.936 -2.05373 0.250887 0
M  V30 2939 C 291.351 -1.53172 -1.10381 0
M  V30 2940 O 290.708 -0.684305 -1.69185 0
M  V30 2941 C 290.759 -3.6088 0.211571 0
M  V30 2942 O 290.48 -4.11153 1.51276 0
M  V30 2943 C 291.981 -4.42517 -0.263346 0
M  V30 2944 H 289.201 -0.66115 0.114552 0
M  V30 2945 H 291.745 -1.80479 0.961635 0
M  V30 2946 H 289.9 -3.84777 -0.450073 0
M  V30 2947 H 290.314 -5.05279 1.40689 0
M  V30 2948 H 291.788 -5.51479 -0.239718 0
M  V30 2949 H 292.265 -4.19396 -1.30397 0
M  V30 2950 H 292.871 -4.23708 0.367677 0
M  V30 2951 N 291.186 -0.45159 -1.50991 0
M  V30 2952 C 292.119 0.398179 -2.24699 0
M  V30 2953 C 293.097 1.01276 -1.27208 0
M  V30 2954 O 294.281 1.05247 -1.56382 0
M  V30 2955 C 291.408 1.55618 -3.00833 0
M  V30 2956 C 290.454 1.0609 -4.13095 0
M  V30 2957 S 291.287 -0.00865136 -5.35499 0
M  V30 2958 C 292.443 1.15369 -6.15175 0
M  V30 2959 H 292.676 -0.227555 -2.96428 0
M  V30 2960 H 290.209 -0.236251 -1.52582 0
M  V30 2961 H 292.167 2.21997 -3.45293 0
M  V30 2962 H 290.828 2.15337 -2.28667 0
M  V30 2963 H 290.021 1.92726 -4.65696 0
M  V30 2964 H 289.623 0.47513 -3.7097 0
M  V30 2965 H 291.915 2.06925 -6.45126 0
M  V30 2966 H 292.858 0.667344 -7.04948 0
M  V30 2967 H 293.266 1.3987 -5.46897 0
M  V30 2968 N 292.664 1.56529 -0.183458 0
M  V30 2969 C 293.597 2.14417 0.781052 0
M  V30 2970 C 294.575 1.07761 1.21763 0
M  V30 2971 O 295.759 1.35807 1.30724 0
M  V30 2972 C 292.886 2.69361 2.05335 0
M  V30 2973 C 291.932 3.885 1.75982 0
M  V30 2974 S 292.765 5.27568 0.918256 0
M  V30 2975 C 293.921 5.85926 2.20095 0
M  V30 2976 H 294.154 2.95893 0.2889 0
M  V30 2977 H 291.687 1.54368 0.0313844 0
M  V30 2978 H 293.645 3.01662 2.78406 0
M  V30 2979 H 292.306 1.87949 2.51663 0
M  V30 2980 H 291.499 4.25314 2.70415 0
M  V30 2981 H 291.101 3.57149 1.10999 0
M  V30 2982 H 293.393 5.99579 3.15453 0
M  V30 2983 H 294.336 6.82761 1.87731 0
M  V30 2984 H 294.744 5.14438 2.32409 0
M  V30 2985 N 294.142 -0.090211 1.57342 0
M  V30 2986 C 295.09 -1.12792 2.03422 0
M  V30 2987 C 296.084 -1.41182 0.936166 0
M  V30 2988 O 297.29 -1.40805 1.12133 0
M  V30 2989 H 293.665 -0.380986 0.648347 0
M  V30 2990 H 295.636 -0.71299 2.89757 0
M  V30 2991 C 294.385 -2.43855 2.47851 0
M  V30 2992 H 293.708 -2.22855 3.31927 0
M  V30 2993 H 295.148 -3.14955 2.83865 0
M  V30 2994 C 293.607 -3.08503 1.3538 0
M  V30 2995 O 294.137 -3.95805 0.685641 0
M  V30 2996 N 292.343 -2.68831 1.10355 0
M  V30 2997 H 291.89 -1.97929 1.64869 0
M  V30 2998 H 291.848 -3.12412 0.353031 0
M  V30 2999 N 295.62 -1.53406 -0.361157 0
M  V30 3000 C 296.845 -1.74024 -1.12829 0
M  V30 3001 C 297.27 -0.470069 -1.82132 0
M  V30 3002 O 296.628 0.57619 -1.719 0
M  V30 3003 C 296.676 -2.90903 -2.13091 0
M  V30 3004 O 295.78 -2.59821 -3.20261 0
M  V30 3005 H 295.121 -0.577804 -0.327168 0
M  V30 3006 H 297.651 -2.00307 -0.41693 0
M  V30 3007 H 297.661 -3.17194 -2.56616 0
M  V30 3008 H 296.336 -3.83034 -1.62042 0
M  V30 3009 H 294.913 -2.44362 -2.81677 0
M  V30 3010 N 297.098 0.621204 -1.44841 0
M  V30 3011 C 298.03 1.74615 -1.48466 0
M  V30 3012 C 299.043 1.58377 -0.37691 0
M  V30 3013 O 300.232 1.66508 -0.643215 0
M  V30 3014 C 297.332 3.12459 -1.31236 0
M  V30 3015 C 296.505 3.55064 -2.55438 0
M  V30 3016 C 295.564 4.71821 -2.32963 0
M  V30 3017 O 294.59 4.79628 -3.06505 0
M  V30 3018 N 295.792 5.64186 -1.36654 0
M  V30 3019 H 298.557 1.71973 -2.45449 0
M  V30 3020 H 296.118 0.806077 -1.40407 0
M  V30 3021 H 298.11 3.88302 -1.14032 0
M  V30 3022 H 296.68 3.09686 -0.4258 0
M  V30 3023 H 295.9 2.69324 -2.87851 0
M  V30 3024 H 297.188 3.80284 -3.38026 0
M  V30 3025 H 296.586 5.6058 -0.759344 0
M  V30 3026 H 295.143 6.39618 -1.25425 0
M  V30 3027 N 298.576 1.31904 0.862503 0
M  V30 3028 C 299.823 1.22017 1.61611 0
M  V30 3029 C 300.151 -0.21991 1.93253 0
M  V30 3030 O 299.406 -1.17076 1.56817 0
M  V30 3031 C 299.705 2.01713 2.95037 0
M  V30 3032 C 299.371 3.51145 2.82857 0
M  V30 3033 C 298.033 3.91889 2.79243 0
M  V30 3034 C 300.385 4.46204 2.69353 0
M  V30 3035 C 297.713 5.25947 2.59993 0
M  V30 3036 C 300.065 5.80397 2.5164 0
M  V30 3037 C 298.729 6.20352 2.46413 0
M  V30 3038 H 297.999 0.44649 0.591378 0
M  V30 3039 H 300.646 1.63248 1.00111 0
M  V30 3040 H 298.951 1.53185 3.60613 0
M  V30 3041 H 300.648 1.91437 3.52353 0
M  V30 3042 H 297.238 3.1878 2.86491 0
M  V30 3043 H 301.422 4.15652 2.71196 0
M  V30 3044 H 296.678 5.5597 2.54376 0
M  V30 3045 H 300.852 6.53676 2.40169 0
M  V30 3046 H 298.479 7.24172 2.31256 0
M  V30 3047 N 300.054 -1.07777 1.14986 0
M  V30 3048 C 301.279 -1.84558 0.946213 0
M  V30 3049 C 301.704 -1.81323 -0.500362 0
M  V30 3050 O 301.062 -1.20301 -1.35637 0
M  V30 3051 C 301.11 -3.29736 1.45968 0
M  V30 3052 O 300.214 -4.07149 0.65601 0
M  V30 3053 H 299.555 -0.571641 0.33782 0
M  V30 3054 H 302.085 -1.35991 1.52865 0
M  V30 3055 H 302.095 -3.80574 1.47063 0
M  V30 3056 H 300.77 -3.31406 2.51283 0
M  V30 3057 H 299.347 -3.65994 0.714322 0
M  V30 3058 N 301.532 -0.945985 -1.26051 0
M  V30 3059 C 302.78 -0.594941 -1.93145 0
M  V30 3060 C 303.101 0.86953 -1.7454 0
M  V30 3061 O 302.371 1.61838 -1.10387 0
M  V30 3062 H 300.951 -0.217044 -0.714773 0
M  V30 3063 H 303.613 -1.20235 -1.53393 0
M  V30 3064 H 302.709 -0.816835 -3.01221 0
M  V30 3065 N 303.011 1.40521 -0.713556 0
M  V30 3066 C 303.961 2.27971 -0.036165 0
M  V30 3067 C 304.945 1.43151 0.734623 0
M  V30 3068 O 306.137 1.66261 0.607158 0
M  V30 3069 C 303.266 3.31661 0.886331 0
M  V30 3070 C 302.352 4.23955 0.110836 0
M  V30 3071 N 302.743 4.97641 -0.904847 0
M  V30 3072 C 301.041 4.44674 0.343692 0
M  V30 3073 C 301.742 5.65322 -1.37064 0
M  V30 3074 N 300.718 5.39162 -0.693168 0
M  V30 3075 H 304.52 2.82384 -0.814645 0
M  V30 3076 H 302.034 1.52948 -0.545963 0
M  V30 3077 H 304.031 3.93154 1.38692 0
M  V30 3078 H 302.691 2.78808 1.66421 0
M  V30 3079 H 303.702 5.01689 -1.28563 0
M  V30 3080 H 300.379 4.02801 1.09805 0
M  V30 3081 H 301.769 6.34359 -2.21447 0
M  V30 3082 N 304.489 0.459591 1.5075 0
M  V30 3083 C 305.419 -0.330644 2.31147 0
M  V30 3084 C 306.4 -1.00087 1.37538 0
M  V30 3085 O 307.585 -1.00025 1.66459 0
M  V30 3086 C 304.715 -1.41958 3.16962 0
M  V30 3087 C 303.669 -0.871608 4.19031 0
M  V30 3088 C 302.995 -2.05797 4.9351 0
M  V30 3089 C 304.295 0.109251 5.22186 0
M  V30 3090 H 305.989 0.340336 2.97459 0
M  V30 3091 H 303.535 0.165119 1.4305 0
M  V30 3092 H 305.488 -1.9798 3.71997 0
M  V30 3093 H 304.212 -2.11917 2.48513 0
M  V30 3094 H 302.871 -0.333442 3.6508 0
M  V30 3095 H 302.519 -2.74427 4.21544 0
M  V30 3096 H 302.219 -1.6976 5.62544 0
M  V30 3097 H 303.743 -2.62331 5.51375 0
M  V30 3098 H 305.157 -0.361405 5.7216 0
M  V30 3099 H 303.554 0.383316 5.98875 0
M  V30 3100 H 304.624 1.03887 4.73641 0
M  V30 3101 N 305.967 -1.56429 0.191757 0
M  V30 3102 C 306.899 -2.16154 -0.762245 0
M  V30 3103 C 307.912 -1.12247 -1.17917 0
M  V30 3104 O 309.101 -1.39353 -1.11548 0
M  V30 3105 C 306.201 -2.70606 -2.04024 0
M  V30 3106 C 305.374 -3.99381 -1.78364 0
M  V30 3107 C 304.433 -4.38692 -2.90578 0
M  V30 3108 O 303.459 -5.06179 -2.6033 0
M  V30 3109 N 304.661 -4.01922 -4.18854 0
M  V30 3110 H 307.426 -2.98643 -0.251526 0
M  V30 3111 H 304.987 -1.61897 0.00967373 0
M  V30 3112 H 306.979 -2.93891 -2.78227 0
M  V30 3113 H 305.549 -1.9259 -2.46227 0
M  V30 3114 H 304.769 -3.84262 -0.879581 0
M  V30 3115 H 306.057 -4.83445 -1.58614 0
M  V30 3116 H 305.455 -3.47631 -4.46283 0
M  V30 3117 H 304.012 -4.30165 -4.89695 0
M  V30 3118 N 307.445 0.0818655 -1.57387 0
M  V30 3119 C 308.393 1.11712 -2.04018 0
M  V30 3120 C 309.387 1.40683 -0.94364 0
M  V30 3121 O 310.593 1.40209 -1.12878 0
M  V30 3122 H 306.968 0.377542 -0.650358 0
M  V30 3123 H 308.939 0.697614 -2.90131 0
M  V30 3124 C 307.688 2.42537 -2.49141 0
M  V30 3125 H 307.011 2.21092 -3.33104 0
M  V30 3126 H 308.451 3.13446 -2.85531 0
M  V30 3127 C 306.91 3.0778 -1.37014 0
M  V30 3128 O 307.44 3.95436 -0.706621 0
M  V30 3129 N 305.646 2.68242 -1.11779 0
M  V30 3130 H 305.193 1.97052 -1.65917 0
M  V30 3131 H 305.151 3.1222 -0.369594 0
M  V30 3132 N 308.923 1.53595 0.353017 0
M  V30 3133 C 310.2 1.61002 1.11075 0
M  V30 3134 C 310.58 0.425356 2.0677 0
M  V30 3135 O 309.928 -0.583267 2.2093 0
M  V30 3136 C 310.138 2.96631 1.83877 0
M  V30 3137 C 311.486 3.51653 2.37961 0
M  V30 3138 O 312.51 2.98743 1.93987 0
M  V30 3139 O 311.369 4.44177 3.18386 0
M  V30 3140 H 308.463 0.650825 0.510251 0
M  V30 3141 H 311.009 1.6594 0.35527 0
M  V30 3142 H 309.781 3.74293 1.14108 0
M  V30 3143 H 309.404 2.95242 2.66304 0
M  V30 3144 N 310.401 -0.613514 1.45168 0
M  V30 3145 C 311.629 -1.39946 1.5239 0
M  V30 3146 C 312.044 -1.88167 0.154531 0
M  V30 3147 O 311.401 -1.61872 -0.842843 0
M  V30 3148 C 311.452 -2.60795 2.50337 0
M  V30 3149 O 311.173 -2.1458 3.81952 0
M  V30 3150 C 312.674 -3.53723 2.67198 0
M  V30 3151 H 309.894 -0.428593 0.516284 0
M  V30 3152 H 312.438 -0.748753 1.903 0
M  V30 3153 H 310.593 -3.21919 2.15515 0
M  V30 3154 H 311.007 -2.93055 4.34993 0
M  V30 3155 H 312.481 -4.35079 3.39721 0
M  V30 3156 H 312.958 -4.0368 1.73029 0
M  V30 3157 H 313.564 -2.98456 3.02992 0
M  V30 3158 N 311.879 -1.3236 -0.855495 0
M  V30 3159 C 312.809 -1.23833 -1.97958 0
M  V30 3160 C 313.79 -0.122361 -1.69659 0
M  V30 3161 O 314.975 -0.30939 -1.9172 0
M  V30 3162 C 312.105 -0.959772 -3.33775 0
M  V30 3163 C 311.059 -2.03689 -3.76424 0
M  V30 3164 C 310.385 -1.61075 -5.09862 0
M  V30 3165 C 311.685 -3.4518 -3.9198 0
M  V30 3166 H 313.379 -2.1788 -2.0535 0
M  V30 3167 H 310.925 -1.04891 -0.986605 0
M  V30 3168 H 312.878 -0.886678 -4.11966 0
M  V30 3169 H 311.602 0.0163404 -3.26596 0
M  V30 3170 H 310.261 -2.10012 -3.00484 0
M  V30 3171 H 309.909 -0.622107 -4.99138 0
M  V30 3172 H 309.609 -2.33143 -5.39368 0
M  V30 3173 H 311.133 -1.55201 -5.90546 0
M  V30 3174 H 312.547 -3.4145 -4.60526 0
M  V30 3175 H 310.944 -4.1559 -4.32903 0
M  V30 3176 H 312.014 -3.84903 -2.94919 0
M  V30 3177 N 313.357 1.07166 -1.15556 0
M  V30 3178 C 314.603 1.80065 -0.932984 0
M  V30 3179 C 314.936 1.86586 0.53845 0
M  V30 3180 O 314.211 1.35098 1.39924 0
M  V30 3181 C 314.494 3.25022 -1.55025 0
M  V30 3182 C 314.347 3.26634 -3.09242 0
M  V30 3183 C 315.666 4.22341 -1.2376 0
M  V30 3184 H 312.785 0.653697 -0.340366 0
M  V30 3185 H 315.427 1.25389 -1.4275 0
M  V30 3186 H 313.577 3.71712 -1.12972 0
M  V30 3187 H 315.249 2.88173 -3.60214 0
M  V30 3188 H 313.492 2.65539 -3.43033 0
M  V30 3189 H 314.163 4.28854 -3.47546 0
M  V30 3190 H 316.639 3.8405 -1.60139 0
M  V30 3191 H 315.515 5.22053 -1.69564 0
M  V30 3192 H 315.776 4.41828 -0.154938 0
M  V30 3193 N 314.835 0.952656 1.25548 0
M  V30 3194 C 315.745 0.47782 2.29682 0
M  V30 3195 C 316.761 -0.453859 1.67977 0
M  V30 3196 O 317.937 -0.330587 1.98668 0
M  V30 3197 C 315.002 -0.238655 3.45878 0
M  V30 3198 C 314.063 0.730994 4.23031 0
M  V30 3199 C 313.296 0.0486165 5.33678 0
M  V30 3200 O 313.519 -1.16612 5.58353 0
M  V30 3201 O 312.453 0.733152 5.97418 0
M  V30 3202 H 316.279 1.34312 2.72386 0
M  V30 3203 H 313.864 0.719026 1.30959 0
M  V30 3204 H 315.746 -0.641774 4.16484 0
M  V30 3205 H 314.421 -1.07916 3.05181 0
M  V30 3206 H 313.328 1.18428 3.5486 0
M  V30 3207 H 314.661 1.53946 4.67506 0
M  V30 3208 N 316.313 -1.40141 0.720998 0
M  V30 3209 C 317.263 -2.27949 0.0482544 0
M  V30 3210 C 318.247 -1.43538 -0.727021 0
M  V30 3211 O 319.439 -1.6658 -0.598332 0
M  V30 3212 C 316.568 -3.32126 -0.868729 0
M  V30 3213 C 315.654 -4.24008 -0.0883515 0
M  V30 3214 N 316.045 -4.97154 0.931226 0
M  V30 3215 C 314.343 -4.4485 -0.320105 0
M  V30 3216 C 315.044 -5.64587 1.4006 0
M  V30 3217 N 314.02 -5.38787 0.721752 0
M  V30 3218 H 317.822 -2.81948 0.829609 0
M  V30 3219 H 315.336 -1.52656 0.554067 0
M  V30 3220 H 317.333 -3.93884 -1.36605 0
M  V30 3221 H 315.993 -2.79687 -1.6494 0
M  V30 3222 H 317.004 -5.01 1.31222 0
M  V30 3223 H 313.681 -4.03378 -1.07668 0
M  V30 3224 H 315.071 -6.33175 2.24808 0
M  V30 3225 N 317.792 -0.46758 -1.50504 0
M  V30 3226 C 318.742 0.34698 -2.25344 0
M  V30 3227 C 319.726 0.964469 -1.2879 0
M  V30 3228 O 320.918 0.8776 -1.53711 0
M  V30 3229 C 318.047 1.43042 -3.1208 0
M  V30 3230 C 317.133 0.82084 -4.16081 0
M  V30 3231 N 317.524 -0.0567602 -5.05768 0
M  V30 3232 C 315.822 1.08517 -4.32597 0
M  V30 3233 C 316.523 -0.402343 -5.80307 0
M  V30 3234 N 315.499 0.221607 -5.43148 0
M  V30 3235 H 319.301 -0.329129 -2.92051 0
M  V30 3236 H 316.815 -0.281508 -1.59942 0
M  V30 3237 H 318.812 2.02712 -3.64299 0
M  V30 3238 H 317.472 2.10856 -2.46921 0
M  V30 3239 H 318.483 -0.425349 -5.1615 0
M  V30 3240 H 315.16 1.75855 -3.78657 0
M  V30 3241 H 316.55 -1.11834 -6.62528 0
M  V30 3242 N 319.27 1.56325 -0.20005 0
M  V30 3243 C 320.18 2.22931 0.730668 0
M  V30 3244 C 321.196 1.22997 1.23076 0
M  V30 3245 O 322.372 1.55748 1.27689 0
M  V30 3246 C 319.437 2.87948 1.93098 0
M  V30 3247 C 318.498 4.03166 1.47497 0
M  V30 3248 C 317.731 4.65073 2.61807 0
M  V30 3249 O 317.954 4.25913 3.79413 0
M  V30 3250 O 316.888 5.54452 2.34237 0
M  V30 3251 H 320.714 3.03084 0.193391 0
M  V30 3252 H 318.299 1.49371 0.0294621 0
M  V30 3253 H 320.181 3.29063 2.6324 0
M  V30 3254 H 318.856 2.10771 2.45677 0
M  V30 3255 H 317.763 3.66664 0.742201 0
M  V30 3256 H 319.096 4.82022 0.995796 0
M  V30 3257 N 320.748 -0.0735177 1.57428 0
M  V30 3258 C 321.68 -1.11423 2.00294 0
M  V30 3259 C 322.693 -1.35084 0.908637 0
M  V30 3260 O 323.882 -1.33355 1.18654 0
M  V30 3261 C 320.982 -2.46548 2.32523 0
M  V30 3262 C 320.155 -2.42867 3.63778 0
M  V30 3263 C 319.214 -3.60087 3.83697 0
M  V30 3264 O 318.24 -3.41595 4.55304 0
M  V30 3265 N 319.442 -4.80372 3.25919 0
M  V30 3266 H 322.207 -0.749206 2.90184 0
M  V30 3267 H 319.768 -0.262195 1.59763 0
M  V30 3268 H 321.76 -3.23607 2.43024 0
M  V30 3269 H 320.33 -2.75059 1.48531 0
M  V30 3270 H 319.55 -1.51206 3.64047 0
M  V30 3271 H 320.838 -2.37506 4.49965 0
M  V30 3272 H 320.236 -4.983 2.67795 0
M  V30 3273 H 318.793 -5.54948 3.41871 0
M  V30 3274 N 322.226 -1.5378 -0.344866 0
M  V30 3275 C 323.454 -1.74899 -1.10534 0
M  V30 3276 C 323.869 -0.487534 -1.82397 0
M  V30 3277 O 323.226 0.540741 -1.74305 0
M  V30 3278 C 323.277 -2.92822 -2.11984 0
M  V30 3279 O 322.998 -4.14089 -1.43044 0
M  V30 3280 C 324.499 -3.25982 -3.00417 0
M  V30 3281 H 321.719 -0.584426 -0.329678 0
M  V30 3282 H 324.263 -2.006 -0.397474 0
M  V30 3283 H 322.418 -2.69457 -2.78338 0
M  V30 3284 H 322.832 -4.80272 -2.10805 0
M  V30 3285 H 324.306 -4.11848 -3.67539 0
M  V30 3286 H 324.783 -2.42228 -3.66363 0
M  V30 3287 H 325.389 -3.51349 -2.39654 0
M  V30 3288 N 323.704 0.605807 -1.45491 0
M  V30 3289 C 324.667 1.69836 -1.5391 0
M  V30 3290 C 325.667 1.55261 -0.418424 0
M  V30 3291 O 326.857 1.60296 -0.681965 0
M  V30 3292 C 323.989 3.09117 -1.43734 0
M  V30 3293 H 325.182 1.63738 -2.51257 0
M  V30 3294 H 322.735 0.821689 -1.32959 0
M  V30 3295 H 323.47 3.20791 -0.475788 0
M  V30 3296 H 323.255 3.21104 -2.25021 0
M  V30 3297 H 324.745 3.88696 -1.52661 0
M  V30 3298 N 325.182 1.32811 0.848464 0
M  V30 3299 C 326.112 1.24882 1.97299 0
M  V30 3300 C 327.093 0.131357 1.69592 0
M  V30 3301 O 328.278 0.319553 1.91553 0
M  V30 3302 C 325.408 0.97746 3.33261 0
M  V30 3303 C 324.362 2.05682 3.75338 0
M  V30 3304 C 323.688 1.63777 5.09 0
M  V30 3305 C 324.988 3.47254 3.90144 0
M  V30 3306 H 326.682 2.18966 2.04191 0
M  V30 3307 H 324.228 1.05413 0.981029 0
M  V30 3308 H 326.181 0.908513 4.1149 0
M  V30 3309 H 324.905 0.000980011 3.266 0
M  V30 3310 H 323.564 2.11603 2.99366 0
M  V30 3311 H 323.212 0.648569 4.98801 0
M  V30 3312 H 322.912 2.36 5.38124 0
M  V30 3313 H 324.436 1.5833 5.89715 0
M  V30 3314 H 325.85 3.43888 4.58709 0
M  V30 3315 H 324.247 4.1788 4.30693 0
M  V30 3316 H 325.317 3.86462 2.92874 0
M  V30 3317 N 326.66 -1.06551 1.16123 0
M  V30 3318 C 328.071 -1.60768 0.949232 0
M  V30 3319 C 328.422 -1.89523 -0.507508 0
M  V30 3320 O 327.547 -1.66671 -1.38021 0
M  V30 3321 C 328.142 -2.92086 1.71671 0
M  V30 3322 C 326.701 -3.43015 1.54977 0
M  V30 3323 C 325.848 -2.16947 1.72711 0
M  V30 3324 H 328.799 -0.895354 1.31031 0
M  V30 3325 H 328.82 -3.6138 1.19099 0
M  V30 3326 H 328.332 -2.71127 2.7769 0
M  V30 3327 H 326.433 -3.69039 0.513873 0
M  V30 3328 H 326.546 -4.18516 2.33198 0
M  V30 3329 H 324.91 -2.27041 1.15431 0
M  V30 3330 H 325.693 -1.98473 2.80113 0
M  V30 3331 N 328.138 -0.959301 -1.25041 0
M  V30 3332 C 329.101 -0.487677 -2.23952 0
M  V30 3333 C 330.101 0.41119 -1.55454 0
M  V30 3334 O 331.291 0.207825 -1.72956 0
M  V30 3335 C 328.423 0.294807 -3.39623 0
M  V30 3336 H 329.616 -1.36198 -2.67189 0
M  V30 3337 H 327.169 -0.743042 -1.37508 0
M  V30 3338 H 327.904 1.18658 -3.01813 0
M  V30 3339 H 327.689 -0.35012 -3.90534 0
M  V30 3340 H 329.179 0.614089 -4.1306 0
M  V30 3341 N 329.616 1.39756 -0.72842 0
M  V30 3342 C 330.548 2.29157 -0.0446202 0
M  V30 3343 C 331.561 1.46484 0.710367 0
M  V30 3344 O 332.75 1.69632 0.55562 0
M  V30 3345 C 329.85 3.24987 0.961071 0
M  V30 3346 C 329.023 4.36572 0.268967 0
M  V30 3347 C 328.082 5.12756 1.18184 0
M  V30 3348 O 327.108 5.6534 0.661794 0
M  V30 3349 N 328.31 5.23331 2.51206 0
M  V30 3350 H 331.075 2.88482 -0.812295 0
M  V30 3351 H 328.636 1.51265 -0.577098 0
M  V30 3352 H 330.628 3.72827 1.57423 0
M  V30 3353 H 329.198 2.66739 1.63 0
M  V30 3354 H 328.418 3.90694 -0.524574 0
M  V30 3355 H 329.706 5.08363 -0.210934 0
M  V30 3356 H 329.104 4.82116 2.9594 0
M  V30 3357 H 327.661 5.74634 3.07634 0
M  V30 3358 N 331.094 0.475555 1.50254 0
M  V30 3359 C 332.004 -0.321501 2.32387 0
M  V30 3360 C 333.02 -0.991755 1.42969 0
M  V30 3361 O 334.196 -0.978747 1.76018 0
M  V30 3362 C 331.261 -1.38667 3.17762 0
M  V30 3363 C 330.322 -0.732538 4.23004 0
M  V30 3364 C 329.555 -1.74695 5.04299 0
M  V30 3365 O 329.778 -2.97399 4.86734 0
M  V30 3366 O 328.712 -1.31631 5.8733 0
M  V30 3367 H 332.538 0.350071 3.01676 0
M  V30 3368 H 330.123 0.237321 1.47503 0
M  V30 3369 H 332.005 -2.00354 3.70724 0
M  V30 3370 H 330.68 -2.04163 2.51196 0
M  V30 3371 H 329.587 -0.0765902 3.74022 0
M  V30 3372 H 330.92 -0.120452 4.92053 0
M  V30 3373 N 332.573 -1.56217 0.208337 0
M  V30 3374 C 333.505 -2.1695 -0.739276 0
M  V30 3375 C 334.518 -1.13492 -1.1672 0
M  V30 3376 O 335.707 -1.40529 -1.10063 0
M  V30 3377 C 332.807 -2.72755 -2.01142 0
M  V30 3378 C 331.98 -4.0125 -1.74118 0
M  V30 3379 C 331.039 -4.41749 -2.85909 0
M  V30 3380 O 330.065 -5.08912 -2.54946 0
M  V30 3381 N 331.267 -4.06342 -4.14568 0
M  V30 3382 H 334.032 -2.98893 -0.219837 0
M  V30 3383 H 331.593 -1.61878 0.0268445 0
M  V30 3384 H 333.585 -2.96826 -2.75094 0
M  V30 3385 H 332.155 -1.95191 -2.4417 0
M  V30 3386 H 331.375 -3.85173 -0.838775 0
M  V30 3387 H 332.663 -4.851 -1.53477 0
M  V30 3388 H 332.061 -3.52345 -4.42571 0
M  V30 3389 H 330.618 -4.35335 -4.85105 0
M  V30 3390 N 334.051 0.0651679 -1.57465 0
M  V30 3391 C 334.981 1.07693 -2.07182 0
M  V30 3392 C 335.962 1.39962 -0.966673 0
M  V30 3393 O 337.147 1.49475 -1.2398 0
M  V30 3394 C 334.277 2.3885 -2.52127 0
M  V30 3395 C 333.231 2.20917 -3.66579 0
M  V30 3396 C 332.557 3.57515 -3.97601 0
M  V30 3397 C 333.857 1.62493 -4.9638 0
M  V30 3398 H 335.551 0.663199 -2.91962 0
M  V30 3399 H 333.097 0.317569 -1.40455 0
M  V30 3400 H 335.05 3.09928 -2.85522 0
M  V30 3401 H 333.774 2.82215 -1.64384 0
M  V30 3402 H 332.433 1.52279 -3.33477 0
M  V30 3403 H 332.081 3.98463 -3.06979 0
M  V30 3404 H 331.781 3.46353 -4.74672 0
M  V30 3405 H 333.305 4.30013 -4.33499 0
M  V30 3406 H 334.719 2.23445 -5.27963 0
M  V30 3407 H 333.116 1.62009 -5.77818 0
M  V30 3408 H 334.186 0.587041 -4.81333 0
M  V30 3409 N 335.529 1.53961 0.336706 0
M  V30 3410 C 336.945 1.44378 0.680241 0
M  V30 3411 C 337.145 0.606034 1.9217 0
M  V30 3412 O 336.201 0.099688 2.52303 0
M  V30 3413 C 337.514 2.87945 0.8665 0
M  V30 3414 C 339.062 2.97763 0.964682 0
M  V30 3415 C 339.537 4.42453 1.18321 0
M  V30 3416 N 341.028 4.46008 1.25025 0
M  V30 3417 C 341.763 5.55102 1.43697 0
M  V30 3418 N 341.259 6.7419 1.59498 0
M  V30 3419 N 343.052 5.42727 1.463 0
M  V30 3420 H 335.203 2.06918 -0.479455 0
M  V30 3421 H 337.466 0.935634 -0.152619 0
M  V30 3422 H 337.172 3.51691 0.0256937 0
M  V30 3423 H 337.046 3.33293 1.76623 0
M  V30 3424 H 339.433 2.34153 1.796 0
M  V30 3425 H 339.514 2.55766 0.041708 0
M  V30 3426 H 339.158 5.06645 0.356788 0
M  V30 3427 H 339.088 4.82048 2.11985 0
M  V30 3428 H 341.579 3.60196 1.14312 0
M  V30 3429 H 341.892 7.53095 1.734 0
M  V30 3430 H 340.237 6.77123 1.56621 0
M  V30 3431 H 343.428 4.48647 1.33543 0
M  V30 3432 H 343.601 6.27806 1.6051 0
M  V30 3433 N 337.007 -0.598083 1.45811 0
M  V30 3434 C 338.418 -1.18011 1.44673 0
M  V30 3435 C 338.769 -1.95378 0.179364 0
M  V30 3436 O 337.894 -2.04124 -0.718509 0
M  V30 3437 C 338.489 -2.14677 2.62105 0
M  V30 3438 C 337.048 -2.68236 2.64057 0
M  V30 3439 C 336.195 -1.43816 2.37091 0
M  V30 3440 H 339.146 -0.38686 1.53913 0
M  V30 3441 H 339.167 -2.97878 2.36746 0
M  V30 3442 H 338.679 -1.5834 3.5433 0
M  V30 3443 H 336.78 -3.28486 1.75864 0
M  V30 3444 H 336.893 -3.12021 3.63566 0
M  V30 3445 H 335.257 -1.731 1.86838 0
M  V30 3446 H 336.04 -0.893333 3.31473 0
M  V30 3447 N 338.485 -1.33259 -0.841409 0
M  V30 3448 C 339.432 -1.23302 -1.95103 0
M  V30 3449 C 340.402 -0.112204 -1.65721 0
M  V30 3450 O 341.587 -0.290038 -1.88583 0
M  V30 3451 C 338.727 -0.975583 -3.31023 0
M  V30 3452 C 337.84 -2.18243 -3.72819 0
M  V30 3453 C 336.975 -1.85936 -4.97595 0
M  V30 3454 C 336.014 -3.02866 -5.3192 0
M  V30 3455 N 335.151 -2.70565 -6.47873 0
M  V30 3456 H 339.991 -2.18207 -2.02952 0
M  V30 3457 H 337.528 -1.0851 -0.993173 0
M  V30 3458 H 339.486 -0.80677 -4.09325 0
M  V30 3459 H 338.116 -0.0632755 -3.22738 0
M  V30 3460 H 337.168 -2.46107 -2.90061 0
M  V30 3461 H 338.48 -3.05666 -3.94169 0
M  V30 3462 H 337.634 -1.65684 -5.83638 0
M  V30 3463 H 336.373 -0.957452 -4.78209 0
M  V30 3464 H 335.378 -3.23736 -4.44382 0
M  V30 3465 H 336.603 -3.93809 -5.53255 0
M  V30 3466 H 334.549 -1.8293 -6.29978 0
M  V30 3467 H 334.466 -3.51519 -6.69306 0
M  V30 3468 H 335.734 -2.53774 -7.37034 0
M  V30 3469 N 339.963 1.05934 -1.16686 0
M  V30 3470 C 341.374 1.60263 -0.957745 0
M  V30 3471 C 341.725 1.89789 0.49745 0
M  V30 3472 O 340.85 1.67401 1.37135 0
M  V30 3473 C 341.445 2.91172 -1.73218 0
M  V30 3474 C 340.004 3.42188 -1.56794 0
M  V30 3475 C 339.151 2.16028 -1.73859 0
M  V30 3476 H 342.102 0.888392 -1.31504 0
M  V30 3477 H 342.123 3.60744 -1.21014 0
M  V30 3478 H 341.635 2.6965 -2.79124 0
M  V30 3479 H 339.736 3.68762 -0.533437 0
M  V30 3480 H 339.849 4.17273 -2.35414 0
M  V30 3481 H 338.213 2.26426 -1.16633 0
M  V30 3482 H 338.996 1.96985 -2.81161 0
M  V30 3483 N 341.441 0.965919 1.2453 0
M  V30 3484 C 342.373 0.452465 2.2469 0
M  V30 3485 C 343.386 -0.437821 1.56802 0
M  V30 3486 O 344.575 -0.244283 1.76821 0
M  V30 3487 C 341.675 -0.366258 3.36915 0
M  V30 3488 C 340.848 0.513701 4.34373 0
M  V30 3489 C 339.907 -0.248716 5.25612 0
M  V30 3490 O 338.933 0.356745 5.68081 0
M  V30 3491 N 340.135 -1.53877 5.59734 0
M  V30 3492 H 342.9 1.31361 2.69378 0
M  V30 3493 H 340.461 0.837541 1.38553 0
M  V30 3494 H 342.453 -0.884297 3.94921 0
M  V30 3495 H 341.023 -1.12832 2.91526 0
M  V30 3496 H 340.243 1.21273 3.75082 0
M  V30 3497 H 341.531 1.11391 4.96457 0
M  V30 3498 H 340.929 -2.05243 5.27154 0
M  V30 3499 H 339.486 -2.00254 6.20275 0
M  V30 3500 N 342.919 -1.39368 0.735821 0
M  V30 3501 C 343.849 -2.33234 0.111506 0
M  V30 3502 C 344.83 -1.53954 -0.723334 0
M  V30 3503 O 346.015 -1.82344 -0.668147 0
M  V30 3504 C 343.145 -3.38057 -0.795917 0
M  V30 3505 C 342.099 -4.2795 -0.065172 0
M  V30 3506 C 341.425 -5.23479 -1.08967 0
M  V30 3507 C 342.725 -5.10741 1.09273 0
M  V30 3508 H 344.419 -2.85692 0.895571 0
M  V30 3509 H 341.965 -1.37364 0.432109 0
M  V30 3510 H 343.918 -4.02675 -1.24221 0
M  V30 3511 H 342.642 -2.8404 -1.61211 0
M  V30 3512 H 341.301 -3.64813 0.361511 0
M  V30 3513 H 340.949 -4.65758 -1.89944 0
M  V30 3514 H 340.649 -5.84472 -0.605489 0
M  V30 3515 H 342.173 -5.90974 -1.53565 0
M  V30 3516 H 343.587 -5.68699 0.724841 0
M  V30 3517 H 341.984 -5.8088 1.50659 0
M  V30 3518 H 343.054 -4.45525 1.91404 0
M  V30 3519 N 344.397 -0.483516 -1.5 0
M  V30 3520 C 345.307 0.309172 -2.32554 0
M  V30 3521 C 346.323 0.984159 -1.43493 0
M  V30 3522 O 347.499 0.969399 -1.76535 0
M  V30 3523 C 344.564 1.36979 -3.18493 0
M  V30 3524 C 343.625 0.710095 -4.23387 0
M  V30 3525 C 342.858 1.72018 -5.05218 0
M  V30 3526 O 343.081 2.94813 -4.88305 0
M  V30 3527 O 342.015 1.28515 -5.8802 0
M  V30 3528 H 345.841 -0.366064 -3.01486 0
M  V30 3529 H 343.426 -0.24514 -1.47375 0
M  V30 3530 H 345.308 1.98385 -3.71781 0
M  V30 3531 H 343.983 2.02828 -2.52275 0
M  V30 3532 H 342.89 0.0567539 -3.74057 0
M  V30 3533 H 344.223 0.0943557 -4.9211 0
M  V30 3534 N 345.875 1.56104 -0.216619 0
M  V30 3535 C 346.807 2.17339 0.72776 0
M  V30 3536 C 347.82 1.14109 1.16116 0
M  V30 3537 O 349.009 1.4111 1.09317 0
M  V30 3538 C 346.109 2.73818 1.99693 0
M  V30 3539 C 345.282 4.02168 1.71988 0
M  V30 3540 C 344.341 4.43259 2.83562 0
M  V30 3541 O 343.367 5.10257 2.52244 0
M  V30 3542 N 344.569 4.08535 4.12407 0
M  V30 3543 H 347.334 2.99005 0.203983 0
M  V30 3544 H 344.895 1.61861 -0.0354289 0
M  V30 3545 H 346.887 2.9828 2.73516 0
M  V30 3546 H 345.457 1.96483 2.43132 0
M  V30 3547 H 344.677 3.85612 0.818337 0
M  V30 3548 H 345.965 4.85907 1.50903 0
M  V30 3549 H 345.363 3.54687 4.40696 0
M  V30 3550 H 343.92 4.37901 4.8279 0
M  V30 3551 N 347.353 -0.0568162 1.57498 0
M  V30 3552 C 348.263 -1.08346 2.08083 0
M  V30 3553 C 349.279 -1.41439 1.01346 0
M  V30 3554 O 350.455 -1.51316 1.32912 0
M  V30 3555 C 347.52 -2.37352 2.52715 0
M  V30 3556 C 346.581 -2.11093 3.73816 0
M  V30 3557 C 345.814 -3.33949 4.1631 0
M  V30 3558 O 346.037 -4.43622 3.58547 0
M  V30 3559 O 344.971 -3.21279 5.08983 0
M  V30 3560 H 348.797 -0.683667 2.95905 0
M  V30 3561 H 346.382 -0.271965 1.46904 0
M  V30 3562 H 348.264 -3.13246 2.81877 0
M  V30 3563 H 346.939 -2.76681 1.68016 0
M  V30 3564 H 345.846 -1.32856 3.49714 0
M  V30 3565 H 347.179 -1.76637 4.59413 0
M  V30 3566 N 348.832 -1.54138 -0.328536 0
M  V30 3567 C 349.78 -1.83894 -1.42428 0
M  V30 3568 C 350.774 -0.710478 -1.53781 0
M  V30 3569 O 351.98 -0.894062 -1.56226 0
M  V30 3570 H 348.355 -0.582837 -0.475189 0
M  V30 3571 H 350.326 -2.75537 -1.14552 0
M  V30 3572 C 349.075 -2.07866 -2.78724 0
M  V30 3573 H 348.398 -2.94158 -2.7076 0
M  V30 3574 H 349.838 -2.32644 -3.54476 0
M  V30 3575 C 348.297 -0.868689 -3.25508 0
M  V30 3576 O 348.827 -0.0754908 -4.01629 0
M  V30 3577 N 347.033 -0.681711 -2.82491 0
M  V30 3578 H 346.58 -1.32838 -2.20708 0
M  V30 3579 H 346.538 0.126374 -3.14146 0
M  V30 3580 N 350.31 0.590341 -1.46126 0
M  V30 3581 C 351.559 1.34499 -1.50309 0
M  V30 3582 C 351.872 1.94977 -0.156021 0
M  V30 3583 O 353.078 2.71395 -0.0756037 0
M  V30 3584 C 351.534 2.43723 -2.64815 0
M  V30 3585 C 351.142 1.89582 -4.0591 0
M  V30 3586 C 352.886 3.20579 -2.78262 0
M  V30 3587 C 350.793 2.9639 -5.11769 0
M  V30 3588 H 349.723 0.505593 -0.559368 0
M  V30 3589 H 352.374 0.630848 -1.72315 0
M  V30 3590 H 350.756 3.17902 -2.36124 0
M  V30 3591 H 351.93 1.21997 -4.44357 0
M  V30 3592 H 350.245 1.25418 -3.97063 0
M  V30 3593 H 352.842 4.00276 -3.54519 0
M  V30 3594 H 353.185 3.72684 -1.85505 0
M  V30 3595 H 353.718 2.53505 -3.06562 0
M  V30 3596 H 350.457 2.49181 -6.06291 0
M  V30 3597 H 349.977 3.62487 -4.77873 0
M  V30 3598 H 351.656 3.60474 -5.37278 0
M  V30 3599 N 351.788 1.33704 0.83433 0
M  V30 3600 C 352.735 1.24335 1.94447 0
M  V30 3601 C 353.705 0.120991 1.65659 0
M  V30 3602 O 354.89 0.300035 1.88426 0
M  V30 3603 C 352.03 0.993124 3.30501 0
M  V30 3604 C 351.143 2.20217 3.71657 0
M  V30 3605 C 350.278 1.88572 4.96602 0
M  V30 3606 C 349.317 3.05683 5.30306 0
M  V30 3607 N 348.454 2.73997 6.46429 0
M  V30 3608 H 353.294 2.1928 2.01792 0
M  V30 3609 H 350.831 1.09035 0.987404 0
M  V30 3610 H 352.789 0.828467 4.08892 0
M  V30 3611 H 351.419 0.0803902 3.227 0
M  V30 3612 H 350.471 2.47642 2.88752 0
M  V30 3613 H 351.783 3.07752 3.92543 0
M  V30 3614 H 350.937 1.68776 5.82752 0
M  V30 3615 H 349.676 0.982799 4.77695 0
M  V30 3616 H 348.681 3.26088 4.42659 0
M  V30 3617 H 349.906 3.96737 5.51159 0
M  V30 3618 H 347.852 1.86268 6.28999 0
M  V30 3619 H 347.769 3.55064 6.67432 0
M  V30 3620 H 349.037 2.57679 7.35678 0
M  V30 3621 N 353.266 -1.05314 1.17247 0
M  V30 3622 C 354.491 -1.82509 0.985148 0
M  V30 3623 C 354.916 -1.82343 -0.461788 0
M  V30 3624 O 354.274 -1.23151 -1.33055 0
M  V30 3625 C 354.322 -3.26566 1.52929 0
M  V30 3626 O 353.426 -4.05666 0.742225 0
M  V30 3627 H 352.767 -0.564347 0.349869 0
M  V30 3628 H 355.297 -1.32718 1.55715 0
M  V30 3629 H 355.307 -3.77369 1.55103 0
M  V30 3630 H 353.982 -3.26001 2.58256 0
M  V30 3631 H 352.559 -3.64397 0.791794 0
M  V30 3632 N 354.744 -0.972509 -1.24016 0
M  V30 3633 C 355.969 -0.654417 -1.96805 0
M  V30 3634 C 356.394 0.770398 -1.716 0
M  V30 3635 O 355.752 1.52361 -0.982647 0
M  V30 3636 C 355.8 -0.941031 -3.48105 0
M  V30 3637 O 354.904 -0.0289472 -4.1239 0
M  V30 3638 H 354.245 -0.24692 -0.616382 0
M  V30 3639 H 356.775 -1.30396 -1.57664 0
M  V30 3640 H 356.785 -0.87452 -3.98517 0
M  V30 3641 H 355.46 -1.97939 -3.65777 0
M  V30 3642 H 354.037 -0.149192 -3.72601 0
M  V30 3643 N 356.222 1.38976 -0.743202 0
M  V30 3644 C 357.447 2.05161 -0.303936 0
M  V30 3645 C 357.872 1.55677 1.05576 0
M  V30 3646 O 357.23 0.704131 1.67068 0
M  V30 3647 C 357.278 3.59138 -0.324373 0
M  V30 3648 O 356.382 4.06668 0.685204 0
M  V30 3649 H 355.723 0.649815 -0.136518 0
M  V30 3650 H 358.253 1.77852 -1.01142 0
M  V30 3651 H 358.263 4.07639 -0.171618 0
M  V30 3652 H 356.938 3.94515 -1.31647 0
M  V30 3653 H 355.515 3.69561 0.497913 0
M  V30 3654 N 357.7 0.491464 1.49741 0
M  V30 3655 C 359.111 0.0413169 1.86654 0
M  V30 3656 C 359.462 -1.36985 1.40462 0
M  V30 3657 O 358.587 -2.01917 0.778354 0
M  V30 3658 C 359.182 0.0682023 3.38731 0
M  V30 3659 C 357.741 -0.32656 3.74981 0
M  V30 3660 C 356.888 0.444888 2.73708 0
M  V30 3661 H 359.839 0.704733 1.42194 0
M  V30 3662 H 359.86 -0.729322 3.73445 0
M  V30 3663 H 359.372 1.09539 3.72321 0
M  V30 3664 H 357.473 -1.35734 3.46997 0
M  V30 3665 H 357.586 -0.013741 4.79098 0
M  V30 3666 H 355.95 -0.104062 2.54487 0
M  V30 3667 H 356.733 1.47197 3.10142 0
M  V30 3668 N 359.178 -1.55987 0.224894 0
M  V30 3669 C 360.589 -1.84553 -0.282345 0
M  V30 3670 C 360.94 -1.14634 -1.59227 0
M  V30 3671 O 360.065 -0.417155 -2.12341 0
M  V30 3672 C 360.66 -3.348 -0.519062 0
M  V30 3673 C 359.219 -3.63671 -0.970604 0
M  V30 3674 C 358.366 -2.77277 -0.0355261 0
M  V30 3675 H 361.317 -1.52245 0.448006 0
M  V30 3676 H 361.338 -3.55187 -1.36463 0
M  V30 3677 H 360.85 -3.8566 0.43449 0
M  V30 3678 H 358.951 -3.1827 -1.9374 0
M  V30 3679 H 359.064 -4.71631 -0.842698 0
M  V30 3680 H 357.428 -2.48846 -0.542927 0
M  V30 3681 H 358.211 -3.30937 0.913003 0
M  V30 3682 N 360.656 0.0484629 -1.57525 0
M  V30 3683 C 361.881 0.759177 -1.93006 0
M  V30 3684 C 362.306 1.69125 -0.823317 0
M  V30 3685 O 361.664 1.79931 0.222364 0
M  V30 3686 C 361.712 1.50899 -3.27509 0
M  V30 3687 O 360.816 2.62112 -3.18388 0
M  V30 3688 H 360.157 0.205564 -0.631379 0
M  V30 3689 H 362.687 0.00972959 -2.04598 0
M  V30 3690 H 362.697 1.88317 -3.6194 0
M  V30 3691 H 361.372 0.825269 -4.0763 0
M  V30 3692 H 359.949 2.27379 -2.95556 0
M  V30 3693 N 362.134 1.5431 0.320358 0
M  V30 3694 C 363.359 1.76954 1.08175 0
M  V30 3695 C 363.784 0.518193 1.80821 0
M  V30 3696 O 363.142 -0.530411 1.73368 0
M  V30 3697 C 363.19 2.96451 2.05303 0
M  V30 3698 O 362.294 2.68221 3.13259 0
M  V30 3699 H 361.635 0.586275 0.311733 0
M  V30 3700 H 364.165 2.01342 0.363676 0
M  V30 3701 H 364.175 3.23887 2.48116 0
M  V30 3702 H 362.85 3.87196 1.51829 0
M  V30 3703 H 361.427 2.51744 2.75099 0
M  V30 3704 N 363.613 -0.582584 1.46437 0
M  V30 3705 C 364.89 -1.34276 1.4223 0
M  V30 3706 C 365.27 -2.10835 0.10583 0
M  V30 3707 O 364.618 -2.09485 -0.912596 0
M  V30 3708 C 364.828 -2.26865 2.65204 0
M  V30 3709 C 366.176 -2.88691 3.11356 0
M  V30 3710 O 367.2 -2.37178 2.65753 0
M  V30 3711 O 366.059 -3.82255 3.90568 0
M  V30 3712 H 363.153 -0.603326 0.565621 0
M  V30 3713 H 365.699 -0.603591 1.58603 0
M  V30 3714 H 364.471 -1.69724 3.52576 0
M  V30 3715 H 364.094 -3.08122 2.5129 0
M  V30 3716 N 365.091 -1.34144 -0.827227 0
M  V30 3717 C 366.338 -1.26258 -1.58319 0
M  V30 3718 C 366.666 0.168595 -1.93768 0
M  V30 3719 O 365.921 1.12877 -1.59866 0
M  V30 3720 C 366.22 -2.09464 -2.89585 0
M  V30 3721 C 365.886 -3.58521 -2.73448 0
M  V30 3722 C 364.548 -3.99155 -2.68754 0
M  V30 3723 C 366.9 -4.53189 -2.57428 0
M  V30 3724 C 364.228 -5.32656 -2.45957 0
M  V30 3725 C 366.58 -5.86864 -2.36163 0
M  V30 3726 C 365.244 -6.26667 -2.29879 0
M  V30 3727 H 364.514 -0.462013 -0.579332 0
M  V30 3728 H 367.161 -1.65845 -0.95748 0
M  V30 3729 H 365.466 -1.62692 -3.56425 0
M  V30 3730 H 367.163 -2.00712 -3.47154 0
M  V30 3731 H 363.753 -3.26264 -2.77939 0
M  V30 3732 H 367.937 -4.22696 -2.60081 0
M  V30 3733 H 363.193 -5.62519 -2.39546 0
M  V30 3734 H 367.367 -6.59813 -2.22754 0
M  V30 3735 H 364.994 -7.30049 -2.11975 0
M  V30 3736 N 366.569 1.04691 -1.17803 0
M  V30 3737 C 367.532 2.10724 -0.901545 0
M  V30 3738 C 368.532 1.6042 0.110437 0
M  V30 3739 O 369.722 1.7377 -0.122303 0
M  V30 3740 C 366.854 3.39084 -0.351409 0
M  V30 3741 H 368.047 2.36686 -1.84174 0
M  V30 3742 H 365.6 1.21015 -0.98919 0
M  V30 3743 H 366.335 3.18782 0.59569 0
M  V30 3744 H 366.12 3.76909 -1.08083 0
M  V30 3745 H 367.61 4.17227 -0.176451 0
M  V30 3746 N 368.047 0.979072 1.23499 0
M  V30 3747 C 368.994 0.517904 2.24914 0
M  V30 3748 C 369.964 -0.442525 1.60097 0
M  V30 3749 O 371.149 -0.350365 1.87556 0
M  V30 3750 C 368.289 -0.174813 3.44657 0
M  V30 3751 C 367.402 0.825721 4.24035 0
M  V30 3752 C 366.537 0.107946 5.3109 0
M  V30 3753 C 365.576 1.09778 6.02175 0
M  V30 3754 N 364.713 0.40925 7.00906 0
M  V30 3755 H 369.553 1.38751 2.63727 0
M  V30 3756 H 367.09 0.695303 1.2963 0
M  V30 3757 H 369.048 -0.593233 4.12961 0
M  V30 3758 H 367.678 -1.0083 3.06648 0
M  V30 3759 H 366.73 1.36253 3.55161 0
M  V30 3760 H 368.042 1.58005 4.73113 0
M  V30 3761 H 367.196 -0.367904 6.05583 0
M  V30 3762 H 365.935 -0.678994 4.8295 0
M  V30 3763 H 364.94 1.5844 5.26476 0
M  V30 3764 H 366.165 1.88536 6.52404 0
M  V30 3765 H 364.111 -0.358506 6.5502 0
M  V30 3766 H 364.028 1.10226 7.47921 0
M  V30 3767 H 365.296 -0.0442557 7.79487 0
M  V30 3768 N 369.525 -1.3858 0.750561 0
M  V30 3769 C 370.435 -2.34278 0.122825 0
M  V30 3770 C 371.451 -1.59116 -0.704131 0
M  V30 3771 O 372.627 -1.91326 -0.628987 0
M  V30 3772 C 369.692 -3.38221 -0.762086 0
M  V30 3773 C 368.753 -4.29227 0.078896 0
M  V30 3774 C 367.986 -5.28205 -0.763874 0
M  V30 3775 O 368.209 -5.34112 -2.00201 0
M  V30 3776 O 367.143 -6.01618 -0.18428 0
M  V30 3777 H 370.969 -2.89649 0.913088 0
M  V30 3778 H 368.554 -1.40374 0.511417 0
M  V30 3779 H 370.436 -4.01872 -1.26793 0
M  V30 3780 H 369.111 -2.85211 -1.5309 0
M  V30 3781 H 368.018 -3.68747 0.630621 0
M  V30 3782 H 369.351 -4.85484 0.810289 0
M  V30 3783 N 371.003 -0.499398 -1.49478 0
M  V30 3784 C 371.913 0.284489 -2.32869 0
M  V30 3785 C 372.929 0.968885 -1.44529 0
M  V30 3786 O 374.105 0.95062 -1.77553 0
M  V30 3787 C 371.17 1.33594 -3.19928 0
M  V30 3788 C 370.231 0.665149 -4.24116 0
M  V30 3789 C 369.464 1.6665 -5.07014 0
M  V30 3790 O 369.687 2.89618 -4.91404 0
M  V30 3791 O 368.621 1.22271 -5.8935 0
M  V30 3792 H 372.447 -0.39802 -3.01081 0
M  V30 3793 H 370.032 -0.260758 -1.47107 0
M  V30 3794 H 371.914 1.94431 -3.73864 0
M  V30 3795 H 370.589 2.0014 -2.54412 0
M  V30 3796 H 369.496 0.0170769 -3.74096 0
M  V30 3797 H 370.829 0.0421555 -4.92182 0
M  V30 3798 N 372.481 1.55866 -0.233164 0
M  V30 3799 C 373.727 1.98897 0.395959 0
M  V30 3800 C 374.06 1.12091 1.58585 0
M  V30 3801 O 373.335 0.181182 1.93654 0
M  V30 3802 C 373.618 3.50658 0.819224 0
M  V30 3803 C 373.471 4.48233 -0.375109 0
M  V30 3804 C 374.79 4.07135 1.67121 0
M  V30 3805 H 371.909 0.723102 0.142451 0
M  V30 3806 H 374.551 1.87082 -0.331725 0
M  V30 3807 H 372.701 3.60857 1.43925 0
M  V30 3808 H 374.373 4.50031 -1.01341 0
M  V30 3809 H 372.616 4.21624 -1.02058 0
M  V30 3810 H 373.287 5.51988 -0.0358328 0
M  V30 3811 H 375.763 3.99952 1.14795 0
M  V30 3812 H 374.639 5.13615 1.93625 0
M  V30 3813 H 374.9 3.54736 2.63846 0
M  V30 3814 N 373.959 -0.0401083 1.57549 0
M  V30 3815 C 375.208 -0.732108 1.87944 0
M  V30 3816 C 375.521 -1.77107 0.830206 0
M  V30 3817 O 376.727 -2.51488 1.02302 0
M  V30 3818 C 375.183 -1.35315 3.33494 0
M  V30 3819 C 374.791 -0.351105 4.46622 0
M  V30 3820 C 376.535 -2.02566 3.73051 0
M  V30 3821 C 374.442 -0.979859 5.83226 0
M  V30 3822 H 373.372 -0.277188 0.701201 0
M  V30 3823 H 376.023 0.0138501 1.83495 0
M  V30 3824 H 374.405 -2.14844 3.32653 0
M  V30 3825 H 375.579 0.416674 4.58912 0
M  V30 3826 H 373.894 0.218708 4.15825 0
M  V30 3827 H 376.491 -2.50441 4.72423 0
M  V30 3828 H 376.834 -2.83904 3.04474 0
M  V30 3829 H 377.367 -1.29827 3.76018 0
M  V30 3830 H 374.106 -0.206135 6.55176 0
M  V30 3831 H 373.626 -1.71774 5.74677 0
M  V30 3832 H 375.305 -1.49046 6.29599 0
M  V30 3833 N 375.437 -1.54477 -0.31217 0
M  V30 3834 C 376.685 -1.72884 -1.04668 0
M  V30 3835 C 377.006 -0.511477 -1.88173 0
M  V30 3836 O 376.276 0.474407 -1.90069 0
M  V30 3837 H 374.856 -0.637461 -0.389425 0
M  V30 3838 H 377.518 -1.91807 -0.345852 0
M  V30 3839 H 376.614 -2.61334 -1.70619 0
M  V30 3840 N 376.915 0.57481 -1.46744 0
M  V30 3841 C 377.848 1.69827 -1.52427 0
M  V30 3842 C 378.826 1.58151 -0.377744 0
M  V30 3843 O 380.01 1.79257 -0.58303 0
M  V30 3844 C 377.137 3.07943 -1.41027 0
M  V30 3845 C 376.183 3.38116 -2.59961 0
M  V30 3846 S 377.016 3.29313 -4.22272 0
M  V30 3847 C 378.172 4.69953 -4.13394 0
M  V30 3848 H 378.405 1.64748 -2.47478 0
M  V30 3849 H 375.938 0.754203 -1.34726 0
M  V30 3850 H 377.896 3.87619 -1.35137 0
M  V30 3851 H 376.557 3.10504 -0.473909 0
M  V30 3852 H 375.75 4.38762 -2.47999 0
M  V30 3853 H 375.352 2.66024 -2.62882 0
M  V30 3854 H 377.644 5.60517 -3.80562 0
M  V30 3855 H 378.587 4.86972 -5.14066 0
M  V30 3856 H 378.995 4.47174 -3.44522 0
M  V30 3857 N 378.394 1.34581 0.820102 0
M  V30 3858 C 379.64 1.27285 1.57881 0
M  V30 3859 C 379.973 -0.156137 1.93571 0
M  V30 3860 O 379.248 -1.10222 1.60254 0
M  V30 3861 C 379.531 2.16639 2.87645 0
M  V30 3862 C 379.384 3.68088 2.58517 0
M  V30 3863 C 380.703 2.05378 3.8924 0
M  V30 3864 H 377.822 0.463714 0.572833 0
M  V30 3865 H 380.464 1.64859 0.944539 0
M  V30 3866 H 378.614 1.84725 3.41773 0
M  V30 3867 H 380.286 4.10382 2.10676 0
M  V30 3868 H 378.529 3.89038 1.91917 0
M  V30 3869 H 379.2 4.2598 3.51063 0
M  V30 3870 H 381.676 2.33404 3.44473 0
M  V30 3871 H 380.552 2.7012 4.77835 0
M  V30 3872 H 380.813 1.0316 4.29896 0
M  V30 3873 N 379.872 -1.04064 1.18357 0
M  V30 3874 C 381.1 -1.80916 1.00384 0
M  V30 3875 C 381.515 -1.83414 -0.447738 0
M  V30 3876 O 380.872 -1.26962 -1.31099 0
M  V30 3877 C 380.923 -3.26516 1.55144 0
M  V30 3878 O 380.644 -3.2424 2.94618 0
M  V30 3879 C 382.145 -4.20013 1.41789 0
M  V30 3880 H 379.365 -0.569728 0.354474 0
M  V30 3881 H 381.909 -1.31151 1.56906 0
M  V30 3882 H 380.064 -3.73512 1.02798 0
M  V30 3883 H 380.478 -4.15452 3.20156 0
M  V30 3884 H 381.952 -5.20111 1.84901 0
M  V30 3885 H 382.429 -4.37667 0.36661 0
M  V30 3886 H 383.035 -3.78881 1.93207 0
M  V30 3887 N 381.35 -0.985608 -1.22978 0
M  V30 3888 C 382.766 -0.695104 -1.43668 0
M  V30 3889 C 382.966 0.736866 -1.87543 0
M  V30 3890 O 382.022 1.50868 -2.02473 0
M  V30 3891 C 383.335 -1.69447 -2.48412 0
M  V30 3892 C 384.883 -1.70909 -2.62219 0
M  V30 3893 C 385.358 -2.6969 -3.70178 0
M  V30 3894 N 386.849 -2.6824 -3.77626 0
M  V30 3895 C 387.584 -3.41339 -4.60733 0
M  V30 3896 N 387.08 -4.24015 -5.4789 0
M  V30 3897 N 388.873 -3.30079 -4.54977 0
M  V30 3898 H 381.024 -1.91054 -0.928016 0
M  V30 3899 H 383.287 -0.823553 -0.469536 0
M  V30 3900 H 382.993 -2.7188 -2.23102 0
M  V30 3901 H 382.867 -1.48147 -3.46889 0
M  V30 3902 H 385.254 -0.691785 -2.86877 0
M  V30 3903 H 385.335 -1.96276 -1.6404 0
M  V30 3904 H 384.979 -3.71566 -3.46268 0
M  V30 3905 H 384.909 -2.41595 -4.67909 0
M  V30 3906 H 387.4 -2.08243 -3.15346 0
M  V30 3907 H 387.713 -4.76636 -6.08308 0
M  V30 3908 H 386.058 -4.28104 -5.47496 0
M  V30 3909 H 389.249 -2.64937 -3.85909 0
M  V30 3910 H 389.422 -3.87308 -5.19516 0
M  V30 3911 N 382.828 1.3818 -0.7579 0
M  V30 3912 C 383.791 2.28764 -0.141286 0
M  V30 3913 C 384.791 1.47388 0.642907 0
M  V30 3914 O 385.981 1.67781 0.468536 0
M  V30 3915 C 383.113 3.31184 0.808069 0
M  V30 3916 H 384.306 2.848 -0.939633 0
M  V30 3917 H 381.859 1.47212 -0.525191 0
M  V30 3918 H 382.594 2.80247 1.63193 0
M  V30 3919 H 382.379 3.91314 0.248104 0
M  V30 3920 H 383.869 3.98909 1.23536 0
M  V30 3921 N 384.306 0.507319 1.49211 0
M  V30 3922 C 385.256 -0.287112 2.26185 0
M  V30 3923 C 386.24 -0.929983 1.31302 0
M  V30 3924 O 387.432 -0.836538 1.55984 0
M  V30 3925 C 384.561 -1.34718 3.15763 0
M  V30 3926 C 383.647 -0.710235 4.18111 0
M  V30 3927 N 384.038 0.190836 5.0544 0
M  V30 3928 C 382.336 -0.97009 4.35322 0
M  V30 3929 C 383.037 0.55606 5.79036 0
M  V30 3930 N 382.013 -0.0775232 5.43545 0
M  V30 3931 H 385.815 0.406445 2.91076 0
M  V30 3932 H 383.329 0.323814 1.59139 0
M  V30 3933 H 385.326 -1.92982 3.69545 0
M  V30 3934 H 383.986 -2.04235 2.52424 0
M  V30 3935 H 384.997 0.562047 5.14841 0
M  V30 3936 H 381.674 -1.65753 3.83187 0
M  V30 3937 H 383.064 1.2936 6.5933 0
M  V30 3938 N 385.784 -1.5574 0.241426 0
M  V30 3939 C 386.731 -2.21149 -0.660432 0
M  V30 3940 C 387.701 -1.17356 -1.17545 0
M  V30 3941 O 388.886 -1.45784 -1.23093 0
M  V30 3942 C 386.026 -2.91059 -1.85414 0
M  V30 3943 C 385.139 -4.09495 -1.37616 0
M  V30 3944 C 384.274 -4.67135 -2.529 0
M  V30 3945 C 383.313 -5.77831 -2.01936 0
M  V30 3946 N 382.45 -6.29677 -3.10566 0
M  V30 3947 H 387.29 -2.97845 -0.095955 0
M  V30 3948 H 384.827 -1.47057 -0.0356024 0
M  V30 3949 H 386.785 -3.29788 -2.5553 0
M  V30 3950 H 385.415 -2.16846 -2.39118 0
M  V30 3951 H 384.467 -3.76117 -0.569235 0
M  V30 3952 H 385.779 -4.89423 -0.962618 0
M  V30 3953 H 384.933 -5.08409 -3.31067 0
M  V30 3954 H 383.672 -3.86411 -2.97553 0
M  V30 3955 H 382.677 -5.36039 -1.22238 0
M  V30 3956 H 383.902 -6.60402 -1.58259 0
M  V30 3957 H 381.848 -5.5186 -3.54664 0
M  V30 3958 H 381.765 -7.04783 -2.73526 0
M  V30 3959 H 383.033 -6.75609 -3.88809 0
M  V30 3960 N 387.262 0.0317525 -1.57568 0
M  V30 3961 C 388.539 0.758366 -1.803 0
M  V30 3962 C 388.919 1.93718 -0.838845 0
M  V30 3963 O 388.267 2.28187 0.119571 0
M  V30 3964 C 388.477 1.19392 -3.27943 0
M  V30 3965 C 389.825 1.61094 -3.92854 0
M  V30 3966 O 390.849 1.28857 -3.32076 0
M  V30 3967 O 389.708 2.20918 -4.99858 0
M  V30 3968 H 386.802 0.366514 -0.741348 0
M  V30 3969 H 389.348 0.00873765 -1.69698 0
M  V30 3970 H 388.12 0.352275 -3.89711 0
M  V30 3971 H 387.743 2.00365 -3.43424 0
M  V30 3972 N 388.74 1.54641 0.303973 0
M  V30 3973 C 389.968 1.77768 1.05858 0
M  V30 3974 C 390.383 0.535722 1.8104 0
M  V30 3975 O 389.74 -0.494337 1.75677 0
M  V30 3976 C 389.791 2.9834 2.04146 0
M  V30 3977 O 389.512 4.17736 1.32015 0
M  V30 3978 C 391.013 3.33832 2.91669 0
M  V30 3979 H 388.233 0.592961 0.314067 0
M  V30 3980 H 390.777 2.01583 0.344149 0
M  V30 3981 H 388.932 2.76742 2.71096 0
M  V30 3982 H 389.346 4.85693 1.97998 0
M  V30 3983 H 390.82 4.21448 3.56491 0
M  V30 3984 H 391.297 2.51857 3.59812 0
M  V30 3985 H 391.903 3.57579 2.30254 0
M  V30 3986 N 390.218 -0.567019 1.47046 0
M  V30 3987 C 391.465 -1.32462 1.53167 0
M  V30 3988 C 391.793 -1.93571 0.189841 0
M  V30 3989 O 391.048 -1.77865 -0.816243 0
M  V30 3990 C 391.347 -2.4623 2.59047 0
M  V30 3991 C 391.013 -2.03014 4.02612 0
M  V30 3992 C 389.675 -1.90944 4.41694 0
M  V30 3993 C 392.027 -1.69895 4.92732 0
M  V30 3994 C 389.355 -1.44035 5.68745 0
M  V30 3995 C 391.707 -1.2446 6.20236 0
M  V30 3996 C 390.371 -1.10979 6.5821 0
M  V30 3997 H 389.641 -0.484713 0.560477 0
M  V30 3998 H 392.288 -0.636888 1.80599 0
M  V30 3999 H 390.593 -3.20517 2.25335 0
M  V30 4000 H 392.29 -3.04427 2.61008 0
M  V30 4001 H 388.88 -2.13348 3.71726 0
M  V30 4002 H 393.064 -1.78098 4.63244 0
M  V30 4003 H 388.32 -1.32254 5.96925 0
M  V30 4004 H 392.494 -0.978924 6.89485 0
M  V30 4005 H 390.121 -0.744078 7.5655 0
M  V30 4006 N 391.696 -1.35014 -0.812953 0
M  V30 4007 C 392.629 -1.21761 -1.93001 0
M  V30 4008 C 393.607 -0.10694 -1.62248 0
M  V30 4009 O 394.791 -0.273891 -1.865 0
M  V30 4010 C 391.918 -0.873404 -3.27245 0
M  V30 4011 C 390.964 -1.99523 -3.76952 0
M  V30 4012 S 391.797 -3.61009 -3.95516 0
M  V30 4013 C 392.953 -3.28651 -5.32672 0
M  V30 4014 H 393.186 -2.16315 -2.03948 0
M  V30 4015 H 390.719 -1.20156 -0.969631 0
M  V30 4016 H 392.677 -0.68161 -4.04802 0
M  V30 4017 H 391.338 0.053971 -3.14054 0
M  V30 4018 H 390.531 -1.70838 -4.74163 0
M  V30 4019 H 390.133 -2.14503 -3.06373 0
M  V30 4020 H 392.425 -2.81085 -6.1644 0
M  V30 4021 H 393.368 -4.25039 -5.66346 0
M  V30 4022 H 393.776 -2.6458 -4.98656 0
M  V30 4023 N 393.175 1.03435 -1.18907 0
M  V30 4024 C 394.405 1.8012 -1.01195 0
M  V30 4025 C 394.813 1.8395 0.442613 0
M  V30 4026 O 394.156 1.27836 1.31923 0
M  V30 4027 C 394.218 3.26792 -1.49823 0
M  V30 4028 C 393.882 3.46609 -2.97844 0
M  V30 4029 C 394.879 3.37278 -3.95651 0
M  V30 4030 C 392.564 3.73001 -3.36416 0
M  V30 4031 C 394.558 3.54054 -5.30023 0
M  V30 4032 C 392.245 3.89423 -4.70949 0
M  V30 4033 C 393.243 3.79951 -5.67562 0
M  V30 4034 O 392.931 3.95895 -6.99659 0
M  V30 4035 H 392.663 0.573865 -0.357289 0
M  V30 4036 H 395.217 1.31207 -1.58031 0
M  V30 4037 H 393.447 3.76703 -0.873578 0
M  V30 4038 H 395.136 3.85055 -1.28404 0
M  V30 4039 H 395.902 3.16846 -3.67197 0
M  V30 4040 H 391.781 3.79469 -2.61772 0
M  V30 4041 H 395.325 3.46577 -6.05417 0
M  V30 4042 H 391.222 4.09351 -4.99101 0
M  V30 4043 H 391.99 4.13019 -7.06653 0
M  V30 4044 N 394.653 0.992116 1.22453 0
M  V30 4045 C 395.601 0.534644 2.26372 0
M  V30 4046 C 396.595 -0.414293 1.64256 0
M  V30 4047 O 397.801 -0.286899 1.77699 0
M  V30 4048 H 394.176 0.154502 0.735957 0
M  V30 4049 H 396.147 1.42256 2.62309 0
M  V30 4050 C 394.896 -0.135815 3.47435 0
M  V30 4051 H 394.219 0.585311 3.95492 0
M  V30 4052 H 395.659 -0.419374 4.21921 0
M  V30 4053 C 394.118 -1.37089 3.07747 0
M  V30 4054 O 394.648 -2.46629 3.17076 0
M  V30 4055 N 392.854 -1.24585 2.62539 0
M  V30 4056 H 392.401 -0.354542 2.55149 0
M  V30 4057 H 392.359 -2.07327 2.36353 0
M  V30 4058 N 396.131 -1.37776 0.765217 0
M  V30 4059 C 397.063 -2.28958 0.105361 0
M  V30 4060 C 398.076 -1.48316 -0.67128 0
M  V30 4061 O 399.265 -1.71046 -0.51045 0
M  V30 4062 C 396.365 -3.27421 -0.874569 0
M  V30 4063 C 395.538 -4.37132 -0.153123 0
M  V30 4064 C 394.597 -5.1571 -1.04547 0
M  V30 4065 O 393.623 -5.66896 -0.511672 0
M  V30 4066 N 394.825 -5.29808 -2.37243 0
M  V30 4067 H 397.59 -2.86227 0.888495 0
M  V30 4068 H 395.151 -1.49682 0.617 0
M  V30 4069 H 397.143 -3.7687 -1.47483 0
M  V30 4070 H 395.713 -2.70967 -1.55871 0
M  V30 4071 H 394.933 -3.89166 0.627975 0
M  V30 4072 H 396.221 -5.07625 0.345643 0
M  V30 4073 H 395.619 -4.89793 -2.83054 0
M  V30 4074 H 394.176 -5.82589 -2.9229 0
M  V30 4075 N 397.609 -0.515225 -1.4894 0
M  V30 4076 C 398.519 0.259774 -2.33157 0
M  V30 4077 C 399.535 0.953501 -1.45548 0
M  V30 4078 O 400.711 0.931735 -1.78552 0
M  V30 4079 C 397.776 1.30193 -3.21326 0
M  V30 4080 C 396.837 0.620129 -4.24797 0
M  V30 4081 C 396.07 1.61263 -5.08753 0
M  V30 4082 O 396.293 2.84389 -4.94448 0
M  V30 4083 O 395.227 1.16013 -5.90614 0
M  V30 4084 H 399.053 -0.429932 -3.00641 0
M  V30 4085 H 396.638 -0.276346 -1.46822 0
M  V30 4086 H 398.52 1.90455 -3.75905 0
M  V30 4087 H 397.195 1.97431 -2.56521 0
M  V30 4088 H 396.102 -0.0226019 -3.74093 0
M  V30 4089 H 397.435 -0.0100493 -4.92199 0
M  V30 4090 N 399.087 1.5561 -0.249682 0
M  V30 4091 C 400.019 2.18834 0.681496 0
M  V30 4092 C 401.032 1.16546 1.1367 0
M  V30 4093 O 402.221 1.43397 1.06299 0
M  V30 4094 C 399.321 2.77992 1.9384 0
M  V30 4095 C 398.494 4.05725 1.63419 0
M  V30 4096 C 397.553 4.49174 2.74096 0
M  V30 4097 O 396.579 5.15492 2.41364 0
M  V30 4098 N 397.781 4.17191 4.03649 0
M  V30 4099 H 400.546 2.9937 0.140514 0
M  V30 4100 H 398.107 1.6175 -0.0697541 0
M  V30 4101 H 400.099 3.04015 2.67127 0
M  V30 4102 H 398.669 2.01596 2.38909 0
M  V30 4103 H 397.889 3.87261 0.736358 0
M  V30 4104 H 399.177 4.88999 1.40562 0
M  V30 4105 H 398.575 3.63955 4.33074 0
M  V30 4106 H 397.132 4.48043 4.73393 0
M  V30 4107 N 400.565 -0.0233959 1.57583 0
M  V30 4108 C 401.497 -1.04994 2.03737 0
M  V30 4109 C 402.51 -1.32125 0.951152 0
M  V30 4110 O 403.699 -1.29512 1.22837 0
M  V30 4111 C 400.799 -2.39026 2.40249 0
M  V30 4112 C 399.972 -2.31171 3.7132 0
M  V30 4113 C 399.031 -3.47698 3.94959 0
M  V30 4114 O 398.057 -3.26937 4.65941 0
M  V30 4115 N 399.259 -4.6976 3.41037 0
M  V30 4116 H 402.024 -0.656507 2.92421 0
M  V30 4117 H 399.585 -0.211235 1.60516 0
M  V30 4118 H 401.577 -3.15712 2.53196 0
M  V30 4119 H 400.147 -2.70194 1.57207 0
M  V30 4120 H 399.367 -1.39547 3.68674 0
M  V30 4121 H 400.655 -2.23071 4.57293 0
M  V30 4122 H 400.053 -4.89528 2.83512 0
M  V30 4123 H 398.61 -5.43791 3.59353 0
M  V30 4124 N 402.043 -1.548 -0.295768 0
M  V30 4125 C 402.953 -1.89177 -1.38742 0
M  V30 4126 C 403.969 -0.786481 -1.55211 0
M  V30 4127 O 405.145 -1.08344 -1.69775 0
M  V30 4128 C 402.21 -2.13663 -2.73036 0
M  V30 4129 C 401.271 -3.37349 -2.65508 0
M  V30 4130 C 400.504 -3.60658 -3.93398 0
M  V30 4131 O 400.727 -2.86882 -4.93006 0
M  V30 4132 O 399.661 -4.54179 -3.94975 0
M  V30 4133 H 403.487 -2.82059 -1.12589 0
M  V30 4134 H 401.072 -1.41056 -0.492295 0
M  V30 4135 H 402.954 -2.3094 -3.52484 0
M  V30 4136 H 401.629 -1.23967 -2.99022 0
M  V30 4137 H 400.536 -3.25431 -1.84514 0
M  V30 4138 H 401.869 -4.27192 -2.44474 0
M  V30 4139 N 403.521 0.559213 -1.47345 0
M  V30 4140 C 404.469 1.68747 -1.60085 0
M  V30 4141 C 405.463 1.628 -0.46825 0
M  V30 4142 O 406.669 1.68009 -0.645977 0
M  V30 4143 H 403.044 0.558329 -0.503759 0
M  V30 4144 H 405.015 1.55138 -2.54902 0
M  V30 4145 C 403.764 3.07103 -1.63042 0
M  V30 4146 H 403.087 3.12361 -2.49541 0
M  V30 4147 H 404.527 3.85743 -1.76006 0
M  V30 4148 C 402.986 3.34935 -0.363357 0
M  V30 4149 O 403.516 3.98102 0.536416 0
M  V30 4150 N 401.722 2.89574 -0.244 0
M  V30 4151 H 401.269 2.38348 -0.977133 0
M  V30 4152 H 401.227 3.08566 0.602836 0
M  V30 4153 N 404.999 1.35443 0.805782 0
M  V30 4154 C 406.224 1.32037 1.59941 0
M  V30 4155 C 406.649 -0.0994215 1.87837 0
M  V30 4156 O 406.007 -1.06648 1.46615 0
M  V30 4157 C 406.055 2.13354 2.90711 0
M  V30 4158 O 405.159 1.5148 3.83572 0
M  V30 4159 H 404.5 0.452666 0.485787 0
M  V30 4160 H 407.03 1.78496 1.00002 0
M  V30 4161 H 407.04 2.25338 3.40128 0
M  V30 4162 H 405.715 3.16572 2.69732 0
M  V30 4163 H 404.292 1.4834 3.42125 0
M  V30 4164 N 406.477 -1.02803 1.19454 0
M  V30 4165 C 407.44 -2.09264 0.934955 0
M  V30 4166 C 408.44 -1.60576 -0.0849015 0
M  V30 4167 O 409.63 -1.73554 0.149933 0
M  V30 4168 C 406.762 -3.38482 0.40531 0
M  V30 4169 H 407.955 -2.33726 1.87916 0
M  V30 4170 H 405.508 -1.19426 1.00832 0
M  V30 4171 H 406.243 -3.19689 -0.544899 0
M  V30 4172 H 406.028 -3.75142 1.14065 0
M  V30 4173 H 407.518 -4.16894 0.242806 0
M  V30 4174 N 407.956 -0.998596 -1.21925 0
M  V30 4175 C 408.866 -0.562736 -2.27751 0
M  V30 4176 C 409.882 0.391203 -1.69545 0
M  V30 4177 O 411.058 0.256625 -1.99758 0
M  V30 4178 C 408.123 0.11012 -3.46525 0
M  V30 4179 C 407.184 -0.887495 -4.20026 0
M  V30 4180 C 406.417 -0.246654 -5.3313 0
M  V30 4181 O 406.64 0.958088 -5.62296 0
M  V30 4182 O 405.574 -0.954374 -5.94286 0
M  V30 4183 H 409.4 -1.44329 -2.67213 0
M  V30 4184 H 406.985 -0.767135 -1.28201 0
M  V30 4185 H 408.867 0.486756 -4.18579 0
M  V30 4186 H 407.542 0.965154 -3.08976 0
M  V30 4187 H 406.449 -1.31517 -3.5022 0
M  V30 4188 H 407.782 -1.71191 -4.6147 0
M  V30 4189 N 409.434 1.37368 -0.772513 0
M  V30 4190 C 410.659 2.0447 -0.347386 0
M  V30 4191 C 411.084 1.57882 1.0225 0
M  V30 4192 O 410.442 0.73941 1.65537 0
M  V30 4193 C 410.49 3.58369 -0.400479 0
M  V30 4194 O 409.594 4.0803 0.598789 0
M  V30 4195 H 408.935 0.646773 -0.15027 0
M  V30 4196 H 411.465 1.75667 -1.04892 0
M  V30 4197 H 411.475 4.07183 -0.258045 0
M  V30 4198 H 410.15 3.91633 -1.39986 0
M  V30 4199 H 408.727 3.70534 0.419411 0
M  V30 4200 N 410.912 0.523116 1.48665 0
M  V30 4201 C 411.845 -0.290518 2.26343 0
M  V30 4202 C 412.823 -0.950913 1.31895 0
M  V30 4203 O 414.007 -0.976662 1.61225 0
M  V30 4204 C 411.134 -1.41088 3.07915 0
M  V30 4205 C 410.18 -0.862597 4.17686 0
M  V30 4206 S 411.013 0.264135 5.34848 0
M  V30 4207 C 412.169 -0.858864 6.19979 0
M  V30 4208 H 412.402 0.368726 2.95005 0
M  V30 4209 H 409.935 0.30878 1.51281 0
M  V30 4210 H 411.893 -2.0527 3.55492 0
M  V30 4211 H 410.554 -2.04182 2.38681 0
M  V30 4212 H 409.747 -1.70287 4.74361 0
M  V30 4213 H 409.349 -0.297595 3.72814 0
M  V30 4214 H 411.641 -1.7591 6.54264 0
M  V30 4215 H 412.584 -0.330244 7.07329 0
M  V30 4216 H 412.992 -1.13617 5.52948 0
M  V30 4217 N 412.39 -1.55475 0.257931 0
M  V30 4218 C 413.322 -2.19192 -0.669881 0
M  V30 4219 C 414.335 -1.17148 -1.1305 0
M  V30 4220 O 415.524 -1.43959 -1.05537 0
M  V30 4221 C 412.624 -2.79016 -1.92363 0
M  V30 4222 C 411.797 -4.06586 -1.61265 0
M  V30 4223 C 410.856 -4.50622 -2.7171 0
M  V30 4224 O 409.882 -5.16765 -2.38627 0
M  V30 4225 N 411.084 -4.19325 -4.01431 0
M  V30 4226 H 413.849 -2.99441 -0.124635 0
M  V30 4227 H 411.41 -1.6171 0.0783311 0
M  V30 4228 H 413.402 -3.05427 -2.65511 0
M  V30 4229 H 411.972 -2.0286 -2.37837 0
M  V30 4230 H 411.192 -3.87646 -0.715811 0
M  V30 4231 H 412.48 -4.89737 -1.37967 0
M  V30 4232 H 411.878 -3.66247 -4.31138 0
M  V30 4233 H 410.435 -4.50547 -4.7101 0
M  V30 4234 N 413.868 0.0150385 -1.57593 0
M  V30 4235 C 415.279 0.559832 -1.78109 0
M  V30 4236 C 415.63 1.74814 -0.890756 0
M  V30 4237 O 414.755 2.16216 -0.0892482 0
M  V30 4238 C 415.35 1.02238 -3.23006 0
M  V30 4239 C 413.909 1.51258 -3.44671 0
M  V30 4240 C 413.056 0.456955 -2.73509 0
M  V30 4241 H 416.007 -0.211169 -1.57289 0
M  V30 4242 H 416.028 1.88912 -3.30292 0
M  V30 4243 H 415.54 0.157302 -3.87781 0
M  V30 4244 H 413.641 2.39905 -2.8509 0
M  V30 4245 H 413.754 1.55042 -4.5332 0
M  V30 4246 H 412.118 0.915196 -2.37689 0
M  V30 4247 H 412.901 -0.398896 -3.40975 0
M  V30 4248 N 415.346 1.54954 0.287554 0
M  V30 4249 C 416.278 1.83224 1.37701 0
M  V30 4250 C 417.291 0.715898 1.46215 0
M  V30 4251 O 418.48 0.993565 1.48292 0
M  V30 4252 C 415.58 1.96723 2.75959 0
M  V30 4253 C 414.753 3.27253 2.90215 0
M  V30 4254 C 413.812 3.30998 4.09056 0
M  V30 4255 O 412.838 4.04457 4.00503 0
M  V30 4256 N 414.04 2.57353 5.20336 0
M  V30 4257 H 416.805 2.77254 1.138 0
M  V30 4258 H 414.366 1.54694 0.477652 0
M  V30 4259 H 416.358 1.96615 3.5373 0
M  V30 4260 H 414.928 1.09626 2.92747 0
M  V30 4261 H 414.148 3.40022 1.99447 0
M  V30 4262 H 415.436 4.13365 2.96659 0
M  V30 4263 H 414.834 1.97327 5.30169 0
M  V30 4264 H 413.391 2.62984 5.96391 0
M  V30 4265 N 416.824 -0.551391 1.4764 0
M  V30 4266 C 418.24 -0.877887 1.33287 0
M  V30 4267 C 418.44 -1.98817 0.327721 0
M  V30 4268 O 417.496 -2.51171 -0.258695 0
M  V30 4269 C 418.809 -1.26563 2.72768 0
M  V30 4270 C 420.357 -1.37673 2.81097 0
M  V30 4271 C 420.832 -1.79799 4.21232 0
M  V30 4272 N 422.323 -1.8694 4.23802 0
M  V30 4273 C 423.058 -2.20876 5.29151 0
M  V30 4274 N 422.554 -2.53386 6.448 0
M  V30 4275 N 424.347 -2.217 5.16532 0
M  V30 4276 H 416.498 0.18153 2.11623 0
M  V30 4277 H 418.761 0.0185514 0.947818 0
M  V30 4278 H 418.467 -0.523591 3.47781 0
M  V30 4279 H 418.341 -2.22052 3.04915 0
M  V30 4280 H 420.728 -2.10956 2.06353 0
M  V30 4281 H 420.809 -0.40357 2.52596 0
M  V30 4282 H 420.453 -1.07083 4.96483 0
M  V30 4283 H 420.383 -2.78128 4.4716 0
M  V30 4284 H 422.874 -1.64179 3.40373 0
M  V30 4285 H 423.187 -2.78325 7.20941 0
M  V30 4286 H 421.532 -2.50953 6.48111 0
M  V30 4287 H 424.723 -1.95745 4.25207 0
M  V30 4288 H 424.896 -2.47818 5.98741 0
M  V30 4289 N 418.302 -1.35869 -0.798587 0
M  V30 4290 C 419.55 -1.29332 -1.55298 0
M  V30 4291 C 419.871 0.129729 -1.94568 0
M  V30 4292 O 419.141 1.06796 -1.6423 0
M  V30 4293 H 417.721 -0.475737 -0.57592 0
M  V30 4294 H 420.383 -1.70062 -0.952093 0
M  V30 4295 H 419.479 -1.91458 -2.46476 0
M  V30 4296 N 419.78 1.02168 -1.19998 0
M  V30 4297 C 420.69 2.14069 -0.959774 0
M  V30 4298 C 421.706 1.73804 0.082655 0
M  V30 4299 O 422.882 2.01133 -0.103633 0
M  V30 4300 C 419.947 3.42936 -0.509459 0
M  V30 4301 C 419.008 3.97474 -1.62213 0
M  V30 4302 C 418.241 5.2019 -1.19321 0
M  V30 4303 O 418.464 5.70369 -0.0597726 0
M  V30 4304 O 417.398 5.67749 -1.99863 0
M  V30 4305 H 421.224 2.37199 -1.89658 0
M  V30 4306 H 418.809 1.12469 -0.983411 0
M  V30 4307 H 420.691 4.20551 -0.267322 0
M  V30 4308 H 419.366 3.21234 0.398821 0
M  V30 4309 H 418.273 3.21161 -1.9185 0
M  V30 4310 H 419.606 4.23555 -2.50723 0
M  V30 4311 N 421.258 1.00505 1.21394 0
M  V30 4312 C 422.674 0.717873 1.42544 0
M  V30 4313 C 422.874 -0.706936 1.88692 0
M  V30 4314 O 421.93 -1.47627 2.04847 0
M  V30 4315 C 423.243 1.73377 2.45684 0
M  V30 4316 C 424.791 1.75059 2.59467 0
M  V30 4317 C 425.266 2.75545 3.6584 0
M  V30 4318 N 426.757 2.74213 3.73311 0
M  V30 4319 C 427.492 3.48626 4.55245 0
M  V30 4320 N 426.988 4.32678 5.41075 0
M  V30 4321 N 428.781 3.37276 4.49668 0
M  V30 4322 H 420.932 1.92506 0.897503 0
M  V30 4323 H 423.195 0.830919 0.456375 0
M  V30 4324 H 422.901 2.75395 2.18748 0
M  V30 4325 H 422.775 1.53647 3.44489 0
M  V30 4326 H 425.162 0.737337 2.8574 0
M  V30 4327 H 425.243 1.98861 1.60897 0
M  V30 4328 H 424.887 3.77028 3.40313 0
M  V30 4329 H 424.817 2.49009 4.64007 0
M  V30 4330 H 427.308 2.13234 3.11993 0
M  V30 4331 H 427.621 4.86253 6.00648 0
M  V30 4332 H 425.966 4.3676 5.40616 0
M  V30 4333 H 429.157 2.71043 3.81646 0
M  V30 4334 H 429.33 3.95524 5.13288 0
M  V30 4335 N 422.737 -1.36956 0.779787 0
M  V30 4336 C 423.986 -1.98738 0.344405 0
M  V30 4337 C 424.299 -1.62596 -1.08728 0
M  V30 4338 O 425.505 -2.1754 -1.62445 0
M  V30 4339 C 423.961 -3.5544 0.564829 0
M  V30 4340 C 423.569 -4.00514 2.0073 0
M  V30 4341 C 425.313 -4.24059 0.193471 0
M  V30 4342 C 423.22 -5.49957 2.17489 0
M  V30 4343 H 422.15 -0.743561 0.12503 0
M  V30 4344 H 424.801 -1.56381 0.960057 0
M  V30 4345 H 423.183 -3.95817 -0.120397 0
M  V30 4346 H 424.357 -3.71362 2.72814 0
M  V30 4347 H 422.672 -3.44703 2.336 0
M  V30 4348 H 425.269 -5.33874 0.297097 0
M  V30 4349 H 425.612 -4.07378 -0.857263 0
M  V30 4350 H 426.145 -3.89012 0.831556 0
M  V30 4351 H 422.884 -5.71574 3.2091 0
M  V30 4352 H 422.404 -5.80767 1.49899 0
M  V30 4353 H 424.083 -6.16043 1.97738 0
M  V30 4354 N 424.215 -0.530993 -1.48385 0
M  V30 4355 C 425.626 -0.0907905 -1.86479 0
M  V30 4356 C 425.977 1.33213 -1.44044 0
M  V30 4357 O 425.102 1.99783 -0.831615 0
M  V30 4358 C 425.697 -0.157987 -3.38431 0
M  V30 4359 C 424.256 0.227026 -3.75715 0
M  V30 4360 C 423.403 -0.5173 -2.72432 0
M  V30 4361 H 426.354 -0.742186 -1.40276 0
M  V30 4362 H 426.375 0.630053 -3.75247 0
M  V30 4363 H 425.887 -1.19372 -3.69286 0
M  V30 4364 H 423.988 1.26486 -3.50474 0
M  V30 4365 H 424.101 -0.113288 -4.78966 0
M  V30 4366 H 422.465 0.0365527 -2.54674 0
M  V30 4367 H 423.248 -1.55368 -3.0613 0
M  V30 4368 N 425.693 1.55336 -0.266172 0
M  V30 4369 C 426.64 2.22172 0.625165 0
M  V30 4370 C 427.61 1.19211 1.15663 0
M  V30 4371 O 428.795 1.47723 1.20758 0
M  V30 4372 C 425.935 2.93972 1.8076 0
M  V30 4373 C 425.048 4.11632 1.31084 0
M  V30 4374 C 424.183 4.71099 2.45436 0
M  V30 4375 C 423.222 5.8097 1.92718 0
M  V30 4376 N 422.359 6.34538 3.00509 0
M  V30 4377 H 427.199 2.9796 0.0485582 0
M  V30 4378 H 424.736 1.47095 0.0122024 0
M  V30 4379 H 426.694 3.33811 2.50251 0
M  V30 4380 H 425.324 2.20623 2.35638 0
M  V30 4381 H 424.376 3.76975 0.509326 0
M  V30 4382 H 425.688 4.90893 0.884633 0
M  V30 4383 H 424.842 5.13612 3.22936 0
M  V30 4384 H 423.581 3.91096 2.91368 0
M  V30 4385 H 422.586 5.37916 1.13695 0
M  V30 4386 H 423.811 6.62836 1.47733 0
M  V30 4387 H 421.757 5.57433 3.45839 0
M  V30 4388 H 421.674 7.09046 2.62279 0
M  V30 4389 H 422.942 6.81709 3.78011 0
M  V30 4390 N 427.171 -0.0066808 1.57599 0
M  V30 4391 C 428.119 -1.01851 2.09115 0
M  V30 4392 C 429.113 -1.36021 1.00969 0
M  V30 4393 O 430.319 -1.34663 1.19439 0
M  V30 4394 H 426.694 -0.346083 0.667631 0
M  V30 4395 H 428.665 -0.558394 2.93129 0
M  V30 4396 C 427.414 -2.30374 2.60429 0
M  V30 4397 H 426.737 -2.04947 3.43273 0
M  V30 4398 H 428.177 -2.99466 3.00161 0
M  V30 4399 C 426.636 -3.00893 1.51542 0
M  V30 4400 O 427.166 -3.91614 0.894484 0
M  V30 4401 N 425.372 -2.62603 1.2445 0
M  V30 4402 H 424.919 -1.88911 1.75129 0
M  V30 4403 H 424.877 -3.10101 0.518137 0
M  V30 4404 N 428.649 -1.55105 -0.279332 0
M  V30 4405 C 429.582 -1.82467 -1.37044 0
M  V30 4406 C 430.56 -0.677261 -1.47824 0
M  V30 4407 O 431.744 -0.919578 -1.64548 0
M  V30 4408 C 428.871 -1.98066 -2.7475 0
M  V30 4409 C 427.917 -3.20594 -2.81286 0
M  V30 4410 S 428.75 -4.78116 -2.41175 0
M  V30 4411 C 429.906 -4.9668 -3.80867 0
M  V30 4412 H 430.139 -2.74728 -1.1363 0
M  V30 4413 H 427.672 -1.46794 -0.478625 0
M  V30 4414 H 429.63 -2.07739 -3.54055 0
M  V30 4415 H 428.291 -1.06704 -2.9542 0
M  V30 4416 H 427.484 -3.28376 -3.82341 0
M  V30 4417 H 427.086 -3.09479 -2.09996 0
M  V30 4418 H 429.378 -4.82033 -4.76078 0
M  V30 4419 H 430.321 -5.98741 -3.78041 0
M  V30 4420 H 430.729 -4.24698 -3.71876 0
M  V30 4421 N 430.127 0.543554 -1.4793 0
M  V30 4422 C 431.037 1.67657 -1.64098 0
M  V30 4423 C 432.053 1.65934 -0.523622 0
M  V30 4424 O 433.229 1.85133 -0.792943 0
M  V30 4425 C 430.294 3.04146 -1.66421 0
M  V30 4426 C 429.355 3.16831 -2.89684 0
M  V30 4427 C 428.588 4.46809 -2.91886 0
M  V30 4428 O 428.811 5.33095 -2.02895 0
M  V30 4429 O 427.745 4.63573 -3.83906 0
M  V30 4430 H 431.571 1.56957 -2.59997 0
M  V30 4431 H 429.156 0.715116 -1.31173 0
M  V30 4432 H 431.038 3.85346 -1.70548 0
M  V30 4433 H 429.713 3.152 -0.736923 0
M  V30 4434 H 428.62 2.34977 -2.91095 0
M  V30 4435 H 429.953 3.10687 -3.81752 0
M  V30 4436 N 431.605 1.3629 0.791371 0
M  V30 4437 C 432.537 1.26321 1.91248 0
M  V30 4438 C 433.55 0.18313 1.61767 0
M  V30 4439 O 434.739 0.437682 1.73051 0
M  V30 4440 C 431.839 0.925901 3.26007 0
M  V30 4441 C 431.012 2.10746 3.83281 0
M  V30 4442 C 430.071 1.74352 4.96475 0
M  V30 4443 O 429.097 2.46416 5.13096 0
M  V30 4444 N 430.299 0.676058 5.7655 0
M  V30 4445 H 433.064 2.22915 2.00323 0
M  V30 4446 H 430.625 1.29659 0.969546 0
M  V30 4447 H 432.617 0.663636 3.99222 0
M  V30 4448 H 431.187 0.0491581 3.12561 0
M  V30 4449 H 430.407 2.53264 3.02077 0
M  V30 4450 H 431.695 2.8969 4.18279 0
M  V30 4451 H 431.093 0.0776467 5.65647 0
M  V30 4452 H 429.65 0.473612 6.50077 0
M  V30 4453 N 433.083 -1.0153 1.20538 0
M  V30 4454 C 434.313 -1.78487 1.04048 0
M  V30 4455 C 434.721 -1.84631 -0.413292 0
M  V30 4456 O 434.064 -1.29919 -1.29872 0
M  V30 4457 C 434.126 -3.24367 1.55003 0
M  V30 4458 C 433.79 -3.41827 3.0332 0
M  V30 4459 C 434.787 -3.30941 4.00966 0
M  V30 4460 C 432.472 -3.67602 3.42307 0
M  V30 4461 C 434.466 -3.45577 5.35589 0
M  V30 4462 C 432.153 -3.81881 4.77085 0
M  V30 4463 C 433.151 -3.70874 5.73534 0
M  V30 4464 O 432.839 -3.84714 7.05868 0
M  V30 4465 H 432.571 -0.568108 0.366373 0
M  V30 4466 H 435.125 -1.28677 1.60098 0
M  V30 4467 H 433.355 -3.75266 0.933397 0
M  V30 4468 H 435.044 -3.82963 1.34514 0
M  V30 4469 H 435.81 -3.10964 3.72191 0
M  V30 4470 H 431.689 -3.75256 2.67776 0
M  V30 4471 H 435.233 -3.36902 6.10854 0
M  V30 4472 H 431.13 -4.01359 5.0555 0
M  V30 4473 H 431.898 -4.01724 7.13134 0
M  V30 4474 N 434.561 -1.01147 -1.20859 0
M  V30 4475 C 435.509 -0.57059 -2.25493 0
M  V30 4476 C 436.503 0.388109 -1.64894 0
M  V30 4477 O 437.709 0.258592 -1.78133 0
M  V30 4478 H 434.084 -0.166191 -0.733406 0
M  V30 4479 H 436.055 -1.46411 -2.60012 0
M  V30 4480 C 434.804 0.0805241 -3.47607 0
M  V30 4481 H 434.127 -0.648156 -3.94511 0
M  V30 4482 H 435.567 0.352197 -4.22535 0
M  V30 4483 C 434.026 1.32175 -3.09889 0
M  V30 4484 O 434.556 2.41553 -3.20959 0
M  V30 4485 N 432.762 1.20392 -2.64488 0
M  V30 4486 H 432.309 0.313905 -2.5568 0
M  V30 4487 H 432.267 2.03541 -2.39621 0
M  V30 4488 N 436.039 1.36541 -0.78704 0
M  V30 4489 C 436.969 2.32659 -0.197992 0
M  V30 4490 C 437.95 1.56533 0.665697 0
M  V30 4491 O 439.135 1.84698 0.60001 0
M  V30 4492 C 436.265 3.40778 0.669901 0
M  V30 4493 C 435.219 4.27897 -0.0937039 0
M  V30 4494 C 434.545 5.27163 0.894629 0
M  V30 4495 C 435.845 5.06334 -1.28154 0
M  V30 4496 H 437.539 2.82171 -1.00099 0
M  V30 4497 H 435.085 1.35665 -0.482793 0
M  V30 4498 H 437.038 4.07008 1.09191 0
M  V30 4499 H 435.762 2.89827 1.50558 0
M  V30 4500 H 434.421 3.6322 -0.49666 0
M  V30 4501 H 434.069 4.72486 1.72527 0
M  V30 4502 H 433.769 5.86317 0.388149 0
M  V30 4503 H 435.293 5.96266 1.31525 0
M  V30 4504 H 436.707 5.65617 -0.93541 0
M  V30 4505 H 435.104 5.74888 -1.72115 0
M  V30 4506 H 436.174 4.38114 -2.07807 0
M  V30 4507 N 437.518 0.538854 1.48102 0
M  V30 4508 C 438.466 -0.232325 2.31437 0
M  V30 4509 C 439.46 -0.927004 1.41785 0
M  V30 4510 O 440.666 -0.850378 1.58646 0
M  V30 4511 H 437.041 -0.0937916 0.746128 0
M  V30 4512 H 439.012 0.489986 2.9435 0
M  V30 4513 C 437.761 -1.26074 3.24038 0
M  V30 4514 H 437.084 -0.735609 3.92974 0
M  V30 4515 H 438.524 -1.77157 3.85216 0
M  V30 4516 C 436.983 -2.29902 2.46265 0
M  V30 4517 O 437.513 -3.36502 2.19384 0
M  V30 4518 N 435.719 -2.03348 2.07601 0
M  V30 4519 H 435.266 -1.16675 2.29662 0
M  V30 4520 H 435.224 -2.73038 1.55877 0
M  V30 4521 N 438.996 -1.55193 0.274407 0
M  V30 4522 C 439.946 -2.19184 -0.627882 0
M  V30 4523 C 440.93 -1.15625 -1.11892 0
M  V30 4524 O 442.122 -1.41441 -1.06411 0
M  V30 4525 C 439.251 -2.91591 -1.81189 0
M  V30 4526 C 438.337 -4.02438 -1.33807 0
M  V30 4527 N 438.728 -5.0246 -0.580349 0
M  V30 4528 C 437.026 -4.15496 -1.62109 0
M  V30 4529 C 437.727 -5.80756 -0.331344 0
M  V30 4530 N 436.703 -5.36038 -0.903556 0
M  V30 4531 H 440.505 -2.93871 -0.0411216 0
M  V30 4532 H 438.019 -1.62213 0.0779348 0
M  V30 4533 H 440.016 -3.35883 -2.46957 0
M  V30 4534 H 438.676 -2.18414 -2.40261 0
M  V30 4535 H 439.687 -5.17399 -0.227762 0
M  V30 4536 H 436.364 -3.53509 -2.22121 0
M  V30 4537 H 437.754 -6.71335 0.275454 0
M  V30 4538 N 440.474 -0.00167713 -1.576 0
M  V30 4539 C 441.751 0.719951 -1.81868 0
M  V30 4540 C 442.131 1.91895 -0.879747 0
M  V30 4541 O 441.479 2.28389 0.0711423 0
M  V30 4542 C 441.689 1.12409 -3.30402 0
M  V30 4543 C 443.037 1.52724 -3.96182 0
M  V30 4544 O 444.061 1.21784 -3.34734 0
M  V30 4545 O 442.92 2.10265 -5.04431 0
M  V30 4546 H 440.014 0.350707 -0.748955 0
M  V30 4547 H 442.56 -0.0272597 -1.69678 0
M  V30 4548 H 441.332 0.269532 -3.90371 0
M  V30 4549 H 440.955 1.93035 -3.47596 0
M  V30 4550 N 441.952 1.55251 0.271103 0
M  V30 4551 C 442.902 1.84649 1.33749 0
M  V30 4552 C 443.886 0.705529 1.44607 0
M  V30 4553 O 445.078 0.966916 1.48256 0
M  V30 4554 C 442.207 2.12354 2.69742 0
M  V30 4555 C 441.293 3.32714 2.62988 0
M  V30 4556 N 441.684 4.52575 2.25853 0
M  V30 4557 C 439.982 3.35341 2.94045 0
M  V30 4558 C 440.683 5.34669 2.29136 0
M  V30 4559 N 439.659 4.73123 2.67685 0
M  V30 4560 H 443.461 2.74865 1.0405 0
M  V30 4561 H 440.975 1.55152 0.479738 0
M  V30 4562 H 442.972 2.31572 3.4667 0
M  V30 4563 H 441.632 1.23422 3.00328 0
M  V30 4564 H 442.643 4.78639 1.978 0
M  V30 4565 H 439.32 2.56608 3.2933 0
M  V30 4566 H 440.71 6.40509 2.02971 0
M  V30 4567 N 443.43 -0.535701 1.48216 0
M  V30 4568 C 444.67 -1.30238 1.57536 0
M  V30 4569 C 445.034 -1.90479 0.241229 0
M  V30 4570 O 446.235 -2.67983 0.20938 0
M  V30 4571 C 444.506 -2.3669 2.67792 0
M  V30 4572 S 446.065 -3.23159 2.9684 0
M  V30 4573 H 442.883 -0.443093 0.556048 0
M  V30 4574 H 445.485 -0.610937 1.85709 0
M  V30 4575 H 444.189 -1.90905 3.63296 0
M  V30 4576 H 443.72 -3.10548 2.41502 0
M  V30 4577 H 445.735 -4.36647 2.35699 0
M  V30 4578 N 444.908 -1.36708 -0.784132 0
M  V30 4579 C 446.156 -1.30972 -1.53918 0
M  V30 4580 C 446.477 0.109086 -1.94695 0
M  V30 4581 O 445.747 1.05048 -1.65353 0
M  V30 4582 H 444.327 -0.481819 -0.570841 0
M  V30 4583 H 446.989 -1.71063 -0.934002 0
M  V30 4584 H 446.085 -1.94061 -2.44431 0
M  V30 4585 N 446.386 1.0089 -1.21074 0
M  V30 4586 C 447.334 2.11707 -0.963476 0
M  V30 4587 C 448.328 1.69172 0.0879032 0
M  V30 4588 O 449.534 1.79889 -0.0631415 0
M  V30 4589 H 445.909 0.692026 -0.294287 0
M  V30 4590 H 447.88 2.29743 -1.90422 0
M  V30 4591 C 446.629 3.43473 -0.540509 0
M  V30 4592 H 445.952 3.76634 -1.34114 0
M  V30 4593 H 447.392 4.22044 -0.406777 0
M  V30 4594 C 445.851 3.2849 0.748079 0
M  V30 4595 O 446.381 3.58883 1.8046 0
M  V30 4596 N 444.587 2.81715 0.713081 0
M  V30 4597 H 444.134 2.5718 -0.146973 0
M  V30 4598 H 444.092 2.72071 1.57558 0
M  V30 4599 N 447.864 1.01787 1.20321 0
M  V30 4600 C 449.112 0.706538 1.89347 0
M  V30 4601 C 449.433 -0.766289 1.79313 0
M  V30 4602 O 448.703 -1.55126 1.19635 0
M  V30 4603 H 447.283 0.258348 0.700903 0
M  V30 4604 H 449.945 1.28974 1.46122 0
M  V30 4605 H 449.041 0.991066 2.95946 0
M  V30 4606 N 449.342 -1.36122 0.79427 0
M  V30 4607 C 450.272 -2.32551 0.210328 0
M  V30 4608 C 451.253 -1.56884 -0.657386 0
M  V30 4609 O 452.438 -1.85014 -0.590207 0
M  V30 4610 C 449.568 -3.41128 -0.651819 0
M  V30 4611 C 448.522 -4.27842 0.116395 0
M  V30 4612 C 447.848 -5.2763 -0.86666 0
M  V30 4613 C 449.148 -5.05647 1.30837 0
M  V30 4614 H 450.842 -2.81636 1.01594 0
M  V30 4615 H 448.388 -1.35407 0.489981 0
M  V30 4616 H 450.341 -4.07581 -1.07031 0
M  V30 4617 H 449.065 -2.90622 -1.49019 0
M  V30 4618 H 447.724 -3.62952 0.515915 0
M  V30 4619 H 447.372 -4.73395 -1.70019 0
M  V30 4620 H 447.072 -5.86514 -0.35705 0
M  V30 4621 H 448.596 -5.96955 -1.28361 0
M  V30 4622 H 450.01 -5.65113 0.965393 0
M  V30 4623 H 448.407 -5.73967 1.75161 0
M  V30 4624 H 449.477 -4.37006 2.10128 0
M  V30 4625 N 450.82 -0.546701 -1.47814 0
M  V30 4626 C 452.045 -0.021268 -2.07389 0
M  V30 4627 C 452.47 1.25822 -1.39822 0
M  V30 4628 O 451.828 1.75111 -0.46968 0
M  V30 4629 C 451.876 0.168502 -3.60206 0
M  V30 4630 O 450.98 1.23347 -3.93522 0
M  V30 4631 H 450.321 -0.0466108 -0.662362 0
M  V30 4632 H 452.851 -0.759387 -1.89985 0
M  V30 4633 H 452.861 0.385982 -4.0617 0
M  V30 4634 H 451.536 -0.766075 -4.08784 0
M  V30 4635 H 450.113 0.997319 -3.59316 0
M  V30 4636 N 452.299 1.55045 -0.282633 0
M  V30 4637 C 453.524 2.04628 0.337977 0
M  V30 4638 C 453.949 1.15937 1.48123 0
M  V30 4639 O 453.307 0.159532 1.80597 0
M  V30 4640 C 453.355 3.51854 0.78936 0
M  V30 4641 O 452.459 3.66236 1.89592 0
M  V30 4642 H 451.8 0.660434 0.0687261 0
M  V30 4643 H 454.33 2.00261 -0.419124 0
M  V30 4644 H 454.34 3.93361 1.08311 0
M  V30 4645 H 453.015 4.15873 -0.0470419 0
M  V30 4646 H 451.592 3.36633 1.60413 0
M  V30 4647 N 453.777 0.010035 1.57597 0
M  V30 4648 C 454.727 -0.986858 2.05536 0
M  V30 4649 C 455.711 -1.29711 0.952042 0
M  V30 4650 O 456.903 -1.28641 1.21575 0
M  V30 4651 C 454.032 -2.2756 2.57043 0
M  V30 4652 C 453.118 -1.99455 3.74271 0
M  V30 4653 N 453.509 -1.41546 4.85591 0
M  V30 4654 C 451.807 -2.29547 3.82393 0
M  V30 4655 C 452.508 -1.3014 5.66956 0
M  V30 4656 N 451.484 -1.79044 5.13268 0
M  V30 4657 H 455.286 -0.533778 2.89012 0
M  V30 4658 H 452.8 -0.195432 1.6122 0
M  V30 4659 H 454.797 -2.99829 2.89669 0
M  V30 4660 H 453.457 -2.73512 1.7499 0
M  V30 4661 H 454.468 -1.09294 5.06236 0
M  V30 4662 H 451.145 -2.78304 3.11213 0
M  V30 4663 H 452.535 -0.855237 6.66435 0
M  V30 4664 N 455.255 -1.55392 -0.262866 0
M  V30 4665 C 456.502 -1.76476 -0.993109 0
M  V30 4666 C 456.83 -0.571479 -1.85915 0
M  V30 4667 O 456.085 0.445733 -1.90556 0
M  V30 4668 C 456.384 -3.02889 -1.89718 0
M  V30 4669 C 456.05 -4.34974 -1.18781 0
M  V30 4670 C 454.712 -4.7087 -0.991699 0
M  V30 4671 C 457.064 -5.16695 -0.683798 0
M  V30 4672 C 454.392 -5.86036 -0.279024 0
M  V30 4673 C 456.744 -6.32598 0.0153327 0
M  V30 4674 C 455.408 -6.67127 0.223062 0
M  V30 4675 H 454.678 -0.64577 -0.363404 0
M  V30 4676 H 457.325 -1.89664 -0.264525 0
M  V30 4677 H 455.63 -2.84644 -2.6923 0
M  V30 4678 H 457.327 -3.16399 -2.46359 0
M  V30 4679 H 453.917 -4.06765 -1.35058 0
M  V30 4680 H 458.101 -4.8943 -0.8229 0
M  V30 4681 H 453.357 -6.11306 -0.107456 0
M  V30 4682 H 457.531 -6.95171 0.413584 0
M  V30 4683 H 455.158 -7.56216 0.777265 0
M  V30 4684 N 456.733 0.527833 -1.48498 0
M  V30 4685 C 458.144 1.10975 -1.50138 0
M  V30 4686 C 458.495 1.943 -0.272378 0
M  V30 4687 O 457.62 2.07319 0.620301 0
M  V30 4688 C 458.215 2.01927 -2.72049 0
M  V30 4689 C 456.774 2.55332 -2.76554 0
M  V30 4690 C 455.921 1.32341 -2.43683 0
M  V30 4691 H 458.872 0.312986 -1.55583 0
M  V30 4692 H 458.893 2.86244 -2.50689 0
M  V30 4693 H 458.405 1.41254 -3.61481 0
M  V30 4694 H 456.506 3.19721 -1.91336 0
M  V30 4695 H 456.619 2.94319 -3.78038 0
M  V30 4696 H 454.983 1.63989 -1.94884 0
M  V30 4697 H 455.766 0.734165 -3.35358 0
M  V30 4698 N 458.211 1.37122 0.776871 0
M  V30 4699 C 459.451 1.33441 1.54831 0
M  V30 4700 C 459.815 -0.0818963 1.91825 0
M  V30 4701 O 461.016 -0.24338 2.67696 0
M  V30 4702 C 459.287 2.24267 2.78279 0
M  V30 4703 S 460.846 2.38389 3.68397 0
M  V30 4704 H 457.664 0.473791 0.530135 0
M  V30 4705 H 460.266 1.7282 0.913968 0
M  V30 4706 H 458.97 3.261 2.49173 0
M  V30 4707 H 458.501 1.85953 3.46677 0
M  V30 4708 H 460.516 1.59068 4.70013 0
M  V30 4709 N 459.689 -1.00246 1.21608 0
M  V30 4710 C 460.914 -1.78167 1.06167 0
M  V30 4711 C 461.339 -1.84138 -0.384035 0
M  V30 4712 O 460.697 -1.28683 -1.27712 0
M  V30 4713 C 460.745 -3.19786 1.66642 0
M  V30 4714 O 459.849 -4.02153 0.913613 0
M  V30 4715 H 459.19 -0.549 0.37349 0
M  V30 4716 H 461.72 -1.25994 1.61204 0
M  V30 4717 H 461.73 -3.70451 1.70969 0
M  V30 4718 H 460.405 -3.14754 2.7185 0
M  V30 4719 H 458.982 -3.60711 0.945635 0
M  V30 4720 N 461.167 -1.02423 -1.1978 0
M  V30 4721 C 462.077 -0.610919 -2.26506 0
M  V30 4722 C 463.093 0.355152 -1.70337 0
M  V30 4723 O 464.269 0.214195 -2.00258 0
M  V30 4724 C 461.334 0.0365921 -3.46681 0
M  V30 4725 C 460.395 -0.976389 -4.18049 0
M  V30 4726 C 459.628 -0.359683 -5.32487 0
M  V30 4727 O 459.851 0.838601 -5.64202 0
M  V30 4728 O 458.785 -1.08022 -5.92127 0
M  V30 4729 H 462.611 -1.49965 -2.64091 0
M  V30 4730 H 460.196 -0.794156 -1.26545 0
M  V30 4731 H 462.078 0.39786 -4.19518 0
M  V30 4732 H 460.753 0.899398 -3.10954 0
M  V30 4733 H 459.66 -1.38916 -3.47352 0
M  V30 4734 H 460.993 -1.80941 -4.57735 0
M  V30 4735 N 462.645 1.35699 -0.801477 0
M  V30 4736 C 463.87 2.03687 -0.390678 0
M  V30 4737 C 464.295 1.60015 0.988778 0
M  V30 4738 O 463.653 0.774357 1.63931 0
M  V30 4739 C 463.701 3.57439 -0.476404 0
M  V30 4740 O 462.805 4.09208 0.512106 0
M  V30 4741 H 462.146 0.64344 -0.163956 0
M  V30 4742 H 464.676 1.73403 -1.08594 0
M  V30 4743 H 464.686 4.06544 -0.344357 0
M  V30 4744 H 463.361 3.88576 -1.48262 0
M  V30 4745 H 461.938 3.7134 0.340721 0
M  V30 4746 N 464.123 0.554532 1.47522 0
M  V30 4747 C 465.055 -0.232106 2.28022 0
M  V30 4748 C 466.068 -0.881865 1.36847 0
M  V30 4749 O 467.257 -0.756168 1.61692 0
M  V30 4750 C 464.357 -1.34604 3.11022 0
M  V30 4751 C 463.53 -0.793582 4.30141 0
M  V30 4752 C 462.589 -1.79168 4.94758 0
M  V30 4753 O 461.615 -1.33886 5.5323 0
M  V30 4754 N 462.817 -3.12495 4.89211 0
M  V30 4755 H 465.582 0.458407 2.96173 0
M  V30 4756 H 463.143 0.390433 1.57122 0
M  V30 4757 H 465.135 -2.01243 3.51118 0
M  V30 4758 H 463.705 -1.93983 2.45131 0
M  V30 4759 H 462.925 0.0495025 3.94169 0
M  V30 4760 H 464.213 -0.403776 5.07195 0
M  V30 4761 H 463.611 -3.51931 4.42901 0
M  V30 4762 H 462.168 -3.74698 5.33333 0
M  V30 4763 N 465.601 -1.54893 0.290851 0
M  V30 4764 C 466.533 -2.20564 -0.623236 0
M  V30 4765 C 467.546 -1.19519 -1.1054 0
M  V30 4766 O 468.735 -1.46165 -1.02459 0
M  V30 4767 C 465.835 -2.83033 -1.86401 0
M  V30 4768 C 465.008 -4.09916 -1.52604 0
M  V30 4769 C 464.067 -4.56284 -2.62091 0
M  V30 4770 O 463.093 -5.2171 -2.27612 0
M  V30 4771 N 464.295 -4.27746 -3.92446 0
M  V30 4772 H 467.06 -2.99638 -0.0610915 0
M  V30 4773 H 464.621 -1.61508 0.112615 0
M  V30 4774 H 466.613 -3.1099 -2.58973 0
M  V30 4775 H 465.183 -2.0786 -2.33481 0
M  V30 4776 H 464.403 -3.89078 -0.633424 0
M  V30 4777 H 465.691 -4.92554 -1.27547 0
M  V30 4778 H 465.089 -3.7531 -4.23272 0
M  V30 4779 H 463.646 -4.60437 -4.61347 0
M  V30 4780 N 467.08 -0.0183926 -1.57589 0
M  V30 4781 C 468.03 0.975944 -2.06057 0
M  V30 4782 C 469.014 1.29204 -0.958908 0
M  V30 4783 O 470.206 1.27995 -1.22255 0
M  V30 4784 C 467.335 2.26194 -2.58247 0
M  V30 4785 C 466.421 1.97467 -3.75323 0
M  V30 4786 N 466.812 1.38968 -4.86335 0
M  V30 4787 C 465.11 2.27515 -3.83605 0
M  V30 4788 C 465.811 1.27131 -5.67638 0
M  V30 4789 N 464.787 1.76319 -5.14211 0
M  V30 4790 H 468.589 0.518444 -2.89291 0
M  V30 4791 H 466.103 0.18688 -1.61321 0
M  V30 4792 H 468.1 2.98289 -2.91255 0
M  V30 4793 H 466.76 2.7258 -1.76438 0
M  V30 4794 H 467.771 1.06608 -5.06809 0
M  V30 4795 H 464.448 2.76649 -3.12684 0
M  V30 4796 H 465.838 0.819882 -6.66879 0
M  V30 4797 N 468.558 1.5553 0.254621 0
M  V30 4798 C 469.488 1.9268 1.31897 0
M  V30 4799 C 470.469 0.790797 1.506 0
M  V30 4800 O 471.654 1.05045 1.63337 0
M  V30 4801 C 468.784 2.21477 2.67517 0
M  V30 4802 C 467.738 3.37256 2.63519 0
M  V30 4803 C 467.064 3.51576 4.02862 0
M  V30 4804 C 468.364 4.73157 2.21179 0
M  V30 4805 H 470.058 2.81832 1.01051 0
M  V30 4806 H 467.604 1.35599 0.484662 0
M  V30 4807 H 469.557 2.46055 3.42104 0
M  V30 4808 H 468.281 1.29144 2.99982 0
M  V30 4809 H 466.94 3.12675 1.9139 0
M  V30 4810 H 466.588 2.56676 4.32581 0
M  V30 4811 H 466.288 4.2943 4.01078 0
M  V30 4812 H 467.812 3.78467 4.79161 0
M  V30 4813 H 469.226 4.97158 2.85494 0
M  V30 4814 H 467.623 5.54058 2.30521 0
M  V30 4815 H 468.693 4.70739 1.16332 0
M  V30 4816 N 470.036 -0.519951 1.48776 0
M  V30 4817 C 470.984 -1.64443 1.64503 0
M  V30 4818 C 471.978 -1.61501 0.511248 0
M  V30 4819 O 473.184 -1.66238 0.690294 0
M  V30 4820 H 469.559 -0.544776 0.518385 0
M  V30 4821 H 471.53 -1.48325 2.58925 0
M  V30 4822 C 470.279 -3.02673 1.71127 0
M  V30 4823 H 469.602 -3.05635 2.57735 0
M  V30 4824 H 471.042 -3.80941 1.86172 0
M  V30 4825 C 469.501 -3.33854 0.452032 0
M  V30 4826 O 470.031 -3.99385 -0.430678 0
M  V30 4827 N 468.237 -2.88825 0.32069 0
M  V30 4828 H 467.784 -2.35674 1.03998 0
M  V30 4829 H 467.742 -3.10056 -0.520814 0
M  V30 4830 N 471.514 -1.37532 -0.769588 0
M  V30 4831 C 472.762 -1.32597 -1.5252 0
M  V30 4832 C 473.083 0.0884294 -1.94799 0
M  V30 4833 O 472.353 1.03289 -1.66458 0
M  V30 4834 H 470.933 -0.487846 -0.565699 0
M  V30 4835 H 473.595 -1.72044 -0.915806 0
M  V30 4836 H 472.691 -1.96643 -2.42359 0
M  V30 4837 N 472.992 0.995999 -1.22138 0
M  V30 4838 C 473.924 2.08745 -0.946485 0
M  V30 4839 C 474.937 1.62633 0.0737356 0
M  V30 4840 O 476.126 1.77782 -0.159886 0
M  V30 4841 C 473.226 3.36516 -0.401305 0
M  V30 4842 C 472.399 4.11672 -1.47801 0
M  V30 4843 C 471.458 5.17728 -0.940461 0
M  V30 4844 O 470.484 5.45482 -1.62596 0
M  V30 4845 N 471.686 5.80005 0.239723 0
M  V30 4846 H 474.451 2.32908 -1.88611 0
M  V30 4847 H 472.012 1.16152 -1.12785 0
M  V30 4848 H 474.004 4.04691 -0.0270837 0
M  V30 4849 H 472.574 3.0944 0.443354 0
M  V30 4850 H 471.794 3.38171 -2.02568 0
M  V30 4851 H 473.082 4.58657 -2.20253 0
M  V30 4852 H 472.48 5.5982 0.813518 0
M  V30 4853 H 471.037 6.4943 0.555361 0
M  V30 4854 N 474.47 1.03057 1.19235 0
M  V30 4855 C 475.717 0.728019 1.88961 0
M  V30 4856 C 476.045 -0.743515 1.79728 0
M  V30 4857 O 475.3 -1.55729 1.1852 0
M  V30 4858 C 475.599 1.1268 3.39172 0
M  V30 4859 C 475.265 2.5969 3.68608 0
M  V30 4860 C 473.927 2.99854 3.76352 0
M  V30 4861 C 476.279 3.54793 3.81801 0
M  V30 4862 C 473.607 4.34031 3.94758 0
M  V30 4863 C 475.959 4.88675 4.0172 0
M  V30 4864 C 474.623 5.28526 4.07697 0
M  V30 4865 H 473.893 0.266401 0.691456 0
M  V30 4866 H 476.54 1.29373 1.41191 0
M  V30 4867 H 474.845 0.479722 3.88852 0
M  V30 4868 H 476.542 0.870203 3.91444 0
M  V30 4869 H 473.132 2.27575 3.63191 0
M  V30 4870 H 477.316 3.24914 3.7516 0
M  V30 4871 H 472.572 4.6444 3.97625 0
M  V30 4872 H 476.746 5.6228 4.1087 0
M  V30 4873 H 474.373 6.32506 4.21712 0
M  V30 4874 N 475.948 -1.35272 0.808662 0
M  V30 4875 C 476.895 -2.29764 0.218482 0
M  V30 4876 C 477.865 -1.52911 -0.648652 0
M  V30 4877 O 479.05 -1.81341 -0.593297 0
M  V30 4878 C 476.19 -3.39388 -0.625282 0
M  V30 4879 C 475.303 -4.31202 0.262516 0
M  V30 4880 C 474.438 -5.27919 -0.589451 0
M  V30 4881 C 473.477 -6.11371 0.298617 0
M  V30 4882 N 472.614 -7.0022 -0.513443 0
M  V30 4883 H 477.454 -2.79645 1.02968 0
M  V30 4884 H 474.991 -1.37629 0.519303 0
M  V30 4885 H 476.949 -4.01615 -1.12966 0
M  V30 4886 H 475.579 -2.90777 -1.40173 0
M  V30 4887 H 474.631 -3.69962 0.885013 0
M  V30 4888 H 475.943 -4.89748 0.945971 0
M  V30 4889 H 475.097 -5.95529 -1.15888 0
M  V30 4890 H 473.836 -4.69875 -1.30647 0
M  V30 4891 H 472.841 -5.42707 0.880301 0
M  V30 4892 H 474.066 -6.71494 1.01352 0
M  V30 4893 H 472.012 -6.44662 -1.21439 0
M  V30 4894 H 471.929 -7.55917 0.111922 0
M  V30 4895 H 473.197 -7.72175 -1.06608 0
M  V30 4896 N 477.426 -0.562348 -1.47226 0
M  V30 4897 C 478.674 -0.0401371 -2.0206 0
M  V30 4898 C 478.995 1.3165 -1.43852 0
M  V30 4899 O 478.265 1.85976 -0.615599 0
M  V30 4900 H 476.845 -0.0118479 -0.746906 0
M  V30 4901 H 479.507 -0.73352 -1.8057 0
M  V30 4902 H 478.603 0.0441254 -3.12069 0
M  V30 4903 N 478.904 1.54736 -0.299062 0
M  V30 4904 C 480.32 1.59507 0.0543849 0
M  V30 4905 C 480.52 1.31606 1.52585 0
M  V30 4906 O 479.576 1.08853 2.27832 0
M  V30 4907 C 480.889 2.98751 -0.34181 0
M  V30 4908 C 482.437 3.1165 -0.290414 0
M  V30 4909 C 482.912 4.53199 -0.661402 0
M  V30 4910 N 484.403 4.59114 -0.613863 0
M  V30 4911 C 485.138 5.66709 -0.873417 0
M  V30 4912 N 484.634 6.82349 -1.19884 0
M  V30 4913 N 486.427 5.56369 -0.800608 0
M  V30 4914 H 478.578 1.71133 -1.25806 0
M  V30 4915 H 480.841 0.799186 -0.509908 0
M  V30 4916 H 480.547 3.24085 -1.36608 0
M  V30 4917 H 480.421 3.75961 0.305508 0
M  V30 4918 H 482.808 2.86066 0.724605 0
M  V30 4919 H 482.889 2.366 -0.972327 0
M  V30 4920 H 482.533 4.79513 -1.67422 0
M  V30 4921 H 482.463 5.26583 0.0425612 0
M  V30 4922 H 484.954 3.76053 -0.3732 0
M  V30 4923 H 485.267 7.60326 -1.38291 0
M  V30 4924 H 483.612 6.83906 -1.23685 0
M  V30 4925 H 486.803 4.64904 -0.546045 0
M  V30 4926 H 486.976 6.40139 -1.00626 0
M  V30 4927 N 480.382 0.0267497 1.57577 0
M  V30 4928 C 481.33 -0.973923 2.11229 0
M  V30 4929 C 482.324 -1.33849 1.03831 0
M  V30 4930 O 483.53 -1.321 1.22269 0
M  V30 4931 H 479.905 -0.331844 0.674821 0
M  V30 4932 H 481.876 -0.496092 2.94247 0
M  V30 4933 C 480.625 -2.24798 2.65257 0
M  V30 4934 H 479.948 -1.9762 3.47543 0
M  V30 4935 H 481.388 -2.93031 3.06445 0
M  V30 4936 C 479.847 -2.97611 1.57891 0
M  V30 4937 O 480.377 -3.89629 0.97735 0
M  V30 4938 N 478.583 -2.59905 1.29992 0
M  V30 4939 H 478.13 -1.85154 1.79097 0
M  V30 4940 H 478.088 -3.08932 0.583798 0
M  V30 4941 N 481.861 -1.55662 -0.24637 0
M  V30 4942 C 483.11 -1.7672 -0.972254 0
M  V30 4943 C 483.423 -0.59078 -1.86465 0
M  V30 4944 O 484.629 -0.684391 -2.62732 0
M  V30 4945 C 483.085 -3.12869 -1.7788 0
M  V30 4946 C 482.693 -4.38161 -0.933768 0
M  V30 4947 C 484.437 -3.43265 -2.49738 0
M  V30 4948 C 482.344 -5.6534 -1.73623 0
M  V30 4949 H 481.274 -0.658795 -0.366749 0
M  V30 4950 H 483.925 -1.82092 -0.226902 0
M  V30 4951 H 482.307 -3.01606 -2.56612 0
M  V30 4952 H 483.481 -4.60413 -0.188736 0
M  V30 4953 H 481.796 -4.15102 -0.328488 0
M  V30 4954 H 484.393 -4.35501 -3.10231 0
M  V30 4955 H 484.736 -2.64614 -3.2138 0
M  V30 4956 H 485.269 -3.55746 -1.78016 0
M  V30 4957 H 482.008 -6.46814 -1.06354 0
M  V30 4958 H 481.528 -5.47188 -2.45653 0
M  V30 4959 H 483.207 -6.04616 -2.30323 0
M  V30 4960 N 483.339 0.512053 -1.4905 0
M  V30 4961 C 484.272 1.63209 -1.59493 0
M  V30 4962 C 485.25 1.56407 -0.444481 0
M  V30 4963 O 486.434 1.76623 -0.658535 0
M  V30 4964 C 483.561 3.01685 -1.53961 0
M  V30 4965 C 482.607 3.26786 -2.74068 0
M  V30 4966 S 483.44 3.11107 -4.35859 0
M  V30 4967 C 484.596 4.51997 -4.32954 0
M  V30 4968 H 484.829 1.54104 -2.54243 0
M  V30 4969 H 482.362 0.696382 -1.37804 0
M  V30 4970 H 484.32 3.81538 -1.51455 0
M  V30 4971 H 482.981 3.08215 -0.605178 0
M  V30 4972 H 482.174 4.27849 -2.66386 0
M  V30 4973 H 481.776 2.54635 -2.73928 0
M  V30 4974 H 484.068 5.43871 -4.03993 0
M  V30 4975 H 485.011 4.64731 -5.34257 0
M  V30 4976 H 485.419 4.32159 -3.63178 0
M  V30 4977 N 484.817 1.37938 0.762283 0
M  V30 4978 C 485.767 1.30976 1.86626 0
M  V30 4979 C 486.751 0.195714 1.59705 0
M  V30 4980 O 487.943 0.430937 1.71674 0
M  V30 4981 C 485.072 1.12847 3.24223 0
M  V30 4982 C 484.158 2.28836 3.57064 0
M  V30 4983 N 484.549 3.54256 3.61022 0
M  V30 4984 C 482.847 2.21198 3.87282 0
M  V30 4985 C 483.548 4.30798 3.90881 0
M  V30 4986 N 482.524 3.60049 4.07266 0
M  V30 4987 H 486.326 2.25946 1.87951 0
M  V30 4988 H 483.84 1.31046 0.959206 0
M  V30 4989 H 485.837 1.05943 4.03214 0
M  V30 4990 H 484.497 0.188024 3.24155 0
M  V30 4991 H 485.508 3.8804 3.42995 0
M  V30 4992 H 482.185 1.35264 3.94981 0
M  V30 4993 H 483.575 5.39386 4.00639 0
M  V30 4994 N 486.295 -0.989507 1.22664 0
M  V30 4995 C 487.525 -1.7624 1.0781 0
M  V30 4996 C 487.933 -1.85466 -0.374036 0
M  V30 4997 O 487.276 -1.32645 -1.27087 0
M  V30 4998 C 487.338 -3.21007 1.61849 0
M  V30 4999 C 487.002 -3.35316 3.10503 0
M  V30 5000 C 487.999 -3.22362 4.07896 0
M  V30 5001 C 485.684 -3.60258 3.50028 0
M  V30 5002 C 487.678 -3.34139 5.42798 0
M  V30 5003 C 485.365 -3.71676 4.85078 0
M  V30 5004 C 486.363 -3.58625 5.81272 0
M  V30 5005 O 486.051 -3.69655 7.1387 0
M  V30 5006 H 485.783 -0.560209 0.378341 0
M  V30 5007 H 488.337 -1.25252 1.62792 0
M  V30 5008 H 486.567 -3.73202 1.01279 0
M  V30 5009 H 488.256 -3.80024 1.42606 0
M  V30 5010 H 489.022 -3.03 3.78703 0
M  V30 5011 H 484.901 -3.69492 2.75675 0
M  V30 5012 H 488.445 -3.23869 6.17863 0
M  V30 5013 H 484.342 -3.90545 5.1395 0
M  V30 5014 H 485.11 -3.86507 7.21495 0
M  V30 5015 N 487.773 -1.03688 -1.18687 0
M  V30 5016 C 489.184 -0.766488 -1.70241 0
M  V30 5017 C 489.535 0.713052 -1.82784 0
M  V30 5018 O 488.66 1.55529 -1.50465 0
M  V30 5019 C 489.255 -1.38475 -3.09209 0
M  V30 5020 C 487.814 -1.16276 -3.5799 0
M  V30 5021 C 486.961 -1.4778 -2.34641 0
M  V30 5022 H 489.912 -1.20378 -1.03415 0
M  V30 5023 H 489.933 -0.785939 -3.72295 0
M  V30 5024 H 489.445 -2.46157 -3.00048 0
M  V30 5025 H 487.546 -0.104508 -3.72453 0
M  V30 5026 H 487.659 -1.8571 -4.41643 0
M  V30 5027 H 486.023 -0.897366 -2.38368 0
M  V30 5028 H 486.806 -2.56562 -2.28102 0
M  V30 5029 N 489.251 1.34841 -0.815825 0
M  V30 5030 C 490.199 2.31549 -0.220888 0
M  V30 5031 C 491.193 1.5707 0.634457 0
M  V30 5032 O 492.399 1.72125 0.526589 0
M  V30 5033 H 488.774 0.750153 -0.0526782 0
M  V30 5034 H 490.745 2.7926 -1.05149 0
M  V30 5035 C 489.494 3.42335 0.608427 0
M  V30 5036 H 488.817 3.9978 -0.0404121 0
M  V30 5037 H 490.257 4.12258 0.990931 0
M  V30 5038 C 488.716 2.86173 1.77782 0
M  V30 5039 O 489.246 2.80474 2.87571 0
M  V30 5040 N 487.452 2.43093 1.59229 0
M  V30 5041 H 486.999 2.47928 0.699237 0
M  V30 5042 H 486.957 2.05866 2.37627 0
M  V30 5043 N 490.729 0.570148 1.46925 0
M  V30 5044 C 491.977 0.0508523 2.02036 0
M  V30 5045 C 492.298 -1.30885 1.44548 0
M  V30 5046 O 491.568 -1.85647 0.625453 0
M  V30 5047 H 490.148 0.0158088 0.746833 0
M  V30 5048 H 492.81 0.743086 1.80178 0
M  V30 5049 H 491.906 -0.027575 3.12088 0
M  V30 5050 N 492.207 -1.54576 0.307264 0
M  V30 5051 C 493.157 -2.20467 -0.581249 0
M  V30 5052 C 494.141 -1.17972 -1.09414 0
M  V30 5053 O 495.333 -1.43667 -1.03387 0
M  V30 5054 C 492.462 -2.95369 -1.74963 0
M  V30 5055 C 491.548 -4.05186 -1.25241 0
M  V30 5056 N 491.939 -5.03577 -0.47364 0
M  V30 5057 C 490.237 -4.18841 -1.53259 0
M  V30 5058 C 490.938 -5.81328 -0.208083 0
M  V30 5059 N 489.914 -5.37834 -0.789651 0
M  V30 5060 H 493.716 -2.93892 0.0212221 0
M  V30 5061 H 491.23 -1.62011 0.112325 0
M  V30 5062 H 493.227 -3.41046 -2.39777 0
M  V30 5063 H 491.887 -2.23461 -2.35574 0
M  V30 5064 H 492.898 -5.17766 -0.117963 0
M  V30 5065 H 489.575 -3.58141 -2.14573 0
M  V30 5066 H 490.965 -6.706 0.417793 0
M  V30 5067 N 493.685 -0.035106 -1.57561 0
M  V30 5068 C 494.648 0.929819 -2.09492 0
M  V30 5069 C 495.648 1.25026 -1.01119 0
M  V30 5070 O 496.838 1.18961 -1.27255 0
M  V30 5071 C 493.97 2.24457 -2.56577 0
M  V30 5072 H 495.163 0.479935 -2.96035 0
M  V30 5073 H 492.716 0.213033 -1.54841 0
M  V30 5074 H 493.451 2.74061 -1.73382 0
M  V30 5075 H 493.236 2.02508 -3.35757 0
M  V30 5076 H 494.726 2.93607 -2.96959 0
M  V30 5077 N 495.163 1.55791 0.238111 0
M  V30 5078 C 496.412 1.77234 0.962868 0
M  V30 5079 C 496.725 0.600661 1.86149 0
M  V30 5080 O 497.931 0.698315 2.62366 0
M  V30 5081 C 496.387 3.13808 1.76218 0
M  V30 5082 C 495.995 4.3865 0.910518 0
M  V30 5083 C 497.739 3.44585 2.47914 0
M  V30 5084 C 495.646 5.66252 1.70623 0
M  V30 5085 H 494.576 0.660731 0.36325 0
M  V30 5086 H 497.227 1.8221 0.217242 0
M  V30 5087 H 495.609 3.02963 2.55009 0
M  V30 5088 H 496.783 4.60507 0.164316 0
M  V30 5089 H 495.098 4.15271 0.30647 0
M  V30 5090 H 497.695 4.3714 3.07917 0
M  V30 5091 H 498.038 2.66314 3.19973 0
M  V30 5092 H 498.571 3.56685 1.76127 0
M  V30 5093 H 495.31 6.47369 1.02923 0
M  V30 5094 H 494.83 5.48483 2.42748 0
M  V30 5095 H 496.509 6.05829 2.27114 0
M  V30 5096 N 496.642 -0.504142 1.49319 0
M  V30 5097 C 497.882 -1.26867 1.60263 0
M  V30 5098 C 498.246 -1.89924 0.281578 0
M  V30 5099 O 499.447 -2.67479 0.266176 0
M  V30 5100 C 497.718 -2.30956 2.72753 0
M  V30 5101 S 499.277 -3.1679 3.03628 0
M  V30 5102 H 496.095 -0.431198 0.565322 0
M  V30 5103 H 498.697 -0.571407 1.86963 0
M  V30 5104 H 497.401 -1.83156 3.67263 0
M  V30 5105 H 496.932 -3.05356 2.48035 0
M  V30 5106 H 498.947 -4.31549 2.44908 0
M  V30 5107 N 498.12 -1.38341 -0.754957 0
M  V30 5108 C 499.369 -1.33791 -1.5094 0
M  V30 5109 C 499.682 0.0699267 -1.95475 0
M  V30 5110 O 500.888 0.237956 -2.70455 0
M  V30 5111 C 499.344 -2.34934 -2.72643 0
M  V30 5112 C 498.952 -3.81332 -2.35138 0
M  V30 5113 C 500.696 -2.39425 -3.50536 0
M  V30 5114 C 498.603 -4.74164 -3.53444 0
M  V30 5115 H 497.533 -0.497314 -0.566741 0
M  V30 5116 H 500.184 -1.63888 -0.825403 0
M  V30 5117 H 498.566 -1.97878 -3.43017 0
M  V30 5118 H 499.74 -4.27319 -1.7244 0
M  V30 5119 H 498.055 -3.79946 -1.70382 0
M  V30 5120 H 500.652 -3.0598 -4.38498 0
M  V30 5121 H 500.995 -1.41278 -3.91594 0
M  V30 5122 H 501.528 -2.75274 -2.87174 0
M  V30 5123 H 498.267 -5.73501 -3.17453 0
M  V30 5124 H 497.787 -4.3287 -4.15191 0
M  V30 5125 H 499.466 -4.92111 -4.20043 0
M  V30 5126 N 499.598 0.982988 -1.23187 0
M  V30 5127 C 500.561 2.05649 -1.01198 0
M  V30 5128 C 501.561 1.6078 0.0252464 0
M  V30 5129 O 502.751 1.72878 -0.214243 0
M  V30 5130 C 499.883 3.36744 -0.530656 0
M  V30 5131 H 501.076 2.2659 -1.96461 0
M  V30 5132 H 498.629 1.15602 -1.05195 0
M  V30 5133 H 499.364 3.21492 0.425873 0
M  V30 5134 H 499.149 3.7065 -1.2791 0
M  V30 5135 H 500.639 4.15705 -0.397366 0
M  V30 5136 N 501.076 1.04316 1.18135 0
M  V30 5137 C 502.024 0.630175 2.23901 0
M  V30 5138 C 503.018 -0.344254 1.65865 0
M  V30 5139 O 504.224 -0.211273 1.78756 0
M  V30 5140 H 500.599 0.185578 0.728742 0
M  V30 5141 H 502.57 1.53253 2.56039 0
M  V30 5142 C 501.319 0.011666 3.47698 0
M  V30 5143 H 500.642 0.752526 3.92654 0
M  V30 5144 H 502.082 -0.240046 4.2332 0
M  V30 5145 C 500.541 -1.23913 3.13285 0
M  V30 5146 O 501.071 -2.32959 3.27251 0
M  V30 5147 N 499.277 -1.13338 2.67587 0
M  V30 5148 H 498.824 -0.246006 2.56423 0
M  V30 5149 H 498.782 -1.97116 2.44934 0
M  V30 5150 N 502.554 -1.34406 0.822964 0
M  V30 5151 C 503.802 -1.97892 0.410245 0
M  V30 5152 C 504.123 -1.65567 -1.03017 0
M  V30 5153 O 503.393 -0.94642 -1.71522 0
M  V30 5154 H 501.973 -0.732049 0.148707 0
M  V30 5155 H 504.635 -1.64043 1.05242 0
M  V30 5156 H 503.731 -3.07579 0.529284 0
M  V30 5157 N 504.032 -0.577932 -1.46621 0
M  V30 5158 C 504.982 0.178869 -2.27297 0
M  V30 5159 C 505.966 0.866279 -1.35589 0
M  V30 5160 O 507.158 0.761163 -1.59798 0
M  V30 5161 C 504.287 1.19499 -3.2183 0
M  V30 5162 C 503.373 0.50994 -4.21023 0
M  V30 5163 N 503.764 -0.43177 -5.03954 0
M  V30 5164 C 502.062 0.761287 -4.39455 0
M  V30 5165 C 502.763 -0.831693 -5.75724 0
M  V30 5166 N 501.739 -0.181897 -5.43296 0
M  V30 5167 H 505.541 -0.544859 -2.88805 0
M  V30 5168 H 503.055 -0.399373 -1.57413 0
M  V30 5169 H 505.052 1.75131 -3.78332 0
M  V30 5170 H 503.712 1.91959 -2.61881 0
M  V30 5171 H 504.723 -0.807045 -5.11573 0
M  V30 5172 H 501.4 1.47282 -3.90659 0
M  V30 5173 H 502.79 -1.6067 -6.52407 0
M  V30 5174 N 505.51 1.54411 -0.315457 0
M  V30 5175 C 506.75 2.02329 0.290236 0
M  V30 5176 C 507.114 1.19878 1.49977 0
M  V30 5177 O 508.315 1.57562 2.17779 0
M  V30 5178 C 506.586 3.51912 0.623937 0
M  V30 5179 S 508.145 4.21775 1.21044 0
M  V30 5180 H 504.963 0.705499 0.0882739 0
M  V30 5181 H 507.565 1.90328 -0.446694 0
M  V30 5182 H 506.269 4.09546 -0.264624 0
M  V30 5183 H 505.8 3.67977 1.39128 0
M  V30 5184 H 507.815 4.28757 2.49764 0
M  V30 5185 N 506.988 0.0434614 1.5754 0
M  V30 5186 C 507.921 -0.968729 2.06618 0
M  V30 5187 C 508.899 -1.30868 0.965 0
M  V30 5188 O 510.083 -1.42288 1.23638 0
M  V30 5189 C 507.21 -2.28486 2.50023 0
M  V30 5190 C 506.256 -2.09851 3.71302 0
M  V30 5191 S 507.089 -1.38401 5.17306 0
M  V30 5192 C 508.245 -2.71354 5.64019 0
M  V30 5193 H 508.478 -0.551021 2.92149 0
M  V30 5194 H 506.011 -0.168607 1.53477 0
M  V30 5195 H 507.969 -3.04142 2.75695 0
M  V30 5196 H 506.63 -2.67387 1.64812 0
M  V30 5197 H 505.823 -3.07184 3.99567 0
M  V30 5198 H 505.425 -1.42336 3.45856 0
M  V30 5199 H 507.717 -3.67549 5.69134 0
M  V30 5200 H 508.66 -2.47734 6.6335 0
M  V30 5201 H 509.068 -2.77259 4.91719 0
M  V30 5202 N 508.466 -1.55915 -0.229846 0
M  V30 5203 C 509.414 -1.9258 -1.30444 0
M  V30 5204 C 510.408 -0.806839 -1.48951 0
M  V30 5205 O 511.614 -0.991606 -1.50224 0
M  V30 5206 H 507.989 -0.611878 -0.437161 0
M  V30 5207 H 509.96 -2.82264 -0.96797 0
M  V30 5208 C 508.709 -2.25171 -2.6494 0
M  V30 5209 H 508.032 -3.10782 -2.51504 0
M  V30 5210 H 509.472 -2.54716 -3.38963 0
M  V30 5211 C 507.931 -1.07394 -3.19324 0
M  V30 5212 O 508.461 -0.330759 -4.00336 0
M  V30 5213 N 506.667 -0.859984 -2.77584 0
M  V30 5214 H 506.214 -1.46605 -2.11813 0
M  V30 5215 H 506.172 -0.0736671 -3.14314 0
M  V30 5216 N 509.944 0.496216 -1.49584 0
M  V30 5217 C 511.191 1.25003 -1.59312 0
M  V30 5218 C 511.519 1.92445 -0.28198 0
M  V30 5219 O 510.774 1.81557 0.730452 0
M  V30 5220 C 511.073 2.3359 -2.705 0
M  V30 5221 C 510.739 1.83574 -4.11839 0
M  V30 5222 C 509.401 1.69653 -4.50302 0
M  V30 5223 C 511.753 1.46193 -5.00277 0
M  V30 5224 C 509.081 1.16736 -5.74969 0
M  V30 5225 C 511.433 0.947265 -6.25468 0
M  V30 5226 C 510.097 0.794485 -6.62755 0
M  V30 5227 H 509.367 0.45742 -0.582965 0
M  V30 5228 H 512.014 0.549996 -1.83432 0
M  V30 5229 H 510.319 3.09401 -2.40371 0
M  V30 5230 H 512.016 2.91627 -2.75235 0
M  V30 5231 H 508.606 1.9537 -3.81482 0
M  V30 5232 H 512.79 1.55793 -4.71214 0
M  V30 5233 H 508.046 1.03623 -6.02555 0
M  V30 5234 H 512.22 0.648846 -6.93371 0
M  V30 5235 H 509.847 0.382271 -7.59238 0
M  V30 5236 N 511.423 1.38739 0.74761 0
M  V30 5237 C 512.648 1.38702 1.54197 0
M  V30 5238 C 513.073 -0.019664 1.8809 0
M  V30 5239 O 512.431 -1.00333 1.51006 0
M  V30 5240 C 512.479 2.25492 2.814 0
M  V30 5241 O 511.583 1.67613 3.76802 0
M  V30 5242 H 510.924 0.472863 0.466151 0
M  V30 5243 H 513.454 1.82577 0.923413 0
M  V30 5244 H 513.464 2.39561 3.30264 0
M  V30 5245 H 512.139 3.27727 2.56062 0
M  V30 5246 H 510.716 1.62718 3.35526 0
M  V30 5247 N 512.901 -0.976442 1.23707 0
M  V30 5248 C 513.849 -2.09078 1.01927 0
M  V30 5249 C 514.843 -1.69345 -0.0430193 0
M  V30 5250 O 516.049 -1.79659 0.110814 0
M  V30 5251 H 512.424 -0.68398 0.312531 0
M  V30 5252 H 514.395 -2.24614 1.96447 0
M  V30 5253 C 513.144 -3.41919 0.631385 0
M  V30 5254 H 512.467 -3.72946 1.44053 0
M  V30 5255 H 513.907 -4.20817 0.518532 0
M  V30 5256 C 512.366 -3.30357 -0.660723 0
M  V30 5257 O 512.896 -3.63542 -1.70881 0
M  V30 5258 N 511.102 -2.83507 -0.638139 0
M  V30 5259 H 510.649 -2.567 0.215108 0
M  V30 5260 H 510.607 -2.76153 -1.50289 0
M  V30 5261 N 514.379 -1.04941 -1.1758 0
M  V30 5262 C 515.342 -0.652456 -2.19717 0
M  V30 5263 C 516.342 0.294745 -1.58076 0
M  V30 5264 O 517.532 0.0789579 -1.74021 0
M  V30 5265 C 514.664 0.0420712 -3.40874 0
M  V30 5266 H 515.857 -1.55642 -2.5635 0
M  V30 5267 H 513.41 -0.842995 -1.31618 0
M  V30 5268 H 514.145 0.95943 -3.09783 0
M  V30 5269 H 513.93 -0.638844 -3.86861 0
M  V30 5270 H 515.42 0.306 -4.16477 0
M  V30 5271 N 515.857 1.33968 -0.830081 0
M  V30 5272 C 517.087 2.01987 -0.434142 0
M  V30 5273 C 517.495 1.62639 0.96671 0
M  V30 5274 O 516.838 0.831151 1.63822 0
M  V30 5275 C 516.9 3.5648 -0.465018 0
M  V30 5276 C 516.564 4.19176 -1.82045 0
M  V30 5277 C 517.561 4.39181 -2.78237 0
M  V30 5278 C 515.246 4.55792 -2.11089 0
M  V30 5279 C 517.24 4.94937 -4.01642 0
M  V30 5280 C 514.927 5.11258 -3.34752 0
M  V30 5281 C 515.925 5.30775 -4.29845 0
M  V30 5282 O 515.613 5.85064 -5.51322 0
M  V30 5283 H 515.345 0.653847 -0.171639 0
M  V30 5284 H 517.899 1.72066 -1.12171 0
M  V30 5285 H 516.129 3.8569 0.279284 0
M  V30 5286 H 517.818 4.05804 -0.0881334 0
M  V30 5287 H 518.584 4.11249 -2.57097 0
M  V30 5288 H 514.463 4.39901 -1.3787 0
M  V30 5289 H 518.007 5.10086 -4.75876 0
M  V30 5290 H 513.904 5.38619 -3.55753 0
M  V30 5291 H 514.672 6.03489 -5.5294 0
M  V30 5292 N 517.335 0.585699 1.46312 0
M  V30 5293 C 518.563 0.0781299 2.06752 0
M  V30 5294 C 518.978 -1.22812 1.43396 0
M  V30 5295 O 518.335 -1.74318 0.540314 0
M  V30 5296 C 518.386 -0.0911927 3.61385 0
M  V30 5297 O 518.107 1.16336 4.22371 0
M  V30 5298 C 519.608 -0.632765 4.38761 0
M  V30 5299 H 516.828 0.0588188 0.668417 0
M  V30 5300 H 519.372 0.807218 1.87894 0
M  V30 5301 H 517.527 -0.770514 3.7966 0
M  V30 5302 H 517.941 0.979082 5.15281 0
M  V30 5303 H 519.415 -0.70041 5.47538 0
M  V30 5304 H 519.892 -1.65039 4.07012 0
M  V30 5305 H 520.498 0.0117856 4.25298 0
M  V30 5306 N 518.813 -1.54241 0.323641 0
M  V30 5307 C 519.745 -2.21836 -0.576311 0
M  V30 5308 C 520.758 -1.21837 -1.07979 0
M  V30 5309 O 521.947 -1.48306 -0.99336 0
M  V30 5310 C 519.047 -2.86923 -1.80356 0
M  V30 5311 C 518.22 -4.1306 -1.43875 0
M  V30 5312 C 517.279 -4.6174 -2.52353 0
M  V30 5313 O 516.305 -5.26421 -2.16494 0
M  V30 5314 N 517.507 -4.35974 -3.83284 0
M  V30 5315 H 520.272 -2.997 0.00247987 0
M  V30 5316 H 517.833 -1.61233 0.146848 0
M  V30 5317 H 519.825 -3.16414 -2.52318 0
M  V30 5318 H 518.395 -2.12765 -2.29019 0
M  V30 5319 H 517.615 -3.90334 -0.550752 0
M  V30 5320 H 518.903 -4.95148 -1.17071 0
M  V30 5321 H 518.301 -3.84203 -4.15216 0
M  V30 5322 H 516.858 -4.70119 -4.51477 0
M  V30 5323 N 520.291 -0.0518155 -1.57515 0
M  V30 5324 C 521.707 0.304735 -1.56664 0
M  V30 5325 C 521.907 1.71395 -1.05953 0
M  V30 5326 O 520.963 2.42123 -0.716414 0
M  V30 5327 C 522.276 0.132614 -3.00407 0
M  V30 5328 C 523.824 0.20367 -3.12337 0
M  V30 5329 C 524.299 0.0600706 -4.57961 0
M  V30 5330 N 525.79 0.116326 -4.63054 0
M  V30 5331 C 526.525 0.0293363 -5.73392 0
M  V30 5332 N 526.021 -0.110038 -6.92713 0
M  V30 5333 N 527.814 0.0849651 -5.62036 0
M  V30 5334 H 519.965 -0.973056 -1.888 0
M  V30 5335 H 522.228 -0.377781 -0.869474 0
M  V30 5336 H 521.934 -0.839019 -3.41546 0
M  V30 5337 H 521.808 0.893376 -3.66468 0
M  V30 5338 H 524.195 1.16578 -2.71097 0
M  V30 5339 H 524.276 -0.587857 -2.48954 0
M  V30 5340 H 523.92 -0.898715 -4.99886 0
M  V30 5341 H 523.85 0.87075 -5.19351 0
M  V30 5342 H 526.341 0.22327 -3.7724 0
M  V30 5343 H 526.654 -0.169104 -7.72615 0
M  V30 5344 H 524.999 -0.145132 -6.94848 0
M  V30 5345 H 528.19 0.192411 -4.67704 0
M  V30 5346 H 528.363 0.0137131 -6.47999 0
M  V30 5347 N 521.769 1.56035 0.221574 0
M  V30 5348 C 523.015 1.79312 0.947372 0
M  V30 5349 C 523.348 0.621453 1.83988 0
M  V30 5350 O 522.623 -0.379287 1.90766 0
M  V30 5351 C 522.906 3.1267 1.78633 0
M  V30 5352 C 522.759 4.40284 0.920312 0
M  V30 5353 C 524.078 3.4247 2.7641 0
M  V30 5354 H 521.197 0.652328 0.342982 0
M  V30 5355 H 523.839 1.88765 0.216244 0
M  V30 5356 H 521.989 3.04741 2.40967 0
M  V30 5357 H 523.661 4.60232 0.313718 0
M  V30 5358 H 521.904 4.33212 0.225734 0
M  V30 5359 H 522.575 5.30033 1.54171 0
M  V30 5360 H 525.051 3.50526 2.24211 0
M  V30 5361 H 523.927 4.3695 3.32213 0
M  V30 5362 H 524.188 2.64635 3.54148 0
M  V30 5363 N 523.247 -0.488276 1.49845 0
M  V30 5364 C 524.487 -1.2516 1.61599 0
M  V30 5365 C 524.851 -1.89615 0.301706 0
M  V30 5366 O 526.052 -2.67182 0.29453 0
M  V30 5367 C 524.323 -2.2805 2.75187 0
M  V30 5368 S 525.882 -3.13552 3.0697 0
M  V30 5369 H 522.7 -0.425178 0.569864 0
M  V30 5370 H 525.302 -0.551545 1.87559 0
M  V30 5371 H 524.006 -1.7925 3.69185 0
M  V30 5372 H 523.537 -3.02708 2.5126 0
M  V30 5373 H 525.552 -4.28927 2.49471 0
M  V30 5374 N 524.725 -1.39134 -0.740242 0
M  V30 5375 C 526.002 -1.26584 -1.49117 0
M  V30 5376 C 526.382 0.126902 -2.10718 0
M  V30 5377 O 525.73 1.13765 -1.98166 0
M  V30 5378 C 525.94 -2.38619 -2.54681 0
M  V30 5379 C 527.288 -2.77685 -3.21211 0
M  V30 5380 O 528.312 -2.38029 -2.64991 0
M  V30 5381 O 527.171 -3.46115 -4.22926 0
M  V30 5382 H 524.265 -0.495769 -0.661923 0
M  V30 5383 H 526.811 -1.50995 -0.774514 0
M  V30 5384 H 525.583 -3.3175 -2.07504 0
M  V30 5385 H 525.206 -2.15845 -3.33911 0
M  V30 5386 N 526.204 0.969867 -1.24223 0
M  V30 5387 C 527.62 1.23809 -1.00716 0
M  V30 5388 C 527.82 1.99469 0.285358 0
M  V30 5389 O 526.876 2.31764 1.00207 0
M  V30 5390 C 528.189 2.02734 -2.2208 0
M  V30 5391 C 529.737 2.15834 -2.26681 0
M  V30 5392 C 530.212 2.98154 -3.47661 0
M  V30 5393 N 531.703 3.05737 -3.47964 0
M  V30 5394 C 532.438 3.69785 -4.38231 0
M  V30 5395 N 531.934 4.35569 -5.3875 0
M  V30 5396 N 533.727 3.66775 -4.25949 0
M  V30 5397 H 525.878 0.463294 -2.07286 0
M  V30 5398 H 528.141 0.267348 -0.909521 0
M  V30 5399 H 527.847 1.54524 -3.15935 0
M  V30 5400 H 527.721 3.0347 -2.24021 0
M  V30 5401 H 530.108 2.63248 -1.33359 0
M  V30 5402 H 530.189 1.14453 -2.28767 0
M  V30 5403 H 529.833 2.51435 -4.41297 0
M  V30 5404 H 529.763 3.99729 -3.42818 0
M  V30 5405 H 532.254 2.58941 -2.75242 0
M  V30 5406 H 532.567 4.82251 -6.03866 0
M  V30 5407 H 530.912 4.34244 -5.42639 0
M  V30 5408 H 534.103 3.14558 -3.46657 0
M  V30 5409 H 534.276 4.16407 -4.96497 0
M  V30 5410 N 527.682 1.05563 1.17022 0
M  V30 5411 C 528.928 0.769074 1.87652 0
M  V30 5412 C 529.261 -0.702326 1.81055 0
M  V30 5413 O 528.536 -1.5139 1.22112 0
M  V30 5414 C 528.819 1.25492 3.37526 0
M  V30 5415 C 528.672 2.78953 3.52853 0
M  V30 5416 C 529.991 0.856919 4.31677 0
M  V30 5417 H 527.11 0.280854 0.681388 0
M  V30 5418 H 529.752 1.31027 1.37593 0
M  V30 5419 H 527.902 0.794516 3.80289 0
M  V30 5420 H 529.574 3.33146 3.19079 0
M  V30 5421 H 527.817 3.18046 2.95007 0
M  V30 5422 H 528.488 3.08011 4.58076 0
M  V30 5423 H 530.964 1.25334 3.96775 0
M  V30 5424 H 529.84 1.22443 5.35069 0
M  V30 5425 H 530.101 -0.238787 4.41455 0
M  V30 5426 N 529.16 -1.33526 0.837174 0
M  V30 5427 C 530.571 -1.80182 0.489017 0
M  V30 5428 C 530.922 -1.69285 -0.991826 0
M  V30 5429 O 530.047 -1.24113 -1.77271 0
M  V30 5430 C 530.642 -3.27149 0.880866 0
M  V30 5431 C 529.201 -3.71828 0.584872 0
M  V30 5432 C 528.348 -2.54974 1.09011 0
M  V30 5433 H 531.299 -1.21071 1.02603 0
M  V30 5434 H 531.32 -3.80024 0.190239 0
M  V30 5435 H 530.832 -3.35048 1.95869 0
M  V30 5436 H 528.933 -3.69457 -0.48295 0
M  V30 5437 H 529.046 -4.65366 1.13892 0
M  V30 5438 H 527.41 -2.4952 0.511047 0
M  V30 5439 H 528.193 -2.65637 2.17467 0
M  V30 5440 N 530.638 -0.59345 -1.46 0
M  V30 5441 C 531.887 -0.0808084 -2.01538 0
M  V30 5442 C 532.2 1.29112 -1.46934 0
M  V30 5443 O 533.406 1.8957 -1.94359 0
M  V30 5444 C 531.862 -0.0938311 -3.59778 0
M  V30 5445 C 531.47 -1.46474 -4.23379 0
M  V30 5446 C 533.214 0.364306 -4.22934 0
M  V30 5447 C 531.121 -1.4349 -5.73729 0
M  V30 5448 H 530.051 -0.0264407 -0.753536 0
M  V30 5449 H 532.702 -0.746689 -1.67621 0
M  V30 5450 H 531.084 0.638427 -3.9082 0
M  V30 5451 H 532.258 -2.21758 -4.03931 0
M  V30 5452 H 530.573 -1.86379 -3.7236 0
M  V30 5453 H 533.17 0.405584 -5.3316 0
M  V30 5454 H 533.513 1.38409 -3.92618 0
M  V30 5455 H 534.046 -0.31423 -3.96557 0
M  V30 5456 H 530.785 -2.43184 -6.08722 0
M  V30 5457 H 530.305 -0.724431 -5.95409 0
M  V30 5458 H 531.984 -1.15243 -6.36654 0
M  V30 5459 N 532.116 1.54067 -0.331816 0
M  V30 5460 C 533.393 1.92915 0.322955 0
M  V30 5461 C 533.773 1.26225 1.69205 0
M  V30 5462 O 533.121 0.408919 2.24811 0
M  V30 5463 C 533.331 3.46619 0.406946 0
M  V30 5464 C 534.679 4.19386 0.663339 0
M  V30 5465 O 535.703 3.5282 0.489536 0
M  V30 5466 O 534.562 5.37288 0.999193 0
M  V30 5467 H 531.656 0.805808 0.186016 0
M  V30 5468 H 534.202 1.65342 -0.382135 0
M  V30 5469 H 532.974 3.87354 -0.554287 0
M  V30 5470 H 532.597 3.80324 1.15929 0
M  V30 5471 N 533.594 0.0601682 1.57485 0
M  V30 5472 C 534.842 -0.610386 1.92662 0
M  V30 5473 C 535.163 -1.70849 0.939981 0
M  V30 5474 O 534.433 -1.95895 -0.0137455 0
M  V30 5475 H 533.013 -0.228457 0.711208 0
M  V30 5476 H 535.675 0.115288 1.94559 0
M  V30 5477 H 534.771 -1.0432 2.94149 0
M  V30 5478 N 535.072 -1.5615 -0.213296 0
M  V30 5479 C 536.319 -1.79546 -0.936462 0
M  V30 5480 C 536.647 -0.630337 -1.84003 0
M  V30 5481 O 535.902 0.384883 -1.91878 0
M  V30 5482 C 536.201 -3.08772 -1.79985 0
M  V30 5483 C 535.867 -4.38532 -1.04882 0
M  V30 5484 C 534.529 -4.73787 -0.841393 0
M  V30 5485 C 536.881 -5.18609 -0.51907 0
M  V30 5486 C 534.209 -5.86627 -0.0924403 0
M  V30 5487 C 536.561 -6.32229 0.216581 0
M  V30 5488 C 535.225 -6.6608 0.435191 0
M  V30 5489 H 534.495 -0.657004 -0.342676 0
M  V30 5490 H 537.142 -1.9041 -0.204051 0
M  V30 5491 H 535.447 -2.93065 -2.60038 0
M  V30 5492 H 537.144 -3.24077 -2.36168 0
M  V30 5493 H 533.734 -4.10855 -1.22048 0
M  V30 5494 H 537.918 -4.91801 -0.666775 0
M  V30 5495 H 533.174 -6.11338 0.087081 0
M  V30 5496 H 537.348 -6.93503 0.634538 0
M  V30 5497 H 534.975 -7.5336 1.01746 0
M  V30 5498 N 536.55 0.480323 -1.50102 0
M  V30 5499 C 537.775 1.26126 -1.64642 0
M  V30 5500 C 538.2 1.85257 -0.325823 0
M  V30 5501 O 537.558 1.66854 0.709194 0
M  V30 5502 C 537.606 2.35243 -2.73301 0
M  V30 5503 O 536.71 3.39646 -2.33911 0
M  V30 5504 H 536.051 0.371463 -0.550374 0
M  V30 5505 H 538.581 0.572696 -1.96421 0
M  V30 5506 H 538.591 2.80695 -2.96098 0
M  V30 5507 H 537.266 1.91574 -3.6915 0
M  V30 5508 H 535.843 2.99969 -2.21525 0
M  V30 5509 N 538.028 1.39524 0.732853 0
M  V30 5510 C 538.96 1.34318 1.85718 0
M  V30 5511 C 539.973 0.251576 1.60844 0
M  V30 5512 O 541.162 0.510685 1.71039 0
M  V30 5513 C 538.262 1.06334 3.21786 0
M  V30 5514 C 537.435 2.26813 3.73998 0
M  V30 5515 C 536.494 1.95253 4.88634 0
M  V30 5516 O 535.52 2.67957 5.02183 0
M  V30 5517 N 536.722 0.919984 5.73164 0
M  V30 5518 H 539.487 2.3121 1.90688 0
M  V30 5519 H 537.048 1.33654 0.91368 0
M  V30 5520 H 539.04 0.832363 3.96048 0
M  V30 5521 H 537.61 0.181682 3.12072 0
M  V30 5522 H 536.83 2.65849 2.91064 0
M  V30 5523 H 538.118 3.0717 4.05616 0
M  V30 5524 H 537.516 0.317487 5.64808 0
M  V30 5525 H 536.073 0.748905 6.47483 0
M  V30 5526 N 539.506 -0.963266 1.24736 0
M  V30 5527 C 540.454 -2.07985 1.04139 0
M  V30 5528 C 541.448 -1.69381 -0.0250556 0
M  V30 5529 O 542.654 -1.79531 0.129863 0
M  V30 5530 H 539.029 -0.680627 0.319768 0
M  V30 5531 H 541 -2.22517 1.98818 0
M  V30 5532 C 539.749 -3.4123 0.667615 0
M  V30 5533 H 539.072 -3.71397 1.48 0
M  V30 5534 H 540.512 -4.20244 0.563136 0
M  V30 5535 C 538.971 -3.3104 -0.625647 0
M  V30 5536 O 539.501 -3.65334 -1.67016 0
M  V30 5537 N 537.707 -2.84168 -0.608033 0
M  V30 5538 H 537.254 -2.56458 0.242323 0
M  V30 5539 H 537.212 -2.77732 -1.47352 0
M  V30 5540 N 540.985 -1.06182 -1.16461 0
M  V30 5541 C 541.895 -0.682671 -2.24448 0
M  V30 5542 C 542.911 0.30078 -1.71381 0
M  V30 5543 O 544.087 0.150376 -2.00838 0
M  V30 5544 C 541.152 -0.0737202 -3.46622 0
M  V30 5545 C 540.213 -1.10889 -4.14731 0
M  V30 5546 C 539.446 -0.528908 -5.31073 0
M  V30 5547 O 539.669 0.65868 -5.66584 0
M  V30 5548 O 538.603 -1.26805 -5.88391 0
M  V30 5549 H 542.429 -1.58291 -2.59187 0
M  V30 5550 H 540.014 -0.834013 -1.23954 0
M  V30 5551 H 541.896 0.264192 -4.20571 0
M  V30 5552 H 540.571 0.800015 -3.13658 0
M  V30 5553 H 539.478 -1.49896 -3.42756 0
M  V30 5554 H 540.811 -1.95412 -4.51747 0
M  V30 5555 N 542.463 1.3308 -0.844243 0
M  V30 5556 C 543.411 2.31028 -0.269954 0
M  V30 5557 C 544.405 1.58381 0.600997 0
M  V30 5558 O 545.611 1.73203 0.48996 0
M  V30 5559 H 541.986 0.748866 -0.0685782 0
M  V30 5560 H 543.957 2.76967 -1.11049 0
M  V30 5561 C 542.706 3.43549 0.535676 0
M  V30 5562 H 542.029 3.99604 -0.125202 0
M  V30 5563 H 543.469 4.14267 0.903262 0
M  V30 5564 C 541.928 2.8988 1.71672 0
M  V30 5565 O 542.458 2.86511 2.81557 0
M  V30 5566 N 540.664 2.46416 1.54037 0
M  V30 5567 H 540.211 2.49356 0.64649 0
M  V30 5568 H 540.169 2.1086 2.33207 0
M  V30 5569 N 543.941 0.601185 1.45683 0
M  V30 5570 C 544.888 -0.121396 2.30481 0
M  V30 5571 C 545.858 -0.866232 1.41724 0
M  V30 5572 O 547.043 -0.85324 1.70659 0
M  V30 5573 C 544.183 -1.11704 3.26521 0
M  V30 5574 C 543.296 -0.373741 4.3038 0
M  V30 5575 C 542.431 -1.35854 5.13534 0
M  V30 5576 C 541.47 -0.602689 6.09126 0
M  V30 5577 N 540.607 -1.53645 6.85082 0
M  V30 5578 H 545.447 0.607732 2.91737 0
M  V30 5579 H 542.984 0.311502 1.43764 0
M  V30 5580 H 544.942 -1.70735 3.80664 0
M  V30 5581 H 543.572 -1.81366 2.67032 0
M  V30 5582 H 542.624 0.331962 3.78949 0
M  V30 5583 H 543.936 0.2163 4.98331 0
M  V30 5584 H 543.09 -2.02111 5.72046 0
M  V30 5585 H 541.829 -1.98251 4.45587 0
M  V30 5586 H 540.834 0.0735482 5.49751 0
M  V30 5587 H 542.059 0.0161467 6.79098 0
M  V30 5588 H 540.005 -2.14819 6.1983 0
M  V30 5589 H 539.922 -0.999688 7.49361 0
M  V30 5590 H 541.19 -2.1888 7.48139 0
M  V30 5591 N 545.419 -1.53889 0.339982 0
M  V30 5592 C 546.367 -2.26391 -0.533822 0
M  V30 5593 C 547.361 -1.28404 -1.10493 0
M  V30 5594 O 548.567 -1.46124 -1.05108 0
M  V30 5595 H 544.942 -0.727385 -0.190828 0
M  V30 5596 H 546.913 -2.98233 0.0997484 0
M  V30 5597 C 545.662 -3.04707 -1.67479 0
M  V30 5598 H 544.985 -3.79934 -1.2446 0
M  V30 5599 H 546.425 -3.58657 -2.26144 0
M  V30 5600 C 544.884 -2.13989 -2.60212 0
M  V30 5601 O 545.414 -1.73361 -3.62366 0
M  V30 5602 N 543.62 -1.79141 -2.28816 0
M  V30 5603 H 543.167 -2.12378 -1.45785 0
M  V30 5604 H 543.125 -1.18725 -2.91121 0
M  V30 5605 N 546.897 -0.0685191 -1.57451 0
M  V30 5606 C 548.122 0.613919 -1.98106 0
M  V30 5607 C 548.547 1.62551 -0.946501 0
M  V30 5608 O 547.905 1.81085 0.0882824 0
M  V30 5609 C 547.953 1.26189 -3.378 0
M  V30 5610 O 547.057 2.37773 -3.36954 0
M  V30 5611 H 546.398 0.158163 -0.644888 0
M  V30 5612 H 548.928 -0.142063 -2.04106 0
M  V30 5613 H 548.938 1.60951 -3.74912 0
M  V30 5614 H 547.613 0.520625 -4.12629 0
M  V30 5615 H 546.19 2.04829 -3.11608 0
M  V30 5616 N 548.375 1.56261 0.205012 0
M  V30 5617 C 549.605 1.83874 0.942018 0
M  V30 5618 C 550.013 0.647595 1.77772 0
M  V30 5619 O 549.356 -0.393098 1.79445 0
M  V30 5620 C 549.418 3.05453 1.89575 0
M  V30 5621 C 549.082 4.39772 1.24296 0
M  V30 5622 C 550.079 5.16133 0.624724 0
M  V30 5623 C 547.764 4.86504 1.24978 0
M  V30 5624 C 549.758 6.37396 0.0220117 0
M  V30 5625 C 547.445 6.07705 0.643232 0
M  V30 5626 C 548.443 6.82993 0.0304164 0
M  V30 5627 O 548.131 8.019 -0.566654 0
M  V30 5628 H 547.863 0.614896 0.280854 0
M  V30 5629 H 550.417 2.04215 0.220285 0
M  V30 5630 H 548.647 2.80972 2.65691 0
M  V30 5631 H 550.336 3.19797 2.4997 0
M  V30 5632 H 551.102 4.81127 0.611666 0
M  V30 5633 H 546.981 4.27865 1.71616 0
M  V30 5634 H 550.525 6.96102 -0.456926 0
M  V30 5635 H 546.422 6.42181 0.653759 0
M  V30 5636 H 547.19 8.17192 -0.462588 0
M  V30 5637 N 549.853 -0.472356 1.50355 0
M  V30 5638 C 550.783 -1.57859 1.72055 0
M  V30 5639 C 551.764 -1.60283 0.569505 0
M  V30 5640 O 552.949 -1.7657 0.808503 0
M  V30 5641 C 550.079 -2.96191 1.81351 0
M  V30 5642 C 549.033 -3.08633 2.96529 0
M  V30 5643 C 548.359 -4.486 2.90968 0
M  V30 5644 C 549.659 -2.85969 4.37057 0
M  V30 5645 H 551.353 -1.39953 2.64676 0
M  V30 5646 H 548.899 -0.671846 1.27367 0
M  V30 5647 H 550.852 -3.73507 1.95117 0
M  V30 5648 H 549.576 -3.15251 0.853502 0
M  V30 5649 H 548.235 -2.33749 2.82413 0
M  V30 5650 H 547.883 -4.64577 1.92815 0
M  V30 5651 H 547.583 -4.57861 3.68289 0
M  V30 5652 H 549.107 -5.27938 3.0678 0
M  V30 5653 H 550.521 -3.53036 4.51706 0
M  V30 5654 H 548.918 -3.06677 5.15819 0
M  V30 5655 H 549.988 -1.81838 4.49514 0
M  V30 5656 N 551.331 -1.39911 -0.725443 0
M  V30 5657 C 552.571 -1.39096 -1.49772 0
M  V30 5658 C 552.935 0.0106452 -1.91997 0
M  V30 5659 O 554.136 0.143859 -2.68415 0
M  V30 5660 C 552.407 -2.34441 -2.69764 0
M  V30 5661 S 553.966 -2.51898 -3.59295 0
M  V30 5662 H 550.784 -0.49314 -0.512186 0
M  V30 5663 H 553.386 -1.76093 -0.849197 0
M  V30 5664 H 552.09 -3.35123 -2.36898 0
M  V30 5665 H 551.621 -1.98692 -3.39537 0
M  V30 5666 H 553.636 -1.76402 -4.63785 0
M  V30 5667 N 552.809 0.956637 -1.25245 0
M  V30 5668 C 553.757 2.0743 -1.0524 0
M  V30 5669 C 554.751 1.69392 0.0160725 0
M  V30 5670 O 555.957 1.7946 -0.139382 0
M  V30 5671 H 552.332 0.678921 -0.323373 0
M  V30 5672 H 554.303 2.2146 -1.99995 0
M  V30 5673 C 553.052 3.40872 -0.685702 0
M  V30 5674 H 552.375 3.70607 -1.49968 0
M  V30 5675 H 553.815 4.19939 -0.585415 0
M  V30 5676 C 552.274 3.31367 0.608082 0
M  V30 5677 O 552.804 3.66214 1.65076 0
M  V30 5678 N 551.01 2.84486 0.592955 0
M  V30 5679 H 550.557 2.56326 -0.25592 0
M  V30 5680 H 550.515 2.78509 1.45877 0
M  V30 5681 N 554.287 1.06798 1.15896 0
M  V30 5682 C 555.515 0.808694 1.90441 0
M  V30 5683 C 555.93 -0.637506 1.77711 0
M  V30 5684 O 555.287 -1.43684 1.12522 0
M  V30 5685 C 555.338 1.20068 3.40978 0
M  V30 5686 O 555.059 2.59013 3.53333 0
M  V30 5687 C 556.56 0.96987 4.3256 0
M  V30 5688 H 553.78 0.292809 0.603742 0
M  V30 5689 H 556.324 1.42296 1.46874 0
M  V30 5690 H 554.479 0.630842 3.82229 0
M  V30 5691 H 554.893 2.7485 4.46719 0
M  V30 5692 H 556.367 1.29371 5.36626 0
M  V30 5693 H 556.844 -0.0941209 4.39099 0
M  V30 5694 H 557.45 1.52433 3.97044 0
M  V30 5695 N 555.766 -1.3263 0.851289 0
M  V30 5696 C 557.014 -1.96978 0.452128 0
M  V30 5697 C 557.335 -1.67715 -0.99482 0
M  V30 5698 O 556.605 -0.98259 -1.69476 0
M  V30 5699 H 555.185 -0.72873 0.164202 0
M  V30 5700 H 557.847 -1.61774 1.08698 0
M  V30 5701 H 556.943 -3.06387 0.594407 0
M  V30 5702 N 557.244 -0.608902 -1.45362 0
M  V30 5703 C 558.492 -0.104401 -2.0183 0
M  V30 5704 C 558.813 1.27007 -1.47967 0
M  V30 5705 O 558.083 1.83924 -0.674455 0
M  V30 5706 H 556.663 -0.0356042 -0.746151 0
M  V30 5707 H 559.325 -0.790596 -1.78145 0
M  V30 5708 H 558.421 -0.0551793 -3.12051 0
M  V30 5709 N 558.722 1.53707 -0.348139 0
M  V30 5710 C 560.138 1.596 0.00361134 0
M  V30 5711 C 560.338 1.36394 1.4832 0
M  V30 5712 O 559.394 1.16046 2.24253 0
M  V30 5713 C 560.707 2.97512 -0.436682 0
M  V30 5714 C 562.255 3.10568 -0.389416 0
M  V30 5715 C 562.73 4.50866 -0.805249 0
M  V30 5716 N 564.221 4.56929 -0.759616 0
M  V30 5717 C 564.956 5.63643 -1.05327 0
M  V30 5718 N 564.452 6.78189 -1.41531 0
M  V30 5719 N 566.245 5.5354 -0.977207 0
M  V30 5720 H 558.396 1.67044 -1.31187 0
M  V30 5721 H 560.659 0.782559 -0.535075 0
M  V30 5722 H 560.365 3.19575 -1.46849 0
M  V30 5723 H 560.239 3.76742 0.185744 0
M  V30 5724 H 562.626 2.88226 0.633228 0
M  V30 5725 H 562.707 2.33387 -1.04711 0
M  V30 5726 H 562.351 4.73943 -1.82593 0
M  V30 5727 H 562.281 5.26452 -0.124989 0
M  V30 5728 H 564.772 3.74675 -0.49265 0
M  V30 5729 H 565.085 7.55541 -1.62411 0
M  V30 5730 H 563.43 6.79624 -1.45381 0
M  V30 5731 H 566.621 4.62932 -0.693675 0
M  V30 5732 H 566.794 6.36614 -1.2094 0
M  V30 5733 N 560.2 0.0768682 1.57412 0
M  V30 5734 C 561.133 -0.924685 2.08626 0
M  V30 5735 C 562.111 -1.28792 0.992542 0
M  V30 5736 O 563.295 -1.39634 1.26628 0
M  V30 5737 C 560.422 -2.23131 2.54814 0
M  V30 5738 C 559.468 -2.01928 3.75669 0
M  V30 5739 S 560.301 -1.27397 5.20125 0
M  V30 5740 C 561.457 -2.59329 5.69648 0
M  V30 5741 H 561.69 -0.488928 2.93252 0
M  V30 5742 H 559.223 -0.136014 1.538 0
M  V30 5743 H 561.181 -2.98226 2.82084 0
M  V30 5744 H 559.842 -2.63831 1.70447 0
M  V30 5745 H 559.035 -2.98639 4.05993 0
M  V30 5746 H 558.637 -1.34967 3.48798 0
M  V30 5747 H 560.929 -3.55394 5.76803 0
M  V30 5748 H 561.872 -2.33608 6.68456 0
M  V30 5749 H 562.28 -2.66767 4.9749 0
M  V30 5750 N 561.678 -1.56367 -0.196722 0
M  V30 5751 C 562.628 -1.9082 -1.24787 0
M  V30 5752 C 563.612 -0.773719 -1.41076 0
M  V30 5753 O 564.804 -1.03655 -1.43474 0
M  V30 5754 C 561.933 -2.24982 -2.59303 0
M  V30 5755 C 561.019 -3.44882 -2.46814 0
M  V30 5756 N 561.41 -4.62835 -2.04003 0
M  V30 5757 C 559.708 -3.48988 -2.77711 0
M  V30 5758 C 560.409 -5.44993 -2.03366 0
M  V30 5759 N 559.385 -4.85356 -2.44807 0
M  V30 5760 H 563.187 -2.79516 -0.908175 0
M  V30 5761 H 560.701 -1.57265 -0.405166 0
M  V30 5762 H 562.698 -2.47848 -3.35227 0
M  V30 5763 H 561.358 -1.37611 -2.94098 0
M  V30 5764 H 562.369 -4.87532 -1.74738 0
M  V30 5765 H 559.046 -2.72029 -3.16712 0
M  V30 5766 H 560.436 -6.49464 -1.72181 0
M  V30 5767 N 563.156 0.464375 -1.50603 0
M  V30 5768 C 564.086 1.56944 -1.72889 0
M  V30 5769 C 565.067 1.59979 -0.577997 0
M  V30 5770 O 566.252 1.76138 -0.817855 0
M  V30 5771 C 563.382 2.95225 -1.8292 0
M  V30 5772 C 562.336 3.07056 -2.98162 0
M  V30 5773 C 561.662 4.47051 -2.93343 0
M  V30 5774 C 562.962 2.83648 -4.38567 0
M  V30 5775 H 564.656 1.38547 -2.65415 0
M  V30 5776 H 562.202 0.665082 -1.27721 0
M  V30 5777 H 564.155 3.72467 -1.97095 0
M  V30 5778 H 562.879 3.14793 -0.870209 0
M  V30 5779 H 561.538 2.32248 -2.83648 0
M  V30 5780 H 561.186 4.63547 -1.95276 0
M  V30 5781 H 560.886 4.55902 -3.70712 0
M  V30 5782 H 562.41 5.26304 -3.09575 0
M  V30 5783 H 563.824 3.50636 -4.53572 0
M  V30 5784 H 562.221 3.03937 -5.17438 0
M  V30 5785 H 563.291 1.79451 -4.50472 0
M  V30 5786 N 564.634 1.40294 0.718013 0
M  V30 5787 C 565.88 1.38645 1.48005 0
M  V30 5788 C 566.213 -0.0121202 1.94196 0
M  V30 5789 O 565.488 -0.980309 1.67989 0
M  V30 5790 C 565.771 2.37379 2.70782 0
M  V30 5791 C 565.624 3.8625 2.30501 0
M  V30 5792 C 566.943 2.33685 3.72933 0
M  V30 5793 H 564.062 0.504928 0.536858 0
M  V30 5794 H 566.704 1.71411 0.819649 0
M  V30 5795 H 564.854 2.09568 3.27129 0
M  V30 5796 H 566.526 4.24879 1.79655 0
M  V30 5797 H 564.769 4.02202 1.6253 0
M  V30 5798 H 565.44 4.50847 3.18498 0
M  V30 5799 H 567.916 2.58314 3.2621 0
M  V30 5800 H 566.792 3.0482 4.56482 0
M  V30 5801 H 567.053 1.34765 4.21059 0
M  V30 5802 N 566.112 -0.949982 1.2575 0
M  V30 5803 C 567.352 -1.70994 1.11984 0
M  V30 5804 C 567.716 -1.89095 -0.332746 0
M  V30 5805 O 568.917 -2.62192 -0.592331 0
M  V30 5806 C 567.188 -3.05286 1.85837 0
M  V30 5807 S 568.747 -3.96477 1.88019 0
M  V30 5808 H 565.565 -0.587689 0.400178 0
M  V30 5809 H 568.167 -1.13271 1.59342 0
M  V30 5810 H 566.871 -2.89785 2.90608 0
M  V30 5811 H 566.402 -3.68069 1.38885 0
M  V30 5812 H 568.417 -4.86814 0.96057 0
M  V30 5813 N 567.59 -1.07411 -1.15328 0
M  V30 5814 C 569.001 -0.820261 -1.67716 0
M  V30 5815 C 569.352 0.654539 -1.8496 0
M  V30 5816 O 568.477 1.50664 -1.55337 0
M  V30 5817 C 569.072 -1.48242 -3.04647 0
M  V30 5818 C 567.631 -1.27606 -3.5411 0
M  V30 5819 C 566.778 -1.5517 -2.29821 0
M  V30 5820 H 569.729 -1.23608 -0.995332 0
M  V30 5821 H 569.75 -0.903984 -3.69606 0
M  V30 5822 H 569.262 -2.55578 -2.92064 0
M  V30 5823 H 567.363 -0.222948 -3.71932 0
M  V30 5824 H 567.476 -1.99667 -4.35511 0
M  V30 5825 H 565.84 -0.972747 -2.35393 0
M  V30 5826 H 566.623 -2.63689 -2.19824 0
M  V30 5827 N 569.068 1.32177 -0.85831 0
M  V30 5828 C 569.998 2.31282 -0.321041 0
M  V30 5829 C 570.979 1.59841 0.581786 0
M  V30 5830 O 572.164 1.87619 0.501262 0
M  V30 5831 C 569.294 3.4385 0.48832 0
M  V30 5832 C 568.248 4.26799 -0.320391 0
M  V30 5833 C 567.574 5.31164 0.613934 0
M  V30 5834 C 568.874 4.98829 -1.54813 0
M  V30 5835 H 570.568 2.76469 -1.14915 0
M  V30 5836 H 568.114 1.32916 -0.554028 0
M  V30 5837 H 570.067 4.12224 0.874626 0
M  V30 5838 H 568.791 2.97401 1.34983 0
M  V30 5839 H 567.45 3.60077 -0.688497 0
M  V30 5840 H 567.098 4.80967 1.47239 0
M  V30 5841 H 566.798 5.8755 0.0768097 0
M  V30 5842 H 568.322 6.024 0.997336 0
M  V30 5843 H 569.736 5.59864 -1.23392 0
M  V30 5844 H 568.133 5.64957 -2.02346 0
M  V30 5845 H 569.203 4.26483 -2.30739 0
M  V30 5846 N 570.547 0.616602 1.45037 0
M  V30 5847 C 571.772 0.120192 2.07051 0
M  V30 5848 C 572.197 -1.19008 1.45666 0
M  V30 5849 O 571.555 -1.7267 0.552692 0
M  V30 5850 C 571.603 0.00354901 3.606 0
M  V30 5851 O 570.707 -1.04431 3.98958 0
M  V30 5852 H 570.048 0.0781599 0.659384 0
M  V30 5853 H 572.578 0.849167 1.86146 0
M  V30 5854 H 572.588 -0.191754 4.07549 0
M  V30 5855 H 571.263 0.960239 4.04663 0
M  V30 5856 H 569.84 -0.824749 3.63665 0
M  V30 5857 N 572.025 -1.5352 0.356285 0
M  V30 5858 C 572.972 -2.25439 -0.494569 0
M  V30 5859 C 573.942 -1.25752 -1.08516 0
M  V30 5860 O 575.127 -1.54513 -1.1194 0
M  V30 5861 C 572.267 -3.04011 -1.63313 0
M  V30 5862 C 571.38 -4.18574 -1.06862 0
M  V30 5863 C 570.515 -4.84607 -2.17552 0
M  V30 5864 C 569.554 -5.91218 -1.58518 0
M  V30 5865 N 568.691 -6.50979 -2.63003 0
M  V30 5866 H 573.531 -2.97737 0.125244 0
M  V30 5867 H 571.068 -1.46916 0.0735789 0
M  V30 5868 H 573.026 -3.47834 -2.30363 0
M  V30 5869 H 571.656 -2.33986 -2.22374 0
M  V30 5870 H 570.708 -3.79303 -0.288672 0
M  V30 5871 H 572.02 -4.95215 -0.596924 0
M  V30 5872 H 571.174 -5.31566 -2.92442 0
M  V30 5873 H 569.913 -4.07418 -2.6807 0
M  V30 5874 H 568.918 -5.4363 -0.821391 0
M  V30 5875 H 570.143 -6.70322 -1.08836 0
M  V30 5876 H 568.089 -5.76648 -3.12751 0
M  V30 5877 H 568.006 -7.23131 -2.20493 0
M  V30 5878 H 569.274 -7.02589 -3.37623 0
M  V30 5879 N 573.503 -0.0852151 -1.57369 0
M  V30 5880 C 574.728 0.592872 -1.98746 0
M  V30 5881 C 575.153 1.61538 -0.963689 0
M  V30 5882 O 574.511 1.81168 0.069071 0
M  V30 5883 C 574.559 1.22599 -3.39119 0
M  V30 5884 O 573.663 2.34185 -3.39457 0
M  V30 5885 H 573.004 0.151314 -0.646529 0
M  V30 5886 H 575.534 -0.163703 -2.03944 0
M  V30 5887 H 575.544 1.56965 -3.76598 0
M  V30 5888 H 574.219 0.476831 -4.13158 0
M  V30 5889 H 572.796 2.01512 -3.13763 0
M  V30 5890 N 574.981 1.5647 0.188427 0
M  V30 5891 C 576.392 1.70864 0.752494 0
M  V30 5892 C 576.743 0.692905 1.83557 0
M  V30 5893 O 575.868 -0.149307 2.15884 0
M  V30 5894 C 576.463 3.09789 1.37173 0
M  V30 5895 C 575.022 3.25925 1.88281 0
M  V30 5896 C 574.169 2.66817 0.755259 0
M  V30 5897 H 577.12 1.58657 -0.0367408 0
M  V30 5898 H 577.141 3.07489 2.24122 0
M  V30 5899 H 576.653 3.83693 0.583219 0
M  V30 5900 H 574.754 2.56948 2.6983 0
M  V30 5901 H 574.867 4.33498 2.04001 0
M  V30 5902 H 573.231 2.2617 1.17128 0
M  V30 5903 H 574.014 3.43294 -0.0211237 0
M  V30 5904 N 576.459 -0.456382 1.50847 0
M  V30 5905 C 577.689 -1.22848 1.66108 0
M  V30 5906 C 578.097 -1.85936 0.349897 0
M  V30 5907 O 577.44 -1.70664 -0.679665 0
M  V30 5908 C 577.502 -2.36722 2.70561 0
M  V30 5909 C 577.166 -1.94154 4.13707 0
M  V30 5910 C 578.163 -1.4557 4.99105 0
M  V30 5911 C 575.848 -2.02426 4.59705 0
M  V30 5912 C 577.842 -1.0582 6.28555 0
M  V30 5913 C 575.529 -1.62287 5.89157 0
M  V30 5914 C 576.527 -1.14064 6.73408 0
M  V30 5915 O 576.215 -0.744873 8.00442 0
M  V30 5916 H 575.947 -0.377105 0.561042 0
M  V30 5917 H 578.501 -0.549431 1.97915 0
M  V30 5918 H 576.731 -3.07844 2.34027 0
M  V30 5919 H 578.42 -2.98646 2.74892 0
M  V30 5920 H 579.186 -1.38589 4.64777 0
M  V30 5921 H 575.065 -2.38908 3.94264 0
M  V30 5922 H 578.609 -0.6811 6.94267 0
M  V30 5923 H 574.506 -1.68932 6.23003 0
M  V30 5924 H 575.274 -0.87242 8.13837 0
M  V30 5925 N 577.937 -1.40673 -0.710563 0
M  V30 5926 C 579.183 -1.39428 -1.47267 0
M  V30 5927 C 579.516 0.00182129 -1.942 0
M  V30 5928 O 578.791 0.971387 -1.68506 0
M  V30 5929 C 579.074 -2.38812 -2.6952 0
M  V30 5930 C 578.927 -3.87467 -2.28449 0
M  V30 5931 C 580.246 -2.3566 -3.71689 0
M  V30 5932 H 577.365 -0.507768 -0.534173 0
M  V30 5933 H 580.007 -1.71843 -0.810547 0
M  V30 5934 H 578.157 -2.113 -3.26013 0
M  V30 5935 H 579.829 -4.25825 -1.77399 0
M  V30 5936 H 578.072 -4.03058 -1.60395 0
M  V30 5937 H 578.743 -4.5253 -3.16103 0
M  V30 5938 H 581.219 -2.6004 -3.24836 0
M  V30 5939 H 580.095 -3.07237 -4.54859 0
M  V30 5940 H 580.356 -1.36996 -4.20339 0
M  V30 5941 N 579.415 0.9433 -1.26252 0
M  V30 5942 C 580.692 1.66639 -1.02424 0
M  V30 5943 C 581.072 2.06335 0.446006 0
M  V30 5944 O 580.42 1.78551 1.42589 0
M  V30 5945 C 580.63 2.88019 -1.97094 0
M  V30 5946 C 581.978 3.59718 -2.25584 0
M  V30 5947 O 583.002 2.9812 -1.94943 0
M  V30 5948 O 581.861 4.7066 -2.77743 0
M  V30 5949 H 578.955 0.729643 -0.389294 0
M  V30 5950 H 581.501 0.995218 -1.37454 0
M  V30 5951 H 580.273 2.5556 -2.96319 0
M  V30 5952 H 579.896 3.62863 -1.62532 0
M  V30 5953 N 580.893 1.08022 1.14757 0
M  V30 5954 C 582.304 0.829144 1.67279 0
M  V30 5955 C 582.655 -0.644721 1.85305 0
M  V30 5956 O 581.78 -1.49838 1.56133 0
M  V30 5957 C 582.375 1.49855 3.03857 0
M  V30 5958 C 580.934 1.29482 3.53428 0
M  V30 5959 C 580.081 1.56386 2.28995 0
M  V30 5960 H 583.032 1.24134 0.988762 0
M  V30 5961 H 583.053 0.923572 3.69121 0
M  V30 5962 H 582.565 2.57123 2.90705 0
M  V30 5963 H 580.666 0.242669 3.71809 0
M  V30 5964 H 580.779 2.01974 4.34446 0
M  V30 5965 H 579.143 0.985217 2.34874 0
M  V30 5966 H 579.926 2.64851 2.18423 0
M  V30 5967 N 582.371 -1.3172 0.865308 0
M  V30 5968 C 583.321 -2.26157 0.289305 0
M  V30 5969 C 584.305 -1.50428 -0.570977 0
M  V30 5970 O 585.497 -1.71978 -0.418617 0
M  V30 5971 C 582.626 -3.39457 -0.512237 0
M  V30 5972 C 581.712 -4.22561 0.361028 0
M  V30 5973 N 582.103 -4.84501 1.45231 0
M  V30 5974 C 580.401 -4.45739 0.152641 0
M  V30 5975 C 581.102 -5.46586 1.99043 0
M  V30 5976 N 580.078 -5.28119 1.28809 0
M  V30 5977 H 583.88 -2.71581 1.12344 0
M  V30 5978 H 581.394 -1.45932 0.712565 0
M  V30 5979 H 583.391 -4.06133 -0.941379 0
M  V30 5980 H 582.051 -2.95577 -1.34404 0
M  V30 5981 H 583.062 -4.84293 1.83524 0
M  V30 5982 H 579.739 -4.1251 -0.643583 0
M  V30 5983 H 581.129 -6.05817 2.90577 0
M  V30 5984 N 583.85 -0.624285 -1.44708 0
M  V30 5985 C 584.797 0.0847135 -2.30644 0
M  V30 5986 C 585.767 0.843575 -1.43084 0
M  V30 5987 O 586.952 0.825982 -1.71995 0
M  V30 5988 C 584.091 1.06495 -3.28257 0
M  V30 5989 C 583.205 0.305224 -4.3092 0
M  V30 5990 C 582.34 1.27667 -5.1563 0
M  V30 5991 C 581.379 0.505706 -6.10007 0
M  V30 5992 N 580.516 1.42727 -6.8744 0
M  V30 5993 H 585.356 -0.654068 -2.90733 0
M  V30 5994 H 582.893 -0.334334 -1.4325 0
M  V30 5995 H 584.851 1.64658 -3.83332 0
M  V30 5996 H 583.481 1.77094 -2.69884 0
M  V30 5997 H 582.533 -0.392207 -3.78373 0
M  V30 5998 H 583.845 -0.295553 -4.97924 0
M  V30 5999 H 582.999 1.92984 -5.75189 0
M  V30 6000 H 581.738 1.91137 -4.48685 0
M  V30 6001 H 580.743 -0.160999 -5.49564 0
M  V30 6002 H 581.968 -0.124183 -6.78986 0
M  V30 6003 H 579.913 2.04931 -6.23169 0
M  V30 6004 H 579.831 0.880345 -7.50857 0
M  V30 6005 H 581.099 2.0695 -7.51526 0
M  V30 6006 N 585.328 1.53329 -0.364422 0
M  V30 6007 C 586.553 2.06132 0.229033 0
M  V30 6008 C 586.978 1.23625 1.41769 0
M  V30 6009 O 586.336 0.255038 1.79497 0
M  V30 6010 C 586.384 3.55544 0.60174 0
M  V30 6011 O 585.488 3.75771 1.69912 0
M  V30 6012 H 584.829 0.663148 0.0336213 0
M  V30 6013 H 587.359 1.97758 -0.524689 0
M  V30 6014 H 587.369 3.98549 0.873073 0
M  V30 6015 H 586.044 4.15039 -0.267421 0
M  V30 6016 H 584.621 3.44663 1.42343 0
M  V30 6017 N 586.806 0.0935595 1.57322 0
M  V30 6018 C 588.054 -0.569383 1.93913 0
M  V30 6019 C 588.375 -1.68817 0.976009 0
M  V30 6020 O 587.645 -1.9588 0.0278099 0
M  V30 6021 H 586.225 -0.21332 0.715894 0
M  V30 6022 H 588.887 0.156531 1.9427 0
M  V30 6023 H 587.983 -0.980577 2.96296 0
M  V30 6024 N 588.284 -1.56567 -0.180126 0
M  V30 6025 C 589.234 -1.92132 -1.22756 0
M  V30 6026 C 590.218 -0.788639 -1.40247 0
M  V30 6027 O 591.41 -1.05171 -1.42366 0
M  V30 6028 C 588.539 -2.27719 -2.56902 0
M  V30 6029 C 587.625 -3.47481 -2.43142 0
M  V30 6030 N 588.016 -4.64973 -1.99082 0
M  V30 6031 C 586.314 -3.51914 -2.73994 0
M  V30 6032 C 587.015 -5.47119 -1.97574 0
M  V30 6033 N 585.991 -4.87925 -2.39645 0
M  V30 6034 H 589.793 -2.80464 -0.878478 0
M  V30 6035 H 587.307 -1.57686 -0.388463 0
M  V30 6036 H 589.304 -2.51389 -3.32579 0
M  V30 6037 H 587.964 -1.40722 -2.92621 0
M  V30 6038 H 588.975 -4.89358 -1.69557 0
M  V30 6039 H 585.652 -2.75372 -3.13809 0
M  V30 6040 H 587.042 -6.51254 -1.65282 0
M  V30 6041 N 589.762 0.448376 -1.51087 0
M  V30 6042 C 590.672 1.56882 -1.74428 0
M  V30 6043 C 591.688 1.62268 -0.62809 0
M  V30 6044 O 592.864 1.79716 -0.909075 0
M  V30 6045 C 589.929 2.92947 -1.85426 0
M  V30 6046 C 588.99 2.97766 -3.09247 0
M  V30 6047 C 588.223 4.27341 -3.19711 0
M  V30 6048 O 588.446 5.19112 -2.36387 0
M  V30 6049 O 587.38 4.38219 -4.12611 0
M  V30 6050 H 591.206 1.40104 -2.69452 0
M  V30 6051 H 588.791 0.630247 -1.35456 0
M  V30 6052 H 590.673 3.73719 -1.94709 0
M  V30 6053 H 589.348 3.09876 -0.935887 0
M  V30 6054 H 588.255 2.15989 -3.0545 0
M  V30 6055 H 589.588 2.8578 -4.00738 0
M  V30 6056 N 591.24 1.41047 0.703093 0
M  V30 6057 C 592.489 1.39301 1.4587 0
M  V30 6058 C 592.802 0.00267077 1.956 0
M  V30 6059 O 594.008 -0.137414 2.71152 0
M  V30 6060 C 592.464 2.44891 2.63735 0
M  V30 6061 C 592.072 3.89796 2.20824 0
M  V30 6062 C 593.816 2.5227 3.41409 0
M  V30 6063 C 591.723 4.86955 3.35602 0
M  V30 6064 H 590.653 0.518005 0.547893 0
M  V30 6065 H 593.304 1.66839 0.764009 0
M  V30 6066 H 591.686 2.10472 3.35436 0
M  V30 6067 H 592.86 4.33424 1.56461 0
M  V30 6068 H 591.175 3.86008 1.56163 0
M  V30 6069 H 593.772 3.22044 4.26839 0
M  V30 6070 H 594.115 1.55714 3.86081 0
M  V30 6071 H 594.648 2.85742 2.7676 0
M  V30 6072 H 591.387 5.84888 2.9595 0
M  V30 6073 H 590.907 4.47982 3.98839 0
M  V30 6074 H 592.586 5.07361 4.01489 0
M  V30 6075 N 592.718 -0.936591 1.26751 0
M  V30 6076 C 593.964 -1.68625 1.13741 0
M  V30 6077 C 594.319 -1.898 -0.315221 0
M  V30 6078 O 593.612 -1.47088 -1.22783 0
M  V30 6079 C 593.806 -3.06099 1.84494 0
M  V30 6080 C 593.635 -2.98338 3.36488 0
M  V30 6081 C 592.405 -3.01104 4.05789 0
M  V30 6082 C 594.603 -2.78128 4.32608 0
M  V30 6083 N 592.585 -2.8369 5.4442 0
M  V30 6084 C 593.956 -2.69329 5.58446 0
M  V30 6085 C 596.011 -2.62946 4.22804 0
M  V30 6086 C 594.714 -2.46899 6.75598 0
M  V30 6087 C 596.74 -2.41892 5.39669 0
M  V30 6088 C 596.102 -2.33829 6.64457 0
M  V30 6089 H 592.201 -0.624227 0.471025 0
M  V30 6090 H 594.785 -1.10798 1.601 0
M  V30 6091 H 592.956 -3.62057 1.40604 0
M  V30 6092 H 594.688 -3.69951 1.64067 0
M  V30 6093 H 591.443 -3.10992 3.57185 0
M  V30 6094 H 591.867 -2.78138 6.17226 0
M  V30 6095 H 596.509 -2.67944 3.27056 0
M  V30 6096 H 594.227 -2.40642 7.71438 0
M  V30 6097 H 597.813 -2.31043 5.33957 0
M  V30 6098 H 596.693 -2.17754 7.53361 0
M  V30 6099 N 594.196 -1.08629 -1.14182 0
M  V30 6100 C 595.106 -0.730126 -2.22949 0
M  V30 6101 C 596.122 0.26436 -1.7198 0
M  V30 6102 O 597.298 0.107742 -2.01112 0
M  V30 6103 C 594.363 -0.147227 -3.46387 0
M  V30 6104 C 593.424 -1.19662 -4.12286 0
M  V30 6105 C 592.657 -0.641437 -5.29831 0
M  V30 6106 O 592.88 0.538351 -5.67854 0
M  V30 6107 O 591.814 -1.39257 -5.85569 0
M  V30 6108 H 595.64 -1.63753 -2.55771 0
M  V30 6109 H 593.225 -0.860118 -1.22157 0
M  V30 6110 H 595.107 0.174923 -4.21037 0
M  V30 6111 H 593.782 0.733304 -3.15285 0
M  V30 6112 H 592.689 -1.57133 -3.395 0
M  V30 6113 H 594.022 -2.0495 -4.475 0
M  V30 6114 N 595.674 1.31259 -0.872281 0
M  V30 6115 C 596.584 2.32221 -0.333255 0
M  V30 6116 C 597.6 1.6481 0.558013 0
M  V30 6117 O 598.776 1.96212 0.454175 0
M  V30 6118 C 595.841 3.43708 0.454479 0
M  V30 6119 C 594.902 4.26774 -0.465024 0
M  V30 6120 C 594.135 5.32937 0.28521 0
M  V30 6121 O 594.358 5.49968 1.513 0
M  V30 6122 O 593.292 6.00834 -0.358126 0
M  V30 6123 H 597.118 2.80252 -1.17016 0
M  V30 6124 H 594.703 1.352 -0.635724 0
M  V30 6125 H 596.585 4.11656 0.900963 0
M  V30 6126 H 595.26 2.97836 1.26789 0
M  V30 6127 H 594.167 3.61571 -0.960055 0
M  V30 6128 H 595.5 4.76217 -1.2441 0
M  V30 6129 N 597.152 0.631951 1.44375 0
M  V30 6130 C 598.399 0.136767 2.02038 0
M  V30 6131 C 598.727 -1.24168 1.49709 0
M  V30 6132 O 597.982 -1.83809 0.671763 0
M  V30 6133 C 598.281 0.0735861 3.57324 0
M  V30 6134 C 597.947 1.39092 4.28911 0
M  V30 6135 C 596.609 1.75171 4.48184 0
M  V30 6136 C 598.961 2.26042 4.69632 0
M  V30 6137 C 596.289 2.97907 5.05439 0
M  V30 6138 C 598.641 3.4805 5.28246 0
M  V30 6139 C 597.305 3.84351 5.45738 0
M  V30 6140 H 596.575 0.0500466 0.739308 0
M  V30 6141 H 599.222 0.818429 1.7313 0
M  V30 6142 H 597.527 -0.691449 3.8565 0
M  V30 6143 H 599.224 -0.326091 3.99672 0
M  V30 6144 H 595.814 1.10015 4.1424 0
M  V30 6145 H 599.998 1.99463 4.54454 0
M  V30 6146 H 595.254 3.26108 5.17169 0
M  V30 6147 H 599.428 4.15658 5.5875 0
M  V30 6148 H 597.055 4.79538 5.8987 0
M  V30 6149 N 598.631 -1.53133 0.372548 0
M  V30 6150 C 599.856 -2.0625 -0.218098 0
M  V30 6151 C 600.281 -1.24375 -1.41111 0
M  V30 6152 O 599.639 -0.264554 -1.79359 0
M  V30 6153 C 599.687 -3.55858 -0.582876 0
M  V30 6154 O 598.791 -3.76667 -1.67917 0
M  V30 6155 H 598.132 -0.663317 -0.030104 0
M  V30 6156 H 600.662 -1.97477 0.535169 0
M  V30 6157 H 600.672 -3.99007 -0.851925 0
M  V30 6158 H 599.347 -4.14892 0.289428 0
M  V30 6159 H 597.924 -3.45413 -1.40513 0
M  V30 6160 N 600.109 -0.101901 -1.5727 0
M  V30 6161 C 601.042 0.891377 -2.10071 0
M  V30 6162 C 602.02 1.27197 -1.01291 0
M  V30 6163 O 603.204 1.37602 -1.28833 0
M  V30 6164 C 600.331 2.19049 -2.58331 0
M  V30 6165 C 599.377 1.95925 -3.78834 0
M  V30 6166 S 600.21 1.19106 -5.22086 0
M  V30 6167 C 601.366 2.50234 -5.73702 0
M  V30 6168 H 601.599 0.442212 -2.93993 0
M  V30 6169 H 599.132 0.111529 -1.53997 0
M  V30 6170 H 601.09 2.937 -2.86793 0
M  V30 6171 H 599.751 2.61086 -1.74622 0
M  V30 6172 H 598.944 2.92143 -4.10693 0
M  V30 6173 H 598.546 1.29401 -3.50901 0
M  V30 6174 H 600.838 3.46173 -5.82384 0
M  V30 6175 H 601.781 2.22944 -6.72088 0
M  V30 6176 H 602.189 2.58818 -5.01671 0
M  V30 6177 N 601.587 1.56661 0.17182 0
M  V30 6178 C 602.812 1.86459 0.908165 0
M  V30 6179 C 603.237 0.688181 1.75059 0
M  V30 6180 O 602.595 -0.362753 1.77634 0
M  V30 6181 C 602.643 3.14669 1.76112 0
M  V30 6182 O 601.747 2.96858 2.86268 0
M  V30 6183 H 601.088 0.613318 0.254434 0
M  V30 6184 H 603.618 2.03892 0.170113 0
M  V30 6185 H 603.628 3.46061 2.16115 0
M  V30 6186 H 602.303 3.99905 1.14233 0
M  V30 6187 H 600.88 2.76819 2.49852 0
M  V30 6188 N 603.065 -0.440357 1.51323 0
M  V30 6189 C 604.312 -1.19004 1.63842 0
M  V30 6190 C 604.64 -1.91266 0.35321 0
M  V30 6191 O 603.895 -1.84143 -0.662565 0
M  V30 6192 C 604.194 -2.2339 2.78984 0
M  V30 6193 C 603.86 -1.68162 4.18369 0
M  V30 6194 C 602.522 -1.52823 4.56288 0
M  V30 6195 C 604.874 -1.27524 5.05358 0
M  V30 6196 C 602.202 -0.953157 5.78906 0
M  V30 6197 C 604.554 -0.714474 6.28552 0
M  V30 6198 C 603.218 -0.547961 6.65247 0
M  V30 6199 H 602.488 -0.435468 0.59954 0
M  V30 6200 H 605.135 -0.481538 1.85347 0
M  V30 6201 H 603.44 -3.00267 2.51688 0
M  V30 6202 H 605.137 -2.81211 2.85869 0
M  V30 6203 H 601.727 -1.81077 3.8847 0
M  V30 6204 H 605.911 -1.38197 4.76671 0
M  V30 6205 H 601.167 -0.811882 6.05986 0
M  V30 6206 H 605.341 -0.391059 6.95301 0
M  V30 6207 H 602.968 -0.100222 7.60134 0
M  V30 6208 N 604.543 -1.41418 -0.695603 0
M  V30 6209 C 605.771 -1.4413 -1.48439 0
M  V30 6210 C 606.186 -0.0465698 -1.88743 0
M  V30 6211 O 605.543 0.934117 -1.56782 0
M  V30 6212 C 605.594 -2.34998 -2.74696 0
M  V30 6213 O 605.315 -3.69043 -2.36091 0
M  V30 6214 C 606.816 -2.46513 -3.68438 0
M  V30 6215 H 604.036 -0.490905 -0.457442 0
M  V30 6216 H 606.58 -1.85702 -0.856454 0
M  V30 6217 H 604.735 -1.96735 -3.33728 0
M  V30 6218 H 605.149 -4.17505 -3.17474 0
M  V30 6219 H 606.623 -3.1426 -4.53811 0
M  V30 6220 H 607.1 -1.49638 -4.12922 0
M  V30 6221 H 607.706 -2.85412 -3.1531 0
M  V30 6222 N 606.021 0.929856 -1.27246 0
M  V30 6223 C 607.432 1.49223 -1.12203 0
M  V30 6224 C 607.783 1.93989 0.293731 0
M  V30 6225 O 606.908 1.80978 1.18642 0
M  V30 6226 C 607.503 2.71198 -2.0307 0
M  V30 6227 C 606.062 3.23666 -1.92139 0
M  V30 6228 C 605.209 1.96409 -1.95752 0
M  V30 6229 H 608.16 0.744181 -1.4017 0
M  V30 6230 H 608.181 3.45905 -1.58524 0
M  V30 6231 H 607.693 2.38585 -3.06102 0
M  V30 6232 H 605.794 3.61042 -0.920834 0
M  V30 6233 H 605.907 3.90006 -2.78267 0
M  V30 6234 H 604.271 2.12806 -1.39949 0
M  V30 6235 H 605.054 1.66113 -3.00436 0
M  V30 6236 N 607.499 1.09233 1.13605 0
M  V30 6237 C 608.462 0.733553 2.17144 0
M  V30 6238 C 609.462 -0.235873 1.59061 0
M  V30 6239 O 610.652 -0.0143167 1.74194 0
M  V30 6240 C 607.784 0.084471 3.40795 0
M  V30 6241 H 608.977 1.65049 2.50397 0
M  V30 6242 H 606.53 0.891264 1.28399 0
M  V30 6243 H 607.265 -0.843795 3.1313 0
M  V30 6244 H 607.05 0.781985 3.84223 0
M  V30 6245 H 608.54 -0.151216 4.17326 0
M  V30 6246 N 608.977 -1.30795 0.87923 0
M  V30 6247 C 610.223 -1.96653 0.495519 0
M  V30 6248 C 610.556 -1.69282 -0.951703 0
M  V30 6249 O 609.831 -0.994374 -1.6716 0
M  V30 6250 C 610.114 -3.51898 0.764174 0
M  V30 6251 C 609.967 -3.88808 2.2616 0
M  V30 6252 C 611.286 -4.39462 0.236825 0
M  V30 6253 H 608.405 -0.7143 0.181507 0
M  V30 6254 H 611.047 -1.54765 1.10217 0
M  V30 6255 H 609.197 -3.87709 0.247841 0
M  V30 6256 H 610.869 -3.63051 2.8459 0
M  V30 6257 H 609.112 -3.37082 2.73053 0
M  V30 6258 H 609.783 -4.97086 2.4002 0
M  V30 6259 H 612.259 -4.10528 0.678683 0
M  V30 6260 H 611.135 -5.47018 0.454176 0
M  V30 6261 H 611.396 -4.33621 -0.861683 0
M  V30 6262 N 610.455 -0.639598 -1.44038 0
M  V30 6263 C 611.402 0.0602458 -2.30721 0
M  V30 6264 C 612.372 0.828352 -1.43971 0
M  V30 6265 O 613.557 0.807693 -1.72861 0
M  V30 6266 C 610.697 1.03008 -3.29368 0
M  V30 6267 C 609.81 0.259502 -4.3122 0
M  V30 6268 C 608.945 1.22191 -5.16955 0
M  V30 6269 C 607.984 0.440978 -6.10509 0
M  V30 6270 N 607.121 1.35428 -6.88915 0
M  V30 6271 H 611.961 -0.684867 -2.90023 0
M  V30 6272 H 609.498 -0.349509 -1.42888 0
M  V30 6273 H 611.456 1.60583 -3.85057 0
M  V30 6274 H 610.086 1.74222 -2.71747 0
M  V30 6275 H 609.138 -0.432317 -3.77935 0
M  V30 6276 H 610.45 -0.348347 -4.97582 0
M  V30 6277 H 609.604 1.86873 -5.77203 0
M  V30 6278 H 608.343 1.86367 -4.50687 0
M  V30 6279 H 607.348 -0.219279 -5.49363 0
M  V30 6280 H 608.573 -0.196192 -6.78817 0
M  V30 6281 H 606.519 1.9831 -6.25307 0
M  V30 6282 H 606.436 0.800657 -7.51748 0
M  V30 6283 H 607.704 1.98967 -7.53679 0
M  V30 6284 N 611.933 1.52934 -0.380664 0
M  V30 6285 C 612.843 2.29921 0.466192 0
M  V30 6286 C 613.859 1.36488 1.07922 0
M  V30 6287 O 615.035 1.69553 1.0869 0
M  V30 6288 C 612.1 3.08468 1.58266 0
M  V30 6289 C 611.161 4.17595 0.995627 0
M  V30 6290 C 610.394 4.92387 2.05889 0
M  V30 6291 O 610.617 4.67184 3.27254 0
M  V30 6292 O 609.551 5.77949 1.68102 0
M  V30 6293 H 613.377 3.03274 -0.160735 0
M  V30 6294 H 610.962 1.48698 -0.144617 0
M  V30 6295 H 612.844 3.57469 2.23145 0
M  V30 6296 H 611.519 2.37937 2.19471 0
M  V30 6297 H 610.426 3.72811 0.310332 0
M  V30 6298 H 611.759 4.90336 0.427918 0
M  V30 6299 N 613.412 0.11024 1.57214 0
M  V30 6300 C 614.658 -0.550684 1.9518 0
M  V30 6301 C 614.991 -1.66885 0.993122 0
M  V30 6302 O 614.266 -1.94479 0.0287907 0
M  V30 6303 C 614.549 -1.09163 3.43155 0
M  V30 6304 C 614.402 0.0225198 4.49794 0
M  V30 6305 C 615.721 -1.98527 3.92778 0
M  V30 6306 H 612.84 -0.198706 0.709708 0
M  V30 6307 H 615.482 0.184024 1.89107 0
M  V30 6308 H 613.632 -1.71775 3.48462 0
M  V30 6309 H 615.304 0.657443 4.56591 0
M  V30 6310 H 613.547 0.686868 4.28328 0
M  V30 6311 H 614.218 -0.39706 5.5057 0
M  V30 6312 H 616.694 -1.458 3.8972 0
M  V30 6313 H 615.57 -2.33298 4.96853 0
M  V30 6314 H 615.831 -2.90846 3.32958 0
M  V30 6315 N 614.89 -1.56749 -0.16351 0
M  V30 6316 C 616.136 -1.82704 -0.880168 0
M  V30 6317 C 616.469 -0.689311 -1.81555 0
M  V30 6318 O 615.744 0.308224 -1.92042 0
M  V30 6319 C 616.027 -3.19084 -1.66905 0
M  V30 6320 C 615.88 -4.43397 -0.756269 0
M  V30 6321 C 617.199 -3.52493 -2.63509 0
M  V30 6322 H 614.318 -0.664608 -0.318535 0
M  V30 6323 H 616.96 -1.89438 -0.146036 0
M  V30 6324 H 615.11 -3.13475 -2.2949 0
M  V30 6325 H 616.782 -4.61079 -0.14269 0
M  V30 6326 H 615.025 -4.33752 -0.0647944 0
M  V30 6327 H 615.696 -5.3539 -1.34393 0
M  V30 6328 H 618.172 -3.58606 -2.11047 0
M  V30 6329 H 617.048 -4.48979 -3.15767 0
M  V30 6330 H 617.309 -2.77597 -3.44082 0
M  V30 6331 N 616.368 0.432326 -1.51554 0
M  V30 6332 C 617.278 1.55023 -1.76082 0
M  V30 6333 C 618.294 1.61593 -0.645265 0
M  V30 6334 O 619.47 1.78742 -0.928086 0
M  V30 6335 C 616.535 2.90964 -1.88523 0
M  V30 6336 C 615.596 2.9447 -3.12388 0
M  V30 6337 C 614.829 4.23926 -3.24225 0
M  V30 6338 O 615.052 5.16576 -2.4188 0
M  V30 6339 O 613.986 4.33818 -4.17235 0
M  V30 6340 H 617.812 1.37238 -2.70923 0
M  V30 6341 H 615.397 0.615845 -1.36117 0
M  V30 6342 H 617.279 3.71633 -1.98662 0
M  V30 6343 H 615.954 3.08865 -0.9687 0
M  V30 6344 H 614.861 2.12737 -3.07723 0
M  V30 6345 H 616.194 2.81514 -4.03746 0
M  V30 6346 N 617.846 1.41785 0.688094 0
M  V30 6347 C 619.093 1.41544 1.44816 0
M  V30 6348 C 619.421 0.0271746 1.94481 0
M  V30 6349 O 618.676 -0.962235 1.7041 0
M  V30 6350 C 618.975 2.37532 2.67046 0
M  V30 6351 C 618.641 3.84209 2.35996 0
M  V30 6352 C 617.303 4.24165 2.27239 0
M  V30 6353 C 619.655 4.76785 2.10536 0
M  V30 6354 C 616.983 5.54695 1.91128 0
M  V30 6355 C 619.335 6.07644 1.75931 0
M  V30 6356 C 617.999 6.46613 1.65675 0
M  V30 6357 H 617.269 0.517945 0.529919 0
M  V30 6358 H 619.916 1.74635 0.785797 0
M  V30 6359 H 618.221 1.9772 3.38251 0
M  V30 6360 H 619.918 2.34615 3.25203 0
M  V30 6361 H 616.508 3.52567 2.4371 0
M  V30 6362 H 620.692 4.46714 2.16242 0
M  V30 6363 H 615.948 5.83762 1.81746 0
M  V30 6364 H 620.122 6.78874 1.55252 0
M  V30 6365 H 617.749 7.47668 1.37463 0
M  V30 6366 N 619.324 -0.923095 1.27737 0
M  V30 6367 C 620.287 -2.00587 1.10894 0
M  V30 6368 C 621.287 -1.60718 0.0514927 0
M  V30 6369 O 622.477 -1.71658 0.296481 0
M  V30 6370 C 619.609 -3.33829 0.690717 0
M  V30 6371 H 620.802 -2.16959 2.07048 0
M  V30 6372 H 618.355 -1.10451 1.1059 0
M  V30 6373 H 619.09 -3.23157 -0.272 0
M  V30 6374 H 618.875 -3.64125 1.45448 0
M  V30 6375 H 620.365 -4.13336 0.595252 0
M  V30 6376 N 620.802 -1.09834 -1.13024 0
M  V30 6377 C 621.749 -0.741522 -2.18564 0
M  V30 6378 C 622.719 0.279236 -1.63736 0
M  V30 6379 O 623.904 0.159923 -1.90129 0
M  V30 6380 C 621.044 -0.17277 -3.44667 0
M  V30 6381 C 620.157 -1.24808 -4.13578 0
M  V30 6382 C 619.292 -0.641631 -5.27311 0
M  V30 6383 C 618.331 -1.69795 -5.88078 0
M  V30 6384 N 617.468 -1.11223 -6.93234 0
M  V30 6385 H 622.308 -1.64576 -2.48432 0
M  V30 6386 H 619.845 -0.822174 -1.21978 0
M  V30 6387 H 621.803 0.17482 -4.16834 0
M  V30 6388 H 620.433 0.694725 -3.15235 0
M  V30 6389 H 619.485 -1.71288 -3.39653 0
M  V30 6390 H 620.797 -2.04795 -4.54819 0
M  V30 6391 H 619.951 -0.243128 -6.06213 0
M  V30 6392 H 618.69 0.189742 -4.87331 0
M  V30 6393 H 617.695 -2.10595 -5.07868 0
M  V30 6394 H 618.92 -2.53206 -6.3013 0
M  V30 6395 H 616.866 -0.302208 -6.55304 0
M  V30 6396 H 616.783 -1.84901 -7.3304 0
M  V30 6397 H 618.051 -0.740068 -7.75979 0
M  V30 6398 N 622.28 1.30327 -0.886154 0
M  V30 6399 C 623.696 1.48676 -0.580323 0
M  V30 6400 C 623.896 1.81189 0.881639 0
M  V30 6401 O 622.952 1.90021 1.66278 0
M  V30 6402 C 624.265 2.60932 -1.49449 0
M  V30 6403 C 625.813 2.74812 -1.49824 0
M  V30 6404 C 626.288 3.90183 -2.39836 0
M  V30 6405 N 627.779 3.97495 -2.37806 0
M  V30 6406 C 628.514 4.86078 -3.04165 0
M  V30 6407 N 628.01 5.79448 -3.79753 0
M  V30 6408 N 629.803 4.79456 -2.93391 0
M  V30 6409 H 621.954 1.07495 -1.8319 0
M  V30 6410 H 624.217 0.532661 -0.784204 0
M  V30 6411 H 623.923 2.43731 -2.5355 0
M  V30 6412 H 623.797 3.57437 -1.20494 0
M  V30 6413 H 626.184 2.91418 -0.464731 0
M  V30 6414 H 626.265 1.78924 -1.82811 0
M  V30 6415 H 625.909 3.74334 -3.43273 0
M  V30 6416 H 625.839 4.85411 -2.04166 0
M  V30 6417 H 628.33 3.30703 -1.82877 0
M  V30 6418 H 628.643 6.43805 -4.27475 0
M  V30 6419 H 626.988 5.79376 -3.8386 0
M  V30 6420 H 630.179 4.05494 -2.33864 0
M  V30 6421 H 630.352 5.48283 -3.45383 0
M  V30 6422 N 623.758 0.647228 1.43697 0
M  V30 6423 C 625.007 0.155552 2.01099 0
M  V30 6424 C 625.32 -1.23569 1.51624 0
M  V30 6425 O 626.526 -1.82226 2.01261 0
M  V30 6426 C 624.982 0.227296 3.59182 0
M  V30 6427 C 624.59 1.62086 4.17651 0
M  V30 6428 C 626.334 -0.207085 4.23995 0
M  V30 6429 C 624.241 1.64685 5.68008 0
M  V30 6430 H 623.171 0.0543895 0.752036 0
M  V30 6431 H 625.822 0.808386 1.64734 0
M  V30 6432 H 624.204 -0.492937 3.9292 0
M  V30 6433 H 625.378 2.36597 3.95422 0
M  V30 6434 H 623.693 2.0007 3.65186 0
M  V30 6435 H 626.29 -0.207426 5.34298 0
M  V30 6436 H 626.633 -1.23742 3.97484 0
M  V30 6437 H 627.166 0.461193 3.95118 0
M  V30 6438 H 623.905 2.65608 5.99277 0
M  V30 6439 H 623.425 0.944914 5.9231 0
M  V30 6440 H 625.104 1.38792 6.31938 0
M  V30 6441 N 625.236 -1.5273 0.388769 0
M  V30 6442 C 626.647 -1.86505 -0.0853788 0
M  V30 6443 C 626.998 -1.30847 -1.46197 0
M  V30 6444 O 626.123 -0.639609 -2.06732 0
M  V30 6445 C 626.718 -3.38414 -0.161703 0
M  V30 6446 C 625.277 -3.71902 -0.580144 0
M  V30 6447 C 624.424 -2.76095 0.258218 0
M  V30 6448 H 627.375 -1.46647 0.606665 0
M  V30 6449 H 627.396 -3.67638 -0.980936 0
M  V30 6450 H 626.908 -3.78893 0.840333 0
M  V30 6451 H 625.009 -3.36992 -1.58957 0
M  V30 6452 H 625.122 -4.77902 -0.338663 0
M  V30 6453 H 623.486 -2.53195 -0.276432 0
M  V30 6454 H 624.269 -3.19411 1.25822 0
M  V30 6455 N 626.714 -0.118576 -1.57153 0
M  V30 6456 C 627.962 0.538461 -1.94795 0
M  V30 6457 C 628.283 1.67243 -1.00274 0
M  V30 6458 O 627.553 1.95811 -0.0589692 0
M  V30 6459 H 626.133 0.201904 -0.719197 0
M  V30 6460 H 628.795 -0.187418 -1.93997 0
M  V30 6461 H 627.891 0.933315 -2.97818 0
M  V30 6462 N 628.193 1.56834 0.155195 0
M  V30 6463 C 629.44 1.82898 0.869179 0
M  V30 6464 C 629.768 0.698194 1.81537 0
M  V30 6465 O 629.023 -0.313404 1.93174 0
M  V30 6466 C 629.322 3.15239 1.68402 0
M  V30 6467 C 628.988 4.42123 0.885341 0
M  V30 6468 C 627.65 4.76583 0.664971 0
M  V30 6469 C 630.002 5.20178 0.326234 0
M  V30 6470 C 627.33 5.86566 -0.125346 0
M  V30 6471 C 629.682 6.3099 -0.45108 0
M  V30 6472 C 628.346 6.64006 -0.682102 0
M  V30 6473 H 627.616 0.66927 0.318055 0
M  V30 6474 H 630.263 1.91036 0.133241 0
M  V30 6475 H 628.568 3.02515 2.48982 0
M  V30 6476 H 630.265 3.32618 2.23978 0
M  V30 6477 H 626.855 4.15102 1.06716 0
M  V30 6478 H 631.039 4.93936 0.483787 0
M  V30 6479 H 626.295 6.10594 -0.313915 0
M  V30 6480 H 630.469 6.9067 -0.89149 0
M  V30 6481 H 628.096 7.49065 -1.29636 0
M  V30 6482 N 629.671 -0.424282 1.51781 0
M  V30 6483 C 631.087 -0.761768 1.40247 0
M  V30 6484 C 631.287 -1.95324 0.495041 0
M  V30 6485 O 630.343 -2.5246 -0.0448949 0
M  V30 6486 C 631.656 -1.0299 2.82513 0
M  V30 6487 C 633.204 -1.13354 2.91753 0
M  V30 6488 C 633.679 -1.43453 4.34954 0
M  V30 6489 N 635.17 -1.5035 4.3812 0
M  V30 6490 C 635.905 -1.75236 5.45967 0
M  V30 6491 N 635.401 -1.97827 6.63955 0
M  V30 6492 N 637.194 -1.77126 5.33463 0
M  V30 6493 H 629.345 0.360228 2.09323 0
M  V30 6494 H 631.608 0.0988128 0.942836 0
M  V30 6495 H 631.314 -0.226961 3.50967 0
M  V30 6496 H 631.188 -1.95411 3.22637 0
M  V30 6497 H 633.575 -1.92709 2.23489 0
M  V30 6498 H 633.656 -0.188041 2.55108 0
M  V30 6499 H 633.3 -0.646209 5.03772 0
M  V30 6500 H 633.23 -2.3923 4.69123 0
M  V30 6501 H 635.721 -1.34742 3.53062 0
M  V30 6502 H 636.034 -2.16223 7.41935 0
M  V30 6503 H 634.379 -1.95123 6.67047 0
M  V30 6504 H 637.57 -1.59005 4.40267 0
M  V30 6505 H 637.743 -1.96182 6.17589 0
M  V30 6506 N 631.149 -1.42148 -0.680565 0
M  V30 6507 C 632.426 -1.32795 -1.43614 0
M  V30 6508 C 632.806 0.037415 -2.11067 0
M  V30 6509 O 632.154 1.05258 -2.02813 0
M  V30 6510 C 632.364 -2.49206 -2.44331 0
M  V30 6511 C 633.712 -2.91059 -3.09144 0
M  V30 6512 O 634.736 -2.49054 -2.54657 0
M  V30 6513 O 633.595 -3.63741 -4.07866 0
M  V30 6514 H 630.689 -0.523397 -0.640301 0
M  V30 6515 H 633.235 -1.54144 -0.709775 0
M  V30 6516 H 632.007 -3.40252 -1.93247 0
M  V30 6517 H 631.63 -2.29813 -3.24456 0
M  V30 6518 N 632.627 0.916307 -1.28225 0
M  V30 6519 C 633.557 2.0352 -1.14464 0
M  V30 6520 C 634.538 1.70045 -0.0430844 0
M  V30 6521 O 635.723 1.92954 -0.219619 0
M  V30 6522 C 632.853 3.37889 -0.803027 0
M  V30 6523 C 631.807 3.85516 -1.85908 0
M  V30 6524 C 631.133 5.1682 -1.37116 0
M  V30 6525 C 632.433 4.07655 -3.26519 0
M  V30 6526 H 634.127 2.1529 -2.08064 0
M  V30 6527 H 631.673 1.03446 -1.00174 0
M  V30 6528 H 633.626 4.15654 -0.693537 0
M  V30 6529 H 632.35 3.26164 0.168674 0
M  V30 6530 H 631.009 3.09953 -1.95767 0
M  V30 6531 H 630.657 5.01497 -0.38859 0
M  V30 6532 H 630.357 5.49657 -2.07728 0
M  V30 6533 H 631.881 5.97143 -1.27484 0
M  V30 6534 H 633.295 4.75953 -3.19596 0
M  V30 6535 H 631.692 4.51818 -3.94943 0
M  V30 6536 H 632.762 3.12553 -3.70727 0
M  V30 6537 N 634.105 1.10431 1.1244 0
M  V30 6538 C 635.33 0.869089 1.88313 0
M  V30 6539 C 635.755 -0.574912 1.79099 0
M  V30 6540 O 635.113 -1.40496 1.14589 0
M  V30 6541 C 635.161 1.32208 3.3549 0
M  V30 6542 O 634.265 0.487092 4.09513 0
M  V30 6543 H 633.606 0.313894 0.585121 0
M  V30 6544 H 636.136 1.47111 1.42195 0
M  V30 6545 H 636.146 1.31201 3.86329 0
M  V30 6546 H 634.821 2.37364 3.41513 0
M  V30 6547 H 633.398 0.562372 3.68635 0
M  V30 6548 N 635.583 -1.29855 0.893053 0
M  V30 6549 C 636.515 -2.26911 0.32311 0
M  V30 6550 C 637.528 -1.54039 -0.526858 0
M  V30 6551 O 638.717 -1.75132 -0.345095 0
M  V30 6552 C 635.817 -3.34266 -0.558509 0
M  V30 6553 C 634.99 -4.36601 0.264222 0
M  V30 6554 C 634.049 -5.23326 -0.549171 0
M  V30 6555 O 633.075 -5.69192 0.0309883 0
M  V30 6556 N 634.277 -5.50008 -1.85664 0
M  V30 6557 H 637.042 -2.76455 1.15726 0
M  V30 6558 H 634.603 -1.4312 0.756859 0
M  V30 6559 H 636.595 -3.89211 -1.1089 0
M  V30 6560 H 635.165 -2.8459 -1.29334 0
M  V30 6561 H 634.385 -3.81409 0.996046 0
M  V30 6562 H 635.673 -5.02019 0.827906 0
M  V30 6563 H 635.071 -5.14542 -2.35081 0
M  V30 6564 H 633.628 -6.07796 -2.35431 0
M  V30 6565 N 637.061 -0.65484 -1.43351 0
M  V30 6566 C 638.011 0.0581325 -2.27926 0
M  V30 6567 C 638.995 0.793188 -1.3999 0
M  V30 6568 O 640.187 0.675387 -1.63608 0
M  V30 6569 C 637.316 1.02272 -3.27712 0
M  V30 6570 C 636.402 0.286048 -4.23134 0
M  V30 6571 N 636.793 -0.698298 -5.00957 0
M  V30 6572 C 635.091 0.527272 -4.42872 0
M  V30 6573 C 635.792 -1.1357 -5.70506 0
M  V30 6574 N 634.768 -0.469631 -5.41568 0
M  V30 6575 H 638.57 -0.697182 -2.85511 0
M  V30 6576 H 636.084 -0.482252 -1.55074 0
M  V30 6577 H 638.081 1.5483 -3.87083 0
M  V30 6578 H 636.741 1.77807 -2.71688 0
M  V30 6579 H 637.752 -1.07708 -5.06576 0
M  V30 6580 H 634.429 1.26367 -3.97916 0
M  V30 6581 H 635.819 -1.95027 -6.42973 0
M  V30 6582 N 638.539 1.52521 -0.396863 0
M  V30 6583 C 639.816 1.94112 0.240842 0
M  V30 6584 C 640.196 1.33288 1.637 0
M  V30 6585 O 639.544 0.503901 2.22875 0
M  V30 6586 C 639.754 3.48033 0.259567 0
M  V30 6587 C 641.102 4.21822 0.484866 0
M  V30 6588 O 642.126 3.54579 0.339453 0
M  V30 6589 O 640.985 5.41042 0.770412 0
M  V30 6590 H 638.079 0.812973 0.151671 0
M  V30 6591 H 640.625 1.63572 -0.451918 0
M  V30 6592 H 639.397 3.84655 -0.718078 0
M  V30 6593 H 639.02 3.84899 0.996937 0
M  V30 6594 N 640.017 0.126909 1.57088 0
M  V30 6595 C 640.949 -0.850973 2.12817 0
M  V30 6596 C 641.962 -1.22457 1.07276 0
M  V30 6597 O 643.151 -1.17215 1.34622 0
M  V30 6598 C 640.251 -2.15039 2.61938 0
M  V30 6599 C 639.424 -1.94726 3.91664 0
M  V30 6600 C 638.483 -3.0847 4.26301 0
M  V30 6601 O 637.509 -2.81038 4.94981 0
M  V30 6602 N 638.711 -4.35116 3.84259 0
M  V30 6603 H 641.476 -0.3748 2.97347 0
M  V30 6604 H 639.037 -0.0572793 1.61799 0
M  V30 6605 H 641.029 -2.90141 2.82135 0
M  V30 6606 H 639.599 -2.5398 1.82244 0
M  V30 6607 H 638.819 -1.03772 3.80296 0
M  V30 6608 H 640.107 -1.78469 4.76473 0
M  V30 6609 H 639.505 -4.60276 3.2888 0
M  V30 6610 H 638.062 -5.07064 4.09548 0
M  V30 6611 N 641.495 -1.56914 -0.146875 0
M  V30 6612 C 642.741 -1.83628 -0.860741 0
M  V30 6613 C 643.074 -0.708528 -1.80813 0
M  V30 6614 O 642.349 0.287838 -1.92358 0
M  V30 6615 C 642.632 -3.20836 -1.63511 0
M  V30 6616 C 642.485 -4.44174 -0.709199 0
M  V30 6617 C 643.804 -3.55268 -2.59756 0
M  V30 6618 H 640.923 -0.667949 -0.311468 0
M  V30 6619 H 643.565 -1.89582 -0.125936 0
M  V30 6620 H 641.715 -3.15891 -2.26153 0
M  V30 6621 H 643.387 -4.61205 -0.0937781 0
M  V30 6622 H 641.63 -4.33796 -0.0187856 0
M  V30 6623 H 642.301 -5.36785 -1.28707 0
M  V30 6624 H 644.777 -3.60824 -2.07232 0
M  V30 6625 H 643.653 -4.52303 -3.10987 0
M  V30 6626 H 643.914 -2.81231 -3.41118 0
M  V30 6627 N 642.974 0.416227 -1.52004 0
M  V30 6628 C 643.922 1.5272 -1.7544 0
M  V30 6629 C 644.916 1.57596 -0.621289 0
M  V30 6630 O 646.122 1.61087 -0.803172 0
M  V30 6631 H 642.497 0.507772 -0.554682 0
M  V30 6632 H 644.468 1.30136 -2.68528 0
M  V30 6633 C 643.217 2.90165 -1.91571 0
M  V30 6634 H 642.54 2.87154 -2.78178 0
M  V30 6635 H 643.98 3.67211 -2.11972 0
M  V30 6636 C 642.439 3.29947 -0.680942 0
M  V30 6637 O 642.969 4.01403 0.154527 0
M  V30 6638 N 641.175 2.8593 -0.518894 0
M  V30 6639 H 640.722 2.2795 -1.19986 0
M  V30 6640 H 640.68 3.12907 0.305985 0
M  V30 6641 N 644.452 1.42507 0.673017 0
M  V30 6642 C 645.382 1.48916 1.79851 0
M  V30 6643 C 646.363 0.345566 1.66553 0
M  V30 6644 O 647.548 0.560116 1.85947 0
M  V30 6645 C 644.678 1.39258 3.18158 0
M  V30 6646 C 643.632 2.51662 3.46194 0
M  V30 6647 C 642.958 2.27062 4.84094 0
M  V30 6648 C 644.258 3.93968 3.42909 0
M  V30 6649 H 645.952 2.43114 1.74745 0
M  V30 6650 H 643.498 1.17013 0.839288 0
M  V30 6651 H 645.451 1.42349 3.96629 0
M  V30 6652 H 644.175 0.415542 3.23946 0
M  V30 6653 H 642.834 2.47891 2.70084 0
M  V30 6654 H 642.482 1.27648 4.86534 0
M  V30 6655 H 642.182 3.02398 5.03815 0
M  V30 6656 H 643.706 2.31905 5.64847 0
M  V30 6657 H 645.12 3.99332 4.11347 0
M  V30 6658 H 643.517 4.6917 3.74165 0
M  V30 6659 H 644.587 4.20512 2.41449 0
M  V30 6660 N 645.93 -0.909495 1.28709 0
M  V30 6661 C 646.86 -2.0291 1.15542 0
M  V30 6662 C 647.841 -1.7002 0.0521017 0
M  V30 6663 O 649.026 -1.92835 0.229849 0
M  V30 6664 C 646.156 -3.37458 0.820935 0
M  V30 6665 C 645.11 -3.84524 1.87949 0
M  V30 6666 C 644.436 -5.16086 1.39854 0
M  V30 6667 C 645.736 -4.05918 3.28676 0
M  V30 6668 H 647.43 -2.14183 2.09203 0
M  V30 6669 H 644.976 -1.02913 1.00722 0
M  V30 6670 H 646.929 -4.1528 0.715571 0
M  V30 6671 H 645.653 -3.26249 -0.151374 0
M  V30 6672 H 644.312 -3.08911 1.97408 0
M  V30 6673 H 643.96 -5.01284 0.41518 0
M  V30 6674 H 643.66 -5.48547 2.1064 0
M  V30 6675 H 645.184 -5.96459 1.30649 0
M  V30 6676 H 646.598 -4.74252 3.22115 0
M  V30 6677 H 644.995 -4.49717 3.97334 0
M  V30 6678 H 646.065 -3.10583 3.72379 0
M  V30 6679 N 647.408 -1.11026 -1.11852 0
M  V30 6680 C 648.355 -0.764662 -2.17765 0
M  V30 6681 C 649.325 0.261854 -1.64023 0
M  V30 6682 O 650.51 0.139748 -1.90288 0
M  V30 6683 C 647.65 -0.209317 -3.44465 0
M  V30 6684 C 646.763 -1.29187 -4.12231 0
M  V30 6685 C 645.898 -0.697523 -5.266 0
M  V30 6686 C 644.937 -1.76023 -5.86244 0
M  V30 6687 N 644.074 -1.18569 -6.92016 0
M  V30 6688 H 648.914 -1.67202 -2.46673 0
M  V30 6689 H 646.451 -0.835065 -1.21099 0
M  V30 6690 H 648.409 0.130599 -4.16996 0
M  V30 6691 H 647.039 0.661251 -3.15955 0
M  V30 6692 H 646.091 -1.74881 -3.37818 0
M  V30 6693 H 647.403 -2.09607 -4.52622 0
M  V30 6694 H 646.557 -0.307412 -6.05921 0
M  V30 6695 H 645.296 0.138044 -4.87505 0
M  V30 6696 H 644.301 -2.1597 -5.05606 0
M  V30 6697 H 645.526 -2.59875 -6.27409 0
M  V30 6698 H 643.472 -0.371695 -6.54946 0
M  V30 6699 H 643.389 -1.92666 -7.31038 0
M  V30 6700 H 644.657 -0.82233 -7.7515 0
M  V30 6701 N 648.886 1.2938 -0.899927 0
M  V30 6702 C 649.849 2.25983 -0.382677 0
M  V30 6703 C 650.849 1.53366 0.483259 0
M  V30 6704 O 652.039 1.71798 0.28828 0
M  V30 6705 C 649.171 3.37878 0.452915 0
M  V30 6706 H 650.364 2.73252 -1.23586 0
M  V30 6707 H 647.917 1.40825 -0.678088 0
M  V30 6708 H 648.652 2.95949 1.32608 0
M  V30 6709 H 648.437 3.91742 -0.167562 0
M  V30 6710 H 649.927 4.09746 0.806107 0
M  V30 6711 N 650.364 0.662433 1.43002 0
M  V30 6712 C 651.612 0.179237 2.01304 0
M  V30 6713 C 651.933 -1.21428 1.52579 0
M  V30 6714 O 651.203 -1.81294 0.742252 0
M  V30 6715 H 649.783 0.0632725 0.744316 0
M  V30 6716 H 652.445 0.856169 1.75088 0
M  V30 6717 H 651.541 0.170957 3.11631 0
M  V30 6718 N 651.842 -1.52309 0.404946 0
M  V30 6719 C 653.07 -2.06185 -0.171818 0
M  V30 6720 C 653.485 -1.27536 -1.39212 0
M  V30 6721 O 652.842 -0.326112 -1.79563 0
M  V30 6722 C 652.893 -3.57647 -0.526417 0
M  V30 6723 O 652.614 -4.3332 0.645417 0
M  V30 6724 C 654.115 -4.27925 -1.15736 0
M  V30 6725 H 651.335 -0.670632 -0.0222328 0
M  V30 6726 H 653.879 -1.96259 0.574692 0
M  V30 6727 H 652.034 -3.67595 -1.22282 0
M  V30 6728 H 652.448 -5.23328 0.35042 0
M  V30 6729 H 653.922 -5.35093 -1.35572 0
M  V30 6730 H 654.399 -3.84134 -2.12926 0
M  V30 6731 H 655.005 -4.22335 -0.501281 0
M  V30 6732 N 653.32 -0.135238 -1.57019 0
M  V30 6733 C 654.567 0.518794 -1.95742 0
M  V30 6734 C 654.895 1.65642 -1.01947 0
M  V30 6735 O 654.15 1.95645 -0.0464016 0
M  V30 6736 C 654.449 1.07694 -3.40788 0
M  V30 6737 C 654.115 0.058992 -4.50861 0
M  V30 6738 C 652.777 -0.220872 -4.80693 0
M  V30 6739 C 655.129 -0.633856 -5.17331 0
M  V30 6740 C 652.457 -1.19959 -5.74305 0
M  V30 6741 C 654.809 -1.60131 -6.11997 0
M  V30 6742 C 653.473 -1.889 -6.40213 0
M  V30 6743 H 652.743 0.18984 -0.716269 0
M  V30 6744 H 655.39 -0.219581 -1.90237 0
M  V30 6745 H 653.695 1.89241 -3.43067 0
M  V30 6746 H 655.392 1.59137 -3.68071 0
M  V30 6747 H 651.982 0.287304 -4.27636 0
M  V30 6748 H 656.166 -0.430823 -4.94427 0
M  V30 6749 H 651.422 -1.42905 -5.94465 0
M  V30 6750 H 655.596 -2.14376 -6.62583 0
M  V30 6751 H 653.223 -2.64891 -7.12556 0
M  V30 6752 N 654.798 1.5699 0.138552 0
M  V30 6753 C 655.708 2.02174 1.19008 0
M  V30 6754 C 656.724 0.938622 1.46512 0
M  V30 6755 O 657.9 1.24872 1.58016 0
M  V30 6756 C 654.965 2.40045 2.50159 0
M  V30 6757 C 654.026 3.62346 2.30226 0
M  V30 6758 C 653.259 3.98401 3.55123 0
M  V30 6759 O 653.482 3.35019 4.61647 0
M  V30 6760 O 652.416 4.91606 3.47285 0
M  V30 6761 H 656.242 2.91954 0.836452 0
M  V30 6762 H 653.827 1.45293 0.347907 0
M  V30 6763 H 655.709 2.65225 3.27465 0
M  V30 6764 H 654.384 1.53417 2.85035 0
M  V30 6765 H 653.291 3.42341 1.50843 0
M  V30 6766 H 654.624 4.49617 2.00262 0
M  V30 6767 N 656.276 -0.40816 1.52223 0
M  V30 6768 C 657.522 -1.15673 1.66576 0
M  V30 6769 C 657.855 -1.90141 0.394996 0
M  V30 6770 O 657.13 -1.84798 -0.606613 0
M  V30 6771 C 657.413 -2.15042 2.88841 0
M  V30 6772 C 657.266 -1.44465 4.25969 0
M  V30 6773 C 658.585 -3.15699 3.0663 0
M  V30 6774 H 655.704 -0.41916 0.606196 0
M  V30 6775 H 658.346 -0.442348 1.84779 0
M  V30 6776 H 656.496 -2.75964 2.73452 0
M  V30 6777 H 658.168 -0.866544 4.53088 0
M  V30 6778 H 656.411 -0.746612 4.27327 0
M  V30 6779 H 657.082 -2.16976 5.07568 0
M  V30 6780 H 659.558 -2.64854 3.20923 0
M  V30 6781 H 658.434 -3.82491 3.9369 0
M  V30 6782 H 658.695 -3.83481 2.19987 0
M  V30 6783 N 657.755 -1.42862 -0.66545 0
M  V30 6784 C 658.685 -1.49867 -1.79059 0
M  V30 6785 C 659.666 -0.354394 -1.66367 0
M  V30 6786 O 660.851 -0.569969 -1.85647 0
M  V30 6787 C 657.981 -1.40943 -3.17415 0
M  V30 6788 C 656.935 -2.53495 -3.44854 0
M  V30 6789 C 656.261 -2.29626 -4.82883 0
M  V30 6790 C 657.561 -3.95781 -3.40815 0
M  V30 6791 H 659.255 -2.44037 -1.73453 0
M  V30 6792 H 656.801 -1.17456 -0.833071 0
M  V30 6793 H 658.754 -1.4445 -3.95869 0
M  V30 6794 H 657.478 -0.432716 -3.23721 0
M  V30 6795 H 656.137 -2.4932 -2.68766 0
M  V30 6796 H 655.785 -1.30226 -4.8585 0
M  V30 6797 H 655.485 -3.05065 -5.02204 0
M  V30 6798 H 657.009 -2.34897 -5.63609 0
M  V30 6799 H 658.423 -4.01508 -4.09224 0
M  V30 6800 H 656.82 -4.71148 -3.71672 0
M  V30 6801 H 657.89 -4.21786 -2.39216 0
M  V30 6802 N 659.233 0.902656 -1.29189 0
M  V30 6803 C 660.166 2.00816 -1.0839 0
M  V30 6804 C 661.144 1.626 0.00335266 0
M  V30 6805 O 662.328 1.87928 -0.146765 0
M  V30 6806 C 659.455 3.32415 -0.649435 0
M  V30 6807 C 658.501 3.89617 -1.73496 0
M  V30 6808 S 659.334 4.19091 -3.33351 0
M  V30 6809 C 660.49 5.53736 -2.91766 0
M  V30 6810 H 660.723 2.18151 -2.01984 0
M  V30 6811 H 658.256 1.0489 -1.13303 0
M  V30 6812 H 660.214 4.08492 -0.405479 0
M  V30 6813 H 658.875 3.12964 0.266857 0
M  V30 6814 H 658.068 4.84658 -1.38284 0
M  V30 6815 H 657.67 3.20217 -1.93229 0
M  V30 6816 H 659.962 6.34085 -2.38627 0
M  V30 6817 H 660.905 5.93871 -3.85647 0
M  V30 6818 H 661.313 5.15453 -2.30149 0
M  V30 6819 N 660.711 1.11618 1.11262 0
M  V30 6820 C 661.957 0.867463 1.83311 0
M  V30 6821 C 662.29 -0.605366 1.84524 0
M  V30 6822 O 661.565 -1.44704 1.29965 0
M  V30 6823 C 661.848 1.43207 3.30399 0
M  V30 6824 C 661.701 2.97265 3.3757 0
M  V30 6825 C 663.02 1.08454 4.26528 0
M  V30 6826 H 660.139 0.316578 0.665543 0
M  V30 6827 H 662.781 1.38137 1.30454 0
M  V30 6828 H 660.931 0.994982 3.75543 0
M  V30 6829 H 662.603 3.49591 3.00971 0
M  V30 6830 H 660.846 3.33237 2.77733 0
M  V30 6831 H 661.517 3.31859 4.41105 0
M  V30 6832 H 663.993 1.4619 3.89574 0
M  V30 6833 H 662.869 1.50633 5.27826 0
M  V30 6834 H 663.13 -0.00444568 4.421 0
M  V30 6835 N 662.189 -1.289 0.906776 0
M  V30 6836 C 663.605 -1.47733 0.603902 0
M  V30 6837 C 663.805 -1.82568 -0.852702 0
M  V30 6838 O 662.861 -1.92642 -1.63234 0
M  V30 6839 C 664.174 -2.58522 1.53581 0
M  V30 6840 C 665.722 -2.72394 1.54177 0
M  V30 6841 C 666.197 -3.86318 2.46013 0
M  V30 6842 N 667.688 -3.93661 2.441 0
M  V30 6843 C 668.423 -4.81177 3.11859 0
M  V30 6844 N 667.919 -5.73333 3.88923 0
M  V30 6845 N 669.712 -4.74728 3.00981 0
M  V30 6846 H 661.863 -1.04567 1.84877 0
M  V30 6847 H 664.126 -0.520118 0.792579 0
M  V30 6848 H 663.832 -2.39667 2.57396 0
M  V30 6849 H 663.706 -3.55475 1.26165 0
M  V30 6850 H 666.093 -2.90641 0.511034 0
M  V30 6851 H 666.174 -1.75993 1.85634 0
M  V30 6852 H 665.818 -3.68826 3.49185 0
M  V30 6853 H 665.748 -4.82102 2.11862 0
M  V30 6854 H 668.239 -3.27751 1.88115 0
M  V30 6855 H 668.552 -6.36923 4.37663 0
M  V30 6856 H 666.897 -5.73196 3.93029 0
M  V30 6857 H 670.088 -4.01722 2.40286 0
M  V30 6858 H 670.261 -5.42719 3.54062 0
M  V30 6859 N 663.667 -0.670007 -1.42649 0
M  V30 6860 C 664.914 -0.190286 -2.01604 0
M  V30 6861 C 665.242 1.20155 -1.52948 0
M  V30 6862 O 664.497 1.81964 -0.72026 0
M  V30 6863 C 664.796 -0.168298 -3.57004 0
M  V30 6864 C 664.462 -1.50415 -4.25072 0
M  V30 6865 C 663.124 -1.86992 -4.43382 0
M  V30 6866 C 665.476 -2.38414 -4.63474 0
M  V30 6867 C 662.804 -3.11203 -4.97363 0
M  V30 6868 C 665.156 -3.61933 -5.18833 0
M  V30 6869 C 663.82 -3.98685 -5.35356 0
M  V30 6870 H 663.09 -0.0696305 -0.737721 0
M  V30 6871 H 665.737 -0.864044 -1.70899 0
M  V30 6872 H 664.042 0.588958 -3.87348 0
M  V30 6873 H 665.739 0.22001 -4.00396 0
M  V30 6874 H 662.329 -1.20959 -4.11177 0
M  V30 6875 H 666.513 -2.11442 -4.49006 0
M  V30 6876 H 661.769 -3.39705 -5.08341 0
M  V30 6877 H 665.943 -4.30326 -5.47533 0
M  V30 6878 H 663.57 -4.95009 -5.76949 0
M  V30 6879 N 665.145 1.52092 -0.413018 0
M  V30 6880 C 666.108 2.25706 0.398687 0
M  V30 6881 C 667.108 1.28221 0.970368 0
M  V30 6882 O 668.298 1.52131 0.848635 0
M  V30 6883 C 665.43 3.03029 1.5616 0
M  V30 6884 H 666.623 2.98888 -0.246131 0
M  V30 6885 H 664.176 1.5542 -0.165622 0
M  V30 6886 H 664.911 2.34205 2.24317 0
M  V30 6887 H 664.696 3.74606 1.15812 0
M  V30 6888 H 666.186 3.58857 2.13569 0
M  V30 6889 N 666.623 0.143563 1.56945 0
M  V30 6890 C 667.848 -0.518701 2.00809 0
M  V30 6891 C 668.273 -1.5785 1.02298 0
M  V30 6892 O 667.631 -1.813 -0.0017839 0
M  V30 6893 C 667.679 -1.09929 3.43436 0
M  V30 6894 O 666.783 -2.21425 3.47915 0
M  V30 6895 H 666.124 -0.127215 0.6517 0
M  V30 6896 H 668.654 0.239283 2.03196 0
M  V30 6897 H 668.664 -1.4288 3.82164 0
M  V30 6898 H 667.339 -0.323162 4.14643 0
M  V30 6899 H 665.916 -1.89728 3.21026 0
M  V30 6900 N 668.101 -1.57061 -0.130224 0
M  V30 6901 C 669.031 -2.02552 -1.16168 0
M  V30 6902 C 670.012 -0.907971 -1.4384 0
M  V30 6903 O 671.197 -1.17693 -1.54473 0
M  V30 6904 C 668.327 -2.42035 -2.49071 0
M  V30 6905 C 667.281 -3.5713 -2.35886 0
M  V30 6906 C 666.607 -3.82478 -3.7365 0
M  V30 6907 C 667.907 -4.89236 -1.8288 0
M  V30 6908 H 669.601 -2.8897 -0.783359 0
M  V30 6909 H 667.147 -1.39021 -0.375376 0
M  V30 6910 H 669.1 -2.72462 -3.21469 0
M  V30 6911 H 667.824 -1.52573 -2.88771 0
M  V30 6912 H 666.483 -3.26895 -1.65938 0
M  V30 6913 H 666.131 -2.9024 -4.10816 0
M  V30 6914 H 665.831 -4.59944 -3.65685 0
M  V30 6915 H 667.355 -4.15347 -4.47571 0
M  V30 6916 H 668.769 -5.18272 -2.45085 0
M  V30 6917 H 667.166 -5.70624 -1.85763 0
M  V30 6918 H 668.236 -4.78494 -0.785571 0
M  V30 6919 N 669.579 0.400081 -1.52437 0
M  V30 6920 C 670.826 1.14619 -1.6694 0
M  V30 6921 C 671.154 1.90262 -0.403797 0
M  V30 6922 O 670.409 1.85835 0.61351 0
M  V30 6923 C 670.708 2.15914 -2.84808 0
M  V30 6924 C 670.374 1.57011 -4.2268 0
M  V30 6925 C 669.036 1.40672 -4.60179 0
M  V30 6926 C 671.388 1.14081 -5.08562 0
M  V30 6927 C 668.716 0.799335 -5.81229 0
M  V30 6928 C 671.068 0.547573 -6.30226 0
M  V30 6929 C 669.732 0.371389 -6.66466 0
M  V30 6930 H 669.002 0.419419 -0.610875 0
M  V30 6931 H 671.649 0.432227 -1.86558 0
M  V30 6932 H 669.954 2.93488 -2.59561 0
M  V30 6933 H 671.651 2.73533 -2.93225 0
M  V30 6934 H 668.241 1.70713 -3.93135 0
M  V30 6935 H 672.425 1.2551 -4.80168 0
M  V30 6936 H 667.681 0.65093 -6.07925 0
M  V30 6937 H 671.855 0.206575 -6.96094 0
M  V30 6938 H 669.482 -0.10135 -7.60132 0
M  V30 6939 N 671.057 1.43213 0.657864 0
M  V30 6940 C 672.334 1.35063 1.41483 0
M  V30 6941 C 672.714 -0.0038314 2.111 0
M  V30 6942 O 672.062 -1.02018 2.04462 0
M  V30 6943 C 672.272 2.53061 2.40335 0
M  V30 6944 C 673.62 2.9594 3.04474 0
M  V30 6945 O 674.644 2.53074 2.50663 0
M  V30 6946 O 673.503 3.70184 4.02027 0
M  V30 6947 H 670.597 0.533517 0.631893 0
M  V30 6948 H 673.143 1.55253 0.685162 0
M  V30 6949 H 671.915 3.43283 1.87809 0
M  V30 6950 H 671.538 2.34945 3.20759 0
M  V30 6951 N 672.536 -0.895792 1.29666 0
M  V30 6952 C 673.499 -1.98189 1.15124 0
M  V30 6953 C 674.499 -1.60572 0.0855717 0
M  V30 6954 O 675.689 -1.70991 0.332826 0
M  V30 6955 C 672.821 -3.32289 0.761372 0
M  V30 6956 H 674.014 -2.12518 2.11603 0
M  V30 6957 H 671.567 -1.0808 1.12908 0
M  V30 6958 H 672.302 -3.23662 -0.203393 0
M  V30 6959 H 672.087 -3.60958 1.53139 0
M  V30 6960 H 673.577 -4.1198 0.682792 0
M  V30 6961 N 674.014 -1.12206 -1.10668 0
M  V30 6962 C 674.961 -0.787716 -2.16942 0
M  V30 6963 C 675.931 0.244442 -1.64291 0
M  V30 6964 O 677.116 0.119558 -1.90425 0
M  V30 6965 C 674.256 -0.24584 -3.44223 0
M  V30 6966 C 673.369 -1.33552 -4.10838 0
M  V30 6967 C 672.504 -0.753337 -5.25831 0
M  V30 6968 C 671.543 -1.82231 -5.84344 0
M  V30 6969 N 670.68 -1.25902 -6.90719 0
M  V30 6970 H 675.52 -1.69809 -2.44885 0
M  V30 6971 H 673.057 -0.847862 -1.20207 0
M  V30 6972 H 675.015 0.0863639 -4.17111 0
M  V30 6973 H 673.645 0.627702 -3.16638 0
M  V30 6974 H 672.697 -1.78454 -3.35944 0
M  V30 6975 H 674.009 -2.14396 -4.50373 0
M  V30 6976 H 673.163 -0.37166 -6.05561 0
M  V30 6977 H 671.902 0.0863297 -4.87624 0
M  V30 6978 H 670.907 -2.2132 -5.03287 0
M  V30 6979 H 672.132 -2.66515 -6.24617 0
M  V30 6980 H 670.078 -0.44114 -6.54515 0
M  V30 6981 H 669.995 -2.00408 -7.28953 0
M  V30 6982 H 671.263 -0.904498 -7.74235 0
M  V30 6983 N 675.492 1.28418 -0.913599 0
M  V30 6984 C 676.402 2.31043 -0.406965 0
M  V30 6985 C 677.418 1.66501 0.505298 0
M  V30 6986 O 678.594 1.97558 0.391522 0
M  V30 6987 C 675.659 3.4498 0.344901 0
M  V30 6988 C 674.72 4.25078 -0.600563 0
M  V30 6989 C 673.953 5.33575 0.115516 0
M  V30 6990 O 674.176 5.54503 1.33727 0
M  V30 6991 O 673.11 5.9939 -0.549095 0
M  V30 6992 H 676.936 2.76387 -1.25873 0
M  V30 6993 H 674.521 1.33109 -0.678415 0
M  V30 6994 H 676.403 4.14314 0.769542 0
M  V30 6995 H 675.078 3.01719 1.1725 0
M  V30 6996 H 673.985 3.58334 -1.0746 0
M  V30 6997 H 675.318 4.72018 -1.39497 0
M  V30 6998 N 676.97 0.677563 1.42291 0
M  V30 6999 C 678.386 0.347376 1.55774 0
M  V30 7000 C 678.586 -1.14703 1.65667 0
M  V30 7001 O 677.642 -1.93252 1.62512 0
M  V30 7002 C 678.955 1.08011 2.80631 0
M  V30 7003 C 680.503 1.06271 2.94407 0
M  V30 7004 C 680.978 1.77683 4.22129 0
M  V30 7005 N 682.469 1.74564 4.29047 0
M  V30 7006 C 683.204 2.26673 5.26694 0
M  V30 7007 N 682.7 2.87176 6.30477 0
M  V30 7008 N 684.493 2.17032 5.18511 0
M  V30 7009 H 676.644 1.64703 1.34114 0
M  V30 7010 H 678.907 0.694038 0.645768 0
M  V30 7011 H 678.613 2.13518 2.79469 0
M  V30 7012 H 678.487 0.647115 3.71608 0
M  V30 7013 H 680.874 0.0159658 2.95096 0
M  V30 7014 H 680.955 1.53461 2.04654 0
M  V30 7015 H 680.599 2.82327 4.22201 0
M  V30 7016 H 680.529 1.2794 5.10822 0
M  V30 7017 H 683.02 1.30436 3.54676 0
M  V30 7018 H 683.333 3.24551 7.01346 0
M  V30 7019 H 681.678 2.91247 6.31031 0
M  V30 7020 H 684.869 1.69451 4.36353 0
M  V30 7021 H 685.042 2.57948 5.94446 0
M  V30 7022 N 678.448 -1.51871 0.421078 0
M  V30 7023 C 679.676 -2.06356 -0.14994 0
M  V30 7024 C 680.091 -1.29006 -1.37851 0
M  V30 7025 O 679.448 -0.345139 -1.79207 0
M  V30 7026 C 679.499 -3.58185 -0.488454 0
M  V30 7027 O 679.22 -4.32611 0.691341 0
M  V30 7028 C 680.721 -4.29129 -1.11191 0
M  V30 7029 H 677.941 -0.67083 -0.0151186 0
M  V30 7030 H 680.485 -1.95638 0.595476 0
M  V30 7031 H 678.64 -3.68871 -1.18376 0
M  V30 7032 H 679.054 -5.22927 0.405906 0
M  V30 7033 H 680.528 -5.36501 -1.29889 0
M  V30 7034 H 681.005 -3.86371 -2.0884 0
M  V30 7035 H 681.611 -4.22843 -0.456458 0
M  V30 7036 N 679.926 -0.151884 -1.56866 0
M  V30 7037 C 681.172 0.498742 -1.96572 0
M  V30 7038 C 681.505 1.64194 -1.03702 0
M  V30 7039 O 680.78 1.94334 -0.0803432 0
M  V30 7040 C 681.063 1.00027 -3.45929 0
M  V30 7041 C 680.916 -0.141767 -4.49577 0
M  V30 7042 C 682.235 1.88044 -3.97904 0
M  V30 7043 H 679.354 0.17982 -0.714726 0
M  V30 7044 H 681.996 -0.234097 -1.88552 0
M  V30 7045 H 680.146 1.62476 -3.52894 0
M  V30 7046 H 681.818 -0.778269 -4.54687 0
M  V30 7047 H 680.061 -0.80019 -4.26356 0
M  V30 7048 H 680.732 0.250947 -5.51429 0
M  V30 7049 H 683.208 1.35416 -3.93449 0
M  V30 7050 H 682.084 2.20043 -5.02864 0
M  V30 7051 H 682.345 2.81916 -3.40552 0
M  V30 7052 N 681.404 1.57128 0.121893 0
M  V30 7053 C 682.632 1.88883 0.844451 0
M  V30 7054 C 683.047 0.742824 1.73573 0
M  V30 7055 O 682.404 -0.286475 1.80238 0
M  V30 7056 C 682.455 3.20076 1.68029 0
M  V30 7057 O 682.176 4.30264 0.824898 0
M  V30 7058 C 683.677 3.65515 2.50826 0
M  V30 7059 H 680.897 0.62549 0.242907 0
M  V30 7060 H 683.441 2.04219 0.107151 0
M  V30 7061 H 681.596 3.06418 2.37038 0
M  V30 7062 H 682.01 5.05439 1.40113 0
M  V30 7063 H 683.484 4.60081 3.05008 0
M  V30 7064 H 683.961 2.92029 3.28048 0
M  V30 7065 H 684.567 3.81952 1.87064 0
M  V30 7066 N 682.882 -0.391992 1.52647 0
M  V30 7067 C 684.129 -1.13732 1.67545 0
M  V30 7068 C 684.457 -1.90045 0.413881 0
M  V30 7069 O 683.712 -1.86157 -0.603646 0
M  V30 7070 C 684.011 -2.14401 2.85949 0
M  V30 7071 C 683.677 -1.54767 4.23507 0
M  V30 7072 C 682.339 -1.38229 4.60919 0
M  V30 7073 C 684.691 -1.11382 5.0916 0
M  V30 7074 C 682.019 -0.7685 5.81645 0
M  V30 7075 C 684.371 -0.514143 6.30507 0
M  V30 7076 C 683.035 -0.33604 6.66654 0
M  V30 7077 H 682.305 -0.416174 0.613091 0
M  V30 7078 H 684.952 -0.422327 1.86785 0
M  V30 7079 H 683.257 -2.92108 2.61114 0
M  V30 7080 H 684.954 -2.71974 2.94671 0
M  V30 7081 H 681.544 -1.68626 3.94035 0
M  V30 7082 H 685.728 -1.22962 4.80826 0
M  V30 7083 H 680.984 -0.618681 6.08262 0
M  V30 7084 H 685.158 -0.169657 6.96193 0
M  V30 7085 H 682.785 0.14166 7.60068 0
M  V30 7086 N 684.36 -1.4356 -0.65026 0
M  V30 7087 C 685.29 -1.51758 -1.77459 0
M  V30 7088 C 686.271 -0.372019 -1.65982 0
M  V30 7089 O 687.456 -0.589627 -1.85033 0
M  V30 7090 C 684.586 -1.44302 -3.15902 0
M  V30 7091 C 683.54 -2.57138 -3.42146 0
M  V30 7092 C 682.866 -2.34735 -4.8042 0
M  V30 7093 C 684.166 -3.99373 -3.36598 0
M  V30 7094 H 685.86 -2.45863 -1.70855 0
M  V30 7095 H 683.406 -1.18333 -0.820566 0
M  V30 7096 H 685.359 -1.48641 -3.94314 0
M  V30 7097 H 684.083 -0.467026 -3.23244 0
M  V30 7098 H 682.742 -2.52157 -2.66106 0
M  V30 7099 H 682.39 -1.35372 -4.84441 0
M  V30 7100 H 682.09 -3.10375 -4.9894 0
M  V30 7101 H 683.614 -2.40862 -5.61086 0
M  V30 7102 H 685.028 -4.05826 -4.04942 0
M  V30 7103 H 683.425 -4.75063 -3.66654 0
M  V30 7104 H 684.495 -4.243 -2.34729 0
M  V30 7105 N 685.838 0.888903 -1.30139 0
M  V30 7106 C 687.063 1.67884 -1.21777 0
M  V30 7107 C 687.488 1.86848 0.216689 0
M  V30 7108 O 686.846 1.39659 1.15608 0
M  V30 7109 C 686.894 3.03483 -1.94757 0
M  V30 7110 O 685.998 3.92294 -1.27198 0
M  V30 7111 H 685.339 0.513144 -0.421402 0
M  V30 7112 H 687.869 1.10968 -1.71893 0
M  V30 7113 H 687.879 3.53553 -2.03627 0
M  V30 7114 H 686.554 2.89 -2.99085 0
M  V30 7115 H 685.131 3.50732 -1.26655 0
M  V30 7116 N 687.317 1.12792 1.10072 0
M  V30 7117 C 688.565 0.883796 1.81751 0
M  V30 7118 C 688.886 -0.591891 1.858 0
M  V30 7119 O 688.156 -1.43017 1.33876 0
M  V30 7120 H 686.736 0.323978 0.673088 0
M  V30 7121 H 689.398 1.42314 1.33164 0
M  V30 7122 H 688.494 1.26863 2.85153 0
M  V30 7123 N 688.795 -1.27931 0.920396 0
M  V30 7124 C 689.742 -2.27085 0.412422 0
M  V30 7125 C 690.712 -1.57858 -0.516725 0
M  V30 7126 O 691.897 -1.85717 -0.437475 0
M  V30 7127 C 689.037 -3.43466 -0.335399 0
M  V30 7128 C 688.15 -4.27425 0.627017 0
M  V30 7129 C 687.285 -5.31016 -0.139916 0
M  V30 7130 C 686.324 -6.06641 0.815683 0
M  V30 7131 N 685.461 -7.02052 0.0818439 0
M  V30 7132 H 690.301 -2.69913 1.26298 0
M  V30 7133 H 687.838 -1.32732 0.634076 0
M  V30 7134 H 689.796 -4.09744 -0.785226 0
M  V30 7135 H 688.426 -3.01611 -1.15025 0
M  V30 7136 H 687.478 -3.6113 1.19537 0
M  V30 7137 H 688.79 -4.79969 1.35763 0
M  V30 7138 H 687.944 -6.03208 -0.649998 0
M  V30 7139 H 686.683 -4.79257 -0.903543 0
M  V30 7140 H 685.688 -5.33294 1.33708 0
M  V30 7141 H 686.913 -6.60489 1.57897 0
M  V30 7142 H 684.859 -6.52634 -0.663671 0
M  V30 7143 H 684.776 -7.52249 0.752163 0
M  V30 7144 H 686.044 -7.78432 -0.407825 0
M  V30 7145 N 690.273 -0.685099 -1.4193 0
M  V30 7146 C 691.22 -0.0131869 -2.30796 0
M  V30 7147 C 692.19 0.782129 -1.46533 0
M  V30 7148 O 693.375 0.75229 -1.75343 0
M  V30 7149 C 690.515 0.924768 -3.32479 0
M  V30 7150 C 689.628 0.122181 -4.31827 0
M  V30 7151 C 688.763 1.05682 -5.20581 0
M  V30 7152 C 687.802 0.246526 -6.11603 0
M  V30 7153 N 686.939 1.13442 -6.92875 0
M  V30 7154 H 691.779 -0.776789 -2.87698 0
M  V30 7155 H 689.316 -0.394791 -1.41703 0
M  V30 7156 H 691.274 1.48251 -3.89971 0
M  V30 7157 H 689.904 1.65488 -2.77152 0
M  V30 7158 H 688.956 -0.552335 -3.76369 0
M  V30 7159 H 690.268 -0.506473 -4.96222 0
M  V30 7160 H 689.422 1.68415 -5.82856 0
M  V30 7161 H 688.161 1.71935 -4.56388 0
M  V30 7162 H 687.166 -0.393944 -5.48387 0
M  V30 7163 H 688.391 -0.412053 -6.77849 0
M  V30 7164 H 686.337 1.78316 -6.313 0
M  V30 7165 H 686.254 0.561089 -7.53915 0
M  V30 7166 H 687.522 1.74889 -7.59628 0
M  V30 7167 N 691.751 1.51645 -0.429126 0
M  V30 7168 C 692.981 2.06133 0.138793 0
M  V30 7169 C 693.389 1.29735 1.37716 0
M  V30 7170 O 692.732 0.347955 1.80375 0
M  V30 7171 C 692.794 3.55504 0.534493 0
M  V30 7172 C 692.458 4.53098 -0.595917 0
M  V30 7173 C 693.455 4.98815 -1.46558 0
M  V30 7174 C 691.14 4.96296 -0.774309 0
M  V30 7175 C 693.134 5.86394 -2.4984 0
M  V30 7176 C 690.821 5.83667 -1.81042 0
M  V30 7177 C 691.819 6.28613 -2.67086 0
M  V30 7178 O 691.507 7.14251 -3.68919 0
M  V30 7179 H 691.239 0.675833 0.0150263 0
M  V30 7180 H 693.793 1.96301 -0.604584 0
M  V30 7181 H 692.023 3.63092 1.33045 0
M  V30 7182 H 693.712 3.92545 1.03262 0
M  V30 7183 H 694.478 4.66143 -1.33925 0
M  V30 7184 H 690.357 4.60859 -0.114178 0
M  V30 7185 H 693.901 6.21398 -3.17034 0
M  V30 7186 H 689.798 6.15753 -1.93698 0
M  V30 7187 H 690.566 7.3241 -3.65402 0
M  V30 7188 N 693.229 0.160201 1.56784 0
M  V30 7189 C 694.454 -0.497373 2.01348 0
M  V30 7190 C 694.879 -1.56757 1.03966 0
M  V30 7191 O 694.237 -1.81292 0.0174455 0
M  V30 7192 C 694.285 -1.0628 3.44582 0
M  V30 7193 O 693.389 -2.17723 3.50244 0
M  V30 7194 H 692.73 -0.120295 0.653012 0
M  V30 7195 H 695.26 0.260821 2.02931 0
M  V30 7196 H 695.27 -1.38819 3.83658 0
M  V30 7197 H 693.945 -0.279166 4.14962 0
M  V30 7198 H 692.522 -1.86313 3.2302 0
M  V30 7199 N 694.707 -1.5719 -0.113559 0
M  V30 7200 C 695.953 -1.85412 -0.821597 0
M  V30 7201 C 696.286 -0.746722 -1.7927 0
M  V30 7202 O 695.561 0.246971 -1.92926 0
M  V30 7203 C 695.844 -3.24233 -1.56669 0
M  V30 7204 C 695.697 -4.45578 -0.614823 0
M  V30 7205 C 697.016 -3.60697 -2.52161 0
M  V30 7206 H 694.135 -0.674406 -0.29723 0
M  V30 7207 H 696.777 -1.89807 -0.085694 0
M  V30 7208 H 694.927 -3.20617 -2.19401 0
M  V30 7209 H 696.599 -4.613 0.00407137 0
M  V30 7210 H 694.842 -4.33738 0.0732332 0
M  V30 7211 H 695.513 -5.39395 -1.17292 0
M  V30 7212 H 697.989 -3.65139 -1.99532 0
M  V30 7213 H 696.865 -4.58798 -3.01323 0
M  V30 7214 H 697.126 -2.88403 -3.35076 0
M  V30 7215 N 696.185 0.383891 -1.52853 0
M  V30 7216 C 697.462 1.14296 -1.58732 0
M  V30 7217 C 697.842 2.07585 -0.383611 0
M  V30 7218 O 697.19 2.1971 0.627661 0
M  V30 7219 C 697.4 1.89816 -2.92867 0
M  V30 7220 C 698.748 2.44998 -3.46787 0
M  V30 7221 O 699.772 1.99966 -2.94774 0
M  V30 7222 O 698.631 3.2727 -4.37672 0
M  V30 7223 H 695.725 0.52326 -0.640413 0
M  V30 7224 H 698.271 0.388631 -1.6519 0
M  V30 7225 H 697.043 1.21626 -3.71918 0
M  V30 7226 H 696.666 2.72199 -2.89816 0
M  V30 7227 N 697.663 1.43903 0.642637 0
M  V30 7228 C 698.94 1.36556 1.40043 0
M  V30 7229 C 699.32 0.0185588 2.11092 0
M  V30 7230 O 698.668 -0.998438 2.05532 0
M  V30 7231 C 698.878 2.55596 2.37638 0
M  V30 7232 C 700.226 2.99153 3.01318 0
M  V30 7233 O 701.25 2.55719 2.47965 0
M  V30 7234 O 700.109 3.74427 3.98078 0
M  V30 7235 H 697.203 0.540189 0.626198 0
M  V30 7236 H 699.749 1.55971 0.668657 0
M  V30 7237 H 698.521 3.45256 1.84158 0
M  V30 7238 H 698.144 2.38334 3.18249 0
M  V30 7239 N 699.141 -0.881989 1.30609 0
M  V30 7240 C 700.071 -2.00413 1.1982 0
M  V30 7241 C 701.052 -1.69871 0.0881538 0
M  V30 7242 O 702.237 -1.92304 0.2707 0
M  V30 7243 C 699.367 -3.35641 0.89233 0
M  V30 7244 C 698.321 -3.80451 1.96064 0
M  V30 7245 C 697.647 -5.13003 1.5077 0
M  V30 7246 C 698.947 -3.98855 3.37213 0
M  V30 7247 H 700.641 -2.09698 2.13699 0
M  V30 7248 H 698.187 -1.00754 1.02882 0
M  V30 7249 H 700.14 -4.13669 0.803497 0
M  V30 7250 H 698.864 -3.26497 -0.0821381 0
M  V30 7251 H 697.523 -3.04654 2.03916 0
M  V30 7252 H 697.171 -5.0029 0.521417 0
M  V30 7253 H 696.871 -5.43956 2.22229 0
M  V30 7254 H 698.395 -5.93554 1.43271 0
M  V30 7255 H 699.809 -4.67312 3.32103 0
M  V30 7256 H 698.206 -4.41188 4.06784 0
M  V30 7257 H 699.276 -3.02614 3.78883 0
M  V30 7258 N 700.619 -1.13374 -1.09472 0
M  V30 7259 C 701.569 -0.77946 -2.14263 0
M  V30 7260 C 702.553 0.226271 -1.59301 0
M  V30 7261 O 703.745 0.0302581 -1.76974 0
M  V30 7262 C 700.874 -0.246635 -3.42413 0
M  V30 7263 C 699.96 -1.28124 -4.04283 0
M  V30 7264 N 700.351 -2.48201 -4.40715 0
M  V30 7265 C 698.649 -1.12892 -4.31476 0
M  V30 7266 C 699.35 -3.14347 -4.8945 0
M  V30 7267 N 698.326 -2.41771 -4.86876 0
M  V30 7268 H 702.128 -1.69305 -2.40235 0
M  V30 7269 H 699.642 -1.01598 -1.26695 0
M  V30 7270 H 701.639 0.0254131 -4.16892 0
M  V30 7271 H 700.299 0.661287 -3.17895 0
M  V30 7272 H 701.31 -2.85511 -4.32093 0
M  V30 7273 H 697.987 -0.279117 -4.16566 0
M  V30 7274 H 699.377 -4.16663 -5.27107 0
M  V30 7275 N 702.098 1.27442 -0.927168 0
M  V30 7276 C 703.323 1.99036 -0.583042 0
M  V30 7277 C 703.748 1.68711 0.83176 0
M  V30 7278 O 703.106 0.927081 1.55804 0
M  V30 7279 C 703.154 3.51271 -0.814925 0
M  V30 7280 O 702.258 4.12226 0.119742 0
M  V30 7281 H 701.599 0.624883 -0.224538 0
M  V30 7282 H 704.129 1.62263 -1.24628 0
M  V30 7283 H 704.139 4.01411 -0.730282 0
M  V30 7284 H 702.814 3.72676 -1.84623 0
M  V30 7285 H 701.391 3.72897 -0.0147688 0
M  V30 7286 N 703.576 0.692616 1.41565 0
M  V30 7287 C 704.509 -0.025063 2.28186 0
M  V30 7288 C 705.487 -0.790912 1.42068 0
M  V30 7289 O 706.671 -0.782344 1.71498 0
M  V30 7290 C 703.798 -1.04285 3.22246 0
M  V30 7291 C 702.844 -0.370515 4.24888 0
M  V30 7292 S 703.677 0.884942 5.28137 0
M  V30 7293 C 704.833 -0.131324 6.25762 0
M  V30 7294 H 705.066 0.709626 2.88707 0
M  V30 7295 H 702.599 0.482783 1.46658 0
M  V30 7296 H 704.557 -1.62493 3.7697 0
M  V30 7297 H 703.218 -1.7501 2.60827 0
M  V30 7298 H 702.411 -1.13911 4.90959 0
M  V30 7299 H 702.013 0.138411 3.73744 0
M  V30 7300 H 704.305 -0.985527 6.70294 0
M  V30 7301 H 705.248 0.495384 7.06365 0
M  V30 7302 H 705.656 -0.484777 5.62415 0
M  V30 7303 N 705.054 -1.51416 0.437162 0
M  V30 7304 C 706.302 -2.01687 -0.129108 0
M  V30 7305 C 706.623 -1.32329 -1.43227 0
M  V30 7306 O 705.893 -0.457796 -1.90476 0
M  V30 7307 H 704.473 -0.745277 -0.0507023 0
M  V30 7308 H 707.135 -1.86075 0.579828 0
M  V30 7309 H 706.231 -3.10605 -0.305141 0
M  V30 7310 N 706.532 -0.168513 -1.56696 0
M  V30 7311 C 707.495 0.748928 -2.16619 0
M  V30 7312 C 708.495 1.16007 -1.11351 0
M  V30 7313 O 709.685 1.07748 -1.3688 0
M  V30 7314 C 706.817 2.01904 -2.74677 0
M  V30 7315 H 708.01 0.227317 -2.99037 0
M  V30 7316 H 705.563 0.0810372 -1.5609 0
M  V30 7317 H 706.298 2.58381 -1.95985 0
M  V30 7318 H 706.083 1.73323 -3.51712 0
M  V30 7319 H 707.573 2.67383 -3.20774 0
M  V30 7320 N 708.01 1.57248 0.105221 0
M  V30 7321 C 709.258 1.85204 0.808951 0
M  V30 7322 C 709.579 0.75574 1.7976 0
M  V30 7323 O 708.849 -0.218984 1.94672 0
M  V30 7324 H 707.429 0.683346 0.301739 0
M  V30 7325 H 710.091 1.94695 0.0892605 0
M  V30 7326 H 709.187 2.81595 1.34575 0
M  V30 7327 N 709.488 -0.375779 1.53054 0
M  V30 7328 C 710.765 -1.13453 1.59336 0
M  V30 7329 C 711.145 -2.07379 0.394614 0
M  V30 7330 O 710.493 -2.2004 -0.616 0
M  V30 7331 C 710.703 -1.8826 2.93869 0
M  V30 7332 C 712.051 -2.43155 3.48081 0
M  V30 7333 O 713.075 -1.984 2.95831 0
M  V30 7334 O 711.934 -3.24944 4.39401 0
M  V30 7335 H 709.028 -0.519856 0.643179 0
M  V30 7336 H 711.574 -0.379865 1.65394 0
M  V30 7337 H 710.346 -1.19652 3.72558 0
M  V30 7338 H 709.969 -2.70658 2.91256 0
M  V30 7339 N 710.966 -1.44241 -0.634997 0
M  V30 7340 C 711.896 -1.53632 -1.7584 0
M  V30 7341 C 712.877 -0.389603 -1.65578 0
M  V30 7342 O 714.062 -0.609219 -1.84397 0
M  V30 7343 C 711.192 -1.47644 -3.14354 0
M  V30 7344 C 710.146 -2.60752 -3.394 0
M  V30 7345 C 709.472 -2.39817 -4.77904 0
M  V30 7346 C 710.772 -4.02921 -3.32343 0
M  V30 7347 H 712.466 -2.47662 -1.68238 0
M  V30 7348 H 710.012 -1.19197 -0.807969 0
M  V30 7349 H 711.965 -1.52815 -3.92716 0
M  V30 7350 H 710.689 -0.501284 -3.2273 0
M  V30 7351 H 709.348 -2.54965 -2.63417 0
M  V30 7352 H 708.996 -1.40502 -4.82978 0
M  V30 7353 H 708.696 -3.15649 -4.9562 0
M  V30 7354 H 710.22 -2.46799 -5.585 0
M  V30 7355 H 711.634 -4.10098 -4.00615 0
M  V30 7356 H 710.031 -4.78925 -3.61595 0
M  V30 7357 H 711.101 -4.26766 -2.30215 0
M  V30 7358 N 712.444 0.87505 -1.31075 0
M  V30 7359 C 713.374 1.99775 -1.20881 0
M  V30 7360 C 714.355 1.69822 -0.0971612 0
M  V30 7361 O 715.54 1.92158 -0.280895 0
M  V30 7362 C 712.67 3.35163 -0.910118 0
M  V30 7363 C 711.624 3.79406 -1.98078 0
M  V30 7364 C 710.95 5.12197 -1.53488 0
M  V30 7365 C 712.25 3.97061 -3.39323 0
M  V30 7366 H 713.944 2.08562 -2.14808 0
M  V30 7367 H 711.49 1.00207 -1.03415 0
M  V30 7368 H 713.443 4.13237 -0.825423 0
M  V30 7369 H 712.167 3.26536 0.064822 0
M  V30 7370 H 710.826 3.03568 -2.05528 0
M  V30 7371 H 710.474 5.00007 -0.547941 0
M  V30 7372 H 710.174 5.4277 -2.2511 0
M  V30 7373 H 711.698 5.92785 -1.46417 0
M  V30 7374 H 713.112 4.65545 -3.34576 0
M  V30 7375 H 711.509 4.39025 -4.09118 0
M  V30 7376 H 712.579 3.00601 -3.80483 0
M  V30 7377 N 713.922 1.13953 1.08869 0
M  V30 7378 C 714.87 0.817664 2.17754 0
M  V30 7379 C 715.864 -0.202444 1.68186 0
M  V30 7380 O 717.07 -0.0590159 1.79903 0
M  V30 7381 H 713.445 0.246671 0.710392 0
M  V30 7382 H 715.416 1.74401 2.4213 0
M  V30 7383 C 714.165 0.3063 3.46348 0
M  V30 7384 H 713.488 1.08259 3.84864 0
M  V30 7385 H 714.928 0.119584 4.23831 0
M  V30 7386 C 713.387 -0.969158 3.22659 0
M  V30 7387 O 713.917 -2.04386 3.45817 0
M  V30 7388 N 712.123 -0.902516 2.7623 0
M  V30 7389 H 711.67 -0.027801 2.57585 0
M  V30 7390 H 711.628 -1.75649 2.60758 0
M  V30 7391 N 715.4 -1.26948 0.933913 0
M  V30 7392 C 716.625 -1.98724 0.593589 0
M  V30 7393 C 717.05 -1.6915 -0.822801 0
M  V30 7394 O 716.408 -0.93533 -1.5531 0
M  V30 7395 C 716.456 -3.50834 0.833542 0
M  V30 7396 O 715.56 -4.12284 -0.0978788 0
M  V30 7397 H 714.901 -0.623683 0.227849 0
M  V30 7398 H 717.431 -1.61599 1.25486 0
M  V30 7399 H 717.441 -4.01018 0.75156 0
M  V30 7400 H 716.116 -3.71691 1.86597 0
M  V30 7401 H 714.693 -3.72884 0.0345443 0
M  V30 7402 N 716.879 -0.700114 -1.41195 0
M  V30 7403 C 717.812 0.0129614 -2.28196 0
M  V30 7404 C 718.79 0.783367 -1.42486 0
M  V30 7405 O 719.974 0.773238 -1.71911 0
M  V30 7406 C 717.101 1.02575 -3.22794 0
M  V30 7407 C 716.147 0.347977 -4.25078 0
M  V30 7408 S 716.98 -0.912938 -5.27661 0
M  V30 7409 C 718.136 0.0981362 -6.25823 0
M  V30 7410 H 718.369 -0.724927 -2.88326 0
M  V30 7411 H 715.902 -0.490554 -1.464 0
M  V30 7412 H 717.86 1.60491 -3.77826 0
M  V30 7413 H 716.521 1.73624 -2.61751 0
M  V30 7414 H 715.714 1.11305 -4.91556 0
M  V30 7415 H 715.316 -0.15823 -3.73665 0
M  V30 7416 H 717.608 0.949965 -6.70807 0
M  V30 7417 H 718.551 -0.532838 -7.06092 0
M  V30 7418 H 718.959 0.454944 -5.62664 0
M  V30 7419 N 718.357 1.51182 -0.445186 0
M  V30 7420 C 719.604 2.02152 0.118645 0
M  V30 7421 C 719.932 1.32888 1.42025 0
M  V30 7422 O 719.187 0.435041 1.90803 0
M  V30 7423 C 719.486 3.55408 0.376797 0
M  V30 7424 C 719.152 4.43008 -0.839945 0
M  V30 7425 C 717.814 4.66669 -1.17361 0
M  V30 7426 C 720.166 4.9435 -1.65127 0
M  V30 7427 C 717.494 5.38919 -2.31913 0
M  V30 7428 C 719.846 5.67857 -2.78786 0
M  V30 7429 C 718.51 5.89779 -3.12597 0
M  V30 7430 H 717.78 0.739727 0.0434152 0
M  V30 7431 H 720.427 1.82055 -0.593984 0
M  V30 7432 H 718.732 3.73879 1.1714 0
M  V30 7433 H 720.429 3.92388 0.826602 0
M  V30 7434 H 717.019 4.24793 -0.569958 0
M  V30 7435 H 721.203 4.75947 -1.4067 0
M  V30 7436 H 716.459 5.54105 -2.58413 0
M  V30 7437 H 720.633 6.06628 -3.42017 0
M  V30 7438 H 718.26 6.45542 -4.01471 0
M  V30 7439 N 719.835 0.176821 1.56605 0
M  V30 7440 C 720.745 -0.763682 2.21822 0
M  V30 7441 C 721.761 -1.24889 1.21156 0
M  V30 7442 O 722.937 -1.29987 1.53836 0
M  V30 7443 C 720.002 -1.97352 2.8505 0
M  V30 7444 C 719.063 -1.53466 4.00932 0
M  V30 7445 C 718.296 -2.68682 4.61135 0
M  V30 7446 O 718.519 -3.85694 4.20234 0
M  V30 7447 O 717.453 -2.42442 5.50913 0
M  V30 7448 H 721.279 -0.238363 3.02763 0
M  V30 7449 H 718.864 -0.0516331 1.49311 0
M  V30 7450 H 720.746 -2.68096 3.25119 0
M  V30 7451 H 719.421 -2.48779 2.07101 0
M  V30 7452 H 718.328 -0.796551 3.65521 0
M  V30 7453 H 719.661 -1.06724 4.8049 0
M  V30 7454 N 721.313 -1.57302 -0.09688 0
M  V30 7455 C 722.56 -1.85997 -0.800699 0
M  V30 7456 C 722.888 -0.765089 -1.7882 0
M  V30 7457 O 722.143 0.241492 -1.94204 0
M  V30 7458 C 722.442 -3.21272 -1.56586 0
M  V30 7459 C 722.108 -4.45104 -0.72064 0
M  V30 7460 C 720.77 -4.78723 -0.487632 0
M  V30 7461 C 723.122 -5.2103 -0.132948 0
M  V30 7462 C 720.45 -5.85697 0.34296 0
M  V30 7463 C 722.802 -6.28881 0.684957 0
M  V30 7464 C 721.466 -6.61017 0.928073 0
M  V30 7465 H 720.736 -0.680613 -0.292997 0
M  V30 7466 H 723.383 -1.91399 -0.0622474 0
M  V30 7467 H 721.688 -3.11547 -2.37583 0
M  V30 7468 H 723.385 -3.40702 -2.11478 0
M  V30 7469 H 719.975 -4.18777 -0.912359 0
M  V30 7470 H 724.159 -4.95392 -0.300132 0
M  V30 7471 H 719.415 -6.09008 0.540317 0
M  V30 7472 H 723.589 -6.86886 1.14721 0
M  V30 7473 H 721.216 -7.43738 1.57348 0
M  V30 7474 N 722.791 0.367657 -1.53252 0
M  V30 7475 C 724.016 1.13566 -1.73544 0
M  V30 7476 C 724.441 1.82329 -0.462344 0
M  V30 7477 O 723.799 1.71655 0.583472 0
M  V30 7478 C 723.847 2.14322 -2.89997 0
M  V30 7479 O 722.951 3.21359 -2.58461 0
M  V30 7480 H 722.292 0.329614 -0.576412 0
M  V30 7481 H 724.822 0.425417 -2.00128 0
M  V30 7482 H 724.832 2.57958 -3.16104 0
M  V30 7483 H 723.507 1.63664 -3.82344 0
M  V30 7484 H 722.084 2.8271 -2.43165 0
M  V30 7485 N 724.269 1.44576 0.627338 0
M  V30 7486 C 725.179 1.54232 1.76776 0
M  V30 7487 C 726.195 0.427782 1.6866 0
M  V30 7488 O 727.371 0.685671 1.89369 0
M  V30 7489 C 724.436 1.48738 3.13174 0
M  V30 7490 C 723.497 2.71074 3.32893 0
M  V30 7491 C 722.73 2.65832 4.62784 0
M  V30 7492 O 722.953 1.72048 5.43834 0
M  V30 7493 O 721.887 3.56742 4.84787 0
M  V30 7494 H 725.713 2.50586 1.71582 0
M  V30 7495 H 723.298 1.26865 0.789028 0
M  V30 7496 H 725.18 1.48211 3.94476 0
M  V30 7497 H 723.855 0.555292 3.18902 0
M  V30 7498 H 722.762 2.77168 2.51254 0
M  V30 7499 H 724.095 3.63342 3.32029 0
M  V30 7500 N 725.747 -0.868086 1.31537 0
M  V30 7501 C 726.694 -1.97548 1.19346 0
M  V30 7502 C 727.664 -1.65913 0.0787922 0
M  V30 7503 O 728.849 -1.89129 0.251985 0
M  V30 7504 C 725.989 -3.32922 0.908692 0
M  V30 7505 C 725.102 -3.77141 2.10687 0
M  V30 7506 C 724.237 -5.01241 1.75873 0
M  V30 7507 C 723.276 -5.37914 2.92088 0
M  V30 7508 N 722.413 -6.53192 2.57457 0
M  V30 7509 H 727.253 -2.07307 2.14074 0
M  V30 7510 H 724.79 -1.01483 1.06487 0
M  V30 7511 H 726.748 -4.10867 0.724138 0
M  V30 7512 H 725.378 -3.228 -0.0017611 0
M  V30 7513 H 724.43 -2.94961 2.40213 0
M  V30 7514 H 725.742 -4.00248 2.97663 0
M  V30 7515 H 724.896 -5.86858 1.53891 0
M  V30 7516 H 723.635 -4.80041 0.86091 0
M  V30 7517 H 722.64 -4.50814 3.14717 0
M  V30 7518 H 723.865 -5.61077 3.82582 0
M  V30 7519 H 721.811 -6.33536 1.702 0
M  V30 7520 H 721.728 -6.76252 3.37963 0
M  V30 7521 H 722.996 -7.41997 2.38873 0
M  V30 7522 N 727.225 -1.14528 -1.08264 0
M  V30 7523 C 728.155 -0.856356 -2.1723 0
M  V30 7524 C 729.136 0.189251 -1.69044 0
M  V30 7525 O 730.321 0.0456119 -1.94146 0
M  V30 7526 C 727.451 -0.334662 -3.45684 0
M  V30 7527 C 726.405 -1.31588 -4.0727 0
M  V30 7528 C 725.731 -0.653428 -5.30692 0
M  V30 7529 C 727.031 -2.67866 -4.48381 0
M  V30 7530 H 728.725 -1.76755 -2.41657 0
M  V30 7531 H 726.271 -0.851287 -1.16143 0
M  V30 7532 H 728.224 -0.120128 -4.21229 0
M  V30 7533 H 726.948 0.611967 -3.20815 0
M  V30 7534 H 725.607 -1.51661 -3.33758 0
M  V30 7535 H 725.255 0.299054 -5.0211 0
M  V30 7536 H 724.955 -1.30817 -5.72853 0
M  V30 7537 H 726.479 -0.448453 -6.08951 0
M  V30 7538 H 727.893 -2.51692 -5.15096 0
M  V30 7539 H 726.29 -3.29627 -5.01464 0
M  V30 7540 H 727.36 -3.24632 -3.60198 0
M  V30 7541 N 728.703 1.26451 -0.940633 0
M  V30 7542 C 729.651 2.28389 -0.440581 0
M  V30 7543 C 730.645 1.62402 0.481859 0
M  V30 7544 O 731.851 1.76361 0.360132 0
M  V30 7545 H 728.226 0.741716 -0.123938 0
M  V30 7546 H 730.197 2.67967 -1.31288 0
M  V30 7547 C 728.946 3.46576 0.279364 0
M  V30 7548 H 728.269 3.97574 -0.421274 0
M  V30 7549 H 729.709 4.19826 0.59348 0
M  V30 7550 C 728.168 3.01815 1.49697 0
M  V30 7551 O 728.698 3.06607 2.59529 0
M  V30 7552 N 726.904 2.57163 1.35334 0
M  V30 7553 H 726.451 2.53464 0.459743 0
M  V30 7554 H 726.409 2.27578 2.16923 0
M  V30 7555 N 730.181 0.707592 1.40822 0
M  V30 7556 C 731.144 0.0587224 2.29125 0
M  V30 7557 C 732.144 -0.695624 1.44975 0
M  V30 7558 O 733.334 -0.528718 1.65983 0
M  V30 7559 C 730.466 -0.926939 3.28056 0
M  V30 7560 H 731.659 0.836349 2.88002 0
M  V30 7561 H 729.212 0.471778 1.4901 0
M  V30 7562 H 729.947 -1.7319 2.74182 0
M  V30 7563 H 729.732 -0.389015 3.90165 0
M  V30 7564 H 731.222 -1.37837 3.94196 0
M  V30 7565 N 731.66 -1.50943 0.453197 0
M  V30 7566 C 732.59 -2.31005 -0.34044 0
M  V30 7567 C 733.571 -1.37112 -1.00669 0
M  V30 7568 O 734.756 -1.66033 -1.0073 0
M  V30 7569 C 731.886 -3.16358 -1.433 0
M  V30 7570 C 730.84 -4.18658 -0.889363 0
M  V30 7571 C 730.166 -4.92633 -2.07887 0
M  V30 7572 C 731.466 -5.22227 0.0871142 0
M  V30 7573 H 733.16 -2.97601 0.327723 0
M  V30 7574 H 730.706 -1.43119 0.159054 0
M  V30 7575 H 732.659 -3.71155 -1.99555 0
M  V30 7576 H 731.383 -2.47613 -2.12968 0
M  V30 7577 H 730.042 -3.64936 -0.348915 0
M  V30 7578 H 729.69 -4.20376 -2.76211 0
M  V30 7579 H 729.39 -5.61819 -1.72143 0
M  V30 7580 H 730.914 -5.50258 -2.64666 0
M  V30 7581 H 732.328 -5.72001 -0.385656 0
M  V30 7582 H 730.725 -5.99032 0.357926 0
M  V30 7583 H 731.795 -4.74077 1.01879 0
M  V30 7584 N 733.138 -0.185124 -1.56509 0
M  V30 7585 C 734.07 0.771401 -2.15829 0
M  V30 7586 C 735.083 1.18392 -1.11747 0
M  V30 7587 O 736.272 1.12137 -1.38879 0
M  V30 7588 C 733.372 2.05169 -2.69739 0
M  V30 7589 C 732.545 1.80056 -3.98621 0
M  V30 7590 C 731.604 2.92435 -4.37456 0
M  V30 7591 O 730.63 2.62473 -5.05071 0
M  V30 7592 N 731.832 4.20554 -4.00143 0
M  V30 7593 H 734.597 0.264184 -2.98533 0
M  V30 7594 H 732.158 -0.00281069 -1.619 0
M  V30 7595 H 734.15 2.7947 -2.92709 0
M  V30 7596 H 732.72 2.47041 -1.91545 0
M  V30 7597 H 731.94 0.895862 -3.83885 0
M  V30 7598 H 733.228 1.60662 -4.82768 0
M  V30 7599 H 732.626 4.47753 -3.45736 0
M  V30 7600 H 731.183 4.91514 -4.28085 0
M  V30 7601 N 734.616 1.57351 0.0885366 0
M  V30 7602 C 735.546 2.05561 1.10757 0
M  V30 7603 C 736.527 0.945789 1.41382 0
M  V30 7604 O 737.712 1.21747 1.51299 0
M  V30 7605 C 734.842 2.48554 2.42566 0
M  V30 7606 C 733.796 3.63259 2.26334 0
M  V30 7607 C 733.122 3.9225 3.63378 0
M  V30 7608 C 734.422 4.93913 1.69844 0
M  V30 7609 H 736.116 2.90946 0.706468 0
M  V30 7610 H 733.662 1.39968 0.338385 0
M  V30 7611 H 735.615 2.8089 3.14132 0
M  V30 7612 H 734.339 1.60176 2.84625 0
M  V30 7613 H 732.998 3.31179 1.57213 0
M  V30 7614 H 732.646 3.0103 4.02976 0
M  V30 7615 H 732.346 4.69478 3.53362 0
M  V30 7616 H 733.87 4.27067 4.36401 0
M  V30 7617 H 735.284 5.24588 2.31258 0
M  V30 7618 H 733.681 5.75349 1.70569 0
M  V30 7619 H 734.751 4.80409 0.65843 0
M  V30 7620 N 736.094 -0.359525 1.53444 0
M  V30 7621 C 737.319 -1.12644 1.74144 0
M  V30 7622 C 737.744 -1.82082 0.472007 0
M  V30 7623 O 737.102 -1.71962 -0.57436 0
M  V30 7624 C 737.15 -2.12781 2.9113 0
M  V30 7625 O 736.254 -3.19984 2.60162 0
M  V30 7626 H 735.595 -0.326553 0.578152 0
M  V30 7627 H 738.125 -0.414798 2.00351 0
M  V30 7628 H 738.135 -2.56278 3.17467 0
M  V30 7629 H 736.81 -1.61634 3.83207 0
M  V30 7630 H 735.387 -2.81417 2.44661 0
M  V30 7631 N 737.572 -1.44907 -0.619662 0
M  V30 7632 C 738.849 -1.38766 -1.37852 0
M  V30 7633 C 739.229 -0.0521393 -2.11036 0
M  V30 7634 O 738.577 0.965613 -2.07095 0
M  V30 7635 C 738.787 -2.59344 -2.33541 0
M  V30 7636 C 740.135 -3.03909 -2.96521 0
M  V30 7637 O 741.159 -2.59631 -2.43865 0
M  V30 7638 O 740.018 -3.80713 -3.92071 0
M  V30 7639 H 737.112 -0.550083 -0.617525 0
M  V30 7640 H 739.658 -1.57015 -0.643759 0
M  V30 7641 H 738.43 -3.48142 -1.78642 0
M  V30 7642 H 738.053 -2.43367 -3.14417 0
M  V30 7643 N 739.05 0.861098 -1.31996 0
M  V30 7644 C 739.96 2.00154 -1.22374 0
M  V30 7645 C 740.976 1.73447 -0.138631 0
M  V30 7646 O 742.152 1.98191 -0.358104 0
M  V30 7647 C 739.217 3.33696 -0.940645 0
M  V30 7648 C 738.278 3.73668 -2.11355 0
M  V30 7649 C 737.511 5.00837 -1.84386 0
M  V30 7650 O 737.734 5.64996 -0.783287 0
M  V30 7651 O 736.668 5.37787 -2.70313 0
M  V30 7652 H 740.494 2.11207 -2.18233 0
M  V30 7653 H 738.079 0.990768 -1.11822 0
M  V30 7654 H 739.961 4.13756 -0.798987 0
M  V30 7655 H 738.636 3.23698 -0.0121636 0
M  V30 7656 H 737.543 2.94211 -2.31065 0
M  V30 7657 H 738.876 3.88303 -3.02459 0
M  V30 7658 N 740.528 1.15101 1.07655 0
M  V30 7659 C 741.438 0.858869 2.18313 0
M  V30 7660 C 742.454 -0.163641 1.73229 0
M  V30 7661 O 743.63 0.00969541 2.01398 0
M  V30 7662 C 740.695 0.34893 3.4494 0
M  V30 7663 C 739.756 1.43495 4.04608 0
M  V30 7664 C 738.989 0.949253 5.2519 0
M  V30 7665 O 739.212 -0.20636 5.70027 0
M  V30 7666 O 738.146 1.73161 5.76454 0
M  V30 7667 H 741.972 1.78386 2.45788 0
M  V30 7668 H 739.557 0.929876 1.16934 0
M  V30 7669 H 741.439 0.070851 4.2134 0
M  V30 7670 H 740.114 -0.548237 3.19024 0
M  V30 7671 H 739.021 1.7666 3.29761 0
M  V30 7672 H 740.354 2.30692 4.3479 0
M  V30 7673 N 742.006 -1.2595 0.947325 0
M  V30 7674 C 742.939 -2.24559 0.406009 0
M  V30 7675 C 743.917 -1.54441 -0.508598 0
M  V30 7676 O 745.101 -1.83181 -0.444644 0
M  V30 7677 C 742.228 -3.36136 -0.415987 0
M  V30 7678 C 741.274 -4.24245 0.437969 0
M  V30 7679 S 742.107 -5.01948 1.86572 0
M  V30 7680 C 743.263 -6.16997 1.05194 0
M  V30 7681 H 743.496 -2.70128 1.24171 0
M  V30 7682 H 741.029 -1.34912 0.750874 0
M  V30 7683 H 742.987 -4.00861 -0.88433 0
M  V30 7684 H 741.648 -2.89167 -1.22643 0
M  V30 7685 H 740.841 -5.03634 -0.192127 0
M  V30 7686 H 740.443 -3.64416 0.841235 0
M  V30 7687 H 742.735 -6.76848 0.297126 0
M  V30 7688 H 743.678 -6.84324 1.8195 0
M  V30 7689 H 744.086 -5.61458 0.585294 0
M  V30 7690 N 743.484 -0.715051 -1.40445 0
M  V30 7691 C 744.709 -0.26254 -2.05732 0
M  V30 7692 C 745.134 1.08691 -1.53519 0
M  V30 7693 O 744.492 1.68453 -0.670328 0
M  V30 7694 C 744.54 -0.25195 -3.59719 0
M  V30 7695 O 743.644 0.766998 -4.05205 0
M  V30 7696 H 742.985 -0.123398 -0.652433 0
M  V30 7697 H 745.515 -0.975382 -1.79854 0
M  V30 7698 H 745.525 -0.0894537 -4.07902 0
M  V30 7699 H 744.2 -1.23672 -3.97087 0
M  V30 7700 H 742.777 0.572269 -3.68483 0
M  V30 7701 N 744.962 1.50701 -0.461195 0
M  V30 7702 C 745.892 2.31182 0.328184 0
M  V30 7703 C 746.873 1.37644 0.999408 0
M  V30 7704 O 748.058 1.66565 0.99848 0
M  V30 7705 C 745.188 3.17113 1.41621 0
M  V30 7706 C 744.142 4.19124 0.867148 0
M  V30 7707 C 743.468 4.93728 2.05272 0
M  V30 7708 C 744.768 5.22174 -0.114808 0
M  V30 7709 H 746.462 2.97423 -0.343501 0
M  V30 7710 H 744.008 1.43033 -0.166641 0
M  V30 7711 H 745.961 3.72208 1.97584 0
M  V30 7712 H 744.685 2.48739 2.11652 0
M  V30 7713 H 743.344 3.65116 0.329557 0
M  V30 7714 H 742.992 4.21835 2.73978 0
M  V30 7715 H 742.692 5.62724 1.69161 0
M  V30 7716 H 744.216 5.51654 2.61744 0
M  V30 7717 H 745.63 5.72198 0.355316 0
M  V30 7718 H 744.027 5.98833 -0.389689 0
M  V30 7719 H 745.097 4.7353 -1.04391 0
M  V30 7720 N 746.441 0.193421 1.56409 0
M  V30 7721 C 747.688 -0.445789 1.97532 0
M  V30 7722 C 748.016 -1.61744 1.08024 0
M  V30 7723 O 747.271 -1.95338 0.118982 0
M  V30 7724 C 747.57 -0.949718 3.44551 0
M  V30 7725 C 747.236 0.108383 4.5077 0
M  V30 7726 C 745.898 0.399126 4.79542 0
M  V30 7727 C 748.25 0.825423 5.14622 0
M  V30 7728 C 745.578 1.41192 5.69457 0
M  V30 7729 C 747.93 1.82735 6.05632 0
M  V30 7730 C 746.594 2.12531 6.32761 0
M  V30 7731 H 745.864 -0.163126 0.722822 0
M  V30 7732 H 748.511 0.290035 1.89291 0
M  V30 7733 H 746.816 -1.76378 3.49854 0
M  V30 7734 H 748.513 -1.45367 3.73724 0
M  V30 7735 H 745.103 -0.128392 4.28408 0
M  V30 7736 H 749.287 0.61403 4.92487 0
M  V30 7737 H 744.543 1.6487 5.88751 0
M  V30 7738 H 748.717 2.3882 6.5417 0
M  V30 7739 H 746.344 2.91155 7.02234 0
M  V30 7740 N 747.919 -1.57396 -0.0801906 0
M  V30 7741 C 749.147 -1.91055 -0.794075 0
M  V30 7742 C 749.562 -0.788583 -1.71542 0
M  V30 7743 O 748.919 0.238587 -1.80934 0
M  V30 7744 C 748.97 -3.24418 -1.59484 0
M  V30 7745 O 748.691 -4.323 -0.710532 0
M  V30 7746 C 750.192 -3.72037 -2.41046 0
M  V30 7747 H 747.412 -0.63171 -0.226238 0
M  V30 7748 H 749.956 -2.04431 -0.0529685 0
M  V30 7749 H 748.111 -3.12595 -2.2883 0
M  V30 7750 H 748.525 -5.08976 -1.26663 0
M  V30 7751 H 749.999 -4.68006 -2.92702 0
M  V30 7752 H 750.476 -3.00624 -3.2019 0
M  V30 7753 H 751.082 -3.86777 -1.76871 0
M  V30 7754 N 749.397 0.351382 -1.53633 0
M  V30 7755 C 750.36 1.41403 -1.80383 0
M  V30 7756 C 751.36 1.45963 -0.674635 0
M  V30 7757 O 752.55 1.46476 -0.942895 0
M  V30 7758 C 749.682 2.80401 -1.93876 0
M  V30 7759 H 750.875 1.18951 -2.75301 0
M  V30 7760 H 748.428 0.58533 -1.44926 0
M  V30 7761 H 749.163 3.08147 -1.01074 0
M  V30 7762 H 748.948 2.78488 -2.7602 0
M  V30 7763 H 750.438 3.57329 -2.16116 0
M  V30 7764 N 750.875 1.45233 0.611969 0
M  V30 7765 C 752.121 1.49242 1.37312 0
M  V30 7766 C 752.454 0.131963 1.93751 0
M  V30 7767 O 751.729 -0.852999 1.74798 0
M  V30 7768 C 752.012 2.56811 2.52428 0
M  V30 7769 C 751.865 4.02284 2.01215 0
M  V30 7770 C 753.184 2.60705 3.54572 0
M  V30 7771 H 750.303 0.54336 0.497925 0
M  V30 7772 H 752.945 1.77019 0.690242 0
M  V30 7773 H 751.095 2.33256 3.10683 0
M  V30 7774 H 752.767 4.37035 1.47643 0
M  V30 7775 H 751.01 4.1315 1.32248 0
M  V30 7776 H 751.681 4.7323 2.84178 0
M  V30 7777 H 754.157 2.81799 3.06151 0
M  V30 7778 H 753.033 3.37841 4.32614 0
M  V30 7779 H 753.294 1.65627 4.09903 0
M  V30 7780 N 752.353 -0.854086 1.3245 0
M  V30 7781 C 753.599 -1.61069 1.23225 0
M  V30 7782 C 753.932 -1.93111 -0.205349 0
M  V30 7783 O 753.207 -1.57397 -1.14265 0
M  V30 7784 C 753.49 -2.93065 2.09249 0
M  V30 7785 C 753.343 -2.67801 3.6139 0
M  V30 7786 C 754.662 -3.94341 1.95406 0
M  V30 7787 H 751.781 -0.584449 0.448986 0
M  V30 7788 H 754.423 -0.986189 1.62402 0
M  V30 7789 H 752.573 -3.46364 1.75967 0
M  V30 7790 H 754.245 -2.21052 4.04887 0
M  V30 7791 H 752.488 -2.01756 3.84027 0
M  V30 7792 H 753.159 -3.6179 4.16907 0
M  V30 7793 H 755.635 -3.50301 2.24562 0
M  V30 7794 H 754.511 -4.84555 2.57872 0
M  V30 7795 H 754.772 -4.32382 0.921865 0
M  V30 7796 N 753.831 -1.1567 -1.07043 0
M  V30 7797 C 754.761 -0.879348 -2.16309 0
M  V30 7798 C 755.742 0.171311 -1.69235 0
M  V30 7799 O 756.927 0.0250175 -1.94184 0
M  V30 7800 C 754.057 -0.371307 -3.45309 0
M  V30 7801 C 753.011 -1.359 -4.05851 0
M  V30 7802 C 752.337 -0.709678 -5.29969 0
M  V30 7803 C 753.637 -2.72606 -4.45514 0
M  V30 7804 H 755.331 -1.79308 -2.39768 0
M  V30 7805 H 752.877 -0.863558 -1.15233 0
M  V30 7806 H 754.83 -0.164798 -4.21078 0
M  V30 7807 H 753.554 0.577906 -3.21446 0
M  V30 7808 H 752.213 -1.55193 -3.32131 0
M  V30 7809 H 751.861 0.245782 -5.02399 0
M  V30 7810 H 751.561 -1.36886 -5.71433 0
M  V30 7811 H 753.085 -0.513015 -6.08441 0
M  V30 7812 H 754.499 -2.57141 -5.12398 0
M  V30 7813 H 752.896 -3.34927 -4.97939 0
M  V30 7814 H 753.966 -3.28434 -3.56734 0
M  V30 7815 N 755.309 1.25446 -0.953992 0
M  V30 7816 C 756.555 1.9343 -0.60933 0
M  V30 7817 C 756.888 1.74542 0.851388 0
M  V30 7818 O 756.163 1.09014 1.61078 0
M  V30 7819 C 756.446 3.46844 -0.968041 0
M  V30 7820 C 756.299 3.74961 -2.48444 0
M  V30 7821 C 757.618 4.37334 -0.492641 0
M  V30 7822 H 754.737 0.702502 -0.222844 0
M  V30 7823 H 757.379 1.48076 -1.19053 0
M  V30 7824 H 755.529 3.85604 -0.473465 0
M  V30 7825 H 757.201 3.45841 -3.05273 0
M  V30 7826 H 755.444 3.20589 -2.92241 0
M  V30 7827 H 756.115 4.82246 -2.68594 0
M  V30 7828 H 758.591 4.05873 -0.916878 0
M  V30 7829 H 757.467 5.43439 -0.772331 0
M  V30 7830 H 757.728 4.37908 0.607403 0
M  V30 7831 N 756.787 0.722489 1.40064 0
M  V30 7832 C 758.012 0.273446 2.05589 0
M  V30 7833 C 758.437 -1.07875 1.54093 0
M  V30 7834 O 757.795 -1.68095 0.679252 0
M  V30 7835 C 757.843 0.271023 3.5958 0
M  V30 7836 O 756.947 -0.745499 4.05606 0
M  V30 7837 H 756.288 0.126856 0.65177 0
M  V30 7838 H 758.818 0.984906 1.79334 0
M  V30 7839 H 758.828 0.111084 4.07849 0
M  V30 7840 H 757.503 1.25776 3.96425 0
M  V30 7841 H 756.08 -0.552719 3.68781 0
M  V30 7842 N 758.265 -1.50454 0.469181 0
M  V30 7843 C 759.228 -2.2703 -0.314643 0
M  V30 7844 C 760.228 -1.31734 -0.922111 0
M  V30 7845 O 761.418 -1.55176 -0.791588 0
M  V30 7846 C 758.55 -3.08616 -1.44806 0
M  V30 7847 H 759.743 -2.97769 0.356892 0
M  V30 7848 H 757.296 -1.54698 0.223191 0
M  V30 7849 H 758.031 -2.42369 -2.1547 0
M  V30 7850 H 757.816 -3.78647 -1.01829 0
M  V30 7851 H 759.306 -3.66536 -2.00103 0
M  V30 7852 N 759.743 -0.201713 -1.56304 0
M  V30 7853 C 761.02 0.483273 -1.89536 0
M  V30 7854 C 761.4 1.79176 -1.11621 0
M  V30 7855 O 760.748 2.27445 -0.219339 0
M  V30 7856 C 760.958 0.695604 -3.41998 0
M  V30 7857 C 762.306 1.012 -4.12364 0
M  V30 7858 O 763.33 0.783094 -3.47485 0
M  V30 7859 O 762.189 1.44534 -5.27041 0
M  V30 7860 H 759.283 0.252801 -0.787414 0
M  V30 7861 H 761.829 -0.24242 -1.6796 0
M  V30 7862 H 760.601 -0.228165 -3.90634 0
M  V30 7863 H 760.224 1.47351 -3.69288 0
M  V30 7864 N 761.222 1.57436 0.0718424 0
M  V30 7865 C 762.638 1.53792 0.426628 0
M  V30 7866 C 762.838 0.921887 1.79174 0
M  V30 7867 O 761.894 0.524374 2.46995 0
M  V30 7868 C 763.207 2.98443 0.367739 0
M  V30 7869 C 764.755 3.09778 0.447928 0
M  V30 7870 C 765.23 4.5608 0.418946 0
M  V30 7871 N 766.721 4.60716 0.479022 0
M  V30 7872 C 767.456 5.71397 0.47881 0
M  V30 7873 N 766.952 6.91443 0.433417 0
M  V30 7874 N 768.745 5.59639 0.525364 0
M  V30 7875 H 760.896 1.95848 -0.822033 0
M  V30 7876 H 763.159 0.896418 -0.308447 0
M  V30 7877 H 762.865 3.47072 -0.56865 0
M  V30 7878 H 762.739 3.58335 1.17795 0
M  V30 7879 H 765.126 2.61122 1.37474 0
M  V30 7880 H 765.207 2.52796 -0.390857 0
M  V30 7881 H 764.851 5.05393 -0.504016 0
M  V30 7882 H 764.781 5.10925 1.27526 0
M  V30 7883 H 767.272 3.74328 0.518355 0
M  V30 7884 H 767.585 7.71562 0.43718 0
M  V30 7885 H 765.93 6.93847 0.400106 0
M  V30 7886 H 769.121 4.64756 0.558519 0
M  V30 7887 H 769.294 6.45896 0.52173 0
M  V30 7888 N 762.7 -0.34323 1.53817 0
M  V30 7889 C 763.925 -1.1079 1.75329 0
M  V30 7890 C 764.35 -1.81571 0.491293 0
M  V30 7891 O 763.708 -1.72561 -0.556089 0
M  V30 7892 C 763.756 -2.09681 2.9337 0
M  V30 7893 O 762.86 -3.17207 2.63541 0
M  V30 7894 H 762.201 -0.320402 0.581583 0
M  V30 7895 H 764.731 -0.393525 2.0078 0
M  V30 7896 H 764.741 -2.52897 3.20168 0
M  V30 7897 H 763.416 -1.5756 3.84899 0
M  V30 7898 H 761.993 -2.78806 2.47632 0
M  V30 7899 N 764.178 -1.45556 -0.604258 0
M  V30 7900 C 765.426 -1.4945 -1.36048 0
M  V30 7901 C 765.747 -0.138933 -1.94504 0
M  V30 7902 O 765.017 0.832097 -1.7735 0
M  V30 7903 H 763.597 -0.550381 -0.505064 0
M  V30 7904 H 766.259 -1.81535 -0.709308 0
M  V30 7905 H 765.355 -2.23519 -2.17821 0
M  V30 7906 N 765.656 0.84705 -1.32902 0
M  V30 7907 C 766.905 1.59667 -1.23245 0
M  V30 7908 C 767.218 1.94551 0.202349 0
M  V30 7909 O 768.424 2.68218 0.420847 0
M  V30 7910 C 766.88 2.8795 -2.15901 0
M  V30 7911 C 766.488 2.60461 -3.64505 0
M  V30 7912 C 768.232 3.65968 -2.15098 0
M  V30 7913 C 766.139 3.84791 -4.49099 0
M  V30 7914 H 765.069 0.599167 -0.457728 0
M  V30 7915 H 767.72 0.934662 -1.57912 0
M  V30 7916 H 766.102 3.55648 -1.74157 0
M  V30 7917 H 767.276 2.01026 -4.14639 0
M  V30 7918 H 765.591 1.9576 -3.67515 0
M  V30 7919 H 768.188 4.58241 -2.75534 0
M  V30 7920 H 768.531 4.00275 -1.14392 0
M  V30 7921 H 769.064 3.05184 -2.55162 0
M  V30 7922 H 765.803 3.55621 -5.50649 0
M  V30 7923 H 765.323 4.43594 -4.03713 0
M  V30 7924 H 767.002 4.52454 -4.62487 0
M  V30 7925 N 767.134 1.16236 1.06428 0
M  V30 7926 C 768.044 0.881976 2.1739 0
M  V30 7927 C 769.06 -0.145259 1.73393 0
M  V30 7928 O 770.236 0.0310558 2.01376 0
M  V30 7929 C 767.301 0.385496 3.4455 0
M  V30 7930 C 766.362 1.47779 4.03063 0
M  V30 7931 C 765.595 1.0049 5.24154 0
M  V30 7932 O 765.818 -0.145889 5.70213 0
M  V30 7933 O 764.752 1.79265 5.74585 0
M  V30 7934 H 768.578 1.80983 2.43883 0
M  V30 7935 H 766.163 0.942226 1.15942 0
M  V30 7936 H 768.045 0.115536 4.21242 0
M  V30 7937 H 766.72 -0.514369 3.19587 0
M  V30 7938 H 765.627 1.80147 3.27869 0
M  V30 7939 H 766.96 2.35291 4.32318 0
M  V30 7940 N 768.612 -1.24939 0.960631 0
M  V30 7941 C 769.56 -2.27659 0.47686 0
M  V30 7942 C 770.554 -1.63148 -0.455961 0
M  V30 7943 O 771.76 -1.76911 -0.332029 0
M  V30 7944 H 768.135 -0.739651 0.135723 0
M  V30 7945 H 770.106 -2.65844 1.35534 0
M  V30 7946 C 768.855 -3.46976 -0.224191 0
M  V30 7947 H 768.178 -3.96854 0.484471 0
M  V30 7948 H 769.618 -4.20717 -0.526615 0
M  V30 7949 C 768.077 -3.04159 -1.44876 0
M  V30 7950 O 768.607 -3.10697 -2.54618 0
M  V30 7951 N 766.813 -2.59284 -1.31226 0
M  V30 7952 H 766.36 -2.54164 -0.419361 0
M  V30 7953 H 766.318 -2.31 -2.13275 0
M  V30 7954 N 770.09 -0.729906 -1.39679 0
M  V30 7955 C 771.336 -0.27603 -2.00913 0
M  V30 7956 C 771.669 1.13227 -1.57776 0
M  V30 7957 O 770.944 1.7709 -0.804319 0
M  V30 7958 C 771.227 -0.372157 -3.58172 0
M  V30 7959 C 771.08 -1.81986 -4.11341 0
M  V30 7960 C 772.399 0.248378 -4.39399 0
M  V30 7961 H 769.518 -0.101773 -0.729939 0
M  V30 7962 H 772.16 -0.925104 -1.65957 0
M  V30 7963 H 770.31 0.180459 -3.88081 0
M  V30 7964 H 771.982 -2.42896 -3.92172 0
M  V30 7965 H 770.225 -2.34287 -3.65092 0
M  V30 7966 H 770.896 -1.83842 -5.20486 0
M  V30 7967 H 773.372 -0.222645 -4.15504 0
M  V30 7968 H 772.248 0.150746 -5.48693 0
M  V30 7969 H 772.509 1.33378 -4.21501 0
M  V30 7970 N 771.568 1.50203 -0.477153 0
M  V30 7971 C 772.516 2.30278 0.327826 0
M  V30 7972 C 773.51 1.37831 0.984839 0
M  V30 7973 O 774.716 1.54994 0.915251 0
M  V30 7974 H 771.091 0.741612 0.124564 0
M  V30 7975 H 773.062 2.96124 -0.367853 0
M  V30 7976 C 771.811 3.18548 1.39365 0
M  V30 7977 H 771.134 3.89596 0.897475 0
M  V30 7978 H 772.574 3.77561 1.92934 0
M  V30 7979 C 771.033 2.36548 2.39889 0
M  V30 7980 O 771.563 2.05282 3.45286 0
M  V30 7981 N 769.769 1.99015 2.11758 0
M  V30 7982 H 769.316 2.24641 1.26071 0
M  V30 7983 H 769.274 1.44454 2.7925 0
M  V30 7984 N 773.046 0.209999 1.56195 0
M  V30 7985 C 774.271 -0.433064 2.02828 0
M  V30 7986 C 774.696 -1.5337 1.08901 0
M  V30 7987 O 774.054 -1.81144 0.0751132 0
M  V30 7988 C 774.102 -0.952635 3.47789 0
M  V30 7989 O 773.206 -2.0647 3.56993 0
M  V30 7990 H 772.547 -0.0994594 0.656509 0
M  V30 7991 H 775.077 0.32525 2.01998 0
M  V30 7992 H 775.087 -1.26542 3.8788 0
M  V30 7993 H 773.762 -0.147007 4.1564 0
M  V30 7994 H 772.339 -1.75942 3.28784 0
M  V30 7995 N 774.524 -1.57472 -0.0634922 0
M  V30 7996 C 775.77 -1.87932 -0.762194 0
M  V30 7997 C 776.103 -0.803377 -1.76804 0
M  V30 7998 O 775.378 0.185468 -1.93614 0
M  V30 7999 C 775.661 -3.29053 -1.46275 0
M  V30 8000 C 775.514 -4.47309 -0.472755 0
M  V30 8001 C 776.833 -3.68537 -2.40558 0
M  V30 8002 H 773.952 -0.683521 -0.275624 0
M  V30 8003 H 776.594 -1.89983 -0.0252651 0
M  V30 8004 H 774.744 -3.27435 -2.0909 0
M  V30 8005 H 776.416 -4.61053 0.150828 0
M  V30 8006 H 774.659 -4.33286 0.211187 0
M  V30 8007 H 775.33 -5.42853 -1.00072 0
M  V30 8008 H 777.806 -3.71302 -1.87814 0
M  V30 8009 H 776.682 -4.68152 -2.86574 0
M  V30 8010 H 776.943 -2.98917 -3.25731 0
M  V30 8011 N 776.003 0.335068 -1.53997 0
M  V30 8012 C 776.913 1.43511 -1.85585 0
M  V30 8013 C 777.929 1.57162 -0.746726 0
M  V30 8014 O 779.105 1.72477 -1.03988 0
M  V30 8015 C 776.17 2.78386 -2.06646 0
M  V30 8016 C 775.231 2.74007 -3.30483 0
M  V30 8017 C 774.464 4.02449 -3.50529 0
M  V30 8018 O 774.687 5.00147 -2.74242 0
M  V30 8019 O 773.621 4.06405 -4.4398 0
M  V30 8020 H 777.447 1.19731 -2.79102 0
M  V30 8021 H 775.032 0.528033 -1.39758 0
M  V30 8022 H 776.914 3.58247 -2.21894 0
M  V30 8023 H 775.589 3.0208 -1.16317 0
M  V30 8024 H 774.496 1.92736 -3.2063 0
M  V30 8025 H 775.829 2.55267 -4.20832 0
M  V30 8026 N 777.481 1.45874 0.596531 0
M  V30 8027 C 778.444 1.54988 1.68853 0
M  V30 8028 C 779.444 0.428302 1.54991 0
M  V30 8029 O 780.634 0.692158 1.59859 0
M  V30 8030 C 777.766 1.457 3.08195 0
M  V30 8031 H 778.959 2.52294 1.62135 0
M  V30 8032 H 776.512 1.33479 0.813206 0
M  V30 8033 H 777.247 0.496204 3.20481 0
M  V30 8034 H 777.032 2.27061 3.19665 0
M  V30 8035 H 778.522 1.55133 3.87716 0
M  V30 8036 N 778.959 -0.83999 1.33349 0
M  V30 8037 C 779.889 -1.965 1.26135 0
M  V30 8038 C 780.87 -1.69505 0.142152 0
M  V30 8039 O 782.055 -1.91346 0.331743 0
M  V30 8040 C 779.185 -3.32632 0.99866 0
M  V30 8041 C 778.139 -3.74021 2.08068 0
M  V30 8042 C 777.465 -5.07947 1.67014 0
M  V30 8043 C 778.765 -3.87925 3.49731 0
M  V30 8044 H 780.459 -2.02793 2.20262 0
M  V30 8045 H 778.005 -0.974297 1.06035 0
M  V30 8046 H 779.958 -4.10903 0.934696 0
M  V30 8047 H 778.682 -3.26593 0.0217759 0
M  V30 8048 H 777.341 -2.98012 2.13505 0
M  V30 8049 H 776.989 -4.98378 0.680316 0
M  V30 8050 H 776.689 -5.36611 2.39422 0
M  V30 8051 H 778.213 -5.88695 1.62082 0
M  V30 8052 H 779.627 -4.5651 3.46802 0
M  V30 8053 H 778.024 -4.28023 4.20614 0
M  V30 8054 H 779.094 -2.90407 3.88319 0
M  V30 8055 N 780.437 -1.16799 -1.0581 0
M  V30 8056 C 781.369 -0.836774 -2.13379 0
M  V30 8057 C 782.382 0.158116 -1.6203 0
M  V30 8058 O 783.571 -0.0673211 -1.78373 0
M  V30 8059 C 780.671 -0.225959 -3.38146 0
M  V30 8060 C 779.844 -1.26217 -4.18794 0
M  V30 8061 C 778.903 -0.670257 -5.21914 0
M  V30 8062 O 777.929 -1.34042 -5.53192 0
M  V30 8063 N 779.131 0.540683 -5.77977 0
M  V30 8064 H 781.896 -1.76257 -2.42391 0
M  V30 8065 H 779.457 -1.06599 -1.21853 0
M  V30 8066 H 781.449 0.18317 -4.04285 0
M  V30 8067 H 780.019 0.603494 -3.06719 0
M  V30 8068 H 779.239 -1.84729 -3.48237 0
M  V30 8069 H 780.527 -1.9613 -4.69479 0
M  V30 8070 H 779.925 1.10322 -5.54838 0
M  V30 8071 H 778.482 0.891958 -6.45668 0
M  V30 8072 N 781.915 1.24427 -0.967243 0
M  V30 8073 C 782.825 2.29109 -0.504592 0
M  V30 8074 C 783.841 1.68495 0.434224 0
M  V30 8075 O 785.017 1.99041 0.307379 0
M  V30 8076 C 782.082 3.46133 0.198273 0
M  V30 8077 C 781.143 4.22149 -0.780313 0
M  V30 8078 C 780.376 5.33585 -0.110896 0
M  V30 8079 O 780.599 5.59676 1.10088 0
M  V30 8080 O 779.533 5.96522 -0.802823 0
M  V30 8081 H 783.359 2.708 -1.37482 0
M  V30 8082 H 780.944 1.30111 -0.73426 0
M  V30 8083 H 782.826 4.17205 0.593124 0
M  V30 8084 H 781.501 3.0642 1.04347 0
M  V30 8085 H 780.408 3.53454 -1.22561 0
M  V30 8086 H 781.741 4.65677 -1.59392 0
M  V30 8087 N 783.393 0.737304 1.3929 0
M  V30 8088 C 784.621 0.296573 2.04763 0
M  V30 8089 C 785.036 -1.06941 1.55592 0
M  V30 8090 O 784.393 -1.67619 0.721822 0
M  V30 8091 C 784.444 0.291906 3.6032 0
M  V30 8092 O 784.165 1.60397 4.07682 0
M  V30 8093 C 785.666 -0.164708 4.42994 0
M  V30 8094 H 782.886 0.129251 0.658434 0
M  V30 8095 H 785.43 1.0016 1.78293 0
M  V30 8096 H 783.585 -0.364251 3.85684 0
M  V30 8097 H 783.999 1.51909 5.0202 0
M  V30 8098 H 785.473 -0.116814 5.51876 0
M  V30 8099 H 785.95 -1.21022 4.22197 0
M  V30 8100 H 786.556 0.461968 4.22784 0
M  V30 8101 N 784.871 -1.49948 0.485112 0
M  V30 8102 C 785.801 -2.31675 -0.291364 0
M  V30 8103 C 786.782 -1.39216 -0.977383 0
M  V30 8104 O 787.967 -1.68133 -0.971855 0
M  V30 8105 C 785.097 -3.19326 -1.36558 0
M  V30 8106 C 784.051 -4.2045 -0.800359 0
M  V30 8107 C 783.377 -4.96931 -1.97391 0
M  V30 8108 C 784.677 -5.21925 0.197867 0
M  V30 8109 H 786.371 -2.96839 0.390775 0
M  V30 8110 H 783.917 -1.42749 0.189375 0
M  V30 8111 H 785.87 -3.75304 -1.91638 0
M  V30 8112 H 784.594 -2.52074 -2.07668 0
M  V30 8113 H 783.253 -3.65594 -0.271428 0
M  V30 8114 H 782.901 -4.26141 -2.67232 0
M  V30 8115 H 782.601 -5.65344 -1.60187 0
M  V30 8116 H 784.125 -5.55749 -2.52935 0
M  V30 8117 H 785.539 -5.72691 -0.264239 0
M  V30 8118 H 783.936 -5.98138 0.484908 0
M  V30 8119 H 785.006 -4.71809 1.11912 0
M  V30 8120 N 786.349 -0.21828 -1.56081 0
M  V30 8121 C 787.598 0.414644 -1.97392 0
M  V30 8122 C 787.911 1.61132 -1.10887 0
M  V30 8123 O 789.117 2.31355 -1.42082 0
M  V30 8124 C 787.573 0.789099 -3.51143 0
M  V30 8125 C 787.181 -0.384578 -4.46346 0
M  V30 8126 C 788.925 1.38781 -4.01173 0
M  V30 8127 C 786.832 0.0121288 -5.91399 0
M  V30 8128 H 785.762 0.158691 -0.737111 0
M  V30 8129 H 788.413 -0.313974 -1.80794 0
M  V30 8130 H 786.795 1.57505 -3.6333 0
M  V30 8131 H 787.969 -1.16212 -4.45905 0
M  V30 8132 H 786.284 -0.896306 -4.06639 0
M  V30 8133 H 788.881 1.69746 -5.07041 0
M  V30 8134 H 789.224 2.30245 -3.46833 0
M  V30 8135 H 789.757 0.665364 -3.92196 0
M  V30 8136 H 786.496 -0.868917 -6.49715 0
M  V30 8137 H 786.016 0.754053 -5.95041 0
M  V30 8138 H 787.695 0.439949 -6.45502 0
M  V30 8139 N 787.827 1.57504 0.0551401 0
M  V30 8140 C 789.243 1.54236 0.410292 0
M  V30 8141 C 789.443 0.940839 1.78187 0
M  V30 8142 O 788.499 0.550541 2.46425 0
M  V30 8143 C 789.812 2.98816 0.336064 0
M  V30 8144 C 791.36 3.10236 0.415047 0
M  V30 8145 C 791.835 4.56499 0.37055 0
M  V30 8146 N 793.326 4.61199 0.43013 0
M  V30 8147 C 794.061 5.71873 0.418179 0
M  V30 8148 N 793.557 6.91864 0.360056 0
M  V30 8149 N 795.35 5.60165 0.465977 0
M  V30 8150 H 787.501 1.94965 -0.842759 0
M  V30 8151 H 789.764 0.893096 -0.317937 0
M  V30 8152 H 789.47 3.4645 -0.605429 0
M  V30 8153 H 789.344 3.59564 1.13988 0
M  V30 8154 H 791.731 2.62566 1.34697 0
M  V30 8155 H 791.812 2.52367 -0.417648 0
M  V30 8156 H 791.456 5.0483 -0.557592 0
M  V30 8157 H 791.386 5.12249 1.221 0
M  V30 8158 H 793.877 3.74857 0.478623 0
M  V30 8159 H 794.19 7.71983 0.35532 0
M  V30 8160 H 792.535 6.94233 0.326492 0
M  V30 8161 H 795.726 4.65322 0.509194 0
M  V30 8162 H 795.899 6.46413 0.453194 0
M  V30 8163 N 789.305 -0.326896 1.54172 0
M  V30 8164 C 790.268 -1.38515 1.8261 0
M  V30 8165 C 791.268 -1.44872 0.697771 0
M  V30 8166 O 792.458 -1.44957 0.966078 0
M  V30 8167 C 789.59 -2.77281 1.98313 0
M  V30 8168 H 790.783 -1.14556 2.77159 0
M  V30 8169 H 788.336 -0.562199 1.45839 0
M  V30 8170 H 789.071 -3.065 1.05964 0
M  V30 8171 H 788.856 -2.74061 2.80416 0
M  V30 8172 H 790.346 -3.53845 2.21773 0
M  V30 8173 N 790.784 -1.46188 -0.588786 0
M  V30 8174 C 791.714 -1.59148 -1.70863 0
M  V30 8175 C 792.695 -0.442083 -1.64255 0
M  V30 8176 O 793.88 -0.667575 -1.82365 0
M  V30 8177 C 791.01 -1.5757 -3.09498 0
M  V30 8178 C 789.964 -2.71418 -3.30932 0
M  V30 8179 C 789.29 -2.549 -4.70032 0
M  V30 8180 C 790.59 -4.1329 -3.19356 0
M  V30 8181 H 792.284 -2.52889 -1.60274 0
M  V30 8182 H 789.83 -1.21707 -0.769638 0
M  V30 8183 H 791.783 -1.65231 -3.87655 0
M  V30 8184 H 790.507 -0.603705 -3.20972 0
M  V30 8185 H 789.166 -2.63216 -2.55172 0
M  V30 8186 H 788.814 -1.55797 -4.78264 0
M  V30 8187 H 788.514 -3.31257 -4.85327 0
M  V30 8188 H 790.038 -2.64443 -5.50366 0
M  V30 8189 H 791.452 -4.22636 -3.87365 0
M  V30 8190 H 789.849 -4.90187 -3.46175 0
M  V30 8191 H 790.919 -4.33874 -2.16522 0
M  V30 8192 N 792.262 0.832906 -1.33792 0
M  V30 8193 C 793.678 1.1245 -1.13257 0
M  V30 8194 C 793.878 2.01369 0.0725832 0
M  V30 8195 O 792.934 2.41071 0.751082 0
M  V30 8196 C 794.247 1.78084 -2.42294 0
M  V30 8197 C 795.795 1.90624 -2.48257 0
M  V30 8198 C 796.27 2.59673 -3.77271 0
M  V30 8199 N 797.761 2.67181 -3.78376 0
M  V30 8200 C 798.496 3.21313 -4.74916 0
M  V30 8201 N 797.992 3.76086 -5.81835 0
M  V30 8202 N 799.785 3.19621 -4.62384 0
M  V30 8203 H 791.936 0.241244 -2.11026 0
M  V30 8204 H 794.199 0.169557 -0.932713 0
M  V30 8205 H 793.905 1.20209 -3.30519 0
M  V30 8206 H 793.779 2.78049 -2.5489 0
M  V30 8207 H 796.166 2.4765 -1.60478 0
M  V30 8208 H 796.247 0.89591 -2.39598 0
M  V30 8209 H 795.891 2.03304 -4.65435 0
M  V30 8210 H 795.821 3.61189 -3.8321 0
M  V30 8211 H 798.312 2.28346 -3.01108 0
M  V30 8212 H 798.625 4.15612 -6.51526 0
M  V30 8213 H 796.97 3.74357 -5.85561 0
M  V30 8214 H 800.161 2.76091 -3.7801 0
M  V30 8215 H 800.334 3.61504 -5.37791 0
M  V30 8216 N 793.74 1.17359 1.05189 0
M  V30 8217 C 794.968 0.986529 1.81866 0
M  V30 8218 C 795.383 -0.46522 1.82979 0
M  V30 8219 O 794.74 -1.32305 1.25705 0
M  V30 8220 C 794.791 1.52021 3.27982 0
M  V30 8221 O 794.512 2.91511 3.27037 0
M  V30 8222 C 796.013 1.37774 4.21347 0
M  V30 8223 H 793.233 0.349021 0.573084 0
M  V30 8224 H 795.777 1.55648 1.32643 0
M  V30 8225 H 793.932 0.992287 3.74476 0
M  V30 8226 H 794.346 3.16178 4.18488 0
M  V30 8227 H 795.82 1.7993 5.21852 0
M  V30 8228 H 796.297 0.32483 4.37997 0
M  V30 8229 H 796.903 1.89583 3.80708 0
M  V30 8230 N 795.218 -1.23913 0.973828 0
M  V30 8231 C 796.148 -2.27453 0.527969 0
M  V30 8232 C 797.129 -1.6443 -0.435513 0
M  V30 8233 O 798.314 -1.9137 -0.330306 0
M  V30 8234 C 795.444 -3.4685 -0.176757 0
M  V30 8235 C 794.398 -4.22181 0.703352 0
M  V30 8236 C 793.724 -5.34534 -0.133215 0
M  V30 8237 C 795.024 -4.82865 1.99096 0
M  V30 8238 H 796.718 -2.65 1.3934 0
M  V30 8239 H 794.264 -1.27388 0.671446 0
M  V30 8240 H 796.217 -4.18424 -0.499934 0
M  V30 8241 H 794.941 -3.08346 -1.07659 0
M  V30 8242 H 793.6 -3.52416 1.00989 0
M  V30 8243 H 793.248 -4.92271 -1.03338 0
M  V30 8244 H 792.948 -5.85855 0.452494 0
M  V30 8245 H 794.472 -6.08933 -0.450924 0
M  V30 8246 H 795.886 -5.46481 1.73297 0
M  V30 8247 H 794.283 -5.44444 2.52389 0
M  V30 8248 H 795.353 -4.03977 2.68199 0
M  V30 8249 N 796.696 -0.74468 -1.38897 0
M  V30 8250 C 797.945 -0.293716 -1.9955 0
M  V30 8251 C 798.258 1.12831 -1.59777 0
M  V30 8252 O 799.464 1.67929 -2.13336 0
M  V30 8253 C 797.92 -0.474188 -3.56762 0
M  V30 8254 C 797.528 -1.90472 -4.05493 0
M  V30 8255 C 799.272 -0.0854875 -4.24414 0
M  V30 8256 C 797.179 -2.03423 -5.55314 0
M  V30 8257 H 796.109 -0.106066 -0.746502 0
M  V30 8258 H 798.76 -0.919948 -1.58774 0
M  V30 8259 H 797.142 0.221092 -3.95382 0
M  V30 8260 H 798.316 -2.63274 -3.78184 0
M  V30 8261 H 796.631 -2.24752 -3.50536 0
M  V30 8262 H 799.228 -0.161133 -5.34457 0
M  V30 8263 H 799.571 0.96066 -4.05064 0
M  V30 8264 H 800.104 -0.732286 -3.91002 0
M  V30 8265 H 796.843 -3.0626 -5.79556 0
M  V30 8266 H 796.363 -1.3507 -5.84394 0
M  V30 8267 H 798.042 -1.81996 -6.20876 0
M  V30 8268 N 798.174 1.49689 -0.493057 0
M  V30 8269 C 799.107 2.25712 0.336062 0
M  V30 8270 C 800.085 1.29953 0.977294 0
M  V30 8271 O 801.269 1.59225 1.00895 0
M  V30 8272 C 798.396 3.0501 1.47263 0
M  V30 8273 C 797.442 4.15863 0.946575 0
M  V30 8274 S 798.275 5.35272 -0.156323 0
M  V30 8275 C 799.431 6.18123 0.983601 0
M  V30 8276 H 799.664 2.95688 -0.309215 0
M  V30 8277 H 797.197 1.51872 -0.278238 0
M  V30 8278 H 799.155 3.51284 2.12391 0
M  V30 8279 H 797.816 2.34519 2.08949 0
M  V30 8280 H 797.009 4.70834 1.7981 0
M  V30 8281 H 796.611 3.72139 0.372647 0
M  V30 8282 H 798.903 6.50588 1.89056 0
M  V30 8283 H 799.846 7.06521 0.472687 0
M  V30 8284 H 800.254 5.50547 1.24735 0
M  V30 8285 N 799.652 0.226554 1.55963 0
M  V30 8286 C 800.599 -0.681504 2.20509 0
M  V30 8287 C 801.569 -1.1866 1.16229 0
M  V30 8288 O 802.754 -1.24478 1.44602 0
M  V30 8289 C 799.894 -1.88183 2.89277 0
M  V30 8290 C 799.007 -1.41517 4.08163 0
M  V30 8291 C 798.142 -2.57346 4.647 0
M  V30 8292 C 797.181 -2.07441 5.75877 0
M  V30 8293 N 796.318 -3.16561 6.26685 0
M  V30 8294 H 801.158 -0.124372 2.9774 0
M  V30 8295 H 798.695 -0.0496333 1.47016 0
M  V30 8296 H 800.653 -2.58666 3.27335 0
M  V30 8297 H 799.283 -2.41177 2.14555 0
M  V30 8298 H 798.335 -0.605099 3.75557 0
M  V30 8299 H 799.647 -1.00928 4.88482 0
M  V30 8300 H 798.801 -3.35903 5.05227 0
M  V30 8301 H 797.54 -3.01227 3.83554 0
M  V30 8302 H 796.545 -1.27347 5.34848 0
M  V30 8303 H 797.77 -1.64554 6.58862 0
M  V30 8304 H 795.716 -3.59914 5.48451 0
M  V30 8305 H 795.633 -2.80239 7.02141 0
M  V30 8306 H 796.901 -3.95238 6.71868 0
M  V30 8307 N 801.13 -1.57531 -0.0467866 0
M  V30 8308 C 802.078 -2.06455 -1.0714 0
M  V30 8309 C 803.072 -0.974744 -1.38546 0
M  V30 8310 O 804.278 -1.15974 -1.37659 0
M  V30 8311 H 800.653 -0.658607 -0.362962 0
M  V30 8312 H 802.624 -2.91613 -0.632813 0
M  V30 8313 C 801.373 -2.54481 -2.36927 0
M  V30 8314 H 800.696 -3.37946 -2.13617 0
M  V30 8315 H 802.136 -2.92442 -3.07007 0
M  V30 8316 C 800.595 -1.43836 -3.04652 0
M  V30 8317 O 801.125 -0.794531 -3.93764 0
M  V30 8318 N 799.331 -1.17727 -2.65686 0
M  V30 8319 H 798.878 -1.70265 -1.93307 0
M  V30 8320 H 798.836 -0.439051 -3.11319 0
M  V30 8321 N 802.608 0.318715 -1.54344 0
M  V30 8322 C 803.558 1.39364 -1.80448 0
M  V30 8323 C 804.542 1.46708 -0.660728 0
M  V30 8324 O 805.734 1.51159 -0.920869 0
M  V30 8325 C 802.863 2.76144 -2.03959 0
M  V30 8326 C 801.949 2.73094 -3.24469 0
M  V30 8327 N 802.34 2.39663 -4.45416 0
M  V30 8328 C 800.638 3.04218 -3.2614 0
M  V30 8329 C 801.339 2.45469 -5.27371 0
M  V30 8330 N 800.315 2.82107 -4.64668 0
M  V30 8331 H 804.117 1.12453 -2.71535 0
M  V30 8332 H 801.631 0.527221 -1.53604 0
M  V30 8333 H 803.628 3.53627 -2.20802 0
M  V30 8334 H 802.288 3.03982 -1.14129 0
M  V30 8335 H 803.299 2.12424 -4.72331 0
M  V30 8336 H 799.976 3.37066 -2.4636 0
M  V30 8337 H 801.366 2.22571 -6.33965 0
M  V30 8338 N 804.086 1.46499 0.581025 0
M  V30 8339 C 805.497 1.4604 1.16315 0
M  V30 8340 C 805.848 0.202154 1.95156 0
M  V30 8341 O 804.973 -0.694638 2.04948 0
M  V30 8342 C 805.568 2.64593 2.11604 0
M  V30 8343 C 804.127 2.6717 2.65136 0
M  V30 8344 C 803.274 2.38753 1.4104 0
M  V30 8345 H 806.225 1.54354 0.368871 0
M  V30 8346 H 806.246 2.40207 2.95095 0
M  V30 8347 H 805.758 3.56154 1.54194 0
M  V30 8348 H 803.859 1.79685 3.26411 0
M  V30 8349 H 803.972 3.67182 3.07757 0
M  V30 8350 H 802.336 1.88845 1.70908 0
M  V30 8351 H 803.119 3.32493 0.854588 0
M  V30 8352 N 805.565 -0.825799 1.34232 0
M  V30 8353 C 806.513 -1.95792 1.25572 0
M  V30 8354 C 807.507 -1.68695 0.154404 0
M  V30 8355 O 808.713 -1.77147 0.319196 0
M  V30 8356 H 805.088 -0.642949 0.390027 0
M  V30 8357 H 807.059 -2.00219 2.21258 0
M  V30 8358 C 805.808 -3.32245 1.02511 0
M  V30 8359 H 805.131 -3.53642 1.86487 0
M  V30 8360 H 806.571 -4.1192 1.00487 0
M  V30 8361 C 805.03 -3.35803 -0.27167 0
M  V30 8362 O 805.56 -3.80962 -1.274 0
M  V30 8363 N 803.766 -2.89008 -0.303778 0
M  V30 8364 H 803.313 -2.52451 0.512464 0
M  V30 8365 H 803.271 -2.9177 -1.17121 0
M  V30 8366 N 807.043 -1.17915 -1.04565 0
M  V30 8367 C 807.953 -0.916449 -2.15959 0
M  V30 8368 C 808.969 0.117655 -1.73602 0
M  V30 8369 O 810.145 -0.063089 -2.01301 0
M  V30 8370 C 807.21 -0.440262 -3.43893 0
M  V30 8371 C 806.271 -1.54172 -4.00661 0
M  V30 8372 C 805.504 -1.08816 -5.22489 0
M  V30 8373 O 805.727 0.0551547 -5.70373 0
M  V30 8374 O 804.661 -1.88383 -5.7166 0
M  V30 8375 H 808.487 -1.8484 -2.40972 0
M  V30 8376 H 806.072 -0.960552 -1.14428 0
M  V30 8377 H 807.954 -0.182537 -4.21004 0
M  V30 8378 H 806.629 0.46346 -3.20365 0
M  V30 8379 H 805.536 -1.85341 -3.24961 0
M  V30 8380 H 806.869 -2.42139 -4.2852 0
M  V30 8381 N 808.521 1.23394 -0.980386 0
M  V30 8382 C 809.484 2.23092 -0.525619 0
M  V30 8383 C 810.484 1.56129 0.384745 0
M  V30 8384 O 811.674 1.73284 0.178439 0
M  V30 8385 C 808.806 3.40074 0.23712 0
M  V30 8386 H 809.999 2.64839 -1.40714 0
M  V30 8387 H 807.552 1.36227 -0.766275 0
M  V30 8388 H 808.287 3.03783 1.13518 0
M  V30 8389 H 808.072 3.89883 -0.416356 0
M  V30 8390 H 809.562 4.14043 0.543892 0
M  V30 8391 N 809.999 0.752036 1.385 0
M  V30 8392 C 811.224 0.316993 2.04963 0
M  V30 8393 C 811.649 -1.04582 1.56346 0
M  V30 8394 O 811.007 -1.66616 0.714755 0
M  V30 8395 C 811.055 0.347235 3.58924 0
M  V30 8396 O 810.159 -0.659296 4.07096 0
M  V30 8397 H 809.5 0.140652 0.648932 0
M  V30 8398 H 812.03 1.02272 1.77205 0
M  V30 8399 H 812.04 0.19757 4.07521 0
M  V30 8400 H 810.715 1.34157 3.93668 0
M  V30 8401 H 809.292 -0.474371 3.6987 0
M  V30 8402 N 811.477 -1.49425 0.500989 0
M  V30 8403 C 812.726 -2.01649 -0.04538 0
M  V30 8404 C 813.039 -1.38572 -1.38047 0
M  V30 8405 O 814.245 -1.82124 -2.01353 0
M  V30 8406 C 812.701 -3.5966 -0.131337 0
M  V30 8407 C 812.309 -4.3171 1.19711 0
M  V30 8408 C 814.053 -4.19828 -0.628071 0
M  V30 8409 C 811.96 -5.81579 1.07332 0
M  V30 8410 H 810.89 -0.753715 -0.0207329 0
M  V30 8411 H 813.541 -1.71962 0.640407 0
M  V30 8412 H 811.923 -3.86063 -0.881574 0
M  V30 8413 H 813.097 -4.17008 1.96064 0
M  V30 8414 H 811.412 -3.83286 1.62729 0
M  V30 8415 H 814.009 -5.2958 -0.738198 0
M  V30 8416 H 814.352 -3.83194 -1.6269 0
M  V30 8417 H 814.885 -3.97746 0.0656314 0
M  V30 8418 H 811.624 -6.22738 2.04642 0
M  V30 8419 H 811.144 -5.98774 0.350679 0
M  V30 8420 H 812.823 -6.42614 0.752047 0
M  V30 8421 N 812.955 -0.234822 -1.55841 0
M  V30 8422 C 814.202 0.39326 -1.98645 0
M  V30 8423 C 814.53 1.58823 -1.12274 0
M  V30 8424 O 813.785 1.94954 -0.170731 0
M  V30 8425 C 814.084 0.858032 -3.46947 0
M  V30 8426 C 813.75 -0.227858 -4.50324 0
M  V30 8427 C 812.412 -0.526128 -4.78315 0
M  V30 8428 C 814.764 -0.961576 -5.12253 0
M  V30 8429 C 812.092 -1.5624 -5.65514 0
M  V30 8430 C 814.444 -1.98728 -6.00575 0
M  V30 8431 C 813.108 -2.29233 -6.26904 0
M  V30 8432 H 812.378 0.143904 -0.726892 0
M  V30 8433 H 815.025 -0.34012 -1.88455 0
M  V30 8434 H 813.33 1.67041 -3.54408 0
M  V30 8435 H 815.027 1.35407 -3.77447 0
M  V30 8436 H 811.617 0.0147624 -4.28597 0
M  V30 8437 H 815.801 -0.744388 -4.90686 0
M  V30 8438 H 811.057 -1.80422 -5.84173 0
M  V30 8439 H 815.231 -2.5608 -6.47608 0
M  V30 8440 H 812.858 -3.09671 -6.94268 0
M  V30 8441 N 814.433 1.57553 0.0384317 0
M  V30 8442 C 815.661 1.93093 0.743141 0
M  V30 8443 C 816.076 0.833787 1.69391 0
M  V30 8444 O 815.433 -0.190532 1.81503 0
M  V30 8445 C 815.484 3.28533 1.50826 0
M  V30 8446 O 815.205 4.34032 0.595665 0
M  V30 8447 C 816.706 3.78297 2.31098 0
M  V30 8448 H 813.926 0.637486 0.20941 0
M  V30 8449 H 816.47 2.045 -0.00125154 0
M  V30 8450 H 814.625 3.18552 2.20462 0
M  V30 8451 H 815.039 5.12155 1.13124 0
M  V30 8452 H 816.513 4.75602 2.80191 0
M  V30 8453 H 816.99 3.09008 3.12107 0
M  V30 8454 H 817.596 3.91331 1.66555 0
M  V30 8455 N 815.911 -0.310526 1.54511 0
M  V30 8456 C 816.858 -1.38264 1.84802 0
M  V30 8457 C 817.828 -1.50808 0.696141 0
M  V30 8458 O 819.013 -1.6582 0.943846 0
M  V30 8459 C 816.153 -2.74422 2.09252 0
M  V30 8460 C 815.266 -2.70405 3.36906 0
M  V30 8461 C 814.401 -3.98495 3.51248 0
M  V30 8462 C 813.44 -3.88836 4.72729 0
M  V30 8463 N 812.577 -5.08683 4.83928 0
M  V30 8464 H 817.417 -1.11732 2.76261 0
M  V30 8465 H 814.954 -0.540609 1.36806 0
M  V30 8466 H 816.912 -3.53593 2.21422 0
M  V30 8467 H 815.542 -2.99235 1.2107 0
M  V30 8468 H 814.594 -1.83151 3.33406 0
M  V30 8469 H 815.906 -2.59155 4.26193 0
M  V30 8470 H 815.06 -4.861 3.63031 0
M  V30 8471 H 813.799 -4.12567 2.60077 0
M  V30 8472 H 812.804 -2.99615 4.60989 0
M  V30 8473 H 814.029 -3.76318 5.65298 0
M  V30 8474 H 811.975 -5.23236 3.95677 0
M  V30 8475 H 811.892 -4.99819 5.67201 0
M  V30 8476 H 813.16 -5.97966 5.00057 0
M  V30 8477 N 817.389 -1.46805 -0.573248 0
M  V30 8478 C 818.319 -1.60951 -1.69165 0
M  V30 8479 C 819.3 -0.45948 -1.63777 0
M  V30 8480 O 820.485 -0.68688 -1.81647 0
M  V30 8481 C 817.615 -1.60844 -3.07809 0
M  V30 8482 C 816.569 -2.74913 -3.28035 0
M  V30 8483 C 815.895 -2.59871 -4.67302 0
M  V30 8484 C 817.195 -4.16654 -3.14955 0
M  V30 8485 H 818.889 -2.54574 -1.57582 0
M  V30 8486 H 816.435 -1.22516 -0.756686 0
M  V30 8487 H 818.388 -1.69334 -3.85881 0
M  V30 8488 H 817.112 -0.637714 -3.20314 0
M  V30 8489 H 815.771 -2.65908 -2.52366 0
M  V30 8490 H 815.419 -1.60861 -4.76585 0
M  V30 8491 H 815.119 -3.36386 -4.81786 0
M  V30 8492 H 816.643 -2.70265 -5.4753 0
M  V30 8493 H 818.057 -4.26721 -3.82861 0
M  V30 8494 H 816.454 -4.93831 -3.40956 0
M  V30 8495 H 817.524 -4.36146 -2.11908 0
M  V30 8496 N 818.867 0.818669 -1.34668 0
M  V30 8497 C 819.797 1.94468 -1.29245 0
M  V30 8498 C 820.778 1.69257 -0.169101 0
M  V30 8499 O 821.963 1.90794 -0.362143 0
M  V30 8500 C 819.093 3.31001 -1.05145 0
M  V30 8501 C 818.047 3.70663 -2.13992 0
M  V30 8502 C 817.373 5.05226 -1.75074 0
M  V30 8503 C 818.673 3.82312 -3.55858 0
M  V30 8504 H 820.367 1.99263 -2.2346 0
M  V30 8505 H 817.913 0.957304 -1.07572 0
M  V30 8506 H 819.866 4.09364 -0.999949 0
M  V30 8507 H 818.59 3.26517 -0.0737312 0
M  V30 8508 H 817.249 2.94578 -2.18219 0
M  V30 8509 H 816.897 4.97233 -0.759518 0
M  V30 8510 H 816.597 5.32734 -2.47928 0
M  V30 8511 H 818.121 5.86042 -1.71427 0
M  V30 8512 H 819.535 4.50935 -3.5402 0
M  V30 8513 H 817.932 4.21278 -4.2737 0
M  V30 8514 H 819.002 2.84193 -3.9289 0
M  V30 8515 N 820.346 1.18468 1.03938 0
M  V30 8516 C 821.276 0.936389 2.13902 0
M  V30 8517 C 822.257 -0.126381 1.6963 0
M  V30 8518 O 823.442 0.0264757 1.94182 0
M  V30 8519 C 820.572 0.462729 3.44204 0
M  V30 8520 C 819.526 1.46613 4.02105 0
M  V30 8521 C 818.852 0.84994 5.27902 0
M  V30 8522 C 820.152 2.84323 4.3813 0
M  V30 8523 H 821.846 1.85602 2.3493 0
M  V30 8524 H 819.392 0.893806 1.12903 0
M  V30 8525 H 821.345 0.276382 4.20493 0
M  V30 8526 H 820.069 -0.492477 3.22866 0
M  V30 8527 H 818.728 1.63944 3.27899 0
M  V30 8528 H 818.376 -0.112493 5.02874 0
M  V30 8529 H 818.076 1.51988 5.67603 0
M  V30 8530 H 819.6 0.674152 6.06867 0
M  V30 8531 H 821.014 2.70636 5.054 0
M  V30 8532 H 819.411 3.48012 4.88884 0
M  V30 8533 H 820.481 3.37776 3.47901 0
M  V30 8534 N 821.824 -1.22873 0.986916 0
M  V30 8535 C 822.771 -2.2458 0.532215 0
M  V30 8536 C 823.741 -1.60375 -0.432322 0
M  V30 8537 O 824.926 -1.87775 -0.338416 0
M  V30 8538 C 822.066 -3.44761 -0.152864 0
M  V30 8539 C 821.179 -4.23501 0.852704 0
M  V30 8540 C 820.314 -5.31011 0.14176 0
M  V30 8541 C 819.353 -6.01464 1.1361 0
M  V30 8542 N 818.49 -7.00631 0.453871 0
M  V30 8543 H 823.33 -2.62838 1.40428 0
M  V30 8544 H 820.867 -1.29185 0.703543 0
M  V30 8545 H 822.825 -4.1333 -0.566926 0
M  V30 8546 H 821.455 -3.07284 -0.988756 0
M  V30 8547 H 820.507 -3.54286 1.38512 0
M  V30 8548 H 821.819 -4.72097 1.61014 0
M  V30 8549 H 820.973 -6.05805 -0.329337 0
M  V30 8550 H 819.712 -4.83373 -0.648229 0
M  V30 8551 H 818.717 -5.25456 1.61789 0
M  V30 8552 H 819.942 -6.5119 1.92686 0
M  V30 8553 H 817.888 -6.55235 -0.316791 0
M  V30 8554 H 817.805 -7.47204 1.14986 0
M  V30 8555 H 819.073 -7.795 0.00537823 0
M  V30 8556 N 823.302 -0.75937 -1.38099 0
M  V30 8557 C 824.232 -0.151077 -2.33011 0
M  V30 8558 C 825.213 0.697099 -1.5516 0
M  V30 8559 O 826.398 0.637101 -1.83452 0
M  V30 8560 C 823.528 0.738423 -3.39359 0
M  V30 8561 C 822.482 -0.0074741 -4.27999 0
M  V30 8562 C 821.808 1.00066 -5.25253 0
M  V30 8563 C 823.108 -1.17926 -5.08813 0
M  V30 8564 H 824.802 -0.943933 -2.84131 0
M  V30 8565 H 822.348 -0.455362 -1.36611 0
M  V30 8566 H 824.301 1.17369 -4.04725 0
M  V30 8567 H 823.025 1.56366 -2.86735 0
M  V30 8568 H 821.684 -0.423379 -3.64147 0
M  V30 8569 H 821.332 1.82012 -4.68914 0
M  V30 8570 H 821.032 0.506199 -5.85416 0
M  V30 8571 H 822.556 1.43512 -5.93495 0
M  V30 8572 H 823.97 -0.821262 -5.67387 0
M  V30 8573 H 822.367 -1.60497 -5.78239 0
M  V30 8574 H 823.437 -1.98938 -4.42212 0
M  V30 8575 N 824.78 1.49157 -0.508906 0
M  V30 8576 C 826.191 1.86593 -0.0630975 0
M  V30 8577 C 826.542 1.42051 1.35337 0
M  V30 8578 O 825.667 0.801866 2.00995 0
M  V30 8579 C 826.262 3.38629 -0.107729 0
M  V30 8580 C 824.821 3.75336 0.282776 0
M  V30 8581 C 823.968 2.7317 -0.4768 0
M  V30 8582 H 826.919 1.41362 -0.72128 0
M  V30 8583 H 826.94 3.74271 0.685689 0
M  V30 8584 H 826.452 3.71017 -1.13876 0
M  V30 8585 H 824.553 3.48558 1.31675 0
M  V30 8586 H 824.666 4.79081 -0.0421728 0
M  V30 8587 H 823.03 2.54591 0.0743552 0
M  V30 8588 H 823.813 3.08403 -1.50807 0
M  V30 8589 N 826.258 0.243083 1.55714 0
M  V30 8590 C 827.535 -0.432851 1.90751 0
M  V30 8591 C 827.915 -1.76153 1.16333 0
M  V30 8592 O 827.263 -2.26783 0.279565 0
M  V30 8593 C 827.473 -0.604685 3.43722 0
M  V30 8594 C 828.821 -0.90231 4.14902 0
M  V30 8595 O 829.845 -0.690689 3.49439 0
M  V30 8596 O 828.704 -1.3051 5.30688 0
M  V30 8597 H 825.798 -0.231835 0.79384 0
M  V30 8598 H 828.344 0.286867 1.67258 0
M  V30 8599 H 827.116 0.331655 3.89892 0
M  V30 8600 H 826.739 -1.37509 3.73065 0
M  V30 8601 N 827.736 -1.57571 -0.0300757 0
M  V30 8602 C 828.666 -2.0953 -1.03051 0
M  V30 8603 C 829.647 -0.99761 -1.37774 0
M  V30 8604 O 830.832 -1.27279 -1.46676 0
M  V30 8605 C 827.962 -2.57385 -2.33174 0
M  V30 8606 C 826.916 -3.71409 -2.12696 0
M  V30 8607 C 826.242 -4.05467 -3.4857 0
M  V30 8608 C 827.542 -4.99877 -1.51396 0
M  V30 8609 H 829.236 -2.93367 -0.597999 0
M  V30 8610 H 826.782 -1.41127 -0.286203 0
M  V30 8611 H 828.735 -2.92355 -3.03491 0
M  V30 8612 H 827.459 -1.70629 -2.78484 0
M  V30 8613 H 826.118 -3.36786 -1.44813 0
M  V30 8614 H 825.766 -3.15779 -3.91526 0
M  V30 8615 H 825.466 -4.82269 -3.35694 0
M  V30 8616 H 826.99 -4.4297 -4.2025 0
M  V30 8617 H 828.404 -5.3281 -2.11629 0
M  V30 8618 H 826.801 -5.81283 -1.49098 0
M  V30 8619 H 827.871 -4.82522 -0.479676 0
M  V30 8620 N 829.214 0.302327 -1.54673 0
M  V30 8621 C 830.63 0.647911 -1.45857 0
M  V30 8622 C 830.83 1.90773 -0.64869 0
M  V30 8623 O 829.886 2.52018 -0.155865 0
M  V30 8624 C 831.199 0.802144 -2.89804 0
M  V30 8625 C 832.747 0.898114 -2.99838 0
M  V30 8626 C 833.222 1.08436 -4.44978 0
M  V30 8627 N 834.713 1.15059 -4.48682 0
M  V30 8628 C 835.448 1.31296 -5.58166 0
M  V30 8629 N 834.944 1.4444 -6.77576 0
M  V30 8630 N 836.737 1.34174 -5.45851 0
M  V30 8631 H 828.888 -0.525428 -2.05798 0
M  V30 8632 H 831.151 -0.173423 -0.932002 0
M  V30 8633 H 830.857 -0.0526531 -3.51661 0
M  V30 8634 H 830.731 1.69155 -3.37145 0
M  V30 8635 H 833.118 1.7434 -2.38096 0
M  V30 8636 H 833.199 -0.0152752 -2.55795 0
M  V30 8637 H 832.843 0.243843 -5.07314 0
M  V30 8638 H 832.773 2.01195 -4.8665 0
M  V30 8639 H 835.264 1.0626 -3.62653 0
M  V30 8640 H 835.577 1.56582 -7.56771 0
M  V30 8641 H 833.922 1.41499 -6.80443 0
M  V30 8642 H 837.113 1.23516 -4.5151 0
M  V30 8643 H 837.286 1.46485 -6.31226 0
M  V30 8644 N 830.692 1.47107 0.565454 0
M  V30 8645 C 831.917 1.57153 1.35343 0
M  V30 8646 C 832.342 0.219247 1.86818 0
M  V30 8647 O 831.7 -0.803539 1.62521 0
M  V30 8648 C 831.748 2.59387 2.50501 0
M  V30 8649 O 830.852 2.14086 3.52478 0
M  V30 8650 H 830.193 0.528209 0.402357 0
M  V30 8651 H 832.723 1.92821 0.684189 0
M  V30 8652 H 832.733 2.79546 2.97184 0
M  V30 8653 H 831.408 3.57579 2.12391 0
M  V30 8654 H 829.985 2.03991 3.12157 0
M  V30 8655 N 832.17 -0.811516 1.35101 0
M  V30 8656 C 833.1 -1.9378 1.30275 0
M  V30 8657 C 834.081 -1.69165 0.178075 0
M  V30 8658 O 835.266 -1.90599 0.372256 0
M  V30 8659 C 832.396 -3.30439 1.06899 0
M  V30 8660 C 831.35 -3.69523 2.15955 0
M  V30 8661 C 830.676 -5.0429 1.77751 0
M  V30 8662 C 831.976 -3.80419 3.57881 0
M  V30 8663 H 833.67 -1.98075 2.24514 0
M  V30 8664 H 831.216 -0.951586 1.08078 0
M  V30 8665 H 833.169 -4.08828 1.02164 0
M  V30 8666 H 831.893 -3.26473 0.0910462 0
M  V30 8667 H 830.552 -2.93416 2.19778 0
M  V30 8668 H 830.2 -4.96823 0.785876 0
M  V30 8669 H 829.9 -5.31411 2.5075 0
M  V30 8670 H 831.424 -5.85125 1.74533 0
M  V30 8671 H 832.838 -4.49051 3.56407 0
M  V30 8672 H 831.235 -4.19005 4.29598 0
M  V30 8673 H 832.305 -2.82105 3.94391 0
M  V30 8674 N 833.648 -1.19017 -1.03309 0
M  V30 8675 C 834.596 -0.920627 -2.13605 0
M  V30 8676 C 835.59 0.121969 -1.6896 0
M  V30 8677 O 836.796 -0.0268854 -1.7998 0
M  V30 8678 H 833.171 -0.280284 -0.697814 0
M  V30 8679 H 835.142 -1.85755 -2.33533 0
M  V30 8680 C 833.891 -0.471198 -3.44492 0
M  V30 8681 H 833.214 -1.26499 -3.7926 0
M  V30 8682 H 834.654 -0.321663 -4.22778 0
M  V30 8683 C 833.113 0.81411 -3.26916 0
M  V30 8684 O 833.643 1.87654 -3.55175 0
M  V30 8685 N 831.849 0.769695 -2.80221 0
M  V30 8686 H 831.396 -0.0951278 -2.57424 0
M  V30 8687 H 831.354 1.63008 -2.68842 0
M  V30 8688 N 835.127 1.22348 -0.993418 0
M  V30 8689 C 836.075 2.26315 -0.537052 0
M  V30 8690 C 837.069 1.643 0.412545 0
M  V30 8691 O 838.275 1.77729 0.285008 0
M  V30 8692 H 834.65 0.735792 -0.155286 0
M  V30 8693 H 836.621 2.62157 -1.42535 0
M  V30 8694 C 835.37 3.47449 0.132118 0
M  V30 8695 H 834.693 3.9543 -0.589519 0
M  V30 8696 H 836.133 4.21965 0.414884 0
M  V30 8697 C 834.592 3.07893 1.36761 0
M  V30 8698 O 835.122 3.17338 2.46291 0
M  V30 8699 N 833.328 2.62672 1.24305 0
M  V30 8700 H 832.875 2.55186 0.351826 0
M  V30 8701 H 832.833 2.36574 2.07076 0
M  V30 8702 N 836.605 0.766683 1.37694 0
M  V30 8703 C 837.538 0.0959288 2.27998 0
M  V30 8704 C 838.516 -0.714493 1.46061 0
M  V30 8705 O 839.7 -0.690337 1.75404 0
M  V30 8706 C 836.827 -0.87057 3.27321 0
M  V30 8707 C 835.873 -0.144771 4.26254 0
M  V30 8708 S 836.706 1.16365 5.22704 0
M  V30 8709 C 837.862 0.200564 6.25579 0
M  V30 8710 H 838.095 0.861666 2.84539 0
M  V30 8711 H 835.628 0.559845 1.43893 0
M  V30 8712 H 837.586 -1.42282 3.85053 0
M  V30 8713 H 836.247 -1.60938 2.69737 0
M  V30 8714 H 835.44 -0.877259 4.96307 0
M  V30 8715 H 835.042 0.33633 3.72485 0
M  V30 8716 H 837.334 -0.628833 6.74575 0
M  V30 8717 H 838.277 0.869117 7.02746 0
M  V30 8718 H 838.685 -0.185972 5.64194 0
M  V30 8719 N 838.083 -1.48885 0.516809 0
M  V30 8720 C 839.033 -2.26363 -0.272704 0
M  V30 8721 C 840.017 -1.31891 -0.921604 0
M  V30 8722 O 841.209 -1.56514 -0.826589 0
M  V30 8723 C 838.338 -3.16614 -1.32705 0
M  V30 8724 C 837.424 -4.18554 -0.683598 0
M  V30 8725 N 837.815 -5.05308 0.223015 0
M  V30 8726 C 836.113 -4.35931 -0.942351 0
M  V30 8727 C 836.814 -5.7867 0.592918 0
M  V30 8728 N 835.79 -5.43583 -0.042912 0
M  V30 8729 H 839.592 -2.90811 0.424971 0
M  V30 8730 H 837.106 -1.5893 0.333941 0
M  V30 8731 H 839.103 -3.70766 -1.90625 0
M  V30 8732 H 837.763 -2.5372 -2.02624 0
M  V30 8733 H 838.774 -5.14473 0.594818 0
M  V30 8734 H 835.451 -3.84234 -1.6331 0
M  V30 8735 H 836.841 -6.58493 1.33556 0
M  V30 8736 N 839.561 -0.251338 -1.55583 0
M  V30 8737 C 840.786 0.379136 -2.03905 0
M  V30 8738 C 841.211 1.50428 -1.12929 0
M  V30 8739 O 840.569 1.80882 -0.123114 0
M  V30 8740 C 840.617 0.86009 -3.50193 0
M  V30 8741 O 839.721 1.96932 -3.62342 0
M  V30 8742 H 839.062 0.0820183 -0.658915 0
M  V30 8743 H 841.592 -0.378692 -2.01065 0
M  V30 8744 H 841.602 1.16214 -3.91099 0
M  V30 8745 H 840.277 0.0367559 -4.15884 0
M  V30 8746 H 838.854 1.67163 -3.33333 0
M  V30 8747 N 841.039 1.57585 0.0217189 0
M  V30 8748 C 841.949 2.10444 1.03684 0
M  V30 8749 C 842.965 1.04472 1.39146 0
M  V30 8750 O 844.141 1.36249 1.48317 0
M  V30 8751 C 841.206 2.5794 2.31664 0
M  V30 8752 C 840.267 3.78425 2.02714 0
M  V30 8753 C 839.5 4.23646 3.24592 0
M  V30 8754 O 839.723 3.6834 4.35525 0
M  V30 8755 O 838.657 5.16013 3.09862 0
M  V30 8756 H 842.483 2.97354 0.617584 0
M  V30 8757 H 840.068 1.47473 0.239174 0
M  V30 8758 H 841.95 2.88785 3.06889 0
M  V30 8759 H 840.625 1.74138 2.7287 0
M  V30 8760 H 839.532 3.52587 1.25033 0
M  V30 8761 H 840.865 4.63234 1.66359 0
M  V30 8762 N 842.517 -0.29412 1.54831 0
M  V30 8763 C 843.427 -1.3854 1.89325 0
M  V30 8764 C 844.443 -1.55127 0.788133 0
M  V30 8765 O 845.619 -1.6966 1.08524 0
M  V30 8766 C 842.684 -2.72809 2.13954 0
M  V30 8767 C 841.745 -2.65148 3.37631 0
M  V30 8768 C 840.978 -3.93014 3.61076 0
M  V30 8769 O 841.201 -4.927 2.87406 0
M  V30 8770 O 840.135 -3.94491 4.54599 0
M  V30 8771 H 843.961 -1.12289 2.82179 0
M  V30 8772 H 841.546 -0.490793 1.41108 0
M  V30 8773 H 843.428 -3.52238 2.31315 0
M  V30 8774 H 842.103 -2.9889 1.24285 0
M  V30 8775 H 841.01 -1.84168 3.25627 0
M  V30 8776 H 842.343 -2.4402 4.27452 0
M  V30 8777 N 843.995 -1.47404 -0.557645 0
M  V30 8778 C 844.925 -1.62736 -1.67449 0
M  V30 8779 C 845.906 -0.476824 -1.6328 0
M  V30 8780 O 847.091 -0.706108 -1.80908 0
M  V30 8781 C 844.221 -1.641 -3.06086 0
M  V30 8782 C 843.175 -2.78377 -3.25101 0
M  V30 8783 C 842.501 -2.64812 -4.6452 0
M  V30 8784 C 843.801 -4.19971 -3.10518 0
M  V30 8785 H 845.495 -2.56232 -1.54873 0
M  V30 8786 H 843.041 -1.23312 -0.743649 0
M  V30 8787 H 844.994 -1.73417 -3.84063 0
M  V30 8788 H 843.718 -0.671652 -3.19619 0
M  V30 8789 H 842.377 -2.6857 -2.49531 0
M  V30 8790 H 842.025 -1.65906 -4.74852 0
M  V30 8791 H 841.725 -3.41477 -4.78191 0
M  V30 8792 H 843.249 -2.76057 -5.44633 0
M  V30 8793 H 844.663 -4.30757 -3.78313 0
M  V30 8794 H 843.06 -4.97419 -3.35699 0
M  V30 8795 H 844.13 -4.38369 -2.0727 0
M  V30 8796 N 845.473 0.80434 -1.35529 0
M  V30 8797 C 846.403 1.93086 -1.31301 0
M  V30 8798 C 847.384 1.69068 -0.187044 0
M  V30 8799 O 848.569 1.90399 -0.382359 0
M  V30 8800 C 845.699 3.29867 -1.0865 0
M  V30 8801 C 844.653 3.68373 -2.17911 0
M  V30 8802 C 843.979 5.0334 -1.80423 0
M  V30 8803 C 845.279 3.78516 -3.59893 0
M  V30 8804 H 846.973 1.96882 -2.25561 0
M  V30 8805 H 844.519 0.945841 -1.08581 0
M  V30 8806 H 846.472 4.08281 -1.04331 0
M  V30 8807 H 845.196 3.2642 -0.108359 0
M  V30 8808 H 843.855 2.92247 -2.21331 0
M  V30 8809 H 843.503 4.96399 -0.812213 0
M  V30 8810 H 843.203 5.30074 -2.53565 0
M  V30 8811 H 844.727 5.84191 -1.77633 0
M  V30 8812 H 846.141 4.47155 -3.58783 0
M  V30 8813 H 844.538 4.16721 -4.31814 0
M  V30 8814 H 845.608 2.8001 -3.95882 0
M  V30 8815 N 846.951 1.19563 1.02676 0
M  V30 8816 C 847.914 0.937182 2.09164 0
M  V30 8817 C 848.914 -0.0831927 1.60585 0
M  V30 8818 O 850.104 0.15178 1.73538 0
M  V30 8819 C 847.236 0.408912 3.38439 0
M  V30 8820 H 848.429 1.88164 2.33526 0
M  V30 8821 H 845.982 1.00959 1.19319 0
M  V30 8822 H 846.717 -0.541497 3.19747 0
M  V30 8823 H 846.502 1.14464 3.7502 0
M  V30 8824 H 847.992 0.247242 4.16867 0
M  V30 8825 N 848.429 -1.21819 0.999893 0
M  V30 8826 C 849.676 -1.90752 0.679694 0
M  V30 8827 C 850.004 -1.77777 -0.789014 0
M  V30 8828 O 849.259 -1.14518 -1.58695 0
M  V30 8829 C 849.558 -3.4193 1.04012 0
M  V30 8830 C 849.224 -3.75098 2.50225 0
M  V30 8831 C 847.886 -3.83861 2.90179 0
M  V30 8832 C 850.238 -3.90706 3.44961 0
M  V30 8833 C 847.566 -4.05676 4.23844 0
M  V30 8834 C 849.918 -4.14027 4.78294 0
M  V30 8835 C 848.582 -4.21016 5.17979 0
M  V30 8836 H 847.852 -0.698012 0.248718 0
M  V30 8837 H 850.499 -1.44437 1.25738 0
M  V30 8838 H 848.804 -3.89947 0.380606 0
M  V30 8839 H 850.501 -3.93532 0.770301 0
M  V30 8840 H 847.091 -3.68865 2.18258 0
M  V30 8841 H 851.275 -3.83307 3.15261 0
M  V30 8842 H 846.531 -4.09316 4.5417 0
M  V30 8843 H 850.705 -4.25046 5.51642 0
M  V30 8844 H 848.332 -4.37672 6.21568 0
M  V30 8845 N 849.908 -0.773975 -1.37286 0
M  V30 8846 C 850.855 -0.159938 -2.30245 0
M  V30 8847 C 851.825 0.687356 -1.51211 0
M  V30 8848 O 853.01 0.639255 -1.79773 0
M  V30 8849 C 850.15 0.711452 -3.37687 0
M  V30 8850 C 849.263 -0.152692 -4.3173 0
M  V30 8851 C 848.398 0.723613 -5.26248 0
M  V30 8852 C 847.437 -0.14293 -6.11933 0
M  V30 8853 N 846.574 0.691479 -6.98687 0
M  V30 8854 H 851.414 -0.958182 -2.82175 0
M  V30 8855 H 848.951 -0.48411 -1.38906 0
M  V30 8856 H 850.909 1.2315 -3.9861 0
M  V30 8857 H 849.539 1.47528 -2.87116 0
M  V30 8858 H 848.591 -0.790574 -3.72094 0
M  V30 8859 H 849.903 -0.821027 -4.91997 0
M  V30 8860 H 849.057 1.31006 -5.92387 0
M  V30 8861 H 847.796 1.42562 -4.66398 0
M  V30 8862 H 846.801 -0.7419 -5.44771 0
M  V30 8863 H 848.026 -0.842305 -6.73856 0
M  V30 8864 H 845.972 1.37806 -6.41362 0
M  V30 8865 H 845.889 0.0804911 -7.55957 0
M  V30 8866 H 847.157 1.26225 -7.69212 0
M  V30 8867 N 851.386 1.48609 -0.524698 0
M  V30 8868 C 852.632 2.02797 0.0113382 0
M  V30 8869 C 852.965 1.40147 1.34433 0
M  V30 8870 O 852.24 0.545368 1.86698 0
M  V30 8871 C 852.523 3.59832 0.138931 0
M  V30 8872 C 852.376 4.32971 -1.21886 0
M  V30 8873 C 853.695 4.3145 0.868265 0
M  V30 8874 H 850.814 0.736995 0.00264645 0
M  V30 8875 H 853.456 1.77388 -0.680704 0
M  V30 8876 H 851.606 3.81612 0.72834 0
M  V30 8877 H 853.278 4.22624 -1.84897 0
M  V30 8878 H 851.521 3.94597 -1.80211 0
M  V30 8879 H 852.192 5.41279 -1.08263 0
M  V30 8880 H 854.668 4.14468 0.368145 0
M  V30 8881 H 853.544 5.41025 0.926428 0
M  V30 8882 H 853.805 3.98358 1.91737 0
M  V30 8883 N 852.864 0.259585 1.55447 0
M  V30 8884 C 853.814 -0.648769 2.18575 0
M  V30 8885 C 854.798 -1.1299 1.14552 0
M  V30 8886 O 855.99 -1.07756 1.4042 0
M  V30 8887 C 853.119 -1.83963 2.89849 0
M  V30 8888 C 852.205 -1.37641 4.01143 0
M  V30 8889 N 852.596 -0.628269 5.01883 0
M  V30 8890 C 850.894 -1.66066 4.1393 0
M  V30 8891 C 851.595 -0.386746 5.80413 0
M  V30 8892 N 850.571 -0.954665 5.35151 0
M  V30 8893 H 854.373 -0.0691616 2.93819 0
M  V30 8894 H 851.887 0.0624525 1.6228 0
M  V30 8895 H 853.884 -2.50151 3.33512 0
M  V30 8896 H 852.544 -2.42334 2.16112 0
M  V30 8897 H 853.555 -0.277123 5.17158 0
M  V30 8898 H 850.232 -2.25484 3.51373 0
M  V30 8899 H 851.622 0.211382 6.71567 0
M  V30 8900 N 854.342 -1.57594 -0.0133615 0
M  V30 8901 C 855.753 -1.78168 -0.557937 0
M  V30 8902 C 856.104 -0.892616 -1.74719 0
M  V30 8903 O 855.229 -0.0915491 -2.16206 0
M  V30 8904 C 855.824 -3.23115 -1.01894 0
M  V30 8905 C 854.383 -3.44831 -1.50892 0
M  V30 8906 C 853.53 -2.73558 -0.454044 0
M  V30 8907 H 856.481 -1.57266 0.212843 0
M  V30 8908 H 856.502 -3.30493 -1.8856 0
M  V30 8909 H 856.014 -3.87798 -0.153175 0
M  V30 8910 H 854.115 -2.85345 -2.39602 0
M  V30 8911 H 854.228 -4.53485 -1.54559 0
M  V30 8912 H 852.592 -2.37787 -0.912666 0
M  V30 8913 H 853.375 -3.40932 0.402524 0
M  V30 8914 O 855.859 0.155898 -1.60746 0
M  V30 8915 H 856.55 0.791038 -1.76811 0
M  V30 END ATOM
M  V30 BEGIN BOND
M  V30 END BOND
M  V30 END CTAB
M  END
$$$$
