drugbank_target|Q6V0L0 Cytochrome P450 26C1 (DB00523; DB00755)
 OpenBabel12092121073D

  0  0  0     0  0            999 V3000
M  V30 BEGIN CTAB
M  V30 COUNTS 8100 8198 0 0 0
M  V30 BEGIN ATOM
M  V30 1 H -0.908 1.98254 -0.117106 0
M  V30 2 N 0 1.576 0 0
M  V30 3 C 0.933 2.03868 1.02534 0
M  V30 4 C 1.911 0.928543 1.3348 0
M  V30 5 O 3.095 1.19667 1.45644 0
M  V30 6 C 0.222 2.43627 2.35294 0
M  V30 7 C -0.732 3.65373 2.2001 0
M  V30 8 S 0.101 5.13292 1.52614 0
M  V30 9 C 1.257 5.56322 2.86805 0
M  V30 10 H 1.49 2.90518 0.631377 0
M  V30 11 H -0.977 1.52953 0.210867 0
M  V30 12 H 0.981 2.67203 3.11629 0
M  V30 13 H -0.358 1.57376 2.7183 0
M  V30 14 H -1.165 3.90944 3.18086 0
M  V30 15 H -1.563 3.418 1.51819 0
M  V30 16 H 0.729 5.58782 3.83104 0
M  V30 17 H 1.672 6.56266 2.65933 0
M  V30 18 H 2.08 4.83886 2.90714 0
M  V30 19 N 1.4781 -0.272755 1.55222 0
M  V30 20 C 2.7251 -1.00433 1.7584 0
M  V30 21 C 3.0531 -1.86275 0.559629 0
M  V30 22 O 2.3081 -1.90269 -0.457857 0
M  V30 23 C 2.6071 -1.91642 3.01675 0
M  V30 24 C 2.2731 -1.21548 4.34208 0
M  V30 25 C 0.9351 -1.02166 4.70229 0
M  V30 26 C 3.2871 -0.716684 5.16249 0
M  V30 27 C 0.6151 -0.316334 5.85847 0
M  V30 28 C 2.9671 -0.0249476 6.32595 0
M  V30 29 C 1.6311 0.180579 6.67256 0
M  V30 30 H 0.9011 -0.367509 0.643443 0
M  V30 31 H 3.5481 -0.276596 1.89492 0
M  V30 32 H 1.8531 -2.71037 2.82924 0
M  V30 33 H 3.5501 -2.48369 3.14824 0
M  V30 34 H 0.1401 -1.37645 4.05896 0
M  V30 35 H 4.3241 -0.854047 4.88896 0
M  V30 36 H -0.4199 -0.146378 6.11225 0
M  V30 37 H 3.7541 0.369311 6.9542 0
M  V30 38 H 1.3811 0.729098 7.56696 0
M  V30 39 N 2.9562 -1.48159 -0.537278 0
M  V30 40 C 4.3672 -1.49429 -1.11928 0
M  V30 41 C 4.7182 -0.26 -1.9447 0
M  V30 42 O 3.8432 0.633489 -2.0692 0
M  V30 43 C 4.4382 -2.70758 -2.03656 0
M  V30 44 C 2.9972 -2.74923 -2.57088 0
M  V30 45 C 2.1442 -2.42835 -1.3389 0
M  V30 46 H 5.0952 -1.55381 -0.322886 0
M  V30 47 H 5.1162 -2.48861 -2.87834 0
M  V30 48 H 4.6282 -3.60575 -1.43553 0
M  V30 49 H 2.7292 -1.89296 -3.20933 0
M  V30 50 H 2.8422 -3.76157 -2.9672 0
M  V30 51 H 1.2062 -1.93836 -1.65226 0
M  V30 52 H 1.9892 -3.34884 -0.755504 0
M  V30 53 N 4.4343 0.785586 -1.36625 0
M  V30 54 C 5.6803 1.5452 -1.32269 0
M  V30 55 C 6.0353 1.92159 0.0962266 0
M  V30 56 O 5.3283 1.60158 1.05167 0
M  V30 57 C 5.5223 2.83007 -2.1827 0
M  V30 58 C 5.3513 2.57925 -3.68382 0
M  V30 59 C 4.1213 2.52752 -4.37544 0
M  V30 60 C 6.3193 2.26861 -4.61561 0
M  V30 61 N 4.3013 2.19608 -5.73276 0
M  V30 62 C 5.6723 2.03738 -5.85569 0
M  V30 63 C 7.7273 2.129 -4.50087 0
M  V30 64 C 6.4303 1.68065 -6.9939 0
M  V30 65 C 8.4563 1.78626 -5.63779 0
M  V30 66 C 7.8183 1.56353 -6.86828 0
M  V30 67 H 3.9173 0.566301 -0.539283 0
M  V30 68 H 6.5013 0.917736 -1.71714 0
M  V30 69 H 4.6723 3.43614 -1.81063 0
M  V30 70 H 6.4043 3.48775 -2.05275 0
M  V30 71 H 3.1593 2.6813 -3.90389 0
M  V30 72 H 3.5833 2.05771 -6.44971 0
M  V30 73 H 8.2253 2.28808 -3.55537 0
M  V30 74 H 5.9433 1.50895 -7.93887 0
M  V30 75 H 9.5293 1.68502 -5.56865 0
M  V30 76 H 8.4093 1.30223 -7.73312 0
M  V30 77 N 5.9124 1.20967 1.01018 0
M  V30 78 C 7.1604 1.02172 1.74371 0
M  V30 79 C 7.4814 -0.446414 1.89821 0
M  V30 80 O 6.7514 -1.32234 1.44537 0
M  V30 81 H 5.3314 0.375066 0.646014 0
M  V30 82 H 7.9934 1.52187 1.21758 0
M  V30 83 H 7.0894 1.48538 2.74487 0
M  V30 84 N 7.3905 -1.2043 1.01659 0
M  V30 85 C 8.3205 -2.25466 0.607226 0
M  V30 86 C 9.3015 -1.65853 -0.377716 0
M  V30 87 O 10.4865 -1.92409 -0.263149 0
M  V30 88 C 7.6165 -3.47256 -0.0552949 0
M  V30 89 C 6.5705 -4.19462 0.850632 0
M  V30 90 C 5.8965 -5.34673 0.0538859 0
M  V30 91 C 7.1965 -4.75603 2.15868 0
M  V30 92 H 8.8905 -2.59962 1.48526 0
M  V30 93 H 6.4365 -1.2496 0.715605 0
M  V30 94 H 8.3895 -4.19917 -0.353233 0
M  V30 95 H 7.1135 -3.11924 -0.968045 0
M  V30 96 H 5.7725 -3.48667 1.13257 0
M  V30 97 H 5.4205 -4.95585 -0.860514 0
M  V30 98 H 5.1205 -5.83913 0.657192 0
M  V30 99 H 6.6445 -6.10138 -0.237598 0
M  V30 100 H 8.0585 -5.40083 1.92311 0
M  V30 101 H 6.4555 -5.3528 2.71284 0
M  V30 102 H 7.5255 -3.94346 2.82169 0
M  V30 103 N 8.8686 -0.792821 -1.36206 0
M  V30 104 C 10.0936 -0.377701 -2.03932 0
M  V30 105 C 10.5186 0.998947 -1.59382 0
M  V30 106 O 9.8766 1.64421 -0.763903 0
M  V30 107 C 9.9246 -0.453635 -3.57735 0
M  V30 108 O 9.0286 0.538151 -4.08874 0
M  V30 109 H 8.3696 -0.159855 -0.644471 0
M  V30 110 H 10.8996 -1.07488 -1.7409 0
M  V30 111 H 10.9096 -0.318464 -4.06755 0
M  V30 112 H 9.5846 -1.45784 -3.89512 0
M  V30 113 H 8.1616 0.364359 -3.71116 0
M  V30 114 N 10.3467 1.47872 -0.545128 0
M  V30 115 C 11.5867 2.04391 -0.0187854 0
M  V30 116 C 11.9507 1.41162 1.30144 0
M  V30 117 O 13.1517 1.88656 1.91474 0
M  V30 118 C 11.4227 3.57299 0.0850867 0
M  V30 119 S 12.9817 4.35221 0.559302 0
M  V30 120 H 9.7997 0.710737 -0.0193301 0
M  V30 121 H 12.4017 1.81395 -0.729125 0
M  V30 122 H 11.1057 4.00847 -0.880351 0
M  V30 123 H 10.6367 3.84773 0.819348 0
M  V30 124 H 12.6517 4.61571 1.82118 0
M  V30 125 N 11.8248 0.280983 1.55075 0
M  V30 126 C 12.7548 -0.597469 2.25727 0
M  V30 127 C 13.7358 -1.15417 1.24952 0
M  V30 128 O 14.9208 -1.18722 1.53684 0
M  V30 129 C 12.0508 -1.7789 2.98283 0
M  V30 130 C 11.0048 -1.35347 4.06036 0
M  V30 131 C 10.3308 -2.61846 4.66198 0
M  V30 132 C 11.6308 -0.499354 5.19907 0
M  V30 133 H 13.3248 -0.00824265 2.99399 0
M  V30 134 H 10.8708 -0.0025244 1.44 0
M  V30 135 H 12.8238 -2.39937 3.46422 0
M  V30 136 H 11.5478 -2.39405 2.22155 0
M  V30 137 H 10.2068 -0.756156 3.58717 0
M  V30 138 H 9.8548 -3.21632 3.86732 0
M  V30 139 H 9.5548 -2.3409 5.38958 0
M  V30 140 H 11.0788 -3.24732 5.1709 0
M  V30 141 H 12.4928 -1.02498 5.64063 0
M  V30 142 H 10.8898 -0.316424 5.99265 0
M  V30 143 H 11.9598 0.480459 4.82514 0
M  V30 144 N 13.3029 -1.57598 0.00835791 0
M  V30 145 C 14.5279 -1.95617 -0.689103 0
M  V30 146 C 14.9529 -0.883753 -1.66046 0
M  V30 147 O 14.3109 0.157352 -1.80616 0
M  V30 148 C 14.3589 -3.32736 -1.38994 0
M  V30 149 O 13.4629 -3.27631 -2.50463 0
M  V30 150 H 12.8039 -0.638379 -0.182668 0
M  V30 151 H 15.3339 -2.045 0.064036 0
M  V30 152 H 15.3439 -3.68494 -1.75147 0
M  V30 153 H 14.0189 -4.1034 -0.677778 0
M  V30 154 H 12.5959 -3.03561 -2.16576 0
M  V30 155 N 14.781 0.264519 -1.55364 0
M  V30 156 C 16.027 0.99646 -1.76631 0
M  V30 157 C 16.36 1.85632 -0.570478 0
M  V30 158 O 15.635 1.89647 0.43175 0
M  V30 159 C 15.918 1.87187 -3.07625 0
M  V30 160 C 15.771 1.04138 -4.37579 0
M  V30 161 C 17.09 2.85749 -3.34717 0
M  V30 162 H 14.209 0.360841 -0.642622 0
M  V30 163 H 16.851 0.268218 -1.88097 0
M  V30 164 H 15.001 2.49279 -2.9798 0
M  V30 165 H 16.673 0.440517 -4.59192 0
M  V30 166 H 14.916 0.345115 -4.32425 0
M  V30 167 H 15.587 1.68729 -5.2558 0
M  V30 168 H 18.063 2.33793 -3.4421 0
M  V30 169 H 16.939 3.44136 -4.27623 0
M  V30 170 H 17.2 3.61311 -2.54768 0
M  V30 171 N 16.2591 1.48442 0.529413 0
M  V30 172 C 17.1891 1.65902 1.64313 0
M  V30 173 C 18.1701 0.507897 1.6234 0
M  V30 174 O 19.3551 0.740503 1.79528 0
M  V30 175 C 16.4851 1.69911 3.02898 0
M  V30 176 C 15.4391 2.8453 3.19729 0
M  V30 177 C 14.7651 2.73629 4.59381 0
M  V30 178 C 16.0651 4.25821 3.02447 0
M  V30 179 H 17.7591 2.5914 1.49955 0
M  V30 180 H 15.3051 1.24709 0.719982 0
M  V30 181 H 17.2581 1.80715 3.80684 0
M  V30 182 H 15.9821 0.732524 3.18279 0
M  V30 183 H 14.6411 2.73283 2.44361 0
M  V30 184 H 14.2891 1.74938 4.71599 0
M  V30 185 H 13.9891 3.50541 4.71588 0
M  V30 186 H 15.5131 2.86401 5.39265 0
M  V30 187 H 16.9271 4.37898 3.70024 0
M  V30 188 H 15.3241 5.03735 3.26146 0
M  V30 189 H 16.3941 4.42244 1.98867 0
M  V30 190 N 17.7372 -0.778329 1.37039 0
M  V30 191 C 18.9852 -1.53361 1.31623 0
M  V30 192 C 19.3062 -1.94739 -0.100831 0
M  V30 193 O 18.5762 -1.65797 -1.04347 0
M  V30 194 H 17.1562 -0.568794 0.484234 0
M  V30 195 H 19.8182 -0.926742 1.71457 0
M  V30 196 H 18.9142 -2.43606 1.95096 0
M  V30 197 N 19.2153 -1.21501 -1.00376 0
M  V30 198 C 20.1783 -0.976927 -2.07337 0
M  V30 199 C 21.1783 0.0525322 -1.60714 0
M  V30 200 O 22.3683 -0.184869 -1.73216 0
M  V30 201 C 19.5003 -0.473423 -3.37597 0
M  V30 202 H 20.6933 -1.92587 -2.29892 0
M  V30 203 H 18.2463 -1.03217 -1.17371 0
M  V30 204 H 18.9813 0.480379 -3.20722 0
M  V30 205 H 18.7663 -1.216 -3.72768 0
M  V30 206 H 20.2563 -0.32675 -4.1632 0
M  V30 207 N 20.6934 1.19889 -1.02296 0
M  V30 208 C 21.6564 2.21116 -0.603351 0
M  V30 209 C 22.6564 1.5738 0.329884 0
M  V30 210 O 23.8464 1.73802 0.117702 0
M  V30 211 C 20.9784 3.40696 0.117992 0
M  V30 212 H 22.1714 2.59754 -1.49893 0
M  V30 213 H 19.7244 1.33463 -0.813468 0
M  V30 214 H 20.4594 3.07569 1.0282 0
M  V30 215 H 20.2444 3.88188 -0.552511 0
M  V30 216 H 21.7344 4.15692 0.398696 0
M  V30 217 N 22.1715 0.800033 1.35784 0
M  V30 218 C 23.4195 0.376597 1.9856 0
M  V30 219 C 23.7405 -1.05812 1.63795 0
M  V30 220 O 23.0105 -1.73103 0.917171 0
M  V30 221 H 21.5905 0.136261 0.734467 0
M  V30 222 H 24.2525 1.02442 1.65806 0
M  V30 223 H 23.3485 0.477002 3.08433 0
M  V30 224 N 23.6496 -1.47581 0.552962 0
M  V30 225 C 24.8776 -2.06875 0.0320556 0
M  V30 226 C 25.2926 -1.40625 -1.25976 0
M  V30 227 O 24.6496 -0.501349 -1.75479 0
M  V30 228 C 24.7006 -3.61092 -0.17167 0
M  V30 229 O 24.4216 -4.24858 1.06899 0
M  V30 230 C 25.9226 -4.37242 -0.730344 0
M  V30 231 H 23.1426 -0.669561 0.043915 0
M  V30 232 H 25.6866 -1.89646 0.765163 0
M  V30 233 H 23.8416 -3.7785 -0.854894 0
M  V30 234 H 24.2556 -5.17334 0.864059 0
M  V30 235 H 25.7296 -5.45842 -0.822203 0
M  V30 236 H 26.2066 -4.03235 -1.74064 0
M  V30 237 H 26.8126 -4.25219 -0.0829543 0
M  V30 238 N 25.1277 -0.289203 -1.54924 0
M  V30 239 C 26.0907 0.579144 -2.21762 0
M  V30 240 C 27.0907 1.07047 -1.1999 0
M  V30 241 O 28.2807 0.968384 -1.44803 0
M  V30 242 C 25.4127 1.80055 -2.8947 0
M  V30 243 H 26.6057 -0.00464908 -2.999 0
M  V30 244 H 24.1587 -0.0399306 -1.56249 0
M  V30 245 H 24.8937 2.42449 -2.15381 0
M  V30 246 H 24.6787 1.45602 -3.64064 0
M  V30 247 H 26.1687 2.41773 -3.40493 0
M  V30 248 N 26.6058 1.57591 -0.0167156 0
M  V30 249 C 27.5358 2.12496 0.967858 0
M  V30 250 C 28.5168 1.03807 1.34752 0
M  V30 251 O 29.7018 1.31577 1.42833 0
M  V30 252 C 26.8318 2.64194 2.25431 0
M  V30 253 C 25.7858 3.77559 2.01576 0
M  V30 254 C 25.1118 4.15636 3.36379 0
M  V30 255 C 26.4118 5.04151 1.36489 0
M  V30 256 H 28.1058 2.95013 0.510643 0
M  V30 257 H 25.6518 1.41915 0.244181 0
M  V30 258 H 27.6048 3.01236 2.94678 0
M  V30 259 H 26.3288 1.78821 2.73296 0
M  V30 260 H 24.9878 3.40937 1.34751 0
M  V30 261 H 24.6358 3.27263 3.81979 0
M  V30 262 H 24.3358 4.92022 3.21229 0
M  V30 263 H 25.8598 4.5525 4.06915 0
M  V30 264 H 27.2738 5.38857 1.95718 0
M  V30 265 H 25.6708 5.85453 1.31776 0
M  V30 266 H 26.7408 4.83733 0.336219 0
M  V30 267 N 28.0839 -0.256276 1.55502 0
M  V30 268 C 29.0139 -1.32102 1.92539 0
M  V30 269 C 29.9949 -1.50684 0.789194 0
M  V30 270 O 31.1799 -1.63449 1.04872 0
M  V30 271 C 28.3099 -2.67752 2.21192 0
M  V30 272 C 27.2639 -2.63878 3.36975 0
M  V30 273 C 26.5899 -4.03236 3.51147 0
M  V30 274 C 27.8899 -2.21682 4.72921 0
M  V30 275 H 29.5839 -1.01351 2.81724 0
M  V30 276 H 27.1299 -0.486105 1.35547 0
M  V30 277 H 29.0829 -3.42365 2.45691 0
M  V30 278 H 27.8069 -3.0012 1.28824 0
M  V30 279 H 26.4659 -1.91722 3.12471 0
M  V30 280 H 26.1139 -4.32854 2.56216 0
M  V30 281 H 25.8139 -4.01535 4.29003 0
M  V30 282 H 27.3379 -4.79563 3.77957 0
M  V30 283 H 28.7519 -2.86023 4.96854 0
M  V30 284 H 27.1489 -2.3111 5.53812 0
M  V30 285 H 28.2189 -1.16833 4.70615 0
M  V30 286 N 29.562 -1.4872 -0.521534 0
M  V30 287 C 30.802 -1.58771 -1.28729 0
M  V30 288 C 31.166 -0.259394 -1.9024 0
M  V30 289 O 32.367 -0.234942 -2.67771 0
M  V30 290 C 30.638 -2.70039 -2.34124 0
M  V30 291 S 32.197 -2.9991 -3.20312 0
M  V30 292 H 29.015 -0.560251 -0.437767 0
M  V30 293 H 31.617 -1.86283 -0.593188 0
M  V30 294 H 30.321 -3.65101 -1.87429 0
M  V30 295 H 29.852 -2.44455 -3.08229 0
M  V30 296 H 31.867 -2.39855 -4.34378 0
M  V30 297 N 31.0401 0.771051 -1.3745 0
M  V30 298 C 32.0031 1.86598 -1.33093 0
M  V30 299 C 33.0031 1.59076 -0.234845 0
M  V30 300 O 34.1931 1.67145 -0.490732 0
M  V30 301 C 31.3251 3.23747 -1.06773 0
M  V30 302 H 32.5181 1.91873 -2.30488 0
M  V30 303 H 30.0711 0.970876 -1.2249 0
M  V30 304 H 30.8061 3.24148 -0.099129 0
M  V30 305 H 30.5911 3.45115 -1.86112 0
M  V30 306 H 32.0811 4.03824 -1.06377 0
M  V30 307 N 32.5182 1.22032 0.997298 0
M  V30 308 C 33.7662 1.04016 1.73278 0
M  V30 309 C 34.0872 -0.426255 1.90284 0
M  V30 310 O 33.3572 -1.30694 1.45931 0
M  V30 311 H 31.9372 0.381897 0.642 0
M  V30 312 H 34.5992 1.5347 1.20137 0
M  V30 313 H 33.6952 1.51441 2.72896 0
M  V30 314 N 33.9963 -1.19345 1.0293 0
M  V30 315 C 34.9263 -2.2481 0.631105 0
M  V30 316 C 35.9073 -1.66245 -0.360104 0
M  V30 317 O 37.0923 -1.92677 -0.242726 0
M  V30 318 C 34.2223 -3.47295 -0.0184607 0
M  V30 319 C 33.1763 -4.18536 0.895073 0
M  V30 320 C 32.5023 -5.34586 0.110592 0
M  V30 321 C 33.8023 -4.73287 2.209 0
M  V30 322 H 35.4963 -2.58372 1.51275 0
M  V30 323 H 33.0423 -1.24194 0.728818 0
M  V30 324 H 34.9953 -4.20268 -0.308675 0
M  V30 325 H 33.7193 -3.12933 -0.934907 0
M  V30 326 H 32.3783 -3.47446 1.16949 0
M  V30 327 H 32.0263 -4.96469 -0.807902 0
M  V30 328 H 31.7263 -5.83183 0.719087 0
M  V30 329 H 33.2503 -6.10355 -0.172871 0
M  V30 330 H 34.6643 -5.38013 1.98028 0
M  V30 331 H 33.0613 -5.32373 2.76946 0
M  V30 332 H 34.1313 -3.91331 2.86336 0
M  V30 333 N 35.4744 -0.807222 -1.35358 0
M  V30 334 C 36.4044 -0.232509 -2.3234 0
M  V30 335 C 37.3854 0.642386 -1.57504 0
M  V30 336 O 38.5704 0.572526 -1.85569 0
M  V30 337 C 35.7004 0.619238 -3.41735 0
M  V30 338 C 34.6544 -0.157215 -4.27711 0
M  V30 339 C 33.9804 0.816273 -5.28433 0
M  V30 340 C 35.2804 -1.35656 -5.04376 0
M  V30 341 H 36.9744 -1.04276 -2.80654 0
M  V30 342 H 34.5204 -0.50288 -1.34934 0
M  V30 343 H 36.4734 1.03137 -4.08584 0
M  V30 344 H 35.1974 1.46239 -2.92031 0
M  V30 345 H 33.8564 -0.550525 -3.62443 0
M  V30 346 H 33.5044 1.65494 -4.74996 0
M  V30 347 H 33.2044 0.301067 -5.86828 0
M  V30 348 H 34.7284 1.22659 -5.98153 0
M  V30 349 H 36.1424 -1.01927 -5.64166 0
M  V30 350 H 34.5394 -1.8063 -5.7227 0
M  V30 351 H 35.6094 -2.14288 -4.34981 0
M  V30 352 N 36.9525 1.47285 -0.560781 0
M  V30 353 C 37.8825 2.32857 0.173105 0
M  V30 354 C 38.8635 1.44009 0.905281 0
M  V30 355 O 40.0485 1.7286 0.885046 0
M  V30 356 C 37.1785 3.25861 1.20133 0
M  V30 357 C 36.1325 4.23978 0.585388 0
M  V30 358 C 35.4585 5.06332 1.7185 0
M  V30 359 C 36.7585 5.20242 -0.463178 0
M  V30 360 H 38.4525 2.94466 -0.541307 0
M  V30 361 H 35.9985 1.41601 -0.261764 0
M  V30 362 H 37.9515 3.84569 1.72293 0
M  V30 363 H 36.6755 2.62315 1.94573 0
M  V30 364 H 35.3345 3.66501 0.085054 0
M  V30 365 H 34.9825 4.39186 2.45203 0
M  V30 366 H 34.6825 5.72762 1.31213 0
M  V30 367 H 36.2065 5.67899 2.24329 0
M  V30 368 H 37.6205 5.73293 -0.027502 0
M  V30 369 H 36.0175 5.94896 -0.788627 0
M  V30 370 H 37.0875 4.65504 -1.35773 0
M  V30 371 N 38.4306 0.297415 1.54768 0
M  V30 372 C 39.6556 -0.318435 2.04941 0
M  V30 373 C 40.0806 -1.4701 1.17345 0
M  V30 374 O 39.4386 -1.80436 0.176758 0
M  V30 375 C 39.4866 -0.755749 3.52592 0
M  V30 376 O 38.5906 -1.86088 3.68028 0
M  V30 377 H 37.9316 -0.062421 0.661059 0
M  V30 378 H 40.4616 0.438215 1.99852 0
M  V30 379 H 40.4716 -1.04552 3.94376 0
M  V30 380 H 39.1466 0.0867233 4.1581 0
M  V30 381 H 37.7236 -1.57193 3.38149 0
M  V30 382 N 39.9087 -1.5758 0.0250728 0
M  V30 383 C 40.8387 -2.13007 -0.956575 0
M  V30 384 C 41.8197 -1.0452 -1.342 0
M  V30 385 O 43.0047 -1.32332 -1.42133 0
M  V30 386 C 40.1347 -2.65386 -2.24026 0
M  V30 387 C 39.0887 -3.78623 -1.99571 0
M  V30 388 C 38.4147 -4.17414 -3.3417 0
M  V30 389 C 39.7147 -5.04867 -1.33814 0
M  V30 390 H 41.4087 -2.9528 -0.494991 0
M  V30 391 H 38.9547 -1.42042 -0.236651 0
M  V30 392 H 40.9077 -3.02794 -2.93076 0
M  V30 393 H 39.6317 -1.80268 -2.72343 0
M  V30 394 H 38.2907 -3.41646 -1.32941 0
M  V30 395 H 37.9387 -3.29284 -3.80238 0
M  V30 396 H 37.6387 -4.93719 -3.18615 0
M  V30 397 H 39.1627 -4.57402 -4.04495 0
M  V30 398 H 40.5767 -5.39888 -1.92857 0
M  V30 399 H 38.9737 -5.86144 -1.28669 0
M  V30 400 H 40.0437 -4.83904 -0.310561 0
M  V30 401 N 41.3868 0.248026 -1.55636 0
M  V30 402 C 42.3498 1.29044 -1.89421 0
M  V30 403 C 43.3498 1.41134 -0.770581 0
M  V30 404 O 44.5398 1.39854 -1.03858 0
M  V30 405 C 41.6718 2.66831 -2.12165 0
M  V30 406 H 42.8648 1.00305 -2.82629 0
M  V30 407 H 40.4178 0.487265 -1.48511 0
M  V30 408 H 41.1528 3.00711 -1.21422 0
M  V30 409 H 40.9378 2.59438 -2.93997 0
M  V30 410 H 42.4278 3.42103 -2.3949 0
M  V30 411 N 42.8649 1.48995 0.513639 0
M  V30 412 C 43.7969 1.60836 1.63293 0
M  V30 413 C 44.8099 0.491701 1.55197 0
M  V30 414 O 45.9989 0.763238 1.6136 0
M  V30 415 C 43.0989 1.53731 3.02027 0
M  V30 416 C 42.2719 2.80715 3.35437 0
M  V30 417 C 41.3309 2.66837 4.53525 0
M  V30 418 O 40.3569 3.40753 4.55934 0
M  V30 419 N 41.5589 1.77539 5.52684 0
M  V30 420 H 44.3239 2.57366 1.53566 0
M  V30 421 H 41.8849 1.45925 0.701259 0
M  V30 422 H 43.8769 1.42118 3.78926 0
M  V30 423 H 42.4469 0.651092 3.05744 0
M  V30 424 H 41.6669 3.06772 2.47557 0
M  V30 425 H 42.9549 3.64927 3.54551 0
M  V30 426 H 42.3529 1.16719 5.53528 0
M  V30 427 H 40.9099 1.71856 6.28736 0
M  V30 428 N 44.343 -0.763751 1.37857 0
M  V30 429 C 45.293 -1.86765 1.30777 0
M  V30 430 C 46.277 -1.59726 0.194015 0
M  V30 431 O 47.469 -1.7172 0.42911 0
M  V30 432 C 44.598 -3.24343 1.12502 0
M  V30 433 C 43.684 -3.57307 2.28456 0
M  V30 434 N 44.075 -3.61398 3.53871 0
M  V30 435 C 42.373 -3.87517 2.20786 0
M  V30 436 C 43.074 -3.91339 4.30382 0
M  V30 437 N 42.05 -4.07649 3.59615 0
M  V30 438 H 45.852 -1.88191 2.25746 0
M  V30 439 H 43.366 -0.9606 1.30944 0
M  V30 440 H 45.363 -4.03327 1.05514 0
M  V30 441 H 44.023 -3.24175 0.184574 0
M  V30 442 H 45.034 -3.43407 3.87675 0
M  V30 443 H 41.711 -3.95125 1.34844 0
M  V30 444 H 43.101 -4.01213 5.3896 0
M  V30 445 N 45.8211 -1.22559 -0.990812 0
M  V30 446 C 46.7511 -1.0218 -2.09956 0
M  V30 447 C 47.7321 0.0579394 -1.70001 0
M  V30 448 O 48.9171 -0.104684 -1.93918 0
M  V30 449 C 46.0471 -0.601023 -3.4206 0
M  V30 450 C 45.0011 -1.62694 -3.95872 0
M  V30 451 C 44.3271 -1.06193 -5.24049 0
M  V30 452 C 45.6271 -3.01743 -4.2632 0
M  V30 453 H 47.3211 -1.94916 -2.27262 0
M  V30 454 H 44.8671 -0.938566 -1.09211 0
M  V30 455 H 46.8201 -0.445561 -4.19038 0
M  V30 456 H 45.5441 0.362005 -3.24588 0
M  V30 457 H 44.2031 -1.77021 -3.21028 0
M  V30 458 H 43.8511 -0.0901903 -5.02919 0
M  V30 459 H 43.5511 -1.74732 -5.61019 0
M  V30 460 H 45.0751 -0.918092 -6.03658 0
M  V30 461 H 46.4891 -2.90777 -4.94087 0
M  V30 462 H 44.8861 -3.67425 -4.74467 0
M  V30 463 H 45.9561 -3.51518 -3.34011 0
M  V30 464 N 47.2992 1.18797 -1.03562 0
M  V30 465 C 48.5452 1.89192 -0.746867 0
M  V30 466 C 48.9002 1.78531 0.717245 0
M  V30 467 O 48.1932 1.17137 1.51622 0
M  V30 468 C 48.3872 3.38692 -1.14117 0
M  V30 469 C 48.2162 3.63902 -2.64207 0
M  V30 470 C 46.9862 3.81553 -3.31279 0
M  V30 471 C 49.1842 3.64903 -3.62423 0
M  V30 472 N 47.1662 3.94455 -4.70402 0
M  V30 473 C 48.5372 3.83458 -4.87196 0
M  V30 474 C 50.5922 3.47965 -3.56125 0
M  V30 475 C 49.2952 3.86829 -6.06429 0
M  V30 476 C 51.3212 3.52616 -4.7478 0
M  V30 477 C 50.6832 3.71663 -5.9837 0
M  V30 478 H 46.7822 0.711141 -0.325273 0
M  V30 479 H 49.3662 1.42727 -1.32428 0
M  V30 480 H 47.5372 3.83864 -0.591889 0
M  V30 481 H 49.2692 3.96634 -0.803966 0
M  V30 482 H 46.0242 3.80723 -2.81686 0
M  V30 483 H 46.4482 4.0474 -5.42692 0
M  V30 484 H 51.0902 3.32189 -2.61553 0
M  V30 485 H 48.8082 4.01395 -7.01362 0
M  V30 486 H 52.3942 3.40791 -4.71543 0
M  V30 487 H 51.2742 3.75145 -6.88648 0
M  V30 488 N 48.7773 0.814389 1.34928 0
M  V30 489 C 50.0053 0.411136 2.02774 0
M  V30 490 C 50.4203 -0.980316 1.61354 0
M  V30 491 O 49.7773 -1.63299 0.814847 0
M  V30 492 C 49.8283 0.493865 3.58111 0
M  V30 493 O 49.5493 1.83047 3.98027 0
M  V30 494 C 51.0503 0.0844174 4.4322 0
M  V30 495 H 48.2703 0.166037 0.650133 0
M  V30 496 H 50.8143 1.10018 1.72384 0
M  V30 497 H 48.9693 -0.147006 3.87121 0
M  V30 498 H 49.3833 1.79872 4.92693 0
M  V30 499 H 50.8573 0.193404 5.51661 0
M  V30 500 H 51.3343 -0.97113 4.28329 0
M  V30 501 H 51.9403 0.69875 4.19521 0
M  V30 502 N 50.2554 -1.46986 0.568584 0
M  V30 503 C 51.1854 -2.32946 -0.160753 0
M  V30 504 C 52.1664 -1.44487 -0.897631 0
M  V30 505 O 53.3514 -1.73327 -0.875867 0
M  V30 506 C 50.4814 -3.26494 -1.18403 0
M  V30 507 C 49.4354 -4.24282 -0.562895 0
M  V30 508 C 48.7614 -5.07236 -1.69163 0
M  V30 509 C 50.0614 -5.19989 0.490761 0
M  V30 510 H 51.7554 -2.94175 0.556916 0
M  V30 511 H 49.3014 -1.4146 0.26927 0
M  V30 512 H 51.2544 -3.85477 -1.70251 0
M  V30 513 H 49.9784 -2.63343 -1.93179 0
M  V30 514 H 48.6374 -3.66541 -0.0656164 0
M  V30 515 H 48.2854 -4.4048 -2.42871 0
M  V30 516 H 47.9854 -5.7345 -1.28174 0
M  V30 517 H 49.5094 -5.6908 -2.21314 0
M  V30 518 H 50.9234 -5.73271 0.0579047 0
M  V30 519 H 49.3204 -5.94469 0.820165 0
M  V30 520 H 50.3904 -4.64777 1.3824 0
M  V30 521 N 51.7335 -0.305618 -1.54608 0
M  V30 522 C 53.1495 0.0476228 -1.59529 0
M  V30 523 C 53.3495 1.52025 -1.32252 0
M  V30 524 O 52.4055 2.27368 -1.09818 0
M  V30 525 C 53.7185 -0.354471 -2.98603 0
M  V30 526 C 55.2665 -0.303622 -3.11524 0
M  V30 527 C 55.7415 -0.680608 -4.52915 0
M  V30 528 N 57.2325 -0.63332 -4.5885 0
M  V30 529 C 57.9675 -0.897432 -5.66334 0
M  V30 530 N 57.4635 -1.22775 -6.81834 0
M  V30 531 N 59.2565 -0.824186 -5.56025 0
M  V30 532 H 51.4075 -1.2653 -1.70599 0
M  V30 533 H 53.6705 -0.513291 -0.797017 0
M  V30 534 H 53.3765 -1.3798 -3.23503 0
M  V30 535 H 53.2505 0.289568 -3.76087 0
M  V30 536 H 55.6375 0.712472 -2.8637 0
M  V30 537 H 55.7185 -0.982348 -2.36185 0
M  V30 538 H 55.3625 -1.69453 -4.78799 0
M  V30 539 H 55.2925 0.0202385 -5.26596 0
M  V30 540 H 57.7835 -0.389138 -3.75891 0
M  V30 541 H 58.0965 -1.41513 -7.59733 0
M  V30 542 H 56.4415 -1.26583 -6.83375 0
M  V30 543 H 59.6325 -0.565748 -4.64669 0
M  V30 544 H 59.8055 -1.03338 -6.39707 0
M  V30 545 N 53.2116 1.57565 -0.0334293 0
M  V30 546 C 54.4576 1.93088 0.639417 0
M  V30 547 C 54.8126 0.910589 1.69488 0
M  V30 548 O 54.1056 -0.0727725 1.91462 0
M  V30 549 C 54.2996 3.33112 1.29504 0
M  V30 550 C 54.1286 4.48667 0.304604 0
M  V30 551 C 52.8986 5.05207 -0.0970777 0
M  V30 552 C 55.0966 5.1239 -0.442845 0
M  V30 553 N 53.0786 6.04286 -1.08223 0
M  V30 554 C 54.4496 6.06609 -1.28161 0
M  V30 555 C 56.5046 4.95352 -0.50308 0
M  V30 556 C 55.2076 6.85622 -2.17519 0
M  V30 557 C 57.2336 5.74978 -1.38401 0
M  V30 558 C 56.5956 6.68816 -2.21054 0
M  V30 559 H 52.6946 0.754335 0.206161 0
M  V30 560 H 55.2786 1.94435 -0.101613 0
M  V30 561 H 53.4496 3.32576 2.00618 0
M  V30 562 H 55.1816 3.55972 1.92525 0
M  V30 563 H 51.9366 4.72782 0.278255 0
M  V30 564 H 52.3606 6.58516 -1.57117 0
M  V30 565 H 57.0026 4.22625 0.121694 0
M  V30 566 H 54.7206 7.57652 -2.81049 0
M  V30 567 H 58.3066 5.63826 -1.43496 0
M  V30 568 H 57.1866 7.29355 -2.88116 0
M  V30 569 N 54.6897 -0.239769 1.55765 0
M  V30 570 C 55.6227 -1.32356 1.85895 0
M  V30 571 C 56.6007 -1.46053 0.714662 0
M  V30 572 O 57.7847 -1.62154 0.961157 0
M  V30 573 C 54.9117 -2.6962 2.04994 0
M  V30 574 C 53.9577 -2.73036 3.27648 0
M  V30 575 S 54.7907 -2.28929 4.84099 0
M  V30 576 C 55.9467 -3.68103 5.06212 0
M  V30 577 H 56.1797 -1.06601 2.77531 0
M  V30 578 H 53.7127 -0.441112 1.47965 0
M  V30 579 H 55.6707 -3.48653 2.16682 0
M  V30 580 H 54.3317 -2.92609 1.14188 0
M  V30 581 H 53.5247 -3.7386 3.38 0
M  V30 582 H 53.1267 -2.02052 3.14723 0
M  V30 583 H 55.4187 -4.63656 4.93993 0
M  V30 584 H 56.3617 -3.6268 6.08168 0
M  V30 585 H 56.7697 -3.60947 4.34025 0
M  V30 586 N 56.1678 -1.49265 -0.50573 0
M  V30 587 C 57.0978 -1.68495 -1.61653 0
M  V30 588 C 58.0788 -0.53366 -1.61512 0
M  V30 589 O 59.2638 -0.76897 -1.78327 0
M  V30 590 C 56.3938 -1.74709 -3.00157 0
M  V30 591 C 55.3478 -2.89581 -3.15162 0
M  V30 592 C 54.6738 -2.80903 -4.5497 0
M  V30 593 C 55.9738 -4.30578 -2.95634 0
M  V30 594 H 57.6678 -2.61493 -1.45814 0
M  V30 595 H 55.2138 -1.25838 -0.70005 0
M  V30 596 H 57.1668 -1.86748 -3.77761 0
M  V30 597 H 55.8908 -0.783067 -3.17074 0
M  V30 598 H 54.5498 -2.77136 -2.39982 0
M  V30 599 H 54.1978 -1.82419 -4.68756 0
M  V30 600 H 53.8978 -3.57999 -4.65951 0
M  V30 601 H 55.4218 -2.94944 -5.34641 0
M  V30 602 H 56.8358 -4.4373 -3.63011 0
M  V30 603 H 55.2328 -5.0886 -3.18091 0
M  V30 604 H 56.3028 -4.45352 -1.91806 0
M  V30 605 N 57.6459 0.756429 -1.3826 0
M  V30 606 C 58.8709 1.55077 -1.37717 0
M  V30 607 C 59.2959 1.88073 0.03164 0
M  V30 608 O 58.6539 1.50364 1.01293 0
M  V30 609 C 58.7019 2.8283 -2.23695 0
M  V30 610 O 57.8059 3.77862 -1.6521 0
M  V30 611 H 57.1469 0.469152 -0.469885 0
M  V30 612 H 59.6769 0.935019 -1.81985 0
M  V30 613 H 59.6869 3.31783 -2.37453 0
M  V30 614 H 58.3619 2.58144 -3.2609 0
M  V30 615 H 56.9389 3.36555 -1.60578 0
M  V30 616 N 59.124 1.23083 0.984299 0
M  V30 617 C 60.54 0.992637 1.24975 0
M  V30 618 C 60.74 -0.308618 1.99123 0
M  V30 619 O 59.796 -1.02905 2.30579 0
M  V30 620 C 61.109 2.19698 2.05312 0
M  V30 621 C 62.657 2.24147 2.18465 0
M  V30 622 C 63.132 3.44157 3.02192 0
M  V30 623 N 64.623 3.44372 3.09777 0
M  V30 624 C 65.358 4.33886 3.74874 0
M  V30 625 N 64.854 5.3363 4.41827 0
M  V30 626 N 66.647 4.21639 3.71721 0
M  V30 627 H 58.798 2.06731 0.487453 0
M  V30 628 H 61.061 0.906339 0.277944 0
M  V30 629 H 60.767 3.1411 1.58201 0
M  V30 630 H 60.641 2.20465 3.06064 0
M  V30 631 H 63.028 1.30277 2.64786 0
M  V30 632 H 63.109 2.27415 1.17115 0
M  V30 633 H 62.753 4.38332 2.56568 0
M  V30 634 H 62.683 3.3813 4.03702 0
M  V30 635 H 65.174 2.72201 2.62135 0
M  V30 636 H 65.487 5.98196 4.89266 0
M  V30 637 H 63.832 5.37534 4.40548 0
M  V30 638 H 67.023 3.42962 3.18582 0
M  V30 639 H 67.196 4.91604 4.22173 0
M  V30 640 N 60.6021 -1.18246 1.0419 0
M  V30 641 C 61.8791 -1.84121 0.660208 0
M  V30 642 C 62.2591 -1.92778 -0.860221 0
M  V30 643 O 61.6071 -1.45464 -1.76217 0
M  V30 644 C 61.8171 -3.22355 1.33747 0
M  V30 645 C 63.1651 -3.98376 1.46906 0
M  V30 646 O 64.1891 -3.31799 1.29568 0
M  V30 647 O 63.0481 -5.17665 1.75171 0
M  V30 648 H 60.1421 -0.794036 0.231161 0
M  V30 649 H 62.6881 -1.25628 1.14087 0
M  V30 650 H 61.4601 -3.10964 2.37522 0
M  V30 651 H 61.0831 -3.88506 0.845515 0
M  V30 652 N 62.0802 -0.821533 -1.34494 0
M  V30 653 C 63.4962 -0.507117 -1.51329 0
M  V30 654 C 63.6962 0.968964 -1.76673 0
M  V30 655 O 62.7522 1.75348 -1.81685 0
M  V30 656 C 64.0652 -1.36544 -2.67911 0
M  V30 657 C 65.6132 -1.36242 -2.81793 0
M  V30 658 C 66.0882 -2.2052 -4.01416 0
M  V30 659 N 67.5792 -2.18136 -4.08621 0
M  V30 660 C 68.3142 -2.80095 -5.00334 0
M  V30 661 N 67.8102 -3.51039 -5.9728 0
M  V30 662 N 69.6032 -2.69656 -4.93196 0
M  V30 663 H 61.7542 -1.77729 -1.16302 0
M  V30 664 H 64.0172 -0.757291 -0.570276 0
M  V30 665 H 63.7232 -2.41361 -2.55808 0
M  V30 666 H 63.5972 -1.02917 -3.62888 0
M  V30 667 H 65.9842 -0.322041 -2.93338 0
M  V30 668 H 66.0652 -1.73866 -1.87628 0
M  V30 669 H 65.7092 -3.24607 -3.90631 0
M  V30 670 H 65.6392 -1.80247 -4.94791 0
M  V30 671 H 68.1302 -1.6653 -3.39229 0
M  V30 672 H 68.4432 -3.95565 -6.63889 0
M  V30 673 H 66.7882 -3.55145 -5.97409 0
M  V30 674 H 69.9792 -2.13808 -4.16418 0
M  V30 675 H 70.1522 -3.1823 -5.64476 0
M  V30 676 N 63.5583 1.46682 -0.576371 0
M  V30 677 C 64.5213 2.28707 0.150239 0
M  V30 678 C 65.5213 1.38035 0.824794 0
M  V30 679 O 66.7113 1.60476 0.677719 0
M  V30 680 C 63.8433 3.18248 1.22192 0
M  V30 681 H 65.0363 2.94423 -0.570521 0
M  V30 682 H 62.5893 1.52688 -0.334078 0
M  V30 683 H 63.3243 2.57265 1.97447 0
M  V30 684 H 63.1093 3.85 0.742812 0
M  V30 685 H 64.5993 3.80001 1.73172 0
M  V30 686 N 65.0364 0.313813 1.54444 0
M  V30 687 C 66.2614 -0.296681 2.05267 0
M  V30 688 C 66.6864 -1.45757 1.18897 0
M  V30 689 O 66.0444 -1.80239 0.195886 0
M  V30 690 C 66.0924 -0.71831 3.53373 0
M  V30 691 O 65.1964 -1.82175 3.69981 0
M  V30 692 H 64.5374 -0.0554061 0.661684 0
M  V30 693 H 67.0674 0.459387 1.99376 0
M  V30 694 H 67.0774 -1.00364 3.95463 0
M  V30 695 H 65.7524 0.130821 4.15694 0
M  V30 696 H 64.3294 -1.53598 3.39797 0
M  V30 697 N 66.5145 -1.57545 0.0417849 0
M  V30 698 C 67.7425 -1.96624 -0.643928 0
M  V30 699 C 68.1575 -0.918897 -1.64929 0
M  V30 700 O 67.5145 0.0979323 -1.82237 0
M  V30 701 C 67.5655 -3.35781 -1.33914 0
M  V30 702 O 67.2865 -4.365 -0.374048 0
M  V30 703 C 68.7875 -3.89566 -2.1155 0
M  V30 704 H 66.0075 -0.647316 -0.176702 0
M  V30 705 H 68.5515 -2.04229 0.105304 0
M  V30 706 H 66.7065 -3.29357 -2.03968 0
M  V30 707 H 67.1205 -5.17248 -0.869179 0
M  V30 708 H 68.5945 -4.89242 -2.55628 0
M  V30 709 H 69.0715 -3.24488 -2.9598 0
M  V30 710 H 69.6775 -3.99298 -1.46427 0
M  V30 711 N 67.9926 0.231505 -1.5589 0
M  V30 712 C 68.9226 1.29022 -1.94617 0
M  V30 713 C 69.9036 1.4941 -0.813067 0
M  V30 714 O 71.0886 1.6176 -1.07459 0
M  V30 715 C 68.2186 2.64199 -2.25424 0
M  V30 716 C 67.1726 2.58484 -3.41131 0
M  V30 717 C 66.4986 3.97599 -3.57518 0
M  V30 718 C 67.7986 2.1413 -4.76388 0
M  V30 719 H 69.4926 0.968563 -2.83301 0
M  V30 720 H 67.0386 0.464479 -1.36303 0
M  V30 721 H 68.9916 3.38413 -2.51107 0
M  V30 722 H 67.7156 2.98032 -1.33583 0
M  V30 723 H 66.3746 1.86727 -3.15481 0
M  V30 724 H 66.0226 4.28723 -2.6307 0
M  V30 725 H 65.7226 3.94659 -4.35337 0
M  V30 726 H 67.2466 4.7349 -3.85538 0
M  V30 727 H 68.6606 2.78083 -5.01341 0
M  V30 728 H 67.0576 2.2227 -5.57419 0
M  V30 729 H 68.1276 1.09331 -4.72414 0
M  V30 730 N 69.4707 1.49531 0.497807 0
M  V30 731 C 70.8817 1.52344 1.07927 0
M  V30 732 C 71.2327 0.311469 1.93712 0
M  V30 733 O 70.3577 -0.578405 2.08527 0
M  V30 734 C 70.9527 2.76062 1.96405 0
M  V30 735 C 69.5117 2.81643 2.49709 0
M  V30 736 C 68.6587 2.46299 1.27404 0
M  V30 737 H 71.6097 1.56182 0.281576 0
M  V30 738 H 71.6307 2.56405 2.81135 0
M  V30 739 H 71.1427 3.64254 1.33943 0
M  V30 740 H 69.2437 1.97739 3.15801 0
M  V30 741 H 69.3567 3.83891 2.86643 0
M  V30 742 H 67.7207 1.98148 1.60029 0
M  V30 743 H 68.5037 3.36769 0.66645 0
M  V30 744 N 70.9488 -0.749086 1.3866 0
M  V30 745 C 71.8788 -1.8764 1.38973 0
M  V30 746 C 72.8598 -1.68178 0.255004 0
M  V30 747 O 74.0448 -1.88704 0.458754 0
M  V30 748 C 71.1748 -3.25222 1.21851 0
M  V30 749 C 70.1288 -3.59295 2.32575 0
M  V30 750 C 69.4548 -4.95663 2.00555 0
M  V30 751 C 70.7548 -3.63709 3.7485 0
M  V30 752 H 72.4488 -1.87635 2.3331 0
M  V30 753 H 69.9948 -0.901329 1.12303 0
M  V30 754 H 71.9478 -4.03746 1.20695 0
M  V30 755 H 70.6718 -3.25719 0.239775 0
M  V30 756 H 69.3308 -2.83093 2.32925 0
M  V30 757 H 68.9788 -4.92724 1.01154 0
M  V30 758 H 68.6788 -5.19429 2.74714 0
M  V30 759 H 70.2028 -5.7656 2.01024 0
M  V30 760 H 71.6168 -4.32338 3.76506 0
M  V30 761 H 70.0138 -3.98986 4.48252 0
M  V30 762 H 71.0838 -2.63834 4.06841 0
M  V30 763 N 72.4269 -1.23603 -0.977757 0
M  V30 764 C 73.8379 -1.06424 -1.53398 0
M  V30 765 C 74.1889 0.367578 -1.92726 0
M  V30 766 O 73.3139 1.25465 -1.76316 0
M  V30 767 C 73.9089 -1.92568 -2.78753 0
M  V30 768 C 72.4679 -1.79642 -3.30765 0
M  V30 769 C 71.6149 -1.88111 -2.03739 0
M  V30 770 H 74.5659 -1.37227 -0.797152 0
M  V30 771 H 74.5869 -1.45203 -3.51705 0
M  V30 772 H 74.0989 -2.96771 -2.50098 0
M  V30 773 H 72.1999 -0.782325 -3.64294 0
M  V30 774 H 72.3129 -2.63174 -4.00345 0
M  V30 775 H 70.6769 -1.31723 -2.17994 0
M  V30 776 H 71.4599 -2.93875 -1.77461 0
M  V30 777 N 73.905 1.17692 -1.04816 0
M  V30 778 C 74.852 2.21581 -0.645797 0
M  V30 779 C 75.822 1.62367 0.350159 0
M  V30 780 O 77.007 1.89254 0.242433 0
M  V30 781 C 74.147 3.45092 -0.0227568 0
M  V30 782 C 73.26 4.18613 -1.06709 0
M  V30 783 C 72.395 5.29602 -0.411767 0
M  V30 784 C 71.434 5.94904 -1.44067 0
M  V30 785 N 70.571 6.97414 -0.809781 0
M  V30 786 H 75.411 2.55353 -1.5362 0
M  V30 787 H 72.948 1.25438 -0.768364 0
M  V30 788 H 74.906 4.15679 0.35588 0
M  V30 789 H 73.536 3.11917 0.831122 0
M  V30 790 H 72.588 3.46779 -1.5636 0
M  V30 791 H 73.9 4.63293 -1.84827 0
M  V30 792 H 73.054 6.06696 0.0206623 0
M  V30 793 H 71.793 4.86045 0.401438 0
M  V30 794 H 70.798 5.16544 -1.88316 0
M  V30 795 H 72.023 6.40542 -2.25571 0
M  V30 796 H 69.969 6.55998 -0.0170186 0
M  V30 797 H 69.886 7.40386 -1.52856 0
M  V30 798 H 71.154 7.78463 -0.401999 0
M  V30 799 N 75.3831 0.828654 1.34056 0
M  V30 800 C 76.6311 0.41863 1.97717 0
M  V30 801 C 76.9521 -1.02314 1.66002 0
M  V30 802 O 76.2221 -1.71119 0.953683 0
M  V30 803 H 74.8021 0.151809 0.731412 0
M  V30 804 H 77.4641 1.05936 1.63596 0
M  V30 805 H 76.5601 0.542318 3.07352 0
M  V30 806 N 76.8612 -1.46375 0.584142 0
M  V30 807 C 78.0862 -2.07268 0.0740405 0
M  V30 808 C 78.5112 -1.42979 -1.22223 0
M  V30 809 O 77.8692 -0.514092 -1.73859 0
M  V30 810 C 77.9172 -3.60518 -0.0767769 0
M  V30 811 O 77.0212 -3.96533 -1.13292 0
M  V30 812 H 76.3622 -0.660961 0.0634524 0
M  V30 813 H 78.8922 -1.87991 0.807492 0
M  V30 814 H 78.9022 -4.07021 -0.282489 0
M  V30 815 H 77.5772 -4.06702 0.86986 0
M  V30 816 H 76.1542 -3.61738 -0.905553 0
M  V30 817 N 78.3393 -0.321999 -1.54275 0
M  V30 818 C 79.2723 0.58718 -2.20516 0
M  V30 819 C 80.2503 1.11693 -1.18167 0
M  V30 820 O 81.4343 1.18122 -1.46899 0
M  V30 821 C 78.5613 1.80554 -2.86562 0
M  V30 822 C 77.6073 1.40718 -4.02617 0
M  V30 823 S 78.4403 0.445218 -5.33646 0
M  V30 824 C 79.5963 1.6709 -6.03185 0
M  V30 825 H 79.8293 0.0244875 -2.9729 0
M  V30 826 H 77.3623 -0.106087 -1.54035 0
M  V30 827 H 79.3203 2.50462 -3.25237 0
M  V30 828 H 77.9813 2.33942 -2.09595 0
M  V30 829 H 77.1743 2.31501 -4.47687 0
M  V30 830 H 76.7763 0.78782 -3.65608 0
M  V30 831 H 79.0683 2.60856 -6.25268 0
M  V30 832 H 80.0113 1.26239 -6.96756 0
M  V30 833 H 80.4193 1.85716 -5.33076 0
M  V30 834 N 79.8174 1.5752 -0.0501392 0
M  V30 835 C 81.0654 1.9227 0.622642 0
M  V30 836 C 81.3864 0.929083 1.71444 0
M  V30 837 O 80.6564 -0.0262186 1.95882 0
M  V30 838 H 79.2364 0.709739 0.232981 0
M  V30 839 H 81.8984 1.94628 -0.102898 0
M  V30 840 H 80.9944 2.93479 1.06191 0
M  V30 841 N 81.2955 -0.223234 1.56011 0
M  V30 842 C 82.5415 -0.944891 1.8012 0
M  V30 843 C 82.8965 -1.82039 0.622862 0
M  V30 844 O 82.1895 -1.8773 -0.383143 0
M  V30 845 C 82.3835 -1.81948 3.0762 0
M  V30 846 C 82.2125 -1.03014 4.37742 0
M  V30 847 C 80.9825 -0.72574 5.00061 0
M  V30 848 C 83.1805 -0.396256 5.12771 0
M  V30 849 N 81.1625 0.0851816 6.13841 0
M  V30 850 C 82.5335 0.278137 6.19376 0
M  V30 851 C 84.5885 -0.309117 4.9694 0
M  V30 852 C 83.2915 1.03133 7.11868 0
M  V30 853 C 85.3175 0.430607 5.8983 0
M  V30 854 C 84.6795 1.09355 6.9586 0
M  V30 855 H 80.7785 -0.326081 0.710771 0
M  V30 856 H 83.3625 -0.215914 1.93499 0
M  V30 857 H 81.5335 -2.52029 2.95527 0
M  V30 858 H 83.2655 -2.47848 3.19927 0
M  V30 859 H 80.0205 -1.04335 4.61964 0
M  V30 860 H 80.4445 0.479428 6.753 0
M  V30 861 H 85.0865 -0.807313 4.15021 0
M  V30 862 H 82.8045 1.54105 7.9327 0
M  V30 863 H 86.3905 0.499012 5.79656 0
M  V30 864 H 85.2705 1.65679 7.66499 0
M  V30 865 N 82.7736 -1.49793 -0.48987 0
M  V30 866 C 84.1846 -1.52914 -1.07118 0
M  V30 867 C 84.5356 -0.321738 -1.93544 0
M  V30 868 O 83.6606 0.567338 -2.08831 0
M  V30 869 C 84.2556 -2.771 -1.94938 0
M  V30 870 C 82.8146 -2.82963 -2.48212 0
M  V30 871 C 81.9616 -2.46972 -1.26096 0
M  V30 872 H 84.9126 -1.56329 -0.273289 0
M  V30 873 H 84.9336 -2.57892 -2.79771 0
M  V30 874 H 84.4456 -3.64959 -1.32009 0
M  V30 875 H 82.5466 -1.99411 -3.14748 0
M  V30 876 H 82.6596 -3.85406 -2.84603 0
M  V30 877 H 81.0236 -1.98994 -1.58976 0
M  V30 878 H 81.8066 -3.37118 -0.648581 0
M  V30 879 N 84.2517 0.741722 -1.39055 0
M  V30 880 C 85.4987 1.50114 -1.35912 0
M  V30 881 C 85.8267 1.94443 0.0470937 0
M  V30 882 O 85.0817 1.66612 1.02659 0
M  V30 883 C 85.3807 2.7592 -2.27163 0
M  V30 884 C 85.0467 2.50493 -3.74919 0
M  V30 885 C 83.7087 2.43267 -4.1518 0
M  V30 886 C 86.0607 2.28585 -4.684 0
M  V30 887 C 83.3887 2.12166 -5.46994 0
M  V30 888 C 85.7407 1.99002 -6.00484 0
M  V30 889 C 84.4047 1.90241 -6.39816 0
M  V30 890 H 83.6747 0.549306 -0.497336 0
M  V30 891 H 86.3217 0.851896 -1.71508 0
M  V30 892 H 84.6267 3.45553 -1.84663 0
M  V30 893 H 86.3237 3.33923 -2.22028 0
M  V30 894 H 82.9137 2.56992 -3.43006 0
M  V30 895 H 87.0977 2.33139 -4.38132 0
M  V30 896 H 82.3537 2.03901 -5.76398 0
M  V30 897 H 86.5277 1.81057 -6.72452 0
M  V30 898 H 84.1547 1.65907 -7.41875 0
M  V30 899 N 85.7298 1.2412 0.971189 0
M  V30 900 C 86.9768 1.07881 1.71371 0
M  V30 901 C 87.3048 -0.382901 1.90694 0
M  V30 902 O 86.5598 -1.29945 1.46331 0
M  V30 903 C 86.8588 1.75983 3.11071 0
M  V30 904 C 86.5248 3.25909 3.11599 0
M  V30 905 C 85.1868 3.66813 3.11451 0
M  V30 906 C 87.5388 4.21771 3.062 0
M  V30 907 C 84.8668 5.02021 3.03631 0
M  V30 908 C 87.2188 5.56982 2.99923 0
M  V30 909 C 85.8828 5.97237 2.98102 0
M  V30 910 H 85.1528 0.394764 0.62709 0
M  V30 911 H 87.7998 1.54176 1.13587 0
M  V30 912 H 86.1048 1.22072 3.72298 0
M  V30 913 H 87.8018 1.60887 3.6731 0
M  V30 914 H 84.3918 2.93353 3.12477 0
M  V30 915 H 88.5758 3.91172 3.05447 0
M  V30 916 H 83.8318 5.32411 3.0058 0
M  V30 917 H 88.0058 6.30969 2.94704 0
M  V30 918 H 85.6328 7.01967 2.91798 0
M  V30 919 N 87.2079 -1.17134 1.05439 0
M  V30 920 C 88.4559 -1.87085 0.764429 0
M  V30 921 C 88.7769 -1.81584 -0.710787 0
M  V30 922 O 88.0469 -1.24349 -1.51374 0
M  V30 923 H 86.6269 -0.692627 0.279779 0
M  V30 924 H 89.2889 -1.42087 1.33406 0
M  V30 925 H 88.3849 -2.92759 1.0816 0
M  V30 926 N 88.686 -0.835752 -1.33615 0
M  V30 927 C 89.596 -0.269088 -2.33052 0
M  V30 928 C 90.612 0.603251 -1.63208 0
M  V30 929 O 91.788 0.508112 -1.94885 0
M  V30 930 C 88.853 0.549091 -3.42324 0
M  V30 931 C 87.914 -0.347156 -4.27894 0
M  V30 932 C 87.147 0.43207 -5.31948 0
M  V30 933 O 87.37 1.66409 -5.45586 0
M  V30 934 O 86.304 -0.192298 -6.01593 0
M  V30 935 H 90.13 -1.09243 -2.83372 0
M  V30 936 H 87.715 -0.598198 -1.36901 0
M  V30 937 H 89.597 1.01414 -4.09015 0
M  V30 938 H 88.272 1.34955 -2.94226 0
M  V30 939 H 87.179 -0.859979 -3.64081 0
M  V30 940 H 88.512 -1.1123 -4.79467 0
M  V30 941 N 90.1641 1.46063 -0.591896 0
M  V30 942 C 91.3921 2.06717 -0.0868936 0
M  V30 943 C 91.8071 1.43916 1.22203 0
M  V30 944 O 91.1641 0.547698 1.74088 0
M  V30 945 C 91.2151 3.6142 0.0758725 0
M  V30 946 O 90.9361 4.21874 -1.18126 0
M  V30 947 C 92.4371 4.39025 0.61416 0
M  V30 948 H 89.6571 0.668162 -0.0616518 0
M  V30 949 H 92.2011 1.8755 -0.815175 0
M  V30 950 H 90.3561 3.79983 0.754413 0
M  V30 951 H 90.7701 5.14861 -1.00092 0
M  V30 952 H 92.2441 5.4783 0.677193 0
M  V30 953 H 92.7211 4.07708 1.63312 0
M  V30 954 H 93.3271 4.2529 -0.0298142 0
M  V30 955 N 91.6422 0.330177 1.54103 0
M  V30 956 C 92.5722 -0.525353 2.27513 0
M  V30 957 C 93.5532 -1.11383 1.2856 0
M  V30 958 O 94.7382 -1.13773 1.57383 0
M  V30 959 C 91.8682 -1.6831 3.03791 0
M  V30 960 C 90.8222 -1.2236 4.10137 0
M  V30 961 C 90.1482 -2.46882 4.74293 0
M  V30 962 C 91.4482 -0.333697 5.21233 0
M  V30 963 H 93.1422 0.087013 2.99274 0
M  V30 964 H 90.6882 0.0432893 1.43935 0
M  V30 965 H 92.6412 -2.28795 3.5388 0
M  V30 966 H 91.3652 -2.32216 2.29659 0
M  V30 967 H 90.0242 -0.64165 3.60941 0
M  V30 968 H 89.6722 -3.09165 3.96769 0
M  V30 969 H 89.3722 -2.16825 5.46133 0
M  V30 970 H 90.8962 -3.08117 5.27159 0
M  V30 971 H 92.3102 -0.845013 5.67038 0
M  V30 972 H 90.7072 -0.125612 5.99969 0
M  V30 973 H 91.7772 0.633724 4.80741 0
M  V30 974 N 93.1203 -1.57491 0.0584922 0
M  V30 975 C 94.0703 -2.08474 -0.923188 0
M  V30 976 C 95.0543 -0.991479 -1.26722 0
M  V30 977 O 96.2463 -1.25473 -1.24842 0
M  V30 978 C 93.3753 -2.6392 -2.19548 0
M  V30 979 C 92.4613 -3.80227 -1.87852 0
M  V30 980 N 92.8523 -4.89714 -1.26546 0
M  V30 981 C 91.1503 -3.89271 -2.17679 0
M  V30 982 C 91.8513 -5.70689 -1.12644 0
M  V30 983 N 90.8273 -5.18531 -1.63176 0
M  V30 984 H 94.6293 -2.90517 -0.444653 0
M  V30 985 H 92.1433 -1.61745 -0.145764 0
M  V30 986 H 94.1403 -2.98752 -2.9078 0
M  V30 987 H 92.8003 -1.83318 -2.68001 0
M  V30 988 H 93.8113 -5.09358 -0.936757 0
M  V30 989 H 90.4883 -3.19623 -2.68602 0
M  V30 990 H 91.8783 -6.6875 -0.6499 0
M  V30 991 N 94.5984 0.214957 -1.56127 0
M  V30 992 C 95.8444 0.935325 -1.80619 0
M  V30 993 C 96.1994 1.81706 -0.632507 0
M  V30 994 O 95.4924 1.87931 0.373182 0
M  V30 995 C 95.6864 1.80314 -3.0858 0
M  V30 996 C 95.5154 1.00691 -4.38282 0
M  V30 997 C 94.2854 0.699211 -5.00439 0
M  V30 998 C 96.4834 0.369057 -5.12974 0
M  V30 999 N 94.4654 -0.117734 -6.13787 0
M  V30 1000 C 95.8364 -0.310981 -6.1922 0
M  V30 1001 C 97.8914 0.282759 -4.97096 0
M  V30 1002 C 96.5944 -1.06907 -7.11311 0
M  V30 1003 C 98.6204 -0.461881 -5.89594 0
M  V30 1004 C 97.9824 -1.13044 -6.9527 0
M  V30 1005 H 94.0814 0.322307 -0.71249 0
M  V30 1006 H 96.6654 0.205649 -1.93611 0
M  V30 1007 H 94.8364 2.50458 -2.96859 0
M  V30 1008 H 96.5684 2.46148 -3.21237 0
M  V30 1009 H 93.3234 1.01884 -4.62511 0
M  V30 1010 H 93.7474 -0.515235 -6.75037 0
M  V30 1011 H 98.3894 0.785292 -4.15443 0
M  V30 1012 H 96.1074 -1.5831 -7.92442 0
M  V30 1013 H 99.6934 -0.529746 -5.79383 0
M  V30 1014 H 98.5734 -1.69742 -7.65609 0
M  V30 1015 N 96.0765 1.50051 0.48192 0
M  V30 1016 C 97.0065 1.71046 1.58951 0
M  V30 1017 C 97.9875 0.559288 1.60642 0
M  V30 1018 O 99.1725 0.797243 1.77081 0
M  V30 1019 C 96.3025 1.79462 2.97339 0
M  V30 1020 C 95.2565 2.94558 3.10515 0
M  V30 1021 C 94.5825 2.88105 4.50444 0
M  V30 1022 C 95.8825 4.35227 2.88747 0
M  V30 1023 H 97.5765 2.6378 1.41635 0
M  V30 1024 H 95.1225 1.26936 0.679942 0
M  V30 1025 H 97.0755 1.92734 3.74742 0
M  V30 1026 H 95.7995 0.833412 3.15788 0
M  V30 1027 H 94.4585 2.80918 2.35543 0
M  V30 1028 H 94.1065 1.89853 4.65795 0
M  V30 1029 H 93.8065 3.65366 4.60197 0
M  V30 1030 H 95.3305 3.03412 5.29881 0
M  V30 1031 H 96.7445 4.49449 3.55905 0
M  V30 1032 H 95.1415 5.13856 3.09955 0
M  V30 1033 H 96.2115 4.48347 1.84696 0
M  V30 1034 N 97.5546 -0.734337 1.39446 0
M  V30 1035 C 98.8006 -1.49613 1.36908 0
M  V30 1036 C 99.1336 -1.94169 -0.0347829 0
M  V30 1037 O 98.4086 -1.66833 -0.999847 0
M  V30 1038 C 98.6916 -2.73534 2.34203 0
M  V30 1039 C 98.5446 -2.34993 3.83534 0
M  V30 1040 C 99.8636 -3.75635 2.29317 0
M  V30 1041 H 96.9826 -0.542714 0.498629 0
M  V30 1042 H 99.6246 -0.839597 1.70443 0
M  V30 1043 H 97.7746 -3.29553 2.05736 0
M  V30 1044 H 99.4466 -1.84601 4.22753 0
M  V30 1045 H 97.6896 -1.67213 4.00278 0
M  V30 1046 H 98.3606 -3.23738 4.47099 0
M  V30 1047 H 100.837 -3.29203 2.54489 0
M  V30 1048 H 99.7126 -4.60008 2.99472 0
M  V30 1049 H 99.9736 -4.22603 1.29842 0
M  V30 1050 N 99.0327 -1.24633 -0.964593 0
M  V30 1051 C 99.9647 -0.999302 -2.06268 0
M  V30 1052 C 100.978 0.0323226 -1.62768 0
M  V30 1053 O 102.167 -0.205079 -1.77318 0
M  V30 1054 C 99.2667 -0.486816 -3.35385 0
M  V30 1055 C 98.4397 -1.5823 -4.07777 0
M  V30 1056 C 97.4987 -1.07191 -5.15166 0
M  V30 1057 O 96.5247 -1.76426 -5.41168 0
M  V30 1058 N 97.7267 0.0920373 -5.80427 0
M  V30 1059 H 100.492 -1.94477 -2.28033 0
M  V30 1060 H 98.0527 -1.15704 -1.13244 0
M  V30 1061 H 100.045 -0.130066 -4.04491 0
M  V30 1062 H 98.6147 0.364459 -3.10468 0
M  V30 1063 H 97.8347 -2.11109 -3.32906 0
M  V30 1064 H 99.1227 -2.31854 -4.52903 0
M  V30 1065 H 98.5207 0.670784 -5.61709 0
M  V30 1066 H 97.0777 0.389905 -6.50633 0
M  V30 1067 N 100.511 1.16574 -1.06058 0
M  V30 1068 C 101.759 1.86677 -0.77434 0
M  V30 1069 C 102.08 1.81959 0.701147 0
M  V30 1070 O 101.35 1.2515 1.50713 0
M  V30 1071 H 99.9298 0.691134 -0.283449 0
M  V30 1072 H 102.592 1.41378 -1.34158 0
M  V30 1073 H 101.688 2.92181 -1.09711 0
M  V30 1074 N 101.989 0.842826 1.3317 0
M  V30 1075 C 103.214 0.453129 2.02389 0
M  V30 1076 C 103.639 -0.939105 1.6298 0
M  V30 1077 O 102.997 -1.61472 0.8244 0
M  V30 1078 C 103.045 0.586094 3.55805 0
M  V30 1079 O 102.149 -0.386029 4.10589 0
M  V30 1080 H 101.49 0.183664 0.638094 0
M  V30 1081 H 104.02 1.13875 1.69981 0
M  V30 1082 H 104.03 0.469209 4.05293 0
M  V30 1083 H 102.705 1.6014 3.83833 0
M  V30 1084 H 101.282 -0.226371 3.72212 0
M  V30 1085 N 103.467 -1.45747 0.599634 0
M  V30 1086 C 104.883 -1.57424 0.26264 0
M  V30 1087 C 105.083 -1.59222 -1.23493 0
M  V30 1088 O 104.139 -1.51825 -2.01756 0
M  V30 1089 C 105.452 -2.86061 0.926795 0
M  V30 1090 C 107 -2.99722 0.901967 0
M  V30 1091 C 107.475 -4.31119 1.54598 0
M  V30 1092 N 108.966 -4.37858 1.5111 0
M  V30 1093 C 109.701 -5.3818 1.97863 0
M  V30 1094 N 109.197 -6.45083 2.52666 0
M  V30 1095 N 110.99 -5.29487 1.88679 0
M  V30 1096 H 103.141 -1.42823 1.57211 0
M  V30 1097 H 105.404 -0.68235 0.658105 0
M  V30 1098 H 105.11 -2.90605 1.98095 0
M  V30 1099 H 104.984 -3.74563 0.445238 0
M  V30 1100 H 107.371 -2.9475 -0.143617 0
M  V30 1101 H 107.452 -2.12652 1.42171 0
M  V30 1102 H 107.096 -4.36849 2.59085 0
M  V30 1103 H 107.026 -5.16992 1.00132 0
M  V30 1104 H 109.517 -3.61209 1.11068 0
M  V30 1105 H 109.83 -7.17869 2.86155 0
M  V30 1106 H 108.175 -6.45856 2.56701 0
M  V30 1107 H 111.366 -4.44877 1.4561 0
M  V30 1108 H 111.539 -6.07524 2.25429 0
M  V30 1109 N 104.945 -0.338344 -1.53925 0
M  V30 1110 C 106.192 0.259758 -2.00827 0
M  V30 1111 C 106.52 1.50973 -1.22628 0
M  V30 1112 O 105.775 1.93379 -0.300509 0
M  V30 1113 C 106.074 0.62448 -3.51902 0
M  V30 1114 C 105.74 -0.528006 -4.47798 0
M  V30 1115 C 104.402 -0.844298 -4.73735 0
M  V30 1116 C 106.754 -1.30143 -5.0469 0
M  V30 1117 C 104.082 -1.93648 -5.53821 0
M  V30 1118 C 106.434 -2.38382 -5.85967 0
M  V30 1119 C 105.098 -2.70576 -6.10201 0
M  V30 1120 H 104.368 0.0950523 -0.734878 0
M  V30 1121 H 107.015 -0.465182 -1.85764 0
M  V30 1122 H 105.32 1.43006 -3.64769 0
M  V30 1123 H 107.017 1.09905 -3.85645 0
M  V30 1124 H 103.607 -0.271421 -4.2774 0
M  V30 1125 H 107.791 -1.07033 -4.84621 0
M  V30 1126 H 103.047 -2.19021 -5.70824 0
M  V30 1127 H 107.221 -2.98746 -6.29066 0
M  V30 1128 H 104.848 -3.55333 -6.72044 0
M  V30 1129 N 106.423 1.57458 -0.0668435 0
M  V30 1130 C 107.373 2.0896 0.912119 0
M  V30 1131 C 108.357 0.998186 1.26195 0
M  V30 1132 O 109.549 1.26133 1.24175 0
M  V30 1133 C 106.678 2.6508 2.18145 0
M  V30 1134 C 105.764 3.81218 1.85832 0
M  V30 1135 N 106.155 4.90378 1.23948 0
M  V30 1136 C 104.453 3.9042 2.15612 0
M  V30 1137 C 105.154 5.71279 1.09616 0
M  V30 1138 N 104.13 5.19389 1.60423 0
M  V30 1139 H 107.932 2.90749 0.42924 0
M  V30 1140 H 105.446 1.6182 0.137184 0
M  V30 1141 H 107.443 3.0029 2.89192 0
M  V30 1142 H 106.103 1.84736 2.67025 0
M  V30 1143 H 107.114 5.09847 0.909731 0
M  V30 1144 H 103.791 3.21043 2.66903 0
M  V30 1145 H 105.181 6.69085 0.614425 0
M  V30 1146 N 107.901 -0.206675 1.56239 0
M  V30 1147 C 109.126 -0.949474 1.8439 0
M  V30 1148 C 109.551 -1.76549 0.649016 0
M  V30 1149 O 108.909 -1.76782 -0.402231 0
M  V30 1150 C 108.957 -1.83078 3.10668 0
M  V30 1151 O 108.061 -2.9281 2.90407 0
M  V30 1152 H 107.402 -0.268033 0.607499 0
M  V30 1153 H 109.932 -0.215488 2.03462 0
M  V30 1154 H 109.942 -2.2377 3.41161 0
M  V30 1155 H 108.617 -1.23112 3.97261 0
M  V30 1156 H 107.194 -2.55956 2.71184 0
M  V30 1157 N 109.379 -1.50304 -0.473955 0
M  V30 1158 C 110.604 -1.65175 -1.25427 0
M  V30 1159 C 111.029 -0.333673 -1.85117 0
M  V30 1160 O 110.387 0.702114 -1.67153 0
M  V30 1161 C 110.435 -2.74295 -2.34082 0
M  V30 1162 O 109.539 -2.35349 -3.38651 0
M  V30 1163 H 108.88 -0.551944 -0.369126 0
M  V30 1164 H 111.41 -1.96662 -0.564364 0
M  V30 1165 H 111.42 -2.97285 -2.79438 0
M  V30 1166 H 110.095 -3.69959 -1.90008 0
M  V30 1167 H 108.672 -2.22794 -2.99027 0
M  V30 1168 N 110.857 0.726932 -1.39834 0
M  V30 1169 C 112.273 1.03354 -1.21615 0
M  V30 1170 C 112.473 2.01327 -0.08338 0
M  V30 1171 O 111.529 2.46158 0.56238 0
M  V30 1172 C 112.842 1.58811 -2.55342 0
M  V30 1173 C 114.39 1.70851 -2.62257 0
M  V30 1174 C 114.865 2.29716 -3.96225 0
M  V30 1175 N 116.356 2.37116 -3.97907 0
M  V30 1176 C 117.091 2.83619 -4.98345 0
M  V30 1177 N 116.587 3.29958 -6.09179 0
M  V30 1178 N 118.38 2.82901 -4.8572 0
M  V30 1179 H 110.531 0.0773069 -2.12259 0
M  V30 1180 H 112.794 0.0969102 -0.943034 0
M  V30 1181 H 112.5 0.942855 -3.38826 0
M  V30 1182 H 112.374 2.57502 -2.75632 0
M  V30 1183 H 114.761 2.34497 -1.79152 0
M  V30 1184 H 114.842 0.707913 -2.45809 0
M  V30 1185 H 114.486 1.66696 -4.79765 0
M  V30 1186 H 114.416 3.30469 -4.09997 0
M  V30 1187 H 116.907 2.04374 -3.17868 0
M  V30 1188 H 117.22 3.63976 -6.8172 0
M  V30 1189 H 115.565 3.27946 -6.12761 0
M  V30 1190 H 118.756 2.46027 -3.98231 0
M  V30 1191 H 118.929 3.18827 -5.6414 0
M  V30 1192 N 112.336 1.25143 0.95797 0
M  V30 1193 C 113.752 1.01892 1.22842 0
M  V30 1194 C 113.952 -0.266311 1.99732 0
M  V30 1195 O 113.008 -0.979913 2.3271 0
M  V30 1196 C 114.321 2.24004 2.00606 0
M  V30 1197 C 115.869 2.28731 2.13662 0
M  V30 1198 C 116.344 3.5049 2.94823 0
M  V30 1199 N 117.835 3.50866 3.02403 0
M  V30 1200 C 118.57 4.4174 3.65586 0
M  V30 1201 N 118.066 5.42882 4.30408 0
M  V30 1202 N 119.859 4.29429 3.62694 0
M  V30 1203 H 112.01 2.07718 0.443493 0
M  V30 1204 H 114.273 0.912031 0.258657 0
M  V30 1205 H 113.979 3.17395 1.51503 0
M  V30 1206 H 113.853 2.26907 3.01319 0
M  V30 1207 H 116.24 1.35865 2.61963 0
M  V30 1208 H 116.321 2.29848 1.12265 0
M  V30 1209 H 115.965 4.43676 2.47213 0
M  V30 1210 H 115.895 3.46617 3.96439 0
M  V30 1211 H 118.386 2.777 2.56302 0
M  V30 1212 H 118.699 6.0844 4.76467 0
M  V30 1213 H 117.044 5.46758 4.29047 0
M  V30 1214 H 120.235 3.49643 3.11236 0
M  V30 1215 H 120.408 5.00448 4.1165 0
M  V30 1216 N 113.814 -1.1601 1.06675 0
M  V30 1217 C 114.724 -2.24156 0.692179 0
M  V30 1218 C 115.74 -1.71507 -0.293513 0
M  V30 1219 O 116.916 -2.009 -0.141861 0
M  V30 1220 C 113.981 -3.46587 0.0884131 0
M  V30 1221 C 113.042 -4.14257 1.12646 0
M  V30 1222 C 112.275 -5.30844 0.551416 0
M  V30 1223 O 112.498 -5.66858 -0.634656 0
M  V30 1224 O 111.432 -5.87848 1.29298 0
M  V30 1225 H 115.258 -2.58513 1.59388 0
M  V30 1226 H 112.843 -1.23599 0.83926 0
M  V30 1227 H 114.725 -4.20679 -0.246361 0
M  V30 1228 H 113.4 -3.13994 -0.786712 0
M  V30 1229 H 112.307 -3.42118 1.51348 0
M  V30 1230 H 113.64 -4.50914 1.97325 0
M  V30 1231 N 115.292 -0.849877 -1.32721 0
M  V30 1232 C 116.708 -0.539102 -1.50219 0
M  V30 1233 C 116.908 0.931271 -1.78689 0
M  V30 1234 O 115.964 1.71455 -1.85363 0
M  V30 1235 C 117.277 -1.42196 -2.64954 0
M  V30 1236 C 118.825 -1.42189 -2.78839 0
M  V30 1237 C 119.3 -2.28985 -3.96648 0
M  V30 1238 N 120.791 -2.26754 -4.03902 0
M  V30 1239 C 121.526 -2.90644 -4.94281 0
M  V30 1240 N 121.022 -3.63629 -5.897 0
M  V30 1241 N 122.815 -2.80057 -4.87365 0
M  V30 1242 H 114.966 -1.80156 -1.12506 0
M  V30 1243 H 117.229 -0.769217 -0.554085 0
M  V30 1244 H 116.935 -2.46733 -2.50631 0
M  V30 1245 H 116.809 -1.10591 -3.60624 0
M  V30 1246 H 119.196 -0.38419 -2.92588 0
M  V30 1247 H 119.277 -1.77807 -1.83898 0
M  V30 1248 H 118.921 -3.32819 -3.83658 0
M  V30 1249 H 118.851 -1.90702 -4.90857 0
M  V30 1250 H 121.342 -1.73688 -3.3562 0
M  V30 1251 H 121.655 -4.09558 -6.55349 0
M  V30 1252 H 120 -3.67737 -5.89741 0
M  V30 1253 H 123.191 -2.22593 -4.11789 0
M  V30 1254 H 123.364 -3.30132 -5.57599 0
M  V30 1255 N 116.77 1.45427 -0.607355 0
M  V30 1256 C 118 2.06314 -0.108656 0
M  V30 1257 C 118.408 1.45269 1.21217 0
M  V30 1258 O 117.751 0.561115 1.74921 0
M  V30 1259 C 117.813 3.59345 0.105618 0
M  V30 1260 C 117.477 4.42723 -1.13337 0
M  V30 1261 C 118.474 4.77715 -2.05145 0
M  V30 1262 C 116.159 4.83478 -1.36213 0
M  V30 1263 C 118.153 5.52317 -3.18158 0
M  V30 1264 C 115.84 5.57835 -2.49527 0
M  V30 1265 C 116.838 5.92171 -3.40327 0
M  V30 1266 O 116.526 6.65019 -4.51669 0
M  V30 1267 H 116.258 0.672782 -0.0658842 0
M  V30 1268 H 118.812 1.87664 -0.834945 0
M  V30 1269 H 117.042 3.76394 0.886796 0
M  V30 1270 H 118.731 4.02076 0.555886 0
M  V30 1271 H 119.497 4.46787 -1.88697 0
M  V30 1272 H 115.376 4.56188 -0.664362 0
M  V30 1273 H 118.92 5.79036 -3.89054 0
M  V30 1274 H 114.817 5.88177 -2.65928 0
M  V30 1275 H 115.585 6.83469 -4.50348 0
M  V30 1276 N 118.248 0.346503 1.53744 0
M  V30 1277 C 119.496 -0.248612 2.00565 0
M  V30 1278 C 119.817 -1.5083 1.23593 0
M  V30 1279 O 119.087 -1.92858 0.343912 0
M  V30 1280 H 117.667 -0.0948564 0.740953 0
M  V30 1281 H 120.329 0.468341 1.89189 0
M  V30 1282 H 119.425 -0.488994 3.08245 0
M  V30 1283 N 119.726 -1.57421 0.075193 0
M  V30 1284 C 120.954 -1.97946 -0.602076 0
M  V30 1285 C 121.369 -0.953674 -1.62943 0
M  V30 1286 O 120.726 0.0592551 -1.82404 0
M  V30 1287 C 120.777 -3.38546 -1.26762 0
M  V30 1288 O 120.498 -4.37195 -0.281376 0
M  V30 1289 C 121.999 -3.93966 -2.03239 0
M  V30 1290 H 119.219 -0.650918 -0.162931 0
M  V30 1291 H 121.763 -2.03959 0.148601 0
M  V30 1292 H 119.918 -3.33609 -1.96936 0
M  V30 1293 H 120.332 -5.18975 -0.759267 0
M  V30 1294 H 121.806 -4.94555 -2.45193 0
M  V30 1295 H 122.283 -3.30693 -2.8903 0
M  V30 1296 H 122.889 -4.02315 -1.37924 0
M  V30 1297 N 121.204 0.198386 -1.56346 0
M  V30 1298 C 122.45 0.920648 -1.80698 0
M  V30 1299 C 122.783 1.83045 -0.648697 0
M  V30 1300 O 122.058 1.91308 0.350925 0
M  V30 1301 C 122.341 1.73971 -3.15287 0
M  V30 1302 C 122.194 0.85485 -4.41602 0
M  V30 1303 C 123.513 2.71296 -3.46535 0
M  V30 1304 H 120.632 0.333261 -0.657348 0
M  V30 1305 H 123.274 0.188198 -1.89066 0
M  V30 1306 H 121.424 2.36416 -3.08285 0
M  V30 1307 H 123.096 0.245362 -4.60647 0
M  V30 1308 H 121.339 0.161398 -4.335 0
M  V30 1309 H 122.01 1.46286 -5.32264 0
M  V30 1310 H 124.486 2.18983 -3.53816 0
M  V30 1311 H 123.362 3.2569 -4.41834 0
M  V30 1312 H 123.623 3.5018 -2.69864 0
M  V30 1313 N 122.682 1.50554 0.465978 0
M  V30 1314 C 123.929 1.61798 1.21768 0
M  V30 1315 C 124.257 0.320696 1.91838 0
M  V30 1316 O 123.512 -0.693724 1.82992 0
M  V30 1317 C 123.811 2.75152 2.28093 0
M  V30 1318 C 123.477 4.15454 1.75239 0
M  V30 1319 C 122.139 4.53628 1.60546 0
M  V30 1320 C 124.491 5.03121 1.36083 0
M  V30 1321 C 121.819 5.77204 1.05128 0
M  V30 1322 C 124.171 6.27249 0.821056 0
M  V30 1323 C 122.835 6.64221 0.660795 0
M  V30 1324 H 122.105 0.592063 0.445582 0
M  V30 1325 H 124.752 1.84503 0.512927 0
M  V30 1326 H 123.057 2.46556 3.04496 0
M  V30 1327 H 124.754 2.81055 2.86023 0
M  V30 1328 H 121.344 3.85341 1.87644 0
M  V30 1329 H 125.528 4.74257 1.46267 0
M  V30 1330 H 120.784 6.0452 0.91462 0
M  V30 1331 H 124.958 6.94537 0.509018 0
M  V30 1332 H 122.585 7.59854 0.229226 0
M  V30 1333 N 124.16 -0.719506 1.40217 0
M  V30 1334 C 125.107 -1.83359 1.40172 0
M  V30 1335 C 126.077 -1.64065 0.259206 0
M  V30 1336 O 127.262 -1.85254 0.456677 0
M  V30 1337 C 124.402 -3.2103 1.26624 0
M  V30 1338 C 123.515 -3.51923 2.50548 0
M  V30 1339 C 122.65 -4.79079 2.29471 0
M  V30 1340 C 121.689 -5.02863 3.48992 0
M  V30 1341 N 120.826 -6.2123 3.27135 0
M  V30 1342 H 125.666 -1.82733 2.35399 0
M  V30 1343 H 123.203 -0.892688 1.16917 0
M  V30 1344 H 125.161 -4.00524 1.16776 0
M  V30 1345 H 123.791 -3.20895 0.350176 0
M  V30 1346 H 122.843 -2.67014 2.70939 0
M  V30 1347 H 124.155 -3.6541 3.39525 0
M  V30 1348 H 123.309 -5.66582 2.16955 0
M  V30 1349 H 122.048 -4.67794 1.37913 0
M  V30 1350 H 121.053 -4.13816 3.6199 0
M  V30 1351 H 122.278 -5.16023 4.41472 0
M  V30 1352 H 120.224 -6.11204 2.38256 0
M  V30 1353 H 120.141 -6.35375 4.09675 0
M  V30 1354 H 121.409 -7.11532 3.18344 0
M  V30 1355 N 125.638 -1.25649 -0.95132 0
M  V30 1356 C 126.866 -1.13343 -1.73092 0
M  V30 1357 C 127.281 0.312434 -1.86197 0
M  V30 1358 O 126.638 1.21465 -1.36207 0
M  V30 1359 C 126.689 -1.78602 -3.14299 0
M  V30 1360 O 126.41 -3.17537 -3.01831 0
M  V30 1361 C 127.911 -1.72119 -4.08522 0
M  V30 1362 H 125.131 -0.395181 -0.542285 0
M  V30 1363 H 127.675 -1.66076 -1.19328 0
M  V30 1364 H 125.83 -1.29832 -3.64996 0
M  V30 1365 H 126.244 -3.49676 -3.90931 0
M  V30 1366 H 127.718 -2.22435 -5.052 0
M  V30 1367 H 128.195 -0.685635 -4.33815 0
M  V30 1368 H 128.801 -2.20393 -3.63741 0
M  V30 1369 N 127.117 1.15442 -1.07289 0
M  V30 1370 C 128.067 2.18164 -0.662467 0
M  V30 1371 C 129.051 1.57845 0.312074 0
M  V30 1372 O 130.243 1.76552 0.125905 0
M  V30 1373 C 127.372 3.43246 -0.0611295 0
M  V30 1374 C 126.458 4.1062 -1.06077 0
M  V30 1375 N 126.849 4.53491 -2.24008 0
M  V30 1376 C 125.147 4.36949 -0.893964 0
M  V30 1377 C 125.848 5.05731 -2.87422 0
M  V30 1378 N 124.824 4.99236 -2.15091 0
M  V30 1379 H 128.626 2.49038 -1.56068 0
M  V30 1380 H 126.14 1.32003 -0.945988 0
M  V30 1381 H 128.137 4.16145 0.250792 0
M  V30 1382 H 126.797 3.13854 0.832207 0
M  V30 1383 H 127.808 4.46898 -2.6173 0
M  V30 1384 H 124.485 4.17466 -0.0534693 0
M  V30 1385 H 125.875 5.48865 -3.87553 0
M  V30 1386 N 128.595 0.856903 1.32268 0
M  V30 1387 C 129.525 0.31858 2.31316 0
M  V30 1388 C 130.506 -0.583487 1.59779 0
M  V30 1389 O 131.691 -0.503259 1.87566 0
M  V30 1390 C 128.821 -0.491979 3.43798 0
M  V30 1391 C 127.775 0.315849 4.26833 0
M  V30 1392 C 127.101 -0.619586 5.31098 0
M  V30 1393 C 128.401 1.54282 4.98993 0
M  V30 1394 H 130.095 1.14621 2.76591 0
M  V30 1395 H 127.641 0.552613 1.32974 0
M  V30 1396 H 129.594 -0.879012 4.1213 0
M  V30 1397 H 128.318 -1.35299 2.97257 0
M  V30 1398 H 126.977 0.684664 3.6015 0
M  V30 1399 H 126.625 -1.47751 4.8081 0
M  V30 1400 H 126.325 -0.0830621 5.87541 0
M  V30 1401 H 127.849 -1.00375 6.02293 0
M  V30 1402 H 129.263 1.22796 5.59995 0
M  V30 1403 H 127.66 2.01745 5.65172 0
M  V30 1404 H 128.73 2.30285 4.26728 0
M  V30 1405 N 130.073 -1.45103 0.615059 0
M  V30 1406 C 131.003 -2.33339 -0.0865619 0
M  V30 1407 C 131.984 -1.4727 -0.851209 0
M  V30 1408 O 133.169 -1.76026 -0.820281 0
M  V30 1409 C 130.299 -3.30095 -1.07956 0
M  V30 1410 C 129.253 -4.25858 -0.427628 0
M  V30 1411 C 128.579 -5.12361 -1.5294 0
M  V30 1412 C 129.879 -5.18165 0.655944 0
M  V30 1413 H 131.573 -2.92254 0.650224 0
M  V30 1414 H 129.119 -1.40532 0.314138 0
M  V30 1415 H 131.072 -3.90698 -1.57901 0
M  V30 1416 H 129.796 -2.69355 -1.84703 0
M  V30 1417 H 128.455 -3.66564 0.0510292 0
M  V30 1418 H 128.103 -4.47984 -2.28734 0
M  V30 1419 H 127.803 -5.77238 -1.09865 0
M  V30 1420 H 129.327 -5.75833 -2.03098 0
M  V30 1421 H 130.741 -5.72796 0.240257 0
M  V30 1422 H 129.138 -5.91559 1.00888 0
M  V30 1423 H 130.208 -4.60144 1.52957 0
M  V30 1424 N 131.551 -0.354651 -1.53558 0
M  V30 1425 C 132.799 0.237972 -2.00694 0
M  V30 1426 C 133.12 1.50173 -1.24391 0
M  V30 1427 O 132.39 1.92673 -0.354135 0
M  V30 1428 H 130.97 0.0909256 -0.741446 0
M  V30 1429 H 133.632 -0.478368 -1.88938 0
M  V30 1430 H 132.728 0.47264 -3.085 0
M  V30 1431 N 133.029 1.57378 -0.0835403 0
M  V30 1432 C 134.445 1.57246 0.273109 0
M  V30 1433 C 134.645 1.09385 1.69225 0
M  V30 1434 O 133.701 0.765051 2.40631 0
M  V30 1435 C 135.014 3.00614 0.0720628 0
M  V30 1436 C 136.562 3.12684 0.1407 0
M  V30 1437 C 137.037 4.57989 -0.0322094 0
M  V30 1438 N 138.528 4.63194 0.0230085 0
M  V30 1439 C 139.263 5.73335 -0.0861941 0
M  V30 1440 N 138.759 6.9235 -0.24958 0
M  V30 1441 N 140.552 5.62093 -0.0282886 0
M  V30 1442 H 132.703 1.86801 -1.0109 0
M  V30 1443 H 134.966 0.861687 -0.395222 0
M  V30 1444 H 134.672 3.39786 -0.907662 0
M  V30 1445 H 134.546 3.68193 0.81936 0
M  V30 1446 H 136.933 2.73391 1.11092 0
M  V30 1447 H 137.014 2.47719 -0.637896 0
M  V30 1448 H 136.658 4.97973 -0.999247 0
M  V30 1449 H 136.588 5.21 0.765937 0
M  V30 1450 H 139.079 3.77613 0.14722 0
M  V30 1451 H 139.392 7.72117 -0.324733 0
M  V30 1452 H 137.737 6.94415 -0.285097 0
M  V30 1453 H 140.928 4.67997 0.0981408 0
M  V30 1454 H 141.101 6.47895 -0.116845 0
M  V30 1455 N 134.507 -0.190092 1.56449 0
M  V30 1456 C 135.918 -0.754312 1.70784 0
M  V30 1457 C 136.269 -1.83631 0.690951 0
M  V30 1458 O 135.394 -2.15868 -0.151604 0
M  V30 1459 C 135.989 -1.37503 3.09642 0
M  V30 1460 C 134.548 -1.88628 3.25725 0
M  V30 1461 C 133.695 -0.758098 2.66736 0
M  V30 1462 H 136.646 0.0350524 1.58661 0
M  V30 1463 H 136.667 -2.2445 3.0725 0
M  V30 1464 H 136.179 -0.587302 3.83631 0
M  V30 1465 H 134.28 -2.70103 2.56661 0
M  V30 1466 H 134.393 -2.04462 4.3328 0
M  V30 1467 H 132.757 -1.17369 2.26046 0
M  V30 1468 H 133.54 0.0174705 3.43296 0
M  V30 1469 N 135.985 -1.50799 -0.457987 0
M  V30 1470 C 137.231 -1.62683 -1.21088 0
M  V30 1471 C 137.564 -0.332268 -1.91336 0
M  V30 1472 O 136.839 0.667043 -1.82704 0
M  V30 1473 C 137.122 -2.81615 -2.24422 0
M  V30 1474 C 136.975 -4.20989 -1.58392 0
M  V30 1475 C 138.294 -2.96085 -3.2561 0
M  V30 1476 H 135.413 -0.592087 -0.438864 0
M  V30 1477 H 138.055 -1.83225 -0.50286 0
M  V30 1478 H 136.205 -2.64231 -2.84806 0
M  V30 1479 H 137.877 -4.49994 -1.01504 0
M  V30 1480 H 136.12 -4.24641 -0.886704 0
M  V30 1481 H 136.791 -5.0016 -2.33547 0
M  V30 1482 H 139.267 -3.12042 -2.75262 0
M  V30 1483 H 138.143 -3.80902 -3.95228 0
M  V30 1484 H 138.404 -2.0726 -3.90507 0
M  V30 1485 N 137.463 0.71206 -1.40597 0
M  V30 1486 C 138.712 1.46754 -1.38369 0
M  V30 1487 C 139.025 1.95598 0.0097839 0
M  V30 1488 O 140.231 2.71059 0.154677 0
M  V30 1489 C 138.687 2.65289 -2.43207 0
M  V30 1490 C 138.295 2.23301 -3.88382 0
M  V30 1491 C 140.039 3.43008 -2.50091 0
M  V30 1492 C 137.946 3.38696 -4.84808 0
M  V30 1493 H 136.876 0.55118 -0.514506 0
M  V30 1494 H 139.527 0.774616 -1.66349 0
M  V30 1495 H 137.909 3.36769 -2.08332 0
M  V30 1496 H 139.083 1.59218 -4.32419 0
M  V30 1497 H 137.398 1.58618 -3.85006 0
M  V30 1498 H 139.995 4.28881 -3.1932 0
M  V30 1499 H 140.338 3.87065 -1.53253 0
M  V30 1500 H 140.871 2.78574 -2.83974 0
M  V30 1501 H 137.61 2.99668 -5.82992 0
M  V30 1502 H 137.13 4.01683 -4.45433 0
M  V30 1503 H 138.809 4.04712 -5.04794 0
M  V30 1504 N 138.941 1.26152 0.944643 0
M  V30 1505 C 140.357 1.03189 1.21754 0
M  V30 1506 C 140.557 -0.245112 2.00004 0
M  V30 1507 O 139.613 -0.955176 2.33736 0
M  V30 1508 C 140.926 2.26119 1.98219 0
M  V30 1509 C 142.474 2.30984 2.11224 0
M  V30 1510 C 142.949 3.53597 2.91089 0
M  V30 1511 N 144.44 3.54053 2.98664 0
M  V30 1512 C 145.175 4.45593 3.60881 0
M  V30 1513 N 144.671 5.47416 4.24626 0
M  V30 1514 N 146.464 4.33252 3.58119 0
M  V30 1515 H 138.615 2.08177 0.421437 0
M  V30 1516 H 140.878 0.914723 0.248969 0
M  V30 1517 H 140.584 3.18984 1.48128 0
M  V30 1518 H 140.458 2.3009 2.98895 0
M  V30 1519 H 142.845 1.38635 2.60508 0
M  V30 1520 H 142.926 2.31026 1.09821 0
M  V30 1521 H 142.57 4.46273 2.42493 0
M  V30 1522 H 142.5 3.50802 3.92741 0
M  V30 1523 H 144.991 2.80403 2.53343 0
M  V30 1524 H 145.304 6.13459 4.69987 0
M  V30 1525 H 143.649 5.51278 4.23223 0
M  V30 1526 H 146.84 3.52924 3.0751 0
M  V30 1527 H 147.013 5.04786 4.06319 0
M  V30 1528 N 140.419 -1.14872 1.07899 0
M  V30 1529 C 141.665 -1.86064 0.806725 0
M  V30 1530 C 141.998 -1.82434 -0.665706 0
M  V30 1531 O 141.273 -1.25138 -1.48899 0
M  V30 1532 C 141.556 -3.34929 1.32267 0
M  V30 1533 C 141.409 -3.47161 2.86006 0
M  V30 1534 C 142.728 -4.29863 0.943717 0
M  V30 1535 H 139.847 -0.675591 0.294526 0
M  V30 1536 H 142.489 -1.34925 1.33773 0
M  V30 1537 H 140.639 -3.78611 0.870974 0
M  V30 1538 H 142.311 -3.12302 3.39507 0
M  V30 1539 H 140.554 -2.88539 3.23925 0
M  V30 1540 H 141.225 -4.51777 3.17177 0
M  V30 1541 H 143.701 -3.9417 1.33302 0
M  V30 1542 H 142.577 -5.32494 1.33198 0
M  V30 1543 H 142.838 -4.41846 -0.149796 0
M  V30 1544 N 141.898 -0.863906 -1.31812 0
M  V30 1545 C 143.123 -0.48527 -2.01643 0
M  V30 1546 C 143.548 0.913058 -1.64453 0
M  V30 1547 O 142.906 1.6014 -0.849985 0
M  V30 1548 C 142.954 -0.642625 -3.54828 0
M  V30 1549 O 142.058 0.320659 -4.11151 0
M  V30 1550 H 141.399 -0.193793 -0.635091 0
M  V30 1551 H 143.929 -1.16565 -1.68148 0
M  V30 1552 H 143.939 -0.533628 -4.04495 0
M  V30 1553 H 142.614 -1.66227 -3.81237 0
M  V30 1554 H 141.191 0.167126 -3.72525 0
M  V30 1555 N 143.376 1.44774 -0.622745 0
M  V30 1556 C 144.624 2.01721 -0.123655 0
M  V30 1557 C 144.945 1.49172 1.25589 0
M  V30 1558 O 144.215 0.691974 1.83272 0
M  V30 1559 H 142.795 0.745777 -0.0427225 0
M  V30 1560 H 145.457 1.77382 -0.807559 0
M  V30 1561 H 144.553 3.11984 -0.0849534 0
M  V30 1562 N 144.854 0.36279 1.53368 0
M  V30 1563 C 145.817 -0.472679 2.24273 0
M  V30 1564 C 146.817 -1.012 1.24961 0
M  V30 1565 O 148.007 -0.898194 1.49259 0
M  V30 1566 C 145.139 -1.66039 2.97731 0
M  V30 1567 H 146.332 0.14773 2.99536 0
M  V30 1568 H 143.885 0.114434 1.55881 0
M  V30 1569 H 144.62 -2.31896 2.26704 0
M  V30 1570 H 144.405 -1.28066 3.70596 0
M  V30 1571 H 145.895 -2.25252 3.51641 0
M  V30 1572 N 146.332 -1.57332 0.0918853 0
M  V30 1573 C 147.242 -2.17368 -0.882505 0
M  V30 1574 C 148.258 -1.14226 -1.31257 0
M  V30 1575 O 149.434 -1.46582 -1.38115 0
M  V30 1576 C 146.499 -2.73962 -2.12476 0
M  V30 1577 C 145.56 -3.92048 -1.7492 0
M  V30 1578 C 144.793 -4.45933 -2.93223 0
M  V30 1579 O 145.016 -3.98764 -4.07852 0
M  V30 1580 O 143.95 -5.36999 -2.71875 0
M  V30 1581 H 147.776 -3.01031 -0.40172 0
M  V30 1582 H 145.361 -1.48813 -0.132291 0
M  V30 1583 H 147.243 -3.10147 -2.85283 0
M  V30 1584 H 145.918 -1.93347 -2.59613 0
M  V30 1585 H 144.825 -3.6068 -0.993025 0
M  V30 1586 H 146.158 -4.74017 -1.32548 0
M  V30 1587 N 147.81 0.181792 -1.56548 0
M  V30 1588 C 148.758 1.24461 -1.965 0
M  V30 1589 C 149.752 1.464 -0.852261 0
M  V30 1590 O 150.958 1.47103 -1.03733 0
M  V30 1591 H 147.333 0.418138 -0.625031 0
M  V30 1592 H 149.304 0.880714 -2.85107 0
M  V30 1593 C 148.053 2.57891 -2.33212 0
M  V30 1594 H 147.376 2.41829 -3.18369 0
M  V30 1595 H 148.816 3.3097 -2.65019 0
M  V30 1596 C 147.275 3.15871 -1.17163 0
M  V30 1597 O 147.805 3.9913 -0.453708 0
M  V30 1598 N 146.011 2.74808 -0.944936 0
M  V30 1599 H 145.558 2.07205 -1.53049 0
M  V30 1600 H 145.516 3.13939 -0.170286 0
M  V30 1601 N 149.288 1.51039 0.449983 0
M  V30 1602 C 150.534 1.63322 1.20223 0
M  V30 1603 C 150.867 0.34241 1.91158 0
M  V30 1604 O 150.142 -0.657344 1.83055 0
M  V30 1605 C 150.425 2.82801 2.22925 0
M  V30 1606 C 150.278 4.21823 1.56157 0
M  V30 1607 C 151.597 2.97807 3.24035 0
M  V30 1608 H 148.716 0.594407 0.435718 0
M  V30 1609 H 151.358 1.83489 0.493136 0
M  V30 1610 H 149.508 2.65738 2.834 0
M  V30 1611 H 151.18 4.50526 0.991162 0
M  V30 1612 H 149.423 4.25105 0.864172 0
M  V30 1613 H 150.094 5.01391 2.30891 0
M  V30 1614 H 152.57 3.13497 2.73603 0
M  V30 1615 H 151.446 3.82992 3.93202 0
M  V30 1616 H 151.707 2.09328 3.89402 0
M  V30 1617 N 150.766 -0.704594 1.40972 0
M  V30 1618 C 152.182 -1.01406 1.23244 0
M  V30 1619 C 152.382 -2.01169 0.115399 0
M  V30 1620 O 151.438 -2.47021 -0.523147 0
M  V30 1621 C 152.751 -1.54728 2.57836 0
M  V30 1622 C 154.299 -1.66658 2.64942 0
M  V30 1623 C 154.774 -2.23383 3.9983 0
M  V30 1624 N 156.265 -2.30756 4.01629 0
M  V30 1625 C 157 -2.75655 5.02794 0
M  V30 1626 N 156.496 -3.20225 6.14352 0
M  V30 1627 N 158.289 -2.75138 4.90159 0
M  V30 1628 H 150.44 -0.0435285 2.12355 0
M  V30 1629 H 152.703 -0.0818951 0.944456 0
M  V30 1630 H 152.409 -0.888832 3.40283 0
M  V30 1631 H 152.283 -2.53084 2.79693 0
M  V30 1632 H 154.67 -2.31617 1.8286 0
M  V30 1633 H 154.751 -0.668717 2.46904 0
M  V30 1634 H 154.395 -1.59043 4.82357 0
M  V30 1635 H 154.325 -3.23904 4.15203 0
M  V30 1636 H 156.816 -1.99291 3.21079 0
M  V30 1637 H 157.129 -3.53084 6.87424 0
M  V30 1638 H 155.474 -3.18156 6.17901 0
M  V30 1639 H 158.665 -2.39661 4.02095 0
M  V30 1640 H 158.838 -3.09812 5.6914 0
M  V30 1641 N 152.244 -1.26651 -0.937939 0
M  V30 1642 C 153.472 -1.15173 -1.7188 0
M  V30 1643 C 153.887 0.292668 -1.86518 0
M  V30 1644 O 153.244 1.20014 -1.37488 0
M  V30 1645 C 153.295 -1.81925 -3.12387 0
M  V30 1646 O 153.016 -3.2072 -2.98446 0
M  V30 1647 C 154.517 -1.76442 -4.06673 0
M  V30 1648 H 151.737 -0.400911 -0.538063 0
M  V30 1649 H 154.281 -1.67332 -1.1756 0
M  V30 1650 H 152.436 -1.33696 -3.63599 0
M  V30 1651 H 152.85 -3.53802 -3.872 0
M  V30 1652 H 154.324 -2.27781 -5.02812 0
M  V30 1653 H 154.801 -0.731608 -4.33064 0
M  V30 1654 H 155.407 -2.24238 -3.61382 0
M  V30 1655 N 153.722 1.14298 -1.08507 0
M  V30 1656 C 154.971 1.84708 -0.810305 0
M  V30 1657 C 155.284 1.83903 0.666271 0
M  V30 1658 O 156.49 2.50112 1.05624 0
M  V30 1659 C 154.946 3.31572 -1.39957 0
M  V30 1660 C 154.554 3.40791 -2.90801 0
M  V30 1661 C 156.298 4.07087 -1.20334 0
M  V30 1662 C 154.205 4.81872 -3.4286 0
M  V30 1663 H 153.135 0.691985 -0.299454 0
M  V30 1664 H 155.786 1.28841 -1.30661 0
M  V30 1665 H 154.168 3.87183 -0.830976 0
M  V30 1666 H 155.342 2.95225 -3.53806 0
M  V30 1667 H 153.657 2.78732 -3.0935 0
M  V30 1668 H 156.254 5.11225 -1.56693 0
M  V30 1669 H 156.597 4.16054 -0.143237 0
M  V30 1670 H 157.13 3.57779 -1.73893 0
M  V30 1671 H 153.869 4.78094 -4.48449 0
M  V30 1672 H 153.389 5.27972 -2.84615 0
M  V30 1673 H 155.068 5.50765 -3.39509 0
M  V30 1674 N 155.201 0.870884 1.31352 0
M  V30 1675 C 156.131 0.343096 2.30966 0
M  V30 1676 C 157.112 -0.566507 1.60389 0
M  V30 1677 O 158.297 -0.483336 1.88089 0
M  V30 1678 C 155.427 -0.455487 3.443 0
M  V30 1679 C 154.381 0.361103 4.26474 0
M  V30 1680 C 153.707 -0.563221 5.31725 0
M  V30 1681 C 155.007 1.59566 4.97329 0
M  V30 1682 H 156.701 1.17548 2.75359 0
M  V30 1683 H 154.247 0.566686 1.32381 0
M  V30 1684 H 156.2 -0.83525 4.13039 0
M  V30 1685 H 154.924 -1.32139 2.98675 0
M  V30 1686 H 153.583 0.722825 3.59403 0
M  V30 1687 H 153.231 -1.42643 4.82351 0
M  V30 1688 H 152.931 -0.0207409 5.87596 0
M  V30 1689 H 154.455 -0.939808 6.03324 0
M  V30 1690 H 155.869 1.28728 5.58661 0
M  V30 1691 H 154.266 2.07728 5.63 0
M  V30 1692 H 155.336 2.34798 4.24262 0
M  V30 1693 N 156.679 -1.44442 0.630414 0
M  V30 1694 C 157.609 -2.33418 -0.0618083 0
M  V30 1695 C 158.59 -1.48165 -0.835541 0
M  V30 1696 O 159.775 -1.76886 -0.801564 0
M  V30 1697 C 156.905 -3.31222 -1.04449 0
M  V30 1698 C 155.859 -4.26288 -0.382436 0
M  V30 1699 C 155.185 -5.13954 -1.47497 0
M  V30 1700 C 156.485 -5.1744 0.710865 0
M  V30 1701 H 158.179 -2.91548 0.681184 0
M  V30 1702 H 155.725 -1.40191 0.329026 0
M  V30 1703 H 157.678 -3.92351 -1.53748 0
M  V30 1704 H 156.402 -2.71299 -1.81836 0
M  V30 1705 H 155.061 -3.6649 0.0899054 0
M  V30 1706 H 154.709 -4.50385 -2.2397 0
M  V30 1707 H 154.409 -5.7837 -1.03737 0
M  V30 1708 H 155.933 -5.77955 -1.96979 0
M  V30 1709 H 157.347 -5.72509 0.300996 0
M  V30 1710 H 155.744 -5.90455 1.07156 0
M  V30 1711 H 156.814 -4.58496 1.57829 0
M  V30 1712 N 158.157 -0.370918 -1.53173 0
M  V30 1713 C 159.405 0.216673 -2.00935 0
M  V30 1714 C 159.726 1.48845 -1.25977 0
M  V30 1715 O 158.996 1.92286 -0.374551 0
M  V30 1716 H 157.576 0.0830565 -0.742368 0
M  V30 1717 H 160.238 -0.49838 -1.8842 0
M  V30 1718 H 159.334 0.439893 -3.08984 0
M  V30 1719 N 159.635 1.57281 -0.100228 0
M  V30 1720 C 160.545 2.17833 0.870965 0
M  V30 1721 C 161.561 1.14921 1.30649 0
M  V30 1722 O 162.737 1.47313 1.37335 0
M  V30 1723 C 159.802 2.75085 2.1102 0
M  V30 1724 C 158.863 3.9297 1.72838 0
M  V30 1725 C 158.096 4.47482 2.90854 0
M  V30 1726 O 158.319 4.00922 4.05731 0
M  V30 1727 O 157.253 5.38433 2.69023 0
M  V30 1728 H 161.079 3.0124 0.38575 0
M  V30 1729 H 158.664 1.48881 0.124397 0
M  V30 1730 H 160.546 3.11656 2.83634 0
M  V30 1731 H 159.221 1.94721 2.58584 0
M  V30 1732 H 158.128 3.61201 0.973883 0
M  V30 1733 H 159.461 4.74713 1.30033 0
M  V30 1734 N 161.113 -0.173488 1.56642 0
M  V30 1735 C 162.063 -1.21941 1.92651 0
M  V30 1736 C 163.047 -1.39912 0.794577 0
M  V30 1737 O 164.239 -1.41919 1.05773 0
M  V30 1738 C 161.368 -2.55935 2.28806 0
M  V30 1739 C 160.454 -2.41667 3.48508 0
M  V30 1740 N 160.845 -1.9711 4.65813 0
M  V30 1741 C 159.143 -2.72499 3.53072 0
M  V30 1742 C 159.844 -1.95253 5.47952 0
M  V30 1743 N 158.82 -2.37575 4.88937 0
M  V30 1744 H 162.622 -0.866581 2.80834 0
M  V30 1745 H 160.136 -0.381776 1.57849 0
M  V30 1746 H 162.133 -3.31511 2.52797 0
M  V30 1747 H 160.793 -2.92022 1.41961 0
M  V30 1748 H 161.804 -1.67481 4.90072 0
M  V30 1749 H 158.481 -3.12639 2.767 0
M  V30 1750 H 159.871 -1.6252 6.51948 0
M  V30 1751 N 162.591 -1.51276 -0.441967 0
M  V30 1752 C 164.007 -1.39349 -0.778083 0
M  V30 1753 C 164.207 -0.472212 -1.95889 0
M  V30 1754 O 163.263 0.0743551 -2.5239 0
M  V30 1755 C 164.576 -2.81292 -1.0628 0
M  V30 1756 C 166.124 -2.9041 -1.16751 0
M  V30 1757 C 166.599 -4.33251 -1.48519 0
M  V30 1758 N 168.09 -4.36336 -1.55453 0
M  V30 1759 C 168.825 -5.43885 -1.81596 0
M  V30 1760 N 168.321 -6.61601 -2.05562 0
M  V30 1761 N 170.114 -5.3136 -1.8334 0
M  V30 1762 H 162.265 -2.09729 0.335774 0
M  V30 1763 H 164.528 -0.943925 0.0878028 0
M  V30 1764 H 164.234 -3.50678 -0.267905 0
M  V30 1765 H 164.108 -3.20334 -1.99163 0
M  V30 1766 H 166.495 -2.21225 -1.95304 0
M  V30 1767 H 166.576 -2.54871 -0.217801 0
M  V30 1768 H 166.22 -5.02984 -0.704958 0
M  V30 1769 H 166.15 -4.66299 -2.44689 0
M  V30 1770 H 168.641 -3.51466 -1.38853 0
M  V30 1771 H 168.954 -7.39361 -2.24867 0
M  V30 1772 H 167.299 -6.64725 -2.02894 0
M  V30 1773 H 170.49 -4.38382 -1.64132 0
M  V30 1774 H 170.663 -6.15258 -2.03377 0
M  V30 1775 N 164.069 0.697108 -1.41344 0
M  V30 1776 C 164.999 1.82353 -1.45841 0
M  V30 1777 C 165.98 1.67115 -0.317247 0
M  V30 1778 O 167.165 1.86871 -0.528474 0
M  V30 1779 C 164.295 3.20476 -1.33838 0
M  V30 1780 C 163.249 3.50415 -2.4575 0
M  V30 1781 C 162.575 4.87878 -2.18813 0
M  V30 1782 C 163.875 3.49546 -3.88091 0
M  V30 1783 H 165.569 1.78846 -2.40113 0
M  V30 1784 H 163.115 0.859028 -1.15571 0
M  V30 1785 H 165.068 3.98988 -1.35596 0
M  V30 1786 H 163.792 3.24604 -0.360498 0
M  V30 1787 H 162.451 2.74253 -2.43271 0
M  V30 1788 H 162.099 4.8863 -1.19371 0
M  V30 1789 H 161.799 5.08875 -2.93803 0
M  V30 1790 H 163.323 5.68702 -2.22284 0
M  V30 1791 H 164.737 4.18066 -3.92293 0
M  V30 1792 H 163.134 3.82075 -4.62751 0
M  V30 1793 H 164.204 2.48552 -4.16353 0
M  V30 1794 N 165.547 1.27147 0.931209 0
M  V30 1795 C 166.793 1.13446 1.68101 0
M  V30 1796 C 167.126 -0.319628 1.91552 0
M  V30 1797 O 166.401 -1.23407 1.50336 0
M  V30 1798 C 166.684 1.91482 3.0497 0
M  V30 1799 C 166.537 3.44855 2.88782 0
M  V30 1800 C 167.856 1.71651 4.05246 0
M  V30 1801 H 164.975 0.413498 0.610072 0
M  V30 1802 H 167.617 1.56261 1.08086 0
M  V30 1803 H 165.767 1.55095 3.56199 0
M  V30 1804 H 167.439 3.9105 2.44698 0
M  V30 1805 H 165.682 3.71373 2.24198 0
M  V30 1806 H 166.353 3.94694 3.85902 0
M  V30 1807 H 168.829 2.0337 3.63015 0
M  V30 1808 H 167.705 2.28651 4.99009 0
M  V30 1809 H 167.966 0.663555 4.37092 0
M  V30 1810 N 167.025 -1.13721 1.09112 0
M  V30 1811 C 168.441 -1.36914 0.820174 0
M  V30 1812 C 168.641 -1.93356 -0.567079 0
M  V30 1813 O 167.697 -2.15093 -1.32255 0
M  V30 1814 C 169.01 -2.3235 1.90877 0
M  V30 1815 C 170.558 -2.45973 1.93562 0
M  V30 1816 C 171.033 -3.44714 3.01556 0
M  V30 1817 N 172.524 -3.52263 3.00775 0
M  V30 1818 C 173.259 -4.28536 3.80978 0
M  V30 1819 N 172.755 -5.07991 4.71081 0
M  V30 1820 N 174.548 -4.23804 3.69251 0
M  V30 1821 H 166.699 -0.754348 1.98553 0
M  V30 1822 H 168.962 -0.3944 0.862063 0
M  V30 1823 H 168.668 -1.98027 2.90651 0
M  V30 1824 H 168.542 -3.32332 1.78424 0
M  V30 1825 H 170.929 -2.79584 0.944286 0
M  V30 1826 H 171.01 -1.45926 2.10093 0
M  V30 1827 H 170.654 -3.11835 4.00901 0
M  V30 1828 H 170.584 -4.44558 2.82269 0
M  V30 1829 H 173.075 -2.95567 2.35475 0
M  V30 1830 H 173.388 -5.63487 5.28869 0
M  V30 1831 H 171.733 -5.07235 4.75119 0
M  V30 1832 H 174.924 -3.60806 2.98222 0
M  V30 1833 H 175.097 -4.82995 4.31995 0
M  V30 1834 N 168.503 -0.877838 -1.30888 0
M  V30 1835 C 169.728 -0.506629 -2.01117 0
M  V30 1836 C 170.153 0.895564 -1.65412 0
M  V30 1837 O 169.511 1.5923 -0.866922 0
M  V30 1838 C 169.559 -0.680223 -3.54126 0
M  V30 1839 O 168.663 0.277033 -4.11468 0
M  V30 1840 H 168.004 -0.200518 -0.633 0
M  V30 1841 H 170.534 -1.18342 -1.66902 0
M  V30 1842 H 170.544 -0.5765 -4.03907 0
M  V30 1843 H 169.219 -1.70261 -3.79452 0
M  V30 1844 H 167.796 0.127606 -3.72682 0
M  V30 1845 N 169.982 1.44106 -0.638065 0
M  V30 1846 C 170.914 2.28976 0.101205 0
M  V30 1847 C 171.927 1.4167 0.802088 0
M  V30 1848 O 173.116 1.65755 0.662375 0
M  V30 1849 C 170.216 3.18217 1.16581 0
M  V30 1850 C 169.389 4.33978 0.546066 0
M  V30 1851 C 168.448 5.04202 1.50554 0
M  V30 1852 O 167.474 5.59986 1.01999 0
M  V30 1853 N 168.676 5.06296 2.8398 0
M  V30 1854 H 171.441 2.93064 -0.627186 0
M  V30 1855 H 169.002 1.54629 -0.479731 0
M  V30 1856 H 170.994 3.62061 1.80815 0
M  V30 1857 H 169.564 2.55833 1.79634 0
M  V30 1858 H 168.784 3.93239 -0.275046 0
M  V30 1859 H 170.072 5.08675 0.112793 0
M  V30 1860 H 169.47 4.62319 3.26002 0
M  V30 1861 H 168.027 5.53907 3.43556 0
M  V30 1862 N 171.46 0.379036 1.52974 0
M  V30 1863 C 172.706 -0.199244 2.02422 0
M  V30 1864 C 173.061 -1.4532 1.26095 0
M  V30 1865 O 172.354 -1.88377 0.34996 0
M  V30 1866 C 172.548 -0.53096 3.53434 0
M  V30 1867 C 172.377 0.689298 4.44386 0
M  V30 1868 C 171.147 1.20546 4.9071 0
M  V30 1869 C 173.345 1.55856 4.90116 0
M  V30 1870 N 171.327 2.38434 5.65705 0
M  V30 1871 C 172.698 2.58396 5.63588 0
M  V30 1872 C 174.753 1.57986 4.7217 0
M  V30 1873 C 173.456 3.62939 6.21022 0
M  V30 1874 C 175.482 2.6143 5.30479 0
M  V30 1875 C 174.844 3.62693 6.03849 0
M  V30 1876 H 170.943 -0.0352671 0.781204 0
M  V30 1877 H 173.527 0.526614 1.87443 0
M  V30 1878 H 171.698 -1.22588 3.68547 0
M  V30 1879 H 173.43 -1.0955 3.89591 0
M  V30 1880 H 170.185 0.768022 4.67331 0
M  V30 1881 H 170.609 2.98055 6.07859 0
M  V30 1882 H 175.251 0.810475 4.14959 0
M  V30 1883 H 172.969 4.40751 6.77321 0
M  V30 1884 H 176.555 2.63949 5.18481 0
M  V30 1885 H 175.435 4.41424 6.48163 0
M  V30 1886 N 172.938 -1.57226 0.108567 0
M  V30 1887 C 174.349 -1.8195 -0.418464 0
M  V30 1888 C 174.7 -1.02508 -1.67292 0
M  V30 1889 O 173.825 -0.258496 -2.14851 0
M  V30 1890 C 174.42 -3.30028 -0.765979 0
M  V30 1891 C 172.979 -3.55469 -1.23769 0
M  V30 1892 C 172.126 -2.7625 -0.241106 0
M  V30 1893 H 175.077 -1.55149 0.33384 0
M  V30 1894 H 175.098 -3.44086 -1.62434 0
M  V30 1895 H 174.61 -3.87821 0.147219 0
M  V30 1896 H 172.711 -3.03022 -2.16814 0
M  V30 1897 H 172.824 -4.6408 -1.19022 0
M  V30 1898 H 171.188 -2.44133 -0.72602 0
M  V30 1899 H 171.971 -3.36797 0.665007 0
M  V30 1900 N 174.416 0.165178 -1.56732 0
M  V30 1901 C 175.348 1.22911 -1.93457 0
M  V30 1902 C 176.361 1.40152 -0.828333 0
M  V30 1903 O 177.55 1.40046 -1.10677 0
M  V30 1904 C 174.65 2.59686 -2.17753 0
M  V30 1905 C 173.823 2.63663 -3.48999 0
M  V30 1906 C 172.882 3.81845 -3.62051 0
M  V30 1907 O 171.908 3.67559 -4.34613 0
M  V30 1908 N 173.11 4.98557 -2.97357 0
M  V30 1909 H 175.875 0.917118 -2.85323 0
M  V30 1910 H 173.436 0.354895 -1.57962 0
M  V30 1911 H 175.428 3.37225 -2.23743 0
M  V30 1912 H 173.998 2.83251 -1.32242 0
M  V30 1913 H 173.218 1.72173 -3.54612 0
M  V30 1914 H 174.506 2.63336 -4.35352 0
M  V30 1915 H 173.904 5.13065 -2.38287 0
M  V30 1916 H 172.461 5.73936 -3.08934 0
M  V30 1917 N 175.894 1.51508 0.433938 0
M  V30 1918 C 177.119 1.68443 1.21003 0
M  V30 1919 C 177.544 0.382636 1.84167 0
M  V30 1920 O 176.902 -0.65755 1.68956 0
M  V30 1921 C 176.95 2.80405 2.26727 0
M  V30 1922 O 176.054 2.44245 3.32292 0
M  V30 1923 H 175.395 0.561536 0.354363 0
M  V30 1924 H 177.925 1.9809 0.512024 0
M  V30 1925 H 177.935 3.0459 2.71457 0
M  V30 1926 H 176.61 3.74867 1.80132 0
M  V30 1927 H 175.187 2.30644 2.93015 0
M  V30 1928 N 177.372 -0.689602 1.41712 0
M  V30 1929 C 178.335 -1.78521 1.43746 0
M  V30 1930 C 179.335 -1.57436 0.327191 0
M  V30 1931 O 180.525 -1.64 0.587348 0
M  V30 1932 C 177.657 -3.16971 1.25467 0
M  V30 1933 H 178.85 -1.78108 2.41283 0
M  V30 1934 H 176.403 -0.89781 1.27942 0
M  V30 1935 H 177.138 -3.23019 0.287948 0
M  V30 1936 H 176.923 -3.33678 2.05917 0
M  V30 1937 H 178.413 -3.96935 1.2974 0
M  V30 1938 N 178.85 -1.27639 -0.924453 0
M  V30 1939 C 179.8 -1.07295 -2.01176 0
M  V30 1940 C 180.784 5.77352e-05 -1.609 0
M  V30 1941 O 181.976 -0.218855 -1.75642 0
M  V30 1942 C 179.105 -0.725592 -3.35544 0
M  V30 1943 C 178.191 -1.83691 -3.82254 0
M  V30 1944 N 178.582 -3.07697 -4.01443 0
M  V30 1945 C 176.88 -1.72433 -4.11319 0
M  V30 1946 C 177.581 -3.80037 -4.40394 0
M  V30 1947 N 176.557 -3.0782 -4.48049 0
M  V30 1948 H 180.359 -2.01399 -2.14046 0
M  V30 1949 H 177.873 -1.18401 -1.11153 0
M  V30 1950 H 179.87 -0.560959 -4.13109 0
M  V30 1951 H 178.53 0.207782 -3.24034 0
M  V30 1952 H 179.541 -3.43424 -3.8766 0
M  V30 1953 H 176.218 -0.862005 -4.08504 0
M  V30 1954 H 177.608 -4.86632 -4.63291 0
M  V30 1955 N 180.328 1.1314 -1.09713 0
M  V30 1956 C 181.577 1.83838 -0.829851 0
M  V30 1957 C 181.89 1.84599 0.646728 0
M  V30 1958 O 183.096 2.51218 1.02965 0
M  V30 1959 C 181.552 3.30069 -1.43466 0
M  V30 1960 C 181.16 3.37688 -2.94399 0
M  V30 1961 C 182.904 4.05788 -1.24645 0
M  V30 1962 C 180.811 4.78209 -3.47952 0
M  V30 1963 H 179.741 0.68877 -0.306777 0
M  V30 1964 H 182.392 1.27448 -1.3202 0
M  V30 1965 H 180.774 3.8628 -0.871996 0
M  V30 1966 H 181.948 2.91456 -3.56918 0
M  V30 1967 H 180.263 2.75436 -3.12289 0
M  V30 1968 H 182.86 5.09535 -1.62107 0
M  V30 1969 H 183.203 4.15878 -0.187357 0
M  V30 1970 H 183.736 3.55915 -1.77678 0
M  V30 1971 H 180.475 4.73311 -4.53495 0
M  V30 1972 H 179.995 5.24924 -2.90198 0
M  V30 1973 H 181.674 5.47133 -3.45332 0
M  V30 1974 N 181.806 0.884767 1.30421 0
M  V30 1975 C 182.736 0.367574 2.30589 0
M  V30 1976 C 183.717 -0.549464 1.60981 0
M  V30 1977 O 184.902 -0.46336 1.88591 0
M  V30 1978 C 182.032 -0.418944 3.44764 0
M  V30 1979 C 180.986 0.406316 4.26067 0
M  V30 1980 C 180.312 -0.506793 5.32293 0
M  V30 1981 C 181.612 1.64832 4.95608 0
M  V30 1982 H 183.306 1.20462 2.74097 0
M  V30 1983 H 180.852 0.580695 1.31772 0
M  V30 1984 H 182.805 -0.791395 4.13902 0
M  V30 1985 H 181.529 -1.28964 3.0006 0
M  V30 1986 H 180.188 0.760903 3.58617 0
M  V30 1987 H 179.836 -1.37519 4.83836 0
M  V30 1988 H 179.536 0.0415828 5.87585 0
M  V30 1989 H 181.06 -0.875764 6.04287 0
M  V30 1990 H 182.474 1.34646 5.57264 0
M  V30 1991 H 180.871 2.13688 5.60765 0
M  V30 1992 H 181.941 2.39284 4.21748 0
M  V30 1993 N 183.284 -1.43765 0.645699 0
M  V30 1994 C 184.214 -2.33471 -0.0370477 0
M  V30 1995 C 185.195 -1.49042 -0.819779 0
M  V30 1996 O 186.38 -1.77726 -0.782758 0
M  V30 1997 C 183.51 -3.32311 -1.0093 0
M  V30 1998 C 182.464 -4.2667 -0.337201 0
M  V30 1999 C 181.79 -5.1549 -1.42037 0
M  V30 2000 C 183.09 -5.16657 0.765706 0
M  V30 2001 H 184.784 -2.90809 0.712069 0
M  V30 2002 H 182.33 -1.39834 0.343876 0
M  V30 2003 H 184.283 -3.9396 -1.49578 0
M  V30 2004 H 183.007 -2.73213 -1.78948 0
M  V30 2005 H 181.666 -3.66374 0.128771 0
M  V30 2006 H 181.314 -4.52735 -2.1918 0
M  V30 2007 H 181.014 -5.79438 -0.975966 0
M  V30 2008 H 182.538 -5.80012 -1.90838 0
M  V30 2009 H 183.952 -5.72158 0.361702 0
M  V30 2010 H 182.349 -5.89286 1.13413 0
M  V30 2011 H 183.419 -4.56796 1.62683 0
M  V30 2012 N 184.763 -0.387143 -1.52771 0
M  V30 2013 C 186.011 0.195349 -2.01154 0
M  V30 2014 C 186.332 1.475 -1.27549 0
M  V30 2015 O 185.602 1.91878 -0.394924 0
M  V30 2016 H 184.182 0.075178 -0.743207 0
M  V30 2017 H 186.844 -0.518337 -1.87881 0
M  V30 2018 H 185.94 0.407096 -3.09434 0
M  V30 2019 N 186.241 1.57166 -0.116904 0
M  V30 2020 C 187.466 1.999 0.55271 0
M  V30 2021 C 187.891 0.996039 1.59564 0
M  V30 2022 O 187.249 -0.032556 1.81271 0
M  V30 2023 C 187.297 3.4152 1.15742 0
M  V30 2024 O 186.401 3.44106 2.27299 0
M  V30 2025 H 185.742 0.649447 0.138258 0
M  V30 2026 H 188.272 2.03573 -0.204759 0
M  V30 2027 H 188.282 3.79684 1.49346 0
M  V30 2028 H 186.957 4.14034 0.393493 0
M  V30 2029 H 185.534 3.17759 1.9515 0
M  V30 2030 N 187.719 -0.156864 1.56817 0
M  V30 2031 C 188.669 -1.19891 1.93934 0
M  V30 2032 C 189.653 -1.39061 0.809372 0
M  V30 2033 O 190.845 -1.40789 1.07273 0
M  V30 2034 C 187.974 -2.53493 2.31508 0
M  V30 2035 C 187.06 -2.37957 3.51052 0
M  V30 2036 N 187.451 -1.92158 4.67877 0
M  V30 2037 C 185.749 -2.68739 3.55943 0
M  V30 2038 C 186.45 -1.8943 5.49992 0
M  V30 2039 N 185.426 -2.32375 4.91429 0
M  V30 2040 H 189.228 -0.836746 2.81737 0
M  V30 2041 H 186.742 -0.365012 1.58245 0
M  V30 2042 H 188.739 -3.28811 2.56299 0
M  V30 2043 H 187.399 -2.905 1.45051 0
M  V30 2044 H 188.41 -1.62274 4.91821 0
M  V30 2045 H 185.087 -3.09687 2.80001 0
M  V30 2046 H 186.477 -1.55596 6.53636 0
M  V30 2047 N 189.197 -1.51736 -0.425897 0
M  V30 2048 C 190.425 -1.68794 -1.1965 0
M  V30 2049 C 190.84 -0.390164 -1.84725 0
M  V30 2050 O 190.197 0.632376 -1.71194 0
M  V30 2051 C 190.248 -2.81174 -2.27208 0
M  V30 2052 O 189.969 -4.05925 -1.64793 0
M  V30 2053 C 191.47 -3.09599 -3.17275 0
M  V30 2054 H 188.69 -0.566128 -0.360194 0
M  V30 2055 H 191.234 -1.98211 -0.503249 0
M  V30 2056 H 189.389 -2.54324 -2.9223 0
M  V30 2057 H 189.803 -4.68423 -2.35967 0
M  V30 2058 H 191.277 -3.91786 -3.88854 0
M  V30 2059 H 191.754 -2.22468 -3.78688 0
M  V30 2060 H 192.36 -3.38151 -2.57941 0
M  V30 2061 N 190.675 0.682077 -1.42076 0
M  V30 2062 C 191.605 1.80796 -1.47767 0
M  V30 2063 C 192.586 1.6677 -0.334954 0
M  V30 2064 O 193.771 1.863 -0.548264 0
M  V30 2065 C 190.901 3.19038 -1.37229 0
M  V30 2066 C 189.855 3.47789 -2.49453 0
M  V30 2067 C 189.181 4.8553 -2.23975 0
M  V30 2068 C 190.481 3.45411 -3.91776 0
M  V30 2069 H 192.175 1.7629 -2.41997 0
M  V30 2070 H 189.721 0.846721 -1.16476 0
M  V30 2071 H 191.674 3.97528 -1.39821 0
M  V30 2072 H 190.398 3.24204 -0.394907 0
M  V30 2073 H 189.057 2.71657 -2.46166 0
M  V30 2074 H 188.705 4.87337 -1.24547 0
M  V30 2075 H 188.405 5.0573 -2.99184 0
M  V30 2076 H 189.929 5.66312 -2.28304 0
M  V30 2077 H 191.343 4.13882 -3.96705 0
M  V30 2078 H 189.74 3.77145 -4.66778 0
M  V30 2079 H 190.81 2.44122 -4.18966 0
M  V30 2080 N 192.153 1.28127 0.917671 0
M  V30 2081 C 193.083 1.14248 2.03641 0
M  V30 2082 C 194.064 0.0412748 1.7005 0
M  V30 2083 O 195.249 0.217566 1.92977 0
M  V30 2084 C 192.379 0.799431 3.37974 0
M  V30 2085 C 191.333 1.85497 3.85713 0
M  V30 2086 C 190.659 1.36565 5.16966 0
M  V30 2087 C 191.959 3.26085 4.08002 0
M  V30 2088 H 193.653 2.07835 2.15511 0
M  V30 2089 H 191.199 1.00064 1.03553 0
M  V30 2090 H 193.152 0.689114 4.15727 0
M  V30 2091 H 191.876 -0.172145 3.26146 0
M  V30 2092 H 190.535 1.95437 3.10161 0
M  V30 2093 H 190.183 0.383253 5.01538 0
M  V30 2094 H 189.883 2.07143 5.49878 0
M  V30 2095 H 191.407 1.26848 5.97279 0
M  V30 2096 H 192.821 3.19089 4.76293 0
M  V30 2097 H 191.218 3.94462 4.52238 0
M  V30 2098 H 192.288 3.70394 3.12948 0
M  V30 2099 N 193.631 -1.12557 1.10312 0
M  V30 2100 C 194.879 -1.83675 0.843091 0
M  V30 2101 C 195.2 -1.84435 -0.633131 0
M  V30 2102 O 194.47 -1.30657 -1.45964 0
M  V30 2103 H 193.05 -0.680138 0.308904 0
M  V30 2104 H 195.712 -1.36301 1.39313 0
M  V30 2105 H 194.808 -2.87908 1.2048 0
M  V30 2106 N 195.109 -0.891671 -1.2995 0
M  V30 2107 C 196.072 -0.36828 -2.26222 0
M  V30 2108 C 197.072 0.493014 -1.53056 0
M  V30 2109 O 198.262 0.299213 -1.71611 0
M  V30 2110 C 195.394 0.47442 -3.37583 0
M  V30 2111 H 196.587 -1.21844 -2.74033 0
M  V30 2112 H 194.14 -0.669107 -1.41254 0
M  V30 2113 H 194.875 1.34489 -2.95099 0
M  V30 2114 H 194.66 -0.142615 -3.91841 0
M  V30 2115 H 196.15 0.83218 -4.09224 0
M  V30 2116 N 196.587 1.43421 -0.653314 0
M  V30 2117 C 197.833 2.02111 -0.166992 0
M  V30 2118 C 198.166 1.51423 1.21592 0
M  V30 2119 O 197.441 0.707389 1.8118 0
M  V30 2120 C 197.724 3.5966 -0.177948 0
M  V30 2121 C 197.577 4.20579 -1.59478 0
M  V30 2122 C 198.896 4.37413 0.4856 0
M  V30 2123 H 196.015 0.734374 -0.0621557 0
M  V30 2124 H 198.657 1.70717 -0.834016 0
M  V30 2125 H 196.807 3.86537 0.390032 0
M  V30 2126 H 198.479 4.04732 -2.21336 0
M  V30 2127 H 196.722 3.77226 -2.14204 0
M  V30 2128 H 197.393 5.29665 -1.5543 0
M  V30 2129 H 199.869 4.161 0.00234528 0
M  V30 2130 H 198.745 5.47075 0.447207 0
M  V30 2131 H 199.006 4.13672 1.55974 0
M  V30 2132 N 198.065 0.39524 1.52563 0
M  V30 2133 C 199.313 -0.184678 2.01254 0
M  V30 2134 C 199.634 -1.46822 1.28329 0
M  V30 2135 O 198.904 -1.91666 0.405094 0
M  V30 2136 H 197.484 -0.0712355 0.743596 0
M  V30 2137 H 200.146 0.528293 1.87603 0
M  V30 2138 H 199.242 -0.390681 3.09645 0
M  V30 2139 N 199.544 -1.57102 0.125237 0
M  V30 2140 C 200.454 -2.19191 -0.8362 0
M  V30 2141 C 201.47 -1.16985 -1.28805 0
M  V30 2142 O 202.646 -1.49479 -1.34974 0
M  V30 2143 C 199.711 -2.78407 -2.06617 0
M  V30 2144 C 198.772 -3.9567 -1.66565 0
M  V30 2145 C 198.005 -4.52052 -2.83698 0
M  V30 2146 O 198.228 -4.07326 -3.99302 0
M  V30 2147 O 197.162 -5.42645 -2.60423 0
M  V30 2148 H 200.988 -3.01816 -0.337776 0
M  V30 2149 H 198.573 -1.4906 -0.100695 0
M  V30 2150 H 200.455 -3.16129 -2.7864 0
M  V30 2151 H 199.13 -1.9881 -2.55453 0
M  V30 2152 H 198.037 -3.62705 -0.916296 0
M  V30 2153 H 199.37 -4.76722 -1.22464 0
M  V30 2154 N 201.022 0.148545 -1.56898 0
M  V30 2155 C 202.433 0.708766 -1.72723 0
M  V30 2156 C 202.784 1.81734 -0.739395 0
M  V30 2157 O 201.909 2.16194 0.0943169 0
M  V30 2158 C 202.504 1.29245 -3.13179 0
M  V30 2159 C 201.063 1.79925 -3.30611 0
M  V30 2160 C 200.21 0.687111 -2.68652 0
M  V30 2161 H 203.161 -0.0771063 -1.58513 0
M  V30 2162 H 203.182 2.16224 -3.13093 0
M  V30 2163 H 202.694 0.485382 -3.85053 0
M  V30 2164 H 200.795 2.63203 -2.63732 0
M  V30 2165 H 200.908 1.92903 -4.38549 0
M  V30 2166 H 199.272 1.11335 -2.29078 0
M  V30 2167 H 200.055 -0.108483 -3.43129 0
M  V30 2168 N 202.5 1.5196 0.417844 0
M  V30 2169 C 203.45 1.7106 1.5074 0
M  V30 2170 C 204.434 0.564487 1.50673 0
M  V30 2171 O 205.626 0.821206 1.56797 0
M  V30 2172 C 202.755 1.85677 2.88754 0
M  V30 2173 C 201.841 3.06133 2.93502 0
M  V30 2174 N 202.232 4.28987 2.67962 0
M  V30 2175 C 200.53 3.05787 3.24669 0
M  V30 2176 C 201.231 5.10395 2.79055 0
M  V30 2177 N 200.207 4.45455 3.11561 0
M  V30 2178 H 204.009 2.63696 1.29775 0
M  V30 2179 H 201.523 1.49873 0.625436 0
M  V30 2180 H 203.52 1.97475 3.67164 0
M  V30 2181 H 202.18 0.942348 3.10725 0
M  V30 2182 H 203.191 4.57607 2.4252 0
M  V30 2183 H 199.868 2.2405 3.52289 0
M  V30 2184 H 201.258 6.18247 2.63097 0
M  V30 2185 N 203.978 -0.674533 1.42435 0
M  V30 2186 C 205.394 -0.98769 1.25367 0
M  V30 2187 C 205.594 -2.00879 0.158044 0
M  V30 2188 O 204.65 -2.48075 -0.470633 0
M  V30 2189 C 205.963 -1.49224 2.6106 0
M  V30 2190 C 207.511 -1.61 2.68417 0
M  V30 2191 C 207.986 -2.14852 4.04478 0
M  V30 2192 N 209.477 -2.22185 4.06434 0
M  V30 2193 C 210.212 -2.64928 5.08528 0
M  V30 2194 N 209.708 -3.07121 6.21006 0
M  V30 2195 N 211.501 -2.64679 4.95885 0
M  V30 2196 H 203.652 0.00152503 2.124 0
M  V30 2197 H 205.915 -0.0618434 0.945981 0
M  V30 2198 H 205.621 -0.816453 3.42092 0
M  V30 2199 H 205.495 -2.47094 2.84999 0
M  V30 2200 H 207.882 -2.27686 1.87732 0
M  V30 2201 H 207.963 -0.616195 2.48267 0
M  V30 2202 H 207.607 -1.48775 4.85622 0
M  V30 2203 H 207.537 -3.15024 4.2198 0
M  V30 2204 H 210.028 -1.92435 3.25234 0
M  V30 2205 H 210.341 -3.38423 6.94759 0
M  V30 2206 H 208.686 -3.04978 6.24511 0
M  V30 2207 H 211.877 -2.31078 4.07088 0
M  V30 2208 H 212.05 -2.9767 5.75584 0
M  V30 2209 N 205.456 -1.28612 -0.910864 0
M  V30 2210 C 206.872 -1.06381 -1.18976 0
M  V30 2211 C 207.072 0.191998 -2.00583 0
M  V30 2212 O 206.128 0.892869 -2.36187 0
M  V30 2213 C 207.441 -2.31295 -1.92154 0
M  V30 2214 C 208.989 -2.36503 -2.05025 0
M  V30 2215 C 209.464 -3.61191 -2.81612 0
M  V30 2216 N 210.955 -3.61847 -2.89172 0
M  V30 2217 C 211.69 -4.55004 -3.4894 0
M  V30 2218 N 211.186 -5.58482 -4.09963 0
M  V30 2219 N 212.979 -4.42594 -3.46506 0
M  V30 2220 H 205.13 -2.09221 -0.366094 0
M  V30 2221 H 207.393 -0.921003 -0.224629 0
M  V30 2222 H 207.099 -3.228 -1.39618 0
M  V30 2223 H 206.973 -2.37934 -2.9269 0
M  V30 2224 H 209.36 -1.45494 -2.5674 0
M  V30 2225 H 209.441 -2.33857 -1.03657 0
M  V30 2226 H 209.085 -4.52545 -2.30576 0
M  V30 2227 H 209.015 -3.61092 -3.83302 0
M  V30 2228 H 211.506 -2.87022 -2.45819 0
M  V30 2229 H 211.819 -6.25704 -4.53557 0
M  V30 2230 H 210.164 -5.62305 -4.08459 0
M  V30 2231 H 213.355 -3.60953 -2.98045 0
M  V30 2232 H 213.528 -5.15381 -3.92793 0
M  V30 2233 N 206.934 1.1197 -1.10907 0
M  V30 2234 C 208.35 1.35591 -0.841852 0
M  V30 2235 C 208.55 1.94233 0.536246 0
M  V30 2236 O 207.606 2.1717 1.28816 0
M  V30 2237 C 208.919 2.29284 -1.94549 0
M  V30 2238 C 210.467 2.42862 -1.97451 0
M  V30 2239 C 210.942 3.39873 -3.07002 0
M  V30 2240 N 212.433 3.47433 -3.06341 0
M  V30 2241 C 213.168 4.22421 -3.87748 0
M  V30 2242 N 212.664 5.00432 -4.79103 0
M  V30 2243 N 214.457 4.17876 -3.75946 0
M  V30 2244 H 206.608 0.722664 -1.99728 0
M  V30 2245 H 208.871 0.380635 -0.868229 0
M  V30 2246 H 208.577 1.93378 -2.93765 0
M  V30 2247 H 208.451 3.29452 -1.83688 0
M  V30 2248 H 210.838 2.78046 -0.988645 0
M  V30 2249 H 210.919 1.42566 -2.12388 0
M  V30 2250 H 210.563 3.05417 -4.05811 0
M  V30 2251 H 210.493 4.40011 -2.89306 0
M  V30 2252 H 212.984 2.91784 -2.40147 0
M  V30 2253 H 213.297 5.55002 -5.37766 0
M  V30 2254 H 211.642 4.99612 -4.83128 0
M  V30 2255 H 214.833 3.56016 -3.03924 0
M  V30 2256 H 215.006 4.76061 -4.39624 0
M  V30 2257 N 208.412 0.89855 1.29475 0
M  V30 2258 C 209.828 0.594483 1.48115 0
M  V30 2259 C 210.028 -0.86431 1.82022 0
M  V30 2260 O 209.084 -1.64457 1.91599 0
M  V30 2261 C 210.397 1.51932 2.59494 0
M  V30 2262 C 211.945 1.5244 2.7337 0
M  V30 2263 C 212.42 2.43548 3.87877 0
M  V30 2264 N 213.911 2.41589 3.95208 0
M  V30 2265 C 214.646 3.08789 4.83153 0
M  V30 2266 N 214.142 3.85265 5.75798 0
M  V30 2267 N 215.935 2.97952 4.76635 0
M  V30 2268 H 208.086 1.84207 1.05742 0
M  V30 2269 H 210.349 0.789251 0.525154 0
M  V30 2270 H 210.055 2.55865 2.41301 0
M  V30 2271 H 209.929 1.23899 3.56271 0
M  V30 2272 H 212.316 0.492518 2.90961 0
M  V30 2273 H 212.397 1.8451 1.77172 0
M  V30 2274 H 212.041 3.46829 3.71041 0
M  V30 2275 H 211.971 2.08788 4.83441 0
M  V30 2276 H 214.462 1.86025 3.28943 0
M  V30 2277 H 214.775 4.33598 6.39697 0
M  V30 2278 H 213.12 3.89371 5.75687 0
M  V30 2279 H 216.311 2.37723 4.03244 0
M  V30 2280 H 216.484 3.50599 5.44962 0
M  V30 2281 N 209.89 -1.43072 0.660911 0
M  V30 2282 C 210.837 -2.30785 -0.0259884 0
M  V30 2283 C 211.807 -1.45184 -0.806888 0
M  V30 2284 O 212.992 -1.74041 -0.781943 0
M  V30 2285 C 210.132 -3.30861 -0.981067 0
M  V30 2286 C 209.245 -4.31558 -0.195458 0
M  V30 2287 C 208.38 -5.18712 -1.14503 0
M  V30 2288 C 207.419 -6.11097 -0.350299 0
M  V30 2289 N 206.556 -6.90849 -1.25186 0
M  V30 2290 H 211.396 -2.88975 0.727846 0
M  V30 2291 H 208.933 -1.42353 0.370682 0
M  V30 2292 H 210.891 -3.87399 -1.54849 0
M  V30 2293 H 209.521 -2.74304 -1.70169 0
M  V30 2294 H 208.573 -3.77252 0.488374 0
M  V30 2295 H 209.885 -4.9701 0.422176 0
M  V30 2296 H 209.039 -5.79914 -1.78284 0
M  V30 2297 H 207.778 -4.53404 -1.79656 0
M  V30 2298 H 206.783 -5.48976 0.300808 0
M  V30 2299 H 208.008 -6.7845 0.296941 0
M  V30 2300 H 205.954 -6.28182 -1.89005 0
M  V30 2301 H 205.871 -7.52854 -0.688971 0
M  V30 2302 H 207.139 -7.5655 -1.87757 0
M  V30 2303 N 211.368 -0.403325 -1.52352 0
M  V30 2304 C 212.614 0.174605 -2.02047 0
M  V30 2305 C 212.947 1.45282 -1.28867 0
M  V30 2306 O 212.222 1.90483 -0.393257 0
M  V30 2307 C 212.505 0.428238 -3.57545 0
M  V30 2308 C 212.358 -0.866248 -4.4138 0
M  V30 2309 C 213.677 1.21287 -4.23057 0
M  V30 2310 H 210.796 0.0619851 -0.734389 0
M  V30 2311 H 213.438 -0.53565 -1.82293 0
M  V30 2312 H 211.588 1.03327 -3.74507 0
M  V30 2313 H 213.26 -1.50265 -4.3614 0
M  V30 2314 H 211.503 -1.47851 -4.07827 0
M  V30 2315 H 212.174 -0.643249 -5.48239 0
M  V30 2316 H 214.65 0.700703 -4.10158 0
M  V30 2317 H 213.526 1.35909 -5.31808 0
M  V30 2318 H 213.787 2.23193 -3.81625 0
M  V30 2319 N 212.846 1.57033 -0.133567 0
M  V30 2320 C 213.776 2.1909 0.807567 0
M  V30 2321 C 214.757 1.13517 1.26681 0
M  V30 2322 O 215.942 1.41809 1.32679 0
M  V30 2323 C 213.072 2.80188 2.05212 0
M  V30 2324 C 212.026 3.91471 1.73015 0
M  V30 2325 C 211.352 4.39443 3.04622 0
M  V30 2326 C 212.652 5.12886 0.987168 0
M  V30 2327 H 214.346 2.97988 0.290403 0
M  V30 2328 H 211.892 1.43335 0.138239 0
M  V30 2329 H 213.845 3.22264 2.71521 0
M  V30 2330 H 212.569 1.98601 2.59278 0
M  V30 2331 H 211.228 3.49993 1.0909 0
M  V30 2332 H 210.876 3.54695 3.56651 0
M  V30 2333 H 210.576 5.14495 2.83847 0
M  V30 2334 H 212.1 4.8418 3.72024 0
M  V30 2335 H 213.514 5.51891 1.55208 0
M  V30 2336 H 211.911 5.93615 0.87985 0
M  V30 2337 H 212.981 4.84894 -0.0235286 0
M  V30 2338 N 214.325 -0.140222 1.56975 0
M  V30 2339 C 215.288 -1.15689 1.97861 0
M  V30 2340 C 216.288 -1.3549 0.865974 0
M  V30 2341 O 217.478 -1.32367 1.13246 0
M  V30 2342 C 214.61 -2.51582 2.30042 0
M  V30 2343 H 215.803 -0.805971 2.88867 0
M  V30 2344 H 213.356 -0.383801 1.51515 0
M  V30 2345 H 214.091 -2.91632 1.41849 0
M  V30 2346 H 213.876 -2.38569 3.11171 0
M  V30 2347 H 215.366 -3.24792 2.62488 0
M  V30 2348 N 215.803 -1.52179 -0.40978 0
M  V30 2349 C 217.219 -1.40968 -0.74835 0
M  V30 2350 C 217.419 -0.513657 -1.94843 0
M  V30 2351 O 216.475 0.0208026 -2.52491 0
M  V30 2352 C 217.788 -2.83483 -1.0029 0
M  V30 2353 C 219.336 -2.92821 -1.10565 0
M  V30 2354 C 219.811 -4.36303 -1.39296 0
M  V30 2355 N 221.302 -4.39535 -1.46162 0
M  V30 2356 C 222.037 -5.47614 -1.70018 0
M  V30 2357 N 221.533 -6.65812 -1.91483 0
M  V30 2358 N 223.326 -5.35129 -1.72027 0
M  V30 2359 H 215.477 -2.0897 0.380186 0
M  V30 2360 H 217.74 -0.94185 0.107805 0
M  V30 2361 H 217.446 -3.51168 -0.193461 0
M  V30 2362 H 217.32 -3.24487 -1.92323 0
M  V30 2363 H 219.707 -2.25318 -1.90568 0
M  V30 2364 H 219.788 -2.55276 -0.16369 0
M  V30 2365 H 219.432 -5.04366 -0.598109 0
M  V30 2366 H 219.362 -4.71385 -2.34743 0
M  V30 2367 H 221.853 -3.54332 -1.31367 0
M  V30 2368 H 222.166 -7.43964 -2.09134 0
M  V30 2369 H 220.511 -6.68879 -1.88749 0
M  V30 2370 H 223.702 -4.41764 -1.54796 0
M  V30 2371 H 223.875 -6.19433 -1.9028 0
M  V30 2372 N 217.281 0.66697 -1.42791 0
M  V30 2373 C 218.527 1.4291 -1.43891 0
M  V30 2374 C 218.86 1.94114 -0.0578972 0
M  V30 2375 O 218.135 1.71414 0.91911 0
M  V30 2376 C 218.418 2.62049 -2.46987 0
M  V30 2377 C 218.271 2.16426 -3.94309 0
M  V30 2378 C 219.59 3.64266 -2.46978 0
M  V30 2379 H 216.709 0.518306 -0.523954 0
M  V30 2380 H 219.351 0.757321 -1.74255 0
M  V30 2381 H 217.501 3.19361 -2.21225 0
M  V30 2382 H 219.173 1.64221 -4.31079 0
M  V30 2383 H 217.416 1.47925 -4.078 0
M  V30 2384 H 218.087 3.02038 -4.62036 0
M  V30 2385 H 220.563 3.16686 -2.69906 0
M  V30 2386 H 219.439 4.45196 -3.21079 0
M  V30 2387 H 219.7 4.15927 -1.49857 0
M  V30 2388 N 218.759 1.29093 0.90403 0
M  V30 2389 C 220.006 1.16813 1.65411 0
M  V30 2390 C 220.334 -0.28128 1.92455 0
M  V30 2391 O 219.589 -1.22006 1.53013 0
M  V30 2392 C 219.888 1.92224 3.01305 0
M  V30 2393 C 219.554 3.41968 2.93885 0
M  V30 2394 C 218.216 3.82807 2.91569 0
M  V30 2395 C 220.568 4.37409 2.83413 0
M  V30 2396 C 217.896 5.1741 2.76594 0
M  V30 2397 C 220.248 5.72097 2.69977 0
M  V30 2398 C 218.912 6.12199 2.66024 0
M  V30 2399 H 218.182 0.42745 0.605283 0
M  V30 2400 H 220.829 1.59981 1.05254 0
M  V30 2401 H 219.134 1.41635 3.65304 0
M  V30 2402 H 220.831 1.80131 3.58265 0
M  V30 2403 H 217.421 3.09504 2.96488 0
M  V30 2404 H 221.605 4.06813 2.84283 0
M  V30 2405 H 216.861 5.47596 2.71935 0
M  V30 2406 H 221.035 6.45704 2.60844 0
M  V30 2407 H 218.662 7.16448 2.54178 0
M  V30 2408 N 220.237 -1.11381 1.11499 0
M  V30 2409 C 221.462 -1.87475 0.887019 0
M  V30 2410 C 221.887 -1.79639 -0.557796 0
M  V30 2411 O 221.245 -1.15924 -1.39396 0
M  V30 2412 C 221.293 -3.34213 1.35403 0
M  V30 2413 O 220.397 -4.0903 0.526146 0
M  V30 2414 H 219.738 -0.582099 0.319463 0
M  V30 2415 H 222.268 -1.40785 1.48461 0
M  V30 2416 H 222.278 -3.8506 1.34881 0
M  V30 2417 H 220.953 -3.39232 2.40612 0
M  V30 2418 H 219.53 -3.68082 0.597522 0
M  V30 2419 N 221.715 -0.905404 -1.28997 0
M  V30 2420 C 223.131 -0.60233 -1.47798 0
M  V30 2421 C 223.331 0.854645 -1.82478 0
M  V30 2422 O 222.387 1.63439 -1.92468 0
M  V30 2423 C 223.7 -1.53306 -2.58685 0
M  V30 2424 C 225.248 -1.53887 -2.72558 0
M  V30 2425 C 225.723 -2.45602 -3.86579 0
M  V30 2426 N 227.214 -2.43681 -3.93921 0
M  V30 2427 C 227.949 -3.11347 -4.81509 0
M  V30 2428 N 227.445 -3.88313 -5.73746 0
M  V30 2429 N 229.238 -3.00476 -4.75048 0
M  V30 2430 H 221.389 -1.84765 -1.04764 0
M  V30 2431 H 223.652 -0.792025 -0.520961 0
M  V30 2432 H 223.358 -2.57141 -2.39941 0
M  V30 2433 H 223.232 -1.25787 -3.55609 0
M  V30 2434 H 225.619 -0.507941 -2.90696 0
M  V30 2435 H 225.7 -1.85447 -1.76191 0
M  V30 2436 H 225.344 -3.48792 -3.69197 0
M  V30 2437 H 225.274 -2.11349 -4.82327 0
M  V30 2438 H 227.765 -1.87767 -3.27951 0
M  V30 2439 H 228.078 -4.36985 -6.37389 0
M  V30 2440 H 226.423 -3.92419 -5.73614 0
M  V30 2441 H 229.614 -2.39858 -4.01977 0
M  V30 2442 H 229.787 -3.53485 -5.43095 0
M  V30 2443 N 223.193 1.4272 -0.668489 0
M  V30 2444 C 224.156 2.292 0.00448567 0
M  V30 2445 C 225.156 1.43001 0.735339 0
M  V30 2446 O 226.346 1.64461 0.57429 0
M  V30 2447 C 223.478 3.25375 1.01705 0
M  V30 2448 H 224.671 2.90199 -0.756608 0
M  V30 2449 H 222.224 1.50254 -0.430506 0
M  V30 2450 H 222.959 2.69301 1.80686 0
M  V30 2451 H 222.744 3.88944 0.496463 0
M  V30 2452 H 224.234 3.90245 1.48655 0
M  V30 2453 N 224.671 0.411399 1.52136 0
M  V30 2454 C 225.634 -0.401089 2.25663 0
M  V30 2455 C 226.634 -0.971732 1.28117 0
M  V30 2456 O 227.824 -0.850254 1.52041 0
M  V30 2457 C 224.956 -1.56483 3.02863 0
M  V30 2458 H 226.149 0.24295 2.98914 0
M  V30 2459 H 223.702 0.163968 1.55438 0
M  V30 2460 H 224.437 -2.24567 2.33967 0
M  V30 2461 H 224.222 -1.16211 3.74483 0
M  V30 2462 H 225.712 -2.13951 3.58629 0
M  V30 2463 N 226.149 -1.5696 0.141893 0
M  V30 2464 C 227.079 -2.19516 -0.795936 0
M  V30 2465 C 228.06 -1.14187 -1.26077 0
M  V30 2466 O 229.245 -1.42511 -1.31925 0
M  V30 2467 C 226.375 -2.81272 -2.03723 0
M  V30 2468 C 225.329 -3.92384 -1.70936 0
M  V30 2469 C 224.655 -4.41052 -3.02287 0
M  V30 2470 C 225.955 -5.13403 -0.959954 0
M  V30 2471 H 227.649 -2.98138 -0.274596 0
M  V30 2472 H 225.195 -1.43406 -0.130636 0
M  V30 2473 H 227.148 -3.237 -2.69808 0
M  V30 2474 H 225.872 -1.99973 -2.58221 0
M  V30 2475 H 224.531 -3.50566 -1.07232 0
M  V30 2476 H 224.179 -3.56582 -3.54765 0
M  V30 2477 H 223.879 -5.15993 -2.81114 0
M  V30 2478 H 225.403 -4.86146 -3.69451 0
M  V30 2479 H 226.817 -5.52706 -1.52279 0
M  V30 2480 H 225.214 -5.94073 -0.848357 0
M  V30 2481 H 226.284 -4.84875 0.0492434 0
M  V30 2482 N 227.627 0.131896 -1.57047 0
M  V30 2483 C 228.537 1.1815 -2.02676 0
M  V30 2484 C 229.553 1.46113 -0.944824 0
M  V30 2485 O 230.729 1.57485 -1.25541 0
M  V30 2486 C 227.794 2.49139 -2.41103 0
M  V30 2487 C 226.855 2.28688 -3.63318 0
M  V30 2488 C 226.088 3.53431 -3.99903 0
M  V30 2489 O 226.311 4.60223 -3.36973 0
M  V30 2490 O 225.245 3.45198 -4.93074 0
M  V30 2491 H 229.071 0.824069 -2.92306 0
M  V30 2492 H 226.656 0.341745 -1.45439 0
M  V30 2493 H 228.538 3.26338 -2.66611 0
M  V30 2494 H 227.213 2.84382 -1.54624 0
M  V30 2495 H 226.12 1.4939 -3.42977 0
M  V30 2496 H 227.453 1.98355 -4.50462 0
M  V30 2497 N 229.106 1.52395 0.401703 0
M  V30 2498 C 230.522 1.41363 0.740864 0
M  V30 2499 C 230.722 0.523982 1.94568 0
M  V30 2500 O 229.778 -0.00741204 2.52499 0
M  V30 2501 C 231.091 2.84011 0.987847 0
M  V30 2502 C 232.639 2.93404 1.09011 0
M  V30 2503 C 233.114 4.37036 1.3698 0
M  V30 2504 N 234.605 4.40304 1.43829 0
M  V30 2505 C 235.34 5.48508 1.67112 0
M  V30 2506 N 234.836 6.66819 1.87949 0
M  V30 2507 N 236.629 5.36034 1.69187 0
M  V30 2508 H 228.78 2.08765 -0.391262 0
M  V30 2509 H 231.043 0.941265 -0.112798 0
M  V30 2510 H 230.749 3.51265 0.174835 0
M  V30 2511 H 230.623 3.25502 1.906 0
M  V30 2512 H 233.01 2.26325 1.8937 0
M  V30 2513 H 233.091 2.55359 0.15015 0
M  V30 2514 H 232.735 5.04676 0.571353 0
M  V30 2515 H 232.665 4.72623 2.3224 0
M  V30 2516 H 235.156 3.55024 1.29486 0
M  V30 2517 H 235.469 7.45063 2.05185 0
M  V30 2518 H 233.814 6.6987 1.85199 0
M  V30 2519 H 237.005 4.42579 1.52451 0
M  V30 2520 H 237.178 6.20434 1.86993 0
M  V30 2521 N 230.584 -0.659388 1.43143 0
M  V30 2522 C 231.814 -1.44513 1.47646 0
M  V30 2523 C 232.222 -1.88981 0.0910095 0
M  V30 2524 O 231.565 -1.59702 -0.907789 0
M  V30 2525 C 231.627 -2.71663 2.35456 0
M  V30 2526 C 231.291 -2.49175 3.83094 0
M  V30 2527 C 232.288 -2.1279 4.74359 0
M  V30 2528 C 229.973 -2.63691 4.27519 0
M  V30 2529 C 231.967 -1.9121 6.08044 0
M  V30 2530 C 229.654 -2.41726 5.61259 0
M  V30 2531 C 230.652 -2.0554 6.51339 0
M  V30 2532 O 230.34 -1.838 7.82606 0
M  V30 2533 H 230.072 -0.45064 0.503884 0
M  V30 2534 H 232.626 -0.816248 1.88485 0
M  V30 2535 H 230.856 -3.37089 1.89493 0
M  V30 2536 H 232.545 -3.33595 2.31235 0
M  V30 2537 H 233.311 -2.01157 4.41317 0
M  V30 2538 H 229.19 -2.90832 3.57684 0
M  V30 2539 H 232.734 -1.62889 6.78316 0
M  V30 2540 H 228.631 -2.52959 5.9387 0
M  V30 2541 H 229.399 -1.98275 7.94122 0
M  V30 2542 N 232.062 -1.29571 -0.897171 0
M  V30 2543 C 233.308 -1.17863 -1.65034 0
M  V30 2544 C 233.641 0.268729 -1.92332 0
M  V30 2545 O 232.916 1.19378 -1.53555 0
M  V30 2546 C 233.199 -1.995 -2.99786 0
M  V30 2547 C 233.052 -3.5239 -2.79538 0
M  V30 2548 C 234.371 -1.82335 -4.00552 0
M  V30 2549 H 231.49 -0.429528 -0.598895 0
M  V30 2550 H 234.132 -1.59072 -1.03905 0
M  V30 2551 H 232.282 -1.64485 -3.51962 0
M  V30 2552 H 233.954 -3.97401 -2.34244 0
M  V30 2553 H 232.197 -3.77187 -2.14273 0
M  V30 2554 H 232.868 -4.04787 -3.75302 0
M  V30 2555 H 235.344 -2.12924 -3.57495 0
M  V30 2556 H 234.22 -2.41801 -4.92771 0
M  V30 2557 H 234.481 -0.779209 -4.35179 0
M  V30 2558 N 233.54 1.10788 -1.12088 0
M  V30 2559 C 234.951 1.64181 -0.88891 0
M  V30 2560 C 235.302 1.87508 0.577498 0
M  V30 2561 O 234.427 1.61434 1.44112 0
M  V30 2562 C 235.022 2.98257 -1.60712 0
M  V30 2563 C 233.581 3.4853 -1.42139 0
M  V30 2564 C 232.728 2.23208 -1.6454 0
M  V30 2565 H 235.679 0.943368 -1.27618 0
M  V30 2566 H 235.7 3.65552 -1.05604 0
M  V30 2567 H 235.212 2.81246 -2.67436 0
M  V30 2568 H 233.313 3.70692 -0.376552 0
M  V30 2569 H 233.426 4.26882 -2.17505 0
M  V30 2570 H 231.79 2.31169 -1.06925 0
M  V30 2571 H 232.573 2.08733 -2.72554 0
M  V30 2572 N 235.018 0.912232 1.28515 0
M  V30 2573 C 236.434 0.610159 1.47476 0
M  V30 2574 C 236.634 -0.844955 1.82928 0
M  V30 2575 O 235.69 -1.62416 1.93332 0
M  V30 2576 C 237.003 1.54675 2.57868 0
M  V30 2577 C 238.551 1.55331 2.71738 0
M  V30 2578 C 239.026 2.47649 3.85272 0
M  V30 2579 N 240.517 2.45767 3.92623 0
M  V30 2580 C 241.252 3.13896 4.79851 0
M  V30 2581 N 240.748 3.9135 5.71679 0
M  V30 2582 N 242.541 3.02991 4.73448 0
M  V30 2583 H 234.692 1.85318 1.03783 0
M  V30 2584 H 236.955 0.794777 0.516753 0
M  V30 2585 H 236.661 2.5841 2.38574 0
M  V30 2586 H 236.535 1.27671 3.54937 0
M  V30 2587 H 238.922 0.52335 2.90422 0
M  V30 2588 H 239.003 1.86378 1.75205 0
M  V30 2589 H 238.647 3.50745 3.67342 0
M  V30 2590 H 238.577 2.13904 4.81199 0
M  V30 2591 H 241.068 1.89503 3.26951 0
M  V30 2592 H 241.381 4.40359 6.35062 0
M  V30 2593 H 239.726 3.95455 5.71524 0
M  V30 2594 H 242.917 2.41987 4.007 0
M  V30 2595 H 243.09 3.5636 5.41213 0
M  V30 2596 N 236.496 -1.42363 0.676048 0
M  V30 2597 C 237.426 -2.33497 0.0124832 0
M  V30 2598 C 238.407 -1.50748 -0.787981 0
M  V30 2599 O 239.592 -1.79346 -0.744884 0
M  V30 2600 C 236.722 -3.34377 -0.938582 0
M  V30 2601 C 235.676 -4.27289 -0.246622 0
M  V30 2602 C 235.002 -5.18386 -1.31071 0
M  V30 2603 C 236.302 -5.14916 0.875125 0
M  V30 2604 H 237.996 -2.89233 0.773593 0
M  V30 2605 H 235.542 -1.39073 0.37346 0
M  V30 2606 H 237.495 -3.97044 -1.41188 0
M  V30 2607 H 236.219 -2.76947 -1.73113 0
M  V30 2608 H 234.878 -3.66018 0.206456 0
M  V30 2609 H 234.526 -4.57282 -2.09528 0
M  V30 2610 H 234.226 -5.81378 -0.852839 0
M  V30 2611 H 235.75 -5.83929 -1.78492 0
M  V30 2612 H 237.164 -5.71262 0.482983 0
M  V30 2613 H 235.561 -5.86747 1.25887 0
M  V30 2614 H 236.631 -4.53242 1.72335 0
M  V30 2615 N 237.974 -0.419461 -1.51915 0
M  V30 2616 C 238.906 0.43646 -2.25006 0
M  V30 2617 C 239.919 1.00149 -1.28351 0
M  V30 2618 O 241.108 0.898674 -1.54227 0
M  V30 2619 C 238.208 1.6206 -2.9764 0
M  V30 2620 C 237.381 1.17763 -4.21249 0
M  V30 2621 C 236.44 2.22985 -4.76617 0
M  V30 2622 O 235.466 1.83151 -5.38929 0
M  V30 2623 N 236.668 3.55271 -4.59089 0
M  V30 2624 H 239.433 -0.18989 -2.99098 0
M  V30 2625 H 236.994 -0.247386 -1.59999 0
M  V30 2626 H 238.986 2.32038 -3.31573 0
M  V30 2627 H 237.556 2.15266 -2.2667 0
M  V30 2628 H 236.776 0.305582 -3.93014 0
M  V30 2629 H 238.064 0.858781 -5.015 0
M  V30 2630 H 237.462 3.90377 -4.09417 0
M  V30 2631 H 236.019 4.21195 -4.97432 0
M  V30 2632 N 239.452 1.56882 -0.150215 0
M  V30 2633 C 240.7 1.9584 0.499105 0
M  V30 2634 C 241.021 1.03623 1.65188 0
M  V30 2635 O 240.291 0.0984084 1.95653 0
M  V30 2636 H 238.871 0.723119 0.187373 0
M  V30 2637 H 241.533 1.9358 -0.226466 0
M  V30 2638 H 240.629 2.99638 0.873122 0
M  V30 2639 N 240.93 -0.123565 1.57115 0
M  V30 2640 C 241.893 -1.13583 1.99076 0
M  V30 2641 C 242.893 -1.34564 0.880296 0
M  V30 2642 O 244.083 -1.31158 1.14644 0
M  V30 2643 C 241.215 -2.49128 2.32698 0
M  V30 2644 H 242.408 -0.775287 2.89706 0
M  V30 2645 H 239.961 -0.36771 1.51913 0
M  V30 2646 H 240.696 -2.90111 1.44934 0
M  V30 2647 H 240.481 -2.35255 3.13684 0
M  V30 2648 H 241.971 -3.2199 2.65918 0
M  V30 2649 N 242.408 -1.52605 -0.393616 0
M  V30 2650 C 243.338 -1.80022 -1.48709 0
M  V30 2651 C 244.319 -0.651995 -1.57108 0
M  V30 2652 O 245.504 -0.89913 -1.72132 0
M  V30 2653 C 242.634 -1.96492 -2.86371 0
M  V30 2654 C 241.588 -3.12161 -2.92813 0
M  V30 2655 C 240.914 -3.13877 -4.3288 0
M  V30 2656 C 242.214 -4.51322 -2.6288 0
M  V30 2657 H 243.908 -2.71589 -1.26015 0
M  V30 2658 H 241.454 -1.30684 -0.604778 0
M  V30 2659 H 243.407 -2.14255 -3.62867 0
M  V30 2660 H 242.131 -1.01611 -3.10391 0
M  V30 2661 H 240.79 -2.94173 -2.18764 0
M  V30 2662 H 240.438 -2.16687 -4.53933 0
M  V30 2663 H 240.138 -3.91576 -4.38112 0
M  V30 2664 H 241.662 -3.33789 -5.1129 0
M  V30 2665 H 243.076 -4.69435 -3.29096 0
M  V30 2666 H 241.473 -5.31053 -2.79468 0
M  V30 2667 H 242.543 -4.58353 -1.58242 0
M  V30 2668 N 243.887 0.651787 -1.4349 0
M  V30 2669 C 245.303 0.96762 -1.26922 0
M  V30 2670 C 245.503 2.00602 -0.189982 0
M  V30 2671 O 244.559 2.48793 0.431107 0
M  V30 2672 C 245.872 1.45052 -2.63401 0
M  V30 2673 C 247.42 1.5671 -2.70945 0
M  V30 2674 C 247.895 2.0839 -4.07845 0
M  V30 2675 N 249.386 2.1569 -4.09917 0
M  V30 2676 C 250.121 2.56804 -5.12679 0
M  V30 2677 N 249.617 2.97203 -6.25813 0
M  V30 2678 N 251.41 2.56756 -5.00033 0
M  V30 2679 H 243.561 -0.0353158 -2.12371 0
M  V30 2680 H 245.824 0.0467858 -0.946845 0
M  V30 2681 H 245.53 0.761926 -3.43348 0
M  V30 2682 H 245.404 2.42529 -2.88894 0
M  V30 2683 H 247.791 2.2467 -1.9133 0
M  V30 2684 H 247.872 0.57662 -2.49216 0
M  V30 2685 H 247.516 1.41031 -4.87927 0
M  V30 2686 H 247.446 3.08271 -4.26938 0
M  V30 2687 H 249.937 1.87237 -3.28254 0
M  V30 2688 H 250.25 3.27328 -7.00055 0
M  V30 2689 H 248.595 2.95004 -6.29283 0
M  V30 2690 H 251.786 2.24572 -4.10713 0
M  V30 2691 H 251.959 2.88475 -5.80247 0
M  V30 2692 N 245.365 1.30045 0.890287 0
M  V30 2693 C 246.315 1.12592 1.9826 0
M  V30 2694 C 247.299 0.0426021 1.60844 0
M  V30 2695 O 248.491 0.265346 1.75 0
M  V30 2696 C 245.62 0.814301 3.33503 0
M  V30 2697 C 244.706 1.93761 3.7725 0
M  V30 2698 N 245.097 3.18232 3.93143 0
M  V30 2699 C 243.395 1.83277 4.06602 0
M  V30 2700 C 244.096 3.9158 4.30163 0
M  V30 2701 N 243.072 3.19591 4.3973 0
M  V30 2702 H 246.874 2.07003 2.08631 0
M  V30 2703 H 244.388 1.21307 1.07974 0
M  V30 2704 H 246.385 0.67029 4.11476 0
M  V30 2705 H 245.045 -0.121797 3.24471 0
M  V30 2706 H 246.056 3.53581 3.78419 0
M  V30 2707 H 242.733 0.97001 4.06075 0
M  V30 2708 H 244.123 4.98744 4.50226 0
M  V30 2709 N 246.843 -1.10192 1.12674 0
M  V30 2710 C 247.753 -2.20172 0.810026 0
M  V30 2711 C 248.769 -1.72821 -0.202188 0
M  V30 2712 O 249.945 -2.01369 -0.0351691 0
M  V30 2713 C 247.01 -3.45631 0.272007 0
M  V30 2714 C 246.071 -4.07704 1.34447 0
M  V30 2715 C 245.304 -5.27175 0.832029 0
M  V30 2716 O 245.527 -5.69425 -0.333284 0
M  V30 2717 O 244.461 -5.80168 1.60277 0
M  V30 2718 H 248.287 -2.49701 1.72867 0
M  V30 2719 H 245.872 -1.18977 0.903597 0
M  V30 2720 H 247.754 -4.21394 -0.0230219 0
M  V30 2721 H 246.429 -3.17723 -0.619164 0
M  V30 2722 H 245.336 -3.33614 1.6927 0
M  V30 2723 H 246.669 -4.3982 2.2095 0
M  V30 2724 N 248.321 -0.919034 -1.28029 0
M  V30 2725 C 249.567 -0.555757 -1.95036 0
M  V30 2726 C 249.9 0.899198 -1.72128 0
M  V30 2727 O 249.175 1.64023 -1.04531 0
M  V30 2728 C 249.458 -0.872024 -3.49382 0
M  V30 2729 C 249.311 -2.3801 -3.81669 0
M  V30 2730 C 250.63 -0.37185 -4.38526 0
M  V30 2731 H 247.749 -0.203386 -0.708381 0
M  V30 2732 H 250.391 -1.14924 -1.51303 0
M  V30 2733 H 248.541 -0.366946 -3.86763 0
M  V30 2734 H 250.213 -2.9562 -3.54128 0
M  V30 2735 H 248.456 -2.83289 -3.28526 0
M  V30 2736 H 249.127 -2.55192 -4.8947 0
M  V30 2737 H 251.603 -0.804602 -4.08247 0
M  V30 2738 H 250.479 -0.622173 -5.45362 0
M  V30 2739 H 250.74 0.727934 -4.36066 0
M  V30 2740 N 249.799 1.42003 -0.683588 0
M  V30 2741 C 251.215 1.55625 -0.353976 0
M  V30 2742 C 251.415 1.66151 1.14 0
M  V30 2743 O 250.471 1.63329 1.92561 0
M  V30 2744 C 251.784 2.80171 -1.092 0
M  V30 2745 C 253.332 2.93954 -1.07518 0
M  V30 2746 C 253.807 4.21372 -1.79471 0
M  V30 2747 N 255.298 4.28303 -1.76381 0
M  V30 2748 C 256.033 5.25729 -2.28904 0
M  V30 2749 N 255.529 6.29254 -2.89846 0
M  V30 2750 N 257.322 5.17586 -2.19228 0
M  V30 2751 H 249.473 1.33415 -1.6527 0
M  V30 2752 H 251.736 0.64282 -0.696769 0
M  V30 2753 H 251.442 2.78561 -2.14701 0
M  V30 2754 H 251.316 3.7133 -0.662862 0
M  V30 2755 H 253.703 2.95086 -0.028475 0
M  V30 2756 H 253.784 2.04002 -1.54328 0
M  V30 2757 H 253.428 4.21001 -2.84114 0
M  V30 2758 H 253.358 5.10275 -1.30104 0
M  V30 2759 H 255.849 3.54119 -1.31939 0
M  V30 2760 H 256.162 6.99964 -3.27522 0
M  V30 2761 H 254.507 6.29791 -2.93919 0
M  V30 2762 H 257.698 4.35631 -1.71299 0
M  V30 2763 H 257.871 5.93348 -2.60466 0
M  V30 2764 N 251.277 0.427512 1.51691 0
M  V30 2765 C 252.502 -0.143601 2.06902 0
M  V30 2766 C 252.927 -1.36536 1.29382 0
M  V30 2767 O 252.285 -1.78289 0.329043 0
M  V30 2768 C 252.333 -0.454207 3.57728 0
M  V30 2769 O 251.437 -1.54228 3.82475 0
M  V30 2770 H 250.778 -0.00617128 0.663971 0
M  V30 2771 H 253.308 0.606014 1.95419 0
M  V30 2772 H 253.318 -0.707525 4.01818 0
M  V30 2773 H 251.993 0.438812 4.13579 0
M  V30 2774 H 250.57 -1.2797 3.50254 0
M  V30 2775 N 252.755 -1.56801 0.158532 0
M  V30 2776 C 254.001 -1.97559 -0.483957 0
M  V30 2777 C 254.356 -1.04239 -1.61716 0
M  V30 2778 O 253.649 -0.079603 -1.91435 0
M  V30 2779 C 253.843 -3.4235 -1.02623 0
M  V30 2780 C 253.672 -4.49669 0.0528929 0
M  V30 2781 C 252.442 -5.02838 0.498234 0
M  V30 2782 C 254.64 -5.0725 0.848616 0
M  V30 2783 N 252.622 -5.93775 1.559 0
M  V30 2784 C 253.993 -5.94506 1.7596 0
M  V30 2785 C 256.048 -4.89788 0.895121 0
M  V30 2786 C 254.751 -6.66169 2.71314 0
M  V30 2787 C 256.777 -5.62161 1.83654 0
M  V30 2788 C 256.139 -6.49134 2.73503 0
M  V30 2789 H 252.238 -0.768332 -0.145566 0
M  V30 2790 H 254.822 -1.93012 0.255799 0
M  V30 2791 H 252.993 -3.47467 -1.73555 0
M  V30 2792 H 254.725 -3.70145 -1.63629 0
M  V30 2793 H 251.48 -4.73498 0.0983222 0
M  V30 2794 H 251.904 -6.43948 2.08949 0
M  V30 2795 H 256.546 -4.22255 0.21453 0
M  V30 2796 H 254.264 -7.32923 3.40367 0
M  V30 2797 H 257.85 -5.5064 1.87847 0
M  V30 2798 H 256.73 -7.04153 3.45163 0
M  V30 2799 N 254.233 0.115231 -1.57178 0
M  V30 2800 C 255.473 0.828199 -1.8687 0
M  V30 2801 C 255.837 1.76873 -0.747002 0
M  V30 2802 O 257.038 2.52354 -0.925785 0
M  V30 2803 C 255.309 1.55515 -3.21792 0
M  V30 2804 S 256.868 2.30917 -3.73125 0
M  V30 2805 H 253.686 0.27634 -0.655101 0
M  V30 2806 H 256.288 0.0863469 -1.95309 0
M  V30 2807 H 254.992 0.856248 -4.01368 0
M  V30 2808 H 254.523 2.3373 -3.16439 0
M  V30 2809 H 256.538 3.56705 -3.44929 0
M  V30 2810 N 255.711 1.52812 0.385517 0
M  V30 2811 C 256.674 1.77188 1.45386 0
M  V30 2812 C 257.674 0.641953 1.4743 0
M  V30 2813 O 258.864 0.910033 1.4854 0
M  V30 2814 C 255.996 1.87582 2.8465 0
M  V30 2815 H 257.189 2.72583 1.25054 0
M  V30 2816 H 254.742 1.43586 0.617467 0
M  V30 2817 H 255.477 0.941849 3.10322 0
M  V30 2818 H 255.262 2.69748 2.84567 0
M  V30 2819 H 256.752 2.08102 3.62054 0
M  V30 2820 N 257.189 -0.644168 1.43834 0
M  V30 2821 C 258.152 -1.73857 1.49353 0
M  V30 2822 C 259.152 -1.56315 0.377112 0
M  V30 2823 O 260.342 -1.62048 0.639226 0
M  V30 2824 C 257.474 -3.12819 1.35488 0
M  V30 2825 H 258.667 -1.70342 2.46827 0
M  V30 2826 H 256.22 -0.856652 1.30733 0
M  V30 2827 H 256.955 -3.2194 0.390569 0
M  V30 2828 H 256.74 -3.26958 2.16428 0
M  V30 2829 H 258.23 -3.92606 1.42302 0
M  V30 2830 N 258.668 -1.30515 -0.883378 0
M  V30 2831 C 259.916 -1.19194 -1.63209 0
M  V30 2832 C 260.237 0.253205 -1.93349 0
M  V30 2833 O 259.507 1.17025 -1.57105 0
M  V30 2834 H 258.087 -0.438148 -0.605009 0
M  V30 2835 H 260.749 -1.63663 -1.05832 0
M  V30 2836 H 259.845 -1.75396 -2.58153 0
M  V30 2837 N 260.146 1.09593 -1.13257 0
M  V30 2838 C 261.394 1.81375 -0.891492 0
M  V30 2839 C 261.715 1.86049 0.584009 0
M  V30 2840 O 260.985 1.34481 1.42449 0
M  V30 2841 H 259.565 0.671708 -0.326828 0
M  V30 2842 H 262.227 1.3256 -1.42877 0
M  V30 2843 H 261.323 2.84612 -1.28071 0
M  V30 2844 N 261.624 0.925811 1.2754 0
M  V30 2845 C 263.035 0.610102 1.7645 0
M  V30 2846 C 263.386 -0.874723 1.75622 0
M  V30 2847 O 262.511 -1.68444 1.35851 0
M  V30 2848 C 263.106 1.10073 3.20421 0
M  V30 2849 C 261.665 0.835723 3.67005 0
M  V30 2850 C 260.812 1.26054 2.46993 0
M  V30 2851 H 263.763 1.10579 1.13833 0
M  V30 2852 H 263.784 0.447557 3.77859 0
M  V30 2853 H 263.296 2.18143 3.20991 0
M  V30 2854 H 261.397 -0.231249 3.71882 0
M  V30 2855 H 261.51 1.45193 4.56569 0
M  V30 2856 H 259.874 0.679111 2.45479 0
M  V30 2857 H 260.657 2.34984 2.50275 0
M  V30 2858 N 263.102 -1.41638 0.69111 0
M  V30 2859 C 264.348 -2.01598 0.220519 0
M  V30 2860 C 264.681 -1.54594 -1.17535 0
M  V30 2861 O 263.956 -0.755177 -1.79241 0
M  V30 2862 C 264.239 -3.59062 0.273243 0
M  V30 2863 C 264.092 -4.16203 1.70573 0
M  V30 2864 C 265.411 -4.38546 -0.369457 0
M  V30 2865 H 262.53 -0.732468 0.0816045 0
M  V30 2866 H 265.172 -1.68445 0.878986 0
M  V30 2867 H 263.322 -3.87435 -0.287411 0
M  V30 2868 H 264.994 -3.98722 2.31989 0
M  V30 2869 H 263.237 -3.71414 2.2413 0
M  V30 2870 H 263.908 -5.25358 1.69419 0
M  V30 2871 H 266.384 -4.1596 0.107977 0
M  V30 2872 H 265.26 -5.48069 -0.302002 0
M  V30 2873 H 265.521 -4.17662 -1.44951 0
M  V30 2874 N 264.58 -0.43555 -1.51462 0
M  V30 2875 C 265.805 0.132627 -2.06976 0
M  V30 2876 C 266.23 1.35848 -1.30104 0
M  V30 2877 O 265.588 1.78112 -0.338493 0
M  V30 2878 C 265.636 0.43523 -3.57964 0
M  V30 2879 O 264.74 1.52198 -3.83288 0
M  V30 2880 H 264.081 0.00265 -0.663995 0
M  V30 2881 H 266.611 -0.616369 -1.95095 0
M  V30 2882 H 266.621 0.686206 -4.02188 0
M  V30 2883 H 265.296 -0.460739 -4.1334 0
M  V30 2884 H 263.873 1.2611 -3.50928 0
M  V30 2885 N 266.058 1.56714 -0.166846 0
M  V30 2886 C 267.304 1.97039 0.479962 0
M  V30 2887 C 267.637 1.05264 1.63197 0
M  V30 2888 O 266.912 0.0988833 1.94248 0
M  V30 2889 C 267.195 3.46867 0.967212 0
M  V30 2890 C 267.048 4.49421 -0.18466 0
M  V30 2891 C 268.367 3.9968 1.84238 0
M  V30 2892 H 265.486 0.71641 0.172992 0
M  V30 2893 H 268.128 1.8832 -0.252079 0
M  V30 2894 H 266.278 3.54428 1.59101 0
M  V30 2895 H 267.95 4.53924 -0.821621 0
M  V30 2896 H 266.193 4.25573 -0.840837 0
M  V30 2897 H 266.864 5.51644 0.198317 0
M  V30 2898 H 269.34 3.94723 1.31655 0
M  V30 2899 H 268.216 5.04941 2.15234 0
M  V30 2900 H 268.477 3.43226 2.78654 0
M  V30 2901 N 267.536 -0.106894 1.57237 0
M  V30 2902 C 268.766 -0.825191 1.89405 0
M  V30 2903 C 269.174 -1.73374 0.757496 0
M  V30 2904 O 268.517 -1.81552 -0.280115 0
M  V30 2905 C 268.579 -1.70102 3.1671 0
M  V30 2906 C 268.243 -0.965523 4.46684 0
M  V30 2907 C 269.24 -0.300741 5.19029 0
M  V30 2908 C 266.925 -0.943105 4.93367 0
M  V30 2909 C 268.919 0.376622 6.36286 0
M  V30 2910 C 266.606 -0.261949 6.10538 0
M  V30 2911 C 267.604 0.396748 6.81847 0
M  V30 2912 O 267.292 1.06701 7.96787 0
M  V30 2913 H 267.024 -0.241852 0.631255 0
M  V30 2914 H 269.578 -0.0921491 2.05193 0
M  V30 2915 H 267.808 -2.47601 2.97036 0
M  V30 2916 H 269.497 -2.29483 3.34802 0
M  V30 2917 H 270.263 -0.309599 4.84011 0
M  V30 2918 H 266.142 -1.44524 4.3776 0
M  V30 2919 H 269.686 0.891334 6.91882 0
M  V30 2920 H 265.583 -0.250896 6.45012 0
M  V30 2921 H 266.351 0.972707 8.127 0
M  V30 2922 N 269.014 -1.53014 -0.377408 0
M  V30 2923 C 270.291 -1.59215 -1.13622 0
M  V30 2924 C 270.671 -0.392407 -2.07421 0
M  V30 2925 O 270.019 0.618342 -2.19975 0
M  V30 2926 C 270.229 -2.93669 -1.88573 0
M  V30 2927 C 271.577 -3.47822 -2.43526 0
M  V30 2928 O 272.601 -2.9562 -1.98715 0
M  V30 2929 O 271.46 -4.39055 -3.25412 0
M  V30 2930 H 268.554 -0.642625 -0.52054 0
M  V30 2931 H 271.1 -1.65353 -0.381625 0
M  V30 2932 H 269.872 -3.7243 -1.20048 0
M  V30 2933 H 269.495 -2.90968 -2.70968 0
M  V30 2934 N 270.492 0.636531 -1.44174 0
M  V30 2935 C 271.455 1.73063 -1.50273 0
M  V30 2936 C 272.455 1.56113 -0.385397 0
M  V30 2937 O 273.645 1.61707 -0.64781 0
M  V30 2938 C 270.777 3.12096 -1.37145 0
M  V30 2939 H 271.97 1.69031 -2.47727 0
M  V30 2940 H 269.523 0.849706 -1.31186 0
M  V30 2941 H 270.258 3.21728 -0.407636 0
M  V30 2942 H 270.043 3.25805 -2.18159 0
M  V30 2943 H 271.533 3.91846 -1.44382 0
M  V30 2944 N 271.97 1.30982 0.876444 0
M  V30 2945 C 273.195 1.23373 1.66715 0
M  V30 2946 C 273.62 -0.19885 1.87046 0
M  V30 2947 O 272.978 -1.1427 1.40756 0
M  V30 2948 C 273.026 1.97644 3.01611 0
M  V30 2949 O 272.13 1.30935 3.91062 0
M  V30 2950 H 271.471 0.426279 0.509099 0
M  V30 2951 H 274.001 1.72944 1.09323 0
M  V30 2952 H 274.011 2.06992 3.51594 0
M  V30 2953 H 272.686 3.01829 2.86133 0
M  V30 2954 H 271.263 1.29996 3.49507 0
M  V30 2955 N 273.449 -1.08991 1.13837 0
M  V30 2956 C 274.396 -2.15748 0.819835 0
M  V30 2957 C 275.366 -1.64636 -0.220026 0
M  V30 2958 O 276.551 -1.90582 -0.0912757 0
M  V30 2959 C 273.691 -3.4382 0.296913 0
M  V30 2960 C 272.804 -4.0881 1.39636 0
M  V30 2961 C 271.939 -5.24655 0.831314 0
M  V30 2962 C 270.978 -5.81575 1.90886 0
M  V30 2963 N 270.115 -6.88774 1.36142 0
M  V30 2964 H 274.955 -2.42338 1.73426 0
M  V30 2965 H 272.492 -1.18935 0.865613 0
M  V30 2966 H 274.45 -4.17193 -0.0244339 0
M  V30 2967 H 273.08 -3.17535 -0.580628 0
M  V30 2968 H 272.132 -3.33258 1.83422 0
M  V30 2969 H 273.444 -4.47141 2.21058 0
M  V30 2970 H 272.598 -6.04942 0.461515 0
M  V30 2971 H 271.337 -4.87698 -0.013932 0
M  V30 2972 H 270.342 -4.99946 2.28767 0
M  V30 2973 H 271.567 -6.20592 2.75758 0
M  V30 2974 H 269.513 -6.53788 0.538254 0
M  V30 2975 H 269.43 -7.25898 2.11208 0
M  V30 2976 H 270.698 -7.72806 1.01933 0
M  V30 2977 N 274.927 -0.932562 -1.27047 0
M  V30 2978 C 275.89 -0.440064 -2.24936 0
M  V30 2979 C 276.89 0.444071 -1.54547 0
M  V30 2980 O 278.08 0.244465 -1.72476 0
M  V30 2981 C 275.212 0.36678 -3.38921 0
M  V30 2982 H 276.405 -1.305 -2.70018 0
M  V30 2983 H 273.958 -0.713707 -1.39054 0
M  V30 2984 H 274.693 1.25033 -2.99228 0
M  V30 2985 H 274.478 -0.267204 -3.91188 0
M  V30 2986 H 275.968 0.701567 -4.11665 0
M  V30 2987 N 276.405 1.4127 -0.698611 0
M  V30 2988 C 277.335 2.33447 -0.049629 0
M  V30 2989 C 278.316 1.51982 0.763898 0
M  V30 2990 O 279.501 1.80509 0.716257 0
M  V30 2991 C 276.631 3.35828 0.885267 0
M  V30 2992 C 275.585 4.27627 0.178613 0
M  V30 2993 C 274.911 5.20406 1.22807 0
M  V30 2994 C 276.211 5.13459 -0.956933 0
M  V30 2995 H 277.905 2.87966 -0.81951 0
M  V30 2996 H 275.451 1.38461 -0.395538 0
M  V30 2997 H 277.404 3.9924 1.34854 0
M  V30 2998 H 276.128 2.79666 1.68685 0
M  V30 2999 H 274.787 3.65643 -0.26466 0
M  V30 3000 H 274.435 4.60558 2.02226 0
M  V30 3001 H 274.135 5.82661 0.760239 0
M  V30 3002 H 275.659 5.86695 1.69179 0
M  V30 3003 H 277.073 5.70421 -0.573805 0
M  V30 3004 H 275.47 5.8467 -1.35205 0
M  V30 3005 H 276.54 4.50443 -1.79524 0
M  V30 3006 N 277.883 0.443576 1.51229 0
M  V30 3007 C 279.111 -0.11929 2.06556 0
M  V30 3008 C 279.526 -1.35921 1.31038 0
M  V30 3009 O 278.883 -1.78675 0.371704 0
M  V30 3010 C 278.934 -0.435228 3.5887 0
M  V30 3011 O 278.655 0.755486 4.31537 0
M  V30 3012 C 280.156 -1.04808 4.30732 0
M  V30 3013 H 277.376 -0.0051584 0.67098 0
M  V30 3014 H 279.92 0.624453 1.94733 0
M  V30 3015 H 278.075 -1.12887 3.70588 0
M  V30 3016 H 278.489 0.483491 5.22267 0
M  V30 3017 H 279.963 -1.2191 5.3837 0
M  V30 3018 H 280.44 -2.03081 3.89429 0
M  V30 3019 H 281.046 -0.393637 4.23474 0
M  V30 3020 N 279.361 -1.56624 0.175154 0
M  V30 3021 C 280.608 -1.96999 -0.468811 0
M  V30 3022 C 280.936 -1.06129 -1.62994 0
M  V30 3023 O 280.191 -0.0961771 -1.95464 0
M  V30 3024 C 280.49 -3.43419 -0.989864 0
M  V30 3025 C 280.156 -4.50866 0.0557687 0
M  V30 3026 C 278.818 -4.79975 0.343134 0
M  V30 3027 C 281.17 -5.15551 0.765308 0
M  V30 3028 C 278.498 -5.71066 1.34536 0
M  V30 3029 C 280.85 -6.07724 1.75654 0
M  V30 3030 C 279.514 -6.35199 2.05132 0
M  V30 3031 H 278.784 -0.720869 -0.17155 0
M  V30 3032 H 281.431 -1.89616 0.267924 0
M  V30 3033 H 279.736 -3.47772 -1.80449 0
M  V30 3034 H 281.433 -3.72002 -1.49719 0
M  V30 3035 H 278.023 -4.28229 -0.178381 0
M  V30 3036 H 282.207 -4.9317 0.556513 0
M  V30 3037 H 277.463 -5.90635 1.57988 0
M  V30 3038 H 281.637 -6.56912 2.31169 0
M  V30 3039 H 279.264 -7.05584 2.8294 0
M  V30 3040 N 280.839 0.0985539 -1.57292 0
M  V30 3041 C 282.255 0.45267 -1.53046 0
M  V30 3042 C 282.455 1.80713 -0.891342 0
M  V30 3043 O 281.511 2.4785 -0.482375 0
M  V30 3044 C 282.824 0.418341 -2.97776 0
M  V30 3045 C 284.372 0.500443 -3.08973 0
M  V30 3046 C 284.847 0.496297 -4.55303 0
M  V30 3047 N 286.338 0.557151 -4.59837 0
M  V30 3048 C 287.073 0.575726 -5.70502 0
M  V30 3049 N 286.569 0.550714 -6.90608 0
M  V30 3050 N 288.362 0.620277 -5.58667 0
M  V30 3051 H 280.513 -0.788673 -1.97215 0
M  V30 3052 H 282.776 -0.293188 -0.901524 0
M  V30 3053 H 282.482 -0.509659 -3.47988 0
M  V30 3054 H 282.356 1.2386 -3.56284 0
M  V30 3055 H 284.743 1.41886 -2.58751 0
M  V30 3056 H 284.824 -0.347894 -2.53423 0
M  V30 3057 H 284.468 -0.418162 -5.06176 0
M  V30 3058 H 284.398 1.3618 -5.08687 0
M  V30 3059 H 286.889 0.581816 -3.73394 0
M  V30 3060 H 287.202 0.568075 -7.70709 0
M  V30 3061 H 285.547 0.517816 -6.93068 0
M  V30 3062 H 288.738 0.637322 -4.63741 0
M  V30 3063 H 288.911 0.631283 -6.44918 0
M  V30 3064 N 282.317 1.53212 0.369288 0
M  V30 3065 C 283.25 1.74166 1.4745 0
M  V30 3066 C 284.228 0.589923 1.51521 0
M  V30 3067 O 285.412 0.822078 1.69629 0
M  V30 3068 C 282.539 1.81711 2.8583 0
M  V30 3069 C 281.585 3.03649 2.99499 0
M  V30 3070 S 282.418 4.63242 2.6864 0
M  V30 3071 C 283.574 4.7363 4.09177 0
M  V30 3072 H 283.807 2.67636 1.29454 0
M  V30 3073 H 281.34 1.43754 0.563396 0
M  V30 3074 H 283.298 1.86743 3.65564 0
M  V30 3075 H 281.959 0.89299 3.01139 0
M  V30 3076 H 281.152 3.05526 4.00836 0
M  V30 3077 H 280.754 2.9671 2.27683 0
M  V30 3078 H 283.046 4.53456 5.03372 0
M  V30 3079 H 283.989 5.75682 4.12306 0
M  V30 3080 H 284.397 4.02295 3.96004 0
M  V30 3081 N 283.795 -0.628877 1.44509 0
M  V30 3082 C 284.758 -1.72263 1.51188 0
M  V30 3083 C 285.758 -1.55907 0.39367 0
M  V30 3084 O 286.948 -1.61361 0.656377 0
M  V30 3085 C 284.08 -3.11365 1.38798 0
M  V30 3086 H 285.273 -1.67714 2.4862 0
M  V30 3087 H 282.826 -0.842737 1.31634 0
M  V30 3088 H 283.561 -3.21507 0.424693 0
M  V30 3089 H 283.346 -3.24644 2.19884 0
M  V30 3090 H 284.836 -3.91075 1.46458 0
M  V30 3091 N 285.273 -1.31445 -0.869486 0
M  V30 3092 C 286.236 -1.19094 -1.9583 0
M  V30 3093 C 287.236 -0.117906 -1.60367 0
M  V30 3094 O 288.426 -0.367208 -1.70286 0
M  V30 3095 C 285.558 -0.828165 -3.30688 0
M  V30 3096 H 286.751 -2.15842 -2.08212 0
M  V30 3097 H 284.304 -1.15063 -1.05784 0
M  V30 3098 H 285.039 0.138142 -3.24006 0
M  V30 3099 H 284.824 -1.6038 -3.578 0
M  V30 3100 H 286.314 -0.765658 -4.10521 0
M  V30 3101 N 286.751 1.08385 -1.14413 0
M  V30 3102 C 288.167 1.32844 -0.884563 0
M  V30 3103 C 288.367 1.95841 0.474181 0
M  V30 3104 O 287.423 2.21158 1.21842 0
M  V30 3105 C 288.736 2.22978 -2.01745 0
M  V30 3106 C 290.284 2.36458 -2.05077 0
M  V30 3107 C 290.759 3.29934 -3.1766 0
M  V30 3108 N 292.25 3.37511 -3.17239 0
M  V30 3109 C 292.985 4.09871 -4.0099 0
M  V30 3110 N 292.481 4.84936 -4.94781 0
M  V30 3111 N 294.274 4.05704 -3.89051 0
M  V30 3112 H 286.425 0.658756 -2.01926 0
M  V30 3113 H 288.688 0.352821 -0.879899 0
M  V30 3114 H 288.394 1.83934 -2.99769 0
M  V30 3115 H 288.268 3.23441 -1.94077 0
M  V30 3116 H 290.655 2.7476 -1.0766 0
M  V30 3117 H 290.736 1.35736 -2.16816 0
M  V30 3118 H 290.38 2.92352 -4.15322 0
M  V30 3119 H 290.31 4.30584 -3.03158 0
M  V30 3120 H 292.801 2.83996 -2.49308 0
M  V30 3121 H 293.114 5.37612 -5.55151 0
M  V30 3122 H 291.459 4.83988 -4.98779 0
M  V30 3123 H 294.65 3.46167 -3.15097 0
M  V30 3124 H 294.823 4.61834 -4.54547 0
M  V30 3125 N 288.23 0.939286 1.26551 0
M  V30 3126 C 289.479 0.581601 1.93133 0
M  V30 3127 C 289.792 -0.883224 1.74524 0
M  V30 3128 O 290.998 -1.3502 2.35546 0
M  V30 3129 C 289.454 0.989425 3.46032 0
M  V30 3130 C 289.062 2.47573 3.73379 0
M  V30 3131 C 290.806 0.703544 4.18629 0
M  V30 3132 C 288.713 2.82235 5.19709 0
M  V30 3133 H 287.643 0.213803 0.723052 0
M  V30 3134 H 290.294 1.14167 1.4366 0
M  V30 3135 H 288.676 0.357902 3.94379 0
M  V30 3136 H 289.85 3.15614 3.35744 0
M  V30 3137 H 288.165 2.73471 3.1401 0
M  V30 3138 H 290.762 0.938869 5.26393 0
M  V30 3139 H 291.105 -0.359639 4.14744 0
M  V30 3140 H 291.638 1.2947 3.76141 0
M  V30 3141 H 288.377 3.87509 5.28694 0
M  V30 3142 H 287.897 2.18854 5.58447 0
M  V30 3143 H 289.576 2.70599 5.87695 0
M  V30 3144 N 289.708 -1.40897 0.706093 0
M  V30 3145 C 290.638 -2.33418 0.0620085 0
M  V30 3146 C 291.619 -1.52385 -0.755827 0
M  V30 3147 O 292.804 -1.80886 -0.706674 0
M  V30 3148 C 289.934 -3.36293 -0.867445 0
M  V30 3149 C 288.888 -4.27716 -0.155932 0
M  V30 3150 C 288.214 -5.2105 -1.20046 0
M  V30 3151 C 289.514 -5.12944 0.984149 0
M  V30 3152 H 291.208 -2.87527 0.83477 0
M  V30 3153 H 288.754 -1.38249 0.402875 0
M  V30 3154 H 290.707 -3.99949 -1.32735 0
M  V30 3155 H 289.431 -2.80556 -1.67199 0
M  V30 3156 H 288.09 -3.65498 0.284047 0
M  V30 3157 H 287.738 -4.61624 -1.99781 0
M  V30 3158 H 287.438 -5.83056 -0.729328 0
M  V30 3159 H 288.962 -5.87584 -1.66066 0
M  V30 3160 H 290.376 -5.70109 0.604048 0
M  V30 3161 H 288.773 -5.83945 1.38304 0
M  V30 3162 H 289.843 -4.49485 1.81911 0
M  V30 3163 N 291.186 -0.45159 -1.50991 0
M  V30 3164 C 292.116 0.342898 -2.30969 0
M  V30 3165 C 293.097 1.00815 -1.37005 0
M  V30 3166 O 294.282 1.00907 -1.65926 0
M  V30 3167 C 291.412 1.43637 -3.16205 0
M  V30 3168 C 290.366 0.893818 -4.18563 0
M  V30 3169 C 289.692 2.08411 -4.92411 0
M  V30 3170 C 290.992 -0.0815568 -5.22236 0
M  V30 3171 H 292.686 -0.324556 -2.97636 0
M  V30 3172 H 290.232 -0.157531 -1.43136 0
M  V30 3173 H 292.185 1.9995 -3.70942 0
M  V30 3174 H 290.909 2.13232 -2.47386 0
M  V30 3175 H 289.568 0.352798 -3.64898 0
M  V30 3176 H 289.216 2.76658 -4.20082 0
M  V30 3177 H 288.916 1.72741 -5.61636 0
M  V30 3178 H 290.44 2.65251 -5.49976 0
M  V30 3179 H 291.854 0.391742 -5.7196 0
M  V30 3180 H 290.251 -0.351551 -5.99069 0
M  V30 3181 H 291.321 -1.01374 -4.74185 0
M  V30 3182 N 292.664 1.56529 -0.183458 0
M  V30 3183 C 293.912 1.96855 0.457452 0
M  V30 3184 C 294.233 1.07104 1.62953 0
M  V30 3185 O 293.503 0.139887 1.954 0
M  V30 3186 H 292.083 0.72693 0.171992 0
M  V30 3187 H 294.745 1.93056 -0.267476 0
M  V30 3188 H 293.841 3.01423 0.809368 0
M  V30 3189 N 294.142 -0.090211 1.57342 0
M  V30 3190 C 295.072 -1.10976 2.05443 0
M  V30 3191 C 296.053 -1.41482 0.944284 0
M  V30 3192 O 297.238 -1.51428 1.21586 0
M  V30 3193 C 294.368 -2.42831 2.48295 0
M  V30 3194 C 293.322 -2.26721 3.63018 0
M  V30 3195 C 292.648 -3.63796 3.91863 0
M  V30 3196 C 293.948 -1.7037 4.93732 0
M  V30 3197 H 295.642 -0.709564 2.9087 0
M  V30 3198 H 293.188 -0.339874 1.39932 0
M  V30 3199 H 295.141 -3.14431 2.80555 0
M  V30 3200 H 293.865 -2.84795 1.59873 0
M  V30 3201 H 292.524 -1.57565 3.31012 0
M  V30 3202 H 292.172 -4.03297 3.00601 0
M  V30 3203 H 291.872 -3.53861 4.69101 0
M  V30 3204 H 293.396 -4.36855 4.26603 0
M  V30 3205 H 294.81 -2.31816 5.24342 0
M  V30 3206 H 293.207 -1.71181 5.75167 0
M  V30 3207 H 294.277 -0.663542 4.80339 0
M  V30 3208 N 295.62 -1.53406 -0.361157 0
M  V30 3209 C 297.036 -1.43277 -0.703124 0
M  V30 3210 C 297.236 -0.575384 -1.9311 0
M  V30 3211 O 296.292 -0.0595362 -2.5243 0
M  V30 3212 C 297.605 -2.8653 -0.9122 0
M  V30 3213 C 299.153 -2.96191 -1.01193 0
M  V30 3214 C 299.628 -4.40514 -1.25345 0
M  V30 3215 N 301.119 -4.43962 -1.32105 0
M  V30 3216 C 301.854 -5.52746 -1.5251 0
M  V30 3217 N 301.35 -6.71567 -1.70203 0
M  V30 3218 N 303.143 -5.40331 -1.54916 0
M  V30 3219 H 295.294 -2.07654 0.446475 0
M  V30 3220 H 297.557 -0.937944 0.137715 0
M  V30 3221 H 297.263 -3.51605 -0.0816414 0
M  V30 3222 H 297.137 -3.30441 -1.81903 0
M  V30 3223 H 299.524 -2.31266 -1.83303 0
M  V30 3224 H 299.605 -2.55667 -0.0823929 0
M  V30 3225 H 299.249 -5.06014 -0.437346 0
M  V30 3226 H 299.179 -4.78614 -2.19627 0
M  V30 3227 H 301.67 -3.58332 -1.20028 0
M  V30 3228 H 301.983 -7.50241 -1.85359 0
M  V30 3229 H 300.328 -6.74545 -1.67373 0
M  V30 3230 H 303.519 -4.46465 -1.40663 0
M  V30 3231 H 303.692 -6.25173 -1.70477 0
M  V30 3232 N 297.098 0.621204 -1.44841 0
M  V30 3233 C 298.028 1.74366 -1.55303 0
M  V30 3234 C 299.009 1.65199 -0.405385 0
M  V30 3235 O 300.194 1.83807 -0.626787 0
M  V30 3236 C 297.324 3.12931 -1.50637 0
M  V30 3237 C 296.278 3.36896 -2.63979 0
M  V30 3238 C 295.604 4.75594 -2.44366 0
M  V30 3239 C 296.904 3.28483 -4.06074 0
M  V30 3240 H 298.598 1.65867 -2.49256 0
M  V30 3241 H 296.144 0.796558 -1.19962 0
M  V30 3242 H 298.097 3.9124 -1.56555 0
M  V30 3243 H 296.821 3.22237 -0.532057 0
M  V30 3244 H 295.48 2.60972 -2.57467 0
M  V30 3245 H 295.128 4.81616 -1.45105 0
M  V30 3246 H 294.828 4.92586 -3.20364 0
M  V30 3247 H 296.352 5.5612 -2.52117 0
M  V30 3248 H 297.766 3.96684 -4.13902 0
M  V30 3249 H 296.163 3.57008 -4.82354 0
M  V30 3250 H 297.233 2.26133 -4.28943 0
M  V30 3251 N 298.576 1.31904 0.862503 0
M  V30 3252 C 299.853 1.12644 1.59908 0
M  V30 3253 C 300.233 -0.316104 2.0872 0
M  V30 3254 O 299.581 -1.31145 1.87118 0
M  V30 3255 C 299.791 2.1472 2.7513 0
M  V30 3256 C 301.139 2.47637 3.44907 0
M  V30 3257 O 302.163 2.13205 2.85346 0
M  V30 3258 O 301.022 3.06632 4.52371 0
M  V30 3259 H 298.116 0.43416 0.703871 0
M  V30 3260 H 300.662 1.43408 0.907314 0
M  V30 3261 H 299.434 3.1172 2.3653 0
M  V30 3262 H 299.057 1.84905 3.51989 0
M  V30 3263 N 300.054 -1.07777 1.14986 0
M  V30 3264 C 300.964 -2.18404 0.856546 0
M  V30 3265 C 301.98 -1.73211 -0.165485 0
M  V30 3266 O 303.156 -2.01399 0.00755219 0
M  V30 3267 C 300.221 -3.44977 0.34526 0
M  V30 3268 C 299.282 -4.0476 1.43065 0
M  V30 3269 C 298.515 -5.25291 0.943663 0
M  V30 3270 O 298.738 -5.70004 -0.212426 0
M  V30 3271 O 297.672 -5.76638 1.72547 0
M  V30 3272 H 301.498 -2.45978 1.78125 0
M  V30 3273 H 299.083 -1.17033 0.928631 0
M  V30 3274 H 300.965 -4.21348 0.0663671 0
M  V30 3275 H 299.64 -3.18965 -0.551631 0
M  V30 3276 H 298.547 -3.29949 1.76309 0
M  V30 3277 H 299.88 -4.35035 2.30229 0
M  V30 3278 N 301.532 -0.945985 -1.26051 0
M  V30 3279 C 302.495 -0.463897 -2.24456 0
M  V30 3280 C 303.495 0.427655 -1.55009 0
M  V30 3281 O 304.685 0.226157 -1.72726 0
M  V30 3282 C 301.817 0.330812 -3.39291 0
M  V30 3283 H 303.01 -1.33357 -2.68619 0
M  V30 3284 H 300.563 -0.728416 -1.38289 0
M  V30 3285 H 301.298 1.21852 -3.00537 0
M  V30 3286 H 301.083 -0.308679 -3.90883 0
M  V30 3287 H 302.573 0.657865 -4.12386 0
M  V30 3288 N 303.011 1.40521 -0.713556 0
M  V30 3289 C 303.943 2.29191 -0.0203126 0
M  V30 3290 C 304.956 1.45723 0.725864 0
M  V30 3291 O 306.145 1.69033 0.573581 0
M  V30 3292 C 303.245 3.2395 0.995486 0
M  V30 3293 C 302.418 4.36262 0.315256 0
M  V30 3294 C 301.477 5.11474 1.23616 0
M  V30 3295 O 300.503 5.64606 0.721719 0
M  V30 3296 N 301.705 5.20638 2.56743 0
M  V30 3297 H 304.47 2.89327 -0.781652 0
M  V30 3298 H 302.031 1.51869 -0.561022 0
M  V30 3299 H 304.023 3.71137 1.61368 0
M  V30 3300 H 302.593 2.64995 1.6582 0
M  V30 3301 H 301.813 3.91228 -0.483106 0
M  V30 3302 H 303.101 5.08558 -0.157004 0
M  V30 3303 H 302.499 4.7895 3.01037 0
M  V30 3304 H 301.056 5.71339 3.13712 0
M  V30 3305 N 304.489 0.459591 1.5075 0
M  V30 3306 C 305.729 -0.09824 2.04164 0
M  V30 3307 C 306.093 -1.3801 1.33481 0
M  V30 3308 O 307.294 -2.01959 1.77387 0
M  V30 3309 C 305.565 -0.289467 3.56226 0
M  V30 3310 S 307.124 -0.807507 4.31306 0
M  V30 3311 H 303.942 -0.0213845 0.710678 0
M  V30 3312 H 306.544 0.624098 1.85271 0
M  V30 3313 H 305.248 0.649461 4.05229 0
M  V30 3314 H 304.779 -1.03825 3.79452 0
M  V30 3315 H 306.794 -2.0824 4.50389 0
M  V30 3316 N 305.967 -1.56429 0.191757 0
M  V30 3317 C 306.93 -2.17707 -0.716688 0
M  V30 3318 C 307.93 -1.13061 -1.14341 0
M  V30 3319 O 309.12 -1.38464 -1.05704 0
M  V30 3320 C 306.252 -2.77644 -1.97804 0
M  V30 3321 H 307.445 -2.99342 -0.1829 0
M  V30 3322 H 304.998 -1.56193 -0.0578566 0
M  V30 3323 H 305.733 -1.99799 -2.55443 0
M  V30 3324 H 305.518 -3.54246 -1.68083 0
M  V30 3325 H 307.008 -3.24708 -2.62592 0
M  V30 3326 N 307.445 0.0818655 -1.57387 0
M  V30 3327 C 308.673 0.796108 -1.9097 0
M  V30 3328 C 309.088 1.71626 -0.786757 0
M  V30 3329 O 308.445 1.80908 0.240513 0
M  V30 3330 C 308.496 1.59829 -3.24248 0
M  V30 3331 O 308.217 0.715131 -4.32224 0
M  V30 3332 C 309.718 2.41442 -3.7178 0
M  V30 3333 H 306.938 0.22691 -0.631469 0
M  V30 3334 H 309.482 0.0551439 -2.04426 0
M  V30 3335 H 307.637 2.29163 -3.12351 0
M  V30 3336 H 308.051 1.27205 -5.08841 0
M  V30 3337 H 309.525 2.932 -4.67694 0
M  V30 3338 H 310.002 3.2051 -3.00283 0
M  V30 3339 H 310.608 1.77283 -3.86589 0
M  V30 3340 N 308.923 1.53595 0.353017 0
M  V30 3341 C 309.853 1.83902 1.43883 0
M  V30 3342 C 310.834 0.693421 1.55324 0
M  V30 3343 O 312.019 0.944452 1.69687 0
M  V30 3344 C 309.149 2.04016 2.8106 0
M  V30 3345 C 308.103 3.19814 2.84434 0
M  V30 3346 C 307.429 3.25244 4.24406 0
M  V30 3347 C 308.729 4.58133 2.50822 0
M  V30 3348 H 310.423 2.74835 1.1877 0
M  V30 3349 H 307.969 1.32242 0.569917 0
M  V30 3350 H 309.922 2.238 3.57059 0
M  V30 3351 H 308.646 1.09804 3.07588 0
M  V30 3352 H 307.305 2.9987 2.10887 0
M  V30 3353 H 306.953 2.28646 4.48029 0
M  V30 3354 H 306.653 4.03054 4.27576 0
M  V30 3355 H 308.177 3.47228 5.0226 0
M  V30 3356 H 309.591 4.77995 3.16534 0
M  V30 3357 H 307.988 5.38276 2.6529 0
M  V30 3358 H 309.058 4.62387 1.46034 0
M  V30 3359 N 310.401 -0.613514 1.45168 0
M  V30 3360 C 311.364 -1.7065 1.53007 0
M  V30 3361 C 312.364 -1.5548 0.410184 0
M  V30 3362 O 313.554 -1.60656 0.673455 0
M  V30 3363 C 310.686 -3.09875 1.42093 0
M  V30 3364 H 311.879 -1.65068 2.50385 0
M  V30 3365 H 309.432 -0.828728 1.32521 0
M  V30 3366 H 310.167 -3.21039 0.458769 0
M  V30 3367 H 309.952 -3.22293 2.23315 0
M  V30 3368 H 311.442 -3.895 1.50598 0
M  V30 3369 N 311.879 -1.3236 -0.855495 0
M  V30 3370 C 313.295 -1.11332 -1.14356 0
M  V30 3371 C 313.495 0.106751 -2.01217 0
M  V30 3372 O 312.551 0.791891 -2.39761 0
M  V30 3373 C 313.864 -2.39237 -1.82171 0
M  V30 3374 C 315.412 -2.44986 -1.9481 0
M  V30 3375 C 315.887 -3.7281 -2.66039 0
M  V30 3376 N 317.378 -3.73787 -2.73565 0
M  V30 3377 C 318.113 -4.69394 -3.29327 0
M  V30 3378 N 317.609 -5.75367 -3.85907 0
M  V30 3379 N 319.402 -4.56893 -3.27423 0
M  V30 3380 H 311.553 -2.10586 -0.277027 0
M  V30 3381 H 313.816 -0.929701 -0.185364 0
M  V30 3382 H 313.522 -3.28431 -1.25802 0
M  V30 3383 H 313.396 -2.50134 -2.82335 0
M  V30 3384 H 315.783 -1.56252 -2.50338 0
M  V30 3385 H 315.864 -2.38043 -0.936448 0
M  V30 3386 H 315.508 -4.61918 -2.11174 0
M  V30 3387 H 315.438 -3.77024 -3.67642 0
M  V30 3388 H 317.929 -2.97189 -2.33424 0
M  V30 3389 H 318.242 -6.44378 -4.26611 0
M  V30 3390 H 316.587 -5.79123 -3.84242 0
M  V30 3391 H 319.778 -3.73269 -2.82467 0
M  V30 3392 H 319.951 -5.31577 -3.7058 0
M  V30 3393 N 313.357 1.07166 -1.15556 0
M  V30 3394 C 314.585 1.83514 -0.955519 0
M  V30 3395 C 315 1.82163 0.49621 0
M  V30 3396 O 314.357 1.23441 1.34419 0
M  V30 3397 C 314.408 3.30515 -1.46432 0
M  V30 3398 O 314.129 3.31937 -2.85918 0
M  V30 3399 C 315.63 4.23625 -1.30603 0
M  V30 3400 H 312.85 0.578926 -0.339244 0
M  V30 3401 H 315.394 1.35265 -1.53374 0
M  V30 3402 H 313.549 3.76106 -0.928584 0
M  V30 3403 H 313.963 4.23794 -3.09029 0
M  V30 3404 H 315.437 5.24831 -1.71047 0
M  V30 3405 H 315.914 4.38485 -0.250441 0
M  V30 3406 H 316.52 3.83871 -1.83094 0
M  V30 3407 N 314.835 0.952656 1.25548 0
M  V30 3408 C 316.082 0.606373 1.93208 0
M  V30 3409 C 316.41 -0.85631 1.74636 0
M  V30 3410 O 315.665 -1.62951 1.08376 0
M  V30 3411 C 315.964 0.908818 3.45652 0
M  V30 3412 C 315.63 2.35722 3.84378 0
M  V30 3413 C 314.292 2.75312 3.9466 0
M  V30 3414 C 316.644 3.29793 4.03591 0
M  V30 3415 C 313.972 4.08047 4.21562 0
M  V30 3416 C 316.324 4.62138 4.31985 0
M  V30 3417 C 314.988 5.01528 4.40484 0
M  V30 3418 H 314.258 0.221888 0.706998 0
M  V30 3419 H 316.905 1.20132 1.49133 0
M  V30 3420 H 315.21 0.231456 3.91116 0
M  V30 3421 H 316.907 0.619498 3.96186 0
M  V30 3422 H 313.497 2.04017 3.76928 0
M  V30 3423 H 317.681 3.00397 3.95064 0
M  V30 3424 H 312.937 4.38212 4.26357 0
M  V30 3425 H 317.111 5.35012 4.45797 0
M  V30 3426 H 314.738 6.04406 4.61083 0
M  V30 3427 N 316.313 -1.40141 0.720998 0
M  V30 3428 C 317.223 -2.34486 0.0731031 0
M  V30 3429 C 318.239 -1.57587 -0.737723 0
M  V30 3430 O 319.415 -1.89949 -0.669429 0
M  V30 3431 C 316.48 -3.36528 -0.833656 0
M  V30 3432 C 315.541 -4.29298 -0.0121673 0
M  V30 3433 C 314.774 -5.26466 -0.875742 0
M  V30 3434 O 314.997 -5.29745 -2.11485 0
M  V30 3435 O 313.931 -6.01092 -0.31185 0
M  V30 3436 H 317.757 -2.9152 0.851444 0
M  V30 3437 H 315.342 -1.41427 0.481527 0
M  V30 3438 H 317.224 -3.99093 -1.35289 0
M  V30 3439 H 315.899 -2.81899 -1.59105 0
M  V30 3440 H 314.806 -3.70001 0.552262 0
M  V30 3441 H 316.139 -4.87094 0.707129 0
M  V30 3442 N 317.792 -0.46758 -1.50504 0
M  V30 3443 C 318.724 0.364655 -2.26281 0
M  V30 3444 C 319.737 0.960151 -1.31472 0
M  V30 3445 O 320.926 0.849153 -1.57008 0
M  V30 3446 C 318.026 1.52509 -3.02645 0
M  V30 3447 C 317.199 1.04302 -4.24782 0
M  V30 3448 C 316.258 2.07709 -4.8347 0
M  V30 3449 O 315.284 1.65913 -5.44483 0
M  V30 3450 N 316.486 3.40485 -4.70159 0
M  V30 3451 H 319.251 -0.28495 -2.98342 0
M  V30 3452 H 316.812 -0.298163 -1.59131 0
M  V30 3453 H 318.804 2.21371 -3.38787 0
M  V30 3454 H 317.374 2.07945 -2.33404 0
M  V30 3455 H 316.594 0.180393 -3.93787 0
M  V30 3456 H 317.882 0.698798 -5.03978 0
M  V30 3457 H 317.28 3.77155 -4.21629 0
M  V30 3458 H 315.837 4.05156 -5.1058 0
M  V30 3459 N 319.27 1.56325 -0.20005 0
M  V30 3460 C 320.2 2.22318 0.713916 0
M  V30 3461 C 321.181 1.18788 1.21752 0
M  V30 3462 O 322.366 1.47309 1.26545 0
M  V30 3463 C 319.496 2.88639 1.93144 0
M  V30 3464 C 318.45 3.98457 1.56255 0
M  V30 3465 C 317.776 4.51967 2.85709 0
M  V30 3466 C 319.076 5.16612 0.768747 0
M  V30 3467 H 320.77 2.98952 0.163755 0
M  V30 3468 H 318.316 1.43792 0.0773219 0
M  V30 3469 H 320.269 3.33491 2.57608 0
M  V30 3470 H 318.993 2.09419 2.50621 0
M  V30 3471 H 317.652 3.54305 0.941471 0
M  V30 3472 H 317.3 3.69503 3.41287 0
M  V30 3473 H 317 5.26071 2.6177 0
M  V30 3474 H 318.524 4.99523 3.51154 0
M  V30 3475 H 319.938 5.57977 1.3166 0
M  V30 3476 H 318.335 5.96812 0.627286 0
M  V30 3477 H 319.405 4.84358 -0.229168 0
M  V30 3478 N 320.748 -0.0735177 1.57428 0
M  V30 3479 C 321.994 -0.774145 1.87443 0
M  V30 3480 C 322.327 -1.77311 0.792103 0
M  V30 3481 O 321.602 -1.93492 -0.197793 0
M  V30 3482 C 321.885 -1.48367 3.28115 0
M  V30 3483 C 321.738 -0.501227 4.46999 0
M  V30 3484 C 323.057 -2.429 3.66998 0
M  V30 3485 H 320.176 -0.279971 0.681752 0
M  V30 3486 H 322.818 -0.0373616 1.89963 0
M  V30 3487 H 320.968 -2.11171 3.26097 0
M  V30 3488 H 322.64 0.121468 4.6114 0
M  V30 3489 H 320.883 0.183593 4.33411 0
M  V30 3490 H 321.554 -1.03526 5.42205 0
M  V30 3491 H 324.03 -1.90175 3.70098 0
M  V30 3492 H 322.906 -2.89549 4.66318 0
M  V30 3493 H 323.167 -3.27628 2.96837 0
M  V30 3494 N 322.226 -1.5378 -0.344866 0
M  V30 3495 C 323.136 -1.84667 -1.4469 0
M  V30 3496 C 324.152 -0.736704 -1.57635 0
M  V30 3497 O 325.328 -1.02888 -1.73136 0
M  V30 3498 C 322.393 -2.04869 -2.79696 0
M  V30 3499 C 321.454 -3.28731 -2.76106 0
M  V30 3500 C 320.687 -3.4796 -4.04673 0
M  V30 3501 O 320.91 -2.71052 -5.01883 0
M  V30 3502 O 319.844 -4.41383 -4.09224 0
M  V30 3503 H 323.67 -2.78334 -1.21506 0
M  V30 3504 H 321.255 -1.39418 -0.536921 0
M  V30 3505 H 323.137 -2.19609 -3.59652 0
M  V30 3506 H 321.812 -1.14391 -3.02814 0
M  V30 3507 H 320.719 -3.19396 -1.94774 0
M  V30 3508 H 322.052 -4.19198 -2.57941 0
M  V30 3509 N 323.704 0.605807 -1.45491 0
M  V30 3510 C 324.652 1.73754 -1.54636 0
M  V30 3511 C 325.646 1.64207 -0.416219 0
M  V30 3512 O 326.852 1.69979 -0.592199 0
M  V30 3513 H 323.227 0.574073 -0.485741 0
M  V30 3514 H 325.198 1.63169 -2.49837 0
M  V30 3515 C 323.947 3.12135 -1.53189 0
M  V30 3516 H 323.27 3.20141 -2.39478 0
M  V30 3517 H 324.71 3.91147 -1.63645 0
M  V30 3518 C 323.169 3.35921 -0.256616 0
M  V30 3519 O 323.699 3.96194 0.662798 0
M  V30 3520 N 321.905 2.90204 -0.151751 0
M  V30 3521 H 321.452 2.41336 -0.90081 0
M  V30 3522 H 321.41 3.06492 0.700699 0
M  V30 3523 N 325.182 1.32811 0.848464 0
M  V30 3524 C 326.112 1.24882 1.97299 0
M  V30 3525 C 327.093 0.131357 1.69592 0
M  V30 3526 O 328.278 0.319553 1.91553 0
M  V30 3527 C 325.408 0.97746 3.33261 0
M  V30 3528 C 324.362 2.05682 3.75338 0
M  V30 3529 C 323.688 1.63777 5.09 0
M  V30 3530 C 324.988 3.47254 3.90144 0
M  V30 3531 H 326.682 2.18966 2.04191 0
M  V30 3532 H 324.228 1.05413 0.981029 0
M  V30 3533 H 326.181 0.908513 4.1149 0
M  V30 3534 H 324.905 0.000980011 3.266 0
M  V30 3535 H 323.564 2.11603 2.99366 0
M  V30 3536 H 323.212 0.648569 4.98801 0
M  V30 3537 H 322.912 2.36 5.38124 0
M  V30 3538 H 324.436 1.5833 5.89715 0
M  V30 3539 H 325.85 3.43888 4.58709 0
M  V30 3540 H 324.247 4.1788 4.30693 0
M  V30 3541 H 325.317 3.86462 2.92874 0
M  V30 3542 N 326.66 -1.06551 1.16123 0
M  V30 3543 C 327.907 -1.79302 0.941126 0
M  V30 3544 C 328.235 -1.87105 -0.531235 0
M  V30 3545 O 327.49 -1.35692 -1.41018 0
M  V30 3546 C 327.789 -3.23911 1.51052 0
M  V30 3547 C 327.455 -3.36193 3.00475 0
M  V30 3548 C 326.117 -3.39252 3.41265 0
M  V30 3549 C 328.469 -3.38326 3.96465 0
M  V30 3550 C 325.797 -3.42057 4.76669 0
M  V30 3551 C 328.149 -3.4267 5.31752 0
M  V30 3552 C 326.813 -3.4401 5.72026 0
M  V30 3553 H 326.083 -0.656111 0.344382 0
M  V30 3554 H 328.73 -1.25325 1.44796 0
M  V30 3555 H 327.035 -3.80723 0.925063 0
M  V30 3556 H 328.732 -3.78793 1.31593 0
M  V30 3557 H 325.322 -3.34516 2.6795 0
M  V30 3558 H 329.506 -3.35176 3.6602 0
M  V30 3559 H 324.762 -3.41398 5.07206 0
M  V30 3560 H 328.936 -3.43268 6.05921 0
M  V30 3561 H 326.563 -3.45937 6.76928 0
M  V30 3562 N 328.138 -0.959301 -1.25041 0
M  V30 3563 C 329.363 -0.633507 -1.97488 0
M  V30 3564 C 329.788 0.788555 -1.70773 0
M  V30 3565 O 329.146 1.53394 -0.966431 0
M  V30 3566 C 329.194 -0.904057 -3.49083 0
M  V30 3567 O 328.298 0.0147939 -4.12397 0
M  V30 3568 H 327.639 -0.240368 -0.618966 0
M  V30 3569 H 330.169 -1.28717 -1.59038 0
M  V30 3570 H 330.179 -0.832203 -3.99423 0
M  V30 3571 H 328.854 -1.94048 -3.67856 0
M  V30 3572 H 327.431 -0.109664 -3.72739 0
M  V30 3573 N 329.616 1.39756 -0.72842 0
M  V30 3574 C 330.546 2.33289 -0.0991354 0
M  V30 3575 C 331.527 1.53568 0.731489 0
M  V30 3576 O 332.712 1.81987 0.677807 0
M  V30 3577 C 329.842 3.3763 0.813834 0
M  V30 3578 C 328.796 4.2791 0.0878663 0
M  V30 3579 C 328.122 5.22894 1.11741 0
M  V30 3580 C 329.422 5.11314 -1.06563 0
M  V30 3581 H 331.116 2.86163 -0.880408 0
M  V30 3582 H 328.662 1.37591 -0.424819 0
M  V30 3583 H 330.615 4.0201 1.26355 0
M  V30 3584 H 329.339 2.83181 1.62715 0
M  V30 3585 H 327.998 3.65 -0.342159 0
M  V30 3586 H 327.646 4.64744 1.92412 0
M  V30 3587 H 327.346 5.84143 0.636477 0
M  V30 3588 H 328.87 5.90151 1.56697 0
M  V30 3589 H 330.284 5.69076 -0.694671 0
M  V30 3590 H 328.681 5.81671 -1.47577 0
M  V30 3591 H 329.751 4.46534 -1.89038 0
M  V30 3592 N 331.094 0.475555 1.50254 0
M  V30 3593 C 332.505 0.0215174 1.86688 0
M  V30 3594 C 332.856 -1.38467 1.39001 0
M  V30 3595 O 331.981 -2.02732 0.756894 0
M  V30 3596 C 332.576 0.0322715 3.38785 0
M  V30 3597 C 331.135 -0.366314 3.74613 0
M  V30 3598 C 330.282 0.415832 2.74164 0
M  V30 3599 H 333.233 0.689612 1.42934 0
M  V30 3600 H 333.254 -0.76889 3.7265 0
M  V30 3601 H 332.766 1.05584 3.73462 0
M  V30 3602 H 330.867 -1.39406 3.45538 0
M  V30 3603 H 330.98 -0.064555 4.79057 0
M  V30 3604 H 329.344 -0.131048 2.54363 0
M  V30 3605 H 330.127 1.43899 3.11686 0
M  V30 3606 N 332.573 -1.56217 0.208337 0
M  V30 3607 C 333.503 -2.22694 -0.702116 0
M  V30 3608 C 334.484 -1.19432 -1.2112 0
M  V30 3609 O 335.669 -1.47978 -1.25762 0
M  V30 3610 C 332.799 -2.8966 -1.9161 0
M  V30 3611 C 331.753 -3.9928 -1.5414 0
M  V30 3612 C 331.079 -4.53476 -2.83308 0
M  V30 3613 C 332.379 -5.17012 -0.741339 0
M  V30 3614 H 334.073 -2.99034 -0.147898 0
M  V30 3615 H 331.619 -1.43831 -0.0696951 0
M  V30 3616 H 333.572 -3.34852 -2.55836 0
M  V30 3617 H 332.296 -2.10746 -2.49507 0
M  V30 3618 H 330.955 -3.54799 -0.922668 0
M  V30 3619 H 330.603 -3.71308 -3.39322 0
M  V30 3620 H 330.303 -5.27451 -2.58976 0
M  V30 3621 H 331.827 -5.01378 -3.485 0
M  V30 3622 H 333.241 -5.58667 -1.28699 0
M  V30 3623 H 331.638 -5.97137 -0.595627 0
M  V30 3624 H 332.708 -4.8423 0.254851 0
M  V30 3625 N 334.051 0.0651679 -1.57465 0
M  V30 3626 C 335.328 0.79644 -1.78651 0
M  V30 3627 C 335.708 1.95454 -0.797566 0
M  V30 3628 O 335.056 2.27882 0.167946 0
M  V30 3629 C 335.266 1.26322 -3.25337 0
M  V30 3630 C 336.614 1.6939 -3.89348 0
M  V30 3631 O 337.638 1.35872 -3.29268 0
M  V30 3632 O 336.497 2.31471 -4.95059 0
M  V30 3633 H 333.591 0.382157 -0.733407 0
M  V30 3634 H 336.137 0.0447311 -1.69641 0
M  V30 3635 H 334.909 0.434859 -3.88876 0
M  V30 3636 H 334.532 2.07604 -3.39096 0
M  V30 3637 N 335.529 1.53961 0.336706 0
M  V30 3638 C 336.775 1.7179 1.07777 0
M  V30 3639 C 337.108 0.483263 1.88091 0
M  V30 3640 O 336.383 -0.519747 1.87427 0
M  V30 3641 C 336.666 2.98558 2.01334 0
M  V30 3642 C 336.519 4.32245 1.24437 0
M  V30 3643 C 337.838 3.21023 3.01052 0
M  V30 3644 H 334.957 0.625089 0.390426 0
M  V30 3645 H 337.599 1.86641 0.35567 0
M  V30 3646 H 335.749 2.86028 2.62908 0
M  V30 3647 H 337.421 4.56637 0.654243 0
M  V30 3648 H 335.664 4.30344 0.546458 0
M  V30 3649 H 336.335 5.17137 1.93063 0
M  V30 3650 H 338.811 3.32929 2.49595 0
M  V30 3651 H 337.687 4.11104 3.6371 0
M  V30 3652 H 337.948 2.37637 3.72802 0
M  V30 3653 N 337.007 -0.598083 1.45811 0
M  V30 3654 C 338.418 -1.18011 1.44673 0
M  V30 3655 C 338.769 -1.95378 0.179364 0
M  V30 3656 O 337.894 -2.04124 -0.718509 0
M  V30 3657 C 338.489 -2.14677 2.62105 0
M  V30 3658 C 337.048 -2.68236 2.64057 0
M  V30 3659 C 336.195 -1.43816 2.37091 0
M  V30 3660 H 339.146 -0.38686 1.53913 0
M  V30 3661 H 339.167 -2.97878 2.36746 0
M  V30 3662 H 338.679 -1.5834 3.5433 0
M  V30 3663 H 336.78 -3.28486 1.75864 0
M  V30 3664 H 336.893 -3.12021 3.63566 0
M  V30 3665 H 335.257 -1.731 1.86838 0
M  V30 3666 H 336.04 -0.893333 3.31473 0
M  V30 3667 N 338.485 -1.33259 -0.841409 0
M  V30 3668 C 339.732 -1.24572 -1.5965 0
M  V30 3669 C 340.06 0.189137 -1.93578 0
M  V30 3670 O 339.315 1.14566 -1.5866 0
M  V30 3671 C 339.614 -2.06381 -2.9179 0
M  V30 3672 C 339.28 -3.556 -2.77235 0
M  V30 3673 C 337.942 -3.96282 -2.72973 0
M  V30 3674 C 340.294 -4.50433 -2.62221 0
M  V30 3675 C 337.622 -5.30017 -2.51592 0
M  V30 3676 C 339.974 -5.84327 -2.42374 0
M  V30 3677 C 338.638 -6.24194 -2.36512 0
M  V30 3678 H 337.908 -0.455842 -0.5842 0
M  V30 3679 H 340.555 -1.6482 -0.975016 0
M  V30 3680 H 338.86 -1.58903 -3.5813 0
M  V30 3681 H 340.557 -1.97019 -3.49263 0
M  V30 3682 H 337.147 -3.23298 -2.81384 0
M  V30 3683 H 341.331 -4.19914 -2.64549 0
M  V30 3684 H 336.587 -5.59947 -2.45499 0
M  V30 3685 H 340.761 -6.57414 -2.29739 0
M  V30 3686 H 338.388 -7.27759 -2.19706 0
M  V30 3687 N 339.963 1.05934 -1.16686 0
M  V30 3688 C 341.188 1.83029 -0.975455 0
M  V30 3689 C 341.613 1.82096 0.471452 0
M  V30 3690 O 340.971 1.22443 1.33706 0
M  V30 3691 C 341.019 3.27372 -1.51195 0
M  V30 3692 O 340.123 4.06054 -0.720701 0
M  V30 3693 H 339.464 0.566194 -0.346872 0
M  V30 3694 H 341.994 1.33541 -1.55009 0
M  V30 3695 H 342.004 3.78186 -1.53099 0
M  V30 3696 H 340.679 3.27366 -2.56523 0
M  V30 3697 H 339.256 3.64812 -0.772458 0
M  V30 3698 N 341.441 0.965919 1.2453 0
M  V30 3699 C 342.689 0.625593 1.92174 0
M  V30 3700 C 343.01 -0.841652 1.75901 0
M  V30 3701 O 342.28 -1.60061 1.12948 0
M  V30 3702 H 340.86 0.228388 0.71123 0
M  V30 3703 H 343.522 1.2266 1.51461 0
M  V30 3704 H 342.618 0.864653 2.99884 0
M  V30 3705 N 342.919 -1.39368 0.735821 0
M  V30 3706 C 343.849 -2.33234 0.111506 0
M  V30 3707 C 344.83 -1.53954 -0.723334 0
M  V30 3708 O 346.015 -1.82344 -0.668147 0
M  V30 3709 C 343.145 -3.38057 -0.795917 0
M  V30 3710 C 342.099 -4.2795 -0.065172 0
M  V30 3711 C 341.425 -5.23479 -1.08967 0
M  V30 3712 C 342.725 -5.10741 1.09273 0
M  V30 3713 H 344.419 -2.85692 0.895571 0
M  V30 3714 H 341.965 -1.37364 0.432109 0
M  V30 3715 H 343.918 -4.02675 -1.24221 0
M  V30 3716 H 342.642 -2.8404 -1.61211 0
M  V30 3717 H 341.301 -3.64813 0.361511 0
M  V30 3718 H 340.949 -4.65758 -1.89944 0
M  V30 3719 H 340.649 -5.84472 -0.605489 0
M  V30 3720 H 342.173 -5.90974 -1.53565 0
M  V30 3721 H 343.587 -5.68699 0.724841 0
M  V30 3722 H 341.984 -5.8088 1.50659 0
M  V30 3723 H 343.054 -4.45525 1.91404 0
M  V30 3724 N 344.397 -0.483516 -1.5 0
M  V30 3725 C 345.813 -0.138404 -1.58999 0
M  V30 3726 C 346.013 1.35597 -1.4905 0
M  V30 3727 O 345.069 2.13039 -1.35539 0
M  V30 3728 C 346.382 -0.699658 -2.92447 0
M  V30 3729 C 347.93 -0.664195 -3.05872 0
M  V30 3730 C 348.405 -1.20321 -4.41913 0
M  V30 3731 N 349.896 -1.16315 -4.48358 0
M  V30 3732 C 350.631 -1.55058 -5.52037 0
M  V30 3733 N 350.127 -2.01311 -6.62907 0
M  V30 3734 N 351.92 -1.46584 -5.42651 0
M  V30 3735 H 344.071 -1.45529 -1.5471 0
M  V30 3736 H 346.334 -0.60258 -0.731848 0
M  V30 3737 H 346.04 -1.747 -3.05242 0
M  V30 3738 H 345.914 -0.150194 -3.76901 0
M  V30 3739 H 348.301 0.374272 -2.92717 0
M  V30 3740 H 348.382 -1.25061 -2.23144 0
M  V30 3741 H 348.026 -2.24037 -4.55818 0
M  V30 3742 H 347.956 -0.592896 -5.23252 0
M  V30 3743 H 350.447 -0.824058 -3.68806 0
M  V30 3744 H 350.76 -2.2899 -7.38095 0
M  V30 3745 H 349.105 -2.05273 -6.63994 0
M  V30 3746 H 352.296 -1.10281 -4.54924 0
M  V30 3747 H 352.469 -1.77103 -6.23329 0
M  V30 3748 N 345.875 1.56104 -0.216619 0
M  V30 3749 C 346.822 2.2007 0.695531 0
M  V30 3750 C 347.792 1.15471 1.19397 0
M  V30 3751 O 348.977 1.43807 1.25396 0
M  V30 3752 C 346.117 2.88073 1.90021 0
M  V30 3753 C 345.23 4.07253 1.44113 0
M  V30 3754 C 344.365 4.63052 2.603 0
M  V30 3755 C 343.404 5.74545 2.11103 0
M  V30 3756 N 342.541 6.24656 3.20545 0
M  V30 3757 H 347.381 2.97655 0.143327 0
M  V30 3758 H 344.918 1.46982 0.0589934 0
M  V30 3759 H 346.876 3.25681 2.60745 0
M  V30 3760 H 345.506 2.13015 2.42538 0
M  V30 3761 H 344.558 3.75164 0.628999 0
M  V30 3762 H 345.87 4.8783 1.04036 0
M  V30 3763 H 345.024 5.03078 3.39113 0
M  V30 3764 H 343.763 3.81628 3.03663 0
M  V30 3765 H 342.768 5.34027 1.3075 0
M  V30 3766 H 343.993 6.57801 1.68746 0
M  V30 3767 H 341.939 5.46148 3.63399 0
M  V30 3768 H 341.856 7.00343 2.84704 0
M  V30 3769 H 343.124 6.69338 3.99508 0
M  V30 3770 N 347.353 -0.0568162 1.57498 0
M  V30 3771 C 348.601 -0.751617 1.87604 0
M  V30 3772 C 348.922 -1.77351 0.81066 0
M  V30 3773 O 348.192 -1.95254 -0.159018 0
M  V30 3774 H 346.772 -0.280583 0.692302 0
M  V30 3775 H 349.434 -0.0293483 1.94878 0
M  V30 3776 H 348.53 -1.25852 2.856 0
M  V30 3777 N 348.832 -1.54138 -0.328536 0
M  V30 3778 C 350.081 -1.71318 -1.06456 0
M  V30 3779 C 350.394 -0.491109 -1.89334 0
M  V30 3780 O 351.6 -0.54416 -2.65991 0
M  V30 3781 C 350.056 -3.03 -1.94214 0
M  V30 3782 C 349.664 -4.32595 -1.16471 0
M  V30 3783 C 351.408 -3.29544 -2.67583 0
M  V30 3784 C 349.315 -5.55341 -2.03347 0
M  V30 3785 H 348.245 -0.638429 -0.401155 0
M  V30 3786 H 350.896 -1.80633 -0.323106 0
M  V30 3787 H 349.278 -2.87579 -2.72239 0
M  V30 3788 H 350.452 -4.58766 -0.432525 0
M  V30 3789 H 348.767 -4.12777 -0.548063 0
M  V30 3790 H 351.364 -4.18444 -3.3288 0
M  V30 3791 H 351.707 -2.47206 -3.34955 0
M  V30 3792 H 352.24 -3.45809 -1.96623 0
M  V30 3793 H 348.979 -6.40268 -1.40491 0
M  V30 3794 H 348.499 -5.33397 -2.74313 0
M  V30 3795 H 350.178 -5.91557 -2.62049 0
M  V30 3796 N 350.31 0.590341 -1.46126 0
M  V30 3797 C 351.726 0.912917 -1.30912 0
M  V30 3798 C 351.926 1.99616 -0.274893 0
M  V30 3799 O 350.982 2.50397 0.325197 0
M  V30 3800 C 352.295 1.3375 -2.69317 0
M  V30 3801 C 353.843 1.45077 -2.77348 0
M  V30 3802 C 354.318 1.90904 -4.16317 0
M  V30 3803 N 355.809 1.9811 -4.18696 0
M  V30 3804 C 356.544 2.34828 -5.23109 0
M  V30 3805 N 356.04 2.70393 -6.37856 0
M  V30 3806 N 357.833 2.35317 -5.10473 0
M  V30 3807 H 349.984 -0.125358 -2.1203 0
M  V30 3808 H 352.247 0.00658481 -0.947977 0
M  V30 3809 H 351.953 0.615614 -3.4627 0
M  V30 3810 H 351.827 2.30058 -2.9892 0
M  V30 3811 H 354.214 2.16353 -2.00687 0
M  V30 3812 H 354.295 0.4704 -2.51438 0
M  V30 3813 H 353.939 1.20209 -4.9347 0
M  V30 3814 H 353.869 2.89886 -4.39629 0
M  V30 3815 H 356.36 1.73146 -3.359 0
M  V30 3816 H 356.673 2.97341 -7.13308 0
M  V30 3817 H 355.018 2.68048 -6.41229 0
M  V30 3818 H 358.209 2.0695 -4.19868 0
M  V30 3819 H 358.382 2.63605 -5.9196 0
M  V30 3820 N 351.788 1.33704 0.83433 0
M  V30 3821 C 352.751 1.24244 1.92603 0
M  V30 3822 C 353.751 0.160383 1.59998 0
M  V30 3823 O 354.941 0.412228 1.69252 0
M  V30 3824 C 352.073 0.91555 3.28376 0
M  V30 3825 H 353.266 2.21287 2.02416 0
M  V30 3826 H 350.819 1.17827 1.02696 0
M  V30 3827 H 351.554 -0.0521886 3.24258 0
M  V30 3828 H 351.339 1.69811 3.53422 0
M  V30 3829 H 352.829 0.874231 4.08347 0
M  V30 3830 N 353.266 -1.05314 1.17247 0
M  V30 3831 C 354.682 -1.30452 0.919473 0
M  V30 3832 C 354.882 -1.9703 -0.42209 0
M  V30 3833 O 353.938 -2.24311 -1.15935 0
M  V30 3834 C 355.251 -2.17551 2.07586 0
M  V30 3835 C 356.799 -2.30937 2.11275 0
M  V30 3836 C 357.274 -3.21396 3.26296 0
M  V30 3837 N 358.765 -3.28981 3.26076 0
M  V30 3838 C 359.5 -3.99095 4.11716 0
M  V30 3839 N 358.996 -4.71648 5.07465 0
M  V30 3840 N 360.789 -3.95247 3.9967 0
M  V30 3841 H 352.94 -0.604988 2.03602 0
M  V30 3842 H 355.203 -0.329368 0.888944 0
M  V30 3843 H 354.909 -1.75921 3.0454 0
M  V30 3844 H 354.783 -3.18182 2.02584 0
M  V30 3845 H 357.17 -2.71809 1.14907 0
M  V30 3846 H 357.251 -1.2994 2.20339 0
M  V30 3847 H 356.895 -2.81238 4.22927 0
M  V30 3848 H 356.825 -4.22395 3.14467 0
M  V30 3849 H 359.316 -2.77286 2.5675 0
M  V30 3850 H 359.629 -5.22705 5.6921 0
M  V30 3851 H 357.974 -4.70594 5.11435 0
M  V30 3852 H 361.165 -3.37691 3.24164 0
M  V30 3853 H 361.338 -4.4962 4.66632 0
M  V30 3854 N 354.744 -0.972509 -1.24016 0
M  V30 3855 C 356.021 -0.553733 -1.87598 0
M  V30 3856 C 356.401 0.969158 -1.87538 0
M  V30 3857 O 355.749 1.84255 -1.35139 0
M  V30 3858 C 355.959 -1.15076 -3.29482 0
M  V30 3859 C 357.307 -1.23862 -4.06132 0
M  V30 3860 O 358.331 -1.10363 -3.38672 0
M  V30 3861 O 357.19 -1.45252 -5.26844 0
M  V30 3862 H 354.284 -0.185331 -0.805966 0
M  V30 3863 H 356.83 -1.06709 -1.31952 0
M  V30 3864 H 355.602 -2.19333 -3.2405 0
M  V30 3865 H 355.225 -0.621746 -3.92709 0
M  V30 3866 N 356.222 1.38976 -0.743202 0
M  V30 3867 C 357.154 2.29096 -0.0689228 0
M  V30 3868 C 358.167 1.47229 0.694791 0
M  V30 3869 O 359.356 1.70212 0.537597 0
M  V30 3870 C 356.456 3.25988 0.926548 0
M  V30 3871 C 355.629 4.36833 0.222647 0
M  V30 3872 C 354.688 5.13981 1.12739 0
M  V30 3873 O 353.714 5.6601 0.601795 0
M  V30 3874 N 354.916 5.25966 2.45641 0
M  V30 3875 H 357.681 2.87604 -0.842846 0
M  V30 3876 H 355.242 1.50645 -0.593109 0
M  V30 3877 H 357.234 3.74476 1.5346 0
M  V30 3878 H 355.804 2.68453 1.60162 0
M  V30 3879 H 355.024 3.90116 -0.565983 0
M  V30 3880 H 356.312 5.0811 -0.264841 0
M  V30 3881 H 355.71 4.85228 2.9081 0
M  V30 3882 H 354.267 5.77865 3.01522 0
M  V30 3883 N 357.7 0.491464 1.49741 0
M  V30 3884 C 358.63 -0.28154 2.31796 0
M  V30 3885 C 359.611 -0.971473 1.3963 0
M  V30 3886 O 360.796 -0.964719 1.68543 0
M  V30 3887 C 357.926 -1.35203 3.19902 0
M  V30 3888 C 356.88 -0.782529 4.20786 0
M  V30 3889 C 356.206 -1.95283 4.97764 0
M  V30 3890 C 357.506 0.21999 5.21837 0
M  V30 3891 H 359.2 0.403355 2.96671 0
M  V30 3892 H 356.746 0.195425 1.42668 0
M  V30 3893 H 358.699 -1.90045 3.76113 0
M  V30 3894 H 357.423 -2.06598 2.52953 0
M  V30 3895 H 356.082 -0.255928 3.65706 0
M  V30 3896 H 355.73 -2.65423 4.2727 0
M  V30 3897 H 355.43 -1.57789 5.66018 0
M  V30 3898 H 356.954 -2.50577 5.56816 0
M  V30 3899 H 358.368 -0.23996 5.72798 0
M  V30 3900 H 356.765 0.51026 5.97927 0
M  V30 3901 H 357.835 1.13911 4.7133 0
M  V30 3902 N 359.178 -1.55987 0.224894 0
M  V30 3903 C 360.128 -2.17076 -0.697296 0
M  V30 3904 C 361.112 -1.12006 -1.15514 0
M  V30 3905 O 362.304 -1.37985 -1.10857 0
M  V30 3906 C 359.433 -2.85679 -1.90374 0
M  V30 3907 C 358.519 -3.97977 -1.46543 0
M  V30 3908 N 358.91 -5.00359 -0.739909 0
M  V30 3909 C 357.208 -4.10128 -1.75245 0
M  V30 3910 C 357.909 -5.79407 -0.515939 0
M  V30 3911 N 356.885 -5.32892 -1.07364 0
M  V30 3912 H 360.687 -2.93592 -0.134594 0
M  V30 3913 H 358.201 -1.62379 0.0262885 0
M  V30 3914 H 360.198 -3.27857 -2.57518 0
M  V30 3915 H 358.858 -2.1066 -2.47088 0
M  V30 3916 H 359.869 -5.16412 -0.392253 0
M  V30 3917 H 356.546 -3.46263 -2.33255 0
M  V30 3918 H 357.936 -6.71872 0.0617349 0
M  V30 3919 N 360.656 0.0484629 -1.57525 0
M  V30 3920 C 362.072 0.40375 -1.54409 0
M  V30 3921 C 362.272 1.77786 -0.948384 0
M  V30 3922 O 361.328 2.46189 -0.560983 0
M  V30 3923 C 362.641 0.323394 -2.98956 0
M  V30 3924 C 364.189 0.401892 -3.10409 0
M  V30 3925 C 364.664 0.351195 -4.56652 0
M  V30 3926 N 366.155 0.410576 -4.61377 0
M  V30 3927 C 366.89 0.393933 -5.72045 0
M  V30 3928 N 366.386 0.330724 -6.9201 0
M  V30 3929 N 368.179 0.442227 -5.60358 0
M  V30 3930 H 360.33 -0.851016 -1.94606 0
M  V30 3931 H 362.593 -0.321721 -0.89174 0
M  V30 3932 H 362.299 -0.62011 -3.4619 0
M  V30 3933 H 362.173 1.12463 -3.60044 0
M  V30 3934 H 364.56 1.33582 -2.63134 0
M  V30 3935 H 364.641 -0.428342 -2.52188 0
M  V30 3936 H 364.285 -0.578987 -5.04589 0
M  V30 3937 H 364.215 1.19928 -5.12762 0
M  V30 3938 H 366.706 0.462729 -3.75056 0
M  V30 3939 H 367.019 0.322592 -7.72126 0
M  V30 3940 H 365.364 0.29706 -6.94365 0
M  V30 3941 H 368.555 0.489464 -4.65534 0
M  V30 3942 H 368.728 0.425788 -6.466 0
M  V30 3943 N 362.134 1.5431 0.320358 0
M  V30 3944 C 363.084 1.803 1.39556 0
M  V30 3945 C 364.068 0.659166 1.46778 0
M  V30 3946 O 365.26 0.91926 1.51257 0
M  V30 3947 C 362.389 2.03665 2.76361 0
M  V30 3948 C 361.475 3.24178 2.73439 0
M  V30 3949 N 361.866 4.4516 2.40137 0
M  V30 3950 C 360.164 3.25816 3.04565 0
M  V30 3951 C 360.865 5.27109 2.4603 0
M  V30 3952 N 359.841 4.64368 2.82601 0
M  V30 3953 H 363.643 2.71416 1.12742 0
M  V30 3954 H 361.157 1.53548 0.528856 0
M  V30 3955 H 363.154 2.20425 3.53862 0
M  V30 3956 H 361.814 1.13805 3.04103 0
M  V30 3957 H 362.825 4.72104 2.12927 0
M  V30 3958 H 359.502 2.46001 3.37328 0
M  V30 3959 H 360.892 6.33728 2.23246 0
M  V30 3960 N 363.613 -0.582584 1.46437 0
M  V30 3961 C 364.543 -1.70187 1.59871 0
M  V30 3962 C 365.524 -1.64066 0.449042 0
M  V30 3963 O 366.709 -1.82081 0.6753 0
M  V30 3964 C 363.839 -3.08827 1.58881 0
M  V30 3965 C 362.793 -3.29779 2.72819 0
M  V30 3966 C 362.119 -4.68947 2.5689 0
M  V30 3967 C 363.419 -3.17601 4.1464 0
M  V30 3968 H 365.113 -1.592 2.53566 0
M  V30 3969 H 362.659 -0.764472 1.22032 0
M  V30 3970 H 364.612 -3.86951 1.66873 0
M  V30 3971 H 363.336 -3.20713 0.617306 0
M  V30 3972 H 361.995 -2.54054 2.64296 0
M  V30 3973 H 361.643 -4.77599 1.57823 0
M  V30 3974 H 361.343 -4.83919 3.33312 0
M  V30 3975 H 362.867 -5.4924 2.66773 0
M  V30 3976 H 364.281 -3.8557 4.24274 0
M  V30 3977 H 362.678 -3.44094 4.9165 0
M  V30 3978 H 363.748 -2.14681 4.34788 0
M  V30 3979 N 365.091 -1.34144 -0.827227 0
M  V30 3980 C 366.001 -1.27428 -1.96975 0
M  V30 3981 C 367.017 -0.182728 -1.73038 0
M  V30 3982 O 368.193 -0.408426 -1.97215 0
M  V30 3983 C 365.258 -1.02526 -3.31194 0
M  V30 3984 C 364.319 -2.20796 -3.68168 0
M  V30 3985 C 363.552 -1.97073 -4.95982 0
M  V30 3986 O 363.775 -0.926822 -5.6282 0
M  V30 3987 O 362.709 -2.83912 -5.30733 0
M  V30 3988 H 366.535 -2.23537 -2.05584 0
M  V30 3989 H 364.12 -1.14307 -0.961989 0
M  V30 3990 H 366.002 -0.904026 -4.11589 0
M  V30 3991 H 364.677 -0.0945389 -3.23562 0
M  V30 3992 H 363.584 -2.38477 -2.88235 0
M  V30 3993 H 364.917 -3.12243 -3.8048 0
M  V30 3994 N 366.569 1.04691 -1.17803 0
M  V30 3995 C 367.817 1.7743 -0.967617 0
M  V30 3996 C 368.138 1.88359 0.504574 0
M  V30 3997 O 367.408 1.40402 1.36617 0
M  V30 3998 H 365.988 0.657242 -0.355024 0
M  V30 3999 H 368.65 1.2638 -1.48371 0
M  V30 4000 H 367.746 2.78924 -1.40027 0
M  V30 4001 N 368.047 0.979072 1.23499 0
M  V30 4002 C 369.01 0.523244 2.23147 0
M  V30 4003 C 370.01 -0.386406 1.56088 0
M  V30 4004 O 371.2 -0.180283 1.73265 0
M  V30 4005 C 368.332 -0.240739 3.40049 0
M  V30 4006 H 369.525 1.40432 2.64989 0
M  V30 4007 H 367.078 0.764824 1.36309 0
M  V30 4008 H 367.813 -1.13841 3.03662 0
M  V30 4009 H 367.598 0.412207 3.89927 0
M  V30 4010 H 369.088 -0.548297 4.13985 0
M  V30 4011 N 369.525 -1.3858 0.750561 0
M  V30 4012 C 370.774 -1.99424 0.302172 0
M  V30 4013 C 371.087 -1.60254 -1.12152 0
M  V30 4014 O 372.293 -2.14046 -1.67023 0
M  V30 4015 C 370.749 -3.56558 0.489307 0
M  V30 4016 C 370.357 -4.04682 1.92189 0
M  V30 4017 C 372.101 -4.24374 0.103478 0
M  V30 4018 C 370.008 -5.54446 2.05775 0
M  V30 4019 H 368.938 -0.746046 0.10923 0
M  V30 4020 H 371.589 -1.58383 0.92667 0
M  V30 4021 H 369.971 -3.95472 -0.204329 0
M  V30 4022 H 371.145 -3.77065 2.64875 0
M  V30 4023 H 369.46 -3.4958 2.26236 0
M  V30 4024 H 372.057 -5.34384 0.183787 0
M  V30 4025 H 372.4 -4.05468 -0.943481 0
M  V30 4026 H 372.933 -3.90688 0.748854 0
M  V30 4027 H 369.672 -5.78252 3.08714 0
M  V30 4028 H 369.192 -5.83816 1.37546 0
M  V30 4029 H 370.871 -6.20099 1.84626 0
M  V30 4030 N 371.003 -0.499398 -1.49478 0
M  V30 4031 C 372.228 0.044722 -2.07352 0
M  V30 4032 C 372.653 1.30207 -1.35749 0
M  V30 4033 O 372.011 1.76516 -0.413732 0
M  V30 4034 C 372.059 0.283013 -3.59488 0
M  V30 4035 O 371.163 1.35804 -3.89398 0
M  V30 4036 H 370.504 -0.0255147 -0.66351 0
M  V30 4037 H 373.034 -0.698561 -1.92305 0
M  V30 4038 H 373.044 0.515007 -4.04737 0
M  V30 4039 H 371.719 -0.635636 -4.11014 0
M  V30 4040 H 370.296 1.11113 -3.55961 0
M  V30 4041 N 372.481 1.55866 -0.233164 0
M  V30 4042 C 373.391 2.24431 0.683217 0
M  V30 4043 C 374.407 1.2558 1.2044 0
M  V30 4044 O 375.583 1.58422 1.24356 0
M  V30 4045 C 372.648 2.91979 1.86947 0
M  V30 4046 C 371.709 4.06204 1.38912 0
M  V30 4047 C 370.942 4.70522 2.51883 0
M  V30 4048 O 371.165 4.33865 3.70293 0
M  V30 4049 O 370.099 5.59296 2.22423 0
M  V30 4050 H 373.925 3.03426 0.129059 0
M  V30 4051 H 371.51 1.494 -0.0022283 0
M  V30 4052 H 373.392 3.34573 2.56201 0
M  V30 4053 H 372.067 2.15935 2.41151 0
M  V30 4054 H 370.974 3.68155 0.664259 0
M  V30 4055 H 372.307 4.84025 0.893328 0
M  V30 4056 N 373.959 -0.0401083 1.57549 0
M  V30 4057 C 374.906 -1.04413 2.05831 0
M  V30 4058 C 375.876 -1.36585 0.945184 0
M  V30 4059 O 377.061 -1.47112 1.21502 0
M  V30 4060 C 374.201 -2.34336 2.53339 0
M  V30 4061 C 373.314 -2.08419 3.78398 0
M  V30 4062 C 372.449 -3.32133 4.14561 0
M  V30 4063 C 371.488 -3.01721 5.3257 0
M  V30 4064 N 370.625 -4.17855 5.64218 0
M  V30 4065 H 375.465 -0.625442 2.91363 0
M  V30 4066 H 373.002 -0.297218 1.44066 0
M  V30 4067 H 374.96 -3.10234 2.78946 0
M  V30 4068 H 373.59 -2.73948 1.7074 0
M  V30 4069 H 372.642 -1.23069 3.59942 0
M  V30 4070 H 373.954 -1.81978 4.64419 0
M  V30 4071 H 373.108 -4.16406 4.41238 0
M  V30 4072 H 371.847 -3.61678 3.2717 0
M  V30 4073 H 370.852 -2.15849 5.05657 0
M  V30 4074 H 372.077 -2.73466 6.21605 0
M  V30 4075 H 370.023 -4.47372 4.79786 0
M  V30 4076 H 369.94 -3.94798 6.44725 0
M  V30 4077 H 371.208 -5.03033 5.95465 0
M  V30 4078 N 375.437 -1.54477 -0.31217 0
M  V30 4079 C 376.367 -1.87652 -1.38957 0
M  V30 4080 C 377.348 -0.734358 -1.53431 0
M  V30 4081 O 378.533 -0.98911 -1.67123 0
M  V30 4082 C 375.663 -2.11396 -2.75552 0
M  V30 4083 C 374.617 -3.27243 -2.75855 0
M  V30 4084 C 373.943 -3.36382 -4.15633 0
M  V30 4085 C 375.243 -4.64622 -2.38587 0
M  V30 4086 H 376.937 -2.77887 -1.11442 0
M  V30 4087 H 374.483 -1.33707 -0.534655 0
M  V30 4088 H 376.436 -2.33189 -3.51 0
M  V30 4089 H 375.16 -1.17921 -3.04569 0
M  V30 4090 H 373.819 -3.05356 -2.02863 0
M  V30 4091 H 373.467 -2.40445 -4.41809 0
M  V30 4092 H 373.167 -4.14249 -4.1674 0
M  V30 4093 H 374.691 -3.60422 -4.92877 0
M  V30 4094 H 376.105 -4.86219 -3.03749 0
M  V30 4095 H 374.502 -5.45121 -2.50925 0
M  V30 4096 H 375.572 -4.66097 -1.33723 0
M  V30 4097 N 376.915 0.57481 -1.46744 0
M  V30 4098 C 377.865 1.67838 -1.54319 0
M  V30 4099 C 378.849 1.55759 -0.40346 0
M  V30 4100 O 380.041 1.6454 -0.652347 0
M  V30 4101 C 377.17 3.06624 -1.5439 0
M  V30 4102 C 376.256 3.23971 -2.73685 0
M  V30 4103 N 376.647 3.11447 -3.9854 0
M  V30 4104 C 374.945 3.5493 -2.70075 0
M  V30 4105 C 375.646 3.31011 -4.78337 0
M  V30 4106 N 374.622 3.56533 -4.10348 0
M  V30 4107 H 378.424 1.56698 -2.48642 0
M  V30 4108 H 375.938 0.779071 -1.42493 0
M  V30 4109 H 377.935 3.85839 -1.57905 0
M  V30 4110 H 376.595 3.1889 -0.611493 0
M  V30 4111 H 377.606 2.89145 -4.29669 0
M  V30 4112 H 374.283 3.73832 -1.85893 0
M  V30 4113 H 375.673 3.26445 -5.87268 0
M  V30 4114 N 378.394 1.34581 0.820102 0
M  V30 4115 C 379.304 1.28471 1.96297 0
M  V30 4116 C 380.32 0.191902 1.72939 0
M  V30 4117 O 381.496 0.418879 1.96996 0
M  V30 4118 C 378.561 1.04281 3.30645 0
M  V30 4119 C 377.622 2.22745 3.66992 0
M  V30 4120 C 376.855 1.997 4.9493 0
M  V30 4121 O 377.078 0.956656 5.6232 0
M  V30 4122 O 376.012 2.86723 5.2922 0
M  V30 4123 H 379.838 2.24624 2.04396 0
M  V30 4124 H 377.423 1.14816 0.955913 0
M  V30 4125 H 379.305 0.925841 4.11104 0
M  V30 4126 H 377.98 0.111697 3.23507 0
M  V30 4127 H 376.887 2.40003 2.86966 0
M  V30 4128 H 378.22 3.14257 3.78819 0
M  V30 4129 N 379.872 -1.04064 1.18357 0
M  V30 4130 C 381.149 -1.74252 0.888581 0
M  V30 4131 C 381.529 -2.02138 -0.60856 0
M  V30 4132 O 380.877 -1.66656 -1.56327 0
M  V30 4133 C 381.087 -3.0277 1.73584 0
M  V30 4134 C 382.435 -3.76506 1.96286 0
M  V30 4135 O 383.459 -3.12668 1.70637 0
M  V30 4136 O 382.318 -4.91243 2.39464 0
M  V30 4137 H 379.412 -0.758271 0.330082 0
M  V30 4138 H 381.958 -1.1013 1.2911 0
M  V30 4139 H 380.73 -2.78299 2.75073 0
M  V30 4140 H 380.353 -3.74631 1.33183 0
M  V30 4141 N 381.35 -0.985608 -1.22978 0
M  V30 4142 C 382.297 -0.529825 -2.24636 0
M  V30 4143 C 383.267 0.434028 -1.60329 0
M  V30 4144 O 384.452 0.340414 -1.87739 0
M  V30 4145 C 381.592 0.156533 -3.44745 0
M  V30 4146 C 380.705 -0.848197 -4.23591 0
M  V30 4147 C 379.84 -0.136109 -5.31026 0
M  V30 4148 C 378.879 -1.1297 -6.01585 0
M  V30 4149 N 378.016 -0.446415 -7.00679 0
M  V30 4150 H 382.856 -1.40148 -2.62988 0
M  V30 4151 H 380.393 -0.702168 -1.29259 0
M  V30 4152 H 382.351 0.571324 -4.1327 0
M  V30 4153 H 380.981 0.992025 -3.07179 0
M  V30 4154 H 380.033 -1.38135 -3.54433 0
M  V30 4155 H 381.345 -1.60512 -4.72268 0
M  V30 4156 H 380.499 0.335784 -6.0577 0
M  V30 4157 H 379.238 0.653373 -4.83304 0
M  V30 4158 H 378.243 -1.6123 -5.25628 0
M  V30 4159 H 379.468 -1.91993 -6.51395 0
M  V30 4160 H 377.414 0.323763 -6.55201 0
M  V30 4161 H 377.331 -1.1419 -7.47326 0
M  V30 4162 H 378.599 0.00291697 -7.795 0
M  V30 4163 N 382.828 1.3818 -0.7579 0
M  V30 4164 C 383.791 2.28764 -0.141286 0
M  V30 4165 C 384.791 1.47388 0.642907 0
M  V30 4166 O 385.981 1.67781 0.468536 0
M  V30 4167 C 383.113 3.31184 0.808069 0
M  V30 4168 H 384.306 2.848 -0.939633 0
M  V30 4169 H 381.859 1.47212 -0.525191 0
M  V30 4170 H 382.594 2.80247 1.63193 0
M  V30 4171 H 382.379 3.91314 0.248104 0
M  V30 4172 H 383.869 3.98909 1.23536 0
M  V30 4173 N 384.306 0.507319 1.49211 0
M  V30 4174 C 385.269 -0.256763 2.27757 0
M  V30 4175 C 386.269 -0.888287 1.34038 0
M  V30 4176 O 387.459 -0.751841 1.5714 0
M  V30 4177 C 384.591 -1.36905 3.12202 0
M  V30 4178 H 385.784 0.432557 2.96764 0
M  V30 4179 H 383.337 0.262488 1.5408 0
M  V30 4180 H 384.072 -2.09233 2.47775 0
M  V30 4181 H 383.857 -0.921599 3.81115 0
M  V30 4182 H 385.347 -1.9071 3.7151 0
M  V30 4183 N 385.784 -1.5574 0.241426 0
M  V30 4184 C 386.694 -2.2479 -0.671305 0
M  V30 4185 C 387.71 -1.26217 -1.19772 0
M  V30 4186 O 388.886 -1.59079 -1.23514 0
M  V30 4187 C 385.951 -2.92966 -1.85396 0
M  V30 4188 C 385.012 -4.06935 -1.36756 0
M  V30 4189 C 384.245 -4.71851 -2.49384 0
M  V30 4190 O 384.468 -4.35823 -3.67987 0
M  V30 4191 O 383.402 -5.60467 -2.19454 0
M  V30 4192 H 387.228 -3.0349 -0.112966 0
M  V30 4193 H 384.813 -1.49397 0.0101513 0
M  V30 4194 H 386.695 -3.35927 -2.54423 0
M  V30 4195 H 385.37 -2.17211 -2.40002 0
M  V30 4196 H 384.277 -3.68503 -0.644726 0
M  V30 4197 H 385.61 -4.84492 -0.867647 0
M  V30 4198 N 387.262 0.0317525 -1.57568 0
M  V30 4199 C 388.673 0.578692 -1.77505 0
M  V30 4200 C 389.024 1.75749 -0.872164 0
M  V30 4201 O 388.149 2.16298 -0.0663106 0
M  V30 4202 C 388.744 1.05658 -3.21904 0
M  V30 4203 C 387.303 1.54906 -3.43047 0
M  V30 4204 C 386.45 0.485939 -2.73009 0
M  V30 4205 H 389.401 -0.194475 -1.57504 0
M  V30 4206 H 389.422 1.92404 -3.28269 0
M  V30 4207 H 388.934 0.198422 -3.87592 0
M  V30 4208 H 387.035 2.42915 -2.82529 0
M  V30 4209 H 387.148 1.59841 -4.5165 0
M  V30 4210 H 385.512 0.940354 -2.36705 0
M  V30 4211 H 386.295 -0.362709 -3.41379 0
M  V30 4212 N 388.74 1.54641 0.303973 0
M  V30 4213 C 389.988 1.73437 1.0375 0
M  V30 4214 C 390.309 0.521449 1.87899 0
M  V30 4215 O 389.579 -0.46432 1.90318 0
M  V30 4216 H 388.159 0.639518 0.386039 0
M  V30 4217 H 390.821 1.91988 0.335675 0
M  V30 4218 H 389.917 2.62235 1.69231 0
M  V30 4219 N 390.218 -0.567019 1.47046 0
M  V30 4220 C 391.495 -1.3276 1.43646 0
M  V30 4221 C 391.875 -2.1071 0.128186 0
M  V30 4222 O 391.223 -2.10441 -0.890326 0
M  V30 4223 C 391.433 -2.2404 2.67595 0
M  V30 4224 C 392.781 -2.85372 3.14401 0
M  V30 4225 O 393.805 -2.34346 2.68254 0
M  V30 4226 O 392.664 -3.78091 3.946 0
M  V30 4227 H 389.758 -0.597293 0.571988 0
M  V30 4228 H 392.304 -0.586735 1.59234 0
M  V30 4229 H 391.076 -1.65975 3.54356 0
M  V30 4230 H 390.699 -3.05439 2.54544 0
M  V30 4231 N 391.696 -1.35014 -0.812953 0
M  V30 4232 C 392.659 -1.27292 -1.90602 0
M  V30 4233 C 393.659 -0.185817 -1.59723 0
M  V30 4234 O 394.849 -0.439102 -1.68575 0
M  V30 4235 C 391.981 -0.967676 -3.26877 0
M  V30 4236 H 393.174 -2.24479 -1.9887 0
M  V30 4237 H 390.727 -1.19446 -1.00808 0
M  V30 4238 H 391.462 0.0005954 -3.243 0
M  V30 4239 H 391.247 -1.75412 -3.50675 0
M  V30 4240 H 392.737 -0.939085 -4.06904 0
M  V30 4241 N 393.175 1.03435 -1.18907 0
M  V30 4242 C 394.105 2.13503 -0.945448 0
M  V30 4243 C 395.086 1.69682 0.119189 0
M  V30 4244 O 396.271 1.94169 -0.034707 0
M  V30 4245 C 393.401 3.44004 -0.477316 0
M  V30 4246 C 392.355 4.0148 -1.48316 0
M  V30 4247 C 391.681 5.27537 -0.872311 0
M  V30 4248 C 392.981 4.36921 -2.86177 0
M  V30 4249 H 394.675 2.34141 -1.86597 0
M  V30 4250 H 392.221 1.12523 -0.898584 0
M  V30 4251 H 394.174 4.20372 -0.294204 0
M  V30 4252 H 392.898 3.23072 0.478786 0
M  V30 4253 H 391.557 3.27201 -1.65332 0
M  V30 4254 H 391.205 5.02917 0.0911752 0
M  V30 4255 H 390.905 5.66954 -1.54393 0
M  V30 4256 H 392.429 6.06576 -0.699871 0
M  V30 4257 H 393.843 5.04248 -2.72776 0
M  V30 4258 H 392.24 4.87405 -3.50081 0
M  V30 4259 H 393.31 3.46466 -3.39248 0
M  V30 4260 N 394.653 0.992116 1.22453 0
M  V30 4261 C 395.93 0.583508 1.86694 0
M  V30 4262 C 396.31 -0.9392 1.89056 0
M  V30 4263 O 395.658 -1.82081 1.38053 0
M  V30 4264 C 395.868 1.20304 3.2761 0
M  V30 4265 C 397.216 1.30308 4.0411 0
M  V30 4266 O 398.24 1.15737 3.36873 0
M  V30 4267 O 397.099 1.53615 5.24466 0
M  V30 4268 H 394.193 0.198129 0.802916 0
M  V30 4269 H 396.739 1.08794 1.30238 0
M  V30 4270 H 395.511 2.24461 3.2052 0
M  V30 4271 H 395.134 0.684144 3.9167 0
M  V30 4272 N 396.131 -1.37776 0.765217 0
M  V30 4273 C 397.061 -2.32945 0.160953 0
M  V30 4274 C 398.042 -1.55454 -0.690516 0
M  V30 4275 O 399.227 -1.83721 -0.629318 0
M  V30 4276 C 396.357 -3.39669 -0.724031 0
M  V30 4277 C 395.311 -4.27992 0.0256173 0
M  V30 4278 C 394.637 -5.25673 -0.978383 0
M  V30 4279 C 395.937 -5.08309 1.20082 0
M  V30 4280 H 397.631 -2.83728 0.955969 0
M  V30 4281 H 395.177 -1.36416 0.461149 0
M  V30 4282 H 397.13 -4.05219 -1.15652 0
M  V30 4283 H 395.854 -2.87396 -1.5515 0
M  V30 4284 H 394.513 -3.63964 0.438812 0
M  V30 4285 H 394.161 -4.69682 -1.80022 0
M  V30 4286 H 393.861 -5.85625 -0.481378 0
M  V30 4287 H 395.385 -5.94098 -1.40995 0
M  V30 4288 H 396.799 -5.67034 0.845307 0
M  V30 4289 H 395.196 -5.77554 1.62947 0
M  V30 4290 H 396.266 -4.41365 2.00811 0
M  V30 4291 N 397.609 -0.515225 -1.4894 0
M  V30 4292 C 398.858 0.0261361 -2.01683 0
M  V30 4293 C 399.171 1.36719 -1.39883 0
M  V30 4294 O 400.377 1.99606 -1.84037 0
M  V30 4295 C 398.833 0.0970111 -3.59769 0
M  V30 4296 C 398.441 -1.23825 -4.30548 0
M  V30 4297 C 400.185 0.587981 -4.20408 0
M  V30 4298 C 398.092 -1.12877 -5.80528 0
M  V30 4299 H 397.022 0.0135398 -0.753878 0
M  V30 4300 H 399.673 -0.656787 -1.71343 0
M  V30 4301 H 398.055 0.844694 -3.86886 0
M  V30 4302 H 399.229 -2.00034 -4.15118 0
M  V30 4303 H 397.544 -1.66379 -3.81716 0
M  V30 4304 H 400.141 0.68763 -5.3026 0
M  V30 4305 H 400.484 1.59026 -3.84729 0
M  V30 4306 H 401.017 -0.103582 -3.97665 0
M  V30 4307 H 397.756 -2.10575 -6.20756 0
M  V30 4308 H 397.276 -0.407799 -5.98412 0
M  V30 4309 H 398.955 -0.813332 -6.41868 0
M  V30 4310 N 399.087 1.5561 -0.249682 0
M  V30 4311 C 400.336 1.98187 0.37479 0
M  V30 4312 C 400.649 1.14111 1.58865 0
M  V30 4313 O 401.855 1.46714 2.28445 0
M  V30 4314 C 400.311 3.52661 0.718192 0
M  V30 4315 C 399.919 4.45481 -0.474428 0
M  V30 4316 C 401.663 4.03888 1.3067 0
M  V30 4317 C 399.57 5.91303 -0.107026 0
M  V30 4318 H 398.5 0.740159 0.143808 0
M  V30 4319 H 401.151 1.80125 -0.350336 0
M  V30 4320 H 399.533 3.66429 1.50152 0
M  V30 4321 H 400.707 4.43473 -1.25172 0
M  V30 4322 H 399.022 4.04751 -0.978052 0
M  V30 4323 H 401.619 5.10358 1.59496 0
M  V30 4324 H 401.962 3.51401 2.23211 0
M  V30 4325 H 402.495 3.93457 0.586211 0
M  V30 4326 H 399.234 6.47833 -0.999642 0
M  V30 4327 H 398.754 5.9644 0.634013 0
M  V30 4328 H 400.433 6.46258 0.309807 0
M  V30 4329 N 400.565 -0.0233959 1.57583 0
M  V30 4330 C 401.515 -1.03023 2.03397 0
M  V30 4331 C 402.499 -1.31701 0.924315 0
M  V30 4332 O 403.691 -1.31191 1.18819 0
M  V30 4333 C 400.82 -2.32961 2.52159 0
M  V30 4334 C 399.906 -2.07349 3.69956 0
M  V30 4335 N 400.297 -1.51814 4.82479 0
M  V30 4336 C 398.595 -2.37606 3.77438 0
M  V30 4337 C 399.296 -1.42136 5.64068 0
M  V30 4338 N 398.272 -1.89891 5.09355 0
M  V30 4339 H 402.074 -0.594962 2.87815 0
M  V30 4340 H 399.588 -0.229586 1.60769 0
M  V30 4341 H 401.585 -3.05906 2.83244 0
M  V30 4342 H 400.245 -2.77162 1.69149 0
M  V30 4343 H 401.256 -1.20008 5.03804 0
M  V30 4344 H 397.933 -2.84842 3.05239 0
M  V30 4345 H 399.323 -0.996405 6.64471 0
M  V30 4346 N 402.043 -1.548 -0.295768 0
M  V30 4347 C 403.268 -1.78653 -1.05346 0
M  V30 4348 C 403.693 -0.546894 -1.79974 0
M  V30 4349 O 403.051 0.502763 -1.7419 0
M  V30 4350 C 403.099 -2.99679 -2.00561 0
M  V30 4351 O 402.203 -2.7317 -3.08953 0
M  V30 4352 H 401.544 -0.59116 -0.302367 0
M  V30 4353 H 404.074 -2.01895 -0.331598 0
M  V30 4354 H 404.084 -3.27793 -2.42932 0
M  V30 4355 H 402.759 -3.89562 -1.4565 0
M  V30 4356 H 401.336 -2.56089 -2.71059 0
M  V30 4357 N 403.521 0.559213 -1.47345 0
M  V30 4358 C 404.484 1.64854 -1.59235 0
M  V30 4359 C 405.484 1.53851 -0.467607 0
M  V30 4360 O 406.674 1.58045 -0.732617 0
M  V30 4361 C 403.806 3.04388 -1.53496 0
M  V30 4362 H 404.999 1.55662 -2.56339 0
M  V30 4363 H 402.552 0.778973 -1.35505 0
M  V30 4364 H 403.287 3.19115 -0.577604 0
M  V30 4365 H 403.072 3.13783 -2.35123 0
M  V30 4366 H 404.562 3.83642 -1.6495 0
M  V30 4367 N 404.999 1.35443 0.805782 0
M  V30 4368 C 406.415 1.15499 1.10146 0
M  V30 4369 C 406.615 -0.0319975 2.01475 0
M  V30 4370 O 405.671 -0.70236 2.42535 0
M  V30 4371 C 406.984 2.45833 1.73166 0
M  V30 4372 C 408.532 2.52047 1.85583 0
M  V30 4373 C 409.007 3.82427 2.52019 0
M  V30 4374 N 410.498 3.83682 2.59504 0
M  V30 4375 C 411.233 4.81294 3.11679 0
M  V30 4376 N 410.729 5.89294 3.64287 0
M  V30 4377 N 412.522 4.6873 3.1024 0
M  V30 4378 H 404.673 2.11469 0.198678 0
M  V30 4379 H 406.936 0.93594 0.150731 0
M  V30 4380 H 406.642 3.32874 1.13526 0
M  V30 4381 H 406.516 2.6044 2.72857 0
M  V30 4382 H 408.903 1.65435 2.44367 0
M  V30 4383 H 408.984 2.41354 0.847455 0
M  V30 4384 H 408.628 4.69437 1.93885 0
M  V30 4385 H 408.558 3.90409 3.53395 0
M  V30 4386 H 411.049 3.05648 2.22234 0
M  V30 4387 H 411.362 6.59768 4.02401 0
M  V30 4388 H 409.707 5.92985 3.62483 0
M  V30 4389 H 412.898 3.83496 2.68419 0
M  V30 4390 H 413.071 5.44965 3.50596 0
M  V30 4391 N 406.477 -1.02803 1.19454 0
M  V30 4392 C 407.387 -2.14575 0.948408 0
M  V30 4393 C 408.403 -1.73757 -0.091871 0
M  V30 4394 O 409.579 -2.01185 0.0929654 0
M  V30 4395 C 406.644 -3.43202 0.491265 0
M  V30 4396 C 405.705 -3.98328 1.60103 0
M  V30 4397 C 404.938 -5.20816 1.16561 0
M  V30 4398 O 405.161 -5.70392 0.0295238 0
M  V30 4399 O 404.095 -5.68801 1.96849 0
M  V30 4400 H 407.921 -2.38202 1.88397 0
M  V30 4401 H 405.506 -1.12989 0.977433 0
M  V30 4402 H 407.388 -4.20687 0.245015 0
M  V30 4403 H 406.063 -3.21018 -0.415851 0
M  V30 4404 H 404.97 -3.22174 1.90144 0
M  V30 4405 H 406.303 -4.24879 2.48473 0
M  V30 4406 N 407.956 -0.998596 -1.21925 0
M  V30 4407 C 408.886 -0.573688 -2.26343 0
M  V30 4408 C 409.867 0.402296 -1.65274 0
M  V30 4409 O 411.052 0.291683 -1.91997 0
M  V30 4410 C 408.182 0.106839 -3.47136 0
M  V30 4411 C 407.136 -0.788269 -4.20678 0
M  V30 4412 C 406.462 0.0254927 -5.34694 0
M  V30 4413 C 407.762 -2.08784 -4.78755 0
M  V30 4414 H 409.456 -1.44651 -2.62138 0
M  V30 4415 H 407.002 -0.696975 -1.26009 0
M  V30 4416 H 408.955 0.415531 -4.19346 0
M  V30 4417 H 407.679 1.01424 -3.10452 0
M  V30 4418 H 406.338 -1.08069 -3.50309 0
M  V30 4419 H 405.986 0.933989 -4.94253 0
M  V30 4420 H 405.686 -0.570437 -5.84825 0
M  V30 4421 H 407.21 0.328147 -6.09718 0
M  V30 4422 H 408.624 -1.84272 -5.42878 0
M  V30 4423 H 407.021 -2.63307 -5.39249 0
M  V30 4424 H 408.091 -2.76284 -3.98491 0
M  V30 4425 N 409.434 1.37368 -0.772513 0
M  V30 4426 C 410.682 1.99279 -0.336516 0
M  V30 4427 C 411.003 1.6163 1.09091 0
M  V30 4428 O 410.273 0.882109 1.74916 0
M  V30 4429 H 408.853 0.737063 -0.121435 0
M  V30 4430 H 411.515 1.67836 -0.990809 0
M  V30 4431 H 410.611 3.09332 -0.414763 0
M  V30 4432 N 410.912 0.523116 1.48665 0
M  V30 4433 C 411.862 -0.263106 2.26477 0
M  V30 4434 C 412.846 -0.916005 1.32281 0
M  V30 4435 O 414.038 -0.819946 1.56863 0
M  V30 4436 C 411.167 -1.31361 3.17174 0
M  V30 4437 C 410.253 -0.665849 4.1884 0
M  V30 4438 N 410.644 0.244434 5.05209 0
M  V30 4439 C 408.942 -0.923863 4.36326 0
M  V30 4440 C 409.643 0.617443 5.78414 0
M  V30 4441 N 408.619 -0.0198686 5.43596 0
M  V30 4442 H 412.421 0.437295 2.90629 0
M  V30 4443 H 409.935 0.340675 1.58787 0
M  V30 4444 H 411.932 -1.89052 3.71571 0
M  V30 4445 H 410.592 -2.01546 2.54576 0
M  V30 4446 H 411.603 0.616621 5.14216 0
M  V30 4447 H 408.28 -1.6168 3.84923 0
M  V30 4448 H 409.67 1.36346 6.57921 0
M  V30 4449 N 412.39 -1.55475 0.257931 0
M  V30 4450 C 413.3 -2.2549 -0.647425 0
M  V30 4451 C 414.316 -1.2748 -1.18427 0
M  V30 4452 O 415.492 -1.6038 -1.2182 0
M  V30 4453 C 412.557 -2.94916 -1.82278 0
M  V30 4454 C 411.618 -4.08363 -1.32432 0
M  V30 4455 C 410.851 -4.74469 -2.44366 0
M  V30 4456 O 411.074 -4.39701 -3.63344 0
M  V30 4457 O 410.008 -5.62763 -2.13497 0
M  V30 4458 H 413.834 -3.03593 -0.0807707 0
M  V30 4459 H 411.419 -1.49377 0.0259962 0
M  V30 4460 H 413.301 -3.38606 -2.50846 0
M  V30 4461 H 411.976 -2.19744 -2.37685 0
M  V30 4462 H 410.883 -3.69166 -0.605605 0
M  V30 4463 H 412.216 -4.85385 -0.816211 0
M  V30 4464 N 413.868 0.0150385 -1.57593 0
M  V30 4465 C 415.279 0.559832 -1.78109 0
M  V30 4466 C 415.63 1.74814 -0.890756 0
M  V30 4467 O 414.755 2.16216 -0.0892482 0
M  V30 4468 C 415.35 1.02238 -3.23006 0
M  V30 4469 C 413.909 1.51258 -3.44671 0
M  V30 4470 C 413.056 0.456955 -2.73509 0
M  V30 4471 H 416.007 -0.211169 -1.57289 0
M  V30 4472 H 416.028 1.88912 -3.30292 0
M  V30 4473 H 415.54 0.157302 -3.87781 0
M  V30 4474 H 413.641 2.39905 -2.8509 0
M  V30 4475 H 413.754 1.55042 -4.5332 0
M  V30 4476 H 412.118 0.915196 -2.37689 0
M  V30 4477 H 412.901 -0.398896 -3.40975 0
M  V30 4478 N 415.346 1.54954 0.287554 0
M  V30 4479 C 416.571 1.79209 1.04397 0
M  V30 4480 C 416.996 0.556431 1.79682 0
M  V30 4481 O 416.354 -0.493518 1.74454 0
M  V30 4482 C 416.402 3.00739 1.98969 0
M  V30 4483 O 415.506 2.74805 3.075 0
M  V30 4484 H 414.847 0.592755 0.299227 0
M  V30 4485 H 417.377 2.02068 0.320886 0
M  V30 4486 H 417.387 3.29077 2.4119 0
M  V30 4487 H 416.062 3.90329 1.43582 0
M  V30 4488 H 414.639 2.57523 2.69697 0
M  V30 4489 N 416.824 -0.551391 1.4764 0
M  V30 4490 C 417.757 -1.6738 1.5511 0
M  V30 4491 C 418.735 -1.5753 0.402856 0
M  V30 4492 O 419.919 -1.78307 0.611475 0
M  V30 4493 C 417.046 -3.05661 1.45908 0
M  V30 4494 C 416.092 -3.33938 2.65307 0
M  V30 4495 S 416.925 -3.22553 4.27457 0
M  V30 4496 C 418.081 -4.63317 4.20818 0
M  V30 4497 H 418.314 -1.6079 2.50068 0
M  V30 4498 H 415.847 -0.732674 1.35909 0
M  V30 4499 H 417.805 -3.8542 1.41286 0
M  V30 4500 H 416.466 -3.09711 0.523248 0
M  V30 4501 H 415.659 -4.34761 2.54948 0
M  V30 4502 H 415.261 -2.61809 2.67081 0
M  V30 4503 H 417.553 -5.54391 3.89431 0
M  V30 4504 H 418.496 -4.78732 5.21748 0
M  V30 4505 H 418.904 -4.41636 3.51593 0
M  V30 4506 N 418.302 -1.35869 -0.798587 0
M  V30 4507 C 419.234 -1.25305 -1.91915 0
M  V30 4508 C 420.247 -0.174548 -1.61862 0
M  V30 4509 O 421.436 -0.428499 -1.73281 0
M  V30 4510 C 418.536 -0.9086 -3.26493 0
M  V30 4511 C 417.709 -2.08711 -3.84394 0
M  V30 4512 C 416.768 -1.71717 -4.97393 0
M  V30 4513 O 415.794 -2.43692 -5.14396 0
M  V30 4514 N 416.996 -0.645473 -5.769 0
M  V30 4515 H 419.761 -2.21849 -2.01502 0
M  V30 4516 H 417.322 -1.29143 -0.976408 0
M  V30 4517 H 419.314 -0.642455 -3.99568 0
M  V30 4518 H 417.884 -0.0325815 -3.12583 0
M  V30 4519 H 417.104 -2.51659 -3.03416 0
M  V30 4520 H 418.392 -2.87468 -4.19809 0
M  V30 4521 H 417.79 -0.047648 -5.6568 0
M  V30 4522 H 416.347 -0.43913 -6.50319 0
M  V30 4523 N 419.78 1.02168 -1.19998 0
M  V30 4524 C 420.69 2.14069 -0.959774 0
M  V30 4525 C 421.706 1.73804 0.082655 0
M  V30 4526 O 422.882 2.01133 -0.103633 0
M  V30 4527 C 419.947 3.42936 -0.509459 0
M  V30 4528 C 419.008 3.97474 -1.62213 0
M  V30 4529 C 418.241 5.2019 -1.19321 0
M  V30 4530 O 418.464 5.70369 -0.0597726 0
M  V30 4531 O 417.398 5.67749 -1.99863 0
M  V30 4532 H 421.224 2.37199 -1.89658 0
M  V30 4533 H 418.809 1.12469 -0.983411 0
M  V30 4534 H 420.691 4.20551 -0.267322 0
M  V30 4535 H 419.366 3.21234 0.398821 0
M  V30 4536 H 418.273 3.21161 -1.9185 0
M  V30 4537 H 419.606 4.23555 -2.50723 0
M  V30 4538 N 421.258 1.00505 1.21394 0
M  V30 4539 C 422.188 0.585684 2.26035 0
M  V30 4540 C 423.169 -0.393525 1.65485 0
M  V30 4541 O 424.354 -0.281497 1.92149 0
M  V30 4542 C 421.484 -0.0884283 3.47187 0
M  V30 4543 C 420.438 0.810567 4.20254 0
M  V30 4544 C 419.764 0.00286382 5.347 0
M  V30 4545 C 421.064 2.1132 4.77641 0
M  V30 4546 H 422.758 1.46039 2.61368 0
M  V30 4547 H 420.304 0.703648 1.25638 0
M  V30 4548 H 422.257 -0.393286 4.19561 0
M  V30 4549 H 420.981 -0.997766 3.10986 0
M  V30 4550 H 419.64 1.09925 3.49731 0
M  V30 4551 H 419.288 -0.907765 4.94741 0
M  V30 4552 H 418.988 0.601444 5.84514 0
M  V30 4553 H 420.512 -0.295808 6.09883 0
M  V30 4554 H 421.926 1.87148 5.41893 0
M  V30 4555 H 420.323 2.66164 5.37845 0
M  V30 4556 H 421.393 2.78393 3.9702 0
M  V30 4557 N 422.737 -1.36956 0.779787 0
M  V30 4558 C 423.684 -2.30175 0.169697 0
M  V30 4559 C 424.654 -1.51501 -0.68094 0
M  V30 4560 O 425.839 -1.80042 -0.631629 0
M  V30 4561 C 422.979 -3.37985 -0.697131 0
M  V30 4562 C 422.092 -4.31661 0.170992 0
M  V30 4563 C 421.227 -5.2655 -0.701298 0
M  V30 4564 C 420.266 -6.11867 0.168869 0
M  V30 4565 N 419.403 -6.98973 -0.661855 0
M  V30 4566 H 424.243 -2.81767 0.970135 0
M  V30 4567 H 421.78 -1.38699 0.489994 0
M  V30 4568 H 423.738 -3.99128 -1.2146 0
M  V30 4569 H 422.368 -2.87739 -1.46309 0
M  V30 4570 H 421.42 -3.71756 0.80634 0
M  V30 4571 H 422.732 -4.91644 0.841875 0
M  V30 4572 H 421.886 -5.92937 -1.28494 0
M  V30 4573 H 420.625 -4.66998 -1.40584 0
M  V30 4574 H 419.63 -5.44452 0.764986 0
M  V30 4575 H 420.855 -6.73493 0.870863 0
M  V30 4576 H 418.801 -6.41941 -1.35086 0
M  V30 4577 H 418.718 -7.55984 -0.0484447 0
M  V30 4578 H 419.986 -7.6974 -1.22963 0
M  V30 4579 N 424.215 -0.530993 -1.48385 0
M  V30 4580 C 425.125 0.23503 -2.3342 0
M  V30 4581 C 426.141 0.93801 -1.46552 0
M  V30 4582 O 427.317 0.912745 -1.7953 0
M  V30 4583 C 424.382 1.26778 -3.22689 0
M  V30 4584 C 423.443 0.575038 -4.25431 0
M  V30 4585 C 422.676 1.55858 -5.10435 0
M  V30 4586 O 422.899 2.79129 -4.97437 0
M  V30 4587 O 421.833 1.09742 -5.91811 0
M  V30 4588 H 425.659 -0.461794 -3.00169 0
M  V30 4589 H 423.244 -0.291903 -1.46521 0
M  V30 4590 H 425.126 1.86457 -3.77904 0
M  V30 4591 H 423.801 1.94699 -2.586 0
M  V30 4592 H 422.708 -0.0622782 -3.74048 0
M  V30 4593 H 424.041 -0.062253 -4.92161 0
M  V30 4594 N 425.693 1.55336 -0.266172 0
M  V30 4595 C 426.918 2.04258 0.359661 0
M  V30 4596 C 427.343 1.14359 1.49344 0
M  V30 4597 O 426.701 0.140369 1.80756 0
M  V30 4598 C 426.749 3.50997 0.826635 0
M  V30 4599 O 425.853 3.64204 1.93466 0
M  V30 4600 H 425.194 0.659668 0.075727 0
M  V30 4601 H 427.724 2.00694 -0.39786 0
M  V30 4602 H 427.734 3.9219 1.12477 0
M  V30 4603 H 426.409 4.159 -0.00293032 0
M  V30 4604 H 424.986 3.34913 1.63974 0
M  V30 4605 N 427.171 -0.0066808 1.57599 0
M  V30 4606 C 428.134 -0.985035 2.06953 0
M  V30 4607 C 429.134 -1.27663 0.977687 0
M  V30 4608 O 430.324 -1.22293 1.24057 0
M  V30 4609 C 427.456 -2.3118 2.50536 0
M  V30 4610 H 428.649 -0.558255 2.94658 0
M  V30 4611 H 426.202 -0.254011 1.54222 0
M  V30 4612 H 426.937 -2.78561 1.66054 0
M  V30 4613 H 426.722 -2.11338 3.3027 0
M  V30 4614 H 428.212 -3.01377 2.8907 0
M  V30 4615 N 428.649 -1.55105 -0.279332 0
M  V30 4616 C 429.895 -1.75672 -1.01327 0
M  V30 4617 C 430.228 -0.552739 -1.86168 0
M  V30 4618 O 429.503 0.449827 -1.89227 0
M  V30 4619 C 429.786 -3.05825 -1.90114 0
M  V30 4620 C 429.639 -4.36565 -1.08309 0
M  V30 4621 C 430.958 -3.31975 -2.8893 0
M  V30 4622 H 428.077 -0.639149 -0.366957 0
M  V30 4623 H 430.719 -1.87833 -0.286154 0
M  V30 4624 H 428.869 -2.95588 -2.52111 0
M  V30 4625 H 430.541 -4.58751 -0.484314 0
M  V30 4626 H 428.784 -4.32076 -0.386362 0
M  V30 4627 H 429.455 -5.23946 -1.73737 0
M  V30 4628 H 431.931 -3.41963 -2.37067 0
M  V30 4629 H 430.807 -4.2432 -3.48201 0
M  V30 4630 H 431.068 -2.51309 -3.63725 0
M  V30 4631 N 430.127 0.543554 -1.4793 0
M  V30 4632 C 431.037 1.67657 -1.64098 0
M  V30 4633 C 432.053 1.65934 -0.523622 0
M  V30 4634 O 433.229 1.85133 -0.792943 0
M  V30 4635 C 430.294 3.04146 -1.66421 0
M  V30 4636 C 429.355 3.16831 -2.89684 0
M  V30 4637 C 428.588 4.46809 -2.91886 0
M  V30 4638 O 428.811 5.33095 -2.02895 0
M  V30 4639 O 427.745 4.63573 -3.83906 0
M  V30 4640 H 431.571 1.56957 -2.59997 0
M  V30 4641 H 429.156 0.715116 -1.31173 0
M  V30 4642 H 431.038 3.85346 -1.70548 0
M  V30 4643 H 429.713 3.152 -0.736923 0
M  V30 4644 H 428.62 2.34977 -2.91095 0
M  V30 4645 H 429.953 3.10687 -3.81752 0
M  V30 4646 N 431.605 1.3629 0.791371 0
M  V30 4647 C 432.535 1.33137 1.91825 0
M  V30 4648 C 433.516 0.203168 1.68882 0
M  V30 4649 O 434.701 0.400509 1.90025 0
M  V30 4650 C 431.831 1.11793 3.28816 0
M  V30 4651 C 430.785 2.21417 3.66277 0
M  V30 4652 C 430.111 1.85218 5.01596 0
M  V30 4653 C 431.411 3.63489 3.75064 0
M  V30 4654 H 433.105 2.2743 1.9472 0
M  V30 4655 H 430.651 1.09479 0.935437 0
M  V30 4656 H 432.604 1.08222 4.07266 0
M  V30 4657 H 431.328 0.139501 3.26302 0
M  V30 4658 H 429.987 2.2411 2.90121 0
M  V30 4659 H 429.635 0.859544 4.95602 0
M  V30 4660 H 429.335 2.58611 5.27631 0
M  V30 4661 H 430.859 1.832 5.82469 0
M  V30 4662 H 432.273 3.63034 4.43711 0
M  V30 4663 H 430.67 4.35771 4.12582 0
M  V30 4664 H 431.74 3.98536 2.76219 0
M  V30 4665 N 433.083 -1.0153 1.20538 0
M  V30 4666 C 434.013 -2.11972 0.979295 0
M  V30 4667 C 434.994 -1.6985 -0.0921787 0
M  V30 4668 O 436.179 -1.94089 0.0655932 0
M  V30 4669 C 433.309 -3.43201 0.531984 0
M  V30 4670 C 432.263 -3.9907 1.54685 0
M  V30 4671 C 431.589 -5.26082 0.956127 0
M  V30 4672 C 432.889 -4.32313 2.93092 0
M  V30 4673 H 434.583 -2.31143 1.90298 0
M  V30 4674 H 432.129 -1.11079 0.916372 0
M  V30 4675 H 434.082 -4.1985 0.361044 0
M  V30 4676 H 432.806 -3.23792 -0.427327 0
M  V30 4677 H 431.465 -3.2453 1.70517 0
M  V30 4678 H 431.113 -5.02999 -0.0111538 0
M  V30 4679 H 430.813 -5.64426 1.63393 0
M  V30 4680 H 432.337 -6.05386 0.796284 0
M  V30 4681 H 433.751 -4.99845 2.80763 0
M  V30 4682 H 432.148 -4.81774 3.57791 0
M  V30 4683 H 433.218 -3.41025 3.44717 0
M  V30 4684 N 434.561 -1.01147 -1.20859 0
M  V30 4685 C 435.808 -0.697865 -1.90095 0
M  V30 4686 C 436.136 0.772014 -1.78522 0
M  V30 4687 O 435.391 1.57595 -1.16027 0
M  V30 4688 C 435.69 -1.0727 -3.40922 0
M  V30 4689 C 435.356 -2.53792 -3.72693 0
M  V30 4690 C 434.018 -2.93829 -3.81075 0
M  V30 4691 C 436.37 -3.48674 -3.87397 0
M  V30 4692 C 433.698 -4.27696 -4.01613 0
M  V30 4693 C 436.05 -4.82223 -4.09444 0
M  V30 4694 C 434.714 -5.21973 -4.16054 0
M  V30 4695 H 433.984 -0.255367 -0.695607 0
M  V30 4696 H 436.631 -1.27111 -1.43231 0
M  V30 4697 H 434.936 -0.417799 -3.89566 0
M  V30 4698 H 436.633 -0.807818 -3.92779 0
M  V30 4699 H 433.223 -2.21768 -3.66765 0
M  V30 4700 H 437.407 -3.18904 -3.80281 0
M  V30 4701 H 432.663 -4.58055 -4.04964 0
M  V30 4702 H 436.837 -5.55672 -4.19763 0
M  V30 4703 H 434.464 -6.25717 -4.31721 0
M  V30 4704 N 436.039 1.36541 -0.78704 0
M  V30 4705 C 437.002 2.28413 -0.189778 0
M  V30 4706 C 438.002 1.48719 0.611499 0
M  V30 4707 O 439.192 1.68737 0.432842 0
M  V30 4708 C 436.324 3.32824 0.737638 0
M  V30 4709 H 437.517 2.82743 -0.999831 0
M  V30 4710 H 435.07 1.46065 -0.556298 0
M  V30 4711 H 435.805 2.83646 1.57212 0
M  V30 4712 H 435.59 3.91752 0.165044 0
M  V30 4713 H 437.08 4.0144 1.15047 0
M  V30 4714 N 437.518 0.538854 1.48102 0
M  V30 4715 C 438.481 -0.208395 2.28251 0
M  V30 4716 C 439.481 -0.859656 1.35892 0
M  V30 4717 O 440.671 -0.71834 1.58699 0
M  V30 4718 C 437.803 -1.30252 3.15035 0
M  V30 4719 H 438.996 0.495407 2.9578 0
M  V30 4720 H 436.549 0.295112 1.53489 0
M  V30 4721 H 437.284 -2.0393 2.52157 0
M  V30 4722 H 437.069 -0.840551 3.82985 0
M  V30 4723 H 438.559 -1.82787 3.75471 0
M  V30 4724 N 438.996 -1.55193 0.274407 0
M  V30 4725 C 440.243 -1.99581 -0.342579 0
M  V30 4726 C 440.571 -1.1628 -1.55914 0
M  V30 4727 O 439.826 -0.22029 -1.94456 0
M  V30 4728 C 440.125 -3.49019 -0.769458 0
M  V30 4729 C 439.791 -4.49598 0.342389 0
M  V30 4730 C 438.453 -4.76821 0.647686 0
M  V30 4731 C 440.805 -5.0964 1.09163 0
M  V30 4732 C 438.133 -5.61354 1.70581 0
M  V30 4733 C 440.485 -5.95323 2.13948 0
M  V30 4734 C 439.149 -6.20867 2.45113 0
M  V30 4735 H 438.419 -0.730319 -0.125358 0
M  V30 4736 H 441.066 -1.87529 0.387971 0
M  V30 4737 H 439.371 -3.58544 -1.57967 0
M  V30 4738 H 441.068 -3.8077 -1.25757 0
M  V30 4739 H 437.658 -4.28496 0.094318 0
M  V30 4740 H 441.842 -4.88632 0.869024 0
M  V30 4741 H 437.098 -5.79392 1.9523 0
M  V30 4742 H 441.272 -6.40881 2.72478 0
M  V30 4743 H 438.899 -6.86162 3.27239 0
M  V30 4744 N 440.474 -0.00167713 -1.576 0
M  V30 4745 C 441.721 0.68282 -1.90641 0
M  V30 4746 C 442.049 1.73686 -0.875415 0
M  V30 4747 O 441.304 1.95334 0.119575 0
M  V30 4748 C 441.603 1.36189 -3.30435 0
M  V30 4749 C 441.269 0.440887 -4.48739 0
M  V30 4750 C 439.931 0.187312 -4.80835 0
M  V30 4751 C 442.283 -0.193134 -5.20842 0
M  V30 4752 C 439.611 -0.70855 -5.82406 0
M  V30 4753 C 441.963 -1.07688 -6.23367 0
M  V30 4754 C 440.627 -1.33962 -6.53919 0
M  V30 4755 H 439.897 0.249862 -0.697603 0
M  V30 4756 H 442.544 -0.0575642 -1.91413 0
M  V30 4757 H 440.849 2.17636 -3.25794 0
M  V30 4758 H 442.546 1.89759 -3.5326 0
M  V30 4759 H 439.136 0.648694 -4.23663 0
M  V30 4760 H 443.32 -0.0102445 -4.96299 0
M  V30 4761 H 438.576 -0.920097 -6.04437 0
M  V30 4762 H 442.75 -1.57451 -6.78367 0
M  V30 4763 H 440.377 -2.03549 -7.32442 0
M  V30 4764 N 441.952 1.55251 0.271103 0
M  V30 4765 C 443.18 1.79974 1.02064 0
M  V30 4766 C 443.595 0.574003 1.79863 0
M  V30 4767 O 442.952 -0.456962 1.76686 0
M  V30 4768 C 443.003 3.02603 1.97772 0
M  V30 4769 O 442.724 4.20443 1.23124 0
M  V30 4770 C 444.225 3.39944 2.84522 0
M  V30 4771 H 441.445 0.599489 0.301419 0
M  V30 4772 H 443.989 2.02268 0.301313 0
M  V30 4773 H 442.144 2.8243 2.65165 0
M  V30 4774 H 442.558 4.89783 1.87651 0
M  V30 4775 H 444.032 4.28915 3.47471 0
M  V30 4776 H 444.509 2.59432 3.54389 0
M  V30 4777 H 445.115 3.62383 2.22618 0
M  V30 4778 N 443.43 -0.535701 1.48216 0
M  V30 4779 C 444.658 -1.31671 1.59594 0
M  V30 4780 C 445.073 -1.87083 0.254056 0
M  V30 4781 O 444.43 -1.66112 -0.755854 0
M  V30 4782 C 444.481 -2.47158 2.63809 0
M  V30 4783 O 444.202 -1.94032 3.92789 0
M  V30 4784 C 445.703 -3.39062 2.85573 0
M  V30 4785 H 442.923 -0.400623 0.538277 0
M  V30 4786 H 445.467 -0.646827 1.94001 0
M  V30 4787 H 443.622 -3.10043 2.32276 0
M  V30 4788 H 444.036 -2.69585 4.49916 0
M  V30 4789 H 445.51 -4.16459 3.62306 0
M  V30 4790 H 445.987 -3.93941 1.94184 0
M  V30 4791 H 446.593 -2.81975 3.18387 0
M  V30 4792 N 444.908 -1.36708 -0.784132 0
M  V30 4793 C 445.871 -1.31307 -1.87859 0
M  V30 4794 C 446.871 -0.219654 -1.59293 0
M  V30 4795 O 448.061 -0.47476 -1.67606 0
M  V30 4796 C 445.193 -1.03679 -3.24751 0
M  V30 4797 H 446.386 -2.28647 -1.94064 0
M  V30 4798 H 443.939 -1.21558 -0.98252 0
M  V30 4799 H 444.674 -0.0681936 -3.24228 0
M  V30 4800 H 444.459 -1.82811 -3.46876 0
M  V30 4801 H 445.949 -1.02518 -4.04821 0
M  V30 4802 N 446.386 1.0089 -1.21074 0
M  V30 4803 C 447.611 1.78727 -1.05221 0
M  V30 4804 C 448.036 1.83932 0.393795 0
M  V30 4805 O 447.394 1.28004 1.28393 0
M  V30 4806 C 447.442 3.20665 -1.64944 0
M  V30 4807 O 446.546 4.02632 -0.892273 0
M  V30 4808 H 445.887 0.550973 -0.370574 0
M  V30 4809 H 448.417 1.26847 -1.60534 0
M  V30 4810 H 448.427 3.71352 -1.69002 0
M  V30 4811 H 447.102 3.16191 -2.70177 0
M  V30 4812 H 445.679 3.61207 -0.926492 0
M  V30 4813 N 447.864 1.01787 1.20321 0
M  V30 4814 C 448.827 0.593972 2.2137 0
M  V30 4815 C 449.827 -0.336553 1.57239 0
M  V30 4816 O 451.017 -0.125069 1.7375 0
M  V30 4817 C 448.149 -0.132433 3.40643 0
M  V30 4818 H 449.342 1.48791 2.60387 0
M  V30 4819 H 446.895 0.807803 1.33807 0
M  V30 4820 H 447.63 -1.04123 3.0713 0
M  V30 4821 H 447.415 0.53605 3.88418 0
M  V30 4822 H 448.905 -0.416314 4.1552 0
M  V30 4823 N 449.342 -1.36122 0.79427 0
M  V30 4824 C 450.567 -2.03891 0.379871 0
M  V30 4825 C 450.992 -1.59488 -0.997251 0
M  V30 4826 O 450.35 -0.765652 -1.64339 0
M  V30 4827 C 450.398 -3.57687 0.457442 0
M  V30 4828 O 449.502 -4.08931 -0.5338 0
M  V30 4829 H 448.843 -0.6443 0.160541 0
M  V30 4830 H 451.373 -1.73976 1.07673 0
M  V30 4831 H 451.383 -4.06721 0.322792 0
M  V30 4832 H 450.058 -3.89357 1.46199 0
M  V30 4833 H 448.635 -3.71154 -0.360409 0
M  V30 4834 N 450.82 -0.546701 -1.47814 0
M  V30 4835 C 452.048 -0.0232857 -2.06887 0
M  V30 4836 C 452.463 1.26571 -1.4009 0
M  V30 4837 O 451.82 1.7569 -0.493906 0
M  V30 4838 C 451.871 0.186975 -3.61016 0
M  V30 4839 O 451.592 -1.05097 -4.25307 0
M  V30 4840 C 453.093 0.748872 -4.36929 0
M  V30 4841 H 450.313 -0.0410763 -0.669742 0
M  V30 4842 H 452.857 -0.757117 -1.89968 0
M  V30 4843 H 451.012 0.870903 -3.77484 0
M  V30 4844 H 451.426 -0.842121 -5.17695 0
M  V30 4845 H 452.9 0.845334 -5.45489 0
M  V30 4846 H 453.377 1.75772 -4.02493 0
M  V30 4847 H 453.983 0.100979 -4.2518 0
M  V30 4848 N 452.299 1.55045 -0.282633 0
M  V30 4849 C 453.524 2.04628 0.337977 0
M  V30 4850 C 453.949 1.15937 1.48123 0
M  V30 4851 O 453.307 0.159532 1.80597 0
M  V30 4852 C 453.355 3.51854 0.78936 0
M  V30 4853 O 452.459 3.66236 1.89592 0
M  V30 4854 H 451.8 0.660434 0.0687261 0
M  V30 4855 H 454.33 2.00261 -0.419124 0
M  V30 4856 H 454.34 3.93361 1.08311 0
M  V30 4857 H 453.015 4.15873 -0.0470419 0
M  V30 4858 H 451.592 3.36633 1.60413 0
M  V30 4859 N 453.777 0.010035 1.57597 0
M  V30 4860 C 454.707 -0.976857 2.12084 0
M  V30 4861 C 455.688 -1.35191 1.03235 0
M  V30 4862 O 456.873 -1.43389 1.3097 0
M  V30 4863 C 454.003 -2.26548 2.63236 0
M  V30 4864 C 452.957 -2.03175 3.76701 0
M  V30 4865 C 452.283 -3.38138 4.14206 0
M  V30 4866 C 453.583 -1.38625 5.03568 0
M  V30 4867 H 455.277 -0.523145 2.94794 0
M  V30 4868 H 452.823 -0.250195 1.4181 0
M  V30 4869 H 454.776 -2.95952 2.99984 0
M  V30 4870 H 453.5 -2.74051 1.77661 0
M  V30 4871 H 452.159 -1.36195 3.40362 0
M  V30 4872 H 451.807 -3.83363 3.25641 0
M  V30 4873 H 451.507 -3.23312 4.90656 0
M  V30 4874 H 453.031 -4.08841 4.53521 0
M  V30 4875 H 454.445 -1.98 5.38023 0
M  V30 4876 H 452.842 -1.34256 5.84889 0
M  V30 4877 H 453.912 -0.356722 4.83586 0
M  V30 4878 N 455.255 -1.55392 -0.262866 0
M  V30 4879 C 456.501 -1.76737 -0.99458 0
M  V30 4880 C 456.834 -0.572453 -1.85571 0
M  V30 4881 O 456.109 0.429732 -1.89693 0
M  V30 4882 C 456.392 -3.07824 -1.8686 0
M  V30 4883 C 456.245 -4.3769 -1.03672 0
M  V30 4884 C 457.564 -3.35021 -2.85393 0
M  V30 4885 H 454.683 -0.643005 -0.360157 0
M  V30 4886 H 457.325 -1.88126 -0.266216 0
M  V30 4887 H 455.475 -2.98245 -2.48962 0
M  V30 4888 H 457.147 -4.59238 -0.43563 0
M  V30 4889 H 455.39 -4.32461 -0.340513 0
M  V30 4890 H 456.061 -5.25759 -1.6817 0
M  V30 4891 H 458.537 -3.44458 -2.33426 0
M  V30 4892 H 457.413 -4.27989 -3.43681 0
M  V30 4893 H 457.674 -2.55153 -3.61039 0
M  V30 4894 N 456.733 0.527833 -1.48498 0
M  V30 4895 C 457.663 1.64136 -1.66077 0
M  V30 4896 C 458.644 1.62286 -0.509625 0
M  V30 4897 O 459.829 1.79449 -0.742413 0
M  V30 4898 C 456.959 3.02717 -1.70234 0
M  V30 4899 C 455.913 3.19426 -2.8487 0
M  V30 4900 C 455.239 4.5909 -2.74118 0
M  V30 4901 C 456.539 3.01993 -4.26142 0
M  V30 4902 H 458.233 1.4968 -2.593 0
M  V30 4903 H 455.779 0.718654 -1.24785 0
M  V30 4904 H 457.732 3.80491 -1.8112 0
M  V30 4905 H 456.456 3.18201 -0.735911 0
M  V30 4906 H 455.115 2.4407 -2.73542 0
M  V30 4907 H 454.763 4.71413 -1.7544 0
M  V30 4908 H 454.463 4.71214 -3.51042 0
M  V30 4909 H 455.987 5.3896 -2.86974 0
M  V30 4910 H 457.401 3.69558 -4.38292 0
M  V30 4911 H 455.798 3.2561 -5.04082 0
M  V30 4912 H 456.868 1.98396 -4.42456 0
M  V30 4913 N 458.211 1.37122 0.776871 0
M  V30 4914 C 459.141 1.35164 1.90402 0
M  V30 4915 C 460.122 0.221069 1.68657 0
M  V30 4916 O 461.307 0.420642 1.8959 0
M  V30 4917 C 458.437 1.15274 3.27611 0
M  V30 4918 C 457.391 2.25289 3.63908 0
M  V30 4919 C 456.717 1.90527 4.99603 0
M  V30 4920 C 458.017 3.67446 3.71188 0
M  V30 4921 H 459.711 2.29482 1.92297 0
M  V30 4922 H 457.257 1.10465 0.923773 0
M  V30 4923 H 459.21 1.12536 4.06096 0
M  V30 4924 H 457.934 0.174102 3.26136 0
M  V30 4925 H 456.593 2.27174 2.87728 0
M  V30 4926 H 456.241 0.91206 4.94662 0
M  V30 4927 H 455.941 2.64193 5.24858 0
M  V30 4928 H 457.465 1.89367 5.80493 0
M  V30 4929 H 458.879 3.67719 4.39836 0
M  V30 4930 H 457.276 4.40123 4.07936 0
M  V30 4931 H 458.346 4.01443 2.71977 0
M  V30 4932 N 459.689 -1.00246 1.21608 0
M  V30 4933 C 460.619 -2.10921 1.00172 0
M  V30 4934 C 461.6 -1.69938 -0.0741587 0
M  V30 4935 O 462.785 -1.94009 0.0861753 0
M  V30 4936 C 459.915 -3.42618 0.568355 0
M  V30 4937 C 458.869 -3.97407 1.58909 0
M  V30 4938 C 458.195 -5.25038 1.01187 0
M  V30 4939 C 459.495 -4.2918 2.97661 0
M  V30 4940 H 461.189 -2.29112 1.92739 0
M  V30 4941 H 458.735 -1.10101 0.928102 0
M  V30 4942 H 460.688 -4.19444 0.405555 0
M  V30 4943 H 459.412 -3.24227 -0.392961 0
M  V30 4944 H 458.071 -3.22703 1.73949 0
M  V30 4945 H 457.719 -5.02982 0.0421965 0
M  V30 4946 H 457.419 -5.62661 1.6937 0
M  V30 4947 H 458.943 -6.04507 0.860448 0
M  V30 4948 H 460.357 -4.96839 2.86049 0
M  V30 4949 H 458.754 -4.77952 3.6288 0
M  V30 4950 H 459.824 -3.3735 3.48315 0
M  V30 4951 N 461.167 -1.02423 -1.1978 0
M  V30 4952 C 462.097 -0.62157 -2.25075 0
M  V30 4953 C 463.078 0.367148 -1.6609 0
M  V30 4954 O 464.263 0.250892 -1.92573 0
M  V30 4955 C 461.393 0.0331826 -3.47284 0
M  V30 4956 C 460.347 -0.877323 -4.18912 0
M  V30 4957 C 459.673 -0.0879296 -5.34628 0
M  V30 4958 C 460.973 -2.18892 -4.74219 0
M  V30 4959 H 462.667 -1.50179 -2.59011 0
M  V30 4960 H 460.213 -0.723547 -1.24502 0
M  V30 4961 H 462.166 0.326488 -4.20133 0
M  V30 4962 H 460.89 0.948164 -3.12534 0
M  V30 4963 H 459.549 -1.15475 -3.47938 0
M  V30 4964 H 459.197 0.828941 -4.96123 0
M  V30 4965 H 458.897 -0.694359 -5.83483 0
M  V30 4966 H 460.421 0.198743 -6.10276 0
M  V30 4967 H 461.835 -1.95746 -5.38847 0
M  V30 4968 H 460.232 -2.74686 -5.33542 0
M  V30 4969 H 461.302 -2.84674 -3.92541 0
M  V30 4970 N 462.645 1.35699 -0.801477 0
M  V30 4971 C 463.577 2.28598 -0.166028 0
M  V30 4972 C 464.59 1.50044 0.631721 0
M  V30 4973 O 465.779 1.72339 0.464921 0
M  V30 4974 C 462.879 3.29625 0.787451 0
M  V30 4975 C 462.052 4.37384 0.037171 0
M  V30 4976 C 461.111 5.183 0.908375 0
M  V30 4977 O 460.137 5.68053 0.361189 0
M  V30 4978 N 461.339 5.35912 2.23112 0
M  V30 4979 H 464.104 2.83771 -0.964071 0
M  V30 4980 H 461.665 1.47994 -0.656469 0
M  V30 4981 H 463.657 3.80648 1.37439 0
M  V30 4982 H 462.227 2.75004 1.48632 0
M  V30 4983 H 461.447 3.87364 -0.730935 0
M  V30 4984 H 462.735 5.0653 -0.480109 0
M  V30 4985 H 462.133 4.97125 2.69968 0
M  V30 4986 H 460.69 5.90133 2.76741 0
M  V30 4987 N 464.123 0.554532 1.47522 0
M  V30 4988 C 465.073 -0.215008 2.26984 0
M  V30 4989 C 466.057 -0.88774 1.34194 0
M  V30 4990 O 467.249 -0.786489 1.58567 0
M  V30 4991 C 464.378 -1.24604 3.19889 0
M  V30 4992 C 463.464 -0.576857 4.20159 0
M  V30 4993 N 463.855 0.351541 5.04577 0
M  V30 4994 C 462.153 -0.831104 4.38188 0
M  V30 4995 C 462.854 0.739995 5.76974 0
M  V30 4996 N 461.83 0.0954407 5.43516 0
M  V30 4997 H 465.632 0.498843 2.89636 0
M  V30 4998 H 463.146 0.374279 1.58028 0
M  V30 4999 H 465.143 -1.81128 3.75498 0
M  V30 5000 H 463.803 -1.96101 2.58794 0
M  V30 5001 H 464.814 0.725556 5.12792 0
M  V30 5002 H 461.491 -1.53479 3.88266 0
M  V30 5003 H 462.881 1.50271 6.5488 0
M  V30 5004 N 465.601 -1.54893 0.290851 0
M  V30 5005 C 467.012 -1.85584 -0.203816 0
M  V30 5006 C 467.363 -1.21285 -1.54222 0
M  V30 5007 O 466.488 -0.506841 -2.10381 0
M  V30 5008 C 467.083 -3.367 -0.376595 0
M  V30 5009 C 465.642 -3.6746 -0.815485 0
M  V30 5010 C 464.789 -2.77178 0.0821087 0
M  V30 5011 H 467.74 -1.50208 0.512175 0
M  V30 5012 H 467.761 -3.60656 -1.21275 0
M  V30 5013 H 467.273 -3.8347 0.59767 0
M  V30 5014 H 465.374 -3.26201 -1.80066 0
M  V30 5015 H 465.487 -4.7478 -0.641905 0
M  V30 5016 H 463.851 -2.50925 -0.436895 0
M  V30 5017 H 464.634 -3.26767 1.05254 0
M  V30 5018 N 467.08 -0.0183926 -1.57589 0
M  V30 5019 C 468.043 0.951986 -2.08494 0
M  V30 5020 C 469.043 1.26092 -0.997874 0
M  V30 5021 O 470.233 1.20304 -1.25987 0
M  V30 5022 C 467.365 2.27165 -2.54182 0
M  V30 5023 H 468.558 0.511307 -2.95509 0
M  V30 5024 H 466.111 0.229444 -1.54607 0
M  V30 5025 H 466.846 2.75884 -1.70465 0
M  V30 5026 H 466.631 2.06057 -3.33591 0
M  V30 5027 H 468.121 2.9674 -2.93828 0
M  V30 5028 N 468.558 1.5553 0.254621 0
M  V30 5029 C 469.521 1.88872 1.29846 0
M  V30 5030 C 470.521 0.764591 1.41459 0
M  V30 5031 O 471.711 1.03265 1.40293 0
M  V30 5032 C 468.843 2.11032 2.67728 0
M  V30 5033 H 470.036 2.82201 1.01502 0
M  V30 5034 H 467.589 1.48303 0.493556 0
M  V30 5035 H 468.324 1.20146 3.01223 0
M  V30 5036 H 468.109 2.92895 2.60682 0
M  V30 5037 H 469.599 2.38038 3.43115 0
M  V30 5038 N 470.036 -0.519951 1.48776 0
M  V30 5039 C 471.285 -1.27175 1.56555 0
M  V30 5040 C 471.598 -1.9401 0.248869 0
M  V30 5041 O 472.804 -2.70725 0.205004 0
M  V30 5042 C 471.26 -2.30811 2.76142 0
M  V30 5043 C 470.868 -1.7 4.14493 0
M  V30 5044 C 472.612 -3.06937 2.9324 0
M  V30 5045 C 470.519 -2.71635 5.25327 0
M  V30 5046 H 469.449 -0.478329 0.582853 0
M  V30 5047 H 472.1 -0.547916 1.75129 0
M  V30 5048 H 470.482 -3.06274 2.51023 0
M  V30 5049 H 471.656 -1.00658 4.49672 0
M  V30 5050 H 469.971 -1.06331 4.02595 0
M  V30 5051 H 472.568 -3.82905 3.73213 0
M  V30 5052 H 472.911 -3.63409 2.03075 0
M  V30 5053 H 473.444 -2.38589 3.18308 0
M  V30 5054 H 470.183 -2.1997 6.1749 0
M  V30 5055 H 469.703 -3.39275 4.94624 0
M  V30 5056 H 471.382 -3.34429 5.53865 0
M  V30 5057 N 471.514 -1.37532 -0.769588 0
M  V30 5058 C 472.477 -1.33292 -1.86456 0
M  V30 5059 C 473.477 -0.236537 -1.59051 0
M  V30 5060 O 474.667 -0.492511 -1.67093 0
M  V30 5061 C 471.799 -1.07118 -3.23633 0
M  V30 5062 H 472.992 -2.30692 -1.91628 0
M  V30 5063 H 470.545 -1.22593 -0.969572 0
M  V30 5064 H 471.28 -0.102578 -3.24138 0
M  V30 5065 H 471.065 -1.86479 -3.44917 0
M  V30 5066 H 472.555 -1.06806 -4.03711 0
M  V30 5067 N 472.992 0.995999 -1.22138 0
M  V30 5068 C 473.939 2.08551 -0.988687 0
M  V30 5069 C 474.909 1.65864 0.0885021 0
M  V30 5070 O 476.094 1.90704 -0.0604589 0
M  V30 5071 C 473.234 3.40374 -0.569191 0
M  V30 5072 C 472.347 3.96421 -1.71681 0
M  V30 5073 C 471.482 5.1639 -1.2456 0
M  V30 5074 C 470.521 5.64567 -2.36497 0
M  V30 5075 N 469.658 6.75777 -1.90445 0
M  V30 5076 H 474.498 2.2779 -1.92135 0
M  V30 5077 H 472.035 1.1168 -0.957388 0
M  V30 5078 H 473.993 4.16068 -0.307166 0
M  V30 5079 H 472.623 3.21145 0.326462 0
M  V30 5080 H 471.675 3.17628 -2.09324 0
M  V30 5081 H 472.987 4.2816 -2.55891 0
M  V30 5082 H 472.141 5.99362 -0.940774 0
M  V30 5083 H 470.88 4.86266 -0.373662 0
M  V30 5084 H 469.885 4.80185 -2.67772 0
M  V30 5085 H 471.11 5.96716 -3.24202 0
M  V30 5086 H 469.056 6.47443 -1.05609 0
M  V30 5087 H 468.973 7.06818 -2.68223 0
M  V30 5088 H 470.241 7.62262 -1.63022 0
M  V30 5089 N 474.47 1.03057 1.19235 0
M  V30 5090 C 475.719 0.72326 1.88287 0
M  V30 5091 C 476.032 -0.751333 1.80594 0
M  V30 5092 O 477.238 -1.17176 2.44912 0
M  V30 5093 C 475.694 1.24338 3.3774 0
M  V30 5094 C 475.302 2.74587 3.53986 0
M  V30 5095 C 477.046 1.01213 4.12257 0
M  V30 5096 C 474.953 3.20009 4.97341 0
M  V30 5097 H 473.883 0.266848 0.705201 0
M  V30 5098 H 476.534 1.24509 1.34795 0
M  V30 5099 H 474.916 0.649457 3.90638 0
M  V30 5100 H 476.09 3.39649 3.11408 0
M  V30 5101 H 474.405 2.9601 2.9286 0
M  V30 5102 H 477.002 1.32675 5.17978 0
M  V30 5103 H 477.345 -0.051001 4.16269 0
M  V30 5104 H 477.878 1.57014 3.65501 0
M  V30 5105 H 474.617 4.25659 4.98493 0
M  V30 5106 H 474.137 2.59676 5.40674 0
M  V30 5107 H 475.816 3.13447 5.66003 0
M  V30 5108 N 475.948 -1.35272 0.808662 0
M  V30 5109 C 477.364 -1.51806 0.492653 0
M  V30 5110 C 477.564 -1.7574 -0.985778 0
M  V30 5111 O 476.62 -1.80003 -1.77074 0
M  V30 5112 C 477.933 -2.69202 1.33981 0
M  V30 5113 C 479.481 -2.8308 1.33547 0
M  V30 5114 C 479.956 -4.03502 2.16679 0
M  V30 5115 N 481.447 -4.10684 2.14227 0
M  V30 5116 C 482.182 -5.02984 2.75308 0
M  V30 5117 N 481.678 -6.00603 3.45323 0
M  V30 5118 N 483.471 -4.95746 2.64938 0
M  V30 5119 H 475.622 -1.17993 1.76611 0
M  V30 5120 H 477.885 -0.577476 0.751814 0
M  V30 5121 H 477.591 -2.581 2.38909 0
M  V30 5122 H 477.465 -3.63854 0.994491 0
M  V30 5123 H 479.852 -2.93631 0.294036 0
M  V30 5124 H 479.933 -1.89278 1.72068 0
M  V30 5125 H 479.577 -3.93711 3.20864 0
M  V30 5126 H 479.507 -4.96489 1.75517 0
M  V30 5127 H 481.998 -3.40802 1.63285 0
M  V30 5128 H 482.311 -6.67633 3.89212 0
M  V30 5129 H 480.656 -6.0077 3.49428 0
M  V30 5130 H 483.847 -4.18439 2.09825 0
M  V30 5131 H 484.02 -5.67487 3.12829 0
M  V30 5132 N 477.426 -0.562348 -1.47226 0
M  V30 5133 C 478.336 0.185466 -2.33866 0
M  V30 5134 C 479.352 0.906713 -1.48508 0
M  V30 5135 O 480.528 0.874458 -1.81425 0
M  V30 5136 C 477.593 1.19904 -3.25306 0
M  V30 5137 C 476.654 0.484669 -4.26555 0
M  V30 5138 C 475.887 1.44996 -5.13626 0
M  V30 5139 O 476.11 2.68515 -5.03245 0
M  V30 5140 O 475.044 0.971642 -5.94006 0
M  V30 5141 H 478.87 -0.525361 -2.99121 0
M  V30 5142 H 476.455 -0.322916 -1.45868 0
M  V30 5143 H 478.337 1.78399 -3.81774 0
M  V30 5144 H 477.012 1.8917 -2.62672 0
M  V30 5145 H 475.919 -0.141605 -3.73832 0
M  V30 5146 H 477.252 -0.166634 -4.91918 0
M  V30 5147 N 478.904 1.54736 -0.299062 0
M  V30 5148 C 479.814 2.27127 0.587413 0
M  V30 5149 C 480.83 1.30575 1.15005 0
M  V30 5150 O 482.006 1.63554 1.17525 0
M  V30 5151 C 479.071 2.99645 1.74395 0
M  V30 5152 C 478.132 4.11731 1.21559 0
M  V30 5153 C 477.365 4.80781 2.317 0
M  V30 5154 O 477.588 4.4918 3.51558 0
M  V30 5155 O 476.522 5.68226 1.98501 0
M  V30 5156 H 480.348 3.037 0.000250109 0
M  V30 5157 H 477.933 1.49256 -0.0655919 0
M  V30 5158 H 479.815 3.45138 2.4178 0
M  V30 5159 H 478.49 2.25969 2.31775 0
M  V30 5160 H 477.397 3.70641 0.507514 0
M  V30 5161 H 478.73 4.87379 0.687233 0
M  V30 5162 N 480.382 0.0267497 1.57577 0
M  V30 5163 C 481.312 -0.954308 2.13108 0
M  V30 5164 C 482.293 -1.34088 1.04663 0
M  V30 5165 O 483.478 -1.41992 1.32484 0
M  V30 5166 C 480.608 -2.23744 2.65624 0
M  V30 5167 C 479.562 -1.99168 3.78835 0
M  V30 5168 C 478.888 -3.33726 4.17769 0
M  V30 5169 C 480.188 -1.33277 5.0501 0
M  V30 5170 H 481.882 -0.491848 2.95332 0
M  V30 5171 H 479.428 -0.23514 1.42067 0
M  V30 5172 H 481.381 -2.92754 3.03106 0
M  V30 5173 H 480.105 -2.72151 1.80558 0
M  V30 5174 H 478.764 -1.32577 3.41788 0
M  V30 5175 H 478.412 -3.79888 3.29688 0
M  V30 5176 H 478.112 -3.18089 4.94058 0
M  V30 5177 H 479.636 -4.04008 4.57832 0
M  V30 5178 H 481.05 -1.92283 5.40093 0
M  V30 5179 H 479.447 -1.28045 5.8628 0
M  V30 5180 H 480.517 -0.305411 4.83937 0
M  V30 5181 N 481.861 -1.55662 -0.24637 0
M  V30 5182 C 483.107 -1.77782 -0.975779 0
M  V30 5183 C 483.44 -0.592103 -1.84953 0
M  V30 5184 O 482.715 0.409588 -1.90138 0
M  V30 5185 C 482.998 -3.09788 -1.83584 0
M  V30 5186 C 482.851 -4.38764 -0.990241 0
M  V30 5187 C 484.17 -3.38029 -2.81823 0
M  V30 5188 H 481.289 -0.646789 -0.353317 0
M  V30 5189 H 483.931 -1.88398 -0.246248 0
M  V30 5190 H 482.081 -3.00869 -2.45784 0
M  V30 5191 H 483.753 -4.59675 -0.386897 0
M  V30 5192 H 481.996 -4.32798 -0.294626 0
M  V30 5193 H 482.667 -5.27514 -1.62584 0
M  V30 5194 H 485.143 -3.46915 -2.2976 0
M  V30 5195 H 484.019 -4.3161 -3.39122 0
M  V30 5196 H 484.28 -2.58968 -3.58313 0
M  V30 5197 N 483.339 0.512053 -1.4905 0
M  V30 5198 C 484.302 1.59704 -1.64399 0
M  V30 5199 C 485.302 1.52285 -0.516317 0
M  V30 5200 O 486.492 1.55635 -0.782527 0
M  V30 5201 C 483.624 2.9935 -1.63102 0
M  V30 5202 H 484.817 1.47428 -2.61161 0
M  V30 5203 H 482.37 0.735469 -1.37915 0
M  V30 5204 H 483.105 3.17116 -0.678836 0
M  V30 5205 H 482.89 3.06144 -2.44986 0
M  V30 5206 H 484.38 3.782 -1.77072 0
M  V30 5207 N 484.817 1.37938 0.762283 0
M  V30 5208 C 485.749 1.30349 1.88525 0
M  V30 5209 C 486.762 0.217402 1.61342 0
M  V30 5210 O 487.951 0.474291 1.72084 0
M  V30 5211 C 485.051 0.994844 3.23969 0
M  V30 5212 C 484.224 2.18829 3.78725 0
M  V30 5213 C 483.283 1.84844 4.92665 0
M  V30 5214 O 482.309 2.57244 5.07754 0
M  V30 5215 N 483.511 0.798201 5.74986 0
M  V30 5216 H 486.276 2.27114 1.95549 0
M  V30 5217 H 483.837 1.31686 0.941825 0
M  V30 5218 H 485.829 0.748168 3.97724 0
M  V30 5219 H 484.399 0.115446 3.12387 0
M  V30 5220 H 483.619 2.59615 2.96637 0
M  V30 5221 H 484.907 2.98497 4.1204 0
M  V30 5222 H 484.305 0.197611 5.65355 0
M  V30 5223 H 482.862 0.611396 6.48926 0
M  V30 5224 N 486.295 -0.989507 1.22664 0
M  V30 5225 C 487.543 -1.72612 1.05117 0
M  V30 5226 C 487.864 -1.90552 -0.414131 0
M  V30 5227 O 487.134 -1.4676 -1.29762 0
M  V30 5228 H 485.714 -0.639555 0.385977 0
M  V30 5229 H 488.376 -1.19158 1.54232 0
M  V30 5230 H 487.472 -2.71926 1.53175 0
M  V30 5231 N 487.773 -1.03688 -1.18687 0
M  V30 5232 C 488.703 -0.645407 -2.24403 0
M  V30 5233 C 489.684 0.349511 -1.66471 0
M  V30 5234 O 490.869 0.230453 -1.92828 0
M  V30 5235 C 487.999 -0.00365337 -3.473 0
M  V30 5236 C 486.953 -0.921705 -4.17958 0
M  V30 5237 C 486.279 -0.144629 -5.34504 0
M  V30 5238 C 487.579 -2.23909 -4.71871 0
M  V30 5239 H 489.273 -1.52917 -2.57404 0
M  V30 5240 H 486.819 -0.736711 -1.23728 0
M  V30 5241 H 488.772 0.281908 -4.20456 0
M  V30 5242 H 487.496 0.914963 -3.13522 0
M  V30 5243 H 486.155 -1.19159 -3.46694 0
M  V30 5244 H 485.803 0.776274 -4.96974 0
M  V30 5245 H 485.503 -0.756206 -5.82714 0
M  V30 5246 H 487.027 0.134004 -6.10453 0
M  V30 5247 H 488.441 -2.0145 -5.36741 0
M  V30 5248 H 486.838 -2.8033 -5.30599 0
M  V30 5249 H 487.908 -2.88822 -3.895 0
M  V30 5250 N 489.251 1.34841 -0.815825 0
M  V30 5251 C 490.499 1.98107 -0.399744 0
M  V30 5252 C 490.82 1.65019 1.03894 0
M  V30 5253 O 490.09 0.937311 1.72021 0
M  V30 5254 H 488.67 0.732827 -0.144823 0
M  V30 5255 H 491.332 1.64599 -1.0437 0
M  V30 5256 H 490.428 3.07856 -0.512965 0
M  V30 5257 N 490.729 0.570148 1.46925 0
M  V30 5258 C 492.145 0.23087 1.57921 0
M  V30 5259 C 492.345 -1.26676 1.56702 0
M  V30 5260 O 491.401 -2.04774 1.47729 0
M  V30 5261 C 492.714 0.868973 2.8787 0
M  V30 5262 C 494.262 0.841397 3.01479 0
M  V30 5263 C 494.737 1.45881 4.34146 0
M  V30 5264 N 496.228 1.42258 4.40814 0
M  V30 5265 C 496.963 1.8698 5.42057 0
M  V30 5266 N 496.459 2.39618 6.50042 0
M  V30 5267 N 498.252 1.77972 5.33181 0
M  V30 5268 H 490.403 1.54301 1.45962 0
M  V30 5269 H 492.666 0.644224 0.69547 0
M  V30 5270 H 492.372 1.922 2.94537 0
M  V30 5271 H 492.246 0.369682 3.75384 0
M  V30 5272 H 494.633 -0.202973 2.94401 0
M  V30 5273 H 494.714 1.37858 2.15474 0
M  V30 5274 H 494.358 2.50231 4.4198 0
M  V30 5275 H 494.288 0.896958 5.18905 0
M  V30 5276 H 496.779 1.03768 3.63374 0
M  V30 5277 H 497.092 2.71633 7.23488 0
M  V30 5278 H 495.437 2.43636 6.50897 0
M  V30 5279 H 498.628 1.36617 4.4772 0
M  V30 5280 H 498.801 2.13143 6.11943 0
M  V30 5281 N 492.207 -1.54576 0.307264 0
M  V30 5282 C 493.17 -2.22423 -0.553224 0
M  V30 5283 C 494.17 -1.21231 -1.05639 0
M  V30 5284 O 495.36 -1.45923 -0.951419 0
M  V30 5285 C 492.492 -2.91552 -1.76664 0
M  V30 5286 H 493.685 -2.99874 0.0396484 0
M  V30 5287 H 491.238 -1.56192 0.0581629 0
M  V30 5288 H 491.973 -2.18196 -2.39918 0
M  V30 5289 H 491.758 -3.65738 -1.41343 0
M  V30 5290 H 493.248 -3.43292 -2.37783 0
M  V30 5291 N 493.685 -0.035106 -1.57561 0
M  V30 5292 C 494.925 0.646316 -1.93913 0
M  V30 5293 C 495.289 1.68947 -0.912185 0
M  V30 5294 O 496.49 2.42381 -1.1621 0
M  V30 5295 C 494.761 1.24136 -3.35149 0
M  V30 5296 S 496.32 1.94302 -3.93436 0
M  V30 5297 H 493.138 0.212642 -0.678457 0
M  V30 5298 H 495.74 -0.100203 -1.95243 0
M  V30 5299 H 494.444 0.46979 -4.07702 0
M  V30 5300 H 493.975 2.02505 -3.37276 0
M  V30 5301 H 495.99 3.22205 -3.77357 0
M  V30 5302 N 495.163 1.55791 0.238111 0
M  V30 5303 C 496.411 1.77681 0.963001 0
M  V30 5304 C 496.732 0.600674 1.85518 0
M  V30 5305 O 496.002 -0.383182 1.92116 0
M  V30 5306 H 494.582 0.655315 0.358568 0
M  V30 5307 H 497.244 1.93239 0.253945 0
M  V30 5308 H 496.34 2.69177 1.57956 0
M  V30 5309 N 496.642 -0.504142 1.49319 0
M  V30 5310 C 497.882 -1.26867 1.60263 0
M  V30 5311 C 498.246 -1.89924 0.281578 0
M  V30 5312 O 499.447 -2.67479 0.266176 0
M  V30 5313 C 497.718 -2.30956 2.72753 0
M  V30 5314 S 499.277 -3.1679 3.03628 0
M  V30 5315 H 496.095 -0.431198 0.565322 0
M  V30 5316 H 498.697 -0.571407 1.86963 0
M  V30 5317 H 497.401 -1.83156 3.67263 0
M  V30 5318 H 496.932 -3.05356 2.48035 0
M  V30 5319 H 498.947 -4.31549 2.44908 0
M  V30 5320 N 498.12 -1.38341 -0.754957 0
M  V30 5321 C 499.083 -1.35262 -1.85032 0
M  V30 5322 C 500.083 -0.253393 -1.58791 0
M  V30 5323 O 501.273 -0.510205 -1.66561 0
M  V30 5324 C 498.405 -1.10544 -3.22479 0
M  V30 5325 H 499.598 -2.32712 -1.8917 0
M  V30 5326 H 497.151 -1.23614 -0.956515 0
M  V30 5327 H 497.886 -0.136952 -3.24011 0
M  V30 5328 H 497.671 -1.90127 -3.4292 0
M  V30 5329 H 499.161 -1.11082 -4.02555 0
M  V30 5330 N 499.598 0.982988 -1.23187 0
M  V30 5331 C 501.009 1.53847 -1.05773 0
M  V30 5332 C 501.36 1.92568 0.375744 0
M  V30 5333 O 500.485 1.75783 1.26211 0
M  V30 5334 C 501.08 2.79567 -1.91384 0
M  V30 5335 C 499.639 3.31524 -1.78238 0
M  V30 5336 C 498.786 2.04534 -1.87246 0
M  V30 5337 H 501.737 0.802962 -1.36888 0
M  V30 5338 H 501.758 3.52317 -1.43711 0
M  V30 5339 H 501.27 2.51353 -2.95708 0
M  V30 5340 H 499.371 3.64623 -0.766875 0
M  V30 5341 H 499.484 4.01457 -2.61475 0
M  V30 5342 H 497.848 2.1855 -1.30797 0
M  V30 5343 H 498.631 1.78706 -2.9312 0
M  V30 5344 N 501.076 1.04316 1.18135 0
M  V30 5345 C 502.324 0.746542 1.87806 0
M  V30 5346 C 502.645 -0.728082 1.80898 0
M  V30 5347 O 501.915 -1.52554 1.22899 0
M  V30 5348 H 500.495 0.273157 0.695265 0
M  V30 5349 H 503.157 1.32044 1.43354 0
M  V30 5350 H 502.253 1.05362 2.93778 0
M  V30 5351 N 502.554 -1.34406 0.822964 0
M  V30 5352 C 503.517 -2.2783 0.250271 0
M  V30 5353 C 504.517 -1.50288 -0.571854 0
M  V30 5354 O 505.707 -1.69825 -0.387952 0
M  V30 5355 C 502.839 -3.34663 -0.649137 0
M  V30 5356 H 504.032 -2.79992 1.07444 0
M  V30 5357 H 501.585 -1.44539 0.594829 0
M  V30 5358 H 502.32 -2.87714 -1.49637 0
M  V30 5359 H 502.105 -3.92052 -0.0611199 0
M  V30 5360 H 503.595 -4.04349 -1.04363 0
M  V30 5361 N 504.032 -0.577932 -1.46621 0
M  V30 5362 C 504.995 0.147805 -2.28723 0
M  V30 5363 C 505.995 0.823325 -1.38123 0
M  V30 5364 O 507.185 0.676011 -1.60548 0
M  V30 5365 C 504.317 1.21853 -3.18378 0
M  V30 5366 H 505.51 -0.573654 -2.94362 0
M  V30 5367 H 503.063 -0.335703 -1.52652 0
M  V30 5368 H 503.798 1.97173 -2.57475 0
M  V30 5369 H 503.583 0.738714 -3.85078 0
M  V30 5370 H 505.073 1.72768 -3.80186 0
M  V30 5371 N 505.51 1.54411 -0.315457 0
M  V30 5372 C 506.758 2.00023 0.288971 0
M  V30 5373 C 507.079 1.20529 1.5329 0
M  V30 5374 O 506.349 0.304986 1.93511 0
M  V30 5375 H 504.929 0.738891 0.109766 0
M  V30 5376 H 507.591 1.90094 -0.430129 0
M  V30 5377 H 506.687 3.07198 0.550999 0
M  V30 5378 N 506.988 0.0434614 1.5754 0
M  V30 5379 C 508.236 -0.630786 1.92004 0
M  V30 5380 C 508.557 -1.71836 0.921807 0
M  V30 5381 O 507.827 -1.9587 -0.034522 0
M  V30 5382 H 506.407 -0.235988 0.708745 0
M  V30 5383 H 509.069 0.0946462 1.9467 0
M  V30 5384 H 508.165 -1.07434 2.93026 0
M  V30 5385 N 508.466 -1.55915 -0.229846 0
M  V30 5386 C 509.691 -1.8296 -0.976743 0
M  V30 5387 C 510.116 -0.622735 -1.77493 0
M  V30 5388 O 509.474 0.428431 -1.76165 0
M  V30 5389 C 509.522 -3.07916 -1.8767 0
M  V30 5390 O 508.626 -2.86028 -2.97088 0
M  V30 5391 H 507.967 -0.603453 -0.277021 0
M  V30 5392 H 510.497 -2.0312 -0.245669 0
M  V30 5393 H 510.507 -3.37802 -2.2881 0
M  V30 5394 H 509.182 -3.95389 -1.28996 0
M  V30 5395 H 507.759 -2.67355 -2.59954 0
M  V30 5396 N 509.944 0.496216 -1.49584 0
M  V30 5397 C 510.854 1.62352 -1.69349 0
M  V30 5398 C 511.87 1.64184 -0.576147 0
M  V30 5399 O 513.046 1.82517 -0.85144 0
M  V30 5400 C 510.111 2.98698 -1.76013 0
M  V30 5401 C 509.172 3.07454 -2.99617 0
M  V30 5402 C 508.405 4.37296 -3.05953 0
M  V30 5403 O 508.628 5.2637 -2.19752 0
M  V30 5404 O 507.562 4.51124 -3.9846 0
M  V30 5405 H 511.388 1.48606 -2.64859 0
M  V30 5406 H 508.973 0.673022 -1.33382 0
M  V30 5407 H 510.855 3.79725 -1.82721 0
M  V30 5408 H 509.53 3.12696 -0.836828 0
M  V30 5409 H 508.437 2.25597 -2.98424 0
M  V30 5410 H 509.77 2.98385 -3.91443 0
M  V30 5411 N 511.423 1.38739 0.74761 0
M  V30 5412 C 512.671 1.35007 1.50391 0
M  V30 5413 C 512.992 -0.0574274 1.94915 0
M  V30 5414 O 512.262 -1.00628 1.6808 0
M  V30 5415 H 510.842 0.496784 0.557866 0
M  V30 5416 H 513.504 1.73479 0.888319 0
M  V30 5417 H 512.6 2.00474 2.392 0
M  V30 5418 N 512.901 -0.976442 1.23707 0
M  V30 5419 C 514.312 -1.53284 1.06587 0
M  V30 5420 C 514.663 -1.92765 -0.365526 0
M  V30 5421 O 513.788 -1.7645 -1.25277 0
M  V30 5422 C 514.383 -2.78548 1.92864 0
M  V30 5423 C 512.942 -3.30574 1.79994 0
M  V30 5424 C 512.089 -2.03538 1.88328 0
M  V30 5425 H 515.04 -0.795692 1.37311 0
M  V30 5426 H 515.061 -3.5155 1.45577 0
M  V30 5427 H 514.573 -2.49782 2.97037 0
M  V30 5428 H 512.674 -3.64211 0.786202 0
M  V30 5429 H 512.787 -4.00065 2.636 0
M  V30 5430 H 511.151 -2.17853 1.31954 0
M  V30 5431 H 511.934 -1.77149 2.94063 0
M  V30 5432 N 514.379 -1.04941 -1.1758 0
M  V30 5433 C 515.79 -0.784501 -1.69418 0
M  V30 5434 C 516.141 0.693625 -1.8353 0
M  V30 5435 O 515.266 1.53925 -1.52106 0
M  V30 5436 C 515.861 -1.41746 -3.07723 0
M  V30 5437 C 514.42 -1.20066 -3.56737 0
M  V30 5438 C 513.567 -1.5026 -2.33061 0
M  V30 5439 H 516.518 -1.21469 -1.02133 0
M  V30 5440 H 516.539 -0.825381 -3.7144 0
M  V30 5441 H 516.051 -2.49325 -2.9742 0
M  V30 5442 H 514.152 -0.144006 -3.72322 0
M  V30 5443 H 514.265 -1.90384 -4.39648 0
M  V30 5444 H 512.629 -0.922598 -2.37403 0
M  V30 5445 H 513.412 -2.58967 -2.25368 0
M  V30 5446 N 515.857 1.33968 -0.830081 0
M  V30 5447 C 517.268 1.80439 -0.479455 0
M  V30 5448 C 517.619 1.68756 1.00079 0
M  V30 5449 O 516.744 1.23171 1.77927 0
M  V30 5450 C 517.339 3.27611 -0.863505 0
M  V30 5451 C 515.898 3.72133 -0.565145 0
M  V30 5452 C 515.045 2.55549 -1.07657 0
M  V30 5453 H 517.996 1.21614 -1.0196 0
M  V30 5454 H 518.017 3.8012 -0.170083 0
M  V30 5455 H 517.529 3.36082 -1.94089 0
M  V30 5456 H 515.63 3.69196 0.502536 0
M  V30 5457 H 515.743 4.65963 -1.11422 0
M  V30 5458 H 514.107 2.49788 -0.497807 0
M  V30 5459 H 514.89 2.66786 -2.16055 0
M  V30 5460 N 517.335 0.585699 1.46312 0
M  V30 5461 C 518.612 0.00542031 1.95599 0
M  V30 5462 C 518.992 -1.45619 1.52834 0
M  V30 5463 O 518.34 -2.14759 0.780446 0
M  V30 5464 C 518.55 0.180601 3.48532 0
M  V30 5465 C 519.898 0.049979 4.24571 0
M  V30 5466 O 520.922 0.109589 3.56031 0
M  V30 5467 O 519.781 -0.0832226 5.46437 0
M  V30 5468 H 516.875 -0.0481281 0.825598 0
M  V30 5469 H 519.421 0.654227 1.56582 0
M  V30 5470 H 518.193 1.19657 3.72556 0
M  V30 5471 H 517.816 -0.504498 3.94386 0
M  V30 5472 N 518.813 -1.54241 0.323641 0
M  V30 5473 C 520.053 -2.0248 -0.279502 0
M  V30 5474 C 520.417 -1.20672 -1.49339 0
M  V30 5475 O 521.618 -1.58715 -2.1694 0
M  V30 5476 C 519.889 -3.52238 -0.605266 0
M  V30 5477 S 521.448 -4.22411 -1.18805 0
M  V30 5478 H 518.266 -0.705957 -0.0845313 0
M  V30 5479 H 520.868 -1.90089 0.456781 0
M  V30 5480 H 519.572 -4.094 0.286339 0
M  V30 5481 H 519.103 -3.6871 -1.37174 0
M  V30 5482 H 521.118 -4.30075 -2.47487 0
M  V30 5483 N 520.291 -0.0518155 -1.57515 0
M  V30 5484 C 521.539 0.620595 -1.92336 0
M  V30 5485 C 521.86 1.71345 -0.930907 0
M  V30 5486 O 521.13 1.95885 0.0241341 0
M  V30 5487 H 519.71 0.232226 -0.709986 0
M  V30 5488 H 522.372 -0.104969 -1.94617 0
M  V30 5489 H 521.468 1.05879 -2.93592 0
M  V30 5490 N 521.769 1.56035 0.221574 0
M  V30 5491 C 523.009 1.80822 0.953038 0
M  V30 5492 C 523.373 0.625316 1.81532 0
M  V30 5493 O 524.574 0.752491 2.58052 0
M  V30 5494 C 522.845 3.10503 1.76983 0
M  V30 5495 S 524.404 3.56604 2.55693 0
M  V30 5496 H 521.222 0.634849 0.320137 0
M  V30 5497 H 523.824 1.94274 0.218619 0
M  V30 5498 H 522.528 3.94636 1.12651 0
M  V30 5499 H 522.059 2.99858 2.54655 0
M  V30 5500 H 524.074 3.1994 3.79279 0
M  V30 5501 N 523.247 -0.488276 1.49845 0
M  V30 5502 C 524.157 -1.61451 1.70207 0
M  V30 5503 C 525.173 -1.63877 0.584846 0
M  V30 5504 O 526.349 -1.82063 0.861107 0
M  V30 5505 C 523.414 -2.9776 1.77594 0
M  V30 5506 C 522.475 -3.05861 3.01243 0
M  V30 5507 C 521.708 -4.35668 3.08268 0
M  V30 5508 O 521.931 -5.25197 2.22541 0
M  V30 5509 O 520.865 -4.49005 4.00847 0
M  V30 5510 H 524.691 -1.47199 2.65643 0
M  V30 5511 H 522.276 -0.665939 1.33737 0
M  V30 5512 H 524.158 -3.7875 1.84732 0
M  V30 5513 H 522.833 -3.12248 0.8534 0
M  V30 5514 H 521.74 -2.24012 2.99616 0
M  V30 5515 H 523.073 -2.96304 3.9302 0
M  V30 5516 N 524.725 -1.39134 -0.740242 0
M  V30 5517 C 526.136 -1.32208 -1.31825 0
M  V30 5518 C 526.487 0.0159919 -1.96193 0
M  V30 5519 O 525.612 0.918111 -1.95958 0
M  V30 5520 C 526.207 -2.39436 -2.39699 0
M  V30 5521 C 524.766 -2.36048 -2.93187 0
M  V30 5522 C 523.913 -2.21599 -1.66701 0
M  V30 5523 H 526.864 -1.49298 -0.538133 0
M  V30 5524 H 526.885 -2.05922 -3.19963 0
M  V30 5525 H 526.397 -3.36811 -1.92821 0
M  V30 5526 H 524.498 -1.42295 -3.44359 0
M  V30 5527 H 524.611 -3.30704 -3.46658 0
M  V30 5528 H 522.975 -1.68681 -1.90837 0
M  V30 5529 H 523.758 -3.20936 -1.21882 0
M  V30 5530 N 526.204 0.969867 -1.24223 0
M  V30 5531 C 527.481 1.68774 -0.988664 0
M  V30 5532 C 527.861 2.05342 0.489673 0
M  V30 5533 O 527.209 1.75486 1.46345 0
M  V30 5534 C 527.419 2.92135 -1.90941 0
M  V30 5535 C 528.767 3.64422 -2.17903 0
M  V30 5536 O 529.791 3.02188 -1.88576 0
M  V30 5537 O 528.65 4.76446 -2.67697 0
M  V30 5538 H 525.744 0.737736 -0.37373 0
M  V30 5539 H 528.29 1.02415 -1.35312 0
M  V30 5540 H 527.062 2.61788 -2.90831 0
M  V30 5541 H 526.685 3.66228 -1.54798 0
M  V30 5542 N 527.682 1.05563 1.17022 0
M  V30 5543 C 528.612 0.681026 2.23348 0
M  V30 5544 C 529.593 -0.322983 1.67005 0
M  V30 5545 O 530.778 -0.199746 1.9317 0
M  V30 5546 C 527.908 0.0589053 3.4725 0
M  V30 5547 C 526.862 0.988082 4.16438 0
M  V30 5548 C 526.188 0.229646 5.34207 0
M  V30 5549 C 527.488 2.31388 4.68249 0
M  V30 5550 H 529.182 1.56993 2.54938 0
M  V30 5551 H 526.728 0.756302 1.2254 0
M  V30 5552 H 528.681 -0.214982 4.20851 0
M  V30 5553 H 527.405 -0.864968 3.14938 0
M  V30 5554 H 526.064 1.24659 3.44754 0
M  V30 5555 H 525.712 -0.697111 4.98146 0
M  V30 5556 H 525.412 0.848815 5.81437 0
M  V30 5557 H 526.936 -0.0368694 6.10589 0
M  V30 5558 H 528.35 2.09964 5.33468 0
M  V30 5559 H 526.747 2.88736 5.26072 0
M  V30 5560 H 527.817 2.94982 3.84855 0
M  V30 5561 N 529.16 -1.33526 0.837174 0
M  V30 5562 C 530.385 -2.0258 0.444545 0
M  V30 5563 C 530.81 -1.6258 -0.946006 0
M  V30 5564 O 530.168 -0.817548 -1.6182 0
M  V30 5565 C 530.216 -3.5605 0.571006 0
M  V30 5566 O 529.32 -4.10422 -0.403431 0
M  V30 5567 H 528.661 -0.638866 0.180958 0
M  V30 5568 H 531.191 -1.70462 1.13154 0
M  V30 5569 H 531.201 -4.05488 0.452024 0
M  V30 5570 H 529.876 -3.84509 1.58512 0
M  V30 5571 H 528.453 -3.72113 -0.242147 0
M  V30 5572 N 530.638 -0.59345 -1.46 0
M  V30 5573 C 531.568 0.121192 -2.33185 0
M  V30 5574 C 532.549 0.872977 -1.4599 0
M  V30 5575 O 533.734 0.846321 -1.74789 0
M  V30 5576 C 530.864 1.12844 -3.28456 0
M  V30 5577 C 529.818 0.4908 -4.25177 0
M  V30 5578 C 529.144 1.60529 -5.10034 0
M  V30 5579 C 530.444 -0.578949 -5.19081 0
M  V30 5580 H 532.138 -0.606767 -2.93187 0
M  V30 5581 H 529.684 -0.293242 -1.40983 0
M  V30 5582 H 531.637 1.63684 -3.88311 0
M  V30 5583 H 530.361 1.88681 -2.66584 0
M  V30 5584 H 529.02 0.00339328 -3.666 0
M  V30 5585 H 528.668 2.35359 -4.44539 0
M  V30 5586 H 528.368 1.18422 -5.75543 0
M  V30 5587 H 529.892 2.11623 -5.72755 0
M  V30 5588 H 531.306 -0.155199 -5.7309 0
M  V30 5589 H 529.703 -0.920947 -5.92991 0
M  V30 5590 H 530.773 -1.46109 -4.62364 0
M  V30 5591 N 532.116 1.54067 -0.331816 0
M  V30 5592 C 533.079 2.23275 0.517768 0
M  V30 5593 C 534.079 1.22897 1.03697 0
M  V30 5594 O 535.269 1.47419 0.928084 0
M  V30 5595 C 532.401 2.94326 1.72004 0
M  V30 5596 H 533.594 2.99773 -0.0873507 0
M  V30 5597 H 531.147 1.56079 -0.0830042 0
M  V30 5598 H 531.882 2.21986 2.36417 0
M  V30 5599 H 531.667 3.67941 1.35507 0
M  V30 5600 H 533.157 3.47031 2.32291 0
M  V30 5601 N 533.594 0.0601682 1.57485 0
M  V30 5602 C 534.557 -0.896373 2.10945 0
M  V30 5603 C 535.557 -1.23402 1.03095 0
M  V30 5604 O 536.747 -1.16921 1.29132 0
M  V30 5605 C 533.879 -2.20346 2.60116 0
M  V30 5606 H 535.072 -0.432778 2.96761 0
M  V30 5607 H 532.625 -0.188372 1.55161 0
M  V30 5608 H 533.36 -2.71268 1.7772 0
M  V30 5609 H 533.145 -1.9714 3.38937 0
M  V30 5610 H 534.635 -2.88846 3.01592 0
M  V30 5611 N 535.072 -1.5615 -0.213296 0
M  V30 5612 C 536.002 -1.96109 -1.26742 0
M  V30 5613 C 536.983 -0.830448 -1.48451 0
M  V30 5614 O 538.168 -1.09339 -1.60495 0
M  V30 5615 C 535.298 -2.28492 -2.61551 0
M  V30 5616 C 534.252 -3.44124 -2.54485 0
M  V30 5617 C 533.578 -3.62134 -3.93399 0
M  V30 5618 C 534.878 -4.78855 -2.08556 0
M  V30 5619 H 536.572 -2.84412 -0.935434 0
M  V30 5620 H 534.118 -1.36836 -0.44854 0
M  V30 5621 H 536.071 -2.55039 -3.3546 0
M  V30 5622 H 534.795 -1.37052 -2.96453 0
M  V30 5623 H 533.454 -3.17639 -1.83033 0
M  V30 5624 H 533.102 -2.68055 -4.25623 0
M  V30 5625 H 532.802 -4.39913 -3.89551 0
M  V30 5626 H 534.326 -3.91038 -4.68958 0
M  V30 5627 H 535.74 -5.04552 -2.72213 0
M  V30 5628 H 534.137 -5.59975 -2.1575 0
M  V30 5629 H 535.207 -4.73657 -1.03811 0
M  V30 5630 N 536.55 0.480323 -1.50102 0
M  V30 5631 C 537.798 1.23063 -1.60312 0
M  V30 5632 C 538.119 1.92659 -0.301226 0
M  V30 5633 O 537.389 1.83691 0.680753 0
M  V30 5634 H 535.969 0.457231 -0.590719 0
M  V30 5635 H 538.631 0.554893 -1.86834 0
M  V30 5636 H 537.727 1.9835 -2.40964 0
M  V30 5637 N 538.028 1.39524 0.732853 0
M  V30 5638 C 539.444 1.21176 1.03868 0
M  V30 5639 C 539.644 0.0748448 2.01361 0
M  V30 5640 O 538.7 -0.57281 2.45917 0
M  V30 5641 C 540.013 2.54667 1.59892 0
M  V30 5642 C 541.561 2.6153 1.71962 0
M  V30 5643 C 542.036 3.95248 2.31394 0
M  V30 5644 N 543.527 3.96899 2.38801 0
M  V30 5645 C 544.262 4.97138 2.85729 0
M  V30 5646 N 543.758 6.07775 3.32537 0
M  V30 5647 N 545.551 4.84516 2.84957 0
M  V30 5648 H 537.702 2.12225 0.086304 0
M  V30 5649 H 539.965 0.942614 0.100907 0
M  V30 5650 H 539.671 3.38423 0.95721 0
M  V30 5651 H 539.545 2.74538 2.58668 0
M  V30 5652 H 541.932 1.78156 2.35254 0
M  V30 5653 H 542.013 2.45507 0.718327 0
M  V30 5654 H 541.657 4.79054 1.68729 0
M  V30 5655 H 541.587 4.08593 3.32204 0
M  V30 5656 H 544.078 3.16998 2.05719 0
M  V30 5657 H 544.391 6.8017 3.66862 0
M  V30 5658 H 542.736 6.11366 3.30541 0
M  V30 5659 H 545.927 3.97185 2.47713 0
M  V30 5660 H 546.1 5.62783 3.21215 0
M  V30 5661 N 539.506 -0.963266 1.24736 0
M  V30 5662 C 540.436 -2.07628 1.06832 0
M  V30 5663 C 541.417 -1.70088 -0.0200566 0
M  V30 5664 O 542.602 -1.93636 0.147854 0
M  V30 5665 C 539.732 -3.40636 0.677069 0
M  V30 5666 C 538.686 -3.9215 1.71471 0
M  V30 5667 C 538.012 -5.21553 1.1784 0
M  V30 5668 C 539.312 -4.19493 3.11164 0
M  V30 5669 H 541.006 -2.22864 1.9993 0
M  V30 5670 H 538.552 -1.07093 0.96266 0
M  V30 5671 H 540.505 -4.17941 0.538792 0
M  V30 5672 H 539.229 -3.25313 -0.289612 0
M  V30 5673 H 537.888 -3.17005 1.84128 0
M  V30 5674 H 537.536 -5.02593 0.202195 0
M  V30 5675 H 537.236 -5.56988 1.87185 0
M  V30 5676 H 538.76 -6.01463 1.05233 0
M  V30 5677 H 540.174 -4.87487 3.01711 0
M  V30 5678 H 538.571 -4.66165 3.77902 0
M  V30 5679 H 539.641 -3.26097 3.58871 0
M  V30 5680 N 540.985 -1.06182 -1.16461 0
M  V30 5681 C 542.401 -0.785065 -1.38956 0
M  V30 5682 C 542.601 0.616103 -1.9185 0
M  V30 5683 O 541.657 1.37686 -2.11657 0
M  V30 5684 C 542.97 -1.84902 -2.37132 0
M  V30 5685 C 544.518 -1.8724 -2.50819 0
M  V30 5686 C 544.993 -2.92686 -3.52277 0
M  V30 5687 N 546.484 -2.91712 -3.59803 0
M  V30 5688 C 547.219 -3.69949 -4.38093 0
M  V30 5689 N 546.715 -4.58 -5.19815 0
M  V30 5690 N 548.508 -3.58346 -4.33064 0
M  V30 5691 H 540.659 -1.96569 -0.804634 0
M  V30 5692 H 542.922 -0.851747 -0.416211 0
M  V30 5693 H 542.628 -2.85518 -2.0536 0
M  V30 5694 H 542.502 -1.69908 -3.36766 0
M  V30 5695 H 544.889 -0.872827 -2.81897 0
M  V30 5696 H 544.97 -2.06311 -1.51226 0
M  V30 5697 H 544.614 -3.92835 -3.21937 0
M  V30 5698 H 544.544 -2.70864 -4.51598 0
M  V30 5699 H 547.035 -2.27876 -3.01464 0
M  V30 5700 H 547.348 -5.14357 -5.76764 0
M  V30 5701 H 545.693 -4.62056 -5.19162 0
M  V30 5702 H 548.884 -2.88943 -3.68279 0
M  V30 5703 H 549.057 -4.19563 -4.93833 0
M  V30 5704 N 542.463 1.3308 -0.844243 0
M  V30 5705 C 543.693 2.01515 -0.455541 0
M  V30 5706 C 544.101 1.63655 0.949406 0
M  V30 5707 O 543.444 0.84848 1.62931 0
M  V30 5708 C 543.506 3.55967 -0.502801 0
M  V30 5709 C 543.17 4.17222 -1.86481 0
M  V30 5710 C 544.167 4.36205 -2.8288 0
M  V30 5711 C 541.852 4.53528 -2.15911 0
M  V30 5712 C 543.846 4.90649 -4.06869 0
M  V30 5713 C 541.533 5.07679 -3.40155 0
M  V30 5714 C 542.531 5.26186 -4.35451 0
M  V30 5715 O 542.219 5.79183 -5.57496 0
M  V30 5716 H 541.951 0.65199 -0.178565 0
M  V30 5717 H 544.505 1.70867 -1.1399 0
M  V30 5718 H 542.735 3.85965 0.23836 0
M  V30 5719 H 544.424 4.05688 -0.131169 0
M  V30 5720 H 545.19 4.085 -2.61444 0
M  V30 5721 H 541.069 4.38414 -1.42528 0
M  V30 5722 H 544.613 5.0501 -4.81259 0
M  V30 5723 H 540.51 5.34815 -3.61446 0
M  V30 5724 H 541.278 5.97591 -5.5931 0
M  V30 5725 N 543.941 0.601185 1.45683 0
M  V30 5726 C 545.187 0.0940202 2.02582 0
M  V30 5727 C 545.52 -1.26972 1.46941 0
M  V30 5728 O 544.795 -1.83613 0.641612 0
M  V30 5729 C 545.078 0.0481715 3.60068 0
M  V30 5730 C 544.931 1.44212 4.26055 0
M  V30 5731 C 546.25 -0.642975 4.35378 0
M  V30 5732 H 543.369 0.0356404 0.736138 0
M  V30 5733 H 546.011 0.771929 1.73612 0
M  V30 5734 H 544.161 -0.529128 3.8488 0
M  V30 5735 H 545.833 2.06601 4.12449 0
M  V30 5736 H 544.076 2.00465 3.84703 0
M  V30 5737 H 544.747 1.36234 5.34925 0
M  V30 5738 H 547.223 -0.152351 4.15821 0
M  V30 5739 H 546.099 -0.644141 5.45107 0
M  V30 5740 H 546.36 -1.70785 4.0778 0
M  V30 5741 N 545.419 -1.53889 0.339982 0
M  V30 5742 C 546.696 -1.93084 -0.312719 0
M  V30 5743 C 547.076 -1.2712 -1.68534 0
M  V30 5744 O 546.424 -0.420835 -2.24591 0
M  V30 5745 C 546.634 -3.4683 -0.388558 0
M  V30 5746 C 547.982 -4.19732 -0.641088 0
M  V30 5747 O 549.006 -3.53075 -0.470818 0
M  V30 5748 O 547.865 -5.3781 -0.970685 0
M  V30 5749 H 544.959 -0.806784 -0.18174 0
M  V30 5750 H 547.505 -1.65137 0.390898 0
M  V30 5751 H 546.277 -3.87055 0.574821 0
M  V30 5752 H 545.9 -3.80933 -1.1391 0
M  V30 5753 N 546.897 -0.0685191 -1.57451 0
M  V30 5754 C 548.137 0.605038 -1.9524 0
M  V30 5755 C 548.501 1.66974 -0.947816 0
M  V30 5756 O 549.702 2.39862 -1.21325 0
M  V30 5757 C 547.973 1.16999 -3.37707 0
M  V30 5758 S 549.532 1.85913 -3.97469 0
M  V30 5759 H 546.35 0.198203 -0.682815 0
M  V30 5760 H 548.952 -0.141594 -1.94987 0
M  V30 5761 H 547.656 0.383205 -4.08607 0
M  V30 5762 H 547.187 1.95305 -3.41496 0
M  V30 5763 H 549.202 3.14128 -3.84107 0
M  V30 5764 N 548.375 1.56261 0.205012 0
M  V30 5765 C 549.621 1.80306 0.9283 0
M  V30 5766 C 549.954 0.640932 1.83319 0
M  V30 5767 O 549.229 -0.359032 1.91158 0
M  V30 5768 C 549.512 3.14547 1.75306 0
M  V30 5769 C 549.365 4.41236 0.873562 0
M  V30 5770 C 550.684 3.45382 2.72762 0
M  V30 5771 H 547.803 0.655929 0.336044 0
M  V30 5772 H 550.445 1.88984 0.196211 0
M  V30 5773 H 548.595 3.0728 2.37721 0
M  V30 5774 H 550.267 4.60539 0.264887 0
M  V30 5775 H 548.51 4.33427 0.179773 0
M  V30 5776 H 549.181 5.31639 1.48541 0
M  V30 5777 H 551.657 3.52884 2.20481 0
M  V30 5778 H 550.533 4.40449 3.2756 0
M  V30 5779 H 550.794 2.68377 3.51321 0
M  V30 5780 N 549.853 -0.472356 1.50355 0
M  V30 5781 C 551.099 -1.22634 1.6152 0
M  V30 5782 C 551.432 -1.91645 0.313995 0
M  V30 5783 O 550.707 -1.82059 -0.684446 0
M  V30 5784 C 550.99 -2.27099 2.7946 0
M  V30 5785 C 550.843 -1.62402 4.19459 0
M  V30 5786 C 552.162 -3.28421 2.92964 0
M  V30 5787 H 549.281 -0.444494 0.587873 0
M  V30 5788 H 551.923 -0.520321 1.82737 0
M  V30 5789 H 550.073 -2.87314 2.61501 0
M  V30 5790 H 551.745 -1.05793 4.49005 0
M  V30 5791 H 549.988 -0.927184 4.23776 0
M  V30 5792 H 550.659 -2.38309 4.97909 0
M  V30 5793 H 553.135 -2.78227 3.09401 0
M  V30 5794 H 552.011 -3.98845 3.77113 0
M  V30 5795 H 552.272 -3.92467 2.03525 0
M  V30 5796 N 551.331 -1.39911 -0.725443 0
M  V30 5797 C 552.278 -1.39393 -1.83952 0
M  V30 5798 C 553.248 -0.252249 -1.64173 0
M  V30 5799 O 554.433 -0.44882 -1.85446 0
M  V30 5800 C 551.573 -1.25262 -3.21564 0
M  V30 5801 C 550.686 -2.49054 -3.52982 0
M  V30 5802 C 549.821 -2.27439 -4.80047 0
M  V30 5803 C 548.86 -3.46857 -5.04338 0
M  V30 5804 N 547.997 -3.24499 -6.22611 0
M  V30 5805 H 552.837 -2.34622 -1.83729 0
M  V30 5806 H 550.374 -1.16537 -0.897636 0
M  V30 5807 H 552.332 -1.15077 -4.01015 0
M  V30 5808 H 550.962 -0.33657 -3.21041 0
M  V30 5809 H 550.014 -2.69805 -2.6816 0
M  V30 5810 H 551.326 -3.37973 -3.66846 0
M  V30 5811 H 550.48 -2.14551 -5.67497 0
M  V30 5812 H 549.219 -1.35929 -4.68374 0
M  V30 5813 H 548.224 -3.60232 -4.15346 0
M  V30 5814 H 549.449 -4.3928 -5.17889 0
M  V30 5815 H 547.395 -2.35663 -6.12208 0
M  V30 5816 H 547.312 -4.06978 -6.37106 0
M  V30 5817 H 548.58 -3.15325 -7.12875 0
M  V30 5818 N 552.809 0.956637 -1.25245 0
M  V30 5819 C 553.719 2.0868 -1.0719 0
M  V30 5820 C 554.735 1.73997 -0.00959074 0
M  V30 5821 O 555.911 2.00301 -0.210104 0
M  V30 5822 C 552.976 3.39754 -0.690526 0
M  V30 5823 C 552.037 3.88316 -1.83055 0
M  V30 5824 C 551.27 5.13134 -1.46728 0
M  V30 5825 O 551.493 5.6925 -0.362029 0
M  V30 5826 O 550.427 5.56356 -2.29677 0
M  V30 5827 H 554.253 2.26813 -2.01965 0
M  V30 5828 H 551.838 1.07098 -1.04165 0
M  V30 5829 H 553.72 4.18543 -0.489871 0
M  V30 5830 H 552.395 3.22896 0.227981 0
M  V30 5831 H 551.302 3.1054 -2.08604 0
M  V30 5832 H 552.635 4.09669 -2.72822 0
M  V30 5833 N 554.287 1.06798 1.15896 0
M  V30 5834 C 555.533 0.788934 1.86825 0
M  V30 5835 C 555.866 -0.683084 1.8179 0
M  V30 5836 O 555.141 -1.50086 1.23711 0
M  V30 5837 C 555.424 1.29065 3.36176 0
M  V30 5838 C 555.277 2.8268 3.49874 0
M  V30 5839 C 556.596 0.902655 4.30744 0
M  V30 5840 H 553.715 0.288066 0.678371 0
M  V30 5841 H 556.357 1.32479 1.36195 0
M  V30 5842 H 554.507 0.834806 3.79425 0
M  V30 5843 H 556.179 3.36511 3.15528 0
M  V30 5844 H 554.422 3.21157 2.91617 0
M  V30 5845 H 555.093 3.12852 4.54783 0
M  V30 5846 H 557.569 1.29535 3.95424 0
M  V30 5847 H 556.445 1.28111 5.3374 0
M  V30 5848 H 556.706 -0.191951 4.41683 0
M  V30 5849 N 555.766 -1.3263 0.851289 0
M  V30 5850 C 556.696 -2.31449 0.308771 0
M  V30 5851 C 557.677 -1.59531 -0.590255 0
M  V30 5852 O 558.862 -1.87351 -0.511205 0
M  V30 5853 C 555.992 -3.43586 -0.506548 0
M  V30 5854 C 554.946 -4.26963 0.297753 0
M  V30 5855 C 554.272 -5.30831 -0.642094 0
M  V30 5856 C 555.572 -4.99643 1.52166 0
M  V30 5857 H 557.266 -2.77074 1.13447 0
M  V30 5858 H 554.812 -1.33207 0.546971 0
M  V30 5859 H 556.765 -4.11754 -0.896474 0
M  V30 5860 H 555.489 -2.96681 -1.36558 0
M  V30 5861 H 554.148 -3.60437 0.669391 0
M  V30 5862 H 553.796 -4.8018 -1.49788 0
M  V30 5863 H 553.496 -5.87501 -0.107968 0
M  V30 5864 H 555.02 -6.01862 -1.02927 0
M  V30 5865 H 556.434 -5.6051 1.20421 0
M  V30 5866 H 554.831 -5.66022 1.99347 0
M  V30 5867 H 555.901 -4.27701 2.28474 0
M  V30 5868 N 557.244 -0.608902 -1.45362 0
M  V30 5869 C 558.66 -0.272659 -1.57254 0
M  V30 5870 C 558.86 1.22477 -1.60005 0
M  V30 5871 O 557.916 2.00785 -1.53106 0
M  V30 5872 C 559.229 -0.944991 -2.85465 0
M  V30 5873 C 560.777 -0.921033 -2.99142 0
M  V30 5874 C 561.252 -1.5734 -4.30126 0
M  V30 5875 N 562.743 -1.53895 -4.36887 0
M  V30 5876 C 563.478 -2.01286 -5.36909 0
M  V30 5877 N 562.974 -2.56768 -6.43461 0
M  V30 5878 N 564.767 -1.92046 -5.28275 0
M  V30 5879 H 556.918 -1.58117 -1.4182 0
M  V30 5880 H 559.181 -0.662437 -0.678146 0
M  V30 5881 H 558.887 -1.99941 -2.89338 0
M  V30 5882 H 558.761 -0.469079 -3.74272 0
M  V30 5883 H 561.148 0.124846 -2.94836 0
M  V30 5884 H 561.229 -1.43522 -2.11743 0
M  V30 5885 H 560.873 -2.61862 -4.35191 0
M  V30 5886 H 560.803 -1.03422 -5.16344 0
M  V30 5887 H 563.294 -1.13366 -3.60495 0
M  V30 5888 H 563.607 -2.9072 -7.16032 0
M  V30 5889 H 561.952 -2.60808 -6.44208 0
M  V30 5890 H 565.143 -1.48439 -4.43941 0
M  V30 5891 H 565.316 -2.29293 -6.06077 0
M  V30 5892 N 558.722 1.53707 -0.348139 0
M  V30 5893 C 559.652 2.28111 0.498766 0
M  V30 5894 C 560.633 1.29851 1.09876 0
M  V30 5895 O 561.818 1.587 1.11928 0
M  V30 5896 C 558.948 3.05735 1.64753 0
M  V30 5897 C 557.902 4.11537 1.17565 0
M  V30 5898 C 557.228 4.77142 2.4133 0
M  V30 5899 C 558.528 5.21587 0.272844 0
M  V30 5900 H 560.222 2.99152 -0.121934 0
M  V30 5901 H 557.768 1.43875 -0.0600842 0
M  V30 5902 H 559.721 3.56526 2.24649 0
M  V30 5903 H 558.445 2.32354 2.2952 0
M  V30 5904 H 557.104 3.61665 0.599483 0
M  V30 5905 H 556.752 4.0035 3.04514 0
M  V30 5906 H 556.452 5.48626 2.10436 0
M  V30 5907 H 557.976 5.30719 3.01943 0
M  V30 5908 H 559.39 5.67986 0.778779 0
M  V30 5909 H 557.787 6.00074 0.0555849 0
M  V30 5910 H 558.857 4.79969 -0.689785 0
M  V30 5911 N 560.2 0.0768682 1.57412 0
M  V30 5912 C 561.13 -0.886026 2.16037 0
M  V30 5913 C 562.111 -1.30691 1.08876 0
M  V30 5914 O 563.296 -1.37705 1.36934 0
M  V30 5915 C 560.426 -2.1518 2.72608 0
M  V30 5916 C 559.38 -1.87015 3.8498 0
M  V30 5917 C 558.706 -3.20266 4.28175 0
M  V30 5918 C 560.006 -1.17143 5.08994 0
M  V30 5919 H 561.7 -0.397642 2.96748 0
M  V30 5920 H 559.246 -0.189823 1.42743 0
M  V30 5921 H 561.199 -2.82962 3.12266 0
M  V30 5922 H 559.923 -2.66269 1.89125 0
M  V30 5923 H 558.582 -1.21636 3.45833 0
M  V30 5924 H 558.23 -3.69207 3.41607 0
M  V30 5925 H 557.93 -3.0221 5.03927 0
M  V30 5926 H 559.454 -3.89237 4.70454 0
M  V30 5927 H 560.868 -1.75003 5.45937 0
M  V30 5928 H 559.265 -1.09328 5.90057 0
M  V30 5929 H 560.335 -0.151295 4.84664 0
M  V30 5930 N 561.678 -1.56367 -0.196722 0
M  V30 5931 C 563.089 -1.70462 -0.761545 0
M  V30 5932 C 563.44 -0.683161 -1.83922 0
M  V30 5933 O 562.565 0.160753 -2.15802 0
M  V30 5934 C 563.16 -3.09057 -1.38814 0
M  V30 5935 C 561.719 -3.24922 -1.90007 0
M  V30 5936 C 560.866 -2.66412 -0.769399 0
M  V30 5937 H 563.817 -1.58675 0.0283263 0
M  V30 5938 H 563.838 -3.06296 -2.2575 0
M  V30 5939 H 563.35 -3.83378 -0.603559 0
M  V30 5940 H 561.451 -2.55514 -2.71189 0
M  V30 5941 H 561.564 -4.3241 -2.06297 0
M  V30 5942 H 559.928 -2.25546 -1.18326 0
M  V30 5943 H 560.711 -3.433 0.00291773 0
M  V30 5944 N 563.156 0.464375 -1.50603 0
M  V30 5945 C 564.567 1.04507 -1.5471 0
M  V30 5946 C 564.918 1.9297 -0.354542 0
M  V30 5947 O 564.043 2.09763 0.531812 0
M  V30 5948 C 564.638 1.90207 -2.80369 0
M  V30 5949 C 563.197 2.43373 -2.87135 0
M  V30 5950 C 562.344 1.21886 -2.49076 0
M  V30 5951 H 565.295 0.246716 -1.56771 0
M  V30 5952 H 565.316 2.75353 -2.62604 0
M  V30 5953 H 564.828 1.25796 -3.67147 0
M  V30 5954 H 562.929 3.11318 -2.04724 0
M  V30 5955 H 563.042 2.7802 -3.90181 0
M  V30 5956 H 561.406 1.55575 -2.01664 0
M  V30 5957 H 562.189 0.591268 -3.3817 0
M  V30 5958 N 564.634 1.40294 0.718013 0
M  V30 5959 C 565.88 1.38645 1.48005 0
M  V30 5960 C 566.213 -0.0121202 1.94196 0
M  V30 5961 O 565.488 -0.980309 1.67989 0
M  V30 5962 C 565.771 2.37379 2.70782 0
M  V30 5963 C 565.624 3.8625 2.30501 0
M  V30 5964 C 566.943 2.33685 3.72933 0
M  V30 5965 H 564.062 0.504928 0.536858 0
M  V30 5966 H 566.704 1.71411 0.819649 0
M  V30 5967 H 564.854 2.09568 3.27129 0
M  V30 5968 H 566.526 4.24879 1.79655 0
M  V30 5969 H 564.769 4.02202 1.6253 0
M  V30 5970 H 565.44 4.50847 3.18498 0
M  V30 5971 H 567.916 2.58314 3.2621 0
M  V30 5972 H 566.792 3.0482 4.56482 0
M  V30 5973 H 567.053 1.34765 4.21059 0
M  V30 5974 N 566.112 -0.949982 1.2575 0
M  V30 5975 C 567.337 -1.73503 1.13628 0
M  V30 5976 C 567.762 -1.85601 -0.30559 0
M  V30 5977 O 567.12 -1.33984 -1.22139 0
M  V30 5978 C 567.168 -3.1243 1.80055 0
M  V30 5979 O 566.272 -3.97916 1.08336 0
M  V30 5980 H 565.613 -0.532665 0.396439 0
M  V30 5981 H 568.143 -1.19043 1.66403 0
M  V30 5982 H 568.153 -3.62866 1.86527 0
M  V30 5983 H 566.828 -3.02941 2.84956 0
M  V30 5984 H 565.405 -3.56375 1.09777 0
M  V30 5985 N 567.59 -1.07411 -1.15328 0
M  V30 5986 C 568.838 -0.796073 -1.85761 0
M  V30 5987 C 569.159 0.679864 -1.82764 0
M  V30 5988 O 568.429 1.49242 -1.269 0
M  V30 5989 H 567.009 -0.291495 -0.687779 0
M  V30 5990 H 569.671 -1.35799 -1.39802 0
M  V30 5991 H 568.767 -1.13114 -2.90881 0
M  V30 5992 N 569.068 1.32177 -0.85831 0
M  V30 5993 C 570.316 1.96735 -0.462568 0
M  V30 5994 C 570.637 1.6824 0.985911 0
M  V30 5995 O 569.907 0.991564 1.68952 0
M  V30 5996 H 568.487 0.727849 -0.168064 0
M  V30 5997 H 571.149 1.61195 -1.09554 0
M  V30 5998 H 570.245 3.06068 -0.610647 0
M  V30 5999 N 570.547 0.616602 1.45037 0
M  V30 6000 C 571.777 0.121791 2.06241 0
M  V30 6001 C 572.185 -1.20289 1.46038 0
M  V30 6002 O 571.528 -1.7456 0.572242 0
M  V30 6003 C 571.59 -0.0827345 3.59405 0
M  V30 6004 C 571.254 1.16153 4.41993 0
M  V30 6005 C 572.251 2.08183 4.76399 0
M  V30 6006 C 569.936 1.39288 4.82601 0
M  V30 6007 C 571.93 3.21668 5.5028 0
M  V30 6008 C 569.617 2.53073 5.56235 0
M  V30 6009 C 570.615 3.44091 5.89992 0
M  V30 6010 O 570.303 4.55894 6.6213 0
M  V30 6011 H 570.035 0.0701667 0.672349 0
M  V30 6012 H 572.589 0.846877 1.87129 0
M  V30 6013 H 570.819 -0.862812 3.76952 0
M  V30 6014 H 572.508 -0.530273 4.02421 0
M  V30 6015 H 573.274 1.91538 4.45576 0
M  V30 6016 H 569.153 0.693396 4.55755 0
M  V30 6017 H 572.697 3.92733 5.76547 0
M  V30 6018 H 568.594 2.69667 5.86472 0
M  V30 6019 H 569.362 4.5469 6.80587 0
M  V30 6020 N 572.025 -1.5352 0.356285 0
M  V30 6021 C 573.441 -1.59599 0.00485267 0
M  V30 6022 C 573.641 -1.37179 -1.47595 0
M  V30 6023 O 572.697 -1.17234 -2.23635 0
M  V30 6024 C 574.01 -2.97277 0.452454 0
M  V30 6025 C 575.558 -3.10357 0.405881 0
M  V30 6026 C 576.033 -4.50432 0.829148 0
M  V30 6027 N 577.524 -4.5652 0.783838 0
M  V30 6028 C 578.259 -5.63077 1.08315 0
M  V30 6029 N 577.755 -6.77429 1.45126 0
M  V30 6030 N 579.548 -5.53014 1.00655 0
M  V30 6031 H 571.699 -1.66346 1.32071 0
M  V30 6032 H 573.962 -0.77971 0.539218 0
M  V30 6033 H 573.668 -3.18792 1.48542 0
M  V30 6034 H 573.542 -3.76836 -0.165762 0
M  V30 6035 H 575.929 -2.88558 -0.617934 0
M  V30 6036 H 576.01 -2.32828 1.05947 0
M  V30 6037 H 575.654 -4.72968 1.85103 0
M  V30 6038 H 575.584 -5.26378 0.152906 0
M  V30 6039 H 578.075 -3.74408 0.512513 0
M  V30 6040 H 578.388 -7.54669 1.66415 0
M  V30 6041 H 576.733 -6.78844 1.48983 0
M  V30 6042 H 579.924 -4.62557 0.718215 0
M  V30 6043 H 580.097 -6.35964 1.24315 0
M  V30 6044 N 573.503 -0.0852151 -1.57369 0
M  V30 6045 C 574.731 0.58946 -1.98325 0
M  V30 6046 C 575.146 1.62333 -0.96403 0
M  V30 6047 O 574.503 1.82438 0.0476395 0
M  V30 6048 C 574.554 1.24604 -3.39347 0
M  V30 6049 O 574.275 0.253532 -4.37366 0
M  V30 6050 C 575.776 2.00726 -3.95252 0
M  V30 6051 H 572.996 0.158783 -0.651942 0
M  V30 6052 H 575.54 -0.161584 -2.03861 0
M  V30 6053 H 573.695 1.94808 -3.34856 0
M  V30 6054 H 574.109 0.726207 -5.19448 0
M  V30 6055 H 575.583 2.42039 -4.96106 0
M  V30 6056 H 576.06 2.86919 -3.32527 0
M  V30 6057 H 576.666 1.3536 -4.03185 0
M  V30 6058 N 574.981 1.5647 0.188427 0
M  V30 6059 C 575.944 1.9421 1.21718 0
M  V30 6060 C 576.944 0.823901 1.38089 0
M  V30 6061 O 578.134 1.09122 1.35787 0
M  V30 6062 C 575.266 2.22197 2.58537 0
M  V30 6063 H 576.459 2.86252 0.894418 0
M  V30 6064 H 574.012 1.50263 0.430211 0
M  V30 6065 H 574.747 1.32814 2.95856 0
M  V30 6066 H 574.532 3.03688 2.48025 0
M  V30 6067 H 576.022 2.52376 3.3271 0
M  V30 6068 N 576.459 -0.456382 1.50847 0
M  V30 6069 C 577.389 -1.56025 1.73719 0
M  V30 6070 C 578.37 -1.5967 0.586473 0
M  V30 6071 O 579.555 -1.75702 0.827185 0
M  V30 6072 C 576.685 -2.94251 1.84483 0
M  V30 6073 C 575.639 -3.05471 2.99786 0
M  V30 6074 C 574.965 -4.45489 2.95709 0
M  V30 6075 C 576.265 -2.81318 4.40065 0
M  V30 6076 H 577.959 -1.37138 2.66146 0
M  V30 6077 H 575.505 -0.658299 1.28072 0
M  V30 6078 H 577.458 -3.71417 1.99067 0
M  V30 6079 H 576.182 -3.14328 0.886891 0
M  V30 6080 H 574.841 -2.30741 2.84876 0
M  V30 6081 H 574.489 -4.62505 1.97732 0
M  V30 6082 H 574.189 -4.53929 3.73125 0
M  V30 6083 H 575.713 -5.24655 3.12362 0
M  V30 6084 H 577.127 -3.48226 4.55425 0
M  V30 6085 H 575.524 -3.01188 5.19043 0
M  V30 6086 H 576.594 -1.7706 4.51418 0
M  V30 6087 N 577.937 -1.40673 -0.710563 0
M  V30 6088 C 579.353 -1.22813 -1.01928 0
M  V30 6089 C 579.553 -0.10687 -2.01216 0
M  V30 6090 O 578.609 0.533614 -2.46797 0
M  V30 6091 C 579.922 -2.57178 -1.5582 0
M  V30 6092 C 581.47 -2.64233 -1.67779 0
M  V30 6093 C 581.945 -3.98879 -2.25076 0
M  V30 6094 N 583.436 -4.00647 -2.32456 0
M  V30 6095 C 584.171 -5.01621 -2.77784 0
M  V30 6096 N 583.667 -6.12989 -3.22826 0
M  V30 6097 N 585.46 -4.88988 -2.77213 0
M  V30 6098 H 577.611 -2.12335 -0.05253 0
M  V30 6099 H 579.874 -0.9441 -0.085898 0
M  V30 6100 H 579.58 -3.39903 -0.903249 0
M  V30 6101 H 579.454 -2.78618 -2.54267 0
M  V30 6102 H 581.841 -1.81876 -2.3239 0
M  V30 6103 H 581.922 -2.46619 -0.679178 0
M  V30 6104 H 581.566 -4.81678 -1.61086 0
M  V30 6105 H 581.496 -4.13826 -3.25661 0
M  V30 6106 H 583.987 -3.20231 -2.0065 0
M  V30 6107 H 584.3 -6.85921 -3.55995 0
M  V30 6108 H 582.645 -6.16547 -3.20773 0
M  V30 6109 H 585.836 -4.01075 -2.41363 0
M  V30 6110 H 586.009 -5.67822 -3.12221 0
M  V30 6111 N 579.415 0.9433 -1.26252 0
M  V30 6112 C 580.643 1.72367 -1.14443 0
M  V30 6113 C 581.058 1.86392 0.300572 0
M  V30 6114 O 580.415 1.36978 1.20596 0
M  V30 6115 C 580.466 3.13155 -1.806 0
M  V30 6116 O 580.187 2.99803 -3.19452 0
M  V30 6117 C 581.688 4.07417 -1.74717 0
M  V30 6118 H 578.908 0.539758 -0.398626 0
M  V30 6119 H 581.452 1.18268 -1.66832 0
M  V30 6120 H 579.607 3.64162 -1.32154 0
M  V30 6121 H 580.021 3.88697 -3.52158 0
M  V30 6122 H 581.495 5.03773 -2.25647 0
M  V30 6123 H 581.972 4.3337 -0.713244 0
M  V30 6124 H 582.578 3.6233 -2.22704 0
M  V30 6125 N 580.893 1.08022 1.14757 0
M  V30 6126 C 582.14 0.807509 1.85703 0
M  V30 6127 C 582.468 -0.666617 1.8272 0
M  V30 6128 O 581.723 -1.50562 1.25018 0
M  V30 6129 C 582.022 1.26964 3.34088 0
M  V30 6130 C 581.688 2.7509 3.57262 0
M  V30 6131 C 580.35 3.15547 3.63296 0
M  V30 6132 C 582.702 3.70667 3.66409 0
M  V30 6133 C 580.03 4.50384 3.75994 0
M  V30 6134 C 582.382 5.05274 3.80632 0
M  V30 6135 C 581.046 5.45342 3.84913 0
M  V30 6136 H 580.316 0.295488 0.679535 0
M  V30 6137 H 582.963 1.35245 1.35577 0
M  V30 6138 H 581.268 0.644216 3.86467 0
M  V30 6139 H 582.965 1.03544 3.87401 0
M  V30 6140 H 579.555 2.42775 3.53212 0
M  V30 6141 H 583.739 3.40533 3.61041 0
M  V30 6142 H 578.995 4.80886 3.77569 0
M  V30 6143 H 583.169 5.79201 3.86652 0
M  V30 6144 H 580.796 6.49823 3.94505 0
M  V30 6145 N 582.371 -1.3172 0.865308 0
M  V30 6146 C 583.281 -2.32394 0.320935 0
M  V30 6147 C 584.297 -1.64511 -0.566746 0
M  V30 6148 O 585.473 -1.95969 -0.464575 0
M  V30 6149 C 582.538 -3.43462 -0.472701 0
M  V30 6150 C 581.599 -4.27015 0.442385 0
M  V30 6151 C 580.832 -5.32779 -0.313469 0
M  V30 6152 O 581.055 -5.49158 -1.54214 0
M  V30 6153 O 579.989 -6.01015 0.326257 0
M  V30 6154 H 583.815 -2.80868 1.15528 0
M  V30 6155 H 581.4 -1.35535 0.628545 0
M  V30 6156 H 583.282 -4.11172 -0.922781 0
M  V30 6157 H 581.957 -2.97159 -1.28367 0
M  V30 6158 H 580.864 -3.62075 0.940866 0
M  V30 6159 H 582.197 -4.76871 1.21882 0
M  V30 6160 N 583.85 -0.624285 -1.44708 0
M  V30 6161 C 584.779 0.0717025 -2.3339 0
M  V30 6162 C 585.76 0.841814 -1.47809 0
M  V30 6163 O 586.946 0.809056 -1.76544 0
M  V30 6164 C 584.076 1.05852 -3.30776 0
M  V30 6165 C 583.029 0.400503 -4.26122 0
M  V30 6166 C 582.356 1.49674 -5.13324 0
M  V30 6167 C 583.656 -0.688924 -5.17737 0
M  V30 6168 H 585.35 -0.668819 -2.91834 0
M  V30 6169 H 582.896 -0.32308 -1.40329 0
M  V30 6170 H 584.849 1.5541 -3.91696 0
M  V30 6171 H 583.572 1.82984 -2.70526 0
M  V30 6172 H 582.231 -0.0743687 -3.66525 0
M  V30 6173 H 581.88 2.25877 -4.49431 0
M  V30 6174 H 581.58 1.06188 -5.77926 0
M  V30 6175 H 583.104 1.99427 -5.77115 0
M  V30 6176 H 584.518 -0.276724 -5.72632 0
M  V30 6177 H 582.915 -1.04652 -5.90904 0
M  V30 6178 H 583.985 -1.55884 -4.5916 0
M  V30 6179 N 585.328 1.53329 -0.364422 0
M  V30 6180 C 586.605 1.93557 0.281962 0
M  V30 6181 C 586.985 1.29786 1.6649 0
M  V30 6182 O 586.333 0.456512 2.23893 0
M  V30 6183 C 586.543 3.47405 0.333331 0
M  V30 6184 C 587.891 4.20699 0.574231 0
M  V30 6185 O 588.915 3.53779 0.414588 0
M  V30 6186 O 587.774 5.39287 0.885002 0
M  V30 6187 H 584.868 0.809573 0.168881 0
M  V30 6188 H 587.414 1.64494 -0.417121 0
M  V30 6189 H 586.186 3.86091 -0.636326 0
M  V30 6190 H 585.809 3.82697 1.07836 0
M  V30 6191 N 586.806 0.0935595 1.57322 0
M  V30 6192 C 588.054 -0.569383 1.93913 0
M  V30 6193 C 588.375 -1.68817 0.976009 0
M  V30 6194 O 587.645 -1.9588 0.0278099 0
M  V30 6195 H 586.225 -0.21332 0.715894 0
M  V30 6196 H 588.887 0.156531 1.9427 0
M  V30 6197 H 587.983 -0.980577 2.96296 0
M  V30 6198 N 588.284 -1.56567 -0.180126 0
M  V30 6199 C 589.514 -1.85349 -0.912647 0
M  V30 6200 C 589.922 -0.675795 -1.76719 0
M  V30 6201 O 589.265 0.3645 -1.80047 0
M  V30 6202 C 589.327 -3.08431 -1.84691 0
M  V30 6203 C 588.991 -4.41694 -1.17284 0
M  V30 6204 C 589.988 -5.17062 -0.542532 0
M  V30 6205 C 587.673 -4.8843 -1.17223 0
M  V30 6206 C 589.667 -6.37351 0.0793953 0
M  V30 6207 C 587.354 -6.08652 -0.54647 0
M  V30 6208 C 588.352 -6.82955 0.0782458 0
M  V30 6209 O 588.04 -8.00897 0.694158 0
M  V30 6210 H 587.772 -0.619286 -0.271036 0
M  V30 6211 H 590.326 -2.0454 -0.187768 0
M  V30 6212 H 588.556 -2.85163 -2.61188 0
M  V30 6213 H 590.245 -3.23733 -2.44851 0
M  V30 6214 H 591.011 -4.8204 -0.535045 0
M  V30 6215 H 586.89 -4.30542 -1.64788 0
M  V30 6216 H 590.434 -6.95287 0.567612 0
M  V30 6217 H 586.331 -6.4314 -0.55151 0
M  V30 6218 H 587.099 -8.16352 0.592537 0
M  V30 6219 N 589.762 0.448376 -1.51087 0
M  V30 6220 C 590.694 1.56146 -1.67783 0
M  V30 6221 C 591.707 1.52913 -0.55871 0
M  V30 6222 O 592.896 1.57889 -0.83267 0
M  V30 6223 C 589.996 2.95057 -1.66716 0
M  V30 6224 C 589.169 3.22915 -2.95033 0
M  V30 6225 C 588.228 4.41495 -2.86302 0
M  V30 6226 O 587.254 4.40688 -3.60254 0
M  V30 6227 N 588.456 5.44443 -2.014 0
M  V30 6228 H 591.221 1.42232 -2.638 0
M  V30 6229 H 588.782 0.637153 -1.48835 0
M  V30 6230 H 590.774 3.72388 -1.58458 0
M  V30 6231 H 589.344 3.02624 -0.783403 0
M  V30 6232 H 588.564 2.33985 -3.17245 0
M  V30 6233 H 589.852 3.38349 -3.79996 0
M  V30 6234 H 589.25 5.4793 -1.40674 0
M  V30 6235 H 587.807 6.2067 -1.99029 0
M  V30 6236 N 591.24 1.41047 0.703093 0
M  V30 6237 C 592.489 1.39301 1.4587 0
M  V30 6238 C 592.802 0.00267077 1.956 0
M  V30 6239 O 594.008 -0.137414 2.71152 0
M  V30 6240 C 592.464 2.44891 2.63735 0
M  V30 6241 C 592.072 3.89796 2.20824 0
M  V30 6242 C 593.816 2.5227 3.41409 0
M  V30 6243 C 591.723 4.86955 3.35602 0
M  V30 6244 H 590.653 0.518005 0.547893 0
M  V30 6245 H 593.304 1.66839 0.764009 0
M  V30 6246 H 591.686 2.10472 3.35436 0
M  V30 6247 H 592.86 4.33424 1.56461 0
M  V30 6248 H 591.175 3.86008 1.56163 0
M  V30 6249 H 593.772 3.22044 4.26839 0
M  V30 6250 H 594.115 1.55714 3.86081 0
M  V30 6251 H 594.648 2.85742 2.7676 0
M  V30 6252 H 591.387 5.84888 2.9595 0
M  V30 6253 H 590.907 4.47982 3.98839 0
M  V30 6254 H 592.586 5.07361 4.01489 0
M  V30 6255 N 592.718 -0.936591 1.26751 0
M  V30 6256 C 594.129 -1.49816 1.1141 0
M  V30 6257 C 594.48 -1.9383 -0.304015 0
M  V30 6258 O 593.605 -1.80346 -1.196 0
M  V30 6259 C 594.2 -2.72271 2.01629 0
M  V30 6260 C 592.759 -3.2468 1.9042 0
M  V30 6261 C 591.906 -1.97444 1.94708 0
M  V30 6262 H 594.857 -0.751604 1.39773 0
M  V30 6263 H 594.878 -3.46741 1.56688 0
M  V30 6264 H 594.39 -2.40205 3.04833 0
M  V30 6265 H 592.491 -3.61525 0.901674 0
M  V30 6266 H 592.604 -3.91476 2.76195 0
M  V30 6267 H 590.968 -2.13545 1.38818 0
M  V30 6268 H 591.751 -1.67703 2.9955 0
M  V30 6269 N 594.196 -1.08629 -1.14182 0
M  V30 6270 C 595.143 -0.718299 -2.19338 0
M  V30 6271 C 596.113 0.296587 -1.63431 0
M  V30 6272 O 597.298 0.180079 -1.89948 0
M  V30 6273 C 594.438 -0.136203 -3.44831 0
M  V30 6274 C 593.551 -1.20414 -4.14879 0
M  V30 6275 C 592.686 -0.585666 -5.27962 0
M  V30 6276 C 591.725 -1.63548 -5.89846 0
M  V30 6277 N 590.862 -1.03864 -6.94375 0
M  V30 6278 H 595.702 -1.61932 -2.50164 0
M  V30 6279 H 593.239 -0.80919 -1.22844 0
M  V30 6280 H 595.197 0.219021 -4.16625 0
M  V30 6281 H 593.827 0.728121 -3.14481 0
M  V30 6282 H 592.879 -1.67676 -3.41451 0
M  V30 6283 H 594.191 -1.99959 -4.56966 0
M  V30 6284 H 593.345 -0.178818 -6.06436 0
M  V30 6285 H 592.084 0.24142 -4.87102 0
M  V30 6286 H 591.089 -2.05197 -5.10073 0
M  V30 6287 H 592.314 -2.46509 -6.3278 0
M  V30 6288 H 590.26 -0.232687 -6.55587 0
M  V30 6289 H 590.177 -1.77116 -7.3496 0
M  V30 6290 H 591.445 -0.657724 -7.7672 0
M  V30 6291 N 595.674 1.31259 -0.872281 0
M  V30 6292 C 596.922 1.96233 -0.483409 0
M  V30 6293 C 597.243 1.69276 0.968012 0
M  V30 6294 O 596.513 1.00943 1.67891 0
M  V30 6295 H 595.093 0.726025 -0.175774 0
M  V30 6296 H 597.755 1.60024 -1.11258 0
M  V30 6297 H 596.851 3.05403 -0.643075 0
M  V30 6298 N 597.152 0.631951 1.44375 0
M  V30 6299 C 598.398 0.145491 2.02879 0
M  V30 6300 C 598.753 -1.21936 1.48827 0
M  V30 6301 O 598.046 -1.7976 0.663085 0
M  V30 6302 C 598.24 0.0735861 3.57324 0
M  V30 6303 C 598.069 1.42992 4.2636 0
M  V30 6304 C 596.839 2.01691 4.63302 0
M  V30 6305 C 599.037 2.36393 4.56752 0
M  V30 6306 N 597.019 3.30551 5.17309 0
M  V30 6307 C 598.39 3.49869 5.11851 0
M  V30 6308 C 600.445 2.35462 4.38705 0
M  V30 6309 C 599.148 4.6261 5.50803 0
M  V30 6310 C 601.174 3.47268 4.78706 0
M  V30 6311 C 600.536 4.59467 5.33919 0
M  V30 6312 H 596.635 0.0971781 0.775938 0
M  V30 6313 H 599.219 0.835624 1.75856 0
M  V30 6314 H 597.39 -0.585829 3.83957 0
M  V30 6315 H 599.122 -0.421777 4.02496 0
M  V30 6316 H 595.877 1.54627 4.47647 0
M  V30 6317 H 596.301 3.96435 5.48788 0
M  V30 6318 H 600.943 1.49966 3.9531 0
M  V30 6319 H 598.661 5.48813 5.93152 0
M  V30 6320 H 602.247 3.47724 4.66454 0
M  V30 6321 H 601.127 5.44551 5.64299 0
M  V30 6322 N 598.631 -1.53133 0.372548 0
M  V30 6323 C 599.856 -2.0625 -0.218098 0
M  V30 6324 C 600.281 -1.24375 -1.41111 0
M  V30 6325 O 599.639 -0.264554 -1.79359 0
M  V30 6326 C 599.687 -3.55858 -0.582876 0
M  V30 6327 O 598.791 -3.76667 -1.67917 0
M  V30 6328 H 598.132 -0.663317 -0.030104 0
M  V30 6329 H 600.662 -1.97477 0.535169 0
M  V30 6330 H 600.672 -3.99007 -0.851925 0
M  V30 6331 H 599.347 -4.14892 0.289428 0
M  V30 6332 H 597.924 -3.45413 -1.40513 0
M  V30 6333 N 600.109 -0.101901 -1.5727 0
M  V30 6334 C 601.355 0.561027 -1.94885 0
M  V30 6335 C 601.688 1.6741 -0.984258 0
M  V30 6336 O 600.963 1.94491 -0.0184767 0
M  V30 6337 C 601.246 1.10982 -3.42571 0
M  V30 6338 C 601.099 0.00133418 -4.498 0
M  V30 6339 C 602.418 2.00608 -3.9172 0
M  V30 6340 H 599.537 0.202467 -0.708644 0
M  V30 6341 H 602.179 -0.173992 -1.89202 0
M  V30 6342 H 600.329 1.73621 -3.47546 0
M  V30 6343 H 602.001 -0.63322 -4.56933 0
M  V30 6344 H 600.244 -0.664143 -4.28686 0
M  V30 6345 H 600.915 0.426253 -5.50352 0
M  V30 6346 H 603.391 1.47864 -3.88941 0
M  V30 6347 H 602.267 2.3593 -4.95609 0
M  V30 6348 H 602.528 2.92608 -3.3141 0
M  V30 6349 N 601.587 1.56661 0.17182 0
M  V30 6350 C 602.52 1.91474 1.24149 0
M  V30 6351 C 603.498 0.777485 1.42807 0
M  V30 6352 O 604.682 1.03075 1.57822 0
M  V30 6353 C 601.809 2.16523 2.60453 0
M  V30 6354 C 600.855 3.39209 2.58533 0
M  V30 6355 S 601.688 4.93594 2.07665 0
M  V30 6356 C 602.844 5.21737 3.45747 0
M  V30 6357 H 603.077 2.81903 0.944346 0
M  V30 6358 H 600.61 1.49743 0.376364 0
M  V30 6359 H 602.568 2.31635 3.38903 0
M  V30 6360 H 601.229 1.26802 2.87368 0
M  V30 6361 H 600.422 3.53935 3.58812 0
M  V30 6362 H 600.024 3.2321 1.88178 0
M  V30 6363 H 602.316 5.13684 4.41741 0
M  V30 6364 H 603.259 6.23361 3.35896 0
M  V30 6365 H 603.667 4.49307 3.41736 0
M  V30 6366 N 603.065 -0.440357 1.51323 0
M  V30 6367 C 604.295 -1.21079 1.67402 0
M  V30 6368 C 604.703 -1.85555 0.369599 0
M  V30 6369 O 604.046 -1.71375 -0.661525 0
M  V30 6370 C 604.108 -2.33839 2.73056 0
M  V30 6371 C 603.772 -1.89755 4.15743 0
M  V30 6372 C 604.769 -1.40268 5.0062 0
M  V30 6373 C 602.454 -1.97539 4.61826 0
M  V30 6374 C 604.448 -0.991474 6.29642 0
M  V30 6375 C 602.135 -1.56029 5.90845 0
M  V30 6376 C 603.133 -1.06915 6.7458 0
M  V30 6377 O 602.821 -0.659933 8.01187 0
M  V30 6378 H 602.553 -0.371133 0.56501 0
M  V30 6379 H 605.107 -0.528409 1.98487 0
M  V30 6380 H 603.337 -3.05345 2.37279 0
M  V30 6381 H 605.026 -2.95713 2.78044 0
M  V30 6382 H 605.792 -1.33652 4.66221 0
M  V30 6383 H 601.671 -2.34713 3.96776 0
M  V30 6384 H 605.215 -0.607425 6.9495 0
M  V30 6385 H 601.112 -1.62315 6.24759 0
M  V30 6386 H 601.88 -0.786052 8.14717 0
M  V30 6387 N 604.543 -1.41418 -0.695603 0
M  V30 6388 C 605.768 -1.44329 -1.48942 0
M  V30 6389 C 606.193 -0.0501579 -1.88033 0
M  V30 6390 O 605.551 0.946598 -1.54626 0
M  V30 6391 C 605.599 -2.3578 -2.72837 0
M  V30 6392 O 604.703 -1.81482 -3.70322 0
M  V30 6393 H 604.044 -0.489838 -0.44828 0
M  V30 6394 H 606.574 -1.85878 -0.855014 0
M  V30 6395 H 606.584 -2.51654 -3.21145 0
M  V30 6396 H 605.259 -3.37005 -2.43722 0
M  V30 6397 H 603.836 -1.75058 -3.29255 0
M  V30 6398 N 606.021 0.929856 -1.27246 0
M  V30 6399 C 607.27 1.67182 -1.12842 0
M  V30 6400 C 607.583 1.9287 0.325666 0
M  V30 6401 O 608.789 2.64999 0.590572 0
M  V30 6402 C 607.245 3.01097 -1.97151 0
M  V30 6403 C 606.853 2.83115 -3.47203 0
M  V30 6404 C 608.597 3.78907 -1.91389 0
M  V30 6405 C 606.504 4.12573 -4.23719 0
M  V30 6406 H 605.434 0.627064 -0.418697 0
M  V30 6407 H 608.085 1.0332 -1.51649 0
M  V30 6408 H 606.467 3.66004 -1.51186 0
M  V30 6409 H 607.641 2.26989 -4.01015 0
M  V30 6410 H 605.956 2.18736 -3.54321 0
M  V30 6411 H 608.553 4.74837 -2.45834 0
M  V30 6412 H 608.896 4.0674 -0.887047 0
M  V30 6413 H 609.429 3.20794 -2.35237 0
M  V30 6414 H 606.168 3.8992 -5.26918 0
M  V30 6415 H 605.688 4.68371 -3.74685 0
M  V30 6416 H 607.367 4.8095 -4.32777 0
M  V30 6417 N 607.499 1.09233 1.13605 0
M  V30 6418 C 608.915 0.82163 1.36826 0
M  V30 6419 C 609.115 -0.565021 1.93416 0
M  V30 6420 O 608.171 -1.32026 2.15234 0
M  V30 6421 C 609.484 1.91124 2.32147 0
M  V30 6422 C 611.032 1.93824 2.45767 0
M  V30 6423 C 611.507 3.01923 3.44393 0
M  V30 6424 N 612.998 3.01149 3.51942 0
M  V30 6425 C 613.733 3.81434 4.2813 0
M  V30 6426 N 613.229 4.71621 5.07489 0
M  V30 6427 N 615.022 3.69702 4.23411 0
M  V30 6428 H 607.173 1.98633 0.752234 0
M  V30 6429 H 609.436 0.862482 0.393482 0
M  V30 6430 H 609.142 2.90862 1.97717 0
M  V30 6431 H 609.016 1.78777 3.32142 0
M  V30 6432 H 611.403 0.94726 2.79483 0
M  V30 6433 H 611.484 2.10248 1.45703 0
M  V30 6434 H 611.128 4.01232 3.11408 0
M  V30 6435 H 611.058 2.82742 4.44257 0
M  V30 6436 H 613.549 2.35789 2.95317 0
M  V30 6437 H 613.862 5.29468 5.62924 0
M  V30 6438 H 612.207 4.75658 5.06729 0
M  V30 6439 H 615.398 2.98606 3.60489 0
M  V30 6440 H 615.571 4.32509 4.82535 0
M  V30 6441 N 608.977 -1.30795 0.87923 0
M  V30 6442 C 610.254 -1.91145 0.415086 0
M  V30 6443 C 610.634 -1.7995 -1.10368 0
M  V30 6444 O 609.982 -1.21305 -1.93642 0
M  V30 6445 C 610.192 -3.37014 0.906778 0
M  V30 6446 C 611.54 -4.14101 0.938358 0
M  V30 6447 O 612.564 -3.45834 0.853053 0
M  V30 6448 O 611.423 -5.36054 1.06342 0
M  V30 6449 H 608.517 -0.81736 0.125905 0
M  V30 6450 H 611.063 -1.39401 0.967753 0
M  V30 6451 H 609.835 -3.3922 1.95053 0
M  V30 6452 H 609.458 -3.96204 0.332948 0
M  V30 6453 N 610.455 -0.639598 -1.44038 0
M  V30 6454 C 611.683 -0.154811 -2.0632 0
M  V30 6455 C 612.098 1.17406 -1.47856 0
M  V30 6456 O 611.455 1.72193 -0.604638 0
M  V30 6457 C 611.506 -0.0429958 -3.61474 0
M  V30 6458 O 611.227 -1.31932 -4.17763 0
M  V30 6459 C 612.728 0.469486 -4.40807 0
M  V30 6460 H 609.948 -0.0835862 -0.665773 0
M  V30 6461 H 612.492 -0.876397 -1.84769 0
M  V30 6462 H 610.647 0.629075 -3.82258 0
M  V30 6463 H 611.061 -1.16965 -5.11292 0
M  V30 6464 H 612.535 0.496712 -5.49761 0
M  V30 6465 H 613.012 1.49819 -4.12857 0
M  V30 6466 H 613.618 -0.169624 -4.24962 0
M  V30 6467 N 611.933 1.52934 -0.380664 0
M  V30 6468 C 612.883 2.22989 0.475399 0
M  V30 6469 C 613.867 1.23058 1.03661 0
M  V30 6470 O 615.059 1.48436 0.964146 0
M  V30 6471 C 612.188 3.0338 1.60671 0
M  V30 6472 C 611.274 4.107 1.05766 0
M  V30 6473 N 611.665 5.05264 0.232837 0
M  V30 6474 C 609.963 4.25676 1.33101 0
M  V30 6475 C 610.664 5.81658 -0.0695134 0
M  V30 6476 N 609.64 5.40989 0.532144 0
M  V30 6477 H 613.442 2.93456 -0.161418 0
M  V30 6478 H 610.956 1.61291 -0.189495 0
M  V30 6479 H 612.953 3.52098 2.23232 0
M  V30 6480 H 611.613 2.34446 2.24644 0
M  V30 6481 H 612.624 5.17739 -0.129204 0
M  V30 6482 H 609.301 3.6797 1.97241 0
M  V30 6483 H 610.691 6.67843 -0.737269 0
M  V30 6484 N 613.412 0.11024 1.57214 0
M  V30 6485 C 614.322 -0.857077 2.18383 0
M  V30 6486 C 615.338 -1.29915 1.1575 0
M  V30 6487 O 616.514 -1.36394 1.48184 0
M  V30 6488 C 613.579 -2.09264 2.76423 0
M  V30 6489 C 612.64 -1.70333 3.94063 0
M  V30 6490 C 611.873 -2.87999 4.49324 0
M  V30 6491 O 612.096 -4.0317 4.03497 0
M  V30 6492 O 611.03 -2.6559 5.40135 0
M  V30 6493 H 614.856 -0.366561 3.0148 0
M  V30 6494 H 612.441 -0.114914 1.48957 0
M  V30 6495 H 614.323 -2.81644 3.13456 0
M  V30 6496 H 612.998 -2.57339 1.96363 0
M  V30 6497 H 611.905 -0.950864 3.61814 0
M  V30 6498 H 613.238 -1.27007 4.75531 0
M  V30 6499 N 614.89 -1.56749 -0.16351 0
M  V30 6500 C 616.118 -1.86577 -0.894233 0
M  V30 6501 C 616.533 -0.696543 -1.75481 0
M  V30 6502 O 615.89 0.334161 -1.79415 0
M  V30 6503 C 615.941 -3.15508 -1.76456 0
M  V30 6504 O 615.662 -4.27926 -0.938685 0
M  V30 6505 C 617.163 -3.58737 -2.60428 0
M  V30 6506 H 614.383 -0.618829 -0.259405 0
M  V30 6507 H 616.927 -2.03863 -0.161259 0
M  V30 6508 H 615.082 -3.00025 -2.45079 0
M  V30 6509 H 615.496 -5.01546 -1.53465 0
M  V30 6510 H 616.97 -4.51832 -3.17099 0
M  V30 6511 H 617.447 -2.83229 -3.35675 0
M  V30 6512 H 618.053 -3.76858 -1.97125 0
M  V30 6513 N 616.368 0.432326 -1.51554 0
M  V30 6514 C 617.331 1.50765 -1.72634 0
M  V30 6515 C 618.331 1.49334 -0.596314 0
M  V30 6516 O 619.521 1.51268 -0.863925 0
M  V30 6517 C 616.653 2.90284 -1.7874 0
M  V30 6518 H 617.846 1.33377 -2.68609 0
M  V30 6519 H 615.399 0.661329 -1.4162 0
M  V30 6520 H 616.134 3.13071 -0.845977 0
M  V30 6521 H 615.919 2.92727 -2.6087 0
M  V30 6522 H 617.409 3.68282 -1.96871 0
M  V30 6523 N 617.846 1.41785 0.688094 0
M  V30 6524 C 618.809 1.43936 1.78368 0
M  V30 6525 C 619.809 0.328866 1.57401 0
M  V30 6526 O 620.999 0.589093 1.63937 0
M  V30 6527 C 618.131 1.25804 3.16838 0
M  V30 6528 H 619.324 2.41472 1.77852 0
M  V30 6529 H 616.877 1.28037 0.896448 0
M  V30 6530 H 617.612 0.291386 3.22988 0
M  V30 6531 H 617.397 2.06272 3.33458 0
M  V30 6532 H 618.887 1.30162 3.96797 0
M  V30 6533 N 619.324 -0.923095 1.27737 0
M  V30 6534 C 620.57 -1.67375 1.14514 0
M  V30 6535 C 620.903 -1.91751 -0.307424 0
M  V30 6536 O 620.178 -1.51119 -1.22447 0
M  V30 6537 C 620.461 -3.03745 1.9342 0
M  V30 6538 C 620.314 -2.86581 3.46686 0
M  V30 6539 C 621.633 -4.04144 1.74228 0
M  V30 6540 H 618.752 -0.607427 0.417374 0
M  V30 6541 H 621.394 -1.07089 1.56946 0
M  V30 6542 H 619.544 -3.55204 1.5736 0
M  V30 6543 H 621.216 -2.42203 3.92601 0
M  V30 6544 H 619.459 -2.21829 3.72793 0
M  V30 6545 H 620.13 -3.83381 3.97143 0
M  V30 6546 H 622.606 -3.61712 2.05678 0
M  V30 6547 H 621.482 -4.97543 2.31824 0
M  V30 6548 H 621.743 -4.36661 0.691373 0
M  V30 6549 N 620.802 -1.09834 -1.13024 0
M  V30 6550 C 622.032 -0.857657 -1.87957 0
M  V30 6551 C 622.44 0.595008 -1.796 0
M  V30 6552 O 621.783 1.42158 -1.16347 0
M  V30 6553 C 621.845 -1.21949 -3.38185 0
M  V30 6554 C 621.509 -2.67791 -3.7032 0
M  V30 6555 C 622.506 -3.66036 -3.69207 0
M  V30 6556 C 620.191 -3.04019 -3.99847 0
M  V30 6557 C 622.185 -4.98533 -3.9717 0
M  V30 6558 C 619.872 -4.36706 -4.27471 0
M  V30 6559 C 620.87 -5.33772 -4.26118 0
M  V30 6560 O 620.558 -6.64072 -4.53061 0
M  V30 6561 H 620.29 -0.308009 -0.601753 0
M  V30 6562 H 622.844 -1.46496 -1.43973 0
M  V30 6563 H 621.074 -0.555249 -3.82693 0
M  V30 6564 H 622.763 -0.957281 -3.9445 0
M  V30 6565 H 623.529 -3.39392 -3.46465 0
M  V30 6566 H 619.408 -2.29096 -4.00045 0
M  V30 6567 H 622.952 -5.74288 -3.96029 0
M  V30 6568 H 618.849 -4.63091 -4.49685 0
M  V30 6569 H 619.617 -6.69608 -4.7071 0
M  V30 6570 N 622.28 1.30327 -0.886154 0
M  V30 6571 C 623.696 1.48676 -0.580323 0
M  V30 6572 C 623.896 1.81189 0.881639 0
M  V30 6573 O 622.952 1.90021 1.66278 0
M  V30 6574 C 624.265 2.60932 -1.49449 0
M  V30 6575 C 625.813 2.74812 -1.49824 0
M  V30 6576 C 626.288 3.90183 -2.39836 0
M  V30 6577 N 627.779 3.97495 -2.37806 0
M  V30 6578 C 628.514 4.86078 -3.04165 0
M  V30 6579 N 628.01 5.79448 -3.79753 0
M  V30 6580 N 629.803 4.79456 -2.93391 0
M  V30 6581 H 621.954 1.07495 -1.8319 0
M  V30 6582 H 624.217 0.532661 -0.784204 0
M  V30 6583 H 623.923 2.43731 -2.5355 0
M  V30 6584 H 623.797 3.57437 -1.20494 0
M  V30 6585 H 626.184 2.91418 -0.464731 0
M  V30 6586 H 626.265 1.78924 -1.82811 0
M  V30 6587 H 625.909 3.74334 -3.43273 0
M  V30 6588 H 625.839 4.85411 -2.04166 0
M  V30 6589 H 628.33 3.30703 -1.82877 0
M  V30 6590 H 628.643 6.43805 -4.27475 0
M  V30 6591 H 626.988 5.79376 -3.8386 0
M  V30 6592 H 630.179 4.05494 -2.33864 0
M  V30 6593 H 630.352 5.48283 -3.45383 0
M  V30 6594 N 623.758 0.647228 1.43697 0
M  V30 6595 C 624.983 0.164083 2.0675 0
M  V30 6596 C 625.408 -1.15892 1.48158 0
M  V30 6597 O 624.766 -1.71459 0.589194 0
M  V30 6598 C 624.814 0.0800368 3.60511 0
M  V30 6599 O 623.918 -0.959453 4.01084 0
M  V30 6600 H 623.259 0.0921288 0.657578 0
M  V30 6601 H 625.789 0.88846 1.84303 0
M  V30 6602 H 625.799 -0.105263 4.07864 0
M  V30 6603 H 624.474 1.04586 4.02535 0
M  V30 6604 H 623.051 -0.747425 3.65333 0
M  V30 6605 N 625.236 -1.5273 0.388769 0
M  V30 6606 C 626.647 -1.86505 -0.0853788 0
M  V30 6607 C 626.998 -1.30847 -1.46197 0
M  V30 6608 O 626.123 -0.639609 -2.06732 0
M  V30 6609 C 626.718 -3.38414 -0.161703 0
M  V30 6610 C 625.277 -3.71902 -0.580144 0
M  V30 6611 C 624.424 -2.76095 0.258218 0
M  V30 6612 H 627.375 -1.46647 0.606665 0
M  V30 6613 H 627.396 -3.67638 -0.980936 0
M  V30 6614 H 626.908 -3.78893 0.840333 0
M  V30 6615 H 625.009 -3.36992 -1.58957 0
M  V30 6616 H 625.122 -4.77902 -0.338663 0
M  V30 6617 H 623.486 -2.53195 -0.276432 0
M  V30 6618 H 624.269 -3.19411 1.25822 0
M  V30 6619 N 626.714 -0.118576 -1.57153 0
M  V30 6620 C 628.125 0.40687 -1.82213 0
M  V30 6621 C 628.476 1.66636 -1.03571 0
M  V30 6622 O 627.601 2.14682 -0.272171 0
M  V30 6623 C 628.196 0.744949 -3.30509 0
M  V30 6624 C 626.755 1.21503 -3.5625 0
M  V30 6625 C 625.902 0.223511 -2.76398 0
M  V30 6626 H 628.853 -0.343712 -1.54933 0
M  V30 6627 H 628.874 1.6024 -3.45114 0
M  V30 6628 H 628.386 -0.171911 -3.87719 0
M  V30 6629 H 626.487 2.1488 -3.04396 0
M  V30 6630 H 626.6 1.16065 -4.64829 0
M  V30 6631 H 624.964 0.71046 -2.44591 0
M  V30 6632 H 625.747 -0.686439 -3.36367 0
M  V30 6633 N 628.193 1.56834 0.155195 0
M  V30 6634 C 629.103 2.009 1.21146 0
M  V30 6635 C 630.119 0.923029 1.475 0
M  V30 6636 O 631.295 1.23189 1.59331 0
M  V30 6637 C 628.36 2.37378 2.52691 0
M  V30 6638 C 627.421 3.59883 2.34057 0
M  V30 6639 C 626.654 3.94612 3.59329 0
M  V30 6640 O 626.877 3.30104 4.65175 0
M  V30 6641 O 625.811 4.87895 3.52479 0
M  V30 6642 H 629.637 2.9105 0.867371 0
M  V30 6643 H 627.222 1.44916 0.363298 0
M  V30 6644 H 629.104 2.61737 3.3026 0
M  V30 6645 H 627.779 1.50385 2.86646 0
M  V30 6646 H 626.686 3.40722 1.54465 0
M  V30 6647 H 628.019 4.47468 2.0502 0
M  V30 6648 N 629.671 -0.424282 1.51781 0
M  V30 6649 C 630.919 -1.17028 1.64769 0
M  V30 6650 C 631.24 -1.91409 0.372523 0
M  V30 6651 O 630.51 -1.86091 -0.612108 0
M  V30 6652 H 629.09 -0.434992 0.607282 0
M  V30 6653 H 631.752 -0.485169 1.88765 0
M  V30 6654 H 630.848 -1.8927 2.4816 0
M  V30 6655 N 631.149 -1.42148 -0.680565 0
M  V30 6656 C 632.396 -1.4231 -1.44063 0
M  V30 6657 C 632.724 -0.037488 -1.94464 0
M  V30 6658 O 631.979 0.953184 -1.70918 0
M  V30 6659 C 632.278 -2.38945 -2.65782 0
M  V30 6660 C 631.944 -3.85455 -2.33956 0
M  V30 6661 C 630.606 -4.25364 -2.24987 0
M  V30 6662 C 632.958 -4.77895 -2.08004 0
M  V30 6663 C 630.286 -5.55701 -1.88184 0
M  V30 6664 C 632.638 -6.08568 -1.72706 0
M  V30 6665 C 631.302 -6.47482 -1.62244 0
M  V30 6666 H 630.572 -0.520748 -0.527164 0
M  V30 6667 H 633.219 -1.7505 -0.776524 0
M  V30 6668 H 631.524 -1.99511 -3.37198 0
M  V30 6669 H 633.221 -2.36336 -3.23954 0
M  V30 6670 H 629.811 -3.53855 -2.41836 0
M  V30 6671 H 633.995 -4.47854 -2.1387 0
M  V30 6672 H 629.251 -5.84718 -1.78648 0
M  V30 6673 H 633.425 -6.79688 -1.5165 0
M  V30 6674 H 631.052 -7.48387 -1.33496 0
M  V30 6675 N 632.627 0.916307 -1.28225 0
M  V30 6676 C 633.904 1.64429 -1.05936 0
M  V30 6677 C 634.284 2.07234 0.402139 0
M  V30 6678 O 633.632 1.81535 1.3877 0
M  V30 6679 C 633.842 2.83773 -2.03159 0
M  V30 6680 C 635.19 3.54852 -2.33164 0
M  V30 6681 O 636.214 2.93918 -2.01223 0
M  V30 6682 O 635.073 4.64663 -2.87664 0
M  V30 6683 H 632.167 0.721221 -0.404683 0
M  V30 6684 H 634.713 0.965838 -1.39534 0
M  V30 6685 H 633.485 2.49217 -3.01673 0
M  V30 6686 H 633.108 3.59333 -1.70192 0
M  V30 6687 N 634.105 1.10431 1.1244 0
M  V30 6688 C 635.516 0.864439 1.65482 0
M  V30 6689 C 635.867 -0.60527 1.8663 0
M  V30 6690 O 634.992 -1.46492 1.59276 0
M  V30 6691 C 635.587 1.56267 3.0061 0
M  V30 6692 C 634.146 1.3695 3.50602 0
M  V30 6693 C 633.293 1.61209 2.25626 0
M  V30 6694 H 636.244 1.26203 0.962209 0
M  V30 6695 H 636.265 1.00166 3.67079 0
M  V30 6696 H 635.777 2.63231 2.85186 0
M  V30 6697 H 633.878 0.321481 3.71211 0
M  V30 6698 H 633.991 2.11143 4.30064 0
M  V30 6699 H 632.355 1.03482 2.32731 0
M  V30 6700 H 633.138 2.69425 2.12756 0
M  V30 6701 N 635.583 -1.29855 0.893053 0
M  V30 6702 C 636.493 -2.31661 0.370157 0
M  V30 6703 C 637.509 -1.65677 -0.531723 0
M  V30 6704 O 638.685 -1.9691 -0.422902 0
M  V30 6705 C 635.75 -3.44388 -0.399741 0
M  V30 6706 C 634.811 -4.2598 0.532861 0
M  V30 6707 C 634.044 -5.33324 -0.200388 0
M  V30 6708 O 634.267 -5.52305 -1.42531 0
M  V30 6709 O 633.201 -6.00188 0.453668 0
M  V30 6710 H 637.027 -2.78354 1.2146 0
M  V30 6711 H 634.612 -1.34171 0.657153 0
M  V30 6712 H 636.494 -4.13037 -0.835358 0
M  V30 6713 H 635.169 -2.99815 -1.22035 0
M  V30 6714 H 634.076 -3.59998 1.01746 0
M  V30 6715 H 635.409 -4.74178 1.3197 0
M  V30 6716 N 637.061 -0.65484 -1.43351 0
M  V30 6717 C 638.477 -0.32255 -1.56307 0
M  V30 6718 C 638.677 1.17324 -1.63821 0
M  V30 6719 O 637.733 1.95813 -1.59417 0
M  V30 6720 C 639.046 -1.03533 -2.82314 0
M  V30 6721 C 640.594 -1.01574 -2.9606 0
M  V30 6722 C 641.069 -1.70945 -4.24902 0
M  V30 6723 N 642.56 -1.67716 -4.3177 0
M  V30 6724 C 643.295 -2.18265 -5.30234 0
M  V30 6725 N 642.791 -2.7711 -6.34966 0
M  V30 6726 N 644.584 -2.08756 -5.21898 0
M  V30 6727 H 636.735 -1.62549 -1.36717 0
M  V30 6728 H 638.998 -0.683676 -0.656727 0
M  V30 6729 H 638.704 -2.09045 -2.8283 0
M  V30 6730 H 638.578 -0.587913 -3.7259 0
M  V30 6731 H 640.965 0.0309834 -2.95084 0
M  V30 6732 H 641.046 -1.50186 -2.07069 0
M  V30 6733 H 640.69 -2.75574 -4.26639 0
M  V30 6734 H 640.62 -1.19797 -5.12793 0
M  V30 6735 H 643.111 -1.24777 -3.56706 0
M  V30 6736 H 643.424 -3.13353 -7.06421 0
M  V30 6737 H 641.769 -2.81171 -6.35585 0
M  V30 6738 H 644.96 -1.62488 -4.38994 0
M  V30 6739 H 645.133 -2.48459 -5.98475 0
M  V30 6740 N 638.539 1.52521 -0.396863 0
M  V30 6741 C 639.786 2.01672 0.182898 0
M  V30 6742 C 640.114 1.28302 1.46181 0
M  V30 6743 O 639.369 0.374118 1.92091 0
M  V30 6744 C 639.668 3.5403 0.489677 0
M  V30 6745 C 639.334 4.45456 -0.698581 0
M  V30 6746 C 637.996 4.70166 -1.02454 0
M  V30 6747 C 640.348 4.99354 -1.49316 0
M  V30 6748 C 637.676 5.46024 -2.1465 0
M  V30 6749 C 640.028 5.76439 -2.60579 0
M  V30 6750 C 638.692 5.99426 -2.93675 0
M  V30 6751 H 637.962 0.737971 0.066927 0
M  V30 6752 H 640.609 1.83853 -0.535764 0
M  V30 6753 H 638.914 3.69963 1.28976 0
M  V30 6754 H 640.611 3.8956 0.951018 0
M  V30 6755 H 637.201 4.26392 -0.434525 0
M  V30 6756 H 641.385 4.80182 -1.25457 0
M  V30 6757 H 636.641 5.62046 -2.40654 0
M  V30 6758 H 640.815 6.17202 -3.22544 0
M  V30 6759 H 638.442 6.57988 -3.80731 0
M  V30 6760 N 640.017 0.126909 1.57088 0
M  V30 6761 C 641.265 -0.528123 1.95078 0
M  V30 6762 C 641.586 -1.66708 1.0116 0
M  V30 6763 O 640.856 -1.95777 0.0693527 0
M  V30 6764 H 639.436 -0.198087 0.720257 0
M  V30 6765 H 642.098 0.197703 1.93895 0
M  V30 6766 H 641.194 -0.917507 2.98309 0
M  V30 6767 N 641.495 -1.56914 -0.146875 0
M  V30 6768 C 642.458 -1.97368 -1.16526 0
M  V30 6769 C 643.458 -0.860223 -1.35856 0
M  V30 6770 O 644.648 -1.12684 -1.32846 0
M  V30 6771 C 641.78 -2.28974 -2.52555 0
M  V30 6772 H 642.973 -2.88523 -0.818209 0
M  V30 6773 H 640.526 -1.5135 -0.390221 0
M  V30 6774 H 641.261 -1.40611 -2.92231 0
M  V30 6775 H 641.046 -3.10157 -2.39886 0
M  V30 6776 H 642.536 -2.61109 -3.25902 0
M  V30 6777 N 642.974 0.416227 -1.52004 0
M  V30 6778 C 643.937 1.48926 -1.74223 0
M  V30 6779 C 644.937 1.48693 -0.612119 0
M  V30 6780 O 646.127 1.50343 -0.879921 0
M  V30 6781 C 643.259 2.88372 -1.81809 0
M  V30 6782 H 644.452 1.3052 -2.70008 0
M  V30 6783 H 642.005 0.646271 -1.42313 0
M  V30 6784 H 642.74 3.12157 -0.879135 0
M  V30 6785 H 642.525 2.89944 -2.6396 0
M  V30 6786 H 644.015 3.66173 -2.00766 0
M  V30 6787 N 644.452 1.42507 0.673017 0
M  V30 6788 C 645.868 1.25472 0.986355 0
M  V30 6789 C 646.068 0.160181 2.00862 0
M  V30 6790 O 645.124 -0.467993 2.48125 0
M  V30 6791 C 646.437 2.61219 1.48947 0
M  V30 6792 C 647.985 2.68589 1.60715 0
M  V30 6793 C 648.46 4.04707 2.14422 0
M  V30 6794 N 649.951 4.0667 2.21752 0
M  V30 6795 C 650.686 5.0881 2.64386 0
M  V30 6796 N 650.182 6.21332 3.0646 0
M  V30 6797 N 651.975 4.96166 2.64151 0
M  V30 6798 H 644.126 2.124 -0.00378532 0
M  V30 6799 H 646.389 0.946046 0.0608367 0
M  V30 6800 H 646.095 3.42179 0.812812 0
M  V30 6801 H 645.969 2.85261 2.46791 0
M  V30 6802 H 648.356 1.87974 2.27486 0
M  V30 6803 H 648.437 2.48333 0.613552 0
M  V30 6804 H 648.081 4.8578 1.48258 0
M  V30 6805 H 648.011 4.22315 3.14575 0
M  V30 6806 H 650.502 3.25438 1.92089 0
M  V30 6807 H 650.815 6.95118 3.37684 0
M  V30 6808 H 649.16 6.24835 3.04313 0
M  V30 6809 H 652.351 4.07334 2.30644 0
M  V30 6810 H 652.524 5.759 2.97057 0
M  V30 6811 N 645.93 -0.909495 1.28709 0
M  V30 6812 C 646.84 -2.04558 1.14861 0
M  V30 6813 C 647.856 -1.73842 0.0741621 0
M  V30 6814 O 649.032 -1.99383 0.2843 0
M  V30 6815 C 646.097 -3.36957 0.816148 0
M  V30 6816 C 645.158 -3.81255 1.97341 0
M  V30 6817 C 644.391 -5.07335 1.65671 0
M  V30 6818 O 644.614 -5.67514 0.573053 0
M  V30 6819 O 643.548 -5.47449 2.50167 0
M  V30 6820 H 647.374 -2.19161 2.10243 0
M  V30 6821 H 644.959 -1.03159 1.08068 0
M  V30 6822 H 646.841 -4.16436 0.644873 0
M  V30 6823 H 645.516 -3.2352 -0.107983 0
M  V30 6824 H 644.423 -3.02584 2.19986 0
M  V30 6825 H 645.756 -3.99261 2.87839 0
M  V30 6826 N 647.408 -1.11026 -1.11852 0
M  V30 6827 C 648.685 -0.768347 -1.79877 0
M  V30 6828 C 649.065 0.744261 -1.97545 0
M  V30 6829 O 648.413 1.67271 -1.55669 0
M  V30 6830 C 648.623 -1.52648 -3.13846 0
M  V30 6831 C 649.971 -1.70297 -3.88953 0
M  V30 6832 O 650.995 -1.49037 -3.23522 0
M  V30 6833 O 649.854 -2.05593 -5.06353 0
M  V30 6834 H 646.948 -0.277891 -0.778913 0
M  V30 6835 H 649.494 -1.21343 -1.18633 0
M  V30 6836 H 648.266 -2.55564 -2.96315 0
M  V30 6837 H 647.889 -1.07466 -3.82801 0
M  V30 6838 N 648.886 1.2938 -0.899927 0
M  V30 6839 C 650.111 2.00228 -0.540692 0
M  V30 6840 C 650.536 1.66909 0.867359 0
M  V30 6841 O 649.894 0.893824 1.57735 0
M  V30 6842 C 649.942 3.52921 -0.740232 0
M  V30 6843 O 649.046 4.11879 0.207154 0
M  V30 6844 H 648.387 0.629505 -0.211233 0
M  V30 6845 H 650.917 1.6487 -1.21158 0
M  V30 6846 H 650.927 4.0287 -0.644973 0
M  V30 6847 H 649.602 3.76508 -1.76677 0
M  V30 6848 H 648.179 3.72845 0.0643315 0
M  V30 6849 N 650.364 0.662433 1.43002 0
M  V30 6850 C 651.78 0.330835 1.56133 0
M  V30 6851 C 651.98 -1.16454 1.64441 0
M  V30 6852 O 651.036 -1.94964 1.60453 0
M  V30 6853 C 652.349 1.05029 2.81761 0
M  V30 6854 C 653.897 1.03142 2.95518 0
M  V30 6855 C 654.372 1.73196 4.2399 0
M  V30 6856 N 655.863 1.70004 4.30875 0
M  V30 6857 C 656.598 2.21074 5.29069 0
M  V30 6858 N 656.094 2.80473 6.33488 0
M  V30 6859 N 657.887 2.1152 5.20784 0
M  V30 6860 H 650.038 1.63272 1.35853 0
M  V30 6861 H 652.301 0.687149 0.653092 0
M  V30 6862 H 652.007 2.10542 2.81718 0
M  V30 6863 H 651.881 0.607664 3.72273 0
M  V30 6864 H 654.268 -0.0153339 2.95096 0
M  V30 6865 H 654.349 1.51282 2.0627 0
M  V30 6866 H 653.993 2.77833 4.25172 0
M  V30 6867 H 653.923 1.22515 5.1215 0
M  V30 6868 H 656.414 1.26667 3.56039 0
M  V30 6869 H 656.727 3.17094 7.04749 0
M  V30 6870 H 655.072 2.84538 6.34085 0
M  V30 6871 H 658.263 1.64814 4.38126 0
M  V30 6872 H 658.436 2.51629 5.97149 0
M  V30 6873 N 651.842 -1.52309 0.404946 0
M  V30 6874 C 653.09 -2.01368 -0.17186 0
M  V30 6875 C 653.411 -1.29261 -1.46002 0
M  V30 6876 O 652.681 -0.41729 -1.91404 0
M  V30 6877 H 651.261 -0.744034 -0.0664993 0
M  V30 6878 H 653.923 -1.87263 0.540228 0
M  V30 6879 H 653.019 -3.09888 -0.370957 0
M  V30 6880 N 653.32 -0.135238 -1.57019 0
M  V30 6881 C 654.283 0.794707 -2.14981 0
M  V30 6882 C 655.283 1.18342 -1.08866 0
M  V30 6883 O 656.473 1.10627 -1.34563 0
M  V30 6884 C 653.605 2.07685 -2.70333 0
M  V30 6885 H 654.798 0.290696 -2.98488 0
M  V30 6886 H 652.351 0.114128 -1.55883 0
M  V30 6887 H 653.086 2.6248 -1.9046 0
M  V30 6888 H 652.871 1.80745 -3.47957 0
M  V30 6889 H 654.361 2.74127 -3.1503 0
M  V30 6890 N 654.798 1.5699 0.138552 0
M  V30 6891 C 656.023 1.88344 0.86841 0
M  V30 6892 C 656.448 0.725159 1.7356 0
M  V30 6893 O 655.806 -0.324992 1.78363 0
M  V30 6894 C 655.854 3.18334 1.69398 0
M  V30 6895 O 654.958 3.02863 2.79907 0
M  V30 6896 H 654.299 0.618577 0.241367 0
M  V30 6897 H 656.829 2.04207 0.126826 0
M  V30 6898 H 656.839 3.50567 2.08726 0
M  V30 6899 H 655.514 4.02238 1.05725 0
M  V30 6900 H 654.091 2.82056 2.43924 0
M  V30 6901 N 656.276 -0.40816 1.52223 0
M  V30 6902 C 657.501 -1.18127 1.70472 0
M  V30 6903 C 657.926 -1.83491 0.41384 0
M  V30 6904 O 657.284 -1.70047 -0.628778 0
M  V30 6905 C 657.332 -2.21935 2.84213 0
M  V30 6906 O 656.436 -3.28099 2.4985 0
M  V30 6907 H 655.777 -0.344781 0.56747 0
M  V30 6908 H 658.307 -0.478328 1.9893 0
M  V30 6909 H 658.317 -2.66248 3.09153 0
M  V30 6910 H 656.992 -1.73744 3.7787 0
M  V30 6911 H 655.569 -2.89058 2.35584 0
M  V30 6912 N 657.755 -1.42862 -0.66545 0
M  V30 6913 C 659.171 -1.25993 -0.979687 0
M  V30 6914 C 659.371 -0.170831 -2.00775 0
M  V30 6915 O 658.427 0.454827 -2.4837 0
M  V30 6916 C 659.74 -2.62005 -1.47559 0
M  V30 6917 C 661.288 -2.69437 -1.59288 0
M  V30 6918 C 661.763 -4.05838 -2.12272 0
M  V30 6919 N 663.254 -4.0784 -2.19592 0
M  V30 6920 C 663.989 -5.10205 -2.61684 0
M  V30 6921 N 663.485 -6.22949 -3.03161 0
M  V30 6922 N 665.278 -4.9756 -2.61516 0
M  V30 6923 H 657.429 -2.12395 0.0150493 0
M  V30 6924 H 659.692 -0.946355 -0.0558187 0
M  V30 6925 H 659.398 -3.42605 -0.794654 0
M  V30 6926 H 659.272 -2.86566 -2.45275 0
M  V30 6927 H 661.659 -1.89178 -2.26486 0
M  V30 6928 H 661.74 -2.48655 -0.600374 0
M  V30 6929 H 661.384 -4.86559 -1.4568 0
M  V30 6930 H 661.314 -4.23977 -3.12331 0
M  V30 6931 H 663.805 -3.26452 -1.90361 0
M  V30 6932 H 664.118 -6.96899 -3.33993 0
M  V30 6933 H 662.463 -6.2644 -3.00995 0
M  V30 6934 H 665.654 -4.08551 -2.28481 0
M  V30 6935 H 665.827 -5.77468 -2.93999 0
M  V30 6936 N 659.233 0.902656 -1.29189 0
M  V30 6937 C 660.48 1.65287 -1.16989 0
M  V30 6938 C 660.808 1.92485 0.279232 0
M  V30 6939 O 660.063 1.53143 1.21843 0
M  V30 6940 C 660.362 3.011 -1.92545 0
M  V30 6941 C 660.028 2.93521 -3.42281 0
M  V30 6942 C 658.69 2.91161 -3.83117 0
M  V30 6943 C 661.042 2.82947 -4.3771 0
M  V30 6944 C 658.37 2.76043 -5.17704 0
M  V30 6945 C 660.722 2.69368 -5.72384 0
M  V30 6946 C 659.386 2.65373 -6.12482 0
M  V30 6947 H 658.656 0.604828 -0.428094 0
M  V30 6948 H 661.303 1.05084 -1.60092 0
M  V30 6949 H 659.608 3.65153 -1.42024 0
M  V30 6950 H 661.305 3.58073 -1.80512 0
M  V30 6951 H 657.895 2.96158 -3.09819 0
M  V30 6952 H 662.079 2.83849 -4.07116 0
M  V30 6953 H 657.335 2.71352 -5.47885 0
M  V30 6954 H 661.509 2.60156 -6.45981 0
M  V30 6955 H 659.136 2.53415 -7.16718 0
M  V30 6956 N 660.711 1.11618 1.11262 0
M  V30 6957 C 661.661 0.745274 2.15475 0
M  V30 6958 C 662.645 -0.251585 1.58921 0
M  V30 6959 O 663.837 -0.0584093 1.76904 0
M  V30 6960 C 660.966 0.192128 3.42762 0
M  V30 6961 C 660.052 1.21676 4.0627 0
M  V30 6962 N 660.443 2.41158 4.44608 0
M  V30 6963 C 658.741 1.06013 4.33217 0
M  V30 6964 C 659.442 3.0652 4.94389 0
M  V30 6965 N 658.418 2.33994 4.9066 0
M  V30 6966 H 662.22 1.65462 2.42898 0
M  V30 6967 H 659.734 0.995695 1.28295 0
M  V30 6968 H 661.731 -0.0917339 4.16799 0
M  V30 6969 H 660.391 -0.711778 3.16802 0
M  V30 6970 H 661.402 2.786 4.3658 0
M  V30 6971 H 658.079 0.212809 4.16957 0
M  V30 6972 H 659.469 4.08225 5.33669 0
M  V30 6973 N 662.189 -1.289 0.906776 0
M  V30 6974 C 663.419 -1.99112 0.551168 0
M  V30 6975 C 663.827 -1.67998 -0.870243 0
M  V30 6976 O 663.17 -0.92525 -1.58697 0
M  V30 6977 C 663.232 -3.53162 0.672065 0
M  V30 6978 C 662.896 -4.07849 2.06174 0
M  V30 6979 C 663.893 -4.22212 3.0337 0
M  V30 6980 C 661.578 -4.4271 2.37304 0
M  V30 6981 C 663.572 -4.70678 4.29815 0
M  V30 6982 C 661.259 -4.90871 3.6399 0
M  V30 6983 C 662.257 -5.04811 4.6006 0
M  V30 6984 O 661.945 -5.51925 5.84495 0
M  V30 6985 H 661.677 -0.642728 0.209469 0
M  V30 6986 H 664.231 -1.65234 1.22012 0
M  V30 6987 H 662.461 -3.86662 -0.05394 0
M  V30 6988 H 664.15 -4.046 0.324579 0
M  V30 6989 H 664.916 -3.9556 2.80637 0
M  V30 6990 H 660.795 -4.31114 1.63283 0
M  V30 6991 H 664.339 -4.81474 5.04806 0
M  V30 6992 H 660.236 -5.16961 3.86551 0
M  V30 6993 H 661.004 -5.70225 5.87185 0
M  V30 6994 N 663.667 -0.670007 -1.42649 0
M  V30 6995 C 664.916 -0.187526 -2.00826 0
M  V30 6996 C 665.229 1.21142 -1.53571 0
M  V30 6997 O 666.435 1.79001 -2.04134 0
M  V30 6998 C 664.891 -0.284409 -3.58774 0
M  V30 6999 C 664.499 -1.6871 -4.15019 0
M  V30 7000 C 666.243 0.139605 -4.2427 0
M  V30 7001 C 664.15 -1.73701 -5.65316 0
M  V30 7002 H 663.08 -0.0663468 -0.751075 0
M  V30 7003 H 665.731 -0.834492 -1.63427 0
M  V30 7004 H 664.113 0.430364 -3.93655 0
M  V30 7005 H 665.287 -2.42857 -3.91608 0
M  V30 7006 H 663.602 -2.05855 -3.61957 0
M  V30 7007 H 666.199 0.122398 -5.3456 0
M  V30 7008 H 666.542 1.17403 -3.99402 0
M  V30 7009 H 667.075 -0.523995 -3.94334 0
M  V30 7010 H 663.814 -2.75109 -5.94975 0
M  V30 7011 H 663.334 -1.03903 -5.90732 0
M  V30 7012 H 665.013 -1.48829 -6.2965 0
M  V30 7013 N 665.145 1.52092 -0.413018 0
M  V30 7014 C 666.556 1.86617 0.0556967 0
M  V30 7015 C 666.907 1.33156 1.44097 0
M  V30 7016 O 666.032 0.672417 2.05688 0
M  V30 7017 C 666.627 3.38628 0.107844 0
M  V30 7018 C 665.186 3.72778 0.520904 0
M  V30 7019 C 664.333 2.75649 -0.302109 0
M  V30 7020 H 667.284 1.45663 -0.629919 0
M  V30 7021 H 667.305 3.69152 0.922324 0
M  V30 7022 H 666.817 3.77508 -0.900506 0
M  V30 7023 H 664.918 3.39478 1.53575 0
M  V30 7024 H 665.031 4.7838 0.262591 0
M  V30 7025 H 663.395 2.53603 0.236115 0
M  V30 7026 H 664.178 3.17369 -1.30888 0
M  V30 7027 N 666.623 0.143563 1.56945 0
M  V30 7028 C 667.87 -0.508407 1.96014 0
M  V30 7029 C 668.198 -1.65099 1.02824 0
M  V30 7030 O 667.453 -1.95618 0.0567764 0
M  V30 7031 C 667.752 -1.05885 3.41355 0
M  V30 7032 C 667.418 -0.0350809 4.50886 0
M  V30 7033 C 666.08 0.246362 4.80569 0
M  V30 7034 C 668.432 0.661282 5.16988 0
M  V30 7035 C 665.76 1.23003 5.73661 0
M  V30 7036 C 668.112 1.63375 6.11139 0
M  V30 7037 C 666.776 1.92292 6.39203 0
M  V30 7038 H 666.046 -0.186039 0.717266 0
M  V30 7039 H 668.693 0.229667 1.90118 0
M  V30 7040 H 666.998 -1.87419 3.44066 0
M  V30 7041 H 668.695 -1.57183 3.6891 0
M  V30 7042 H 665.285 -0.264622 4.27782 0
M  V30 7043 H 669.469 0.457038 4.94191 0
M  V30 7044 H 664.725 1.46056 5.93698 0
M  V30 7045 H 668.899 2.17887 6.61436 0
M  V30 7046 H 666.526 2.68666 7.11142 0
M  V30 7047 N 668.101 -1.57061 -0.130224 0
M  V30 7048 C 669.349 -1.83893 -0.838313 0
M  V30 7049 C 669.67 -0.727046 -1.80939 0
M  V30 7050 O 668.94 0.249927 -1.94299 0
M  V30 7051 H 667.52 -0.67846 -0.312573 0
M  V30 7052 H 670.182 -1.94529 -0.120224 0
M  V30 7053 H 669.278 -2.79419 -1.39038 0
M  V30 7054 N 669.579 0.400081 -1.52437 0
M  V30 7055 C 670.827 1.14392 -1.6661 0
M  V30 7056 C 671.148 1.90792 -0.402927 0
M  V30 7057 O 670.418 1.87042 0.582425 0
M  V30 7058 H 668.998 0.425275 -0.614125 0
M  V30 7059 H 671.66 0.455076 -1.89513 0
M  V30 7060 H 670.756 1.85298 -2.51139 0
M  V30 7061 N 671.057 1.43213 0.657864 0
M  V30 7062 C 672.305 1.44298 1.41501 0
M  V30 7063 C 672.626 0.0666478 1.94886 0
M  V30 7064 O 671.896 -0.897345 1.74139 0
M  V30 7065 H 670.476 0.531257 0.525143 0
M  V30 7066 H 673.138 1.78777 0.776195 0
M  V30 7067 H 672.234 2.1528 2.25966 0
M  V30 7068 N 672.536 -0.895792 1.29666 0
M  V30 7069 C 673.499 -1.98189 1.15124 0
M  V30 7070 C 674.499 -1.60572 0.0855717 0
M  V30 7071 O 675.689 -1.70991 0.332826 0
M  V30 7072 C 672.821 -3.32289 0.761372 0
M  V30 7073 H 674.014 -2.12518 2.11603 0
M  V30 7074 H 671.567 -1.0808 1.12908 0
M  V30 7075 H 672.302 -3.23662 -0.203393 0
M  V30 7076 H 672.087 -3.60958 1.53139 0
M  V30 7077 H 673.577 -4.1198 0.682792 0
M  V30 7078 N 674.014 -1.12206 -1.10668 0
M  V30 7079 C 675.43 -0.857619 -1.346 0
M  V30 7080 C 675.63 0.513542 -1.94846 0
M  V30 7081 O 674.686 1.26273 -2.18658 0
M  V30 7082 C 675.999 -1.97212 -2.26998 0
M  V30 7083 C 677.547 -2.00272 -2.40542 0
M  V30 7084 C 678.022 -3.10948 -3.36267 0
M  V30 7085 N 679.513 -3.10375 -3.43834 0
M  V30 7086 C 680.248 -3.92651 -4.17867 0
M  V30 7087 N 679.744 -4.84911 -4.94807 0
M  V30 7088 N 681.537 -3.80798 -4.1346 0
M  V30 7089 H 673.688 -2.00558 -0.699306 0
M  V30 7090 H 675.951 -0.872612 -0.370477 0
M  V30 7091 H 675.657 -2.96002 -1.89936 0
M  V30 7092 H 675.531 -1.87521 -3.27286 0
M  V30 7093 H 677.918 -1.02103 -2.76874 0
M  V30 7094 H 677.999 -2.14037 -1.40077 0
M  V30 7095 H 677.643 -4.09348 -3.00661 0
M  V30 7096 H 677.573 -2.94421 -4.36605 0
M  V30 7097 H 680.064 -2.43536 -2.88961 0
M  V30 7098 H 680.377 -5.44207 -5.48688 0
M  V30 7099 H 678.722 -4.88926 -4.93939 0
M  V30 7100 H 681.913 -3.08058 -3.52445 0
M  V30 7101 H 682.086 -4.4515 -4.70898 0
M  V30 7102 N 675.492 1.28418 -0.913599 0
M  V30 7103 C 676.717 1.99643 -0.561899 0
M  V30 7104 C 677.142 1.67819 0.849608 0
M  V30 7105 O 676.5 0.910503 1.56779 0
M  V30 7106 C 676.548 3.52116 -0.777622 0
M  V30 7107 O 675.652 4.12076 0.163457 0
M  V30 7108 H 674.993 0.627229 -0.217898 0
M  V30 7109 H 677.523 1.63575 -1.229 0
M  V30 7110 H 677.533 4.02163 -0.687666 0
M  V30 7111 H 676.208 3.74613 -1.8066 0
M  V30 7112 H 674.785 3.72892 0.0247827 0
M  V30 7113 N 676.97 0.677563 1.42291 0
M  V30 7114 C 678.21 0.204894 2.0337 0
M  V30 7115 C 678.574 -1.16744 1.5243 0
M  V30 7116 O 679.775 -1.73492 2.05314 0
M  V30 7117 C 678.046 0.240742 3.56588 0
M  V30 7118 S 679.605 -0.16052 4.38506 0
M  V30 7119 H 676.423 0.0839932 0.706021 0
M  V30 7120 H 679.025 0.891332 1.73999 0
M  V30 7121 H 677.729 1.24184 3.91161 0
M  V30 7122 H 677.26 -0.465439 3.90637 0
M  V30 7123 H 679.275 -1.39315 4.76241 0
M  V30 7124 N 678.448 -1.51871 0.421078 0
M  V30 7125 C 679.378 -2.30231 -0.389363 0
M  V30 7126 C 680.359 -1.34946 -1.03555 0
M  V30 7127 O 681.544 -1.63859 -1.04229 0
M  V30 7128 C 678.674 -3.13247 -1.49979 0
M  V30 7129 C 677.628 -4.16677 -0.977966 0
M  V30 7130 C 676.954 -4.88112 -2.1829 0
M  V30 7131 C 678.254 -5.22295 -0.0236775 0
M  V30 7132 H 679.948 -2.98229 0.264524 0
M  V30 7133 H 677.494 -1.43424 0.12866 0
M  V30 7134 H 679.447 -3.66838 -2.07383 0
M  V30 7135 H 678.171 -2.4304 -2.18173 0
M  V30 7136 H 676.83 -3.64114 -0.426245 0
M  V30 7137 H 676.478 -4.14423 -2.85066 0
M  V30 7138 H 676.178 -5.58041 -1.84021 0
M  V30 7139 H 677.702 -5.44521 -2.76278 0
M  V30 7140 H 679.116 -5.71055 -0.506899 0
M  V30 7141 H 677.513 -5.99656 0.230782 0
M  V30 7142 H 678.583 -4.76131 0.917999 0
M  V30 7143 N 679.926 -0.151884 -1.56866 0
M  V30 7144 C 681.174 0.497021 -1.95893 0
M  V30 7145 C 681.495 1.65078 -1.03799 0
M  V30 7146 O 680.765 1.95642 -0.10049 0
M  V30 7147 H 679.345 0.186603 -0.723318 0
M  V30 7148 H 682.007 -0.228525 -1.93556 0
M  V30 7149 H 681.103 0.869933 -2.99731 0
M  V30 7150 N 681.404 1.57128 0.121893 0
M  V30 7151 C 682.336 1.96773 1.17529 0
M  V30 7152 C 683.349 0.866668 1.37814 0
M  V30 7153 O 684.538 1.14497 1.3694 0
M  V30 7154 C 681.638 2.24832 2.53582 0
M  V30 7155 C 680.811 3.56138 2.53939 0
M  V30 7156 C 679.87 3.72443 3.71716 0
M  V30 7157 O 678.896 4.44584 3.55434 0
M  V30 7158 N 680.098 3.10993 4.90167 0
M  V30 7159 H 682.863 2.87743 0.838086 0
M  V30 7160 H 680.424 1.58881 0.311199 0
M  V30 7161 H 682.416 2.32958 3.30927 0
M  V30 7162 H 680.986 1.40002 2.79496 0
M  V30 7163 H 680.206 3.59226 1.62329 0
M  V30 7164 H 681.494 4.42448 2.51231 0
M  V30 7165 H 680.892 2.52345 5.06299 0
M  V30 7166 H 679.449 3.24644 5.65198 0
M  V30 7167 N 682.882 -0.391992 1.52647 0
M  V30 7168 C 683.792 -1.503 1.80131 0
M  V30 7169 C 684.808 -1.59825 0.687882 0
M  V30 7170 O 685.984 -1.76218 0.975149 0
M  V30 7171 C 683.049 -2.85863 1.96171 0
M  V30 7172 C 682.11 -2.86084 3.20085 0
M  V30 7173 C 681.343 -4.15181 3.35351 0
M  V30 7174 O 681.566 -5.09981 2.55491 0
M  V30 7175 O 680.5 -4.22603 4.28591 0
M  V30 7176 H 684.326 -1.30007 2.74466 0
M  V30 7177 H 681.911 -0.579539 1.37701 0
M  V30 7178 H 683.793 -3.66236 2.08445 0
M  V30 7179 H 682.468 -3.06189 1.05025 0
M  V30 7180 H 681.375 -2.04504 3.13256 0
M  V30 7181 H 682.708 -2.7071 4.11068 0
M  V30 7182 N 684.36 -1.4356 -0.65026 0
M  V30 7183 C 685.29 -1.51758 -1.77459 0
M  V30 7184 C 686.271 -0.372019 -1.65982 0
M  V30 7185 O 687.456 -0.589627 -1.85033 0
M  V30 7186 C 684.586 -1.44302 -3.15902 0
M  V30 7187 C 683.54 -2.57138 -3.42146 0
M  V30 7188 C 682.866 -2.34735 -4.8042 0
M  V30 7189 C 684.166 -3.99373 -3.36598 0
M  V30 7190 H 685.86 -2.45863 -1.70855 0
M  V30 7191 H 683.406 -1.18333 -0.820566 0
M  V30 7192 H 685.359 -1.48641 -3.94314 0
M  V30 7193 H 684.083 -0.467026 -3.23244 0
M  V30 7194 H 682.742 -2.52157 -2.66106 0
M  V30 7195 H 682.39 -1.35372 -4.84441 0
M  V30 7196 H 682.09 -3.10375 -4.9894 0
M  V30 7197 H 683.614 -2.40862 -5.61086 0
M  V30 7198 H 685.028 -4.05826 -4.04942 0
M  V30 7199 H 683.425 -4.75063 -3.66654 0
M  V30 7200 H 684.495 -4.243 -2.34729 0
M  V30 7201 N 685.838 0.888903 -1.30139 0
M  V30 7202 C 686.801 1.97576 -1.16174 0
M  V30 7203 C 687.801 1.60525 -0.094086 0
M  V30 7204 O 688.991 1.70812 -0.341889 0
M  V30 7205 C 686.123 3.3188 -0.778983 0
M  V30 7206 H 687.316 2.11393 -2.12728 0
M  V30 7207 H 684.869 1.0748 -1.1348 0
M  V30 7208 H 685.604 3.23765 0.186225 0
M  V30 7209 H 685.389 3.60141 -1.55051 0
M  V30 7210 H 686.879 4.11612 -0.704631 0
M  V30 7211 N 687.317 1.12792 1.10072 0
M  V30 7212 C 688.249 0.757003 2.16338 0
M  V30 7213 C 689.262 -0.218144 1.61332 0
M  V30 7214 O 690.451 0.0010727 1.785 0
M  V30 7215 C 687.551 0.100303 3.38752 0
M  V30 7216 C 686.724 1.10586 4.2319 0
M  V30 7217 C 685.783 0.47609 5.24042 0
M  V30 7218 O 684.809 1.13418 5.57786 0
M  V30 7219 N 686.011 -0.754823 5.75572 0
M  V30 7220 H 688.776 1.6714 2.48766 0
M  V30 7221 H 686.337 1.02003 1.25726 0
M  V30 7222 H 688.329 -0.333092 4.03327 0
M  V30 7223 H 686.899 -0.716915 3.04268 0
M  V30 7224 H 686.119 1.71677 3.54853 0
M  V30 7225 H 687.407 1.78571 4.76435 0
M  V30 7226 H 686.805 -1.30838 5.50362 0
M  V30 7227 H 685.362 -1.13098 6.41913 0
M  V30 7228 N 688.795 -1.27931 0.920396 0
M  V30 7229 C 689.758 -2.25345 0.41858 0
M  V30 7230 C 690.758 -1.54116 -0.458798 0
M  V30 7231 O 691.948 -1.72235 -0.260912 0
M  V30 7232 C 689.08 -3.38556 -0.399104 0
M  V30 7233 H 690.273 -2.71251 1.27918 0
M  V30 7234 H 687.826 -1.39728 0.700406 0
M  V30 7235 H 688.561 -2.98021 -1.27882 0
M  V30 7236 H 688.346 -3.91426 0.229863 0
M  V30 7237 H 689.836 -4.10976 -0.740817 0
M  V30 7238 N 690.273 -0.685099 -1.4193 0
M  V30 7239 C 691.519 -0.211971 -2.01689 0
M  V30 7240 C 691.852 1.18189 -1.54094 0
M  V30 7241 O 691.127 1.79559 -0.747572 0
M  V30 7242 C 691.41 -0.258019 -3.59174 0
M  V30 7243 C 691.263 -1.68807 -4.16922 0
M  V30 7244 C 692.582 0.388044 -4.38386 0
M  V30 7245 H 689.701 -0.0784987 -0.732808 0
M  V30 7246 H 692.343 -0.871837 -1.68816 0
M  V30 7247 H 690.493 0.303832 -3.8731 0
M  V30 7248 H 692.165 -2.30296 -3.99702 0
M  V30 7249 H 690.408 -2.22553 -3.72361 0
M  V30 7250 H 691.079 -1.6719 -5.26072 0
M  V30 7251 H 693.555 -0.0903432 -4.16002 0
M  V30 7252 H 692.431 0.325232 -5.47936 0
M  V30 7253 H 692.692 1.4672 -4.17044 0
M  V30 7254 N 691.751 1.51645 -0.429126 0
M  V30 7255 C 692.681 2.30434 0.377148 0
M  V30 7256 C 693.662 1.35493 1.02838 0
M  V30 7257 O 694.847 1.6441 1.03359 0
M  V30 7258 C 691.977 3.14038 1.48315 0
M  V30 7259 C 690.931 4.1719 0.955855 0
M  V30 7260 C 690.257 4.89263 2.15698 0
M  V30 7261 C 691.557 5.223 -0.00402136 0
M  V30 7262 H 693.251 2.98085 -0.280336 0
M  V30 7263 H 690.797 1.43354 -0.136265 0
M  V30 7264 H 692.75 3.67933 2.05435 0
M  V30 7265 H 691.474 2.44193 2.16881 0
M  V30 7266 H 690.133 3.64335 0.406929 0
M  V30 7267 H 689.781 4.15929 2.82864 0
M  V30 7268 H 689.481 5.59009 1.81059 0
M  V30 7269 H 691.005 5.45978 2.73387 0
M  V30 7270 H 692.419 5.71315 0.476607 0
M  V30 7271 H 690.816 5.99525 -0.26258 0
M  V30 7272 H 691.886 4.75638 -0.943236 0
M  V30 7273 N 693.229 0.160201 1.56784 0
M  V30 7274 C 694.161 -0.80564 2.14574 0
M  V30 7275 C 695.174 -1.20154 1.09849 0
M  V30 7276 O 696.363 -1.14333 1.37078 0
M  V30 7277 C 693.463 -2.09434 2.6644 0
M  V30 7278 C 692.636 -1.86375 3.95706 0
M  V30 7279 C 691.695 -2.99358 4.32749 0
M  V30 7280 O 690.721 -2.70475 5.00831 0
M  V30 7281 N 691.923 -4.26867 3.93402 0
M  V30 7282 H 694.688 -0.311644 2.98075 0
M  V30 7283 H 692.249 -0.0229465 1.61884 0
M  V30 7284 H 694.241 -2.84091 2.88226 0
M  V30 7285 H 692.811 -2.50057 1.8759 0
M  V30 7286 H 692.031 -0.956821 3.82412 0
M  V30 7287 H 693.319 -1.68322 4.80151 0
M  V30 7288 H 692.717 -4.53197 3.38569 0
M  V30 7289 H 691.274 -4.98263 4.20211 0
M  V30 7290 N 694.707 -1.5719 -0.113559 0
M  V30 7291 C 695.637 -2.03772 -1.14013 0
M  V30 7292 C 696.618 -0.923176 -1.42869 0
M  V30 7293 O 697.803 -1.19325 -1.53216 0
M  V30 7294 C 694.933 -2.44663 -2.4649 0
M  V30 7295 C 693.887 -3.59612 -2.32085 0
M  V30 7296 C 693.213 -3.8642 -3.69573 0
M  V30 7297 C 694.513 -4.91149 -1.7768 0
M  V30 7298 H 696.207 -2.89785 -0.752665 0
M  V30 7299 H 693.753 -1.39412 -0.360609 0
M  V30 7300 H 695.706 -2.75857 -3.18561 0
M  V30 7301 H 694.43 -1.55628 -2.87137 0
M  V30 7302 H 693.089 -3.28636 -1.62461 0
M  V30 7303 H 692.737 -2.94581 -4.07715 0
M  V30 7304 H 692.437 -4.63797 -3.60786 0
M  V30 7305 H 693.961 -4.2007 -4.4314 0
M  V30 7306 H 695.375 -5.20843 -2.39574 0
M  V30 7307 H 693.772 -5.72562 -1.79701 0
M  V30 7308 H 694.842 -4.79301 -0.734776 0
M  V30 7309 N 696.185 0.383891 -1.52853 0
M  V30 7310 C 697.115 1.47559 -1.80965 0
M  V30 7311 C 698.096 1.5669 -0.661986 0
M  V30 7312 O 699.281 1.71556 -0.910072 0
M  V30 7313 C 696.411 2.85114 -1.98312 0
M  V30 7314 C 695.365 2.9082 -3.14019 0
M  V30 7315 C 694.691 4.30873 -3.16627 0
M  V30 7316 C 695.991 2.60001 -4.52986 0
M  V30 7317 H 697.685 1.24283 -2.72386 0
M  V30 7318 H 695.231 0.596445 -1.31067 0
M  V30 7319 H 697.184 3.61496 -2.16561 0
M  V30 7320 H 695.908 3.09738 -1.03585 0
M  V30 7321 H 694.567 2.16886 -2.9556 0
M  V30 7322 H 694.215 4.52545 -2.19573 0
M  V30 7323 H 693.915 4.3561 -3.94357 0
M  V30 7324 H 695.439 5.09154 -3.37038 0
M  V30 7325 H 696.853 3.261 -4.71521 0
M  V30 7326 H 695.25 2.76081 -5.32822 0
M  V30 7327 H 696.32 1.5532 -4.59351 0
M  V30 7328 N 697.663 1.43903 0.642637 0
M  V30 7329 C 698.626 1.49538 1.73698 0
M  V30 7330 C 699.626 0.378776 1.56275 0
M  V30 7331 O 700.816 0.64095 1.6198 0
M  V30 7332 C 697.948 1.35821 3.12675 0
M  V30 7333 H 699.141 2.47008 1.70079 0
M  V30 7334 H 696.694 1.30824 0.85526 0
M  V30 7335 H 697.429 0.393994 3.21898 0
M  V30 7336 H 697.214 2.16776 3.26727 0
M  V30 7337 H 698.704 1.4272 3.92455 0
M  V30 7338 N 699.141 -0.881989 1.30609 0
M  V30 7339 C 700.387 -1.63647 1.19781 0
M  V30 7340 C 700.72 -1.92632 -0.246265 0
M  V30 7341 O 699.995 -1.54938 -1.17577 0
M  V30 7342 C 700.278 -2.97437 2.02985 0
M  V30 7343 C 700.131 -2.75406 3.55628 0
M  V30 7344 C 701.45 -3.98397 1.86997 0
M  V30 7345 H 698.569 -0.593841 0.436488 0
M  V30 7346 H 701.211 -1.02041 1.60273 0
M  V30 7347 H 699.361 -3.50018 1.68581 0
M  V30 7348 H 701.033 -2.2959 4.00107 0
M  V30 7349 H 699.276 -2.09856 3.79662 0
M  V30 7350 H 699.947 -3.70552 4.09139 0
M  V30 7351 H 702.423 -3.54986 2.17081 0
M  V30 7352 H 701.299 -4.89916 2.47536 0
M  V30 7353 H 701.56 -4.3424 0.829943 0
M  V30 7354 N 700.619 -1.13374 -1.09472 0
M  V30 7355 C 701.529 -0.824029 -2.19652 0
M  V30 7356 C 702.545 0.19118 -1.72947 0
M  V30 7357 O 703.721 0.0223464 -2.01388 0
M  V30 7358 C 700.786 -0.294009 -3.45451 0
M  V30 7359 C 699.847 -1.3704 -4.0684 0
M  V30 7360 C 699.08 -0.86558 -5.26634 0
M  V30 7361 O 699.303 0.29702 -5.69626 0
M  V30 7362 O 698.237 -1.63968 -5.79136 0
M  V30 7363 H 702.063 -1.74454 -2.48595 0
M  V30 7364 H 699.648 -0.911155 -1.18399 0
M  V30 7365 H 701.53 -0.00381039 -4.214 0
M  V30 7366 H 700.205 0.598921 -3.18111 0
M  V30 7367 H 699.112 -1.71391 -3.3253 0
M  V30 7368 H 700.445 -2.23746 -4.38405 0
M  V30 7369 N 702.098 1.27442 -0.927168 0
M  V30 7370 C 703.028 2.29256 -0.443188 0
M  V30 7371 C 704.009 1.62701 0.49624 0
M  V30 7372 O 705.194 1.90013 0.401105 0
M  V30 7373 C 702.324 3.45955 0.305366 0
M  V30 7374 C 701.278 4.24501 -0.546178 0
M  V30 7375 C 700.604 5.33671 0.331512 0
M  V30 7376 C 701.904 4.89921 -1.81037 0
M  V30 7377 H 703.598 2.69988 -1.29409 0
M  V30 7378 H 701.144 1.29792 -0.623705 0
M  V30 7379 H 703.097 4.1628 0.654885 0
M  V30 7380 H 701.821 3.04138 1.19029 0
M  V30 7381 H 700.48 3.55921 -0.878398 0
M  V30 7382 H 700.128 4.88096 1.21537 0
M  V30 7383 H 699.828 5.87131 -0.234746 0
M  V30 7384 H 701.352 6.0684 0.676614 0
M  V30 7385 H 702.766 5.52536 -1.52895 0
M  V30 7386 H 701.163 5.53436 -2.32009 0
M  V30 7387 H 702.233 4.13652 -2.53021 0
M  V30 7388 N 703.576 0.692616 1.41565 0
M  V30 7389 C 704.822 0.222664 2.01574 0
M  V30 7390 C 705.155 -1.1737 1.54719 0
M  V30 7391 O 704.43 -1.79161 0.757084 0
M  V30 7392 C 704.713 0.277064 3.59033 0
M  V30 7393 C 704.566 1.71016 4.16021 0
M  V30 7394 C 705.885 -0.36479 4.38586 0
M  V30 7395 H 703.004 0.0823839 0.732381 0
M  V30 7396 H 705.646 0.880778 1.68352 0
M  V30 7397 H 703.796 -0.283288 3.87466 0
M  V30 7398 H 705.468 2.32413 3.98475 0
M  V30 7399 H 703.711 2.24525 3.71175 0
M  V30 7400 H 704.382 1.69978 5.25178 0
M  V30 7401 H 706.858 0.112404 4.15948 0
M  V30 7402 H 705.734 -0.296169 5.481 0
M  V30 7403 H 705.995 -1.44506 4.17816 0
M  V30 7404 N 705.054 -1.51416 0.437162 0
M  V30 7405 C 706.47 -1.59349 0.0894459 0
M  V30 7406 C 706.67 -1.44809 -1.40116 0
M  V30 7407 O 705.726 -1.28924 -2.17106 0
M  V30 7408 C 707.039 -2.9446 0.609398 0
M  V30 7409 C 708.587 -3.07769 0.569824 0
M  V30 7410 C 709.062 -4.45404 1.06675 0
M  V30 7411 N 710.553 -4.51723 1.02473 0
M  V30 7412 C 711.288 -5.56544 1.3801 0
M  V30 7413 N 710.784 -6.68784 1.80831 0
M  V30 7414 N 712.577 -5.46901 1.29828 0
M  V30 7415 H 704.728 -1.59112 1.40703 0
M  V30 7416 H 706.991 -0.750031 0.579791 0
M  V30 7417 H 706.697 -3.1047 1.65231 0
M  V30 7418 H 706.571 -3.77184 0.0342236 0
M  V30 7419 H 708.958 -2.91428 -0.464107 0
M  V30 7420 H 709.039 -2.26885 1.1814 0
M  V30 7421 H 708.683 -4.62492 2.09914 0
M  V30 7422 H 708.613 -5.24827 0.431712 0
M  V30 7423 H 711.104 -3.71165 0.710258 0
M  V30 7424 H 711.417 -7.44787 2.06185 0
M  V30 7425 H 709.762 -6.69992 1.84757 0
M  V30 7426 H 712.953 -4.581 0.962397 0
M  V30 7427 H 713.126 -6.2848 1.57851 0
M  V30 7428 N 706.532 -0.168513 -1.56696 0
M  V30 7429 C 707.76 0.483503 -2.01171 0
M  V30 7430 C 708.175 1.56994 -1.04872 0
M  V30 7431 O 707.532 1.82434 -0.0491337 0
M  V30 7432 C 707.583 1.0644 -3.45475 0
M  V30 7433 O 707.304 0.0213375 -4.38095 0
M  V30 7434 C 708.805 1.79493 -4.05336 0
M  V30 7435 H 706.025 0.124002 -0.659443 0
M  V30 7436 H 708.569 -0.269419 -2.02717 0
M  V30 7437 H 706.724 1.76784 -3.44712 0
M  V30 7438 H 707.138 0.449837 -5.22567 0
M  V30 7439 H 708.612 2.15401 -5.08238 0
M  V30 7440 H 709.089 2.68889 -3.47269 0
M  V30 7441 H 709.695 1.13798 -4.09793 0
M  V30 7442 N 708.01 1.57248 0.105221 0
M  V30 7443 C 708.973 2.00388 1.11252 0
M  V30 7444 C 709.973 0.89594 1.33527 0
M  V30 7445 O 711.163 1.16166 1.29811 0
M  V30 7446 C 708.295 2.35589 2.46395 0
M  V30 7447 H 709.488 2.90591 0.741424 0
M  V30 7448 H 707.041 1.52332 0.349956 0
M  V30 7449 H 707.776 1.4831 2.884 0
M  V30 7450 H 707.561 3.16408 2.31578 0
M  V30 7451 H 709.051 2.69658 3.18864 0
M  V30 7452 N 709.488 -0.375779 1.53054 0
M  V30 7453 C 710.904 -0.716764 1.426 0
M  V30 7454 C 711.104 -1.93651 0.556931 0
M  V30 7455 O 710.16 -2.52475 0.0354461 0
M  V30 7456 C 711.473 -0.939499 2.85646 0
M  V30 7457 C 713.021 -1.04015 2.95212 0
M  V30 7458 C 713.496 -1.29543 4.39298 0
M  V30 7459 N 714.987 -1.36335 4.42682 0
M  V30 7460 C 715.722 -1.57778 5.51266 0
M  V30 7461 N 715.218 -1.76604 6.69913 0
M  V30 7462 N 717.011 -1.60065 5.38828 0
M  V30 7463 H 709.162 0.42664 2.08071 0
M  V30 7464 H 711.425 0.128758 0.939215 0
M  V30 7465 H 711.131 -0.115189 3.51511 0
M  V30 7466 H 711.005 -1.85048 3.2869 0
M  V30 7467 H 713.392 -1.85501 2.29507 0
M  V30 7468 H 713.473 -0.106785 2.55577 0
M  V30 7469 H 713.117 -0.485611 5.05573 0
M  V30 7470 H 713.047 -2.24184 4.76497 0
M  V30 7471 H 715.538 -1.23441 3.5717 0
M  V30 7472 H 715.851 -1.9251 7.48438 0
M  V30 7473 H 714.196 -1.73802 6.72917 0
M  V30 7474 H 717.387 -1.44917 4.45103 0
M  V30 7475 H 717.56 -1.76435 6.23518 0
M  V30 7476 N 710.966 -1.44241 -0.634997 0
M  V30 7477 C 712.212 -1.48033 -1.39492 0
M  V30 7478 C 712.567 -0.109791 -1.92086 0
M  V30 7479 O 711.86 0.874394 -1.70484 0
M  V30 7480 C 712.054 -2.47279 -2.58046 0
M  V30 7481 C 711.883 -3.93848 -2.17057 0
M  V30 7482 C 710.653 -4.62061 -2.04518 0
M  V30 7483 C 712.851 -4.83172 -1.76208 0
M  V30 7484 N 710.833 -5.93471 -1.57051 0
M  V30 7485 C 712.204 -6.03996 -1.39958 0
M  V30 7486 C 714.259 -4.70271 -1.63554 0
M  V30 7487 C 712.962 -7.13351 -0.923196 0
M  V30 7488 C 714.988 -5.79646 -1.1732 0
M  V30 7489 C 714.35 -6.99609 -0.820181 0
M  V30 7490 H 710.449 -0.596743 -0.505392 0
M  V30 7491 H 713.033 -1.80542 -0.72887 0
M  V30 7492 H 711.204 -2.16766 -3.22284 0
M  V30 7493 H 712.936 -2.41391 -3.24827 0
M  V30 7494 H 709.691 -4.1682 -2.24851 0
M  V30 7495 H 710.115 -6.63275 -1.35628 0
M  V30 7496 H 714.757 -3.77964 -1.8948 0
M  V30 7497 H 712.475 -8.0547 -0.651441 0
M  V30 7498 H 716.061 -5.71689 -1.07993 0
M  V30 7499 H 714.941 -7.82803 -0.467901 0
M  V30 7500 N 712.444 0.87505 -1.31075 0
M  V30 7501 C 713.354 2.01441 -1.20244 0
M  V30 7502 C 714.37 1.73584 -0.120227 0
M  V30 7503 O 715.546 1.98559 -0.337063 0
M  V30 7504 C 712.611 3.34675 -0.905199 0
M  V30 7505 C 711.672 3.75889 -2.0738 0
M  V30 7506 C 710.905 5.02764 -1.79064 0
M  V30 7507 O 711.128 5.65795 -0.723318 0
M  V30 7508 O 710.062 5.40623 -2.64594 0
M  V30 7509 H 713.888 2.13509 -2.1598 0
M  V30 7510 H 711.473 1.00257 -1.10765 0
M  V30 7511 H 713.355 4.1458 -0.755057 0
M  V30 7512 H 712.03 3.23692 0.0221695 0
M  V30 7513 H 710.937 2.96645 -2.27931 0
M  V30 7514 H 712.27 3.91489 -2.98324 0
M  V30 7515 N 713.922 1.13953 1.08869 0
M  V30 7516 C 714.852 0.844824 2.17681 0
M  V30 7517 C 715.833 -0.198213 1.68941 0
M  V30 7518 O 717.018 -0.0559073 1.9412 0
M  V30 7519 C 714.148 0.316325 3.45856 0
M  V30 7520 C 713.102 1.29426 4.07962 0
M  V30 7521 C 712.428 0.625275 5.31031 0
M  V30 7522 C 713.728 2.65484 4.49795 0
M  V30 7523 H 715.422 1.75471 2.42591 0
M  V30 7524 H 712.968 0.845116 1.16592 0
M  V30 7525 H 714.921 0.0977876 4.21287 0
M  V30 7526 H 713.645 -0.628972 3.20486 0
M  V30 7527 H 712.304 1.49889 3.34558 0
M  V30 7528 H 711.952 -0.325678 5.01945 0
M  V30 7529 H 711.652 1.27777 5.73539 0
M  V30 7530 H 713.176 0.416152 6.0918 0
M  V30 7531 H 714.59 2.48957 5.16424 0
M  V30 7532 H 712.987 3.26963 5.03205 0
M  V30 7533 H 714.057 3.22717 3.61914 0
M  V30 7534 N 715.4 -1.26948 0.933913 0
M  V30 7535 C 716.363 -2.24889 0.442457 0
M  V30 7536 C 717.363 -1.54594 -0.442426 0
M  V30 7537 O 718.553 -1.72502 -0.242629 0
M  V30 7538 C 715.685 -3.3896 -0.363173 0
M  V30 7539 H 716.878 -2.69879 1.30787 0
M  V30 7540 H 714.431 -1.38978 0.715187 0
M  V30 7541 H 715.166 -2.99361 -1.24714 0
M  V30 7542 H 714.951 -3.9116 0.271366 0
M  V30 7543 H 716.441 -4.11739 -0.697186 0
M  V30 7544 N 716.879 -0.700114 -1.41195 0
M  V30 7545 C 718.107 -0.242179 -2.05478 0
M  V30 7546 C 718.522 1.11029 -1.52702 0
M  V30 7547 O 717.879 1.69473 -0.677127 0
M  V30 7548 C 717.93 -0.196271 -3.60967 0
M  V30 7549 O 717.651 -1.49532 -4.11791 0
M  V30 7550 C 719.152 0.282102 -4.42401 0
M  V30 7551 H 716.372 -0.111749 -0.661629 0
M  V30 7552 H 718.916 -0.953975 -1.80885 0
M  V30 7553 H 717.071 0.46638 -3.84582 0
M  V30 7554 H 717.485 -1.38545 -5.05871 0
M  V30 7555 H 718.959 0.263093 -5.51373 0
M  V30 7556 H 719.436 1.32174 -4.1884 0
M  V30 7557 H 720.042 -0.349712 -4.2386 0
M  V30 7558 N 718.357 1.51182 -0.445186 0
M  V30 7559 C 719.768 1.86693 0.0160999 0
M  V30 7560 C 720.119 1.36183 1.4124 0
M  V30 7561 O 719.244 0.715895 2.04215 0
M  V30 7562 C 719.839 3.38781 0.0359918 0
M  V30 7563 C 718.398 3.73799 0.441715 0
M  V30 7564 C 717.545 2.74947 -0.360511 0
M  V30 7565 H 720.496 1.44294 -0.660674 0
M  V30 7566 H 720.517 3.71026 0.843813 0
M  V30 7567 H 720.029 3.75513 -0.980378 0
M  V30 7568 H 718.13 3.42659 1.4634 0
M  V30 7569 H 718.243 4.78829 0.16106 0
M  V30 7570 H 716.607 2.54047 0.182269 0
M  V30 7571 H 717.39 3.14521 -1.3759 0
M  V30 7572 N 719.835 0.176821 1.56605 0
M  V30 7573 C 720.798 -0.737429 2.17013 0
M  V30 7574 C 721.798 -1.15414 1.11965 0
M  V30 7575 O 722.988 -1.0702 1.37449 0
M  V30 7576 C 720.12 -2.00445 2.75744 0
M  V30 7577 H 721.313 -0.211455 2.99154 0
M  V30 7578 H 718.866 -0.0727582 1.56131 0
M  V30 7579 H 719.601 -2.57338 1.97352 0
M  V30 7580 H 719.386 -1.71456 3.52626 0
M  V30 7581 H 720.876 -2.65679 3.22187 0
M  V30 7582 N 721.313 -1.57302 -0.09688 0
M  V30 7583 C 722.56 -1.85997 -0.800699 0
M  V30 7584 C 722.888 -0.765089 -1.7882 0
M  V30 7585 O 722.143 0.241492 -1.94204 0
M  V30 7586 C 722.442 -3.21272 -1.56586 0
M  V30 7587 C 722.108 -4.45104 -0.72064 0
M  V30 7588 C 720.77 -4.78723 -0.487632 0
M  V30 7589 C 723.122 -5.2103 -0.132948 0
M  V30 7590 C 720.45 -5.85697 0.34296 0
M  V30 7591 C 722.802 -6.28881 0.684957 0
M  V30 7592 C 721.466 -6.61017 0.928073 0
M  V30 7593 H 720.736 -0.680613 -0.292997 0
M  V30 7594 H 723.383 -1.91399 -0.0622474 0
M  V30 7595 H 721.688 -3.11547 -2.37583 0
M  V30 7596 H 723.385 -3.40702 -2.11478 0
M  V30 7597 H 719.975 -4.18777 -0.912359 0
M  V30 7598 H 724.159 -4.95392 -0.300132 0
M  V30 7599 H 719.415 -6.09008 0.540317 0
M  V30 7600 H 723.589 -6.86886 1.14721 0
M  V30 7601 H 721.216 -7.43738 1.57348 0
M  V30 7602 N 722.791 0.367657 -1.53252 0
M  V30 7603 C 724.202 0.944563 -1.61043 0
M  V30 7604 C 724.553 1.90325 -0.476546 0
M  V30 7605 O 723.678 2.12721 0.397333 0
M  V30 7606 C 724.273 1.71992 -2.91898 0
M  V30 7607 C 722.832 2.2462 -3.02031 0
M  V30 7608 C 721.979 1.05799 -2.56324 0
M  V30 7609 H 724.93 0.146516 -1.58022 0
M  V30 7610 H 724.951 2.58095 -2.79584 0
M  V30 7611 H 724.463 1.02192 -3.74404 0
M  V30 7612 H 722.564 2.97668 -2.24108 0
M  V30 7613 H 722.677 2.52644 -4.07073 0
M  V30 7614 H 721.041 1.42435 -2.1115 0
M  V30 7615 H 721.824 0.375008 -3.41246 0
M  V30 7616 N 724.269 1.44576 0.627338 0
M  V30 7617 C 725.232 1.51372 1.72102 0
M  V30 7618 C 726.232 0.395329 1.55865 0
M  V30 7619 O 727.422 0.658094 1.61291 0
M  V30 7620 C 724.554 1.39129 3.11217 0
M  V30 7621 H 725.747 2.48798 1.6745 0
M  V30 7622 H 723.3 1.31724 0.841336 0
M  V30 7623 H 724.035 0.428114 3.21462 0
M  V30 7624 H 723.82 2.20229 3.24409 0
M  V30 7625 H 725.31 1.46874 3.90919 0
M  V30 7626 N 725.747 -0.868086 1.31537 0
M  V30 7627 C 726.68 -1.97871 1.13676 0
M  V30 7628 C 727.658 -1.62551 0.0397589 0
M  V30 7629 O 728.842 -1.87473 0.196539 0
M  V30 7630 C 725.969 -3.30577 0.73734 0
M  V30 7631 C 725.015 -3.8488 1.83765 0
M  V30 7632 S 725.848 -4.10106 3.44345 0
M  V30 7633 C 727.004 -5.45806 3.06344 0
M  V30 7634 H 727.237 -2.12719 2.07697 0
M  V30 7635 H 724.77 -1.01849 1.16044 0
M  V30 7636 H 726.728 -4.07274 0.513641 0
M  V30 7637 H 725.389 -3.13562 -0.183787 0
M  V30 7638 H 724.582 -4.80821 1.51085 0
M  V30 7639 H 724.184 -3.14981 2.01651 0
M  V30 7640 H 726.476 -6.27535 2.55354 0
M  V30 7641 H 727.419 -5.83437 4.01257 0
M  V30 7642 H 727.827 -5.0917 2.43734 0
M  V30 7643 N 727.225 -1.14528 -1.08264 0
M  V30 7644 C 728.157 -0.791325 -2.15106 0
M  V30 7645 C 729.17 0.192449 -1.61659 0
M  V30 7646 O 730.359 -0.0294704 -1.78476 0
M  V30 7647 C 727.459 -0.154183 -3.38549 0
M  V30 7648 C 726.632 -1.17305 -4.21377 0
M  V30 7649 C 725.691 -0.559401 -5.23218 0
M  V30 7650 O 724.717 -1.22277 -5.55911 0
M  V30 7651 N 725.919 0.663159 -5.767 0
M  V30 7652 H 728.684 -1.71076 -2.46075 0
M  V30 7653 H 726.245 -1.0399 -1.24087 0
M  V30 7654 H 728.237 0.268884 -4.03806 0
M  V30 7655 H 726.807 0.668418 -3.0537 0
M  V30 7656 H 726.027 -1.773 -3.52077 0
M  V30 7657 H 727.315 -1.86128 -4.73533 0
M  V30 7658 H 726.713 1.22066 -5.52373 0
M  V30 7659 H 725.27 1.02871 -6.43631 0
M  V30 7660 N 728.703 1.26451 -0.940633 0
M  V30 7661 C 729.931 1.97868 -0.604642 0
M  V30 7662 C 730.346 1.70051 0.820251 0
M  V30 7663 O 729.703 0.96843 1.54686 0
M  V30 7664 C 729.754 3.51684 -0.836689 0
M  V30 7665 O 729.475 3.78533 -2.20554 0
M  V30 7666 C 730.976 4.40343 -0.511169 0
M  V30 7667 H 728.196 0.631105 -0.227919 0
M  V30 7668 H 730.74 1.60979 -1.26119 0
M  V30 7669 H 728.895 3.86736 -0.226759 0
M  V30 7670 H 729.309 4.73065 -2.26517 0
M  V30 7671 H 730.783 5.47229 -0.724157 0
M  V30 7672 H 731.26 4.35694 0.553815 0
M  V30 7673 H 731.866 4.10834 -1.0998 0
M  V30 7674 N 730.181 0.707592 1.40822 0
M  V30 7675 C 731.427 0.244031 2.01326 0
M  V30 7676 C 731.76 -1.15722 1.55955 0
M  V30 7677 O 731.035 -1.78347 0.776044 0
M  V30 7678 C 731.318 0.315128 3.58718 0
M  V30 7679 C 731.171 1.75419 4.14184 0
M  V30 7680 C 732.49 -0.318251 4.38948 0
M  V30 7681 H 729.609 0.0901471 0.731466 0
M  V30 7682 H 732.251 0.898584 1.67408 0
M  V30 7683 H 730.401 -0.242176 3.87744 0
M  V30 7684 H 732.073 2.36626 3.95987 0
M  V30 7685 H 730.316 2.28449 3.68773 0
M  V30 7686 H 730.987 1.75538 5.23345 0
M  V30 7687 H 733.463 0.156514 4.15806 0
M  V30 7688 H 732.339 -0.238019 5.48384 0
M  V30 7689 H 732.6 -1.40067 4.19325 0
M  V30 7690 N 731.66 -1.50943 0.453197 0
M  V30 7691 C 733.071 -1.86699 -0.00619892 0
M  V30 7692 C 733.422 -1.3693 -1.40515 0
M  V30 7693 O 732.547 -0.726715 -2.03833 0
M  V30 7694 C 733.142 -3.38795 -0.018025 0
M  V30 7695 C 731.701 -3.74028 -0.421885 0
M  V30 7696 C 730.848 -2.74752 0.375087 0
M  V30 7697 H 733.799 -1.43942 0.668317 0
M  V30 7698 H 733.82 -3.71468 -0.824125 0
M  V30 7699 H 733.332 -3.74988 1.00028 0
M  V30 7700 H 731.433 -3.43431 -1.44521 0
M  V30 7701 H 731.546 -4.78908 -0.135664 0
M  V30 7702 H 729.91 -2.5414 -0.168794 0
M  V30 7703 H 730.693 -3.13787 1.39256 0
M  V30 7704 N 733.138 -0.185124 -1.56509 0
M  V30 7705 C 734.387 0.456421 -1.96468 0
M  V30 7706 C 734.7 1.63448 -1.07444 0
M  V30 7707 O 735.906 2.34316 -1.37143 0
M  V30 7708 C 734.362 0.863404 -3.4939 0
M  V30 7709 C 733.97 -0.289815 -4.47062 0
M  V30 7710 C 735.714 1.47259 -3.98139 0
M  V30 7711 C 733.621 0.137571 -5.9124 0
M  V30 7712 H 732.551 0.17429 -0.733579 0
M  V30 7713 H 735.202 -0.275554 -1.81419 0
M  V30 7714 H 733.584 1.65176 -3.59907 0
M  V30 7715 H 734.758 -1.06728 -4.4827 0
M  V30 7716 H 733.073 -0.809851 -4.08449 0
M  V30 7717 H 735.67 1.80463 -5.03326 0
M  V30 7718 H 736.013 2.3755 -3.41871 0
M  V30 7719 H 736.546 0.748405 -3.90696 0
M  V30 7720 H 733.285 -0.730907 -6.51412 0
M  V30 7721 H 732.805 0.8801 -5.93308 0
M  V30 7722 H 734.484 0.576771 -6.44424 0
M  V30 7723 N 734.616 1.57351 0.0885366 0
M  V30 7724 C 735.862 1.86696 0.791996 0
M  V30 7725 C 736.195 0.775148 1.78059 0
M  V30 7726 O 735.47 -0.216247 1.93294 0
M  V30 7727 C 735.753 3.26684 1.51491 0
M  V30 7728 C 735.606 4.465 0.543858 0
M  V30 7729 C 736.925 3.64664 2.46391 0
M  V30 7730 H 734.044 0.679049 0.286463 0
M  V30 7731 H 736.686 1.89919 0.0554866 0
M  V30 7732 H 734.836 3.24067 2.14273 0
M  V30 7733 H 736.508 4.61235 -0.0774597 0
M  V30 7734 H 734.751 4.33567 -0.142228 0
M  V30 7735 H 735.422 5.41192 1.08696 0
M  V30 7736 H 737.898 3.68267 1.93698 0
M  V30 7737 H 736.774 4.63534 2.93986 0
M  V30 7738 H 737.035 2.93698 3.30445 0
M  V30 7739 N 736.094 -0.359525 1.53444 0
M  V30 7740 C 737.044 -1.441 1.7669 0
M  V30 7741 C 738.028 -1.48408 0.621599 0
M  V30 7742 O 739.22 -1.53547 0.880468 0
M  V30 7743 C 736.349 -2.81455 1.96566 0
M  V30 7744 C 735.435 -2.81601 3.17115 0
M  V30 7745 N 735.826 -2.51388 4.38905 0
M  V30 7746 C 734.124 -3.12758 3.1796 0
M  V30 7747 C 734.825 -2.59365 5.20677 0
M  V30 7748 N 733.801 -2.94328 4.57025 0
M  V30 7749 H 737.603 -1.19613 2.68458 0
M  V30 7750 H 735.117 -0.567761 1.52152 0
M  V30 7751 H 737.114 -3.59357 2.11348 0
M  V30 7752 H 735.774 -3.06901 1.06029 0
M  V30 7753 H 736.785 -2.24873 4.66533 0
M  V30 7754 H 733.462 -3.43479 2.37336 0
M  V30 7755 H 734.852 -2.39301 6.27841 0
M  V30 7756 N 737.572 -1.44907 -0.619662 0
M  V30 7757 C 738.983 -1.42905 -1.20146 0
M  V30 7758 C 739.334 -0.150341 -1.95623 0
M  V30 7759 O 738.459 0.748732 -2.03034 0
M  V30 7760 C 739.054 -2.58889 -2.18545 0
M  V30 7761 C 737.613 -2.60046 -2.72127 0
M  V30 7762 C 736.76 -2.3493 -1.4732 0
M  V30 7763 H 739.711 -1.53321 -0.409666 0
M  V30 7764 H 739.732 -2.32298 -3.0136 0
M  V30 7765 H 739.244 -3.51941 -1.63583 0
M  V30 7766 H 737.345 -1.70968 -3.3106 0
M  V30 7767 H 737.458 -3.58893 -3.17384 0
M  V30 7768 H 735.822 -1.84248 -1.75855 0
M  V30 7769 H 736.605 -3.3011 -0.942442 0
M  V30 7770 N 739.05 0.861098 -1.31996 0
M  V30 7771 C 740.296 1.61721 -1.22369 0
M  V30 7772 C 740.629 1.93 0.215587 0
M  V30 7773 O 739.904 1.56789 1.15098 0
M  V30 7774 C 740.187 2.9417 -2.07691 0
M  V30 7775 C 740.04 2.69714 -3.59965 0
M  V30 7776 C 741.359 3.95372 -1.93312 0
M  V30 7777 H 738.478 0.586822 -0.44588 0
M  V30 7778 H 741.12 0.994788 -1.61876 0
M  V30 7779 H 739.27 3.47292 -1.74128 0
M  V30 7780 H 740.942 2.23196 -4.03709 0
M  V30 7781 H 739.185 2.03789 -3.82952 0
M  V30 7782 H 739.856 3.63996 -4.14983 0
M  V30 7783 H 742.332 3.51487 -2.22701 0
M  V30 7784 H 741.208 4.85916 -2.55298 0
M  V30 7785 H 741.469 4.32865 -0.898922 0
M  V30 7786 N 740.528 1.15101 1.07655 0
M  V30 7787 C 741.805 0.834578 1.76902 0
M  V30 7788 C 742.185 -0.670431 2.00171 0
M  V30 7789 O 741.533 -1.61378 1.6177 0
M  V30 7790 C 741.743 1.64191 3.07965 0
M  V30 7791 C 743.091 1.84615 3.82364 0
M  V30 7792 O 744.115 1.60941 3.17768 0
M  V30 7793 O 742.974 2.24244 4.98374 0
M  V30 7794 H 740.068 0.306608 0.768063 0
M  V30 7795 H 742.614 1.25663 1.14048 0
M  V30 7796 H 741.386 2.66386 2.86626 0
M  V30 7797 H 741.009 1.216 3.78549 0
M  V30 7798 N 742.006 -1.2595 0.947325 0
M  V30 7799 C 743.254 -1.93081 0.596996 0
M  V30 7800 C 743.575 -1.74632 -0.867672 0
M  V30 7801 O 742.845 -1.1056 -1.6172 0
M  V30 7802 H 741.425 -0.714542 0.217805 0
M  V30 7803 H 744.087 -1.53265 1.20398 0
M  V30 7804 H 743.183 -3.01134 0.82004 0
M  V30 7805 N 743.484 -0.715051 -1.40445 0
M  V30 7806 C 744.414 -0.0768699 -2.33373 0
M  V30 7807 C 745.395 0.746109 -1.52863 0
M  V30 7808 O 746.58 0.695142 -1.81332 0
M  V30 7809 C 743.71 0.846014 -3.36838 0
M  V30 7810 C 742.664 0.128694 -4.27806 0
M  V30 7811 C 741.99 1.16726 -5.21804 0
M  V30 7812 C 743.29 -1.01679 -5.12307 0
M  V30 7813 H 744.984 -0.853061 -2.8699 0
M  V30 7814 H 742.53 -0.41167 -1.3799 0
M  V30 7815 H 744.483 1.30185 -4.00786 0
M  V30 7816 H 743.207 1.6541 -2.81615 0
M  V30 7817 H 741.866 -0.307314 -3.6531 0
M  V30 7818 H 741.514 1.96838 -4.62887 0
M  V30 7819 H 741.214 0.692188 -5.83509 0
M  V30 7820 H 742.738 1.62321 -5.88629 0
M  V30 7821 H 744.152 -0.640337 -5.69713 0
M  V30 7822 H 742.549 -1.4202 -5.83053 0
M  V30 7823 H 743.619 -1.84769 -4.48317 0
M  V30 7824 N 744.962 1.50701 -0.461195 0
M  V30 7825 C 746.378 1.59187 -0.114786 0
M  V30 7826 C 746.578 1.4702 1.37794 0
M  V30 7827 O 745.634 1.32361 2.15027 0
M  V30 7828 C 746.947 2.93453 -0.656167 0
M  V30 7829 C 748.495 3.06824 -0.618715 0
M  V30 7830 C 748.97 4.4365 -1.13747 0
M  V30 7831 N 750.461 4.50035 -1.09646 0
M  V30 7832 C 751.196 5.54278 -1.46846 0
M  V30 7833 N 750.692 6.65822 -1.91448 0
M  V30 7834 N 752.485 5.44767 -1.38512 0
M  V30 7835 H 744.636 1.56853 -1.43216 0
M  V30 7836 H 746.899 0.740712 -0.59165 0
M  V30 7837 H 746.605 3.07802 -1.7015 0
M  V30 7838 H 746.479 3.77082 -0.0942261 0
M  V30 7839 H 748.866 2.92129 0.417685 0
M  V30 7840 H 748.947 2.24976 -1.21734 0
M  V30 7841 H 748.591 4.59093 -2.17245 0
M  V30 7842 H 748.521 5.24074 -0.515153 0
M  V30 7843 H 751.012 3.69988 -0.769217 0
M  V30 7844 H 751.325 7.41413 -2.18007 0
M  V30 7845 H 749.67 6.66968 -1.95393 0
M  V30 7846 H 752.861 4.56511 -1.03516 0
M  V30 7847 H 753.034 6.25889 -1.6783 0
M  V30 7848 N 746.441 0.193421 1.56409 0
M  V30 7849 C 747.371 -0.723334 2.22014 0
M  V30 7850 C 748.352 -1.22254 1.1827 0
M  V30 7851 O 749.537 -1.27168 1.46771 0
M  V30 7852 C 746.667 -1.94366 2.87818 0
M  V30 7853 C 745.621 -1.57943 3.97791 0
M  V30 7854 C 744.947 -2.87623 4.50752 0
M  V30 7855 C 746.247 -0.790639 5.16281 0
M  V30 7856 H 747.941 -0.176426 2.9888 0
M  V30 7857 H 745.487 -0.0834166 1.43758 0
M  V30 7858 H 747.44 -2.5902 3.32396 0
M  V30 7859 H 746.164 -2.51507 2.08355 0
M  V30 7860 H 744.823 -0.956482 3.53903 0
M  V30 7861 H 744.471 -3.4285 3.68053 0
M  V30 7862 H 744.171 -2.63998 5.24956 0
M  V30 7863 H 745.695 -3.53268 4.9803 0
M  V30 7864 H 747.109 -1.34024 5.57414 0
M  V30 7865 H 745.506 -0.65258 5.96541 0
M  V30 7866 H 746.576 0.208633 4.84451 0
M  V30 7867 N 747.919 -1.57396 -0.0801906 0
M  V30 7868 C 749.166 -1.86836 -0.780927 0
M  V30 7869 C 749.494 -0.784012 -1.77999 0
M  V30 7870 O 748.749 0.220881 -1.94449 0
M  V30 7871 C 749.048 -3.22915 -1.53169 0
M  V30 7872 C 748.714 -4.45843 -0.67339 0
M  V30 7873 C 747.376 -4.79213 -0.436829 0
M  V30 7874 C 749.728 -5.21142 -0.0776786 0
M  V30 7875 C 747.056 -5.853 0.405062 0
M  V30 7876 C 749.408 -6.28119 0.751619 0
M  V30 7877 C 748.072 -6.59995 0.998131 0
M  V30 7878 H 747.342 -0.683682 -0.285761 0
M  V30 7879 H 749.989 -1.91454 -0.0419435 0
M  V30 7880 H 748.294 -3.14049 -2.34265 0
M  V30 7881 H 749.991 -3.42926 -2.07853 0
M  V30 7882 H 746.581 -4.19721 -0.867891 0
M  V30 7883 H 750.765 -4.95682 -0.247572 0
M  V30 7884 H 746.021 -6.084 0.60488 0
M  V30 7885 H 750.195 -6.8563 1.22 0
M  V30 7886 H 747.822 -7.42027 1.65227 0
M  V30 7887 N 749.397 0.351382 -1.53633 0
M  V30 7888 C 750.644 1.0925 -1.70502 0
M  V30 7889 C 750.972 1.88881 -0.464123 0
M  V30 7890 O 750.227 1.87693 0.554077 0
M  V30 7891 C 750.526 2.06744 -2.91533 0
M  V30 7892 C 750.192 1.43484 -4.27461 0
M  V30 7893 C 748.854 1.2596 -4.64422 0
M  V30 7894 C 751.206 0.978436 -5.11934 0
M  V30 7895 C 748.534 0.614017 -5.83478 0
M  V30 7896 C 750.886 0.346795 -6.31649 0
M  V30 7897 C 749.55 0.15917 -6.6731 0
M  V30 7898 H 748.82 0.399773 -0.623909 0
M  V30 7899 H 751.467 0.372656 -1.87839 0
M  V30 7900 H 749.772 2.85082 -2.68767 0
M  V30 7901 H 751.469 2.64066 -3.01778 0
M  V30 7902 H 748.059 1.5812 -3.98367 0
M  V30 7903 H 752.243 1.1017 -4.83918 0
M  V30 7904 H 747.499 0.457194 -6.09688 0
M  V30 7905 H 751.673 -0.0149864 -6.96398 0
M  V30 7906 H 749.3 -0.343129 -7.59425 0
M  V30 7907 N 750.875 1.45233 0.611969 0
M  V30 7908 C 751.825 1.49997 1.71711 0
M  V30 7909 C 752.809 0.363689 1.56736 0
M  V30 7910 O 754.001 0.610261 1.66147 0
M  V30 7911 C 751.13 1.46537 3.10454 0
M  V30 7912 C 750.216 2.65351 3.30831 0
M  V30 7913 N 750.607 3.90485 3.21489 0
M  V30 7914 C 748.905 2.60955 3.61688 0
M  V30 7915 C 749.606 4.69758 3.43078 0
M  V30 7916 N 748.582 4.01141 3.66861 0
M  V30 7917 H 752.384 2.44574 1.62975 0
M  V30 7918 H 749.898 1.40464 0.815082 0
M  V30 7919 H 751.895 1.48035 3.89732 0
M  V30 7920 H 750.555 0.530139 3.20343 0
M  V30 7921 H 751.566 4.22171 2.99987 0
M  V30 7922 H 748.243 1.76319 3.78441 0
M  V30 7923 H 749.633 5.7877 3.41285 0
M  V30 7924 N 752.353 -0.854086 1.3245 0
M  V30 7925 C 753.764 -1.42427 1.20712 0
M  V30 7926 C 754.115 -1.95371 -0.18013 0
M  V30 7927 O 753.24 -1.87587 -1.07889 0
M  V30 7928 C 753.835 -2.58897 2.18536 0
M  V30 7929 C 752.394 -3.11913 2.10683 0
M  V30 7930 C 751.541 -1.84661 2.06871 0
M  V30 7931 H 754.492 -0.661192 1.4427 0
M  V30 7932 H 754.513 -3.36074 1.78422 0
M  V30 7933 H 754.025 -2.20333 3.19492 0
M  V30 7934 H 752.126 -3.55059 1.12977 0
M  V30 7935 H 752.239 -3.73119 3.00532 0
M  V30 7936 H 750.603 -2.04285 1.52118 0
M  V30 7937 H 751.386 -1.48314 3.09609 0
M  V30 7938 N 753.831 -1.1567 -1.07043 0
M  V30 7939 C 754.761 -0.879348 -2.16309 0
M  V30 7940 C 755.742 0.171311 -1.69235 0
M  V30 7941 O 756.927 0.0250175 -1.94184 0
M  V30 7942 C 754.057 -0.371307 -3.45309 0
M  V30 7943 C 753.011 -1.359 -4.05851 0
M  V30 7944 C 752.337 -0.709678 -5.29969 0
M  V30 7945 C 753.637 -2.72606 -4.45514 0
M  V30 7946 H 755.331 -1.79308 -2.39768 0
M  V30 7947 H 752.877 -0.863558 -1.15233 0
M  V30 7948 H 754.83 -0.164798 -4.21078 0
M  V30 7949 H 753.554 0.577906 -3.21446 0
M  V30 7950 H 752.213 -1.55193 -3.32131 0
M  V30 7951 H 751.861 0.245782 -5.02399 0
M  V30 7952 H 751.561 -1.36886 -5.71433 0
M  V30 7953 H 753.085 -0.513015 -6.08441 0
M  V30 7954 H 754.499 -2.57141 -5.12398 0
M  V30 7955 H 752.896 -3.34927 -4.97939 0
M  V30 7956 H 753.966 -3.28434 -3.56734 0
M  V30 7957 N 755.309 1.25446 -0.953992 0
M  V30 7958 C 756.537 1.97215 -0.625595 0
M  V30 7959 C 756.952 1.70911 0.802168 0
M  V30 7960 O 756.309 0.984782 1.5365 0
M  V30 7961 C 756.36 3.50777 -0.873943 0
M  V30 7962 O 756.081 3.76173 -2.24556 0
M  V30 7963 C 757.582 4.39776 -0.557845 0
M  V30 7964 H 754.802 0.628652 -0.2346 0
M  V30 7965 H 757.346 1.59632 -1.27819 0
M  V30 7966 H 755.501 3.86474 -0.267765 0
M  V30 7967 H 755.915 4.70636 -2.31522 0
M  V30 7968 H 757.389 5.46431 -0.782157 0
M  V30 7969 H 757.866 4.36257 0.507573 0
M  V30 7970 H 758.472 4.09644 -1.14332 0
M  V30 7971 N 756.787 0.722489 1.40064 0
M  V30 7972 C 758.198 0.336507 1.83642 0
M  V30 7973 C 758.549 -1.13002 1.6039 0
M  V30 7974 O 757.674 -1.87036 1.08842 0
M  V30 7975 C 758.269 0.603985 3.33373 0
M  V30 7976 C 756.828 0.271637 3.75419 0
M  V30 7977 C 755.975 0.872898 2.63203 0
M  V30 7978 H 758.926 0.921108 1.29233 0
M  V30 7979 H 758.947 -0.128471 3.80283 0
M  V30 7980 H 758.459 1.67141 3.50265 0
M  V30 7981 H 756.56 -0.790455 3.64119 0
M  V30 7982 H 756.673 0.745457 4.73265 0
M  V30 7983 H 755.037 0.300431 2.52922 0
M  V30 7984 H 755.82 1.94473 2.82905 0
M  V30 7985 N 758.265 -1.50454 0.469181 0
M  V30 7986 C 759.49 -2.0722 -0.0864892 0
M  V30 7987 C 759.915 -1.33098 -1.32916 0
M  V30 7988 O 759.273 -0.378084 -1.77314 0
M  V30 7989 C 759.321 -3.58845 -0.355384 0
M  V30 7990 O 758.425 -3.86583 -1.43622 0
M  V30 7991 H 757.766 -0.663889 0.0121414 0
M  V30 7992 H 760.296 -1.93674 0.659674 0
M  V30 7993 H 760.306 -4.03617 -0.596447 0
M  V30 7994 H 758.981 -4.12211 0.552698 0
M  V30 7995 H 757.558 -3.5365 -1.18262 0
M  V30 7996 N 759.743 -0.201713 -1.56304 0
M  V30 7997 C 760.989 0.435952 -1.98059 0
M  V30 7998 C 761.322 1.60811 -1.08873 0
M  V30 7999 O 760.597 1.9398 -0.142128 0
M  V30 8000 C 760.88 0.889706 -3.48936 0
M  V30 8001 C 760.733 -0.284725 -4.48898 0
M  V30 8002 C 762.052 1.7529 -4.03685 0
M  V30 8003 H 759.171 0.15699 -0.720085 0
M  V30 8004 H 761.813 -0.293965 -1.87712 0
M  V30 8005 H 759.963 1.51166 -3.57884 0
M  V30 8006 H 761.635 -0.922531 -4.51981 0
M  V30 8007 H 759.878 -0.935427 -4.23594 0
M  V30 8008 H 760.549 0.0753865 -5.51949 0
M  V30 8009 H 763.025 1.2283 -3.97558 0
M  V30 8010 H 761.901 2.03933 -5.0961 0
M  V30 8011 H 762.162 2.70939 -3.49348 0
M  V30 8012 N 761.222 1.57436 0.0718424 0
M  V30 8013 C 762.185 2.02703 1.06977 0
M  V30 8014 C 763.185 0.924062 1.31597 0
M  V30 8015 O 764.375 1.18894 1.27318 0
M  V30 8016 C 761.507 2.40763 2.41342 0
M  V30 8017 H 762.7 2.92098 0.679619 0
M  V30 8018 H 760.253 1.5304 0.317565 0
M  V30 8019 H 760.988 1.54394 2.8519 0
M  V30 8020 H 760.773 3.21249 2.24814 0
M  V30 8021 H 762.263 2.76361 3.13073 0
M  V30 8022 N 762.7 -0.34323 1.53817 0
M  V30 8023 C 763.948 -1.0813 1.70741 0
M  V30 8024 C 764.269 -1.89165 0.473461 0
M  V30 8025 O 763.539 -1.89075 -0.512605 0
M  V30 8026 H 762.119 -0.40219 0.629486 0
M  V30 8027 H 764.781 -0.384426 1.91071 0
M  V30 8028 H 763.877 -1.7585 2.57843 0
M  V30 8029 N 764.178 -1.45556 -0.604258 0
M  V30 8030 C 765.126 -1.5482 -1.7359 0
M  V30 8031 C 766.12 -0.417966 -1.64163 0
M  V30 8032 O 767.326 -0.594007 -1.69916 0
M  V30 8033 H 763.701 -0.486352 -0.573556 0
M  V30 8034 H 765.672 -2.5001 -1.62903 0
M  V30 8035 C 764.421 -1.53521 -3.11972 0
M  V30 8036 H 763.744 -2.39818 -3.19886 0
M  V30 8037 H 765.184 -1.64061 -3.90973 0
M  V30 8038 C 763.643 -0.260191 -3.35894 0
M  V30 8039 O 764.173 0.658582 -3.96265 0
M  V30 8040 N 762.379 -0.154839 -2.90187 0
M  V30 8041 H 761.926 -0.903378 -2.4124 0
M  V30 8042 H 761.884 0.697437 -3.06567 0
M  V30 8043 N 765.656 0.84705 -1.32902 0
M  V30 8044 C 766.904 1.5986 -1.2365 0
M  V30 8045 C 767.225 1.93974 0.199789 0
M  V30 8046 O 766.495 1.60273 1.12648 0
M  V30 8047 H 765.075 0.592696 -0.454665 0
M  V30 8048 H 767.737 1.01278 -1.66519 0
M  V30 8049 H 766.833 2.53218 -1.82448 0
M  V30 8050 N 767.134 1.16236 1.06428 0
M  V30 8051 C 768.064 0.890807 2.1584 0
M  V30 8052 C 769.045 -0.162333 1.69324 0
M  V30 8053 O 770.23 -0.0147191 1.94194 0
M  V30 8054 C 767.36 0.389615 3.45108 0
M  V30 8055 C 766.314 1.38051 4.05125 0
M  V30 8056 C 765.64 0.737773 5.29586 0
M  V30 8057 C 766.94 2.74965 4.44062 0
M  V30 8058 H 768.634 1.80577 2.38814 0
M  V30 8059 H 766.18 0.869657 1.14774 0
M  V30 8060 H 768.133 0.187127 4.20984 0
M  V30 8061 H 766.857 -0.560851 3.21748 0
M  V30 8062 H 765.516 1.56952 3.31303 0
M  V30 8063 H 765.164 -0.219135 5.02522 0
M  V30 8064 H 764.864 1.39914 5.70699 0
M  V30 8065 H 766.388 0.545275 6.0816 0
M  V30 8066 H 767.802 2.59855 5.11027 0
M  V30 8067 H 766.199 3.37563 4.96156 0
M  V30 8068 H 767.269 3.30321 3.54987 0
M  V30 8069 N 768.612 -1.24939 0.960631 0
M  V30 8070 C 769.852 -1.94565 0.626414 0
M  V30 8071 C 770.216 -1.73505 -0.822184 0
M  V30 8072 O 771.417 -2.37105 -1.26628 0
M  V30 8073 C 769.688 -3.43631 0.982462 0
M  V30 8074 S 771.247 -4.32138 0.761726 0
M  V30 8075 H 768.065 -0.672757 0.230043 0
M  V30 8076 H 770.667 -1.51464 1.23608 0
M  V30 8077 H 769.371 -3.56463 2.03377 0
M  V30 8078 H 768.902 -3.91719 0.363286 0
M  V30 8079 H 770.917 -4.94859 -0.364493 0
M  V30 8080 N 770.09 -0.729906 -1.39679 0
M  V30 8081 C 771.02 -0.101618 -2.33279 0
M  V30 8082 C 772.001 0.729854 -1.53646 0
M  V30 8083 O 773.186 0.67587 -1.82059 0
M  V30 8084 C 770.316 0.81024 -3.37716 0
M  V30 8085 C 769.27 0.0833126 -4.27919 0
M  V30 8086 C 768.596 1.11185 -5.23012 0
M  V30 8087 C 769.896 -1.07107 -5.112 0
M  V30 8088 H 771.59 -0.883452 -2.86069 0
M  V30 8089 H 769.136 -0.426283 -1.37546 0
M  V30 8090 H 771.089 1.25927 -4.02145 0
M  V30 8091 H 769.813 1.62413 -2.83354 0
M  V30 8092 H 768.472 -0.346043 -3.64963 0
M  V30 8093 H 768.12 1.91917 -4.64948 0
M  V30 8094 H 767.82 0.63026 -5.8421 0
M  V30 8095 H 769.344 1.56068 -5.90318 0
M  V30 8096 H 770.758 -0.700726 -5.69002 0
M  V30 8097 H 769.155 -1.48196 -5.81514 0
M  V30 8098 H 770.225 -1.89513 -4.46332 0
M  V30 8099 O 771.607 1.49168 -0.618974 0
M  V30 8100 H 772.298 1.93235 -0.134184 0
M  V30 END ATOM
M  V30 BEGIN BOND
M  V30 END BOND
M  V30 END CTAB
M  END
$$$$
