drugbank_target|Q15155 Nodal modulator 1 (DB00277)
 OpenBabel12092121063D

  0  0  0     0  0            999 V3000
M  V30 BEGIN CTAB
M  V30 COUNTS 18878 19082 0 0 0
M  V30 BEGIN ATOM
M  V30 1 H -0.908 1.98254 -0.117106 0
M  V30 2 N 0 1.576 0 0
M  V30 3 C 0.933 2.03868 1.02534 0
M  V30 4 C 1.911 0.928543 1.3348 0
M  V30 5 O 3.095 1.19667 1.45644 0
M  V30 6 C 0.222 2.43627 2.35294 0
M  V30 7 C -0.732 3.65373 2.2001 0
M  V30 8 S 0.101 5.13292 1.52614 0
M  V30 9 C 1.257 5.56322 2.86805 0
M  V30 10 H 1.49 2.90518 0.631377 0
M  V30 11 H -0.977 1.52953 0.210867 0
M  V30 12 H 0.981 2.67203 3.11629 0
M  V30 13 H -0.358 1.57376 2.7183 0
M  V30 14 H -1.165 3.90944 3.18086 0
M  V30 15 H -1.563 3.418 1.51819 0
M  V30 16 H 0.729 5.58782 3.83104 0
M  V30 17 H 1.672 6.56266 2.65933 0
M  V30 18 H 2.08 4.83886 2.90714 0
M  V30 19 N 1.4781 -0.272755 1.55222 0
M  V30 20 C 2.4081 -1.34136 1.91127 0
M  V30 21 C 3.3891 -1.51513 0.773168 0
M  V30 22 O 4.5741 -1.64552 1.03132 0
M  V30 23 C 1.7041 -2.70083 2.1834 0
M  V30 24 C 0.6581 -2.67437 3.34158 0
M  V30 25 C -0.0159 -4.06938 3.46851 0
M  V30 26 C 1.2841 -2.26686 4.70543 0
M  V30 27 H 2.9781 -1.04333 2.80633 0
M  V30 28 H 0.5241 -0.500454 1.35024 0
M  V30 29 H 2.4771 -3.44952 2.42046 0
M  V30 30 H 1.2011 -3.01469 1.25634 0
M  V30 31 H -0.1399 -1.95026 3.1042 0
M  V30 32 H -0.4919 -4.35547 2.51611 0
M  V30 33 H -0.7919 -4.06062 4.2472 0
M  V30 34 H 0.7321 -4.83545 3.72849 0
M  V30 35 H 2.1461 -2.91277 4.93792 0
M  V30 36 H 0.5431 -2.36971 5.5133 0
M  V30 37 H 1.6131 -1.21818 4.69349 0
M  V30 38 N 2.9562 -1.48159 -0.537278 0
M  V30 39 C 4.2022 -1.56035 -1.29541 0
M  V30 40 C 4.5352 -0.230377 -1.92829 0
M  V30 41 O 3.8102 0.762952 -1.78911 0
M  V30 42 C 4.0932 -2.69323 -2.39034 0
M  V30 43 C 3.9462 -4.12002 -1.80485 0
M  V30 44 C 5.2652 -2.78408 -3.40847 0
M  V30 45 H 2.3842 -0.567992 -0.469632 0
M  V30 46 H 5.0262 -1.80302 -0.599277 0
M  V30 47 H 3.1762 -2.48763 -2.98412 0
M  V30 48 H 4.8482 -4.43981 -1.25215 0
M  V30 49 H 3.0912 -4.19344 -1.11055 0
M  V30 50 H 3.7622 -4.87077 -2.59731 0
M  V30 51 H 6.2382 -2.97012 -2.91416 0
M  V30 52 H 5.1142 -3.59416 -4.14863 0
M  V30 53 H 5.3752 -1.86269 -4.00944 0
M  V30 54 N 4.4343 0.785586 -1.36625 0
M  V30 55 C 5.6823 1.54057 -1.30808 0
M  V30 56 C 6.0033 1.94683 0.111157 0
M  V30 57 O 5.2733 1.65241 1.05224 0
M  V30 58 H 3.8533 0.571354 -0.481211 0
M  V30 59 H 6.5153 0.935821 -1.70963 0
M  V30 60 H 5.6113 2.44637 -1.93801 0
M  V30 61 N 5.9124 1.20967 1.01018 0
M  V30 62 C 6.8444 0.922059 2.09835 0
M  V30 63 C 7.8574 -0.0927106 1.62536 0
M  V30 64 O 9.0464 0.139127 1.77957 0
M  V30 65 C 6.1464 0.362004 3.36961 0
M  V30 66 C 5.3194 1.42986 4.13369 0
M  V30 67 C 4.3784 0.879976 5.1879 0
M  V30 68 O 3.4044 1.56219 5.47343 0
M  V30 69 N 4.6064 -0.307396 5.79686 0
M  V30 70 H 7.3714 1.8588 2.35093 0
M  V30 71 H 4.9324 1.11422 1.1746 0
M  V30 72 H 6.9244 -0.0201474 4.04695 0
M  V30 73 H 5.4944 -0.479437 3.08902 0
M  V30 74 H 4.7144 1.98608 3.40512 0
M  V30 75 H 6.0024 2.14885 4.61196 0
M  V30 76 H 5.4004 -0.878796 5.58832 0
M  V30 77 H 3.9574 -0.631115 6.48737 0
M  V30 78 N 7.3905 -1.2043 1.01659 0
M  V30 79 C 8.6385 -1.89423 0.704522 0
M  V30 80 C 8.9595 -1.79231 -0.768197 0
M  V30 81 O 8.2295 -1.1947 -1.55254 0
M  V30 82 H 6.8095 -0.701178 0.257602 0
M  V30 83 H 9.4715 -1.4626 1.28818 0
M  V30 84 H 8.5675 -2.96052 0.987916 0
M  V30 85 N 8.8686 -0.792821 -1.36206 0
M  V30 86 C 9.8316 -0.199459 -2.2833 0
M  V30 87 C 10.8316 0.605189 -1.48977 0
M  V30 88 O 12.0216 0.425685 -1.68919 0
M  V30 89 C 9.1536 0.723523 -3.33134 0
M  V30 90 H 10.3466 -1.01181 -2.82316 0
M  V30 91 H 7.8996 -0.562485 -1.45828 0
M  V30 92 H 8.6346 1.56008 -2.84309 0
M  V30 93 H 8.4196 0.148436 -3.91819 0
M  V30 94 H 9.9096 1.13344 -4.01924 0
M  V30 95 N 10.3467 1.47872 -0.545128 0
M  V30 96 C 11.5947 2.02093 -0.016553 0
M  V30 97 C 11.9157 1.42305 1.3332 0
M  V30 98 O 11.1857 0.593853 1.86682 0
M  V30 99 H 9.7657 0.746993 -0.00313038 0
M  V30 100 H 12.4277 1.81414 -0.712397 0
M  V30 101 H 11.5237 3.11996 0.0805422 0
M  V30 102 N 11.8248 0.280983 1.55075 0
M  V30 103 C 13.2358 -0.215629 1.85451 0
M  V30 104 C 13.5868 -1.54991 1.203 0
M  V30 105 O 12.7118 -2.10699 0.493435 0
M  V30 106 C 13.3068 -0.398026 3.36454 0
M  V30 107 C 11.8658 -0.838866 3.66933 0
M  V30 108 C 11.0128 0.064458 2.77225 0
M  V30 109 H 13.9638 0.502601 1.50531 0
M  V30 110 H 13.9848 -1.23569 3.59876 0
M  V30 111 H 13.4968 0.573241 3.83843 0
M  V30 112 H 11.5978 -1.8214 3.25048 0
M  V30 113 H 11.7108 -0.672123 4.74362 0
M  V30 114 H 10.0748 -0.452863 2.50642 0
M  V30 115 H 10.8578 1.03172 3.2743 0
M  V30 116 N 13.3029 -1.57598 0.00835791 0
M  V30 117 C 14.2329 -2.1198 -0.979113 0
M  V30 118 C 15.2139 -1.03091 -1.35301 0
M  V30 119 O 16.3989 -1.30818 -1.43528 0
M  V30 120 C 13.5289 -2.62995 -2.26828 0
M  V30 121 C 12.4829 -3.76485 -2.03576 0
M  V30 122 C 11.8089 -4.13846 -3.38579 0
M  V30 123 C 13.1089 -5.0342 -1.39161 0
M  V30 124 H 14.8029 -2.94738 -0.526281 0
M  V30 125 H 12.3489 -1.41783 -0.251704 0
M  V30 126 H 14.3019 -2.99669 -2.96271 0
M  V30 127 H 13.0259 -1.7737 -2.7424 0
M  V30 128 H 11.6849 -3.40217 -1.36557 0
M  V30 129 H 11.3329 -3.25232 -3.83709 0
M  V30 130 H 11.0329 -4.90312 -3.23834 0
M  V30 131 H 12.5569 -4.53086 -4.09323 0
M  V30 132 H 13.9709 -5.37812 -1.98573 0
M  V30 133 H 12.3679 -5.84746 -1.34878 0
M  V30 134 H 13.4379 -4.83548 -0.361868 0
M  V30 135 N 14.781 0.264519 -1.55364 0
M  V30 136 C 16.029 0.993021 -1.76021 0
M  V30 137 C 16.35 1.86511 -0.569099 0
M  V30 138 O 15.62 1.91438 0.415735 0
M  V30 139 H 14.2 0.369639 -0.649135 0
M  V30 140 H 16.862 0.286707 -1.9278 0
M  V30 141 H 15.958 1.62502 -2.66457 0
M  V30 142 N 16.2591 1.48442 0.529413 0
M  V30 143 C 17.6701 1.5002 1.11134 0
M  V30 144 C 18.0211 0.27031 1.94329 0
M  V30 145 O 17.1461 -0.622507 2.07253 0
M  V30 146 C 17.7411 2.71834 2.02217 0
M  V30 147 C 16.3001 2.76283 2.55627 0
M  V30 148 C 15.4471 2.43542 1.326 0
M  V30 149 H 18.3981 1.5555 0.314641 0
M  V30 150 H 18.4191 2.50384 2.8651 0
M  V30 151 H 17.9311 3.61331 1.41639 0
M  V30 152 H 16.0321 1.90995 3.19924 0
M  V30 153 H 16.1451 3.77725 2.94721 0
M  V30 154 H 14.5091 1.94709 1.64196 0
M  V30 155 H 15.2921 3.3528 0.737734 0
M  V30 156 N 17.7372 -0.778329 1.37039 0
M  V30 157 C 18.7002 -1.87301 1.32102 0
M  V30 158 C 19.7002 -1.59198 0.226405 0
M  V30 159 O 20.8902 -1.67403 0.481861 0
M  V30 160 C 18.0222 -3.24309 1.05055 0
M  V30 161 H 19.2152 -1.93093 2.29467 0
M  V30 162 H 16.7682 -0.977358 1.21973 0
M  V30 163 H 17.5032 -3.24196 0.0819373 0
M  V30 164 H 17.2882 -3.46098 1.84279 0
M  V30 165 H 18.7782 -4.04382 1.04234 0
M  V30 166 N 19.2153 -1.21501 -1.00376 0
M  V30 167 C 20.4613 -1.03452 -1.74429 0
M  V30 168 C 20.7943 0.430764 -1.89362 0
M  V30 169 O 20.0693 1.31962 -1.42886 0
M  V30 170 C 20.3523 -1.73375 -3.15615 0
M  V30 171 C 20.2053 -3.27431 -3.08397 0
M  V30 172 C 21.5243 -1.47732 -4.14564 0
M  V30 173 H 18.6433 -0.377226 -0.633143 0
M  V30 174 H 21.2853 -1.49693 -1.17013 0
M  V30 175 H 19.4353 -1.34064 -3.64636 0
M  V30 176 H 21.1073 -3.76119 -2.67081 0
M  V30 177 H 19.3503 -3.5767 -2.45468 0
M  V30 178 H 20.0213 -3.71524 -4.08258 0
M  V30 179 H 22.4973 -1.8186 -3.74254 0
M  V30 180 H 21.3733 -1.99169 -5.11491 0
M  V30 181 H 21.6343 -0.407589 -4.40217 0
M  V30 182 N 20.6934 1.19889 -1.02296 0
M  V30 183 C 21.9394 1.89701 -0.717033 0
M  V30 184 C 22.2724 1.7905 0.751989 0
M  V30 185 O 21.5474 1.17891 1.547 0
M  V30 186 C 21.8304 3.40858 -1.16136 0
M  V30 187 C 21.6834 3.60411 -2.69117 0
M  V30 188 C 23.0024 4.33876 -0.737549 0
M  V30 189 H 20.1214 0.688874 -0.261957 0
M  V30 190 H 22.7634 1.41154 -1.27183 0
M  V30 191 H 20.9134 3.82335 -0.689342 0
M  V30 192 H 22.5854 3.28145 -3.2422 0
M  V30 193 H 20.8284 3.03665 -3.0979 0
M  V30 194 H 21.4994 4.66396 -2.95261 0
M  V30 195 H 23.9754 4.00081 -1.14344 0
M  V30 196 H 22.8514 5.38242 -1.0764 0
M  V30 197 H 23.1124 4.40628 0.360436 0
M  V30 198 N 22.1715 0.800033 1.35784 0
M  V30 199 C 23.3995 0.389606 2.03199 0
M  V30 200 C 23.8145 -0.997375 1.60306 0
M  V30 201 O 23.1715 -1.64154 0.797481 0
M  V30 202 C 23.2225 0.455855 3.58614 0
M  V30 203 O 22.9435 1.78815 3.99946 0
M  V30 204 C 24.4445 0.0374032 4.43284 0
M  V30 205 H 21.6645 0.159132 0.651857 0
M  V30 206 H 24.2085 1.08183 1.73541 0
M  V30 207 H 22.3635 -0.188057 3.86943 0
M  V30 208 H 22.7775 1.74636 4.94573 0
M  V30 209 H 24.2515 0.134882 5.51835 0
M  V30 210 H 24.7285 -1.01651 4.27275 0
M  V30 211 H 25.3345 0.654215 4.20238 0
M  V30 212 N 23.6496 -1.47581 0.552962 0
M  V30 213 C 24.6126 -2.28439 -0.186605 0
M  V30 214 C 25.6126 -1.36706 -0.84665 0
M  V30 215 O 26.8026 -1.59378 -0.703164 0
M  V30 216 C 23.9346 -3.16264 -1.2724 0
M  V30 217 H 25.1276 -2.95294 0.523609 0
M  V30 218 H 22.6806 -1.532 0.309745 0
M  V30 219 H 23.4156 -2.54091 -2.01514 0
M  V30 220 H 23.2006 -3.83769 -0.803968 0
M  V30 221 H 24.6906 -3.77198 -1.79196 0
M  V30 222 N 25.1277 -0.289203 -1.54924 0
M  V30 223 C 26.0907 0.579144 -2.21762 0
M  V30 224 C 27.0907 1.07047 -1.1999 0
M  V30 225 O 28.2807 0.968384 -1.44803 0
M  V30 226 C 25.4127 1.80055 -2.8947 0
M  V30 227 H 26.6057 -0.00464908 -2.999 0
M  V30 228 H 24.1587 -0.0399306 -1.56249 0
M  V30 229 H 24.8937 2.42449 -2.15381 0
M  V30 230 H 24.6787 1.45602 -3.64064 0
M  V30 231 H 26.1687 2.41773 -3.40493 0
M  V30 232 N 26.6058 1.57591 -0.0167156 0
M  V30 233 C 27.8518 1.91567 0.665582 0
M  V30 234 C 28.1848 0.892298 1.72487 0
M  V30 235 O 27.4598 -0.0867127 1.94307 0
M  V30 236 C 27.7428 3.36069 1.29342 0
M  V30 237 C 27.5958 4.49135 0.244541 0
M  V30 238 C 28.9148 3.803 2.21495 0
M  V30 239 H 26.0338 0.69666 0.240488 0
M  V30 240 H 28.6758 1.89866 -0.0714356 0
M  V30 241 H 26.8258 3.3765 1.92158 0
M  V30 242 H 28.4978 4.59689 -0.385228 0
M  V30 243 H 26.7408 4.3165 -0.431379 0
M  V30 244 H 27.4118 5.47242 0.723207 0
M  V30 245 H 29.8878 3.80377 1.68678 0
M  V30 246 H 28.7638 4.82127 2.62382 0
M  V30 247 H 29.0248 3.15104 3.101 0
M  V30 248 N 28.0839 -0.256276 1.55502 0
M  V30 249 C 29.3299 -0.987079 1.77157 0
M  V30 250 C 29.6629 -1.85327 0.580315 0
M  V30 251 O 28.9379 -1.89874 -0.421686 0
M  V30 252 C 29.2209 -1.85553 3.08613 0
M  V30 253 C 29.0739 -1.01816 4.38125 0
M  V30 254 C 30.3929 -2.8397 3.36228 0
M  V30 255 H 27.5119 -0.357428 0.644526 0
M  V30 256 H 30.1539 -0.258239 1.88237 0
M  V30 257 H 28.3039 -2.47695 2.99298 0
M  V30 258 H 29.9759 -0.416159 4.59419 0
M  V30 259 H 28.2189 -0.322178 4.32602 0
M  V30 260 H 28.8899 -1.65939 5.26468 0
M  V30 261 H 31.3659 -2.31964 3.45445 0
M  V30 262 H 30.2419 -3.41864 4.29442 0
M  V30 263 H 30.5029 -3.59955 2.56681 0
M  V30 264 N 29.562 -1.4872 -0.521534 0
M  V30 265 C 30.492 -1.66771 -1.63431 0
M  V30 266 C 31.473 -0.516499 -1.62069 0
M  V30 267 O 32.658 -0.750013 -1.79132 0
M  V30 268 C 29.788 -1.71515 -3.01993 0
M  V30 269 C 28.742 -2.86222 -3.18216 0
M  V30 270 C 28.068 -2.76061 -4.57924 0
M  V30 271 C 29.368 -4.27419 -3.00184 0
M  V30 272 H 31.062 -2.59932 -1.48579 0
M  V30 273 H 28.608 -1.25089 -0.713358 0
M  V30 274 H 30.561 -1.82731 -3.7972 0
M  V30 275 H 29.285 -0.749393 -3.17886 0
M  V30 276 H 27.944 -2.74575 -2.42908 0
M  V30 277 H 27.592 -1.77437 -4.70665 0
M  V30 278 H 27.292 -3.53037 -4.69722 0
M  V30 279 H 28.816 -2.89256 -5.37739 0
M  V30 280 H 30.23 -4.39855 -3.67697 0
M  V30 281 H 28.627 -5.05458 -3.2347 0
M  V30 282 H 29.697 -4.43293 -1.96518 0
M  V30 283 N 31.0401 0.771051 -1.3745 0
M  V30 284 C 31.9701 1.89827 -1.3597 0
M  V30 285 C 32.9511 1.68562 -0.228216 0
M  V30 286 O 34.1361 1.8941 -0.428675 0
M  V30 287 C 31.2661 3.2712 -1.16662 0
M  V30 288 C 30.2201 3.6295 -2.2683 0
M  V30 289 C 29.5461 4.98791 -1.92644 0
M  V30 290 C 30.8461 3.69627 -3.69017 0
M  V30 291 H 32.5401 1.91323 -2.30295 0
M  V30 292 H 30.0861 0.919082 -1.10855 0
M  V30 293 H 32.0391 4.05615 -1.14256 0
M  V30 294 H 30.7631 3.26059 -0.187926 0
M  V30 295 H 29.4221 2.86763 -2.28392 0
M  V30 296 H 29.0701 4.94271 -0.933021 0
M  V30 297 H 28.7701 5.23733 -2.66416 0
M  V30 298 H 30.2941 5.79685 -1.91826 0
M  V30 299 H 31.7081 4.38273 -3.69581 0
M  V30 300 H 30.1051 4.06067 -4.41848 0
M  V30 301 H 31.1751 2.70273 -4.02592 0
M  V30 302 N 32.5182 1.22032 0.997298 0
M  V30 303 C 33.4482 1.01065 2.10495 0
M  V30 304 C 34.4292 -0.0669542 1.69968 0
M  V30 305 O 35.6142 0.0943987 1.9397 0
M  V30 306 C 32.7442 0.582874 3.42374 0
M  V30 307 C 31.6982 1.60592 3.96729 0
M  V30 308 C 31.0242 1.03412 5.24605 0
M  V30 309 C 32.3242 2.99478 4.27914 0
M  V30 310 H 34.0182 1.93708 2.28292 0
M  V30 311 H 31.5642 0.932761 1.09707 0
M  V30 312 H 33.5172 0.423332 4.19268 0
M  V30 313 H 32.2412 -0.379213 3.24391 0
M  V30 314 H 30.9002 1.75316 3.21963 0
M  V30 315 H 30.5482 0.063518 5.0296 0
M  V30 316 H 30.2482 1.71754 5.61938 0
M  V30 317 H 31.7722 0.886066 6.04137 0
M  V30 318 H 33.1862 2.88153 4.95622 0
M  V30 319 H 31.5832 3.64903 4.76409 0
M  V30 320 H 32.6532 3.49742 3.3587 0
M  V30 321 N 33.9963 -1.19345 1.0293 0
M  V30 322 C 35.2213 -1.93538 0.745511 0
M  V30 323 C 35.6463 -1.75007 -0.689511 0
M  V30 324 O 35.0043 -1.05265 -1.47611 0
M  V30 325 C 35.0523 -3.43336 1.10239 0
M  V30 326 O 34.1563 -4.11806 0.221289 0
M  V30 327 H 33.4973 -0.604193 0.275404 0
M  V30 328 H 36.0273 -1.5141 1.37609 0
M  V30 329 H 36.0373 -3.94004 1.05947 0
M  V30 330 H 34.7123 -3.56146 2.14786 0
M  V30 331 H 33.2893 -3.715 0.322842 0
M  V30 332 N 35.4744 -0.807222 -1.35358 0
M  V30 333 C 36.7224 -0.387122 -1.98358 0
M  V30 334 C 37.0434 1.04942 -1.64354 0
M  V30 335 O 36.3134 1.72615 -0.926339 0
M  V30 336 H 34.8934 -0.140154 -0.733734 0
M  V30 337 H 37.5554 -1.0332 -1.6526 0
M  V30 338 H 36.6514 -0.493352 -3.08176 0
M  V30 339 N 36.9525 1.47285 -0.560781 0
M  V30 340 C 38.1985 2.02764 -0.0381184 0
M  V30 341 C 38.5315 1.43384 1.30976 0
M  V30 342 O 37.8065 0.590733 1.85312 0
M  V30 343 C 38.0895 3.60064 0.0511427 0
M  V30 344 C 37.9425 4.2987 -1.32408 0
M  V30 345 C 39.2615 4.33439 0.762795 0
M  V30 346 H 36.3805 0.736841 -0.0153264 0
M  V30 347 H 39.0225 1.75675 -0.723759 0
M  V30 348 H 37.1725 3.83274 0.635065 0
M  V30 349 H 38.8445 4.17989 -1.95148 0
M  V30 350 H 37.0875 3.90085 -1.8978 0
M  V30 351 H 37.7585 5.38478 -1.21431 0
M  V30 352 H 40.2345 4.15243 0.266965 0
M  V30 353 H 39.1105 5.43124 0.794221 0
M  V30 354 H 39.3715 4.02915 1.81966 0
M  V30 355 N 38.4306 0.297415 1.54768 0
M  V30 356 C 39.6786 -0.312295 1.99673 0
M  V30 357 C 39.9996 -1.54686 1.18732 0
M  V30 358 O 39.2696 -1.93854 0.282382 0
M  V30 359 H 37.8496 -0.118381 0.73756 0
M  V30 360 H 40.5116 0.407915 1.90583 0
M  V30 361 H 39.6076 -0.586813 3.06534 0
M  V30 362 N 39.9087 -1.5758 0.0250728 0
M  V30 363 C 41.3197 -1.79476 -0.514323 0
M  V30 364 C 41.6707 -0.934956 -1.72491 0
M  V30 365 O 40.7957 -0.144245 -2.15919 0
M  V30 366 C 41.3907 -3.25503 -0.939842 0
M  V30 367 C 39.9497 -3.48408 -1.42438 0
M  V30 368 C 39.0967 -2.74583 -0.387201 0
M  V30 369 H 42.0477 -1.567 0.25113 0
M  V30 370 H 42.0687 -3.34992 -1.80445 0
M  V30 371 H 41.5807 -3.88056 -0.0585628 0
M  V30 372 H 39.6817 -2.91103 -2.32572 0
M  V30 373 H 39.7947 -4.57119 -1.43455 0
M  V30 374 H 38.1587 -2.39942 -0.854409 0
M  V30 375 H 38.9417 -3.39849 0.485543 0
M  V30 376 N 41.3868 0.248026 -1.55636 0
M  V30 377 C 42.3498 1.29044 -1.89421 0
M  V30 378 C 43.3498 1.41134 -0.770581 0
M  V30 379 O 44.5398 1.39854 -1.03858 0
M  V30 380 C 41.6718 2.66831 -2.12165 0
M  V30 381 H 42.8648 1.00305 -2.82629 0
M  V30 382 H 40.4178 0.487265 -1.48511 0
M  V30 383 H 41.1528 3.00711 -1.21422 0
M  V30 384 H 40.9378 2.59438 -2.93997 0
M  V30 385 H 42.4278 3.42103 -2.3949 0
M  V30 386 N 42.8649 1.48995 0.513639 0
M  V30 387 C 43.8149 1.61127 1.61314 0
M  V30 388 C 44.7989 0.467521 1.53958 0
M  V30 389 O 45.9909 0.719826 1.61702 0
M  V30 390 C 43.1199 1.66937 2.99978 0
M  V30 391 C 42.2059 2.86847 3.12377 0
M  V30 392 N 42.5969 4.11078 2.94701 0
M  V30 393 C 40.8949 2.84521 3.43459 0
M  V30 394 C 41.5959 4.91615 3.10949 0
M  V30 395 N 40.5719 4.24739 3.3926 0
M  V30 396 H 44.3739 2.54909 1.46282 0
M  V30 397 H 41.8879 1.45593 0.719483 0
M  V30 398 H 43.8849 1.73725 3.78979 0
M  V30 399 H 42.5449 0.742831 3.16089 0
M  V30 400 H 43.5559 4.41258 2.71131 0
M  V30 401 H 40.2329 2.01192 3.65825 0
M  V30 402 H 41.6229 6.00264 3.01882 0
M  V30 403 N 44.343 -0.763751 1.37857 0
M  V30 404 C 45.591 -1.51957 1.33243 0
M  V30 405 C 45.912 -1.94835 -0.0801709 0
M  V30 406 O 45.182 -1.66894 -1.02582 0
M  V30 407 H 43.762 -0.563626 0.49024 0
M  V30 408 H 46.424 -0.908504 1.7243 0
M  V30 409 H 45.52 -2.41523 1.97669 0
M  V30 410 N 45.8211 -1.22559 -0.990812 0
M  V30 411 C 47.0461 -1.07862 -1.77145 0
M  V30 412 C 47.4711 0.366447 -1.84496 0
M  V30 413 O 46.8291 1.26478 -1.29896 0
M  V30 414 C 46.8771 -1.69686 -3.18181 0
M  V30 415 O 45.9811 -0.951946 -4.01263 0
M  V30 416 H 45.3221 -0.378712 -0.545411 0
M  V30 417 H 47.8521 -1.62399 -1.2445 0
M  V30 418 H 47.8621 -1.74496 -3.68802 0
M  V30 419 H 46.5371 -2.74841 -3.12146 0
M  V30 420 H 45.1141 -0.980011 -3.59792 0
M  V30 421 N 47.2992 1.18797 -1.03562 0
M  V30 422 C 48.2092 2.25913 -0.632505 0
M  V30 423 C 49.2252 1.70668 0.338882 0
M  V30 424 O 50.4012 2.00453 0.195076 0
M  V30 425 C 47.4662 3.467 0.00350942 0
M  V30 426 C 46.5272 4.17098 -1.01624 0
M  V30 427 C 45.7602 5.32119 -0.410478 0
M  V30 428 O 45.9832 5.64976 0.784725 0
M  V30 429 O 44.9172 5.9107 -1.13667 0
M  V30 430 H 48.7432 2.62648 -1.52478 0
M  V30 431 H 46.3282 1.25781 -0.806195 0
M  V30 432 H 48.2102 4.19878 0.35781 0
M  V30 433 H 46.8852 3.11798 0.869686 0
M  V30 434 H 45.7922 3.4601 -1.42224 0
M  V30 435 H 47.1252 4.55987 -1.85301 0
M  V30 436 N 48.7773 0.814389 1.34928 0
M  V30 437 C 50.0543 0.321363 1.92942 0
M  V30 438 C 50.4343 -1.19014 1.74353 0
M  V30 439 O 49.7823 -1.99328 1.11716 0
M  V30 440 C 49.9923 0.741323 3.41036 0
M  V30 441 C 51.3403 0.735266 4.18185 0
M  V30 442 O 52.3643 0.68336 3.49584 0
M  V30 443 O 51.2233 0.800703 5.40602 0
M  V30 444 H 48.3173 0.0858893 0.822528 0
M  V30 445 H 50.8633 0.898609 1.43955 0
M  V30 446 H 49.6353 1.78276 3.4833 0
M  V30 447 H 49.2583 0.139307 3.97356 0
M  V30 448 N 50.2554 -1.46986 0.568584 0
M  V30 449 C 51.5044 -2.01646 0.0465894 0
M  V30 450 C 51.8174 -1.44721 -1.31587 0
M  V30 451 O 53.0234 -1.91113 -1.92842 0
M  V30 452 C 51.4794 -3.59885 0.032752 0
M  V30 453 C 51.0874 -4.25804 1.39266 0
M  V30 454 C 52.8314 -4.22255 -0.436038 0
M  V30 455 C 50.7384 -5.76081 1.33732 0
M  V30 456 H 49.6684 -0.753876 0.013647 0
M  V30 457 H 52.3194 -1.68864 0.718131 0
M  V30 458 H 50.7014 -3.8968 -0.704669 0
M  V30 459 H 51.8754 -4.07637 2.1487 0
M  V30 460 H 50.1904 -3.7547 1.80032 0
M  V30 461 H 52.7874 -5.32394 -0.49602 0
M  V30 462 H 53.1304 -3.90212 -1.45053 0
M  V30 463 H 53.6634 -3.97033 0.246877 0
M  V30 464 H 50.4024 -6.12761 2.32817 0
M  V30 465 H 49.9224 -5.96553 0.623267 0
M  V30 466 H 51.6014 -6.38518 1.0442 0
M  V30 467 N 51.7335 -0.305618 -1.54608 0
M  V30 468 C 52.9795 0.302746 -2.00528 0
M  V30 469 C 53.3125 1.53184 -1.19367 0
M  V30 470 O 52.5875 1.92598 -0.271321 0
M  V30 471 C 52.8705 0.654756 -3.54097 0
M  V30 472 C 52.7235 -0.583793 -4.45995 0
M  V30 473 C 54.0425 1.47947 -4.14487 0
M  V30 474 H 51.1615 0.108564 -0.72896 0
M  V30 475 H 53.8035 -0.418634 -1.85331 0
M  V30 476 H 51.9535 1.26935 -3.67178 0
M  V30 477 H 53.6255 -1.22224 -4.44814 0
M  V30 478 H 51.8685 -1.21615 -4.16404 0
M  V30 479 H 52.5395 -0.293287 -5.5122 0
M  V30 480 H 55.0155 0.96013 -4.04871 0
M  V30 481 H 53.8915 1.69454 -5.22088 0
M  V30 482 H 54.1525 2.47011 -3.66658 0
M  V30 483 N 53.2116 1.57565 -0.0334293 0
M  V30 484 C 54.4576 1.92262 0.645226 0
M  V30 485 C 54.7906 0.910543 1.71531 0
M  V30 486 O 54.0656 -0.066099 1.94388 0
M  V30 487 C 54.3486 3.37422 1.2577 0
M  V30 488 C 54.2016 4.49369 0.196891 0
M  V30 489 C 55.5206 3.82628 2.17449 0
M  V30 490 H 52.6396 0.699171 0.233085 0
M  V30 491 H 55.2816 1.89779 -0.0915694 0
M  V30 492 H 53.4316 3.39669 1.88566 0
M  V30 493 H 55.1036 4.59254 -0.433962 0
M  V30 494 H 53.3466 4.31168 -0.477137 0
M  V30 495 H 54.0176 5.47978 0.665124 0
M  V30 496 H 56.4936 3.82145 1.64634 0
M  V30 497 H 55.3696 4.84883 2.57254 0
M  V30 498 H 55.6306 3.18376 3.0674 0
M  V30 499 N 54.6897 -0.239769 1.55765 0
M  V30 500 C 55.9377 -0.964892 1.77579 0
M  V30 501 C 56.2587 -1.85582 0.598699 0
M  V30 502 O 55.5287 -1.92075 -0.385226 0
M  V30 503 H 54.1087 -0.359265 0.654933 0
M  V30 504 H 56.7707 -0.256001 1.93211 0
M  V30 505 H 55.8667 -1.58243 2.69009 0
M  V30 506 N 56.1678 -1.49265 -0.50573 0
M  V30 507 C 57.4078 -1.60128 -1.27038 0
M  V30 508 C 57.7718 -0.279557 -1.89954 0
M  V30 509 O 58.9728 -0.263329 -2.67507 0
M  V30 510 C 57.2438 -2.72507 -2.31246 0
M  V30 511 S 58.8028 -3.0329 -3.17113 0
M  V30 512 H 55.6208 -0.564863 -0.4318 0
M  V30 513 H 58.2228 -1.86902 -0.573397 0
M  V30 514 H 56.9268 -3.67068 -1.83546 0
M  V30 515 H 56.4578 -2.4771 -3.05619 0
M  V30 516 H 58.4728 -2.44448 -4.31809 0
M  V30 517 N 57.6459 0.756429 -1.3826 0
M  V30 518 C 58.8939 1.51248 -1.34047 0
M  V30 519 C 59.2149 1.94875 0.0698372 0
M  V30 520 O 58.4849 1.67436 1.01696 0
M  V30 521 H 57.0649 0.561018 -0.493222 0
M  V30 522 H 59.7269 0.899347 -1.7291 0
M  V30 523 H 58.8229 2.40472 -1.98947 0
M  V30 524 N 59.124 1.23083 0.984299 0
M  V30 525 C 60.372 1.05848 1.72165 0
M  V30 526 C 60.693 -0.406049 1.90726 0
M  V30 527 O 59.963 -1.29139 1.47309 0
M  V30 528 H 58.543 0.388685 0.637913 0
M  V30 529 H 61.205 1.54736 1.18503 0
M  V30 530 H 60.301 1.54327 2.71274 0
M  V30 531 N 60.6021 -1.18246 1.0419 0
M  V30 532 C 61.8491 -1.88257 0.746017 0
M  V30 533 C 62.1771 -1.80429 -0.726331 0
M  V30 534 O 61.4321 -1.2 -1.54591 0
M  V30 535 C 61.7311 -3.38082 1.15911 0
M  V30 536 C 61.3971 -3.66114 2.63195 0
M  V30 537 C 60.0591 -3.73474 3.03432 0
M  V30 538 C 62.4111 -3.78398 3.5842 0
M  V30 539 C 59.7391 -3.90599 4.37778 0
M  V30 540 C 62.0911 -3.97039 4.92487 0
M  V30 541 C 60.7551 -4.02635 5.32392 0
M  V30 542 H 60.0251 -0.688883 0.272987 0
M  V30 543 H 62.6721 -1.3995 1.30715 0
M  V30 544 H 60.9771 -3.88377 0.516806 0
M  V30 545 H 62.6741 -3.90596 0.907516 0
M  V30 546 H 59.2641 -3.61003 2.3103 0
M  V30 547 H 63.4481 -3.72042 3.28479 0
M  V30 548 H 58.7041 -3.93175 4.68213 0
M  V30 549 H 62.8781 -4.05486 5.66175 0
M  V30 550 H 60.5051 -4.15657 6.36501 0
M  V30 551 N 62.0802 -0.821533 -1.34494 0
M  V30 552 C 63.3262 -0.409552 -1.98622 0
M  V30 553 C 63.6592 1.0244 -1.64984 0
M  V30 554 O 62.9342 1.71325 -0.920758 0
M  V30 555 C 63.2172 -0.610458 -3.54888 0
M  V30 556 C 63.0702 -2.09043 -3.98273 0
M  V30 557 C 64.3892 -0.0455379 -4.40076 0
M  V30 558 H 61.5082 -0.15028 -0.721516 0
M  V30 559 H 64.1502 -1.03384 -1.59411 0
M  V30 560 H 62.3002 -0.079044 -3.8842 0
M  V30 561 H 63.9722 -2.68537 -3.75081 0
M  V30 562 H 62.2152 -2.58139 -3.48635 0
M  V30 563 H 62.8862 -2.18182 -5.07051 0
M  V30 564 H 65.3622 -0.499557 -4.1309 0
M  V30 565 H 64.2382 -0.215922 -5.48475 0
M  V30 566 H 64.4992 1.04939 -4.29465 0
M  V30 567 N 63.5583 1.46682 -0.576371 0
M  V30 568 C 64.5053 2.30241 0.160499 0
M  V30 569 C 65.4753 1.40233 0.890162 0
M  V30 570 O 66.6603 1.69186 0.882084 0
M  V30 571 C 63.8003 3.24578 1.1723 0
M  V30 572 C 62.9133 4.29684 0.446736 0
M  V30 573 C 62.0483 5.11154 1.44551 0
M  V30 574 C 61.0873 6.08015 0.70599 0
M  V30 575 N 60.2243 6.82376 1.65251 0
M  V30 576 H 65.0643 2.92727 -0.558127 0
M  V30 577 H 62.6013 1.44272 -0.287056 0
M  V30 578 H 64.5593 3.77711 1.77172 0
M  V30 579 H 63.1893 2.63916 1.85872 0
M  V30 580 H 62.2413 3.79458 -0.267594 0
M  V30 581 H 63.5533 4.98626 -0.131686 0
M  V30 582 H 62.7073 5.68533 2.11791 0
M  V30 583 H 61.4463 4.42158 2.05786 0
M  V30 584 H 60.4513 5.49796 0.0197725 0
M  V30 585 H 61.6763 6.79028 0.09912 0
M  V30 586 H 59.6223 6.16094 2.25308 0
M  V30 587 H 59.5393 7.47556 1.12673 0
M  V30 588 H 60.8073 7.44316 2.31546 0
M  V30 589 N 65.0364 0.313813 1.54444 0
M  V30 590 C 66.2614 -0.296681 2.05267 0
M  V30 591 C 66.6864 -1.45757 1.18897 0
M  V30 592 O 66.0444 -1.80239 0.195886 0
M  V30 593 C 66.0924 -0.71831 3.53373 0
M  V30 594 O 65.1964 -1.82175 3.69981 0
M  V30 595 H 64.5374 -0.0554061 0.661684 0
M  V30 596 H 67.0674 0.459387 1.99376 0
M  V30 597 H 67.0774 -1.00364 3.95463 0
M  V30 598 H 65.7524 0.130821 4.15694 0
M  V30 599 H 64.3294 -1.53598 3.39797 0
M  V30 600 N 66.5145 -1.57545 0.0417849 0
M  V30 601 C 67.7915 -1.83642 -0.673433 0
M  V30 602 C 68.1715 -0.928298 -1.89594 0
M  V30 603 O 67.5195 0.0129955 -2.28496 0
M  V30 604 C 67.7295 -3.33155 -1.03964 0
M  V30 605 C 69.0775 -3.99941 -1.42592 0
M  V30 606 O 70.1015 -3.37725 -1.13226 0
M  V30 607 O 68.9605 -5.09619 -1.9736 0
M  V30 608 H 66.0545 -0.757638 -0.331533 0
M  V30 609 H 68.6005 -1.69554 0.070433 0
M  V30 610 H 67.3725 -3.9093 -0.170098 0
M  V30 611 H 66.9955 -3.52396 -1.84126 0
M  V30 612 N 67.9926 0.231505 -1.5589 0
M  V30 613 C 69.2386 0.95877 -1.78705 0
M  V30 614 C 69.5716 1.8438 -0.609725 0
M  V30 615 O 68.8466 1.90521 0.391426 0
M  V30 616 C 69.1296 1.8062 -3.11526 0
M  V30 617 C 68.9826 0.948328 -4.39689 0
M  V30 618 C 70.3016 2.78585 -3.40703 0
M  V30 619 H 67.4206 0.347129 -0.650131 0
M  V30 620 H 70.0626 0.228259 -1.88624 0
M  V30 621 H 68.2126 2.42902 -3.03201 0
M  V30 622 H 69.8846 0.343016 -4.60023 0
M  V30 623 H 68.1276 0.253314 -4.3306 0
M  V30 624 H 68.7986 1.57543 -5.29041 0
M  V30 625 H 71.2746 2.26439 -3.49091 0
M  V30 626 H 70.1506 3.34988 -4.34826 0
M  V30 627 H 70.4116 3.55825 -2.62375 0
M  V30 628 N 69.4707 1.49531 0.497807 0
M  V30 629 C 70.3807 1.69176 1.62532 0
M  V30 630 C 71.3967 0.5744 1.64246 0
M  V30 631 O 72.5727 0.849497 1.82608 0
M  V30 632 C 69.6377 1.75695 2.98885 0
M  V30 633 C 68.6987 2.9929 3.07773 0
M  V30 634 C 67.9317 3.05488 4.37622 0
M  V30 635 O 68.1547 2.19192 5.26603 0
M  V30 636 O 67.0887 3.9798 4.51548 0
M  V30 637 H 70.9147 2.647 1.48887 0
M  V30 638 H 68.4997 1.3331 0.674441 0
M  V30 639 H 70.3817 1.82317 3.79919 0
M  V30 640 H 69.0567 0.8335 3.12785 0
M  V30 641 H 67.9637 2.98183 2.25915 0
M  V30 642 H 69.2967 3.91125 2.98801 0
M  V30 643 N 70.9488 -0.749086 1.3866 0
M  V30 644 C 72.1978 -1.50371 1.3443 0
M  V30 645 C 72.5108 -1.95503 -0.0616397 0
M  V30 646 O 73.7168 -2.70554 -0.226489 0
M  V30 647 C 72.1728 -2.71644 2.36088 0
M  V30 648 C 71.7808 -2.3352 3.82325 0
M  V30 649 C 73.5248 -3.49518 2.40909 0
M  V30 650 C 71.4318 -3.51431 4.75658 0
M  V30 651 H 70.3618 -0.564628 0.499712 0
M  V30 652 H 73.0128 -0.818449 1.64237 0
M  V30 653 H 71.3948 -3.42175 1.9933 0
M  V30 654 H 72.5688 -1.70627 4.28046 0
M  V30 655 H 70.8838 -1.6877 3.80665 0
M  V30 656 H 73.4808 -4.37197 3.07836 0
M  V30 657 H 73.8238 -3.90992 1.42937 0
M  V30 658 H 74.3568 -2.86005 2.76489 0
M  V30 659 H 71.0958 -3.15019 5.74842 0
M  V30 660 H 70.6158 -4.13352 4.34627 0
M  V30 661 H 72.2948 -4.17953 4.93887 0
M  V30 662 N 72.4269 -1.23603 -0.977757 0
M  V30 663 C 73.3749 -1.01704 -2.09187 0
M  V30 664 C 74.3689 0.0448214 -1.69341 0
M  V30 665 O 75.5749 -0.108902 -1.7967 0
M  V30 666 H 71.9499 -0.311803 -0.684312 0
M  V30 667 H 73.9209 -1.96207 -2.24823 0
M  V30 668 C 72.6699 -0.627746 -3.41986 0
M  V30 669 H 71.9929 -1.43656 -3.73099 0
M  V30 670 H 73.4329 -0.514053 -4.20872 0
M  V30 671 C 71.8919 0.664238 -3.30287 0
M  V30 672 O 72.4219 1.71268 -3.6336 0
M  V30 673 N 70.6279 0.641156 -2.83439 0
M  V30 674 H 70.1749 -0.212376 -2.56723 0
M  V30 675 H 70.1329 1.50583 -2.75993 0
M  V30 676 N 73.905 1.17692 -1.04816 0
M  V30 677 C 75.135 1.91508 -0.775128 0
M  V30 678 C 75.543 1.76844 0.67253 0
M  V30 679 O 74.886 1.10057 1.47082 0
M  V30 680 C 74.948 3.43167 -1.0713 0
M  V30 681 C 74.612 3.81612 -2.51438 0
M  V30 682 C 75.609 3.84772 -3.49638 0
M  V30 683 C 73.294 4.12687 -2.86348 0
M  V30 684 C 75.288 4.18469 -4.80794 0
M  V30 685 C 72.975 4.46053 -4.17708 0
M  V30 686 C 73.973 4.48921 -5.14741 0
M  V30 687 O 73.661 4.81504 -6.43746 0
M  V30 688 H 73.393 0.614575 -0.281555 0
M  V30 689 H 75.947 1.50206 -1.40098 0
M  V30 690 H 74.177 3.84745 -0.388342 0
M  V30 691 H 75.866 3.98239 -0.784883 0
M  V30 692 H 76.632 3.60893 -3.24008 0
M  V30 693 H 72.511 4.09627 -2.11486 0
M  V30 694 H 76.055 4.20623 -5.56527 0
M  V30 695 H 71.952 4.69393 -4.43103 0
M  V30 696 H 72.72 4.99377 -6.4851 0
M  V30 697 N 75.3831 0.828654 1.34056 0
M  V30 698 C 76.6081 0.431637 2.02859 0
M  V30 699 C 77.0331 -0.956339 1.61975 0
M  V30 700 O 76.3911 -1.62338 0.807228 0
M  V30 701 C 76.4391 0.548323 3.56407 0
M  V30 702 O 75.5431 -0.429556 4.10157 0
M  V30 703 H 74.8841 0.176886 0.640006 0
M  V30 704 H 77.4141 1.12066 1.71179 0
M  V30 705 H 77.4241 0.426196 4.05768 0
M  V30 706 H 76.0991 1.5606 3.8551 0
M  V30 707 H 74.6761 -0.265836 3.71951 0
M  V30 708 N 76.8612 -1.46375 0.584142 0
M  V30 709 C 77.7912 -2.33103 -0.136037 0
M  V30 710 C 78.7722 -1.45431 -0.882255 0
M  V30 711 O 79.9572 -1.74246 -0.857434 0
M  V30 712 C 77.0872 -3.27731 -1.14933 0
M  V30 713 C 76.0412 -4.24855 -0.517862 0
M  V30 714 C 75.3672 -5.09001 -1.63773 0
M  V30 715 C 76.6672 -5.19439 0.545886 0
M  V30 716 H 78.3612 -2.93568 0.588086 0
M  V30 717 H 75.9072 -1.41166 0.284259 0
M  V30 718 H 77.8602 -3.87261 -1.66153 0
M  V30 719 H 76.5842 -2.65377 -1.90375 0
M  V30 720 H 75.2432 -3.6659 -0.0267361 0
M  V30 721 H 74.8912 -4.43031 -2.38185 0
M  V30 722 H 74.5912 -5.74777 -1.22085 0
M  V30 723 H 76.1152 -5.71396 -2.15266 0
M  V30 724 H 77.5292 -5.73177 0.118704 0
M  V30 725 H 75.9262 -5.93566 0.88317 0
M  V30 726 H 76.9962 -4.63285 1.43162 0
M  V30 727 N 78.3393 -0.321999 -1.54275 0
M  V30 728 C 79.5883 0.281931 -1.9972 0
M  V30 729 C 79.9013 1.53369 -1.21397 0
M  V30 730 O 81.1073 2.21352 -1.57211 0
M  V30 731 C 79.5633 0.5529 -3.55628 0
M  V30 732 C 79.1713 -0.681721 -4.42783 0
M  V30 733 C 80.9153 1.11687 -4.09544 0
M  V30 734 C 78.8223 -0.382742 -5.9016 0
M  V30 735 H 77.7523 0.109124 -0.746062 0
M  V30 736 H 80.4033 -0.43398 -1.78294 0
M  V30 737 H 78.7853 1.32896 -3.73035 0
M  V30 738 H 79.9593 -1.45723 -4.37151 0
M  V30 739 H 78.2743 -1.1658 -3.99748 0
M  V30 740 H 80.8713 1.35515 -5.17242 0
M  V30 741 H 81.2143 2.06575 -3.61431 0
M  V30 742 H 81.7473 0.402032 -3.95763 0
M  V30 743 H 78.4863 -1.30076 -6.42464 0
M  V30 744 H 78.0063 0.355094 -5.98748 0
M  V30 745 H 79.6853 0.00800157 -6.47 0
M  V30 746 N 79.8174 1.5752 -0.0501392 0
M  V30 747 C 80.7274 2.14952 0.939827 0
M  V30 748 C 81.7434 1.10706 1.34239 0
M  V30 749 O 82.9194 1.42869 1.41952 0
M  V30 750 C 79.9844 2.68232 2.19665 0
M  V30 751 C 79.0454 3.87272 1.85253 0
M  V30 752 C 78.2784 4.38002 3.04943 0
M  V30 753 O 78.5014 3.87811 4.18281 0
M  V30 754 O 77.4354 5.29602 2.86017 0
M  V30 755 H 81.2614 2.9986 0.481392 0
M  V30 756 H 78.8464 1.4841 0.171699 0
M  V30 757 H 80.7284 3.02475 2.93406 0
M  V30 758 H 79.4034 1.86395 2.64648 0
M  V30 759 H 78.3104 3.5792 1.0883 0
M  V30 760 H 79.6434 4.70336 1.4507 0
M  V30 761 N 81.2955 -0.223234 1.56011 0
M  V30 762 C 82.5445 -0.945912 1.78144 0
M  V30 763 C 82.8575 -1.85567 0.618396 0
M  V30 764 O 84.0635 -2.61688 0.723318 0
M  V30 765 C 82.5195 -1.73216 3.15475 0
M  V30 766 C 82.1275 -0.868619 4.39499 0
M  V30 767 C 83.8715 -2.44615 3.46935 0
M  V30 768 C 81.7785 -1.65212 5.67855 0
M  V30 769 H 80.7085 -0.356929 0.664167 0
M  V30 770 H 83.3595 -0.199845 1.82409 0
M  V30 771 H 81.7415 -2.52107 3.05382 0
M  V30 772 H 82.9155 -0.120366 4.60643 0
M  V30 773 H 81.2305 -0.26683 4.15544 0
M  V30 774 H 83.8275 -3.03732 4.40058 0
M  V30 775 H 84.1705 -3.17417 2.69355 0
M  V30 776 H 84.7035 -1.72715 3.58349 0
M  V30 777 H 81.4425 -0.967407 6.48322 0
M  V30 778 H 80.9625 -2.37503 5.50774 0
M  V30 779 H 82.6415 -2.21322 6.07968 0
M  V30 780 N 82.7736 -1.49793 -0.48987 0
M  V30 781 C 83.7206 -1.67281 -1.59014 0
M  V30 782 C 84.6906 -0.514177 -1.57941 0
M  V30 783 O 85.8756 -0.742533 -1.75759 0
M  V30 784 C 83.0156 -1.75569 -2.97102 0
M  V30 785 C 82.1286 -3.0281 -3.08107 0
M  V30 786 C 81.2636 -3.02008 -4.36995 0
M  V30 787 C 80.3026 -4.23782 -4.41673 0
M  V30 788 N 79.4396 -4.20826 -5.62005 0
M  V30 789 H 84.2796 -2.61224 -1.43409 0
M  V30 790 H 81.8166 -1.29508 -0.697565 0
M  V30 791 H 83.7746 -1.78354 -3.77155 0
M  V30 792 H 82.4046 -0.850827 -3.11385 0
M  V30 793 H 81.4566 -3.09584 -2.21047 0
M  V30 794 H 82.7686 -3.92801 -3.07423 0
M  V30 795 H 81.9226 -3.03418 -5.25378 0
M  V30 796 H 80.6616 -2.09815 -4.4026 0
M  V30 797 H 79.6666 -4.22604 -3.5169 0
M  V30 798 H 80.8916 -5.17181 -4.40115 0
M  V30 799 H 78.8376 -3.31476 -5.66091 0
M  V30 800 H 78.7546 -5.04564 -5.62984 0
M  V30 801 H 80.0226 -4.26355 -6.52565 0
M  V30 802 N 84.2517 0.741722 -1.39055 0
M  V30 803 C 85.1817 1.869 -1.39966 0
M  V30 804 C 86.1627 1.6804 -0.26392 0
M  V30 805 O 87.3477 1.88458 -0.468755 0
M  V30 806 C 84.4777 3.24572 -1.23574 0
M  V30 807 C 83.4317 3.58056 -2.34477 0
M  V30 808 C 82.7577 4.94593 -2.0318 0
M  V30 809 C 84.0577 3.61716 -3.76774 0
M  V30 810 H 85.7517 1.86395 -2.34302 0
M  V30 811 H 83.2977 0.895361 -1.1278 0
M  V30 812 H 85.2507 4.031 -1.22834 0
M  V30 813 H 83.9747 3.25587 -0.257045 0
M  V30 814 H 82.6337 2.81854 -2.34423 0
M  V30 815 H 82.2817 4.92181 -1.03765 0
M  V30 816 H 81.9817 5.17964 -2.77465 0
M  V30 817 H 83.5057 5.75486 -2.04079 0
M  V30 818 H 84.9197 4.30335 -3.78794 0
M  V30 819 H 83.3167 3.96603 -4.50362 0
M  V30 820 H 84.3867 2.61672 -4.08235 0
M  V30 821 N 85.7298 1.2412 0.971189 0
M  V30 822 C 86.9598 1.10415 1.7462 0
M  V30 823 C 87.3678 -0.346462 1.86001 0
M  V30 824 O 86.7108 -1.25104 1.34517 0
M  V30 825 C 86.7728 1.66596 3.18568 0
M  V30 826 C 86.4368 3.15446 3.3067 0
M  V30 827 C 87.4338 4.12636 3.16271 0
M  V30 828 C 85.1188 3.55337 3.55022 0
M  V30 829 C 87.1128 5.47699 3.26044 0
M  V30 830 C 84.7998 4.90542 3.64434 0
M  V30 831 C 85.7978 5.86532 3.49956 0
M  V30 832 O 85.4858 7.19279 3.59017 0
M  V30 833 H 85.2178 0.386616 0.55453 0
M  V30 834 H 87.7718 1.64633 1.22821 0
M  V30 835 H 86.0018 1.06808 3.71657 0
M  V30 836 H 87.6908 1.48232 3.77865 0
M  V30 837 H 88.4568 3.8316 2.97344 0
M  V30 838 H 84.3358 2.8113 3.65359 0
M  V30 839 H 87.8798 6.22603 3.14661 0
M  V30 840 H 83.7768 5.19691 3.82873 0
M  V30 841 H 84.5448 7.27153 3.75754 0
M  V30 842 N 87.2079 -1.17134 1.05439 0
M  V30 843 C 88.4359 -1.91372 0.786414 0
M  V30 844 C 88.8509 -1.76955 -0.658202 0
M  V30 845 O 88.2079 -1.10838 -1.44987 0
M  V30 846 C 88.2589 -3.42356 1.1608 0
M  V30 847 O 87.9799 -3.56332 2.54871 0
M  V30 848 C 89.4809 -4.33663 0.919322 0
M  V30 849 H 86.7009 -0.607118 0.285743 0
M  V30 850 H 89.2449 -1.48525 1.40572 0
M  V30 851 H 87.3999 -3.82939 0.586191 0
M  V30 852 H 87.8139 -4.49896 2.69618 0
M  V30 853 H 89.2879 -5.38099 1.231 0
M  V30 854 H 89.7649 -4.38959 -0.145359 0
M  V30 855 H 90.3709 -3.98796 1.47789 0
M  V30 856 N 88.686 -0.835752 -1.33615 0
M  V30 857 C 89.633 -0.26473 -2.29277 0
M  V30 858 C 90.603 0.617712 -1.54187 0
M  V30 859 O 91.788 0.556641 -1.825 0
M  V30 860 C 88.928 0.556777 -3.40579 0
M  V30 861 C 88.041 -0.349339 -4.30585 0
M  V30 862 C 87.176 0.482969 -5.29 0
M  V30 863 C 86.215 -0.421732 -6.10645 0
M  V30 864 N 85.352 0.372262 -7.01112 0
M  V30 865 H 90.192 -1.08582 -2.77514 0
M  V30 866 H 87.729 -0.546927 -1.36554 0
M  V30 867 H 89.687 1.04852 -4.03809 0
M  V30 868 H 88.317 1.34286 -2.93542 0
M  V30 869 H 87.369 -0.959372 -3.68104 0
M  V30 870 H 88.681 -1.04445 -4.87742 0
M  V30 871 H 87.835 1.03866 -5.97743 0
M  V30 872 H 86.574 1.21153 -4.72412 0
M  V30 873 H 85.579 -0.989464 -5.40823 0
M  V30 874 H 86.804 -1.14861 -6.69316 0
M  V30 875 H 84.75 1.08426 -6.46977 0
M  V30 876 H 84.667 -0.264198 -7.55538 0
M  V30 877 H 85.935 0.910293 -7.74167 0
M  V30 878 N 90.1641 1.46063 -0.591896 0
M  V30 879 C 91.1141 2.27458 0.157172 0
M  V30 880 C 92.0981 1.3641 0.853301 0
M  V30 881 O 93.2901 1.60517 0.74588 0
M  V30 882 C 90.4191 3.22956 1.16423 0
M  V30 883 C 89.5051 4.2149 0.469742 0
M  V30 884 N 89.8961 5.03519 -0.479839 0
M  V30 885 C 88.1941 4.40161 0.719319 0
M  V30 886 C 88.8951 5.74904 -0.886591 0
M  V30 887 N 87.8711 5.43097 -0.233731 0
M  V30 888 H 91.6731 2.88272 -0.572392 0
M  V30 889 H 89.1871 1.57024 -0.414375 0
M  V30 890 H 91.1841 3.79986 1.71513 0
M  V30 891 H 89.8441 2.63701 1.89451 0
M  V30 892 H 90.8551 5.1078 -0.855823 0
M  V30 893 H 87.5321 3.92046 1.43548 0
M  V30 894 H 88.9221 6.50844 -1.66888 0
M  V30 895 N 91.6422 0.330177 1.54103 0
M  V30 896 C 92.8902 -0.269871 2.0029 0
M  V30 897 C 93.2112 -1.52133 1.21986 0
M  V30 898 O 92.4812 -1.93212 0.323438 0
M  V30 899 H 91.0612 -0.10271 0.739905 0
M  V30 900 H 93.7232 0.448249 1.89675 0
M  V30 901 H 92.8192 -0.52166 3.07709 0
M  V30 902 N 93.1203 -1.57491 0.0584922 0
M  V30 903 C 94.3483 -1.97296 -0.623037 0
M  V30 904 C 94.7633 -0.936338 -1.63946 0
M  V30 905 O 94.1203 0.0785981 -1.82331 0
M  V30 906 C 94.1713 -3.37183 -1.30345 0
M  V30 907 O 93.8923 -4.36872 -0.32773 0
M  V30 908 C 95.3933 -3.91788 -2.07406 0
M  V30 909 H 92.6133 -0.649153 -0.169826 0
M  V30 910 H 95.1573 -2.04106 0.12696 0
M  V30 911 H 93.3123 -3.31502 -2.00463 0
M  V30 912 H 93.7263 -5.18141 -0.814269 0
M  V30 913 H 95.2003 -4.91926 -2.50425 0
M  V30 914 H 95.6773 -3.27609 -2.92521 0
M  V30 915 H 96.2833 -4.00829 -1.42184 0
M  V30 916 N 94.5984 0.214957 -1.56127 0
M  V30 917 C 95.5284 1.2695 -1.95974 0
M  V30 918 C 96.5094 1.48539 -0.828868 0
M  V30 919 O 97.6944 1.60611 -1.09168 0
M  V30 920 C 94.8244 2.61794 -2.28214 0
M  V30 921 C 93.7784 2.54851 -3.43853 0
M  V30 922 C 93.1044 3.93785 -3.61715 0
M  V30 923 C 94.4044 2.09065 -4.78632 0
M  V30 924 H 96.0984 0.93846 -2.84312 0
M  V30 925 H 93.6444 0.449996 -1.36788 0
M  V30 926 H 95.5974 3.35731 -2.54682 0
M  V30 927 H 94.3214 2.96599 -1.36736 0
M  V30 928 H 92.9804 1.8337 -3.17444 0
M  V30 929 H 92.6284 4.25908 -2.67602 0
M  V30 930 H 92.3284 3.90019 -4.39498 0
M  V30 931 H 93.8524 4.69374 -3.90539 0
M  V30 932 H 95.2664 2.7275 -5.04262 0
M  V30 933 H 93.6634 2.16346 -5.59745 0
M  V30 934 H 94.7334 1.04315 -4.73547 0
M  V30 935 N 96.0765 1.50051 0.48192 0
M  V30 936 C 97.0235 1.68122 1.58125 0
M  V30 937 C 97.9935 0.522545 1.57666 0
M  V30 938 O 99.1785 0.751844 1.75362 0
M  V30 939 C 96.3185 1.77142 2.96167 0
M  V30 940 C 95.4315 3.0444 3.06497 0
M  V30 941 C 94.5665 3.04321 4.35387 0
M  V30 942 C 93.6055 4.26118 4.3942 0
M  V30 943 N 92.7425 4.238 5.59766 0
M  V30 944 H 97.5825 2.6198 1.42022 0
M  V30 945 H 95.1195 1.29877 0.690687 0
M  V30 946 H 97.0775 1.80352 3.76203 0
M  V30 947 H 95.7075 0.867329 3.1093 0
M  V30 948 H 94.7595 3.10752 2.19402 0
M  V30 949 H 96.0715 3.94426 3.05336 0
M  V30 950 H 95.2255 3.062 5.23762 0
M  V30 951 H 93.9645 2.12147 4.39141 0
M  V30 952 H 92.9695 4.24463 3.49444 0
M  V30 953 H 94.1945 5.19507 4.37366 0
M  V30 954 H 92.1405 3.34474 5.64326 0
M  V30 955 H 92.0575 5.07542 5.60301 0
M  V30 956 H 93.3255 4.2981 6.50295 0
M  V30 957 N 97.5546 -0.734337 1.39446 0
M  V30 958 C 98.7846 -1.52137 1.39778 0
M  V30 959 C 99.1926 -1.89198 -0.00929312 0
M  V30 960 O 98.5356 -1.54666 -0.991168 0
M  V30 961 C 98.5976 -2.83762 2.20724 0
M  V30 962 C 98.2616 -2.69131 3.69347 0
M  V30 963 C 99.2586 -2.37635 4.62413 0
M  V30 964 C 96.9436 -2.85982 4.1294 0
M  V30 965 C 98.9376 -2.23172 5.97054 0
M  V30 966 C 96.6246 -2.71137 5.47657 0
M  V30 967 C 97.6226 -2.39777 6.39528 0
M  V30 968 O 97.3106 -2.25026 7.71763 0
M  V30 969 H 97.0426 -0.476717 0.479288 0
M  V30 970 H 99.5966 -0.915012 1.83893 0
M  V30 971 H 97.8266 -3.4666 1.71359 0
M  V30 972 H 99.5156 -3.45383 2.13226 0
M  V30 973 H 100.282 -2.24267 4.30034 0
M  V30 974 H 96.1606 -3.09383 3.41765 0
M  V30 975 H 99.7046 -1.98617 6.68728 0
M  V30 976 H 95.6016 -2.84083 5.79626 0
M  V30 977 H 96.3696 -2.40091 7.82495 0
M  V30 978 N 99.0327 -1.24633 -0.964593 0
M  V30 979 C 99.9647 -0.999302 -2.06268 0
M  V30 980 C 100.978 0.0323226 -1.62768 0
M  V30 981 O 102.167 -0.205079 -1.77318 0
M  V30 982 C 99.2667 -0.486816 -3.35385 0
M  V30 983 C 98.4397 -1.5823 -4.07777 0
M  V30 984 C 97.4987 -1.07191 -5.15166 0
M  V30 985 O 96.5247 -1.76426 -5.41168 0
M  V30 986 N 97.7267 0.0920373 -5.80427 0
M  V30 987 H 100.492 -1.94477 -2.28033 0
M  V30 988 H 98.0527 -1.15704 -1.13244 0
M  V30 989 H 100.045 -0.130066 -4.04491 0
M  V30 990 H 98.6147 0.364459 -3.10468 0
M  V30 991 H 97.8347 -2.11109 -3.32906 0
M  V30 992 H 99.1227 -2.31854 -4.52903 0
M  V30 993 H 98.5207 0.670784 -5.61709 0
M  V30 994 H 97.0777 0.389905 -6.50633 0
M  V30 995 N 100.511 1.16574 -1.06058 0
M  V30 996 C 101.739 1.90952 -0.796552 0
M  V30 997 C 102.154 1.77302 0.648808 0
M  V30 998 O 101.511 1.11605 1.44397 0
M  V30 999 C 101.562 3.41736 -1.17894 0
M  V30 1000 O 101.283 3.54975 -2.56758 0
M  V30 1001 C 102.784 4.33169 -0.942308 0
M  V30 1002 H 100.004 0.605594 -0.288959 0
M  V30 1003 H 102.548 1.47777 -1.41358 0
M  V30 1004 H 100.703 3.82623 -0.606491 0
M  V30 1005 H 101.117 4.4846 -2.72 0
M  V30 1006 H 102.591 5.37439 -1.25952 0
M  V30 1007 H 103.068 4.3903 0.122078 0
M  V30 1008 H 103.674 3.98007 -1.49902 0
M  V30 1009 N 101.989 0.842826 1.3317 0
M  V30 1010 C 103.266 0.362216 1.92217 0
M  V30 1011 C 103.646 -1.15289 1.76838 0
M  V30 1012 O 102.994 -1.96914 1.15919 0
M  V30 1013 C 103.204 0.813495 3.39387 0
M  V30 1014 C 104.552 0.823804 4.16532 0
M  V30 1015 O 105.576 0.757358 3.48055 0
M  V30 1016 O 104.435 0.915193 5.38782 0
M  V30 1017 H 101.529 0.103317 0.820521 0
M  V30 1018 H 104.075 0.928942 1.42017 0
M  V30 1019 H 102.847 1.85624 3.4447 0
M  V30 1020 H 102.47 0.223561 3.96971 0
M  V30 1021 N 103.467 -1.45747 0.599634 0
M  V30 1022 C 104.707 -2.04181 0.0946309 0
M  V30 1023 C 105.071 -1.45895 -1.24815 0
M  V30 1024 O 106.272 -1.95633 -1.8434 0
M  V30 1025 C 104.543 -3.57368 0.047581 0
M  V30 1026 S 106.102 -4.36997 -0.397387 0
M  V30 1027 H 102.92 -0.70953 0.0456954 0
M  V30 1028 H 105.522 -1.78564 0.795946 0
M  V30 1029 H 104.226 -3.97303 1.02852 0
M  V30 1030 H 103.757 -3.87549 -0.675977 0
M  V30 1031 H 105.772 -4.68012 -1.64862 0
M  V30 1032 N 104.945 -0.338344 -1.53925 0
M  V30 1033 C 105.908 0.508299 -2.23493 0
M  V30 1034 C 106.908 1.03175 -1.23335 0
M  V30 1035 O 108.098 0.921826 -1.47811 0
M  V30 1036 C 105.23 1.70754 -2.95052 0
M  V30 1037 H 106.423 -0.100058 -2.99733 0
M  V30 1038 H 103.976 -0.0896198 -1.56043 0
M  V30 1039 H 104.711 2.35474 -2.22986 0
M  V30 1040 H 104.496 1.33946 -3.68512 0
M  V30 1041 H 105.986 2.30818 -3.48013 0
M  V30 1042 N 106.423 1.57458 -0.0668435 0
M  V30 1043 C 107.834 1.80776 0.466558 0
M  V30 1044 C 108.185 0.980361 1.69951 0
M  V30 1045 O 107.31 0.201441 2.1546 0
M  V30 1046 C 107.905 3.27881 0.85321 0
M  V30 1047 C 106.464 3.52062 1.3315 0
M  V30 1048 C 105.611 2.75513 0.314264 0
M  V30 1049 H 108.562 1.5598 -0.292588 0
M  V30 1050 H 108.583 3.39659 1.715 0
M  V30 1051 H 108.095 3.88075 -0.0443439 0
M  V30 1052 H 106.196 2.97167 2.24772 0
M  V30 1053 H 106.309 4.60762 1.31285 0
M  V30 1054 H 104.673 2.42123 0.790492 0
M  V30 1055 H 105.456 3.38442 -0.575477 0
M  V30 1056 N 107.901 -0.206675 1.56239 0
M  V30 1057 C 108.849 -1.27571 1.94495 0
M  V30 1058 C 109.843 -1.47737 0.828862 0
M  V30 1059 O 111.049 -1.48735 1.0138 0
M  V30 1060 H 107.424 -0.428029 0.6183 0
M  V30 1061 H 109.395 -0.925961 2.8367 0
M  V30 1062 C 108.144 -2.61568 2.29079 0
M  V30 1063 H 107.467 -2.46863 3.14482 0
M  V30 1064 H 108.907 -3.35144 2.5972 0
M  V30 1065 C 107.366 -3.17695 1.12123 0
M  V30 1066 O 107.896 -3.99801 0.390153 0
M  V30 1067 N 106.102 -2.76276 0.901097 0
M  V30 1068 H 105.649 -2.09613 1.49733 0
M  V30 1069 H 105.607 -3.1417 0.120319 0
M  V30 1070 N 109.379 -1.50304 -0.473955 0
M  V30 1071 C 110.327 -1.69482 -1.59307 0
M  V30 1072 C 111.321 -0.560669 -1.59853 0
M  V30 1073 O 112.527 -0.741087 -1.64036 0
M  V30 1074 H 108.902 -0.534892 -0.528578 0
M  V30 1075 H 110.873 -2.63364 -1.40293 0
M  V30 1076 C 109.622 -1.80354 -2.97267 0
M  V30 1077 H 108.945 -2.67012 -2.97564 0
M  V30 1078 H 110.385 -1.97798 -3.75036 0
M  V30 1079 C 108.844 -0.55448 -3.32306 0
M  V30 1080 O 109.374 0.307661 -4.0052 0
M  V30 1081 N 107.58 -0.409354 -2.87702 0
M  V30 1082 H 107.127 -1.11196 -2.32364 0
M  V30 1083 H 107.085 0.425223 -3.11511 0
M  V30 1084 N 110.857 0.726932 -1.39834 0
M  V30 1085 C 112.105 1.4837 -1.37225 0
M  V30 1086 C 112.426 1.94979 0.0284857 0
M  V30 1087 O 111.696 1.69555 0.981213 0
M  V30 1088 H 110.276 0.55043 -0.505011 0
M  V30 1089 H 112.938 0.862468 -1.74778 0
M  V30 1090 H 112.034 2.36198 -2.04003 0
M  V30 1091 N 112.336 1.25143 0.95797 0
M  V30 1092 C 113.566 1.12261 1.73439 0
M  V30 1093 C 113.974 -0.326715 1.86358 0
M  V30 1094 O 113.317 -1.2367 1.35836 0
M  V30 1095 C 113.379 1.69966 3.16784 0
M  V30 1096 C 113.043 3.18936 3.27305 0
M  V30 1097 C 114.04 4.15968 3.11877 0
M  V30 1098 C 111.725 3.59083 3.51234 0
M  V30 1099 C 113.719 5.51126 3.20217 0
M  V30 1100 C 111.406 4.9438 3.5921 0
M  V30 1101 C 112.404 5.90211 3.43716 0
M  V30 1102 O 112.092 7.23046 3.51368 0
M  V30 1103 H 111.824 0.392476 0.550399 0
M  V30 1104 H 114.378 1.65927 1.21068 0
M  V30 1105 H 112.608 1.10744 3.70503 0
M  V30 1106 H 114.297 1.52232 3.76272 0
M  V30 1107 H 115.063 3.86292 2.93264 0
M  V30 1108 H 110.942 2.84989 3.62356 0
M  V30 1109 H 114.486 6.25905 3.0804 0
M  V30 1110 H 110.383 5.23723 3.77339 0
M  V30 1111 H 111.151 7.31097 3.6802 0
M  V30 1112 N 113.814 -1.1601 1.06675 0
M  V30 1113 C 115.061 -1.86633 0.785781 0
M  V30 1114 C 115.389 -1.81929 -0.687896 0
M  V30 1115 O 114.644 -1.23253 -1.52011 0
M  V30 1116 C 114.943 -3.35547 1.23057 0
M  V30 1117 C 114.609 -3.60448 2.70902 0
M  V30 1118 C 113.271 -3.66954 3.11285 0
M  V30 1119 C 115.623 -3.7071 3.66365 0
M  V30 1120 C 112.951 -3.81225 4.45965 0
M  V30 1121 C 115.303 -3.86503 5.00797 0
M  V30 1122 C 113.967 -3.91252 5.40813 0
M  V30 1123 H 113.237 -0.682937 0.287538 0
M  V30 1124 H 115.884 -1.37146 1.33654 0
M  V30 1125 H 114.189 -3.87193 0.59907 0
M  V30 1126 H 115.886 -3.88583 0.990163 0
M  V30 1127 H 112.476 -3.56021 2.38636 0
M  V30 1128 H 116.66 -3.64991 3.36296 0
M  V30 1129 H 111.916 -3.83155 4.76447 0
M  V30 1130 H 116.09 -3.93385 5.74649 0
M  V30 1131 H 113.717 -4.02062 6.45174 0
M  V30 1132 N 115.292 -0.849877 -1.32721 0
M  V30 1133 C 116.225 -0.235903 -2.26977 0
M  V30 1134 C 117.203 0.623355 -1.50177 0
M  V30 1135 O 118.387 0.581207 -1.79316 0
M  V30 1136 C 115.514 0.667712 -3.32053 0
M  V30 1137 C 114.56 -0.11753 -4.26338 0
M  V30 1138 S 115.393 -1.48277 -5.14562 0
M  V30 1139 C 116.549 -0.584741 -6.23163 0
M  V30 1140 H 116.782 -1.03495 -2.78704 0
M  V30 1141 H 114.315 -0.64724 -1.40179 0
M  V30 1142 H 116.273 1.18343 -3.93072 0
M  V30 1143 H 114.934 1.44052 -2.7912 0
M  V30 1144 H 114.127 0.57051 -5.00761 0
M  V30 1145 H 113.729 -0.564668 -3.69713 0
M  V30 1146 H 116.021 0.212968 -6.77165 0
M  V30 1147 H 116.964 -1.29947 -6.96074 0
M  V30 1148 H 117.372 -0.161202 -5.6427 0
M  V30 1149 N 116.77 1.45427 -0.607355 0
M  V30 1150 C 118.019 2.01452 -0.100036 0
M  V30 1151 C 118.332 1.48159 1.27704 0
M  V30 1152 O 119.538 1.96159 1.87707 0
M  V30 1153 C 117.994 3.59672 -0.128158 0
M  V30 1154 C 117.602 4.21962 -1.50507 0
M  V30 1155 C 119.346 4.23262 0.323932 0
M  V30 1156 C 117.253 5.72333 -1.48959 0
M  V30 1157 H 116.183 0.75325 -0.0336299 0
M  V30 1158 H 118.834 1.66901 -0.76265 0
M  V30 1159 H 117.216 3.91411 0.601105 0
M  V30 1160 H 118.39 4.01796 -2.25602 0
M  V30 1161 H 116.705 3.70565 -1.89923 0
M  V30 1162 H 119.302 5.33522 0.354691 0
M  V30 1163 H 119.645 3.93921 1.34656 0
M  V30 1164 H 120.178 3.96239 -0.352056 0
M  V30 1165 H 116.917 6.06373 -2.48981 0
M  V30 1166 H 116.437 5.94691 -0.781214 0
M  V30 1167 H 118.116 6.35525 -1.21313 0
M  V30 1168 N 118.248 0.346503 1.53744 0
M  V30 1169 C 119.659 -0.136779 1.86198 0
M  V30 1170 C 120.01 -1.49749 1.26766 0
M  V30 1171 O 119.135 -2.08417 0.582355 0
M  V30 1172 C 119.73 -0.254966 3.37839 0
M  V30 1173 C 118.289 -0.682482 3.70161 0
M  V30 1174 C 117.436 0.181981 2.76702 0
M  V30 1175 H 120.387 0.565994 1.48264 0
M  V30 1176 H 120.408 -1.08195 3.64793 0
M  V30 1177 H 119.92 0.735526 3.81066 0
M  V30 1178 H 118.021 -1.68189 3.3248 0
M  V30 1179 H 118.134 -0.470326 4.76786 0
M  V30 1180 H 116.498 -0.34615 2.52337 0
M  V30 1181 H 117.281 1.16966 3.2276 0
M  V30 1182 N 119.726 -1.57421 0.075193 0
M  V30 1183 C 120.656 -2.15942 -0.888324 0
M  V30 1184 C 121.637 -1.08737 -1.30806 0
M  V30 1185 O 122.822 -1.36787 -1.37851 0
M  V30 1186 C 119.952 -2.72379 -2.1547 0
M  V30 1187 C 118.906 -3.8478 -1.87425 0
M  V30 1188 C 118.232 -4.27834 -3.20721 0
M  V30 1189 C 119.532 -5.08869 -1.17684 0
M  V30 1190 H 121.226 -2.96705 -0.400799 0
M  V30 1191 H 118.772 -1.42723 -0.191342 0
M  V30 1192 H 120.725 -3.11965 -2.83295 0
M  V30 1193 H 119.449 -1.88841 -2.6647 0
M  V30 1194 H 118.108 -3.45703 -1.22004 0
M  V30 1195 H 117.756 -3.41214 -3.6957 0
M  V30 1196 H 117.456 -5.03605 -3.02746 0
M  V30 1197 H 118.98 -4.70039 -3.89738 0
M  V30 1198 H 120.394 -5.4575 -1.75584 0
M  V30 1199 H 118.791 -5.8994 -1.09956 0
M  V30 1200 H 119.861 -4.84648 -0.156453 0
M  V30 1201 N 121.204 0.198386 -1.56346 0
M  V30 1202 C 122.434 0.934215 -1.84271 0
M  V30 1203 C 122.842 1.77496 -0.655125 0
M  V30 1204 O 122.185 1.7961 0.385488 0
M  V30 1205 C 122.247 1.88278 -3.06254 0
M  V30 1206 C 121.911 1.22431 -4.40295 0
M  V30 1207 C 122.908 0.602839 -5.16393 0
M  V30 1208 C 120.593 1.22915 -4.87029 0
M  V30 1209 C 122.587 -0.0050083 -6.374 0
M  V30 1210 C 120.274 0.617465 -6.07973 0
M  V30 1211 C 121.272 0.00146341 -6.83 0
M  V30 1212 O 120.96 -0.600642 -8.01653 0
M  V30 1213 H 120.692 0.278245 -0.616081 0
M  V30 1214 H 123.246 0.211626 -2.04307 0
M  V30 1215 H 121.476 2.64498 -2.82095 0
M  V30 1216 H 123.165 2.48612 -3.20853 0
M  V30 1217 H 123.931 0.591265 -4.81382 0
M  V30 1218 H 119.81 1.69801 -4.28589 0
M  V30 1219 H 123.354 -0.48643 -6.95902 0
M  V30 1220 H 119.251 0.62653 -6.42452 0
M  V30 1221 H 120.019 -0.497225 -8.16988 0
M  V30 1222 N 122.682 1.50554 0.465978 0
M  V30 1223 C 123.959 1.5232 1.22712 0
M  V30 1224 C 124.339 0.270807 2.09356 0
M  V30 1225 O 123.687 -0.745541 2.15995 0
M  V30 1226 C 123.897 2.82175 2.05374 0
M  V30 1227 C 125.245 3.33033 2.6339 0
M  V30 1228 O 126.269 2.83531 2.15612 0
M  V30 1229 O 125.128 4.19336 3.50456 0
M  V30 1230 H 122.222 0.611183 0.557122 0
M  V30 1231 H 124.768 1.62847 0.477381 0
M  V30 1232 H 123.54 3.64797 1.41558 0
M  V30 1233 H 123.163 2.74675 2.87471 0
M  V30 1234 N 124.16 -0.719506 1.40217 0
M  V30 1235 C 125.107 -1.83359 1.40172 0
M  V30 1236 C 126.077 -1.64065 0.259206 0
M  V30 1237 O 127.262 -1.85254 0.456677 0
M  V30 1238 C 124.402 -3.2103 1.26624 0
M  V30 1239 C 123.515 -3.51923 2.50548 0
M  V30 1240 C 122.65 -4.79079 2.29471 0
M  V30 1241 C 121.689 -5.02863 3.48992 0
M  V30 1242 N 120.826 -6.2123 3.27135 0
M  V30 1243 H 125.666 -1.82733 2.35399 0
M  V30 1244 H 123.203 -0.892688 1.16917 0
M  V30 1245 H 125.161 -4.00524 1.16776 0
M  V30 1246 H 123.791 -3.20895 0.350176 0
M  V30 1247 H 122.843 -2.67014 2.70939 0
M  V30 1248 H 124.155 -3.6541 3.39525 0
M  V30 1249 H 123.309 -5.66582 2.16955 0
M  V30 1250 H 122.048 -4.67794 1.37913 0
M  V30 1251 H 121.053 -4.13816 3.6199 0
M  V30 1252 H 122.278 -5.16023 4.41472 0
M  V30 1253 H 120.224 -6.11204 2.38256 0
M  V30 1254 H 120.141 -6.35375 4.09675 0
M  V30 1255 H 121.409 -7.11532 3.18344 0
M  V30 1256 N 125.638 -1.25649 -0.95132 0
M  V30 1257 C 126.886 -1.10375 -1.69298 0
M  V30 1258 C 127.207 0.355339 -1.91735 0
M  V30 1259 O 126.477 1.25188 -1.50681 0
M  V30 1260 H 125.057 -0.405461 -0.627384 0
M  V30 1261 H 127.719 -1.57823 -1.14358 0
M  V30 1262 H 126.815 -1.61465 -2.67087 0
M  V30 1263 N 127.117 1.15442 -1.07289 0
M  V30 1264 C 128.394 1.82306 -0.708792 0
M  V30 1265 C 128.774 1.94991 0.808807 0
M  V30 1266 O 128.122 1.50085 1.72298 0
M  V30 1267 C 128.332 3.18695 -1.42247 0
M  V30 1268 C 129.68 3.94341 -1.57417 0
M  V30 1269 O 130.704 3.28247 -1.38319 0
M  V30 1270 O 129.563 5.12839 -1.88834 0
M  V30 1271 H 126.657 0.787628 -0.252132 0
M  V30 1272 H 129.203 1.22559 -1.17377 0
M  V30 1273 H 127.975 3.04557 -2.45684 0
M  V30 1274 H 127.598 3.86128 -0.948223 0
M  V30 1275 N 128.595 0.856903 1.32268 0
M  V30 1276 C 129.842 0.461386 1.97174 0
M  V30 1277 C 130.17 -0.983491 1.67803 0
M  V30 1278 O 129.425 -1.70541 0.959903 0
M  V30 1279 C 129.724 0.649919 3.51441 0
M  V30 1280 C 129.39 2.0656 4.00804 0
M  V30 1281 C 128.052 2.45279 4.13995 0
M  V30 1282 C 130.404 2.98947 4.26943 0
M  V30 1283 C 127.732 3.75653 4.50668 0
M  V30 1284 C 130.084 4.28822 4.65075 0
M  V30 1285 C 128.748 4.67472 4.76472 0
M  V30 1286 H 128.018 0.168833 0.72151 0
M  V30 1287 H 130.665 1.08739 1.57633 0
M  V30 1288 H 128.97 -0.0593018 3.91755 0
M  V30 1289 H 130.667 0.32391 3.9969 0
M  V30 1290 H 127.257 1.75495 3.91024 0
M  V30 1291 H 131.441 2.70265 4.16258 0
M  V30 1292 H 126.697 4.05379 4.57688 0
M  V30 1293 H 130.871 5.0047 4.84255 0
M  V30 1294 H 128.498 5.68539 5.04646 0
M  V30 1295 N 130.073 -1.45103 0.615059 0
M  V30 1296 C 131.322 -2.01396 0.110718 0
M  V30 1297 C 131.635 -1.48834 -1.26916 0
M  V30 1298 O 132.841 -1.97152 -1.86664 0
M  V30 1299 C 131.297 -3.59599 0.14723 0
M  V30 1300 C 130.905 -4.21158 1.52743 0
M  V30 1301 C 132.649 -4.23428 -0.30148 0
M  V30 1302 C 130.556 -5.71535 1.51992 0
M  V30 1303 H 129.486 -0.753061 0.0376241 0
M  V30 1304 H 132.137 -1.66494 0.77149 0
M  V30 1305 H 130.519 -3.91724 -0.580339 0
M  V30 1306 H 131.693 -4.00594 2.2773 0
M  V30 1307 H 130.008 -3.69552 1.91886 0
M  V30 1308 H 132.605 -5.33703 -0.326392 0
M  V30 1309 H 132.948 -3.94629 -1.32565 0
M  V30 1310 H 133.481 -3.96047 0.373065 0
M  V30 1311 H 130.22 -6.05044 2.52193 0
M  V30 1312 H 129.74 -5.94268 0.81274 0
M  V30 1313 H 131.419 -6.34873 1.24681 0
M  V30 1314 N 131.551 -0.354651 -1.53558 0
M  V30 1315 C 132.481 0.489091 -2.2832 0
M  V30 1316 C 133.462 1.09324 -1.30316 0
M  V30 1317 O 134.647 1.11255 -1.59173 0
M  V30 1318 C 131.777 1.63456 -3.0643 0
M  V30 1319 C 130.731 1.1582 -4.12031 0
M  V30 1320 C 130.057 2.39305 -4.7816 0
M  V30 1321 C 131.357 0.250731 -5.21698 0
M  V30 1322 H 133.051 -0.134614 -2.99097 0
M  V30 1323 H 130.597 -0.0661826 -1.43848 0
M  V30 1324 H 132.55 2.23136 -3.57475 0
M  V30 1325 H 131.274 2.28533 -2.33325 0
M  V30 1326 H 129.933 0.584146 -3.61916 0
M  V30 1327 H 129.581 3.02814 -4.01637 0
M  V30 1328 H 129.281 2.08109 -5.49513 0
M  V30 1329 H 130.805 2.99691 -5.31994 0
M  V30 1330 H 132.219 0.754695 -5.68311 0
M  V30 1331 H 130.616 0.0301468 -6.00092 0
M  V30 1332 H 131.686 -0.710125 -4.79672 0
M  V30 1333 N 133.029 1.57378 -0.0835403 0
M  V30 1334 C 133.976 2.13384 0.879539 0
M  V30 1335 C 134.946 1.04936 1.28754 0
M  V30 1336 O 136.131 1.32662 1.37133 0
M  V30 1337 C 133.271 2.70932 2.13752 0
M  V30 1338 C 132.384 3.93575 1.7811 0
M  V30 1339 C 131.519 4.39326 2.98607 0
M  V30 1340 C 130.558 5.54587 2.59037 0
M  V30 1341 N 129.695 5.95243 3.72331 0
M  V30 1342 H 134.535 2.9537 0.395076 0
M  V30 1343 H 132.072 1.45953 0.183349 0
M  V30 1344 H 134.03 3.02411 2.87408 0
M  V30 1345 H 132.66 1.91693 2.59718 0
M  V30 1346 H 131.712 3.68483 0.94469 0
M  V30 1347 H 133.024 4.77258 1.45005 0
M  V30 1348 H 132.178 4.72528 3.80529 0
M  V30 1349 H 130.917 3.5452 3.34913 0
M  V30 1350 H 129.922 5.21024 1.75539 0
M  V30 1351 H 131.147 6.41133 2.23887 0
M  V30 1352 H 129.093 5.13385 4.08378 0
M  V30 1353 H 129.01 6.73694 3.43034 0
M  V30 1354 H 130.278 6.33072 4.54797 0
M  V30 1355 N 134.507 -0.190092 1.56449 0
M  V30 1356 C 135.756 -0.907912 1.80111 0
M  V30 1357 C 136.069 -1.84214 0.657619 0
M  V30 1358 O 137.275 -2.60094 0.778663 0
M  V30 1359 C 135.731 -1.66485 3.19078 0
M  V30 1360 C 135.339 -0.7752 4.41242 0
M  V30 1361 C 137.083 -2.37201 3.52045 0
M  V30 1362 C 134.99 -1.53129 5.71231 0
M  V30 1363 H 133.92 -0.34276 0.671589 0
M  V30 1364 H 136.571 -0.161109 1.82791 0
M  V30 1365 H 134.953 -2.45572 3.10661 0
M  V30 1366 H 136.127 -0.0226298 4.60794 0
M  V30 1367 H 134.442 -0.178627 4.16017 0
M  V30 1368 H 137.039 -2.94329 4.46402 0
M  V30 1369 H 137.382 -3.11632 2.76028 0
M  V30 1370 H 137.915 -1.65075 3.61932 0
M  V30 1371 H 134.654 -0.82967 6.50228 0
M  V30 1372 H 134.174 -2.25767 5.55688 0
M  V30 1373 H 135.853 -2.08377 6.12526 0
M  V30 1374 N 135.985 -1.50799 -0.457987 0
M  V30 1375 C 136.895 -1.73426 -1.57989 0
M  V30 1376 C 137.911 -0.617745 -1.62665 0
M  V30 1377 O 139.087 -0.897614 -1.80291 0
M  V30 1378 C 136.152 -1.83557 -2.94122 0
M  V30 1379 C 135.213 -3.07345 -2.99729 0
M  V30 1380 C 134.446 -3.16983 -4.29368 0
M  V30 1381 O 134.669 -2.33077 -5.20607 0
M  V30 1382 O 133.603 -4.09812 -4.40837 0
M  V30 1383 H 137.429 -2.68555 -1.41817 0
M  V30 1384 H 135.014 -1.35052 -0.638859 0
M  V30 1385 H 136.896 -1.92326 -3.74952 0
M  V30 1386 H 135.571 -0.916137 -3.10465 0
M  V30 1387 H 134.478 -3.04068 -2.1793 0
M  V30 1388 H 135.811 -3.9891 -2.88326 0
M  V30 1389 N 137.463 0.71206 -1.40597 0
M  V30 1390 C 138.874 1.29135 -1.34837 0
M  V30 1391 C 139.225 1.96186 -0.0235395 0
M  V30 1392 O 138.35 1.97768 0.878444 0
M  V30 1393 C 138.945 2.34827 -2.44217 0
M  V30 1394 C 137.504 2.88371 -2.41907 0
M  V30 1395 C 136.651 1.62202 -2.24913 0
M  V30 1396 H 139.602 0.507944 -1.50352 0
M  V30 1397 H 139.623 3.15749 -2.12327 0
M  V30 1398 H 139.135 1.85996 -3.40627 0
M  V30 1399 H 137.236 3.41422 -1.49204 0
M  V30 1400 H 137.349 3.39925 -3.37621 0
M  V30 1401 H 135.713 1.874 -1.72492 0
M  V30 1402 H 136.496 1.15391 -3.23326 0
M  V30 1403 N 138.941 1.26152 0.944643 0
M  V30 1404 C 140.352 1.10454 1.50522 0
M  V30 1405 C 140.703 -0.31635 1.93633 0
M  V30 1406 O 139.828 -1.20746 1.79581 0
M  V30 1407 C 140.423 1.99891 2.73549 0
M  V30 1408 C 138.982 1.88348 3.25886 0
M  V30 1409 C 138.129 1.93447 1.9868 0
M  V30 1410 H 141.08 1.39292 0.760489 0
M  V30 1411 H 141.101 1.54477 3.47732 0
M  V30 1412 H 140.613 3.03297 2.42141 0
M  V30 1413 H 138.714 0.878636 3.62092 0
M  V30 1414 H 138.827 2.73696 3.93227 0
M  V30 1415 H 137.191 1.37456 2.14425 0
M  V30 1416 H 137.974 2.98476 1.69607 0
M  V30 1417 N 140.419 -1.14872 1.07899 0
M  V30 1418 C 141.349 -2.2193 0.725887 0
M  V30 1419 C 142.33 -1.67622 -0.28927 0
M  V30 1420 O 143.515 -1.93533 -0.160787 0
M  V30 1421 C 140.645 -3.47061 0.128856 0
M  V30 1422 C 139.599 -4.14363 1.07178 0
M  V30 1423 C 138.925 -5.33636 0.337229 0
M  V30 1424 C 140.225 -4.63492 2.40775 0
M  V30 1425 H 141.919 -2.51724 1.62097 0
M  V30 1426 H 139.465 -1.20991 0.780838 0
M  V30 1427 H 141.418 -4.21199 -0.130147 0
M  V30 1428 H 140.142 -3.16617 -0.80134 0
M  V30 1429 H 138.801 -3.42173 1.3158 0
M  V30 1430 H 138.449 -4.99449 -0.596606 0
M  V30 1431 H 138.149 -5.79609 0.965788 0
M  V30 1432 H 139.673 -6.10539 0.0861567 0
M  V30 1433 H 141.087 -5.2913 2.20669 0
M  V30 1434 H 139.484 -5.20148 2.99276 0
M  V30 1435 H 140.554 -3.78834 3.02676 0
M  V30 1436 N 141.898 -0.863906 -1.31812 0
M  V30 1437 C 143.146 -0.470904 -1.96537 0
M  V30 1438 C 143.467 0.978771 -1.68657 0
M  V30 1439 O 142.737 1.6853 -0.998717 0
M  V30 1440 H 141.317 -0.171148 -0.72713 0
M  V30 1441 H 143.979 -1.10236 -1.60729 0
M  V30 1442 H 143.075 -0.623616 -3.05806 0
M  V30 1443 N 143.376 1.44774 -0.622745 0
M  V30 1444 C 144.622 2.02968 -0.13257 0
M  V30 1445 C 144.977 1.48047 1.22881 0
M  V30 1446 O 144.27 0.651625 1.80179 0
M  V30 1447 C 144.464 3.57364 -0.0508323 0
M  V30 1448 C 144.293 4.27262 -1.40275 0
M  V30 1449 C 143.063 4.64577 -1.98737 0
M  V30 1450 C 145.261 4.58248 -2.3348 0
M  V30 1451 N 143.243 5.19404 -3.27251 0
M  V30 1452 C 144.614 5.14069 -3.46603 0
M  V30 1453 C 146.669 4.40195 -2.32664 0
M  V30 1454 C 145.372 5.53738 -4.59093 0
M  V30 1455 C 147.398 4.80907 -3.44213 0
M  V30 1456 C 146.76 5.36834 -4.56058 0
M  V30 1457 H 142.859 0.776541 -0.0922354 0
M  V30 1458 H 145.443 1.76385 -0.82441 0
M  V30 1459 H 143.614 3.83576 0.610265 0
M  V30 1460 H 145.346 4.02219 0.447397 0
M  V30 1461 H 142.101 4.48622 -1.51774 0
M  V30 1462 H 142.525 5.51301 -3.92933 0
M  V30 1463 H 147.167 3.96257 -1.47446 0
M  V30 1464 H 144.885 5.96635 -5.45025 0
M  V30 1465 H 148.471 4.68659 -3.44747 0
M  V30 1466 H 147.351 5.67755 -5.40947 0
M  V30 1467 N 144.854 0.36279 1.53368 0
M  V30 1468 C 146.079 -0.231226 2.06107 0
M  V30 1469 C 146.504 -1.419 1.23474 0
M  V30 1470 O 145.862 -1.79524 0.253128 0
M  V30 1471 C 145.91 -0.605523 3.5548 0
M  V30 1472 O 145.014 -1.70312 3.7559 0
M  V30 1473 H 144.355 -0.034327 0.663112 0
M  V30 1474 H 146.885 0.522584 1.97814 0
M  V30 1475 H 146.895 -0.877314 3.98456 0
M  V30 1476 H 145.57 0.263004 4.15068 0
M  V30 1477 H 144.147 -1.4271 3.44512 0
M  V30 1478 N 146.332 -1.57332 0.0918853 0
M  V30 1479 C 147.579 -1.94236 -0.572577 0
M  V30 1480 C 147.907 -0.973398 -1.6839 0
M  V30 1481 O 147.162 0.00756912 -1.95699 0
M  V30 1482 C 147.461 -3.37689 -1.17051 0
M  V30 1483 C 147.127 -4.50527 -0.183304 0
M  V30 1484 C 145.789 -4.81119 0.0882276 0
M  V30 1485 C 148.141 -5.18883 0.49095 0
M  V30 1486 C 145.469 -5.77395 1.04076 0
M  V30 1487 C 147.821 -6.1618 1.43193 0
M  V30 1488 C 146.485 -6.45179 1.71173 0
M  V30 1489 H 145.755 -0.710762 -0.209521 0
M  V30 1490 H 148.402 -1.9077 0.167036 0
M  V30 1491 H 146.707 -3.37718 -1.9863 0
M  V30 1492 H 148.404 -3.63543 -1.69227 0
M  V30 1493 H 144.994 -4.26681 -0.405124 0
M  V30 1494 H 149.178 -4.95427 0.294312 0
M  V30 1495 H 144.434 -5.98179 1.26457 0
M  V30 1496 H 148.608 -6.68243 1.96023 0
M  V30 1497 H 146.235 -7.1959 2.4514 0
M  V30 1498 N 147.81 0.181792 -1.56548 0
M  V30 1499 C 148.72 1.24538 -1.98815 0
M  V30 1500 C 149.736 1.49045 -0.897861 0
M  V30 1501 O 150.912 1.61399 -1.20467 0
M  V30 1502 C 147.977 2.56683 -2.33055 0
M  V30 1503 C 147.038 2.40131 -3.55859 0
M  V30 1504 C 146.271 3.65975 -3.88456 0
M  V30 1505 O 146.494 4.70711 -3.22161 0
M  V30 1506 O 145.428 3.6071 -4.81842 0
M  V30 1507 H 149.254 0.916647 -2.89536 0
M  V30 1508 H 146.839 0.387842 -1.44278 0
M  V30 1509 H 148.721 3.34655 -2.56094 0
M  V30 1510 H 147.396 2.89157 -1.45498 0
M  V30 1511 H 146.303 1.60226 -3.38051 0
M  V30 1512 H 147.636 2.12585 -4.43924 0
M  V30 1513 N 149.288 1.51039 0.449983 0
M  V30 1514 C 150.699 1.557 1.03026 0
M  V30 1515 C 151.05 0.372939 1.92623 0
M  V30 1516 O 150.175 -0.511771 2.10261 0
M  V30 1517 C 150.77 2.82171 1.87523 0
M  V30 1518 C 149.329 2.89444 2.40622 0
M  V30 1519 C 148.476 2.50228 1.19504 0
M  V30 1520 H 151.427 1.56999 0.231745 0
M  V30 1521 H 151.448 2.65219 2.72835 0
M  V30 1522 H 150.96 3.68331 1.22286 0
M  V30 1523 H 149.061 2.07685 3.0935 0
M  V30 1524 H 149.174 3.92816 2.74285 0
M  V30 1525 H 147.538 2.03139 1.53644 0
M  V30 1526 H 148.321 3.38719 0.558972 0
M  V30 1527 N 150.766 -0.704594 1.40972 0
M  V30 1528 C 151.994 -1.49354 1.43182 0
M  V30 1529 C 152.409 -1.88768 0.0345508 0
M  V30 1530 O 151.766 -1.56184 -0.944081 0
M  V30 1531 C 151.817 -2.76187 2.33244 0
M  V30 1532 O 151.538 -2.38436 3.67532 0
M  V30 1533 C 153.039 -3.7 2.44162 0
M  V30 1534 H 150.259 -0.460559 0.487982 0
M  V30 1535 H 152.803 -0.868261 1.85153 0
M  V30 1536 H 150.958 -3.34974 1.94606 0
M  V30 1537 H 151.372 -3.20126 4.15475 0
M  V30 1538 H 152.846 -4.55803 3.11364 0
M  V30 1539 H 153.323 -4.13867 1.47006 0
M  V30 1540 H 153.929 -3.17121 2.83398 0
M  V30 1541 N 152.244 -1.26651 -0.937939 0
M  V30 1542 C 153.472 -1.15173 -1.7188 0
M  V30 1543 C 153.887 0.292668 -1.86518 0
M  V30 1544 O 153.244 1.20014 -1.37488 0
M  V30 1545 C 153.295 -1.81925 -3.12387 0
M  V30 1546 O 153.016 -3.2072 -2.98446 0
M  V30 1547 C 154.517 -1.76442 -4.06673 0
M  V30 1548 H 151.737 -0.400911 -0.538063 0
M  V30 1549 H 154.281 -1.67332 -1.1756 0
M  V30 1550 H 152.436 -1.33696 -3.63599 0
M  V30 1551 H 152.85 -3.53802 -3.872 0
M  V30 1552 H 154.324 -2.27781 -5.02812 0
M  V30 1553 H 154.801 -0.731608 -4.33064 0
M  V30 1554 H 155.407 -2.24238 -3.61382 0
M  V30 1555 N 153.722 1.14298 -1.08507 0
M  V30 1556 C 154.968 1.85633 -0.816581 0
M  V30 1557 C 155.301 1.82784 0.656021 0
M  V30 1558 O 154.576 1.25926 1.48233 0
M  V30 1559 C 154.859 3.34223 -1.34041 0
M  V30 1560 C 154.712 3.45639 -2.87843 0
M  V30 1561 C 156.031 4.29356 -0.9665 0
M  V30 1562 H 153.15 0.67402 -0.298104 0
M  V30 1563 H 155.792 1.34214 -1.34487 0
M  V30 1564 H 153.942 3.78144 -0.89104 0
M  V30 1565 H 155.614 3.10498 -3.41158 0
M  V30 1566 H 153.857 2.86817 -3.25451 0
M  V30 1567 H 154.528 4.50089 -3.19569 0
M  V30 1568 H 157.004 3.93457 -1.35391 0
M  V30 1569 H 155.88 5.3178 -1.3602 0
M  V30 1570 H 156.141 4.41919 0.126362 0
M  V30 1571 N 155.201 0.870884 1.31352 0
M  V30 1572 C 156.111 0.330783 2.32256 0
M  V30 1573 C 157.127 -0.559767 1.6475 0
M  V30 1574 O 158.303 -0.456263 1.96164 0
M  V30 1575 C 155.368 -0.458137 3.4366 0
M  V30 1576 C 154.429 0.460482 4.26823 0
M  V30 1577 C 153.662 -0.290881 5.32907 0
M  V30 1578 O 153.885 -1.51885 5.49806 0
M  V30 1579 O 152.819 0.351732 6.00871 0
M  V30 1580 H 156.645 1.16718 2.80376 0
M  V30 1581 H 154.23 0.634285 1.35267 0
M  V30 1582 H 156.112 -0.905343 4.1156 0
M  V30 1583 H 154.787 -1.27106 2.97701 0
M  V30 1584 H 153.694 0.956207 3.61673 0
M  V30 1585 H 155.027 1.23903 4.7635 0
M  V30 1586 N 156.679 -1.44442 0.630414 0
M  V30 1587 C 157.609 -2.33418 -0.0618083 0
M  V30 1588 C 158.59 -1.48165 -0.835541 0
M  V30 1589 O 159.775 -1.76886 -0.801564 0
M  V30 1590 C 156.905 -3.31222 -1.04449 0
M  V30 1591 C 155.859 -4.26288 -0.382436 0
M  V30 1592 C 155.185 -5.13954 -1.47497 0
M  V30 1593 C 156.485 -5.1744 0.710865 0
M  V30 1594 H 158.179 -2.91548 0.681184 0
M  V30 1595 H 155.725 -1.40191 0.329026 0
M  V30 1596 H 157.678 -3.92351 -1.53748 0
M  V30 1597 H 156.402 -2.71299 -1.81836 0
M  V30 1598 H 155.061 -3.6649 0.0899054 0
M  V30 1599 H 154.709 -4.50385 -2.2397 0
M  V30 1600 H 154.409 -5.7837 -1.03737 0
M  V30 1601 H 155.933 -5.77955 -1.96979 0
M  V30 1602 H 157.347 -5.72509 0.300996 0
M  V30 1603 H 155.744 -5.90455 1.07156 0
M  V30 1604 H 156.814 -4.58496 1.57829 0
M  V30 1605 N 158.157 -0.370918 -1.53173 0
M  V30 1606 C 159.107 0.489588 -2.22681 0
M  V30 1607 C 160.091 1.04442 -1.22395 0
M  V30 1608 O 161.283 0.973578 -1.47819 0
M  V30 1609 C 158.412 1.626 -3.02351 0
M  V30 1610 C 157.498 1.08379 -4.10018 0
M  V30 1611 N 157.889 0.265004 -5.05105 0
M  V30 1612 C 156.187 1.35809 -4.2482 0
M  V30 1613 C 156.888 -0.0324755 -5.81691 0
M  V30 1614 N 155.864 0.566581 -5.40639 0
M  V30 1615 H 159.666 -0.142729 -2.93553 0
M  V30 1616 H 157.18 -0.179221 -1.61408 0
M  V30 1617 H 159.177 2.2547 -3.50669 0
M  V30 1618 H 157.837 2.26132 -2.33011 0
M  V30 1619 H 158.848 -0.0962352 -5.17811 0
M  V30 1620 H 155.525 1.9958 -3.66707 0
M  V30 1621 H 156.915 -0.69473 -6.68299 0
M  V30 1622 N 159.635 1.57281 -0.100228 0
M  V30 1623 C 160.881 1.94826 0.563101 0
M  V30 1624 C 161.214 0.982475 1.67514 0
M  V30 1625 O 160.489 0.0164069 1.94493 0
M  V30 1626 C 160.772 3.42453 1.11346 0
M  V30 1627 C 160.625 4.498 0.00612081 0
M  V30 1628 C 161.944 3.91506 2.01024 0
M  V30 1629 H 159.063 0.708428 0.203221 0
M  V30 1630 H 161.705 1.8922 -0.171979 0
M  V30 1631 H 159.855 3.47361 1.7399 0
M  V30 1632 H 161.527 4.57 -0.628357 0
M  V30 1633 H 159.77 4.28756 -0.659581 0
M  V30 1634 H 160.441 5.50306 0.432109 0
M  V30 1635 H 162.917 3.88784 1.48278 0
M  V30 1636 H 161.793 4.95358 2.36457 0
M  V30 1637 H 162.054 3.31099 2.92961 0
M  V30 1638 N 161.113 -0.173488 1.56642 0
M  V30 1639 C 162.39 -0.917617 1.7274 0
M  V30 1640 C 162.77 -2.00484 0.661027 0
M  V30 1641 O 162.118 -2.26184 -0.32453 0
M  V30 1642 C 162.328 -1.48433 3.15862 0
M  V30 1643 C 163.676 -1.95809 3.76754 0
M  V30 1644 O 164.7 -1.58231 3.19126 0
M  V30 1645 O 163.559 -2.65024 4.77938 0
M  V30 1646 H 160.653 -0.431772 0.705338 0
M  V30 1647 H 163.199 -0.161487 1.6893 0
M  V30 1648 H 161.971 -0.701715 3.84957 0
M  V30 1649 H 161.594 -2.30471 3.23989 0
M  V30 1650 N 162.591 -1.51276 -0.441967 0
M  V30 1651 C 163.839 -1.63392 -1.18943 0
M  V30 1652 C 164.16 -0.350159 -1.9183 0
M  V30 1653 O 163.43 0.633784 -1.85364 0
M  V30 1654 H 162.01 -0.602164 -0.442049 0
M  V30 1655 H 164.672 -1.88186 -0.507165 0
M  V30 1656 H 163.768 -2.45934 -1.92154 0
M  V30 1657 N 164.069 0.697108 -1.41344 0
M  V30 1658 C 165.315 1.4593 -1.40827 0
M  V30 1659 C 165.648 1.94193 -0.0167098 0
M  V30 1660 O 164.923 1.69425 0.955263 0
M  V30 1661 C 165.206 2.67229 -2.41373 0
M  V30 1662 C 165.059 2.24741 -3.8963 0
M  V30 1663 C 166.378 3.69423 -2.39196 0
M  V30 1664 H 163.497 0.529303 -0.512842 0
M  V30 1665 H 166.139 0.794112 -1.72609 0
M  V30 1666 H 164.289 3.23982 -2.14401 0
M  V30 1667 H 165.961 1.73327 -4.27499 0
M  V30 1668 H 164.204 1.56542 -4.0457 0
M  V30 1669 H 164.875 3.1177 -4.55525 0
M  V30 1670 H 167.351 3.2234 -2.63128 0
M  V30 1671 H 166.227 4.51907 -3.11563 0
M  V30 1672 H 166.488 4.19012 -1.41001 0
M  V30 1673 N 165.547 1.27147 0.931209 0
M  V30 1674 C 166.772 1.16191 1.71797 0
M  V30 1675 C 167.197 -0.278004 1.86034 0
M  V30 1676 O 166.555 -1.20137 1.35782 0
M  V30 1677 C 166.603 1.84673 3.09723 0
M  V30 1678 O 165.707 1.14231 3.96264 0
M  V30 1679 H 165.048 0.404303 0.526721 0
M  V30 1680 H 167.578 1.68152 1.1656 0
M  V30 1681 H 167.588 1.91893 3.60057 0
M  V30 1682 H 166.263 2.89421 2.98677 0
M  V30 1683 H 164.84 1.15056 3.54706 0
M  V30 1684 N 167.025 -1.13721 1.09112 0
M  V30 1685 C 168.302 -1.81155 0.737706 0
M  V30 1686 C 168.682 -1.96253 -0.777683 0
M  V30 1687 O 168.03 -1.52807 -1.69889 0
M  V30 1688 C 168.24 -3.16392 1.47299 0
M  V30 1689 C 169.588 -3.91787 1.63671 0
M  V30 1690 O 170.612 -3.26005 1.43524 0
M  V30 1691 O 169.471 -5.0977 1.96969 0
M  V30 1692 H 166.565 -0.783518 0.26463 0
M  V30 1693 H 169.111 -1.20676 1.19312 0
M  V30 1694 H 167.883 -3.0061 2.50498 0
M  V30 1695 H 167.506 -3.8457 1.00953 0
M  V30 1696 N 168.503 -0.877838 -1.30888 0
M  V30 1697 C 169.752 -0.488793 -1.95688 0
M  V30 1698 C 170.065 0.965485 -1.70111 0
M  V30 1699 O 171.271 1.46104 -2.28836 0
M  V30 1700 C 169.727 -0.823201 -3.50359 0
M  V30 1701 C 169.335 -2.29477 -3.84765 0
M  V30 1702 C 171.079 -0.503009 -4.21509 0
M  V30 1703 C 168.986 -2.57118 -5.32583 0
M  V30 1704 H 167.916 -0.179062 -0.732429 0
M  V30 1705 H 170.567 -1.07183 -1.48943 0
M  V30 1706 H 168.949 -0.169331 -3.95638 0
M  V30 1707 H 170.123 -2.99236 -3.5042 0
M  V30 1708 H 168.438 -2.58178 -3.267 0
M  V30 1709 H 171.035 -0.68665 -5.30273 0
M  V30 1710 H 171.378 0.557109 -4.12555 0
M  V30 1711 H 171.911 -1.11376 -3.8189 0
M  V30 1712 H 168.65 -3.61843 -5.4658 0
M  V30 1713 H 168.17 -1.91961 -5.68253 0
M  V30 1714 H 169.849 -2.42251 -5.99936 0
M  V30 1715 N 169.982 1.44106 -0.638065 0
M  V30 1716 C 171.222 2.03858 -0.148733 0
M  V30 1717 C 171.586 1.49153 1.20903 0
M  V30 1718 O 172.787 2.00452 1.79088 0
M  V30 1719 C 171.058 3.57117 -0.142314 0
M  V30 1720 S 172.617 4.37897 0.281385 0
M  V30 1721 H 169.435 0.708069 -0.0644912 0
M  V30 1722 H 172.037 1.7639 -0.843009 0
M  V30 1723 H 170.741 3.94436 -1.13349 0
M  V30 1724 H 170.272 3.89205 0.572988 0
M  V30 1725 H 172.287 4.72218 1.52395 0
M  V30 1726 N 171.46 0.379036 1.52974 0
M  V30 1727 C 172.688 -0.20679 2.05864 0
M  V30 1728 C 173.103 -1.41356 1.25155 0
M  V30 1729 O 172.46 -1.8009 0.295588 0
M  V30 1730 C 172.511 -0.587045 3.56702 0
M  V30 1731 O 172.232 0.571776 4.34353 0
M  V30 1732 C 173.733 -1.22983 4.25899 0
M  V30 1733 H 170.953 -0.0336123 0.670158 0
M  V30 1734 H 173.497 0.541298 1.97206 0
M  V30 1735 H 171.652 -1.28504 3.65466 0
M  V30 1736 H 172.066 0.261544 5.23847 0
M  V30 1737 H 173.54 -1.44635 5.32715 0
M  V30 1738 H 174.017 -2.19416 3.80465 0
M  V30 1739 H 174.623 -0.572892 4.21424 0
M  V30 1740 N 172.938 -1.57226 0.108567 0
M  V30 1741 C 173.885 -2.14756 -0.845481 0
M  V30 1742 C 174.855 -1.06971 -1.27068 0
M  V30 1743 O 176.04 -1.34827 -1.35005 0
M  V30 1744 C 173.18 -2.74298 -2.09415 0
M  V30 1745 C 172.293 -3.96358 -1.71826 0
M  V30 1746 C 171.428 -4.44021 -2.9158 0
M  V30 1747 C 170.467 -5.58637 -2.50181 0
M  V30 1748 N 169.604 -6.01091 -3.62814 0
M  V30 1749 H 174.444 -2.95961 -0.348035 0
M  V30 1750 H 171.981 -1.46226 -0.160106 0
M  V30 1751 H 173.939 -3.06945 -2.82561 0
M  V30 1752 H 172.569 -1.95801 -2.56636 0
M  V30 1753 H 171.621 -3.69939 -0.885947 0
M  V30 1754 H 172.933 -4.79504 -1.37394 0
M  V30 1755 H 172.087 -4.78522 -3.72963 0
M  V30 1756 H 170.826 -3.59803 -3.29231 0
M  V30 1757 H 169.831 -5.23751 -1.67228 0
M  V30 1758 H 171.056 -6.44613 -2.13659 0
M  V30 1759 H 169.002 -5.19817 -4.00158 0
M  V30 1760 H 168.919 -6.79066 -3.32273 0
M  V30 1761 H 170.187 -6.40227 -4.44668 0
M  V30 1762 N 174.416 0.165178 -1.56732 0
M  V30 1763 C 175.664 0.879068 -1.8198 0
M  V30 1764 C 175.985 1.82514 -0.686561 0
M  V30 1765 O 175.255 1.93694 0.293146 0
M  V30 1766 H 173.835 0.327608 -0.671329 0
M  V30 1767 H 176.497 0.163526 -1.94213 0
M  V30 1768 H 175.593 1.45228 -2.76252 0
M  V30 1769 N 175.894 1.51508 0.433938 0
M  V30 1770 C 177.142 1.6402 1.18075 0
M  V30 1771 C 177.463 0.360328 1.91642 0
M  V30 1772 O 176.733 -0.623945 1.85698 0
M  V30 1773 H 175.313 0.6045 0.43885 0
M  V30 1774 H 177.975 1.88452 0.497178 0
M  V30 1775 H 177.071 2.46949 1.90847 0
M  V30 1776 N 177.372 -0.689602 1.41712 0
M  V30 1777 C 178.649 -1.44457 1.31877 0
M  V30 1778 C 179.029 -2.11039 -0.0508537 0
M  V30 1779 O 178.377 -2.02138 -1.06547 0
M  V30 1780 C 178.587 -2.45913 2.47645 0
M  V30 1781 C 179.935 -3.10991 2.89084 0
M  V30 1782 O 180.959 -2.56238 2.47428 0
M  V30 1783 O 179.818 -4.10174 3.61137 0
M  V30 1784 H 176.912 -0.64362 0.519309 0
M  V30 1785 H 179.458 -0.719576 1.53689 0
M  V30 1786 H 178.23 -1.95409 3.39015 0
M  V30 1787 H 177.853 -3.25913 2.27742 0
M  V30 1788 N 178.85 -1.27639 -0.924453 0
M  V30 1789 C 180.099 -1.13549 -1.66702 0
M  V30 1790 C 180.412 0.317487 -1.93006 0
M  V30 1791 O 181.618 0.579333 -2.65247 0
M  V30 1792 C 180.074 -1.98426 -3.00259 0
M  V30 1793 C 179.682 -3.484 -2.81641 0
M  V30 1794 C 181.426 -1.92993 -3.78092 0
M  V30 1795 C 179.333 -4.25464 -4.10773 0
M  V30 1796 H 178.263 -0.421351 -0.625283 0
M  V30 1797 H 180.914 -1.52085 -1.02676 0
M  V30 1798 H 179.296 -1.52736 -3.6536 0
M  V30 1799 H 180.47 -4.01973 -2.25287 0
M  V30 1800 H 178.785 -3.55245 -2.17232 0
M  V30 1801 H 181.382 -2.47844 -4.7379 0
M  V30 1802 H 181.725 -0.904281 -4.0636 0
M  V30 1803 H 182.258 -2.36595 -3.19793 0
M  V30 1804 H 178.997 -5.28566 -3.87683 0
M  V30 1805 H 178.517 -3.76667 -4.66779 0
M  V30 1806 H 180.196 -4.34812 -4.79111 0
M  V30 1807 N 180.328 1.1314 -1.09713 0
M  V30 1808 C 181.276 2.20717 -0.733934 0
M  V30 1809 C 182.27 1.6729 0.266506 0
M  V30 1810 O 183.476 1.79547 0.127656 0
M  V30 1811 H 179.851 0.719292 -0.21937 0
M  V30 1812 H 181.822 2.48611 -1.6503 0
M  V30 1813 C 180.571 3.47265 -0.173849 0
M  V30 1814 H 179.894 3.88716 -0.934873 0
M  V30 1815 H 181.334 4.23979 0.0423126 0
M  V30 1816 C 179.793 3.18724 1.09164 0
M  V30 1817 O 180.323 3.37762 2.17439 0
M  V30 1818 N 178.529 2.72583 1.00732 0
M  V30 1819 H 178.076 2.57291 0.126121 0
M  V30 1820 H 178.034 2.53862 1.85476 0
M  V30 1821 N 181.806 0.884767 1.30421 0
M  V30 1822 C 183.053 0.503105 1.96151 0
M  V30 1823 C 183.381 -0.947676 1.69851 0
M  V30 1824 O 182.636 -1.68467 0.995861 0
M  V30 1825 C 182.935 0.724318 3.49983 0
M  V30 1826 C 182.601 2.15015 3.96332 0
M  V30 1827 C 181.263 2.54005 4.08699 0
M  V30 1828 C 183.615 3.07936 4.20505 0
M  V30 1829 C 180.943 3.85128 4.42599 0
M  V30 1830 C 183.295 4.3859 4.55874 0
M  V30 1831 C 181.959 4.77474 4.66449 0
M  V30 1832 H 181.229 0.184099 0.717766 0
M  V30 1833 H 183.876 1.12058 1.55291 0
M  V30 1834 H 182.181 0.0238086 3.91793 0
M  V30 1835 H 183.878 0.408617 3.98913 0
M  V30 1836 H 180.468 1.8375 3.87213 0
M  V30 1837 H 184.652 2.79033 4.10431 0
M  V30 1838 H 179.908 4.14996 4.48986 0
M  V30 1839 H 184.082 5.10629 4.7353 0
M  V30 1840 H 181.709 5.79115 4.92473 0
M  V30 1841 N 183.284 -1.43765 0.645699 0
M  V30 1842 C 184.53 -2.02197 0.156271 0
M  V30 1843 C 184.863 -1.50776 -1.22393 0
M  V30 1844 O 184.138 -0.697771 -1.81553 0
M  V30 1845 C 184.421 -3.59749 0.158872 0
M  V30 1846 C 184.274 -4.21419 1.57245 0
M  V30 1847 C 185.593 -4.37149 -0.50879 0
M  V30 1848 H 182.712 -0.734694 0.0582602 0
M  V30 1849 H 185.354 -1.71157 0.824951 0
M  V30 1850 H 183.504 -3.86325 -0.410525 0
M  V30 1851 H 185.176 -4.059 2.19186 0
M  V30 1852 H 183.419 -3.78356 2.122 0
M  V30 1853 H 184.09 -5.30482 1.52619 0
M  V30 1854 H 186.566 -4.16093 -0.024412 0
M  V30 1855 H 185.442 -5.4683 -0.476213 0
M  V30 1856 H 185.703 -4.12839 -1.58165 0
M  V30 1857 N 184.763 -0.387143 -1.52771 0
M  V30 1858 C 186.01 0.195735 -2.01552 0
M  V30 1859 C 186.338 1.46995 -1.27369 0
M  V30 1860 O 185.593 1.92325 -0.361879 0
M  V30 1861 C 185.892 0.512209 -3.53711 0
M  V30 1862 C 185.558 -0.670202 -4.45891 0
M  V30 1863 C 184.22 -0.994586 -4.70809 0
M  V30 1864 C 186.572 -1.46134 -5.00294 0
M  V30 1865 C 183.9 -2.11169 -5.4738 0
M  V30 1866 C 186.252 -2.56903 -5.78086 0
M  V30 1867 C 184.916 -2.89852 -6.01284 0
M  V30 1868 H 184.186 0.0716246 -0.73753 0
M  V30 1869 H 186.833 -0.524046 -1.8419 0
M  V30 1870 H 185.138 1.31329 -3.69134 0
M  V30 1871 H 186.835 0.975804 -3.88946 0
M  V30 1872 H 183.425 -0.407366 -4.2666 0
M  V30 1873 H 187.609 -1.22397 -4.80971 0
M  V30 1874 H 182.865 -2.3707 -5.63567 0
M  V30 1875 H 187.039 -3.18608 -6.19243 0
M  V30 1876 H 184.666 -3.76533 -6.60399 0
M  V30 1877 N 186.241 1.57166 -0.116904 0
M  V30 1878 C 187.469 1.99473 0.549383 0
M  V30 1879 C 187.884 0.996541 1.60357 0
M  V30 1880 O 187.241 -0.0108731 1.82497 0
M  V30 1881 C 187.292 3.41788 1.17741 0
M  V30 1882 O 187.013 4.37788 0.165362 0
M  V30 1883 C 188.514 3.99216 1.92722 0
M  V30 1884 H 185.734 0.655009 0.145616 0
M  V30 1885 H 188.278 2.03494 -0.202625 0
M  V30 1886 H 186.433 3.38713 1.88021 0
M  V30 1887 H 186.847 5.20806 0.621403 0
M  V30 1888 H 188.321 5.00882 2.31995 0
M  V30 1889 H 188.798 3.3824 2.80161 0
M  V30 1890 H 189.404 4.0583 1.27209 0
M  V30 1891 N 187.719 -0.156864 1.56817 0
M  V30 1892 C 188.967 -0.869404 1.82444 0
M  V30 1893 C 189.288 -1.82147 0.69623 0
M  V30 1894 O 188.558 -1.93847 -0.28287 0
M  V30 1895 H 187.138 -0.324043 0.673056 0
M  V30 1896 H 189.8 -0.153224 1.94297 0
M  V30 1897 H 188.896 -1.43761 2.77019 0
M  V30 1898 N 189.197 -1.51736 -0.425897 0
M  V30 1899 C 190.444 -1.6497 -1.17436 0
M  V30 1900 C 190.772 -0.371445 -1.9092 0
M  V30 1901 O 190.027 0.644963 -1.84767 0
M  V30 1902 C 190.326 -2.81103 -2.20717 0
M  V30 1903 C 189.992 -4.19954 -1.64162 0
M  V30 1904 C 188.654 -4.57725 -1.48462 0
M  V30 1905 C 191.006 -5.06552 -1.22696 0
M  V30 1906 C 188.334 -5.79789 -0.897873 0
M  V30 1907 C 190.686 -6.29205 -0.654464 0
M  V30 1908 C 189.35 -6.6574 -0.484456 0
M  V30 1909 H 188.62 -0.603668 -0.429727 0
M  V30 1910 H 191.267 -1.85798 -0.463829 0
M  V30 1911 H 189.572 -2.54542 -2.97852 0
M  V30 1912 H 191.269 -2.8854 -2.78471 0
M  V30 1913 H 187.859 -3.90181 -1.77361 0
M  V30 1914 H 192.043 -4.77968 -1.33642 0
M  V30 1915 H 187.299 -6.06733 -0.75402 0
M  V30 1916 H 191.473 -6.95643 -0.324694 0
M  V30 1917 H 189.1 -7.60195 -0.0276833 0
M  V30 1918 N 190.675 0.682077 -1.42076 0
M  V30 1919 C 191.9 1.47558 -1.45744 0
M  V30 1920 C 192.325 1.87977 -0.0680981 0
M  V30 1921 O 191.683 1.55522 0.9318 0
M  V30 1922 C 191.731 2.70575 -2.38373 0
M  V30 1923 O 190.835 3.68573 -1.85007 0
M  V30 1924 H 190.176 0.443585 -0.494093 0
M  V30 1925 H 192.706 0.837238 -1.86686 0
M  V30 1926 H 192.716 3.18729 -2.54707 0
M  V30 1927 H 191.391 2.40495 -3.39315 0
M  V30 1928 H 189.968 3.2757 -1.78192 0
M  V30 1929 N 192.153 1.28127 0.917671 0
M  V30 1930 C 193.399 1.15223 1.66888 0
M  V30 1931 C 193.732 -0.299293 1.9188 0
M  V30 1932 O 193.007 -1.21805 1.51637 0
M  V30 1933 C 193.29 1.94706 3.02922 0
M  V30 1934 C 193.143 3.47898 2.85109 0
M  V30 1935 C 194.462 1.75939 4.03402 0
M  V30 1936 H 191.581 0.419946 0.605652 0
M  V30 1937 H 194.223 1.57398 1.06423 0
M  V30 1938 H 192.373 1.58864 3.54534 0
M  V30 1939 H 194.045 3.93624 2.40537 0
M  V30 1940 H 192.288 3.7373 2.20246 0
M  V30 1941 H 192.959 3.98765 3.81694 0
M  V30 1942 H 195.435 2.07209 3.60837 0
M  V30 1943 H 194.311 2.33931 4.96556 0
M  V30 1944 H 194.572 0.709877 4.36364 0
M  V30 1945 N 193.631 -1.12557 1.10312 0
M  V30 1946 C 194.579 -2.20325 0.745629 0
M  V30 1947 C 195.573 -1.67429 -0.25763 0
M  V30 1948 O 196.779 -1.79612 -0.118132 0
M  V30 1949 H 193.154 -0.718118 0.223182 0
M  V30 1950 H 195.125 -2.47733 1.66346 0
M  V30 1951 C 193.874 -3.47168 0.192262 0
M  V30 1952 H 193.197 -3.88215 0.955475 0
M  V30 1953 H 194.637 -4.23995 -0.0198274 0
M  V30 1954 C 193.096 -3.19298 -1.07472 0
M  V30 1955 O 193.626 -3.3891 -2.15645 0
M  V30 1956 N 191.832 -2.73113 -0.992847 0
M  V30 1957 H 191.379 -2.57354 -0.112474 0
M  V30 1958 H 191.337 -2.54842 -1.84127 0
M  V30 1959 N 195.109 -0.891671 -1.2995 0
M  V30 1960 C 196.357 -0.512486 -1.95494 0
M  V30 1961 C 196.678 0.942776 -1.70695 0
M  V30 1962 O 195.948 1.66374 -1.03424 0
M  V30 1963 H 194.528 -0.186533 -0.723336 0
M  V30 1964 H 197.19 -1.13621 -1.58355 0
M  V30 1965 H 196.286 -0.688342 -3.04415 0
M  V30 1966 N 196.587 1.43421 -0.653314 0
M  V30 1967 C 197.534 2.30768 0.0382271 0
M  V30 1968 C 198.504 1.44755 0.814576 0
M  V30 1969 O 199.689 1.73624 0.791162 0
M  V30 1970 C 196.829 3.30336 0.998599 0
M  V30 1971 C 195.942 4.31448 0.218342 0
M  V30 1972 C 195.077 5.18098 1.17252 0
M  V30 1973 C 194.116 6.10902 0.382702 0
M  V30 1974 N 193.253 6.90176 1.28848 0
M  V30 1975 H 198.093 2.89357 -0.712511 0
M  V30 1976 H 195.63 1.42548 -0.363128 0
M  V30 1977 H 197.588 3.86572 1.56901 0
M  V30 1978 H 196.218 2.73397 1.71621 0
M  V30 1979 H 195.27 3.77506 -0.46836 0
M  V30 1980 H 196.582 4.97227 -0.395812 0
M  V30 1981 H 195.736 5.7896 1.81356 0
M  V30 1982 H 194.475 4.52444 1.82058 0
M  V30 1983 H 193.48 5.49128 -0.27169 0
M  V30 1984 H 194.705 6.78598 -0.260957 0
M  V30 1985 H 192.651 6.27171 1.92334 0
M  V30 1986 H 192.568 7.52478 0.728887 0
M  V30 1987 H 193.836 7.55543 1.91766 0
M  V30 1988 N 198.065 0.39524 1.52563 0
M  V30 1989 C 199.311 -0.185318 2.01952 0
M  V30 1990 C 199.644 -1.45964 1.28095 0
M  V30 1991 O 198.919 -1.90689 0.38315 0
M  V30 1992 C 199.202 -0.447193 3.57312 0
M  V30 1993 C 199.055 0.842828 4.41833 0
M  V30 1994 C 200.374 -1.23529 4.22408 0
M  V30 1995 H 197.493 -0.0658788 0.73405 0
M  V30 1996 H 200.135 0.525975 1.82575 0
M  V30 1997 H 198.285 -1.05312 3.73954 0
M  V30 1998 H 199.957 1.4795 4.36931 0
M  V30 1999 H 198.2 1.45686 4.08605 0
M  V30 2000 H 198.871 0.614165 5.48573 0
M  V30 2001 H 201.347 -0.722445 4.0978 0
M  V30 2002 H 200.223 -1.38727 5.3108 0
M  V30 2003 H 200.484 -2.25213 3.80436 0
M  V30 2004 N 199.544 -1.57102 0.125237 0
M  V30 2005 C 200.474 -2.18659 -0.819174 0
M  V30 2006 C 201.455 -1.12843 -1.27281 0
M  V30 2007 O 202.64 -1.41104 -1.33429 0
M  V30 2008 C 199.77 -2.79096 -2.06695 0
M  V30 2009 C 198.724 -3.90548 -1.75088 0
M  V30 2010 C 198.05 -4.37821 -3.06948 0
M  V30 2011 C 199.35 -5.12356 -1.01435 0
M  V30 2012 H 201.044 -2.9783 -0.306202 0
M  V30 2013 H 198.59 -1.4326 -0.145839 0
M  V30 2014 H 200.543 -3.2082 -2.73226 0
M  V30 2015 H 199.267 -1.97223 -2.60328 0
M  V30 2016 H 197.926 -3.49409 -1.10944 0
M  V30 2017 H 197.574 -3.52799 -3.58527 0
M  V30 2018 H 197.274 -5.12982 -2.86571 0
M  V30 2019 H 198.798 -4.822 -3.74587 0
M  V30 2020 H 200.212 -5.5106 -1.58132 0
M  V30 2021 H 198.609 -5.9314 -0.911319 0
M  V30 2022 H 199.679 -4.849 -0.00218681 0
M  V30 2023 N 201.022 0.148545 -1.56898 0
M  V30 2024 C 202.247 0.880385 -1.87787 0
M  V30 2025 C 202.672 1.74018 -0.714093 0
M  V30 2026 O 202.03 1.78153 0.336343 0
M  V30 2027 C 202.078 1.71422 -3.17249 0
M  V30 2028 O 201.182 2.8183 -3.01074 0
M  V30 2029 H 200.523 0.245301 -0.617028 0
M  V30 2030 H 203.053 0.139826 -2.04122 0
M  V30 2031 H 203.063 2.10954 -3.49231 0
M  V30 2032 H 201.738 1.08284 -4.01556 0
M  V30 2033 H 200.315 2.45715 -2.80497 0
M  V30 2034 N 202.5 1.5196 0.417844 0
M  V30 2035 C 203.447 1.74678 1.50852 0
M  V30 2036 C 204.417 0.588947 1.55308 0
M  V30 2037 O 205.602 0.825544 1.72016 0
M  V30 2038 C 202.742 1.89544 2.88387 0
M  V30 2039 C 201.855 3.17166 2.93309 0
M  V30 2040 C 200.99 3.22513 4.22088 0
M  V30 2041 C 200.029 4.44372 4.20951 0
M  V30 2042 N 199.166 4.47161 5.41287 0
M  V30 2043 H 204.006 2.67768 1.30783 0
M  V30 2044 H 201.543 1.32689 0.63498 0
M  V30 2045 H 203.501 1.96146 3.68216 0
M  V30 2046 H 202.131 0.998424 3.06971 0
M  V30 2047 H 201.183 3.19778 2.06024 0
M  V30 2048 H 202.495 4.07021 2.88332 0
M  V30 2049 H 201.649 3.28139 5.10303 0
M  V30 2050 H 200.388 2.30581 4.29748 0
M  V30 2051 H 199.393 4.38902 3.31127 0
M  V30 2052 H 200.618 5.3759 4.14938 0
M  V30 2053 H 198.564 3.58108 5.49632 0
M  V30 2054 H 198.481 5.3085 5.3827 0
M  V30 2055 H 199.749 4.57005 6.3148 0
M  V30 2056 N 203.978 -0.674533 1.42435 0
M  V30 2057 C 205.226 -1.43175 1.42637 0
M  V30 2058 C 205.547 -1.94951 0.0438992 0
M  V30 2059 O 204.817 -1.7308 -0.917607 0
M  V30 2060 H 203.397 -0.531307 0.525092 0
M  V30 2061 H 206.059 -0.797006 1.77859 0
M  V30 2062 H 205.155 -2.28463 2.12629 0
M  V30 2063 N 205.456 -1.28612 -0.910864 0
M  V30 2064 C 206.388 -1.08589 -2.01844 0
M  V30 2065 C 207.401 -0.0367419 -1.62759 0
M  V30 2066 O 208.59 -0.280101 -1.76289 0
M  V30 2067 C 205.69 -0.628626 -3.33019 0
M  V30 2068 C 204.863 -1.75382 -4.00699 0
M  V30 2069 C 203.922 -1.28945 -5.10156 0
M  V30 2070 O 202.948 -1.9922 -5.33198 0
M  V30 2071 N 204.15 -0.154224 -5.80295 0
M  V30 2072 H 206.915 -2.03973 -2.19579 0
M  V30 2073 H 204.476 -1.20403 -1.08234 0
M  V30 2074 H 206.468 -0.301508 -4.03575 0
M  V30 2075 H 205.038 0.232451 -3.11735 0
M  V30 2076 H 204.258 -2.25039 -3.23653 0
M  V30 2077 H 205.546 -2.50854 -4.42662 0
M  V30 2078 H 204.944 0.43194 -5.64049 0
M  V30 2079 H 203.501 0.113599 -6.51701 0
M  V30 2080 N 206.934 1.1197 -1.10907 0
M  V30 2081 C 208.345 1.65114 -0.871446 0
M  V30 2082 C 208.696 1.86885 0.597353 0
M  V30 2083 O 207.821 1.59896 1.45816 0
M  V30 2084 C 208.416 2.99944 -1.5754 0
M  V30 2085 C 206.975 3.50018 -1.38435 0
M  V30 2086 C 206.122 2.24941 -1.62164 0
M  V30 2087 H 209.073 0.956851 -1.2661 0
M  V30 2088 H 209.094 3.66651 -1.01721 0
M  V30 2089 H 208.606 2.84067 -2.64438 0
M  V30 2090 H 206.707 3.71071 -0.337214 0
M  V30 2091 H 206.82 4.29165 -2.12965 0
M  V30 2092 H 205.184 2.3229 -1.04467 0
M  V30 2093 H 205.967 2.11612 -2.70324 0
M  V30 2094 N 208.412 0.89855 1.29475 0
M  V30 2095 C 209.342 0.39201 2.30186 0
M  V30 2096 C 210.323 -0.532359 1.61555 0
M  V30 2097 O 211.508 -0.443331 1.89072 0
M  V30 2098 C 208.638 -0.382353 3.45189 0
M  V30 2099 C 207.592 0.451483 4.25612 0
M  V30 2100 C 206.918 -0.450307 5.328 0
M  V30 2101 C 208.218 1.70079 4.93832 0
M  V30 2102 H 209.912 1.23362 2.72804 0
M  V30 2103 H 207.458 0.594638 1.31149 0
M  V30 2104 H 209.411 -0.747451 4.14718 0
M  V30 2105 H 208.135 -1.25774 3.01411 0
M  V30 2106 H 206.794 0.798897 3.57789 0
M  V30 2107 H 206.442 -1.32379 4.85268 0
M  V30 2108 H 206.142 0.103902 5.87508 0
M  V30 2109 H 207.666 -0.811623 6.05182 0
M  V30 2110 H 209.08 1.40549 5.55805 0
M  V30 2111 H 207.477 2.19623 5.58467 0
M  V30 2112 H 208.547 2.43744 4.19186 0
M  V30 2113 N 209.89 -1.43072 0.660911 0
M  V30 2114 C 211.138 -2.01323 0.177094 0
M  V30 2115 C 211.459 -1.5245 -1.2159 0
M  V30 2116 O 210.729 -0.740322 -1.81373 0
M  V30 2117 H 209.309 -0.744382 0.0624804 0
M  V30 2118 H 211.971 -1.75179 0.854305 0
M  V30 2119 H 211.067 -3.11649 0.167641 0
M  V30 2120 N 211.368 -0.403325 -1.52352 0
M  V30 2121 C 212.779 0.0675782 -1.86578 0
M  V30 2122 C 213.13 1.44941 -1.32236 0
M  V30 2123 O 212.255 2.06112 -0.659307 0
M  V30 2124 C 212.85 0.129404 -3.38553 0
M  V30 2125 C 211.409 0.544629 -3.72439 0
M  V30 2126 C 210.556 -0.284551 -2.75836 0
M  V30 2127 H 213.507 -0.620631 -1.46061 0
M  V30 2128 H 213.528 0.94581 -3.68558 0
M  V30 2129 H 213.04 -0.87645 -3.78074 0
M  V30 2130 H 211.141 1.55734 -3.38493 0
M  V30 2131 H 211.254 0.293046 -4.78203 0
M  V30 2132 H 209.618 0.252258 -2.53448 0
M  V30 2133 H 210.401 -1.28865 -3.18196 0
M  V30 2134 N 212.846 1.57033 -0.133567 0
M  V30 2135 C 213.809 2.14897 0.796995 0
M  V30 2136 C 214.809 1.0874 1.18458 0
M  V30 2137 O 215.999 1.34446 1.1077 0
M  V30 2138 C 213.131 2.70112 2.07973 0
M  V30 2139 H 214.324 2.98457 0.293873 0
M  V30 2140 H 211.877 1.55871 0.115787 0
M  V30 2141 H 212.612 1.9018 2.62682 0
M  V30 2142 H 212.397 3.47764 1.81115 0
M  V30 2143 H 213.887 3.14738 2.74462 0
M  V30 2144 N 214.325 -0.140222 1.56975 0
M  V30 2145 C 215.573 -0.850005 1.83356 0
M  V30 2146 C 215.894 -1.81399 0.71551 0
M  V30 2147 O 215.164 -1.94136 -0.262294 0
M  V30 2148 H 213.744 -0.316886 0.676456 0
M  V30 2149 H 216.406 -0.132608 1.94448 0
M  V30 2150 H 215.502 -1.40814 2.78528 0
M  V30 2151 N 215.803 -1.52179 -0.40978 0
M  V30 2152 C 217.049 -1.66453 -1.15851 0
M  V30 2153 C 217.382 -0.392972 -1.90182 0
M  V30 2154 O 216.657 0.608579 -1.84734 0
M  V30 2155 C 216.94 -2.88612 -2.15349 0
M  V30 2156 C 216.793 -4.25815 -1.44918 0
M  V30 2157 C 218.112 -3.06294 -3.16026 0
M  V30 2158 H 215.231 -0.60575 -0.419805 0
M  V30 2159 H 217.873 -1.84732 -0.444314 0
M  V30 2160 H 216.023 -2.73158 -2.76255 0
M  V30 2161 H 217.695 -4.52995 -0.871365 0
M  V30 2162 H 215.938 -4.27247 -0.751159 0
M  V30 2163 H 216.609 -5.07337 -2.17516 0
M  V30 2164 H 219.085 -3.20641 -2.65195 0
M  V30 2165 H 217.961 -3.93283 -3.8291 0
M  V30 2166 H 218.222 -2.19579 -3.83715 0
M  V30 2167 N 217.281 0.66697 -1.42791 0
M  V30 2168 C 218.213 1.7925 -1.42836 0
M  V30 2169 C 219.226 1.59496 -0.326333 0
M  V30 2170 O 220.415 1.6847 -0.589916 0
M  V30 2171 C 217.515 3.16476 -1.21229 0
M  V30 2172 C 216.688 3.63011 -2.44013 0
M  V30 2173 C 215.747 4.78993 -2.17834 0
M  V30 2174 O 214.773 4.89137 -2.91091 0
M  V30 2175 N 215.975 5.68248 -1.18635 0
M  V30 2176 H 218.74 1.79695 -2.39854 0
M  V30 2177 H 216.301 0.850338 -1.37771 0
M  V30 2178 H 218.293 3.91734 -1.01621 0
M  V30 2179 H 216.863 3.10884 -0.32706 0
M  V30 2180 H 216.083 2.78346 -2.79137 0
M  V30 2181 H 217.371 3.90845 -3.25757 0
M  V30 2182 H 216.769 5.62712 -0.580615 0
M  V30 2183 H 215.326 6.43285 -1.05013 0
M  V30 2184 N 218.759 1.29093 0.90403 0
M  V30 2185 C 220.005 1.16986 1.65656 0
M  V30 2186 C 220.338 -0.278925 1.92186 0
M  V30 2187 O 219.613 -1.2019 1.5292 0
M  V30 2188 C 219.896 1.97908 3.0084 0
M  V30 2189 C 219.749 3.50903 2.81403 0
M  V30 2190 C 221.068 1.80208 4.01513 0
M  V30 2191 H 218.187 0.426346 0.601164 0
M  V30 2192 H 220.829 1.58518 1.04747 0
M  V30 2193 H 218.979 1.62616 3.52829 0
M  V30 2194 H 220.651 3.96153 2.36348 0
M  V30 2195 H 218.894 3.76045 2.1627 0
M  V30 2196 H 219.565 4.02791 3.77443 0
M  V30 2197 H 222.041 2.11025 3.58619 0
M  V30 2198 H 220.917 2.39184 4.94047 0
M  V30 2199 H 221.178 0.756119 4.35586 0
M  V30 2200 N 220.237 -1.11381 1.11499 0
M  V30 2201 C 221.462 -1.87475 0.887019 0
M  V30 2202 C 221.887 -1.79639 -0.557796 0
M  V30 2203 O 221.245 -1.15924 -1.39396 0
M  V30 2204 C 221.293 -3.34213 1.35403 0
M  V30 2205 O 220.397 -4.0903 0.526146 0
M  V30 2206 H 219.738 -0.582099 0.319463 0
M  V30 2207 H 222.268 -1.40785 1.48461 0
M  V30 2208 H 222.278 -3.8506 1.34881 0
M  V30 2209 H 220.953 -3.39232 2.40612 0
M  V30 2210 H 219.53 -3.68082 0.597522 0
M  V30 2211 N 221.715 -0.905404 -1.28997 0
M  V30 2212 C 222.645 -0.404212 -2.29975 0
M  V30 2213 C 223.626 0.523784 -1.61835 0
M  V30 2214 O 224.811 0.433298 -1.89304 0
M  V30 2215 C 221.941 0.364042 -3.45387 0
M  V30 2216 C 220.895 -0.474048 -4.25367 0
M  V30 2217 C 220.221 0.422045 -5.33032 0
M  V30 2218 C 221.521 -1.72696 -4.92923 0
M  V30 2219 H 223.215 -1.24807 -2.72146 0
M  V30 2220 H 220.761 -0.601585 -1.30832 0
M  V30 2221 H 222.714 0.725447 -4.15109 0
M  V30 2222 H 221.438 1.24174 -3.02074 0
M  V30 2223 H 220.097 -0.81786 -3.57361 0
M  V30 2224 H 219.745 1.29804 -4.85963 0
M  V30 2225 H 219.445 -0.135057 -5.87445 0
M  V30 2226 H 220.969 0.779517 -6.05604 0
M  V30 2227 H 222.383 -1.43495 -5.55051 0
M  V30 2228 H 220.78 -2.22582 -5.57295 0
M  V30 2229 H 221.85 -2.45964 -4.17887 0
M  V30 2230 N 223.193 1.4272 -0.668489 0
M  V30 2231 C 224.609 1.55992 -0.33745 0
M  V30 2232 C 224.809 1.64933 1.15756 0
M  V30 2233 O 223.865 1.61278 1.94282 0
M  V30 2234 C 225.178 2.81314 -1.06222 0
M  V30 2235 C 226.726 2.95078 -1.04394 0
M  V30 2236 C 227.201 4.23252 -1.74991 0
M  V30 2237 N 228.692 4.3015 -1.71829 0
M  V30 2238 C 229.427 5.28127 -2.23315 0
M  V30 2239 N 228.923 6.32293 -2.83156 0
M  V30 2240 N 230.716 5.19882 -2.13726 0
M  V30 2241 H 222.867 1.3516 -1.63846 0
M  V30 2242 H 225.13 0.650174 -0.689912 0
M  V30 2243 H 224.836 2.80823 -2.11734 0
M  V30 2244 H 224.71 3.72012 -0.62344 0
M  V30 2245 H 227.097 2.951 0.0028244 0
M  V30 2246 H 227.178 2.05627 -1.52155 0
M  V30 2247 H 226.822 4.2399 -2.79633 0
M  V30 2248 H 226.752 5.11626 -1.24685 0
M  V30 2249 H 229.243 3.55499 -1.28175 0
M  V30 2250 H 229.556 7.03398 -3.20079 0
M  V30 2251 H 227.901 6.32873 -2.87223 0
M  V30 2252 H 231.092 4.37423 -1.66669 0
M  V30 2253 H 231.265 5.96077 -2.54158 0
M  V30 2254 N 224.671 0.411399 1.52136 0
M  V30 2255 C 225.619 -0.427633 2.28635 0
M  V30 2256 C 226.613 -1.04383 1.33419 0
M  V30 2257 O 227.819 -0.981772 1.50868 0
M  V30 2258 H 224.194 -0.156689 0.735495 0
M  V30 2259 H 226.165 0.238761 2.97443 0
M  V30 2260 C 224.914 -1.53082 3.12188 0
M  V30 2261 H 224.237 -1.06601 3.85326 0
M  V30 2262 H 225.677 -2.09167 3.68816 0
M  V30 2263 C 224.136 -2.49946 2.25895 0
M  V30 2264 O 224.666 -3.53884 1.90076 0
M  V30 2265 N 222.872 -2.2021 1.8962 0
M  V30 2266 H 222.419 -1.35719 2.18948 0
M  V30 2267 H 222.377 -2.85266 1.32176 0
M  V30 2268 N 226.149 -1.5696 0.141893 0
M  V30 2269 C 227.377 -2.00322 -0.517579 0
M  V30 2270 C 227.792 -1.02193 -1.58752 0
M  V30 2271 O 227.149 -0.0181619 -1.82491 0
M  V30 2272 C 227.2 -3.43618 -1.12289 0
M  V30 2273 O 226.921 -4.37995 -0.0956929 0
M  V30 2274 C 228.422 -4.02231 -1.86347 0
M  V30 2275 H 225.642 -0.657243 -0.135177 0
M  V30 2276 H 228.186 -2.03146 0.234973 0
M  V30 2277 H 226.341 -3.41662 -1.82609 0
M  V30 2278 H 226.755 -5.21729 -0.538469 0
M  V30 2279 H 228.229 -5.04509 -2.23997 0
M  V30 2280 H 228.706 -3.42655 -2.74744 0
M  V30 2281 H 229.312 -4.07802 -1.20737 0
M  V30 2282 N 227.627 0.131896 -1.57047 0
M  V30 2283 C 228.875 0.840269 -1.83804 0
M  V30 2284 C 229.196 1.81017 -0.72512 0
M  V30 2285 O 228.466 1.94272 0.251995 0
M  V30 2286 H 227.046 0.313294 -0.678127 0
M  V30 2287 H 229.708 0.122294 -1.94516 0
M  V30 2288 H 228.804 1.39335 -2.79271 0
M  V30 2289 N 229.106 1.52395 0.401703 0
M  V30 2290 C 230.334 1.70676 1.16949 0
M  V30 2291 C 230.749 0.419503 1.8408 0
M  V30 2292 O 230.106 -0.605061 1.72178 0
M  V30 2293 C 230.157 2.84753 2.22706 0
M  V30 2294 O 229.878 4.08495 1.58314 0
M  V30 2295 C 231.379 3.14608 3.12309 0
M  V30 2296 H 228.599 0.571787 0.351142 0
M  V30 2297 H 231.143 1.98987 0.471652 0
M  V30 2298 H 229.298 2.58941 2.88147 0
M  V30 2299 H 229.712 4.72117 2.28485 0
M  V30 2300 H 231.186 3.97923 3.82572 0
M  V30 2301 H 231.663 2.28464 3.75101 0
M  V30 2302 H 232.269 3.42212 2.52529 0
M  V30 2303 N 230.584 -0.659388 1.43143 0
M  V30 2304 C 231.494 -1.80167 1.50256 0
M  V30 2305 C 232.51 -1.69571 0.390106 0
M  V30 2306 O 233.686 -1.90849 0.643319 0
M  V30 2307 C 230.751 -3.16409 1.41725 0
M  V30 2308 C 229.812 -3.38848 2.63591 0
M  V30 2309 C 229.045 -4.68591 2.55458 0
M  V30 2310 O 229.268 -5.47532 1.59891 0
M  V30 2311 O 228.202 -4.92614 3.45854 0
M  V30 2312 H 232.028 -1.77121 2.46702 0
M  V30 2313 H 229.613 -0.817092 1.25076 0
M  V30 2314 H 231.495 -3.9768 1.39387 0
M  V30 2315 H 230.17 -3.20059 0.484118 0
M  V30 2316 H 229.077 -2.57366 2.71502 0
M  V30 2317 H 230.41 -3.4004 3.55856 0
M  V30 2318 N 232.062 -1.29571 -0.897171 0
M  V30 2319 C 233.025 -1.14913 -1.98312 0
M  V30 2320 C 234.025 -0.0838629 -1.60581 0
M  V30 2321 O 235.215 -0.331006 -1.71026 0
M  V30 2322 C 232.347 -0.757835 -3.3237 0
M  V30 2323 H 233.54 -2.11377 -2.12743 0
M  V30 2324 H 231.093 -1.12793 -1.08201 0
M  V30 2325 H 231.828 0.206837 -3.2364 0
M  V30 2326 H 231.613 -1.52755 -3.61121 0
M  V30 2327 H 233.103 -0.678408 -4.12053 0
M  V30 2328 N 233.54 1.10788 -1.12088 0
M  V30 2329 C 234.487 2.17025 -0.785407 0
M  V30 2330 C 235.457 1.64265 0.246191 0
M  V30 2331 O 236.642 1.90412 0.121584 0
M  V30 2332 C 233.782 3.44249 -0.242177 0
M  V30 2333 C 232.895 4.1098 -1.33115 0
M  V30 2334 C 232.03 5.25911 -0.747741 0
M  V30 2335 C 231.069 5.84538 -1.81609 0
M  V30 2336 N 230.206 6.90853 -1.25167 0
M  V30 2337 H 235.046 2.45066 -1.69548 0
M  V30 2338 H 232.583 1.20297 -0.846582 0
M  V30 2339 H 234.541 4.17101 0.0908026 0
M  V30 2340 H 233.171 3.16571 0.631072 0
M  V30 2341 H 232.223 3.36133 -1.78097 0
M  V30 2342 H 233.535 4.50601 -2.13917 0
M  V30 2343 H 232.689 6.056 -0.365216 0
M  V30 2344 H 231.428 4.87614 0.0915188 0
M  V30 2345 H 230.433 5.03522 -2.20785 0
M  V30 2346 H 231.658 6.249 -2.6585 0
M  V30 2347 H 229.604 6.54562 -0.434174 0
M  V30 2348 H 229.521 7.29166 -1.99633 0
M  V30 2349 H 230.789 7.7433 -0.896259 0
M  V30 2350 N 235.018 0.912232 1.28515 0
M  V30 2351 C 236.267 0.540504 1.94323 0
M  V30 2352 C 236.58 -0.920044 1.72611 0
M  V30 2353 O 237.786 -1.39986 2.32629 0
M  V30 2354 C 236.242 0.915803 3.48053 0
M  V30 2355 C 235.85 2.39598 3.78546 0
M  V30 2356 C 237.594 0.614588 4.20027 0
M  V30 2357 C 235.501 2.71148 5.25578 0
M  V30 2358 H 234.431 0.198418 0.727424 0
M  V30 2359 H 237.082 1.11094 1.46049 0
M  V30 2360 H 235.464 0.274168 3.9505 0
M  V30 2361 H 236.638 3.08422 3.42364 0
M  V30 2362 H 234.953 2.66749 3.1974 0
M  V30 2363 H 237.55 0.827002 5.28266 0
M  V30 2364 H 237.893 -0.447531 4.13887 0
M  V30 2365 H 238.426 1.21462 3.78803 0
M  V30 2366 H 235.165 3.76207 5.36794 0
M  V30 2367 H 234.685 2.0696 5.62963 0
M  V30 2368 H 236.364 2.58072 5.93302 0
M  V30 2369 N 236.496 -1.42363 0.676048 0
M  V30 2370 C 237.428 -2.29164 -0.0404605 0
M  V30 2371 C 238.441 -1.43747 -0.764245 0
M  V30 2372 O 239.63 -1.67453 -0.618195 0
M  V30 2373 C 236.73 -3.21196 -1.08103 0
M  V30 2374 C 235.903 -4.35273 -0.430812 0
M  V30 2375 C 234.962 -5.08017 -1.37133 0
M  V30 2376 O 233.988 -5.62494 -0.87116 0
M  V30 2377 N 235.19 -5.13647 -2.70456 0
M  V30 2378 H 237.955 -2.91298 0.704667 0
M  V30 2379 H 235.516 -1.53303 0.520559 0
M  V30 2380 H 237.508 -3.66728 -1.71152 0
M  V30 2381 H 236.078 -2.60505 -1.72788 0
M  V30 2382 H 235.298 -3.92372 0.379209 0
M  V30 2383 H 236.586 -5.08795 0.0221132 0
M  V30 2384 H 235.984 -4.708 -3.1363 0
M  V30 2385 H 234.541 -5.62821 -3.28749 0
M  V30 2386 N 237.974 -0.419461 -1.51915 0
M  V30 2387 C 239.199 0.154572 -2.06823 0
M  V30 2388 C 239.624 1.3722 -1.28656 0
M  V30 2389 O 238.982 1.78461 -0.319583 0
M  V30 2390 C 239.03 0.473172 -3.57482 0
M  V30 2391 O 238.134 1.56255 -3.81652 0
M  V30 2392 H 237.475 0.0096924 -0.663929 0
M  V30 2393 H 240.005 -0.595642 -1.95738 0
M  V30 2394 H 240.015 0.728825 -4.01438 0
M  V30 2395 H 238.69 -0.416873 -4.13805 0
M  V30 2396 H 237.267 1.29825 -3.49571 0
M  V30 2397 N 239.452 1.56882 -0.150215 0
M  V30 2398 C 240.68 2.00593 0.506948 0
M  V30 2399 C 241.095 1.03033 1.58208 0
M  V30 2400 O 240.452 0.0278396 1.82479 0
M  V30 2401 C 240.503 3.44209 1.10465 0
M  V30 2402 O 240.224 4.3804 0.0724636 0
M  V30 2403 C 241.725 4.03214 1.84211 0
M  V30 2404 H 238.945 0.65795 0.13169 0
M  V30 2405 H 241.489 2.03018 -0.245743 0
M  V30 2406 H 239.644 3.42625 1.80795 0
M  V30 2407 H 240.058 5.22007 0.510793 0
M  V30 2408 H 241.532 5.0569 2.21318 0
M  V30 2409 H 242.009 3.44107 2.72923 0
M  V30 2410 H 242.615 4.08437 1.18572 0
M  V30 2411 N 240.93 -0.123565 1.57115 0
M  V30 2412 C 242.176 -0.833386 1.84885 0
M  V30 2413 C 242.509 -1.79742 0.735292 0
M  V30 2414 O 241.784 -1.92764 -0.25925 0
M  V30 2415 C 242.067 -1.5873 3.23228 0
M  V30 2416 C 241.92 -0.643183 4.45178 0
M  V30 2417 C 243.239 -2.54453 3.59085 0
M  V30 2418 H 240.358 -0.301518 0.6725 0
M  V30 2419 H 243 -0.097778 1.89748 0
M  V30 2420 H 241.15 -2.21438 3.19214 0
M  V30 2421 H 242.822 -0.0253015 4.61293 0
M  V30 2422 H 241.065 0.0456139 4.33776 0
M  V30 2423 H 241.736 -1.20724 5.38637 0
M  V30 2424 H 244.212 -2.01853 3.63861 0
M  V30 2425 H 243.088 -3.04238 4.5687 0
M  V30 2426 H 243.349 -3.36906 2.86264 0
M  V30 2427 N 242.408 -1.52605 -0.393616 0
M  V30 2428 C 243.636 -1.71294 -1.16043 0
M  V30 2429 C 244.051 -0.429259 -1.83855 0
M  V30 2430 O 243.408 0.595921 -1.72496 0
M  V30 2431 C 243.459 -2.8593 -2.21193 0
M  V30 2432 O 243.18 -4.09329 -1.56146 0
M  V30 2433 C 244.681 -3.16259 -3.10636 0
M  V30 2434 H 241.901 -0.573641 -0.348104 0
M  V30 2435 H 244.445 -1.99234 -0.461092 0
M  V30 2436 H 242.6 -2.60465 -2.86769 0
M  V30 2437 H 243.014 -4.73323 -2.25978 0
M  V30 2438 H 244.488 -3.99946 -3.80456 0
M  V30 2439 H 244.965 -2.3045 -3.73884 0
M  V30 2440 H 245.571 -3.43547 -2.50711 0
M  V30 2441 N 243.887 0.651787 -1.4349 0
M  V30 2442 C 244.819 1.77725 -1.44729 0
M  V30 2443 C 245.832 1.59141 -0.343231 0
M  V30 2444 O 247.021 1.67835 -0.607751 0
M  V30 2445 C 244.121 3.15172 -1.24579 0
M  V30 2446 C 243.294 3.60402 -2.47849 0
M  V30 2447 C 242.353 4.76656 -2.22902 0
M  V30 2448 O 241.379 4.86022 -2.96263 0
M  V30 2449 N 242.581 5.66958 -1.24656 0
M  V30 2450 H 245.346 1.77141 -2.41746 0
M  V30 2451 H 242.907 0.835678 -1.38665 0
M  V30 2452 H 244.899 3.90634 -1.0577 0
M  V30 2453 H 243.469 3.1052 -0.360015 0
M  V30 2454 H 242.689 2.75369 -2.82073 0
M  V30 2455 H 243.977 3.87368 -3.29884 0
M  V30 2456 H 243.375 5.62065 -0.640265 0
M  V30 2457 H 241.932 6.42135 -1.1183 0
M  V30 2458 N 245.365 1.30045 0.890287 0
M  V30 2459 C 246.776 1.16738 1.45702 0
M  V30 2460 C 247.127 -0.233939 1.948 0
M  V30 2461 O 246.252 -1.13021 1.84541 0
M  V30 2462 C 246.847 2.11313 2.64825 0
M  V30 2463 C 245.406 2.02001 3.17604 0
M  V30 2464 C 244.553 2.01699 1.90296 0
M  V30 2465 H 247.504 1.42392 0.700726 0
M  V30 2466 H 247.525 1.69086 3.40867 0
M  V30 2467 H 247.037 3.13294 2.2906 0
M  V30 2468 H 245.138 1.03142 3.5804 0
M  V30 2469 H 245.251 2.90128 3.81264 0
M  V30 2470 H 243.615 1.46427 2.08402 0
M  V30 2471 H 244.398 3.05402 1.56795 0
M  V30 2472 N 246.843 -1.10192 1.12674 0
M  V30 2473 C 248.091 -1.81845 0.881861 0
M  V30 2474 C 248.412 -1.85737 -0.593867 0
M  V30 2475 O 247.682 -1.33724 -1.4316 0
M  V30 2476 H 246.262 -0.673432 0.323261 0
M  V30 2477 H 248.924 -1.33316 1.42172 0
M  V30 2478 H 248.02 -2.85288 1.2656 0
M  V30 2479 N 248.321 -0.919034 -1.28029 0
M  V30 2480 C 249.569 -0.553838 -1.94363 0
M  V30 2481 C 249.89 0.906357 -1.72656 0
M  V30 2482 O 249.16 1.64143 -1.0693 0
M  V30 2483 H 247.74 -0.201834 -0.719216 0
M  V30 2484 H 250.402 -1.16954 -1.55909 0
M  V30 2485 H 249.498 -0.752758 -3.02886 0
M  V30 2486 N 249.799 1.42003 -0.683588 0
M  V30 2487 C 250.746 2.30798 -0.0107309 0
M  V30 2488 C 251.716 1.4645 0.783688 0
M  V30 2489 O 252.901 1.75263 0.754156 0
M  V30 2490 C 250.041 3.3238 0.928306 0
M  V30 2491 C 249.154 4.31814 0.126776 0
M  V30 2492 C 248.289 5.20468 1.06236 0
M  V30 2493 C 247.328 6.11577 0.253035 0
M  V30 2494 N 246.465 6.92754 1.14179 0
M  V30 2495 H 251.305 2.8778 -0.773727 0
M  V30 2496 H 248.842 1.41745 -0.393283 0
M  V30 2497 H 250.8 3.89813 1.48666 0
M  V30 2498 H 249.43 2.76976 1.65783 0
M  V30 2499 H 248.482 3.76427 -0.54833 0
M  V30 2500 H 249.794 4.96276 -0.501192 0
M  V30 2501 H 248.948 5.82677 1.69035 0
M  V30 2502 H 247.687 4.56204 1.7242 0
M  V30 2503 H 246.692 5.48428 -0.388108 0
M  V30 2504 H 247.917 6.77892 -0.404839 0
M  V30 2505 H 245.863 6.3111 1.78987 0
M  V30 2506 H 245.78 7.53855 0.569111 0
M  V30 2507 H 247.048 7.59441 1.75697 0
M  V30 2508 N 251.277 0.427512 1.51691 0
M  V30 2509 C 252.524 -0.142229 2.02 0
M  V30 2510 C 252.852 -1.43566 1.31221 0
M  V30 2511 O 252.107 -1.91298 0.412744 0
M  V30 2512 C 252.406 -0.418249 3.54944 0
M  V30 2513 C 252.072 0.788187 4.43958 0
M  V30 2514 C 250.734 1.11906 4.68007 0
M  V30 2515 C 253.086 1.59347 4.96244 0
M  V30 2516 C 250.414 2.25608 5.41588 0
M  V30 2517 C 252.766 2.7214 5.71072 0
M  V30 2518 C 251.43 3.05692 5.93387 0
M  V30 2519 H 250.7 -0.0520451 0.73917 0
M  V30 2520 H 253.347 0.572697 1.82736 0
M  V30 2521 H 251.652 -1.21496 3.72486 0
M  V30 2522 H 253.349 -0.872339 3.91397 0
M  V30 2523 H 249.939 0.520344 4.2543 0
M  V30 2524 H 254.123 1.35106 4.77556 0
M  V30 2525 H 249.379 2.51929 5.57083 0
M  V30 2526 H 253.553 3.34914 6.10578 0
M  V30 2527 H 251.18 3.9391 6.50184 0
M  V30 2528 N 252.755 -1.56801 0.158532 0
M  V30 2529 C 253.718 -2.16138 -0.762705 0
M  V30 2530 C 254.718 -1.1061 -1.16713 0
M  V30 2531 O 255.908 -1.36191 -1.08617 0
M  V30 2532 C 253.04 -2.73386 -2.03649 0
M  V30 2533 H 254.233 -2.98886 -0.246354 0
M  V30 2534 H 251.786 -1.56035 -0.0909744 0
M  V30 2535 H 252.521 -1.94335 -2.59623 0
M  V30 2536 H 252.306 -3.50601 -1.75559 0
M  V30 2537 H 253.796 -3.19065 -2.6942 0
M  V30 2538 N 254.233 0.115231 -1.57178 0
M  V30 2539 C 255.48 0.822351 -1.8505 0
M  V30 2540 C 255.808 1.79701 -0.744168 0
M  V30 2541 O 255.063 1.93909 0.26414 0
M  V30 2542 C 255.362 1.60324 -3.19423 0
M  V30 2543 C 255.028 0.772536 -4.44233 0
M  V30 2544 C 253.69 0.543468 -4.78121 0
M  V30 2545 C 256.042 0.193746 -5.2084 0
M  V30 2546 C 253.37 -0.274583 -5.86057 0
M  V30 2547 C 255.722 -0.611517 -6.29637 0
M  V30 2548 C 254.386 -0.850867 -6.62055 0
M  V30 2549 H 253.656 0.30092 -0.677147 0
M  V30 2550 H 256.303 0.0845802 -1.91313 0
M  V30 2551 H 254.608 2.41203 -3.08753 0
M  V30 2552 H 256.305 2.1544 -3.38211 0
M  V30 2553 H 252.895 0.96117 -4.17683 0
M  V30 2554 H 257.079 0.357926 -4.95008 0
M  V30 2555 H 252.335 -0.469206 -6.09597 0
M  V30 2556 H 256.509 -1.06697 -6.88178 0
M  V30 2557 H 254.136 -1.48657 -7.45523 0
M  V30 2558 N 255.711 1.52812 0.385517 0
M  V30 2559 C 256.958 1.68026 1.1302 0
M  V30 2560 C 257.286 0.421934 1.89868 0
M  V30 2561 O 256.541 -0.595749 1.86412 0
M  V30 2562 C 256.84 2.86856 2.13187 0
M  V30 2563 C 256.506 4.24159 1.5297 0
M  V30 2564 C 255.168 4.61501 1.36274 0
M  V30 2565 C 257.52 5.09627 1.09223 0
M  V30 2566 C 254.848 5.81966 0.743837 0
M  V30 2567 C 257.2 6.30719 0.487411 0
M  V30 2568 C 255.864 6.6679 0.307777 0
M  V30 2569 H 255.134 0.614849 0.413571 0
M  V30 2570 H 257.781 1.86962 0.414405 0
M  V30 2571 H 256.086 2.6235 2.90998 0
M  V30 2572 H 257.783 2.95821 2.70722 0
M  V30 2573 H 254.373 3.94746 1.66954 0
M  V30 2574 H 258.557 4.81343 1.20922 0
M  V30 2575 H 253.813 6.08519 0.592891 0
M  V30 2576 H 257.987 6.96259 0.140143 0
M  V30 2577 H 255.614 7.60001 -0.173879 0
M  V30 2578 N 257.189 -0.644168 1.43834 0
M  V30 2579 C 258.136 -1.75671 1.49694 0
M  V30 2580 C 259.106 -1.6246 0.345809 0
M  V30 2581 O 260.291 -1.82573 0.554234 0
M  V30 2582 C 257.431 -3.13867 1.43463 0
M  V30 2583 C 256.544 -3.38147 2.6885 0
M  V30 2584 C 255.679 -4.66241 2.54544 0
M  V30 2585 C 254.718 -4.83657 3.75157 0
M  V30 2586 N 253.855 -6.03016 3.59605 0
M  V30 2587 H 258.695 -1.69998 2.44754 0
M  V30 2588 H 256.232 -0.829458 1.21484 0
M  V30 2589 H 258.19 -3.9377 1.37843 0
M  V30 2590 H 256.82 -3.18588 0.519783 0
M  V30 2591 H 255.872 -2.52276 2.84712 0
M  V30 2592 H 257.184 -3.46899 3.58417 0
M  V30 2593 H 256.338 -5.54285 2.46683 0
M  V30 2594 H 255.077 -4.59826 1.62516 0
M  V30 2595 H 254.082 -3.94046 3.83416 0
M  V30 2596 H 255.307 -4.91896 4.68204 0
M  V30 2597 H 253.253 -5.97715 2.7032 0
M  V30 2598 H 253.17 -6.12766 4.42779 0
M  V30 2599 H 254.438 -6.93657 3.55613 0
M  V30 2600 N 258.668 -1.30515 -0.883378 0
M  V30 2601 C 259.914 -1.19607 -1.63774 0
M  V30 2602 C 260.247 0.248314 -1.92606 0
M  V30 2603 O 259.522 1.17742 -1.54813 0
M  V30 2604 C 259.805 -2.02669 -2.97653 0
M  V30 2605 C 259.658 -3.55335 -2.75784 0
M  V30 2606 C 260.977 -1.86573 -3.98596 0
M  V30 2607 H 258.096 -0.435856 -0.594305 0
M  V30 2608 H 260.738 -1.60165 -1.02212 0
M  V30 2609 H 258.888 -1.68208 -3.50197 0
M  V30 2610 H 260.56 -3.99863 -2.30016 0
M  V30 2611 H 258.803 -3.79438 -2.1026 0
M  V30 2612 H 259.474 -4.08745 -3.70988 0
M  V30 2613 H 261.95 -2.16703 -3.55217 0
M  V30 2614 H 260.826 -2.47014 -4.90179 0
M  V30 2615 H 261.087 -0.825321 -4.34328 0
M  V30 2616 N 260.146 1.09593 -1.13257 0
M  V30 2617 C 261.076 2.18214 -0.830946 0
M  V30 2618 C 262.057 1.68812 0.208966 0
M  V30 2619 O 263.242 1.9408 0.0682666 0
M  V30 2620 C 260.372 3.46051 -0.294296 0
M  V30 2621 C 259.326 4.08778 -1.26826 0
M  V30 2622 C 258.652 5.31419 -0.591449 0
M  V30 2623 C 259.952 4.51476 -2.62615 0
M  V30 2624 H 261.646 2.43703 -1.73923 0
M  V30 2625 H 259.192 1.17128 -0.837675 0
M  V30 2626 H 261.145 4.2134 -0.0709606 0
M  V30 2627 H 259.869 3.20079 0.649366 0
M  V30 2628 H 258.528 3.35505 -1.47756 0
M  V30 2629 H 258.176 5.01727 0.357633 0
M  V30 2630 H 257.876 5.74341 -1.24123 0
M  V30 2631 H 259.4 6.09433 -0.377355 0
M  V30 2632 H 260.814 5.17999 -2.45663 0
M  V30 2633 H 259.211 5.05277 -3.23752 0
M  V30 2634 H 260.281 3.63962 -3.20406 0
M  V30 2635 N 261.624 0.925811 1.2754 0
M  V30 2636 C 263.035 0.610102 1.7645 0
M  V30 2637 C 263.386 -0.874723 1.75622 0
M  V30 2638 O 262.511 -1.68444 1.35851 0
M  V30 2639 C 263.106 1.10073 3.20421 0
M  V30 2640 C 261.665 0.835723 3.67005 0
M  V30 2641 C 260.812 1.26054 2.46993 0
M  V30 2642 H 263.763 1.10579 1.13833 0
M  V30 2643 H 263.784 0.447557 3.77859 0
M  V30 2644 H 263.296 2.18143 3.20991 0
M  V30 2645 H 261.397 -0.231249 3.71882 0
M  V30 2646 H 261.51 1.45193 4.56569 0
M  V30 2647 H 259.874 0.679111 2.45479 0
M  V30 2648 H 260.657 2.34984 2.50275 0
M  V30 2649 N 263.102 -1.41638 0.69111 0
M  V30 2650 C 264.35 -2.00902 0.219758 0
M  V30 2651 C 264.671 -1.54994 -1.18329 0
M  V30 2652 O 263.941 -0.778628 -1.79762 0
M  V30 2653 H 262.521 -0.74289 0.0782558 0
M  V30 2654 H 265.183 -1.73327 0.891271 0
M  V30 2655 H 264.279 -3.11224 0.233708 0
M  V30 2656 N 264.58 -0.43555 -1.51462 0
M  V30 2657 C 265.857 0.191364 -1.94662 0
M  V30 2658 C 266.237 1.60254 -1.37411 0
M  V30 2659 O 265.585 2.2152 -0.560458 0
M  V30 2660 C 265.795 0.17091 -3.48581 0
M  V30 2661 C 267.143 0.377357 -4.2292 0
M  V30 2662 O 268.167 0.249104 -3.55328 0
M  V30 2663 O 267.026 0.63247 -5.42828 0
M  V30 2664 H 264.12 0.130932 -0.816569 0
M  V30 2665 H 266.666 -0.4934 -1.62369 0
M  V30 2666 H 265.438 -0.815738 -3.82703 0
M  V30 2667 H 265.061 0.898659 -3.87311 0
M  V30 2668 N 266.058 1.56714 -0.166846 0
M  V30 2669 C 267.288 2.00828 0.48494 0
M  V30 2670 C 267.696 1.04612 1.57648 0
M  V30 2671 O 267.039 0.0383201 1.8366 0
M  V30 2672 C 267.101 3.4137 1.12723 0
M  V30 2673 C 266.765 4.56654 0.177886 0
M  V30 2674 C 267.762 5.16402 -0.60207 0
M  V30 2675 C 265.447 5.02244 0.0750139 0
M  V30 2676 C 267.441 6.20167 -1.47215 0
M  V30 2677 C 265.128 6.05859 -0.798649 0
M  V30 2678 C 266.126 6.64691 -1.57082 0
M  V30 2679 O 265.814 7.66297 -2.42989 0
M  V30 2680 H 265.546 0.663587 0.128953 0
M  V30 2681 H 268.1 2.03692 -0.264365 0
M  V30 2682 H 266.33 3.35406 1.92457 0
M  V30 2683 H 268.019 3.69466 1.68076 0
M  V30 2684 H 268.785 4.82065 -0.53274 0
M  V30 2685 H 264.664 4.56167 0.665812 0
M  V30 2686 H 268.208 6.66016 -2.07531 0
M  V30 2687 H 264.105 6.39621 -0.869199 0
M  V30 2688 H 264.873 7.83601 -2.36455 0
M  V30 2689 N 267.536 -0.106894 1.57237 0
M  V30 2690 C 268.446 -1.14911 2.0453 0
M  V30 2691 C 269.462 -1.44592 0.96795 0
M  V30 2692 O 270.638 -1.55468 1.2803 0
M  V30 2693 C 267.703 -2.45272 2.45036 0
M  V30 2694 C 266.764 -2.22879 3.66911 0
M  V30 2695 C 265.997 -3.47024 4.05475 0
M  V30 2696 O 266.22 -4.54804 3.44252 0
M  V30 2697 O 265.154 -3.3731 4.98504 0
M  V30 2698 H 268.98 -0.777461 2.9358 0
M  V30 2699 H 266.565 -0.318563 1.45964 0
M  V30 2700 H 268.447 -3.22055 2.71769 0
M  V30 2701 H 267.122 -2.81886 1.59129 0
M  V30 2702 H 266.029 -1.43915 3.45311 0
M  V30 2703 H 267.362 -1.91163 4.53561 0
M  V30 2704 N 269.014 -1.53014 -0.377408 0
M  V30 2705 C 270.263 -1.67845 -1.11853 0
M  V30 2706 C 270.576 -0.430625 -1.90801 0
M  V30 2707 O 271.782 -0.459261 -2.67587 0
M  V30 2708 C 270.238 -2.96668 -2.03756 0
M  V30 2709 C 269.846 -4.28671 -1.30175 0
M  V30 2710 C 271.59 -3.20865 -2.77932 0
M  V30 2711 C 269.497 -5.48591 -2.20911 0
M  V30 2712 H 268.427 -0.625343 -0.421263 0
M  V30 2713 H 271.078 -1.79514 -0.380409 0
M  V30 2714 H 269.46 -2.78773 -2.8125 0
M  V30 2715 H 270.634 -4.57157 -0.578259 0
M  V30 2716 H 268.949 -4.10825 -0.679108 0
M  V30 2717 H 271.546 -4.07642 -3.46024 0
M  V30 2718 H 271.889 -2.36424 -3.4265 0
M  V30 2719 H 272.422 -3.39379 -2.07525 0
M  V30 2720 H 269.161 -6.35474 -1.6079 0
M  V30 2721 H 268.681 -5.244 -2.91144 0
M  V30 2722 H 270.36 -5.8292 -2.80736 0
M  V30 2723 N 270.492 0.636531 -1.44174 0
M  V30 2724 C 271.422 1.76003 -1.53444 0
M  V30 2725 C 272.403 1.65619 -0.387841 0
M  V30 2726 O 273.588 1.84461 -0.607257 0
M  V30 2727 C 270.718 3.14511 -1.4731 0
M  V30 2728 C 269.672 3.39677 -2.60391 0
M  V30 2729 C 268.998 4.78159 -2.39308 0
M  V30 2730 C 270.298 3.32772 -4.02567 0
M  V30 2731 H 271.992 1.68501 -2.47483 0
M  V30 2732 H 269.538 0.809237 -1.19111 0
M  V30 2733 H 271.491 3.92878 -1.52397 0
M  V30 2734 H 270.215 3.22783 -0.49785 0
M  V30 2735 H 268.874 2.63688 -2.54684 0
M  V30 2736 H 268.522 4.83128 -1.39988 0
M  V30 2737 H 268.222 4.95956 -3.15122 0
M  V30 2738 H 269.746 5.58762 -2.46205 0
M  V30 2739 H 271.16 4.01051 -4.09672 0
M  V30 2740 H 269.557 3.62104 -4.7854 0
M  V30 2741 H 270.627 2.30669 -4.2652 0
M  V30 2742 N 271.97 1.30982 0.876444 0
M  V30 2743 C 272.933 1.18054 1.96459 0
M  V30 2744 C 273.933 0.109399 1.60427 0
M  V30 2745 O 275.123 0.358173 1.70478 0
M  V30 2746 C 272.255 0.810616 3.31122 0
M  V30 2747 H 273.448 2.14735 2.09354 0
M  V30 2748 H 271.001 1.145 1.06392 0
M  V30 2749 H 271.736 -0.155322 3.23928 0
M  V30 2750 H 271.521 1.58481 3.58645 0
M  V30 2751 H 273.011 0.743876 4.10921 0
M  V30 2752 N 273.449 -1.08991 1.13837 0
M  V30 2753 C 274.677 -1.85011 0.926202 0
M  V30 2754 C 275.092 -1.8135 -0.525127 0
M  V30 2755 O 274.449 -1.21287 -1.36366 0
M  V30 2756 C 274.5 -3.32802 1.41155 0
M  V30 2757 O 274.221 -3.36444 2.80601 0
M  V30 2758 C 275.722 -4.25649 1.23847 0
M  V30 2759 H 272.942 -0.584249 0.32999 0
M  V30 2760 H 275.486 -1.37688 1.51202 0
M  V30 2761 H 273.641 -3.77536 0.868631 0
M  V30 2762 H 274.055 -4.28657 3.02248 0
M  V30 2763 H 275.529 -5.27485 1.62675 0
M  V30 2764 H 276.006 -4.38828 0.18065 0
M  V30 2765 H 276.612 -3.86735 1.76964 0
M  V30 2766 N 274.927 -0.932562 -1.27047 0
M  V30 2767 C 275.877 -0.406392 -2.24349 0
M  V30 2768 C 276.861 0.492066 -1.53191 0
M  V30 2769 O 278.053 0.328717 -1.73921 0
M  V30 2770 C 275.182 0.335214 -3.41659 0
M  V30 2771 C 274.268 -0.58004 -4.20115 0
M  V30 2772 N 274.659 -1.70203 -4.76303 0
M  V30 2773 C 272.957 -0.383974 -4.44344 0
M  V30 2774 C 273.658 -2.27167 -5.35509 0
M  V30 2775 N 272.634 -1.56068 -5.20715 0
M  V30 2776 H 276.436 -1.26299 -2.65378 0
M  V30 2777 H 273.95 -0.787408 -1.42034 0
M  V30 2778 H 275.947 0.729142 -4.10474 0
M  V30 2779 H 274.607 1.18868 -3.0216 0
M  V30 2780 H 275.618 -2.08433 -4.74106 0
M  V30 2781 H 272.295 0.428436 -4.15296 0
M  V30 2782 H 273.685 -3.21654 -5.89905 0
M  V30 2783 N 276.405 1.4127 -0.698611 0
M  V30 2784 C 277.816 1.84187 -0.305289 0
M  V30 2785 C 278.167 1.58449 1.15708 0
M  V30 2786 O 277.292 1.05651 1.88856 0
M  V30 2787 C 277.887 3.3435 -0.547314 0
M  V30 2788 C 276.446 3.75826 -0.207878 0
M  V30 2789 C 275.593 2.64647 -0.828099 0
M  V30 2790 H 278.544 1.30778 -0.89904 0
M  V30 2791 H 278.565 3.8001 0.192998 0
M  V30 2792 H 278.077 3.53051 -1.61172 0
M  V30 2793 H 276.178 3.62725 0.852143 0
M  V30 2794 H 276.291 4.74462 -0.665021 0
M  V30 2795 H 274.655 2.53395 -0.257458 0
M  V30 2796 H 275.438 2.86165 -1.89643 0
M  V30 2797 N 277.883 0.443576 1.51229 0
M  V30 2798 C 279.111 -0.11929 2.06556 0
M  V30 2799 C 279.526 -1.35921 1.31038 0
M  V30 2800 O 278.883 -1.78675 0.371704 0
M  V30 2801 C 278.934 -0.435228 3.5887 0
M  V30 2802 O 278.655 0.755486 4.31537 0
M  V30 2803 C 280.156 -1.04808 4.30732 0
M  V30 2804 H 277.376 -0.0051584 0.67098 0
M  V30 2805 H 279.92 0.624453 1.94733 0
M  V30 2806 H 278.075 -1.12887 3.70588 0
M  V30 2807 H 278.489 0.483491 5.22267 0
M  V30 2808 H 279.963 -1.2191 5.3837 0
M  V30 2809 H 280.44 -2.03081 3.89429 0
M  V30 2810 H 281.046 -0.393637 4.23474 0
M  V30 2811 N 279.361 -1.56624 0.175154 0
M  V30 2812 C 280.607 -1.98061 -0.462976 0
M  V30 2813 C 280.962 -1.05949 -1.60601 0
M  V30 2814 O 280.255 -0.0999027 -1.91339 0
M  V30 2815 C 280.449 -3.43419 -0.989864 0
M  V30 2816 C 280.278 -4.49587 0.100583 0
M  V30 2817 C 279.048 -5.02281 0.551539 0
M  V30 2818 C 281.246 -5.06322 0.902369 0
M  V30 2819 N 279.228 -5.92088 1.62189 0
M  V30 2820 C 280.599 -5.92607 1.82256 0
M  V30 2821 C 282.654 -4.88811 0.947019 0
M  V30 2822 C 281.357 -6.63254 2.78364 0
M  V30 2823 C 283.383 -5.60182 1.89606 0
M  V30 2824 C 282.745 -6.46197 2.80372 0
M  V30 2825 H 278.844 -0.769833 -0.137409 0
M  V30 2826 H 281.428 -1.9273 0.276256 0
M  V30 2827 H 279.599 -3.49288 -1.6986 0
M  V30 2828 H 281.331 -3.7186 -1.59694 0
M  V30 2829 H 278.086 -4.73367 0.148537 0
M  V30 2830 H 278.51 -6.41696 2.15767 0
M  V30 2831 H 283.152 -4.22004 0.259304 0
M  V30 2832 H 280.87 -7.29271 3.48122 0
M  V30 2833 H 284.456 -5.48617 1.93676 0
M  V30 2834 H 283.336 -7.00453 3.52612 0
M  V30 2835 N 280.839 0.0985539 -1.57292 0
M  V30 2836 C 281.802 1.10402 -2.00858 0
M  V30 2837 C 282.802 1.33146 -0.901593 0
M  V30 2838 O 283.992 1.29318 -1.16716 0
M  V30 2839 C 281.124 2.45394 -2.36632 0
M  V30 2840 H 282.317 0.729099 -2.90902 0
M  V30 2841 H 279.87 0.343495 -1.52479 0
M  V30 2842 H 280.605 2.87769 -1.49531 0
M  V30 2843 H 280.39 2.30235 -3.17387 0
M  V30 2844 H 281.88 3.17718 -2.71007 0
M  V30 2845 N 282.317 1.53212 0.369288 0
M  V30 2846 C 283.247 1.82365 1.45826 0
M  V30 2847 C 284.228 0.676907 1.56051 0
M  V30 2848 O 285.413 0.926401 1.70679 0
M  V30 2849 C 282.543 2.01023 2.83208 0
M  V30 2850 C 281.497 3.1678 2.8781 0
M  V30 2851 C 280.823 3.20724 4.27832 0
M  V30 2852 C 282.123 4.55447 2.55667 0
M  V30 2853 H 283.817 2.73559 1.21678 0
M  V30 2854 H 281.363 1.3163 0.583911 0
M  V30 2855 H 283.316 2.20001 3.59413 0
M  V30 2856 H 282.04 1.06536 3.08736 0
M  V30 2857 H 280.699 2.97616 2.14056 0
M  V30 2858 H 280.347 2.23882 4.50429 0
M  V30 2859 H 280.047 3.98496 4.31827 0
M  V30 2860 H 281.571 3.41881 5.05915 0
M  V30 2861 H 282.985 4.74611 3.21586 0
M  V30 2862 H 281.382 5.35432 2.70984 0
M  V30 2863 H 282.452 4.60812 1.5093 0
M  V30 2864 N 283.795 -0.628877 1.44509 0
M  V30 2865 C 284.742 -1.74074 1.51549 0
M  V30 2866 C 285.712 -1.62084 0.363021 0
M  V30 2867 O 286.897 -1.81975 0.573567 0
M  V30 2868 C 284.037 -3.12328 1.46784 0
M  V30 2869 C 283.15 -3.35277 2.72422 0
M  V30 2870 C 282.285 -4.63515 2.59475 0
M  V30 2871 C 281.324 -4.7965 3.80266 0
M  V30 2872 N 280.461 -5.99168 3.65981 0
M  V30 2873 H 285.301 -1.67392 2.46544 0
M  V30 2874 H 282.838 -0.816527 1.22357 0
M  V30 2875 H 284.796 -3.92286 1.42012 0
M  V30 2876 H 283.426 -3.18018 0.553544 0
M  V30 2877 H 282.478 -2.49242 2.87372 0
M  V30 2878 H 283.79 -3.43078 3.62076 0
M  V30 2879 H 282.944 -5.51638 2.52548 0
M  V30 2880 H 281.683 -4.58076 1.67384 0
M  V30 2881 H 280.688 -3.89957 3.87574 0
M  V30 2882 H 281.913 -4.86902 4.73395 0
M  V30 2883 H 279.859 -5.94814 2.76644 0
M  V30 2884 H 279.776 -6.08035 4.49254 0
M  V30 2885 H 281.044 -6.89846 3.6295 0
M  V30 2886 N 285.273 -1.31445 -0.869486 0
M  V30 2887 C 286.183 -1.21097 -2.0093 0
M  V30 2888 C 287.199 -0.127584 -1.73532 0
M  V30 2889 O 288.375 -0.345477 -1.98415 0
M  V30 2890 C 285.44 -0.919378 -3.34288 0
M  V30 2891 C 284.501 -2.08971 -3.75006 0
M  V30 2892 C 283.734 -1.81194 -5.02001 0
M  V30 2893 O 283.957 -0.747296 -5.65484 0
M  V30 2894 O 282.891 -2.66883 -5.39497 0
M  V30 2895 H 286.717 -2.16883 -2.12592 0
M  V30 2896 H 284.302 -1.11189 -0.997868 0
M  V30 2897 H 286.184 -0.772625 -4.14257 0
M  V30 2898 H 284.859 0.00844772 -3.23699 0
M  V30 2899 H 283.766 -2.29187 -2.95676 0
M  V30 2900 H 285.099 -2.9998 -3.90221 0
M  V30 2901 N 286.751 1.08385 -1.14413 0
M  V30 2902 C 287.714 2.13486 -0.834048 0
M  V30 2903 C 288.714 1.59988 0.161418 0
M  V30 2904 O 289.904 1.74071 -0.0669575 0
M  V30 2905 C 287.036 3.4003 -0.243354 0
M  V30 2906 H 288.229 2.42425 -1.7655 0
M  V30 2907 H 285.782 1.24101 -0.950189 0
M  V30 2908 H 286.517 3.16726 0.696807 0
M  V30 2909 H 286.302 3.80157 -0.960367 0
M  V30 2910 H 287.792 4.17577 -0.0436242 0
M  V30 2911 N 288.23 0.939286 1.26551 0
M  V30 2912 C 289.455 0.602008 1.98471 0
M  V30 2913 C 289.88 -0.815624 1.69497 0
M  V30 2914 O 289.238 -1.54912 0.941905 0
M  V30 2915 C 289.286 0.848407 3.50477 0
M  V30 2916 O 288.39 -0.0804009 4.12322 0
M  V30 2917 H 287.731 0.23049 0.622712 0
M  V30 2918 H 290.261 1.2617 1.61066 0
M  V30 2919 H 290.271 0.768553 4.00696 0
M  V30 2920 H 288.946 1.88171 3.70897 0
M  V30 2921 H 287.523 0.0503508 3.72866 0
M  V30 2922 N 289.708 -1.40897 0.706093 0
M  V30 2923 C 290.936 -2.05373 0.250887 0
M  V30 2924 C 291.351 -1.53172 -1.10381 0
M  V30 2925 O 290.708 -0.684305 -1.69185 0
M  V30 2926 C 290.759 -3.6088 0.211571 0
M  V30 2927 O 290.48 -4.11153 1.51276 0
M  V30 2928 C 291.981 -4.42517 -0.263346 0
M  V30 2929 H 289.201 -0.66115 0.114552 0
M  V30 2930 H 291.745 -1.80479 0.961635 0
M  V30 2931 H 289.9 -3.84777 -0.450073 0
M  V30 2932 H 290.314 -5.05279 1.40689 0
M  V30 2933 H 291.788 -5.51479 -0.239718 0
M  V30 2934 H 292.265 -4.19396 -1.30397 0
M  V30 2935 H 292.871 -4.23708 0.367677 0
M  V30 2936 N 291.186 -0.45159 -1.50991 0
M  V30 2937 C 292.414 0.108334 -2.06616 0
M  V30 2938 C 292.829 1.35224 -1.31757 0
M  V30 2939 O 292.186 1.78475 -0.381174 0
M  V30 2940 C 292.237 0.41619 -3.59096 0
M  V30 2941 O 291.958 -0.778361 -4.3113 0
M  V30 2942 C 293.459 1.02523 -4.31282 0
M  V30 2943 H 290.679 0.00159995 -0.670998 0
M  V30 2944 H 293.223 -0.634771 -1.94399 0
M  V30 2945 H 291.378 1.10921 -3.71181 0
M  V30 2946 H 291.792 -0.511181 -5.22003 0
M  V30 2947 H 293.266 1.19053 -5.39009 0
M  V30 2948 H 293.743 2.01013 -3.905 0
M  V30 2949 H 294.349 0.371173 -4.23677 0
M  V30 2950 N 292.664 1.56529 -0.183458 0
M  V30 2951 C 293.91 1.97537 0.459036 0
M  V30 2952 C 294.243 1.06989 1.62071 0
M  V30 2953 O 293.518 0.11948 1.94133 0
M  V30 2954 C 293.801 3.47874 0.930368 0
M  V30 2955 C 293.654 4.492 -0.232317 0
M  V30 2956 C 294.973 4.01612 1.79989 0
M  V30 2957 H 292.092 0.718204 0.165383 0
M  V30 2958 H 294.734 1.88042 -0.272038 0
M  V30 2959 H 292.884 3.56095 1.55333 0
M  V30 2960 H 294.556 4.53027 -0.86972 0
M  V30 2961 H 292.799 4.24657 -0.885928 0
M  V30 2962 H 293.47 5.51823 0.139796 0
M  V30 2963 H 295.946 3.96097 1.27461 0
M  V30 2964 H 294.822 5.07195 2.09867 0
M  V30 2965 H 295.083 3.46163 2.74998 0
M  V30 2966 N 294.142 -0.090211 1.57342 0
M  V30 2967 C 295.558 -0.444547 1.53284 0
M  V30 2968 C 295.758 -1.80238 0.900914 0
M  V30 2969 O 294.814 -2.4759 0.495513 0
M  V30 2970 C 296.127 -0.402543 2.97993 0
M  V30 2971 C 297.675 -0.48405 3.09234 0
M  V30 2972 C 298.15 -0.472144 4.5556 0
M  V30 2973 N 299.641 -0.532757 4.60126 0
M  V30 2974 C 300.376 -0.545462 5.708 0
M  V30 2975 N 299.872 -0.514082 6.9089 0
M  V30 2976 N 301.665 -0.59064 5.58988 0
M  V30 2977 H 293.816 0.799121 1.96794 0
M  V30 2978 H 296.079 0.297965 0.899956 0
M  V30 2979 H 295.785 0.528106 3.47712 0
M  V30 2980 H 295.659 -1.21969 3.56936 0
M  V30 2981 H 298.046 -1.40512 2.595 0
M  V30 2982 H 298.127 0.361328 2.53235 0
M  V30 2983 H 297.771 0.445 5.05947 0
M  V30 2984 H 297.701 -1.3348 5.09402 0
M  V30 2985 H 300.192 -0.562006 3.73698 0
M  V30 2986 H 300.505 -0.527195 7.71 0
M  V30 2987 H 298.85 -0.481054 6.93333 0
M  V30 2988 H 302.041 -0.61272 4.64073 0
M  V30 2989 H 302.214 -0.597073 6.45243 0
M  V30 2990 N 295.62 -1.53406 -0.361157 0
M  V30 2991 C 296.866 -1.70054 -1.10496 0
M  V30 2992 C 297.199 -0.453278 -1.88836 0
M  V30 2993 O 296.474 0.5495 -1.86576 0
M  V30 2994 C 296.757 -2.95317 -2.06058 0
M  V30 2995 C 296.61 -4.3021 -1.31298 0
M  V30 2996 C 297.929 -3.16193 -3.06121 0
M  V30 2997 H 295.048 -0.618799 -0.400321 0
M  V30 2998 H 297.69 -1.86052 -0.385318 0
M  V30 2999 H 295.84 -2.81809 -2.67425 0
M  V30 3000 H 297.512 -4.55538 -0.726807 0
M  V30 3001 H 295.755 -4.29421 -0.614853 0
M  V30 3002 H 296.426 -5.14 -2.01265 0
M  V30 3003 H 298.902 -3.28916 -2.5486 0
M  V30 3004 H 297.778 -4.05266 -3.70204 0
M  V30 3005 H 298.039 -2.31676 -3.76535 0
M  V30 3006 N 297.098 0.621204 -1.44841 0
M  V30 3007 C 298.326 1.40752 -1.51646 0
M  V30 3008 C 298.741 1.88246 -0.144549 0
M  V30 3009 O 298.098 1.61422 0.851416 0
M  V30 3010 C 298.149 2.62119 -2.4895 0
M  V30 3011 O 297.87 2.16602 -3.80808 0
M  V30 3012 C 299.371 3.55135 -2.65319 0
M  V30 3013 H 296.591 0.431325 -0.514004 0
M  V30 3014 H 299.135 0.758835 -1.899 0
M  V30 3015 H 297.29 3.23058 -2.13805 0
M  V30 3016 H 297.704 2.95358 -4.33433 0
M  V30 3017 H 299.178 4.36874 -3.37409 0
M  V30 3018 H 299.655 4.04592 -1.70886 0
M  V30 3019 H 300.261 3.00058 -3.01405 0
M  V30 3020 N 298.576 1.31904 0.862503 0
M  V30 3021 C 299.524 1.20125 1.9918 0
M  V30 3022 C 300.518 0.107824 1.69056 0
M  V30 3023 O 301.724 0.270223 1.7796 0
M  V30 3024 H 298.099 0.372148 0.65346 0
M  V30 3025 H 300.07 2.15652 2.06244 0
M  V30 3026 C 298.819 0.933099 3.34946 0
M  V30 3027 H 298.142 1.76664 3.5865 0
M  V30 3028 H 299.582 0.890892 4.14535 0
M  V30 3029 C 298.041 -0.364172 3.34926 0
M  V30 3030 O 298.571 -1.37858 3.77304 0
M  V30 3031 N 296.777 -0.383362 2.8806 0
M  V30 3032 H 296.324 0.442651 2.53768 0
M  V30 3033 H 296.282 -1.25123 2.8843 0
M  V30 3034 N 300.054 -1.07777 1.14986 0
M  V30 3035 C 301.279 -1.84558 0.946213 0
M  V30 3036 C 301.704 -1.81323 -0.500362 0
M  V30 3037 O 301.062 -1.20301 -1.35637 0
M  V30 3038 C 301.11 -3.29736 1.45968 0
M  V30 3039 O 300.214 -4.07149 0.65601 0
M  V30 3040 H 299.555 -0.571641 0.33782 0
M  V30 3041 H 302.085 -1.35991 1.52865 0
M  V30 3042 H 302.095 -3.80574 1.47063 0
M  V30 3043 H 300.77 -3.31406 2.51283 0
M  V30 3044 H 299.347 -3.65994 0.714322 0
M  V30 3045 N 301.532 -0.945985 -1.26051 0
M  V30 3046 C 302.48 -0.450259 -2.282 0
M  V30 3047 C 303.474 0.47497 -1.62605 0
M  V30 3048 O 304.68 0.352653 -1.76512 0
M  V30 3049 H 301.055 -0.127081 -0.741184 0
M  V30 3050 H 303.026 -1.32422 -2.67408 0
M  V30 3051 C 301.775 0.26467 -3.46691 0
M  V30 3052 H 301.098 -0.438123 -3.97392 0
M  V30 3053 H 302.538 0.575678 -4.20074 0
M  V30 3054 C 300.997 1.48416 -3.02447 0
M  V30 3055 O 301.527 2.58227 -3.07704 0
M  V30 3056 N 299.733 1.34243 -2.57735 0
M  V30 3057 H 299.28 0.448994 -2.53657 0
M  V30 3058 H 299.238 2.15957 -2.28495 0
M  V30 3059 N 303.011 1.40521 -0.713556 0
M  V30 3060 C 303.974 2.29098 -0.0684347 0
M  V30 3061 C 304.974 1.45268 0.689472 0
M  V30 3062 O 306.164 1.66205 0.521677 0
M  V30 3063 C 303.296 3.28446 0.913024 0
M  V30 3064 H 304.489 2.87645 -0.84855 0
M  V30 3065 H 302.042 1.48809 -0.47809 0
M  V30 3066 H 302.777 2.74913 1.72027 0
M  V30 3067 H 302.562 3.90327 0.372472 0
M  V30 3068 H 304.052 3.94777 1.36165 0
M  V30 3069 N 304.489 0.459591 1.5075 0
M  V30 3070 C 305.437 -0.354678 2.2988 0
M  V30 3071 C 306.431 -1.00086 1.36672 0
M  V30 3072 O 307.637 -0.933277 1.53915 0
M  V30 3073 H 304.012 -0.13321 0.740107 0
M  V30 3074 H 305.983 0.333269 2.96533 0
M  V30 3075 C 304.732 -1.43073 3.169 0
M  V30 3076 H 304.055 -0.942882 3.88523 0
M  V30 3077 H 305.495 -1.97328 3.75284 0
M  V30 3078 C 303.954 -2.42633 2.33732 0
M  V30 3079 O 304.484 -3.47658 2.01238 0
M  V30 3080 N 302.69 -2.14066 1.9653 0
M  V30 3081 H 302.237 -1.28685 2.23155 0
M  V30 3082 H 302.195 -2.80917 1.41185 0
M  V30 3083 N 305.967 -1.56429 0.191757 0
M  V30 3084 C 306.93 -2.17707 -0.716688 0
M  V30 3085 C 307.93 -1.13061 -1.14341 0
M  V30 3086 O 309.12 -1.38464 -1.05704 0
M  V30 3087 C 306.252 -2.77644 -1.97804 0
M  V30 3088 H 307.445 -2.99342 -0.1829 0
M  V30 3089 H 304.998 -1.56193 -0.0578566 0
M  V30 3090 H 305.733 -1.99799 -2.55443 0
M  V30 3091 H 305.518 -3.54246 -1.68083 0
M  V30 3092 H 307.008 -3.24708 -2.62592 0
M  V30 3093 N 307.445 0.0818655 -1.57387 0
M  V30 3094 C 308.408 1.08265 -2.02018 0
M  V30 3095 C 309.408 1.32183 -0.915664 0
M  V30 3096 O 310.598 1.28073 -1.18081 0
M  V30 3097 C 307.73 2.42871 -2.39221 0
M  V30 3098 H 308.923 0.698204 -2.91659 0
M  V30 3099 H 306.476 0.327303 -1.52835 0
M  V30 3100 H 307.211 2.86167 -1.52575 0
M  V30 3101 H 306.996 2.26855 -3.19811 0
M  V30 3102 H 308.486 3.14826 -2.74362 0
M  V30 3103 N 308.923 1.53595 0.353017 0
M  V30 3104 C 310.148 1.7462 1.11904 0
M  V30 3105 C 310.573 0.479721 1.8188 0
M  V30 3106 O 309.931 -0.567066 1.72204 0
M  V30 3107 C 309.979 2.92029 2.11545 0
M  V30 3108 O 309.083 2.61516 3.18878 0
M  V30 3109 H 308.424 0.579531 0.324099 0
M  V30 3110 H 310.954 2.00525 0.406301 0
M  V30 3111 H 310.964 3.18551 2.5493 0
M  V30 3112 H 309.639 3.83888 1.60008 0
M  V30 3113 H 308.216 2.45852 2.80377 0
M  V30 3114 N 310.401 -0.613514 1.45168 0
M  V30 3115 C 311.812 -1.19539 1.43413 0
M  V30 3116 C 312.163 -1.95558 0.158632 0
M  V30 3117 O 311.288 -2.0335 -0.740119 0
M  V30 3118 C 311.883 -2.17445 2.59813 0
M  V30 3119 C 310.442 -2.71022 2.61197 0
M  V30 3120 C 309.589 -1.46323 2.35552 0
M  V30 3121 H 312.54 -0.403163 1.53494 0
M  V30 3122 H 312.561 -3.00373 2.33574 0
M  V30 3123 H 312.073 -1.62089 3.52631 0
M  V30 3124 H 310.174 -3.30332 1.7237 0
M  V30 3125 H 310.287 -3.15859 3.60236 0
M  V30 3126 H 308.651 -1.75072 1.84992 0
M  V30 3127 H 309.434 -0.92844 3.30507 0
M  V30 3128 N 311.879 -1.3236 -0.855495 0
M  V30 3129 C 312.809 -1.23833 -1.97958 0
M  V30 3130 C 313.79 -0.122361 -1.69659 0
M  V30 3131 O 314.975 -0.30939 -1.9172 0
M  V30 3132 C 312.105 -0.959772 -3.33775 0
M  V30 3133 C 311.059 -2.03689 -3.76424 0
M  V30 3134 C 310.385 -1.61075 -5.09862 0
M  V30 3135 C 311.685 -3.4518 -3.9198 0
M  V30 3136 H 313.379 -2.1788 -2.0535 0
M  V30 3137 H 310.925 -1.04891 -0.986605 0
M  V30 3138 H 312.878 -0.886678 -4.11966 0
M  V30 3139 H 311.602 0.0163404 -3.26596 0
M  V30 3140 H 310.261 -2.10012 -3.00484 0
M  V30 3141 H 309.909 -0.622107 -4.99138 0
M  V30 3142 H 309.609 -2.33143 -5.39368 0
M  V30 3143 H 311.133 -1.55201 -5.90546 0
M  V30 3144 H 312.547 -3.4145 -4.60526 0
M  V30 3145 H 310.944 -4.1559 -4.32903 0
M  V30 3146 H 312.014 -3.84903 -2.94919 0
M  V30 3147 N 313.357 1.07166 -1.15556 0
M  V30 3148 C 314.606 1.79181 -0.926132 0
M  V30 3149 C 314.919 1.87768 0.547967 0
M  V30 3150 O 316.125 2.56323 0.895036 0
M  V30 3151 C 314.581 3.22 -1.60761 0
M  V30 3152 C 314.189 3.21607 -3.11886 0
M  V30 3153 C 315.933 3.9861 -1.4598 0
M  V30 3154 C 313.84 4.59092 -3.72812 0
M  V30 3155 H 312.77 0.67154 -0.342856 0
M  V30 3156 H 315.421 1.2027 -1.3859 0
M  V30 3157 H 313.803 3.81115 -1.07553 0
M  V30 3158 H 314.977 2.72127 -3.71865 0
M  V30 3159 H 313.292 2.58495 -3.2645 0
M  V30 3160 H 315.889 5.00225 -1.88888 0
M  V30 3161 H 316.232 4.143 -0.407541 0
M  V30 3162 H 316.765 3.45996 -1.96295 0
M  V30 3163 H 313.504 4.48606 -4.77946 0
M  V30 3164 H 313.024 5.08803 -3.17616 0
M  V30 3165 H 314.703 5.28059 -3.73848 0
M  V30 3166 N 314.835 0.952656 1.25548 0
M  V30 3167 C 316.081 0.607272 1.93494 0
M  V30 3168 C 316.414 -0.853245 1.74452 0
M  V30 3169 O 315.689 -1.61194 1.08843 0
M  V30 3170 C 315.972 0.96435 3.46947 0
M  V30 3171 C 315.825 2.48045 3.75225 0
M  V30 3172 C 317.144 0.487987 4.37386 0
M  V30 3173 H 314.263 0.222096 0.702739 0
M  V30 3174 H 316.905 1.18895 1.48203 0
M  V30 3175 H 315.055 0.469361 3.85654 0
M  V30 3176 H 316.727 3.04905 3.46166 0
M  V30 3177 H 314.97 2.919 3.209 0
M  V30 3178 H 315.641 2.6808 4.82532 0
M  V30 3179 H 318.117 0.912558 4.0597 0
M  V30 3180 H 316.993 0.766547 5.43521 0
M  V30 3181 H 317.254 -0.612063 4.37843 0
M  V30 3182 N 316.313 -1.40141 0.720998 0
M  V30 3183 C 317.276 -2.29058 0.0805834 0
M  V30 3184 C 318.276 -1.45632 -0.681758 0
M  V30 3185 O 319.466 -1.6648 -0.512856 0
M  V30 3186 C 316.598 -3.28925 -0.895593 0
M  V30 3187 H 317.791 -2.87191 0.863793 0
M  V30 3188 H 315.344 -1.48553 0.485975 0
M  V30 3189 H 316.079 -2.75822 -1.70566 0
M  V30 3190 H 315.864 -3.90519 -0.351766 0
M  V30 3191 H 317.354 -3.95494 -1.34069 0
M  V30 3192 N 317.792 -0.46758 -1.50504 0
M  V30 3193 C 319.04 0.0884469 -2.01906 0
M  V30 3194 C 319.361 1.40532 -1.35188 0
M  V30 3195 O 318.631 1.89515 -0.496079 0
M  V30 3196 H 317.211 0.0356765 -0.746148 0
M  V30 3197 H 319.873 -0.6172 -1.84869 0
M  V30 3198 H 318.969 0.2425 -3.11156 0
M  V30 3199 N 319.27 1.56325 -0.20005 0
M  V30 3200 C 320.5 2.01811 0.442232 0
M  V30 3201 C 320.908 1.07932 1.55394 0
M  V30 3202 O 320.251 0.0772685 1.83537 0
M  V30 3203 C 320.313 3.43685 1.05457 0
M  V30 3204 C 319.977 4.56928 0.0809833 0
M  V30 3205 C 320.974 5.15009 -0.711471 0
M  V30 3206 C 318.659 5.0229 -0.0315364 0
M  V30 3207 C 320.653 6.16904 -1.60336 0
M  V30 3208 C 318.34 6.04028 -0.926981 0
M  V30 3209 C 319.338 6.6121 -1.71146 0
M  V30 3210 O 319.026 7.60971 -2.59189 0
M  V30 3211 H 318.758 0.666173 0.114848 0
M  V30 3212 H 321.312 2.03085 -0.307511 0
M  V30 3213 H 319.542 3.39413 1.85299 0
M  V30 3214 H 321.231 3.72948 1.60201 0
M  V30 3215 H 321.997 4.80827 -0.634873 0
M  V30 3216 H 317.876 4.57476 0.568902 0
M  V30 3217 H 321.42 6.61464 -2.21611 0
M  V30 3218 H 317.317 6.37634 -1.00468 0
M  V30 3219 H 318.085 7.7841 -2.53023 0
M  V30 3220 N 320.748 -0.0735177 1.57428 0
M  V30 3221 C 321.696 -1.10628 2.04607 0
M  V30 3222 C 322.69 -1.40181 0.951088 0
M  V30 3223 O 323.896 -1.39608 1.1362 0
M  V30 3224 H 320.271 -0.374088 0.652351 0
M  V30 3225 H 322.242 -0.682218 2.90497 0
M  V30 3226 C 320.991 -2.41212 2.50423 0
M  V30 3227 H 320.314 -2.19322 3.34272 0
M  V30 3228 H 321.754 -3.11927 2.87189 0
M  V30 3229 C 320.213 -3.0705 1.38644 0
M  V30 3230 O 320.743 -3.95056 0.727582 0
M  V30 3231 N 318.949 -2.67645 1.132 0
M  V30 3232 H 318.496 -1.96169 1.66959 0
M  V30 3233 H 318.454 -3.1202 0.386147 0
M  V30 3234 N 322.226 -1.5378 -0.344866 0
M  V30 3235 C 323.472 -1.71216 -1.08687 0
M  V30 3236 C 323.805 -0.473281 -1.88345 0
M  V30 3237 O 323.08 0.52968 -1.87149 0
M  V30 3238 C 323.363 -2.97486 -2.02914 0
M  V30 3239 C 323.216 -4.31579 -1.26727 0
M  V30 3240 C 324.535 -3.19422 -3.0275 0
M  V30 3241 H 321.654 -0.62301 -0.393735 0
M  V30 3242 H 324.296 -1.8645 -0.365563 0
M  V30 3243 H 322.446 -2.84629 -2.64421 0
M  V30 3244 H 324.118 -4.56284 -0.67845 0
M  V30 3245 H 322.361 -4.30049 -0.569273 0
M  V30 3246 H 323.032 -5.16106 -1.95803 0
M  V30 3247 H 325.508 -3.316 -2.51357 0
M  V30 3248 H 324.384 -4.09169 -3.65885 0
M  V30 3249 H 324.645 -2.35656 -3.74057 0
M  V30 3250 N 323.704 0.605807 -1.45491 0
M  V30 3251 C 324.929 1.39625 -1.53361 0
M  V30 3252 C 325.354 1.87351 -0.167645 0
M  V30 3253 O 324.712 1.60243 0.848051 0
M  V30 3254 C 324.76 2.57559 -2.5238 0
M  V30 3255 O 323.864 3.58248 -2.04285 0
M  V30 3256 H 323.205 0.416771 -0.516912 0
M  V30 3257 H 325.735 0.737103 -1.90861 0
M  V30 3258 H 325.745 3.0478 -2.71244 0
M  V30 3259 H 324.42 2.22171 -3.51586 0
M  V30 3260 H 322.997 3.17664 -1.95305 0
M  V30 3261 N 325.182 1.32811 0.848464 0
M  V30 3262 C 326.43 1.23479 1.59991 0
M  V30 3263 C 326.751 -0.201853 1.93952 0
M  V30 3264 O 326.021 -1.12818 1.60153 0
M  V30 3265 H 324.601 0.454034 0.593179 0
M  V30 3266 H 327.263 1.66412 1.01455 0
M  V30 3267 H 326.359 1.82178 2.53412 0
M  V30 3268 N 326.66 -1.06551 1.16123 0
M  V30 3269 C 327.885 -1.83544 0.965735 0
M  V30 3270 C 328.31 -1.81843 -0.481102 0
M  V30 3271 O 327.668 -1.21732 -1.34354 0
M  V30 3272 C 327.716 -3.28169 1.49457 0
M  V30 3273 O 326.82 -4.0643 0.699157 0
M  V30 3274 H 326.161 -0.568026 0.343864 0
M  V30 3275 H 328.691 -1.34362 1.54299 0
M  V30 3276 H 328.701 -3.78992 1.51092 0
M  V30 3277 H 327.376 -3.28722 2.54784 0
M  V30 3278 H 325.953 -3.65216 0.7531 0
M  V30 3279 N 328.138 -0.959301 -1.25041 0
M  V30 3280 C 329.384 -0.617525 -1.9317 0
M  V30 3281 C 329.717 0.843981 -1.74902 0
M  V30 3282 O 328.992 1.60615 -1.09696 0
M  V30 3283 C 329.275 -0.982736 -3.46431 0
M  V30 3284 C 329.128 -2.50032 -3.73904 0
M  V30 3285 C 330.447 -0.511176 -4.37121 0
M  V30 3286 H 327.566 -0.22582 -0.701552 0
M  V30 3287 H 330.208 -1.19679 -1.4757 0
M  V30 3288 H 328.358 -0.489806 -3.854 0
M  V30 3289 H 330.03 -3.06737 -3.44544 0
M  V30 3290 H 328.273 -2.93598 -3.19348 0
M  V30 3291 H 328.944 -2.70635 -4.81103 0
M  V30 3292 H 331.42 -0.934075 -4.0548 0
M  V30 3293 H 330.296 -0.795361 -5.43107 0
M  V30 3294 H 330.557 0.588834 -4.38161 0
M  V30 3295 N 329.616 1.39756 -0.72842 0
M  V30 3296 C 331.032 1.5442 -0.403308 0
M  V30 3297 C 331.232 1.69694 1.08656 0
M  V30 3298 O 330.288 1.69373 1.87267 0
M  V30 3299 C 331.601 2.76555 -1.18058 0
M  V30 3300 C 333.149 2.90384 -1.16815 0
M  V30 3301 C 333.624 4.15449 -1.92785 0
M  V30 3302 N 335.115 4.22475 -1.89918 0
M  V30 3303 C 335.85 5.1818 -2.45514 0
M  V30 3304 N 335.346 6.19714 -3.09719 0
M  V30 3305 N 337.139 5.1035 -2.35584 0
M  V30 3306 H 329.29 1.28089 -1.69431 0
M  V30 3307 H 331.553 0.620327 -0.716867 0
M  V30 3308 H 331.259 2.7159 -2.23455 0
M  V30 3309 H 331.133 3.69033 -0.780662 0
M  V30 3310 H 333.52 2.94846 -0.12234 0
M  V30 3311 H 333.601 1.98988 -1.6074 0
M  V30 3312 H 333.245 4.11749 -2.97364 0
M  V30 3313 H 333.175 5.05877 -1.46272 0
M  V30 3314 H 335.666 3.49743 -1.43138 0
M  V30 3315 H 335.979 6.8919 -3.49625 0
M  V30 3316 H 334.324 6.20121 -3.13807 0
M  V30 3317 H 337.515 4.2996 -1.85072 0
M  V30 3318 H 337.688 5.84761 -2.79211 0
M  V30 3319 N 331.094 0.475555 1.50254 0
M  V30 3320 C 332.319 -0.0777042 2.07254 0
M  V30 3321 C 332.744 -1.3235 1.3366 0
M  V30 3322 O 332.102 -1.77152 0.385597 0
M  V30 3323 C 332.15 -0.340169 3.58992 0
M  V30 3324 O 331.254 -1.41982 3.87188 0
M  V30 3325 H 330.595 0.0149556 0.663832 0
M  V30 3326 H 333.125 0.667878 1.93392 0
M  V30 3327 H 333.135 -0.579332 4.03866 0
M  V30 3328 H 331.81 0.570167 4.11973 0
M  V30 3329 H 330.387 -1.16762 3.54148 0
M  V30 3330 N 332.573 -1.56217 0.208337 0
M  V30 3331 C 333.85 -1.89739 -0.475234 0
M  V30 3332 C 334.23 -1.1238 -1.78701 0
M  V30 3333 O 333.578 -0.228979 -2.2735 0
M  V30 3334 C 333.788 -3.42289 -0.681101 0
M  V30 3335 C 335.136 -4.12789 -0.994507 0
M  V30 3336 O 336.16 -3.47814 -0.768357 0
M  V30 3337 O 335.019 -5.27649 -1.42299 0
M  V30 3338 H 332.113 -0.788478 -0.249461 0
M  V30 3339 H 334.659 -1.67855 0.249538 0
M  V30 3340 H 333.431 -3.90534 0.244722 0
M  V30 3341 H 333.054 -3.69909 -1.45785 0
M  V30 3342 N 334.051 0.0651679 -1.57465 0
M  V30 3343 C 335.299 0.761555 -1.87202 0
M  V30 3344 C 335.62 1.77778 -0.801243 0
M  V30 3345 O 334.89 1.95166 0.16937 0
M  V30 3346 H 333.47 0.284251 -0.690804 0
M  V30 3347 H 336.132 0.0396827 -1.9486 0
M  V30 3348 H 335.228 1.27365 -2.84929 0
M  V30 3349 N 335.529 1.53961 0.336706 0
M  V30 3350 C 336.439 1.85432 1.43708 0
M  V30 3351 C 337.455 0.745053 1.57242 0
M  V30 3352 O 338.631 1.03804 1.72588 0
M  V30 3353 C 335.696 2.06349 2.78605 0
M  V30 3354 C 334.757 3.30191 2.74358 0
M  V30 3355 C 333.99 3.50101 4.02822 0
M  V30 3356 O 334.213 2.7371 5.00439 0
M  V30 3357 O 333.147 4.43547 4.06878 0
M  V30 3358 H 336.973 2.78975 1.20028 0
M  V30 3359 H 334.558 1.39701 0.52952 0
M  V30 3360 H 336.44 2.21513 3.58483 0
M  V30 3361 H 335.115 1.15995 3.02203 0
M  V30 3362 H 334.022 3.20425 1.93078 0
M  V30 3363 H 335.355 4.2056 2.55715 0
M  V30 3364 N 337.007 -0.598083 1.45811 0
M  V30 3365 C 338.418 -1.18011 1.44673 0
M  V30 3366 C 338.769 -1.95378 0.179364 0
M  V30 3367 O 337.894 -2.04124 -0.718509 0
M  V30 3368 C 338.489 -2.14677 2.62105 0
M  V30 3369 C 337.048 -2.68236 2.64057 0
M  V30 3370 C 336.195 -1.43816 2.37091 0
M  V30 3371 H 339.146 -0.38686 1.53913 0
M  V30 3372 H 339.167 -2.97878 2.36746 0
M  V30 3373 H 338.679 -1.5834 3.5433 0
M  V30 3374 H 336.78 -3.28486 1.75864 0
M  V30 3375 H 336.893 -3.12021 3.63566 0
M  V30 3376 H 335.257 -1.731 1.86838 0
M  V30 3377 H 336.04 -0.893333 3.31473 0
M  V30 3378 N 338.485 -1.33259 -0.841409 0
M  V30 3379 C 339.418 -1.1764 -1.95541 0
M  V30 3380 C 340.396 -0.072501 -1.62438 0
M  V30 3381 O 341.58 -0.23427 -1.87039 0
M  V30 3382 C 338.707 -0.803794 -3.29024 0
M  V30 3383 C 337.753 -1.91482 -3.81099 0
M  V30 3384 S 338.586 -3.52538 -4.03085 0
M  V30 3385 C 339.742 -3.17279 -5.39523 0
M  V30 3386 H 339.975 -2.11941 -2.08491 0
M  V30 3387 H 337.508 -1.18072 -0.9949 0
M  V30 3388 H 339.466 -0.595592 -4.06156 0
M  V30 3389 H 338.127 0.120574 -3.13868 0
M  V30 3390 H 337.32 -1.60742 -4.7768 0
M  V30 3391 H 336.922 -2.07956 -3.10854 0
M  V30 3392 H 339.214 -2.67946 -6.22263 0
M  V30 3393 H 340.157 -4.1293 -5.75234 0
M  V30 3394 H 340.565 -2.53943 -5.04156 0
M  V30 3395 N 339.963 1.05934 -1.16686 0
M  V30 3396 C 340.91 2.13499 -0.876748 0
M  V30 3397 C 341.88 1.65162 0.176299 0
M  V30 3398 O 343.065 1.90757 0.0407143 0
M  V30 3399 C 340.205 3.42912 -0.387967 0
M  V30 3400 C 339.318 4.04964 -1.50426 0
M  V30 3401 C 338.453 5.22266 -0.970125 0
M  V30 3402 C 337.492 5.76309 -2.06238 0
M  V30 3403 N 336.629 6.84922 -1.54356 0
M  V30 3404 H 341.469 2.37654 -1.7979 0
M  V30 3405 H 339.006 1.16598 -0.896843 0
M  V30 3406 H 340.964 4.17111 -0.086186 0
M  V30 3407 H 339.594 3.18963 0.496235 0
M  V30 3408 H 338.646 3.28277 -1.92193 0
M  V30 3409 H 339.958 4.41122 -2.32836 0
M  V30 3410 H 339.112 6.03506 -0.621743 0
M  V30 3411 H 337.851 4.87564 -0.115377 0
M  V30 3412 H 336.856 4.93704 -2.41942 0
M  V30 3413 H 338.081 6.13062 -2.92115 0
M  V30 3414 H 336.027 6.52131 -0.711406 0
M  V30 3415 H 335.944 7.20043 -2.30379 0
M  V30 3416 H 337.212 7.69832 -1.22387 0
M  V30 3417 N 341.441 0.965919 1.2453 0
M  V30 3418 C 342.689 0.625593 1.92174 0
M  V30 3419 C 343.01 -0.841652 1.75901 0
M  V30 3420 O 342.28 -1.60061 1.12948 0
M  V30 3421 H 340.86 0.228388 0.71123 0
M  V30 3422 H 343.522 1.2266 1.51461 0
M  V30 3423 H 342.618 0.864653 2.99884 0
M  V30 3424 N 342.919 -1.39368 0.735821 0
M  V30 3425 C 344.165 -2.00794 0.284544 0
M  V30 3426 C 344.498 -1.58255 -1.12557 0
M  V30 3427 O 343.773 -0.811819 -1.76748 0
M  V30 3428 C 344.056 -3.58011 0.387337 0
M  V30 3429 C 343.909 -4.10566 1.83728 0
M  V30 3430 C 345.228 -4.395 -0.22975 0
M  V30 3431 H 342.347 -0.729501 0.104866 0
M  V30 3432 H 344.989 -1.65564 0.93213 0
M  V30 3433 H 343.139 -3.88154 -0.164006 0
M  V30 3434 H 344.811 -3.91139 2.44556 0
M  V30 3435 H 343.054 -3.64095 2.35833 0
M  V30 3436 H 343.725 -5.19702 1.86047 0
M  V30 3437 H 346.201 -4.15406 0.240257 0
M  V30 3438 H 345.077 -5.48752 -0.127485 0
M  V30 3439 H 345.338 -4.22062 -1.3159 0
M  V30 3440 N 344.397 -0.483516 -1.5 0
M  V30 3441 C 345.344 0.304164 -2.28787 0
M  V30 3442 C 346.314 0.976114 -1.34392 0
M  V30 3443 O 347.499 0.986156 -1.63339 0
M  V30 3444 C 344.639 1.37298 -3.16612 0
M  V30 3445 C 343.752 0.714561 -4.26049 0
M  V30 3446 C 342.887 1.76232 -5.01114 0
M  V30 3447 C 341.926 1.08483 -6.0241 0
M  V30 3448 N 341.063 2.076 -6.70706 0
M  V30 3449 H 345.903 -0.373981 -2.95644 0
M  V30 3450 H 343.44 -0.196275 -1.45785 0
M  V30 3451 H 345.398 2.00445 -3.65893 0
M  V30 3452 H 344.028 2.02012 -2.51776 0
M  V30 3453 H 343.08 -0.0297798 -3.80388 0
M  V30 3454 H 344.392 0.180383 -4.98474 0
M  V30 3455 H 343.546 2.46929 -5.54176 0
M  V30 3456 H 342.285 2.33033 -4.28424 0
M  V30 3457 H 341.29 0.363545 -5.48597 0
M  V30 3458 H 342.515 0.523551 -6.77079 0
M  V30 3459 H 340.461 2.63394 -6.00799 0
M  V30 3460 H 340.378 1.59201 -7.39047 0
M  V30 3461 H 341.646 2.77639 -7.2838 0
M  V30 3462 N 345.875 1.56104 -0.216619 0
M  V30 3463 C 347.122 1.98172 0.416416 0
M  V30 3464 C 347.45 1.10413 1.60122 0
M  V30 3465 O 346.705 0.147967 1.9514 0
M  V30 3466 C 347.004 3.45923 0.898464 0
M  V30 3467 C 346.67 4.50559 -0.175288 0
M  V30 3468 C 345.332 4.78897 -0.470271 0
M  V30 3469 C 347.684 5.1334 -0.901728 0
M  V30 3470 C 345.012 5.67299 -1.4963 0
M  V30 3471 C 347.364 6.02853 -1.91705 0
M  V30 3472 C 346.028 6.29537 -2.21901 0
M  V30 3473 H 345.298 0.725164 0.152377 0
M  V30 3474 H 347.945 1.88839 -0.318103 0
M  V30 3475 H 346.25 3.52434 1.71165 0
M  V30 3476 H 347.947 3.75841 1.39803 0
M  V30 3477 H 344.537 4.28551 0.0647806 0
M  V30 3478 H 348.721 4.91521 -0.687072 0
M  V30 3479 H 343.977 5.86239 -1.73592 0
M  V30 3480 H 348.151 6.50552 -2.48505 0
M  V30 3481 H 345.778 6.97835 -3.01548 0
M  V30 3482 N 347.353 -0.0568162 1.57498 0
M  V30 3483 C 348.283 -1.06593 2.0775 0
M  V30 3484 C 349.264 -1.39448 0.974082 0
M  V30 3485 O 350.449 -1.48815 1.24771 0
M  V30 3486 C 347.579 -2.37509 2.5339 0
M  V30 3487 C 346.533 -2.1897 3.67745 0
M  V30 3488 C 345.859 -3.55402 3.99492 0
M  V30 3489 C 347.159 -1.59859 4.97235 0
M  V30 3490 H 348.853 -0.647706 2.9231 0
M  V30 3491 H 346.399 -0.310116 1.40621 0
M  V30 3492 H 348.352 -3.08409 2.87162 0
M  V30 3493 H 347.076 -2.8134 1.65878 0
M  V30 3494 H 345.735 -1.50508 3.3428 0
M  V30 3495 H 345.383 -3.9683 3.09088 0
M  V30 3496 H 345.083 -3.43831 4.76502 0
M  V30 3497 H 346.607 -4.27708 4.35773 0
M  V30 3498 H 348.021 -2.20642 5.29141 0
M  V30 3499 H 346.418 -1.58942 5.78669 0
M  V30 3500 H 347.488 -0.561506 4.81638 0
M  V30 3501 N 348.832 -1.54138 -0.328536 0
M  V30 3502 C 349.762 -1.86167 -1.40939 0
M  V30 3503 C 350.743 -0.718044 -1.54202 0
M  V30 3504 O 351.928 -0.971328 -1.68163 0
M  V30 3505 C 349.058 -2.08461 -2.77779 0
M  V30 3506 C 348.012 -3.24299 -2.7931 0
M  V30 3507 C 347.338 -3.31955 -4.19178 0
M  V30 3508 C 348.638 -4.62065 -2.43502 0
M  V30 3509 H 350.332 -2.76689 -1.14383 0
M  V30 3510 H 347.878 -1.33132 -0.548806 0
M  V30 3511 H 349.831 -2.29453 -3.53454 0
M  V30 3512 H 348.555 -1.14684 -3.05802 0
M  V30 3513 H 347.214 -3.03187 -2.0609 0
M  V30 3514 H 346.862 -2.35745 -4.44335 0
M  V30 3515 H 346.562 -4.09805 -4.2111 0
M  V30 3516 H 348.086 -3.55175 -4.96672 0
M  V30 3517 H 349.5 -4.8297 -3.08889 0
M  V30 3518 H 347.897 -5.42429 -2.56693 0
M  V30 3519 H 348.967 -4.64652 -1.38659 0
M  V30 3520 N 350.31 0.590341 -1.46126 0
M  V30 3521 C 351.557 1.34882 -1.5104 0
M  V30 3522 C 351.885 1.93849 -0.159021 0
M  V30 3523 O 351.14 1.76544 0.844436 0
M  V30 3524 C 351.439 2.5032 -2.55097 0
M  V30 3525 C 351.105 2.09394 -3.99331 0
M  V30 3526 C 349.767 1.97947 -4.38601 0
M  V30 3527 C 352.119 1.77712 -4.89967 0
M  V30 3528 C 349.447 1.53065 -5.66381 0
M  V30 3529 C 351.799 1.34312 -6.18177 0
M  V30 3530 C 350.463 1.21436 -6.56361 0
M  V30 3531 H 349.733 0.493568 -0.552695 0
M  V30 3532 H 352.38 0.665539 -1.79563 0
M  V30 3533 H 350.685 3.24062 -2.20207 0
M  V30 3534 H 352.382 3.08541 -2.56132 0
M  V30 3535 H 348.972 2.19235 -3.68285 0
M  V30 3536 H 353.156 1.85445 -4.60352 0
M  V30 3537 H 348.412 1.41733 -5.94745 0
M  V30 3538 H 352.586 1.08849 -6.87841 0
M  V30 3539 H 350.213 0.864345 -7.5527 0
M  V30 3540 N 351.788 1.33704 0.83433 0
M  V30 3541 C 353.013 1.28615 1.62705 0
M  V30 3542 C 353.438 -0.139242 1.87584 0
M  V30 3543 O 352.796 -1.09734 1.4432 0
M  V30 3544 C 352.844 2.07139 2.95171 0
M  V30 3545 O 351.948 1.4331 3.86699 0
M  V30 3546 H 351.289 0.44226 0.49528 0
M  V30 3547 H 353.819 1.76335 1.03766 0
M  V30 3548 H 353.829 2.18073 3.44831 0
M  V30 3549 H 352.504 3.10779 2.76386 0
M  V30 3550 H 351.081 1.4105 3.45195 0
M  V30 3551 N 353.266 -1.05314 1.17247 0
M  V30 3552 C 354.491 -1.82509 0.985148 0
M  V30 3553 C 354.916 -1.82343 -0.461788 0
M  V30 3554 O 354.274 -1.23151 -1.33055 0
M  V30 3555 C 354.322 -3.26566 1.52929 0
M  V30 3556 O 353.426 -4.05666 0.742225 0
M  V30 3557 H 352.767 -0.564347 0.349869 0
M  V30 3558 H 355.297 -1.32718 1.55715 0
M  V30 3559 H 355.307 -3.77369 1.55103 0
M  V30 3560 H 353.982 -3.26001 2.58256 0
M  V30 3561 H 352.559 -3.64397 0.791794 0
M  V30 3562 N 354.744 -0.972509 -1.24016 0
M  V30 3563 C 355.674 -0.525548 -2.27509 0
M  V30 3564 C 356.655 0.437262 -1.64384 0
M  V30 3565 O 357.84 0.332343 -1.91335 0
M  V30 3566 C 354.97 0.180448 -3.46831 0
M  V30 3567 C 353.924 -0.698859 -4.22256 0
M  V30 3568 C 353.25 0.138903 -5.3452 0
M  V30 3569 C 354.55 -1.98582 -4.83076 0
M  V30 3570 H 356.244 -1.39058 -2.65148 0
M  V30 3571 H 353.79 -0.67009 -1.27459 0
M  V30 3572 H 355.743 0.504387 -4.18371 0
M  V30 3573 H 354.467 1.07987 -3.08231 0
M  V30 3574 H 353.126 -1.00614 -3.52523 0
M  V30 3575 H 352.774 1.03862 -4.9216 0
M  V30 3576 H 352.474 -0.446259 -5.85903 0
M  V30 3577 H 353.998 0.457404 -6.08884 0
M  V30 3578 H 355.412 -1.72715 -5.46665 0
M  V30 3579 H 353.809 -2.5181 -5.44713 0
M  V30 3580 H 354.879 -2.67769 -4.04262 0
M  V30 3581 N 356.222 1.38976 -0.743202 0
M  V30 3582 C 357.468 2.0064 -0.295189 0
M  V30 3583 C 357.801 1.5885 1.11716 0
M  V30 3584 O 357.076 0.821181 1.76315 0
M  V30 3585 C 357.359 3.578 -0.406318 0
M  V30 3586 C 357.212 4.09586 -1.85903 0
M  V30 3587 C 358.531 4.39616 0.206439 0
M  V30 3588 H 355.65 0.728935 -0.108733 0
M  V30 3589 H 358.292 1.65067 -0.940897 0
M  V30 3590 H 356.442 3.88235 0.143419 0
M  V30 3591 H 358.114 3.89837 -2.46627 0
M  V30 3592 H 356.357 3.6284 -2.3776 0
M  V30 3593 H 357.028 5.18708 -1.888 0
M  V30 3594 H 359.504 4.15273 -0.262283 0
M  V30 3595 H 358.38 5.48812 0.0983819 0
M  V30 3596 H 358.641 4.22754 1.2935 0
M  V30 3597 N 357.7 0.491464 1.49741 0
M  V30 3598 C 358.928 -0.0535151 2.06831 0
M  V30 3599 C 359.343 -1.31683 1.35296 0
M  V30 3600 O 358.7 -1.77402 0.42836 0
M  V30 3601 C 358.751 -0.320835 3.60073 0
M  V30 3602 O 358.472 0.892394 4.28915 0
M  V30 3603 C 359.973 -0.910519 4.33848 0
M  V30 3604 H 357.193 0.0161909 0.670805 0
M  V30 3605 H 359.737 0.68609 1.92647 0
M  V30 3606 H 357.892 -1.0104 3.73991 0
M  V30 3607 H 358.306 0.649401 5.20464 0
M  V30 3608 H 359.78 -1.04721 5.41976 0
M  V30 3609 H 360.257 -1.90589 3.95692 0
M  V30 3610 H 360.863 -0.258712 4.24512 0
M  V30 3611 N 359.178 -1.55987 0.224894 0
M  V30 3612 C 360.125 -2.20436 -0.68385 0
M  V30 3613 C 361.095 -1.16102 -1.18783 0
M  V30 3614 O 362.28 -1.4447 -1.24632 0
M  V30 3615 C 359.42 -2.89076 -1.88491 0
M  V30 3616 C 358.533 -4.08012 -1.41951 0
M  V30 3617 C 357.668 -4.64426 -2.5784 0
M  V30 3618 C 356.707 -5.75656 -2.08053 0
M  V30 3619 N 355.844 -6.26347 -3.17227 0
M  V30 3620 H 360.684 -2.97727 -0.12754 0
M  V30 3621 H 358.221 -1.47011 -0.0511978 0
M  V30 3622 H 360.179 -3.27059 -2.59014 0
M  V30 3623 H 358.809 -2.14298 -2.41405 0
M  V30 3624 H 357.861 -3.75492 -0.609095 0
M  V30 3625 H 359.173 -4.88375 -1.01447 0
M  V30 3626 H 358.327 -5.04869 -3.3644 0
M  V30 3627 H 357.066 -3.83233 -3.01635 0
M  V30 3628 H 356.071 -5.34712 -1.27916 0
M  V30 3629 H 357.296 -6.58686 -1.65255 0
M  V30 3630 H 355.242 -5.48067 -3.60497 0
M  V30 3631 H 355.159 -7.01843 -2.80986 0
M  V30 3632 H 356.427 -6.71447 -3.95953 0
M  V30 3633 N 360.656 0.0484629 -1.57525 0
M  V30 3634 C 361.566 1.07241 -2.08654 0
M  V30 3635 C 362.582 1.409 -1.02095 0
M  V30 3636 O 363.758 1.50609 -1.33712 0
M  V30 3637 C 360.823 2.36008 -2.5397 0
M  V30 3638 C 359.884 2.09108 -3.7493 0
M  V30 3639 C 359.117 3.31736 -4.18075 0
M  V30 3640 O 359.34 4.41714 -3.60895 0
M  V30 3641 O 358.274 3.18576 -5.10679 0
M  V30 3642 H 362.1 0.667965 -2.96263 0
M  V30 3643 H 359.685 0.26417 -1.47046 0
M  V30 3644 H 361.567 3.11747 -2.83535 0
M  V30 3645 H 360.242 2.75786 -1.69481 0
M  V30 3646 H 359.149 1.31 -3.50414 0
M  V30 3647 H 360.482 1.74198 -4.60343 0
M  V30 3648 N 362.134 1.5431 0.320358 0
M  V30 3649 C 363.411 1.63322 1.07635 0
M  V30 3650 C 363.791 0.46912 2.05821 0
M  V30 3651 O 363.139 -0.536274 2.22118 0
M  V30 3652 C 363.349 3.00465 1.77544 0
M  V30 3653 C 364.697 3.56621 2.30449 0
M  V30 3654 O 365.721 3.02791 1.87606 0
M  V30 3655 O 364.58 4.5083 3.08892 0
M  V30 3656 H 361.674 0.661502 0.496331 0
M  V30 3657 H 364.22 1.66656 0.319992 0
M  V30 3658 H 362.992 3.76629 1.06143 0
M  V30 3659 H 362.615 3.00824 2.59982 0
M  V30 3660 N 363.613 -0.582584 1.46437 0
M  V30 3661 C 364.859 -1.34278 1.51978 0
M  V30 3662 C 365.192 -1.93446 0.170973 0
M  V30 3663 O 364.467 -1.76481 -0.817608 0
M  V30 3664 C 364.75 -2.47203 2.61845 0
M  V30 3665 C 364.603 -1.93069 4.06257 0
M  V30 3666 C 365.922 -3.49247 2.67795 0
M  V30 3667 H 363.041 -0.486876 0.553282 0
M  V30 3668 H 365.683 -0.654437 1.78374 0
M  V30 3669 H 363.833 -3.0592 2.39469 0
M  V30 3670 H 365.505 -1.38808 4.3992 0
M  V30 3671 H 363.748 -1.23898 4.1573 0
M  V30 3672 H 364.419 -2.74586 4.7886 0
M  V30 3673 H 366.895 -3.00411 2.8791 0
M  V30 3674 H 365.771 -4.25719 3.46489 0
M  V30 3675 H 366.032 -4.06482 1.73852 0
M  V30 3676 N 365.091 -1.34144 -0.827227 0
M  V30 3677 C 366.021 -1.28005 -1.95287 0
M  V30 3678 C 367.002 -0.158321 -1.69362 0
M  V30 3679 O 368.187 -0.349987 -1.9102 0
M  V30 3680 C 365.317 -1.03036 -3.31664 0
M  V30 3681 C 364.271 -2.11628 -3.72019 0
M  V30 3682 C 363.597 -1.71854 -5.0633 0
M  V30 3683 C 364.897 -3.53417 -3.8457 0
M  V30 3684 H 366.591 -2.22187 -2.00682 0
M  V30 3685 H 364.137 -1.0696 -0.964135 0
M  V30 3686 H 366.09 -0.973863 -4.09993 0
M  V30 3687 H 364.814 -0.0529391 -3.26557 0
M  V30 3688 H 363.473 -2.16339 -2.95961 0
M  V30 3689 H 363.121 -0.727841 -4.97706 0
M  V30 3690 H 362.821 -2.44531 -5.34302 0
M  V30 3691 H 364.345 -1.67692 -5.87122 0
M  V30 3692 H 365.759 -3.51142 -4.5318 0
M  V30 3693 H 364.156 -4.24679 -4.2399 0
M  V30 3694 H 365.226 -3.91072 -2.86689 0
M  V30 3695 N 366.569 1.04691 -1.17803 0
M  V30 3696 C 367.817 1.7743 -0.967617 0
M  V30 3697 C 368.138 1.88359 0.504574 0
M  V30 3698 O 367.408 1.40402 1.36617 0
M  V30 3699 H 365.988 0.657242 -0.355024 0
M  V30 3700 H 368.65 1.2638 -1.48371 0
M  V30 3701 H 367.746 2.78924 -1.40027 0
M  V30 3702 N 368.047 0.979072 1.23499 0
M  V30 3703 C 369.287 0.655228 1.93613 0
M  V30 3704 C 369.651 -0.796336 1.74707 0
M  V30 3705 O 370.852 -1.23094 2.38959 0
M  V30 3706 C 369.123 1.03337 3.42135 0
M  V30 3707 S 370.682 0.825793 4.3096 0
M  V30 3708 H 367.5 0.240004 0.669267 0
M  V30 3709 H 370.102 1.25843 1.49612 0
M  V30 3710 H 368.806 2.08646 3.53405 0
M  V30 3711 H 368.337 0.421397 3.91137 0
M  V30 3712 H 370.352 -0.290991 4.95346 0
M  V30 3713 N 369.525 -1.3858 0.750561 0
M  V30 3714 C 370.473 -2.32339 0.110162 0
M  V30 3715 C 371.467 -1.53864 -0.708674 0
M  V30 3716 O 372.673 -1.69417 -0.608112 0
M  V30 3717 H 369.048 -0.751812 0.0168275 0
M  V30 3718 H 371.019 -2.83959 0.917053 0
M  V30 3719 C 369.768 -3.39043 -0.771067 0
M  V30 3720 H 369.091 -3.99517 -0.150374 0
M  V30 3721 H 370.531 -4.07061 -1.1865 0
M  V30 3722 C 368.99 -2.77365 -1.91234 0
M  V30 3723 O 369.52 -2.66434 -3.00626 0
M  V30 3724 N 367.726 -2.35219 -1.70646 0
M  V30 3725 H 367.273 -2.4431 -0.81673 0
M  V30 3726 H 367.231 -1.94294 -2.47178 0
M  V30 3727 N 371.003 -0.499398 -1.49478 0
M  V30 3728 C 372.249 0.0457576 -2.02748 0
M  V30 3729 C 372.582 1.36793 -1.37846 0
M  V30 3730 O 371.857 1.87596 -0.513601 0
M  V30 3731 C 372.14 0.199986 -3.59544 0
M  V30 3732 C 371.993 -1.1452 -4.34977 0
M  V30 3733 C 373.312 0.94137 -4.29914 0
M  V30 3734 H 370.431 0.0151552 -0.736844 0
M  V30 3735 H 373.073 -0.650498 -1.78518 0
M  V30 3736 H 371.223 0.793007 -3.8032 0
M  V30 3737 H 372.895 -1.77697 -4.25701 0
M  V30 3738 H 371.138 -1.73488 -3.97598 0
M  V30 3739 H 371.809 -0.990607 -5.43039 0
M  V30 3740 H 374.285 0.43844 -4.13784 0
M  V30 3741 H 373.161 1.01812 -5.39375 0
M  V30 3742 H 373.422 1.98471 -3.95046 0
M  V30 3743 N 372.481 1.55866 -0.233164 0
M  V30 3744 C 373.706 2.03449 0.402906 0
M  V30 3745 C 374.131 1.11166 1.51736 0
M  V30 3746 O 373.489 0.101996 1.81013 0
M  V30 3747 C 373.537 3.49165 0.9009 0
M  V30 3748 O 372.641 3.60019 2.01147 0
M  V30 3749 H 371.982 0.657913 0.0897025 0
M  V30 3750 H 374.512 2.01493 -0.355201 0
M  V30 3751 H 374.522 3.89716 1.2077 0
M  V30 3752 H 373.197 4.15813 0.0852889 0
M  V30 3753 H 371.774 3.3136 1.71042 0
M  V30 3754 N 373.959 -0.0401083 1.57549 0
M  V30 3755 C 375.37 -0.588097 1.77196 0
M  V30 3756 C 375.721 -1.76209 0.862832 0
M  V30 3757 O 374.846 -2.16331 0.0548389 0
M  V30 3758 C 375.441 -1.07363 3.21339 0
M  V30 3759 C 374 -1.56723 3.42221 0
M  V30 3760 C 373.147 -0.50041 2.72747 0
M  V30 3761 H 376.098 0.186119 1.57605 0
M  V30 3762 H 376.119 -1.94143 3.27244 0
M  V30 3763 H 375.631 -0.218975 3.87482 0
M  V30 3764 H 373.732 -2.4441 2.81237 0
M  V30 3765 H 373.845 -1.62234 4.50796 0
M  V30 3766 H 372.209 -0.952894 2.36203 0
M  V30 3767 H 372.992 0.344599 3.41566 0
M  V30 3768 N 375.437 -1.54477 -0.31217 0
M  V30 3769 C 376.683 -1.73483 -1.0503 0
M  V30 3770 C 377.016 -0.513125 -1.87298 0
M  V30 3771 O 376.291 0.489864 -1.8823 0
M  V30 3772 C 376.574 -3.01723 -1.96558 0
M  V30 3773 C 376.427 -4.3417 -1.17545 0
M  V30 3774 C 377.746 -3.25772 -2.95907 0
M  V30 3775 H 374.865 -0.631222 -0.380432 0
M  V30 3776 H 377.507 -1.87184 -0.325932 0
M  V30 3777 H 375.657 -2.90174 -2.58324 0
M  V30 3778 H 377.329 -4.5762 -0.581513 0
M  V30 3779 H 375.572 -4.31159 -0.477925 0
M  V30 3780 H 376.243 -5.20143 -1.84811 0
M  V30 3781 H 378.719 -3.36857 -2.44267 0
M  V30 3782 H 377.595 -4.16838 -3.57123 0
M  V30 3783 H 377.856 -2.43537 -3.68974 0
M  V30 3784 N 376.915 0.57481 -1.46744 0
M  V30 3785 C 378.326 1.15695 -1.46532 0
M  V30 3786 C 378.677 1.95068 -0.210425 0
M  V30 3787 O 377.802 2.05241 0.685944 0
M  V30 3788 C 378.397 2.1048 -2.65487 0
M  V30 3789 C 376.956 2.64002 -2.68291 0
M  V30 3790 C 376.103 1.40026 -2.39349 0
M  V30 3791 H 379.054 0.362325 -1.54509 0
M  V30 3792 H 379.075 2.94074 -2.41455 0
M  V30 3793 H 378.587 1.52683 -3.56805 0
M  V30 3794 H 376.688 3.25646 -1.81067 0
M  V30 3795 H 376.801 3.06197 -3.68483 0
M  V30 3796 H 375.165 1.70106 -1.89568 0
M  V30 3797 H 375.948 0.840485 -3.32852 0
M  V30 3798 N 378.394 1.34581 0.820102 0
M  V30 3799 C 379.642 1.26845 1.57336 0
M  V30 3800 C 379.963 -0.160667 1.94337 0
M  V30 3801 O 379.233 -1.09396 1.6251 0
M  V30 3802 H 377.813 0.466514 0.583415 0
M  V30 3803 H 380.475 1.68526 0.979027 0
M  V30 3804 H 379.571 1.87513 2.4949 0
M  V30 3805 N 379.872 -1.04064 1.18357 0
M  V30 3806 C 381.119 -1.77265 0.978947 0
M  V30 3807 C 381.447 -1.88189 -0.491428 0
M  V30 3808 O 380.702 -1.38653 -1.38108 0
M  V30 3809 C 381.001 -3.20634 1.57888 0
M  V30 3810 C 380.667 -3.29743 3.07539 0
M  V30 3811 C 379.329 -3.31937 3.48384 0
M  V30 3812 C 381.681 -3.29841 4.03552 0
M  V30 3813 C 379.009 -3.3187 4.83818 0
M  V30 3814 C 381.361 -3.31313 5.38901 0
M  V30 3815 C 380.025 -3.31799 5.79194 0
M  V30 3816 H 379.295 -0.648659 0.358222 0
M  V30 3817 H 381.942 -1.22225 1.47422 0
M  V30 3818 H 380.247 -3.78675 1.00561 0
M  V30 3819 H 381.944 -3.75917 1.39598 0
M  V30 3820 H 378.534 -3.28757 2.74986 0
M  V30 3821 H 382.718 -3.27337 3.73047 0
M  V30 3822 H 377.974 -3.30562 5.14333 0
M  V30 3823 H 382.148 -3.30338 6.13066 0
M  V30 3824 H 379.775 -3.315 6.84114 0
M  V30 3825 N 381.35 -0.985608 -1.22978 0
M  V30 3826 C 382.282 -0.488154 -2.23941 0
M  V30 3827 C 383.295 0.41282 -1.57479 0
M  V30 3828 O 384.484 0.216121 -1.77187 0
M  V30 3829 C 381.584 0.312611 -3.37455 0
M  V30 3830 C 380.757 -0.582741 -4.33501 0
M  V30 3831 C 379.816 0.165064 -5.25941 0
M  V30 3832 O 378.842 -0.447077 -5.67442 0
M  V30 3833 N 380.044 1.44953 -5.62111 0
M  V30 3834 H 382.809 -1.3563 -2.67254 0
M  V30 3835 H 380.37 -0.859477 -1.37203 0
M  V30 3836 H 382.362 0.821357 -3.96277 0
M  V30 3837 H 380.932 1.0818 -2.93285 0
M  V30 3838 H 380.152 -1.27225 -3.73105 0
M  V30 3839 H 381.44 -1.19275 -4.94622 0
M  V30 3840 H 380.838 1.9683 -5.30353 0
M  V30 3841 H 379.395 1.90361 -6.23383 0
M  V30 3842 N 382.828 1.3818 -0.7579 0
M  V30 3843 C 384.239 1.82726 -0.383134 0
M  V30 3844 C 384.59 1.63214 1.08884 0
M  V30 3845 O 383.715 1.13566 1.84205 0
M  V30 3846 C 384.31 3.31728 -0.688631 0
M  V30 3847 C 382.869 3.74606 -0.367091 0
M  V30 3848 C 382.016 2.60896 -0.939599 0
M  V30 3849 H 384.967 1.26847 -0.953699 0
M  V30 3850 H 384.988 3.80487 0.0316492 0
M  V30 3851 H 384.5 3.45898 -1.76001 0
M  V30 3852 H 382.601 3.66013 0.697532 0
M  V30 3853 H 382.714 4.71215 -0.865658 0
M  V30 3854 H 381.078 2.52075 -0.3647 0
M  V30 3855 H 381.861 2.77864 -2.0161 0
M  V30 3856 N 384.306 0.507319 1.49211 0
M  V30 3857 C 385.238 -0.304532 2.27168 0
M  V30 3858 C 386.251 -0.924956 1.33972 0
M  V30 3859 O 387.44 -0.807227 1.59205 0
M  V30 3860 C 384.54 -1.44431 3.06583 0
M  V30 3861 C 383.713 -0.930026 4.27398 0
M  V30 3862 C 382.772 -1.94817 4.88807 0
M  V30 3863 O 381.798 -1.51418 5.4869 0
M  V30 3864 N 383 -3.279 4.79022 0
M  V30 3865 H 385.765 0.36395 2.97482 0
M  V30 3866 H 383.326 0.340249 1.58284 0
M  V30 3867 H 385.318 -2.12311 3.44537 0
M  V30 3868 H 383.888 -2.01684 2.38835 0
M  V30 3869 H 383.108 -0.0759244 3.94127 0
M  V30 3870 H 384.396 -0.564932 5.05654 0
M  V30 3871 H 383.794 -3.65843 4.3148 0
M  V30 3872 H 382.351 -3.91476 5.21142 0
M  V30 3873 N 385.784 -1.5574 0.241426 0
M  V30 3874 C 387.061 -1.90704 -0.434881 0
M  V30 3875 C 387.441 -1.16145 -1.76277 0
M  V30 3876 O 386.789 -0.277152 -2.26813 0
M  V30 3877 C 386.999 -3.43657 -0.608343 0
M  V30 3878 C 388.347 -4.14806 -0.906725 0
M  V30 3879 O 389.371 -3.49366 -0.694408 0
M  V30 3880 O 388.23 -5.30548 -1.31075 0
M  V30 3881 H 385.324 -0.793592 -0.23268 0
M  V30 3882 H 387.87 -1.67288 0.285086 0
M  V30 3883 H 386.642 -3.89927 0.327505 0
M  V30 3884 H 386.265 -3.72918 -1.37906 0
M  V30 3885 N 387.262 0.0317525 -1.57568 0
M  V30 3886 C 388.172 1.05021 -2.0978 0
M  V30 3887 C 389.188 1.39809 -1.03583 0
M  V30 3888 O 390.364 1.49182 -1.35302 0
M  V30 3889 C 387.429 2.33301 -2.56459 0
M  V30 3890 C 386.49 2.0512 -3.77127 0
M  V30 3891 C 385.723 3.27283 -4.2157 0
M  V30 3892 O 385.946 4.37861 -3.65559 0
M  V30 3893 O 384.88 3.13141 -5.14029 0
M  V30 3894 H 388.706 0.636505 -2.96955 0
M  V30 3895 H 386.291 0.248559 -1.47318 0
M  V30 3896 H 388.173 3.08722 -2.86825 0
M  V30 3897 H 386.848 2.73973 -1.72397 0
M  V30 3898 H 385.755 1.27276 -3.51784 0
M  V30 3899 H 387.088 1.69305 -4.62165 0
M  V30 3900 N 388.74 1.54641 0.303973 0
M  V30 3901 C 389.965 1.78092 1.06292 0
M  V30 3902 C 390.39 0.537342 1.80262 0
M  V30 3903 O 389.748 -0.511993 1.7392 0
M  V30 3904 C 389.796 2.98612 2.02147 0
M  V30 3905 O 388.9 2.71528 3.10397 0
M  V30 3906 H 388.241 0.589548 0.305497 0
M  V30 3907 H 390.771 2.01716 0.3423 0
M  V30 3908 H 390.781 3.265 2.44667 0
M  V30 3909 H 389.456 3.88785 1.47714 0
M  V30 3910 H 388.033 2.54648 2.72413 0
M  V30 3911 N 390.218 -0.567019 1.47046 0
M  V30 3912 C 391.148 -1.68482 1.61667 0
M  V30 3913 C 392.129 -1.6358 0.466418 0
M  V30 3914 O 393.314 -1.81354 0.694574 0
M  V30 3915 C 390.444 -3.07124 1.62148 0
M  V30 3916 C 389.398 -3.26867 2.76301 0
M  V30 3917 C 388.724 -4.66196 2.61849 0
M  V30 3918 C 390.024 -3.13186 4.17986 0
M  V30 3919 H 391.718 -1.56502 2.5524 0
M  V30 3920 H 389.264 -0.751486 1.22836 0
M  V30 3921 H 391.217 -3.8516 1.70968 0
M  V30 3922 H 389.941 -3.2004 0.651287 0
M  V30 3923 H 388.6 -2.51237 2.66975 0
M  V30 3924 H 388.248 -4.75898 1.62879 0
M  V30 3925 H 387.948 -4.80356 3.38425 0
M  V30 3926 H 389.472 -5.46379 2.72584 0
M  V30 3927 H 390.886 -3.81049 4.2834 0
M  V30 3928 H 389.283 -3.3886 4.95272 0
M  V30 3929 H 390.353 -2.10057 4.3704 0
M  V30 3930 N 391.696 -1.35014 -0.812953 0
M  V30 3931 C 392.942 -1.2812 -1.57204 0
M  V30 3932 C 393.275 0.145869 -1.93651 0
M  V30 3933 O 392.55 1.0937 -1.60836 0
M  V30 3934 C 392.833 -2.18162 -2.86492 0
M  V30 3935 C 392.686 -3.69454 -2.56561 0
M  V30 3936 C 394.005 -2.07439 -3.88145 0
M  V30 3937 H 391.124 -0.466746 -0.570366 0
M  V30 3938 H 393.766 -1.65357 -0.935783 0
M  V30 3939 H 391.916 -1.86535 -3.40789 0
M  V30 3940 H 393.588 -4.11493 -2.08497 0
M  V30 3941 H 391.831 -3.9005 -1.89851 0
M  V30 3942 H 392.502 -4.27835 -3.48799 0
M  V30 3943 H 394.978 -2.35228 -3.4323 0
M  V30 3944 H 393.854 -2.7265 -4.76396 0
M  V30 3945 H 394.115 -1.05439 -4.29343 0
M  V30 3946 N 393.175 1.03435 -1.18907 0
M  V30 3947 C 394.405 1.8012 -1.01195 0
M  V30 3948 C 394.813 1.8395 0.442613 0
M  V30 3949 O 394.156 1.27836 1.31923 0
M  V30 3950 C 394.218 3.26792 -1.49823 0
M  V30 3951 C 393.882 3.46609 -2.97844 0
M  V30 3952 C 394.879 3.37278 -3.95651 0
M  V30 3953 C 392.564 3.73001 -3.36416 0
M  V30 3954 C 394.558 3.54054 -5.30023 0
M  V30 3955 C 392.245 3.89423 -4.70949 0
M  V30 3956 C 393.243 3.79951 -5.67562 0
M  V30 3957 O 392.931 3.95895 -6.99659 0
M  V30 3958 H 392.663 0.573865 -0.357289 0
M  V30 3959 H 395.217 1.31207 -1.58031 0
M  V30 3960 H 393.447 3.76703 -0.873578 0
M  V30 3961 H 395.136 3.85055 -1.28404 0
M  V30 3962 H 395.902 3.16846 -3.67197 0
M  V30 3963 H 391.781 3.79469 -2.61772 0
M  V30 3964 H 395.325 3.46577 -6.05417 0
M  V30 3965 H 391.222 4.09351 -4.99101 0
M  V30 3966 H 391.99 4.13019 -7.06653 0
M  V30 3967 N 394.653 0.992116 1.22453 0
M  V30 3968 C 395.583 0.561677 2.26644 0
M  V30 3969 C 396.564 -0.411055 1.65059 0
M  V30 3970 O 397.749 -0.301861 1.9184 0
M  V30 3971 C 394.879 -0.125247 3.47074 0
M  V30 3972 C 393.833 0.765948 4.21091 0
M  V30 3973 C 393.159 -0.0538484 5.34673 0
M  V30 3974 C 394.459 2.06242 4.79856 0
M  V30 3975 H 396.153 1.43259 2.62902 0
M  V30 3976 H 393.699 0.690283 1.26377 0
M  V30 3977 H 395.652 -0.437764 4.1912 0
M  V30 3978 H 394.376 -1.03069 3.0991 0
M  V30 3979 H 393.035 1.0621 3.50878 0
M  V30 3980 H 392.683 -0.960188 4.9375 0
M  V30 3981 H 392.383 0.539415 5.85119 0
M  V30 3982 H 393.907 -0.360477 6.09535 0
M  V30 3983 H 395.321 1.8139 5.43848 0
M  V30 3984 H 393.718 2.60444 5.40638 0
M  V30 3985 H 394.788 2.74167 3.99951 0
M  V30 3986 N 396.131 -1.37776 0.765217 0
M  V30 3987 C 397.371 -2.01691 0.331669 0
M  V30 3988 C 397.735 -1.59432 -1.06983 0
M  V30 3989 O 398.936 -2.15761 -1.60314 0
M  V30 3990 C 397.207 -3.54385 0.463261 0
M  V30 3991 S 398.766 -4.38652 0.114011 0
M  V30 3992 H 395.584 -0.699387 0.127979 0
M  V30 3993 H 398.186 -1.68084 0.998396 0
M  V30 3994 H 396.89 -3.82629 1.48401 0
M  V30 3995 H 396.421 -3.92783 -0.220246 0
M  V30 3996 H 398.436 -4.84021 -1.09261 0
M  V30 3997 N 397.609 -0.515225 -1.4894 0
M  V30 3998 C 398.839 0.0205735 -2.0659 0
M  V30 3999 C 399.247 1.30064 -1.37405 0
M  V30 4000 O 398.59 1.78087 -0.450632 0
M  V30 4001 C 398.652 0.330124 -3.57981 0
M  V30 4002 C 398.316 -0.854295 -4.48944 0
M  V30 4003 C 399.313 -1.7487 -4.89609 0
M  V30 4004 C 396.998 -1.05712 -4.9105 0
M  V30 4005 C 398.992 -2.82996 -5.71132 0
M  V30 4006 C 396.679 -2.14154 -5.72347 0
M  V30 4007 C 397.677 -3.0263 -6.12294 0
M  V30 4008 O 397.365 -4.09198 -6.91962 0
M  V30 4009 H 397.097 -0.0236833 -0.675585 0
M  V30 4010 H 399.651 -0.715956 -1.92518 0
M  V30 4011 H 397.881 1.12044 -3.70112 0
M  V30 4012 H 399.57 0.806233 -3.97812 0
M  V30 4013 H 400.336 -1.60388 -4.57712 0
M  V30 4014 H 396.215 -0.377788 -4.59449 0
M  V30 4015 H 399.759 -3.52083 -6.02232 0
M  V30 4016 H 395.656 -2.28626 -6.03656 0
M  V30 4017 H 396.424 -4.06726 -7.10293 0
M  V30 4018 N 399.087 1.5561 -0.249682 0
M  V30 4019 C 400.315 2.03411 0.378352 0
M  V30 4020 C 400.73 1.12886 1.51335 0
M  V30 4021 O 400.087 0.143833 1.81932 0
M  V30 4022 C 400.138 3.50537 0.88351 0
M  V30 4023 O 399.859 4.37614 -0.20626 0
M  V30 4024 C 401.36 4.14113 1.58195 0
M  V30 4025 H 398.58 0.664994 0.08958 0
M  V30 4026 H 401.124 2.01044 -0.374357 0
M  V30 4027 H 399.279 3.5343 1.58639 0
M  V30 4028 H 399.693 5.24199 0.177782 0
M  V30 4029 H 401.167 5.18741 1.8871 0
M  V30 4030 H 401.644 3.60767 2.50487 0
M  V30 4031 H 402.25 4.15151 0.923573 0
M  V30 4032 N 400.565 -0.0233959 1.57583 0
M  V30 4033 C 401.811 -0.714119 1.89811 0
M  V30 4034 C 402.144 -1.74702 0.848113 0
M  V30 4035 O 401.419 -1.94023 -0.136135 0
M  V30 4036 C 401.702 -1.37853 3.32669 0
M  V30 4037 C 401.555 -0.358764 4.48367 0
M  V30 4038 C 402.874 -2.31101 3.7454 0
M  V30 4039 H 399.993 -0.25814 0.690314 0
M  V30 4040 H 402.635 0.0230927 1.89986 0
M  V30 4041 H 400.785 -2.00689 3.3265 0
M  V30 4042 H 402.457 0.268115 4.6052 0
M  V30 4043 H 400.7 0.321387 4.32608 0
M  V30 4044 H 401.371 -0.862242 5.45224 0
M  V30 4045 H 403.847 -1.78304 3.75961 0
M  V30 4046 H 402.723 -2.74567 4.75294 0
M  V30 4047 H 402.984 -3.18018 3.0711 0
M  V30 4048 N 402.043 -1.548 -0.295768 0
M  V30 4049 C 403.268 -1.78653 -1.05346 0
M  V30 4050 C 403.693 -0.546894 -1.79974 0
M  V30 4051 O 403.051 0.502763 -1.7419 0
M  V30 4052 C 403.099 -2.99679 -2.00561 0
M  V30 4053 O 402.203 -2.7317 -3.08953 0
M  V30 4054 H 401.544 -0.59116 -0.302367 0
M  V30 4055 H 404.074 -2.01895 -0.331598 0
M  V30 4056 H 404.084 -3.27793 -2.42932 0
M  V30 4057 H 402.759 -3.89562 -1.4565 0
M  V30 4058 H 401.336 -2.56089 -2.71059 0
M  V30 4059 N 403.521 0.559213 -1.47345 0
M  V30 4060 C 404.937 0.884943 -1.32819 0
M  V30 4061 C 405.137 1.98988 -0.317173 0
M  V30 4062 O 404.193 2.51031 0.272011 0
M  V30 4063 C 405.506 1.28007 -2.72093 0
M  V30 4064 C 407.054 1.39161 -2.80363 0
M  V30 4065 C 407.529 1.82031 -4.20272 0
M  V30 4066 N 409.02 1.89185 -4.22804 0
M  V30 4067 C 409.755 2.2368 -5.27973 0
M  V30 4068 N 409.251 2.56802 -6.43447 0
M  V30 4069 N 411.044 2.24436 -5.15349 0
M  V30 4070 H 403.195 -0.170304 -2.11716 0
M  V30 4071 H 405.458 -0.0135247 -0.947904 0
M  V30 4072 H 405.164 0.542027 -3.47498 0
M  V30 4073 H 405.038 2.23665 -3.03733 0
M  V30 4074 H 407.425 2.12048 -2.05231 0
M  V30 4075 H 407.506 0.41696 -2.52379 0
M  V30 4076 H 407.15 1.09715 -4.95908 0
M  V30 4077 H 407.08 2.80495 -4.45679 0
M  V30 4078 H 409.571 1.65982 -3.39497 0
M  V30 4079 H 409.884 2.82144 -7.19454 0
M  V30 4080 H 408.229 2.54387 -6.46771 0
M  V30 4081 H 411.42 1.97998 -4.24163 0
M  V30 4082 H 411.593 2.50989 -5.97418 0
M  V30 4083 N 404.999 1.35443 0.805782 0
M  V30 4084 C 405.909 1.30546 1.94923 0
M  V30 4085 C 406.925 0.210233 1.72725 0
M  V30 4086 O 408.101 0.43975 1.9654 0
M  V30 4087 C 405.166 1.07782 3.29521 0
M  V30 4088 C 404.227 2.26625 3.64609 0
M  V30 4089 C 403.46 2.04938 4.92784 0
M  V30 4090 O 403.683 1.01624 5.61274 0
M  V30 4091 O 402.617 2.9232 5.26149 0
M  V30 4092 H 406.443 2.26779 2.02002 0
M  V30 4093 H 404.028 1.15823 0.943682 0
M  V30 4094 H 405.91 0.969392 4.10098 0
M  V30 4095 H 404.585 0.146003 3.23371 0
M  V30 4096 H 403.492 2.43033 2.84404 0
M  V30 4097 H 404.825 3.18257 3.75464 0
M  V30 4098 N 406.477 -1.02803 1.19454 0
M  V30 4099 C 407.754 -1.73299 0.907013 0
M  V30 4100 C 408.134 -2.02772 -0.587086 0
M  V30 4101 O 407.482 -1.68304 -1.54551 0
M  V30 4102 C 407.692 -3.00912 1.76785 0
M  V30 4103 C 409.04 -3.74403 2.00268 0
M  V30 4104 O 410.064 -3.10841 1.73943 0
M  V30 4105 O 408.923 -4.88675 2.4466 0
M  V30 4106 H 406.017 -0.754727 0.338106 0
M  V30 4107 H 408.563 -1.08754 1.30271 0
M  V30 4108 H 407.335 -2.75366 2.7801 0
M  V30 4109 H 406.958 -3.73197 1.37149 0
M  V30 4110 N 407.956 -0.998596 -1.21925 0
M  V30 4111 C 409.204 -0.676325 -1.90448 0
M  V30 4112 C 409.525 0.794719 -1.78071 0
M  V30 4113 O 408.795 1.5701 -1.17152 0
M  V30 4114 H 407.375 -0.247165 -0.704925 0
M  V30 4115 H 410.037 -1.26633 -1.48156 0
M  V30 4116 H 409.133 -0.943858 -2.97486 0
M  V30 4117 N 409.434 1.37368 -0.772513 0
M  V30 4118 C 410.659 2.0447 -0.347386 0
M  V30 4119 C 411.084 1.57882 1.0225 0
M  V30 4120 O 410.442 0.73941 1.65537 0
M  V30 4121 C 410.49 3.58369 -0.400479 0
M  V30 4122 O 409.594 4.0803 0.598789 0
M  V30 4123 H 408.935 0.646773 -0.15027 0
M  V30 4124 H 411.465 1.75667 -1.04892 0
M  V30 4125 H 411.475 4.07183 -0.258045 0
M  V30 4126 H 410.15 3.91633 -1.39986 0
M  V30 4127 H 408.727 3.70534 0.419411 0
M  V30 4128 N 410.912 0.523116 1.48665 0
M  V30 4129 C 412.159 -0.0134763 2.02496 0
M  V30 4130 C 412.487 -1.3493 1.40086 0
M  V30 4131 O 411.742 -1.88286 0.533567 0
M  V30 4132 C 412.041 -0.191671 3.56886 0
M  V30 4133 C 411.707 1.06893 4.38046 0
M  V30 4134 C 410.369 1.41443 4.59943 0
M  V30 4135 C 412.721 1.90584 4.85106 0
M  V30 4136 C 410.049 2.59594 5.26144 0
M  V30 4137 C 412.401 3.07907 5.52609 0
M  V30 4138 C 411.065 3.42811 5.72745 0
M  V30 4139 H 410.335 -0.00493133 0.740984 0
M  V30 4140 H 412.982 0.687751 1.78724 0
M  V30 4141 H 411.287 -0.97561 3.79459 0
M  V30 4142 H 412.984 -0.621659 3.96152 0
M  V30 4143 H 409.574 0.789848 4.21259 0
M  V30 4144 H 413.758 1.65203 4.67997 0
M  V30 4145 H 409.014 2.86847 5.39934 0
M  V30 4146 H 413.188 3.73066 5.88043 0
M  V30 4147 H 410.815 4.34462 6.23816 0
M  V30 4148 N 412.39 -1.55475 0.257931 0
M  V30 4149 C 413.615 -2.04064 -0.370488 0
M  V30 4150 C 414.04 -1.13565 -1.49948 0
M  V30 4151 O 413.398 -0.130781 -1.80828 0
M  V30 4152 C 413.446 -3.50554 -0.845237 0
M  V30 4153 O 412.55 -3.63173 -1.95394 0
M  V30 4154 H 411.891 -0.659257 -0.0792243 0
M  V30 4155 H 414.421 -2.00903 0.387212 0
M  V30 4156 H 414.431 -3.91588 -1.14555 0
M  V30 4157 H 413.106 -4.15896 -0.0191259 0
M  V30 4158 H 411.683 -3.34039 -1.65748 0
M  V30 4159 N 413.868 0.0150385 -1.57593 0
M  V30 4160 C 415.115 0.703001 -1.89906 0
M  V30 4161 C 415.443 1.74604 -0.856944 0
M  V30 4162 O 414.698 1.95197 0.140287 0
M  V30 4163 C 414.997 1.39686 -3.28972 0
M  V30 4164 C 414.663 0.488457 -4.48246 0
M  V30 4165 C 413.325 0.2383 -4.8061 0
M  V30 4166 C 415.677 -0.137881 -5.21018 0
M  V30 4167 C 413.005 -0.646738 -5.83125 0
M  V30 4168 C 415.357 -1.0107 -6.24474 0
M  V30 4169 C 414.021 -1.27019 -6.55303 0
M  V30 4170 H 413.291 0.257246 -0.694914 0
M  V30 4171 H 415.938 -0.037259 -1.91464 0
M  V30 4172 H 414.243 2.21079 -3.23468 0
M  V30 4173 H 415.94 1.93495 -3.51227 0
M  V30 4174 H 412.53 0.693593 -4.22951 0
M  V30 4175 H 416.714 0.0423953 -4.96282 0
M  V30 4176 H 411.97 -0.855937 -6.05379 0
M  V30 4177 H 416.144 -1.50247 -6.79999 0
M  V30 4178 H 413.771 -1.95769 -7.3456 0
M  V30 4179 N 415.346 1.54954 0.287554 0
M  V30 4180 C 416.576 1.78622 1.03816 0
M  V30 4181 C 416.984 0.552451 1.80955 0
M  V30 4182 O 416.327 -0.487665 1.77109 0
M  V30 4183 C 416.389 2.94975 2.055 0
M  V30 4184 C 416.053 4.32565 1.47433 0
M  V30 4185 C 417.05 5.12096 0.897436 0
M  V30 4186 C 414.735 4.79195 1.50591 0
M  V30 4187 C 416.729 6.36383 0.359851 0
M  V30 4188 C 414.416 6.03441 0.964459 0
M  V30 4189 C 415.414 6.81872 0.392413 0
M  V30 4190 O 415.102 8.03777 -0.140788 0
M  V30 4191 H 414.834 0.599144 0.313053 0
M  V30 4192 H 417.388 2.02761 0.328225 0
M  V30 4193 H 415.618 2.66493 2.80211 0
M  V30 4194 H 417.307 3.06097 2.6657 0
M  V30 4195 H 418.073 4.77209 0.865841 0
M  V30 4196 H 413.952 4.18167 1.94055 0
M  V30 4197 H 417.496 6.97545 -0.0872951 0
M  V30 4198 H 413.393 6.37813 0.993246 0
M  V30 4199 H 414.161 8.18495 -0.0287617 0
M  V30 4200 N 416.824 -0.551391 1.4764 0
M  V30 4201 C 418.049 -1.33837 1.58437 0
M  V30 4202 C 418.474 -1.866 0.237063 0
M  V30 4203 O 417.832 -1.6328 -0.787994 0
M  V30 4204 C 417.88 -2.48014 2.61766 0
M  V30 4205 O 416.984 -3.50419 2.1744 0
M  V30 4206 H 416.325 -0.397299 0.532024 0
M  V30 4207 H 418.855 -0.665759 1.93465 0
M  V30 4208 H 418.865 -2.94503 2.82369 0
M  V30 4209 H 417.54 -2.08969 3.5959 0
M  V30 4210 H 416.117 -3.10196 2.06961 0
M  V30 4211 N 418.302 -1.35869 -0.798587 0
M  V30 4212 C 419.232 -1.32118 -1.92528 0
M  V30 4213 C 420.213 -0.194209 -1.68988 0
M  V30 4214 O 421.398 -0.390426 -1.90235 0
M  V30 4215 C 418.528 -1.10047 -3.29404 0
M  V30 4216 C 417.482 -2.19471 -3.67446 0
M  V30 4217 C 416.808 -1.82555 -5.02571 0
M  V30 4218 C 418.108 -3.61495 -3.76987 0
M  V30 4219 H 419.802 -2.26394 -1.95924 0
M  V30 4220 H 417.348 -1.08981 -0.94123 0
M  V30 4221 H 419.301 -1.06061 -4.07835 0
M  V30 4222 H 418.025 -0.122195 -3.26371 0
M  V30 4223 H 416.684 -2.22568 -2.91306 0
M  V30 4224 H 416.332 -0.833249 -4.9605 0
M  V30 4225 H 416.032 -2.5581 -5.28995 0
M  V30 4226 H 417.556 -1.80108 -5.83432 0
M  V30 4227 H 418.97 -3.60676 -4.4563 0
M  V30 4228 H 417.367 -4.33577 -4.14887 0
M  V30 4229 H 418.437 -3.97065 -2.78329 0
M  V30 4230 N 419.78 1.02168 -1.19998 0
M  V30 4231 C 421.191 1.57135 -1.00825 0
M  V30 4232 C 421.542 1.91276 0.436818 0
M  V30 4233 O 420.667 1.71679 1.3174 0
M  V30 4234 C 421.262 2.85514 -1.82393 0
M  V30 4235 C 419.821 3.37027 -1.67601 0
M  V30 4236 C 418.968 2.10388 -1.80644 0
M  V30 4237 H 421.919 0.846106 -1.34264 0
M  V30 4238 H 421.94 3.56711 -1.32429 0
M  V30 4239 H 421.452 2.60634 -2.87561 0
M  V30 4240 H 419.553 3.66878 -0.650485 0
M  V30 4241 H 419.666 4.09572 -2.4857 0
M  V30 4242 H 418.03 2.22601 -1.23778 0
M  V30 4243 H 418.813 1.8794 -2.87286 0
M  V30 4244 N 421.258 1.00505 1.21394 0
M  V30 4245 C 422.483 0.706367 1.95001 0
M  V30 4246 C 422.908 -0.72463 1.73582 0
M  V30 4247 O 422.266 -1.49702 1.0227 0
M  V30 4248 C 422.314 1.03299 3.45487 0
M  V30 4249 O 421.418 0.138275 4.12168 0
M  V30 4250 H 420.759 0.263175 0.609619 0
M  V30 4251 H 423.289 1.34531 1.54151 0
M  V30 4252 H 423.299 0.979872 3.96059 0
M  V30 4253 H 421.974 2.07567 3.60401 0
M  V30 4254 H 420.551 0.247928 3.72075 0
M  V30 4255 N 422.737 -1.36956 0.779787 0
M  V30 4256 C 423.985 -1.99097 0.347079 0
M  V30 4257 C 424.306 -1.62206 -1.08232 0
M  V30 4258 O 423.576 -0.891373 -1.74446 0
M  V30 4259 H 422.156 -0.736409 0.125342 0
M  V30 4260 H 424.818 -1.67308 0.999696 0
M  V30 4261 H 423.914 -3.09107 0.431162 0
M  V30 4262 N 424.215 -0.530993 -1.48385 0
M  V30 4263 C 425.463 0.00273189 -2.021 0
M  V30 4264 C 425.784 1.34672 -1.41027 0
M  V30 4265 O 425.054 1.8724 -0.576012 0
M  V30 4266 H 423.634 0.00399774 -0.746989 0
M  V30 4267 H 426.296 -0.695054 -1.82085 0
M  V30 4268 H 425.392 0.11031 -3.11905 0
M  V30 4269 N 425.693 1.55336 -0.266172 0
M  V30 4270 C 426.923 2.03506 0.356239 0
M  V30 4271 C 427.331 1.14426 1.50676 0
M  V30 4272 O 426.674 0.155043 1.83045 0
M  V30 4273 C 426.736 3.47848 0.90785 0
M  V30 4274 C 426.4 4.56861 -0.112888 0
M  V30 4275 C 427.397 5.11528 -0.929264 0
M  V30 4276 C 425.082 5.01704 -0.244546 0
M  V30 4277 C 427.076 6.09549 -1.86357 0
M  V30 4278 C 424.763 5.99553 -1.18234 0
M  V30 4279 C 425.761 6.53356 -1.99036 0
M  V30 4280 O 425.449 7.49293 -2.91231 0
M  V30 4281 H 425.181 0.670444 0.08649 0
M  V30 4282 H 427.735 2.01598 -0.39337 0
M  V30 4283 H 425.965 3.46967 1.70737 0
M  V30 4284 H 427.654 3.79407 1.44239 0
M  V30 4285 H 428.42 4.77701 -0.838237 0
M  V30 4286 H 424.299 4.59477 0.374359 0
M  V30 4287 H 427.843 6.51469 -2.49467 0
M  V30 4288 H 423.74 6.32799 -1.27421 0
M  V30 4289 H 424.508 7.66978 -2.8581 0
M  V30 4290 N 427.171 -0.0066808 1.57599 0
M  V30 4291 C 428.399 -0.704087 1.94551 0
M  V30 4292 C 428.814 -1.67677 0.867746 0
M  V30 4293 O 428.171 -1.8185 -0.153925 0
M  V30 4294 C 428.222 -1.44177 3.31505 0
M  V30 4295 O 427.943 -0.508097 4.35144 0
M  V30 4296 C 429.444 -2.23429 3.82876 0
M  V30 4297 H 426.664 -0.196523 0.641576 0
M  V30 4298 H 429.208 0.042453 2.04456 0
M  V30 4299 H 427.363 -2.13999 3.22929 0
M  V30 4300 H 427.777 -1.02782 5.14331 0
M  V30 4301 H 429.251 -2.70552 4.8115 0
M  V30 4302 H 429.728 -3.05818 3.15233 0
M  V30 4303 H 430.334 -1.58636 3.94607 0
M  V30 4304 N 428.649 -1.55105 -0.279332 0
M  V30 4305 C 429.895 -1.75672 -1.01327 0
M  V30 4306 C 430.228 -0.552739 -1.86168 0
M  V30 4307 O 429.503 0.449827 -1.89227 0
M  V30 4308 C 429.786 -3.05825 -1.90114 0
M  V30 4309 C 429.639 -4.36565 -1.08309 0
M  V30 4310 C 430.958 -3.31975 -2.8893 0
M  V30 4311 H 428.077 -0.639149 -0.366957 0
M  V30 4312 H 430.719 -1.87833 -0.286154 0
M  V30 4313 H 428.869 -2.95588 -2.52111 0
M  V30 4314 H 430.541 -4.58751 -0.484314 0
M  V30 4315 H 428.784 -4.32076 -0.386362 0
M  V30 4316 H 429.455 -5.23946 -1.73737 0
M  V30 4317 H 431.931 -3.41963 -2.37067 0
M  V30 4318 H 430.807 -4.2432 -3.48201 0
M  V30 4319 H 431.068 -2.51309 -3.63725 0
M  V30 4320 N 430.127 0.543554 -1.4793 0
M  V30 4321 C 431.376 1.29649 -1.54512 0
M  V30 4322 C 431.689 1.94382 -0.217973 0
M  V30 4323 O 432.895 2.71017 -0.161908 0
M  V30 4324 C 431.351 2.35175 -2.72435 0
M  V30 4325 C 430.959 1.76572 -4.11736 0
M  V30 4326 C 432.703 3.11564 -2.8832 0
M  V30 4327 C 430.61 2.79958 -5.20939 0
M  V30 4328 H 429.54 0.487541 -0.57517 0
M  V30 4329 H 432.191 0.575708 -1.74235 0
M  V30 4330 H 430.573 3.10229 -2.46118 0
M  V30 4331 H 431.747 1.07799 -4.48013 0
M  V30 4332 H 430.062 1.12722 -4.00852 0
M  V30 4333 H 432.659 3.88794 -3.67074 0
M  V30 4334 H 433.002 3.66594 -1.97268 0
M  V30 4335 H 433.535 2.43623 -3.14472 0
M  V30 4336 H 430.274 2.29766 -6.13912 0
M  V30 4337 H 429.794 3.47101 -4.89164 0
M  V30 4338 H 431.473 3.43198 -5.48474 0
M  V30 4339 N 431.605 1.3629 0.791371 0
M  V30 4340 C 433.016 1.27225 1.36641 0
M  V30 4341 C 433.367 -0.0887968 1.95999 0
M  V30 4342 O 432.492 -0.990207 1.92416 0
M  V30 4343 C 433.087 2.30375 2.48421 0
M  V30 4344 C 431.646 2.25004 3.01746 0
M  V30 4345 C 430.793 2.15259 1.7481 0
M  V30 4346 H 433.744 1.47198 0.593173 0
M  V30 4347 H 433.765 1.93905 3.27385 0
M  V30 4348 H 433.277 3.29422 2.05189 0
M  V30 4349 H 431.378 1.29417 3.49403 0
M  V30 4350 H 431.491 3.1761 3.58693 0
M  V30 4351 H 429.855 1.61482 1.96966 0
M  V30 4352 H 430.638 3.16191 1.33709 0
M  V30 4353 N 433.083 -1.0153 1.20538 0
M  V30 4354 C 434.33 -1.75149 1.01633 0
M  V30 4355 C 434.658 -1.89189 -0.451399 0
M  V30 4356 O 433.913 -1.41551 -1.35136 0
M  V30 4357 C 434.212 -3.17213 1.64654 0
M  V30 4358 C 433.878 -3.23146 3.14464 0
M  V30 4359 C 432.54 -3.24472 3.55347 0
M  V30 4360 C 434.892 -3.21207 4.10458 0
M  V30 4361 C 432.22 -3.21532 4.90748 0
M  V30 4362 C 434.572 -3.19808 5.45807 0
M  V30 4363 C 433.236 -3.19439 5.86102 0
M  V30 4364 H 432.506 -0.640914 0.3719 0
M  V30 4365 H 435.153 -1.19071 1.49981 0
M  V30 4366 H 433.458 -3.76457 1.08571 0
M  V30 4367 H 435.155 -3.72871 1.4754 0
M  V30 4368 H 431.745 -3.2285 2.81897 0
M  V30 4369 H 435.929 -3.19351 3.79906 0
M  V30 4370 H 431.185 -3.19578 5.21229 0
M  V30 4371 H 435.359 -3.1726 6.19935 0
M  V30 4372 H 432.986 -3.16915 6.90991 0
M  V30 4373 N 434.561 -1.01147 -1.20859 0
M  V30 4374 C 435.791 -0.715872 -1.93801 0
M  V30 4375 C 436.199 0.726592 -1.74692 0
M  V30 4376 O 435.542 1.50397 -1.05482 0
M  V30 4377 C 435.604 -0.965269 -3.46299 0
M  V30 4378 C 435.268 -2.39584 -3.89164 0
M  V30 4379 C 436.265 -3.3764 -3.95342 0
M  V30 4380 C 433.95 -2.73522 -4.21297 0
M  V30 4381 C 435.944 -4.67698 -4.33056 0
M  V30 4382 C 433.631 -4.03794 -4.58687 0
M  V30 4383 C 434.629 -5.00693 -4.64538 0
M  V30 4384 O 434.317 -6.28635 -5.01072 0
M  V30 4385 H 434.049 -0.262524 -0.622942 0
M  V30 4386 H 436.603 -1.35413 -1.54443 0
M  V30 4387 H 434.833 -0.269847 -3.85757 0
M  V30 4388 H 436.522 -0.662051 -4.00464 0
M  V30 4389 H 437.288 -3.12757 -3.70686 0
M  V30 4390 H 433.167 -1.9879 -4.15937 0
M  V30 4391 H 436.711 -5.4333 -4.37537 0
M  V30 4392 H 432.608 -4.28459 -4.82797 0
M  V30 4393 H 433.376 -6.32847 -5.19083 0
M  V30 4394 N 436.039 1.36541 -0.78704 0
M  V30 4395 C 437.455 1.52571 -0.46844 0
M  V30 4396 C 437.655 1.7415 1.01361 0
M  V30 4397 O 436.711 1.77163 1.79915 0
M  V30 4398 C 438.024 2.71299 -1.29682 0
M  V30 4399 C 439.572 2.85169 -1.29027 0
M  V30 4400 C 440.047 4.06898 -2.10233 0
M  V30 4401 N 441.538 4.1404 -2.07666 0
M  V30 4402 C 442.273 5.07301 -2.67271 0
M  V30 4403 N 441.769 6.06021 -3.35724 0
M  V30 4404 N 443.562 4.99898 -2.57018 0
M  V30 4405 H 435.713 1.20788 -1.74711 0
M  V30 4406 H 437.976 0.589364 -0.742532 0
M  V30 4407 H 437.682 2.61868 -2.34773 0
M  V30 4408 H 437.556 3.6539 -0.936479 0
M  V30 4409 H 439.943 2.94062 -0.247284 0
M  V30 4410 H 440.024 1.91992 -1.69035 0
M  V30 4411 H 439.668 3.98766 -3.1456 0
M  V30 4412 H 439.598 4.99218 -1.67597 0
M  V30 4413 H 442.089 3.43357 -1.57843 0
M  V30 4414 H 442.402 6.73741 -3.78541 0
M  V30 4415 H 440.747 6.06253 -3.39826 0
M  V30 4416 H 443.938 4.21724 -2.03142 0
M  V30 4417 H 444.111 5.72392 -3.03761 0
M  V30 4418 N 437.518 0.538854 1.48102 0
M  V30 4419 C 438.766 0.00798599 2.02098 0
M  V30 4420 C 439.087 -1.33922 1.41739 0
M  V30 4421 O 438.357 -1.86932 0.585934 0
M  V30 4422 H 436.937 -3.62179e-05 0.747 0
M  V30 4423 H 439.599 0.7047 1.81714 0
M  V30 4424 H 438.695 -0.0937672 3.11959 0
M  V30 4425 N 438.996 -1.55193 0.274407 0
M  V30 4426 C 439.906 -2.26164 -0.623473 0
M  V30 4427 C 440.922 -1.28729 -1.17068 0
M  V30 4428 O 442.098 -1.61663 -1.20112 0
M  V30 4429 C 439.163 -2.96833 -1.7914 0
M  V30 4430 C 438.224 -4.09745 -1.28093 0
M  V30 4431 C 437.457 -4.77034 -2.3932 0
M  V30 4432 O 437.68 -4.4353 -3.5866 0
M  V30 4433 O 436.614 -5.64996 -2.07516 0
M  V30 4434 H 440.44 -3.03661 -0.0485661 0
M  V30 4435 H 438.025 -1.49341 0.0418382 0
M  V30 4436 H 439.907 -3.41248 -2.4724 0
M  V30 4437 H 438.582 -2.22253 -2.35341 0
M  V30 4438 H 437.489 -3.69787 -0.566416 0
M  V30 4439 H 438.822 -4.86224 -0.764683 0
M  V30 4440 N 440.474 -0.00167713 -1.576 0
M  V30 4441 C 441.89 0.354422 -1.55615 0
M  V30 4442 C 442.09 1.74679 -1.00447 0
M  V30 4443 O 441.146 2.4428 -0.639022 0
M  V30 4444 C 442.459 0.22812 -2.99833 0
M  V30 4445 C 444.007 0.302934 -3.11531 0
M  V30 4446 C 444.482 0.205737 -4.57538 0
M  V30 4447 N 445.973 0.263584 -4.62449 0
M  V30 4448 C 446.708 0.211742 -5.73009 0
M  V30 4449 N 446.204 0.110399 -6.92712 0
M  V30 4450 N 447.997 0.263729 -5.61481 0
M  V30 4451 H 440.148 -0.912498 -1.918 0
M  V30 4452 H 442.411 -0.349928 -0.881053 0
M  V30 4453 H 442.117 -0.729934 -3.44042 0
M  V30 4454 H 441.991 1.00951 -3.6344 0
M  V30 4455 H 444.378 1.25143 -2.67251 0
M  V30 4456 H 444.459 -0.508357 -2.50698 0
M  V30 4457 H 444.103 -0.739225 -5.02492 0
M  V30 4458 H 444.033 1.03554 -5.16318 0
M  V30 4459 H 446.524 0.343173 -3.76339 0
M  V30 4460 H 446.837 0.0767828 -7.72762 0
M  V30 4461 H 445.182 0.0760025 -6.94958 0
M  V30 4462 H 448.373 0.34111 -4.66855 0
M  V30 4463 H 448.546 0.219862 -6.47627 0
M  V30 4464 N 441.952 1.55251 0.271103 0
M  V30 4465 C 443.201 1.75151 1.00025 0
M  V30 4466 C 443.514 0.561041 1.87381 0
M  V30 4467 O 444.72 0.642506 2.63788 0
M  V30 4468 C 443.176 3.09999 1.82835 0
M  V30 4469 C 442.784 4.3662 1.00336 0
M  V30 4470 C 444.528 3.39249 2.55168 0
M  V30 4471 C 442.435 5.62506 1.82595 0
M  V30 4472 H 441.365 0.652877 0.377183 0
M  V30 4473 H 444.016 1.81708 0.255843 0
M  V30 4474 H 442.398 2.97485 2.61378 0
M  V30 4475 H 443.572 4.60055 0.261959 0
M  V30 4476 H 441.887 4.14527 0.394486 0
M  V30 4477 H 444.484 4.3051 3.1712 0
M  V30 4478 H 444.827 2.59467 3.2555 0
M  V30 4479 H 445.36 3.52869 1.83653 0
M  V30 4480 H 442.099 6.45041 1.16631 0
M  V30 4481 H 441.619 5.43211 2.54327 0
M  V30 4482 H 443.298 6.00875 2.39913 0
M  V30 4483 N 443.43 -0.535701 1.48216 0
M  V30 4484 C 444.658 -1.31671 1.59594 0
M  V30 4485 C 445.073 -1.87083 0.254056 0
M  V30 4486 O 444.43 -1.66112 -0.755854 0
M  V30 4487 C 444.481 -2.47158 2.63809 0
M  V30 4488 O 444.202 -1.94032 3.92789 0
M  V30 4489 C 445.703 -3.39062 2.85573 0
M  V30 4490 H 442.923 -0.400623 0.538277 0
M  V30 4491 H 445.467 -0.646827 1.94001 0
M  V30 4492 H 443.622 -3.10043 2.32276 0
M  V30 4493 H 444.036 -2.69585 4.49916 0
M  V30 4494 H 445.51 -4.16459 3.62306 0
M  V30 4495 H 445.987 -3.93941 1.94184 0
M  V30 4496 H 446.593 -2.81975 3.18387 0
M  V30 4497 N 444.908 -1.36708 -0.784132 0
M  V30 4498 C 446.155 -1.31231 -1.54222 0
M  V30 4499 C 446.483 0.106864 -1.94206 0
M  V30 4500 O 445.738 1.07734 -1.63376 0
M  V30 4501 C 446.037 -2.18571 -2.82774 0
M  V30 4502 C 445.703 -3.67039 -2.61903 0
M  V30 4503 C 444.365 -4.07503 -2.55919 0
M  V30 4504 C 446.717 -4.61149 -2.4288 0
M  V30 4505 C 444.045 -5.40211 -2.28886 0
M  V30 4506 C 446.397 -5.94081 -2.17373 0
M  V30 4507 C 445.061 -6.33664 -2.09825 0
M  V30 4508 H 444.331 -0.48021 -0.56434 0
M  V30 4509 H 446.978 -1.68807 -0.904233 0
M  V30 4510 H 445.283 -1.73949 -3.51068 0
M  V30 4511 H 446.98 -2.11655 -3.40592 0
M  V30 4512 H 443.57 -3.34941 -2.67418 0
M  V30 4513 H 447.754 -4.30756 -2.46501 0
M  V30 4514 H 443.01 -5.69855 -2.21529 0
M  V30 4515 H 447.184 -6.66566 -2.01649 0
M  V30 4516 H 444.811 -7.36423 -1.88641 0
M  V30 4517 N 446.386 1.0089 -1.21074 0
M  V30 4518 C 447.663 1.71834 -0.934469 0
M  V30 4519 C 448.043 2.0368 0.554753 0
M  V30 4520 O 447.391 1.70742 1.51854 0
M  V30 4521 C 447.601 2.98061 -1.8155 0
M  V30 4522 C 448.949 3.7117 -2.06199 0
M  V30 4523 O 449.973 3.08034 -1.78867 0
M  V30 4524 O 448.832 4.84721 -2.52404 0
M  V30 4525 H 445.926 0.749253 -0.35007 0
M  V30 4526 H 448.472 1.06668 -1.31985 0
M  V30 4527 H 447.244 2.70908 -2.82355 0
M  V30 4528 H 446.867 3.70968 -1.43068 0
M  V30 4529 N 447.864 1.01787 1.20321 0
M  V30 4530 C 449.11 0.708985 1.90003 0
M  V30 4531 C 449.443 -0.759572 1.78729 0
M  V30 4532 O 448.718 -1.55198 1.17234 0
M  V30 4533 C 449.001 1.1469 3.41348 0
M  V30 4534 C 448.854 2.67586 3.61549 0
M  V30 4535 C 450.173 0.71915 4.34185 0
M  V30 4536 H 447.292 0.259034 0.689978 0
M  V30 4537 H 449.934 1.26584 1.41692 0
M  V30 4538 H 448.084 0.673128 3.82624 0
M  V30 4539 H 449.756 3.22826 3.29517 0
M  V30 4540 H 447.999 3.085 3.04976 0
M  V30 4541 H 448.67 2.93281 4.67643 0
M  V30 4542 H 451.146 1.12647 4.00562 0
M  V30 4543 H 450.022 1.05358 5.38694 0
M  V30 4544 H 450.283 -0.379111 4.40472 0
M  V30 4545 N 449.342 -1.36122 0.79427 0
M  V30 4546 C 450.305 -2.28309 0.201889 0
M  V30 4547 C 451.305 -1.49041 -0.603603 0
M  V30 4548 O 452.495 -1.68964 -0.423888 0
M  V30 4549 C 449.627 -3.3321 -0.719978 0
M  V30 4550 H 450.82 -2.82208 1.01481 0
M  V30 4551 H 448.373 -1.45768 0.564037 0
M  V30 4552 H 449.108 -2.84475 -1.55706 0
M  V30 4553 H 448.893 -3.91835 -0.144266 0
M  V30 4554 H 450.383 -4.02044 -1.12916 0
M  V30 4555 N 450.82 -0.546701 -1.47814 0
M  V30 4556 C 452.231 -0.110564 -1.86372 0
M  V30 4557 C 452.582 1.31678 -1.45449 0
M  V30 4558 O 451.707 1.98889 -0.852758 0
M  V30 4559 C 452.302 -0.193873 -3.38245 0
M  V30 4560 C 450.861 0.187164 -3.75934 0
M  V30 4561 C 450.008 -0.546166 -2.71868 0
M  V30 4562 H 452.959 -0.757022 -1.39481 0
M  V30 4563 H 452.98 0.590218 -3.75895 0
M  V30 4564 H 452.492 -1.23282 -3.67999 0
M  V30 4565 H 450.593 1.22762 -3.51796 0
M  V30 4566 H 450.706 -0.164083 -4.78819 0
M  V30 4567 H 449.07 0.00953904 -2.54698 0
M  V30 4568 H 449.853 -1.58606 -3.04465 0
M  V30 4569 N 452.299 1.55045 -0.282633 0
M  V30 4570 C 453.524 2.04628 0.337977 0
M  V30 4571 C 453.949 1.15937 1.48123 0
M  V30 4572 O 453.307 0.159532 1.80597 0
M  V30 4573 C 453.355 3.51854 0.78936 0
M  V30 4574 O 452.459 3.66236 1.89592 0
M  V30 4575 H 451.8 0.660434 0.0687261 0
M  V30 4576 H 454.33 2.00261 -0.419124 0
M  V30 4577 H 454.34 3.93361 1.08311 0
M  V30 4578 H 453.015 4.15873 -0.0470419 0
M  V30 4579 H 451.592 3.36633 1.60413 0
M  V30 4580 N 453.777 0.010035 1.57597 0
M  V30 4581 C 455.193 -0.346164 1.55801 0
M  V30 4582 C 455.393 -1.74144 1.01371 0
M  V30 4583 O 454.449 -2.43938 0.651968 0
M  V30 4584 C 455.762 -0.212216 2.9995 0
M  V30 4585 C 457.31 -0.286409 3.11687 0
M  V30 4586 C 457.785 -0.18147 4.5764 0
M  V30 4587 N 459.276 -0.239056 4.62583 0
M  V30 4588 C 460.011 -0.181351 5.73113 0
M  V30 4589 N 459.507 -0.073661 6.92761 0
M  V30 4590 N 461.3 -0.233949 5.61613 0
M  V30 4591 H 453.451 0.922657 1.91313 0
M  V30 4592 H 455.714 0.354595 0.879185 0
M  V30 4593 H 455.42 0.748169 3.4365 0
M  V30 4594 H 455.294 -0.990224 3.6397 0
M  V30 4595 H 457.681 -1.23724 2.67911 0
M  V30 4596 H 457.762 0.521645 2.50425 0
M  V30 4597 H 457.406 0.765863 5.02093 0
M  V30 4598 H 457.336 -1.00814 5.1686 0
M  V30 4599 H 459.827 -0.32321 3.76515 0
M  V30 4600 H 460.14 -0.0358003 7.72792 0
M  V30 4601 H 458.485 -0.0391461 6.94989 0
M  V30 4602 H 461.676 -0.316347 4.6703 0
M  V30 4603 H 461.849 -0.185514 6.47734 0
M  V30 4604 N 455.255 -1.55392 -0.262866 0
M  V30 4605 C 456.185 -1.91978 -1.32917 0
M  V30 4606 C 457.166 -0.7828 -1.51017 0
M  V30 4607 O 458.351 -1.04178 -1.63892 0
M  V30 4608 C 455.481 -2.20055 -2.68687 0
M  V30 4609 C 454.435 -3.35854 -2.65304 0
M  V30 4610 C 453.761 -3.49435 -4.04721 0
M  V30 4611 C 455.061 -4.71977 -2.23685 0
M  V30 4612 H 456.755 -2.81292 -1.02544 0
M  V30 4613 H 454.301 -1.3534 -0.491846 0
M  V30 4614 H 456.254 -2.44237 -3.43404 0
M  V30 4615 H 454.978 -1.27551 -3.00663 0
M  V30 4616 H 453.637 -3.11655 -1.93045 0
M  V30 4617 H 453.285 -2.54379 -4.33936 0
M  V30 4618 H 452.985 -4.27297 -4.0335 0
M  V30 4619 H 454.509 -3.7592 -4.81161 0
M  V30 4620 H 455.923 -4.95637 -2.88127 0
M  V30 4621 H 454.32 -5.52828 -2.33456 0
M  V30 4622 H 455.39 -4.70115 -1.18827 0
M  V30 4623 N 456.733 0.527833 -1.48498 0
M  V30 4624 C 458.01 1.28905 -1.47115 0
M  V30 4625 C 458.39 2.10297 -0.184007 0
M  V30 4626 O 457.738 2.12728 0.834218 0
M  V30 4627 C 457.948 2.16866 -2.73441 0
M  V30 4628 C 459.296 2.76936 -3.21857 0
M  V30 4629 O 460.32 2.27152 -2.74373 0
M  V30 4630 O 459.179 3.67496 -4.04486 0
M  V30 4631 H 456.273 0.581918 -0.587623 0
M  V30 4632 H 458.819 0.544311 -1.60734 0
M  V30 4633 H 457.591 1.56521 -3.58632 0
M  V30 4634 H 457.214 2.98583 -2.62553 0
M  V30 4635 N 458.211 1.37122 0.776871 0
M  V30 4636 C 459.458 1.32047 1.53524 0
M  V30 4637 C 459.786 -0.0965631 1.9426 0
M  V30 4638 O 459.041 -1.06866 1.63945 0
M  V30 4639 C 459.34 2.20068 2.81611 0
M  V30 4640 C 459.006 3.68423 2.59953 0
M  V30 4641 C 457.668 4.08854 2.53755 0
M  V30 4642 C 460.02 4.62431 2.40431 0
M  V30 4643 C 457.348 5.41417 2.26018 0
M  V30 4644 C 459.7 5.95225 2.14219 0
M  V30 4645 C 458.364 6.34767 2.06462 0
M  V30 4646 H 457.634 0.483196 0.561785 0
M  V30 4647 H 460.281 1.69284 0.895268 0
M  V30 4648 H 458.586 1.75809 3.50141 0
M  V30 4649 H 460.283 2.13458 3.39465 0
M  V30 4650 H 456.873 3.36354 2.65638 0
M  V30 4651 H 461.057 4.32057 2.44213 0
M  V30 4652 H 456.313 5.71022 2.18504 0
M  V30 4653 H 460.487 6.67626 1.98112 0
M  V30 4654 H 458.114 7.37413 1.84733 0
M  V30 4655 N 459.689 -1.00246 1.21608 0
M  V30 4656 C 460.917 -1.77631 1.06089 0
M  V30 4657 C 461.332 -1.84746 -0.38916 0
M  V30 4658 O 460.689 -1.31068 -1.26994 0
M  V30 4659 C 460.74 -3.21415 1.65453 0
M  V30 4660 O 460.461 -3.14703 3.04785 0
M  V30 4661 C 461.962 -4.15289 1.55079 0
M  V30 4662 H 459.182 -0.558162 0.37242 0
M  V30 4663 H 461.726 -1.26093 1.60999 0
M  V30 4664 H 459.881 -3.70053 1.14629 0
M  V30 4665 H 460.295 -4.05056 3.33212 0
M  V30 4666 H 461.769 -5.13965 2.01355 0
M  V30 4667 H 462.246 -4.36279 0.505665 0
M  V30 4668 H 462.852 -3.72543 2.05163 0
M  V30 4669 N 461.167 -1.02423 -1.1978 0
M  V30 4670 C 462.413 -0.719051 -1.89625 0
M  V30 4671 C 462.746 0.750083 -1.7913 0
M  V30 4672 O 462.021 1.54574 -1.18056 0
M  V30 4673 C 462.304 -1.16499 -3.40735 0
M  V30 4674 C 462.157 -2.695 -3.60125 0
M  V30 4675 C 463.476 -0.742166 -4.33797 0
M  V30 4676 H 460.595 -0.26269 -0.688595 0
M  V30 4677 H 463.237 -1.27333 -1.41018 0
M  V30 4678 H 461.387 -0.69341 -3.82262 0
M  V30 4679 H 463.059 -3.24569 -3.278 0
M  V30 4680 H 461.302 -3.10113 -3.03336 0
M  V30 4681 H 461.973 -2.95757 -4.66081 0
M  V30 4682 H 464.449 -1.1477 -3.99959 0
M  V30 4683 H 463.325 -1.08213 -5.38127 0
M  V30 4684 H 463.586 0.355747 -4.40666 0
M  V30 4685 N 462.645 1.35699 -0.801477 0
M  V30 4686 C 463.555 2.33661 -0.209691 0
M  V30 4687 C 464.571 1.6162 0.644591 0
M  V30 4688 O 465.747 1.93529 0.557545 0
M  V30 4689 C 462.812 3.40816 0.636033 0
M  V30 4690 C 461.873 4.28639 -0.238147 0
M  V30 4691 C 461.106 5.30676 0.567307 0
M  V30 4692 O 461.329 5.41174 1.8024 0
M  V30 4693 O 460.263 6.01887 -0.0391336 0
M  V30 4694 H 464.089 2.8606 -1.01996 0
M  V30 4695 H 461.674 1.38379 -0.563164 0
M  V30 4696 H 463.556 4.06301 1.11791 0
M  V30 4697 H 462.231 2.90696 1.42399 0
M  V30 4698 H 461.138 3.66152 -0.767044 0
M  V30 4699 H 462.471 4.82143 -0.989915 0
M  V30 4700 N 464.123 0.554532 1.47522 0
M  V30 4701 C 465.073 -0.215008 2.26984 0
M  V30 4702 C 466.057 -0.88774 1.34194 0
M  V30 4703 O 467.249 -0.786489 1.58567 0
M  V30 4704 C 464.378 -1.24604 3.19889 0
M  V30 4705 C 463.464 -0.576857 4.20159 0
M  V30 4706 N 463.855 0.351541 5.04577 0
M  V30 4707 C 462.153 -0.831104 4.38188 0
M  V30 4708 C 462.854 0.739995 5.76974 0
M  V30 4709 N 461.83 0.0954407 5.43516 0
M  V30 4710 H 465.632 0.498843 2.89636 0
M  V30 4711 H 463.146 0.374279 1.58028 0
M  V30 4712 H 465.143 -1.81128 3.75498 0
M  V30 4713 H 463.803 -1.96101 2.58794 0
M  V30 4714 H 464.814 0.725556 5.12792 0
M  V30 4715 H 461.491 -1.53479 3.88266 0
M  V30 4716 H 462.881 1.50271 6.5488 0
M  V30 4717 N 465.601 -1.54893 0.290851 0
M  V30 4718 C 466.878 -1.91991 -0.373989 0
M  V30 4719 C 467.258 -1.21694 -1.72493 0
M  V30 4720 O 466.606 -0.34917 -2.25816 0
M  V30 4721 C 466.816 -3.45419 -0.498703 0
M  V30 4722 C 468.164 -4.1748 -0.774298 0
M  V30 4723 O 469.188 -3.51398 -0.582908 0
M  V30 4724 O 468.047 -5.3445 -1.14129 0
M  V30 4725 H 465.141 -0.800593 -0.207315 0
M  V30 4726 H 467.687 -1.66297 0.338164 0
M  V30 4727 H 466.459 -3.88688 0.451392 0
M  V30 4728 H 466.082 -3.77117 -1.25972 0
M  V30 4729 N 467.08 -0.0183926 -1.57589 0
M  V30 4730 C 468.305 0.676634 -1.96052 0
M  V30 4731 C 468.73 1.6548 -0.894307 0
M  V30 4732 O 468.088 1.80712 0.145849 0
M  V30 4733 C 468.136 1.36872 -3.33614 0
M  V30 4734 O 467.24 2.48372 -3.29219 0
M  V30 4735 H 466.581 0.1786 -0.63953 0
M  V30 4736 H 469.111 -0.077056 -2.04455 0
M  V30 4737 H 469.121 1.72797 -3.69601 0
M  V30 4738 H 467.796 0.651636 -4.10763 0
M  V30 4739 H 466.373 2.14639 -3.04934 0
M  V30 4740 N 468.558 1.5553 0.254621 0
M  V30 4741 C 469.488 1.9268 1.31897 0
M  V30 4742 C 470.469 0.790797 1.506 0
M  V30 4743 O 471.654 1.05045 1.63337 0
M  V30 4744 C 468.784 2.21477 2.67517 0
M  V30 4745 C 467.738 3.37256 2.63519 0
M  V30 4746 C 467.064 3.51576 4.02862 0
M  V30 4747 C 468.364 4.73157 2.21179 0
M  V30 4748 H 470.058 2.81832 1.01051 0
M  V30 4749 H 467.604 1.35599 0.484662 0
M  V30 4750 H 469.557 2.46055 3.42104 0
M  V30 4751 H 468.281 1.29144 2.99982 0
M  V30 4752 H 466.94 3.12675 1.9139 0
M  V30 4753 H 466.588 2.56676 4.32581 0
M  V30 4754 H 466.288 4.2943 4.01078 0
M  V30 4755 H 467.812 3.78467 4.79161 0
M  V30 4756 H 469.226 4.97158 2.85494 0
M  V30 4757 H 467.623 5.54058 2.30521 0
M  V30 4758 H 468.693 4.70739 1.16332 0
M  V30 4759 N 470.036 -0.519951 1.48776 0
M  V30 4760 C 470.983 -1.62352 1.64044 0
M  V30 4761 C 471.953 -1.58945 0.482251 0
M  V30 4762 O 473.138 -1.77219 0.706971 0
M  V30 4763 C 470.278 -3.00579 1.69547 0
M  V30 4764 C 469.391 -3.14145 2.96541 0
M  V30 4765 C 468.526 -4.42991 2.93142 0
M  V30 4766 C 467.565 -4.50122 4.14797 0
M  V30 4767 N 466.702 -5.7037 4.09418 0
M  V30 4768 H 471.542 -1.48643 2.58281 0
M  V30 4769 H 469.079 -0.723516 1.28077 0
M  V30 4770 H 471.037 -3.80671 1.70719 0
M  V30 4771 H 469.667 -3.13036 0.787918 0
M  V30 4772 H 468.719 -2.27239 3.05068 0
M  V30 4773 H 470.031 -3.15275 3.86527 0
M  V30 4774 H 469.185 -5.31385 2.92772 0
M  V30 4775 H 467.924 -4.44398 2.00902 0
M  V30 4776 H 466.929 -3.60133 4.15433 0
M  V30 4777 H 468.154 -4.50445 5.08208 0
M  V30 4778 H 466.1 -5.72655 3.20004 0
M  V30 4779 H 466.017 -5.73036 4.93119 0
M  V30 4780 H 467.285 -6.61023 4.13121 0
M  V30 4781 N 471.514 -1.37532 -0.769588 0
M  V30 4782 C 472.763 -1.32183 -1.5235 0
M  V30 4783 C 473.076 0.0906555 -1.9539 0
M  V30 4784 O 474.282 0.266628 -2.70188 0
M  V30 4785 C 472.738 -2.32029 -2.75119 0
M  V30 4786 C 472.346 -3.78816 -2.3917 0
M  V30 4787 C 474.09 -2.35694 -3.53056 0
M  V30 4788 C 471.997 -4.70388 -3.58453 0
M  V30 4789 H 470.927 -0.491275 -0.571984 0
M  V30 4790 H 473.578 -1.63004 -0.842739 0
M  V30 4791 H 471.96 -1.94229 -3.45096 0
M  V30 4792 H 473.134 -4.25466 -1.76962 0
M  V30 4793 H 471.449 -3.78117 -1.74402 0
M  V30 4794 H 474.046 -3.01312 -4.41718 0
M  V30 4795 H 474.389 -1.37117 -3.93071 0
M  V30 4796 H 474.922 -2.72212 -2.90078 0
M  V30 4797 H 471.661 -5.70102 -3.23518 0
M  V30 4798 H 471.181 -4.28442 -4.19758 0
M  V30 4799 H 472.86 -4.87628 -4.25239 0
M  V30 4800 N 472.992 0.995999 -1.22138 0
M  V30 4801 C 473.902 2.11985 -1.00496 0
M  V30 4802 C 474.918 1.7394 0.0457701 0
M  V30 4803 O 476.094 2.00868 -0.146273 0
M  V30 4804 C 473.159 3.41779 -0.582086 0
M  V30 4805 C 472.22 3.93943 -1.70608 0
M  V30 4806 C 471.453 5.17542 -1.30328 0
M  V30 4807 O 471.676 5.70114 -0.180743 0
M  V30 4808 O 470.61 5.63382 -2.11861 0
M  V30 4809 H 474.436 2.33123 -1.94647 0
M  V30 4810 H 472.021 1.10358 -1.00705 0
M  V30 4811 H 473.903 4.1989 -0.356467 0
M  V30 4812 H 472.578 3.22007 0.330592 0
M  V30 4813 H 471.485 3.17019 -1.98619 0
M  V30 4814 H 472.818 4.18141 -2.59651 0
M  V30 4815 N 474.47 1.03057 1.19235 0
M  V30 4816 C 475.881 0.757449 1.70645 0
M  V30 4817 C 476.232 -0.722735 1.82403 0
M  V30 4818 O 475.357 -1.56325 1.49638 0
M  V30 4819 C 475.952 1.36833 3.09939 0
M  V30 4820 C 474.511 1.14375 3.58602 0
M  V30 4821 C 473.658 1.46533 2.35422 0
M  V30 4822 H 476.609 1.19828 1.04052 0
M  V30 4823 H 476.63 0.766184 3.72706 0
M  V30 4824 H 476.142 2.44562 3.01349 0
M  V30 4825 H 474.243 0.0847542 3.72504 0
M  V30 4826 H 474.356 1.83366 4.42622 0
M  V30 4827 H 472.72 0.884712 2.38841 0
M  V30 4828 H 473.503 2.55349 2.2946 0
M  V30 4829 N 475.948 -1.35272 0.808662 0
M  V30 4830 C 477.194 -1.99003 0.390581 0
M  V30 4831 C 477.527 -1.63999 -1.0401 0
M  V30 4832 O 476.802 -0.904368 -1.72196 0
M  V30 4833 C 477.085 -3.55454 0.576566 0
M  V30 4834 C 476.938 -4.00249 2.05233 0
M  V30 4835 C 478.257 -4.401 0.00354277 0
M  V30 4836 H 475.376 -0.722917 0.143388 0
M  V30 4837 H 478.018 -1.6039 1.01858 0
M  V30 4838 H 476.168 -3.88477 0.0419766 0
M  V30 4839 H 477.84 -3.77626 2.64946 0
M  V30 4840 H 476.083 -3.51082 2.54801 0
M  V30 4841 H 476.754 -5.0911 2.13333 0
M  V30 4842 H 479.23 -4.13548 0.460117 0
M  V30 4843 H 478.106 -5.48656 0.163575 0
M  V30 4844 H 478.367 -4.28444 -1.09032 0
M  V30 4845 N 477.426 -0.562348 -1.47226 0
M  V30 4846 C 478.673 -0.0402165 -2.0246 0
M  V30 4847 C 479.001 1.31169 -1.43614 0
M  V30 4848 O 478.256 1.86805 -0.5833 0
M  V30 4849 C 478.555 0.0969817 -3.57268 0
M  V30 4850 C 478.221 -1.1847 -4.35058 0
M  V30 4851 C 476.883 -1.53588 -4.56031 0
M  V30 4852 C 479.235 -2.03378 -4.79882 0
M  V30 4853 C 476.563 -2.73452 -5.19077 0
M  V30 4854 C 478.915 -3.2245 -5.44251 0
M  V30 4855 C 477.579 -3.57876 -5.63455 0
M  V30 4856 H 476.849 -0.0147163 -0.740854 0
M  V30 4857 H 479.496 -0.734895 -1.76838 0
M  V30 4858 H 477.801 0.87466 -3.81912 0
M  V30 4859 H 479.498 0.516408 -3.97661 0
M  V30 4860 H 476.088 -0.90126 -4.19017 0
M  V30 4861 H 480.272 -1.77553 -4.63453 0
M  V30 4862 H 475.528 -3.01062 -5.32139 0
M  V30 4863 H 479.702 -3.88526 -5.77945 0
M  V30 4864 H 477.329 -4.50849 -6.12078 0
M  V30 4865 N 478.904 1.54736 -0.299062 0
M  V30 4866 C 479.854 2.20155 0.592932 0
M  V30 4867 C 480.838 1.1739 1.10038 0
M  V30 4868 O 482.03 1.43116 1.04147 0
M  V30 4869 C 479.159 2.94437 1.76527 0
M  V30 4870 C 478.245 4.04516 1.27388 0
M  V30 4871 N 478.636 5.03319 0.500339 0
M  V30 4872 C 476.934 4.18022 1.55478 0
M  V30 4873 C 477.635 5.81209 0.238909 0
M  V30 4874 N 476.611 5.37408 0.818163 0
M  V30 4875 H 480.413 2.93899 -0.00563596 0
M  V30 4876 H 477.927 1.62068 -0.103732 0
M  V30 4877 H 479.924 3.3977 2.41582 0
M  V30 4878 H 478.584 2.22209 2.36756 0
M  V30 4879 H 479.595 5.17696 0.145419 0
M  V30 4880 H 476.272 3.56998 2.16469 0
M  V30 4881 H 477.662 6.70812 -0.382223 0
M  V30 4882 N 480.382 0.0267497 1.57577 0
M  V30 4883 C 481.628 -0.653371 1.91987 0
M  V30 4884 C 481.961 -1.71915 0.903263 0
M  V30 4885 O 481.236 -1.94358 -0.0743387 0
M  V30 4886 C 481.519 -1.272 3.36886 0
M  V30 4887 C 481.372 -0.215938 4.49281 0
M  V30 4888 C 482.691 -2.19069 3.81703 0
M  V30 4889 H 479.81 -0.236047 0.698177 0
M  V30 4890 H 482.452 0.0835236 1.89816 0
M  V30 4891 H 480.602 -1.90005 3.38866 0
M  V30 4892 H 482.274 0.41449 4.59434 0
M  V30 4893 H 480.517 0.458855 4.31366 0
M  V30 4894 H 481.188 -0.688347 5.47691 0
M  V30 4895 H 483.664 -1.66253 3.81444 0
M  V30 4896 H 482.54 -2.59307 4.83788 0
M  V30 4897 H 482.801 -3.08087 3.17072 0
M  V30 4898 N 481.861 -1.55662 -0.24637 0
M  V30 4899 C 482.794 -1.85332 -1.33143 0
M  V30 4900 C 483.772 -0.708464 -1.46354 0
M  V30 4901 O 484.956 -0.954274 -1.6256 0
M  V30 4902 C 482.083 -2.0385 -2.70487 0
M  V30 4903 C 481.129 -3.26488 -2.74423 0
M  V30 4904 S 481.962 -4.83124 -2.30979 0
M  V30 4905 C 483.118 -5.04647 -3.70246 0
M  V30 4906 H 483.351 -2.77077 -1.07777 0
M  V30 4907 H 480.884 -1.47776 -0.44738 0
M  V30 4908 H 482.842 -2.15202 -3.49569 0
M  V30 4909 H 481.503 -1.12947 -2.9309 0
M  V30 4910 H 480.696 -3.36413 -3.7529 0
M  V30 4911 H 480.298 -3.13864 -2.03385 0
M  V30 4912 H 482.59 -4.92023 -4.65746 0
M  V30 4913 H 483.533 -6.06625 -3.65255 0
M  V30 4914 H 483.941 -4.32491 -3.62784 0
M  V30 4915 N 483.339 0.512053 -1.4905 0
M  V30 4916 C 484.587 1.26436 -1.57665 0
M  V30 4917 C 484.908 1.93255 -0.260293 0
M  V30 4918 O 484.178 1.82206 0.719564 0
M  V30 4919 H 482.758 0.469658 -0.580888 0
M  V30 4920 H 485.42 0.594398 -1.85615 0
M  V30 4921 H 484.516 2.03417 -2.36702 0
M  V30 4922 N 484.817 1.37938 0.762283 0
M  V30 4923 C 486.064 1.33668 1.52115 0
M  V30 4924 C 486.392 -0.0759538 1.94352 0
M  V30 4925 O 485.647 -1.05121 1.6507 0
M  V30 4926 C 485.946 2.23042 2.79261 0
M  V30 4927 C 485.612 3.71159 2.56031 0
M  V30 4928 C 484.274 4.11523 2.49404 0
M  V30 4929 C 486.626 4.64955 2.35513 0
M  V30 4930 C 483.954 5.43784 2.20263 0
M  V30 4931 C 486.306 5.97464 2.07894 0
M  V30 4932 C 484.97 6.36922 1.99718 0
M  V30 4933 H 484.24 0.489127 0.556629 0
M  V30 4934 H 486.887 1.70224 0.877262 0
M  V30 4935 H 485.192 1.79512 3.48256 0
M  V30 4936 H 486.889 2.17047 3.37182 0
M  V30 4937 H 483.479 3.39153 2.62056 0
M  V30 4938 H 487.663 4.34623 2.39617 0
M  V30 4939 H 482.919 5.73307 2.12435 0
M  V30 4940 H 487.093 6.6969 1.91019 0
M  V30 4941 H 484.72 7.39331 1.76902 0
M  V30 4942 N 486.295 -0.989507 1.22664 0
M  V30 4943 C 487.52 -1.77031 1.08051 0
M  V30 4944 C 487.945 -1.84535 -0.364483 0
M  V30 4945 O 487.303 -1.3003 -1.2634 0
M  V30 4946 C 487.351 -3.18 1.70024 0
M  V30 4947 O 486.455 -4.01161 0.956216 0
M  V30 4948 H 485.796 -0.545008 0.379292 0
M  V30 4949 H 488.326 -1.24277 1.62531 0
M  V30 4950 H 488.336 -3.68616 1.74888 0
M  V30 4951 H 487.011 -3.11853 2.75174 0
M  V30 4952 H 485.588 -3.59687 0.98384 0
M  V30 4953 N 487.773 -1.03688 -1.18687 0
M  V30 4954 C 489.019 -0.739123 -1.88851 0
M  V30 4955 C 489.352 0.731042 -1.79915 0
M  V30 4956 O 488.627 1.53313 -1.19688 0
M  V30 4957 C 488.91 -1.20106 -3.3948 0
M  V30 4958 C 488.763 -2.73304 -3.57246 0
M  V30 4959 C 490.082 -0.788134 -4.32986 0
M  V30 4960 H 487.201 -0.269978 -0.68577 0
M  V30 4961 H 489.843 -1.28822 -1.3966 0
M  V30 4962 H 487.993 -0.733915 -3.81505 0
M  V30 4963 H 489.665 -3.28027 -3.24339 0
M  V30 4964 H 487.908 -3.13313 -3.00029 0
M  V30 4965 H 488.579 -3.00684 -4.62918 0
M  V30 4966 H 491.055 -1.19005 -3.98719 0
M  V30 4967 H 489.931 -1.13915 -5.36949 0
M  V30 4968 H 490.192 0.308988 -4.41019 0
M  V30 4969 N 489.251 1.34841 -0.815825 0
M  V30 4970 C 490.479 2.0273 -0.413294 0
M  V30 4971 C 490.894 1.61459 0.978599 0
M  V30 4972 O 490.251 0.816584 1.63212 0
M  V30 4973 C 490.302 3.58058 -0.497676 0
M  V30 4974 O 490.023 3.97832 -1.8347 0
M  V30 4975 C 491.524 4.4321 -0.0891339 0
M  V30 4976 H 488.744 0.649956 -0.166728 0
M  V30 4977 H 491.288 1.72267 -1.10201 0
M  V30 4978 H 489.443 3.87136 0.142886 0
M  V30 4979 H 489.857 4.92501 -1.80396 0
M  V30 4980 H 491.331 5.5164 -0.199274 0
M  V30 4981 H 491.808 4.28432 0.966571 0
M  V30 4982 H 492.414 4.19446 -0.703214 0
M  V30 4983 N 490.729 0.570148 1.46925 0
M  V30 4984 C 491.977 0.0508523 2.02036 0
M  V30 4985 C 492.298 -1.30885 1.44548 0
M  V30 4986 O 491.568 -1.85647 0.625453 0
M  V30 4987 H 490.148 0.0158088 0.746833 0
M  V30 4988 H 492.81 0.743086 1.80178 0
M  V30 4989 H 491.906 -0.027575 3.12088 0
M  V30 4990 N 492.207 -1.54576 0.307264 0
M  V30 4991 C 493.623 -1.59534 -0.0459251 0
M  V30 4992 C 493.823 -1.32414 -1.51884 0
M  V30 4993 O 492.879 -1.1006 -2.27251 0
M  V30 4994 C 494.192 -2.98566 0.357649 0
M  V30 4995 C 495.74 -3.11491 0.306937 0
M  V30 4996 C 496.215 -4.52842 0.685427 0
M  V30 4997 N 497.706 -4.58782 0.638203 0
M  V30 4998 C 498.441 -5.66238 0.903458 0
M  V30 4999 N 497.937 -6.81703 1.23501 0
M  V30 5000 N 499.73 -5.55937 0.830102 0
M  V30 5001 H 491.881 -1.70464 1.26712 0
M  V30 5002 H 494.144 -0.79647 0.514139 0
M  V30 5003 H 493.85 -3.23356 1.38325 0
M  V30 5004 H 493.724 -3.76117 -0.285565 0
M  V30 5005 H 496.111 -2.86446 -0.709424 0
M  V30 5006 H 496.192 -2.36081 0.984861 0
M  V30 5007 H 495.836 -4.78618 1.69963 0
M  V30 5008 H 495.766 -5.26598 -0.0146346 0
M  V30 5009 H 498.257 -3.75849 0.393138 0
M  V30 5010 H 498.57 -7.59582 1.42322 0
M  V30 5011 H 496.915 -6.8324 1.27311 0
M  V30 5012 H 500.106 -4.64608 0.570693 0
M  V30 5013 H 500.279 -6.39597 1.04019 0
M  V30 5014 N 493.685 -0.035106 -1.57561 0
M  V30 5015 C 494.931 0.64318 -1.92331 0
M  V30 5016 C 495.264 1.71434 -0.912368 0
M  V30 5017 O 494.539 1.94395 0.0640303 0
M  V30 5018 C 494.822 1.25411 -3.37556 0
M  V30 5019 C 494.675 0.192109 -4.4939 0
M  V30 5020 C 495.994 2.17041 -3.82859 0
M  V30 5021 H 493.113 0.232341 -0.699419 0
M  V30 5022 H 495.755 -0.0935889 -1.89769 0
M  V30 5023 H 493.905 1.88205 -3.39869 0
M  V30 5024 H 495.577 -0.438849 -4.59208 0
M  V30 5025 H 493.82 -0.481725 -4.31117 0
M  V30 5026 H 494.491 0.659292 -5.48049 0
M  V30 5027 H 496.967 1.64228 -3.8232 0
M  V30 5028 H 495.843 2.56738 -4.85157 0
M  V30 5029 H 496.104 3.06401 -3.18702 0
M  V30 5030 N 495.163 1.55791 0.238111 0
M  V30 5031 C 496.093 1.94068 1.29846 0
M  V30 5032 C 497.074 0.806726 1.49753 0
M  V30 5033 O 498.259 1.06772 1.62214 0
M  V30 5034 C 495.389 2.24302 2.65153 0
M  V30 5035 C 494.343 3.40032 2.59927 0
M  V30 5036 C 493.669 3.55829 3.99111 0
M  V30 5037 C 494.969 4.75476 2.16148 0
M  V30 5038 H 496.663 2.82887 0.980563 0
M  V30 5039 H 494.209 1.36105 0.470253 0
M  V30 5040 H 496.162 2.4967 3.39475 0
M  V30 5041 H 494.886 1.32318 2.98596 0
M  V30 5042 H 493.545 3.14687 1.88063 0
M  V30 5043 H 493.193 2.6125 4.29834 0
M  V30 5044 H 492.893 4.3366 3.96501 0
M  V30 5045 H 494.417 3.83528 4.7512 0
M  V30 5046 H 495.831 5.00158 2.80205 0
M  V30 5047 H 494.228 5.56472 2.24631 0
M  V30 5048 H 495.298 4.71946 1.11333 0
M  V30 5049 N 496.642 -0.504142 1.49319 0
M  V30 5050 C 497.59 -1.62689 1.66238 0
M  V30 5051 C 498.584 -1.6095 0.528349 0
M  V30 5052 O 499.79 -1.65496 0.707887 0
M  V30 5053 H 496.165 -0.539247 0.524134 0
M  V30 5054 H 498.136 -1.45571 2.60484 0
M  V30 5055 C 496.885 -3.00841 1.74328 0
M  V30 5056 H 496.208 -3.02884 2.60963 0
M  V30 5057 H 497.648 -3.78945 1.90202 0
M  V30 5058 C 496.107 -3.33355 0.487416 0
M  V30 5059 O 496.637 -3.99819 -0.388294 0
M  V30 5060 N 494.843 -2.88469 0.351306 0
M  V30 5061 H 494.39 -2.34557 1.06492 0
M  V30 5062 H 494.348 -3.10591 -0.487899 0
M  V30 5063 N 498.12 -1.38341 -0.754957 0
M  V30 5064 C 499.368 -1.34208 -1.51105 0
M  V30 5065 C 499.689 0.0677634 -1.94882 0
M  V30 5066 O 498.959 1.01517 -1.67544 0
M  V30 5067 H 497.539 -0.493819 -0.560493 0
M  V30 5068 H 500.201 -1.73005 -0.897507 0
M  V30 5069 H 499.297 -1.99203 -2.4026 0
M  V30 5070 N 499.598 0.982988 -1.23187 0
M  V30 5071 C 501.009 1.53847 -1.05773 0
M  V30 5072 C 501.36 1.92568 0.375744 0
M  V30 5073 O 500.485 1.75783 1.26211 0
M  V30 5074 C 501.08 2.79567 -1.91384 0
M  V30 5075 C 499.639 3.31524 -1.78238 0
M  V30 5076 C 498.786 2.04534 -1.87246 0
M  V30 5077 H 501.737 0.802962 -1.36888 0
M  V30 5078 H 501.758 3.52317 -1.43711 0
M  V30 5079 H 501.27 2.51353 -2.95708 0
M  V30 5080 H 499.371 3.64623 -0.766875 0
M  V30 5081 H 499.484 4.01457 -2.61475 0
M  V30 5082 H 497.848 2.1855 -1.30797 0
M  V30 5083 H 498.631 1.78706 -2.9312 0
M  V30 5084 N 501.076 1.04316 1.18135 0
M  V30 5085 C 501.986 0.646876 2.25505 0
M  V30 5086 C 503.002 -0.328008 1.7088 0
M  V30 5087 O 504.178 -0.182309 2.00573 0
M  V30 5088 C 501.243 0.0185664 3.46695 0
M  V30 5089 C 500.304 1.04277 4.16443 0
M  V30 5090 C 499.537 0.444352 5.31847 0
M  V30 5091 O 499.76 -0.748735 5.65465 0
M  V30 5092 O 498.694 1.17428 5.90334 0
M  V30 5093 H 502.52 1.54147 2.61672 0
M  V30 5094 H 500.105 0.814188 1.25265 0
M  V30 5095 H 501.987 -0.331068 4.20097 0
M  V30 5096 H 500.662 -0.849814 3.12346 0
M  V30 5097 H 499.569 1.44425 3.45098 0
M  V30 5098 H 500.902 1.882 4.54798 0
M  V30 5099 N 502.554 -1.34406 0.822964 0
M  V30 5100 C 503.802 -1.97892 0.410245 0
M  V30 5101 C 504.123 -1.65567 -1.03017 0
M  V30 5102 O 503.393 -0.94642 -1.71522 0
M  V30 5103 H 501.973 -0.732049 0.148707 0
M  V30 5104 H 504.635 -1.64043 1.05242 0
M  V30 5105 H 503.731 -3.07579 0.529284 0
M  V30 5106 N 504.032 -0.577932 -1.46621 0
M  V30 5107 C 505.309 0.00495287 -1.95599 0
M  V30 5108 C 505.689 1.46428 -1.5206 0
M  V30 5109 O 505.037 2.1517 -0.769046 0
M  V30 5110 C 505.247 -0.162114 -3.48623 0
M  V30 5111 C 506.595 -0.0274623 -4.24591 0
M  V30 5112 O 507.619 -0.0907067 -3.56084 0
M  V30 5113 O 506.478 0.1122 -5.46385 0
M  V30 5114 H 503.572 0.0525057 -0.825332 0
M  V30 5115 H 506.118 -0.645914 -1.56927 0
M  V30 5116 H 504.89 -1.17679 -3.73185 0
M  V30 5117 H 504.513 0.525407 -3.94113 0
M  V30 5118 N 505.51 1.54411 -0.315457 0
M  V30 5119 C 506.758 2.00023 0.288971 0
M  V30 5120 C 507.079 1.20529 1.5329 0
M  V30 5121 O 506.349 0.304986 1.93511 0
M  V30 5122 H 504.929 0.738891 0.109766 0
M  V30 5123 H 507.591 1.90094 -0.430129 0
M  V30 5124 H 506.687 3.07198 0.550999 0
M  V30 5125 N 506.988 0.0434614 1.5754 0
M  V30 5126 C 508.234 -0.632971 1.92669 0
M  V30 5127 C 508.567 -1.70947 0.921446 0
M  V30 5128 O 507.842 -1.94426 -0.0537202 0
M  V30 5129 C 508.125 -1.23619 3.38216 0
M  V30 5130 C 507.978 -0.168274 4.49485 0
M  V30 5131 C 509.297 -2.15008 3.84005 0
M  V30 5132 H 506.416 -0.228629 0.700641 0
M  V30 5133 H 509.058 0.103651 1.89717 0
M  V30 5134 H 507.208 -1.864 3.40863 0
M  V30 5135 H 508.88 0.463196 4.58969 0
M  V30 5136 H 507.123 0.504581 4.30855 0
M  V30 5137 H 507.794 -0.630218 5.48391 0
M  V30 5138 H 510.27 -1.62198 3.83185 0
M  V30 5139 H 509.146 -2.54161 4.86511 0
M  V30 5140 H 509.407 -3.04707 3.20322 0
M  V30 5141 N 508.466 -1.55915 -0.229846 0
M  V30 5142 C 509.877 -1.68809 -0.797531 0
M  V30 5143 C 510.228 -0.643995 -1.8533 0
M  V30 5144 O 509.353 0.206492 -2.15413 0
M  V30 5145 C 509.948 -3.06043 -1.45338 0
M  V30 5146 C 508.507 -3.20819 -1.96856 0
M  V30 5147 C 507.654 -2.6472 -0.825736 0
M  V30 5148 H 510.605 -1.58699 -0.00533733 0
M  V30 5149 H 510.626 -3.01438 -2.32196 0
M  V30 5150 H 510.138 -3.82012 -0.684743 0
M  V30 5151 H 508.239 -2.49704 -2.76548 0
M  V30 5152 H 508.352 -4.27937 -2.15423 0
M  V30 5153 H 506.716 -2.22985 -1.23084 0
M  V30 5154 H 507.499 -3.43229 -0.0699019 0
M  V30 5155 N 509.944 0.496216 -1.49584 0
M  V30 5156 C 510.854 1.62352 -1.69349 0
M  V30 5157 C 511.87 1.64184 -0.576147 0
M  V30 5158 O 513.046 1.82517 -0.85144 0
M  V30 5159 C 510.111 2.98698 -1.76013 0
M  V30 5160 C 509.172 3.07454 -2.99617 0
M  V30 5161 C 508.405 4.37296 -3.05953 0
M  V30 5162 O 508.628 5.2637 -2.19752 0
M  V30 5163 O 507.562 4.51124 -3.9846 0
M  V30 5164 H 511.388 1.48606 -2.64859 0
M  V30 5165 H 508.973 0.673022 -1.33382 0
M  V30 5166 H 510.855 3.79725 -1.82721 0
M  V30 5167 H 509.53 3.12696 -0.836828 0
M  V30 5168 H 508.437 2.25597 -2.98424 0
M  V30 5169 H 509.77 2.98385 -3.91443 0
M  V30 5170 N 511.423 1.38739 0.74761 0
M  V30 5171 C 512.386 1.36241 1.84312 0
M  V30 5172 C 513.386 0.261811 1.58654 0
M  V30 5173 O 514.576 0.519031 1.66288 0
M  V30 5174 C 511.708 1.12253 3.21888 0
M  V30 5175 H 512.901 2.33712 1.87933 0
M  V30 5176 H 510.454 1.2412 0.949946 0
M  V30 5177 H 511.189 0.154133 3.23934 0
M  V30 5178 H 510.974 1.91943 3.41907 0
M  V30 5179 H 512.464 1.13215 4.0196 0
M  V30 5180 N 512.901 -0.976442 1.23707 0
M  V30 5181 C 514.147 -1.72081 1.07312 0
M  V30 5182 C 514.48 -1.90275 -0.388476 0
M  V30 5183 O 513.755 -1.4579 -1.28746 0
M  V30 5184 C 514.038 -3.11675 1.80363 0
M  V30 5185 C 513.891 -3.01027 3.3422 0
M  V30 5186 C 515.21 -4.1117 1.5693 0
M  V30 5187 H 512.329 -0.624583 0.391236 0
M  V30 5188 H 514.971 -1.13649 1.52263 0
M  V30 5189 H 513.121 -3.61559 1.42153 0
M  V30 5190 H 514.793 -2.58637 3.81975 0
M  V30 5191 H 513.036 -2.3744 3.63049 0
M  V30 5192 H 513.707 -3.9988 3.80525 0
M  V30 5193 H 516.183 -3.7011 1.90151 0
M  V30 5194 H 515.059 -5.06928 2.10513 0
M  V30 5195 H 515.32 -4.392 0.505548 0
M  V30 5196 N 514.379 -1.04941 -1.1758 0
M  V30 5197 C 515.625 -0.759112 -1.88057 0
M  V30 5198 C 515.958 0.711918 -1.8068 0
M  V30 5199 O 515.233 1.52035 -1.21308 0
M  V30 5200 C 515.516 -1.237 -3.38187 0
M  V30 5201 C 515.369 -2.77078 -3.54327 0
M  V30 5202 C 516.688 -0.834014 -4.32125 0
M  V30 5203 H 513.807 -0.277237 -0.682868 0
M  V30 5204 H 516.449 -1.30296 -1.38286 0
M  V30 5205 H 514.599 -0.774337 -3.80705 0
M  V30 5206 H 516.271 -3.31449 -3.20842 0
M  V30 5207 H 514.514 -3.16477 -2.96689 0
M  V30 5208 H 515.185 -3.05577 -4.59703 0
M  V30 5209 H 517.661 -1.23228 -3.97434 0
M  V30 5210 H 516.537 -1.19603 -5.35711 0
M  V30 5211 H 516.798 0.262195 -4.41322 0
M  V30 5212 N 515.857 1.33968 -0.830081 0
M  V30 5213 C 517.085 2.0228 -0.434773 0
M  V30 5214 C 517.5 1.62487 0.961419 0
M  V30 5215 O 516.857 0.833849 1.62337 0
M  V30 5216 C 516.908 3.5751 -0.535625 0
M  V30 5217 O 516.629 3.95864 -1.87679 0
M  V30 5218 C 518.13 4.43091 -0.136137 0
M  V30 5219 H 515.35 0.648151 -0.173613 0
M  V30 5220 H 517.894 1.71089 -1.12022 0
M  V30 5221 H 516.049 3.87266 0.101817 0
M  V30 5222 H 516.463 4.9056 -1.85609 0
M  V30 5223 H 517.937 5.51398 -0.257772 0
M  V30 5224 H 518.414 4.29433 0.921076 0
M  V30 5225 H 519.02 4.18677 -0.747662 0
M  V30 5226 N 517.335 0.585699 1.46312 0
M  V30 5227 C 518.265 -0.133556 2.33118 0
M  V30 5228 C 519.246 -0.880707 1.45525 0
M  V30 5229 O 520.431 -0.855579 1.74337 0
M  V30 5230 C 517.561 -1.14585 3.27853 0
M  V30 5231 C 516.515 -0.513341 4.2491 0
M  V30 5232 C 515.841 -1.63231 5.09175 0
M  V30 5233 C 517.141 0.551413 5.19381 0
M  V30 5234 H 518.835 0.59121 2.93505 0
M  V30 5235 H 516.381 0.285761 1.41136 0
M  V30 5236 H 518.334 -1.65741 3.87438 0
M  V30 5237 H 517.058 -1.90093 2.65579 0
M  V30 5238 H 515.717 -0.0228349 3.66593 0
M  V30 5239 H 515.365 -2.37713 4.43285 0
M  V30 5240 H 515.065 -1.21473 5.74907 0
M  V30 5241 H 516.589 -2.14658 5.71624 0
M  V30 5242 H 518.003 0.124804 5.73164 0
M  V30 5243 H 516.4 0.889486 5.93471 0
M  V30 5244 H 517.47 1.43655 4.63132 0
M  V30 5245 N 518.813 -1.54241 0.323641 0
M  V30 5246 C 519.761 -2.25813 -0.557804 0
M  V30 5247 C 520.755 -1.27225 -1.11849 0
M  V30 5248 O 521.961 -1.45001 -1.06652 0
M  V30 5249 H 518.336 -0.72532 -0.198532 0
M  V30 5250 H 520.307 -2.98322 0.0681112 0
M  V30 5251 C 519.056 -3.02913 -1.70701 0
M  V30 5252 H 518.379 -3.78593 -1.28482 0
M  V30 5253 H 519.819 -3.56238 -2.29935 0
M  V30 5254 C 518.278 -2.11217 -2.62467 0
M  V30 5255 O 518.808 -1.69508 -3.64184 0
M  V30 5256 N 517.014 -1.76704 -2.30703 0
M  V30 5257 H 516.561 -2.1082 -1.48029 0
M  V30 5258 H 516.519 -1.15631 -2.92364 0
M  V30 5259 N 520.291 -0.0518155 -1.57515 0
M  V30 5260 C 521.239 0.940195 -2.12751 0
M  V30 5261 C 522.233 1.3218 -1.05948 0
M  V30 5262 O 523.439 1.30138 -1.24355 0
M  V30 5263 H 519.814 0.321066 -0.680015 0
M  V30 5264 H 521.785 0.449217 -2.94999 0
M  V30 5265 C 520.534 2.2055 -2.68799 0
M  V30 5266 H 519.857 1.92066 -3.50643 0
M  V30 5267 H 521.297 2.88119 -3.11068 0
M  V30 5268 C 519.756 2.95061 -1.62605 0
M  V30 5269 O 520.286 3.88025 -1.03921 0
M  V30 5270 N 518.492 2.57804 -1.34111 0
M  V30 5271 H 518.039 1.82281 -1.8202 0
M  V30 5272 H 517.997 3.07964 -0.632872 0
M  V30 5273 N 521.769 1.56035 0.221574 0
M  V30 5274 C 522.701 1.889 1.29805 0
M  V30 5275 C 523.714 0.777269 1.43047 0
M  V30 5276 O 524.903 1.05557 1.43945 0
M  V30 5277 C 522.003 2.0825 2.67367 0
M  V30 5278 C 521.176 3.39267 2.76073 0
M  V30 5279 C 520.235 3.48049 3.94649 0
M  V30 5280 O 519.261 4.2108 3.82988 0
M  V30 5281 N 520.463 2.79191 5.08953 0
M  V30 5282 H 523.228 2.81831 1.01938 0
M  V30 5283 H 520.789 1.5658 0.411612 0
M  V30 5284 H 522.781 2.11441 3.45072 0
M  V30 5285 H 521.351 1.21944 2.87834 0
M  V30 5286 H 520.571 3.48175 1.84846 0
M  V30 5287 H 521.859 4.25575 2.7886 0
M  V30 5288 H 521.257 2.19635 5.21322 0
M  V30 5289 H 519.814 2.88043 5.84701 0
M  V30 5290 N 523.247 -0.488276 1.49845 0
M  V30 5291 C 524.496 -1.23826 1.59217 0
M  V30 5292 C 524.809 -1.93439 0.289966 0
M  V30 5293 O 526.015 -2.70229 0.262382 0
M  V30 5294 C 524.471 -2.24902 2.80976 0
M  V30 5295 C 524.079 -1.6117 4.18005 0
M  V30 5296 C 525.823 -3.00648 2.99685 0
M  V30 5297 C 523.73 -2.60431 5.3097 0
M  V30 5298 H 522.66 -0.465858 0.592868 0
M  V30 5299 H 525.311 -0.510645 1.76252 0
M  V30 5300 H 523.693 -3.0088 2.57463 0
M  V30 5301 H 524.867 -0.910968 4.51706 0
M  V30 5302 H 523.182 -0.97767 4.0476 0
M  V30 5303 H 525.779 -3.74903 3.81251 0
M  V30 5304 H 526.122 -3.5902 2.10738 0
M  V30 5305 H 526.655 -2.31784 3.23297 0
M  V30 5306 H 523.394 -2.06823 6.22017 0
M  V30 5307 H 522.914 -3.28707 5.01709 0
M  V30 5308 H 524.593 -3.22606 5.60834 0
M  V30 5309 N 524.725 -1.39134 -0.740242 0
M  V30 5310 C 525.672 -1.37434 -1.8542 0
M  V30 5311 C 526.642 -0.234822 -1.64432 0
M  V30 5312 O 527.827 -0.429125 -1.85912 0
M  V30 5313 C 524.967 -1.21844 -3.22875 0
M  V30 5314 C 524.08 -2.45296 -3.55603 0
M  V30 5315 C 523.215 -2.22334 -4.82432 0
M  V30 5316 C 522.254 -3.41488 -5.07988 0
M  V30 5317 N 521.391 -3.17877 -6.26018 0
M  V30 5318 H 526.231 -2.3266 -1.86207 0
M  V30 5319 H 523.768 -1.15578 -0.909946 0
M  V30 5320 H 525.726 -1.10818 -4.02213 0
M  V30 5321 H 524.356 -0.3025 -3.21379 0
M  V30 5322 H 523.408 -2.66945 -2.71006 0
M  V30 5323 H 524.72 -3.34063 -3.7041 0
M  V30 5324 H 523.874 -2.0852 -5.69741 0
M  V30 5325 H 522.613 -1.30954 -4.6979 0
M  V30 5326 H 521.618 -3.55807 -4.19144 0
M  V30 5327 H 522.843 -4.33763 -5.22519 0
M  V30 5328 H 520.789 -2.29156 -6.14673 0
M  V30 5329 H 520.706 -4.00198 -6.41387 0
M  V30 5330 H 521.974 -3.07746 -7.16179 0
M  V30 5331 N 526.204 0.969867 -1.24223 0
M  V30 5332 C 527.45 1.7151 -1.08223 0
M  V30 5333 C 527.783 1.90478 0.37838 0
M  V30 5334 O 527.058 1.4647 1.27971 0
M  V30 5335 C 527.341 3.10714 -1.82013 0
M  V30 5336 C 527.194 2.9925 -3.35811 0
M  V30 5337 C 528.513 4.10332 -1.59108 0
M  V30 5338 H 525.632 0.622499 -0.394543 0
M  V30 5339 H 528.274 1.1284 -1.52863 0
M  V30 5340 H 526.424 3.608 -1.44068 0
M  V30 5341 H 528.096 2.56608 -3.83341 0
M  V30 5342 H 526.339 2.35512 -3.64303 0
M  V30 5343 H 527.01 3.97857 -3.82641 0
M  V30 5344 H 529.486 3.69097 -1.92111 0
M  V30 5345 H 528.362 5.05804 -2.13198 0
M  V30 5346 H 528.623 4.38926 -0.528832 0
M  V30 5347 N 527.682 1.05563 1.17022 0
M  V30 5348 C 528.629 0.659893 2.21165 0
M  V30 5349 C 529.599 -0.339813 1.62587 0
M  V30 5350 O 530.784 -0.230378 1.89404 0
M  V30 5351 C 527.924 0.0447297 3.45071 0
M  V30 5352 C 527.037 1.09372 4.17926 0
M  V30 5353 C 526.172 0.445481 5.29329 0
M  V30 5354 C 525.211 1.47852 5.93975 0
M  V30 5355 N 524.348 0.854172 6.96885 0
M  V30 5356 H 529.188 1.55243 2.54369 0
M  V30 5357 H 526.725 0.776336 1.24946 0
M  V30 5358 H 528.683 -0.329404 4.15898 0
M  V30 5359 H 527.313 -0.811244 3.1244 0
M  V30 5360 H 526.365 1.58564 3.45777 0
M  V30 5361 H 527.677 1.87773 4.62107 0
M  V30 5362 H 526.831 0.0179688 6.06697 0
M  V30 5363 H 525.57 -0.370481 4.86291 0
M  V30 5364 H 524.575 1.91601 5.15334 0
M  V30 5365 H 525.8 2.29645 6.39093 0
M  V30 5366 H 523.746 0.0587882 6.55974 0
M  V30 5367 H 523.663 1.57567 7.39397 0
M  V30 5368 H 524.931 0.451559 7.78191 0
M  V30 5369 N 529.16 -1.33526 0.837174 0
M  V30 5370 C 530.388 -2.02047 0.445494 0
M  V30 5371 C 530.803 -1.62995 -0.952788 0
M  V30 5372 O 530.16 -0.842447 -1.61892 0
M  V30 5373 C 530.211 -3.57221 0.554577 0
M  V30 5374 O 529.932 -3.94863 1.89776 0
M  V30 5375 C 531.433 -4.43012 0.159634 0
M  V30 5376 H 528.653 -0.647221 0.177048 0
M  V30 5377 H 531.197 -1.70492 1.12928 0
M  V30 5378 H 529.352 -3.87315 -0.0812781 0
M  V30 5379 H 529.766 -4.89569 1.88208 0
M  V30 5380 H 531.24 -5.51253 0.28701 0
M  V30 5381 H 531.717 -4.29916 -0.898289 0
M  V30 5382 H 532.323 -4.18274 0.769855 0
M  V30 5383 N 530.638 -0.59345 -1.46 0
M  V30 5384 C 531.585 0.133618 -2.30413 0
M  V30 5385 C 532.555 0.873736 -1.41262 0
M  V30 5386 O 533.74 0.862279 -1.70204 0
M  V30 5387 C 530.88 1.13434 -3.25924 0
M  V30 5388 C 529.993 0.39656 -4.30176 0
M  V30 5389 C 529.128 1.38575 -5.12806 0
M  V30 5390 C 528.167 0.634984 -6.08797 0
M  V30 5391 N 527.304 1.57276 -6.84258 0
M  V30 5392 H 532.144 -0.592252 -2.92055 0
M  V30 5393 H 529.681 -0.303874 -1.43927 0
M  V30 5394 H 531.639 1.72752 -3.79753 0
M  V30 5395 H 530.269 1.82779 -2.66067 0
M  V30 5396 H 529.321 -0.311861 -3.79119 0
M  V30 5397 H 530.633 -0.189869 -4.98438 0
M  V30 5398 H 529.787 2.05141 -5.70966 0
M  V30 5399 H 528.526 2.00611 -4.44529 0
M  V30 5400 H 527.531 -0.0443925 -5.49782 0
M  V30 5401 H 528.756 0.0198678 -6.79097 0
M  V30 5402 H 526.702 2.18103 -6.18682 0
M  V30 5403 H 526.619 1.03941 -7.48821 0
M  V30 5404 H 527.887 2.22844 -7.46968 0
M  V30 5405 N 532.116 1.54067 -0.331816 0
M  V30 5406 C 533.079 2.23275 0.517768 0
M  V30 5407 C 534.079 1.22897 1.03697 0
M  V30 5408 O 535.269 1.47419 0.928084 0
M  V30 5409 C 532.401 2.94326 1.72004 0
M  V30 5410 H 533.594 2.99773 -0.0873507 0
M  V30 5411 H 531.147 1.56079 -0.0830042 0
M  V30 5412 H 531.882 2.21986 2.36417 0
M  V30 5413 H 531.667 3.67941 1.35507 0
M  V30 5414 H 533.157 3.47031 2.32291 0
M  V30 5415 N 533.594 0.0601682 1.57485 0
M  V30 5416 C 534.871 -0.651956 1.84415 0
M  V30 5417 C 535.251 -1.88498 0.950361 0
M  V30 5418 O 534.599 -2.28496 0.0136719 0
M  V30 5419 C 534.809 -1.00069 3.34346 0
M  V30 5420 C 536.157 -1.37915 4.01578 0
M  V30 5421 O 537.181 -1.09277 3.39024 0
M  V30 5422 O 536.04 -1.91399 5.11887 0
M  V30 5423 H 533.134 -0.322668 0.761455 0
M  V30 5424 H 535.68 0.0902159 1.6946 0
M  V30 5425 H 534.452 -0.124463 3.91102 0
M  V30 5426 H 534.075 -1.80001 3.54521 0
M  V30 5427 N 535.072 -1.5615 -0.213296 0
M  V30 5428 C 536.32 -1.79191 -0.934612 0
M  V30 5429 C 536.641 -0.630112 -1.84539 0
M  V30 5430 O 535.911 0.35257 -1.92701 0
M  V30 5431 H 534.491 -0.660937 -0.348097 0
M  V30 5432 H 537.153 -1.93618 -0.22317 0
M  V30 5433 H 536.249 -2.71656 -1.53654 0
M  V30 5434 N 536.55 0.480323 -1.50102 0
M  V30 5435 C 537.775 1.26126 -1.64642 0
M  V30 5436 C 538.2 1.85257 -0.325823 0
M  V30 5437 O 537.558 1.66854 0.709194 0
M  V30 5438 C 537.606 2.35243 -2.73301 0
M  V30 5439 O 536.71 3.39646 -2.33911 0
M  V30 5440 H 536.051 0.371463 -0.550374 0
M  V30 5441 H 538.581 0.572696 -1.96421 0
M  V30 5442 H 538.591 2.80695 -2.96098 0
M  V30 5443 H 537.266 1.91574 -3.6915 0
M  V30 5444 H 535.843 2.99969 -2.21525 0
M  V30 5445 N 538.028 1.39524 0.732853 0
M  V30 5446 C 539.275 1.36865 1.49246 0
M  V30 5447 C 539.603 -0.0347118 1.94469 0
M  V30 5448 O 538.858 -1.01596 1.67262 0
M  V30 5449 C 539.157 2.28916 2.74468 0
M  V30 5450 C 538.823 3.76506 2.481 0
M  V30 5451 C 537.485 4.16721 2.40619 0
M  V30 5452 C 539.837 4.69846 2.25598 0
M  V30 5453 C 537.165 5.48334 2.08679 0
M  V30 5454 C 539.517 6.01739 1.95174 0
M  V30 5455 C 538.181 6.41015 1.86163 0
M  V30 5456 H 537.451 0.500824 0.546129 0
M  V30 5457 H 540.098 1.72047 0.840958 0
M  V30 5458 H 538.403 1.86859 3.4437 0
M  V30 5459 H 540.1 2.2415 3.32502 0
M  V30 5460 H 536.69 3.44635 2.54803 0
M  V30 5461 H 540.874 4.39608 2.30344 0
M  V30 5462 H 536.13 5.77685 2.00226 0
M  V30 5463 H 540.304 6.73591 1.76771 0
M  V30 5464 H 537.931 7.42917 1.61179 0
M  V30 5465 N 539.506 -0.963266 1.24736 0
M  V30 5466 C 540.922 -1.23273 1.01371 0
M  V30 5467 C 541.122 -1.99618 -0.274776 0
M  V30 5468 O 540.178 -2.32293 -0.989769 0
M  V30 5469 C 541.491 -2.01554 2.23152 0
M  V30 5470 C 543.039 -2.14629 2.27823 0
M  V30 5471 C 543.514 -2.96307 3.49237 0
M  V30 5472 N 545.005 -3.03887 3.49581 0
M  V30 5473 C 545.74 -3.67456 4.40186 0
M  V30 5474 N 545.236 -4.32706 5.41052 0
M  V30 5475 N 547.029 -3.64511 4.27888 0
M  V30 5476 H 539.18 -0.452294 2.07528 0
M  V30 5477 H 541.443 -0.262521 0.910926 0
M  V30 5478 H 541.149 -1.52847 3.1675 0
M  V30 5479 H 541.023 -3.02278 2.25628 0
M  V30 5480 H 543.41 -2.62537 1.34753 0
M  V30 5481 H 543.491 -1.13238 2.2937 0
M  V30 5482 H 543.135 -2.49091 4.42624 0
M  V30 5483 H 543.065 -3.97905 3.44933 0
M  V30 5484 H 545.556 -2.57477 2.76611 0
M  V30 5485 H 545.869 -4.79042 6.06415 0
M  V30 5486 H 544.214 -4.31361 5.44934 0
M  V30 5487 H 547.405 -3.12715 3.4832 0
M  V30 5488 H 547.578 -4.13768 4.98698 0
M  V30 5489 N 540.985 -1.06182 -1.16461 0
M  V30 5490 C 541.915 -0.692861 -2.22984 0
M  V30 5491 C 542.896 0.314122 -1.67174 0
M  V30 5492 O 544.081 0.189499 -1.93273 0
M  V30 5493 C 541.211 -0.07732 -3.47214 0
M  V30 5494 C 540.165 -1.01015 -4.15909 0
M  V30 5495 C 539.491 -0.257973 -5.34077 0
M  V30 5496 C 540.791 -2.33868 -4.67015 0
M  V30 5497 H 542.485 -1.58343 -2.54102 0
M  V30 5498 H 540.031 -0.76279 -1.22137 0
M  V30 5499 H 541.984 0.19266 -4.20959 0
M  V30 5500 H 540.708 0.848254 -3.15392 0
M  V30 5501 H 539.367 -1.26486 -3.44088 0
M  V30 5502 H 539.015 0.670684 -4.98509 0
M  V30 5503 H 538.715 -0.879638 -5.80979 0
M  V30 5504 H 540.239 0.00448788 -6.106 0
M  V30 5505 H 541.653 -2.1279 -5.32347 0
M  V30 5506 H 540.05 -2.91522 -5.24533 0
M  V30 5507 H 541.12 -2.97019 -3.83286 0
M  V30 5508 N 542.463 1.3308 -0.844243 0
M  V30 5509 C 543.373 2.32876 -0.283922 0
M  V30 5510 C 544.389 1.63589 0.592846 0
M  V30 5511 O 545.565 1.95205 0.495693 0
M  V30 5512 C 542.63 3.42667 0.527283 0
M  V30 5513 C 541.691 4.27664 -0.374394 0
M  V30 5514 C 540.924 5.32212 0.39819 0
M  V30 5515 O 541.147 5.46635 1.62932 0
M  V30 5516 O 540.081 6.01458 -0.2306 0
M  V30 5517 H 543.907 2.82671 -1.11045 0
M  V30 5518 H 541.492 1.36518 -0.606903 0
M  V30 5519 H 543.374 4.09652 0.988078 0
M  V30 5520 H 542.049 2.95079 1.33078 0
M  V30 5521 H 540.956 3.63526 -0.883144 0
M  V30 5522 H 542.289 4.78749 -1.1428 0
M  V30 5523 N 543.941 0.601185 1.45683 0
M  V30 5524 C 544.889 -0.133955 2.32214 0
M  V30 5525 C 545.883 -0.866034 1.45589 0
M  V30 5526 O 547.089 -0.782326 1.6211 0
M  V30 5527 H 543.464 -0.0620613 0.749435 0
M  V30 5528 H 545.435 0.614389 2.92007 0
M  V30 5529 C 544.184 -1.12216 3.29094 0
M  V30 5530 H 543.507 -0.568273 3.95741 0
M  V30 5531 H 544.947 -1.60659 3.92383 0
M  V30 5532 C 543.406 -2.19251 2.55794 0
M  V30 5533 O 543.936 -3.26894 2.33459 0
M  V30 5534 N 542.142 -1.9436 2.16039 0
M  V30 5535 H 541.689 -1.06829 2.34404 0
M  V30 5536 H 541.647 -2.66181 1.67318 0
M  V30 5537 N 545.419 -1.53889 0.339982 0
M  V30 5538 C 546.668 -2.00035 -0.258604 0
M  V30 5539 C 546.981 -1.23179 -1.51942 0
M  V30 5540 O 548.187 -1.59784 -2.19503 0
M  V30 5541 C 546.643 -3.56249 -0.511359 0
M  V30 5542 C 546.251 -4.41957 0.733349 0
M  V30 5543 C 547.995 -4.1082 -1.069 0
M  V30 5544 C 545.902 -5.89673 0.451591 0
M  V30 5545 H 544.832 -0.747284 -0.10041 0
M  V30 5546 H 547.483 -1.77776 0.454758 0
M  V30 5547 H 545.865 -3.7456 -1.28533 0
M  V30 5548 H 547.039 -4.35421 1.50815 0
M  V30 5549 H 545.354 -3.9836 1.21237 0
M  V30 5550 H 547.951 -5.18789 -1.2947 0
M  V30 5551 H 548.294 -3.63817 -2.02343 0
M  V30 5552 H 548.827 -3.96205 -0.355817 0
M  V30 5553 H 545.566 -6.40903 1.37565 0
M  V30 5554 H 545.086 -5.99122 -0.285193 0
M  V30 5555 H 546.765 -6.46965 0.0675067 0
M  V30 5556 N 546.897 -0.0685191 -1.57451 0
M  V30 5557 C 548.125 0.610462 -1.97689 0
M  V30 5558 C 548.54 1.63346 -0.946758 0
M  V30 5559 O 547.897 1.82377 0.0669868 0
M  V30 5560 C 547.948 1.28196 -3.38006 0
M  V30 5561 O 547.669 0.299906 -4.37072 0
M  V30 5562 C 549.17 2.04907 -3.931 0
M  V30 5563 H 546.39 0.165689 -0.650222 0
M  V30 5564 H 548.934 -0.139953 -2.04021 0
M  V30 5565 H 547.089 1.98348 -3.32771 0
M  V30 5566 H 547.503 0.78126 -5.18649 0
M  V30 5567 H 548.977 2.47287 -4.93511 0
M  V30 5568 H 549.454 2.9043 -3.29465 0
M  V30 5569 H 550.06 1.39629 -4.01726 0
M  V30 5570 N 548.375 1.56261 0.205012 0
M  V30 5571 C 549.603 1.84141 0.943386 0
M  V30 5572 C 550.018 0.649772 1.77266 0
M  V30 5573 O 549.375 -0.381612 1.78466 0
M  V30 5574 C 549.426 3.10719 1.84759 0
M  V30 5575 O 549.147 4.25286 1.05181 0
M  V30 5576 C 550.648 3.51706 2.69848 0
M  V30 5577 H 547.868 0.611734 0.275721 0
M  V30 5578 H 550.412 2.03364 0.215253 0
M  V30 5579 H 548.567 2.93422 2.52947 0
M  V30 5580 H 548.981 4.97301 1.66709 0
M  V30 5581 H 550.455 4.43266 3.28967 0
M  V30 5582 H 550.932 2.7423 3.43067 0
M  V30 5583 H 551.538 3.71499 2.07047 0
M  V30 5584 N 549.853 -0.472356 1.50355 0
M  V30 5585 C 551.101 -1.22211 1.60962 0
M  V30 5586 C 551.422 -1.92497 0.311439 0
M  V30 5587 O 550.692 -1.8405 -0.671002 0
M  V30 5588 H 549.272 -0.454092 0.593135 0
M  V30 5589 H 551.934 -0.544977 1.87126 0
M  V30 5590 H 551.03 -1.9707 2.42012 0
M  V30 5591 N 551.331 -1.39911 -0.725443 0
M  V30 5592 C 552.559 -1.40949 -1.51463 0
M  V30 5593 C 552.974 -0.0065242 -1.88799 0
M  V30 5594 O 552.331 0.967163 -1.54765 0
M  V30 5595 C 552.382 -2.29119 -2.79619 0
M  V30 5596 O 552.103 -3.63952 -2.43866 0
M  V30 5597 C 553.604 -2.38642 -3.73584 0
M  V30 5598 H 550.824 -0.481091 -0.467752 0
M  V30 5599 H 553.368 -1.83843 -0.895651 0
M  V30 5600 H 551.523 -1.89612 -3.37826 0
M  V30 5601 H 551.937 -4.10677 -3.26258 0
M  V30 5602 H 553.411 -3.04563 -4.60375 0
M  V30 5603 H 553.888 -1.40846 -4.16004 0
M  V30 5604 H 554.494 -2.78659 -3.21293 0
M  V30 5605 N 552.809 0.956637 -1.25245 0
M  V30 5606 C 554.039 1.7332 -1.12445 0
M  V30 5607 C 554.447 1.86392 0.324732 0
M  V30 5608 O 553.79 1.35967 1.23526 0
M  V30 5609 C 553.852 3.16603 -1.70303 0
M  V30 5610 C 553.516 3.26966 -3.19284 0
M  V30 5611 C 554.513 3.11434 -4.16299 0
M  V30 5612 C 552.198 3.50851 -3.59456 0
M  V30 5613 C 554.192 3.1963 -5.51467 0
M  V30 5614 C 551.879 3.58684 -4.94761 0
M  V30 5615 C 552.877 3.43087 -5.90576 0
M  V30 5616 O 552.565 3.50598 -7.2342 0
M  V30 5617 H 552.297 0.549981 -0.393061 0
M  V30 5618 H 554.851 1.20892 -1.66055 0
M  V30 5619 H 553.081 3.70385 -1.11138 0
M  V30 5620 H 554.77 3.76109 -1.52632 0
M  V30 5621 H 555.536 2.92853 -3.86604 0
M  V30 5622 H 551.415 3.62053 -2.85375 0
M  V30 5623 H 554.959 3.07373 -6.26233 0
M  V30 5624 H 550.856 3.76782 -5.24124 0
M  V30 5625 H 551.624 3.67242 -7.31489 0
M  V30 5626 N 554.287 1.06798 1.15896 0
M  V30 5627 C 555.515 0.808694 1.90441 0
M  V30 5628 C 555.93 -0.637506 1.77711 0
M  V30 5629 O 555.287 -1.43684 1.12522 0
M  V30 5630 C 555.338 1.20068 3.40978 0
M  V30 5631 O 555.059 2.59013 3.53333 0
M  V30 5632 C 556.56 0.96987 4.3256 0
M  V30 5633 H 553.78 0.292809 0.603742 0
M  V30 5634 H 556.324 1.42296 1.46874 0
M  V30 5635 H 554.479 0.630842 3.82229 0
M  V30 5636 H 554.893 2.7485 4.46719 0
M  V30 5637 H 556.367 1.29371 5.36626 0
M  V30 5638 H 556.844 -0.0941209 4.39099 0
M  V30 5639 H 557.45 1.52433 3.97044 0
M  V30 5640 N 555.766 -1.3263 0.851289 0
M  V30 5641 C 557.015 -1.96633 0.449267 0
M  V30 5642 C 557.328 -1.68131 -0.999562 0
M  V30 5643 O 558.534 -2.25845 -1.50685 0
M  V30 5644 C 556.99 -3.51946 0.752446 0
M  V30 5645 C 556.598 -3.89311 2.21678 0
M  V30 5646 C 558.342 -4.22437 0.417983 0
M  V30 5647 C 556.249 -5.37655 2.46336 0
M  V30 5648 H 555.179 -0.735888 0.164269 0
M  V30 5649 H 557.83 -1.51073 1.0416 0
M  V30 5650 H 556.212 -3.95899 0.0895858 0
M  V30 5651 H 557.386 -3.56378 2.92115 0
M  V30 5652 H 555.701 -3.31836 2.51543 0
M  V30 5653 H 558.298 -5.31549 0.579674 0
M  V30 5654 H 558.641 -4.11349 -0.640115 0
M  V30 5655 H 559.174 -3.84057 1.03659 0
M  V30 5656 H 555.913 -5.5376 3.50757 0
M  V30 5657 H 555.433 -5.72005 1.80473 0
M  V30 5658 H 557.112 -6.04695 2.30115 0
M  V30 5659 N 557.244 -0.608902 -1.45362 0
M  V30 5660 C 558.194 0.130616 -2.27626 0
M  V30 5661 C 559.178 0.837323 -1.37396 0
M  V30 5662 O 560.37 0.727096 -1.61376 0
M  V30 5663 C 557.499 1.12646 -3.24293 0
M  V30 5664 C 556.585 0.42052 -4.2201 0
M  V30 5665 N 556.976 -0.538569 -5.02925 0
M  V30 5666 C 555.274 0.667901 -4.40971 0
M  V30 5667 C 555.975 -0.953625 -5.7383 0
M  V30 5668 N 554.951 -0.297097 -5.42788 0
M  V30 5669 H 558.753 -0.605996 -2.87585 0
M  V30 5670 H 556.267 -0.432672 -1.5653 0
M  V30 5671 H 558.264 1.67066 -3.81961 0
M  V30 5672 H 556.924 1.86361 -2.65894 0
M  V30 5673 H 557.935 -0.915375 -5.09746 0
M  V30 5674 H 554.612 1.38963 -3.93695 0
M  V30 5675 H 556.002 -1.74473 -6.48852 0
M  V30 5676 N 558.722 1.53707 -0.348139 0
M  V30 5677 C 559.685 2.23812 0.494058 0
M  V30 5678 C 560.685 1.23989 1.02388 0
M  V30 5679 O 561.875 1.48395 0.912396 0
M  V30 5680 C 559.007 2.96133 1.68872 0
M  V30 5681 H 560.2 2.99663 -0.119141 0
M  V30 5682 H 557.753 1.55983 -0.0995539 0
M  V30 5683 H 558.488 2.24481 2.34049 0
M  V30 5684 H 558.273 3.69357 1.31596 0
M  V30 5685 H 559.763 3.49475 2.28597 0
M  V30 5686 N 560.2 0.0768682 1.57412 0
M  V30 5687 C 561.132 -0.918248 2.10002 0
M  V30 5688 C 562.145 -1.25808 1.03325 0
M  V30 5689 O 563.334 -1.21438 1.30824 0
M  V30 5690 C 560.434 -2.23263 2.54964 0
M  V30 5691 C 559.607 -2.07088 3.8527 0
M  V30 5692 C 558.666 -3.21876 4.16272 0
M  V30 5693 O 557.692 -2.96643 4.8579 0
M  V30 5694 N 558.894 -4.4712 3.70221 0
M  V30 5695 H 561.659 -0.469209 2.96004 0
M  V30 5696 H 559.22 -0.108725 1.61535 0
M  V30 5697 H 561.212 -2.9897 2.72762 0
M  V30 5698 H 559.782 -2.59649 1.74072 0
M  V30 5699 H 559.002 -1.15818 3.76802 0
M  V30 5700 H 560.29 -1.93537 4.70554 0
M  V30 5701 H 559.688 -4.70506 3.1407 0
M  V30 5702 H 558.245 -5.19837 3.93209 0
M  V30 5703 N 561.678 -1.56367 -0.196722 0
M  V30 5704 C 562.625 -1.94417 -1.24382 0
M  V30 5705 C 563.595 -0.804543 -1.45315 0
M  V30 5706 O 564.78 -1.06256 -1.58475 0
M  V30 5707 C 561.92 -2.28757 -2.58388 0
M  V30 5708 C 561.033 -3.55775 -2.45047 0
M  V30 5709 C 560.168 -3.79445 -3.71746 0
M  V30 5710 C 559.207 -4.99894 -3.53231 0
M  V30 5711 N 558.344 -5.19826 -4.71938 0
M  V30 5712 H 563.184 -2.83691 -0.912338 0
M  V30 5713 H 560.721 -1.40392 -0.439135 0
M  V30 5714 H 562.679 -2.46682 -3.36457 0
M  V30 5715 H 561.309 -1.42625 -2.89582 0
M  V30 5716 H 560.361 -3.45905 -1.58284 0
M  V30 5717 H 561.673 -4.44 -2.27299 0
M  V30 5718 H 560.827 -3.97601 -4.58256 0
M  V30 5719 H 559.566 -2.89546 -3.92446 0
M  V30 5720 H 558.571 -4.81662 -2.65107 0
M  V30 5721 H 559.796 -5.913 -3.33978 0
M  V30 5722 H 557.742 -4.32875 -4.92905 0
M  V30 5723 H 557.659 -6.02228 -4.57009 0
M  V30 5724 H 558.927 -5.42439 -5.59803 0
M  V30 5725 N 563.156 0.464375 -1.50603 0
M  V30 5726 C 564.066 1.58723 -1.72754 0
M  V30 5727 C 565.082 1.62925 -0.610844 0
M  V30 5728 O 566.258 1.8067 -0.889963 0
M  V30 5729 C 563.323 2.94897 -1.82309 0
M  V30 5730 C 562.384 3.0103 -3.06071 0
M  V30 5731 C 561.617 4.30708 -3.1516 0
M  V30 5732 O 561.84 5.2159 -2.30868 0
M  V30 5733 O 560.774 4.42571 -4.0794 0
M  V30 5734 H 564.6 1.42954 -2.67951 0
M  V30 5735 H 562.185 0.644579 -1.3478 0
M  V30 5736 H 564.067 3.75764 -1.90735 0
M  V30 5737 H 562.742 3.10851 -0.902967 0
M  V30 5738 H 561.649 2.19217 -3.03142 0
M  V30 5739 H 562.982 2.90014 -3.97684 0
M  V30 5740 N 564.634 1.40294 0.718013 0
M  V30 5741 C 565.584 1.36847 1.82365 0
M  V30 5742 C 566.568 0.246424 1.59002 0
M  V30 5743 O 567.76 0.485336 1.70216 0
M  V30 5744 C 564.889 1.23105 3.20469 0
M  V30 5745 C 563.975 2.4008 3.49603 0
M  V30 5746 N 564.366 3.65562 3.49568 0
M  V30 5747 C 562.664 2.33407 3.80049 0
M  V30 5748 C 563.365 4.43015 3.76978 0
M  V30 5749 N 562.341 3.72823 3.95606 0
M  V30 5750 H 566.143 2.31811 1.80668 0
M  V30 5751 H 563.657 1.34031 0.91703 0
M  V30 5752 H 565.654 1.18718 3.9964 0
M  V30 5753 H 564.314 0.291056 3.23393 0
M  V30 5754 H 565.325 3.98756 3.30476 0
M  V30 5755 H 562.002 1.47762 3.90478 0
M  V30 5756 H 563.392 5.51859 3.83276 0
M  V30 5757 N 566.112 -0.949982 1.2575 0
M  V30 5758 C 567.042 -2.06483 1.09028 0
M  V30 5759 C 568.023 -1.701 -0.00201532 0
M  V30 5760 O 569.208 -1.93469 0.168383 0
M  V30 5761 C 566.338 -3.39899 0.71316 0
M  V30 5762 C 565.292 -3.90309 1.75621 0
M  V30 5763 C 564.618 -5.20274 1.23365 0
M  V30 5764 C 565.918 -4.16169 3.15596 0
M  V30 5765 H 567.612 -2.20731 2.02283 0
M  V30 5766 H 565.158 -1.06066 0.973964 0
M  V30 5767 H 567.111 -4.17346 0.58309 0
M  V30 5768 H 565.835 -3.25602 -0.255091 0
M  V30 5769 H 564.494 -3.15035 1.8748 0
M  V30 5770 H 564.142 -5.02351 0.255491 0
M  V30 5771 H 563.842 -5.54971 1.93082 0
M  V30 5772 H 565.366 -6.00314 1.11607 0
M  V30 5773 H 566.78 -4.84259 3.06864 0
M  V30 5774 H 565.177 -4.62131 3.82825 0
M  V30 5775 H 566.247 -3.22273 3.6231 0
M  V30 5776 N 567.59 -1.07411 -1.15328 0
M  V30 5777 C 568.82 -0.817595 -1.89734 0
M  V30 5778 C 569.228 0.63297 -1.78298 0
M  V30 5779 O 568.571 1.44594 -1.13306 0
M  V30 5780 C 568.633 -1.14748 -3.40695 0
M  V30 5781 C 568.297 -2.59876 -3.75917 0
M  V30 5782 C 569.294 -3.58122 -3.76888 0
M  V30 5783 C 566.979 -2.95469 -4.06206 0
M  V30 5784 C 568.973 -4.89996 -4.07655 0
M  V30 5785 C 566.66 -4.2754 -4.36638 0
M  V30 5786 C 567.658 -5.24614 -4.37344 0
M  V30 5787 O 567.346 -6.54312 -4.67045 0
M  V30 5788 H 567.078 -0.295175 -0.608151 0
M  V30 5789 H 569.632 -1.43409 -1.47048 0
M  V30 5790 H 567.862 -0.47395 -3.83785 0
M  V30 5791 H 569.551 -0.873397 -3.96392 0
M  V30 5792 H 570.317 -3.31966 -3.53587 0
M  V30 5793 H 566.196 -2.20558 -4.04815 0
M  V30 5794 H 569.74 -5.65759 -4.08121 0
M  V30 5795 H 565.637 -4.53449 -4.59407 0
M  V30 5796 H 566.405 -6.59473 -4.84807 0
M  V30 5797 N 569.068 1.32177 -0.85831 0
M  V30 5798 C 570.315 1.97125 -0.463484 0
M  V30 5799 C 570.643 1.67907 0.981705 0
M  V30 5800 O 569.898 0.961717 1.70439 0
M  V30 5801 C 570.197 3.51372 -0.653658 0
M  V30 5802 C 569.863 4.00584 -2.06987 0
M  V30 5803 C 568.525 4.13733 -2.4572 0
M  V30 5804 C 570.877 4.26624 -2.99402 0
M  V30 5805 C 568.205 4.50268 -3.76132 0
M  V30 5806 C 570.557 4.64618 -4.29316 0
M  V30 5807 C 569.221 4.75975 -4.67979 0
M  V30 5808 H 568.491 0.72133 -0.169601 0
M  V30 5809 H 571.138 1.57517 -1.08907 0
M  V30 5810 H 569.443 3.91761 0.0551328 0
M  V30 5811 H 571.14 3.99655 -0.328163 0
M  V30 5812 H 567.73 3.90837 -1.75911 0
M  V30 5813 H 571.914 4.1597 -2.70708 0
M  V30 5814 H 567.17 4.57256 -4.05865 0
M  V30 5815 H 571.344 4.83722 -5.00985 0
M  V30 5816 H 568.971 5.04041 -5.69076 0
M  V30 5817 N 570.547 0.616602 1.45037 0
M  V30 5818 C 571.457 -0.0985401 2.34393 0
M  V30 5819 C 572.473 -0.850971 1.51771 0
M  V30 5820 O 573.649 -0.806521 1.84546 0
M  V30 5821 C 570.714 -1.07748 3.29532 0
M  V30 5822 C 569.775 -0.326022 4.2806 0
M  V30 5823 C 569.008 -1.25833 5.18654 0
M  V30 5824 O 569.231 -2.49652 5.12864 0
M  V30 5825 O 568.165 -0.750512 5.97203 0
M  V30 5826 H 571.991 0.636016 2.96966 0
M  V30 5827 H 569.576 0.376832 1.44569 0
M  V30 5828 H 571.458 -1.64107 3.88133 0
M  V30 5829 H 570.133 -1.79291 2.69512 0
M  V30 5830 H 569.04 0.280253 3.73049 0
M  V30 5831 H 570.373 0.349091 4.9096 0
M  V30 5832 N 572.025 -1.5352 0.356285 0
M  V30 5833 C 573.253 -2.05534 -0.237328 0
M  V30 5834 C 573.668 -1.23043 -1.43199 0
M  V30 5835 O 573.025 -0.268821 -1.80509 0
M  V30 5836 C 573.076 -3.55791 -0.639933 0
M  V30 5837 O 572.797 -4.35154 0.507233 0
M  V30 5838 C 574.298 -4.24027 -1.29292 0
M  V30 5839 H 571.518 -0.669585 -0.0435572 0
M  V30 5840 H 574.062 -1.97988 0.511963 0
M  V30 5841 H 572.217 -3.63518 -1.33915 0
M  V30 5842 H 572.631 -5.24178 0.18375 0
M  V30 5843 H 574.105 -5.30509 -1.52527 0
M  V30 5844 H 574.582 -3.77166 -2.25039 0
M  V30 5845 H 575.188 -4.20527 -0.63539 0
M  V30 5846 N 573.503 -0.0852151 -1.57369 0
M  V30 5847 C 574.749 0.581666 -1.94279 0
M  V30 5848 C 575.082 1.68444 -0.966446 0
M  V30 5849 O 574.357 1.945 0.00215277 0
M  V30 5850 C 574.64 1.14609 -3.41375 0
M  V30 5851 C 574.493 0.0490414 -4.49773 0
M  V30 5852 C 575.812 2.04751 -3.8957 0
M  V30 5853 H 572.931 0.209972 -0.706456 0
M  V30 5854 H 575.573 -0.153915 -1.89376 0
M  V30 5855 H 573.723 1.77297 -3.45685 0
M  V30 5856 H 575.395 -0.584721 -4.57579 0
M  V30 5857 H 573.638 -0.618638 -4.29366 0
M  V30 5858 H 574.309 0.484601 -5.49869 0
M  V30 5859 H 576.785 1.51981 -3.87351 0
M  V30 5860 H 575.661 2.41173 -4.93079 0
M  V30 5861 H 575.922 2.96107 -3.28288 0
M  V30 5862 N 574.981 1.5647 0.188427 0
M  V30 5863 C 576.209 1.85131 0.923803 0
M  V30 5864 C 576.624 0.668537 1.76567 0
M  V30 5865 O 575.981 -0.362662 1.7886 0
M  V30 5866 C 576.032 3.12661 1.81453 0
M  V30 5867 O 575.753 4.26378 1.00665 0
M  V30 5868 C 577.254 3.54548 2.66103 0
M  V30 5869 H 574.474 0.614624 0.269218 0
M  V30 5870 H 577.018 2.03581 0.193671 0
M  V30 5871 H 575.173 2.96088 2.49821 0
M  V30 5872 H 575.587 4.99041 1.61425 0
M  V30 5873 H 577.061 4.4673 3.24247 0
M  V30 5874 H 577.538 2.77853 3.40139 0
M  V30 5875 H 578.144 3.73674 2.03096 0
M  V30 5876 N 576.459 -0.456382 1.50847 0
M  V30 5877 C 577.708 -1.2042 1.61808 0
M  V30 5878 C 578.021 -1.9278 0.330932 0
M  V30 5879 O 579.227 -2.69612 0.319643 0
M  V30 5880 C 577.683 -2.18891 2.85683 0
M  V30 5881 C 577.291 -1.52267 4.2133 0
M  V30 5882 C 579.035 -2.94224 3.05994 0
M  V30 5883 C 576.942 -2.4911 5.36375 0
M  V30 5884 H 575.872 -0.453177 0.602616 0
M  V30 5885 H 578.523 -0.473144 1.77295 0
M  V30 5886 H 576.905 -2.95351 2.63787 0
M  V30 5887 H 578.079 -0.814949 4.53536 0
M  V30 5888 H 576.394 -0.891594 4.06743 0
M  V30 5889 H 578.991 -3.66732 3.89117 0
M  V30 5890 H 579.334 -3.54469 2.18306 0
M  V30 5891 H 579.867 -2.24874 3.28141 0
M  V30 5892 H 576.606 -1.93582 6.26264 0
M  V30 5893 H 576.126 -3.17991 5.08569 0
M  V30 5894 H 577.805 -3.10637 5.67551 0
M  V30 5895 N 577.937 -1.40673 -0.710563 0
M  V30 5896 C 578.884 -1.41336 -1.82463 0
M  V30 5897 C 579.854 -0.269648 -1.63897 0
M  V30 5898 O 581.039 -0.468463 -1.8496 0
M  V30 5899 C 578.179 -1.28665 -3.20218 0
M  V30 5900 C 577.292 -2.52784 -3.5032 0
M  V30 5901 C 576.427 -2.32517 -4.77608 0
M  V30 5902 C 575.466 -3.52187 -5.0063 0
M  V30 5903 N 574.603 -3.31084 -6.19135 0
M  V30 5904 H 579.443 -2.36558 -1.8123 0
M  V30 5905 H 576.98 -1.17483 -0.885226 0
M  V30 5906 H 578.938 -1.19324 -3.99772 0
M  V30 5907 H 577.568 -0.370602 -3.20666 0
M  V30 5908 H 576.62 -2.72634 -2.65283 0
M  V30 5909 H 577.932 -3.41845 -3.63241 0
M  V30 5910 H 577.086 -2.20558 -5.65189 0
M  V30 5911 H 575.825 -1.40889 -4.66906 0
M  V30 5912 H 574.83 -3.64617 -4.11502 0
M  V30 5913 H 576.055 -4.44749 -5.13201 0
M  V30 5914 H 574.001 -2.42143 -6.09674 0
M  V30 5915 H 573.918 -4.13713 -6.32754 0
M  V30 5916 H 575.186 -3.22868 -7.0949 0
M  V30 5917 N 579.415 0.9433 -1.26252 0
M  V30 5918 C 580.664 1.68369 -1.11062 0
M  V30 5919 C 580.977 1.92514 0.346104 0
M  V30 5920 O 582.183 2.64358 0.618646 0
M  V30 5921 C 580.639 3.03171 -1.93946 0
M  V30 5922 C 580.247 2.86782 -3.4418 0
M  V30 5923 C 581.991 3.80916 -1.87359 0
M  V30 5924 C 579.898 4.17044 -4.19319 0
M  V30 5925 H 578.828 0.631469 -0.412023 0
M  V30 5926 H 581.479 1.04922 -1.50544 0
M  V30 5927 H 579.861 3.67587 -1.47296 0
M  V30 5928 H 581.035 2.31229 -3.98585 0
M  V30 5929 H 579.35 2.22482 -3.51981 0
M  V30 5930 H 581.947 4.77417 -2.40784 0
M  V30 5931 H 582.29 4.07658 -0.843857 0
M  V30 5932 H 582.823 3.2327 -2.31821 0
M  V30 5933 H 579.562 3.95487 -5.22753 0
M  V30 5934 H 579.082 4.72319 -3.69696 0
M  V30 5935 H 580.761 4.85513 -4.27651 0
M  V30 5936 N 580.893 1.08022 1.14757 0
M  V30 5937 C 581.856 0.71048 2.1791 0
M  V30 5938 C 582.856 -0.252731 1.58801 0
M  V30 5939 O 584.046 -0.0327915 1.74169 0
M  V30 5940 C 581.178 0.0483203 3.40866 0
M  V30 5941 H 582.371 1.62384 2.52134 0
M  V30 5942 H 579.924 0.877595 1.29337 0
M  V30 5943 H 580.659 -0.876959 3.12218 0
M  V30 5944 H 580.444 0.741189 3.85031 0
M  V30 5945 H 581.934 -0.195471 4.17142 0
M  V30 5946 N 582.371 -1.3172 0.865308 0
M  V30 5947 C 583.782 -1.79104 0.527126 0
M  V30 5948 C 584.133 -1.7135 -0.955695 0
M  V30 5949 O 583.258 -1.27845 -1.74598 0
M  V30 5950 C 583.853 -3.25207 0.950061 0
M  V30 5951 C 582.412 -3.70504 0.663611 0
M  V30 5952 C 581.559 -2.52605 1.14395 0
M  V30 5953 H 584.51 -1.18868 1.05148 0
M  V30 5954 H 584.531 -3.79535 0.270805 0
M  V30 5955 H 584.043 -3.30818 2.02931 0
M  V30 5956 H 582.144 -3.70398 -0.404474 0
M  V30 5957 H 582.257 -4.62845 1.23737 0
M  V30 5958 H 580.621 -2.4838 0.563859 0
M  V30 5959 H 581.404 -2.60964 2.23053 0
M  V30 5960 N 583.85 -0.624285 -1.44708 0
M  V30 5961 C 584.798 0.0969952 -2.32398 0
M  V30 5962 C 585.792 0.842762 -1.46949 0
M  V30 5963 O 586.998 0.756436 -1.63334 0
M  V30 5964 H 583.373 0.0501306 -0.750327 0
M  V30 5965 H 585.344 -0.660767 -2.90992 0
M  V30 5966 C 584.093 1.06967 -3.30837 0
M  V30 5967 H 583.416 0.505242 -3.96595 0
M  V30 5968 H 584.856 1.54397 -3.94889 0
M  V30 5969 C 583.315 2.15153 -2.5925 0
M  V30 5970 O 583.845 3.23139 -2.3863 0
M  V30 5971 N 582.051 1.90898 -2.19103 0
M  V30 5972 H 581.598 1.03086 -2.36074 0
M  V30 5973 H 581.556 2.63485 -1.71531 0
M  V30 5974 N 585.328 1.53329 -0.364422 0
M  V30 5975 C 586.556 2.05657 0.226424 0
M  V30 5976 C 586.971 1.23801 1.42544 0
M  V30 5977 O 586.328 0.27839 1.80364 0
M  V30 5978 C 586.379 3.56125 0.621056 0
M  V30 5979 O 586.1 4.34879 -0.530304 0
M  V30 5980 C 587.601 4.24706 1.27041 0
M  V30 5981 H 584.821 0.669806 0.0400056 0
M  V30 5982 H 587.365 1.97714 -0.522456 0
M  V30 5983 H 585.52 3.64223 1.31985 0
M  V30 5984 H 585.934 5.24073 -0.211546 0
M  V30 5985 H 587.408 5.3131 1.49711 0
M  V30 5986 H 587.885 3.78354 2.23036 0
M  V30 5987 H 588.491 4.20858 0.613079 0
M  V30 5988 N 586.806 0.0935595 1.57322 0
M  V30 5989 C 588.217 -0.435807 1.81542 0
M  V30 5990 C 588.568 -1.68263 1.00907 0
M  V30 5991 O 587.693 -2.15087 0.237983 0
M  V30 5992 C 588.288 -0.797436 3.29282 0
M  V30 5993 C 586.847 -1.27155 3.54272 0
M  V30 5994 C 585.994 -0.267455 2.76007 0
M  V30 5995 H 588.945 0.31902 1.5546 0
M  V30 5996 H 588.966 -1.6571 3.42521 0
M  V30 5997 H 588.478 0.110206 3.87943 0
M  V30 5998 H 586.579 -2.19696 3.00939 0
M  V30 5999 H 586.692 -1.23445 4.62923 0
M  V30 6000 H 585.056 -0.749282 2.43429 0
M  V30 6001 H 585.839 0.632839 3.37417 0
M  V30 6002 N 588.284 -1.56567 -0.180126 0
M  V30 6003 C 589.216 -1.92275 -1.24751 0
M  V30 6004 C 590.229 -0.814922 -1.40936 0
M  V30 6005 O 591.418 -1.09336 -1.41095 0
M  V30 6006 C 588.518 -2.15265 -2.61752 0
M  V30 6007 C 587.691 -3.46467 -2.66981 0
M  V30 6008 C 586.75 -3.58391 -3.85283 0
M  V30 6009 O 585.776 -4.31086 -3.7169 0
M  V30 6010 N 586.978 -2.92587 -5.01371 0
M  V30 6011 H 589.743 -2.84435 -0.944302 0
M  V30 6012 H 587.304 -1.57617 -0.369952 0
M  V30 6013 H 589.296 -2.20515 -3.39345 0
M  V30 6014 H 587.866 -1.29533 -2.845 0
M  V30 6015 H 587.086 -3.52953 -1.75549 0
M  V30 6016 H 588.374 -4.32819 -2.67479 0
M  V30 6017 H 587.772 -2.3338 -5.15316 0
M  V30 6018 H 586.329 -3.03444 -5.76858 0
M  V30 6019 N 589.762 0.448376 -1.51087 0
M  V30 6020 C 590.692 1.55102 -1.74544 0
M  V30 6021 C 591.673 1.59357 -0.594932 0
M  V30 6022 O 592.858 1.75261 -0.836491 0
M  V30 6023 C 589.988 2.93268 -1.86041 0
M  V30 6024 C 588.942 3.03877 -3.01402 0
M  V30 6025 C 588.268 4.43914 -2.98068 0
M  V30 6026 C 589.568 2.7898 -4.41551 0
M  V30 6027 H 591.262 1.35724 -2.66869 0
M  V30 6028 H 588.808 0.651498 -1.28419 0
M  V30 6029 H 590.761 3.70356 -2.01034 0
M  V30 6030 H 589.485 3.13853 -0.903548 0
M  V30 6031 H 588.144 2.29227 -2.86096 0
M  V30 6032 H 587.792 4.6145 -2.00182 0
M  V30 6033 H 587.492 4.51944 -3.75527 0
M  V30 6034 H 589.016 5.22991 -3.1514 0
M  V30 6035 H 590.43 3.45805 -4.57265 0
M  V30 6036 H 588.827 2.98431 -5.20633 0
M  V30 6037 H 589.897 1.74663 -4.5235 0
M  V30 6038 N 591.24 1.41047 0.703093 0
M  V30 6039 C 592.203 1.42036 1.79884 0
M  V30 6040 C 593.203 0.312153 1.57741 0
M  V30 6041 O 594.393 0.571672 1.64553 0
M  V30 6042 C 591.525 1.22437 3.18154 0
M  V30 6043 H 592.718 2.39572 1.80403 0
M  V30 6044 H 590.271 1.27079 0.909977 0
M  V30 6045 H 591.006 0.257112 3.23279 0
M  V30 6046 H 590.791 2.02723 3.35627 0
M  V30 6047 H 592.281 1.25946 3.98155 0
M  V30 6048 N 592.718 -0.936591 1.26751 0
M  V30 6049 C 593.995 -1.66094 1.03306 0
M  V30 6050 C 594.375 -2.06568 -0.435058 0
M  V30 6051 O 593.723 -1.79305 -1.41641 0
M  V30 6052 C 593.933 -2.86969 1.98619 0
M  V30 6053 C 595.281 -3.58516 2.27489 0
M  V30 6054 O 596.305 -2.97082 1.96522 0
M  V30 6055 O 595.164 -4.69181 2.80235 0
M  V30 6056 H 592.258 -0.727568 0.393158 0
M  V30 6057 H 594.804 -0.987914 1.3798 0
M  V30 6058 H 593.576 -2.53985 2.9767 0
M  V30 6059 H 593.199 -3.61996 1.64454 0
M  V30 6060 N 594.196 -1.08629 -1.14182 0
M  V30 6061 C 595.445 -0.812271 -1.84621 0
M  V30 6062 C 595.758 0.664313 -1.83973 0
M  V30 6063 O 596.964 1.05357 -2.50224 0
M  V30 6064 C 595.42 -1.4031 -3.31423 0
M  V30 6065 C 595.028 -2.91164 -3.40481 0
M  V30 6066 C 596.772 -1.20767 -4.06959 0
M  V30 6067 C 594.679 -3.43373 -4.81507 0
M  V30 6068 H 593.609 -0.30019 -0.691666 0
M  V30 6069 H 596.26 -1.30798 -1.28701 0
M  V30 6070 H 594.642 -0.835096 -3.87094 0
M  V30 6071 H 595.816 -3.5412 -2.94848 0
M  V30 6072 H 594.131 -3.09646 -2.78403 0
M  V30 6073 H 596.728 -1.57237 -5.11058 0
M  V30 6074 H 597.071 -0.147664 -4.16038 0
M  V30 6075 H 597.604 -1.74274 -3.57594 0
M  V30 6076 H 594.343 -4.48958 -4.77616 0
M  V30 6077 H 593.863 -2.85176 -5.27669 0
M  V30 6078 H 595.542 -3.40095 -5.50404 0
M  V30 6079 N 595.674 1.31259 -0.872281 0
M  V30 6080 C 596.923 1.95893 -0.480493 0
M  V30 6081 C 597.236 1.697 0.972688 0
M  V30 6082 O 598.442 2.28214 1.47073 0
M  V30 6083 C 596.898 3.50705 -0.808342 0
M  V30 6084 C 596.506 3.85735 -2.27844 0
M  V30 6085 C 598.25 4.21719 -0.485136 0
M  V30 6086 C 596.157 5.33668 -2.54858 0
M  V30 6087 H 595.087 0.733182 -0.175955 0
M  V30 6088 H 597.738 1.49396 -1.0655 0
M  V30 6089 H 596.12 3.95706 -0.152558 0
M  V30 6090 H 597.294 3.51686 -2.97748 0
M  V30 6091 H 595.609 3.27792 -2.56791 0
M  V30 6092 H 598.206 5.30559 -0.664166 0
M  V30 6093 H 598.549 4.12316 0.574592 0
M  V30 6094 H 599.082 3.82359 -1.09756 0
M  V30 6095 H 595.821 5.48109 -3.59523 0
M  V30 6096 H 595.341 5.69061 -1.8955 0
M  V30 6097 H 597.02 6.00958 -2.39706 0
M  V30 6098 N 597.152 0.631951 1.44375 0
M  V30 6099 C 598.115 -0.0628142 2.29114 0
M  V30 6100 C 599.115 -0.771494 1.41084 0
M  V30 6101 O 600.305 -0.615959 1.62947 0
M  V30 6102 C 597.437 -1.09953 3.22681 0
M  V30 6103 H 598.63 0.682509 2.92031 0
M  V30 6104 H 596.183 0.392128 1.51301 0
M  V30 6105 H 596.918 -1.87481 2.64616 0
M  V30 6106 H 596.703 -0.595286 3.87555 0
M  V30 6107 H 598.193 -1.58538 3.86336 0
M  V30 6108 N 598.631 -1.53133 0.372548 0
M  V30 6109 C 599.859 -2.05774 -0.215515 0
M  V30 6110 C 600.274 -1.24555 -1.41886 0
M  V30 6111 O 599.631 -0.287951 -1.80214 0
M  V30 6112 C 599.682 -3.5645 -0.602161 0
M  V30 6113 O 599.403 -4.34591 0.553359 0
M  V30 6114 C 600.904 -4.25374 -1.24787 0
M  V30 6115 H 598.124 -0.670009 -0.0364529 0
M  V30 6116 H 600.668 -1.97434 0.532934 0
M  V30 6117 H 598.823 -3.64918 -1.30052 0
M  V30 6118 H 599.237 -5.23954 0.239336 0
M  V30 6119 H 600.711 -5.32097 -1.46891 0
M  V30 6120 H 601.188 -3.79531 -2.21026 0
M  V30 6121 H 601.794 -4.21177 -0.590752 0
M  V30 6122 N 600.109 -0.101901 -1.5727 0
M  V30 6123 C 601.357 0.559091 -1.94213 0
M  V30 6124 C 601.678 1.68297 -0.984948 0
M  V30 6125 O 600.948 1.95863 -0.0381975 0
M  V30 6126 H 599.528 0.20952 -0.717015 0
M  V30 6127 H 602.19 -0.166831 -1.94185 0
M  V30 6128 H 601.286 0.96485 -2.96811 0
M  V30 6129 N 601.587 1.56661 0.17182 0
M  V30 6130 C 602.834 1.81965 0.888529 0
M  V30 6131 C 603.162 0.6789 1.82267 0
M  V30 6132 O 602.417 -0.333875 1.92831 0
M  V30 6133 C 602.716 3.13435 1.71736 0
M  V30 6134 C 602.382 4.41159 0.932184 0
M  V30 6135 C 601.044 4.75851 0.715481 0
M  V30 6136 C 603.396 5.19803 0.381387 0
M  V30 6137 C 600.724 5.86666 -0.063126 0
M  V30 6138 C 603.076 6.31433 -0.384129 0
M  V30 6139 C 601.74 6.64692 -0.611637 0
M  V30 6140 H 601.01 0.665859 0.325136 0
M  V30 6141 H 603.657 1.90884 0.153495 0
M  V30 6142 H 601.962 2.99857 2.52177 0
M  V30 6143 H 603.659 3.30224 2.27493 0
M  V30 6144 H 600.249 4.13947 1.11112 0
M  V30 6145 H 604.433 4.93396 0.536148 0
M  V30 6146 H 599.689 6.10892 -0.249136 0
M  V30 6147 H 603.863 6.91577 -0.818185 0
M  V30 6148 H 601.49 7.50398 -1.21684 0
M  V30 6149 N 603.065 -0.440357 1.51323 0
M  V30 6150 C 604.29 -1.21716 1.67928 0
M  V30 6151 C 604.715 -1.84328 0.374826 0
M  V30 6152 O 604.073 -1.68675 -0.664706 0
M  V30 6153 C 604.121 -2.27914 2.79442 0
M  V30 6154 O 603.225 -3.33325 2.42834 0
M  V30 6155 H 602.566 -0.35674 0.560029 0
M  V30 6156 H 605.096 -0.520417 1.97871 0
M  V30 6157 H 605.106 -2.72746 3.03436 0
M  V30 6158 H 603.781 -1.8172 3.741 0
M  V30 6159 H 602.358 -2.9399 2.294 0
M  V30 6160 N 604.543 -1.41418 -0.695603 0
M  V30 6161 C 605.789 -1.40982 -1.4578 0
M  V30 6162 C 606.122 -0.0187763 -1.94191 0
M  V30 6163 O 605.397 0.95346 -1.69527 0
M  V30 6164 C 605.68 -2.41657 -2.66972 0
M  V30 6165 C 605.533 -3.89869 -2.24327 0
M  V30 6166 C 606.852 -2.39589 -3.69168 0
M  V30 6167 H 603.971 -0.513405 -0.528757 0
M  V30 6168 H 606.613 -1.72693 -0.792275 0
M  V30 6169 H 604.763 -2.14746 -3.23754 0
M  V30 6170 H 606.435 -4.27683 -1.72872 0
M  V30 6171 H 604.678 -4.04737 -1.56111 0
M  V30 6172 H 605.349 -4.55857 -3.11285 0
M  V30 6173 H 607.825 -2.63471 -3.2206 0
M  V30 6174 H 606.701 -3.12044 -4.51575 0
M  V30 6175 H 606.962 -1.41447 -4.18862 0
M  V30 6176 N 606.021 0.929856 -1.27246 0
M  V30 6177 C 607.261 1.6919 -1.14691 0
M  V30 6178 C 607.625 1.896 0.302621 0
M  V30 6179 O 608.826 2.63102 0.550543 0
M  V30 6180 C 607.097 3.02291 -1.9067 0
M  V30 6181 S 608.656 3.93436 -1.94303 0
M  V30 6182 H 605.474 0.581248 -0.409477 0
M  V30 6183 H 608.076 1.10722 -1.61124 0
M  V30 6184 H 606.78 2.85125 -2.95181 0
M  V30 6185 H 606.311 3.65813 -1.44723 0
M  V30 6186 H 608.326 4.85224 -1.0379 0
M  V30 6187 N 607.499 1.09233 1.13605 0
M  V30 6188 C 608.747 0.825525 1.84471 0
M  V30 6189 C 609.068 -0.650702 1.83823 0
M  V30 6190 O 608.338 -1.47204 1.29259 0
M  V30 6191 H 606.918 0.3024 0.683054 0
M  V30 6192 H 609.58 1.38006 1.37624 0
M  V30 6193 H 608.676 1.17727 2.89045 0
M  V30 6194 N 608.977 -1.30795 0.87923 0
M  V30 6195 C 609.909 -2.27241 0.299025 0
M  V30 6196 C 610.922 -1.53472 -0.543166 0
M  V30 6197 O 612.111 -1.74756 -0.363651 0
M  V30 6198 C 609.211 -3.33655 -0.593931 0
M  V30 6199 C 608.384 -4.36857 0.2179 0
M  V30 6200 C 607.443 -5.22715 -0.604646 0
M  V30 6201 O 606.469 -5.69192 -0.0293838 0
M  V30 6202 N 607.671 -5.48008 -1.91488 0
M  V30 6203 H 610.436 -2.77667 1.12788 0
M  V30 6204 H 607.997 -1.43914 0.741637 0
M  V30 6205 H 609.989 -3.88013 -1.15012 0
M  V30 6206 H 608.559 -2.83202 -1.32346 0
M  V30 6207 H 607.779 -3.82444 0.955536 0
M  V30 6208 H 609.067 -5.02869 0.774614 0
M  V30 6209 H 608.465 -5.1202 -2.40525 0
M  V30 6210 H 607.022 -6.05264 -2.41864 0
M  V30 6211 N 610.455 -0.639598 -1.44038 0
M  V30 6212 C 611.704 -0.144885 -2.01179 0
M  V30 6213 C 612.017 1.24372 -1.50967 0
M  V30 6214 O 613.223 1.83291 -2.00292 0
M  V30 6215 C 611.679 -0.208244 -3.59297 0
M  V30 6216 C 611.287 -1.59869 -4.18504 0
M  V30 6217 C 613.031 0.229568 -4.23879 0
M  V30 6218 C 610.938 -1.61671 -5.68873 0
M  V30 6219 H 609.868 -0.0504005 -0.752314 0
M  V30 6220 H 612.519 -0.799639 -1.65161 0
M  V30 6221 H 610.901 0.513767 -3.92653 0
M  V30 6222 H 612.075 -2.34496 -3.96671 0
M  V30 6223 H 610.39 -1.98131 -3.66242 0
M  V30 6224 H 612.987 0.235758 -5.3418 0
M  V30 6225 H 613.33 1.25848 -3.96822 0
M  V30 6226 H 613.863 -0.440233 -3.95357 0
M  V30 6227 H 610.602 -2.62427 -6.00677 0
M  V30 6228 H 610.122 -0.913489 -5.92803 0
M  V30 6229 H 611.801 -1.35439 -6.32665 0
M  V30 6230 N 611.933 1.52934 -0.380664 0
M  V30 6231 C 613.158 2.06363 0.207157 0
M  V30 6232 C 613.583 1.25122 1.4045 0
M  V30 6233 O 612.941 0.274062 1.79217 0
M  V30 6234 C 612.989 3.56162 0.563996 0
M  V30 6235 O 612.093 3.77552 1.65917 0
M  V30 6236 H 611.434 0.663468 0.0265859 0
M  V30 6237 H 613.964 1.9719 -0.545635 0
M  V30 6238 H 613.974 3.99453 0.830752 0
M  V30 6239 H 612.649 4.14732 -0.311427 0
M  V30 6240 H 611.226 3.46154 1.3868 0
M  V30 6241 N 613.412 0.11024 1.57214 0
M  V30 6242 C 614.661 -0.549638 1.94067 0
M  V30 6243 C 614.974 -1.68388 0.995234 0
M  V30 6244 O 616.18 -2.40593 1.25807 0
M  V30 6245 C 614.636 -1.02912 3.44873 0
M  V30 6246 C 614.244 0.0761861 4.47935 0
M  V30 6247 C 615.988 -1.66087 3.9066 0
M  V30 6248 C 613.895 -0.419502 5.8991 0
M  V30 6249 H 612.825 -0.209092 0.724428 0
M  V30 6250 H 615.476 0.188683 1.82527 0
M  V30 6251 H 613.858 -1.82159 3.51616 0
M  V30 6252 H 615.032 0.852185 4.52851 0
M  V30 6253 H 613.347 0.614052 4.11847 0
M  V30 6254 H 615.944 -2.04272 4.94143 0
M  V30 6255 H 616.287 -2.53591 3.30148 0
M  V30 6256 H 616.82 -0.933959 3.86681 0
M  V30 6257 H 613.559 0.419277 6.54158 0
M  V30 6258 H 613.079 -1.16217 5.88433 0
M  V30 6259 H 614.758 -0.883577 6.40938 0
M  V30 6260 N 614.89 -1.56749 -0.16351 0
M  V30 6261 C 616.139 -1.81626 -0.877211 0
M  V30 6262 C 616.452 -0.688791 -1.83071 0
M  V30 6263 O 617.658 -0.822697 -2.58735 0
M  V30 6264 C 616.114 -3.21858 -1.61045 0
M  V30 6265 C 615.722 -4.42494 -0.700195 0
M  V30 6266 C 617.466 -3.56021 -2.31192 0
M  V30 6267 C 615.373 -5.73748 -1.43412 0
M  V30 6268 H 614.303 -0.67731 -0.331312 0
M  V30 6269 H 616.954 -1.83039 -0.13006 0
M  V30 6270 H 615.336 -3.14784 -2.40264 0
M  V30 6271 H 616.51 -4.60766 0.0555849 0
M  V30 6272 H 614.825 -4.1626 -0.10799 0
M  V30 6273 H 617.422 -4.51333 -2.8671 0
M  V30 6274 H 617.765 -2.81277 -3.06902 0
M  V30 6275 H 618.298 -3.64682 -1.58909 0
M  V30 6276 H 615.037 -6.51543 -0.719186 0
M  V30 6277 H 614.557 -5.5944 -2.16302 0
M  V30 6278 H 616.236 -6.15975 -1.9795 0
M  V30 6279 N 616.368 0.432326 -1.51554 0
M  V30 6280 C 617.784 0.769195 -1.39841 0
M  V30 6281 C 617.984 1.95584 -0.484675 0
M  V30 6282 O 617.04 2.52433 0.0582829 0
M  V30 6283 C 618.353 1.04487 -2.81963 0
M  V30 6284 C 619.901 1.149 -2.91148 0
M  V30 6285 C 620.376 1.45758 -4.34187 0
M  V30 6286 N 621.867 1.52671 -4.37317 0
M  V30 6287 C 622.602 1.78129 -5.4503 0
M  V30 6288 N 622.098 2.01345 -6.62897 0
M  V30 6289 N 623.891 1.79953 -5.32516 0
M  V30 6290 H 616.042 -0.349122 -2.09511 0
M  V30 6291 H 618.305 -0.0938113 -0.943347 0
M  V30 6292 H 618.011 0.24557 -3.50842 0
M  V30 6293 H 617.885 1.97119 -3.21596 0
M  V30 6294 H 620.272 1.93891 -2.22464 0
M  V30 6295 H 620.353 0.201568 -2.55005 0
M  V30 6296 H 619.997 0.672917 -5.03423 0
M  V30 6297 H 619.927 2.41715 -4.67848 0
M  V30 6298 H 622.418 1.36612 -3.52343 0
M  V30 6299 H 622.731 2.20155 -7.40778 0
M  V30 6300 H 621.076 1.98657 -6.66003 0
M  V30 6301 H 624.267 1.61337 -4.39418 0
M  V30 6302 H 624.44 1.99455 -6.1654 0
M  V30 6303 N 617.846 1.41785 0.688094 0
M  V30 6304 C 619.093 1.41544 1.44816 0
M  V30 6305 C 619.421 0.0271746 1.94481 0
M  V30 6306 O 618.676 -0.962235 1.7041 0
M  V30 6307 C 618.975 2.37532 2.67046 0
M  V30 6308 C 618.641 3.84209 2.35996 0
M  V30 6309 C 617.303 4.24165 2.27239 0
M  V30 6310 C 619.655 4.76785 2.10536 0
M  V30 6311 C 616.983 5.54695 1.91128 0
M  V30 6312 C 619.335 6.07644 1.75931 0
M  V30 6313 C 617.999 6.46613 1.65675 0
M  V30 6314 H 617.269 0.517945 0.529919 0
M  V30 6315 H 619.916 1.74635 0.785797 0
M  V30 6316 H 618.221 1.9772 3.38251 0
M  V30 6317 H 619.918 2.34615 3.25203 0
M  V30 6318 H 616.508 3.52567 2.4371 0
M  V30 6319 H 620.692 4.46714 2.16242 0
M  V30 6320 H 615.948 5.83762 1.81746 0
M  V30 6321 H 620.122 6.78874 1.55252 0
M  V30 6322 H 617.749 7.47668 1.37463 0
M  V30 6323 N 619.324 -0.923095 1.27737 0
M  V30 6324 C 620.735 -1.48626 1.12993 0
M  V30 6325 C 621.086 -1.94142 -0.283439 0
M  V30 6326 O 620.211 -1.81605 -1.17681 0
M  V30 6327 C 620.806 -2.70117 2.04505 0
M  V30 6328 C 619.365 -3.22642 1.93853 0
M  V30 6329 C 618.512 -1.95368 1.96791 0
M  V30 6330 H 621.463 -0.736737 1.40563 0
M  V30 6331 H 621.484 -3.4506 1.60356 0
M  V30 6332 H 620.996 -2.36959 3.07363 0
M  V30 6333 H 619.097 -3.60549 0.939968 0
M  V30 6334 H 619.21 -3.88525 2.80331 0
M  V30 6335 H 617.574 -2.12061 1.41076 0
M  V30 6336 H 618.357 -1.64517 3.01312 0
M  V30 6337 N 620.802 -1.09834 -1.13024 0
M  V30 6338 C 622.079 -0.749225 -1.80682 0
M  V30 6339 C 622.459 0.765171 -1.96744 0
M  V30 6340 O 621.807 1.68912 -1.53886 0
M  V30 6341 C 622.017 -1.49311 -3.15448 0
M  V30 6342 C 623.365 -1.66162 -3.90737 0
M  V30 6343 O 624.389 -1.45597 -3.25085 0
M  V30 6344 O 623.248 -2.00211 -5.08505 0
M  V30 6345 H 620.342 -0.269614 -0.781817 0
M  V30 6346 H 622.888 -1.20078 -1.19914 0
M  V30 6347 H 621.66 -2.52407 -2.99009 0
M  V30 6348 H 621.283 -1.034 -3.8392 0
M  V30 6349 N 622.28 1.30327 -0.886154 0
M  V30 6350 C 623.508 2.00254 -0.520176 0
M  V30 6351 C 623.923 1.66419 0.891637 0
M  V30 6352 O 623.28 0.901951 1.58654 0
M  V30 6353 C 623.331 3.54916 -0.686775 0
M  V30 6354 O 623.052 3.87547 -2.04301 0
M  V30 6355 C 624.553 4.42115 -0.323945 0
M  V30 6356 H 621.773 0.640204 -0.200947 0
M  V30 6357 H 624.317 1.66183 -1.19178 0
M  V30 6358 H 622.472 3.8735 -0.0625273 0
M  V30 6359 H 622.886 4.82247 -2.06249 0
M  V30 6360 H 624.36 5.49808 -0.491407 0
M  V30 6361 H 624.837 4.32953 0.73811 0
M  V30 6362 H 625.443 4.15129 -0.924565 0
M  V30 6363 N 623.758 0.647228 1.43697 0
M  V30 6364 C 625.004 0.158422 2.0218 0
M  V30 6365 C 625.337 -1.22233 1.50907 0
M  V30 6366 O 624.612 -1.81478 0.699702 0
M  V30 6367 C 624.895 0.1627 3.59732 0
M  V30 6368 C 624.748 1.57694 4.21251 0
M  V30 6369 C 626.067 -0.504138 4.37203 0
M  V30 6370 H 623.186 0.059042 0.734631 0
M  V30 6371 H 625.828 0.826772 1.71069 0
M  V30 6372 H 623.978 -0.406414 3.86368 0
M  V30 6373 H 625.65 2.19618 4.05667 0
M  V30 6374 H 623.893 2.12603 3.7813 0
M  V30 6375 H 624.564 1.53183 5.3032 0
M  V30 6376 H 627.04 -0.0199841 4.16095 0
M  V30 6377 H 625.916 -0.470394 5.46881 0
M  V30 6378 H 626.177 -1.57726 4.13007 0
M  V30 6379 N 625.236 -1.5273 0.388769 0
M  V30 6380 C 626.183 -2.26437 -0.446639 0
M  V30 6381 C 627.153 -1.28025 -1.05824 0
M  V30 6382 O 628.338 -1.56852 -1.08637 0
M  V30 6383 C 625.478 -3.07407 -1.56828 0
M  V30 6384 C 624.591 -4.20747 -0.979589 0
M  V30 6385 C 623.726 -4.89113 -2.07224 0
M  V30 6386 C 622.765 -5.94447 -1.45942 0
M  V30 6387 N 621.902 -6.56411 -2.49135 0
M  V30 6388 H 626.742 -2.97404 0.18837 0
M  V30 6389 H 624.279 -1.46727 0.104725 0
M  V30 6390 H 626.237 -3.52642 -2.22934 0
M  V30 6391 H 624.867 -2.3865 -2.17361 0
M  V30 6392 H 623.919 -3.7983 -0.208151 0
M  V30 6393 H 625.231 -4.9637 -0.491747 0
M  V30 6394 H 624.385 -5.3765 -2.81101 0
M  V30 6395 H 623.124 -4.13013 -2.59368 0
M  V30 6396 H 622.129 -5.4525 -0.705894 0
M  V30 6397 H 623.354 -6.7248 -0.945932 0
M  V30 6398 H 621.3 -5.83152 -3.00449 0
M  V30 6399 H 621.217 -7.27645 -2.05105 0
M  V30 6400 H 622.485 -7.09592 -3.22644 0
M  V30 6401 N 626.714 -0.118576 -1.57153 0
M  V30 6402 C 627.646 0.862247 -2.12363 0
M  V30 6403 C 628.659 1.23025 -1.06625 0
M  V30 6404 O 629.848 1.17927 -1.33998 0
M  V30 6405 C 626.948 2.16425 -2.60794 0
M  V30 6406 C 626.121 1.96801 -3.90626 0
M  V30 6407 C 625.18 3.10726 -4.2466 0
M  V30 6408 O 624.206 2.83659 -4.93484 0
M  V30 6409 N 625.408 4.37147 -3.81946 0
M  V30 6410 H 628.173 0.390564 -2.97144 0
M  V30 6411 H 625.734 0.0658591 -1.61766 0
M  V30 6412 H 627.726 2.91633 -2.80593 0
M  V30 6413 H 626.296 2.54943 -1.80895 0
M  V30 6414 H 625.516 1.05787 -3.7974 0
M  V30 6415 H 626.804 1.80993 -4.7552 0
M  V30 6416 H 626.202 4.62014 -3.26435 0
M  V30 6417 H 624.759 5.09229 -4.06853 0
M  V30 6418 N 628.193 1.56834 0.155195 0
M  V30 6419 C 629.126 1.9278 1.22111 0
M  V30 6420 C 630.104 0.792588 1.41975 0
M  V30 6421 O 631.288 1.04743 1.5672 0
M  V30 6422 C 628.415 2.19273 2.58142 0
M  V30 6423 C 627.461 3.41932 2.54921 0
M  V30 6424 S 628.294 4.95769 2.02418 0
M  V30 6425 C 629.45 5.25375 3.40194 0
M  V30 6426 H 629.683 2.82889 0.914393 0
M  V30 6427 H 627.216 1.50133 0.360461 0
M  V30 6428 H 629.174 2.35217 3.36427 0
M  V30 6429 H 627.835 1.29843 2.86007 0
M  V30 6430 H 627.028 3.57721 3.55038 0
M  V30 6431 H 626.63 3.25188 1.8474 0
M  V30 6432 H 628.922 5.1834 4.36268 0
M  V30 6433 H 629.865 6.26889 3.29266 0
M  V30 6434 H 630.273 4.52906 3.36951 0
M  V30 6435 N 629.671 -0.424282 1.51781 0
M  V30 6436 C 630.619 -1.53649 1.74628 0
M  V30 6437 C 631.613 -1.57923 0.612922 0
M  V30 6438 O 632.819 -1.61511 0.794618 0
M  V30 6439 H 629.194 -0.510706 0.551981 0
M  V30 6440 H 631.165 -1.31558 2.67834 0
M  V30 6441 C 629.914 -2.91177 1.9003 0
M  V30 6442 H 629.237 -2.88625 2.76651 0
M  V30 6443 H 630.677 -3.6833 2.10021 0
M  V30 6444 C 629.136 -3.30303 0.663435 0
M  V30 6445 O 629.666 -4.01315 -0.175812 0
M  V30 6446 N 627.872 -2.86201 0.503723 0
M  V30 6447 H 627.419 -2.28583 1.18776 0
M  V30 6448 H 627.377 -3.12741 -0.322575 0
M  V30 6449 N 631.149 -1.42148 -0.680565 0
M  V30 6450 C 632.096 -1.45175 -1.79424 0
M  V30 6451 C 633.066 -0.304352 -1.63288 0
M  V30 6452 O 634.251 -0.507591 -1.83924 0
M  V30 6453 C 631.391 -1.35429 -3.17416 0
M  V30 6454 C 630.504 -2.60158 -3.4488 0
M  V30 6455 C 629.639 -2.42596 -4.72568 0
M  V30 6456 C 628.678 -3.62727 -4.93047 0
M  V30 6457 N 627.815 -3.44143 -6.11973 0
M  V30 6458 H 632.655 -2.40349 -1.76172 0
M  V30 6459 H 630.192 -1.19334 -0.860107 0
M  V30 6460 H 632.15 -1.27777 -3.97151 0
M  V30 6461 H 630.78 -0.438536 -3.19807 0
M  V30 6462 H 629.832 -2.78199 -2.5944 0
M  V30 6463 H 631.144 -3.49473 -3.55908 0
M  V30 6464 H 630.298 -2.32497 -5.60384 0
M  V30 6465 H 629.037 -1.50761 -4.63813 0
M  V30 6466 H 628.042 -3.73264 -4.03676 0
M  V30 6467 H 629.267 -4.55534 -5.03652 0
M  V30 6468 H 627.213 -2.5502 -6.04401 0
M  V30 6469 H 627.13 -4.27041 -6.23836 0
M  V30 6470 H 628.398 -3.37845 -7.02482 0
M  V30 6471 N 632.627 0.916307 -1.28225 0
M  V30 6472 C 633.857 1.69654 -1.17902 0
M  V30 6473 C 634.265 1.87331 0.265268 0
M  V30 6474 O 633.608 1.39828 1.19137 0
M  V30 6475 C 633.67 3.11024 -1.80289 0
M  V30 6476 C 633.334 3.16643 -3.29525 0
M  V30 6477 C 634.331 2.98032 -4.25997 0
M  V30 6478 C 632.016 3.39238 -3.70436 0
M  V30 6479 C 634.01 3.01924 -5.61356 0
M  V30 6480 C 631.697 3.42762 -5.05922 0
M  V30 6481 C 632.695 3.24125 -6.01192 0
M  V30 6482 O 632.383 3.27406 -7.34208 0
M  V30 6483 H 632.115 0.537197 -0.41036 0
M  V30 6484 H 634.669 1.15547 -1.69817 0
M  V30 6485 H 632.899 3.66662 -1.22865 0
M  V30 6486 H 634.588 3.71063 -1.6452 0
M  V30 6487 H 635.354 2.80405 -3.95725 0
M  V30 6488 H 631.233 3.52791 -2.96749 0
M  V30 6489 H 634.777 2.87295 -6.35694 0
M  V30 6490 H 630.674 3.59916 -5.35846 0
M  V30 6491 H 631.442 3.43784 -7.42802 0
M  V30 6492 N 634.105 1.10431 1.1244 0
M  V30 6493 C 635.052 0.753103 2.18167 0
M  V30 6494 C 636.022 -0.270549 1.63882 0
M  V30 6495 O 637.207 -0.149837 1.90211 0
M  V30 6496 C 634.347 0.191046 3.44571 0
M  V30 6497 C 633.46 1.26999 4.12911 0
M  V30 6498 C 632.595 0.669586 5.26963 0
M  V30 6499 C 631.634 1.72912 5.87169 0
M  V30 6500 N 630.771 1.14898 6.92635 0
M  V30 6501 H 635.611 1.65892 2.47556 0
M  V30 6502 H 633.148 0.828631 1.21541 0
M  V30 6503 H 635.106 -0.152712 4.1692 0
M  V30 6504 H 633.736 -0.677997 3.15599 0
M  V30 6505 H 632.788 1.73087 3.3874 0
M  V30 6506 H 634.1 2.07204 4.53727 0
M  V30 6507 H 633.254 0.275274 6.06075 0
M  V30 6508 H 631.993 -0.163895 4.87425 0
M  V30 6509 H 630.998 2.13286 5.06744 0
M  V30 6510 H 632.223 2.56544 6.28778 0
M  V30 6511 H 630.169 0.336956 6.55134 0
M  V30 6512 H 630.086 1.88786 7.32049 0
M  V30 6513 H 631.354 0.78121 7.75576 0
M  V30 6514 N 635.583 -1.29855 0.893053 0
M  V30 6515 C 636.829 -1.96116 0.516349 0
M  V30 6516 C 637.162 -1.70281 -0.933695 0
M  V30 6517 O 636.437 -1.01205 -1.66096 0
M  V30 6518 C 636.72 -3.51068 0.801455 0
M  V30 6519 C 636.573 -3.86387 2.30272 0
M  V30 6520 C 637.892 -4.39186 0.283423 0
M  V30 6521 H 635.011 -0.712335 0.189072 0
M  V30 6522 H 637.653 -1.53587 1.11852 0
M  V30 6523 H 635.803 -3.87424 0.288949 0
M  V30 6524 H 637.475 -3.60012 2.88425 0
M  V30 6525 H 635.718 -3.34167 2.76613 0
M  V30 6526 H 636.389 -4.94512 2.45279 0
M  V30 6527 H 638.865 -4.09785 0.722187 0
M  V30 6528 H 637.741 -5.46505 0.512169 0
M  V30 6529 H 638.002 -4.34511 -0.815643 0
M  V30 6530 N 637.061 -0.65484 -1.43351 0
M  V30 6531 C 638.307 -0.169142 -2.02093 0
M  V30 6532 C 638.64 1.21431 -1.51553 0
M  V30 6533 O 637.915 1.81105 -0.709317 0
M  V30 6534 C 638.198 -0.181775 -3.59641 0
M  V30 6535 C 638.051 -1.59926 -4.20409 0
M  V30 6536 C 639.37 0.480945 -4.37464 0
M  V30 6537 H 636.489 -0.0629371 -0.734308 0
M  V30 6538 H 639.131 -0.835833 -1.70628 0
M  V30 6539 H 637.281 0.385918 -3.86578 0
M  V30 6540 H 638.953 -2.21766 -4.04497 0
M  V30 6541 H 637.196 -2.14605 -3.76998 0
M  V30 6542 H 637.867 -1.55994 -5.295 0
M  V30 6543 H 640.343 -0.00208273 -4.161 0
M  V30 6544 H 639.219 0.441384 -5.47122 0
M  V30 6545 H 639.48 1.55533 -4.13838 0
M  V30 6546 N 638.539 1.52521 -0.396863 0
M  V30 6547 C 639.469 2.29582 0.425941 0
M  V30 6548 C 640.45 1.33281 1.05689 0
M  V30 6549 O 641.635 1.62181 1.06823 0
M  V30 6550 C 638.765 3.10821 1.54943 0
M  V30 6551 C 637.719 4.15069 1.04413 0
M  V30 6552 C 637.045 4.84578 2.26028 0
M  V30 6553 C 638.345 5.22191 0.106767 0
M  V30 6554 H 640.039 2.98612 -0.217045 0
M  V30 6555 H 637.585 1.43611 -0.105826 0
M  V30 6556 H 639.538 3.63492 2.13193 0
M  V30 6557 H 638.262 2.39538 2.22011 0
M  V30 6558 H 636.921 3.63389 0.484118 0
M  V30 6559 H 636.569 4.09835 2.91623 0
M  V30 6560 H 636.269 5.55043 1.92876 0
M  V30 6561 H 637.793 5.40056 2.84906 0
M  V30 6562 H 639.207 5.70176 0.597685 0
M  V30 6563 H 637.604 5.99947 -0.135352 0
M  V30 6564 H 638.674 4.77531 -0.842134 0
M  V30 6565 N 640.017 0.126909 1.57088 0
M  V30 6566 C 641.242 -0.53997 2.00248 0
M  V30 6567 C 641.667 -1.58927 1.00618 0
M  V30 6568 O 641.025 -1.81288 -0.0210131 0
M  V30 6569 C 641.073 -1.13565 3.4225 0
M  V30 6570 O 640.177 -2.25103 3.45547 0
M  V30 6571 H 639.518 -0.13412 0.650314 0
M  V30 6572 H 642.048 0.217718 2.03438 0
M  V30 6573 H 642.058 -1.46925 3.80627 0
M  V30 6574 H 640.733 -0.367122 4.14277 0
M  V30 6575 H 639.31 -1.93123 3.18995 0
M  V30 6576 N 641.495 -1.56914 -0.146875 0
M  V30 6577 C 642.72 -1.87881 -0.878386 0
M  V30 6578 C 643.145 -0.715945 -1.73942 0
M  V30 6579 O 642.503 0.334447 -1.78189 0
M  V30 6580 C 642.551 -3.17431 -1.71084 0
M  V30 6581 O 641.655 -3.01374 -2.81509 0
M  V30 6582 H 640.996 -0.617289 -0.244644 0
M  V30 6583 H 643.526 -2.04136 -0.137654 0
M  V30 6584 H 643.536 -3.49455 -2.10582 0
M  V30 6585 H 642.211 -4.01671 -1.07856 0
M  V30 6586 H 640.788 -2.80758 -2.45416 0
M  V30 6587 N 642.974 0.416227 -1.52004 0
M  V30 6588 C 643.906 1.52552 -1.71058 0
M  V30 6589 C 644.919 1.51693 -0.59102 0
M  V30 6590 O 646.108 1.56087 -0.865973 0
M  V30 6591 C 643.208 2.91455 -1.72937 0
M  V30 6592 C 642.381 3.16584 -3.01816 0
M  V30 6593 C 641.44 4.35322 -2.95603 0
M  V30 6594 O 640.466 4.32947 -3.6952 0
M  V30 6595 N 641.668 5.40049 -2.12903 0
M  V30 6596 H 644.433 1.36604 -2.66757 0
M  V30 6597 H 641.994 0.60544 -1.50153 0
M  V30 6598 H 643.986 3.68944 -1.66321 0
M  V30 6599 H 642.556 3.00895 -0.847418 0
M  V30 6600 H 641.776 2.27203 -3.22137 0
M  V30 6601 H 643.064 3.30213 -3.87088 0
M  V30 6602 H 642.462 5.44823 -1.52265 0
M  V30 6603 H 641.019 6.16308 -2.1215 0
M  V30 6604 N 644.452 1.42507 0.673017 0
M  V30 6605 C 645.729 1.33554 1.42908 0
M  V30 6606 C 646.109 -0.0262211 2.11084 0
M  V30 6607 O 645.457 -1.04181 2.03368 0
M  V30 6608 C 645.667 2.50498 2.43006 0
M  V30 6609 C 647.015 2.92694 3.07596 0
M  V30 6610 O 648.039 2.50401 2.53333 0
M  V30 6611 O 646.898 3.65899 4.05931 0
M  V30 6612 H 643.992 0.526785 0.637516 0
M  V30 6613 H 646.538 1.54518 0.701591 0
M  V30 6614 H 645.31 3.41272 1.9144 0
M  V30 6615 H 644.933 2.3153 3.23233 0
M  V30 6616 N 645.93 -0.909495 1.28709 0
M  V30 6617 C 646.877 -2.01245 1.13 0
M  V30 6618 C 647.847 -1.6608 0.0259684 0
M  V30 6619 O 649.032 -1.89835 0.191687 0
M  V30 6620 C 646.172 -3.35644 0.802315 0
M  V30 6621 C 645.285 -3.83653 1.98582 0
M  V30 6622 C 644.42 -5.06582 1.59837 0
M  V30 6623 C 643.459 -5.46934 2.74827 0
M  V30 6624 N 642.596 -6.61053 2.36546 0
M  V30 6625 H 647.436 -2.14013 2.0737 0
M  V30 6626 H 644.973 -1.0482 1.03205 0
M  V30 6627 H 646.931 -4.12963 0.593057 0
M  V30 6628 H 645.561 -3.22631 -0.104457 0
M  V30 6629 H 644.613 -3.02454 2.30708 0
M  V30 6630 H 645.925 -4.09515 2.84779 0
M  V30 6631 H 645.079 -5.91457 1.35143 0
M  V30 6632 H 643.818 -4.82537 0.707753 0
M  V30 6633 H 642.823 -4.60599 3.00215 0
M  V30 6634 H 644.048 -5.72965 3.64538 0
M  V30 6635 H 641.994 -6.3863 1.49959 0
M  V30 6636 H 641.911 -6.86662 3.16277 0
M  V30 6637 H 643.179 -7.49221 2.15146 0
M  V30 6638 N 647.408 -1.11026 -1.11852 0
M  V30 6639 C 648.685 -0.768347 -1.79877 0
M  V30 6640 C 649.065 0.744261 -1.97545 0
M  V30 6641 O 648.413 1.67271 -1.55669 0
M  V30 6642 C 648.623 -1.52648 -3.13846 0
M  V30 6643 C 649.971 -1.70297 -3.88953 0
M  V30 6644 O 650.995 -1.49037 -3.23522 0
M  V30 6645 O 649.854 -2.05593 -5.06353 0
M  V30 6646 H 646.948 -0.277891 -0.778913 0
M  V30 6647 H 649.494 -1.21343 -1.18633 0
M  V30 6648 H 648.266 -2.55564 -2.96315 0
M  V30 6649 H 647.889 -1.07466 -3.82801 0
M  V30 6650 N 648.886 1.2938 -0.899927 0
M  V30 6651 C 649.833 2.27713 -0.376243 0
M  V30 6652 C 650.803 1.57016 0.541774 0
M  V30 6653 O 651.988 1.84997 0.466966 0
M  V30 6654 C 649.128 3.42889 0.39 0
M  V30 6655 C 648.241 4.28369 -0.558938 0
M  V30 6656 C 647.376 5.30726 0.224379 0
M  V30 6657 C 646.415 6.07862 -0.719068 0
M  V30 6658 N 645.552 7.02094 0.0298569 0
M  V30 6659 H 650.392 2.71888 -1.21988 0
M  V30 6660 H 647.929 1.33724 -0.612879 0
M  V30 6661 H 649.887 4.08443 0.850314 0
M  V30 6662 H 648.517 2.99743 1.19809 0
M  V30 6663 H 647.569 3.62986 -1.13777 0
M  V30 6664 H 648.881 4.82068 -1.2811 0
M  V30 6665 H 648.035 6.02098 0.745881 0
M  V30 6666 H 646.774 4.77759 0.979674 0
M  V30 6667 H 645.779 5.35353 -1.25207 0
M  V30 6668 H 647.004 6.62917 -1.4737 0
M  V30 6669 H 644.95 6.51496 0.767415 0
M  V30 6670 H 644.867 7.5335 -0.632391 0
M  V30 6671 H 646.135 7.77685 0.531615 0
M  V30 6672 N 650.364 0.662433 1.43002 0
M  V30 6673 C 651.589 0.186003 2.06564 0
M  V30 6674 C 652.014 -1.14314 1.49379 0
M  V30 6675 O 651.372 -1.70824 0.607346 0
M  V30 6676 C 651.42 0.118269 3.60406 0
M  V30 6677 O 650.524 -0.916859 4.02079 0
M  V30 6678 H 649.865 0.0990981 0.656563 0
M  V30 6679 H 652.395 0.907958 1.8335 0
M  V30 6680 H 652.405 -0.0619981 4.07953 0
M  V30 6681 H 651.08 1.08849 4.01403 0
M  V30 6682 H 649.657 -0.708635 3.66105 0
M  V30 6683 N 651.842 -1.52309 0.404946 0
M  V30 6684 C 652.772 -2.29805 -0.41376 0
M  V30 6685 C 653.753 -1.3384 -1.0498 0
M  V30 6686 O 654.938 -1.62745 -1.05961 0
M  V30 6687 C 652.068 -3.11639 -1.53292 0
M  V30 6688 C 651.022 -4.15616 -1.02211 0
M  V30 6689 C 650.348 -4.8577 -2.23455 0
M  V30 6690 C 651.648 -5.2224 -0.0790725 0
M  V30 6691 H 653.342 -2.98493 0.232878 0
M  V30 6692 H 650.888 -1.43552 0.113441 0
M  V30 6693 H 652.841 -3.64618 -2.11262 0
M  V30 6694 H 651.565 -2.40712 -2.20738 0
M  V30 6695 H 650.224 -3.63641 -0.46484 0
M  V30 6696 H 649.872 -4.11376 -2.89445 0
M  V30 6697 H 649.572 -5.56058 -1.89929 0
M  V30 6698 H 651.096 -5.4156 -2.82038 0
M  V30 6699 H 652.51 -5.70485 -0.567438 0
M  V30 6700 H 650.907 -5.99867 0.167167 0
M  V30 6701 H 651.977 -4.77078 0.867447 0
M  V30 6702 N 653.32 -0.135238 -1.57019 0
M  V30 6703 C 654.566 0.519563 -1.96032 0
M  V30 6704 C 654.899 1.65284 -1.01955 0
M  V30 6705 O 654.174 1.94408 -0.059727 0
M  V30 6706 C 654.457 1.0369 -3.44848 0
M  V30 6707 C 654.31 -0.0940754 -4.49702 0
M  V30 6708 C 655.629 1.92254 -3.95887 0
M  V30 6709 H 652.748 0.18739 -0.712779 0
M  V30 6710 H 655.39 -0.214086 -1.8879 0
M  V30 6711 H 653.54 1.66209 -3.5115 0
M  V30 6712 H 655.212 -0.73 -4.55487 0
M  V30 6713 H 653.455 -0.754924 -4.27181 0
M  V30 6714 H 654.126 0.309419 -5.51132 0
M  V30 6715 H 656.602 1.39581 -3.9199 0
M  V30 6716 H 655.478 2.25364 -5.00502 0
M  V30 6717 H 655.739 2.85513 -3.37543 0
M  V30 6718 N 654.798 1.5699 0.138552 0
M  V30 6719 C 656.026 1.87976 0.864437 0
M  V30 6720 C 656.441 0.724372 1.74351 0
M  V30 6721 O 655.798 -0.305575 1.79924 0
M  V30 6722 C 655.849 3.18276 1.71414 0
M  V30 6723 O 655.57 4.29365 0.870487 0
M  V30 6724 C 657.071 3.62834 2.54688 0
M  V30 6725 H 654.291 0.622878 0.249528 0
M  V30 6726 H 656.835 2.04094 0.128805 0
M  V30 6727 H 654.99 3.03886 2.40274 0
M  V30 6728 H 655.404 5.03924 1.45466 0
M  V30 6729 H 656.878 4.5682 3.0987 0
M  V30 6730 H 657.355 2.88533 3.31127 0
M  V30 6731 H 657.961 3.79946 1.91105 0
M  V30 6732 N 656.276 -0.40816 1.52223 0
M  V30 6733 C 657.522 -1.15673 1.66576 0
M  V30 6734 C 657.855 -1.90141 0.394996 0
M  V30 6735 O 657.13 -1.84798 -0.606613 0
M  V30 6736 C 657.413 -2.15042 2.88841 0
M  V30 6737 C 657.266 -1.44465 4.25969 0
M  V30 6738 C 658.585 -3.15699 3.0663 0
M  V30 6739 H 655.704 -0.41916 0.606196 0
M  V30 6740 H 658.346 -0.442348 1.84779 0
M  V30 6741 H 656.496 -2.75964 2.73452 0
M  V30 6742 H 658.168 -0.866544 4.53088 0
M  V30 6743 H 656.411 -0.746612 4.27327 0
M  V30 6744 H 657.082 -2.16976 5.07568 0
M  V30 6745 H 659.558 -2.64854 3.20923 0
M  V30 6746 H 658.434 -3.82491 3.9369 0
M  V30 6747 H 658.695 -3.83481 2.19987 0
M  V30 6748 N 657.755 -1.42862 -0.66545 0
M  V30 6749 C 658.665 -1.49491 -1.80803 0
M  V30 6750 C 659.681 -0.382914 -1.69734 0
M  V30 6751 O 660.857 -0.635223 -1.9112 0
M  V30 6752 C 657.922 -1.40383 -3.17007 0
M  V30 6753 C 656.983 -2.62152 -3.39963 0
M  V30 6754 C 656.216 -2.53469 -4.69669 0
M  V30 6755 O 656.439 -1.57568 -5.48205 0
M  V30 6756 O 655.373 -3.43763 -4.94075 0
M  V30 6757 H 659.199 -2.45949 -1.78165 0
M  V30 6758 H 656.784 -1.24728 -0.822387 0
M  V30 6759 H 658.666 -1.377 -3.98267 0
M  V30 6760 H 657.341 -0.470546 -3.20262 0
M  V30 6761 H 656.248 -2.70409 -2.58515 0
M  V30 6762 H 657.581 -3.54411 -3.41546 0
M  V30 6763 N 659.233 0.902656 -1.29189 0
M  V30 6764 C 660.461 1.68639 -1.19869 0
M  V30 6765 C 660.876 1.87254 0.241121 0
M  V30 6766 O 660.233 1.40745 1.16177 0
M  V30 6767 C 660.284 3.07251 -1.90471 0
M  V30 6768 O 660.005 2.89488 -3.28829 0
M  V30 6769 C 661.506 4.01653 -1.8759 0
M  V30 6770 H 658.726 0.526802 -0.415596 0
M  V30 6771 H 661.27 1.12901 -1.7051 0
M  V30 6772 H 659.425 3.59774 -1.43672 0
M  V30 6773 H 659.839 3.77296 -3.64346 0
M  V30 6774 H 661.313 4.96339 -2.4156 0
M  V30 6775 H 661.79 4.30881 -0.850756 0
M  V30 6776 H 662.396 3.55061 -2.34119 0
M  V30 6777 N 660.711 1.11618 1.11262 0
M  V30 6778 C 661.988 0.777876 1.79467 0
M  V30 6779 C 662.368 -0.733774 1.97937 0
M  V30 6780 O 661.716 -1.66443 1.56554 0
M  V30 6781 C 661.926 1.5431 3.13032 0
M  V30 6782 C 663.274 1.72357 3.88044 0
M  V30 6783 O 664.298 1.5075 3.22727 0
M  V30 6784 O 663.157 2.08276 5.05256 0
M  V30 6785 H 660.251 0.282018 0.777428 0
M  V30 6786 H 662.797 1.21971 1.17988 0
M  V30 6787 H 661.569 2.57132 2.94956 0
M  V30 6788 H 661.192 1.09495 3.82226 0
M  V30 6789 N 662.189 -1.289 0.906776 0
M  V30 6790 C 663.152 -2.25777 0.394656 0
M  V30 6791 C 664.152 -1.53621 -0.475119 0
M  V30 6792 O 665.342 -1.71949 -0.279165 0
M  V30 6793 C 662.474 -3.38113 -0.43499 0
M  V30 6794 H 663.667 -2.72592 1.25033 0
M  V30 6795 H 661.22 -1.40463 0.685547 0
M  V30 6796 H 661.955 -2.96648 -1.31036 0
M  V30 6797 H 661.74 -3.91647 0.188334 0
M  V30 6798 H 663.23 -4.10168 -0.784365 0
M  V30 6799 N 663.667 -0.670007 -1.42649 0
M  V30 6800 C 664.617 0.0339546 -2.27975 0
M  V30 6801 C 665.601 0.778295 -1.40824 0
M  V30 6802 O 666.793 0.657997 -1.64315 0
M  V30 6803 C 663.922 0.987899 -3.28779 0
M  V30 6804 C 663.008 0.241153 -4.23414 0
M  V30 6805 N 663.399 -0.751392 -5.00188 0
M  V30 6806 C 661.697 0.480269 -4.43407 0
M  V30 6807 C 662.398 -1.19615 -5.69269 0
M  V30 6808 N 661.374 -0.527045 -5.41039 0
M  V30 6809 H 665.176 -0.727425 -2.84756 0
M  V30 6810 H 662.69 -0.498673 -1.54554 0
M  V30 6811 H 664.687 1.50716 -3.88703 0
M  V30 6812 H 663.347 1.74916 -2.73559 0
M  V30 6813 H 664.358 -1.13075 -5.05405 0
M  V30 6814 H 661.035 1.2214 -3.99234 0
M  V30 6815 H 662.425 -2.01836 -6.40868 0
M  V30 6816 N 665.145 1.52092 -0.413018 0
M  V30 6817 C 666.393 2.01456 0.161178 0
M  V30 6818 C 666.714 1.30034 1.45314 0
M  V30 6819 O 665.984 0.427435 1.9118 0
M  V30 6820 H 664.564 0.744376 0.0625526 0
M  V30 6821 H 667.226 1.86974 -0.550151 0
M  V30 6822 H 666.322 3.1008 0.354517 0
M  V30 6823 N 666.623 0.143563 1.56945 0
M  V30 6824 C 667.848 -0.518701 2.00809 0
M  V30 6825 C 668.273 -1.5785 1.02298 0
M  V30 6826 O 667.631 -1.813 -0.0017839 0
M  V30 6827 C 667.679 -1.09929 3.43436 0
M  V30 6828 O 666.783 -2.21425 3.47915 0
M  V30 6829 H 666.124 -0.127215 0.6517 0
M  V30 6830 H 668.654 0.239283 2.03196 0
M  V30 6831 H 668.664 -1.4288 3.82164 0
M  V30 6832 H 667.339 -0.323162 4.14643 0
M  V30 6833 H 665.916 -1.89728 3.21026 0
M  V30 6834 N 668.101 -1.57061 -0.130224 0
M  V30 6835 C 669.348 -1.84257 -0.839972 0
M  V30 6836 C 669.676 -0.726986 -1.80403 0
M  V30 6837 O 668.931 0.282632 -1.93648 0
M  V30 6838 C 669.23 -3.17878 -1.63365 0
M  V30 6839 C 668.896 -4.43475 -0.814891 0
M  V30 6840 C 667.558 -4.77581 -0.589066 0
M  V30 6841 C 669.91 -5.20631 -0.243437 0
M  V30 6842 C 667.238 -5.86292 0.218648 0
M  V30 6843 C 669.59 -6.30192 0.551408 0
M  V30 6844 C 668.254 -6.62837 0.787653 0
M  V30 6845 H 667.524 -0.674245 -0.307367 0
M  V30 6846 H 670.171 -1.91224 -0.102832 0
M  V30 6847 H 668.476 -3.06437 -2.44138 0
M  V30 6848 H 670.173 -3.3614 -2.18658 0
M  V30 6849 H 666.763 -4.16747 -1.00098 0
M  V30 6850 H 670.947 -4.94644 -0.405145 0
M  V30 6851 H 666.203 -6.10017 0.411016 0
M  V30 6852 H 670.377 -6.89165 1.00126 0
M  V30 6853 H 668.004 -7.46908 1.41537 0
M  V30 6854 N 669.579 0.400081 -1.52437 0
M  V30 6855 C 670.819 1.15526 -1.68622 0
M  V30 6856 C 671.183 1.87533 -0.411744 0
M  V30 6857 O 672.384 2.6501 -0.449804 0
M  V30 6858 C 670.655 2.11618 -2.88015 0
M  V30 6859 S 672.214 2.95121 -3.24729 0
M  V30 6860 H 669.032 0.39123 -0.593683 0
M  V30 6861 H 671.634 0.441255 -1.90455 0
M  V30 6862 H 670.338 1.5742 -3.79008 0
M  V30 6863 H 669.869 2.87544 -2.68481 0
M  V30 6864 H 671.884 4.13653 -2.74055 0
M  V30 6865 N 671.057 1.43213 0.657864 0
M  V30 6866 C 672.304 1.44584 1.41781 0
M  V30 6867 C 672.632 0.0684208 1.9438 0
M  V30 6868 O 671.887 -0.925872 1.72413 0
M  V30 6869 C 672.186 2.43143 2.61947 0
M  V30 6870 C 671.852 3.89128 2.27794 0
M  V30 6871 C 670.514 4.28889 2.18191 0
M  V30 6872 C 672.866 4.81144 2.00375 0
M  V30 6873 C 670.194 5.58625 1.79319 0
M  V30 6874 C 672.546 6.11239 1.63003 0
M  V30 6875 C 671.21 6.49981 1.51922 0
M  V30 6876 H 670.48 0.529069 0.518813 0
M  V30 6877 H 673.127 1.76263 0.748577 0
M  V30 6878 H 671.432 2.04851 3.33981 0
M  V30 6879 H 673.129 2.4146 3.20153 0
M  V30 6880 H 669.719 3.57657 2.36176 0
M  V30 6881 H 673.903 4.512 2.06718 0
M  V30 6882 H 669.159 5.87486 1.69323 0
M  V30 6883 H 673.333 6.82014 1.40817 0
M  V30 6884 H 670.96 7.50416 1.21572 0
M  V30 6885 N 672.536 -0.895792 1.29666 0
M  V30 6886 C 673.483 -2.00035 1.15129 0
M  V30 6887 C 674.453 -1.66043 0.0435819 0
M  V30 6888 O 675.638 -1.89621 0.211811 0
M  V30 6889 C 672.778 -3.34774 0.83787 0
M  V30 6890 C 671.891 -3.81525 2.0264 0
M  V30 6891 C 671.026 -5.04858 1.65201 0
M  V30 6892 C 670.065 -5.43988 2.80612 0
M  V30 6893 N 669.202 -6.58507 2.43544 0
M  V30 6894 H 674.042 -2.11802 2.09628 0
M  V30 6895 H 671.579 -1.03719 1.04311 0
M  V30 6896 H 673.537 -4.12311 0.636824 0
M  V30 6897 H 672.167 -3.22724 -0.0702314 0
M  V30 6898 H 671.219 -2.9999 2.33903 0
M  V30 6899 H 672.531 -4.06472 2.89106 0
M  V30 6900 H 671.685 -5.8999 1.41408 0
M  V30 6901 H 670.424 -4.81759 0.758893 0
M  V30 6902 H 669.429 -4.57388 3.05083 0
M  V30 6903 H 670.654 -5.69066 3.70595 0
M  V30 6904 H 668.6 -6.37004 1.56724 0
M  V30 6905 H 668.517 -6.83269 3.23542 0
M  V30 6906 H 669.785 -7.46897 2.2308 0
M  V30 6907 N 674.014 -1.12206 -1.10668 0
M  V30 6908 C 674.977 -0.790867 -2.15123 0
M  V30 6909 C 675.977 0.193618 -1.5963 0
M  V30 6910 O 677.167 -0.0318728 -1.74171 0
M  V30 6911 C 674.299 -0.174797 -3.40452 0
M  V30 6912 H 675.492 -1.7163 -2.45933 0
M  V30 6913 H 673.045 -0.924993 -1.2599 0
M  V30 6914 H 673.78 0.760478 -3.15257 0
M  V30 6915 H 673.565 -0.88358 -3.82015 0
M  V30 6916 H 675.055 0.0405162 -4.1758 0
M  V30 6917 N 675.492 1.28418 -0.913599 0
M  V30 6918 C 676.439 2.27301 -0.400373 0
M  V30 6919 C 677.409 1.57582 0.52509 0
M  V30 6920 O 678.594 1.85482 0.447318 0
M  V30 6921 C 675.734 3.43284 0.35361 0
M  V30 6922 C 674.847 4.27752 -0.604341 0
M  V30 6923 C 673.982 5.30934 0.168075 0
M  V30 6924 C 673.021 6.07065 -0.783499 0
M  V30 6925 N 672.158 7.02086 -0.0446112 0
M  V30 6926 H 676.998 2.70579 -1.24865 0
M  V30 6927 H 674.535 1.33067 -0.627028 0
M  V30 6928 H 676.493 4.09322 0.806945 0
M  V30 6929 H 675.123 3.00997 1.16623 0
M  V30 6930 H 674.175 3.61759 -1.17621 0
M  V30 6931 H 675.487 4.80682 -1.33216 0
M  V30 6932 H 674.641 6.02855 0.681979 0
M  V30 6933 H 673.38 4.78771 0.928947 0
M  V30 6934 H 672.385 5.33995 -1.30878 0
M  V30 6935 H 673.61 6.61317 -1.54392 0
M  V30 6936 H 671.556 6.52273 0.698272 0
M  V30 6937 H 671.473 7.52637 -0.712258 0
M  V30 6938 H 672.741 7.78205 0.449102 0
M  V30 6939 N 676.97 0.677563 1.42291 0
M  V30 6940 C 678.381 0.277912 1.8462 0
M  V30 6941 C 678.732 -1.18048 1.56714 0
M  V30 6942 O 677.857 -1.90404 1.02836 0
M  V30 6943 C 678.452 0.497619 3.35126 0
M  V30 6944 C 677.011 0.152063 3.76093 0
M  V30 6945 C 676.158 0.78872 2.65847 0
M  V30 6946 H 679.109 0.879527 1.32098 0
M  V30 6947 H 679.13 -0.24939 3.79682 0
M  V30 6948 H 678.642 1.55913 3.55405 0
M  V30 6949 H 676.743 -0.905896 3.6142 0
M  V30 6950 H 676.856 0.594514 4.75397 0
M  V30 6951 H 675.22 0.219813 2.5375 0
M  V30 6952 H 676.003 1.85374 2.88949 0
M  V30 6953 N 678.448 -1.51871 0.421078 0
M  V30 6954 C 679.696 -2.01539 -0.150492 0
M  V30 6955 C 680.017 -1.30803 -1.44623 0
M  V30 6956 O 679.287 -0.437568 -1.90951 0
M  V30 6957 H 677.867 -0.744698 -0.0586041 0
M  V30 6958 H 680.529 -1.8668 0.560059 0
M  V30 6959 H 679.625 -3.10264 -0.338068 0
M  V30 6960 N 679.926 -0.151884 -1.56866 0
M  V30 6961 C 681.154 0.504813 -2.00647 0
M  V30 6962 C 681.569 1.58098 -1.03201 0
M  V30 6963 O 680.926 1.82476 -0.0297814 0
M  V30 6964 C 680.977 1.10099 -3.44326 0
M  V30 6965 O 680.698 0.0678021 -4.38048 0
M  V30 6966 C 682.199 1.83782 -4.03409 0
M  V30 6967 H 679.419 0.130989 -0.65809 0
M  V30 6968 H 681.963 -0.247903 -2.02992 0
M  V30 6969 H 680.118 1.8043 -3.42817 0
M  V30 6970 H 680.532 0.505237 -5.22061 0
M  V30 6971 H 682.006 2.2078 -5.05925 0
M  V30 6972 H 682.483 2.72557 -3.44397 0
M  V30 6973 H 683.089 1.18138 -4.08563 0
M  V30 6974 N 681.404 1.57128 0.121893 0
M  V30 6975 C 682.634 1.88609 0.843227 0
M  V30 6976 C 683.042 0.740917 1.74089 0
M  V30 6977 O 682.385 -0.297426 1.81276 0
M  V30 6978 C 682.447 3.15073 1.73117 0
M  V30 6979 C 682.111 4.45742 1.0081 0
M  V30 6980 C 683.108 5.18719 0.350255 0
M  V30 6981 C 680.793 4.92444 0.99014 0
M  V30 6982 C 682.787 6.36617 -0.315889 0
M  V30 6983 C 680.474 6.10261 0.320196 0
M  V30 6984 C 681.472 6.82194 -0.331666 0
M  V30 6985 O 681.16 7.97769 -0.990927 0
M  V30 6986 H 680.892 0.628919 0.247865 0
M  V30 6987 H 683.446 2.05096 0.111725 0
M  V30 6988 H 681.676 2.9466 2.50424 0
M  V30 6989 H 683.365 3.32597 2.32667 0
M  V30 6990 H 684.131 4.83693 0.35577 0
M  V30 6991 H 680.01 4.36361 1.48695 0
M  V30 6992 H 683.554 6.92701 -0.825272 0
M  V30 6993 H 679.451 6.44743 0.312433 0
M  V30 6994 H 680.219 8.13591 -0.895113 0
M  V30 6995 N 682.882 -0.391992 1.52647 0
M  V30 6996 C 683.829 -1.47866 1.77213 0
M  V30 6997 C 684.799 -1.54286 0.615223 0
M  V30 6998 O 685.984 -1.7059 0.854622 0
M  V30 6999 C 683.124 -2.85129 1.94411 0
M  V30 7000 C 682.237 -2.87883 3.22098 0
M  V30 7001 C 681.372 -4.16553 3.29631 0
M  V30 7002 C 680.411 -4.13348 4.51453 0
M  V30 7003 N 679.548 -5.33619 4.56284 0
M  V30 7004 H 684.388 -1.26219 2.6995 0
M  V30 7005 H 681.925 -0.612367 1.33748 0
M  V30 7006 H 683.883 -3.64833 2.02367 0
M  V30 7007 H 682.513 -3.05232 1.05038 0
M  V30 7008 H 681.565 -2.00567 3.23229 0
M  V30 7009 H 682.877 -2.81382 4.11856 0
M  V30 7010 H 682.031 -5.0466 3.36753 0
M  V30 7011 H 680.77 -4.25773 2.37842 0
M  V30 7012 H 679.775 -3.23629 4.44459 0
M  V30 7013 H 681 -4.05754 5.44555 0
M  V30 7014 H 678.946 -5.43474 3.67385 0
M  V30 7015 H 678.863 -5.29182 5.3991 0
M  V30 7016 H 680.131 -6.23632 4.67657 0
M  V30 7017 N 684.36 -1.4356 -0.65026 0
M  V30 7018 C 685.606 -1.45549 -1.41221 0
M  V30 7019 C 685.939 -0.0805472 -1.94033 0
M  V30 7020 O 685.214 0.899043 -1.72475 0
M  V30 7021 C 685.497 -2.50028 -2.59148 0
M  V30 7022 C 685.35 -3.96808 -2.1181 0
M  V30 7023 C 686.669 -2.51212 -3.61359 0
M  V30 7024 H 683.788 -0.529967 -0.512156 0
M  V30 7025 H 686.43 -1.75127 -0.736933 0
M  V30 7026 H 684.58 -2.24937 -3.16758 0
M  V30 7027 H 686.252 -4.32966 -1.59178 0
M  V30 7028 H 684.495 -4.09498 -1.43156 0
M  V30 7029 H 685.166 -4.6553 -2.96625 0
M  V30 7030 H 687.642 -2.73583 -3.13515 0
M  V30 7031 H 686.518 -3.26252 -4.41419 0
M  V30 7032 H 686.779 -1.54701 -4.1415 0
M  V30 7033 N 685.838 0.888903 -1.30139 0
M  V30 7034 C 686.77 1.99972 -1.11999 0
M  V30 7035 C 687.783 1.62673 -0.0643619 0
M  V30 7036 O 688.972 1.75788 -0.309983 0
M  V30 7037 C 686.072 3.31904 -0.685059 0
M  V30 7038 C 685.245 3.97665 -1.82158 0
M  V30 7039 C 684.304 5.07894 -1.37585 0
M  V30 7040 O 683.33 5.2974 -2.08241 0
M  V30 7041 N 684.532 5.7995 -0.252697 0
M  V30 7042 H 687.297 2.16085 -2.07671 0
M  V30 7043 H 684.858 1.06175 -1.22223 0
M  V30 7044 H 686.85 4.03005 -0.369964 0
M  V30 7045 H 685.42 3.12084 0.179507 0
M  V30 7046 H 684.64 3.19787 -2.305 0
M  V30 7047 H 685.928 4.3834 -2.58332 0
M  V30 7048 H 685.326 5.647 0.336141 0
M  V30 7049 H 683.883 6.518 0.00296813 0
M  V30 7050 N 687.317 1.12792 1.10072 0
M  V30 7051 C 688.563 0.886857 1.82381 0
M  V30 7052 C 688.896 -0.58576 1.85155 0
M  V30 7053 O 688.171 -1.43317 1.31493 0
M  V30 7054 C 688.454 1.46703 3.28862 0
M  V30 7055 C 688.307 3.00829 3.34398 0
M  V30 7056 C 689.626 1.12971 4.25353 0
M  V30 7057 H 686.745 0.32362 0.662148 0
M  V30 7058 H 689.387 1.39513 1.28982 0
M  V30 7059 H 687.537 1.03476 3.74466 0
M  V30 7060 H 689.209 3.52764 2.97247 0
M  V30 7061 H 687.452 3.36164 2.74183 0
M  V30 7062 H 688.123 3.36519 4.3756 0
M  V30 7063 H 690.599 1.50313 3.88001 0
M  V30 7064 H 689.475 1.56223 5.26199 0
M  V30 7065 H 689.736 0.0424452 4.4208 0
M  V30 7066 N 688.795 -1.27931 0.920396 0
M  V30 7067 C 689.728 -2.2537 0.358285 0
M  V30 7068 C 690.706 -1.53328 -0.541242 0
M  V30 7069 O 691.89 -1.82196 -0.483399 0
M  V30 7070 C 689.017 -3.35178 -0.487193 0
M  V30 7071 C 688.063 -4.25079 0.347881 0
M  V30 7072 S 688.896 -5.05792 1.75883 0
M  V30 7073 C 690.052 -6.19089 0.920832 0
M  V30 7074 H 690.285 -2.72701 1.18413 0
M  V30 7075 H 687.818 -1.36474 0.722088 0
M  V30 7076 H 689.776 -3.98895 -0.96916 0
M  V30 7077 H 688.437 -2.865 -1.28749 0
M  V30 7078 H 687.63 -5.03113 -0.298912 0
M  V30 7079 H 687.232 -3.66119 0.763748 0
M  V30 7080 H 689.524 -6.77326 0.15349 0
M  V30 7081 H 690.467 -6.8803 1.67394 0
M  V30 7082 H 690.875 -5.62573 0.466069 0
M  V30 7083 N 690.273 -0.685099 -1.4193 0
M  V30 7084 C 691.519 -0.211971 -2.01689 0
M  V30 7085 C 691.852 1.18189 -1.54094 0
M  V30 7086 O 691.127 1.79559 -0.747572 0
M  V30 7087 C 691.41 -0.258019 -3.59174 0
M  V30 7088 C 691.263 -1.68807 -4.16922 0
M  V30 7089 C 692.582 0.388044 -4.38386 0
M  V30 7090 H 689.701 -0.0784987 -0.732808 0
M  V30 7091 H 692.343 -0.871837 -1.68816 0
M  V30 7092 H 690.493 0.303832 -3.8731 0
M  V30 7093 H 692.165 -2.30296 -3.99702 0
M  V30 7094 H 690.408 -2.22553 -3.72361 0
M  V30 7095 H 691.079 -1.6719 -5.26072 0
M  V30 7096 H 693.555 -0.0903432 -4.16002 0
M  V30 7097 H 692.431 0.325232 -5.47936 0
M  V30 7098 H 692.692 1.4672 -4.17044 0
M  V30 7099 N 691.751 1.51645 -0.429126 0
M  V30 7100 C 693.162 1.86665 0.0359003 0
M  V30 7101 C 693.513 1.34677 1.42676 0
M  V30 7102 O 692.638 0.694195 2.04963 0
M  V30 7103 C 693.233 3.38724 0.0719221 0
M  V30 7104 C 691.792 3.7331 0.481336 0
M  V30 7105 C 690.939 2.75313 -0.331329 0
M  V30 7106 H 693.89 1.44987 -0.645333 0
M  V30 7107 H 693.911 3.7011 0.883118 0
M  V30 7108 H 693.423 3.76532 -0.940495 0
M  V30 7109 H 691.524 3.41088 1.49966 0
M  V30 7110 H 691.637 4.78631 0.211837 0
M  V30 7111 H 690.001 2.53839 0.209204 0
M  V30 7112 H 690.784 3.15963 -1.34247 0
M  V30 7113 N 693.229 0.160201 1.56784 0
M  V30 7114 C 694.139 -0.787167 2.21 0
M  V30 7115 C 695.155 -1.26167 1.19825 0
M  V30 7116 O 696.331 -1.31611 1.52448 0
M  V30 7117 C 693.396 -2.00364 2.8294 0
M  V30 7118 C 692.457 -1.5771 3.99282 0
M  V30 7119 C 691.69 -2.73558 4.58259 0
M  V30 7120 O 691.913 -3.90129 4.16119 0
M  V30 7121 O 690.847 -2.48271 5.48311 0
M  V30 7122 H 694.673 -0.270462 3.02493 0
M  V30 7123 H 692.258 -0.0674666 1.49248 0
M  V30 7124 H 694.14 -2.71529 3.22257 0
M  V30 7125 H 692.815 -2.50961 2.04451 0
M  V30 7126 H 691.722 -0.835274 3.64656 0
M  V30 7127 H 693.055 -1.11815 4.79331 0
M  V30 7128 N 694.707 -1.5719 -0.113559 0
M  V30 7129 C 695.67 -1.99796 -1.12314 0
M  V30 7130 C 696.67 -0.888847 -1.34001 0
M  V30 7131 O 697.86 -1.15476 -1.30426 0
M  V30 7132 C 694.992 -2.34279 -2.47641 0
M  V30 7133 H 696.185 -2.90193 -0.756825 0
M  V30 7134 H 693.738 -1.52144 -0.358029 0
M  V30 7135 H 694.473 -1.46778 -2.89183 0
M  V30 7136 H 694.258 -3.15175 -2.33253 0
M  V30 7137 H 695.748 -2.67963 -3.2029 0
M  V30 7138 N 696.185 0.383891 -1.52853 0
M  V30 7139 C 697.095 1.49343 -1.80925 0
M  V30 7140 C 698.111 1.59458 -0.696348 0
M  V30 7141 O 699.287 1.75698 -0.984481 0
M  V30 7142 C 696.352 2.84819 -1.97684 0
M  V30 7143 C 695.413 2.84382 -3.21598 0
M  V30 7144 C 694.646 4.13397 -3.37548 0
M  V30 7145 O 694.869 5.08619 -2.58192 0
M  V30 7146 O 693.803 4.20325 -4.30826 0
M  V30 7147 H 697.629 1.2855 -2.75152 0
M  V30 7148 H 695.214 0.572229 -1.38007 0
M  V30 7149 H 697.096 3.65125 -2.10385 0
M  V30 7150 H 695.771 3.05627 -1.06647 0
M  V30 7151 H 694.678 2.0284 -3.14336 0
M  V30 7152 H 696.011 2.68526 -4.12498 0
M  V30 7153 N 697.663 1.43903 0.642637 0
M  V30 7154 C 698.891 1.4954 1.42988 0
M  V30 7155 C 699.306 0.116588 1.8844 0
M  V30 7156 O 698.663 -0.875285 1.60141 0
M  V30 7157 C 698.714 2.45031 2.65785 0
M  V30 7158 O 698.435 3.77551 2.22232 0
M  V30 7159 C 699.936 2.60017 3.59035 0
M  V30 7160 H 697.156 0.507544 0.438907 0
M  V30 7161 H 699.7 1.88752 0.786942 0
M  V30 7162 H 697.855 2.08985 3.26196 0
M  V30 7163 H 698.269 4.29001 3.01759 0
M  V30 7164 H 699.743 3.30887 4.41835 0
M  V30 7165 H 700.22 1.64861 4.07084 0
M  V30 7166 H 700.826 2.96918 3.045 0
M  V30 7167 N 699.141 -0.881989 1.30609 0
M  V30 7168 C 700.557 -1.16576 1.09005 0
M  V30 7169 C 700.757 -2.00961 -0.14727 0
M  V30 7170 O 699.813 -2.38117 -0.840036 0
M  V30 7171 C 701.126 -1.86954 2.35518 0
M  V30 7172 C 702.674 -1.99706 2.41011 0
M  V30 7173 C 703.149 -2.73497 3.67374 0
M  V30 7174 N 704.64 -2.8104 3.68199 0
M  V30 7175 C 705.375 -3.38718 4.62664 0
M  V30 7176 N 704.871 -3.97421 5.67475 0
M  V30 7177 N 706.664 -3.36561 4.50203 0
M  V30 7178 H 698.815 -0.319398 2.09985 0
M  V30 7179 H 701.078 -0.204058 0.925778 0
M  V30 7180 H 700.784 -1.32393 3.2583 0
M  V30 7181 H 700.658 -2.87317 2.44395 0
M  V30 7182 H 703.045 -2.53436 1.51176 0
M  V30 7183 H 703.126 -0.984218 2.36108 0
M  V30 7184 H 702.77 -2.20438 4.57569 0
M  V30 7185 H 702.7 -3.75163 3.6954 0
M  V30 7186 H 705.191 -2.39365 2.92426 0
M  V30 7187 H 705.504 -4.39507 6.35652 0
M  V30 7188 H 703.849 -3.95832 5.71264 0
M  V30 7189 H 707.04 -2.8993 3.67503 0
M  V30 7190 H 707.213 -3.81215 5.24003 0
M  V30 7191 N 700.619 -1.13374 -1.09472 0
M  V30 7192 C 701.582 -0.813639 -2.14272 0
M  V30 7193 C 702.582 0.176677 -1.59826 0
M  V30 7194 O 703.772 -0.0503441 -1.74127 0
M  V30 7195 C 700.904 -0.210897 -3.40247 0
M  V30 7196 H 702.097 -1.74229 -2.44099 0
M  V30 7197 H 699.65 -0.938304 -1.25002 0
M  V30 7198 H 700.385 0.726998 -3.16046 0
M  V30 7199 H 700.17 -0.924048 -3.81056 0
M  V30 7200 H 701.66 -0.00377603 -4.176 0
M  V30 7201 N 702.098 1.27442 -0.927168 0
M  V30 7202 C 703.346 1.94007 -0.566203 0
M  V30 7203 C 703.667 1.7323 0.895345 0
M  V30 7204 O 702.937 1.07973 1.63459 0
M  V30 7205 H 701.517 0.717917 -0.206409 0
M  V30 7206 H 704.179 1.55161 -1.17945 0
M  V30 7207 H 703.275 3.02401 -0.772028 0
M  V30 7208 N 703.576 0.692616 1.41565 0
M  V30 7209 C 704.506 0.0397325 2.33466 0
M  V30 7210 C 705.487 -0.770334 1.51657 0
M  V30 7211 O 706.672 -0.723903 1.80203 0
M  V30 7212 C 703.802 -0.899495 3.3545 0
M  V30 7213 C 702.756 -0.196738 4.27548 0
M  V30 7214 C 702.082 -1.25012 5.19881 0
M  V30 7215 C 703.382 0.935158 5.1386 0
M  V30 7216 H 705.076 0.807296 2.88311 0
M  V30 7217 H 702.622 0.389665 1.38628 0
M  V30 7218 H 704.575 -1.36545 3.98665 0
M  V30 7219 H 703.299 -1.69869 2.78948 0
M  V30 7220 H 701.958 0.249158 3.65752 0
M  V30 7221 H 701.606 -2.04177 4.59696 0
M  V30 7222 H 701.306 -0.784931 5.82334 0
M  V30 7223 H 702.83 -1.71665 5.85972 0
M  V30 7224 H 704.244 0.549619 5.70659 0
M  V30 7225 H 702.641 1.32726 5.85238 0
M  V30 7226 H 703.711 1.77613 4.512 0
M  V30 7227 N 705.054 -1.51416 0.437162 0
M  V30 7228 C 706.282 -2.06503 -0.128045 0
M  V30 7229 C 706.697 -1.30461 -1.36475 0
M  V30 7230 O 706.054 -0.364127 -1.78831 0
M  V30 7231 C 706.105 -3.58683 -0.450437 0
M  V30 7232 O 705.826 -4.31853 0.737186 0
M  V30 7233 C 707.327 -4.30284 -1.06633 0
M  V30 7234 H 704.547 -0.670952 -0.00800269 0
M  V30 7235 H 707.091 -1.94996 0.616193 0
M  V30 7236 H 705.246 -3.70106 -1.14457 0
M  V30 7237 H 705.66 -5.22467 0.461347 0
M  V30 7238 H 707.134 -5.37848 -1.24191 0
M  V30 7239 H 707.611 -3.88564 -2.0473 0
M  V30 7240 H 708.217 -4.23304 -0.411585 0
M  V30 7241 N 706.532 -0.168513 -1.56696 0
M  V30 7242 C 707.462 0.758563 -2.20835 0
M  V30 7243 C 708.443 1.24121 -1.1631 0
M  V30 7244 O 709.628 1.29487 -1.4473 0
M  V30 7245 C 706.758 1.9892 -2.8469 0
M  V30 7246 C 705.712 1.64252 -3.95228 0
M  V30 7247 C 705.038 2.94757 -4.46119 0
M  V30 7248 C 706.338 0.872675 -5.14958 0
M  V30 7249 H 708.032 0.223953 -2.98561 0
M  V30 7250 H 705.578 0.106277 -1.43607 0
M  V30 7251 H 707.531 2.64275 -3.28233 0
M  V30 7252 H 706.255 2.5479 -2.04327 0
M  V30 7253 H 704.914 1.01266 -3.52336 0
M  V30 7254 H 704.562 3.48662 -3.62552 0
M  V30 7255 H 704.262 2.72316 -5.2069 0
M  V30 7256 H 705.786 3.61147 -4.92347 0
M  V30 7257 H 707.2 1.42875 -5.55211 0
M  V30 7258 H 705.597 0.747402 -5.95428 0
M  V30 7259 H 706.667 -0.131535 -4.84722 0
M  V30 7260 N 708.01 1.57248 0.105221 0
M  V30 7261 C 708.957 2.01338 1.12835 0
M  V30 7262 C 709.927 0.887897 1.40377 0
M  V30 7263 O 711.112 1.15315 1.5201 0
M  V30 7264 C 708.252 2.43432 2.44611 0
M  V30 7265 C 707.365 3.69457 2.23888 0
M  V30 7266 C 706.5 4.00473 3.48991 0
M  V30 7267 C 705.539 5.19638 3.23485 0
M  V30 7268 N 704.676 5.46457 4.40828 0
M  V30 7269 H 709.516 2.88527 0.745386 0
M  V30 7270 H 707.053 1.42714 0.356535 0
M  V30 7271 H 709.011 2.65879 3.21503 0
M  V30 7272 H 707.641 1.59266 2.80774 0
M  V30 7273 H 706.693 3.54545 1.37847 0
M  V30 7274 H 708.005 4.56497 2.01026 0
M  V30 7275 H 707.159 4.23642 4.34295 0
M  V30 7276 H 705.898 3.11935 3.74897 0
M  V30 7277 H 704.903 4.96299 2.36574 0
M  V30 7278 H 706.128 6.09766 2.98935 0
M  V30 7279 H 704.074 4.60876 4.66829 0
M  V30 7280 H 703.991 6.27849 4.2112 0
M  V30 7281 H 705.259 5.74155 5.27225 0
M  V30 7282 N 709.488 -0.375779 1.53054 0
M  V30 7283 C 710.899 -0.95309 1.6054 0
M  V30 7284 C 711.25 -1.90575 0.466446 0
M  V30 7285 O 710.375 -2.12507 -0.408609 0
M  V30 7286 C 710.97 -1.73537 2.90982 0
M  V30 7287 C 709.529 -2.26218 3.00836 0
M  V30 7288 C 708.676 -1.07157 2.55759 0
M  V30 7289 H 711.627 -0.154895 1.57942 0
M  V30 7290 H 711.648 -2.59574 2.78211 0
M  V30 7291 H 711.16 -1.04176 3.73857 0
M  V30 7292 H 709.261 -2.98852 2.22527 0
M  V30 7293 H 709.374 -2.54799 4.05727 0
M  V30 7294 H 707.738 -1.43553 2.10391 0
M  V30 7295 H 708.521 -0.393099 3.41042 0
M  V30 7296 N 710.966 -1.44241 -0.634997 0
M  V30 7297 C 711.898 -1.46793 -1.76024 0
M  V30 7298 C 712.911 -0.361781 -1.58729 0
M  V30 7299 O 714.1 -0.627297 -1.67114 0
M  V30 7300 C 711.2 -1.28248 -3.13697 0
M  V30 7301 C 710.373 -2.52038 -3.57485 0
M  V30 7302 C 709.432 -2.2845 -4.74022 0
M  V30 7303 O 708.458 -3.01915 -4.82531 0
M  V30 7304 N 709.66 -1.31264 -5.65464 0
M  V30 7305 H 712.425 -2.43797 -1.74307 0
M  V30 7306 H 709.986 -1.39631 -0.819438 0
M  V30 7307 H 711.978 -1.10321 -3.89373 0
M  V30 7308 H 710.548 -0.39623 -3.10079 0
M  V30 7309 H 709.768 -2.85268 -2.72059 0
M  V30 7310 H 711.056 -3.34382 -3.83492 0
M  V30 7311 H 710.454 -0.705817 -5.6128 0
M  V30 7312 H 709.011 -1.19316 -6.40786 0
M  V30 7313 N 712.444 0.87505 -1.31075 0
M  V30 7314 C 713.672 1.66058 -1.23419 0
M  V30 7315 C 714.087 1.87723 0.201347 0
M  V30 7316 O 713.444 1.43178 1.13165 0
M  V30 7317 C 713.495 3.03142 -1.96945 0
M  V30 7318 O 713.216 2.82448 -3.34895 0
M  V30 7319 C 714.717 3.97583 -1.96067 0
M  V30 7320 H 711.937 0.517868 -0.426677 0
M  V30 7321 H 714.481 1.09258 -1.72867 0
M  V30 7322 H 712.636 3.56645 -1.51271 0
M  V30 7323 H 713.05 3.69483 -3.72267 0
M  V30 7324 H 714.524 4.91104 -2.52034 0
M  V30 7325 H 715.001 4.2898 -0.941961 0
M  V30 7326 H 715.607 3.50015 -2.41597 0
M  V30 7327 N 713.922 1.13953 1.08869 0
M  V30 7328 C 715.169 0.90481 1.81161 0
M  V30 7329 C 715.497 -0.568824 1.85996 0
M  V30 7330 O 714.752 -1.43723 1.32823 0
M  V30 7331 C 715.051 1.44495 3.26888 0
M  V30 7332 C 714.717 2.93641 3.42178 0
M  V30 7333 C 713.379 3.34361 3.46059 0
M  V30 7334 C 715.731 3.89568 3.46246 0
M  V30 7335 C 713.059 4.69681 3.51592 0
M  V30 7336 C 715.411 5.2474 3.53314 0
M  V30 7337 C 714.075 5.64979 3.55465 0
M  V30 7338 H 713.345 0.331094 0.662916 0
M  V30 7339 H 715.992 1.42242 1.28217 0
M  V30 7340 H 714.297 0.848169 3.82509 0
M  V30 7341 H 715.994 1.23934 3.81368 0
M  V30 7342 H 712.584 2.61156 3.39846 0
M  V30 7343 H 716.768 3.59192 3.42483 0
M  V30 7344 H 712.024 5.00224 3.51547 0
M  V30 7345 H 716.198 5.98882 3.55406 0
M  V30 7346 H 713.825 6.69821 3.59505 0
M  V30 7347 N 715.4 -1.26948 0.933913 0
M  V30 7348 C 716.811 -1.76058 0.621324 0
M  V30 7349 C 717.162 -1.76175 -0.863522 0
M  V30 7350 O 716.287 -1.36921 -1.67576 0
M  V30 7351 C 716.882 -3.19713 1.12111 0
M  V30 7352 C 715.441 -3.66465 0.859074 0
M  V30 7353 C 714.588 -2.46186 1.27624 0
M  V30 7354 H 717.539 -1.13127 1.11301 0
M  V30 7355 H 717.56 -3.77566 0.471608 0
M  V30 7356 H 717.072 -3.19596 2.20182 0
M  V30 7357 H 715.173 -3.72021 -0.207566 0
M  V30 7358 H 715.286 -4.55636 1.48098 0
M  V30 7359 H 713.65 -2.45042 0.694727 0
M  V30 7360 H 714.433 -2.48774 2.36572 0
M  V30 7361 N 716.879 -0.700114 -1.41195 0
M  V30 7362 C 717.809 -0.0521132 -2.33442 0
M  V30 7363 C 718.79 0.76228 -1.52063 0
M  V30 7364 O 719.975 0.714336 -1.80585 0
M  V30 7365 C 717.105 0.881693 -3.35922 0
M  V30 7366 C 716.059 0.174062 -4.27646 0
M  V30 7367 C 715.385 1.22254 -5.20536 0
M  V30 7368 C 716.685 -0.962396 -5.13357 0
M  V30 7369 H 718.379 -0.822574 -2.87879 0
M  V30 7370 H 715.925 -0.397011 -1.38419 0
M  V30 7371 H 717.878 1.34429 -3.99383 0
M  V30 7372 H 716.602 1.68387 -2.79845 0
M  V30 7373 H 715.261 -0.268551 -3.65615 0
M  V30 7374 H 714.909 2.01736 -4.60773 0
M  V30 7375 H 714.609 0.754038 -5.82742 0
M  V30 7376 H 716.133 1.68555 -5.86874 0
M  V30 7377 H 717.547 -0.579875 -5.7036 0
M  V30 7378 H 715.944 -1.35828 -5.84526 0
M  V30 7379 H 717.014 -1.80003 -4.50252 0
M  V30 7380 N 718.357 1.51182 -0.445186 0
M  V30 7381 C 719.585 2.06568 0.117091 0
M  V30 7382 C 720 1.31182 1.35781 0
M  V30 7383 O 719.357 0.373605 1.78635 0
M  V30 7384 C 719.408 3.58917 0.431408 0
M  V30 7385 O 719.129 4.31456 -0.760078 0
M  V30 7386 C 720.63 4.30843 1.0435 0
M  V30 7387 H 717.85 0.670985 0.00444436 0
M  V30 7388 H 720.394 1.94666 -0.626525 0
M  V30 7389 H 718.549 3.70708 1.12493 0
M  V30 7390 H 718.963 5.22215 -0.489048 0
M  V30 7391 H 720.437 5.38499 1.21337 0
M  V30 7392 H 720.914 3.89644 2.02667 0
M  V30 7393 H 721.52 4.23516 0.38913 0
M  V30 7394 N 719.835 0.176821 1.56605 0
M  V30 7395 C 721.081 -0.467406 1.9734 0
M  V30 7396 C 721.414 -1.62523 1.06301 0
M  V30 7397 O 720.689 -1.94182 0.11125 0
M  V30 7398 C 720.972 -0.945106 3.47476 0
M  V30 7399 C 720.825 0.213273 4.49294 0
M  V30 7400 C 722.144 -1.8169 4.00845 0
M  V30 7401 H 719.263 -0.168426 0.717497 0
M  V30 7402 H 721.905 0.264065 1.88156 0
M  V30 7403 H 720.055 -1.56841 3.55434 0
M  V30 7404 H 721.727 0.850508 4.53392 0
M  V30 7405 H 719.97 0.867918 4.25029 0
M  V30 7406 H 720.641 -0.163187 5.51759 0
M  V30 7407 H 723.117 -1.29139 3.95553 0
M  V30 7408 H 721.993 -2.12015 5.06301 0
M  V30 7409 H 722.254 -2.76463 3.44994 0
M  V30 7410 N 721.313 -1.57302 -0.09688 0
M  V30 7411 C 722.541 -1.90202 -0.814295 0
M  V30 7412 C 722.956 -0.770344 -1.72369 0
M  V30 7413 O 722.313 0.257764 -1.8067 0
M  V30 7414 C 722.364 -3.22708 -1.62916 0
M  V30 7415 O 722.085 -4.31522 -0.756343 0
M  V30 7416 C 723.586 -3.69459 -2.44979 0
M  V30 7417 H 720.806 -0.629275 -0.232925 0
M  V30 7418 H 723.35 -2.04364 -0.0746482 0
M  V30 7419 H 721.505 -3.1015 -2.32133 0
M  V30 7420 H 721.919 -5.07604 -1.32054 0
M  V30 7421 H 723.393 -4.64875 -2.9765 0
M  V30 7422 H 723.87 -2.97211 -3.23361 0
M  V30 7423 H 724.476 -3.84879 -1.80964 0
M  V30 7424 N 722.791 0.367657 -1.53252 0
M  V30 7425 C 723.739 1.47061 -1.8021 0
M  V30 7426 C 724.733 1.55539 -0.671112 0
M  V30 7427 O 725.939 1.58451 -0.854014 0
M  V30 7428 H 722.314 0.489868 -0.570555 0
M  V30 7429 H 724.285 1.21527 -2.72532 0
M  V30 7430 C 723.034 2.83924 -2.00706 0
M  V30 7431 H 722.357 2.78158 -2.87172 0
M  V30 7432 H 723.797 3.60281 -2.23547 0
M  V30 7433 C 722.256 3.27613 -0.785568 0
M  V30 7434 O 722.786 4.01691 0.0267459 0
M  V30 7435 N 720.992 2.84134 -0.609597 0
M  V30 7436 H 720.539 2.24017 -1.27178 0
M  V30 7437 H 720.497 3.13723 0.206281 0
M  V30 7438 N 724.269 1.44576 0.627338 0
M  V30 7439 C 725.685 1.28546 0.945938 0
M  V30 7440 C 725.885 0.224003 2.00251 0
M  V30 7441 O 724.941 -0.388817 2.49488 0
M  V30 7442 C 726.254 2.65825 1.40561 0
M  V30 7443 C 727.802 2.73566 1.52088 0
M  V30 7444 C 728.277 4.11323 2.01438 0
M  V30 7445 N 729.768 4.13519 2.08702 0
M  V30 7446 C 730.503 5.16964 2.48065 0
M  V30 7447 N 729.999 6.30768 2.86538 0
M  V30 7448 N 731.792 5.04319 2.48232 0
M  V30 7449 H 723.943 2.1228 -0.0713567 0
M  V30 7450 H 726.206 0.947503 0.0307081 0
M  V30 7451 H 725.912 3.44591 0.703539 0
M  V30 7452 H 725.786 2.92969 2.37591 0
M  V30 7453 H 728.173 1.95116 2.21391 0
M  V30 7454 H 728.254 2.50159 0.534237 0
M  V30 7455 H 727.898 4.9025 1.32729 0
M  V30 7456 H 727.828 4.32109 3.0098 0
M  V30 7457 H 730.319 3.31385 1.81638 0
M  V30 7458 H 730.632 7.0551 3.15398 0
M  V30 7459 H 728.977 6.342 2.84281 0
M  V30 7460 H 732.168 4.14465 2.17569 0
M  V30 7461 H 732.341 5.85059 2.78585 0
M  V30 7462 N 725.747 -0.868086 1.31537 0
M  V30 7463 C 727.158 -1.437 1.19195 0
M  V30 7464 C 727.509 -1.95169 -0.200842 0
M  V30 7465 O 726.634 -1.86432 -1.09872 0
M  V30 7466 C 727.229 -2.612 2.15778 0
M  V30 7467 C 725.788 -3.1413 2.07363 0
M  V30 7468 C 724.935 -1.86845 2.049 0
M  V30 7469 H 727.886 -0.676457 1.43561 0
M  V30 7470 H 727.907 -3.37948 1.74847 0
M  V30 7471 H 727.419 -2.23709 3.17137 0
M  V30 7472 H 725.52 -3.56238 1.09204 0
M  V30 7473 H 725.633 -3.76285 2.96557 0
M  V30 7474 H 723.997 -2.05886 1.49943 0
M  V30 7475 H 724.78 -1.51589 3.08019 0
M  V30 7476 N 727.225 -1.14528 -1.08264 0
M  V30 7477 C 728.158 -0.777154 -2.14559 0
M  V30 7478 C 729.136 0.242165 -1.60787 0
M  V30 7479 O 730.32 0.130882 -1.88045 0
M  V30 7480 C 727.447 -0.154092 -3.38349 0
M  V30 7481 C 726.493 -1.14382 -4.10876 0
M  V30 7482 S 727.326 -2.68173 -4.63512 0
M  V30 7483 C 728.482 -2.0726 -5.90588 0
M  V30 7484 H 728.715 -1.67748 -2.45454 0
M  V30 7485 H 726.248 -0.966661 -1.20395 0
M  V30 7486 H 728.206 0.19897 -4.10018 0
M  V30 7487 H 726.867 0.723688 -3.05649 0
M  V30 7488 H 726.06 -0.655908 -4.99714 0
M  V30 7489 H 725.662 -1.44095 -3.45127 0
M  V30 7490 H 727.954 -1.42895 -6.62259 0
M  V30 7491 H 728.897 -2.94227 -6.44078 0
M  V30 7492 H 729.305 -1.51935 -5.43669 0
M  V30 7493 N 728.703 1.26451 -0.940633 0
M  V30 7494 C 729.636 2.24771 -0.394094 0
M  V30 7495 C 730.614 1.54169 0.516781 0
M  V30 7496 O 731.798 1.82942 0.454352 0
M  V30 7497 C 728.925 3.3591 0.433807 0
M  V30 7498 C 727.971 4.24472 -0.415464 0
M  V30 7499 S 728.804 5.0293 -1.83907 0
M  V30 7500 C 729.96 6.17546 -1.01921 0
M  V30 7501 H 730.193 2.70782 -1.22737 0
M  V30 7502 H 727.726 1.35308 -0.743709 0
M  V30 7503 H 729.684 4.00387 0.905576 0
M  V30 7504 H 728.345 2.88512 1.24175 0
M  V30 7505 H 727.538 5.03525 0.218833 0
M  V30 7506 H 727.14 3.64857 -0.821897 0
M  V30 7507 H 729.432 6.76996 -0.261227 0
M  V30 7508 H 730.375 6.8528 -1.78318 0
M  V30 7509 H 730.783 5.6176 -0.555511 0
M  V30 7510 N 730.181 0.707592 1.40822 0
M  V30 7511 C 731.458 0.171172 1.9485 0
M  V30 7512 C 731.838 -1.32143 1.64625 0
M  V30 7513 O 731.186 -2.07372 0.959647 0
M  V30 7514 C 731.396 0.475334 3.45748 0
M  V30 7515 C 732.744 0.409625 4.22619 0
M  V30 7516 O 733.768 0.410934 3.53822 0
M  V30 7517 O 732.627 0.380185 5.45176 0
M  V30 7518 H 729.721 0.022015 0.826707 0
M  V30 7519 H 732.267 0.784577 1.50474 0
M  V30 7520 H 731.039 1.50801 3.61075 0
M  V30 7521 H 730.662 -0.168439 3.97243 0
M  V30 7522 N 731.66 -1.50943 0.453197 0
M  V30 7523 C 732.906 -2.02512 -0.108082 0
M  V30 7524 C 733.239 -1.33574 -1.40967 0
M  V30 7525 O 732.514 -0.455671 -1.89087 0
M  V30 7526 C 732.797 -3.58759 -0.310453 0
M  V30 7527 C 732.65 -4.38293 1.0109 0
M  V30 7528 C 733.969 -4.26816 -1.07313 0
M  V30 7529 H 731.088 -0.73603 -0.0378064 0
M  V30 7530 H 733.73 -1.80433 0.595295 0
M  V30 7531 H 731.88 -3.77702 -0.909582 0
M  V30 7532 H 733.552 -4.30964 1.64523 0
M  V30 7533 H 731.795 -4.02745 1.61179 0
M  V30 7534 H 732.466 -5.45828 0.82315 0
M  V30 7535 H 734.942 -4.1224 -0.565473 0
M  V30 7536 H 733.818 -5.35989 -1.1835 0
M  V30 7537 H 734.079 -3.88757 -2.10525 0
M  V30 7538 N 733.138 -0.185124 -1.56509 0
M  V30 7539 C 734.101 0.72591 -2.17401 0
M  V30 7540 C 735.101 1.14819 -1.12575 0
M  V30 7541 O 736.291 1.0629 -1.38015 0
M  V30 7542 C 733.423 1.98979 -2.76803 0
M  V30 7543 H 734.616 0.195588 -2.99262 0
M  V30 7544 H 732.169 0.0644772 -1.56167 0
M  V30 7545 H 732.904 2.56287 -1.98714 0
M  V30 7546 H 732.689 1.69583 -3.53531 0
M  V30 7547 H 734.179 2.63966 -3.23592 0
M  V30 7548 N 734.616 1.57351 0.0885366 0
M  V30 7549 C 735.863 1.86419 0.790824 0
M  V30 7550 C 736.191 0.774561 1.78412 0
M  V30 7551 O 735.446 -0.23119 1.9433 0
M  V30 7552 C 735.745 3.22098 1.5488 0
M  V30 7553 C 735.411 4.4548 0.697025 0
M  V30 7554 C 734.073 4.78975 0.462237 0
M  V30 7555 C 736.425 5.21094 0.105315 0
M  V30 7556 C 733.753 5.85507 -0.374016 0
M  V30 7557 C 736.105 6.28509 -0.718298 0
M  V30 7558 C 734.769 6.60515 -0.963116 0
M  V30 7559 H 734.039 0.682157 0.289383 0
M  V30 7560 H 736.686 1.91429 0.0520961 0
M  V30 7561 H 734.991 3.12803 2.35927 0
M  V30 7562 H 736.688 3.41819 2.09669 0
M  V30 7563 H 733.278 4.19255 0.890137 0
M  V30 7564 H 737.462 4.95544 0.273856 0
M  V30 7565 H 732.718 6.08713 -0.572606 0
M  V30 7566 H 736.892 6.86268 -1.18362 0
M  V30 7567 H 734.519 7.42893 -1.6129 0
M  V30 7568 N 736.094 -0.359525 1.53444 0
M  V30 7569 C 737.34 -1.10315 1.70172 0
M  V30 7570 C 737.673 -1.88788 0.455287 0
M  V30 7571 O 736.948 -1.86635 -0.547514 0
M  V30 7572 C 737.231 -2.05744 2.95536 0
M  V30 7573 C 737.084 -1.3084 4.3035 0
M  V30 7574 C 738.403 -3.05784 3.16518 0
M  V30 7575 H 735.522 -0.399662 0.619225 0
M  V30 7576 H 738.164 -0.383338 1.86093 0
M  V30 7577 H 736.314 -2.67125 2.82093 0
M  V30 7578 H 737.986 -0.721959 4.55615 0
M  V30 7579 H 736.229 -0.610283 4.29486 0
M  V30 7580 H 736.9 -2.00718 5.14214 0
M  V30 7581 H 739.376 -2.5451 3.29187 0
M  V30 7582 H 738.252 -3.69772 4.05659 0
M  V30 7583 H 738.513 -3.76289 2.32076 0
M  V30 7584 N 737.572 -1.44907 -0.619662 0
M  V30 7585 C 738.504 -1.48652 -1.74457 0
M  V30 7586 C 739.517 -0.378596 -1.58337 0
M  V30 7587 O 740.706 -0.644987 -1.6644 0
M  V30 7588 C 737.806 -1.31568 -3.12319 0
M  V30 7589 C 736.979 -2.55816 -3.54792 0
M  V30 7590 C 736.038 -2.33465 -4.71573 0
M  V30 7591 O 735.064 -3.07015 -4.79302 0
M  V30 7592 N 736.266 -1.37254 -5.6404 0
M  V30 7593 H 739.031 -2.45632 -1.71712 0
M  V30 7594 H 736.592 -1.40492 -0.804582 0
M  V30 7595 H 738.584 -1.14445 -3.88181 0
M  V30 7596 H 737.154 -0.429095 -3.09641 0
M  V30 7597 H 736.374 -2.88137 -2.69018 0
M  V30 7598 H 737.662 -3.38431 -3.79924 0
M  V30 7599 H 737.06 -0.765309 -5.60499 0
M  V30 7600 H 735.617 -1.26106 -6.39485 0
M  V30 7601 N 739.05 0.861098 -1.31996 0
M  V30 7602 C 740.297 1.61481 -1.22188 0
M  V30 7603 C 740.625 1.93276 0.217853 0
M  V30 7604 O 739.88 1.56942 1.16909 0
M  V30 7605 C 740.179 2.94822 -2.02027 0
M  V30 7606 C 739.845 2.82483 -3.51446 0
M  V30 7607 C 738.507 2.78825 -3.92186 0
M  V30 7608 C 740.859 2.68878 -4.46491 0
M  V30 7609 C 738.187 2.59433 -5.26224 0
M  V30 7610 C 740.539 2.51022 -5.80664 0
M  V30 7611 C 739.203 2.45753 -6.20614 0
M  V30 7612 H 738.473 0.590902 -0.447119 0
M  V30 7613 H 741.12 0.999376 -1.63355 0
M  V30 7614 H 739.425 3.6045 -1.53569 0
M  V30 7615 H 741.122 3.52149 -1.91812 0
M  V30 7616 H 737.712 2.86152 -3.19085 0
M  V30 7617 H 741.896 2.70754 -4.1594 0
M  V30 7618 H 737.152 2.53784 -5.5624 0
M  V30 7619 H 741.326 2.39473 -6.53931 0
M  V30 7620 H 738.953 2.30485 -7.24417 0
M  V30 7621 N 740.528 1.15101 1.07655 0
M  V30 7622 C 741.458 0.867864 2.16773 0
M  V30 7623 C 742.439 -0.180283 1.69142 0
M  V30 7624 O 743.624 -0.0353152 1.94168 0
M  V30 7625 C 740.754 0.35299 3.45501 0
M  V30 7626 C 739.708 1.33746 4.06566 0
M  V30 7627 C 739.034 0.681562 5.30338 0
M  V30 7628 C 740.334 2.7024 4.46954 0
M  V30 7629 H 742.028 1.78034 2.40716 0
M  V30 7630 H 739.574 0.857435 1.15689 0
M  V30 7631 H 741.527 0.142465 4.21159 0
M  V30 7632 H 740.251 -0.594945 3.21135 0
M  V30 7633 H 738.91 1.53429 3.32949 0
M  V30 7634 H 738.558 -0.272422 5.02262 0
M  V30 7635 H 738.258 1.33853 5.72151 0
M  V30 7636 H 739.782 0.48074 6.08705 0
M  V30 7637 H 741.196 2.5442 5.13754 0
M  V30 7638 H 739.593 3.32282 4.99709 0
M  V30 7639 H 740.663 3.26537 3.58471 0
M  V30 7640 N 742.006 -1.2595 0.947325 0
M  V30 7641 C 742.969 -2.24407 0.466285 0
M  V30 7642 C 743.969 -1.55054 -0.426005 0
M  V30 7643 O 745.159 -1.7275 -0.224319 0
M  V30 7644 C 742.291 -3.39326 -0.327201 0
M  V30 7645 H 743.484 -2.68477 1.33642 0
M  V30 7646 H 741.037 -1.38211 0.729887 0
M  V30 7647 H 741.772 -3.00667 -1.21532 0
M  V30 7648 H 741.557 -3.9085 0.312839 0
M  V30 7649 H 743.047 -4.12455 -0.653477 0
M  V30 7650 N 743.484 -0.715051 -1.40445 0
M  V30 7651 C 744.709 -0.26254 -2.05732 0
M  V30 7652 C 745.134 1.08691 -1.53519 0
M  V30 7653 O 744.492 1.68453 -0.670328 0
M  V30 7654 C 744.54 -0.25195 -3.59719 0
M  V30 7655 O 743.644 0.766998 -4.05205 0
M  V30 7656 H 742.985 -0.123398 -0.652433 0
M  V30 7657 H 745.515 -0.975382 -1.79854 0
M  V30 7658 H 745.525 -0.0894537 -4.07902 0
M  V30 7659 H 744.2 -1.23672 -3.97087 0
M  V30 7660 H 742.777 0.572269 -3.68483 0
M  V30 7661 N 744.962 1.50701 -0.461195 0
M  V30 7662 C 746.208 2.02566 0.0973411 0
M  V30 7663 C 746.541 1.3432 1.40257 0
M  V30 7664 O 745.816 0.465692 1.88843 0
M  V30 7665 C 746.099 3.58919 0.291423 0
M  V30 7666 C 745.952 4.37751 -1.03413 0
M  V30 7667 C 747.271 4.27379 1.05048 0
M  V30 7668 H 744.39 0.73622 0.0339026 0
M  V30 7669 H 747.032 1.80115 -0.604855 0
M  V30 7670 H 745.182 3.78179 0.889539 0
M  V30 7671 H 746.854 4.30085 -1.66806 0
M  V30 7672 H 745.097 4.01885 -1.63313 0
M  V30 7673 H 745.768 5.45384 -0.852085 0
M  V30 7674 H 748.244 4.12534 0.543603 0
M  V30 7675 H 747.12 5.36609 1.15506 0
M  V30 7676 H 747.381 3.89868 2.0846 0
M  V30 7677 N 746.441 0.193421 1.56409 0
M  V30 7678 C 747.666 -0.454552 2.02358 0
M  V30 7679 C 748.091 -1.54516 1.07268 0
M  V30 7680 O 747.449 -1.81214 0.0558962 0
M  V30 7681 C 747.497 -0.989469 3.46759 0
M  V30 7682 O 746.601 -2.10244 3.54783 0
M  V30 7683 H 745.942 -0.106417 0.655417 0
M  V30 7684 H 748.472 0.303807 2.02332 0
M  V30 7685 H 748.482 -1.30649 3.86516 0
M  V30 7686 H 747.157 -0.191083 4.15461 0
M  V30 7687 H 745.734 -1.79419 3.26899 0
M  V30 7688 N 747.919 -1.57396 -0.0801906 0
M  V30 7689 C 749.167 -1.86467 -0.779384 0
M  V30 7690 C 749.488 -0.784243 -1.78535 0
M  V30 7691 O 748.758 0.187986 -1.94996 0
M  V30 7692 H 747.338 -0.68806 -0.29083 0
M  V30 7693 H 750 -1.94813 -0.0582749 0
M  V30 7694 H 749.096 -2.83701 -1.30078 0
M  V30 7695 N 749.397 0.351382 -1.53633 0
M  V30 7696 C 750.344 1.43115 -1.81071 0
M  V30 7697 C 751.314 1.52601 -0.655913 0
M  V30 7698 O 752.499 1.68264 -0.89955 0
M  V30 7699 C 749.639 2.79874 -2.01903 0
M  V30 7700 C 748.752 2.79242 -3.29618 0
M  V30 7701 C 747.887 4.07667 -3.40559 0
M  V30 7702 C 746.926 4.01233 -4.62254 0
M  V30 7703 N 746.063 5.21334 -4.70271 0
M  V30 7704 H 750.903 1.19017 -2.73201 0
M  V30 7705 H 748.44 0.576691 -1.35324 0
M  V30 7706 H 750.398 3.5934 -2.11969 0
M  V30 7707 H 749.028 3.0234 -1.13094 0
M  V30 7708 H 748.08 1.91927 -3.28433 0
M  V30 7709 H 749.392 2.70363 -4.19172 0
M  V30 7710 H 748.546 4.95555 -3.50015 0
M  V30 7711 H 747.285 4.19317 -2.49047 0
M  V30 7712 H 746.29 3.11732 -4.52884 0
M  V30 7713 H 747.515 3.91173 -5.55122 0
M  V30 7714 H 745.461 5.33543 -3.81665 0
M  V30 7715 H 745.378 5.14681 -5.5375 0
M  V30 7716 H 746.646 6.11014 -4.84027 0
M  V30 7717 N 750.875 1.45233 0.611969 0
M  V30 7718 C 752.121 1.49242 1.37312 0
M  V30 7719 C 752.454 0.131963 1.93751 0
M  V30 7720 O 751.729 -0.852999 1.74798 0
M  V30 7721 C 752.012 2.56811 2.52428 0
M  V30 7722 C 751.865 4.02284 2.01215 0
M  V30 7723 C 753.184 2.60705 3.54572 0
M  V30 7724 H 750.303 0.54336 0.497925 0
M  V30 7725 H 752.945 1.77019 0.690242 0
M  V30 7726 H 751.095 2.33256 3.10683 0
M  V30 7727 H 752.767 4.37035 1.47643 0
M  V30 7728 H 751.01 4.1315 1.32248 0
M  V30 7729 H 751.681 4.7323 2.84178 0
M  V30 7730 H 754.157 2.81799 3.06151 0
M  V30 7731 H 753.033 3.37841 4.32614 0
M  V30 7732 H 753.294 1.65627 4.09903 0
M  V30 7733 N 752.353 -0.854086 1.3245 0
M  V30 7734 C 753.578 -1.64597 1.26185 0
M  V30 7735 C 754.003 -1.87357 -0.167074 0
M  V30 7736 O 753.361 -1.42675 -1.11864 0
M  V30 7737 C 753.409 -2.98213 2.02734 0
M  V30 7738 O 752.513 -3.88784 1.37554 0
M  V30 7739 H 751.854 -0.50179 0.434859 0
M  V30 7740 H 754.384 -1.06372 1.74775 0
M  V30 7741 H 754.394 -3.4803 2.1293 0
M  V30 7742 H 753.069 -2.80969 3.06642 0
M  V30 7743 H 751.646 -3.4725 1.3591 0
M  V30 7744 N 753.831 -1.1567 -1.07043 0
M  V30 7745 C 755.071 -0.944089 -1.81291 0
M  V30 7746 C 755.435 0.519305 -1.84844 0
M  V30 7747 O 756.636 0.850357 -2.54995 0
M  V30 7748 C 754.907 -1.54528 -3.22267 0
M  V30 7749 S 756.466 -1.47623 -4.13223 0
M  V30 7750 H 753.284 -0.339696 -0.624602 0
M  V30 7751 H 755.886 -1.47277 -1.28568 0
M  V30 7752 H 754.59 -2.60321 -3.17271 0
M  V30 7753 H 754.121 -1.0156 -3.80065 0
M  V30 7754 H 756.136 -0.471261 -4.93957 0
M  V30 7755 N 755.309 1.25446 -0.953992 0
M  V30 7756 C 756.239 2.28264 -0.491717 0
M  V30 7757 C 757.22 1.63717 0.461617 0
M  V30 7758 O 758.405 1.90821 0.36071 0
M  V30 7759 C 755.535 3.46525 0.231915 0
M  V30 7760 C 754.489 4.23247 -0.636098 0
M  V30 7761 C 753.815 5.34254 0.218238 0
M  V30 7762 C 755.115 4.85971 -1.91389 0
M  V30 7763 H 756.809 2.67183 -1.35106 0
M  V30 7764 H 754.355 1.2844 -0.651095 0
M  V30 7765 H 756.308 4.17576 0.566439 0
M  V30 7766 H 755.032 3.06594 1.12551 0
M  V30 7767 H 753.691 3.53978 -0.953696 0
M  V30 7768 H 753.339 4.90564 1.11156 0
M  V30 7769 H 753.039 5.86501 -0.359232 0
M  V30 7770 H 754.563 6.08138 0.547743 0
M  V30 7771 H 755.977 5.49168 -1.64581 0
M  V30 7772 H 754.374 5.48391 -2.43696 0
M  V30 7773 H 755.444 4.08192 -2.61738 0
M  V30 7774 N 756.787 0.722489 1.40064 0
M  V30 7775 C 758.064 0.191829 1.94657 0
M  V30 7776 C 758.444 -1.30389 1.66018 0
M  V30 7777 O 757.792 -2.06342 0.981588 0
M  V30 7778 C 758.002 0.511978 3.45224 0
M  V30 7779 C 759.35 0.454426 4.22161 0
M  V30 7780 O 760.374 0.448438 3.53366 0
M  V30 7781 O 759.233 0.437986 5.44742 0
M  V30 7782 H 756.327 0.0307821 0.826427 0
M  V30 7783 H 758.873 0.800493 1.49634 0
M  V30 7784 H 757.645 1.54622 3.59455 0
M  V30 7785 H 757.268 -0.126296 3.97399 0
M  V30 7786 N 758.265 -1.50454 0.469181 0
M  V30 7787 C 759.493 -2.06729 -0.0842134 0
M  V30 7788 C 759.908 -1.33326 -1.33677 0
M  V30 7789 O 759.265 -0.401977 -1.78018 0
M  V30 7790 C 759.316 -3.59557 -0.374253 0
M  V30 7791 O 759.037 -4.30192 0.828622 0
M  V30 7792 C 760.538 -4.32449 -0.974824 0
M  V30 7793 H 757.758 -0.670971 0.006231 0
M  V30 7794 H 760.302 -1.93645 0.657415 0
M  V30 7795 H 758.457 -3.7245 -1.06581 0
M  V30 7796 H 758.871 -5.21371 0.572066 0
M  V30 7797 H 760.345 -5.40361 -1.12755 0
M  V30 7798 H 760.822 -3.92819 -1.96442 0
M  V30 7799 H 761.428 -4.24082 -0.321703 0
M  V30 7800 N 759.743 -0.201713 -1.56304 0
M  V30 7801 C 760.983 0.437395 -1.99665 0
M  V30 7802 C 761.347 1.58341 -1.08592 0
M  V30 7803 O 762.548 2.28716 -1.41217 0
M  V30 7804 C 760.819 0.879572 -3.46408 0
M  V30 7805 S 762.378 1.51558 -4.11795 0
M  V30 7806 H 759.196 0.139621 -0.697156 0
M  V30 7807 H 761.798 -0.306337 -1.93085 0
M  V30 7808 H 760.502 0.0355295 -4.10385 0
M  V30 7809 H 760.033 1.65661 -3.56819 0
M  V30 7810 H 762.048 2.80445 -4.09347 0
M  V30 7811 N 761.222 1.57436 0.0718424 0
M  V30 7812 C 762.47 1.86878 0.769484 0
M  V30 7813 C 762.791 0.7937 1.78116 0
M  V30 7814 O 762.061 -0.177642 1.95093 0
M  V30 7815 H 760.641 0.689593 0.287177 0
M  V30 7816 H 763.303 1.94841 0.0479427 0
M  V30 7817 H 762.399 2.84387 1.28572 0
M  V30 7818 N 762.7 -0.34323 1.53817 0
M  V30 7819 C 763.977 -1.10047 1.61706 0
M  V30 7820 C 764.357 -2.06495 0.438514 0
M  V30 7821 O 763.705 -2.21297 -0.569188 0
M  V30 7822 C 763.915 -1.81985 2.97796 0
M  V30 7823 C 765.263 -2.35717 3.53161 0
M  V30 7824 O 766.287 -1.9208 2.99973 0
M  V30 7825 O 765.146 -3.15551 4.46195 0
M  V30 7826 H 762.24 -0.506096 0.654061 0
M  V30 7827 H 764.786 -0.344697 1.66162 0
M  V30 7828 H 763.558 -1.11722 3.75012 0
M  V30 7829 H 763.181 -2.64419 2.96931 0
M  V30 7830 N 764.178 -1.45556 -0.604258 0
M  V30 7831 C 765.108 -1.57327 -1.72541 0
M  V30 7832 C 766.089 -0.424637 -1.64714 0
M  V30 7833 O 767.274 -0.648196 -1.83063 0
M  V30 7834 C 764.404 -1.54279 -3.11152 0
M  V30 7835 C 763.358 -2.67893 -3.33792 0
M  V30 7836 C 762.684 -2.499 -4.72709 0
M  V30 7837 C 763.984 -4.0988 -3.23722 0
M  V30 7838 H 765.678 -2.51175 -1.62947 0
M  V30 7839 H 763.224 -1.20884 -0.782504 0
M  V30 7840 H 765.177 -1.6111 -3.89386 0
M  V30 7841 H 763.901 -0.569627 -3.21594 0
M  V30 7842 H 762.56 -2.60495 -2.57949 0
M  V30 7843 H 762.208 -1.50715 -4.79889 0
M  V30 7844 H 761.908 -3.26091 -4.88813 0
M  V30 7845 H 763.432 -2.5859 -5.5314 0
M  V30 7846 H 764.846 -4.18503 -3.91826 0
M  V30 7847 H 763.243 -4.86487 -3.51355 0
M  V30 7848 H 764.313 -4.31553 -2.21111 0
M  V30 7849 N 765.656 0.84705 -1.32902 0
M  V30 7850 C 766.586 1.97166 -1.25091 0
M  V30 7851 C 767.567 1.69578 -0.133161 0
M  V30 7852 O 768.752 1.91519 -0.321591 0
M  V30 7853 C 765.882 3.33157 -0.981006 0
M  V30 7854 C 764.836 3.75119 -2.06082 0
M  V30 7855 C 764.162 5.08826 -1.64318 0
M  V30 7856 C 765.462 3.89774 -3.47669 0
M  V30 7857 H 767.156 2.03958 -2.19184 0
M  V30 7858 H 764.702 0.979907 -1.05517 0
M  V30 7859 H 766.655 4.11393 -0.912891 0
M  V30 7860 H 765.379 3.266 -0.00445559 0
M  V30 7861 H 764.038 2.9914 -2.11921 0
M  V30 7862 H 763.686 4.98732 -0.653876 0
M  V30 7863 H 763.386 5.37873 -2.36572 0
M  V30 7864 H 764.91 5.89546 -1.58958 0
M  V30 7865 H 766.324 4.58343 -3.44376 0
M  V30 7866 H 764.721 4.30248 -4.18338 0
M  V30 7867 H 765.791 2.92463 -3.86773 0
M  V30 7868 N 767.134 1.16236 1.06428 0
M  V30 7869 C 768.38 0.944431 1.79467 0
M  V30 7870 C 768.713 -0.526558 1.86925 0
M  V30 7871 O 767.988 -1.39061 1.35986 0
M  V30 7872 C 768.271 1.57092 3.24028 0
M  V30 7873 C 768.124 3.11315 3.24658 0
M  V30 7874 C 769.443 1.26447 4.21544 0
M  V30 7875 H 766.562 0.344521 0.651517 0
M  V30 7876 H 769.204 1.43545 1.24478 0
M  V30 7877 H 767.354 1.15337 3.70985 0
M  V30 7878 H 769.026 3.62042 2.85873 0
M  V30 7879 H 767.269 3.44716 2.6335 0
M  V30 7880 H 767.94 3.50269 4.26633 0
M  V30 7881 H 770.416 1.62581 3.83023 0
M  V30 7882 H 769.292 1.72885 5.20963 0
M  V30 7883 H 769.553 0.183068 4.41721 0
M  V30 7884 N 768.612 -1.24939 0.960631 0
M  V30 7885 C 769.84 -1.96881 0.636045 0
M  V30 7886 C 770.255 -1.71334 -0.793093 0
M  V30 7887 O 769.612 -0.992917 -1.53125 0
M  V30 7888 C 769.663 -3.50309 0.892533 0
M  V30 7889 O 769.384 -3.74977 2.26548 0
M  V30 7890 C 770.885 -4.39474 0.581159 0
M  V30 7891 H 768.105 -0.627399 0.237931 0
M  V30 7892 H 770.649 -1.58952 1.28664 0
M  V30 7893 H 768.804 -3.86326 0.288257 0
M  V30 7894 H 769.218 -4.69401 2.34014 0
M  V30 7895 H 770.692 -5.46008 0.811125 0
M  V30 7896 H 771.169 -4.3652 -0.48443 0
M  V30 7897 H 771.775 -4.09032 1.16502 0
M  V30 7898 N 770.09 -0.729906 -1.39679 0
M  V30 7899 C 771.02 -0.101618 -2.33279 0
M  V30 7900 C 772.001 0.729854 -1.53646 0
M  V30 7901 O 773.186 0.67587 -1.82059 0
M  V30 7902 C 770.316 0.81024 -3.37716 0
M  V30 7903 C 769.27 0.0833126 -4.27919 0
M  V30 7904 C 768.596 1.11185 -5.23012 0
M  V30 7905 C 769.896 -1.07107 -5.112 0
M  V30 7906 H 771.59 -0.883452 -2.86069 0
M  V30 7907 H 769.136 -0.426283 -1.37546 0
M  V30 7908 H 771.089 1.25927 -4.02145 0
M  V30 7909 H 769.813 1.62413 -2.83354 0
M  V30 7910 H 768.472 -0.346043 -3.64963 0
M  V30 7911 H 768.12 1.91917 -4.64948 0
M  V30 7912 H 767.82 0.63026 -5.8421 0
M  V30 7913 H 769.344 1.56068 -5.90318 0
M  V30 7914 H 770.758 -0.700726 -5.69002 0
M  V30 7915 H 769.155 -1.48196 -5.81514 0
M  V30 7916 H 770.225 -1.89513 -4.46332 0
M  V30 7917 N 771.568 1.50203 -0.477153 0
M  V30 7918 C 772.5 2.26508 0.350239 0
M  V30 7919 C 773.513 1.32081 0.95176 0
M  V30 7920 O 774.702 1.57546 0.839139 0
M  V30 7921 C 771.802 3.0361 1.50579 0
M  V30 7922 C 770.975 4.25438 1.01595 0
M  V30 7923 C 770.034 4.84783 2.04626 0
M  V30 7924 O 769.06 5.45528 1.62442 0
M  V30 7925 N 770.262 4.72318 3.37485 0
M  V30 7926 H 773.027 2.98155 -0.30394 0
M  V30 7927 H 770.588 1.58938 -0.308289 0
M  V30 7928 H 772.58 3.4019 2.1921 0
M  V30 7929 H 771.15 2.34724 2.06455 0
M  V30 7930 H 770.37 3.93894 0.155316 0
M  V30 7931 H 771.658 5.04413 0.666694 0
M  V30 7932 H 771.056 4.24022 3.74462 0
M  V30 7933 H 769.613 5.13149 4.01897 0
M  V30 7934 N 773.046 0.209999 1.56195 0
M  V30 7935 C 774.271 -0.433064 2.02828 0
M  V30 7936 C 774.696 -1.5337 1.08901 0
M  V30 7937 O 774.054 -1.81144 0.0751132 0
M  V30 7938 C 774.102 -0.952635 3.47789 0
M  V30 7939 O 773.206 -2.0647 3.56993 0
M  V30 7940 H 772.547 -0.0994594 0.656509 0
M  V30 7941 H 775.077 0.32525 2.01998 0
M  V30 7942 H 775.087 -1.26542 3.8788 0
M  V30 7943 H 773.762 -0.147007 4.1564 0
M  V30 7944 H 772.339 -1.75942 3.28784 0
M  V30 7945 N 774.524 -1.57472 -0.0634922 0
M  V30 7946 C 775.454 -2.07297 -1.07473 0
M  V30 7947 C 776.435 -0.968162 -1.39859 0
M  V30 7948 O 777.62 -1.24139 -1.49343 0
M  V30 7949 C 774.75 -2.52381 -2.38581 0
M  V30 7950 C 773.704 -3.66813 -2.20526 0
M  V30 7951 C 773.03 -3.97982 -3.57092 0
M  V30 7952 C 774.33 -4.96553 -1.61965 0
M  V30 7953 H 776.024 -2.92033 -0.660092 0
M  V30 7954 H 773.57 -1.40488 -0.316074 0
M  V30 7955 H 775.523 -2.85852 -3.09624 0
M  V30 7956 H 774.247 -1.64684 -2.8204 0
M  V30 7957 H 772.906 -3.33639 -1.51924 0
M  V30 7958 H 772.554 -3.07403 -3.98136 0
M  V30 7959 H 772.254 -4.7504 -3.45848 0
M  V30 7960 H 773.778 -4.33956 -4.29552 0
M  V30 7961 H 775.192 -5.28201 -2.22883 0
M  V30 7962 H 773.589 -5.7799 -1.61394 0
M  V30 7963 H 774.659 -4.81396 -0.581918 0
M  V30 7964 N 776.003 0.335068 -1.53997 0
M  V30 7965 C 777.228 1.09859 -1.75914 0
M  V30 7966 C 777.653 1.81308 -0.500915 0
M  V30 7967 O 777.011 1.72854 0.54693 0
M  V30 7968 C 777.059 2.08122 -2.94478 0
M  V30 7969 O 776.163 3.15805 -2.65219 0
M  V30 7970 H 775.504 0.317313 -0.583274 0
M  V30 7971 H 778.034 0.382872 -2.00986 0
M  V30 7972 H 778.044 2.51195 -3.21504 0
M  V30 7973 H 776.719 1.55517 -3.8573 0
M  V30 7974 H 775.296 2.77489 -2.49107 0
M  V30 7975 N 777.481 1.45874 0.596531 0
M  V30 7976 C 778.897 1.30524 0.918459 0
M  V30 7977 C 779.097 0.266429 1.99731 0
M  V30 7978 O 778.153 -0.335809 2.50257 0
M  V30 7979 C 779.466 2.68747 1.3489 0
M  V30 7980 C 781.014 2.7673 1.46251 0
M  V30 7981 C 781.489 4.15504 1.92667 0
M  V30 7982 N 782.98 4.17853 1.99883 0
M  V30 7983 C 783.715 5.22109 2.37044 0
M  V30 7984 N 783.211 6.36704 2.73094 0
M  V30 7985 N 785.004 5.09471 2.37479 0
M  V30 7986 H 777.155 2.12081 -0.116368 0
M  V30 7987 H 779.418 0.947941 0.0106033 0
M  V30 7988 H 779.124 3.46006 0.630288 0
M  V30 7989 H 778.998 2.97942 2.31323 0
M  V30 7990 H 781.385 1.99768 2.17202 0
M  V30 7991 H 781.466 2.51236 0.481054 0
M  V30 7992 H 781.11 4.92956 1.223 0
M  V30 7993 H 781.04 4.38396 2.91747 0
M  V30 7994 H 783.531 3.35163 1.74568 0
M  V30 7995 H 783.844 7.12041 3.00362 0
M  V30 7996 H 782.189 6.40087 2.70764 0
M  V30 7997 H 785.38 4.18987 2.08728 0
M  V30 7998 H 785.553 5.90837 2.66112 0
M  V30 7999 N 778.959 -0.83999 1.33349 0
M  V30 8000 C 779.891 -1.95678 1.19344 0
M  V30 8001 C 780.904 -1.62322 0.124692 0
M  V30 8002 O 782.093 -1.74516 0.375012 0
M  V30 8003 C 779.193 -3.29133 0.807771 0
M  V30 8004 C 778.366 -3.9063 1.96792 0
M  V30 8005 C 777.425 -5.02438 1.56341 0
M  V30 8006 O 776.451 -5.21646 2.27759 0
M  V30 8007 N 777.653 -5.78612 0.467767 0
M  V30 8008 H 780.418 -2.08229 2.15548 0
M  V30 8009 H 777.979 -1.01566 1.26079 0
M  V30 8010 H 779.971 -4.01355 0.519282 0
M  V30 8011 H 778.541 -3.12535 -0.063555 0
M  V30 8012 H 777.761 -3.11011 2.4221 0
M  V30 8013 H 779.049 -4.2845 2.74422 0
M  V30 8014 H 778.447 -5.65559 -0.126324 0
M  V30 8015 H 777.004 -6.51362 0.238945 0
M  V30 8016 N 780.437 -1.16799 -1.0581 0
M  V30 8017 C 781.685 -0.950642 -1.78346 0
M  V30 8018 C 782.006 0.522524 -1.87869 0
M  V30 8019 O 781.276 1.3795 -1.39092 0
M  V30 8020 H 779.856 -0.348736 -0.6606 0
M  V30 8021 H 782.518 -1.47158 -1.27791 0
M  V30 8022 H 781.614 -1.37359 -2.80248 0
M  V30 8023 N 781.915 1.24427 -0.967243 0
M  V30 8024 C 782.825 2.29109 -0.504592 0
M  V30 8025 C 783.841 1.68495 0.434224 0
M  V30 8026 O 785.017 1.99041 0.307379 0
M  V30 8027 C 782.082 3.46133 0.198273 0
M  V30 8028 C 781.143 4.22149 -0.780313 0
M  V30 8029 C 780.376 5.33585 -0.110896 0
M  V30 8030 O 780.599 5.59676 1.10088 0
M  V30 8031 O 779.533 5.96522 -0.802823 0
M  V30 8032 H 783.359 2.708 -1.37482 0
M  V30 8033 H 780.944 1.30111 -0.73426 0
M  V30 8034 H 782.826 4.17205 0.593124 0
M  V30 8035 H 781.501 3.0642 1.04347 0
M  V30 8036 H 780.408 3.53454 -1.22561 0
M  V30 8037 H 781.741 4.65677 -1.59392 0
M  V30 8038 N 783.393 0.737304 1.3929 0
M  V30 8039 C 784.34 0.0988364 2.30588 0
M  V30 8040 C 785.31 -0.727206 1.49335 0
M  V30 8041 O 786.495 -0.686694 1.78014 0
M  V30 8042 C 783.635 -0.800734 3.35682 0
M  V30 8043 C 782.748 0.0381731 4.31983 0
M  V30 8044 C 781.883 -0.862884 5.24145 0
M  V30 8045 C 780.922 -0.0193639 6.12097 0
M  V30 8046 N 780.059 -0.87648 6.96608 0
M  V30 8047 H 784.899 0.883031 2.84617 0
M  V30 8048 H 782.436 0.447111 1.4014 0
M  V30 8049 H 784.394 -1.33676 3.95205 0
M  V30 8050 H 783.024 -1.55088 2.83103 0
M  V30 8051 H 782.076 0.691641 3.74059 0
M  V30 8052 H 783.388 0.690294 4.94 0
M  V30 8053 H 782.542 -1.46667 5.88705 0
M  V30 8054 H 781.281 -1.54878 4.62454 0
M  V30 8055 H 780.286 0.597202 5.46547 0
M  V30 8056 H 781.511 0.663348 6.75852 0
M  V30 8057 H 779.457 -1.54762 6.37483 0
M  V30 8058 H 779.374 -0.280892 7.55478 0
M  V30 8059 H 780.642 -1.46575 7.65595 0
M  V30 8060 N 784.871 -1.49948 0.485112 0
M  V30 8061 C 786.287 -1.58984 0.140096 0
M  V30 8062 C 786.487 -1.49194 -1.35438 0
M  V30 8063 O 785.543 -1.35765 -2.12894 0
M  V30 8064 C 786.856 -2.92372 0.702769 0
M  V30 8065 C 788.404 -3.05801 0.66745 0
M  V30 8066 C 788.879 -4.41785 1.20791 0
M  V30 8067 N 790.37 -4.48234 1.16792 0
M  V30 8068 C 791.105 -5.51871 1.55646 0
M  V30 8069 N 790.601 -6.62692 2.02016 0
M  V30 8070 N 792.394 -5.42494 1.47161 0
M  V30 8071 H 784.545 -1.54555 1.45693 0
M  V30 8072 H 786.808 -0.731206 0.603359 0
M  V30 8073 H 786.514 -3.05056 1.75025 0
M  V30 8074 H 786.388 -3.76885 0.154205 0
M  V30 8075 H 788.775 -2.92757 -0.371157 0
M  V30 8076 H 788.856 -2.23011 1.25298 0
M  V30 8077 H 788.5 -4.55579 2.24522 0
M  V30 8078 H 788.43 -5.23188 0.598464 0
M  V30 8079 H 790.921 -3.68718 0.827982 0
M  V30 8080 H 791.234 -7.3785 2.29775 0
M  V30 8081 H 789.579 -6.63775 2.05979 0
M  V30 8082 H 792.77 -4.54806 1.10765 0
M  V30 8083 H 792.943 -6.2314 1.77766 0
M  V30 8084 N 786.349 -0.21828 -1.56081 0
M  V30 8085 C 787.574 0.422302 -2.03055 0
M  V30 8086 C 787.999 1.5279 -1.09713 0
M  V30 8087 O 787.357 1.81102 -0.0847187 0
M  V30 8088 C 787.405 0.934177 -3.48289 0
M  V30 8089 O 786.509 2.04574 -3.58083 0
M  V30 8090 H 785.85 0.0959764 -0.657027 0
M  V30 8091 H 788.38 -0.335958 -2.01823 0
M  V30 8092 H 788.39 1.24484 -3.88546 0
M  V30 8093 H 787.065 0.124963 -4.15712 0
M  V30 8094 H 785.642 1.74196 -3.29712 0
M  V30 8095 N 787.827 1.57504 0.0551401 0
M  V30 8096 C 788.757 2.07864 1.06372 0
M  V30 8097 C 789.738 0.975565 1.39344 0
M  V30 8098 O 790.923 1.24929 1.48682 0
M  V30 8099 C 788.053 2.53643 2.3724 0
M  V30 8100 C 787.007 3.67978 2.18578 0
M  V30 8101 C 786.333 3.9987 3.54976 0
M  V30 8102 C 787.633 4.97405 1.59329 0
M  V30 8103 H 789.327 2.92379 0.644595 0
M  V30 8104 H 786.873 1.40654 0.308619 0
M  V30 8105 H 788.826 2.8749 3.08103 0
M  V30 8106 H 787.55 1.66177 2.81163 0
M  V30 8107 H 786.209 3.3444 1.50152 0
M  V30 8108 H 785.857 3.0951 3.965 0
M  V30 8109 H 785.557 4.76867 3.43324 0
M  V30 8110 H 787.081 4.36228 4.27244 0
M  V30 8111 H 788.495 5.29375 2.20078 0
M  V30 8112 H 786.892 5.78837 1.58327 0
M  V30 8113 H 787.962 4.81697 0.55638 0
M  V30 8114 N 789.305 -0.326896 1.54172 0
M  V30 8115 C 790.237 -1.42319 1.79661 0
M  V30 8116 C 791.25 -1.47989 0.678456 0
M  V30 8117 O 792.439 -1.50773 0.955503 0
M  V30 8118 C 789.539 -2.80876 1.89636 0
M  V30 8119 C 788.712 -2.98449 3.19761 0
M  V30 8120 C 787.771 -4.17347 3.2048 0
M  V30 8121 O 786.797 -4.10667 3.94134 0
M  V30 8122 N 787.999 -5.26717 2.44027 0
M  V30 8123 H 790.764 -1.20819 2.74268 0
M  V30 8124 H 788.325 -0.516866 1.53428 0
M  V30 8125 H 790.317 -3.58619 1.87549 0
M  V30 8126 H 788.887 -2.95442 1.02141 0
M  V30 8127 H 788.107 -2.08035 3.34836 0
M  V30 8128 H 789.395 -3.07083 4.05681 0
M  V30 8129 H 788.793 -5.35019 1.8377 0
M  V30 8130 H 787.35 -6.02891 2.47721 0
M  V30 8131 N 790.784 -1.46188 -0.588786 0
M  V30 8132 C 791.714 -1.59148 -1.70863 0
M  V30 8133 C 792.695 -0.442083 -1.64255 0
M  V30 8134 O 793.88 -0.667575 -1.82365 0
M  V30 8135 C 791.01 -1.5757 -3.09498 0
M  V30 8136 C 789.964 -2.71418 -3.30932 0
M  V30 8137 C 789.29 -2.549 -4.70032 0
M  V30 8138 C 790.59 -4.1329 -3.19356 0
M  V30 8139 H 792.284 -2.52889 -1.60274 0
M  V30 8140 H 789.83 -1.21707 -0.769638 0
M  V30 8141 H 791.783 -1.65231 -3.87655 0
M  V30 8142 H 790.507 -0.603705 -3.20972 0
M  V30 8143 H 789.166 -2.63216 -2.55172 0
M  V30 8144 H 788.814 -1.55797 -4.78264 0
M  V30 8145 H 788.514 -3.31257 -4.85327 0
M  V30 8146 H 790.038 -2.64443 -5.50366 0
M  V30 8147 H 791.452 -4.22636 -3.87365 0
M  V30 8148 H 789.849 -4.90187 -3.46175 0
M  V30 8149 H 790.919 -4.33874 -2.16522 0
M  V30 8150 N 792.262 0.832906 -1.33792 0
M  V30 8151 C 793.487 1.62568 -1.28788 0
M  V30 8152 C 793.912 1.87599 0.137246 0
M  V30 8153 O 793.27 1.44436 1.0958 0
M  V30 8154 C 793.318 2.9495 -2.07453 0
M  V30 8155 O 792.422 3.86546 -1.43722 0
M  V30 8156 H 791.763 0.494809 -0.442787 0
M  V30 8157 H 794.293 1.03578 -1.76445 0
M  V30 8158 H 794.303 3.44599 -2.1844 0
M  V30 8159 H 792.978 2.76055 -3.11073 0
M  V30 8160 H 791.555 3.45044 -1.41417 0
M  V30 8161 N 793.74 1.17359 1.05189 0
M  V30 8162 C 794.988 0.960087 1.77839 0
M  V30 8163 C 795.309 -0.512554 1.88143 0
M  V30 8164 O 794.579 -1.3721 1.39822 0
M  V30 8165 H 793.159 0.352234 0.658741 0
M  V30 8166 H 795.821 1.47834 1.27008 0
M  V30 8167 H 794.917 1.38843 2.79516 0
M  V30 8168 N 795.218 -1.23913 0.973828 0
M  V30 8169 C 796.165 -2.25132 0.508366 0
M  V30 8170 C 797.135 -1.59908 -0.449307 0
M  V30 8171 O 798.32 -1.87405 -0.358313 0
M  V30 8172 C 795.46 -3.4458 -0.189422 0
M  V30 8173 C 794.573 -4.24381 0.807738 0
M  V30 8174 C 793.708 -5.31131 0.0854315 0
M  V30 8175 C 792.747 -6.02635 1.07225 0
M  V30 8176 N 791.884 -7.01073 0.379535 0
M  V30 8177 H 796.724 -2.64313 1.37632 0
M  V30 8178 H 794.261 -1.29924 0.689802 0
M  V30 8179 H 796.219 -4.12706 -0.610733 0
M  V30 8180 H 794.849 -3.06218 -1.02129 0
M  V30 8181 H 793.901 -3.55735 1.34747 0
M  V30 8182 H 795.213 -4.73778 1.55998 0
M  V30 8183 H 794.367 -6.05422 -0.393572 0
M  V30 8184 H 793.106 -4.82658 -0.699461 0
M  V30 8185 H 792.111 -5.27143 1.56207 0
M  V30 8186 H 793.336 -6.53197 1.85769 0
M  V30 8187 H 791.282 -6.54862 -0.386269 0
M  V30 8188 H 791.199 -7.48382 1.07054 0
M  V30 8189 H 792.467 -7.79462 -0.0772984 0
M  V30 8190 N 796.696 -0.74468 -1.38897 0
M  V30 8191 C 797.942 -0.297324 -2.00609 0
M  V30 8192 C 798.275 1.11547 -1.58968 0
M  V30 8193 O 797.55 1.76227 -0.823057 0
M  V30 8194 C 797.833 -0.410125 -3.57757 0
M  V30 8195 C 797.686 -1.86338 -4.09387 0
M  V30 8196 C 799.005 0.20176 -4.39637 0
M  V30 8197 H 796.124 -0.109509 -0.728819 0
M  V30 8198 H 798.766 -0.942653 -1.64967 0
M  V30 8199 H 796.916 0.139287 -3.8825 0
M  V30 8200 H 798.588 -2.47042 -3.89574 0
M  V30 8201 H 796.831 -2.38146 -3.62586 0
M  V30 8202 H 797.502 -1.89352 -5.18507 0
M  V30 8203 H 799.978 -0.266703 -4.15244 0
M  V30 8204 H 798.854 0.0925415 -5.48822 0
M  V30 8205 H 799.115 1.289 -4.22891 0
M  V30 8206 N 798.174 1.49689 -0.493057 0
M  V30 8207 C 799.122 2.30613 0.303383 0
M  V30 8208 C 800.116 1.38867 0.970165 0
M  V30 8209 O 801.322 1.55956 0.898761 0
M  V30 8210 H 797.697 0.742891 0.116691 0
M  V30 8211 H 799.668 2.95717 -0.39924 0
M  V30 8212 C 798.417 3.20008 1.35978 0
M  V30 8213 H 797.74 3.90526 0.856103 0
M  V30 8214 H 799.18 3.79586 1.88919 0
M  V30 8215 C 797.639 2.39079 2.37367 0
M  V30 8216 O 798.169 2.08933 3.43089 0
M  V30 8217 N 796.375 2.0125 2.09635 0
M  V30 8218 H 795.922 2.25966 1.23682 0
M  V30 8219 H 795.88 1.47408 2.77702 0
M  V30 8220 N 799.652 0.226554 1.55963 0
M  V30 8221 C 800.615 -0.668015 2.19249 0
M  V30 8222 C 801.615 -1.11794 1.1558 0
M  V30 8223 O 802.805 -1.02593 1.40784 0
M  V30 8224 C 799.937 -1.91571 2.81981 0
M  V30 8225 H 801.13 -0.116175 2.99675 0
M  V30 8226 H 798.683 -0.0230497 1.56283 0
M  V30 8227 H 799.418 -2.50929 2.05439 0
M  V30 8228 H 799.203 -1.6015 3.57903 0
M  V30 8229 H 800.693 -2.55294 3.30477 0
M  V30 8230 N 801.13 -1.57531 -0.0467866 0
M  V30 8231 C 802.063 -2.00734 -1.08541 0
M  V30 8232 C 803.041 -0.888508 -1.36177 0
M  V30 8233 O 804.225 -1.1529 -1.49132 0
M  V30 8234 C 801.352 -2.36535 -2.42423 0
M  V30 8235 C 800.398 -3.58681 -2.3076 0
M  V30 8236 S 801.231 -5.08536 -1.67785 0
M  V30 8237 C 802.387 -5.47562 -3.03194 0
M  V30 8238 H 802.62 -2.88516 -0.717345 0
M  V30 8239 H 800.153 -1.5226 -0.256181 0
M  V30 8240 H 802.111 -2.57834 -3.19424 0
M  V30 8241 H 800.772 -1.49236 -2.76382 0
M  V30 8242 H 799.965 -3.81329 -3.29552 0
M  V30 8243 H 799.567 -3.37142 -1.61899 0
M  V30 8244 H 801.859 -5.47163 -3.99524 0
M  V30 8245 H 802.802 -6.48082 -2.85299 0
M  V30 8246 H 803.21 -4.75042 -3.04951 0
M  V30 8247 N 802.608 0.318715 -1.54344 0
M  V30 8248 C 803.836 1.0755 -1.7675 0
M  V30 8249 C 804.251 1.81543 -0.518422 0
M  V30 8250 O 803.608 1.75198 0.511078 0
M  V30 8251 C 803.659 2.06983 -2.96378 0
M  V30 8252 O 803.38 1.35995 -4.16458 0
M  V30 8253 C 804.881 2.94841 -3.31034 0
M  V30 8254 H 802.101 0.319711 -0.589937 0
M  V30 8255 H 804.645 0.363369 -2.01246 0
M  V30 8256 H 802.8 2.73724 -2.74142 0
M  V30 8257 H 803.214 2.02623 -4.83781 0
M  V30 8258 H 804.688 3.60496 -4.18027 0
M  V30 8259 H 805.165 3.62199 -2.48412 0
M  V30 8260 H 805.771 2.33656 -3.55366 0
M  V30 8261 N 804.086 1.46499 0.581025 0
M  V30 8262 C 805.333 1.51896 1.33918 0
M  V30 8263 C 805.661 0.171361 1.93744 0
M  V30 8264 O 804.916 -0.833178 1.77078 0
M  V30 8265 C 805.215 2.56686 2.48691 0
M  V30 8266 C 804.881 4.00656 2.06847 0
M  V30 8267 C 803.543 4.39852 1.9515 0
M  V30 8268 C 805.895 4.91089 1.74589 0
M  V30 8269 C 803.223 5.67345 1.49456 0
M  V30 8270 C 805.575 6.1902 1.30373 0
M  V30 8271 C 804.239 6.57121 1.17255 0
M  V30 8272 H 803.509 0.555826 0.490039 0
M  V30 8273 H 806.156 1.79983 0.654092 0
M  V30 8274 H 804.461 2.22266 3.22653 0
M  V30 8275 H 806.158 2.58091 3.06904 0
M  V30 8276 H 802.748 3.69674 2.16886 0
M  V30 8277 H 806.932 4.61523 1.8251 0
M  V30 8278 H 802.188 5.95635 1.37944 0
M  V30 8279 H 806.362 6.8852 1.04467 0
M  V30 8280 H 803.989 7.55805 0.816236 0
M  V30 8281 N 805.565 -0.825799 1.34232 0
M  V30 8282 C 806.793 -1.61363 1.29497 0
M  V30 8283 C 807.208 -1.88341 -0.131536 0
M  V30 8284 O 806.565 -1.47279 -1.07773 0
M  V30 8285 C 806.616 -2.95623 2.08061 0
M  V30 8286 O 806.337 -2.69824 3.45147 0
M  V30 8287 C 807.838 -3.90032 2.10688 0
M  V30 8288 H 805.058 -0.501676 0.445603 0
M  V30 8289 H 807.602 -1.02767 1.76803 0
M  V30 8290 H 805.757 -3.50785 1.64404 0
M  V30 8291 H 806.171 -3.55412 3.85723 0
M  V30 8292 H 807.645 -4.81411 2.70087 0
M  V30 8293 H 808.122 -4.25188 1.10052 0
M  V30 8294 H 808.728 -3.40807 2.54422 0
M  V30 8295 N 807.043 -1.17915 -1.04565 0
M  V30 8296 C 808.29 -0.971424 -1.77678 0
M  V30 8297 C 808.618 0.499401 -1.87979 0
M  V30 8298 O 807.873 1.38695 -1.38066 0
M  V30 8299 C 808.172 -1.56528 -3.213 0
M  V30 8300 C 807.838 -3.06138 -3.31044 0
M  V30 8301 C 806.5 -3.46974 -3.33411 0
M  V30 8302 C 808.852 -4.02151 -3.31548 0
M  V30 8303 C 806.18 -4.82406 -3.33918 0
M  V30 8304 C 808.532 -5.37492 -3.33595 0
M  V30 8305 C 807.196 -5.77782 -3.34251 0
M  V30 8306 H 806.466 -0.355469 -0.650171 0
M  V30 8307 H 809.113 -1.46902 -1.22849 0
M  V30 8308 H 807.418 -0.98955 -3.79098 0
M  V30 8309 H 809.115 -1.38003 -3.76505 0
M  V30 8310 H 805.705 -2.73589 -3.29919 0
M  V30 8311 H 809.889 -3.71656 -3.28916 0
M  V30 8312 H 805.145 -5.12927 -3.3274 0
M  V30 8313 H 809.319 -6.1166 -3.32934 0
M  V30 8314 H 806.946 -6.82702 -3.34397 0
M  V30 8315 N 808.521 1.23394 -0.980386 0
M  V30 8316 C 809.798 1.87242 -0.565667 0
M  V30 8317 C 810.178 1.88151 0.957197 0
M  V30 8318 O 809.526 1.36309 1.8339 0
M  V30 8319 C 809.736 3.28743 -1.17172 0
M  V30 8320 C 811.084 4.05335 -1.26446 0
M  V30 8321 O 812.108 3.37962 -1.12517 0
M  V30 8322 O 810.967 5.25908 -1.48604 0
M  V30 8323 H 808.061 0.80477 -0.190459 0
M  V30 8324 H 810.607 1.3127 -1.07547 0
M  V30 8325 H 809.379 3.22647 -2.21392 0
M  V30 8326 H 809.002 3.92305 -0.646739 0
M  V30 8327 N 809.999 0.752036 1.385 0
M  V30 8328 C 810.947 0.112634 2.32327 0
M  V30 8329 C 811.941 -0.707037 1.53939 0
M  V30 8330 O 813.147 -0.606309 1.69481 0
M  V30 8331 H 809.522 0.0176275 0.751793 0
M  V30 8332 H 811.493 0.920074 2.83861 0
M  V30 8333 C 810.242 -0.767458 3.39124 0
M  V30 8334 H 809.565 -0.146122 3.99533 0
M  V30 8335 H 811.005 -1.18216 4.07187 0
M  V30 8336 C 809.464 -1.90938 2.77568 0
M  V30 8337 O 809.994 -3.00342 2.66754 0
M  V30 8338 N 808.2 -1.70396 2.35401 0
M  V30 8339 H 807.747 -0.81413 2.44397 0
M  V30 8340 H 807.705 -2.46972 1.94557 0
M  V30 8341 N 811.477 -1.49425 0.500989 0
M  V30 8342 C 812.723 -2.02753 -0.0436 0
M  V30 8343 C 813.056 -1.37991 -1.36646 0
M  V30 8344 O 812.331 -0.515597 -1.87542 0
M  V30 8345 C 812.614 -3.59565 -0.19616 0
M  V30 8346 C 812.467 -4.34855 1.14982 0
M  V30 8347 C 813.786 -4.30014 -0.936795 0
M  V30 8348 H 810.905 -0.73686 -0.0143711 0
M  V30 8349 H 813.547 -1.78448 0.652397 0
M  V30 8350 H 811.697 -3.80405 -0.788959 0
M  V30 8351 H 813.369 -4.25512 1.7815 0
M  V30 8352 H 811.612 -3.97414 1.73911 0
M  V30 8353 H 812.283 -5.42933 0.996385 0
M  V30 8354 H 814.759 -4.1383 -0.434036 0
M  V30 8355 H 813.635 -5.39483 -1.01238 0
M  V30 8356 H 813.896 -3.95257 -1.9805 0
M  V30 8357 N 812.955 -0.234822 -1.55841 0
M  V30 8358 C 813.885 0.664217 -2.23854 0
M  V30 8359 C 814.866 1.19076 -1.2147 0
M  V30 8360 O 816.051 1.23232 -1.50091 0
M  V30 8361 C 813.181 1.86666 -2.9287 0
M  V30 8362 C 812.135 1.47341 -4.01839 0
M  V30 8363 C 811.461 2.75571 -4.58219 0
M  V30 8364 C 812.761 0.653479 -5.18196 0
M  V30 8365 H 814.455 0.0971213 -2.99242 0
M  V30 8366 H 812.001 0.0452724 -1.43929 0
M  V30 8367 H 813.954 2.50116 -3.39146 0
M  V30 8368 H 812.678 2.45894 -2.1495 0
M  V30 8369 H 811.337 0.862314 -3.56314 0
M  V30 8370 H 810.985 3.32971 -3.77014 0
M  V30 8371 H 810.685 2.49987 -5.31771 0
M  V30 8372 H 812.209 3.39939 -5.07221 0
M  V30 8373 H 813.623 1.19198 -5.60771 0
M  V30 8374 H 812.02 0.494188 -5.98062 0
M  V30 8375 H 813.09 -0.337004 -4.83728 0
M  V30 8376 N 814.433 1.57553 0.0384317 0
M  V30 8377 C 815.844 1.77258 0.586211 0
M  V30 8378 C 816.195 0.864706 1.76117 0
M  V30 8379 O 815.32 0.057141 2.16325 0
M  V30 8380 C 815.915 3.21453 1.07021 0
M  V30 8381 C 814.474 3.42387 1.56358 0
M  V30 8382 C 813.621 2.72801 0.497508 0
M  V30 8383 H 816.572 1.57585 -0.187796 0
M  V30 8384 H 816.593 3.27451 1.93794 0
M  V30 8385 H 816.105 3.87505 0.214851 0
M  V30 8386 H 814.206 2.81497 2.44111 0
M  V30 8387 H 814.319 4.50968 1.61754 0
M  V30 8388 H 812.683 2.36305 0.95038 0
M  V30 8389 H 813.466 3.41529 -0.348234 0
M  V30 8390 N 815.911 -0.310526 1.54511 0
M  V30 8391 C 817.159 -1.04484 1.72996 0
M  V30 8392 C 817.48 -1.88118 0.513479 0
M  V30 8393 O 816.75 -1.90119 -0.472384 0
M  V30 8394 H 815.33 -0.388747 0.637875 0
M  V30 8395 H 817.992 -0.343811 1.91844 0
M  V30 8396 H 817.088 -1.70341 2.61515 0
M  V30 8397 N 817.389 -1.46805 -0.573248 0
M  V30 8398 C 818.336 -1.58084 -1.68161 0
M  V30 8399 C 819.306 -0.424636 -1.6058 0
M  V30 8400 O 820.491 -0.642623 -1.79652 0
M  V30 8401 C 817.631 -1.58601 -3.06496 0
M  V30 8402 C 816.744 -2.85023 -3.24632 0
M  V30 8403 C 815.879 -2.76981 -4.53271 0
M  V30 8404 C 814.918 -3.983 -4.64783 0
M  V30 8405 N 814.055 -3.88589 -5.84759 0
M  V30 8406 H 818.895 -2.52755 -1.57858 0
M  V30 8407 H 816.432 -1.25385 -0.769218 0
M  V30 8408 H 818.39 -1.56885 -3.86579 0
M  V30 8409 H 817.02 -0.674553 -3.15673 0
M  V30 8410 H 816.072 -2.96678 -2.38089 0
M  V30 8411 H 817.384 -3.7491 -3.29004 0
M  V30 8412 H 816.538 -2.73424 -5.41594 0
M  V30 8413 H 815.277 -1.84751 -4.51352 0
M  V30 8414 H 814.282 -4.02179 -3.74876 0
M  V30 8415 H 815.507 -4.91639 -4.68474 0
M  V30 8416 H 813.453 -2.99151 -5.83819 0
M  V30 8417 H 813.37 -4.7214 -5.90441 0
M  V30 8418 H 814.638 -3.89022 -6.75486 0
M  V30 8419 N 818.867 0.818669 -1.34668 0
M  V30 8420 C 820.097 1.60441 -1.30162 0
M  V30 8421 C 820.505 1.88783 0.125579 0
M  V30 8422 O 819.848 1.48281 1.08437 0
M  V30 8423 C 819.91 2.96794 -2.02864 0
M  V30 8424 C 819.574 2.91327 -3.52105 0
M  V30 8425 C 820.571 2.65611 -4.4693 0
M  V30 8426 C 818.256 3.10825 -3.9458 0
M  V30 8427 C 820.25 2.59452 -5.82206 0
M  V30 8428 C 817.937 3.0429 -5.29954 0
M  V30 8429 C 818.935 2.78637 -6.23579 0
M  V30 8430 O 818.623 2.72042 -7.56471 0
M  V30 8431 H 818.355 0.505278 -0.449077 0
M  V30 8432 H 820.909 1.02632 -1.77921 0
M  V30 8433 H 819.139 3.56538 -1.49725 0
M  V30 8434 H 820.828 3.57837 -1.91592 0
M  V30 8435 H 821.594 2.50278 -4.15434 0
M  V30 8436 H 817.473 3.29807 -3.221 0
M  V30 8437 H 821.017 2.39349 -6.55254 0
M  V30 8438 H 816.914 3.19177 -5.61067 0
M  V30 8439 H 817.682 2.87738 -7.66257 0
M  V30 8440 N 820.346 1.18468 1.03938 0
M  V30 8441 C 821.293 0.912859 2.1198 0
M  V30 8442 C 822.263 -0.14824 1.65437 0
M  V30 8443 O 823.448 -0.008331 1.90798 0
M  V30 8444 C 820.588 0.446114 3.42204 0
M  V30 8445 C 819.701 1.57278 4.02353 0
M  V30 8446 C 818.836 1.05863 5.20544 0
M  V30 8447 C 817.875 2.1599 5.72726 0
M  V30 8448 N 817.012 1.65959 6.82204 0
M  V30 8449 H 821.852 1.83798 2.34569 0
M  V30 8450 H 819.389 0.916504 1.15059 0
M  V30 8451 H 821.347 0.15697 4.16905 0
M  V30 8452 H 819.977 -0.442025 3.19759 0
M  V30 8453 H 819.029 1.97737 3.24968 0
M  V30 8454 H 820.341 2.40289 4.37107 0
M  V30 8455 H 819.495 0.724087 6.02364 0
M  V30 8456 H 818.234 0.198116 4.87297 0
M  V30 8457 H 817.239 2.50287 4.89527 0
M  V30 8458 H 818.464 3.02479 6.08016 0
M  V30 8459 H 816.41 0.82199 6.5083 0
M  V30 8460 H 816.327 2.42567 7.16029 0
M  V30 8461 H 817.595 1.35436 7.67644 0
M  V30 8462 N 821.824 -1.22873 0.986916 0
M  V30 8463 C 823.073 -1.90772 0.654911 0
M  V30 8464 C 823.386 -1.77768 -0.81595 0
M  V30 8465 O 824.592 -2.40529 -1.25929 0
M  V30 8466 C 823.048 -3.42003 1.12081 0
M  V30 8467 C 822.656 -3.63655 2.61647 0
M  V30 8468 C 824.4 -4.15638 0.862854 0
M  V30 8469 C 822.307 -5.08555 3.01871 0
M  V30 8470 H 821.237 -0.714362 0.241252 0
M  V30 8471 H 823.888 -1.39196 1.19568 0
M  V30 8472 H 822.27 -3.92725 0.508207 0
M  V30 8473 H 823.444 -3.2345 3.28202 0
M  V30 8474 H 821.759 -3.03341 2.8526 0
M  V30 8475 H 824.356 -5.22425 1.13915 0
M  V30 8476 H 824.699 -4.15814 -0.201036 0
M  V30 8477 H 825.232 -3.70924 1.43736 0
M  V30 8478 H 821.971 -5.13514 4.07411 0
M  V30 8479 H 821.491 -5.49684 2.40015 0
M  V30 8480 H 823.17 -5.76936 2.92839 0
M  V30 8481 N 823.302 -0.75937 -1.38099 0
M  V30 8482 C 824.527 -0.327859 -2.04792 0
M  V30 8483 C 824.952 1.03752 -1.56899 0
M  V30 8484 O 824.31 1.66235 -0.723581 0
M  V30 8485 C 824.358 -0.366264 -3.58735 0
M  V30 8486 O 823.462 0.637697 -4.0744 0
M  V30 8487 H 822.803 -0.144092 -0.648177 0
M  V30 8488 H 825.333 -1.03211 -1.7666 0
M  V30 8489 H 825.343 -0.219179 -4.07411 0
M  V30 8490 H 824.018 -1.36243 -3.92951 0
M  V30 8491 H 822.595 0.454749 -3.70117 0
M  V30 8492 N 824.78 1.49157 -0.508906 0
M  V30 8493 C 826.029 2.0167 0.0346854 0
M  V30 8494 C 826.342 1.39302 1.37311 0
M  V30 8495 O 827.548 1.83189 2.00385 0
M  V30 8496 C 826.004 3.59725 0.112261 0
M  V30 8497 C 825.612 4.31069 -1.21999 0
M  V30 8498 C 827.356 4.20155 0.605798 0
M  V30 8499 C 825.263 5.81001 -1.10415 0
M  V30 8500 H 824.193 0.753814 0.0167355 0
M  V30 8501 H 826.844 1.7162 -0.649518 0
M  V30 8502 H 825.226 3.86525 0.861087 0
M  V30 8503 H 826.4 4.15962 -1.98273 0
M  V30 8504 H 824.715 3.82418 -1.64759 0
M  V30 8505 H 827.312 5.29964 0.710102 0
M  V30 8506 H 827.655 3.84051 1.60656 0
M  V30 8507 H 828.188 3.97705 -0.0867239 0
M  V30 8508 H 824.927 6.21643 -2.07941 0
M  V30 8509 H 824.447 5.9858 -0.382428 0
M  V30 8510 H 826.126 6.42207 -0.786116 0
M  V30 8511 N 826.258 0.243083 1.55714 0
M  V30 8512 C 827.191 -0.698623 2.17243 0
M  V30 8513 C 828.169 -1.1756 1.12331 0
M  V30 8514 O 829.353 -1.25444 1.40699 0
M  V30 8515 C 826.48 -1.94901 2.77004 0
M  V30 8516 C 825.526 -1.61022 3.94936 0
M  V30 8517 S 826.359 -0.716173 5.30689 0
M  V30 8518 C 827.515 -1.97565 5.93901 0
M  V30 8519 H 827.748 -0.175724 2.9678 0
M  V30 8520 H 825.281 0.0275727 1.54375 0
M  V30 8521 H 827.239 -2.66687 3.12071 0
M  V30 8522 H 825.9 -2.44304 1.9742 0
M  V30 8523 H 825.093 -2.5398 4.35328 0
M  V30 8524 H 824.695 -0.972829 3.61126 0
M  V30 8525 H 826.987 -2.92333 6.11186 0
M  V30 8526 H 827.93 -1.61528 6.8943 0
M  V30 8527 H 828.338 -2.126 5.22935 0
M  V30 8528 N 827.736 -1.57571 -0.0300757 0
M  V30 8529 C 828.686 -2.02958 -1.03885 0
M  V30 8530 C 829.67 -0.918723 -1.32092 0
M  V30 8531 O 830.862 -1.18262 -1.31694 0
M  V30 8532 C 827.991 -2.51169 -2.34028 0
M  V30 8533 C 827.077 -3.69073 -2.08915 0
M  V30 8534 N 827.468 -4.81831 -1.53858 0
M  V30 8535 C 825.766 -3.76427 -2.39204 0
M  V30 8536 C 826.467 -5.6346 -1.44526 0
M  V30 8537 N 825.443 -5.08545 -1.92048 0
M  V30 8538 H 829.245 -2.8756 -0.607157 0
M  V30 8539 H 826.759 -1.6067 -0.236399 0
M  V30 8540 H 828.756 -2.81944 -3.07104 0
M  V30 8541 H 827.416 -1.67972 -2.77876 0
M  V30 8542 H 828.427 -5.03291 -1.22142 0
M  V30 8543 H 825.104 -3.04029 -2.86134 0
M  V30 8544 H 826.494 -6.64042 -1.02456 0
M  V30 8545 N 829.214 0.302327 -1.54673 0
M  V30 8546 C 830.124 1.39542 -1.88587 0
M  V30 8547 C 831.14 1.55543 -0.779895 0
M  V30 8548 O 832.316 1.70233 -1.07623 0
M  V30 8549 C 829.381 2.7394 -2.12504 0
M  V30 8550 C 828.442 2.66935 -3.3622 0
M  V30 8551 C 827.675 3.94923 -3.58987 0
M  V30 8552 O 827.898 4.94218 -2.84789 0
M  V30 8553 O 826.832 3.96896 -4.52501 0
M  V30 8554 H 830.658 1.13784 -2.81579 0
M  V30 8555 H 828.243 0.49827 -1.40846 0
M  V30 8556 H 830.125 3.5346 -2.29443 0
M  V30 8557 H 828.8 2.99544 -1.22698 0
M  V30 8558 H 827.707 1.85892 -3.24646 0
M  V30 8559 H 829.04 2.46283 -4.26152 0
M  V30 8560 N 830.692 1.47107 0.565454 0
M  V30 8561 C 831.969 1.43787 1.32607 0
M  V30 8562 C 832.349 0.130428 2.10697 0
M  V30 8563 O 831.697 -0.888086 2.10536 0
M  V30 8564 C 831.907 2.67833 2.23755 0
M  V30 8565 C 833.255 3.14704 2.85037 0
M  V30 8566 O 834.279 2.68503 2.34061 0
M  V30 8567 O 833.138 3.95002 3.77671 0
M  V30 8568 H 830.232 0.572623 0.596684 0
M  V30 8569 H 832.778 1.59296 0.58504 0
M  V30 8570 H 831.55 3.54532 1.65597 0
M  V30 8571 H 831.173 2.54869 3.05168 0
M  V30 8572 N 832.17 -0.811516 1.35101 0
M  V30 8573 C 833.416 -1.57016 1.29296 0
M  V30 8574 C 833.771 -1.91941 -0.13288 0
M  V30 8575 O 833.064 -1.58121 -1.08204 0
M  V30 8576 C 833.258 -2.87121 2.1283 0
M  V30 8577 C 833.087 -2.64908 3.63392 0
M  V30 8578 C 831.857 -2.61055 4.32641 0
M  V30 8579 C 834.055 -2.35628 4.57148 0
M  V30 8580 N 832.037 -2.30508 5.68981 0
M  V30 8581 C 833.408 -2.14876 5.81574 0
M  V30 8582 C 835.463 -2.2145 4.45942 0
M  V30 8583 C 834.166 -1.81381 6.96055 0
M  V30 8584 C 836.192 -1.89352 5.60267 0
M  V30 8585 C 835.554 -1.69432 6.83719 0
M  V30 8586 H 831.653 -0.57649 0.528378 0
M  V30 8587 H 834.237 -0.950338 1.69931 0
M  V30 8588 H 832.408 -3.47007 1.74473 0
M  V30 8589 H 834.14 -3.52629 1.98582 0
M  V30 8590 H 830.895 -2.75531 3.85201 0
M  V30 8591 H 831.319 -2.18042 6.40927 0
M  V30 8592 H 835.961 -2.35551 3.51106 0
M  V30 8593 H 833.679 -1.66018 7.90863 0
M  V30 8594 H 837.265 -1.79098 5.53548 0
M  V30 8595 H 836.145 -1.44957 7.70686 0
M  V30 8596 N 833.648 -1.19017 -1.03309 0
M  V30 8597 C 834.888 -1.00129 -1.78195 0
M  V30 8598 C 835.252 0.460236 -1.86402 0
M  V30 8599 O 836.453 0.768802 -2.57571 0
M  V30 8600 C 834.724 -1.64703 -3.17187 0
M  V30 8601 S 836.283 -1.60695 -4.08317 0
M  V30 8602 H 833.101 -0.359395 -0.613479 0
M  V30 8603 H 835.703 -1.51293 -1.23818 0
M  V30 8604 H 834.407 -2.70283 -3.08829 0
M  V30 8605 H 833.938 -1.136 -3.76641 0
M  V30 8606 H 835.953 -0.628171 -4.92208 0
M  V30 8607 N 835.127 1.22348 -0.993418 0
M  V30 8608 C 836.373 1.91689 -0.680217 0
M  V30 8609 C 836.728 1.75912 0.779269 0
M  V30 8610 O 836.021 1.11761 1.55628 0
M  V30 8611 C 836.215 3.42477 -1.02197 0
M  V30 8612 C 836.044 3.72923 -2.51313 0
M  V30 8613 C 834.814 3.9291 -3.17726 0
M  V30 8614 C 837.012 3.7736 -3.49434 0
M  V30 8615 N 834.994 4.10672 -4.56313 0
M  V30 8616 C 836.365 4.00269 -4.73481 0
M  V30 8617 C 838.42 3.60211 -3.43733 0
M  V30 8618 C 837.123 4.0781 -5.92523 0
M  V30 8619 C 839.149 3.69011 -4.62152 0
M  V30 8620 C 838.511 3.92371 -5.85 0
M  V30 8621 H 834.61 0.722086 -0.300193 0
M  V30 8622 H 837.194 1.47273 -1.27353 0
M  V30 8623 H 835.365 3.85699 -0.457223 0
M  V30 8624 H 837.097 3.99204 -0.664702 0
M  V30 8625 H 833.852 3.90345 -2.68193 0
M  V30 8626 H 834.276 4.2348 -5.28199 0
M  V30 8627 H 838.918 3.41137 -2.49771 0
M  V30 8628 H 836.636 4.25688 -6.86888 0
M  V30 8629 H 840.222 3.5708 -4.59331 0
M  V30 8630 H 839.102 3.9901 -6.75101 0
M  V30 8631 N 836.605 0.766683 1.37694 0
M  V30 8632 C 837.552 0.147725 2.30327 0
M  V30 8633 C 838.522 -0.695366 1.50844 0
M  V30 8634 O 839.707 -0.64878 1.79431 0
M  V30 8635 C 836.847 -0.72935 3.37305 0
M  V30 8636 C 835.96 0.129795 4.31805 0
M  V30 8637 C 835.095 -0.751511 5.25857 0
M  V30 8638 C 834.134 0.110475 6.12 0
M  V30 8639 N 833.271 -0.728522 6.9831 0
M  V30 8640 H 838.111 0.943204 2.82679 0
M  V30 8641 H 835.648 0.476736 1.3916 0
M  V30 8642 H 837.606 -1.25263 3.97951 0
M  V30 8643 H 836.236 -1.49048 2.86329 0
M  V30 8644 H 835.288 0.770829 3.72508 0
M  V30 8645 H 836.6 0.794923 4.92425 0
M  V30 8646 H 835.754 -1.34146 5.91684 0
M  V30 8647 H 834.493 -1.45034 4.65636 0
M  V30 8648 H 833.498 0.712999 5.45157 0
M  V30 8649 H 834.723 0.806557 6.74293 0
M  V30 8650 H 832.669 -1.41206 6.40622 0
M  V30 8651 H 832.586 -0.12058 7.55904 0
M  V30 8652 H 833.854 -1.30303 7.68532 0
M  V30 8653 N 838.083 -1.48885 0.516809 0
M  V30 8654 C 839.031 -2.31066 -0.266656 0
M  V30 8655 C 840.025 -1.40393 -0.94795 0
M  V30 8656 O 841.231 -1.57366 -0.873836 0
M  V30 8657 H 837.606 -0.744654 -0.104858 0
M  V30 8658 H 839.577 -2.95045 0.446236 0
M  V30 8659 C 838.326 -3.22131 -1.3087 0
M  V30 8660 H 837.649 -3.91839 -0.793865 0
M  V30 8661 H 839.089 -3.82544 -1.82856 0
M  V30 8662 C 837.548 -2.42825 -2.33533 0
M  V30 8663 O 838.078 -2.14364 -3.39722 0
M  V30 8664 N 836.284 -2.04559 -2.06407 0
M  V30 8665 H 835.831 -2.27905 -1.20071 0
M  V30 8666 H 835.789 -1.51807 -2.75322 0
M  V30 8667 N 839.561 -0.251338 -1.55583 0
M  V30 8668 C 840.508 0.646337 -2.21565 0
M  V30 8669 C 841.478 1.16796 -1.18102 0
M  V30 8670 O 842.663 1.22162 -1.46564 0
M  V30 8671 C 839.803 1.83557 -2.92234 0
M  V30 8672 C 838.916 1.35006 -4.10363 0
M  V30 8673 C 838.051 2.4992 -4.68736 0
M  V30 8674 C 837.09 1.98253 -5.79105 0
M  V30 8675 N 836.227 3.06551 -6.31642 0
M  V30 8676 H 841.067 0.0769881 -2.97901 0
M  V30 8677 H 838.604 0.026238 -1.47077 0
M  V30 8678 H 840.562 2.53425 -3.31408 0
M  V30 8679 H 839.192 2.37733 -2.18364 0
M  V30 8680 H 838.244 0.545274 -3.76472 0
M  V30 8681 H 839.556 0.931435 -4.90026 0
M  V30 8682 H 838.71 3.27823 -5.10507 0
M  V30 8683 H 837.449 2.95086 -3.88298 0
M  V30 8684 H 836.454 1.18822 -5.36807 0
M  V30 8685 H 837.679 1.54051 -6.61396 0
M  V30 8686 H 835.625 3.51143 -5.54107 0
M  V30 8687 H 835.542 2.69033 -7.06511 0
M  V30 8688 H 836.81 3.84499 -6.78071 0
M  V30 8689 N 841.039 1.57585 0.0217189 0
M  V30 8690 C 842.264 1.94267 0.726309 0
M  V30 8691 C 842.689 0.851904 1.67703 0
M  V30 8692 O 842.047 -0.191792 1.80283 0
M  V30 8693 C 842.095 3.30023 1.45318 0
M  V30 8694 O 841.199 3.22791 2.5667 0
M  V30 8695 H 840.54 0.634777 0.194818 0
M  V30 8696 H 843.07 2.04585 -0.0249985 0
M  V30 8697 H 843.08 3.65084 1.82147 0
M  V30 8698 H 841.755 4.08972 0.755962 0
M  V30 8699 H 840.332 2.99373 2.2233 0
M  V30 8700 N 842.517 -0.29412 1.54831 0
M  V30 8701 C 843.447 -1.36757 1.89261 0
M  V30 8702 C 844.428 -1.52564 0.752214 0
M  V30 8703 O 845.613 -1.65958 1.00855 0
M  V30 8704 C 842.743 -2.73066 2.14597 0
M  V30 8705 C 841.697 -2.72017 3.3044 0
M  V30 8706 C 841.023 -4.11679 3.4121 0
M  V30 8707 C 842.323 -2.33149 4.67375 0
M  V30 8708 H 844.017 -1.08191 2.79169 0
M  V30 8709 H 841.563 -0.519014 1.34321 0
M  V30 8710 H 843.516 -3.48255 2.37269 0
M  V30 8711 H 842.24 -3.03172 1.21467 0
M  V30 8712 H 840.899 -1.99285 3.07703 0
M  V30 8713 H 840.547 -4.38973 2.45584 0
M  V30 8714 H 840.247 -4.11877 4.19084 0
M  V30 8715 H 841.771 -4.88637 3.6615 0
M  V30 8716 H 843.185 -2.98054 4.89731 0
M  V30 8717 H 841.582 -2.44546 5.48012 0
M  V30 8718 H 842.652 -1.28275 4.67626 0
M  V30 8719 N 843.995 -1.47404 -0.557645 0
M  V30 8720 C 844.905 -1.62491 -1.69216 0
M  V30 8721 C 845.921 -0.507764 -1.66426 0
M  V30 8722 O 847.097 -0.775241 -1.85882 0
M  V30 8723 C 844.162 -1.63511 -3.05721 0
M  V30 8724 C 843.223 -2.86648 -3.1958 0
M  V30 8725 C 842.456 -2.87609 -4.49574 0
M  V30 8726 O 842.679 -1.97799 -5.35006 0
M  V30 8727 O 841.613 -3.79465 -4.67215 0
M  V30 8728 H 845.439 -2.58487 -1.59431 0
M  V30 8729 H 843.024 -1.30485 -0.7276 0
M  V30 8730 H 844.906 -1.66863 -3.86956 0
M  V30 8731 H 843.581 -0.706812 -3.15889 0
M  V30 8732 H 842.488 -2.8884 -2.37744 0
M  V30 8733 H 843.821 -3.7877 -3.14316 0
M  V30 8734 N 845.473 0.80434 -1.35529 0
M  V30 8735 C 846.719 1.56385 -1.29118 0
M  V30 8736 C 847.052 1.9374 0.133536 0
M  V30 8737 O 846.327 1.6153 1.08344 0
M  V30 8738 C 846.61 2.85097 -2.19981 0
M  V30 8739 C 846.463 2.54204 -3.7108 0
M  V30 8740 C 847.782 3.86817 -2.09907 0
M  V30 8741 H 844.901 0.567382 -0.470368 0
M  V30 8742 H 847.543 0.925235 -1.6595 0
M  V30 8743 H 845.693 3.39594 -1.88701 0
M  V30 8744 H 847.365 2.05872 -4.12813 0
M  V30 8745 H 845.608 1.87364 -3.91251 0
M  V30 8746 H 846.279 3.46068 -4.30048 0
M  V30 8747 H 848.755 3.41725 -2.37409 0
M  V30 8748 H 847.631 4.7465 -2.75678 0
M  V30 8749 H 847.892 4.28663 -1.08171 0
M  V30 8750 N 846.951 1.19563 1.02676 0
M  V30 8751 C 847.861 0.950691 2.14474 0
M  V30 8752 C 848.877 -0.0900219 1.73767 0
M  V30 8753 O 850.053 0.0951063 2.01175 0
M  V30 8754 C 847.118 0.494917 3.43149 0
M  V30 8755 C 846.179 1.60527 3.98158 0
M  V30 8756 C 845.412 1.17115 5.20692 0
M  V30 8757 O 845.635 0.0355937 5.70389 0
M  V30 8758 O 844.569 1.97454 5.68591 0
M  V30 8759 H 848.395 1.88651 2.38001 0
M  V30 8760 H 845.98 0.978635 1.12885 0
M  V30 8761 H 847.862 0.249492 4.20661 0
M  V30 8762 H 846.537 -0.412434 3.21062 0
M  V30 8763 H 845.444 1.90487 3.21971 0
M  V30 8764 H 846.777 2.48925 4.24614 0
M  V30 8765 N 848.429 -1.21819 0.999893 0
M  V30 8766 C 849.675 -1.91035 0.680701 0
M  V30 8767 C 850.008 -1.77582 -0.786021 0
M  V30 8768 O 849.283 -1.14917 -1.56921 0
M  V30 8769 C 849.566 -3.43013 1.0961 0
M  V30 8770 C 849.419 -3.65481 2.6219 0
M  V30 8771 C 850.738 -4.35204 0.654616 0
M  V30 8772 H 847.857 -0.693748 0.248763 0
M  V30 8773 H 850.499 -1.43555 1.24466 0
M  V30 8774 H 848.649 -3.83581 0.616253 0
M  V30 8775 H 850.321 -3.34273 3.17899 0
M  V30 8776 H 848.564 -3.09522 3.03938 0
M  V30 8777 H 849.235 -4.71945 2.86307 0
M  V30 8778 H 851.711 -4.0219 1.06688 0
M  V30 8779 H 850.587 -5.40198 0.973492 0
M  V30 8780 H 850.848 -4.3986 -0.444458 0
M  V30 8781 N 849.908 -0.773975 -1.37286 0
M  V30 8782 C 850.838 -0.175782 -2.32837 0
M  V30 8783 C 851.819 0.680603 -1.5589 0
M  V30 8784 O 853.004 0.617607 -1.84117 0
M  V30 8785 C 850.134 0.702388 -3.40123 0
M  V30 8786 C 849.088 -0.0528687 -4.27967 0
M  V30 8787 C 848.414 0.944891 -5.26285 0
M  V30 8788 C 849.714 -1.23316 -5.07534 0
M  V30 8789 H 851.408 -0.974016 -2.83114 0
M  V30 8790 H 848.954 -0.469826 -1.3612 0
M  V30 8791 H 850.907 1.13069 -4.05947 0
M  V30 8792 H 849.631 1.53316 -2.88378 0
M  V30 8793 H 848.29 -0.461978 -3.63678 0
M  V30 8794 H 847.938 1.77028 -4.70819 0
M  V30 8795 H 847.638 0.444079 -5.8592 0
M  V30 8796 H 849.162 1.37209 -5.94984 0
M  V30 8797 H 850.576 -0.881395 -5.66484 0
M  V30 8798 H 848.973 -1.66621 -5.76504 0
M  V30 8799 H 850.043 -2.03617 -4.40077 0
M  V30 8800 N 851.386 1.48609 -0.524698 0
M  V30 8801 C 852.296 2.33318 0.244923 0
M  V30 8802 C 853.312 1.46153 0.944214 0
M  V30 8803 O 854.488 1.79141 0.920347 0
M  V30 8804 C 851.553 3.22149 1.28144 0
M  V30 8805 C 850.614 4.25184 0.593068 0
M  V30 8806 C 849.847 5.0977 1.5802 0
M  V30 8807 O 850.07 4.96249 2.81235 0
M  V30 8808 O 849.004 5.9134 1.1225 0
M  V30 8809 H 852.83 3.00362 -0.449066 0
M  V30 8810 H 850.415 1.46643 -0.285689 0
M  V30 8811 H 852.297 3.77111 1.88057 0
M  V30 8812 H 850.972 2.57772 1.95793 0
M  V30 8813 H 849.879 3.74071 -0.0464214 0
M  V30 8814 H 851.212 4.92183 -0.0413893 0
M  V30 8815 N 852.864 0.259585 1.55447 0
M  V30 8816 C 854.141 -0.412595 1.91199 0
M  V30 8817 C 854.521 -1.74909 1.18194 0
M  V30 8818 O 853.869 -2.26474 0.303603 0
M  V30 8819 C 854.079 -0.568195 3.44344 0
M  V30 8820 C 855.427 -0.858253 4.15836 0
M  V30 8821 O 856.451 -0.653588 3.50152 0
M  V30 8822 O 855.31 -1.24874 5.32042 0
M  V30 8823 H 852.404 -0.223403 0.796254 0
M  V30 8824 H 854.95 0.30459 1.66944 0
M  V30 8825 H 853.722 0.372989 3.89518 0
M  V30 8826 H 853.345 -1.33544 3.74502 0
M  V30 8827 N 854.342 -1.57594 -0.0133615 0
M  V30 8828 C 855.619 -1.81173 -0.737273 0
M  V30 8829 C 855.999 -0.861395 -1.92726 0
M  V30 8830 O 855.347 0.0929324 -2.28311 0
M  V30 8831 C 855.557 -3.29314 -1.15557 0
M  V30 8832 C 856.905 -3.94707 -1.56498 0
M  V30 8833 O 857.929 -3.33557 -1.24973 0
M  V30 8834 O 856.788 -5.02402 -2.15069 0
M  V30 8835 H 853.882 -0.745575 -0.357837 0
M  V30 8836 H 856.428 -1.69696 0.0110674 0
M  V30 8837 H 855.2 -3.90096 -0.30677 0
M  V30 8838 H 854.823 -3.45739 -1.96343 0
M  V30 8839 N 855.82 0.285905 -1.54985 0
M  V30 8840 C 856.753 1.37817 -1.81884 0
M  V30 8841 C 857.731 1.4811 -0.670988 0
M  V30 8842 O 858.915 1.64936 -0.912595 0
M  V30 8843 C 856.042 2.75587 -1.969 0
M  V30 8844 C 855.088 2.82643 -3.19398 0
M  V30 8845 S 855.921 2.43199 -4.7709 0
M  V30 8846 C 857.077 3.82969 -4.95061 0
M  V30 8847 H 857.31 1.14794 -2.74244 0
M  V30 8848 H 854.843 0.484843 -1.4659 0
M  V30 8849 H 856.801 3.54932 -2.06236 0
M  V30 8850 H 855.462 2.9587 -1.05451 0
M  V30 8851 H 854.655 3.8373 -3.26753 0
M  V30 8852 H 854.257 2.11306 -3.08586 0
M  V30 8853 H 856.549 4.78117 -4.80011 0
M  V30 8854 H 857.492 3.80575 -5.97133 0
M  V30 8855 H 857.9 3.73673 -4.23118 0
M  V30 8856 N 857.298 1.47698 0.54982 0
M  V30 8857 C 858.523 1.58579 1.33669 0
M  V30 8858 C 858.948 0.239049 1.86575 0
M  V30 8859 O 858.306 -0.786256 1.63364 0
M  V30 8860 C 858.354 2.62029 2.47736 0
M  V30 8861 O 857.458 2.17813 3.50188 0
M  V30 8862 H 856.799 0.532447 0.396732 0
M  V30 8863 H 859.329 1.93536 0.6637 0
M  V30 8864 H 859.339 2.82682 2.94202 0
M  V30 8865 H 858.014 3.59812 2.08586 0
M  V30 8866 H 856.591 2.07291 3.09976 0
M  V30 8867 N 858.776 -0.797141 1.35954 0
M  V30 8868 C 859.739 -1.89104 1.29508 0
M  V30 8869 C 860.739 -1.59495 0.204444 0
M  V30 8870 O 861.929 -1.68051 0.458746 0
M  V30 8871 C 859.061 -3.25726 1.00576 0
M  V30 8872 H 860.254 -1.96237 2.26785 0
M  V30 8873 H 857.807 -0.994075 1.20614 0
M  V30 8874 H 858.542 -3.24279 0.0372519 0
M  V30 8875 H 858.327 -3.48604 1.79492 0
M  V30 8876 H 859.817 -4.0578 0.986508 0
M  V30 8877 N 860.254 -1.20106 -1.0204 0
M  V30 8878 C 861.5 -1.01039 -1.75838 0
M  V30 8879 C 861.833 0.456819 -1.88751 0
M  V30 8880 O 861.108 1.33919 -1.41053 0
M  V30 8881 C 861.391 -1.69009 -3.17975 0
M  V30 8882 C 861.244 -3.2315 -3.1288 0
M  V30 8883 C 862.563 -1.42005 -4.16561 0
M  V30 8884 H 859.682 -0.368465 -0.638281 0
M  V30 8885 H 862.324 -1.48066 -1.19064 0
M  V30 8886 H 860.474 -1.29026 -3.66449 0
M  V30 8887 H 862.146 -3.72402 -2.72239 0
M  V30 8888 H 860.389 -3.54253 -2.50374 0
M  V30 8889 H 861.06 -3.65862 -4.13339 0
M  V30 8890 H 863.536 -1.76685 -3.76725 0
M  V30 8891 H 862.412 -1.92101 -5.14187 0
M  V30 8892 H 862.673 -0.346884 -4.40737 0
M  V30 8893 N 861.732 1.21287 -1.00634 0
M  V30 8894 C 862.642 2.27388 -0.577226 0
M  V30 8895 C 863.658 1.69791 0.380399 0
M  V30 8896 O 864.834 1.99918 0.2439 0
M  V30 8897 C 861.899 3.46588 0.0880532 0
M  V30 8898 C 860.96 4.19453 -0.914222 0
M  V30 8899 C 860.193 5.32962 -0.280596 0
M  V30 8900 O 860.416 5.62895 0.922265 0
M  V30 8901 O 859.35 5.93666 -0.992196 0
M  V30 8902 H 863.176 2.66289 -1.46028 0
M  V30 8903 H 860.761 1.2771 -0.775283 0
M  V30 8904 H 862.643 4.18881 0.460094 0
M  V30 8905 H 861.318 3.09585 0.945461 0
M  V30 8906 H 860.225 3.49376 -1.33744 0
M  V30 8907 H 861.558 4.6037 -1.74126 0
M  V30 8908 N 863.21 0.781244 1.36873 0
M  V30 8909 C 864.457 0.349889 1.99454 0
M  V30 8910 C 864.785 -1.07621 1.62013 0
M  V30 8911 O 864.04 -1.75665 0.86258 0
M  V30 8912 C 864.339 0.45146 3.54537 0
M  V30 8913 C 864.005 1.83718 4.11775 0
M  V30 8914 C 862.667 2.21634 4.2712 0
M  V30 8915 C 865.019 2.7449 4.43063 0
M  V30 8916 C 862.347 3.49742 4.7106 0
M  V30 8917 C 864.699 4.02017 4.88431 0
M  V30 8918 C 863.363 4.39967 5.01982 0
M  V30 8919 H 862.633 0.128033 0.729855 0
M  V30 8920 H 865.28 0.997117 1.63493 0
M  V30 8921 H 863.585 -0.279288 3.90803 0
M  V30 8922 H 865.282 0.0988609 4.00878 0
M  V30 8923 H 861.872 1.53251 4.00265 0
M  V30 8924 H 866.056 2.46453 4.30783 0
M  V30 8925 H 861.312 3.79026 4.79738 0
M  V30 8926 H 865.486 4.72475 5.11605 0
M  V30 8927 H 863.113 5.39291 5.35788 0
M  V30 8928 N 864.689 -1.48329 0.532571 0
M  V30 8929 C 866.105 -1.58458 0.190605 0
M  V30 8930 C 866.305 -1.53427 -1.30623 0
M  V30 8931 O 865.361 -1.4247 -2.08467 0
M  V30 8932 C 866.674 -2.89989 0.79543 0
M  V30 8933 C 868.222 -3.03523 0.7644 0
M  V30 8934 C 868.697 -4.37718 1.34785 0
M  V30 8935 N 870.188 -4.44292 1.30993 0
M  V30 8936 C 870.923 -5.4664 1.73124 0
M  V30 8937 N 870.419 -6.5593 2.22997 0
M  V30 8938 N 872.212 -5.37538 1.64346 0
M  V30 8939 H 864.363 -1.49842 1.50537 0
M  V30 8940 H 866.626 -0.71164 0.626316 0
M  V30 8941 H 866.332 -2.99333 1.84642 0
M  V30 8942 H 866.206 -3.76203 0.27403 0
M  V30 8943 H 868.593 -2.93789 -0.277831 0
M  V30 8944 H 868.674 -2.18912 1.3233 0
M  V30 8945 H 868.318 -4.48206 2.38902 0
M  V30 8946 H 868.248 -5.21019 0.764609 0
M  V30 8947 H 870.739 -3.65897 0.944868 0
M  V30 8948 H 871.052 -7.30167 2.53133 0
M  V30 8949 H 869.397 -6.56886 2.26992 0
M  V30 8950 H 872.588 -4.51052 1.25178 0
M  V30 8951 H 872.761 -6.17169 1.97501 0
M  V30 8952 N 866.167 -0.267825 -1.55308 0
M  V30 8953 C 867.099 0.65591 -2.19614 0
M  V30 8954 C 868.112 1.12302 -1.17865 0
M  V30 8955 O 869.301 1.04618 -1.44628 0
M  V30 8956 C 866.401 1.90582 -2.80235 0
M  V30 8957 C 865.574 1.58673 -4.07605 0
M  V30 8958 C 864.633 2.68836 -4.52343 0
M  V30 8959 O 863.659 2.35331 -5.18274 0
M  V30 8960 N 864.861 3.98752 -4.21873 0
M  V30 8961 H 867.626 0.105566 -2.99514 0
M  V30 8962 H 865.187 -0.0886263 -1.61657 0
M  V30 8963 H 867.179 2.63561 -3.07112 0
M  V30 8964 H 865.749 2.3654 -2.04371 0
M  V30 8965 H 864.969 0.691113 -3.88094 0
M  V30 8966 H 866.257 1.34845 -4.90606 0
M  V30 8967 H 865.655 4.28797 -3.68985 0
M  V30 8968 H 864.212 4.68131 -4.53537 0
M  V30 8969 N 867.645 1.57599 0.00500368 0
M  V30 8970 C 868.873 1.94626 0.702016 0
M  V30 8971 C 869.288 0.86953 1.67585 0
M  V30 8972 O 868.645 -0.15199 1.81866 0
M  V30 8973 C 868.696 3.31658 1.43824 0
M  V30 8974 O 868.417 4.35197 0.503467 0
M  V30 8975 C 869.918 3.83114 2.23021 0
M  V30 8976 H 867.138 0.641785 0.195841 0
M  V30 8977 H 869.682 2.04451 -0.0446287 0
M  V30 8978 H 867.837 3.23156 2.13655 0
M  V30 8979 H 868.251 5.1444 1.02235 0
M  V30 8980 H 869.725 4.81438 2.7004 0
M  V30 8981 H 870.202 3.15559 3.05482 0
M  V30 8982 H 870.808 3.94775 1.58216 0
M  V30 8983 N 869.123 -0.277682 1.55134 0
M  V30 8984 C 870.371 -1.00791 1.75173 0
M  V30 8985 C 870.692 -1.86987 0.553266 0
M  V30 8986 O 869.962 -1.91079 -0.43195 0
M  V30 8987 H 868.542 -0.375129 0.645978 0
M  V30 8988 H 871.204 -0.303041 1.9253 0
M  V30 8989 H 870.3 -1.64756 2.6507 0
M  V30 8990 N 870.601 -1.47988 -0.541979 0
M  V30 8991 C 871.831 -1.58804 -1.32155 0
M  V30 8992 C 872.239 -0.242893 -1.87634 0
M  V30 8993 O 871.582 0.776239 -1.66494 0
M  V30 8994 C 871.644 -2.56567 -2.51821 0
M  V30 8995 C 871.308 -4.01915 -2.17517 0
M  V30 8996 C 872.305 -4.89954 -1.73901 0
M  V30 8997 C 869.99 -4.47365 -2.28408 0
M  V30 8998 C 871.984 -6.21467 -1.41625 0
M  V30 8999 C 869.671 -5.78902 -1.95745 0
M  V30 9000 C 870.669 -6.65775 -1.52423 0
M  V30 9001 O 870.357 -7.94866 -1.20183 0
M  V30 9002 H 870.089 -0.538536 -0.408601 0
M  V30 9003 H 872.643 -1.94446 -0.661818 0
M  V30 9004 H 870.873 -2.16023 -3.20735 0
M  V30 9005 H 872.562 -2.57347 -3.13891 0
M  V30 9006 H 873.328 -4.56082 -1.64966 0
M  V30 9007 H 869.207 -3.79942 -2.61084 0
M  V30 9008 H 872.751 -6.8923 -1.07738 0
M  V30 9009 H 868.648 -6.12311 -2.04316 0
M  V30 9010 H 869.416 -8.07509 -1.33683 0
M  V30 9011 N 872.079 0.78992 -1.36375 0
M  V30 9012 C 873.012 1.90907 -1.25019 0
M  V30 9013 C 873.99 1.62043 -0.134463 0
M  V30 9014 O 875.174 1.86008 -0.305506 0
M  V30 9015 C 872.301 3.25716 -0.928822 0
M  V30 9016 C 871.347 3.73511 -2.05892 0
M  V30 9017 S 872.18 3.89332 -3.6767 0
M  V30 9018 C 873.336 5.27017 -3.37645 0
M  V30 9019 H 873.569 2.00247 -2.19746 0
M  V30 9020 H 871.102 0.949097 -1.21785 0
M  V30 9021 H 873.06 4.03586 -0.750219 0
M  V30 9022 H 871.721 3.141 0.000658424 0
M  V30 9023 H 870.914 4.71195 -1.78862 0
M  V30 9024 H 870.516 3.02688 -2.19672 0
M  V30 9025 H 872.808 6.1158 -2.91507 0
M  V30 9026 H 873.751 5.5905 -4.3459 0
M  V30 9027 H 874.159 4.94093 -2.73006 0
M  V30 9028 N 873.557 1.20646 1.01402 0
M  V30 9029 C 874.487 0.98155 2.11867 0
M  V30 9030 C 875.468 -0.0903712 1.6986 0
M  V30 9031 O 876.653 0.0676586 1.94082 0
M  V30 9032 C 873.783 0.535636 3.43145 0
M  V30 9033 C 872.737 1.55109 3.98905 0
M  V30 9034 C 872.063 0.961725 5.2598 0
M  V30 9035 C 873.363 2.93552 4.32001 0
M  V30 9036 H 875.057 1.90544 2.3094 0
M  V30 9037 H 872.603 0.917554 1.10982 0
M  V30 9038 H 874.556 0.365512 4.19812 0
M  V30 9039 H 873.28 -0.423882 3.23838 0
M  V30 9040 H 871.939 1.70862 3.24348 0
M  V30 9041 H 871.587 -0.00580108 5.03 0
M  V30 9042 H 871.287 1.63993 5.64252 0
M  V30 9043 H 872.811 0.802726 6.053 0
M  V30 9044 H 874.225 2.81295 4.99546 0
M  V30 9045 H 872.622 3.58303 4.81393 0
M  V30 9046 H 873.692 3.4508 3.40658 0
M  V30 9047 N 875.035 -1.20752 1.01276 0
M  V30 9048 C 876.451 -1.42084 0.726934 0
M  V30 9049 C 876.651 -1.89138 -0.694907 0
M  V30 9050 O 875.707 -2.05783 -1.4632 0
M  V30 9051 C 877.02 -2.44575 1.74938 0
M  V30 9052 C 878.568 -2.58347 1.76708 0
M  V30 9053 C 879.043 -3.64078 2.77869 0
M  V30 9054 N 880.534 -3.71558 2.76585 0
M  V30 9055 C 881.269 -4.53016 3.51517 0
M  V30 9056 N 880.765 -5.38309 4.36114 0
M  V30 9057 N 882.558 -4.47512 3.40132 0
M  V30 9058 H 874.709 -0.885228 1.93074 0
M  V30 9059 H 876.972 -0.451075 0.833808 0
M  V30 9060 H 876.678 -2.1699 2.76782 0
M  V30 9061 H 876.552 -3.43503 1.55838 0
M  V30 9062 H 878.939 -2.85265 0.755516 0
M  V30 9063 H 879.02 -1.59628 1.99882 0
M  V30 9064 H 878.664 -3.37905 3.79187 0
M  V30 9065 H 878.594 -4.62412 2.51958 0
M  V30 9066 H 881.085 -3.10629 2.15216 0
M  V30 9067 H 881.398 -5.9754 4.90068 0
M  V30 9068 H 879.743 -5.37824 4.40194 0
M  V30 9069 H 882.934 -3.79912 2.73467 0
M  V30 9070 H 883.107 -5.10759 3.98784 0
M  V30 9071 N 876.513 -0.788492 -1.36457 0
M  V30 9072 C 877.753 -0.365855 -2.01099 0
M  V30 9073 C 878.117 1.04262 -1.61225 0
M  V30 9074 O 879.318 1.56628 -2.18451 0
M  V30 9075 C 877.589 -0.523344 -3.53548 0
M  V30 9076 S 879.148 -0.188448 -4.38395 0
M  V30 9077 H 875.966 -0.139832 -0.697114 0
M  V30 9078 H 878.568 -1.02678 -1.66365 0
M  V30 9079 H 877.272 -1.54874 -3.80055 0
M  V30 9080 H 876.803 0.153547 -3.931 0
M  V30 9081 H 878.818 1.0103 -4.85806 0
M  V30 9082 N 877.991 1.48044 -0.54043 0
M  V30 9083 C 879.216 2.07396 -0.0124765 0
M  V30 9084 C 879.641 1.39288 1.26414 0
M  V30 9085 O 878.999 0.462252 1.75308 0
M  V30 9086 C 879.047 3.60131 0.18377 0
M  V30 9087 O 878.151 3.92995 1.25014 0
M  V30 9088 H 877.492 0.662554 -0.0438026 0
M  V30 9089 H 880.022 1.90306 -0.751327 0
M  V30 9090 H 880.032 4.06003 0.403197 0
M  V30 9091 H 878.707 4.09105 -0.74874 0
M  V30 9092 H 877.284 3.5889 1.01254 0
M  V30 9093 N 879.47 0.276058 1.55163 0
M  V30 9094 C 880.4 -0.604633 2.25536 0
M  V30 9095 C 881.381 -1.15813 1.24585 0
M  V30 9096 O 882.566 -1.1921 1.53306 0
M  V30 9097 C 879.696 -1.78836 2.97716 0
M  V30 9098 C 878.65 -1.36635 4.05604 0
M  V30 9099 C 877.976 -2.63325 4.65364 0
M  V30 9100 C 879.276 -0.515858 5.19746 0
M  V30 9101 H 880.97 -0.0177483 2.99395 0
M  V30 9102 H 878.516 -0.00709627 1.43998 0
M  V30 9103 H 880.469 -2.41036 3.45658 0
M  V30 9104 H 879.193 -2.40109 2.21394 0
M  V30 9105 H 877.852 -0.767541 3.58475 0
M  V30 9106 H 877.5 -3.22858 3.85709 0
M  V30 9107 H 877.2 -2.358 5.38212 0
M  V30 9108 H 878.724 -3.26372 5.16056 0
M  V30 9109 H 880.138 -1.04289 5.63735 0
M  V30 9110 H 878.535 -0.335449 5.99162 0
M  V30 9111 H 879.605 0.465137 4.82664 0
M  V30 9112 N 880.948 -1.576 0.00335426 0
M  V30 9113 C 882.173 -1.95398 -0.695311 0
M  V30 9114 C 882.598 -0.878476 -1.66326 0
M  V30 9115 O 881.956 0.163086 -1.80565 0
M  V30 9116 C 882.004 -3.32293 -1.40049 0
M  V30 9117 O 881.108 -3.26834 -2.51502 0
M  V30 9118 H 880.449 -0.637796 -0.184694 0
M  V30 9119 H 882.979 -2.04519 0.057543 0
M  V30 9120 H 882.989 -3.67936 -1.76316 0
M  V30 9121 H 881.664 -4.10123 -0.690803 0
M  V30 9122 H 880.241 -3.02872 -2.17539 0
M  V30 9123 N 882.426 0.269451 -1.5528 0
M  V30 9124 C 883.376 1.33553 -1.84791 0
M  V30 9125 C 884.36 1.44532 -0.707067 0
M  V30 9126 O 885.552 1.48153 -0.968493 0
M  V30 9127 C 882.681 2.69516 -2.12641 0
M  V30 9128 C 881.767 2.62633 -3.32993 0
M  V30 9129 N 882.158 2.25371 -4.52815 0
M  V30 9130 C 880.456 2.93688 -3.35654 0
M  V30 9131 C 881.157 2.28567 -5.34913 0
M  V30 9132 N 880.133 2.67181 -4.73408 0
M  V30 9133 H 883.935 1.03758 -2.74976 0
M  V30 9134 H 881.449 0.478087 -1.55203 0
M  V30 9135 H 883.446 3.46424 -2.3194 0
M  V30 9136 H 882.106 3.00197 -1.23742 0
M  V30 9137 H 883.117 1.9729 -4.7885 0
M  V30 9138 H 879.794 3.29057 -2.56958 0
M  V30 9139 H 881.184 2.02289 -6.40725 0
M  V30 9140 N 883.904 1.48273 0.534124 0
M  V30 9141 C 884.867 1.6201 1.62127 0
M  V30 9142 C 885.867 0.493653 1.53035 0
M  V30 9143 O 887.057 0.759337 1.56779 0
M  V30 9144 C 884.189 1.5864 3.01739 0
M  V30 9145 H 885.382 2.58944 1.51288 0
M  V30 9146 H 882.935 1.36808 0.755861 0
M  V30 9147 H 883.67 0.631685 3.18088 0
M  V30 9148 H 883.455 2.40415 3.09747 0
M  V30 9149 H 884.945 1.71438 3.80787 0
M  V30 9150 N 885.382 -0.782676 1.36792 0
M  V30 9151 C 886.631 -1.53605 1.30723 0
M  V30 9152 C 886.944 -1.95294 -0.109296 0
M  V30 9153 O 888.15 -2.69921 -0.292398 0
M  V30 9154 C 886.606 -2.77321 2.29393 0
M  V30 9155 C 886.214 -2.42774 3.76517 0
M  V30 9156 C 887.958 -3.55289 2.32314 0
M  V30 9157 C 885.865 -3.62926 4.66947 0
M  V30 9158 H 884.795 -0.576646 0.485794 0
M  V30 9159 H 887.446 -0.858255 1.62192 0
M  V30 9160 H 885.828 -3.46934 1.90927 0
M  V30 9161 H 887.002 -1.81014 4.23758 0
M  V30 9162 H 885.317 -1.78002 3.76436 0
M  V30 9163 H 887.914 -4.44573 2.97083 0
M  V30 9164 H 888.257 -3.94361 1.3336 0
M  V30 9165 H 888.79 -2.92662 2.69432 0
M  V30 9166 H 885.529 -3.28944 5.66989 0
M  V30 9167 H 885.049 -4.23828 4.24418 0
M  V30 9168 H 886.728 -4.29873 4.83548 0
M  V30 9169 N 886.86 -1.21182 -1.00761 0
M  V30 9170 C 888.088 -1.05335 -1.78079 0
M  V30 9171 C 888.503 0.396988 -1.84579 0
M  V30 9172 O 887.86 1.27548 -1.30529 0
M  V30 9173 C 887.911 -1.64089 -3.22113 0
M  V30 9174 O 887.632 -3.03448 -3.15992 0
M  V30 9175 C 889.133 -1.53318 -4.15943 0
M  V30 9176 H 886.353 -0.37005 -0.559736 0
M  V30 9177 H 888.897 -1.60463 -1.26775 0
M  V30 9178 H 887.052 -1.13059 -3.70535 0
M  V30 9179 H 887.466 -3.31492 -4.06465 0
M  V30 9180 H 888.94 -1.99174 -5.14814 0
M  V30 9181 H 889.417 -0.487166 -4.3649 0
M  V30 9182 H 890.023 -2.03582 -3.73409 0
M  V30 9183 N 888.338 1.20213 -1.01915 0
M  V30 9184 C 889.268 2.25336 -0.612023 0
M  V30 9185 C 890.249 1.65933 0.374186 0
M  V30 9186 O 891.434 1.92464 0.259053 0
M  V30 9187 C 888.564 3.47267 0.047904 0
M  V30 9188 C 887.518 4.1928 -0.859557 0
M  V30 9189 C 886.844 5.3466 -0.0652655 0
M  V30 9190 C 888.144 4.75143 -2.1688 0
M  V30 9191 H 889.838 2.59645 -1.49079 0
M  V30 9192 H 887.384 1.24808 -0.718263 0
M  V30 9193 H 889.337 4.19991 0.344294 0
M  V30 9194 H 888.061 3.12129 0.961404 0
M  V30 9195 H 886.72 3.48425 -1.13999 0
M  V30 9196 H 886.368 4.95767 0.849964 0
M  V30 9197 H 886.068 5.83772 -0.669618 0
M  V30 9198 H 887.592 6.10187 0.224612 0
M  V30 9199 H 889.006 5.39672 -1.9346 0
M  V30 9200 H 887.403 5.34702 -2.72422 0
M  V30 9201 H 888.473 3.93744 -2.83008 0
M  V30 9202 N 889.816 0.795718 1.36037 0
M  V30 9203 C 890.726 0.199784 2.33748 0
M  V30 9204 C 891.742 -0.651436 1.61345 0
M  V30 9205 O 892.918 -0.565743 1.93291 0
M  V30 9206 C 889.983 -0.650475 3.40543 0
M  V30 9207 C 889.044 0.219974 4.28736 0
M  V30 9208 C 888.277 -0.589798 5.30431 0
M  V30 9209 O 888.5 -1.82532 5.40406 0
M  V30 9210 O 887.434 0.0136187 6.01898 0
M  V30 9211 H 891.26 1.00782 2.8649 0
M  V30 9212 H 888.845 0.557293 1.38617 0
M  V30 9213 H 890.727 -1.13512 4.05824 0
M  V30 9214 H 889.402 -1.4363 2.9009 0
M  V30 9215 H 888.309 0.751516 3.66474 0
M  V30 9216 H 889.642 0.969468 4.82558 0
M  V30 9217 N 891.294 -1.47756 0.548274 0
M  V30 9218 C 892.541 -2.02489 0.0208955 0
M  V30 9219 C 892.869 -1.42356 -1.32533 0
M  V30 9220 O 892.124 -0.565448 -1.87353 0
M  V30 9221 C 892.423 -3.5716 -0.131069 0
M  V30 9222 C 892.089 -4.36169 1.14313 0
M  V30 9223 C 890.751 -4.57476 1.4923 0
M  V30 9224 C 893.103 -4.81801 1.9879 0
M  V30 9225 C 890.431 -5.21662 2.68487 0
M  V30 9226 C 892.783 -5.47303 3.17242 0
M  V30 9227 C 891.447 -5.66844 3.52483 0
M  V30 9228 H 890.717 -0.740961 0.00764621 0
M  V30 9229 H 893.364 -1.77531 0.717987 0
M  V30 9230 H 891.669 -3.8106 -0.911063 0
M  V30 9231 H 893.366 -3.9715 -0.55433 0
M  V30 9232 H 889.956 -4.19858 0.861235 0
M  V30 9233 H 894.14 -4.65126 1.73123 0
M  V30 9234 H 889.396 -5.34987 2.95971 0
M  V30 9235 H 893.57 -5.81626 3.82994 0
M  V30 9236 H 891.197 -6.16352 4.44988 0
M  V30 9237 N 892.772 -0.284283 -1.55015 0
M  V30 9238 C 894.002 0.332465 -2.03907 0
M  V30 9239 C 894.41 1.49331 -1.16177 0
M  V30 9240 O 893.753 1.82851 -0.176395 0
M  V30 9241 C 893.815 0.867193 -3.48884 0
M  V30 9242 C 893.479 -0.166198 -4.56698 0
M  V30 9243 C 894.476 -0.988898 -5.10408 0
M  V30 9244 C 892.161 -0.303081 -5.01385 0
M  V30 9245 C 894.155 -1.93458 -6.07333 0
M  V30 9246 C 891.842 -1.25223 -5.98133 0
M  V30 9247 C 892.84 -2.06647 -6.50988 0
M  V30 9248 O 892.528 -2.99955 -7.45843 0
M  V30 9249 H 892.26 0.0786597 -0.671408 0
M  V30 9250 H 894.814 -0.416871 -2.01125 0
M  V30 9251 H 893.044 1.66676 -3.48935 0
M  V30 9252 H 894.733 1.39802 -3.81065 0
M  V30 9253 H 895.499 -0.89393 -4.76691 0
M  V30 9254 H 891.378 0.320711 -4.59883 0
M  V30 9255 H 894.922 -2.57053 -6.48513 0
M  V30 9256 H 890.819 -1.34798 -6.31268 0
M  V30 9257 H 891.587 -2.94742 -7.6359 0
M  V30 9258 N 894.251 1.57596 -0.0117121 0
M  V30 9259 C 895.183 2.06025 1.0043 0
M  V30 9260 C 896.196 0.980348 1.29973 0
M  V30 9261 O 897.385 1.25691 1.26744 0
M  V30 9262 C 894.485 2.45514 2.33615 0
M  V30 9263 C 893.658 3.76378 2.22842 0
M  V30 9264 C 892.717 4.02606 3.38814 0
M  V30 9265 O 891.743 4.73108 3.16477 0
M  V30 9266 N 892.945 3.51416 4.62047 0
M  V30 9267 H 895.71 2.93811 0.591206 0
M  V30 9268 H 893.271 1.60947 0.175427 0
M  V30 9269 H 895.263 2.60166 3.09993 0
M  V30 9270 H 893.833 1.63186 2.66625 0
M  V30 9271 H 893.053 3.71691 1.313 0
M  V30 9272 H 894.341 4.62149 2.12829 0
M  V30 9273 H 893.739 2.94346 4.83091 0
M  V30 9274 H 892.296 3.71377 5.35651 0
M  V30 9275 N 895.729 -0.261212 1.5542 0
M  V30 9276 C 897.006 -1.01321 1.67312 0
M  V30 9277 C 897.386 -2.0388 0.547356 0
M  V30 9278 O 896.734 -2.24003 -0.451083 0
M  V30 9279 C 896.944 -1.65943 3.07024 0
M  V30 9280 C 898.292 -2.16666 3.65159 0
M  V30 9281 O 899.316 -1.75909 3.09733 0
M  V30 9282 O 898.175 -2.91455 4.62294 0
M  V30 9283 H 895.269 -0.470714 0.679968 0
M  V30 9284 H 897.815 -0.256133 1.67756 0
M  V30 9285 H 896.587 -0.916868 3.80407 0
M  V30 9286 H 896.21 -2.48308 3.1053 0
M  V30 9287 N 897.207 -1.48554 -0.526253 0
M  V30 9288 C 898.455 -1.56452 -1.27935 0
M  V30 9289 C 898.776 -0.24184 -1.93495 0
M  V30 9290 O 898.046 0.736917 -1.81511 0
M  V30 9291 H 896.626 -0.576379 -0.47518 0
M  V30 9292 H 899.288 -1.85039 -0.612083 0
M  V30 9293 H 898.384 -2.34751 -2.05666 0
M  V30 9294 N 898.685 0.775411 -1.37205 0
M  V30 9295 C 899.633 1.90996 -1.32752 0
M  V30 9296 C 900.627 1.68006 -0.216907 0
M  V30 9297 O 901.833 1.7584 -0.384723 0
M  V30 9298 H 898.208 0.62803 -0.413621 0
M  V30 9299 H 900.179 1.91869 -2.28536 0
M  V30 9300 C 898.928 3.28211 -1.14772 0
M  V30 9301 H 898.251 3.46477 -1.99484 0
M  V30 9302 H 899.691 4.07907 -1.15706 0
M  V30 9303 C 898.15 3.3658 0.146852 0
M  V30 9304 O 898.68 3.85428 1.13173 0
M  V30 9305 N 896.886 2.89936 0.196305 0
M  V30 9306 H 896.433 2.50375 -0.605807 0
M  V30 9307 H 896.391 2.95916 1.06212 0
M  V30 9308 N 900.163 1.21714 1.00117 0
M  V30 9309 C 901.411 1.03465 1.73607 0
M  V30 9310 C 901.732 -0.432295 1.90148 0
M  V30 9311 O 901.002 -1.31157 1.45515 0
M  V30 9312 H 899.582 0.379857 0.643209 0
M  V30 9313 H 902.244 1.53088 1.20624 0
M  V30 9314 H 901.34 1.50574 2.73375 0
M  V30 9315 N 901.641 -1.19671 1.02551 0
M  V30 9316 C 903.057 -1.41305 0.741963 0
M  V30 9317 C 903.257 -1.89865 -0.674807 0
M  V30 9318 O 902.313 -2.07323 -1.44129 0
M  V30 9319 C 903.626 -2.42706 1.77522 0
M  V30 9320 C 905.174 -2.56458 1.79438 0
M  V30 9321 C 905.649 -3.61111 2.81715 0
M  V30 9322 N 907.14 -3.68603 2.8051 0
M  V30 9323 C 907.875 -4.49262 3.56302 0
M  V30 9324 N 907.371 -5.33653 4.41799 0
M  V30 9325 N 909.164 -4.43879 3.44859 0
M  V30 9326 H 901.315 -0.8647 1.94002 0
M  V30 9327 H 903.578 -0.442206 0.838545 0
M  V30 9328 H 903.284 -2.14042 2.79068 0
M  V30 9329 H 903.158 -3.41831 1.59472 0
M  V30 9330 H 905.545 -2.84447 0.78573 0
M  V30 9331 H 905.626 -1.57499 2.01563 0
M  V30 9332 H 905.27 -3.33864 3.82749 0
M  V30 9333 H 905.2 -4.59713 2.56849 0
M  V30 9334 H 907.691 -3.08329 2.18498 0
M  V30 9335 H 908.004 -5.92308 4.96378 0
M  V30 9336 H 906.349 -5.33125 4.45873 0
M  V30 9337 H 909.54 -3.7699 2.77482 0
M  V30 9338 H 909.713 -5.06501 4.04179 0
M  V30 9339 N 903.119 -0.802921 -1.35613 0
M  V30 9340 C 904.029 -0.212177 -2.33639 0
M  V30 9341 C 905.045 0.642871 -1.61689 0
M  V30 9342 O 906.221 0.555485 -1.93588 0
M  V30 9343 C 903.286 0.632406 -3.40883 0
M  V30 9344 C 902.347 -0.242708 -4.28613 0
M  V30 9345 C 901.58 0.56166 -5.30736 0
M  V30 9346 O 901.803 1.79664 -5.41366 0
M  V30 9347 O 900.737 -0.0455387 -6.01883 0
M  V30 9348 H 904.563 -1.023 -2.85952 0
M  V30 9349 H 902.148 -0.564636 -1.38319 0
M  V30 9350 H 904.03 1.11358 -4.0642 0
M  V30 9351 H 902.705 1.42089 -2.90848 0
M  V30 9352 H 901.612 -0.77094 -3.6607 0
M  V30 9353 H 902.945 -0.995046 -4.82037 0
M  V30 9354 N 904.597 1.47463 -0.556102 0
M  V30 9355 C 905.545 2.31692 0.205299 0
M  V30 9356 C 906.539 1.42857 0.910394 0
M  V30 9357 O 907.745 1.59628 0.831806 0
M  V30 9358 H 904.12 0.747172 0.0850775 0
M  V30 9359 H 906.091 2.93758 -0.524305 0
M  V30 9360 C 904.84 3.25487 1.22283 0
M  V30 9361 H 904.163 3.93806 0.689697 0
M  V30 9362 H 905.603 3.87257 1.7265 0
M  V30 9363 C 904.062 2.48931 2.27013 0
M  V30 9364 O 904.592 2.23296 3.33919 0
M  V30 9365 N 902.798 2.0996 2.00911 0
M  V30 9366 H 902.345 2.31008 1.13986 0
M  V30 9367 H 902.303 1.59053 2.712 0
M  V30 9368 N 906.075 0.2925 1.54862 0
M  V30 9369 C 907.321 -0.319736 2.00264 0
M  V30 9370 C 907.654 -1.5419 1.18064 0
M  V30 9371 O 906.929 -1.92821 0.254983 0
M  V30 9372 C 907.212 -0.684753 3.5353 0
M  V30 9373 C 907.065 0.545961 4.46474 0
M  V30 9374 C 908.384 -1.51456 4.13218 0
M  V30 9375 H 905.503 -0.11474 0.728014 0
M  V30 9376 H 908.145 0.402907 1.85679 0
M  V30 9377 H 906.295 -1.30044 3.66089 0
M  V30 9378 H 907.967 1.18448 4.45834 0
M  V30 9379 H 906.21 1.1808 4.1742 0
M  V30 9380 H 906.881 0.246544 5.51449 0
M  V30 9381 H 909.357 -0.994421 4.04043 0
M  V30 9382 H 908.233 -1.73875 5.20633 0
M  V30 9383 H 908.494 -2.5011 3.64551 0
M  V30 9384 N 907.553 -1.57587 0.0200696 0
M  V30 9385 C 908.801 -1.91046 -0.65922 0
M  V30 9386 C 909.122 -0.896197 -1.73186 0
M  V30 9387 O 908.392 0.0635952 -1.95797 0
M  V30 9388 H 906.972 -0.705163 -0.246483 0
M  V30 9389 H 909.634 -1.94789 0.0657368 0
M  V30 9390 H 908.73 -2.91399 -1.11773 0
M  V30 9391 N 909.032 0.252966 -1.55557 0
M  V30 9392 C 910.281 0.979736 -1.76307 0
M  V30 9393 C 910.594 1.86714 -0.582871 0
M  V30 9394 O 911.8 2.6302 -0.673247 0
M  V30 9395 C 910.256 1.79205 -3.12112 0
M  V30 9396 C 909.864 0.952333 -4.37761 0
M  V30 9397 C 911.608 2.51191 -3.42203 0
M  V30 9398 C 909.515 1.76018 -5.64599 0
M  V30 9399 H 908.445 0.369538 -0.657235 0
M  V30 9400 H 911.096 0.234619 -1.81994 0
M  V30 9401 H 909.478 2.57888 -3.00515 0
M  V30 9402 H 910.652 0.208251 -4.60329 0
M  V30 9403 H 908.967 0.346082 -4.14959 0
M  V30 9404 H 911.564 3.12074 -4.34182 0
M  V30 9405 H 911.907 3.22499 -2.63249 0
M  V30 9406 H 912.44 1.79523 -3.54988 0
M  V30 9407 H 909.179 1.09095 -6.46358 0
M  V30 9408 H 908.699 2.4797 -5.46142 0
M  V30 9409 H 910.378 2.32884 -6.03634 0
M  V30 9410 N 910.51 1.48831 0.518367 0
M  V30 9411 C 911.74 1.60886 1.29612 0
M  V30 9412 C 912.148 0.272713 1.87224 0
M  V30 9413 O 911.491 -0.749653 1.67708 0
M  V30 9414 C 911.553 2.60541 2.47707 0
M  V30 9415 C 911.217 4.05324 2.11095 0
M  V30 9416 C 912.214 4.92658 1.66084 0
M  V30 9417 C 909.899 4.50942 2.21262 0
M  V30 9418 C 911.893 6.23641 1.3172 0
M  V30 9419 C 909.58 5.81943 1.8651 0
M  V30 9420 C 910.578 6.68116 1.41812 0
M  V30 9421 O 910.266 7.96677 1.07522 0
M  V30 9422 H 909.998 0.544968 0.399982 0
M  V30 9423 H 912.552 1.95474 0.630799 0
M  V30 9424 H 910.782 2.21098 3.17258 0
M  V30 9425 H 912.471 2.62308 3.09757 0
M  V30 9426 H 913.237 4.58649 1.5769 0
M  V30 9427 H 909.116 3.84048 2.55007 0
M  V30 9428 H 912.66 6.90857 0.967598 0
M  V30 9429 H 908.557 6.15484 1.94549 0
M  V30 9430 H 909.325 8.09534 1.2082 0
M  V30 9431 N 911.988 -0.768124 1.37614 0
M  V30 9432 C 912.936 -1.9029 1.33763 0
M  V30 9433 C 913.93 -1.67888 0.225814 0
M  V30 9434 O 915.136 -1.75634 0.394043 0
M  V30 9435 H 911.511 -0.625828 0.416945 0
M  V30 9436 H 913.482 -1.90654 2.29551 0
M  V30 9437 C 912.231 -3.27598 1.16511 0
M  V30 9438 H 911.554 -3.45414 2.01318 0
M  V30 9439 H 912.994 -4.07288 1.17867 0
M  V30 9440 C 911.453 -3.36653 -0.129001 0
M  V30 9441 O 911.983 -3.86023 -1.11128 0
M  V30 9442 N 910.189 -2.90036 -0.180926 0
M  V30 9443 H 909.736 -2.5005 0.619076 0
M  V30 9444 H 909.694 -2.96475 -1.04641 0
M  V30 9445 N 913.466 -1.22244 -0.994698 0
M  V30 9446 C 914.396 -1.01513 -2.10279 0
M  V30 9447 C 915.377 0.0633365 -1.69982 0
M  V30 9448 O 916.562 -0.0985268 -1.9395 0
M  V30 9449 C 913.692 -0.59016 -3.42249 0
M  V30 9450 C 912.646 -1.61436 -3.96387 0
M  V30 9451 C 911.972 -1.04528 -5.24383 0
M  V30 9452 C 913.272 -3.00388 -4.27276 0
M  V30 9453 H 914.966 -1.94194 -2.2788 0
M  V30 9454 H 912.512 -0.935094 -1.09508 0
M  V30 9455 H 914.465 -0.432254 -4.19177 0
M  V30 9456 H 913.189 0.372308 -3.24471 0
M  V30 9457 H 911.848 -1.76001 -3.21589 0
M  V30 9458 H 911.496 -0.0742225 -5.02945 0
M  V30 9459 H 911.196 -1.72949 -5.61571 0
M  V30 9460 H 912.72 -0.898922 -6.03947 0
M  V30 9461 H 914.134 -2.89207 -4.95007 0
M  V30 9462 H 912.531 -3.65916 -4.75631 0
M  V30 9463 H 913.601 -3.50456 -3.35125 0
M  V30 9464 N 914.944 1.19125 -1.03184 0
M  V30 9465 C 916.169 1.93379 -0.749628 0
M  V30 9466 C 916.594 1.75153 0.685785 0
M  V30 9467 O 915.952 1.05579 1.47386 0
M  V30 9468 C 916 3.43101 -1.1097 0
M  V30 9469 O 915.104 4.11758 -0.230053 0
M  V30 9470 H 914.445 0.603605 -0.276689 0
M  V30 9471 H 916.975 1.51116 -1.37931 0
M  V30 9472 H 916.985 3.93778 -1.06785 0
M  V30 9473 H 915.66 3.55688 -2.15544 0
M  V30 9474 H 914.237 3.7143 -0.330748 0
M  V30 9475 N 916.422 0.810101 1.35185 0
M  V30 9476 C 917.369 0.220927 2.2974 0
M  V30 9477 C 918.339 -0.647024 1.5298 0
M  V30 9478 O 919.524 -0.591367 1.81404 0
M  V30 9479 C 916.664 -0.62167 3.39454 0
M  V30 9480 C 915.777 0.267104 4.31173 0
M  V30 9481 C 914.912 -0.583833 5.27982 0
M  V30 9482 C 913.951 0.305123 6.11339 0
M  V30 9483 N 913.088 -0.505992 7.00274 0
M  V30 9484 H 917.928 1.03266 2.79536 0
M  V30 9485 H 915.465 0.520768 1.37573 0
M  V30 9486 H 917.423 -1.12539 4.01735 0
M  V30 9487 H 916.053 -1.39863 2.90926 0
M  V30 9488 H 915.105 0.88895 3.69867 0
M  V30 9489 H 916.417 0.951182 4.89647 0
M  V30 9490 H 915.571 -1.15254 5.95652 0
M  V30 9491 H 914.31 -1.30146 4.70014 0
M  V30 9492 H 913.315 0.886075 5.42613 0
M  V30 9493 H 914.54 1.02067 6.71386 0
M  V30 9494 H 912.486 -1.20753 6.4479 0
M  V30 9495 H 912.403 0.119966 7.55905 0
M  V30 9496 H 913.671 -1.05787 7.72288 0
M  V30 9497 N 917.9 -1.47166 0.563914 0
M  V30 9498 C 919.148 -2.02056 0.0422873 0
M  V30 9499 C 919.469 -1.43992 -1.31497 0
M  V30 9500 O 918.739 -0.617578 -1.85911 0
M  V30 9501 H 917.319 -0.746893 0.0126427 0
M  V30 9502 H 919.981 -1.80492 0.735441 0
M  V30 9503 H 919.077 -3.12073 -0.0408044 0
M  V30 9504 N 919.378 -0.300708 -1.54705 0
M  V30 9505 C 920.624 0.309111 -2.0043 0
M  V30 9506 C 920.957 1.53562 -1.1888 0
M  V30 9507 O 920.232 1.92683 -0.265205 0
M  V30 9508 C 920.515 0.665995 -3.53888 0
M  V30 9509 C 920.368 -0.56963 -4.46178 0
M  V30 9510 C 921.687 1.49262 -4.14016 0
M  V30 9511 H 918.806 0.110878 -0.728612 0
M  V30 9512 H 921.448 -0.412748 -1.85463 0
M  V30 9513 H 919.598 1.281 -3.66773 0
M  V30 9514 H 921.27 -1.20811 -4.45199 0
M  V30 9515 H 919.513 -1.20292 -4.16788 0
M  V30 9516 H 920.184 -0.275785 -5.51311 0
M  V30 9517 H 922.66 0.972979 -4.04564 0
M  V30 9518 H 921.536 1.71111 -5.21548 0
M  V30 9519 H 921.797 2.48174 -3.65872 0
M  V30 9520 N 920.856 1.57574 -0.0284266 0
M  V30 9521 C 921.804 2.11332 0.971675 0
M  V30 9522 C 922.798 1.03974 1.33738 0
M  V30 9523 O 924.004 1.22409 1.31969 0
M  V30 9524 H 920.379 0.675174 0.331125 0
M  V30 9525 H 922.35 2.943 0.49296 0
M  V30 9526 C 921.099 2.65496 2.24516 0
M  V30 9527 H 920.422 3.47753 1.9725 0
M  V30 9528 H 921.862 3.06757 2.92705 0
M  V30 9529 C 920.321 1.58207 2.97443 0
M  V30 9530 O 920.851 0.981496 3.89525 0
M  V30 9531 N 919.057 1.30269 2.59766 0
M  V30 9532 H 918.604 1.79294 1.84963 0
M  V30 9533 H 918.562 0.587085 3.0887 0
M  V30 9534 N 922.334 -0.244713 1.55689 0
M  V30 9535 C 923.75 -0.593331 1.48161 0
M  V30 9536 C 923.95 -1.88234 0.719047 0
M  V30 9537 O 923.006 -2.51266 0.249292 0
M  V30 9538 C 924.319 -0.694032 2.92581 0
M  V30 9539 C 925.867 -0.786213 3.02965 0
M  V30 9540 C 926.342 -0.918457 4.48696 0
M  V30 9541 N 927.833 -0.983272 4.52643 0
M  V30 9542 C 928.568 -1.1049 5.62654 0
M  V30 9543 N 928.064 -1.19193 6.8247 0
M  V30 9544 N 929.857 -1.13823 5.50455 0
M  V30 9545 H 922.008 0.601446 2.03707 0
M  V30 9546 H 924.271 0.207894 0.924924 0
M  V30 9547 H 923.977 0.183133 3.51223 0
M  V30 9548 H 923.851 -1.56525 3.4319 0
M  V30 9549 H 926.238 -1.65383 2.44402 0
M  V30 9550 H 926.319 0.110202 2.55563 0
M  V30 9551 H 925.963 -0.0553881 5.0787 0
M  V30 9552 H 925.893 -1.82994 4.93782 0
M  V30 9553 H 928.384 -0.927269 3.66347 0
M  V30 9554 H 928.697 -1.28387 7.62061 0
M  V30 9555 H 927.042 -1.16147 6.85226 0
M  V30 9556 H 930.233 -1.06673 4.55783 0
M  V30 9557 H 930.406 -1.22957 6.36228 0
M  V30 9558 N 923.813 -1.49104 -0.510467 0
M  V30 9559 C 925.06 -1.58112 -1.26518 0
M  V30 9560 C 925.388 -0.263603 -1.92705 0
M  V30 9561 O 924.643 0.747743 -1.80852 0
M  V30 9562 C 924.942 -2.68259 -2.36161 0
M  V30 9563 C 924.608 -4.10069 -1.87495 0
M  V30 9564 C 923.27 -4.48662 -1.73942 0
M  V30 9565 C 925.622 -4.98859 -1.5096 0
M  V30 9566 C 922.95 -5.73829 -1.22217 0
M  V30 9567 C 925.302 -6.24535 -1.00691 0
M  V30 9568 C 923.966 -6.61967 -0.857691 0
M  V30 9569 H 923.236 -0.578574 -0.462962 0
M  V30 9570 H 925.883 -1.82899 -0.567475 0
M  V30 9571 H 924.188 -2.37407 -3.11681 0
M  V30 9572 H 925.885 -2.7244 -2.9424 0
M  V30 9573 H 922.475 -3.79601 -1.99001 0
M  V30 9574 H 926.659 -4.69706 -1.60282 0
M  V30 9575 H 921.915 -6.01539 -1.09368 0
M  V30 9576 H 926.089 -6.9272 -0.71498 0
M  V30 9577 H 923.716 -7.58839 -0.454702 0
M  V30 9578 N 925.291 0.760815 -1.38019 0
M  V30 9579 C 926.531 1.53264 -1.35239 0
M  V30 9580 C 926.895 1.91908 0.0595038 0
M  V30 9581 O 928.096 2.67962 0.212122 0
M  V30 9582 C 926.367 2.75643 -2.27499 0
M  V30 9583 S 927.926 3.6559 -2.42672 0
M  V30 9584 H 924.744 0.52457 -0.479945 0
M  V30 9585 H 927.346 0.893737 -1.73875 0
M  V30 9586 H 926.05 2.4535 -3.28986 0
M  V30 9587 H 925.581 3.44483 -1.89987 0
M  V30 9588 H 927.596 4.68124 -1.64542 0
M  V30 9589 N 926.769 1.22769 0.988202 0
M  V30 9590 C 927.699 1.02627 2.09738 0
M  V30 9591 C 928.68 -0.0543211 1.70013 0
M  V30 9592 O 929.865 0.108811 1.93895 0
M  V30 9593 C 926.995 0.608302 3.41931 0
M  V30 9594 C 925.949 1.63536 3.95525 0
M  V30 9595 C 925.275 1.07308 5.23822 0
M  V30 9596 C 926.575 3.02649 4.25677 0
M  V30 9597 H 928.269 1.954 2.26847 0
M  V30 9598 H 925.815 0.940888 1.09011 0
M  V30 9599 H 927.768 0.454478 4.18942 0
M  V30 9600 H 926.492 -0.355095 3.24664 0
M  V30 9601 H 925.151 1.77704 3.20651 0
M  V30 9602 H 924.799 0.100894 5.02899 0
M  V30 9603 H 924.499 1.75925 5.60646 0
M  V30 9604 H 926.023 0.930938 6.03462 0
M  V30 9605 H 927.437 2.91828 4.93467 0
M  V30 9606 H 925.834 3.68434 4.73684 0
M  V30 9607 H 926.904 3.52228 3.33262 0
M  V30 9608 N 928.247 -1.18576 1.03814 0
M  V30 9609 C 929.472 -1.92978 0.759873 0
M  V30 9610 C 929.897 -1.75514 -0.676486 0
M  V30 9611 O 929.255 -1.06359 -1.46824 0
M  V30 9612 C 929.303 -3.42507 1.12788 0
M  V30 9613 O 928.407 -4.1163 0.251886 0
M  V30 9614 H 927.748 -0.602129 0.279886 0
M  V30 9615 H 930.278 -1.50383 1.3873 0
M  V30 9616 H 930.288 -3.93206 1.08872 0
M  V30 9617 H 928.963 -3.5454 2.17427 0
M  V30 9618 H 927.54 -3.7125 0.350441 0
M  V30 9619 N 929.725 -0.817259 -1.34754 0
M  V30 9620 C 930.672 -0.233108 -2.2962 0
M  V30 9621 C 931.642 0.638902 -1.53321 0
M  V30 9622 O 932.827 0.581739 -1.81715 0
M  V30 9623 C 929.967 0.603659 -3.39779 0
M  V30 9624 C 929.08 -0.289967 -4.31026 0
M  V30 9625 C 928.215 0.555825 -5.28284 0
M  V30 9626 C 927.254 -0.337539 -6.11169 0
M  V30 9627 N 926.391 0.468847 -7.00533 0
M  V30 9628 H 931.231 -1.04747 -2.78984 0
M  V30 9629 H 928.768 -0.528056 -1.37295 0
M  V30 9630 H 930.726 1.10407 -4.02326 0
M  V30 9631 H 929.356 1.38319 -2.91664 0
M  V30 9632 H 928.408 -0.908552 -3.69391 0
M  V30 9633 H 929.72 -0.977136 -4.89135 0
M  V30 9634 H 928.874 1.12094 -5.96255 0
M  V30 9635 H 927.613 1.27652 -4.70698 0
M  V30 9636 H 926.618 -0.914839 -5.42135 0
M  V30 9637 H 927.843 -1.05626 -6.70835 0
M  V30 9638 H 925.789 1.17332 -6.45422 0
M  V30 9639 H 925.706 -0.160052 -7.55831 0
M  V30 9640 H 926.974 1.01689 -7.72839 0
M  V30 9641 N 931.203 1.46865 -0.571711 0
M  V30 9642 C 932.614 1.86158 -0.142181 0
M  V30 9643 C 932.965 1.47663 1.2919 0
M  V30 9644 O 932.09 0.886393 1.97413 0
M  V30 9645 C 932.685 3.37867 -0.251256 0
M  V30 9646 C 931.244 3.76198 0.123329 0
M  V30 9647 C 930.391 2.70902 -0.592232 0
M  V30 9648 H 933.342 1.38176 -0.780587 0
M  V30 9649 H 933.363 3.76842 0.526331 0
M  V30 9650 H 932.875 3.65853 -1.2951 0
M  V30 9651 H 930.976 3.53829 1.16773 0
M  V30 9652 H 931.089 4.78471 -0.24533 0
M  V30 9653 H 929.453 2.54678 -0.0336927 0
M  V30 9654 H 930.236 3.01729 -1.63751 0
M  V30 9655 N 932.681 0.308908 1.54543 0
M  V30 9656 C 933.929 -0.297447 1.99899 0
M  V30 9657 C 934.25 -1.53799 1.19878 0
M  V30 9658 O 933.52 -1.93639 0.29678 0
M  V30 9659 H 932.1 -0.112897 0.738419 0
M  V30 9660 H 934.762 0.422067 1.90275 0
M  V30 9661 H 933.858 -0.564016 3.06961 0
M  V30 9662 N 934.159 -1.57557 0.0367827 0
M  V30 9663 C 935.405 -1.92399 -0.641133 0
M  V30 9664 C 935.738 -0.914191 -1.71336 0
M  V30 9665 O 935.013 0.0619616 -1.94401 0
M  V30 9666 C 935.296 -3.37689 -1.25052 0
M  V30 9667 C 935.149 -4.4941 -0.187326 0
M  V30 9668 C 936.468 -3.8309 -2.16634 0
M  V30 9669 H 933.587 -0.699666 -0.231597 0
M  V30 9670 H 936.229 -1.89759 0.0956083 0
M  V30 9671 H 934.379 -3.40069 -1.87843 0
M  V30 9672 H 936.051 -4.59161 0.443736 0
M  V30 9673 H 934.294 -4.31065 0.486313 0
M  V30 9674 H 934.965 -5.48119 -0.653459 0
M  V30 9675 H 937.441 -3.82494 -1.63821 0
M  V30 9676 H 936.317 -4.85429 -2.56222 0
M  V30 9677 H 936.578 -3.19028 -3.06062 0
M  V30 9678 N 935.637 0.236453 -1.55816 0
M  V30 9679 C 936.867 0.978873 -1.81939 0
M  V30 9680 C 937.275 1.79041 -0.611647 0
M  V30 9681 O 936.618 1.78616 0.429172 0
M  V30 9682 C 936.68 1.9569 -3.01572 0
M  V30 9683 C 936.344 1.33131 -4.37178 0
M  V30 9684 C 937.341 0.728585 -5.1477 0
M  V30 9685 C 935.026 1.34755 -4.83887 0
M  V30 9686 C 937.02 0.150427 -6.37222 0
M  V30 9687 C 934.707 0.765539 -6.06286 0
M  V30 9688 C 935.705 0.168017 -6.82793 0
M  V30 9689 O 935.393 -0.404976 -8.02879 0
M  V30 9690 H 935.125 0.293186 -0.609113 0
M  V30 9691 H 937.679 0.261384 -2.0373 0
M  V30 9692 H 935.909 2.71298 -2.75562 0
M  V30 9693 H 937.598 2.56362 -3.14695 0
M  V30 9694 H 938.364 0.708477 -4.79797 0
M  V30 9695 H 934.243 1.80202 -4.24321 0
M  V30 9696 H 937.787 -0.316586 -6.96881 0
M  V30 9697 H 933.684 0.78301 -6.40733 0
M  V30 9698 H 934.452 -0.29785 -8.17958 0
M  V30 9699 N 937.115 1.49373 0.502552 0
M  V30 9700 C 938.062 1.65927 1.60427 0
M  V30 9701 C 939.032 0.500768 1.58371 0
M  V30 9702 O 940.217 0.727606 1.76382 0
M  V30 9703 C 937.357 1.73043 2.9858 0
M  V30 9704 C 936.47 3.00187 3.10663 0
M  V30 9705 C 935.605 2.98292 4.3954 0
M  V30 9706 C 934.644 4.20022 4.4525 0
M  V30 9707 N 933.781 4.16046 5.65553 0
M  V30 9708 H 938.621 2.59998 1.45619 0
M  V30 9709 H 936.158 1.28912 0.708519 0
M  V30 9710 H 938.116 1.7515 3.78653 0
M  V30 9711 H 936.746 0.824397 3.12095 0
M  V30 9712 H 935.798 3.07699 2.23663 0
M  V30 9713 H 937.11 3.9018 3.10742 0
M  V30 9714 H 936.264 2.98953 5.27932 0
M  V30 9715 H 935.003 2.06075 4.42023 0
M  V30 9716 H 934.008 4.19607 3.5526 0
M  V30 9717 H 935.233 5.13431 4.44484 0
M  V30 9718 H 933.179 3.26665 5.68881 0
M  V30 9719 H 933.096 4.99773 5.67242 0
M  V30 9720 H 934.364 4.20807 6.56156 0
M  V30 9721 N 938.594 -0.753485 1.38421 0
M  V30 9722 C 939.84 -1.51485 1.34834 0
M  V30 9723 C 940.173 -1.94102 -0.0615381 0
M  V30 9724 O 939.448 -1.65439 -1.02274 0
M  V30 9725 C 939.731 -2.76736 2.30411 0
M  V30 9726 C 939.584 -2.40256 3.80259 0
M  V30 9727 C 940.903 -3.7876 2.24119 0
M  V30 9728 H 938.022 -0.549534 0.491102 0
M  V30 9729 H 940.664 -0.863006 1.6927 0
M  V30 9730 H 938.814 -3.32357 2.01175 0
M  V30 9731 H 940.486 -1.90409 4.20169 0
M  V30 9732 H 938.729 -1.72714 3.97935 0
M  V30 9733 H 939.4 -3.29869 4.42595 0
M  V30 9734 H 941.876 -3.32679 2.49928 0
M  V30 9735 H 940.752 -4.64092 2.93104 0
M  V30 9736 H 941.013 -4.24352 1.24006 0
M  V30 9737 N 940.072 -1.23292 -0.981677 0
M  V30 9738 C 941.3 -1.09088 -1.75805 0
M  V30 9739 C 941.715 0.357746 -1.8538 0
M  V30 9740 O 941.072 1.24751 -1.33205 0
M  V30 9741 C 941.123 -1.70885 -3.1856 0
M  V30 9742 O 940.844 -3.10082 -3.09484 0
M  V30 9743 C 942.345 -1.62106 -4.12597 0
M  V30 9744 H 939.565 -0.38184 -0.55176 0
M  V30 9745 H 942.109 -1.63116 -1.23342 0
M  V30 9746 H 940.264 -1.20893 -3.68054 0
M  V30 9747 H 940.678 -3.40039 -3.99342 0
M  V30 9748 H 942.152 -2.10049 -5.10474 0
M  V30 9749 H 942.629 -0.579642 -4.35358 0
M  V30 9750 H 943.235 -2.11457 -3.69007 0
M  V30 9751 N 941.55 1.18024 -1.04442 0
M  V30 9752 C 942.961 1.69749 -0.777312 0
M  V30 9753 C 943.312 1.83234 0.701399 0
M  V30 9754 O 942.437 1.51452 1.54568 0
M  V30 9755 C 943.032 3.08321 -1.40441 0
M  V30 9756 C 941.591 3.57243 -1.18553 0
M  V30 9757 C 940.738 2.33695 -1.49271 0
M  V30 9758 H 943.689 1.02647 -1.21035 0
M  V30 9759 H 943.71 3.71787 -0.809628 0
M  V30 9760 H 943.222 2.98474 -2.48062 0
M  V30 9761 H 941.323 3.72379 -0.128221 0
M  V30 9762 H 941.436 4.40451 -1.88519 0
M  V30 9763 H 939.8 2.37792 -0.912526 0
M  V30 9764 H 940.583 2.26464 -2.5801 0
M  V30 9765 N 943.028 0.824394 1.34319 0
M  V30 9766 C 944.444 0.510336 1.51221 0
M  V30 9767 C 944.644 -0.965201 1.76879 0
M  V30 9768 O 943.7 -1.74961 1.82057 0
M  V30 9769 C 945.013 1.37114 2.6762 0
M  V30 9770 C 946.561 1.36842 2.81502 0
M  V30 9771 C 947.036 2.21374 4.00946 0
M  V30 9772 N 948.527 2.19005 4.08156 0
M  V30 9773 C 949.262 2.81159 4.99737 0
M  V30 9774 N 948.758 3.52309 5.96532 0
M  V30 9775 N 950.551 2.70706 4.9262 0
M  V30 9776 H 942.702 1.77976 1.15924 0
M  V30 9777 H 944.965 0.758503 0.568663 0
M  V30 9778 H 944.671 2.41905 2.55294 0
M  V30 9779 H 944.545 1.03689 3.62669 0
M  V30 9780 H 946.932 0.328284 2.93268 0
M  V30 9781 H 947.013 1.74265 1.87257 0
M  V30 9782 H 946.657 3.25437 3.8994 0
M  V30 9783 H 946.587 1.813 4.94407 0
M  V30 9784 H 949.078 1.67252 3.38874 0
M  V30 9785 H 949.391 3.96977 6.63045 0
M  V30 9786 H 947.736 3.56415 5.96652 0
M  V30 9787 H 950.927 2.14694 4.15962 0
M  V30 9788 H 951.1 3.19431 5.63798 0
M  V30 9789 N 944.506 -1.46559 0.579492 0
M  V30 9790 C 945.731 -2.0729 0.0674595 0
M  V30 9791 C 946.156 -1.4259 -1.22677 0
M  V30 9792 O 945.514 -0.50857 -1.74021 0
M  V30 9793 C 945.562 -3.60492 -0.0882227 0
M  V30 9794 O 944.666 -3.96172 -1.14551 0
M  V30 9795 H 944.007 -0.661159 0.0613536 0
M  V30 9796 H 946.537 -1.88247 0.801519 0
M  V30 9797 H 946.547 -4.06929 -0.295411 0
M  V30 9798 H 945.222 -4.06976 0.856943 0
M  V30 9799 H 943.799 -3.61448 -0.917033 0
M  V30 9800 N 945.984 -0.3171 -1.54377 0
M  V30 9801 C 947.224 0.288083 -2.0236 0
M  V30 9802 C 947.588 1.4985 -1.20038 0
M  V30 9803 O 948.789 2.17611 -1.57794 0
M  V30 9804 C 947.06 0.620192 -3.51978 0
M  V30 9805 S 948.619 1.20595 -4.21903 0
M  V30 9806 H 945.437 0.0875231 -0.705592 0
M  V30 9807 H 948.039 -0.448719 -1.90281 0
M  V30 9808 H 946.743 -0.268982 -4.09518 0
M  V30 9809 H 946.274 1.38736 -3.68125 0
M  V30 9810 H 948.289 2.49308 -4.29022 0
M  V30 9811 N 947.462 1.57535 -0.0451378 0
M  V30 9812 C 948.412 2.07683 0.940829 0
M  V30 9813 C 949.396 0.9807 1.27558 0
M  V30 9814 O 950.588 1.2441 1.25901 0
M  V30 9815 C 947.717 2.62049 2.21778 0
M  V30 9816 C 946.803 3.78621 1.91068 0
M  V30 9817 N 947.194 4.88623 1.30694 0
M  V30 9818 C 945.492 3.87411 2.20972 0
M  V30 9819 C 946.193 5.69714 1.17478 0
M  V30 9820 N 945.169 5.17129 1.67566 0
M  V30 9821 H 948.971 2.90129 0.469267 0
M  V30 9822 H 946.485 1.61615 0.159472 0
M  V30 9823 H 948.482 2.96276 2.93302 0
M  V30 9824 H 947.142 1.81039 2.69546 0
M  V30 9825 H 948.153 5.08545 0.979907 0
M  V30 9826 H 944.83 3.17335 2.71302 0
M  V30 9827 H 946.22 6.68174 0.706574 0
M  V30 9828 N 948.94 -0.228186 1.55939 0
M  V30 9829 C 950.356 -0.577583 1.48782 0
M  V30 9830 C 950.556 -1.87461 0.738972 0
M  V30 9831 O 949.612 -2.50988 0.275929 0
M  V30 9832 C 950.925 -0.662961 2.93301 0
M  V30 9833 C 952.473 -0.754035 3.03782 0
M  V30 9834 C 952.948 -0.870815 4.49645 0
M  V30 9835 N 954.439 -0.935208 4.53661 0
M  V30 9836 C 955.174 -1.04516 5.63794 0
M  V30 9837 N 954.67 -1.11948 6.83696 0
M  V30 9838 N 956.463 -1.07978 5.51631 0
M  V30 9839 H 948.614 0.623018 2.03057 0
M  V30 9840 H 950.877 0.217692 0.922667 0
M  V30 9841 H 950.583 0.220375 3.51009 0
M  V30 9842 H 950.457 -1.52876 3.44831 0
M  V30 9843 H 952.844 -1.62782 2.46143 0
M  V30 9844 H 952.925 0.137301 2.55431 0
M  V30 9845 H 952.569 -0.0015186 5.079 0
M  V30 9846 H 952.499 -1.77747 4.95695 0
M  V30 9847 H 954.99 -0.88836 3.6731 0
M  V30 9848 H 955.303 -1.20297 7.6338 0
M  V30 9849 H 953.648 -1.08873 6.8642 0
M  V30 9850 H 956.839 -1.01833 4.56889 0
M  V30 9851 H 957.012 -1.16202 6.37496 0
M  V30 9852 N 950.418 -1.49637 -0.494624 0
M  V30 9853 C 951.665 -1.59445 -1.24834 0
M  V30 9854 C 951.993 -0.284028 -1.92415 0
M  V30 9855 O 951.248 0.728519 -1.81634 0
M  V30 9856 C 951.547 -2.70749 -2.33302 0
M  V30 9857 C 951.213 -4.12034 -1.83135 0
M  V30 9858 C 949.875 -4.50482 -1.69173 0
M  V30 9859 C 952.227 -5.00432 -1.4566 0
M  V30 9860 C 949.555 -5.75093 -1.16124 0
M  V30 9861 C 951.907 -6.25568 -0.940608 0
M  V30 9862 C 950.571 -6.62839 -0.787432 0
M  V30 9863 H 949.841 -0.583451 -0.456799 0
M  V30 9864 H 952.488 -1.8349 -0.548044 0
M  V30 9865 H 950.793 -2.407 -3.09145 0
M  V30 9866 H 952.49 -2.75546 -2.91334 0
M  V30 9867 H 949.08 -3.8169 -1.94964 0
M  V30 9868 H 953.264 -4.71379 -1.55291 0
M  V30 9869 H 948.52 -6.02665 -1.02982 0
M  V30 9870 H 952.694 -6.93439 -0.641467 0
M  V30 9871 H 950.321 -7.59279 -0.374191 0
M  V30 9872 N 951.896 0.746133 -1.38819 0
M  V30 9873 C 952.806 1.89063 -1.38897 0
M  V30 9874 C 953.822 1.71648 -0.28513 0
M  V30 9875 O 954.998 1.94443 -0.524783 0
M  V30 9876 C 952.063 3.24523 -1.22007 0
M  V30 9877 C 951.124 3.54411 -2.42263 0
M  V30 9878 C 950.357 4.83408 -2.26169 0
M  V30 9879 O 950.58 5.56325 -1.25931 0
M  V30 9880 O 949.514 5.12943 -3.14918 0
M  V30 9881 H 953.34 1.91951 -2.35347 0
M  V30 9882 H 950.925 0.892433 -1.19816 0
M  V30 9883 H 952.807 4.05496 -1.14677 0
M  V30 9884 H 951.482 3.2243 -0.286455 0
M  V30 9885 H 950.389 2.73569 -2.55168 0
M  V30 9886 H 951.722 3.61273 -3.3428 0
M  V30 9887 N 953.375 1.23811 0.975125 0
M  V30 9888 C 954.307 0.981779 2.07108 0
M  V30 9889 C 955.32 -0.0461211 1.62735 0
M  V30 9890 O 956.509 0.190039 1.77486 0
M  V30 9891 C 953.609 0.458364 3.35786 0
M  V30 9892 C 952.782 1.54767 4.09104 0
M  V30 9893 C 951.841 1.0282 5.16057 0
M  V30 9894 O 950.867 1.71831 5.42644 0
M  V30 9895 N 952.069 -0.141243 5.80328 0
M  V30 9896 H 954.834 1.92537 2.29673 0
M  V30 9897 H 952.395 1.1474 1.14221 0
M  V30 9898 H 954.387 0.0957686 4.04587 0
M  V30 9899 H 952.957 -0.390768 3.10148 0
M  V30 9900 H 952.177 2.08279 3.34684 0
M  V30 9901 H 953.465 2.28006 4.54853 0
M  V30 9902 H 952.863 -0.718382 5.6112 0
M  V30 9903 H 951.42 -0.445052 6.50279 0
M  V30 9904 N 954.853 -1.17469 1.05066 0
M  V30 9905 C 955.816 -2.19648 0.654793 0
M  V30 9906 C 956.816 -1.58107 -0.293063 0
M  V30 9907 O 958.006 -1.74029 -0.077106 0
M  V30 9908 C 955.138 -3.40878 -0.0384437 0
M  V30 9909 H 956.331 -2.56184 1.55915 0
M  V30 9910 H 953.884 -1.31528 0.844396 0
M  V30 9911 H 954.619 -3.09885 -0.956133 0
M  V30 9912 H 954.404 -3.86792 0.642961 0
M  V30 9913 H 955.894 -4.1651 -0.301568 0
M  V30 9914 N 956.331 -0.831506 -1.3388 0
M  V30 9915 C 957.578 -0.423674 -1.98018 0
M  V30 9916 C 957.906 1.01533 -1.65895 0
M  V30 9917 O 957.161 1.72342 -0.927183 0
M  V30 9918 C 957.46 -0.582733 -3.52617 0
M  V30 9919 C 957.126 -1.98874 -4.04673 0
M  V30 9920 C 955.788 -2.37334 -4.186 0
M  V30 9921 C 958.14 -2.90745 -4.3257 0
M  V30 9922 C 955.468 -3.66984 -4.57755 0
M  V30 9923 C 957.82 -4.19868 -4.73174 0
M  V30 9924 C 956.484 -4.58294 -4.85307 0
M  V30 9925 H 955.754 -0.155033 -0.7246 0
M  V30 9926 H 958.401 -1.05711 -1.59679 0
M  V30 9927 H 956.706 0.134052 -3.91571 0
M  V30 9928 H 958.403 -0.247576 -4.00235 0
M  V30 9929 H 954.993 -1.68001 -3.94301 0
M  V30 9930 H 959.177 -2.62272 -4.2134 0
M  V30 9931 H 954.433 -3.9657 -4.65341 0
M  V30 9932 H 958.607 -4.91138 -4.93717 0
M  V30 9933 H 956.234 -5.58805 -5.15404 0
M  V30 9934 N 957.809 1.4625 -0.587256 0
M  V30 9935 C 959.039 2.06444 -0.0802135 0
M  V30 9936 C 959.447 1.43585 1.23207 0
M  V30 9937 O 958.79 0.536956 1.75677 0
M  V30 9938 C 958.852 3.59165 0.155129 0
M  V30 9939 C 958.516 4.44243 -1.07225 0
M  V30 9940 C 959.513 4.80497 -1.98542 0
M  V30 9941 C 957.198 4.8531 -1.29537 0
M  V30 9942 C 959.192 5.56649 -3.10516 0
M  V30 9943 C 956.879 5.61221 -2.41815 0
M  V30 9944 C 957.877 5.96805 -3.32134 0
M  V30 9945 O 957.565 6.71181 -4.42461 0
M  V30 9946 H 957.297 0.673626 -0.0566063 0
M  V30 9947 H 959.851 1.88797 -0.809004 0
M  V30 9948 H 958.081 3.75137 0.938583 0
M  V30 9949 H 959.77 4.01271 0.611243 0
M  V30 9950 H 960.536 4.49345 -1.82522 0
M  V30 9951 H 956.415 4.5706 -0.601431 0
M  V30 9952 H 959.959 5.84343 -3.81037 0
M  V30 9953 H 955.856 5.91786 -2.57797 0
M  V30 9954 H 956.624 6.8961 -4.40886 0
M  V30 9955 N 959.287 0.325282 1.54207 0
M  V30 9956 C 960.515 -0.27869 2.05014 0
M  V30 9957 C 960.93 -1.45649 1.20133 0
M  V30 9958 O 960.287 -1.81014 0.232398 0
M  V30 9959 C 960.338 -0.711486 3.54429 0
M  V30 9960 O 960.059 0.419458 4.36087 0
M  V30 9961 C 961.56 -1.37809 4.21336 0
M  V30 9962 H 958.78 -0.0570388 0.668571 0
M  V30 9963 H 961.324 0.47197 1.98979 0
M  V30 9964 H 959.479 -1.41212 3.60746 0
M  V30 9965 H 959.893 0.0781037 5.24442 0
M  V30 9966 H 961.367 -1.63184 5.27328 0
M  V30 9967 H 961.844 -2.32593 3.72555 0
M  V30 9968 H 962.45 -0.719987 4.19161 0
M  V30 9969 N 960.765 -1.57509 0.0534917 0
M  V30 9970 C 961.995 -1.96812 -0.628386 0
M  V30 9971 C 962.403 -0.929808 -1.64776 0
M  V30 9972 O 961.746 0.0941155 -1.83459 0
M  V30 9973 C 961.808 -3.32361 -1.37027 0
M  V30 9974 C 961.472 -4.54185 -0.506465 0
M  V30 9975 C 962.469 -5.19398 0.228412 0
M  V30 9976 C 960.154 -5.00398 -0.43671 0
M  V30 9977 C 962.148 -6.29162 1.02146 0
M  V30 9978 C 959.835 -6.10039 0.360022 0
M  V30 9979 C 960.833 -6.74282 1.08779 0
M  V30 9980 O 960.521 -7.81814 1.87142 0
M  V30 9981 H 960.253 -0.65257 -0.176432 0
M  V30 9982 H 962.807 -2.05067 0.116908 0
M  V30 9983 H 961.037 -3.20667 -2.16125 0
M  V30 9984 H 962.726 -3.56395 -1.94261 0
M  V30 9985 H 963.492 -4.84651 0.184003 0
M  V30 9986 H 959.371 -4.50183 -0.992772 0
M  V30 9987 H 962.915 -6.79238 1.59002 0
M  V30 9988 H 958.812 -6.44222 0.406061 0
M  V30 9989 H 959.58 -7.98602 1.79378 0
M  V30 9990 N 962.243 0.219913 -1.56058 0
M  V30 9991 C 963.52 0.968493 -1.6994 0
M  V30 9992 C 963.9 2.02358 -0.601219 0
M  V30 9993 O 963.248 2.25121 0.391534 0
M  V30 9994 C 963.458 1.57745 -3.11316 0
M  V30 9995 C 964.806 2.06908 -3.70775 0
M  V30 9996 O 965.83 1.67636 -3.14288 0
M  V30 9997 O 964.689 2.79096 -4.69859 0
M  V30 9998 H 961.783 0.452521 -0.692209 0
M  V30 9999 H 964.329 0.211566 -1.68376 0
M  V30 10000 H 963.101 0.815687 -3.82704 0
M  V30 10001 H 962.724 2.39987 -3.17005 0
M  V30 10002 N 963.721 1.49897 0.486681 0
M  V30 10003 C 964.949 1.63837 1.26353 0
M  V30 10004 C 965.364 0.315428 1.86146 0
M  V30 10005 O 964.721 -0.700831 1.68507 0
M  V30 10006 C 964.772 2.71792 2.38351 0
M  V30 10007 O 964.493 3.98956 1.81013 0
M  V30 10008 C 965.994 2.96566 3.2949 0
M  V30 10009 H 963.214 0.551158 0.382709 0
M  V30 10010 H 965.758 1.96023 0.582694 0
M  V30 10011 H 963.913 2.42344 3.02238 0
M  V30 10012 H 964.327 4.58536 2.54647 0
M  V30 10013 H 965.801 3.75803 4.04322 0
M  V30 10014 H 966.278 2.07031 3.87343 0
M  V30 10015 H 966.884 3.27485 2.71355 0
M  V30 10016 N 965.199 -0.738761 1.39212 0
M  V30 10017 C 966.424 -1.5331 1.39681 0
M  V30 10018 C 966.849 -1.88098 -0.00768715 0
M  V30 10019 O 966.207 -1.51642 -0.993699 0
M  V30 10020 C 966.255 -2.79958 2.27279 0
M  V30 10021 O 965.359 -3.75727 1.70008 0
M  V30 10022 H 964.7 -0.463131 0.475821 0
M  V30 10023 H 967.23 -0.911768 1.83161 0
M  V30 10024 H 967.24 -3.28732 2.41659 0
M  V30 10025 H 965.915 -2.5397 3.29351 0
M  V30 10026 H 964.492 -3.34483 1.64851 0
M  V30 10027 N 966.677 -1.24326 -0.968545 0
M  V30 10028 C 967.902 -1.1104 -1.75171 0
M  V30 10029 C 968.327 0.333109 -1.85127 0
M  V30 10030 O 967.685 1.24115 -1.32156 0
M  V30 10031 C 967.733 -1.75397 -3.15068 0
M  V30 10032 O 966.837 -1.02417 -3.9948 0
M  V30 10033 H 966.178 -0.388488 -0.538491 0
M  V30 10034 H 968.708 -1.64617 -1.215 0
M  V30 10035 H 968.718 -1.8112 -3.65595 0
M  V30 10036 H 967.393 -2.80427 -3.07138 0
M  V30 10037 H 965.97 -1.04475 -3.57966 0
M  V30 10038 N 968.156 1.1691 -1.05688 0
M  V30 10039 C 969.567 1.68915 -0.795273 0
M  V30 10040 C 969.918 1.83968 0.681925 0
M  V30 10041 O 969.043 1.53083 1.52953 0
M  V30 10042 C 969.638 3.06814 -1.43703 0
M  V30 10043 C 968.197 3.55965 -1.22335 0
M  V30 10044 C 967.344 2.32099 -1.51741 0
M  V30 10045 H 970.295 1.01357 -1.22116 0
M  V30 10046 H 970.316 3.70907 -0.849016 0
M  V30 10047 H 969.828 2.95826 -2.51214 0
M  V30 10048 H 967.929 3.72222 -0.16771 0
M  V30 10049 H 968.042 4.38427 -1.9318 0
M  V30 10050 H 966.406 2.36811 -0.937696 0
M  V30 10051 H 967.189 2.23715 -2.60397 0
M  V30 10052 N 969.634 0.838594 1.33437 0
M  V30 10053 C 970.859 0.446701 2.02532 0
M  V30 10054 C 971.284 -0.944275 1.62681 0
M  V30 10055 O 970.642 -1.61733 0.81927 0
M  V30 10056 C 970.69 0.574794 3.55989 0
M  V30 10057 O 969.794 -0.399063 4.10465 0
M  V30 10058 H 969.135 0.181637 0.638674 0
M  V30 10059 H 971.665 1.13335 1.70342 0
M  V30 10060 H 971.675 0.456339 4.0544 0
M  V30 10061 H 970.35 1.58921 3.8434 0
M  V30 10062 H 968.927 -0.238187 3.72139 0
M  V30 10063 N 971.112 -1.45937 0.595003 0
M  V30 10064 C 972.361 -2.01529 0.0829531 0
M  V30 10065 C 972.674 -1.47071 -1.28955 0
M  V30 10066 O 973.88 -1.94561 -1.89363 0
M  V30 10067 C 972.336 -3.59767 0.0976597 0
M  V30 10068 C 971.944 -4.23223 1.46924 0
M  V30 10069 C 973.688 -4.22972 -0.359805 0
M  V30 10070 C 971.595 -5.73576 1.44101 0
M  V30 10071 H 970.525 -0.753508 0.0272425 0
M  V30 10072 H 973.176 -1.67541 0.748473 0
M  V30 10073 H 971.558 -3.90888 -0.634268 0
M  V30 10074 H 972.732 -4.03695 2.22187 0
M  V30 10075 H 971.047 -3.72161 1.86775 0
M  V30 10076 H 973.644 -5.33202 -0.39991 0
M  V30 10077 H 973.987 -3.92765 -1.37991 0
M  V30 10078 H 974.52 -3.96523 0.31845 0
M  V30 10079 H 971.259 -6.08462 2.43831 0
M  V30 10080 H 970.779 -5.95332 0.730767 0
M  V30 10081 H 972.458 -6.36531 1.1592 0
M  V30 10082 N 972.59 -0.333456 -1.54032 0
M  V30 10083 C 973.52 0.52051 -2.27625 0
M  V30 10084 C 974.501 1.1111 -1.28797 0
M  V30 10085 O 975.686 1.13438 -1.57625 0
M  V30 10086 C 972.816 1.67663 -3.04149 0
M  V30 10087 C 971.77 1.21487 -4.10396 0
M  V30 10088 C 971.096 2.45872 -4.74817 0
M  V30 10089 C 972.396 0.322603 -5.21303 0
M  V30 10090 H 974.09 -0.0933823 -2.99254 0
M  V30 10091 H 971.636 -0.0463526 -1.43925 0
M  V30 10092 H 973.589 2.28041 -3.54366 0
M  V30 10093 H 972.313 2.31727 -2.30153 0
M  V30 10094 H 970.972 0.633966 -3.61077 0
M  V30 10095 H 970.62 3.0832 -3.97426 0
M  V30 10096 H 970.32 2.15662 -5.46593 0
M  V30 10097 H 971.844 3.06994 -5.27814 0
M  V30 10098 H 973.258 0.832942 -5.67217 0
M  V30 10099 H 971.655 0.112843 -5.99994 0
M  V30 10100 H 972.725 -0.643954 -4.80605 0
M  V30 10101 N 974.068 1.57479 -0.061844 0
M  V30 10102 C 975.296 1.97429 0.618837 0
M  V30 10103 C 975.711 0.939826 1.63746 0
M  V30 10104 O 975.068 -0.0747173 1.82347 0
M  V30 10105 C 975.119 3.3746 1.29628 0
M  V30 10106 O 974.84 4.36941 0.318431 0
M  V30 10107 C 976.341 3.92228 2.06572 0
M  V30 10108 H 973.561 0.649513 0.168444 0
M  V30 10109 H 976.105 2.04078 -0.131303 0
M  V30 10110 H 974.26 3.31928 1.99757 0
M  V30 10111 H 974.674 5.18313 0.803239 0
M  V30 10112 H 976.148 4.92458 2.49377 0
M  V30 10113 H 976.625 3.28231 2.91824 0
M  V30 10114 H 977.231 4.01131 1.4133 0
M  V30 10115 N 975.546 -0.211634 1.56173 0
M  V30 10116 C 976.476 -1.26533 1.96244 0
M  V30 10117 C 977.457 -1.48362 0.832028 0
M  V30 10118 O 978.642 -1.60378 1.0951 0
M  V30 10119 C 975.772 -2.61307 2.2877 0
M  V30 10120 C 974.726 -2.54119 3.44395 0
M  V30 10121 C 974.052 -3.93014 3.62552 0
M  V30 10122 C 975.352 -2.08046 4.79076 0
M  V30 10123 H 977.046 -0.932407 2.84511 0
M  V30 10124 H 974.592 -0.447084 1.36884 0
M  V30 10125 H 976.545 -3.35188 2.55396 0
M  V30 10126 H 975.269 -2.96307 1.37367 0
M  V30 10127 H 973.928 -1.82694 3.17834 0
M  V30 10128 H 973.576 -4.25338 2.68508 0
M  V30 10129 H 973.276 -3.89083 4.40327 0
M  V30 10130 H 974.8 -4.68542 3.91537 0
M  V30 10131 H 976.214 -2.71676 5.04842 0
M  V30 10132 H 974.611 -2.15154 5.60204 0
M  V30 10133 H 975.681 -1.03306 4.73768 0
M  V30 10134 N 977.024 -1.50153 -0.478725 0
M  V30 10135 C 978.252 -1.64505 -1.25482 0
M  V30 10136 C 978.667 -0.325295 -1.85977 0
M  V30 10137 O 978.024 0.691885 -1.68876 0
M  V30 10138 C 978.075 -2.73052 -2.36906 0
M  V30 10139 O 977.796 -3.99911 -1.78894 0
M  V30 10140 C 979.297 -2.98309 -3.27912 0
M  V30 10141 H 976.517 -0.55318 -0.379781 0
M  V30 10142 H 979.061 -1.96329 -0.57229 0
M  V30 10143 H 977.216 -2.43944 -3.00949 0
M  V30 10144 H 977.63 -4.5988 -2.52211 0
M  V30 10145 H 979.104 -3.77942 -4.02323 0
M  V30 10146 H 979.581 -2.09082 -3.8624 0
M  V30 10147 H 980.187 -3.2892 -2.69614 0
M  V30 10148 N 978.502 0.731368 -1.39602 0
M  V30 10149 C 979.465 1.8271 -1.38383 0
M  V30 10150 C 980.465 1.58338 -0.280309 0
M  V30 10151 O 981.655 1.65671 -0.538402 0
M  V30 10152 C 978.787 3.20556 -1.16002 0
M  V30 10153 H 979.98 1.85193 -2.35889 0
M  V30 10154 H 977.533 0.935396 -1.2522 0
M  V30 10155 H 978.268 3.23732 -0.191927 0
M  V30 10156 H 978.053 3.39643 -1.9592 0
M  V30 10157 H 979.543 4.00612 -1.17899 0
M  V30 10158 N 979.98 1.24838 0.961938 0
M  V30 10159 C 981.229 1.0855 1.69999 0
M  V30 10160 C 981.542 -0.374645 1.91979 0
M  V30 10161 O 982.748 -0.657822 2.6341 0
M  V30 10162 C 981.204 1.89424 3.06017 0
M  V30 10163 C 980.812 3.39885 2.9186 0
M  V30 10164 C 982.556 1.81684 3.83655 0
M  V30 10165 C 980.463 4.13082 4.23223 0
M  V30 10166 H 979.393 0.402603 0.637516 0
M  V30 10167 H 982.044 1.4897 1.07146 0
M  V30 10168 H 980.426 1.41823 3.69733 0
M  V30 10169 H 981.6 3.95108 2.37121 0
M  V30 10170 H 979.915 3.4864 2.27683 0
M  V30 10171 H 982.512 2.3367 4.80939 0
M  V30 10172 H 982.855 0.783247 4.08865 0
M  V30 10173 H 983.388 2.26997 3.26676 0
M  V30 10174 H 980.127 5.16824 4.03204 0
M  V30 10175 H 979.647 3.62644 4.77755 0
M  V30 10176 H 981.326 4.20397 4.91808 0
M  V30 10177 N 981.458 -1.16348 1.06306 0
M  V30 10178 C 982.874 -1.38873 0.786543 0
M  V30 10179 C 983.074 -1.91915 -0.614061 0
M  V30 10180 O 982.13 -2.11804 -1.3746 0
M  V30 10181 C 983.443 -2.36936 1.85154 0
M  V30 10182 C 984.991 -2.5062 1.87506 0
M  V30 10183 C 985.466 -3.51965 2.9306 0
M  V30 10184 N 986.957 -3.59492 2.92095 0
M  V30 10185 C 987.692 -4.37699 3.70415 0
M  V30 10186 N 987.188 -5.19327 4.58553 0
M  V30 10187 N 988.981 -4.32683 3.58806 0
M  V30 10188 H 981.132 -0.802542 1.96655 0
M  V30 10189 H 983.395 -0.415304 0.852189 0
M  V30 10190 H 983.101 -2.05056 2.85736 0
M  V30 10191 H 982.975 -3.36585 1.70267 0
M  V30 10192 H 985.362 -2.81804 0.875827 0
M  V30 10193 H 985.443 -1.51006 2.06472 0
M  V30 10194 H 985.087 -3.21518 3.93177 0
M  V30 10195 H 985.017 -4.51309 2.71344 0
M  V30 10196 H 987.508 -3.01222 2.28197 0
M  V30 10197 H 987.821 -5.76216 5.1497 0
M  V30 10198 H 986.166 -5.1867 4.62608 0
M  V30 10199 H 989.357 -3.67971 2.89335 0
M  V30 10200 H 989.53 -4.93386 4.20088 0
M  V30 10201 N 982.937 -0.845659 -1.3299 0
M  V30 10202 C 983.887 -0.2557 -2.26562 0
M  V30 10203 C 984.871 0.593245 -1.49564 0
M  V30 10204 O 986.063 0.444101 -1.71338 0
M  V30 10205 C 983.192 0.562573 -3.38659 0
M  V30 10206 C 982.278 -0.298259 -4.2305 0
M  V30 10207 N 982.669 -1.38023 -4.86604 0
M  V30 10208 C 980.967 -0.0864539 -4.45916 0
M  V30 10209 C 981.668 -1.90907 -5.49481 0
M  V30 10210 N 980.644 -1.20955 -5.29973 0
M  V30 10211 H 984.446 -1.083 -2.73219 0
M  V30 10212 H 981.96 -0.690823 -1.46974 0
M  V30 10213 H 983.957 1.00157 -4.0469 0
M  V30 10214 H 982.617 1.38777 -2.93549 0
M  V30 10215 H 983.628 -1.76314 -4.86964 0
M  V30 10216 H 980.305 0.70475 -4.11509 0
M  V30 10217 H 981.695 -2.81552 -6.10064 0
M  V30 10218 N 984.415 1.45619 -0.602734 0
M  V30 10219 C 985.365 2.27568 0.140264 0
M  V30 10220 C 986.349 1.3704 0.84314 0
M  V30 10221 O 987.541 1.61067 0.733931 0
M  V30 10222 C 984.67 3.23812 1.14019 0
M  V30 10223 C 983.756 4.21828 0.438406 0
M  V30 10224 N 984.147 5.03148 -0.517245 0
M  V30 10225 C 982.445 4.40684 0.686588 0
M  V30 10226 C 983.146 5.74229 -0.929291 0
M  V30 10227 N 982.122 5.42909 -0.274086 0
M  V30 10228 H 985.924 2.87839 -0.5938 0
M  V30 10229 H 983.438 1.56712 -0.426033 0
M  V30 10230 H 985.435 3.8125 1.68684 0
M  V30 10231 H 984.095 2.65102 1.87486 0
M  V30 10232 H 985.106 5.1013 -0.893758 0
M  V30 10233 H 981.783 3.93102 1.4063 0
M  V30 10234 H 983.173 6.49586 -1.7172 0
M  V30 10235 N 985.893 0.34162 1.53853 0
M  V30 10236 C 987.139 -0.255862 2.01179 0
M  V30 10237 C 987.472 -1.50356 1.22909 0
M  V30 10238 O 986.747 -1.91913 0.316198 0
M  V30 10239 C 987.03 -0.571934 3.55529 0
M  V30 10240 C 986.883 0.687727 4.44511 0
M  V30 10241 C 988.202 -1.38233 4.17827 0
M  V30 10242 H 985.321 -0.091521 0.731295 0
M  V30 10243 H 987.963 0.461775 1.84303 0
M  V30 10244 H 986.113 -1.18331 3.70041 0
M  V30 10245 H 987.785 1.32572 4.4184 0
M  V30 10246 H 986.028 1.313 4.13452 0
M  V30 10247 H 986.699 0.421858 5.50386 0
M  V30 10248 H 989.175 -0.865374 4.07002 0
M  V30 10249 H 988.051 -1.57223 5.25901 0
M  V30 10250 H 988.312 -2.38386 3.72323 0
M  V30 10251 N 987.371 -1.57444 0.0701946 0
M  V30 10252 C 988.301 -2.15659 -0.895176 0
M  V30 10253 C 989.282 -1.08321 -1.31151 0
M  V30 10254 O 990.467 -1.36349 -1.38284 0
M  V30 10255 C 987.597 -2.71693 -2.16334 0
M  V30 10256 C 986.551 -3.84183 -1.88645 0
M  V30 10257 C 985.877 -4.26814 -3.22078 0
M  V30 10258 C 987.177 -5.08493 -1.19299 0
M  V30 10259 H 988.871 -2.96576 -0.410217 0
M  V30 10260 H 986.417 -1.42662 -0.195872 0
M  V30 10261 H 988.37 -3.11064 -2.84284 0
M  V30 10262 H 987.094 -1.87994 -2.67069 0
M  V30 10263 H 985.753 -3.45314 -1.23101 0
M  V30 10264 H 985.401 -3.40039 -3.70651 0
M  V30 10265 H 985.101 -5.02642 -3.04344 0
M  V30 10266 H 986.625 -4.68799 -3.91228 0
M  V30 10267 H 988.039 -5.4519 -1.77316 0
M  V30 10268 H 986.436 -5.89588 -1.11828 0
M  V30 10269 H 987.506 -4.84595 -0.171839 0
M  V30 10270 N 988.849 0.203349 -1.56283 0
M  V30 10271 C 990.097 0.923183 -1.79782 0
M  V30 10272 C 990.418 1.84134 -0.64185 0
M  V30 10273 O 989.688 1.92922 0.340292 0
M  V30 10274 H 988.268 0.343881 -0.66314 0
M  V30 10275 H 990.93 0.210837 -1.93756 0
M  V30 10276 H 990.026 1.51921 -2.72629 0
M  V30 10277 N 990.327 1.50405 0.470755 0
M  V30 10278 C 991.555 1.65168 1.24608 0
M  V30 10279 C 991.97 0.335153 1.85801 0
M  V30 10280 O 991.327 -0.682919 1.69241 0
M  V30 10281 C 991.378 2.74305 2.35455 0
M  V30 10282 O 991.099 4.00854 1.76771 0
M  V30 10283 C 992.6 3.00044 3.26326 0
M  V30 10284 H 989.82 0.555186 0.376842 0
M  V30 10285 H 992.364 1.9663 0.56187 0
M  V30 10286 H 990.519 2.45536 2.99651 0
M  V30 10287 H 990.933 4.61211 2.49769 0
M  V30 10288 H 992.407 3.8007 4.00313 0
M  V30 10289 H 992.884 2.11128 3.85126 0
M  V30 10290 H 993.49 3.30345 2.67866 0
M  V30 10291 N 991.805 -0.723954 1.39988 0
M  V30 10292 C 993.054 -1.47922 1.3712 0
M  V30 10293 C 993.367 -1.95582 -0.0263665 0
M  V30 10294 O 994.573 -2.70918 -0.177652 0
M  V30 10295 C 993.029 -2.67342 2.40949 0
M  V30 10296 C 992.637 -2.26586 3.86475 0
M  V30 10297 C 994.381 -3.45116 2.47174 0
M  V30 10298 C 992.288 -3.42794 4.81919 0
M  V30 10299 H 991.218 -0.555522 0.509815 0
M  V30 10300 H 993.869 -0.788692 1.65686 0
M  V30 10301 H 992.251 -3.38524 2.0547 0
M  V30 10302 H 993.425 -1.62878 4.31054 0
M  V30 10303 H 991.74 -1.61876 3.83647 0
M  V30 10304 H 994.337 -4.31573 3.15672 0
M  V30 10305 H 994.68 -3.8835 1.49966 0
M  V30 10306 H 995.213 -2.80971 2.81602 0
M  V30 10307 H 991.952 -3.046 5.8043 0
M  V30 10308 H 991.472 -4.05445 4.42012 0
M  V30 10309 H 993.151 -4.08977 5.01345 0
M  V30 10310 N 993.283 -1.25346 -0.955304 0
M  V30 10311 C 994.511 -1.12793 -1.73451 0
M  V30 10312 C 994.926 0.318344 -1.86097 0
M  V30 10313 O 994.283 1.21897 -1.35821 0
M  V30 10314 C 994.334 -1.77603 -3.14864 0
M  V30 10315 O 994.055 -3.16577 -3.02837 0
M  V30 10316 C 995.556 -1.70821 -4.09066 0
M  V30 10317 H 992.776 -0.393457 -0.543537 0
M  V30 10318 H 995.32 -1.65696 -1.19855 0
M  V30 10319 H 993.475 -1.28673 -3.65407 0
M  V30 10320 H 993.889 -3.48433 -3.92039 0
M  V30 10321 H 995.363 -2.2083 -5.05903 0
M  V30 10322 H 995.84 -0.671858 -4.34031 0
M  V30 10323 H 996.446 -2.19237 -3.64438 0
M  V30 10324 N 994.761 1.15782 -1.06922 0
M  V30 10325 C 995.989 1.90355 -0.81072 0
M  V30 10326 C 996.404 1.77779 0.635614 0
M  V30 10327 O 995.761 1.12675 1.43564 0
M  V30 10328 C 995.812 3.4085 -1.2043 0
M  V30 10329 O 995.533 3.53057 -2.59388 0
M  V30 10330 C 997.034 4.32457 -0.974473 0
M  V30 10331 H 994.254 0.60343 -0.293451 0
M  V30 10332 H 996.798 1.46723 -1.42452 0
M  V30 10333 H 994.953 3.82162 -0.634909 0
M  V30 10334 H 995.367 4.46426 -2.75326 0
M  V30 10335 H 996.841 5.36488 -1.29942 0
M  V30 10336 H 997.318 4.39109 0.0894481 0
M  V30 10337 H 997.924 3.96882 -1.52856 0
M  V30 10338 N 996.239 0.8527 1.3254 0
M  V30 10339 C 997.516 0.376491 1.91942 0
M  V30 10340 C 997.896 -1.13972 1.7769 0
M  V30 10341 O 997.244 -1.96047 1.17379 0
M  V30 10342 C 997.454 0.838694 3.38773 0
M  V30 10343 C 998.802 0.854736 4.15908 0
M  V30 10344 O 999.826 0.783203 3.47483 0
M  V30 10345 O 998.685 0.955207 5.38087 0
M  V30 10346 H 995.779 0.109412 0.81973 0
M  V30 10347 H 998.325 0.93947 1.41322 0
M  V30 10348 H 997.097 1.88179 3.43081 0
M  V30 10349 H 996.72 0.253055 3.96794 0
M  V30 10350 N 997.718 -1.45297 0.610449 0
M  V30 10351 C 998.665 -2.30553 -0.106718 0
M  V30 10352 C 999.635 -1.42272 -0.85719 0
M  V30 10353 O 1000.82 -1.71199 -0.842357 0
M  V30 10354 C 997.96 -3.27226 -1.09623 0
M  V30 10355 C 997.073 -4.3061 -0.346329 0
M  V30 10356 C 996.208 -5.14389 -1.32581 0
M  V30 10357 C 995.247 -6.09497 -0.563892 0
M  V30 10358 N 994.384 -6.86047 -1.4928 0
M  V30 10359 H 999.224 -2.91344 0.626296 0
M  V30 10360 H 996.761 -1.43563 0.32065 0
M  V30 10361 H 998.719 -3.81744 -1.68308 0
M  V30 10362 H 997.349 -2.68182 -1.79662 0
M  V30 10363 H 996.401 -3.7873 0.356084 0
M  V30 10364 H 997.713 -4.98183 0.248026 0
M  V30 10365 H 996.867 -5.73321 -1.98464 0
M  V30 10366 H 995.606 -4.4684 -1.9541 0
M  V30 10367 H 994.611 -5.49693 0.108551 0
M  V30 10368 H 995.836 -6.79074 0.0593872 0
M  V30 10369 H 993.782 -6.21185 -2.10868 0
M  V30 10370 H 993.699 -7.49983 -0.951953 0
M  V30 10371 H 994.967 -7.49518 -2.14112 0
M  V30 10372 N 999.196 -0.349774 -1.5367 0
M  V30 10373 C 1000.13 0.547309 -2.2154 0
M  V30 10374 C 1001.11 1.09543 -1.20163 0
M  V30 10375 O 1002.29 1.15453 -1.49006 0
M  V30 10376 C 999.418 1.75356 -2.89772 0
M  V30 10377 C 998.464 1.33433 -4.0509 0
M  V30 10378 S 999.297 0.348891 -5.34362 0
M  V30 10379 C 1000.45 1.56183 -6.061 0
M  V30 10380 H 1000.69 -0.0291392 -2.97286 0
M  V30 10381 H 998.219 -0.133853 -1.53819 0
M  V30 10382 H 1000.18 2.44555 -3.29701 0
M  V30 10383 H 998.838 2.30123 -2.1378 0
M  V30 10384 H 998.031 2.23388 -4.5179 0
M  V30 10385 H 997.633 0.721746 -3.6697 0
M  V30 10386 H 999.925 2.49535 -6.29872 0
M  V30 10387 H 1000.87 1.13651 -6.9892 0
M  V30 10388 H 1001.28 1.76071 -5.36339 0
M  V30 10389 N 1000.67 1.57404 -0.0785433 0
M  V30 10390 C 1001.61 2.08724 0.922464 0
M  V30 10391 C 1002.58 0.993912 1.28686 0
M  V30 10392 O 1003.77 1.26776 1.39499 0
M  V30 10393 C 1000.9 2.55051 2.2286 0
M  V30 10394 C 999.942 3.75884 2.01528 0
M  V30 10395 S 1000.77 5.2026 1.26844 0
M  V30 10396 C 1001.93 5.69924 2.58723 0
M  V30 10397 H 1002.16 2.93304 0.485807 0
M  V30 10398 H 999.697 1.53814 0.134377 0
M  V30 10399 H 1001.65 2.82402 2.97926 0
M  V30 10400 H 1000.32 1.70727 2.63649 0
M  V30 10401 H 999.509 4.06311 2.98207 0
M  V30 10402 H 999.111 3.48941 1.34596 0
M  V30 10403 H 1001.4 5.7718 3.5478 0
M  V30 10404 H 1002.35 6.68704 2.32897 0
M  V30 10405 H 1002.75 4.97773 2.66237 0
M  V30 10406 N 1002.15 -0.195058 1.56388 0
M  V30 10407 C 1003.43 -0.941335 1.71459 0
M  V30 10408 C 1003.81 -2.01375 0.633336 0
M  V30 10409 O 1003.16 -2.25715 -0.35567 0
M  V30 10410 C 1003.37 -1.52772 3.13786 0
M  V30 10411 C 1004.71 -2.00983 3.7402 0
M  V30 10412 O 1005.74 -1.62614 3.16915 0
M  V30 10413 O 1004.6 -2.71586 4.7424 0
M  V30 10414 H 1001.69 -0.441451 0.699321 0
M  V30 10415 H 1004.24 -0.184752 1.68691 0
M  V30 10416 H 1003.01 -0.754699 3.83953 0
M  V30 10417 H 1002.63 -2.34914 3.20782 0
M  V30 10418 N 1003.63 -1.50653 -0.462772 0
M  V30 10419 C 1004.88 -1.62297 -1.21603 0
M  V30 10420 C 1005.21 -0.326191 -1.91441 0
M  V30 10421 O 1004.48 0.67284 -1.82491 0
M  V30 10422 C 1004.77 -2.80901 -2.25315 0
M  V30 10423 C 1004.62 -4.20484 -1.59728 0
M  V30 10424 C 1005.94 -2.95049 -3.26549 0
M  V30 10425 H 1003.06 -0.590691 -0.440741 0
M  V30 10426 H 1005.7 -1.83064 -0.508675 0
M  V30 10427 H 1003.85 -2.63325 -2.85643 0
M  V30 10428 H 1005.52 -4.49669 -1.02932 0
M  V30 10429 H 1003.76 -4.24357 -0.900181 0
M  V30 10430 H 1004.44 -4.99416 -2.35133 0
M  V30 10431 H 1006.91 -3.11166 -2.76251 0
M  V30 10432 H 1005.79 -3.79645 -3.96435 0
M  V30 10433 H 1006.05 -2.06019 -3.91163 0
M  V30 10434 N 1005.11 0.71652 -1.4037 0
M  V30 10435 C 1006.34 1.50563 -1.4191 0
M  V30 10436 C 1006.75 1.88791 -0.0185456 0
M  V30 10437 O 1006.11 1.55378 0.957289 0
M  V30 10438 C 1006.16 2.78155 -2.30894 0
M  V30 10439 O 1005.88 2.41543 -3.65497 0
M  V30 10440 C 1007.38 3.72057 -2.41016 0
M  V30 10441 H 1004.6 0.464679 -0.48406 0
M  V30 10442 H 1007.15 0.883927 -1.8441 0
M  V30 10443 H 1005.3 3.36611 -1.91759 0
M  V30 10444 H 1005.71 3.23636 -4.12747 0
M  V30 10445 H 1007.19 4.58426 -3.07489 0
M  V30 10446 H 1007.67 4.15098 -1.43492 0
M  V30 10447 H 1008.27 3.19512 -2.80699 0
M  V30 10448 N 1006.59 1.25851 0.948643 0
M  V30 10449 C 1007.83 1.11119 1.69648 0
M  V30 10450 C 1008.17 -0.345995 1.91093 0
M  V30 10451 O 1007.44 -1.25467 1.48621 0
M  V30 10452 C 1007.72 1.87261 3.0758 0
M  V30 10453 C 1007.58 3.40842 2.93507 0
M  V30 10454 C 1008.9 1.6605 4.07573 0
M  V30 10455 H 1006.01 0.405052 0.615713 0
M  V30 10456 H 1008.66 1.54756 1.10229 0
M  V30 10457 H 1006.81 1.50172 3.58303 0
M  V30 10458 H 1008.48 3.87641 2.50064 0
M  V30 10459 H 1006.72 3.68248 2.29294 0
M  V30 10460 H 1007.39 3.89339 3.91305 0
M  V30 10461 H 1009.87 1.98348 3.65783 0
M  V30 10462 H 1008.74 2.21753 5.02113 0
M  V30 10463 H 1009.01 0.603256 4.37965 0
M  V30 10464 N 1008.06 -1.15214 1.07534 0
M  V30 10465 C 1009.29 -1.89922 0.820804 0
M  V30 10466 C 1009.71 -1.78114 -0.626177 0
M  V30 10467 O 1009.06 -1.13435 -1.42964 0
M  V30 10468 C 1009.12 -3.40207 1.22236 0
M  V30 10469 O 1008.84 -3.51676 2.61257 0
M  V30 10470 C 1010.34 -4.31934 0.997393 0
M  V30 10471 H 1007.56 -0.601865 0.296647 0
M  V30 10472 H 1010.1 -1.45965 1.43229 0
M  V30 10473 H 1008.26 -3.8182 0.655167 0
M  V30 10474 H 1008.67 -4.44959 2.77689 0
M  V30 10475 H 1010.14 -5.35791 1.32785 0
M  V30 10476 H 1010.62 -4.3915 -0.0661599 0
M  V30 10477 H 1011.23 -3.96066 1.54958 0
M  V30 10478 N 1009.54 -0.859717 -1.32086 0
M  V30 10479 C 1010.79 -0.461779 -1.96343 0
M  V30 10480 C 1011.1 0.988837 -1.68764 0
M  V30 10481 O 1012.31 1.49244 -2.268 0
M  V30 10482 C 1010.77 -0.77484 -3.5146 0
M  V30 10483 C 1010.37 -2.24153 -3.87891 0
M  V30 10484 C 1012.12 -0.444873 -4.22162 0
M  V30 10485 C 1010.03 -2.49754 -5.36075 0
M  V30 10486 H 1008.96 -0.168951 -0.734828 0
M  V30 10487 H 1011.61 -1.0512 -1.50406 0
M  V30 10488 H 1009.99 -0.114792 -3.95834 0
M  V30 10489 H 1011.16 -2.94378 -3.54511 0
M  V30 10490 H 1009.48 -2.53651 -3.30227 0
M  V30 10491 H 1012.07 -0.613508 -5.31169 0
M  V30 10492 H 1012.42 0.61391 -4.11749 0
M  V30 10493 H 1012.95 -1.06103 -3.83389 0
M  V30 10494 H 1009.69 -3.54276 -5.51515 0
M  V30 10495 H 1009.21 -1.84112 -5.70844 0
M  V30 10496 H 1010.89 -2.3396 -6.03218 0
M  V30 10497 N 1011.02 1.44971 -0.618145 0
M  V30 10498 C 1011.97 2.30606 0.09449 0
M  V30 10499 C 1012.94 1.42725 0.849633 0
M  V30 10500 O 1014.12 1.71643 0.833266 0
M  V30 10501 C 1011.26 3.27803 1.07886 0
M  V30 10502 C 1010.38 4.30787 0.323488 0
M  V30 10503 C 1009.51 5.15085 1.29851 0
M  V30 10504 C 1008.55 6.09788 0.531561 0
M  V30 10505 N 1007.69 6.86829 1.4564 0
M  V30 10506 H 1012.53 2.91008 -0.641738 0
M  V30 10507 H 1010.06 1.43391 -0.328259 0
M  V30 10508 H 1012.02 3.82631 1.66281 0
M  V30 10509 H 1010.65 2.69131 1.78237 0
M  V30 10510 H 1009.7 3.78536 -0.376164 0
M  V30 10511 H 1011.02 4.98044 -0.274443 0
M  V30 10512 H 1010.17 5.74365 1.95421 0
M  V30 10513 H 1008.91 4.4787 1.93037 0
M  V30 10514 H 1007.91 5.49628 -0.137702 0
M  V30 10515 H 1009.14 6.79033 -0.0953993 0
M  V30 10516 H 1007.08 6.22295 2.07571 0
M  V30 10517 H 1007 7.50477 0.912167 0
M  V30 10518 H 1008.27 7.50642 2.10134 0
M  V30 10519 N 1012.5 0.357919 1.53482 0
M  V30 10520 C 1013.72 -0.237769 2.06033 0
M  V30 10521 C 1014.15 -1.42292 1.23023 0
M  V30 10522 O 1013.51 -1.79604 0.247427 0
M  V30 10523 C 1013.55 -0.616806 3.55286 0
M  V30 10524 O 1012.66 -1.71503 3.75047 0
M  V30 10525 H 1012 -0.0364322 0.663 0
M  V30 10526 H 1014.53 0.516301 1.97979 0
M  V30 10527 H 1014.54 -0.88996 3.98175 0
M  V30 10528 H 1013.21 0.249825 4.15149 0
M  V30 10529 H 1011.79 -1.43803 3.44057 0
M  V30 10530 N 1013.98 -1.5736 0.0868897 0
M  V30 10531 C 1015.2 -1.98809 -0.590757 0
M  V30 10532 C 1015.63 -0.965407 -1.61436 0
M  V30 10533 O 1014.98 0.067143 -1.81176 0
M  V30 10534 C 1015.03 -3.39249 -1.22238 0
M  V30 10535 O 1014.14 -3.39706 -2.33824 0
M  V30 10536 H 1013.48 -0.64669 -0.150626 0
M  V30 10537 H 1016.01 -2.03927 0.165873 0
M  V30 10538 H 1016.02 -3.76765 -1.56564 0
M  V30 10539 H 1014.69 -4.13208 -0.472434 0
M  V30 10540 H 1013.27 -3.13977 -2.01178 0
M  V30 10541 N 1015.45 0.186762 -1.56489 0
M  V30 10542 C 1016.7 0.904077 -1.80303 0
M  V30 10543 C 1017.02 1.84073 -0.661538 0
M  V30 10544 O 1018.22 2.59928 -0.784197 0
M  V30 10545 C 1016.68 1.65806 -3.19432 0
M  V30 10546 C 1016.29 0.765807 -4.41406 0
M  V30 10547 C 1018.03 2.36451 -3.52549 0
M  V30 10548 C 1015.94 1.51913 -5.71556 0
M  V30 10549 H 1014.87 0.34133 -0.672317 0
M  V30 10550 H 1017.52 0.157218 -1.82825 0
M  V30 10551 H 1015.9 2.44911 -3.11183 0
M  V30 10552 H 1017.07 0.0128225 -4.60798 0
M  V30 10553 H 1015.39 0.169772 -4.16054 0
M  V30 10554 H 1017.99 2.93378 -4.47027 0
M  V30 10555 H 1018.33 3.11044 -2.7669 0
M  V30 10556 H 1018.86 1.64305 -3.62283 0
M  V30 10557 H 1015.6 0.815829 -6.50403 0
M  V30 10558 H 1015.12 2.24583 -5.56168 0
M  V30 10559 H 1016.8 2.07073 -6.12968 0
M  V30 10560 N 1016.93 1.50896 0.454776 0
M  V30 10561 C 1018.21 1.53227 1.21576 0
M  V30 10562 C 1018.59 0.286358 2.09149 0
M  V30 10563 O 1017.94 -0.729469 2.16543 0
M  V30 10564 C 1018.15 2.83693 2.03271 0
M  V30 10565 C 1019.5 3.34981 2.60908 0
M  V30 10566 O 1020.52 2.85126 2.13499 0
M  V30 10567 O 1019.38 4.21929 3.4733 0
M  V30 10568 H 1016.47 0.615306 0.552564 0
M  V30 10569 H 1019.02 1.63197 0.465266 0
M  V30 10570 H 1017.79 3.65839 1.38843 0
M  V30 10571 H 1017.41 2.76803 2.85422 0
M  V30 10572 N 1018.41 -0.709066 1.40748 0
M  V30 10573 C 1019.64 -1.50313 1.42901 0
M  V30 10574 C 1020.06 -1.88072 0.032213 0
M  V30 10575 O 1019.42 -1.53716 -0.96131 0
M  V30 10576 C 1019.47 -2.75074 2.33166 0
M  V30 10577 O 1018.57 -3.72036 1.7794 0
M  V30 10578 H 1017.91 -0.452934 0.485538 0
M  V30 10579 H 1020.44 -0.872712 1.85054 0
M  V30 10580 H 1020.45 -3.23532 2.48578 0
M  V30 10581 H 1019.13 -2.46927 3.34664 0
M  V30 10582 H 1017.7 -3.30911 1.71908 0
M  V30 10583 N 1019.89 -1.26353 -0.941956 0
M  V30 10584 C 1020.8 -1.09618 -2.07415 0
M  V30 10585 C 1021.82 -0.0298963 -1.73974 0
M  V30 10586 O 1022.99 -0.233466 -2.00042 0
M  V30 10587 C 1020.06 -0.73013 -3.38925 0
M  V30 10588 C 1019.12 -1.87574 -3.86153 0
M  V30 10589 C 1018.35 -1.52706 -5.11387 0
M  V30 10590 O 1018.57 -0.428438 -5.68789 0
M  V30 10591 O 1017.51 -2.36154 -5.53638 0
M  V30 10592 H 1021.33 -2.04598 -2.2444 0
M  V30 10593 H 1018.92 -1.05407 -1.05876 0
M  V30 10594 H 1020.8 -0.538684 -4.17943 0
M  V30 10595 H 1019.48 0.190282 -3.2314 0
M  V30 10596 H 1018.38 -2.12214 -3.08084 0
M  V30 10597 H 1019.72 -2.77585 -4.06457 0
M  V30 10598 N 1021.37 1.14642 -1.08144 0
M  V30 10599 C 1022.78 1.6719 -0.830923 0
M  V30 10600 C 1023.13 1.85373 0.642749 0
M  V30 10601 O 1022.25 1.56293 1.49671 0
M  V30 10602 C 1022.85 3.03697 -1.50179 0
M  V30 10603 C 1021.41 3.5329 -1.29858 0
M  V30 10604 C 1020.56 2.28828 -1.5663 0
M  V30 10605 H 1023.51 0.987441 -1.24239 0
M  V30 10606 H 1023.53 3.69023 -0.9275 0
M  V30 10607 H 1023.04 2.90431 -2.57432 0
M  V30 10608 H 1021.14 3.71783 -0.246626 0
M  V30 10609 H 1021.25 4.34231 -2.02436 0
M  V30 10610 H 1019.62 2.34769 -0.987716 0
M  V30 10611 H 1020.4 2.18141 -2.65084 0
M  V30 10612 N 1022.85 0.866709 1.31628 0
M  V30 10613 C 1023.81 0.325041 2.26883 0
M  V30 10614 C 1024.81 -0.522133 1.52087 0
M  V30 10615 O 1026 -0.331908 1.71009 0
M  V30 10616 C 1023.13 -0.538756 3.36616 0
M  V30 10617 H 1024.32 1.16592 2.76308 0
M  V30 10618 H 1021.88 0.642029 1.42505 0
M  V30 10619 H 1022.61 -1.40096 2.92478 0
M  V30 10620 H 1022.4 0.0678115 3.92041 0
M  V30 10621 H 1023.89 -0.910123 4.07562 0
M  V30 10622 N 1024.32 -1.44642 0.625825 0
M  V30 10623 C 1025.25 -2.33397 -0.0692188 0
M  V30 10624 C 1026.23 -1.47898 -0.840241 0
M  V30 10625 O 1027.42 -1.7663 -0.807176 0
M  V30 10626 C 1024.55 -3.30888 -1.055 0
M  V30 10627 C 1023.5 -4.26164 -0.395968 0
M  V30 10628 C 1022.83 -5.13483 -1.49128 0
M  V30 10629 C 1024.13 -5.17663 0.694433 0
M  V30 10630 H 1025.82 -2.91763 0.671925 0
M  V30 10631 H 1023.37 -1.40294 0.324573 0
M  V30 10632 H 1025.32 -3.91861 -1.54993 0
M  V30 10633 H 1024.05 -2.7072 -1.82696 0
M  V30 10634 H 1022.71 -3.66516 0.0782691 0
M  V30 10635 H 1022.35 -4.49672 -2.25399 0
M  V30 10636 H 1022.05 -5.78038 -1.05573 0
M  V30 10637 H 1023.58 -5.77327 -1.98813 0
M  V30 10638 H 1024.99 -5.72602 0.282818 0
M  V30 10639 H 1023.39 -5.90793 1.05281 0
M  V30 10640 H 1024.46 -4.58994 1.56372 0
M  V30 10641 N 1025.8 -0.366053 -1.5329 0
M  V30 10642 C 1027.05 0.223824 -2.01561 0
M  V30 10643 C 1027.38 1.48382 -1.25286 0
M  V30 10644 O 1026.66 1.91385 -0.34669 0
M  V30 10645 C 1026.94 0.5153 -3.56394 0
M  V30 10646 C 1026.79 -0.758357 -4.43361 0
M  V30 10647 C 1028.11 1.31568 -4.19974 0
M  V30 10648 H 1025.23 0.0798751 -0.732659 0
M  V30 10649 H 1027.87 -0.491038 -1.83545 0
M  V30 10650 H 1026.02 1.12429 -3.71876 0
M  V30 10651 H 1027.69 -1.39584 -4.39675 0
M  V30 10652 H 1025.94 -1.37862 -4.11311 0
M  V30 10653 H 1026.61 -0.509366 -5.49645 0
M  V30 10654 H 1029.08 0.800514 -4.08327 0
M  V30 10655 H 1027.96 1.48837 -5.28336 0
M  V30 10656 H 1028.22 2.32432 -3.76069 0
M  V30 10657 N 1027.28 1.57312 -0.0952337 0
M  V30 10658 C 1028.21 2.17056 0.860753 0
M  V30 10659 C 1029.19 1.10394 1.29411 0
M  V30 10660 O 1030.38 1.38532 1.36098 0
M  V30 10661 C 1027.51 2.751 2.11984 0
M  V30 10662 C 1026.46 3.87136 1.8251 0
M  V30 10663 C 1025.79 4.31883 3.15247 0
M  V30 10664 C 1027.09 5.10326 1.11194 0
M  V30 10665 H 1028.78 2.97192 0.362983 0
M  V30 10666 H 1026.33 1.42955 0.173151 0
M  V30 10667 H 1028.28 3.15547 2.79299 0
M  V30 10668 H 1027 1.92219 2.64044 0
M  V30 10669 H 1025.66 3.47229 1.17592 0
M  V30 10670 H 1025.31 3.45893 3.65195 0
M  V30 10671 H 1025.01 5.0742 2.96309 0
M  V30 10672 H 1026.53 4.74964 3.83721 0
M  V30 10673 H 1027.95 5.47942 1.6862 0
M  V30 10674 H 1026.34 5.91293 1.02435 0
M  V30 10675 H 1027.41 4.84807 0.0947227 0
M  V30 10676 N 1028.76 -0.17846 1.56586 0
M  V30 10677 C 1030.01 -0.894464 1.81228 0
M  V30 10678 C 1030.33 -1.83089 0.671062 0
M  V30 10679 O 1029.6 -1.93439 -0.309557 0
M  V30 10680 H 1028.18 -0.333288 0.668527 0
M  V30 10681 H 1030.84 -0.179986 1.94067 0
M  V30 10682 H 1029.93 -1.47565 2.75011 0
M  V30 10683 N 1030.24 -1.51135 -0.446768 0
M  V30 10684 C 1031.65 -1.55919 -1.02694 0
M  V30 10685 C 1032 -0.377038 -1.92543 0
M  V30 10686 O 1031.12 0.507295 -2.1037 0
M  V30 10687 C 1031.72 -2.8257 -1.86922 0
M  V30 10688 C 1030.28 -2.89956 -2.40005 0
M  V30 10689 C 1029.42 -2.50482 -1.18971 0
M  V30 10690 H 1032.37 -1.57048 -0.228403 0
M  V30 10691 H 1032.4 -2.65799 -2.7227 0
M  V30 10692 H 1031.91 -3.6859 -1.21502 0
M  V30 10693 H 1030.01 -2.08343 -3.08907 0
M  V30 10694 H 1030.12 -3.93399 -2.73448 0
M  V30 10695 H 1028.49 -2.03466 -1.53211 0
M  V30 10696 H 1029.27 -3.38837 -0.551762 0
M  V30 10697 N 1031.71 0.701592 -1.41122 0
M  V30 10698 C 1032.64 1.82815 -1.45262 0
M  V30 10699 C 1033.62 1.67215 -0.311939 0
M  V30 10700 O 1034.81 1.87038 -0.522538 0
M  V30 10701 C 1031.94 3.20899 -1.32819 0
M  V30 10702 C 1030.89 3.51194 -2.44636 0
M  V30 10703 C 1030.22 4.8857 -2.17263 0
M  V30 10704 C 1031.52 3.50777 -3.86979 0
M  V30 10705 H 1033.21 1.79608 -2.39544 0
M  V30 10706 H 1030.76 0.862693 -1.15298 0
M  V30 10707 H 1032.71 3.99417 -1.34329 0
M  V30 10708 H 1031.44 3.24717 -0.350191 0
M  V30 10709 H 1030.1 2.75024 -2.42399 0
M  V30 10710 H 1029.74 4.89007 -1.17819 0
M  V30 10711 H 1029.44 5.09805 -2.92186 0
M  V30 10712 H 1030.97 5.69405 -2.20478 0
M  V30 10713 H 1032.38 4.19309 -3.90964 0
M  V30 10714 H 1030.78 3.83542 -4.61536 0
M  V30 10715 H 1031.85 2.49873 -4.15562 0
M  V30 10716 N 1033.19 1.2685 0.935242 0
M  V30 10717 C 1034.14 1.08923 2.03481 0
M  V30 10718 C 1035.11 -0.00749786 1.66098 0
M  V30 10719 O 1036.29 0.153401 1.90182 0
M  V30 10720 C 1033.43 0.734529 3.37192 0
M  V30 10721 C 1032.55 1.90812 3.87576 0
M  V30 10722 C 1031.68 1.49599 5.097 0
M  V30 10723 C 1030.72 2.63752 5.5236 0
M  V30 10724 N 1029.86 2.23179 6.65684 0
M  V30 10725 H 1034.7 2.03016 2.18148 0
M  V30 10726 H 1032.23 1.01072 1.06878 0
M  V30 10727 H 1034.19 0.509734 4.14074 0
M  V30 10728 H 1032.82 -0.169438 3.22355 0
M  V30 10729 H 1031.87 2.24567 3.0704 0
M  V30 10730 H 1033.19 2.7647 4.1517 0
M  V30 10731 H 1032.34 1.23199 5.9406 0
M  V30 10732 H 1031.08 0.61039 4.83865 0
M  V30 10733 H 1030.08 2.90874 4.66554 0
M  V30 10734 H 1031.31 3.5292 5.80193 0
M  V30 10735 H 1029.26 1.37061 6.41522 0
M  V30 10736 H 1029.17 3.02379 6.92895 0
M  V30 10737 H 1030.44 2.00007 7.53404 0
M  V30 10738 N 1034.67 -1.14067 1.0875 0
M  V30 10739 C 1035.9 -1.89582 0.841038 0
M  V30 10740 C 1036.32 -1.78226 -0.601436 0
M  V30 10741 O 1035.68 -1.12491 -1.42181 0
M  V30 10742 C 1035.73 -3.37415 1.27213 0
M  V30 10743 O 1034.83 -4.10191 0.426246 0
M  V30 10744 H 1034.17 -0.589716 0.305173 0
M  V30 10745 H 1036.7 -1.44364 1.44984 0
M  V30 10746 H 1036.71 -3.88234 1.25451 0
M  V30 10747 H 1035.39 -3.44999 2.32268 0
M  V30 10748 H 1033.96 -3.69429 0.507585 0
M  V30 10749 N 1036.15 -0.873678 -1.31166 0
M  V30 10750 C 1037.39 -0.487178 -1.96861 0
M  V30 10751 C 1037.73 0.95887 -1.68877 0
M  V30 10752 O 1037 1.6758 -0.987279 0
M  V30 10753 C 1037.29 -0.74925 -3.52219 0
M  V30 10754 C 1037.14 -2.2451 -3.89763 0
M  V30 10755 C 1038.46 -0.218194 -4.39559 0
M  V30 10756 H 1035.58 -0.178477 -0.715063 0
M  V30 10757 H 1038.22 -1.0956 -1.55231 0
M  V30 10758 H 1036.37 -0.231403 -3.8781 0
M  V30 10759 H 1038.04 -2.83049 -3.64254 0
M  V30 10760 H 1036.28 -2.71621 -3.38237 0
M  V30 10761 H 1036.95 -2.37911 -4.98099 0
M  V30 10762 H 1039.43 -0.661274 -4.10812 0
M  V30 10763 H 1038.31 -0.430983 -5.47205 0
M  V30 10764 H 1038.57 0.880056 -4.33252 0
M  V30 10765 N 1037.63 1.44308 -0.633487 0
M  V30 10766 C 1038.56 2.28943 0.108474 0
M  V30 10767 C 1039.57 1.41415 0.806582 0
M  V30 10768 O 1040.76 1.65544 0.667634 0
M  V30 10769 C 1037.86 3.17845 1.1759 0
M  V30 10770 C 1037.03 4.33802 0.559842 0
M  V30 10771 C 1036.09 5.03722 1.52154 0
M  V30 10772 O 1035.12 5.5966 1.03776 0
M  V30 10773 N 1036.32 5.05392 2.85586 0
M  V30 10774 H 1039.09 2.93262 -0.617879 0
M  V30 10775 H 1036.65 1.54781 -0.474819 0
M  V30 10776 H 1038.64 3.61485 1.81963 0
M  V30 10777 H 1037.21 2.55261 1.80445 0
M  V30 10778 H 1036.43 3.93325 -0.262559 0
M  V30 10779 H 1037.72 5.08637 0.128942 0
M  V30 10780 H 1037.11 4.61282 3.27468 0
M  V30 10781 H 1035.67 5.52813 3.45313 0
M  V30 10782 N 1039.1 0.374177 1.53094 0
M  V30 10783 C 1040.01 -0.475935 2.29722 0
M  V30 10784 C 1041.03 -1.085 1.36029 0
M  V30 10785 O 1042.21 -1.09408 1.69091 0
M  V30 10786 C 1039.27 -1.59572 3.07795 0
M  V30 10787 C 1038.33 -1.01332 4.17169 0
M  V30 10788 C 1037.57 -2.07975 4.9151 0
M  V30 10789 O 1037.79 -3.29232 4.65793 0
M  V30 10790 O 1036.72 -1.7055 5.77232 0
M  V30 10791 H 1040.55 0.147877 3.0334 0
M  V30 10792 H 1038.13 0.138312 1.48758 0
M  V30 10793 H 1040.02 -2.24658 3.5652 0
M  V30 10794 H 1038.69 -2.20478 2.37005 0
M  V30 10795 H 1037.6 -0.326133 3.72676 0
M  V30 10796 H 1038.93 -0.4487 4.90151 0
M  V30 10797 N 1040.58 -1.57259 0.103575 0
M  V30 10798 C 1041.51 -2.17509 -0.84923 0
M  V30 10799 C 1042.49 -1.11079 -1.28824 0
M  V30 10800 O 1043.68 -1.39252 -1.35361 0
M  V30 10801 C 1040.81 -2.76221 -2.10522 0
M  V30 10802 C 1039.76 -3.88098 -1.80454 0
M  V30 10803 C 1039.09 -4.33549 -3.12952 0
M  V30 10804 C 1040.39 -5.10909 -1.08486 0
M  V30 10805 H 1042.08 -2.9738 -0.347217 0
M  V30 10806 H 1039.63 -1.43045 -0.165568 0
M  V30 10807 H 1041.58 -3.17024 -2.77621 0
M  V30 10808 H 1040.31 -1.93617 -2.63021 0
M  V30 10809 H 1038.96 -3.47847 -1.15749 0
M  V30 10810 H 1038.61 -3.47825 -3.63355 0
M  V30 10811 H 1038.31 -5.08984 -2.93614 0
M  V30 10812 H 1039.84 -4.76992 -3.81196 0
M  V30 10813 H 1041.25 -5.48828 -1.65711 0
M  V30 10814 H 1039.65 -5.91828 -0.992973 0
M  V30 10815 H 1040.72 -4.84851 -0.0690108 0
M  V30 10816 N 1042.06 0.170153 -1.56679 0
M  V30 10817 C 1043.48 0.521966 -1.50823 0
M  V30 10818 C 1043.68 1.84589 -0.808037 0
M  V30 10819 O 1042.73 2.49791 -0.368891 0
M  V30 10820 C 1044.05 0.553648 -2.95559 0
M  V30 10821 C 1045.59 0.640769 -3.06371 0
M  V30 10822 C 1046.07 0.703332 -4.52567 0
M  V30 10823 N 1047.56 0.76619 -4.56819 0
M  V30 10824 C 1048.29 0.835192 -5.67285 0
M  V30 10825 N 1047.79 0.864957 -6.87379 0
M  V30 10826 N 1049.58 0.874302 -5.55259 0
M  V30 10827 H 1041.73 -0.697952 -2.00605 0
M  V30 10828 H 1044 -0.251787 -0.913952 0
M  V30 10829 H 1043.7 -0.350498 -3.49949 0
M  V30 10830 H 1043.58 1.39973 -3.50268 0
M  V30 10831 H 1045.96 1.53534 -2.52015 0
M  V30 10832 H 1046.05 -0.232008 -2.54746 0
M  V30 10833 H 1045.69 -0.186986 -5.07556 0
M  V30 10834 H 1045.62 1.59227 -5.0195 0
M  V30 10835 H 1048.11 0.751424 -3.70354 0
M  V30 10836 H 1048.42 0.918814 -7.67318 0
M  V30 10837 H 1046.77 0.833215 -6.89987 0
M  V30 10838 H 1049.96 0.848057 -4.60354 0
M  V30 10839 H 1050.13 0.924615 -6.4137 0
M  V30 10840 N 1043.54 1.5137 0.438746 0
M  V30 10841 C 1044.95 1.39514 0.775116 0
M  V30 10842 C 1045.15 0.47638 1.95788 0
M  V30 10843 O 1044.21 -0.0689832 2.52406 0
M  V30 10844 C 1045.52 2.81517 1.05681 0
M  V30 10845 C 1047.07 2.90658 1.16133 0
M  V30 10846 C 1047.55 4.33566 1.47597 0
M  V30 10847 N 1049.04 4.36665 1.54524 0
M  V30 10848 C 1049.77 5.4427 1.80438 0
M  V30 10849 N 1049.27 6.62037 2.04154 0
M  V30 10850 N 1051.06 5.31749 1.82208 0
M  V30 10851 H 1043.21 2.09657 -0.340237 0
M  V30 10852 H 1045.48 0.943736 -0.0898115 0
M  V30 10853 H 1045.18 3.50734 0.260441 0
M  V30 10854 H 1045.06 3.20757 1.98481 0
M  V30 10855 H 1047.44 2.2164 1.94833 0
M  V30 10856 H 1047.52 2.54917 0.212376 0
M  V30 10857 H 1047.17 5.03133 0.694251 0
M  V30 10858 H 1047.1 4.66819 2.43696 0
M  V30 10859 H 1049.59 3.51761 1.38105 0
M  V30 10860 H 1049.9 7.39838 2.23293 0
M  V30 10861 H 1048.25 6.65155 2.01479 0
M  V30 10862 H 1051.44 4.3873 1.63198 0
M  V30 10863 H 1051.61 6.15689 2.02067 0
M  V30 10864 N 1045.02 -0.694098 1.41492 0
M  V30 10865 C 1045.93 -1.83778 1.45818 0
M  V30 10866 C 1046.94 -1.70471 0.348639 0
M  V30 10867 O 1048.12 -1.92361 0.596588 0
M  V30 10868 C 1045.18 -3.19771 1.33967 0
M  V30 10869 C 1044.24 -3.45175 2.5525 0
M  V30 10870 C 1043.48 -4.74681 2.43955 0
M  V30 10871 O 1043.7 -5.51268 1.46491 0
M  V30 10872 O 1042.63 -5.00901 3.33739 0
M  V30 10873 H 1046.46 -1.83084 2.42309 0
M  V30 10874 H 1044.05 -0.847349 1.23046 0
M  V30 10875 H 1045.93 -4.00961 1.29648 0
M  V30 10876 H 1044.6 -3.21145 0.405926 0
M  V30 10877 H 1043.51 -2.6391 2.65146 0
M  V30 10878 H 1044.84 -3.48617 3.47458 0
M  V30 10879 N 1046.49 -1.27344 -0.928501 0
M  V30 10880 C 1047.43 -1.05797 -2.03322 0
M  V30 10881 C 1048.44 -0.0143086 -1.62794 0
M  V30 10882 O 1049.63 -0.25578 -1.76658 0
M  V30 10883 C 1046.73 -0.582673 -3.33853 0
M  V30 10884 C 1045.9 -1.69844 -4.03078 0
M  V30 10885 C 1044.96 -1.21902 -5.11885 0
M  V30 10886 O 1043.99 -1.91853 -5.35893 0
M  V30 10887 N 1045.19 -0.0742392 -5.80453 0
M  V30 10888 H 1047.95 -2.00928 -2.22369 0
M  V30 10889 H 1045.51 -1.189 -1.09883 0
M  V30 10890 H 1047.51 -0.245862 -4.03952 0
M  V30 10891 H 1046.08 0.27539 -3.11385 0
M  V30 10892 H 1045.3 -2.20557 -3.26723 0
M  V30 10893 H 1046.58 -2.4473 -4.46077 0
M  V30 10894 H 1045.98 0.509631 -5.634 0
M  V30 10895 H 1044.54 0.203399 -6.51483 0
M  V30 10896 N 1047.97 1.13488 -1.09353 0
M  V30 10897 C 1048.9 2.18563 -0.69012 0
M  V30 10898 C 1049.92 1.60585 0.267651 0
M  V30 10899 O 1051.11 1.78419 0.0538176 0
M  V30 10900 C 1048.21 3.389 0.00391255 0
M  V30 10901 C 1047.38 4.2639 -0.975209 0
M  V30 10902 C 1046.44 5.25258 -0.314719 0
M  V30 10903 O 1045.46 5.6101 -0.962119 0
M  V30 10904 N 1046.67 5.72978 0.931458 0
M  V30 10905 H 1049.43 2.53788 -1.59411 0
M  V30 10906 H 1046.99 1.28803 -0.980886 0
M  V30 10907 H 1048.98 4.02112 0.45696 0
M  V30 10908 H 1047.55 3.0192 0.81014 0
M  V30 10909 H 1046.77 3.59964 -1.60684 0
M  V30 10910 H 1048.06 4.817 -1.63836 0
M  V30 10911 H 1047.46 5.46078 1.477 0
M  V30 10912 H 1046.02 6.38131 1.32784 0
M  V30 10913 N 1049.45 0.880621 1.30701 0
M  V30 10914 C 1050.38 0.360251 2.30704 0
M  V30 10915 C 1051.36 -0.554572 1.60806 0
M  V30 10916 O 1052.55 -0.469345 1.88443 0
M  V30 10917 C 1049.68 -0.429888 3.44629 0
M  V30 10918 C 1048.63 0.392786 4.26194 0
M  V30 10919 C 1047.96 -0.52369 5.32129 0
M  V30 10920 C 1049.26 1.63258 4.96129 0
M  V30 10921 H 1050.95 1.19591 2.74478 0
M  V30 10922 H 1048.5 0.576508 1.31956 0
M  V30 10923 H 1050.45 -0.804532 4.13649 0
M  V30 10924 H 1049.17 -1.29916 2.99649 0
M  V30 10925 H 1047.83 0.749514 3.58856 0
M  V30 10926 H 1047.48 -1.39054 4.83397 0
M  V30 10927 H 1047.18 0.0229272 5.87596 0
M  V30 10928 H 1048.71 -0.894946 6.04006 0
M  V30 10929 H 1050.12 1.32877 5.57689 0
M  V30 10930 H 1048.52 2.11906 5.61441 0
M  V30 10931 H 1049.59 2.37944 4.22505 0
M  V30 10932 N 1050.93 -1.4397 0.641131 0
M  V30 10933 C 1051.89 -2.29149 -0.0482243 0
M  V30 10934 C 1052.89 -1.41572 -0.762495 0
M  V30 10935 O 1054.08 -1.63335 -0.605571 0
M  V30 10936 C 1051.21 -3.23375 -1.07896 0
M  V30 10937 H 1052.41 -2.9159 0.70109 0
M  V30 10938 H 1049.96 -1.51048 0.401754 0
M  V30 10939 H 1050.7 -2.65804 -1.85792 0
M  V30 10940 H 1050.48 -3.87926 -0.570597 0
M  V30 10941 H 1051.97 -3.87337 -1.56075 0
M  V30 10942 N 1052.41 -0.382291 -1.52893 0
M  V30 10943 C 1053.32 0.463745 -2.29971 0
M  V30 10944 C 1054.33 1.07777 -1.36602 0
M  V30 10945 O 1055.51 1.0851 -1.69669 0
M  V30 10946 C 1052.57 1.57938 -3.08637 0
M  V30 10947 C 1051.64 0.991182 -4.17701 0
M  V30 10948 C 1050.87 2.05365 -4.92606 0
M  V30 10949 O 1051.09 3.26757 -4.67532 0
M  V30 10950 O 1050.03 1.67487 -5.78128 0
M  V30 10951 H 1053.85 -0.163962 -3.03257 0
M  V30 10952 H 1051.44 -0.146199 -1.48683 0
M  V30 10953 H 1053.32 2.22765 -3.57706 0
M  V30 10954 H 1051.99 2.19218 -2.3817 0
M  V30 10955 H 1050.9 0.306364 -3.72843 0
M  V30 10956 H 1052.23 0.422699 -4.90382 0
M  V30 10957 N 1053.89 1.57202 -0.111913 0
M  V30 10958 C 1055.13 1.94125 0.547573 0
M  V30 10959 C 1055.45 0.997026 1.68282 0
M  V30 10960 O 1056.65 1.26063 2.40459 0
M  V30 10961 C 1055.11 3.44982 1.02545 0
M  V30 10962 C 1054.72 4.47927 -0.0809529 0
M  V30 10963 C 1056.46 3.90837 1.65671 0
M  V30 10964 C 1054.37 5.89955 0.413224 0
M  V30 10965 H 1053.3 0.724651 0.208321 0
M  V30 10966 H 1055.95 1.82507 -0.190625 0
M  V30 10967 H 1054.33 3.5181 1.81785 0
M  V30 10968 H 1055.51 4.52761 -0.857003 0
M  V30 10969 H 1053.82 4.11782 -0.618434 0
M  V30 10970 H 1056.42 4.9436 2.03746 0
M  V30 10971 H 1056.76 3.30417 2.53239 0
M  V30 10972 H 1057.29 3.8678 0.929844 0
M  V30 10973 H 1054.03 6.54113 -0.426238 0
M  V30 10974 H 1053.55 5.88557 1.15591 0
M  V30 10975 H 1055.23 6.41032 0.876756 0
M  V30 10976 N 1055.36 -0.161842 1.56767 0
M  V30 10977 C 1056.27 -1.21996 2.00385 0
M  V30 10978 C 1057.29 -1.4789 0.916768 0
M  V30 10979 O 1058.47 -1.59852 1.22513 0
M  V30 10980 C 1055.53 -2.53695 2.36305 0
M  V30 10981 C 1054.59 -2.3558 3.58888 0
M  V30 10982 C 1053.82 -3.60998 3.93085 0
M  V30 10983 O 1054.05 -4.6657 3.28129 0
M  V30 10984 O 1052.98 -3.54544 4.86397 0
M  V30 10985 H 1056.81 -0.879701 2.9068 0
M  V30 10986 H 1054.39 -0.369437 1.4476 0
M  V30 10987 H 1056.27 -3.31366 2.60335 0
M  V30 10988 H 1054.95 -2.87281 1.49169 0
M  V30 10989 H 1053.86 -1.55908 3.40064 0
M  V30 10990 H 1055.19 -2.06915 4.46595 0
M  V30 10991 N 1056.84 -1.516 -0.430713 0
M  V30 10992 C 1057.8 -1.72794 -1.50582 0
M  V30 10993 C 1058.8 -0.597903 -1.49271 0
M  V30 10994 O 1059.99 -0.865535 -1.51176 0
M  V30 10995 C 1057.13 -1.79049 -2.90093 0
M  V30 10996 H 1058.32 -2.68751 -1.33091 0
M  V30 10997 H 1055.87 -1.4169 -0.659822 0
M  V30 10998 H 1056.61 -0.849309 -3.12981 0
M  V30 10999 H 1056.39 -2.61181 -2.92449 0
M  V30 11000 H 1057.88 -1.97262 -3.68072 0
M  V30 11001 N 1058.32 0.686584 -1.41858 0
M  V30 11002 C 1059.74 0.998283 -1.24525 0
M  V30 11003 C 1059.94 2.01006 -0.141007 0
M  V30 11004 O 1058.99 2.47667 0.491648 0
M  V30 11005 C 1060.3 1.51432 -2.59786 0
M  V30 11006 C 1061.85 1.6327 -2.67043 0
M  V30 11007 C 1062.33 2.18274 -4.02642 0
M  V30 11008 N 1063.82 2.25622 -4.04535 0
M  V30 11009 C 1064.55 2.69229 -5.06264 0
M  V30 11010 N 1064.05 3.12375 -6.1838 0
M  V30 11011 N 1065.84 2.68873 -4.93623 0
M  V30 11012 H 1057.99 0.0164825 -2.12394 0
M  V30 11013 H 1060.26 0.0698613 -0.945422 0
M  V30 11014 H 1059.96 0.845426 -3.41388 0
M  V30 11015 H 1059.84 2.49502 -2.82894 0
M  V30 11016 H 1062.22 2.29269 -1.85794 0
M  V30 11017 H 1062.3 0.637221 -2.47736 0
M  V30 11018 H 1061.95 1.52887 -4.84343 0
M  V30 11019 H 1061.88 3.18591 -4.19294 0
M  V30 11020 H 1064.37 1.95186 -3.23591 0
M  V30 11021 H 1064.68 3.44301 -6.91864 0
M  V30 11022 H 1063.03 3.10262 -6.21902 0
M  V30 11023 H 1066.22 2.34521 -4.05114 0
M  V30 11024 H 1066.39 3.02539 -5.7304 0
M  V30 11025 N 1059.8 1.27835 0.921735 0
M  V30 11026 C 1061.21 1.05369 1.19873 0
M  V30 11027 C 1061.41 -0.208997 2.00413 0
M  V30 11028 O 1060.47 -0.912861 2.35421 0
M  V30 11029 C 1061.78 2.29658 1.94108 0
M  V30 11030 C 1063.33 2.34756 2.07023 0
M  V30 11031 C 1063.81 3.5879 2.84664 0
M  V30 11032 N 1065.3 3.59383 2.9223 0
M  V30 11033 C 1066.03 4.52029 3.52785 0
M  V30 11034 N 1065.53 5.54986 4.14683 0
M  V30 11035 N 1067.32 4.39641 3.50246 0
M  V30 11036 H 1059.47 2.08903 0.383819 0
M  V30 11037 H 1061.73 0.919065 0.232429 0
M  V30 11038 H 1061.44 3.21604 1.4235 0
M  V30 11039 H 1061.31 2.35444 2.94696 0
M  V30 11040 H 1063.7 1.43312 2.57965 0
M  V30 11041 H 1063.78 2.32969 1.05636 0
M  V30 11042 H 1063.43 4.50574 2.34404 0
M  V30 11043 H 1063.36 3.57829 3.86349 0
M  V30 11044 H 1065.85 2.84927 2.48244 0
M  V30 11045 H 1066.16 6.21837 4.58845 0
M  V30 11046 H 1064.51 5.58822 4.13211 0
M  V30 11047 H 1067.7 3.58413 3.01094 0
M  V30 11048 H 1067.87 5.12033 3.97148 0
M  V30 11049 N 1061.28 -1.12907 1.09954 0
M  V30 11050 C 1062.21 -2.18194 0.701701 0
M  V30 11051 C 1063.22 -1.60724 -0.259131 0
M  V30 11052 O 1064.41 -1.78445 -0.0443549 0
M  V30 11053 C 1061.51 -3.38897 0.0140602 0
M  V30 11054 C 1060.68 -4.25867 0.997807 0
M  V30 11055 C 1059.74 -5.25084 0.34257 0
M  V30 11056 O 1058.77 -5.60492 0.991857 0
M  V30 11057 N 1059.97 -5.73464 -0.901058 0
M  V30 11058 H 1062.73 -2.52939 1.60755 0
M  V30 11059 H 1060.3 -1.28281 0.987703 0
M  V30 11060 H 1062.29 -4.02349 -0.435628 0
M  V30 11061 H 1060.86 -3.02345 -0.794118 0
M  V30 11062 H 1060.08 -3.59107 1.6259 0
M  V30 11063 H 1061.37 -4.80825 1.66388 0
M  V30 11064 H 1060.76 -5.46854 -1.44802 0
M  V30 11065 H 1059.32 -6.38827 -1.29398 0
M  V30 11066 N 1062.75 -0.88754 -1.30232 0
M  V30 11067 C 1063.66 -0.360333 -2.31816 0
M  V30 11068 C 1064.68 0.538741 -1.6545 0
M  V30 11069 O 1065.86 0.431246 -1.96729 0
M  V30 11070 C 1062.92 0.414336 -3.44215 0
M  V30 11071 C 1061.98 -0.514799 -4.26202 0
M  V30 11072 C 1061.21 0.222994 -5.33234 0
M  V30 11073 O 1061.44 1.44871 -5.51696 0
M  V30 11074 O 1060.37 -0.428221 -6.00375 0
M  V30 11075 H 1064.2 -1.20279 -2.78867 0
M  V30 11076 H 1061.78 -0.651459 -1.34448 0
M  V30 11077 H 1063.66 0.852859 -4.12679 0
M  V30 11078 H 1062.34 1.23305 -2.99295 0
M  V30 11079 H 1061.25 -1.00219 -3.60426 0
M  V30 11080 H 1062.58 -1.29959 -4.74733 0
M  V30 11081 N 1064.23 1.43628 -0.648757 0
M  V30 11082 C 1065.65 1.56442 -0.315921 0
M  V30 11083 C 1065.85 1.63322 1.18018 0
M  V30 11084 O 1064.9 1.58585 1.96487 0
M  V30 11085 C 1066.22 2.82751 -1.02335 0
M  V30 11086 C 1067.77 2.96488 -1.00318 0
M  V30 11087 C 1068.24 4.25623 -1.69142 0
M  V30 11088 N 1069.73 4.32477 -1.65885 0
M  V30 11089 C 1070.47 5.31154 -2.16016 0
M  V30 11090 N 1069.96 6.36135 -2.74415 0
M  V30 11091 N 1071.76 5.22778 -2.06541 0
M  V30 11092 H 1063.91 1.37405 -1.61968 0
M  V30 11093 H 1066.17 0.65962 -0.680886 0
M  V30 11094 H 1065.88 2.83714 -2.07844 0
M  V30 11095 H 1065.75 3.72836 -0.572114 0
M  V30 11096 H 1068.14 2.95068 0.0434919 0
M  V30 11097 H 1068.22 2.07704 -1.49307 0
M  V30 11098 H 1067.86 4.27804 -2.73763 0
M  V30 11099 H 1067.79 5.13296 -1.17622 0
M  V30 11100 H 1070.28 3.57232 -1.23264 0
M  V30 11101 H 1070.6 7.07743 -3.10355 0
M  V30 11102 H 1068.94 6.36771 -2.78474 0
M  V30 11103 H 1072.13 4.39678 -1.60625 0
M  V30 11104 H 1072.3 5.99523 -2.45919 0
M  V30 11105 N 1065.71 0.390394 1.52688 0
M  V30 11106 C 1066.62 -0.451543 2.30213 0
M  V30 11107 C 1067.64 -1.07051 1.37172 0
M  V30 11108 O 1068.81 -1.07609 1.70242 0
M  V30 11109 C 1065.88 -1.56299 3.0947 0
M  V30 11110 C 1064.94 -0.969017 4.18221 0
M  V30 11111 C 1064.17 -2.0275 4.93688 0
M  V30 11112 O 1064.39 -3.24273 4.69258 0
M  V30 11113 O 1063.33 -1.64418 5.79008 0
M  V30 11114 H 1067.15 0.180042 3.03166 0
M  V30 11115 H 1064.74 0.154082 1.48603 0
M  V30 11116 H 1066.62 -2.20864 3.58883 0
M  V30 11117 H 1065.3 -2.17952 2.3933 0
M  V30 11118 H 1064.2 -0.286587 3.73001 0
M  V30 11119 H 1065.54 -0.396687 4.90599 0
M  V30 11120 N 1067.19 -1.57141 0.120249 0
M  V30 11121 C 1068.14 -2.15379 -0.829497 0
M  V30 11122 C 1069.11 -1.07913 -1.2627 0
M  V30 11123 O 1070.29 -1.35827 -1.33999 0
M  V30 11124 C 1067.43 -2.75847 -2.0737 0
M  V30 11125 C 1066.54 -3.97624 -1.68875 0
M  V30 11126 C 1065.68 -4.46175 -2.88272 0
M  V30 11127 C 1064.72 -5.60481 -2.46023 0
M  V30 11128 N 1063.85 -6.0377 -3.58337 0
M  V30 11129 H 1068.69 -2.96211 -0.326031 0
M  V30 11130 H 1066.23 -1.46341 -0.149235 0
M  V30 11131 H 1068.19 -3.09037 -2.80272 0
M  V30 11132 H 1066.82 -1.97703 -2.55174 0
M  V30 11133 H 1065.87 -3.70588 -0.858431 0
M  V30 11134 H 1067.18 -4.80512 -1.33827 0
M  V30 11135 H 1066.34 -4.8128 -3.69397 0
M  V30 11136 H 1065.08 -3.6224 -3.26548 0
M  V30 11137 H 1064.08 -5.24979 -1.63331 0
M  V30 11138 H 1065.31 -6.46184 -2.08863 0
M  V30 11139 H 1063.25 -5.22776 -3.96284 0
M  V30 11140 H 1063.17 -6.81517 -3.27217 0
M  V30 11141 H 1064.44 -6.43514 -4.39898 0
M  V30 11142 N 1068.67 0.153526 -1.5685 0
M  V30 11143 C 1069.61 1.20896 -1.98713 0
M  V30 11144 C 1070.61 1.44839 -0.878529 0
M  V30 11145 O 1071.81 1.45208 -1.0637 0
M  V30 11146 H 1068.19 0.406797 -0.632472 0
M  V30 11147 H 1070.16 0.829145 -2.86649 0
M  V30 11148 C 1068.91 2.53642 -2.37825 0
M  V30 11149 H 1068.23 2.36047 -3.22679 0
M  V30 11150 H 1069.67 3.26136 -2.70946 0
M  V30 11151 C 1068.13 3.13706 -1.22841 0
M  V30 11152 O 1068.66 3.98246 -0.525626 0
M  V30 11153 N 1066.87 2.73059 -0.99435 0
M  V30 11154 H 1066.41 2.0441 -1.56761 0
M  V30 11155 H 1066.37 3.1358 -0.226883 0
M  V30 11156 N 1070.14 1.51827 0.422667 0
M  V30 11157 C 1071.39 1.64893 1.16853 0
M  V30 11158 C 1071.71 0.37456 1.91369 0
M  V30 11159 O 1070.98 -0.610128 1.86157 0
M  V30 11160 H 1069.56 0.607744 0.434345 0
M  V30 11161 H 1072.23 1.88816 0.483159 0
M  V30 11162 H 1071.32 2.48361 1.89006 0
M  V30 11163 N 1071.62 -0.679052 1.4222 0
M  V30 11164 C 1072.57 -1.81398 1.45594 0
M  V30 11165 C 1073.56 -1.66112 0.332127 0
M  V30 11166 O 1074.77 -1.72772 0.504942 0
M  V30 11167 H 1071.15 -0.598045 0.455902 0
M  V30 11168 H 1073.12 -1.7567 2.41211 0
M  V30 11169 C 1071.87 -3.19525 1.37109 0
M  V30 11170 H 1071.19 -3.31912 2.22878 0
M  V30 11171 H 1072.63 -3.98967 1.43531 0
M  V30 11172 C 1071.09 -3.36792 0.0853593 0
M  V30 11173 O 1071.62 -3.92309 -0.863532 0
M  V30 11174 N 1069.82 -2.906 0.00389229 0
M  V30 11175 H 1069.37 -2.45607 0.776846 0
M  V30 11176 H 1069.33 -3.0253 -0.855742 0
M  V30 11177 N 1073.1 -1.28322 -0.914942 0
M  V30 11178 C 1074.01 -1.13993 -2.05043 0
M  V30 11179 C 1075.03 -0.0667921 -1.73872 0
M  V30 11180 O 1076.2 -0.275845 -1.99502 0
M  V30 11181 C 1073.27 -0.801856 -3.373 0
M  V30 11182 C 1072.33 -1.95723 -3.82088 0
M  V30 11183 C 1071.56 -1.63519 -5.08033 0
M  V30 11184 O 1071.78 -0.54899 -5.67752 0
M  V30 11185 O 1070.72 -2.47844 -5.48504 0
M  V30 11186 H 1074.54 -2.09313 -2.2005 0
M  V30 11187 H 1072.13 -1.0763 -1.03616 0
M  V30 11188 H 1074.01 -0.627214 -4.16706 0
M  V30 11189 H 1072.69 0.121696 -3.23471 0
M  V30 11190 H 1071.59 -2.18702 -3.03514 0
M  V30 11191 H 1072.93 -2.86144 -4.00478 0
M  V30 11192 N 1074.58 1.12322 -1.10551 0
M  V30 11193 C 1075.49 2.21678 -0.767862 0
M  V30 11194 C 1076.5 1.72404 0.235132 0
M  V30 11195 O 1077.68 2.01266 0.0735912 0
M  V30 11196 C 1074.75 3.46087 -0.205999 0
M  V30 11197 C 1073.81 4.10195 -1.26642 0
M  V30 11198 C 1073.04 5.28666 -0.731274 0
M  V30 11199 O 1073.26 5.68686 0.44189 0
M  V30 11200 O 1072.2 5.83121 -1.49176 0
M  V30 11201 H 1076.02 2.52955 -1.6807 0
M  V30 11202 H 1073.61 1.2068 -0.880728 0
M  V30 11203 H 1075.49 4.21273 0.103435 0
M  V30 11204 H 1074.16 3.16484 0.679685 0
M  V30 11205 H 1073.07 3.36784 -1.62873 0
M  V30 11206 H 1074.4 4.43957 -2.12516 0
M  V30 11207 N 1076.06 0.894434 1.2976 0
M  V30 11208 C 1077.3 0.516646 1.95385 0
M  V30 11209 C 1077.63 -0.939141 1.70895 0
M  V30 11210 O 1076.9 -1.66153 1.03778 0
M  V30 11211 H 1075.48 0.188072 0.722937 0
M  V30 11212 H 1078.14 1.13958 1.58113 0
M  V30 11213 H 1077.23 0.694819 3.04267 0
M  V30 11214 N 1077.53 -1.43282 0.656365 0
M  V30 11215 C 1078.44 -2.34576 -0.033864 0
M  V30 11216 C 1079.46 -1.5406 -0.808793 0
M  V30 11217 O 1080.64 -1.867 -0.755322 0
M  V30 11218 C 1077.7 -3.32378 -0.986197 0
M  V30 11219 C 1076.76 -4.28797 -0.207851 0
M  V30 11220 C 1076 -5.21927 -1.11482 0
M  V30 11221 O 1076.22 -5.19554 -2.35414 0
M  V30 11222 O 1075.15 -5.99045 -0.585536 0
M  V30 11223 H 1078.98 -2.95099 0.717668 0
M  V30 11224 H 1076.56 -1.43475 0.416556 0
M  V30 11225 H 1078.45 -3.9251 -1.53341 0
M  V30 11226 H 1077.12 -2.74354 -1.7179 0
M  V30 11227 H 1076.03 -3.72134 0.383022 0
M  V30 11228 H 1077.36 -4.89811 0.48435 0
M  V30 11229 N 1079.01 -0.398486 -1.52479 0
M  V30 11230 C 1079.92 0.439328 -2.3045 0
M  V30 11231 C 1080.94 1.06322 -1.37738 0
M  V30 11232 O 1082.12 1.06704 -1.7081 0
M  V30 11233 C 1079.18 1.54655 -3.10294 0
M  V30 11234 C 1078.24 0.946824 -4.18729 0
M  V30 11235 C 1077.47 2.00129 -4.94757 0
M  V30 11236 O 1077.7 3.2178 -4.70971 0
M  V30 11237 O 1076.63 1.61345 -5.79872 0
M  V30 11238 H 1080.46 -0.196118 -3.03066 0
M  V30 11239 H 1078.04 -0.161961 -1.4852 0
M  V30 11240 H 1079.92 2.18958 -3.60049 0
M  V30 11241 H 1078.6 2.1668 -2.40482 0
M  V30 11242 H 1077.51 0.266802 -3.73147 0
M  V30 11243 H 1078.84 0.370664 -4.90802 0
M  V30 11244 N 1080.49 1.57075 -0.12858 0
M  V30 11245 C 1081.91 1.57964 0.227961 0
M  V30 11246 C 1082.11 1.14186 1.66023 0
M  V30 11247 O 1081.16 0.833655 2.38341 0
M  V30 11248 C 1082.48 3.00697 -0.0140648 0
M  V30 11249 C 1084.02 3.12958 0.0510876 0
M  V30 11250 C 1084.5 4.57709 -0.163368 0
M  V30 11251 N 1085.99 4.6307 -0.109663 0
M  V30 11252 C 1086.73 5.72853 -0.250366 0
M  V30 11253 N 1086.22 6.91351 -0.447772 0
M  V30 11254 N 1088.01 5.61781 -0.189265 0
M  V30 11255 H 1080.17 1.83829 -1.06398 0
M  V30 11256 H 1082.43 0.850014 -0.419739 0
M  V30 11257 H 1082.13 3.37047 -1.00461 0
M  V30 11258 H 1082.01 3.70389 0.713571 0
M  V30 11259 H 1084.4 2.7646 1.03216 0
M  V30 11260 H 1084.48 2.4579 -0.708583 0
M  V30 11261 H 1084.12 4.94907 -1.14146 0
M  V30 11262 H 1084.05 5.2298 0.616405 0
M  V30 11263 H 1086.54 3.7788 0.0390086 0
M  V30 11264 H 1086.85 7.70871 -0.54574 0
M  V30 11265 H 1085.2 6.93314 -0.483866 0
M  V30 11266 H 1088.39 4.68086 -0.0359374 0
M  V30 11267 H 1088.56 6.47294 -0.302359 0
M  V30 11268 N 1081.97 -0.145205 1.5693 0
M  V30 11269 C 1082.9 -1.20881 1.93553 0
M  V30 11270 C 1083.88 -1.41467 0.801612 0
M  V30 11271 O 1085.06 -1.5605 1.05739 0
M  V30 11272 C 1082.19 -2.5674 2.20912 0
M  V30 11273 C 1081.24 -2.52738 3.43549 0
M  V30 11274 S 1082.07 -1.99257 4.97048 0
M  V30 11275 C 1083.23 -3.36842 5.27531 0
M  V30 11276 H 1083.46 -0.896362 2.83465 0
M  V30 11277 H 1080.99 -0.350894 1.5036 0
M  V30 11278 H 1082.95 -3.34923 2.37354 0
M  V30 11279 H 1081.61 -2.85174 1.31661 0
M  V30 11280 H 1080.8 -3.52753 3.59974 0
M  V30 11281 H 1080.41 -1.82665 3.26358 0
M  V30 11282 H 1082.7 -4.32958 5.21108 0
M  V30 11283 H 1083.64 -3.25268 6.28973 0
M  V30 11284 H 1084.05 -3.3406 4.55043 0
M  V30 11285 N 1083.45 -1.52049 -0.414609 0
M  V30 11286 C 1084.68 -1.69679 -1.18392 0
M  V30 11287 C 1085.09 -0.403881 -1.84429 0
M  V30 11288 O 1084.45 0.619636 -1.71659 0
M  V30 11289 C 1084.5 -2.82855 -2.25112 0
M  V30 11290 O 1084.22 -4.07138 -1.61772 0
M  V30 11291 C 1085.72 -3.11948 -3.14965 0
M  V30 11292 H 1082.94 -0.56879 -0.355977 0
M  V30 11293 H 1085.48 -1.9858 -0.488505 0
M  V30 11294 H 1083.64 -2.56488 -2.90332 0
M  V30 11295 H 1084.05 -4.70163 -2.32479 0
M  V30 11296 H 1085.53 -3.94665 -3.85932 0
M  V30 11297 H 1086 -2.25276 -3.77024 0
M  V30 11298 H 1086.61 -3.40059 -2.55421 0
M  V30 11299 N 1084.93 0.6715 -1.42579 0
M  V30 11300 C 1085.87 1.78496 -1.46314 0
M  V30 11301 C 1086.84 1.63091 -0.314743 0
M  V30 11302 O 1088.03 1.83597 -0.519292 0
M  V30 11303 C 1085.17 3.16548 -1.37447 0
M  V30 11304 C 1084.28 3.43216 -2.62348 0
M  V30 11305 C 1083.42 4.71014 -2.456 0
M  V30 11306 C 1082.45 4.90728 -3.65859 0
M  V30 11307 N 1081.59 6.09769 -3.48032 0
M  V30 11308 H 1086.43 1.74638 -2.41466 0
M  V30 11309 H 1083.97 0.852491 -1.19879 0
M  V30 11310 H 1085.93 3.96329 -1.30303 0
M  V30 11311 H 1084.56 3.19522 -0.458891 0
M  V30 11312 H 1083.61 2.57664 -2.79846 0
M  V30 11313 H 1084.92 3.53675 -3.51732 0
M  V30 11314 H 1084.07 5.58892 -2.3606 0
M  V30 11315 H 1082.81 4.62843 -1.53712 0
M  V30 11316 H 1081.82 4.01291 -3.75827 0
M  V30 11317 H 1083.04 5.00741 -4.58732 0
M  V30 11318 H 1080.99 6.02765 -2.58864 0
M  V30 11319 H 1080.91 6.21104 -4.31005 0
M  V30 11320 H 1082.17 7.00317 -3.42311 0
M  V30 11321 N 1086.4 1.28806 0.908124 0
M  V30 11322 C 1087.81 1.14719 1.47297 0
M  V30 11323 C 1088.17 -0.260763 1.94459 0
M  V30 11324 O 1087.29 -1.15553 1.82966 0
M  V30 11325 C 1087.89 2.07643 2.67712 0
M  V30 11326 C 1086.44 1.97605 3.20358 0
M  V30 11327 C 1085.59 1.99058 1.93058 0
M  V30 11328 H 1088.54 1.41413 0.720283 0
M  V30 11329 H 1088.56 1.64372 3.43165 0
M  V30 11330 H 1088.08 3.10108 2.33355 0
M  V30 11331 H 1086.18 0.981982 3.59427 0
M  V30 11332 H 1086.29 2.84846 3.85226 0
M  V30 11333 H 1084.65 1.43541 2.104 0
M  V30 11334 H 1085.44 3.03212 1.60989 0
M  V30 11335 N 1087.88 -1.11734 1.11145 0
M  V30 11336 C 1089.29 -1.64928 0.874959 0
M  V30 11337 C 1089.64 -1.87012 -0.593375 0
M  V30 11338 O 1088.77 -1.60206 -1.45475 0
M  V30 11339 C 1089.36 -2.99608 1.58178 0
M  V30 11340 C 1087.92 -3.49723 1.39179 0
M  V30 11341 C 1087.07 -2.24595 1.62642 0
M  V30 11342 H 1090.02 -0.954154 1.26813 0
M  V30 11343 H 1090.04 -3.66434 1.02501 0
M  V30 11344 H 1089.55 -2.83504 2.65042 0
M  V30 11345 H 1087.65 -3.70998 0.345111 0
M  V30 11346 H 1087.77 -4.28711 2.13878 0
M  V30 11347 H 1086.13 -2.32067 1.04961 0
M  V30 11348 H 1086.91 -2.11036 2.70774 0
M  V30 11349 N 1089.36 -0.901303 -1.29284 0
M  V30 11350 C 1090.61 -0.528826 -1.95784 0
M  V30 11351 C 1090.94 0.922833 -1.70873 0
M  V30 11352 O 1090.21 1.65448 -1.0226 0
M  V30 11353 C 1090.5 -0.823793 -3.50551 0
M  V30 11354 C 1090.35 -2.32727 -3.84913 0
M  V30 11355 C 1091.67 -0.311382 -4.38997 0
M  V30 11356 H 1088.79 -0.193604 -0.711116 0
M  V30 11357 H 1091.43 -1.12828 -1.52872 0
M  V30 11358 H 1089.58 -0.313612 -3.87232 0
M  V30 11359 H 1091.25 -2.90712 -3.58168 0
M  V30 11360 H 1089.49 -2.78735 -3.32399 0
M  V30 11361 H 1090.17 -2.48423 -4.9294 0
M  V30 11362 H 1092.64 -0.748265 -4.09317 0
M  V30 11363 H 1091.52 -0.546957 -5.46168 0
M  V30 11364 H 1091.78 0.787959 -4.35021 0
M  V30 11365 N 1090.84 1.42931 -0.663954 0
M  V30 11366 C 1091.77 2.29122 0.0598878 0
M  V30 11367 C 1092.78 1.43094 0.776404 0
M  V30 11368 O 1093.97 1.66923 0.63237 0
M  V30 11369 C 1091.07 3.20268 1.10822 0
M  V30 11370 C 1090.24 4.34892 0.4677 0
M  V30 11371 C 1089.3 5.06836 1.41435 0
M  V30 11372 O 1088.33 5.61735 0.918818 0
M  V30 11373 N 1089.53 5.11336 2.74801 0
M  V30 11374 H 1092.3 2.91885 -0.679945 0
M  V30 11375 H 1089.86 1.53739 -0.507543 0
M  V30 11376 H 1091.85 3.65264 1.74255 0
M  V30 11377 H 1090.42 2.59031 1.7499 0
M  V30 11378 H 1089.64 3.92679 -0.34593 0
M  V30 11379 H 1090.93 5.08796 0.0210237 0
M  V30 11380 H 1090.33 4.68124 3.1761 0
M  V30 11381 H 1088.88 5.60013 3.33509 0
M  V30 11382 N 1092.32 0.406567 1.52266 0
M  V30 11383 C 1093.23 -0.4271 2.30679 0
M  V30 11384 C 1094.24 -1.0559 1.383 0
M  V30 11385 O 1095.42 -1.05797 1.71374 0
M  V30 11386 C 1092.48 -1.53008 3.1111 0
M  V30 11387 C 1091.54 -0.924604 4.19225 0
M  V30 11388 C 1090.78 -1.97502 4.95811 0
M  V30 11389 O 1091 -3.19277 4.72671 0
M  V30 11390 O 1089.93 -1.58268 5.80719 0
M  V30 11391 H 1093.76 0.212187 3.02958 0
M  V30 11392 H 1091.34 0.169835 1.48432 0
M  V30 11393 H 1093.23 -2.17046 3.61205 0
M  V30 11394 H 1091.9 -2.15401 2.41628 0
M  V30 11395 H 1090.81 -0.247009 3.73284 0
M  V30 11396 H 1092.14 -0.34463 4.90992 0
M  V30 11397 N 1093.79 -1.57004 0.136909 0
M  V30 11398 C 1094.73 -2.12004 -0.844362 0
M  V30 11399 C 1095.71 -1.04099 -1.24909 0
M  V30 11400 O 1096.89 -1.31866 -1.34698 0
M  V30 11401 C 1094.02 -2.63147 -2.13241 0
M  V30 11402 C 1093.06 -3.83105 -1.87438 0
M  V30 11403 S 1093.9 -5.2461 -1.07447 0
M  V30 11404 C 1095.05 -5.79134 -2.37392 0
M  V30 11405 H 1095.28 -2.94905 -0.376614 0
M  V30 11406 H 1092.82 -1.54207 -0.0771977 0
M  V30 11407 H 1094.78 -2.93264 -2.87239 0
M  V30 11408 H 1093.44 -1.80395 -2.57131 0
M  V30 11409 H 1092.63 -4.17099 -2.82922 0
M  V30 11410 H 1092.23 -3.53696 -1.21553 0
M  V30 11411 H 1094.52 -5.8995 -3.33114 0
M  V30 11412 H 1095.47 -6.76887 -2.07918 0
M  V30 11413 H 1095.87 -5.07311 -2.47579 0
M  V30 11414 N 1095.27 0.136881 -1.57004 0
M  V30 11415 C 1096.52 0.849031 -1.84172 0
M  V30 11416 C 1096.85 1.80359 -0.720027 0
M  V30 11417 O 1096.13 1.92538 0.275584 0
M  V30 11418 C 1096.41 1.61465 -3.21871 0
M  V30 11419 C 1096.26 0.680902 -4.44616 0
M  V30 11420 C 1097.58 2.57488 -3.56914 0
M  V30 11421 H 1094.7 0.307209 -0.669919 0
M  V30 11422 H 1097.34 0.113862 -1.89659 0
M  V30 11423 H 1095.49 2.24137 -3.17325 0
M  V30 11424 H 1097.16 0.0644094 -4.61255 0
M  V30 11425 H 1095.41 -0.00883629 -4.33799 0
M  V30 11426 H 1096.08 1.25286 -5.37594 0
M  V30 11427 H 1098.55 2.0493 -3.62136 0
M  V30 11428 H 1097.43 3.08101 -4.54274 0
M  V30 11429 H 1097.69 3.39321 -2.83397 0
M  V30 11430 N 1096.75 1.52266 0.40654 0
M  V30 11431 C 1098.03 1.57018 1.1664 0
M  V30 11432 C 1098.41 0.352752 2.08132 0
M  V30 11433 O 1097.76 -0.660208 2.18754 0
M  V30 11434 C 1097.97 2.90016 1.94143 0
M  V30 11435 C 1099.31 3.43112 2.50119 0
M  V30 11436 O 1100.34 2.91773 2.0432 0
M  V30 11437 O 1099.2 4.32765 3.33731 0
M  V30 11438 H 1096.29 0.632574 0.532709 0
M  V30 11439 H 1098.84 1.64595 0.413111 0
M  V30 11440 H 1097.61 3.70071 1.27134 0
M  V30 11441 H 1097.23 2.85744 2.76471 0
M  V30 11442 N 1098.23 -0.663929 1.42933 0
M  V30 11443 C 1099.14 -1.80643 1.49683 0
M  V30 11444 C 1100.15 -1.69694 0.38472 0
M  V30 11445 O 1101.33 -1.91052 0.637256 0
M  V30 11446 C 1098.4 -3.16858 1.4072 0
M  V30 11447 C 1097.46 -3.39684 2.62514 0
M  V30 11448 C 1096.69 -4.69399 2.53969 0
M  V30 11449 O 1096.91 -5.48037 1.58152 0
M  V30 11450 O 1095.85 -4.93709 3.44289 0
M  V30 11451 H 1099.67 -1.77903 2.46138 0
M  V30 11452 H 1097.26 -0.821059 1.24816 0
M  V30 11453 H 1099.14 -3.9812 1.38124 0
M  V30 11454 H 1097.81 -3.20211 0.473954 0
M  V30 11455 H 1096.72 -2.58227 2.70684 0
M  V30 11456 H 1098.05 -3.41169 3.54774 0
M  V30 11457 N 1099.71 -1.29285 -0.901281 0
M  V30 11458 C 1100.64 -1.16832 -2.0217 0
M  V30 11459 C 1101.62 -0.0629265 -1.69984 0
M  V30 11460 O 1102.8 -0.242123 -1.92685 0
M  V30 11461 C 1099.93 -0.842406 -3.36929 0
M  V30 11462 C 1098.89 -1.90394 -3.8332 0
M  V30 11463 C 1098.21 -1.43138 -5.15185 0
M  V30 11464 C 1099.51 -3.31254 -4.03817 0
M  V30 11465 H 1101.21 -2.10562 -2.12847 0
M  V30 11466 H 1098.75 -1.01375 -1.0227 0
M  V30 11467 H 1100.71 -0.741999 -4.14816 0
M  V30 11468 H 1099.43 0.130598 -3.26339 0
M  V30 11469 H 1098.09 -1.99371 -3.07647 0
M  V30 11470 H 1097.74 -0.447091 -5.01009 0
M  V30 11471 H 1097.44 -2.14129 -5.47195 0
M  V30 11472 H 1098.96 -1.34444 -5.95615 0
M  V30 11473 H 1100.37 -3.25129 -4.72191 0
M  V30 11474 H 1098.77 -4.00189 -4.47178 0
M  V30 11475 H 1099.84 -3.74349 -3.08206 0
M  V30 11476 N 1101.18 1.11143 -1.11736 0
M  V30 11477 C 1102.12 2.1705 -0.736325 0
M  V30 11478 C 1103.13 1.61116 0.233528 0
M  V30 11479 O 1104.32 1.78493 0.0159602 0
M  V30 11480 C 1101.42 3.38832 -0.067974 0
M  V30 11481 C 1100.59 4.24226 -1.06543 0
M  V30 11482 C 1099.65 5.24472 -0.426063 0
M  V30 11483 O 1098.68 5.58843 -1.0809 0
M  V30 11484 N 1099.88 5.74825 0.809711 0
M  V30 11485 H 1102.64 2.50349 -1.64758 0
M  V30 11486 H 1100.2 1.26693 -1.00799 0
M  V30 11487 H 1102.2 4.02991 0.371563 0
M  V30 11488 H 1100.77 3.0357 0.745917 0
M  V30 11489 H 1099.99 3.56475 -1.68283 0
M  V30 11490 H 1101.27 4.78117 -1.74016 0
M  V30 11491 H 1100.67 5.49088 1.36084 0
M  V30 11492 H 1099.23 6.40804 1.19218 0
M  V30 11493 N 1102.66 0.908147 1.28804 0
M  V30 11494 C 1103.91 0.53734 1.94826 0
M  V30 11495 C 1104.23 -0.920962 1.71882 0
M  V30 11496 O 1103.5 -1.65043 1.05534 0
M  V30 11497 H 1102.08 0.195729 0.720902 0
M  V30 11498 H 1104.74 1.15628 1.56895 0
M  V30 11499 H 1103.84 0.727052 3.03513 0
M  V30 11500 N 1104.14 -1.42577 0.671525 0
M  V30 11501 C 1105.55 -1.84736 0.270084 0
M  V30 11502 C 1105.9 -1.56212 -1.18711 0
M  V30 11503 O 1105.03 -1.02028 -1.90838 0
M  V30 11504 C 1105.62 -3.35334 0.483409 0
M  V30 11505 C 1104.18 -3.76154 0.136119 0
M  V30 11506 C 1103.33 -2.66179 0.777444 0
M  V30 11507 H 1106.28 -1.3247 0.873919 0
M  V30 11508 H 1106.3 -3.79573 -0.265483 0
M  V30 11509 H 1105.81 -3.56063 1.54405 0
M  V30 11510 H 1103.91 -3.61033 -0.921209 0
M  V30 11511 H 1104.03 -4.75645 0.574356 0
M  V30 11512 H 1102.39 -2.53841 0.209055 0
M  V30 11513 H 1103.17 -2.89732 1.84148 0
M  V30 11514 N 1105.62 -0.414636 -1.52048 0
M  V30 11515 C 1106.87 0.159349 -2.01872 0
M  V30 11516 C 1107.19 1.44674 -1.29999 0
M  V30 11517 O 1106.45 1.91641 -0.396511 0
M  V30 11518 C 1106.75 0.448327 -3.54577 0
M  V30 11519 C 1106.41 -0.75052 -4.4461 0
M  V30 11520 C 1105.08 -1.07935 -4.68939 0
M  V30 11521 C 1107.43 -1.55134 -4.97577 0
M  V30 11522 C 1104.76 -2.21008 -5.43482 0
M  V30 11523 C 1107.11 -2.67288 -5.73358 0
M  V30 11524 C 1105.77 -3.00651 -5.95958 0
M  V30 11525 H 1105.04 0.05831 -0.738702 0
M  V30 11526 H 1107.69 -0.557184 -1.83215 0
M  V30 11527 H 1105.99 1.24649 -3.71443 0
M  V30 11528 H 1107.69 0.90549 -3.90643 0
M  V30 11529 H 1104.28 -0.484257 -4.25856 0
M  V30 11530 H 1108.46 -1.31052 -4.78685 0
M  V30 11531 H 1103.72 -2.47197 -5.59199 0
M  V30 11532 H 1107.89 -3.29725 -6.13396 0
M  V30 11533 H 1105.52 -3.88384 -6.535 0
M  V30 11534 N 1107.1 1.56929 -0.145233 0
M  V30 11535 C 1108.32 2.00864 0.516564 0
M  V30 11536 C 1108.75 1.02466 1.57741 0
M  V30 11537 O 1108.1 0.000145439 1.813 0
M  V30 11538 C 1108.15 3.43552 1.09563 0
M  V30 11539 O 1107.26 3.4815 2.21055 0
M  V30 11540 H 1106.6 0.651835 0.126521 0
M  V30 11541 H 1109.13 2.0317 -0.241445 0
M  V30 11542 H 1109.14 3.82316 1.42473 0
M  V30 11543 H 1107.81 4.14677 0.318749 0
M  V30 11544 H 1106.39 3.21228 1.89387 0
M  V30 11545 N 1108.58 -0.128553 1.57075 0
M  V30 11546 C 1109.81 -0.851214 1.8825 0
M  V30 11547 C 1110.21 -1.74402 0.733531 0
M  V30 11548 O 1109.56 -1.81149 -0.305108 0
M  V30 11549 C 1109.62 -1.74451 3.14336 0
M  V30 11550 C 1109.28 -1.02699 4.45311 0
M  V30 11551 C 1110.28 -0.37224 5.18566 0
M  V30 11552 C 1107.96 -1.01101 4.9202 0
M  V30 11553 C 1109.96 0.2889 6.36745 0
M  V30 11554 C 1107.65 -0.346063 6.10119 0
M  V30 11555 C 1108.64 0.302744 6.82329 0
M  V30 11556 O 1108.33 0.9571 7.98182 0
M  V30 11557 H 1108.06 -0.250529 0.627863 0
M  V30 11558 H 1110.62 -0.120418 2.05047 0
M  V30 11559 H 1108.85 -2.51671 2.93596 0
M  V30 11560 H 1110.54 -2.34075 3.31608 0
M  V30 11561 H 1111.3 -0.376271 4.83538 0
M  V30 11562 H 1107.18 -1.50543 4.35727 0
M  V30 11563 H 1110.73 0.795901 6.93045 0
M  V30 11564 H 1106.62 -0.339762 6.44605 0
M  V30 11565 H 1107.39 0.860616 8.13963 0
M  V30 11566 N 1110.05 -1.5248 -0.398459 0
M  V30 11567 C 1111.33 -1.57634 -1.15805 0
M  V30 11568 C 1111.71 -0.363785 -2.07942 0
M  V30 11569 O 1111.06 0.648598 -2.19101 0
M  V30 11570 C 1111.27 -2.91042 -1.92602 0
M  V30 11571 C 1112.62 -3.44433 -2.48296 0
M  V30 11572 O 1113.64 -2.92853 -2.0277 0
M  V30 11573 O 1112.5 -4.34529 -3.31432 0
M  V30 11574 H 1109.59 -0.63539 -0.529347 0
M  V30 11575 H 1112.14 -1.64812 -0.404376 0
M  V30 11576 H 1110.91 -3.7074 -1.25169 0
M  V30 11577 H 1110.53 -2.87206 -2.74952 0
M  V30 11578 N 1111.53 0.65634 -1.43283 0
M  V30 11579 C 1112.78 1.41627 -1.44734 0
M  V30 11580 C 1113.11 1.94372 -0.0704893 0
M  V30 11581 O 1112.36 1.72511 0.924037 0
M  V30 11582 C 1112.66 2.61688 -2.43421 0
M  V30 11583 C 1112.33 2.2738 -3.8937 0
M  V30 11584 C 1110.99 2.17735 -4.29121 0
M  V30 11585 C 1113.34 1.99863 -4.81357 0
M  V30 11586 C 1110.67 1.78725 -5.58815 0
M  V30 11587 C 1113.02 1.62352 -6.11412 0
M  V30 11588 C 1111.68 1.51231 -6.50143 0
M  V30 11589 H 1110.95 0.51825 -0.529621 0
M  V30 11590 H 1113.6 0.746701 -1.76342 0
M  V30 11591 H 1111.91 3.33763 -2.05206 0
M  V30 11592 H 1113.6 3.19896 -2.41801 0
M  V30 11593 H 1110.19 2.35795 -3.57908 0
M  V30 11594 H 1114.38 2.06237 -4.5142 0
M  V30 11595 H 1109.63 1.68698 -5.87666 0
M  V30 11596 H 1113.81 1.40091 -6.82164 0
M  V30 11597 H 1111.43 1.20774 -7.50545 0
M  V30 11598 N 1113.01 1.29761 0.894412 0
M  V30 11599 C 1114.23 1.21064 1.68399 0
M  V30 11600 C 1114.66 -0.224608 1.86754 0
M  V30 11601 O 1114.02 -1.16199 1.39167 0
M  V30 11602 C 1114.07 1.93468 3.04306 0
M  V30 11603 O 1113.17 1.25533 3.9283 0
M  V30 11604 H 1112.51 0.419223 0.514925 0
M  V30 11605 H 1115.04 1.71421 1.11696 0
M  V30 11606 H 1115.05 2.02127 3.54413 0
M  V30 11607 H 1113.73 2.97857 2.90265 0
M  V30 11608 H 1112.3 1.25168 3.51266 0
M  V30 11609 N 1114.49 -1.10549 1.12324 0
M  V30 11610 C 1115.72 -1.86 0.899312 0
M  V30 11611 C 1116.13 -1.80881 -0.554854 0
M  V30 11612 O 1115.47 -1.19485 -1.39531 0
M  V30 11613 C 1115.53 -3.35384 1.29452 0
M  V30 11614 C 1115.19 -3.64263 2.75974 0
M  V30 11615 C 1116.19 -3.60962 3.74169 0
M  V30 11616 C 1113.88 -3.92976 3.1285 0
M  V30 11617 C 1115.87 -3.85966 5.07256 0
M  V30 11618 C 1113.56 -4.17637 4.4612 0
M  V30 11619 C 1114.56 -4.14122 5.43132 0
M  V30 11620 O 1114.24 -4.38156 6.73999 0
M  V30 11621 H 1113.98 -0.594743 0.321337 0
M  V30 11622 H 1116.53 -1.40674 1.49667 0
M  V30 11623 H 1114.76 -3.81361 0.640358 0
M  V30 11624 H 1116.45 -3.9222 1.04491 0
M  V30 11625 H 1117.21 -3.38819 3.47025 0
M  V30 11626 H 1113.09 -3.94843 2.3795 0
M  V30 11627 H 1116.64 -3.83138 5.82967 0
M  V30 11628 H 1112.53 -4.39258 4.72993 0
M  V30 11629 H 1113.3 -4.55677 6.79927 0
M  V30 11630 N 1115.97 -0.914965 -1.28321 0
M  V30 11631 C 1117.21 -0.559015 -1.95567 0
M  V30 11632 C 1117.57 0.887749 -1.70695 0
M  V30 11633 O 1116.86 1.62312 -1.0181 0
M  V30 11634 C 1117.05 -0.805805 -3.48198 0
M  V30 11635 C 1116.88 -2.27501 -3.87909 0
M  V30 11636 C 1115.65 -2.92534 -4.12009 0
M  V30 11637 C 1117.85 -3.25152 -3.98473 0
M  V30 11638 N 1115.83 -4.29739 -4.38403 0
M  V30 11639 C 1117.2 -4.47524 -4.29095 0
M  V30 11640 C 1119.26 -3.20534 -3.81001 0
M  V30 11641 C 1117.96 -5.65861 -4.44065 0
M  V30 11642 C 1119.99 -4.38172 -3.97189 0
M  V30 11643 C 1119.35 -5.59318 -4.28185 0
M  V30 11644 H 1115.45 -0.254451 -0.739445 0
M  V30 11645 H 1118.03 -1.17895 -1.54948 0
M  V30 11646 H 1116.2 -0.215134 -3.87804 0
M  V30 11647 H 1117.94 -0.413762 -4.02579 0
M  V30 11648 H 1114.69 -2.43258 -4.06352 0
M  V30 11649 H 1115.11 -5.00683 -4.55681 0
M  V30 11650 H 1119.76 -2.27949 -3.56088 0
M  V30 11651 H 1117.47 -6.58924 -4.67809 0
M  V30 11652 H 1121.06 -4.36102 -3.85105 0
M  V30 11653 H 1119.94 -6.48828 -4.40446 0
M  V30 11654 N 1117.44 1.42219 -0.679077 0
M  V30 11655 C 1118.41 2.29197 -0.0125475 0
M  V30 11656 C 1119.41 1.43544 0.724691 0
M  V30 11657 O 1120.6 1.64884 0.562052 0
M  V30 11658 C 1117.73 3.26122 0.992846 0
M  V30 11659 H 1118.92 2.89629 -0.778154 0
M  V30 11660 H 1116.47 1.4993 -0.44166 0
M  V30 11661 H 1117.21 2.70637 1.78679 0
M  V30 11662 H 1116.99 3.89302 0.467544 0
M  V30 11663 H 1118.48 3.91339 1.45751 0
M  V30 11664 N 1118.92 0.422693 1.51826 0
M  V30 11665 C 1120.34 0.0742364 1.59427 0
M  V30 11666 C 1120.54 -1.41491 1.43466 0
M  V30 11667 O 1119.59 -2.18326 1.26846 0
M  V30 11668 C 1120.91 0.581272 2.95028 0
M  V30 11669 C 1122.45 0.54043 3.08299 0
M  V30 11670 C 1122.93 1.0242 4.46401 0
M  V30 11671 N 1124.42 0.981576 4.5268 0
M  V30 11672 C 1125.16 1.32693 5.57835 0
M  V30 11673 N 1124.65 1.74441 6.70479 0
M  V30 11674 N 1126.44 1.24603 5.48115 0
M  V30 11675 H 1118.6 1.39178 1.60447 0
M  V30 11676 H 1120.86 0.572607 0.75553 0
M  V30 11677 H 1120.56 1.62261 3.12032 0
M  V30 11678 H 1120.44 -0.00176969 3.772 0
M  V30 11679 H 1122.83 -0.491895 2.90971 0
M  V30 11680 H 1122.91 1.15969 2.28002 0
M  V30 11681 H 1122.55 2.05491 4.64474 0
M  V30 11682 H 1122.48 0.381613 5.25215 0
M  V30 11683 H 1124.97 0.674808 3.71826 0
M  V30 11684 H 1125.28 1.99068 7.46721 0
M  V30 11685 H 1123.63 1.78356 6.71725 0
M  V30 11686 H 1126.82 0.918641 4.58997 0
M  V30 11687 H 1126.99 1.51847 6.29958 0
M  V30 11688 N 1120.4 -1.5685 0.153553 0
M  V30 11689 C 1121.62 -2.01135 -0.505904 0
M  V30 11690 C 1122.05 -1.03301 -1.57196 0
M  V30 11691 O 1121.41 -0.00976022 -1.81297 0
M  V30 11692 C 1121.46 -3.44129 -1.0774 0
M  V30 11693 O 1120.56 -3.49318 -2.19205 0
M  V30 11694 H 1119.9 -0.652496 -0.123062 0
M  V30 11695 H 1122.43 -2.03039 0.252216 0
M  V30 11696 H 1122.44 -3.83066 -1.40444 0
M  V30 11697 H 1121.12 -4.1484 -0.296754 0
M  V30 11698 H 1119.69 -3.22227 -1.8768 0
M  V30 11699 N 1121.88 0.120221 -1.57141 0
M  V30 11700 C 1123.13 0.826586 -1.84423 0
M  V30 11701 C 1123.45 1.80473 -0.738553 0
M  V30 11702 O 1122.72 1.94454 0.23755 0
M  V30 11703 H 1121.3 0.308246 -0.680436 0
M  V30 11704 H 1123.96 0.107835 -1.94601 0
M  V30 11705 H 1123.05 1.37256 -2.80298 0
M  V30 11706 N 1123.36 1.52689 0.390367 0
M  V30 11707 C 1124.27 1.8029 1.50108 0
M  V30 11708 C 1125.28 0.689582 1.59752 0
M  V30 11709 O 1126.46 0.977024 1.76114 0
M  V30 11710 C 1123.52 1.96475 2.85654 0
M  V30 11711 C 1122.58 3.2039 2.85743 0
M  V30 11712 C 1121.82 3.35793 4.14824 0
M  V30 11713 O 1122.04 2.56033 5.09709 0
M  V30 11714 O 1120.97 4.2904 4.22147 0
M  V30 11715 H 1124.8 2.74605 1.29715 0
M  V30 11716 H 1122.39 1.37763 0.578074 0
M  V30 11717 H 1124.27 2.08835 3.66013 0
M  V30 11718 H 1122.94 1.05351 3.06077 0
M  V30 11719 H 1121.85 3.13473 2.0417 0
M  V30 11720 H 1123.18 4.11356 2.70272 0
M  V30 11721 N 1124.83 -0.648732 1.43629 0
M  V30 11722 C 1125.78 -1.76145 1.49136 0
M  V30 11723 C 1126.75 -1.62569 0.340649 0
M  V30 11724 O 1127.94 -1.82748 0.548435 0
M  V30 11725 C 1125.08 -3.14321 1.42466 0
M  V30 11726 C 1124.19 -3.38999 2.67776 0
M  V30 11727 C 1123.32 -4.67047 2.53062 0
M  V30 11728 C 1122.36 -4.84845 3.7362 0
M  V30 11729 N 1121.5 -6.04155 3.57689 0
M  V30 11730 H 1126.34 -1.70774 2.44213 0
M  V30 11731 H 1123.88 -0.833311 1.2122 0
M  V30 11732 H 1125.84 -3.94206 1.36592 0
M  V30 11733 H 1124.47 -3.18751 0.509666 0
M  V30 11734 H 1123.52 -2.53179 2.83909 0
M  V30 11735 H 1124.83 -3.48035 3.57314 0
M  V30 11736 H 1123.98 -5.55066 2.44922 0
M  V30 11737 H 1122.72 -4.60339 1.61056 0
M  V30 11738 H 1121.73 -3.95261 3.82163 0
M  V30 11739 H 1122.95 -4.9338 4.6664 0
M  V30 11740 H 1120.9 -5.9857 2.6842 0
M  V30 11741 H 1120.82 -6.14169 4.40832 0
M  V30 11742 H 1122.08 -6.94782 3.53409 0
M  V30 11743 N 1126.31 -1.30234 -0.887518 0
M  V30 11744 C 1127.56 -1.18277 -1.63381 0
M  V30 11745 C 1127.87 0.262079 -1.93836 0
M  V30 11746 O 1129.08 0.503127 -2.66797 0
M  V30 11747 C 1127.54 -2.06944 -2.94452 0
M  V30 11748 C 1127.14 -3.56323 -2.71547 0
M  V30 11749 C 1128.89 -2.03743 -3.7241 0
M  V30 11750 C 1126.8 -4.37054 -3.98419 0
M  V30 11751 H 1125.73 -0.439087 -0.612959 0
M  V30 11752 H 1128.38 -1.54964 -0.982779 0
M  V30 11753 H 1126.76 -1.63138 -3.60835 0
M  V30 11754 H 1127.93 -4.08261 -2.13681 0
M  V30 11755 H 1126.25 -3.61321 -2.06969 0
M  V30 11756 H 1128.84 -2.61312 -4.66497 0
M  V30 11757 H 1129.19 -1.02029 -4.03603 0
M  V30 11758 H 1129.72 -2.45657 -3.12886 0
M  V30 11759 H 1126.46 -5.39453 -3.72385 0
M  V30 11760 H 1125.98 -3.89881 -4.55799 0
M  V30 11761 H 1127.66 -4.48356 -4.66462 0
M  V30 11762 N 1127.79 1.09952 -1.12909 0
M  V30 11763 C 1129.02 1.8579 -0.910483 0
M  V30 11764 C 1129.43 1.80898 0.540484 0
M  V30 11765 O 1128.79 1.20126 1.3739 0
M  V30 11766 C 1128.84 3.33987 -1.38329 0
M  V30 11767 O 1128.56 3.38811 -2.77739 0
M  V30 11768 C 1130.06 4.26683 -1.20234 0
M  V30 11769 H 1127.28 0.587026 -0.325025 0
M  V30 11770 H 1129.83 1.38965 -1.5003 0
M  V30 11771 H 1127.98 3.78259 -0.836592 0
M  V30 11772 H 1128.4 4.31204 -2.98603 0
M  V30 11773 H 1129.87 5.28846 -1.58197 0
M  V30 11774 H 1130.35 4.38966 -0.14344 0
M  V30 11775 H 1130.95 3.88221 -1.73679 0
M  V30 11776 N 1129.27 0.921757 1.27833 0
M  V30 11777 C 1130.51 0.559906 1.94918 0
M  V30 11778 C 1130.85 -0.895532 1.72319 0
M  V30 11779 O 1130.12 -1.638 1.04879 0
M  V30 11780 C 1130.41 0.879458 3.49196 0
M  V30 11781 C 1130.26 2.38821 3.81162 0
M  V30 11782 C 1131.58 0.381183 4.38446 0
M  V30 11783 H 1128.7 0.204893 0.707946 0
M  V30 11784 H 1131.34 1.15246 1.51058 0
M  V30 11785 H 1129.49 0.375177 3.86684 0
M  V30 11786 H 1131.16 2.96373 3.53498 0
M  V30 11787 H 1129.4 2.83988 3.27923 0
M  V30 11788 H 1130.07 2.56234 4.88926 0
M  V30 11789 H 1132.55 0.813289 4.08075 0
M  V30 11790 H 1131.43 0.633778 5.45229 0
M  V30 11791 H 1131.69 -0.718651 4.3622 0
M  V30 11792 N 1130.75 -1.41857 0.686609 0
M  V30 11793 C 1131.97 -2.05699 0.222561 0
M  V30 11794 C 1132.39 -1.51636 -1.12481 0
M  V30 11795 O 1131.75 -0.660925 -1.70112 0
M  V30 11796 C 1131.8 -3.61138 0.161818 0
M  V30 11797 O 1131.52 -4.13199 1.45596 0
M  V30 11798 C 1133.02 -4.42112 -0.324304 0
M  V30 11799 H 1130.24 -0.662665 0.10543 0
M  V30 11800 H 1132.78 -1.81788 0.936671 0
M  V30 11801 H 1130.94 -3.8412 -0.503056 0
M  V30 11802 H 1131.35 -5.0717 1.33712 0
M  V30 11803 H 1132.83 -5.51097 -0.315694 0
M  V30 11804 H 1133.3 -4.1756 -1.36164 0
M  V30 11805 H 1133.91 -4.24174 0.309251 0
M  V30 11806 N 1132.22 -0.430739 -1.51599 0
M  V30 11807 C 1133.64 0.0339139 -1.86669 0
M  V30 11808 C 1133.99 1.42533 -1.34829 0
M  V30 11809 O 1133.11 2.04889 -0.696376 0
M  V30 11810 C 1133.71 0.0683174 -3.38731 0
M  V30 11811 C 1132.27 0.477363 -3.73361 0
M  V30 11812 C 1131.41 -0.334258 -2.75278 0
M  V30 11813 H 1134.36 -0.646875 -1.44918 0
M  V30 11814 H 1134.38 0.879179 -3.70204 0
M  V30 11815 H 1133.9 -0.944501 -3.76432 0
M  V30 11816 H 1132 1.49603 -3.41247 0
M  V30 11817 H 1132.11 0.206744 -4.78654 0
M  V30 11818 H 1130.47 0.206503 -2.53861 0
M  V30 11819 H 1131.26 -1.34583 -3.1582 0
M  V30 11820 N 1133.7 1.56767 -0.161869 0
M  V30 11821 C 1134.93 2.01401 0.49523 0
M  V30 11822 C 1135.35 1.04133 1.56646 0
M  V30 11823 O 1134.71 0.0193747 1.8129 0
M  V30 11824 C 1134.76 3.44695 1.05913 0
M  V30 11825 O 1133.86 3.50475 2.1735 0
M  V30 11826 H 1133.2 0.65314 0.1196 0
M  V30 11827 H 1135.73 2.02903 -0.26298 0
M  V30 11828 H 1135.74 3.83805 1.3841 0
M  V30 11829 H 1134.42 4.14991 0.274749 0
M  V30 11830 H 1133 3.23218 1.85969 0
M  V30 11831 N 1135.18 -0.111886 1.57202 0
M  V30 11832 C 1136.41 -0.836317 1.89791 0
M  V30 11833 C 1136.83 -1.72304 0.754513 0
M  V30 11834 O 1136.19 -1.78889 -0.294672 0
M  V30 11835 C 1136.24 -1.63971 3.21164 0
M  V30 11836 O 1135.34 -2.74726 3.0757 0
M  V30 11837 H 1134.68 -0.230833 0.622585 0
M  V30 11838 H 1137.21 -0.0921478 2.04392 0
M  V30 11839 H 1137.22 -2.02746 3.54059 0
M  V30 11840 H 1135.9 -0.98882 4.03974 0
M  V30 11841 H 1134.47 -2.39101 2.86156 0
M  V30 11842 N 1136.66 -1.52894 -0.382264 0
M  V30 11843 C 1137.61 -1.78151 -1.46734 0
M  V30 11844 C 1138.58 -0.625034 -1.53891 0
M  V30 11845 O 1139.76 -0.865467 -1.70042 0
M  V30 11846 C 1136.9 -1.96223 -2.83885 0
M  V30 11847 C 1136.01 -3.23925 -2.85826 0
M  V30 11848 C 1135.15 -3.32277 -4.14446 0
M  V30 11849 C 1134.19 -4.54076 -4.10465 0
M  V30 11850 N 1133.32 -4.59672 -5.30703 0
M  V30 11851 H 1138.16 -2.70748 -1.24497 0
M  V30 11852 H 1135.7 -1.34135 -0.603838 0
M  V30 11853 H 1137.66 -2.04686 -3.63537 0
M  V30 11854 H 1136.29 -1.0698 -3.04557 0
M  V30 11855 H 1135.34 -3.245 -1.98505 0
M  V30 11856 H 1136.65 -4.1364 -2.78754 0
M  V30 11857 H 1135.81 -3.3996 -5.02506 0
M  V30 11858 H 1134.55 -2.40548 -4.2425 0
M  V30 11859 H 1133.55 -4.46511 -3.20793 0
M  V30 11860 H 1134.78 -5.47128 -4.02278 0
M  V30 11861 H 1132.72 -3.70838 -5.41124 0
M  V30 11862 H 1132.64 -5.43268 -5.25734 0
M  V30 11863 H 1133.91 -4.71618 -6.20642 0
M  V30 11864 N 1138.14 0.641106 -1.43971 0
M  V30 11865 C 1139.05 1.78239 -1.52538 0
M  V30 11866 C 1140.06 1.6906 -0.411668 0
M  V30 11867 O 1141.24 1.90014 -0.66757 0
M  V30 11868 C 1138.3 3.14579 -1.45743 0
M  V30 11869 C 1137.37 3.35464 -2.67885 0
M  V30 11870 C 1136.6 4.65299 -2.61404 0
M  V30 11871 O 1136.82 5.45451 -1.66851 0
M  V30 11872 O 1135.76 4.8817 -3.521 0
M  V30 11873 H 1139.58 1.73965 -2.48937 0
M  V30 11874 H 1137.17 0.801098 -1.26106 0
M  V30 11875 H 1139.05 3.95873 -1.4444 0
M  V30 11876 H 1137.72 3.19417 -0.524837 0
M  V30 11877 H 1136.63 2.53888 -2.74758 0
M  V30 11878 H 1137.96 3.35481 -3.60157 0
M  V30 11879 N 1139.62 1.30703 0.880598 0
M  V30 11880 C 1140.55 1.20033 2.00286 0
M  V30 11881 C 1141.53 0.0899614 1.69862 0
M  V30 11882 O 1142.71 0.272747 1.92275 0
M  V30 11883 C 1139.84 0.895902 3.35546 0
M  V30 11884 C 1138.8 1.96468 3.80242 0
M  V30 11885 C 1138.12 1.51316 5.12843 0
M  V30 11886 C 1139.42 3.37637 3.98496 0
M  V30 11887 H 1141.12 2.13922 2.0947 0
M  V30 11888 H 1138.66 1.02989 1.00644 0
M  V30 11889 H 1140.61 0.807899 4.13583 0
M  V30 11890 H 1139.34 -0.0786636 3.26505 0
M  V30 11891 H 1138 2.0424 3.04437 0
M  V30 11892 H 1137.65 0.52674 5.00234 0
M  V30 11893 H 1137.35 2.22807 5.43719 0
M  V30 11894 H 1138.87 1.43903 5.93401 0
M  V30 11895 H 1140.28 3.326 4.66959 0
M  V30 11896 H 1138.68 4.07253 4.40755 0
M  V30 11897 H 1139.75 3.79205 3.02211 0
M  V30 11898 N 1141.09 -1.09351 1.1349 0
M  V30 11899 C 1142.02 -2.18037 0.835588 0
M  V30 11900 C 1143 -1.68856 -0.205373 0
M  V30 11901 O 1144.19 -1.94094 -0.0641357 0
M  V30 11902 C 1141.32 -3.45987 0.301661 0
M  V30 11903 C 1140.27 -4.08507 1.27696 0
M  V30 11904 C 1139.6 -5.31292 0.602758 0
M  V30 11905 C 1140.9 -4.50916 2.63575 0
M  V30 11906 H 1142.59 -2.43332 1.74441 0
M  V30 11907 H 1140.14 -1.1695 0.840166 0
M  V30 11908 H 1142.09 -4.21324 0.079928 0
M  V30 11909 H 1140.82 -3.20217 -0.642552 0
M  V30 11910 H 1139.48 -3.3519 1.4847 0
M  V30 11911 H 1139.12 -5.01802 -0.346953 0
M  V30 11912 H 1138.82 -5.74075 1.25345 0
M  V30 11913 H 1140.35 -6.09351 0.390325 0
M  V30 11914 H 1141.76 -5.17474 2.46765 0
M  V30 11915 H 1140.16 -5.04586 3.24827 0
M  V30 11916 H 1141.23 -3.63279 3.2118 0
M  V30 11917 N 1142.57 -0.928524 -1.27343 0
M  V30 11918 C 1143.82 -0.569392 -1.9433 0
M  V30 11919 C 1144.15 0.889481 -1.7297 0
M  V30 11920 O 1143.4 1.6499 -1.05247 0
M  V30 11921 C 1143.7 -0.84269 -3.47323 0
M  V30 11922 C 1143.37 -2.28344 -3.88806 0
M  V30 11923 C 1142.03 -2.67731 -3.99842 0
M  V30 11924 C 1144.38 -3.22031 -4.09811 0
M  V30 11925 C 1141.71 -3.99928 -4.29272 0
M  V30 11926 C 1144.06 -4.5381 -4.40725 0
M  V30 11927 C 1142.72 -4.93031 -4.49975 0
M  V30 11928 H 1141.99 -0.208355 -0.711104 0
M  V30 11929 H 1144.64 -1.17264 -1.51398 0
M  V30 11930 H 1142.95 -0.156775 -3.91486 0
M  V30 11931 H 1144.64 -0.543779 -3.97296 0
M  V30 11932 H 1141.23 -1.96787 -3.80753 0
M  V30 11933 H 1145.42 -2.92803 -4.00724 0
M  V30 11934 H 1140.67 -4.29996 -4.34642 0
M  V30 11935 H 1144.85 -5.26407 -4.55926 0
M  V30 11936 H 1142.47 -5.95497 -4.72533 0
M  V30 11937 N 1144.05 1.41491 -0.694123 0
M  V30 11938 C 1145.28 2.0528 -0.233128 0
M  V30 11939 C 1145.69 1.52329 1.12217 0
M  V30 11940 O 1145.03 0.66579 1.7121 0
M  V30 11941 C 1145.09 3.59326 -0.111718 0
M  V30 11942 C 1144.76 4.35065 -1.39882 0
M  V30 11943 C 1145.75 4.64446 -2.33637 0
M  V30 11944 C 1143.44 4.74364 -1.65179 0
M  V30 11945 C 1145.43 5.32083 -3.50951 0
M  V30 11946 C 1143.12 5.41737 -2.82779 0
M  V30 11947 C 1144.12 5.70524 -3.75488 0
M  V30 11948 O 1143.81 6.36511 -4.91029 0
M  V30 11949 H 1143.54 0.667571 -0.106418 0
M  V30 11950 H 1146.09 1.82276 -0.94682 0
M  V30 11951 H 1144.32 3.81065 0.65773 0
M  V30 11952 H 1146.01 4.047 0.311906 0
M  V30 11953 H 1146.78 4.34568 -2.1535 0
M  V30 11954 H 1142.66 4.5134 -0.93881 0
M  V30 11955 H 1146.2 5.54468 -4.23333 0
M  V30 11956 H 1142.1 5.71033 -3.00984 0
M  V30 11957 H 1142.86 6.55006 -4.90825 0
M  V30 11958 N 1145.53 0.438773 1.51369 0
M  V30 11959 C 1146.94 -0.0240139 1.86685 0
M  V30 11960 C 1147.29 -1.41816 1.35583 0
M  V30 11961 O 1146.41 -2.04517 0.707232 0
M  V30 11962 C 1147.01 -0.0503527 3.38763 0
M  V30 11963 C 1145.57 -0.457556 3.73609 0
M  V30 11964 C 1144.72 0.348852 2.75097 0
M  V30 11965 H 1147.67 0.654552 1.44573 0
M  V30 11966 H 1147.69 -0.859534 3.70665 0
M  V30 11967 H 1147.2 0.964451 3.75925 0
M  V30 11968 H 1145.3 -1.47791 3.42036 0
M  V30 11969 H 1145.41 -0.181357 4.78757 0
M  V30 11970 H 1143.78 -0.193037 2.53967 0
M  V30 11971 H 1144.56 1.36256 3.15102 0
M  V30 11972 N 1147.01 -1.56678 0.170181 0
M  V30 11973 C 1148.42 -1.83452 -0.346742 0
M  V30 11974 C 1148.77 -1.08993 -1.63141 0
M  V30 11975 O 1147.89 -0.342607 -2.13671 0
M  V30 11976 C 1148.49 -3.32779 -0.635882 0
M  V30 11977 C 1147.05 -3.60052 -1.09725 0
M  V30 11978 C 1146.19 -2.76983 -0.132516 0
M  V30 11979 H 1149.14 -1.53719 0.394465 0
M  V30 11980 H 1149.17 -3.50195 -1.48806 0
M  V30 11981 H 1148.68 -3.86944 0.299291 0
M  V30 11982 H 1146.78 -3.11297 -2.04756 0
M  V30 11983 H 1146.89 -4.68393 -1.00719 0
M  V30 11984 H 1145.26 -2.46794 -0.62966 0
M  V30 11985 H 1146.04 -3.33929 0.796658 0
M  V30 11986 N 1148.48 0.103547 -1.57259 0
M  V30 11987 C 1149.71 0.82624 -1.90232 0
M  V30 11988 C 1150.13 1.71902 -0.763641 0
M  V30 11989 O 1149.49 1.79043 0.285181 0
M  V30 11990 C 1149.54 1.62265 -3.22029 0
M  V30 11991 O 1148.64 2.73091 -3.09023 0
M  V30 11992 H 1147.98 0.227528 -0.6238 0
M  V30 11993 H 1150.51 0.081307 -2.04438 0
M  V30 11994 H 1150.52 2.00865 -3.5513 0
M  V30 11995 H 1149.2 0.967383 -4.04493 0
M  V30 11996 H 1147.78 2.3758 -2.8742 0
M  V30 11997 N 1149.96 1.53094 0.37415 0
M  V30 11998 C 1150.89 1.73697 1.48002 0
M  V30 11999 C 1151.87 0.585109 1.51708 0
M  V30 12000 O 1153.06 0.816688 1.6989 0
M  V30 12001 C 1150.18 1.80802 2.86406 0
M  V30 12002 C 1149.23 3.02696 3.00462 0
M  V30 12003 S 1150.06 4.62386 2.70109 0
M  V30 12004 C 1151.22 4.72328 4.10679 0
M  V30 12005 H 1151.45 2.67223 1.30303 0
M  V30 12006 H 1148.98 1.43574 0.567957 0
M  V30 12007 H 1150.94 1.85581 3.66155 0
M  V30 12008 H 1149.6 0.883425 3.01421 0
M  V30 12009 H 1148.8 3.04252 4.01804 0
M  V30 12010 H 1148.4 2.95985 2.28624 0
M  V30 12011 H 1150.69 4.51856 5.04809 0
M  V30 12012 H 1151.63 5.7437 4.14131 0
M  V30 12013 H 1152.04 4.01035 3.9728 0
M  V30 12014 N 1151.44 -0.633461 1.44309 0
M  V30 12015 C 1152.35 -1.77428 1.53481 0
M  V30 12016 C 1153.37 -1.68839 0.420628 0
M  V30 12017 O 1154.54 -1.89658 0.677638 0
M  V30 12018 C 1151.61 -3.13801 1.47409 0
M  V30 12019 C 1150.67 -3.34039 2.6966 0
M  V30 12020 C 1149.9 -4.63907 2.63868 0
M  V30 12021 O 1150.12 -5.44559 1.69741 0
M  V30 12022 O 1149.06 -4.86295 3.54684 0
M  V30 12023 H 1152.88 -1.72642 2.49857 0
M  V30 12024 H 1150.47 -0.794399 1.26529 0
M  V30 12025 H 1152.35 -3.95101 1.46537 0
M  V30 12026 H 1151.03 -3.19134 0.541769 0
M  V30 12027 H 1149.93 -2.52427 2.761 0
M  V30 12028 H 1151.27 -3.33566 3.61931 0
M  V30 12029 N 1152.92 -1.31168 -0.873655 0
M  V30 12030 C 1153.88 -1.18471 -1.96207 0
M  V30 12031 C 1154.88 -0.112814 -1.60404 0
M  V30 12032 O 1156.07 -0.3618 -1.70401 0
M  V30 12033 C 1153.2 -0.817662 -3.30949 0
M  V30 12034 H 1154.4 -2.1518 -2.08896 0
M  V30 12035 H 1151.95 -1.14727 -1.06149 0
M  V30 12036 H 1152.68 0.148428 -3.2396 0
M  V30 12037 H 1152.47 -1.59244 -3.58307 0
M  V30 12038 H 1153.96 -0.75262 -4.10762 0
M  V30 12039 N 1154.4 1.08748 -1.14068 0
M  V30 12040 C 1155.64 1.81333 -0.908081 0
M  V30 12041 C 1155.98 1.85826 0.564112 0
M  V30 12042 O 1155.25 1.33157 1.41773 0
M  V30 12043 C 1155.53 3.27127 -1.50531 0
M  V30 12044 C 1155.39 3.30865 -3.04711 0
M  V30 12045 C 1156.71 4.24006 -1.17928 0
M  V30 12046 H 1153.82 0.658326 -0.331325 0
M  V30 12047 H 1156.47 1.27345 -1.41008 0
M  V30 12048 H 1154.62 3.73233 -1.07839 0
M  V30 12049 H 1156.29 2.93109 -3.56209 0
M  V30 12050 H 1154.53 2.70241 -3.39341 0
M  V30 12051 H 1155.2 4.33603 -3.41603 0
M  V30 12052 H 1157.68 3.86221 -1.54831 0
M  V30 12053 H 1156.55 5.2434 -1.62353 0
M  V30 12054 H 1156.82 4.42 -0.0940349 0
M  V30 12055 N 1155.87 0.935264 1.26849 0
M  V30 12056 C 1157.12 0.580548 1.94313 0
M  V30 12057 C 1157.45 -0.877205 1.73259 0
M  V30 12058 O 1156.73 -1.62679 1.06611 0
M  V30 12059 C 1157.01 0.916445 3.48243 0
M  V30 12060 C 1156.86 2.42851 3.78607 0
M  V30 12061 C 1158.18 0.427665 4.38017 0
M  V30 12062 H 1155.3 0.21239 0.705733 0
M  V30 12063 H 1157.94 1.16841 1.49827 0
M  V30 12064 H 1156.09 0.416169 3.86265 0
M  V30 12065 H 1157.77 3.00106 3.50335 0
M  V30 12066 H 1156.01 2.8745 3.24892 0
M  V30 12067 H 1156.68 2.61405 4.8618 0
M  V30 12068 H 1159.16 0.856525 4.07189 0
M  V30 12069 H 1158.03 0.691571 5.44526 0
M  V30 12070 H 1158.29 -0.672344 4.36958 0
M  V30 12071 N 1157.35 -1.41121 0.701616 0
M  V30 12072 C 1158.58 -2.05973 0.242896 0
M  V30 12073 C 1159 -1.52474 -1.10151 0
M  V30 12074 O 1158.36 -0.654224 -1.69085 0
M  V30 12075 C 1158.41 -3.59943 0.217614 0
M  V30 12076 O 1157.51 -4.04454 -0.805629 0
M  V30 12077 H 1156.85 -0.653581 0.117166 0
M  V30 12078 H 1159.38 -1.80777 0.958175 0
M  V30 12079 H 1159.39 -4.07969 0.0505267 0
M  V30 12080 H 1158.07 -3.98249 1.19877 0
M  V30 12081 H 1156.65 -3.6792 -0.607404 0
M  V30 12082 N 1158.83 -0.446794 -1.51134 0
M  V30 12083 C 1160.08 0.116263 -2.01765 0
M  V30 12084 C 1160.4 1.42382 -1.33238 0
M  V30 12085 O 1159.67 1.9018 -0.469915 0
M  V30 12086 H 1158.25 0.0459558 -0.745585 0
M  V30 12087 H 1160.91 -0.591664 -1.85702 0
M  V30 12088 H 1160.01 0.285358 -3.10793 0
M  V30 12089 N 1160.31 1.56586 -0.178487 0
M  V30 12090 C 1161.22 2.21903 0.761321 0
M  V30 12091 C 1162.23 1.21289 1.2476 0
M  V30 12092 O 1163.41 1.53974 1.29823 0
M  V30 12093 C 1160.48 2.85259 1.97048 0
M  V30 12094 C 1159.54 4.01095 1.53039 0
M  V30 12095 C 1158.77 4.61421 2.68191 0
M  V30 12096 O 1158.99 4.20644 3.85247 0
M  V30 12097 O 1157.93 5.51171 2.41855 0
M  V30 12098 H 1161.75 3.02788 0.235141 0
M  V30 12099 H 1159.34 1.49316 0.0500442 0
M  V30 12100 H 1161.22 3.25404 2.6775 0
M  V30 12101 H 1159.89 2.07366 2.48558 0
M  V30 12102 H 1158.8 3.65606 0.792661 0
M  V30 12103 H 1160.13 4.80603 1.06213 0
M  V30 12104 N 1161.79 -0.095206 1.57312 0
M  V30 12105 C 1163.01 -0.81614 1.90667 0
M  V30 12106 C 1163.44 -1.71494 0.772746 0
M  V30 12107 O 1162.79 -1.79192 -0.275682 0
M  V30 12108 C 1162.84 -1.60555 3.22885 0
M  V30 12109 O 1161.95 -2.71448 3.10467 0
M  V30 12110 H 1161.29 -0.224217 0.624998 0
M  V30 12111 H 1163.82 -0.070464 2.04479 0
M  V30 12112 H 1163.83 -1.98979 3.5619 0
M  V30 12113 H 1162.5 -0.945918 4.05 0
M  V30 12114 H 1161.08 -2.36053 2.88675 0
M  V30 12115 N 1163.26 -1.53291 -0.366026 0
M  V30 12116 C 1164.5 -1.71153 -1.11741 0
M  V30 12117 C 1164.87 -0.453416 -1.86569 0
M  V30 12118 O 1166.07 -0.508724 -2.63942 0
M  V30 12119 C 1164.34 -2.92657 -2.0515 0
M  V30 12120 S 1165.9 -3.31223 -2.87814 0
M  V30 12121 H 1162.72 -0.602251 -0.377909 0
M  V30 12122 H 1165.32 -1.91391 -0.398721 0
M  V30 12123 H 1164.02 -3.8242 -1.48939 0
M  V30 12124 H 1163.55 -2.7482 -2.81492 0
M  V30 12125 H 1165.57 -2.83201 -4.07445 0
M  V30 12126 N 1164.74 0.6258 -1.44643 0
M  V30 12127 C 1166.15 1.20751 -1.42394 0
M  V30 12128 C 1166.5 1.95685 -0.142047 0
M  V30 12129 O 1165.63 2.02715 0.757332 0
M  V30 12130 C 1166.22 2.1964 -2.57961 0
M  V30 12131 C 1164.78 2.73227 -2.5889 0
M  V30 12132 C 1163.93 1.48315 -2.34303 0
M  V30 12133 H 1166.88 0.416162 -1.53146 0
M  V30 12134 H 1166.9 3.02342 -2.31019 0
M  V30 12135 H 1166.41 1.65073 -3.51244 0
M  V30 12136 H 1164.52 3.31782 -1.69563 0
M  V30 12137 H 1164.63 3.18902 -3.57545 0
M  V30 12138 H 1162.99 1.76634 -1.83501 0
M  V30 12139 H 1163.78 0.956427 -3.29708 0
M  V30 12140 N 1166.22 1.31629 0.866686 0
M  V30 12141 C 1167.47 1.21263 1.61678 0
M  V30 12142 C 1167.79 -0.228562 1.93656 0
M  V30 12143 O 1167.06 -1.15014 1.58583 0
M  V30 12144 H 1165.64 0.445817 0.59938 0
M  V30 12145 H 1168.3 1.64998 1.03739 0
M  V30 12146 H 1167.4 1.78669 2.55898 0
M  V30 12147 N 1167.7 -1.08142 1.14644 0
M  V30 12148 C 1168.65 -2.15133 0.835845 0
M  V30 12149 C 1169.62 -1.64795 -0.207785 0
M  V30 12150 O 1170.8 -1.90644 -0.07711 0
M  V30 12151 C 1167.94 -3.4359 0.322456 0
M  V30 12152 C 1167.05 -4.07761 1.42671 0
M  V30 12153 C 1166.19 -5.24022 0.870281 0
M  V30 12154 C 1165.23 -5.8014 1.95202 0
M  V30 12155 N 1164.37 -6.87743 1.41257 0
M  V30 12156 H 1169.21 -2.41042 1.75222 0
M  V30 12157 H 1166.74 -1.18288 0.874428 0
M  V30 12158 H 1168.7 -4.17199 0.00657059 0
M  V30 12159 H 1167.33 -3.17958 -0.557014 0
M  V30 12160 H 1166.38 -3.31885 1.85893 0
M  V30 12161 H 1167.69 -4.45485 2.24375 0
M  V30 12162 H 1166.85 -6.04582 0.506459 0
M  V30 12163 H 1165.59 -4.87695 0.0223118 0
M  V30 12164 H 1164.59 -4.98232 2.32476 0
M  V30 12165 H 1165.82 -6.18525 2.80363 0
M  V30 12166 H 1163.76 -6.5337 0.586826 0
M  V30 12167 H 1163.68 -7.24308 2.16596 0
M  V30 12168 H 1164.95 -7.72028 1.07674 0
M  V30 12169 N 1169.18 -0.941978 -1.26351 0
M  V30 12170 C 1170.11 -0.469913 -2.28723 0
M  V30 12171 C 1171.09 0.477218 -1.63269 0
M  V30 12172 O 1172.27 0.378902 -1.90468 0
M  V30 12173 C 1169.4 0.264971 -3.46288 0
M  V30 12174 C 1168.36 -0.595682 -4.23834 0
M  V30 12175 C 1167.68 0.269208 -5.34022 0
M  V30 12176 C 1168.98 -1.86743 -4.87775 0
M  V30 12177 H 1170.68 -1.32551 -2.6846 0
M  V30 12178 H 1168.22 -0.638809 -1.29055 0
M  V30 12179 H 1170.18 0.606259 -4.17016 0
M  V30 12180 H 1168.9 1.15471 -3.05506 0
M  V30 12181 H 1167.56 -0.919875 -3.54872 0
M  V30 12182 H 1167.21 1.15832 -4.89481 0
M  V30 12183 H 1166.91 -0.30325 -5.86817 0
M  V30 12184 H 1168.43 0.605748 -6.07588 0
M  V30 12185 H 1169.85 -1.59333 -5.50714 0
M  V30 12186 H 1168.24 -2.38452 -5.50691 0
M  V30 12187 H 1169.31 -2.57831 -4.10671 0
M  V30 12188 N 1170.66 1.40747 -0.709091 0
M  V30 12189 C 1171.9 2.00233 -0.242836 0
M  V30 12190 C 1172.22 1.56853 1.1686 0
M  V30 12191 O 1173.42 2.08993 1.73304 0
M  V30 12192 C 1171.88 3.57854 -0.383241 0
M  V30 12193 C 1171.49 4.10209 -1.80091 0
M  V30 12194 C 1173.23 4.24494 0.0225511 0
M  V30 12195 C 1171.14 5.60311 -1.89225 0
M  V30 12196 H 1170.07 0.74896 -0.087034 0
M  V30 12197 H 1172.72 1.61064 -0.879243 0
M  V30 12198 H 1171.1 3.94692 0.321642 0
M  V30 12199 H 1172.28 3.84762 -2.53564 0
M  V30 12200 H 1170.59 3.56142 -2.15758 0
M  V30 12201 H 1173.19 5.34694 -0.0250644 0
M  V30 12202 H 1173.53 4.02488 1.06344 0
M  V30 12203 H 1174.06 3.92739 -0.632541 0
M  V30 12204 H 1170.8 5.87162 -2.91412 0
M  V30 12205 H 1170.32 5.87642 -1.20154 0
M  V30 12206 H 1172 6.25306 -1.66136 0
M  V30 12207 N 1172.13 0.454803 1.50895 0
M  V30 12208 C 1173.04 -0.353495 2.31921 0
M  V30 12209 C 1174.06 -1.01136 1.41589 0
M  V30 12210 O 1175.24 -1.00291 1.74653 0
M  V30 12211 C 1172.3 -1.43032 3.15821 0
M  V30 12212 C 1171.36 -0.790763 4.21954 0
M  V30 12213 C 1170.59 -1.81628 5.01843 0
M  V30 12214 O 1170.82 -3.04078 4.8259 0
M  V30 12215 O 1169.75 -1.39713 5.8546 0
M  V30 12216 H 1173.58 0.308463 3.02129 0
M  V30 12217 H 1171.16 0.216971 1.47816 0
M  V30 12218 H 1173.04 -2.05444 3.67927 0
M  V30 12219 H 1171.72 -2.07605 2.48358 0
M  V30 12220 H 1170.63 -0.128127 3.73881 0
M  V30 12221 H 1171.96 -0.188251 4.9184 0
M  V30 12222 N 1173.61 -1.56489 0.186789 0
M  V30 12223 C 1174.86 -1.96517 -0.45433 0
M  V30 12224 C 1175.17 -1.07618 -1.63333 0
M  V30 12225 O 1176.38 -1.37392 -2.3417 0
M  V30 12226 C 1174.84 -3.49482 -0.859685 0
M  V30 12227 C 1174.44 -4.47031 0.294572 0
M  V30 12228 C 1176.19 -3.98296 -1.46835 0
M  V30 12229 C 1174.09 -5.91254 -0.131279 0
M  V30 12230 H 1173.02 -0.733765 -0.17351 0
M  V30 12231 H 1175.68 -1.8139 0.277485 0
M  V30 12232 H 1174.06 -3.60082 -1.64793 0
M  V30 12233 H 1175.23 -4.48156 1.07205 0
M  V30 12234 H 1173.55 -4.08362 0.814197 0
M  V30 12235 H 1176.14 -5.03518 -1.79928 0
M  V30 12236 H 1176.49 -3.42123 -2.37186 0
M  V30 12237 H 1177.02 -3.90776 -0.744247 0
M  V30 12238 H 1173.76 -6.51334 0.737839 0
M  V30 12239 H 1173.28 -5.93401 -0.873786 0
M  V30 12240 H 1174.96 -6.44485 -0.569913 0
M  V30 12241 N 1175.09 0.086862 -1.5736 0
M  V30 12242 C 1176.04 1.11134 -1.99081 0
M  V30 12243 C 1177.02 1.35318 -0.870506 0
M  V30 12244 O 1178.22 1.35871 -1.13437 0
M  V30 12245 C 1175.34 2.42931 -2.42569 0
M  V30 12246 C 1174.43 2.22085 -3.61302 0
M  V30 12247 N 1174.82 1.71128 -4.75971 0
M  V30 12248 C 1173.12 2.52619 -3.67559 0
M  V30 12249 C 1173.82 1.64745 -5.57883 0
M  V30 12250 N 1172.8 2.10257 -5.01291 0
M  V30 12251 H 1176.6 0.710431 -2.85184 0
M  V30 12252 H 1174.11 0.294168 -1.59714 0
M  V30 12253 H 1176.11 3.17069 -2.7069 0
M  V30 12254 H 1174.77 2.83751 -1.57846 0
M  V30 12255 H 1175.78 1.40207 -4.9856 0
M  V30 12256 H 1172.46 2.96908 -2.93516 0
M  V30 12257 H 1173.85 1.26329 -6.59917 0
M  V30 12258 N 1176.57 1.53483 0.357892 0
M  V30 12259 C 1177.82 1.69701 1.09754 0
M  V30 12260 C 1178.14 0.455389 1.89608 0
M  V30 12261 O 1177.41 -0.530623 1.88577 0
M  V30 12262 H 1175.99 0.62562 0.408178 0
M  V30 12263 H 1178.65 1.90696 0.402641 0
M  V30 12264 H 1177.74 2.56154 1.78302 0
M  V30 12265 N 1178.05 -0.61812 1.44973 0
M  V30 12266 C 1178.99 -1.72942 1.52838 0
M  V30 12267 C 1179.96 -1.6181 0.375056 0
M  V30 12268 O 1181.15 -1.81544 0.587075 0
M  V30 12269 C 1178.29 -3.11228 1.49101 0
M  V30 12270 C 1177.4 -3.33243 2.74906 0
M  V30 12271 C 1176.54 -4.61574 2.62912 0
M  V30 12272 C 1175.57 -4.76811 3.8382 0
M  V30 12273 N 1174.71 -5.96432 3.70424 0
M  V30 12274 H 1179.55 -1.65556 2.47781 0
M  V30 12275 H 1177.09 -0.807411 1.2296 0
M  V30 12276 H 1179.05 -3.9122 1.44923 0
M  V30 12277 H 1177.68 -3.17598 0.577163 0
M  V30 12278 H 1176.73 -2.471 2.89216 0
M  V30 12279 H 1178.04 -3.40377 3.64616 0
M  V30 12280 H 1177.19 -5.49746 2.56641 0
M  V30 12281 H 1175.93 -4.5682 1.70784 0
M  V30 12282 H 1174.94 -3.87066 3.90461 0
M  V30 12283 H 1176.16 -4.83371 4.77001 0
M  V30 12284 H 1174.11 -5.92742 2.81057 0
M  V30 12285 H 1174.03 -6.0468 4.5376 0
M  V30 12286 H 1175.29 -6.8713 3.68067 0
M  V30 12287 N 1179.52 -1.32087 -0.859693 0
M  V30 12288 C 1180.49 -1.20546 -1.94939 0
M  V30 12289 C 1181.49 -0.12982 -1.60275 0
M  V30 12290 O 1182.68 -0.379853 -1.70008 0
M  V30 12291 C 1179.81 -0.852717 -3.30063 0
M  V30 12292 H 1181 -2.17384 -2.06602 0
M  V30 12293 H 1178.55 -1.15846 -1.04926 0
M  V30 12294 H 1179.29 0.114059 -3.24099 0
M  V30 12295 H 1179.07 -1.63035 -3.56598 0
M  V30 12296 H 1180.56 -0.796145 -4.09941 0
M  V30 12297 N 1181 1.07532 -1.15215 0
M  V30 12298 C 1182.25 1.79737 -0.924062 0
M  V30 12299 C 1182.57 1.87072 0.550356 0
M  V30 12300 O 1181.84 1.37029 1.4 0
M  V30 12301 H 1180.42 0.665704 -0.338891 0
M  V30 12302 H 1183.08 1.29961 -1.45245 0
M  V30 12303 H 1182.18 2.82256 -1.33184 0
M  V30 12304 N 1182.48 0.948665 1.2585 0
M  V30 12305 C 1183.41 0.482036 2.2847 0
M  V30 12306 C 1184.39 -0.468553 1.63519 0
M  V30 12307 O 1185.58 -0.368796 1.90666 0
M  V30 12308 C 1182.71 -0.246603 3.46423 0
M  V30 12309 C 1181.66 0.61815 4.23513 0
M  V30 12310 C 1180.99 -0.240884 5.34157 0
M  V30 12311 C 1182.29 1.89327 4.86778 0
M  V30 12312 H 1183.98 1.33973 2.67753 0
M  V30 12313 H 1181.53 0.645645 1.28715 0
M  V30 12314 H 1183.48 -0.584135 4.17332 0
M  V30 12315 H 1182.2 -1.13849 3.06114 0
M  V30 12316 H 1180.86 0.938682 3.54379 0
M  V30 12317 H 1180.51 -1.13235 4.90089 0
M  V30 12318 H 1180.21 0.334367 5.86648 0
M  V30 12319 H 1181.73 -0.573517 6.07901 0
M  V30 12320 H 1183.15 1.62252 5.49861 0
M  V30 12321 H 1181.55 2.41369 5.49419 0
M  V30 12322 H 1182.62 2.60006 4.09298 0
M  V30 12323 N 1183.96 -1.40369 0.716545 0
M  V30 12324 C 1185.21 -2.00869 0.256466 0
M  V30 12325 C 1185.53 -1.56816 -1.15061 0
M  V30 12326 O 1184.79 -0.779696 -1.79497 0
M  V30 12327 C 1185.09 -3.56257 0.285583 0
M  V30 12328 C 1184.75 -4.19897 1.64309 0
M  V30 12329 C 1183.42 -4.36994 2.01469 0
M  V30 12330 C 1185.77 -4.55385 2.53524 0
M  V30 12331 C 1183.1 -4.86862 3.27387 0
M  V30 12332 C 1185.45 -5.06653 3.78795 0
M  V30 12333 C 1184.11 -5.21959 4.16071 0
M  V30 12334 H 1183.38 -0.735033 0.0938475 0
M  V30 12335 H 1186.03 -1.67966 0.919765 0
M  V30 12336 H 1184.33 -3.89075 -0.461287 0
M  V30 12337 H 1186.03 -4.00903 -0.0882496 0
M  V30 12338 H 1182.62 -4.06978 1.34413 0
M  V30 12339 H 1186.8 -4.41811 2.2609 0
M  V30 12340 H 1182.06 -4.96897 3.56235 0
M  V30 12341 H 1186.23 -5.33089 4.48095 0
M  V30 12342 H 1183.86 -5.60362 5.1371 0
M  V30 12343 N 1185.44 -0.462799 -1.50652 0
M  V30 12344 C 1186.37 0.325724 -2.31217 0
M  V30 12345 C 1187.35 0.997942 -1.3775 0
M  V30 12346 O 1188.53 0.996707 -1.66671 0
M  V30 12347 C 1185.66 1.41283 -3.17264 0
M  V30 12348 C 1184.62 0.862687 -4.19216 0
M  V30 12349 C 1183.94 2.04746 -4.93946 0
M  V30 12350 C 1185.24 -0.120365 -5.22161 0
M  V30 12351 H 1186.94 -0.346666 -2.97386 0
M  V30 12352 H 1184.48 -0.168163 -1.43015 0
M  V30 12353 H 1186.44 1.97188 -3.72418 0
M  V30 12354 H 1185.16 2.11387 -2.48964 0
M  V30 12355 H 1183.82 0.325671 -3.65151 0
M  V30 12356 H 1183.47 2.73529 -4.22127 0
M  V30 12357 H 1183.17 1.68562 -5.62904 0
M  V30 12358 H 1184.69 2.61157 -5.51932 0
M  V30 12359 H 1186.1 0.349226 -5.72235 0
M  V30 12360 H 1184.5 -0.396061 -5.98792 0
M  V30 12361 H 1185.57 -1.04895 -4.73418 0
M  V30 12362 N 1186.91 1.56388 -0.195085 0
M  V30 12363 C 1187.82 2.22698 0.737743 0
M  V30 12364 C 1188.84 1.22605 1.23466 0
M  V30 12365 O 1190.02 1.55342 1.28183 0
M  V30 12366 C 1187.08 2.87333 1.94011 0
M  V30 12367 C 1186.14 4.02696 1.48776 0
M  V30 12368 C 1185.38 4.64239 2.63282 0
M  V30 12369 O 1185.6 4.24706 3.80763 0
M  V30 12370 O 1184.53 5.53705 2.35996 0
M  V30 12371 H 1188.36 3.03021 0.203013 0
M  V30 12372 H 1185.94 1.49361 0.0342044 0
M  V30 12373 H 1187.83 3.28226 2.64284 0
M  V30 12374 H 1186.5 2.0999 2.46345 0
M  V30 12375 H 1185.41 3.66426 0.753839 0
M  V30 12376 H 1186.74 4.81703 1.01109 0
M  V30 12377 N 1188.39 -0.0785156 1.57404 0
M  V30 12378 C 1189.64 -0.777399 1.8655 0
M  V30 12379 C 1189.96 -1.78451 0.786142 0
M  V30 12380 O 1189.23 -1.95016 -0.185911 0
M  V30 12381 H 1187.81 -0.290097 0.688369 0
M  V30 12382 H 1190.47 -0.0562017 1.94819 0
M  V30 12383 H 1189.57 -1.29776 2.83839 0
M  V30 12384 N 1189.87 -1.5367 -0.349747 0
M  V30 12385 C 1190.8 -1.77528 -1.4497 0
M  V30 12386 C 1191.82 -0.656412 -1.4898 0
M  V30 12387 O 1193 -0.933016 -1.52174 0
M  V30 12388 C 1190.1 -1.85445 -2.8366 0
M  V30 12389 C 1189.28 -3.15295 -3.03163 0
M  V30 12390 C 1188.34 -3.1425 -4.22059 0
M  V30 12391 O 1187.36 -3.87994 -4.16472 0
M  V30 12392 N 1188.56 -2.36181 -5.30282 0
M  V30 12393 H 1191.33 -2.72444 -1.24877 0
M  V30 12394 H 1188.89 -1.52644 -0.539586 0
M  V30 12395 H 1190.88 -1.82204 -3.61364 0
M  V30 12396 H 1189.45 -0.977436 -2.96926 0
M  V30 12397 H 1188.67 -3.31711 -2.12983 0
M  V30 12398 H 1189.96 -4.01078 -3.13072 0
M  V30 12399 H 1189.36 -1.75808 -5.37688 0
M  V30 12400 H 1187.92 -2.38744 -6.06502 0
M  V30 12401 N 1191.35 0.610423 -1.45298 0
M  V30 12402 C 1192.6 1.36558 -1.48441 0
M  V30 12403 C 1192.91 1.95173 -0.129137 0
M  V30 12404 O 1194.12 2.71473 -0.0381956 0
M  V30 12405 C 1192.57 2.47349 -2.61431 0
M  V30 12406 C 1192.18 1.95158 -4.03258 0
M  V30 12407 C 1193.92 3.24383 -2.73817 0
M  V30 12408 C 1191.83 3.03414 -5.07635 0
M  V30 12409 H 1190.76 0.513253 -0.552347 0
M  V30 12410 H 1193.41 0.654535 -1.7143 0
M  V30 12411 H 1191.79 3.21125 -2.31721 0
M  V30 12412 H 1192.97 1.2811 -4.42634 0
M  V30 12413 H 1191.28 1.30878 -3.95297 0
M  V30 12414 H 1193.88 4.05123 -3.48969 0
M  V30 12415 H 1194.22 3.75205 -1.80352 0
M  V30 12416 H 1194.76 2.57705 -3.03039 0
M  V30 12417 H 1191.5 2.57512 -6.028 0
M  V30 12418 H 1191.02 3.69039 -4.72833 0
M  V30 12419 H 1192.69 3.67844 -5.32259 0
M  V30 12420 N 1192.83 1.32541 0.852676 0
M  V30 12421 C 1193.78 1.18224 1.94954 0
M  V30 12422 C 1194.76 0.0886514 1.60656 0
M  V30 12423 O 1195.95 0.315359 1.74168 0
M  V30 12424 C 1193.08 0.909484 3.31034 0
M  V30 12425 C 1192.17 2.04486 3.71546 0
M  V30 12426 N 1192.56 3.29362 3.83868 0
M  V30 12427 C 1190.86 1.94848 4.01186 0
M  V30 12428 C 1191.56 4.0374 4.18771 0
M  V30 12429 N 1190.53 3.32054 4.30396 0
M  V30 12430 H 1194.34 2.12893 2.02617 0
M  V30 12431 H 1191.85 1.24349 1.04456 0
M  V30 12432 H 1193.85 0.787865 4.09388 0
M  V30 12433 H 1192.51 -0.0288163 3.24687 0
M  V30 12434 H 1193.52 3.64274 3.68137 0
M  V30 12435 H 1190.19 1.08591 4.0313 0
M  V30 12436 H 1191.58 5.11434 4.35757 0
M  V30 12437 N 1194.3 -1.0692 1.15784 0
M  V30 12438 C 1195.72 -1.61069 0.944123 0
M  V30 12439 C 1196.07 -1.8936 -0.513522 0
M  V30 12440 O 1195.19 -1.66232 -1.38549 0
M  V30 12441 C 1195.79 -2.9263 1.70743 0
M  V30 12442 C 1194.35 -3.43505 1.53887 0
M  V30 12443 C 1193.49 -2.17495 1.72021 0
M  V30 12444 H 1196.44 -0.89951 1.30746 0
M  V30 12445 H 1196.46 -3.61757 1.17951 0
M  V30 12446 H 1195.98 -2.72007 2.76828 0
M  V30 12447 H 1194.08 -3.69201 0.502153 0
M  V30 12448 H 1194.19 -4.19254 2.31868 0
M  V30 12449 H 1192.55 -2.27407 1.1471 0
M  V30 12450 H 1193.34 -1.99362 2.79481 0
M  V30 12451 N 1195.78 -0.955326 -1.25345 0
M  V30 12452 C 1196.69 -0.482707 -2.2958 0
M  V30 12453 C 1197.71 0.450283 -1.68073 0
M  V30 12454 O 1198.88 0.326358 -1.98738 0
M  V30 12455 C 1195.95 0.231293 -3.45928 0
M  V30 12456 C 1195.01 -0.739995 -4.22874 0
M  V30 12457 C 1194.24 -0.0599748 -5.33666 0
M  V30 12458 O 1194.47 1.15423 -5.586 0
M  V30 12459 O 1193.4 -0.745865 -5.97261 0
M  V30 12460 H 1197.23 -1.34892 -2.72099 0
M  V30 12461 H 1194.81 -0.721812 -1.30806 0
M  V30 12462 H 1196.69 0.632908 -4.1662 0
M  V30 12463 H 1195.37 1.07267 -3.0541 0
M  V30 12464 H 1194.28 -1.19183 -3.54607 0
M  V30 12465 H 1195.61 -1.54941 -4.67177 0
M  V30 12466 N 1197.26 1.39987 -0.723979 0
M  V30 12467 C 1198.19 2.3332 -0.0917282 0
M  V30 12468 C 1199.17 1.53335 0.736361 0
M  V30 12469 O 1200.36 1.81771 0.683582 0
M  V30 12470 C 1197.49 3.3737 0.824549 0
M  V30 12471 C 1196.44 4.2788 0.101452 0
M  V30 12472 C 1195.77 5.22536 1.13401 0
M  V30 12473 C 1197.07 5.11649 -1.04939 0
M  V30 12474 H 1198.76 2.86441 -0.871318 0
M  V30 12475 H 1196.31 1.37725 -0.420448 0
M  V30 12476 H 1198.26 4.01607 1.27631 0
M  V30 12477 H 1196.98 2.82663 1.63613 0
M  V30 12478 H 1195.64 3.65107 -0.330569 0
M  V30 12479 H 1195.29 4.64131 1.93886 0
M  V30 12480 H 1194.99 5.83938 0.65502 0
M  V30 12481 H 1196.52 5.89651 1.58569 0
M  V30 12482 H 1197.93 5.69293 -0.6766 0
M  V30 12483 H 1196.33 5.82137 -1.45729 0
M  V30 12484 H 1197.4 4.47132 -1.8762 0
M  V30 12485 N 1198.74 0.470782 1.50404 0
M  V30 12486 C 1199.65 -0.328877 2.32283 0
M  V30 12487 C 1200.67 -0.99629 1.42654 0
M  V30 12488 O 1201.84 -0.984331 1.75707 0
M  V30 12489 C 1198.91 -1.39675 3.1732 0
M  V30 12490 C 1197.97 -0.745965 4.22769 0
M  V30 12491 C 1197.2 -1.76295 5.03742 0
M  V30 12492 O 1197.42 -2.98943 4.85788 0
M  V30 12493 O 1196.36 -1.33495 5.86909 0
M  V30 12494 H 1200.18 0.340491 3.01785 0
M  V30 12495 H 1197.77 0.232637 1.47578 0
M  V30 12496 H 1199.65 -2.0153 3.70086 0
M  V30 12497 H 1198.33 -2.04959 2.50546 0
M  V30 12498 H 1197.23 -0.0884647 3.73995 0
M  V30 12499 H 1198.57 -0.136074 4.92012 0
M  V30 12500 N 1200.22 -1.56282 0.203376 0
M  V30 12501 C 1201.47 -1.97421 -0.432346 0
M  V30 12502 C 1201.79 -1.0917 -1.61576 0
M  V30 12503 O 1201.06 -0.164759 -1.95206 0
M  V30 12504 H 1199.64 -0.729062 -0.162721 0
M  V30 12505 H 1202.3 -1.927 0.292039 0
M  V30 12506 H 1201.39 -3.02429 -0.770918 0
M  V30 12507 N 1201.7 0.070167 -1.57444 0
M  V30 12508 C 1202.94 0.770153 -1.87607 0
M  V30 12509 C 1203.27 1.77143 -0.795875 0
M  V30 12510 O 1202.55 1.93533 0.193674 0
M  V30 12511 C 1202.83 1.47668 -3.2843 0
M  V30 12512 C 1202.69 0.491712 -4.47104 0
M  V30 12513 C 1204 2.42118 -3.67514 0
M  V30 12514 H 1201.12 0.278519 -0.682346 0
M  V30 12515 H 1203.77 0.0333184 -1.89971 0
M  V30 12516 H 1201.92 2.10476 -3.26546 0
M  V30 12517 H 1203.59 -0.131283 -4.61113 0
M  V30 12518 H 1201.83 -0.192817 -4.33371 0
M  V30 12519 H 1202.5 1.02372 -5.42424 0
M  V30 12520 H 1204.98 1.89387 -3.70502 0
M  V30 12521 H 1203.85 2.88556 -4.66933 0
M  V30 12522 H 1204.11 3.26995 -2.97534 0
M  V30 12523 N 1203.17 1.53854 0.341593 0
M  V30 12524 C 1204.08 1.84975 1.44297 0
M  V30 12525 C 1205.1 0.740057 1.57477 0
M  V30 12526 O 1206.28 1.03256 1.72917 0
M  V30 12527 C 1203.34 2.05464 2.79259 0
M  V30 12528 C 1202.4 3.29318 2.75405 0
M  V30 12529 C 1201.63 3.4882 4.03931 0
M  V30 12530 O 1201.86 2.7212 5.01305 0
M  V30 12531 O 1200.79 4.42253 4.08284 0
M  V30 12532 H 1204.62 2.78592 1.20913 0
M  V30 12533 H 1202.2 1.39532 0.533953 0
M  V30 12534 H 1204.08 2.20374 3.59184 0
M  V30 12535 H 1202.76 1.15035 3.0257 0
M  V30 12536 H 1201.67 3.1981 1.94094 0
M  V30 12537 H 1203 4.19746 2.57049 0
M  V30 12538 N 1204.65 -0.602709 1.4562 0
M  V30 12539 C 1205.9 -1.35769 1.49163 0
M  V30 12540 C 1206.21 -1.95102 0.139485 0
M  V30 12541 O 1207.42 -2.71449 0.0525919 0
M  V30 12542 C 1205.88 -2.45959 2.62739 0
M  V30 12543 C 1205.48 -1.93017 4.04288 0
M  V30 12544 C 1207.23 -3.22926 2.75534 0
M  V30 12545 C 1205.13 -3.00718 5.09237 0
M  V30 12546 H 1204.06 -0.510317 0.555061 0
M  V30 12547 H 1206.72 -0.645434 1.71774 0
M  V30 12548 H 1205.1 -3.19892 2.3342 0
M  V30 12549 H 1206.27 -1.2576 4.43307 0
M  V30 12550 H 1204.59 -1.2878 3.95986 0
M  V30 12551 H 1207.18 -4.03267 3.51112 0
M  V30 12552 H 1207.53 -3.74243 1.82339 0
M  V30 12553 H 1208.06 -2.56095 3.04402 0
M  V30 12554 H 1204.8 -2.54312 6.04157 0
M  V30 12555 H 1204.32 -3.66526 4.74783 0
M  V30 12556 H 1206 -3.65016 5.34202 0
M  V30 12557 N 1206.13 -1.32992 -0.845635 0
M  V30 12558 C 1207.38 -1.24249 -1.60281 0
M  V30 12559 C 1207.71 0.193049 -1.93238 0
M  V30 12560 O 1206.98 1.1326 -1.58122 0
M  V30 12561 C 1207.27 -2.1111 -2.91727 0
M  V30 12562 C 1207.12 -3.63088 -2.65494 0
M  V30 12563 C 1208.44 -1.97913 -3.93089 0
M  V30 12564 H 1205.56 -0.452698 -0.581578 0
M  V30 12565 H 1208.2 -1.63026 -0.975828 0
M  V30 12566 H 1206.35 -1.78169 -3.45236 0
M  V30 12567 H 1208.02 -4.06287 -2.18469 0
M  V30 12568 H 1206.26 -3.85304 -1.99306 0
M  V30 12569 H 1206.94 -4.19202 -3.59129 0
M  V30 12570 H 1209.41 -2.26788 -3.48864 0
M  V30 12571 H 1208.29 -2.60952 -4.82903 0
M  V30 12572 H 1208.55 -0.949378 -4.31786 0
M  V30 12573 N 1207.61 1.06304 -1.1635 0
M  V30 12574 C 1208.86 1.78487 -0.939423 0
M  V30 12575 C 1209.17 1.8817 0.533998 0
M  V30 12576 O 1210.38 2.56981 0.875962 0
M  V30 12577 C 1208.83 3.20796 -1.63149 0
M  V30 12578 C 1208.44 3.19281 -3.14267 0
M  V30 12579 C 1210.18 3.97514 -1.48938 0
M  V30 12580 C 1208.09 4.56309 -3.76213 0
M  V30 12581 H 1207.02 0.668973 -0.347837 0
M  V30 12582 H 1209.67 1.19237 -1.3948 0
M  V30 12583 H 1208.05 3.80305 -1.10382 0
M  V30 12584 H 1209.23 2.69356 -3.73877 0
M  V30 12585 H 1207.54 2.56062 -3.28362 0
M  V30 12586 H 1210.14 4.98808 -1.926 0
M  V30 12587 H 1210.48 4.13986 -0.438319 0
M  V30 12588 H 1211.02 3.44528 -1.98861 0
M  V30 12589 H 1207.75 4.45042 -4.81267 0
M  V30 12590 H 1207.27 5.06429 -3.21388 0
M  V30 12591 H 1208.95 5.25266 -3.77762 0
M  V30 12592 N 1209.09 0.96196 1.24836 0
M  V30 12593 C 1210.31 0.637709 1.97353 0
M  V30 12594 C 1210.74 -0.784919 1.7094 0
M  V30 12595 O 1210.09 -1.53188 0.969694 0
M  V30 12596 C 1210.14 0.911485 3.4889 0
M  V30 12597 O 1209.25 -0.00601668 4.124 0
M  V30 12598 H 1208.59 0.241685 0.618453 0
M  V30 12599 H 1211.12 1.29055 1.58764 0
M  V30 12600 H 1211.13 0.840702 3.99245 0
M  V30 12601 H 1209.8 1.9483 3.67442 0
M  V30 12602 H 1208.38 0.117597 3.72715 0
M  V30 12603 N 1210.56 -1.39601 0.731392 0
M  V30 12604 C 1211.47 -2.34425 0.090527 0
M  V30 12605 C 1212.49 -1.58131 -0.725992 0
M  V30 12606 O 1213.67 -1.90441 -0.655294 0
M  V30 12607 C 1210.73 -3.37138 -0.808624 0
M  V30 12608 C 1209.79 -4.29295 0.0197365 0
M  V30 12609 C 1209.02 -5.27102 -0.836593 0
M  V30 12610 O 1209.25 -5.31302 -2.07543 0
M  V30 12611 O 1208.18 -6.01307 -0.267172 0
M  V30 12612 H 1212.01 -2.9088 0.873084 0
M  V30 12613 H 1209.59 -1.41066 0.492024 0
M  V30 12614 H 1211.47 -4.00087 -1.32319 0
M  V30 12615 H 1210.15 -2.83074 -1.57006 0
M  V30 12616 H 1209.06 -3.69581 0.579744 0
M  V30 12617 H 1210.39 -4.86555 0.743308 0
M  V30 12618 N 1212.04 -0.478751 -1.50152 0
M  V30 12619 C 1212.99 0.311426 -2.28689 0
M  V30 12620 C 1213.96 0.980375 -1.34082 0
M  V30 12621 O 1215.14 0.991337 -1.63025 0
M  V30 12622 C 1212.28 1.38302 -3.16175 0
M  V30 12623 C 1211.4 0.728084 -4.2582 0
M  V30 12624 C 1210.53 1.77822 -5.00552 0
M  V30 12625 C 1209.57 1.10395 -6.02063 0
M  V30 12626 N 1208.71 2.09728 -6.70044 0
M  V30 12627 H 1213.55 -0.364592 -2.95761 0
M  V30 12628 H 1211.09 -0.191645 -1.45846 0
M  V30 12629 H 1213.04 2.01606 -3.65255 0
M  V30 12630 H 1211.67 2.0281 -2.51133 0
M  V30 12631 H 1210.73 -0.0177026 -3.80396 0
M  V30 12632 H 1212.04 0.196209 -4.98414 0
M  V30 12633 H 1211.19 2.48687 -5.53389 0
M  V30 12634 H 1209.93 2.34392 -4.27682 0
M  V30 12635 H 1208.94 0.38096 -5.48479 0
M  V30 12636 H 1210.16 0.545045 -6.76909 0
M  V30 12637 H 1208.11 2.65301 -5.9996 0
M  V30 12638 H 1208.02 1.61546 -7.38538 0
M  V30 12639 H 1209.29 2.7995 -7.27495 0
M  V30 12640 N 1213.52 1.56172 -0.211661 0
M  V30 12641 C 1214.77 1.97648 0.421871 0
M  V30 12642 C 1215.09 1.10026 1.60995 0
M  V30 12643 O 1214.36 0.175109 1.95116 0
M  V30 12644 H 1212.94 0.729914 0.158852 0
M  V30 12645 H 1215.6 1.92542 -0.302254 0
M  V30 12646 H 1214.7 3.02834 0.754868 0
M  V30 12647 N 1215 -0.0618163 1.57479 0
M  V30 12648 C 1215.96 -1.05684 2.0338 0
M  V30 12649 C 1216.96 -1.31006 0.932423 0
M  V30 12650 O 1218.15 -1.26559 1.19702 0
M  V30 12651 C 1215.28 -2.39805 2.42294 0
M  V30 12652 H 1216.48 -0.661006 2.92525 0
M  V30 12653 H 1214.03 -0.307814 1.53239 0
M  V30 12654 H 1214.76 -2.84201 1.56207 0
M  V30 12655 H 1214.55 -2.22764 3.22674 0
M  V30 12656 H 1216.04 -3.11307 2.78349 0
M  V30 12657 N 1216.48 -1.54033 -0.333429 0
M  V30 12658 C 1217.7 -1.76031 -1.09672 0
M  V30 12659 C 1218.13 -0.502844 -1.81254 0
M  V30 12660 O 1217.48 0.54509 -1.72912 0
M  V30 12661 C 1217.53 -2.947 -2.07809 0
M  V30 12662 O 1216.64 -2.65555 -3.15522 0
M  V30 12663 H 1215.98 -0.583611 -0.316692 0
M  V30 12664 H 1218.51 -2.01026 -0.380732 0
M  V30 12665 H 1218.52 -3.21771 -2.50853 0
M  V30 12666 H 1217.19 -3.85895 -1.55106 0
M  V30 12667 H 1215.77 -2.49403 -2.77223 0
M  V30 12668 N 1217.95 0.594978 -1.45938 0
M  V30 12669 C 1219.18 1.38482 -1.54394 0
M  V30 12670 C 1219.6 1.87222 -0.181563 0
M  V30 12671 O 1218.96 1.60869 0.836119 0
M  V30 12672 C 1219.01 2.55676 -2.54287 0
M  V30 12673 O 1218.11 3.5672 -2.06941 0
M  V30 12674 H 1217.46 0.412918 -0.519995 0
M  V30 12675 H 1219.99 0.722899 -1.91404 0
M  V30 12676 H 1220 3.02756 -2.73501 0
M  V30 12677 H 1218.67 2.19552 -3.53228 0
M  V30 12678 H 1217.25 3.16204 -1.97661 0
M  V30 12679 N 1219.43 1.33438 0.838571 0
M  V30 12680 C 1220.84 1.22366 1.41009 0
M  V30 12681 C 1221.19 -0.157317 1.95568 0
M  V30 12682 O 1220.32 -1.05692 1.88834 0
M  V30 12683 C 1220.91 2.21542 2.56329 0
M  V30 12684 C 1219.47 2.14309 3.09433 0
M  V30 12685 C 1218.62 2.09012 1.82235 0
M  V30 12686 H 1221.57 1.45032 0.64431 0
M  V30 12687 H 1221.59 1.82332 3.33969 0
M  V30 12688 H 1221.1 3.22042 2.16589 0
M  V30 12689 H 1219.21 1.17113 3.53717 0
M  V30 12690 H 1219.32 3.04866 3.69586 0
M  V30 12691 H 1217.68 1.54492 2.02495 0
M  V30 12692 H 1218.47 3.11319 1.4469 0
M  V30 12693 N 1220.91 -1.05686 1.16912 0
M  V30 12694 C 1221.84 -2.15268 0.904532 0
M  V30 12695 C 1222.82 -1.69424 -0.151548 0
M  V30 12696 O 1224.01 -1.942 -0.00235371 0
M  V30 12697 C 1221.14 -3.44853 0.411581 0
M  V30 12698 C 1220.09 -4.04237 1.40628 0
M  V30 12699 C 1219.42 -5.29105 0.771479 0
M  V30 12700 C 1220.72 -4.42303 2.77787 0
M  V30 12701 H 1222.41 -2.37659 1.82094 0
M  V30 12702 H 1219.96 -1.14217 0.876947 0
M  V30 12703 H 1221.91 -4.20857 0.213929 0
M  V30 12704 H 1220.63 -3.22099 -0.540352 0
M  V30 12705 H 1219.29 -3.30297 1.59058 0
M  V30 12706 H 1218.94 -5.02652 -0.187133 0
M  V30 12707 H 1218.64 -5.69797 1.43545 0
M  V30 12708 H 1220.16 -6.07801 0.583988 0
M  V30 12709 H 1221.58 -5.09362 2.63103 0
M  V30 12710 H 1219.98 -4.93997 3.40716 0
M  V30 12711 H 1221.05 -3.52877 3.32575 0
M  V30 12712 N 1222.39 -0.968567 -1.24324 0
M  V30 12713 C 1223.64 -0.626519 -1.91723 0
M  V30 12714 C 1223.95 0.84225 -1.76538 0
M  V30 12715 O 1225.16 1.29486 -2.38633 0
M  V30 12716 C 1223.61 -1.06992 -3.43629 0
M  V30 12717 C 1223.22 -2.5622 -3.67499 0
M  V30 12718 C 1224.96 -0.801057 -4.16873 0
M  V30 12719 C 1222.87 -2.94288 -5.1298 0
M  V30 12720 H 1221.8 -0.23062 -0.717865 0
M  V30 12721 H 1224.45 -1.17489 -1.40956 0
M  V30 12722 H 1222.83 -0.44985 -3.93437 0
M  V30 12723 H 1224.01 -3.23364 -3.28287 0
M  V30 12724 H 1222.32 -2.80726 -3.07542 0
M  V30 12725 H 1224.92 -1.06147 -5.24058 0
M  V30 12726 H 1225.26 0.262742 -4.1547 0
M  V30 12727 H 1225.8 -1.38213 -3.73017 0
M  V30 12728 H 1222.54 -3.99743 -5.19506 0
M  V30 12729 H 1222.06 -2.31829 -5.53187 0
M  V30 12730 H 1223.73 -2.84242 -5.81219 0
M  V30 12731 N 1223.87 1.39211 -0.738786 0
M  V30 12732 C 1225.09 2.04732 -0.298751 0
M  V30 12733 C 1225.51 1.55706 1.06776 0
M  V30 12734 O 1224.87 0.723605 1.67542 0
M  V30 12735 C 1224.92 3.60288 -0.29574 0
M  V30 12736 O 1224.64 4.07511 -1.60831 0
M  V30 12737 C 1226.14 4.43011 0.159994 0
M  V30 12738 H 1223.36 0.658296 -0.129952 0
M  V30 12739 H 1225.9 1.78186 -1.0035 0
M  V30 12740 H 1224.06 3.85722 0.360146 0
M  V30 12741 H 1224.47 5.01858 -1.52443 0
M  V30 12742 H 1225.95 5.51889 0.110941 0
M  V30 12743 H 1226.42 4.22325 1.20573 0
M  V30 12744 H 1227.03 4.22734 -0.466467 0
M  V30 12745 N 1225.34 0.486708 1.49896 0
M  V30 12746 C 1226.59 -0.0629451 2.02702 0
M  V30 12747 C 1226.92 -1.37956 1.36681 0
M  V30 12748 O 1226.2 -1.88025 0.497678 0
M  V30 12749 C 1226.48 -0.230461 3.59362 0
M  V30 12750 C 1226.33 1.10828 4.35933 0
M  V30 12751 C 1227.65 -0.977785 4.29101 0
M  V30 12752 H 1224.77 -0.0214017 0.736689 0
M  V30 12753 H 1227.41 0.635339 1.79063 0
M  V30 12754 H 1225.56 -0.825222 3.79634 0
M  V30 12755 H 1227.24 1.74082 4.27192 0
M  V30 12756 H 1225.48 1.7011 3.99055 0
M  V30 12757 H 1226.15 0.944532 5.43859 0
M  V30 12758 H 1228.63 -0.473505 4.13397 0
M  V30 12759 H 1227.5 -1.06382 5.38492 0
M  V30 12760 H 1227.76 -2.01813 3.9335 0
M  V30 12761 N 1226.82 -1.56058 0.219941 0
M  V30 12762 C 1228.07 -1.9826 -0.412197 0
M  V30 12763 C 1228.4 -1.10754 -1.59887 0
M  V30 12764 O 1227.65 -0.15212 -1.95108 0
M  V30 12765 C 1227.95 -3.46113 -0.8911 0
M  V30 12766 C 1227.62 -4.50521 0.184877 0
M  V30 12767 C 1226.28 -4.78795 0.480462 0
M  V30 12768 C 1228.63 -5.13147 0.912652 0
M  V30 12769 C 1225.96 -5.66979 1.50837 0
M  V30 12770 C 1228.31 -6.02444 1.92988 0
M  V30 12771 C 1226.98 -6.29063 2.2324 0
M  V30 12772 H 1226.25 -0.725486 -0.150834 0
M  V30 12773 H 1228.89 -1.88771 0.322122 0
M  V30 12774 H 1227.2 -3.52797 -1.70415 0
M  V30 12775 H 1228.9 -3.76137 -1.39003 0
M  V30 12776 H 1225.49 -4.28564 -0.0556594 0
M  V30 12777 H 1229.67 -4.91374 0.697532 0
M  V30 12778 H 1224.93 -5.85868 1.74839 0
M  V30 12779 H 1229.1 -6.50022 2.49889 0
M  V30 12780 H 1226.73 -6.97191 3.03032 0
M  V30 12781 N 1228.3 0.053464 -1.57509 0
M  V30 12782 C 1229.53 0.761533 -1.92375 0
M  V30 12783 C 1229.94 1.70179 -0.817585 0
M  V30 12784 O 1229.3 1.81313 0.207843 0
M  V30 12785 C 1229.35 1.53954 -3.27078 0
M  V30 12786 O 1229.07 0.637054 -4.33443 0
M  V30 12787 C 1230.57 2.34697 -3.76075 0
M  V30 12788 H 1227.79 0.215483 -0.635459 0
M  V30 12789 H 1230.34 0.0182624 -2.04492 0
M  V30 12790 H 1228.49 2.23492 -3.16434 0
M  V30 12791 H 1228.91 1.18006 -5.11053 0
M  V30 12792 H 1230.38 2.84716 -4.72906 0
M  V30 12793 H 1230.86 3.15041 -3.06016 0
M  V30 12794 H 1231.46 1.70281 -3.89724 0
M  V30 12795 N 1229.78 1.54207 0.325255 0
M  V30 12796 C 1231.06 1.6298 1.08153 0
M  V30 12797 C 1231.44 0.462583 2.05969 0
M  V30 12798 O 1230.78 -0.543323 2.21947 0
M  V30 12799 C 1230.99 2.999 1.78497 0
M  V30 12800 C 1232.34 3.55888 2.3158 0
M  V30 12801 O 1233.37 3.02194 1.88566 0
M  V30 12802 O 1232.23 4.49847 3.10322 0
M  V30 12803 H 1229.32 0.659923 0.498429 0
M  V30 12804 H 1231.87 1.66553 0.325282 0
M  V30 12805 H 1230.64 3.7629 1.07338 0
M  V30 12806 H 1230.26 2.99997 2.60936 0
M  V30 12807 N 1231.26 -0.58723 1.46251 0
M  V30 12808 C 1232.53 -1.34727 1.41802 0
M  V30 12809 C 1232.91 -2.10867 0.0991354 0
M  V30 12810 O 1232.26 -2.09194 -0.919242 0
M  V30 12811 C 1232.47 -2.27706 2.64482 0
M  V30 12812 C 1233.82 -2.89678 3.10438 0
M  V30 12813 O 1234.84 -2.38021 2.64999 0
M  V30 12814 O 1233.7 -3.83493 3.89352 0
M  V30 12815 H 1230.8 -0.605119 0.563702 0
M  V30 12816 H 1233.34 -0.608623 1.5841 0
M  V30 12817 H 1232.12 -1.70842 3.52035 0
M  V30 12818 H 1231.74 -3.08918 2.50311 0
M  V30 12819 N 1232.74 -1.33881 -0.831482 0
M  V30 12820 C 1233.68 -1.24748 -1.94182 0
M  V30 12821 C 1234.65 -0.124516 -1.65633 0
M  V30 12822 O 1235.84 -0.304045 -1.88362 0
M  V30 12823 C 1232.98 -1.00016 -3.30289 0
M  V30 12824 C 1232.09 -2.21007 -3.71187 0
M  V30 12825 C 1231.23 -1.89629 -4.962 0
M  V30 12826 C 1230.26 -3.06811 -5.29654 0
M  V30 12827 N 1229.4 -2.75372 -6.45844 0
M  V30 12828 H 1234.24 -2.19709 -2.01325 0
M  V30 12829 H 1231.78 -1.09245 -0.985081 0
M  V30 12830 H 1233.74 -0.837167 -4.08714 0
M  V30 12831 H 1232.37 -0.0872582 -3.22682 0
M  V30 12832 H 1231.42 -2.48256 -2.88224 0
M  V30 12833 H 1232.73 -3.08587 -3.91887 0
M  V30 12834 H 1231.88 -1.70016 -5.82391 0
M  V30 12835 H 1230.62 -0.992964 -4.77485 0
M  V30 12836 H 1229.63 -3.27029 -4.41964 0
M  V30 12837 H 1230.85 -3.97909 -5.50314 0
M  V30 12838 H 1228.8 -1.87607 -6.28601 0
M  V30 12839 H 1228.72 -3.56483 -6.66675 0
M  V30 12840 H 1229.98 -2.59244 -7.35128 0
M  V30 12841 N 1234.21 1.05064 -1.1747 0
M  V30 12842 C 1235.46 1.77737 -0.961979 0
M  V30 12843 C 1235.78 1.88198 0.510551 0
M  V30 12844 O 1235.05 1.39968 1.37062 0
M  V30 12845 H 1233.63 0.658366 -0.352935 0
M  V30 12846 H 1236.29 1.26851 -1.47969 0
M  V30 12847 H 1235.39 2.79368 -1.39141 0
M  V30 12848 N 1235.69 0.975146 1.23809 0
M  V30 12849 C 1236.65 0.516157 2.23312 0
M  V30 12850 C 1237.65 -0.39136 1.55965 0
M  V30 12851 O 1238.84 -0.185783 1.73206 0
M  V30 12852 C 1235.98 -0.251534 3.39971 0
M  V30 12853 H 1237.17 1.3959 2.65433 0
M  V30 12854 H 1234.72 0.760493 1.36551 0
M  V30 12855 H 1235.46 -1.14805 3.03299 0
M  V30 12856 H 1235.24 0.399825 3.90056 0
M  V30 12857 H 1236.73 -0.561438 4.13809 0
M  V30 12858 N 1237.17 -1.38817 0.746158 0
M  V30 12859 C 1238.4 -2.04274 0.309156 0
M  V30 12860 C 1238.81 -1.56389 -1.06486 0
M  V30 12861 O 1238.15 -0.728875 -1.68621 0
M  V30 12862 C 1238.21 -3.58664 0.245003 0
M  V30 12863 C 1237.88 -4.29574 1.55933 0
M  V30 12864 C 1238.87 -4.55454 2.50714 0
M  V30 12865 C 1236.56 -4.67907 1.82671 0
M  V30 12866 C 1238.55 -5.18691 3.70458 0
M  V30 12867 C 1236.24 -5.30869 3.0269 0
M  V30 12868 C 1237.24 -5.56195 3.96404 0
M  V30 12869 O 1236.93 -6.17848 5.14314 0
M  V30 12870 H 1236.66 -0.663162 0.131121 0
M  V30 12871 H 1239.21 -1.78636 1.01382 0
M  V30 12872 H 1237.44 -3.83244 -0.515847 0
M  V30 12873 H 1239.13 -4.05579 -0.16149 0
M  V30 12874 H 1239.9 -4.26276 2.3133 0
M  V30 12875 H 1235.78 -4.47544 1.10568 0
M  V30 12876 H 1239.32 -5.38375 4.4362 0
M  V30 12877 H 1235.22 -5.59469 3.2197 0
M  V30 12878 H 1235.98 -6.36338 5.14797 0
M  V30 12879 N 1238.65 -0.49465 -1.49636 0
M  V30 12880 C 1239.87 0.051305 -2.07337 0
M  V30 12881 C 1240.3 1.30637 -1.35335 0
M  V30 12882 O 1239.66 1.76647 -0.408126 0
M  V30 12883 C 1239.7 0.294425 -3.59396 0
M  V30 12884 O 1238.81 1.3704 -3.88965 0
M  V30 12885 H 1238.15 -0.023408 -0.663587 0
M  V30 12886 H 1240.68 -0.692451 -1.92526 0
M  V30 12887 H 1240.69 0.527854 -4.04571 0
M  V30 12888 H 1239.36 -0.622583 -4.11214 0
M  V30 12889 H 1237.94 1.12242 -3.55607 0
M  V30 12890 N 1240.13 1.55939 -0.228214 0
M  V30 12891 C 1241.37 1.9877 0.402272 0
M  V30 12892 C 1241.7 1.11587 1.5894 0
M  V30 12893 O 1240.98 0.175032 1.93711 0
M  V30 12894 C 1241.26 3.50396 0.830353 0
M  V30 12895 C 1241.12 4.4835 -0.360876 0
M  V30 12896 C 1242.43 4.06602 1.68413 0
M  V30 12897 H 1239.55 0.722646 0.144746 0
M  V30 12898 H 1242.2 1.87186 -0.325784 0
M  V30 12899 H 1240.35 3.60398 1.4507 0
M  V30 12900 H 1242.02 4.5035 -0.999113 0
M  V30 12901 H 1240.26 4.21946 -1.00719 0
M  V30 12902 H 1240.93 5.51997 -0.0183074 0
M  V30 12903 H 1243.41 3.99585 1.16064 0
M  V30 12904 H 1242.28 5.12998 1.95254 0
M  V30 12905 H 1242.54 3.53897 2.64971 0
M  V30 12906 N 1241.6 -0.0451101 1.57535 0
M  V30 12907 C 1242.85 -0.737654 1.88157 0
M  V30 12908 C 1243.17 -1.76743 0.823817 0
M  V30 12909 O 1242.44 -1.95366 -0.144503 0
M  V30 12910 H 1241.02 -0.275431 0.694368 0
M  V30 12911 H 1243.69 -0.0148651 1.94894 0
M  V30 12912 H 1242.78 -1.23726 2.86528 0
M  V30 12913 N 1243.08 -1.54377 -0.317073 0
M  V30 12914 C 1244.49 -1.64062 -0.891105 0
M  V30 12915 C 1244.84 -0.538863 -1.88655 0
M  V30 12916 O 1243.97 0.32718 -2.13912 0
M  V30 12917 C 1244.56 -2.97395 -1.62302 0
M  V30 12918 C 1243.12 -3.09253 -2.14568 0
M  V30 12919 C 1242.27 -2.59664 -0.973146 0
M  V30 12920 H 1245.22 -1.58418 -0.0944829 0
M  V30 12921 H 1245.24 -2.87918 -2.48764 0
M  V30 12922 H 1244.75 -3.77562 -0.898268 0
M  V30 12923 H 1242.86 -2.33774 -2.90139 0
M  V30 12924 H 1242.97 -4.15159 -2.39123 0
M  V30 12925 H 1241.33 -2.15719 -1.35416 0
M  V30 12926 H 1242.12 -3.42294 -0.262611 0
M  V30 12927 N 1244.56 0.579466 -1.4656 0
M  V30 12928 C 1245.49 1.69846 -1.60233 0
M  V30 12929 C 1246.47 1.6397 -0.452533 0
M  V30 12930 O 1247.66 1.81936 -0.679174 0
M  V30 12931 C 1244.79 3.08488 -1.59538 0
M  V30 12932 C 1243.74 3.29197 -2.7352 0
M  V30 12933 C 1243.07 4.684 -2.57887 0
M  V30 12934 C 1244.37 3.16718 -4.15315 0
M  V30 12935 H 1246.06 1.5866 -2.53904 0
M  V30 12936 H 1243.61 0.761873 -1.22194 0
M  V30 12937 H 1245.56 3.86595 -1.67696 0
M  V30 12938 H 1244.28 3.20581 -0.62413 0
M  V30 12939 H 1242.94 2.53491 -2.64836 0
M  V30 12940 H 1242.59 4.77262 -1.58839 0
M  V30 12941 H 1242.29 4.83208 -3.34341 0
M  V30 12942 H 1243.81 5.48671 -2.67942 0
M  V30 12943 H 1245.23 3.84666 -4.25094 0
M  V30 12944 H 1243.63 3.43047 -4.92381 0
M  V30 12945 H 1244.7 2.13755 -4.35244 0
M  V30 12946 N 1246.04 1.3432 0.824371 0
M  V30 12947 C 1246.99 1.22332 1.92403 0
M  V30 12948 C 1247.97 0.122709 1.60431 0
M  V30 12949 O 1249.16 0.352231 1.7346 0
M  V30 12950 C 1246.29 0.979497 3.2903 0
M  V30 12951 C 1245.38 2.12322 3.67124 0
M  V30 12952 N 1245.77 3.3743 3.76795 0
M  V30 12953 C 1244.07 2.03314 3.96963 0
M  V30 12954 C 1244.77 4.12532 4.10113 0
M  V30 12955 N 1243.75 3.41109 4.23256 0
M  V30 12956 H 1247.55 2.17143 1.98056 0
M  V30 12957 H 1245.06 1.26537 1.01795 0
M  V30 12958 H 1247.06 0.874525 4.07624 0
M  V30 12959 H 1245.72 0.0400611 3.24675 0
M  V30 12960 H 1246.73 3.72001 3.60327 0
M  V30 12961 H 1243.41 1.17118 4.00736 0
M  V30 12962 H 1244.8 5.20562 4.24811 0
M  V30 12963 N 1247.52 -1.0444 1.18026 0
M  V30 12964 C 1248.74 -1.81772 0.998684 0
M  V30 12965 C 1249.17 -1.82682 -0.448225 0
M  V30 12966 O 1248.52 -1.24136 -1.32136 0
M  V30 12967 C 1248.57 -3.2542 1.55352 0
M  V30 12968 O 1247.68 -4.05103 0.772351 0
M  V30 12969 H 1247.02 -0.561731 0.354054 0
M  V30 12970 H 1249.55 -1.31557 1.56697 0
M  V30 12971 H 1249.56 -3.76206 1.57903 0
M  V30 12972 H 1248.23 -3.24073 2.60672 0
M  V30 12973 H 1246.81 -3.63798 0.818852 0
M  V30 12974 N 1248.99 -0.981699 -1.2329 0
M  V30 12975 C 1250.27 -0.567659 -1.87182 0
M  V30 12976 C 1250.65 0.955194 -1.88253 0
M  V30 12977 O 1250 1.83245 -1.36504 0
M  V30 12978 C 1250.21 -1.17522 -3.28618 0
M  V30 12979 C 1251.56 -1.26877 -4.052 0
M  V30 12980 O 1252.58 -1.12877 -3.37842 0
M  V30 12981 O 1251.44 -1.49163 -5.2575 0
M  V30 12982 H 1248.53 -0.191315 -0.804567 0
M  V30 12983 H 1251.08 -1.07686 -1.31155 0
M  V30 12984 H 1249.85 -2.21735 -3.22411 0
M  V30 12985 H 1249.48 -0.650913 -3.92236 0
M  V30 12986 N 1250.47 1.3842 -0.753509 0
M  V30 12987 C 1251.4 2.33073 -0.141198 0
M  V30 12988 C 1252.38 1.54863 0.70367 0
M  V30 12989 O 1253.57 1.8318 0.644872 0
M  V30 12990 C 1250.7 3.39043 0.752802 0
M  V30 12991 C 1249.65 4.27999 0.0106692 0
M  V30 12992 C 1248.98 5.24824 1.02291 0
M  V30 12993 C 1250.28 5.09308 -1.15768 0
M  V30 12994 H 1251.97 2.84528 -0.93188 0
M  V30 12995 H 1249.52 1.36802 -0.449567 0
M  V30 12996 H 1251.47 4.04224 1.19083 0
M  V30 12997 H 1250.2 2.8607 1.57581 0
M  V30 12998 H 1248.85 3.64323 -0.407939 0
M  V30 12999 H 1248.5 4.68139 1.83998 0
M  V30 13000 H 1248.2 5.85196 0.53101 0
M  V30 13001 H 1249.73 5.92882 1.46026 0
M  V30 13002 H 1251.14 5.6773 -0.797203 0
M  V30 13003 H 1249.54 5.78914 -1.58044 0
M  V30 13004 H 1250.61 4.43051 -1.97062 0
M  V30 13005 N 1251.95 0.502579 1.49372 0
M  V30 13006 C 1252.86 -0.279532 2.32929 0
M  V30 13007 C 1253.88 -0.965806 1.44735 0
M  V30 13008 O 1255.05 -0.946839 1.77755 0
M  V30 13009 C 1252.12 -1.32913 3.20211 0
M  V30 13010 C 1251.18 -0.656121 4.24256 0
M  V30 13011 C 1250.41 -1.65571 5.07368 0
M  V30 13012 O 1250.63 -2.88571 4.92019 0
M  V30 13013 O 1249.57 -1.21016 5.89609 0
M  V30 13014 H 1253.39 0.404427 3.00995 0
M  V30 13015 H 1250.98 0.263888 1.47051 0
M  V30 13016 H 1252.86 -1.93635 3.74277 0
M  V30 13017 H 1251.54 -1.99598 2.54837 0
M  V30 13018 H 1250.44 -0.00911489 3.74099 0
M  V30 13019 H 1251.78 -0.0316802 4.9219 0
M  V30 13020 N 1253.43 -1.55816 0.23648 0
M  V30 13021 C 1254.66 -2.02789 -0.39501 0
M  V30 13022 C 1255.07 -1.1153 -1.52832 0
M  V30 13023 O 1254.41 -0.120084 -1.83307 0
M  V30 13024 C 1254.47 -3.46052 -0.974066 0
M  V30 13025 C 1254.14 -4.56993 0.0256825 0
M  V30 13026 C 1255.13 -5.13208 0.831477 0
M  V30 13027 C 1252.82 -5.0208 0.148759 0
M  V30 13028 C 1254.81 -6.12994 1.74691 0
M  V30 13029 C 1252.5 -6.017 1.0677 0
M  V30 13030 C 1253.5 -6.57035 1.86531 0
M  V30 13031 O 1253.18 -7.54714 2.76878 0
M  V30 13032 H 1252.92 -0.668672 -0.0992687 0
M  V30 13033 H 1255.47 -2.02312 0.354826 0
M  V30 13034 H 1253.7 -3.43645 -1.77327 0
M  V30 13035 H 1255.39 -3.76586 -1.51453 0
M  V30 13036 H 1256.16 -4.79214 0.746922 0
M  V30 13037 H 1252.03 -4.58679 -0.461976 0
M  V30 13038 H 1255.58 -6.56111 2.36989 0
M  V30 13039 H 1251.48 -6.35115 1.15322 0
M  V30 13040 H 1252.24 -7.72292 2.71122 0
M  V30 13041 N 1254.91 0.036755 -1.57557 0
M  V30 13042 C 1256.13 0.741086 -1.93172 0
M  V30 13043 C 1256.55 1.69303 -0.835589 0
M  V30 13044 O 1255.91 1.81523 0.1886 0
M  V30 13045 C 1255.96 1.50477 -3.28693 0
M  V30 13046 O 1255.68 0.591046 -4.34095 0
M  V30 13047 C 1257.18 2.30695 -3.78543 0
M  V30 13048 H 1254.4 0.208731 -0.637709 0
M  V30 13049 H 1256.94 -0.00342776 -2.045 0
M  V30 13050 H 1255.1 2.20123 -3.18786 0
M  V30 13051 H 1255.51 1.12579 -5.12276 0
M  V30 13052 H 1256.99 2.79685 -4.759 0
M  V30 13053 H 1257.46 3.11778 -3.0934 0
M  V30 13054 H 1258.07 1.66138 -3.91508 0
M  V30 13055 N 1256.39 1.54543 0.308881 0
M  V30 13056 C 1257.63 1.73706 1.04661 0
M  V30 13057 C 1257.96 0.517111 1.87189 0
M  V30 13058 O 1257.24 -0.485856 1.88334 0
M  V30 13059 C 1257.52 3.02141 1.95916 0
M  V30 13060 C 1257.38 4.34419 1.1662 0
M  V30 13061 C 1258.69 3.26401 2.95213 0
M  V30 13062 H 1255.81 0.63203 0.379087 0
M  V30 13063 H 1258.46 1.87253 0.321947 0
M  V30 13064 H 1256.61 2.90723 2.57706 0
M  V30 13065 H 1258.28 4.57743 0.571772 0
M  V30 13066 H 1256.52 4.3126 0.468747 0
M  V30 13067 H 1257.19 5.20535 1.83704 0
M  V30 13068 H 1259.67 3.37377 2.43549 0
M  V30 13069 H 1258.54 4.17597 3.56235 0
M  V30 13070 H 1258.8 2.44322 3.68455 0
M  V30 13071 N 1257.86 -0.571685 1.46866 0
M  V30 13072 C 1259.09 -1.35524 1.56336 0
M  V30 13073 C 1259.51 -1.87647 0.208359 0
M  V30 13074 O 1258.86 -1.64219 -0.796136 0
M  V30 13075 C 1258.91 -2.53518 2.57703 0
M  V30 13076 O 1258.64 -2.03552 3.87941 0
M  V30 13077 C 1260.14 -3.45925 2.77219 0
M  V30 13078 H 1257.36 -0.41363 0.528348 0
M  V30 13079 H 1259.9 -0.693943 1.92366 0
M  V30 13080 H 1258.06 -3.15615 2.24647 0
M  V30 13081 H 1258.47 -2.80476 4.43208 0
M  V30 13082 H 1259.94 -4.2517 3.52043 0
M  V30 13083 H 1260.42 -3.98559 1.8452 0
M  V30 13084 H 1261.03 -2.89655 3.11416 0
M  V30 13085 N 1259.34 -1.34755 -0.817236 0
M  V30 13086 C 1260.57 -1.30676 -1.61054 0
M  V30 13087 C 1260.99 0.115343 -1.87746 0
M  V30 13088 O 1260.35 1.07887 -1.45705 0
M  V30 13089 C 1260.4 -2.10881 -2.92509 0
M  V30 13090 O 1259.5 -1.48223 -3.84842 0
M  V30 13091 H 1258.84 -0.448531 -0.489608 0
M  V30 13092 H 1261.37 -1.77642 -1.01512 0
M  V30 13093 H 1261.38 -2.22446 -3.42026 0
M  V30 13094 H 1260.06 -3.14274 -2.72406 0
M  V30 13095 H 1258.63 -1.45434 -3.4337 0
M  V30 13096 N 1260.82 1.03812 -1.18578 0
M  V30 13097 C 1261.75 2.11928 -0.872871 0
M  V30 13098 C 1262.76 1.62275 0.130592 0
M  V30 13099 O 1263.95 1.78233 -0.0975869 0
M  V30 13100 C 1261.05 3.37714 -0.283321 0
M  V30 13101 C 1260.23 4.16591 -1.33307 0
M  V30 13102 C 1259.29 5.20701 -0.758746 0
M  V30 13103 O 1258.31 5.50837 -1.43412 0
M  V30 13104 N 1259.51 5.78811 0.442505 0
M  V30 13105 H 1262.28 2.39364 -1.80346 0
M  V30 13106 H 1259.84 1.20027 -1.08652 0
M  V30 13107 H 1261.83 4.04538 0.114524 0
M  V30 13108 H 1260.4 3.07699 0.551347 0
M  V30 13109 H 1259.62 3.45051 -1.90613 0
M  V30 13110 H 1260.91 4.66082 -2.04071 0
M  V30 13111 H 1260.31 5.56631 1.00889 0
M  V30 13112 H 1258.86 6.47089 0.78224 0
M  V30 13113 N 1262.3 0.988223 1.22768 0
M  V30 13114 C 1263.24 0.534605 2.24523 0
M  V30 13115 C 1264.21 -0.430615 1.60421 0
M  V30 13116 O 1265.4 -0.336417 1.87811 0
M  V30 13117 C 1262.54 -0.149195 3.44777 0
M  V30 13118 C 1261.65 0.85721 4.2341 0
M  V30 13119 C 1260.79 0.147411 5.30995 0
M  V30 13120 C 1259.83 1.1425 6.01343 0
M  V30 13121 N 1258.96 0.461327 7.00583 0
M  V30 13122 H 1263.8 1.40708 2.62689 0
M  V30 13123 H 1261.34 0.704918 1.2911 0
M  V30 13124 H 1263.3 -0.562527 4.1339 0
M  V30 13125 H 1261.93 -0.985485 3.07389 0
M  V30 13126 H 1260.98 1.38889 3.54138 0
M  V30 13127 H 1262.29 1.61517 4.71926 0
M  V30 13128 H 1261.45 -0.32289 6.0584 0
M  V30 13129 H 1260.19 -0.643085 4.83442 0
M  V30 13130 H 1259.19 1.62348 5.25284 0
M  V30 13131 H 1260.42 1.93379 6.50985 0
M  V30 13132 H 1258.36 -0.309818 6.55268 0
M  V30 13133 H 1258.28 1.15781 7.47082 0
M  V30 13134 H 1259.55 0.0136734 7.79499 0
M  V30 13135 N 1263.78 -1.38018 0.760839 0
M  V30 13136 C 1264.69 -2.34181 0.140232 0
M  V30 13137 C 1265.7 -1.59635 -0.692287 0
M  V30 13138 O 1266.88 -1.91788 -0.614752 0
M  V30 13139 C 1263.94 -3.38778 -0.73693 0
M  V30 13140 C 1263 -4.29157 0.110792 0
M  V30 13141 C 1262.24 -5.28758 -0.724599 0
M  V30 13142 O 1262.46 -5.35585 -1.96226 0
M  V30 13143 O 1261.39 -6.01738 -0.139565 0
M  V30 13144 H 1265.22 -2.88962 0.934588 0
M  V30 13145 H 1262.8 -1.3999 0.521835 0
M  V30 13146 H 1264.69 -4.02804 -1.23803 0
M  V30 13147 H 1263.36 -2.86341 -1.50966 0
M  V30 13148 H 1262.27 -3.68268 0.658007 0
M  V30 13149 H 1263.6 -4.84869 0.846346 0
M  V30 13150 N 1265.25 -0.510493 -1.49103 0
M  V30 13151 C 1266.5 0.0305831 -2.02077 0
M  V30 13152 C 1266.82 1.36602 -1.39157 0
M  V30 13153 O 1266.09 1.88016 -0.550154 0
M  V30 13154 H 1264.67 0.0142916 -0.746863 0
M  V30 13155 H 1267.33 -0.669895 -1.83026 0
M  V30 13156 H 1266.43 0.153283 -3.11723 0
M  V30 13157 N 1266.73 1.55688 -0.24474 0
M  V30 13158 C 1267.96 2.02995 0.38425 0
M  V30 13159 C 1268.37 1.12339 1.52239 0
M  V30 13160 O 1267.71 0.129803 1.83241 0
M  V30 13161 C 1267.77 3.46564 0.955701 0
M  V30 13162 C 1267.44 4.56973 -0.0499176 0
M  V30 13163 C 1268.44 5.1276 -0.858682 0
M  V30 13164 C 1266.12 5.01994 -0.175383 0
M  V30 13165 C 1268.11 6.12059 -1.77939 0
M  V30 13166 C 1265.8 6.01126 -1.0996 0
M  V30 13167 C 1266.8 6.56037 -1.90013 0
M  V30 13168 O 1266.49 7.53235 -2.80877 0
M  V30 13169 H 1266.22 0.669189 0.0957212 0
M  V30 13170 H 1268.77 2.02121 -0.36555 0
M  V30 13171 H 1267 3.44581 1.75502 0
M  V30 13172 H 1268.69 3.77383 1.49454 0
M  V30 13173 H 1269.46 4.78811 -0.772325 0
M  V30 13174 H 1265.34 4.58918 0.437644 0
M  V30 13175 H 1268.88 6.54845 -2.40465 0
M  V30 13176 H 1264.78 6.34494 -1.18689 0
M  V30 13177 H 1265.55 7.70844 -2.75214 0
M  V30 13178 N 1268.21 -0.0283989 1.57574 0
M  V30 13179 C 1269.46 -0.720142 1.89583 0
M  V30 13180 C 1269.79 -1.7497 0.842562 0
M  V30 13181 O 1269.06 -1.93979 -0.142294 0
M  V30 13182 C 1269.35 -1.38909 3.32229 0
M  V30 13183 C 1269.2 -0.372998 4.48251 0
M  V30 13184 C 1270.52 -2.32289 3.73804 0
M  V30 13185 H 1267.64 -0.26033 0.689491 0
M  V30 13186 H 1270.28 0.0170607 1.89992 0
M  V30 13187 H 1268.43 -2.01744 3.32011 0
M  V30 13188 H 1270.1 0.253492 4.60603 0
M  V30 13189 H 1268.34 0.30765 4.32708 0
M  V30 13190 H 1269.02 -0.879549 5.44948 0
M  V30 13191 H 1271.49 -1.79497 3.75393 0
M  V30 13192 H 1270.37 -2.76075 4.74419 0
M  V30 13193 H 1270.63 -3.18992 3.06099 0
M  V30 13194 N 1269.69 -1.54705 -0.300681 0
M  V30 13195 C 1270.62 -1.88679 -1.37559 0
M  V30 13196 C 1271.6 -0.74574 -1.52881 0
M  V30 13197 O 1272.78 -1.0015 -1.66384 0
M  V30 13198 C 1269.91 -2.13438 -2.73974 0
M  V30 13199 C 1268.87 -3.29284 -2.73415 0
M  V30 13200 C 1268.19 -3.39462 -4.13122 0
M  V30 13201 C 1269.49 -4.66382 -2.35128 0
M  V30 13202 H 1271.19 -2.78707 -1.09373 0
M  V30 13203 H 1268.73 -1.341 -0.524704 0
M  V30 13204 H 1270.69 -2.35791 -3.49257 0
M  V30 13205 H 1269.41 -1.20181 -3.03684 0
M  V30 13206 H 1268.07 -3.06855 -2.00588 0
M  V30 13207 H 1267.72 -2.43721 -4.4001 0
M  V30 13208 H 1267.42 -4.17334 -4.1365 0
M  V30 13209 H 1268.94 -3.64075 -4.90185 0
M  V30 13210 H 1270.36 -4.88463 -3.00128 0
M  V30 13211 H 1268.75 -5.4697 -2.46867 0
M  V30 13212 H 1269.82 -4.67078 -1.30256 0
M  V30 13213 N 1271.17 0.563888 -1.47167 0
M  V30 13214 C 1272.39 1.34693 -1.57052 0
M  V30 13215 C 1272.81 1.87534 -0.218308 0
M  V30 13216 O 1272.17 1.64639 0.787416 0
M  V30 13217 C 1272.22 2.52148 -2.59044 0
M  V30 13218 O 1271.94 2.01492 -3.89015 0
M  V30 13219 C 1273.44 3.4445 -2.7905 0
M  V30 13220 H 1270.66 0.410822 -0.530534 0
M  V30 13221 H 1273.2 0.683731 -1.92731 0
M  V30 13222 H 1271.36 3.14419 -2.26317 0
M  V30 13223 H 1271.77 2.78122 -4.44689 0
M  V30 13224 H 1273.25 4.23297 -3.54293 0
M  V30 13225 H 1273.72 3.97575 -1.86631 0
M  V30 13226 H 1274.33 2.88 -3.12948 0
M  V30 13227 N 1272.64 1.35187 0.810078 0
M  V30 13228 C 1273.61 1.27698 1.90331 0
M  V30 13229 C 1274.61 0.189216 1.59683 0
M  V30 13230 O 1275.8 0.442689 1.68481 0
M  V30 13231 C 1272.93 0.974631 3.26671 0
M  V30 13232 H 1274.12 2.24902 1.98392 0
M  V30 13233 H 1271.68 1.1966 1.00554 0
M  V30 13234 H 1272.41 0.0063068 3.24299 0
M  V30 13235 H 1272.2 1.76158 3.50301 0
M  V30 13236 H 1273.69 0.947743 4.06703 0
M  V30 13237 N 1274.12 -1.03182 1.19127 0
M  V30 13238 C 1275.37 -1.76794 0.993563 0
M  V30 13239 C 1275.7 -1.88306 -0.474809 0
M  V30 13240 O 1274.98 -1.39769 -1.35258 0
M  V30 13241 C 1275.26 -3.19573 1.65968 0
M  V30 13242 C 1275.11 -3.1595 3.2015 0
M  V30 13243 C 1276.43 -4.17897 1.38023 0
M  V30 13244 H 1273.55 -0.641768 0.362357 0
M  V30 13245 H 1276.19 -1.20472 1.46924 0
M  V30 13246 H 1274.34 -3.67663 1.25524 0
M  V30 13247 H 1276.01 -2.7578 3.69788 0
M  V30 13248 H 1274.26 -2.53743 3.51848 0
M  V30 13249 H 1274.93 -4.16811 3.61901 0
M  V30 13250 H 1277.4 -3.78394 1.73082 0
M  V30 13251 H 1276.28 -5.15997 1.87186 0
M  V30 13252 H 1276.54 -4.41048 0.304812 0
M  V30 13253 N 1275.6 -0.99472 -1.22242 0
M  V30 13254 C 1276.51 -0.555502 -2.27928 0
M  V30 13255 C 1277.53 0.396584 -1.6942 0
M  V30 13256 O 1278.7 0.262965 -1.99676 0
M  V30 13257 C 1275.77 0.121121 -3.46488 0
M  V30 13258 C 1274.83 -0.874155 -4.20306 0
M  V30 13259 C 1274.06 -0.229726 -5.33205 0
M  V30 13260 O 1274.28 0.975935 -5.61989 0
M  V30 13261 O 1273.22 -0.935501 -5.94586 0
M  V30 13262 H 1277.04 -1.4348 -2.6767 0
M  V30 13263 H 1274.63 -0.763061 -1.28444 0
M  V30 13264 H 1276.51 0.500043 -4.18423 0
M  V30 13265 H 1275.19 0.974959 -3.08668 0
M  V30 13266 H 1274.09 -1.30404 -3.50636 0
M  V30 13267 H 1275.43 -1.69725 -4.62011 0
M  V30 13268 N 1277.08 1.37613 -0.768148 0
M  V30 13269 C 1278.33 1.99384 -0.330187 0
M  V30 13270 C 1278.65 1.61283 1.09604 0
M  V30 13271 O 1277.92 0.876551 1.75195 0
M  V30 13272 H 1276.5 0.737445 -0.119095 0
M  V30 13273 H 1279.16 1.6815 -0.985476 0
M  V30 13274 H 1278.26 3.09462 -0.40494 0
M  V30 13275 N 1278.56 0.518393 1.4883 0
M  V30 13276 C 1279.78 -0.0162 2.06894 0
M  V30 13277 C 1280.2 -1.29222 1.37649 0
M  V30 13278 O 1279.56 -1.766 0.460288 0
M  V30 13279 C 1279.61 -0.255836 3.60594 0
M  V30 13280 O 1279.33 0.969612 4.27235 0
M  V30 13281 C 1280.83 -0.832117 4.3542 0
M  V30 13282 H 1278.05 0.0282877 0.670403 0
M  V30 13283 H 1280.59 0.720726 1.91379 0
M  V30 13284 H 1278.75 -0.942782 3.75753 0
M  V30 13285 H 1279.16 0.743172 5.19208 0
M  V30 13286 H 1280.64 -0.949279 5.43776 0
M  V30 13287 H 1281.11 -1.83421 3.99066 0
M  V30 13288 H 1281.72 -0.1821 4.2491 0
M  V30 13289 N 1280.03 -1.55556 0.252993 0
M  V30 13290 C 1281.28 -1.98267 -0.370571 0
M  V30 13291 C 1281.6 -1.14449 -1.58622 0
M  V30 13292 O 1282.8 -1.472 -2.28132 0
M  V30 13293 C 1281.26 -3.52813 -0.710685 0
M  V30 13294 C 1280.87 -4.45379 0.483908 0
M  V30 13295 C 1282.61 -4.04165 -1.2981 0
M  V30 13296 C 1280.52 -5.91279 0.119611 0
M  V30 13297 H 1279.45 -0.740463 -0.142232 0
M  V30 13298 H 1282.1 -1.8005 0.354169 0
M  V30 13299 H 1280.48 -3.66748 -1.49372 0
M  V30 13300 H 1281.65 -4.43206 1.26116 0
M  V30 13301 H 1279.97 -4.04542 0.986664 0
M  V30 13302 H 1282.57 -5.10696 -1.5841 0
M  V30 13303 H 1282.91 -3.51875 -2.22462 0
M  V30 13304 H 1283.44 -3.93581 -0.577836 0
M  V30 13305 H 1280.18 -6.47619 1.01343 0
M  V30 13306 H 1279.7 -5.96573 -0.621318 0
M  V30 13307 H 1281.38 -6.46322 -0.296052 0
M  V30 13308 N 1281.51 0.0200419 -1.57587 0
M  V30 13309 C 1282.76 0.707627 -1.89307 0
M  V30 13310 C 1283.08 1.7541 -0.851831 0
M  V30 13311 O 1282.35 1.95571 0.113404 0
M  V30 13312 H 1280.93 0.264349 -0.698662 0
M  V30 13313 H 1283.59 -0.0161428 -1.94893 0
M  V30 13314 H 1282.69 1.19152 -2.8846 0
M  V30 13315 N 1282.99 1.54862 0.292472 0
M  V30 13316 C 1284.27 1.65237 1.04671 0
M  V30 13317 C 1284.65 0.506168 2.04942 0
M  V30 13318 O 1284 -0.496123 2.23049 0
M  V30 13319 C 1284.21 3.03618 1.72095 0
M  V30 13320 C 1285.55 3.6072 2.23979 0
M  V30 13321 O 1286.58 3.06126 1.82114 0
M  V30 13322 O 1285.44 4.56328 3.0071 0
M  V30 13323 H 1282.53 0.670347 0.484319 0
M  V30 13324 H 1285.08 1.67206 0.28988 0
M  V30 13325 H 1283.85 3.78482 0.993324 0
M  V30 13326 H 1283.47 3.05464 2.54514 0
M  V30 13327 N 1284.47 -0.556076 1.47464 0
M  V30 13328 C 1285.72 -1.3132 1.54147 0
M  V30 13329 C 1286.04 -1.93425 0.204221 0
M  V30 13330 O 1285.3 -1.78467 -0.803002 0
M  V30 13331 C 1285.6 -2.44298 2.6087 0
M  V30 13332 C 1285.26 -2.00016 4.04109 0
M  V30 13333 C 1283.93 -1.87656 4.43101 0
M  V30 13334 C 1286.28 -1.66228 4.93981 0
M  V30 13335 C 1283.61 -1.39805 5.698 0
M  V30 13336 C 1285.96 -1.19848 6.21144 0
M  V30 13337 C 1284.62 -1.06084 6.59016 0
M  V30 13338 H 1283.89 -0.480534 0.564064 0
M  V30 13339 H 1286.54 -0.623449 1.81067 0
M  V30 13340 H 1284.84 -3.18834 2.27711 0
M  V30 13341 H 1286.54 -3.02479 2.63263 0
M  V30 13342 H 1283.13 -2.1058 3.73302 0
M  V30 13343 H 1287.31 -1.7465 4.64555 0
M  V30 13344 H 1282.57 -1.27814 5.97891 0
M  V30 13345 H 1286.74 -0.927657 6.90194 0
M  V30 13346 H 1284.37 -0.687834 7.57082 0
M  V30 13347 N 1285.95 -1.35615 -0.802897 0
M  V30 13348 C 1286.89 -1.28839 -1.91492 0
M  V30 13349 C 1287.86 -0.159621 -1.65331 0
M  V30 13350 O 1289.05 -0.343931 -1.87675 0
M  V30 13351 C 1286.19 -1.06999 -3.28093 0
M  V30 13352 C 1285.3 -2.28831 -3.66416 0
M  V30 13353 C 1284.44 -2.00111 -4.92066 0
M  V30 13354 C 1283.48 -3.17977 -5.23027 0
M  V30 13355 N 1282.61 -2.89009 -6.39858 0
M  V30 13356 H 1287.45 -2.2393 -1.96619 0
M  V30 13357 H 1284.99 -1.1131 -0.961687 0
M  V30 13358 H 1286.95 -0.923673 -4.06847 0
M  V30 13359 H 1285.58 -0.155684 -3.22424 0
M  V30 13360 H 1284.63 -2.54314 -2.82893 0
M  V30 13361 H 1285.94 -3.1683 -3.85253 0
M  V30 13362 H 1285.1 -1.82331 -5.78654 0
M  V30 13363 H 1283.84 -1.09402 -4.75271 0
M  V30 13364 H 1282.84 -3.3633 -4.34928 0
M  V30 13365 H 1284.07 -4.09493 -5.41749 0
M  V30 13366 H 1282.01 -2.00898 -6.24481 0
M  V30 13367 H 1281.93 -3.70544 -6.58964 0
M  V30 13368 H 1283.2 -2.74779 -7.29463 0
M  V30 13369 N 1287.43 1.02549 -1.19673 0
M  V30 13370 C 1288.39 2.09064 -0.939407 0
M  V30 13371 C 1289.39 1.60593 0.0814837 0
M  V30 13372 O 1290.58 1.73521 -0.153626 0
M  V30 13373 C 1287.71 3.38395 -0.412513 0
M  V30 13374 H 1288.9 2.33325 -1.88413 0
M  V30 13375 H 1286.46 1.19211 -1.01086 0
M  V30 13376 H 1287.19 3.19805 0.538094 0
M  V30 13377 H 1286.98 3.74898 -1.14863 0
M  V30 13378 H 1288.47 4.16841 -0.251678 0
M  V30 13379 N 1288.9 1.00119 1.21713 0
M  V30 13380 C 1290.13 0.699416 1.94401 0
M  V30 13381 C 1290.54 -0.741376 1.7407 0
M  V30 13382 O 1289.88 -1.51286 1.04203 0
M  V30 13383 C 1289.95 0.935875 3.47105 0
M  V30 13384 C 1289.61 2.36276 3.91181 0
M  V30 13385 C 1290.61 3.34276 3.9819 0
M  V30 13386 C 1288.29 2.6994 4.23601 0
M  V30 13387 C 1290.29 4.6401 4.37005 0
M  V30 13388 C 1287.97 3.99891 4.62094 0
M  V30 13389 C 1288.97 4.96737 4.68766 0
M  V30 13390 O 1288.66 6.24364 5.06384 0
M  V30 13391 H 1288.39 0.257233 0.625146 0
M  V30 13392 H 1290.95 1.34098 1.55585 0
M  V30 13393 H 1289.18 0.237133 3.85972 0
M  V30 13394 H 1290.86 0.628075 4.01011 0
M  V30 13395 H 1291.63 3.09603 3.73324 0
M  V30 13396 H 1287.51 1.95257 4.17607 0
M  V30 13397 H 1291.05 5.39601 4.42128 0
M  V30 13398 H 1286.95 4.2435 4.86412 0
M  V30 13399 H 1287.72 6.28424 5.24429 0
M  V30 13400 N 1290.38 -1.37203 0.775435 0
M  V30 13401 C 1291.34 -2.28566 0.170406 0
M  V30 13402 C 1292.34 -1.48195 -0.624085 0
M  V30 13403 O 1293.53 -1.68364 -0.447132 0
M  V30 13404 C 1290.67 -3.32186 -0.765829 0
M  V30 13405 H 1291.86 -2.8358 0.975824 0
M  V30 13406 H 1289.41 -1.46531 0.543895 0
M  V30 13407 H 1290.15 -2.82303 -1.59611 0
M  V30 13408 H 1289.93 -3.91598 -0.198251 0
M  V30 13409 H 1291.42 -4.0045 -1.18446 0
M  V30 13410 N 1291.86 -0.526279 -1.48553 0
M  V30 13411 C 1292.79 0.227364 -2.3239 0
M  V30 13412 C 1293.77 0.93862 -1.41859 0
M  V30 13413 O 1294.96 0.925119 -1.70749 0
M  V30 13414 C 1292.09 1.277 -3.22971 0
M  V30 13415 C 1291.04 0.684107 -4.22497 0
M  V30 13416 C 1290.37 1.83612 -5.02186 0
M  V30 13417 C 1291.67 -0.341723 -5.21181 0
M  V30 13418 H 1293.36 -0.472486 -2.95648 0
M  V30 13419 H 1290.91 -0.228669 -1.42173 0
M  V30 13420 H 1292.86 1.81215 -3.80446 0
M  V30 13421 H 1291.58 2.00638 -2.57705 0
M  V30 13422 H 1290.24 0.170505 -3.66203 0
M  V30 13423 H 1289.89 2.55379 -4.33348 0
M  V30 13424 H 1289.59 1.44536 -5.69547 0
M  V30 13425 H 1291.11 2.37513 -5.62512 0
M  V30 13426 H 1292.53 0.106207 -5.73202 0
M  V30 13427 H 1290.92 -0.649673 -5.96573 0
M  V30 13428 H 1291.99 -1.2488 -4.68543 0
M  V30 13429 N 1293.34 1.5542 -0.261239 0
M  V30 13430 C 1294.3 2.20683 0.619011 0
M  V30 13431 C 1295.3 1.18042 1.09192 0
M  V30 13432 O 1296.49 1.43035 0.99432 0
M  V30 13433 C 1293.62 2.86179 1.85242 0
M  V30 13434 H 1294.82 2.99859 0.0493924 0
M  V30 13435 H 1292.37 1.56296 -0.0117687 0
M  V30 13436 H 1293.1 2.10978 2.4629 0
M  V30 13437 H 1292.89 3.61381 1.52138 0
M  V30 13438 H 1294.38 3.36081 2.47869 0
M  V30 13439 N 1294.82 -0.0116844 1.57596 0
M  V30 13440 C 1296.06 -0.697577 1.89679 0
M  V30 13441 C 1296.38 -1.74956 0.861122 0
M  V30 13442 O 1295.65 -1.95629 -0.103031 0
M  V30 13443 H 1294.23 -0.26064 0.700054 0
M  V30 13444 H 1296.9 0.0264782 1.94882 0
M  V30 13445 H 1295.99 -1.17621 2.89088 0
M  V30 13446 N 1296.29 -1.55015 -0.284256 0
M  V30 13447 C 1297.54 -1.7535 -1.01884 0
M  V30 13448 C 1297.87 -0.546825 -1.86342 0
M  V30 13449 O 1297.15 0.455832 -1.89083 0
M  V30 13450 C 1297.43 -3.05219 -1.91084 0
M  V30 13451 C 1297.28 -4.36219 -1.09694 0
M  V30 13452 C 1298.6 -3.31056 -2.89983 0
M  V30 13453 H 1295.72 -0.637981 -0.368984 0
M  V30 13454 H 1298.36 -1.87741 -0.292116 0
M  V30 13455 H 1296.51 -2.94786 -2.53048 0
M  V30 13456 H 1298.19 -4.58594 -0.498876 0
M  V30 13457 H 1296.43 -4.31951 -0.400078 0
M  V30 13458 H 1297.1 -5.23392 -1.75399 0
M  V30 13459 H 1299.58 -3.41209 -2.38151 0
M  V30 13460 H 1298.45 -4.23212 -3.49547 0
M  V30 13461 H 1298.71 -2.50153 -3.64521 0
M  V30 13462 N 1297.77 0.548248 -1.47757 0
M  V30 13463 C 1299 1.335 -1.58722 0
M  V30 13464 C 1299.42 1.86549 -0.241034 0
M  V30 13465 O 1298.78 1.63447 0.784517 0
M  V30 13466 C 1298.83 2.47457 -2.62293 0
M  V30 13467 O 1297.93 3.49956 -2.18185 0
M  V30 13468 H 1297.27 0.396166 -0.532868 0
M  V30 13469 H 1299.8 0.66164 -1.93607 0
M  V30 13470 H 1299.81 2.93901 -2.82995 0
M  V30 13471 H 1298.49 2.08203 -3.60034 0
M  V30 13472 H 1297.06 3.09755 -2.0762 0
M  V30 13473 N 1299.25 1.36039 0.795694 0
M  V30 13474 C 1300.5 1.29919 1.5533 0
M  V30 13475 C 1300.82 -0.123325 1.94109 0
M  V30 13476 O 1300.08 -1.09115 1.62457 0
M  V30 13477 C 1300.38 2.16166 2.84617 0
M  V30 13478 C 1300.04 3.64805 2.65006 0
M  V30 13479 C 1298.71 4.05319 2.59365 0
M  V30 13480 C 1301.06 4.59073 2.46781 0
M  V30 13481 C 1298.39 5.38251 2.33458 0
M  V30 13482 C 1300.74 5.92216 2.22402 0
M  V30 13483 C 1299.4 6.31862 2.1519 0
M  V30 13484 H 1298.67 0.475408 0.568391 0
M  V30 13485 H 1301.32 1.68035 0.918512 0
M  V30 13486 H 1299.62 1.70967 3.5253 0
M  V30 13487 H 1301.32 2.0876 3.42375 0
M  V30 13488 H 1297.91 3.32662 2.70248 0
M  V30 13489 H 1302.1 4.28651 2.50144 0
M  V30 13490 H 1297.35 5.67957 2.26352 0
M  V30 13491 H 1301.53 6.64833 2.07293 0
M  V30 13492 H 1299.15 7.34797 1.94878 0
M  V30 13493 N 1300.73 -1.01913 1.20215 0
M  V30 13494 C 1301.64 -2.13864 0.964328 0
M  V30 13495 C 1302.65 -1.73821 -0.0789556 0
M  V30 13496 O 1303.83 -2.01111 0.107914 0
M  V30 13497 C 1300.9 -3.42827 0.516757 0
M  V30 13498 C 1299.96 -3.97127 1.63059 0
M  V30 13499 C 1299.19 -5.19935 1.20428 0
M  V30 13500 O 1299.41 -5.70355 0.0719119 0
M  V30 13501 O 1298.35 -5.67322 2.01071 0
M  V30 13502 H 1302.17 -2.36795 1.90162 0
M  V30 13503 H 1299.76 -1.1226 0.985803 0
M  V30 13504 H 1301.64 -4.20493 0.276272 0
M  V30 13505 H 1300.31 -3.21318 -0.391983 0
M  V30 13506 H 1299.22 -3.20752 1.92533 0
M  V30 13507 H 1300.55 -4.2302 2.51624 0
M  V30 13508 N 1302.21 -1.00763 -1.2118 0
M  V30 13509 C 1303.46 -0.687197 -1.89633 0
M  V30 13510 C 1303.77 0.78566 -1.79128 0
M  V30 13511 O 1304.97 1.21828 -2.42632 0
M  V30 13512 C 1303.43 -1.1787 -3.40051 0
M  V30 13513 C 1303.04 -2.67782 -3.59161 0
M  V30 13514 C 1304.78 -0.933277 -4.14114 0
M  V30 13515 C 1302.69 -3.10459 -5.03358 0
M  V30 13516 H 1301.62 -0.253342 -0.710165 0
M  V30 13517 H 1304.27 -1.21914 -1.37147 0
M  V30 13518 H 1302.65 -0.574791 -3.91806 0
M  V30 13519 H 1303.83 -3.33645 -3.17833 0
M  V30 13520 H 1302.14 -2.90368 -2.98455 0
M  V30 13521 H 1304.74 -1.22766 -5.20416 0
M  V30 13522 H 1305.08 0.130431 -4.16096 0
M  V30 13523 H 1305.61 -1.50011 -3.68431 0
M  V30 13524 H 1302.35 -4.16068 -5.06525 0
M  V30 13525 H 1301.87 -2.4931 -5.45531 0
M  V30 13526 H 1303.55 -3.02589 -5.71882 0
M  V30 13527 N 1303.68 1.3679 -0.7827 0
M  V30 13528 C 1304.63 2.30139 -0.174595 0
M  V30 13529 C 1305.6 1.51645 0.677714 0
M  V30 13530 O 1306.79 1.80176 0.627796 0
M  V30 13531 C 1303.93 3.38133 0.689936 0
M  V30 13532 C 1303.04 4.31624 -0.180179 0
M  V30 13533 C 1302.17 5.26698 0.69009 0
M  V30 13534 C 1301.21 6.1183 -0.181891 0
M  V30 13535 N 1300.35 6.99113 0.646977 0
M  V30 13536 H 1305.19 2.81559 -0.97613 0
M  V30 13537 H 1302.73 1.38595 -0.492944 0
M  V30 13538 H 1304.69 3.99386 1.2061 0
M  V30 13539 H 1303.32 2.88049 1.45696 0
M  V30 13540 H 1302.37 3.71583 -0.81425 0
M  V30 13541 H 1303.68 4.91464 -0.852337 0
M  V30 13542 H 1302.83 5.93209 1.27232 0
M  V30 13543 H 1301.57 4.67297 1.3959 0
M  V30 13544 H 1300.58 5.44288 -0.776572 0
M  V30 13545 H 1301.8 6.73306 -0.885195 0
M  V30 13546 H 1299.75 6.42227 1.3372 0
M  V30 13547 H 1299.67 7.55993 0.0323547 0
M  V30 13548 H 1300.93 7.7 1.21325 0
M  V30 13549 N 1305.16 0.53415 1.48272 0
M  V30 13550 C 1306.13 -0.215641 2.28183 0
M  V30 13551 C 1307.13 -0.863966 1.35618 0
M  V30 13552 O 1308.32 -0.723375 1.58471 0
M  V30 13553 C 1305.45 -1.31251 3.1462 0
M  V30 13554 H 1306.64 0.486014 2.95936 0
M  V30 13555 H 1304.19 0.290237 1.53582 0
M  V30 13556 H 1304.93 -2.04729 2.51508 0
M  V30 13557 H 1304.71 -0.852706 3.82716 0
M  V30 13558 H 1306.2 -1.83978 3.74889 0
M  V30 13559 N 1306.64 -1.55279 0.269478 0
M  V30 13560 C 1307.55 -2.25965 -0.63065 0
M  V30 13561 C 1308.57 -1.28357 -1.17476 0
M  V30 13562 O 1309.74 -1.61281 -1.20625 0
M  V30 13563 C 1306.81 -2.96263 -1.80081 0
M  V30 13564 C 1305.87 -4.09336 -1.29394 0
M  V30 13565 C 1305.1 -4.76272 -2.40833 0
M  V30 13566 O 1305.32 -4.42389 -3.60066 0
M  V30 13567 O 1304.26 -5.64334 -2.09309 0
M  V30 13568 H 1308.08 -3.03644 -0.0582069 0
M  V30 13569 H 1305.67 -1.49354 0.0370966 0
M  V30 13570 H 1307.55 -3.40461 -2.48322 0
M  V30 13571 H 1306.23 -2.21505 -2.36045 0
M  V30 13572 H 1305.13 -3.69605 -0.578154 0
M  V30 13573 H 1306.47 -4.85978 -0.780117 0
M  V30 13574 N 1308.12 0.00332656 -1.576 0
M  V30 13575 C 1309.4 0.725722 -1.81639 0
M  V30 13576 C 1309.78 1.92173 -0.87365 0
M  V30 13577 O 1309.12 2.28365 0.0783931 0
M  V30 13578 C 1309.33 1.13458 -3.30043 0
M  V30 13579 C 1310.68 1.53982 -3.95695 0
M  V30 13580 O 1311.71 1.22846 -3.34346 0
M  V30 13581 O 1310.56 2.11866 -5.03761 0
M  V30 13582 H 1307.66 0.353083 -0.747838 0
M  V30 13583 H 1310.2 -0.0218724 -1.69686 0
M  V30 13584 H 1308.98 0.281925 -3.90283 0
M  V30 13585 H 1308.6 1.94138 -3.46982 0
M  V30 13586 N 1309.6 1.55164 0.276031 0
M  V30 13587 C 1310.87 1.66338 1.02913 0
M  V30 13588 C 1311.25 0.527876 2.04393 0
M  V30 13589 O 1310.6 -0.472437 2.23563 0
M  V30 13590 C 1310.81 3.05427 1.68865 0
M  V30 13591 C 1312.16 3.63075 2.2014 0
M  V30 13592 O 1313.18 3.0804 1.78857 0
M  V30 13593 O 1312.04 4.59492 2.95854 0
M  V30 13594 H 1309.14 0.675446 0.477181 0
M  V30 13595 H 1311.68 1.67504 0.272129 0
M  V30 13596 H 1310.45 3.79514 0.953125 0
M  V30 13597 H 1310.08 3.08147 2.5126 0
M  V30 13598 N 1311.07 -0.540404 1.48045 0
M  V30 13599 C 1312.01 -1.66164 1.57867 0
M  V30 13600 C 1313.02 -1.56058 0.463655 0
M  V30 13601 O 1314.21 -1.62709 0.734038 0
M  V30 13602 C 1311.31 -3.04748 1.48263 0
M  V30 13603 C 1310.48 -3.40441 2.74625 0
M  V30 13604 C 1309.54 -4.58259 2.58621 0
M  V30 13605 O 1308.57 -4.62 3.32482 0
M  V30 13606 N 1309.77 -5.55794 1.67551 0
M  V30 13607 H 1312.53 -1.58179 2.54557 0
M  V30 13608 H 1310.09 -0.727441 1.44637 0
M  V30 13609 H 1312.09 -3.81425 1.35267 0
M  V30 13610 H 1310.66 -3.06868 0.595892 0
M  V30 13611 H 1309.88 -2.53044 3.02262 0
M  V30 13612 H 1311.16 -3.61069 3.58478 0
M  V30 13613 H 1310.56 -5.55541 1.06725 0
M  V30 13614 H 1309.12 -6.3173 1.60499 0
M  V30 13615 N 1312.55 -1.36459 -0.788468 0
M  V30 13616 C 1313.96 -1.27515 -1.3637 0
M  V30 13617 C 1314.31 0.0846251 -1.96017 0
M  V30 13618 O 1313.44 0.98611 -1.92626 0
M  V30 13619 C 1314.03 -2.30903 -2.4793 0
M  V30 13620 C 1312.59 -2.25645 -3.01266 0
M  V30 13621 C 1311.74 -2.15631 -1.74352 0
M  V30 13622 H 1314.69 -1.47324 -0.590039 0
M  V30 13623 H 1314.71 -1.94601 -3.26972 0
M  V30 13624 H 1314.22 -3.29858 -2.04487 0
M  V30 13625 H 1312.33 -1.3016 -3.49126 0
M  V30 13626 H 1312.44 -3.18373 -3.58016 0
M  V30 13627 H 1310.8 -1.61901 -1.96622 0
M  V30 13628 H 1311.59 -3.16475 -1.33036 0
M  V30 13629 N 1314.03 1.01274 -1.20754 0
M  V30 13630 C 1314.96 2.11763 -0.983805 0
M  V30 13631 C 1315.94 1.69869 0.0885635 0
M  V30 13632 O 1317.13 1.94075 -0.0697239 0
M  V30 13633 C 1314.26 3.43087 -0.539287 0
M  V30 13634 C 1313.21 3.9874 -1.55534 0
M  V30 13635 C 1312.54 5.25877 -0.967322 0
M  V30 13636 C 1313.84 4.31688 -2.94012 0
M  V30 13637 H 1315.53 2.30737 -1.90789 0
M  V30 13638 H 1313.08 1.10884 -0.918734 0
M  V30 13639 H 1315.03 4.19773 -0.369979 0
M  V30 13640 H 1313.75 3.23883 0.420435 0
M  V30 13641 H 1312.41 3.24166 -1.71207 0
M  V30 13642 H 1312.06 5.03 0.000448307 0
M  V30 13643 H 1311.76 5.64077 -1.64594 0
M  V30 13644 H 1313.28 6.05215 -0.809167 0
M  V30 13645 H 1314.7 4.99246 -2.81827 0
M  V30 13646 H 1313.1 4.81011 -3.58815 0
M  V30 13647 H 1314.17 3.4029 -3.45442 0
M  V30 13648 N 1315.51 1.01404 1.20644 0
M  V30 13649 C 1316.92 0.73386 1.71672 0
M  V30 13650 C 1317.27 -0.747803 1.8139 0
M  V30 13651 O 1316.4 -1.58372 1.47469 0
M  V30 13652 C 1316.99 1.32549 3.11795 0
M  V30 13653 C 1315.55 1.09423 3.60144 0
M  V30 13654 C 1314.7 1.43275 2.37419 0
M  V30 13655 H 1317.65 1.18383 1.05694 0
M  V30 13656 H 1317.67 0.714749 3.73727 0
M  V30 13657 H 1317.18 2.40386 3.0469 0
M  V30 13658 H 1315.28 0.0334113 3.72585 0
M  V30 13659 H 1315.4 1.77248 4.45107 0
M  V30 13660 H 1313.76 0.851714 2.40037 0
M  V30 13661 H 1314.54 2.52163 2.32957 0
M  V30 13662 N 1316.99 -1.36373 0.789944 0
M  V30 13663 C 1318.24 -1.98834 0.361866 0
M  V30 13664 C 1318.56 -1.63006 -1.07024 0
M  V30 13665 O 1317.83 -0.904312 -1.73779 0
M  V30 13666 H 1316.41 -0.735457 0.130812 0
M  V30 13667 H 1319.07 -1.66561 1.0121 0
M  V30 13668 H 1318.16 -3.08778 0.454122 0
M  V30 13669 N 1318.47 -0.542005 -1.47987 0
M  V30 13670 C 1319.71 -0.0123299 -2.02796 0
M  V30 13671 C 1320.04 1.32789 -1.41707 0
M  V30 13672 O 1319.32 1.86048 -0.567119 0
M  V30 13673 C 1319.6 0.0969277 -3.5997 0
M  V30 13674 C 1319.46 -1.26931 -4.31519 0
M  V30 13675 C 1320.77 0.817854 -4.32434 0
M  V30 13676 H 1317.89 -0.00595479 -0.736976 0
M  V30 13677 H 1320.54 -0.70136 -1.76581 0
M  V30 13678 H 1318.69 0.683755 -3.82436 0
M  V30 13679 H 1320.36 -1.89817 -4.20437 0
M  V30 13680 H 1318.6 -1.84804 -3.92467 0
M  V30 13681 H 1319.27 -1.14573 -5.39979 0
M  V30 13682 H 1321.75 0.319749 -4.1487 0
M  V30 13683 H 1320.62 0.863225 -5.4207 0
M  V30 13684 H 1320.88 1.87075 -4.00569 0
M  V30 13685 N 1319.94 1.55134 -0.277709 0
M  V30 13686 C 1320.87 2.256 0.602232 0
M  V30 13687 C 1321.85 1.24708 1.15681 0
M  V30 13688 O 1323.04 1.53433 1.19046 0
M  V30 13689 C 1320.17 2.97907 1.78519 0
M  V30 13690 C 1319.12 4.0575 1.36203 0
M  V30 13691 C 1318.45 4.65644 2.62829 0
M  V30 13692 C 1319.75 5.19801 0.510327 0
M  V30 13693 H 1321.44 2.99396 0.0145622 0
M  V30 13694 H 1318.99 1.43999 0.00556389 0
M  V30 13695 H 1320.94 3.45915 2.40668 0
M  V30 13696 H 1319.67 2.21649 2.39873 0
M  V30 13697 H 1318.33 3.58557 0.763726 0
M  V30 13698 H 1317.97 3.86053 3.22447 0
M  V30 13699 H 1317.67 5.38463 2.35227 0
M  V30 13700 H 1319.2 5.16403 3.25823 0
M  V30 13701 H 1320.61 5.63845 1.03689 0
M  V30 13702 H 1319.01 5.99197 0.329073 0
M  V30 13703 H 1320.08 4.82614 -0.470273 0
M  V30 13704 N 1321.42 0.00503138 1.57599 0
M  V30 13705 C 1322.35 -0.983586 2.11773 0
M  V30 13706 C 1323.33 -1.35518 1.02805 0
M  V30 13707 O 1324.52 -1.43804 1.30514 0
M  V30 13708 C 1321.65 -2.27383 2.62515 0
M  V30 13709 C 1320.6 -2.0437 3.76054 0
M  V30 13710 C 1319.93 -3.39451 4.1313 0
M  V30 13711 C 1321.23 -1.40223 5.03125 0
M  V30 13712 H 1322.92 -0.532501 2.94627 0
M  V30 13713 H 1320.47 -0.254696 1.4173 0
M  V30 13714 H 1322.42 -2.96903 2.99043 0
M  V30 13715 H 1321.14 -2.74614 1.7679 0
M  V30 13716 H 1319.8 -1.37275 3.39928 0
M  V30 13717 H 1319.45 -3.84395 3.24422 0
M  V30 13718 H 1319.15 -3.24868 4.89627 0
M  V30 13719 H 1320.68 -4.10279 4.52221 0
M  V30 13720 H 1322.09 -1.99708 5.37392 0
M  V30 13721 H 1320.49 -1.36112 5.8446 0
M  V30 13722 H 1321.56 -0.372073 4.8347 0
M  V30 13723 N 1322.9 -1.55308 -0.267798 0
M  V30 13724 C 1324.12 -1.80524 -1.02107 0
M  V30 13725 C 1324.55 -0.579268 -1.78958 0
M  V30 13726 O 1323.91 0.471262 -1.75068 0
M  V30 13727 C 1323.96 -3.03248 -1.95123 0
M  V30 13728 O 1323.06 -2.78699 -3.03975 0
M  V30 13729 H 1322.4 -0.596518 -0.291655 0
M  V30 13730 H 1324.93 -2.0246 -0.295128 0
M  V30 13731 H 1324.94 -3.32121 -2.3698 0
M  V30 13732 H 1323.62 -3.92126 -1.386 0
M  V30 13733 H 1322.19 -2.60936 -2.66396 0
M  V30 13734 N 1324.38 0.532545 -1.4833 0
M  V30 13735 C 1325.31 1.64662 -1.65555 0
M  V30 13736 C 1326.29 1.62447 -0.50447 0
M  V30 13737 O 1327.47 1.79684 -0.736712 0
M  V30 13738 C 1324.6 3.03256 -1.69272 0
M  V30 13739 C 1323.56 3.20329 -2.83854 0
M  V30 13740 C 1322.88 4.59958 -2.72659 0
M  V30 13741 C 1324.18 3.03345 -4.25181 0
M  V30 13742 H 1325.88 1.50502 -2.58823 0
M  V30 13743 H 1323.42 0.722612 -1.24556 0
M  V30 13744 H 1325.38 3.81064 -1.79911 0
M  V30 13745 H 1324.1 3.18433 -0.725805 0
M  V30 13746 H 1322.76 2.44937 -2.72766 0
M  V30 13747 H 1322.41 4.71967 -1.73942 0
M  V30 13748 H 1322.11 4.72327 -3.49544 0
M  V30 13749 H 1323.63 5.39869 -2.85262 0
M  V30 13750 H 1325.05 3.70948 -4.37116 0
M  V30 13751 H 1323.44 3.27208 -5.03045 0
M  V30 13752 H 1324.51 1.998 -4.41824 0
M  V30 13753 N 1325.86 1.36875 0.78122 0
M  V30 13754 C 1327.08 1.349 1.57533 0
M  V30 13755 C 1327.51 -0.0655249 1.87986 0
M  V30 13756 O 1326.86 -1.03986 1.48515 0
M  V30 13757 C 1326.91 2.18562 2.86815 0
M  V30 13758 O 1326.02 1.58374 3.80777 0
M  V30 13759 H 1325.36 0.461355 0.477543 0
M  V30 13760 H 1327.89 1.80271 0.96766 0
M  V30 13761 H 1327.9 2.31436 3.36008 0
M  V30 13762 H 1326.57 3.21385 2.63978 0
M  V30 13763 H 1325.15 1.54487 3.39394 0
M  V30 13764 N 1327.33 -1.00632 1.21289 0
M  V30 13765 C 1328.58 -1.74044 1.02728 0
M  V30 13766 C 1328.9 -1.89963 -0.440351 0
M  V30 13767 O 1328.17 -1.44958 -1.31772 0
M  V30 13768 H 1326.75 -0.644813 0.377127 0
M  V30 13769 H 1329.41 -1.21272 1.52575 0
M  V30 13770 H 1328.51 -2.74011 1.49413 0
M  V30 13771 N 1328.81 -1.02043 -1.20104 0
M  V30 13772 C 1330.06 -0.710566 -1.89197 0
M  V30 13773 C 1330.38 0.762471 -1.79475 0
M  V30 13774 O 1329.65 1.54871 -1.19965 0
M  V30 13775 H 1328.23 -0.259839 -0.700352 0
M  V30 13776 H 1330.89 -1.29285 -1.45848 0
M  V30 13777 H 1329.99 -0.997363 -2.95735 0
M  V30 13778 N 1330.29 1.35952 -0.797165 0
M  V30 13779 C 1331.22 2.32506 -0.215277 0
M  V30 13780 C 1332.2 1.57023 0.654046 0
M  V30 13781 O 1333.39 1.85139 0.586268 0
M  V30 13782 C 1330.52 3.41266 0.644557 0
M  V30 13783 C 1329.47 4.27816 -0.125501 0
M  V30 13784 C 1328.8 5.27813 0.855428 0
M  V30 13785 C 1330.1 5.05367 -1.31913 0
M  V30 13786 H 1331.79 2.8142 -1.02193 0
M  V30 13787 H 1329.34 1.35303 -0.492862 0
M  V30 13788 H 1331.29 4.07808 1.06163 0
M  V30 13789 H 1330.01 2.90938 1.484 0
M  V30 13790 H 1328.67 3.62841 -0.523639 0
M  V30 13791 H 1328.32 4.73755 1.69011 0
M  V30 13792 H 1328.02 5.86589 0.344566 0
M  V30 13793 H 1329.54 5.97227 1.2709 0
M  V30 13794 H 1330.96 5.64907 -0.977418 0
M  V30 13795 H 1329.36 5.73593 -1.76382 0
M  V30 13796 H 1330.43 4.36558 -2.11057 0
M  V30 13797 N 1331.77 0.549846 1.47697 0
M  V30 13798 C 1333.02 0.0230503 2.02487 0
M  V30 13799 C 1333.34 -1.32382 1.42497 0
M  V30 13800 O 1332.6 -1.87293 0.567441 0
M  V30 13801 C 1332.9 -0.127268 3.57173 0
M  V30 13802 C 1332.56 1.14777 4.36047 0
M  V30 13803 C 1331.23 1.49716 4.57317 0
M  V30 13804 C 1333.58 1.99302 4.81589 0
M  V30 13805 C 1330.91 2.69042 5.21376 0
M  V30 13806 C 1333.26 3.17824 5.46965 0
M  V30 13807 C 1331.92 3.53086 5.66469 0
M  V30 13808 H 1331.19 0.00843471 0.740952 0
M  V30 13809 H 1333.84 0.719876 1.77454 0
M  V30 13810 H 1332.14 -0.907008 3.81157 0
M  V30 13811 H 1333.84 -0.550103 3.97209 0
M  V30 13812 H 1330.43 0.865703 4.19766 0
M  V30 13813 H 1334.61 1.73618 4.64942 0
M  V30 13814 H 1329.87 2.9654 5.34672 0
M  V30 13815 H 1334.04 3.83612 5.81218 0
M  V30 13816 H 1331.67 4.45643 6.15878 0
M  V30 13817 N 1333.25 -1.54984 0.285932 0
M  V30 13818 C 1334.66 -1.59455 -0.0679061 0
M  V30 13819 C 1334.86 -1.30308 -1.53695 0
M  V30 13820 O 1333.92 -1.06918 -2.28746 0
M  V30 13821 C 1335.23 -2.9903 0.316469 0
M  V30 13822 C 1336.78 -3.11885 0.263982 0
M  V30 13823 C 1337.25 -4.53744 0.622956 0
M  V30 13824 N 1338.75 -4.59618 0.574917 0
M  V30 13825 C 1339.48 -5.67429 0.825339 0
M  V30 13826 N 1338.98 -6.83341 1.14094 0
M  V30 13827 N 1340.77 -5.57028 0.75341 0
M  V30 13828 H 1332.92 -1.72194 1.2435 0
M  V30 13829 H 1335.18 -0.80348 0.503114 0
M  V30 13830 H 1334.89 -3.25232 1.33855 0
M  V30 13831 H 1334.76 -3.75688 -0.337371 0
M  V30 13832 H 1337.15 -2.85441 -0.748832 0
M  V30 13833 H 1337.23 -2.37416 0.952233 0
M  V30 13834 H 1336.88 -4.80915 1.63351 0
M  V30 13835 H 1336.81 -5.26528 -0.0872039 0
M  V30 13836 H 1339.3 -3.76356 0.341305 0
M  V30 13837 H 1339.61 -7.61471 1.3184 0
M  V30 13838 H 1337.95 -6.8493 1.17883 0
M  V30 13839 H 1341.15 -4.6535 0.506611 0
M  V30 13840 H 1341.32 -6.4097 0.95195 0
M  V30 13841 N 1334.72 -0.0133892 -1.57594 0
M  V30 13842 C 1335.95 0.682855 -1.95836 0
M  V30 13843 C 1336.37 1.65763 -0.889049 0
M  V30 13844 O 1335.73 1.80665 0.151585 0
M  V30 13845 C 1335.78 1.37931 -3.33178 0
M  V30 13846 O 1334.88 2.49416 -3.28429 0
M  V30 13847 H 1334.23 0.180629 -0.638959 0
M  V30 13848 H 1336.76 -0.0705644 -2.04478 0
M  V30 13849 H 1336.77 1.73969 -3.69051 0
M  V30 13850 H 1335.44 0.664675 -4.10554 0
M  V30 13851 H 1334.02 2.15606 -3.04251 0
M  V30 13852 N 1336.2 1.55448 0.259558 0
M  V30 13853 C 1337.15 1.90056 1.34096 0
M  V30 13854 C 1338.14 0.778267 1.50464 0
M  V30 13855 O 1339.35 0.962758 1.52089 0
M  V30 13856 H 1335.73 0.603424 0.448758 0
M  V30 13857 H 1337.7 2.80365 1.02166 0
M  V30 13858 C 1336.45 2.20074 2.69189 0
M  V30 13859 H 1335.77 3.05926 2.57389 0
M  V30 13860 H 1337.21 2.48201 3.43762 0
M  V30 13861 C 1335.67 1.01281 3.21316 0
M  V30 13862 O 1336.2 0.2543 4.00894 0
M  V30 13863 N 1334.4 0.806855 2.79174 0
M  V30 13864 H 1333.95 1.42536 2.14572 0
M  V30 13865 H 1333.91 0.0136714 3.14397 0
M  V30 13866 N 1337.68 -0.524672 1.4861 0
M  V30 13867 C 1338.61 -1.63782 1.66426 0
M  V30 13868 C 1339.59 -1.62177 0.513077 0
M  V30 13869 O 1340.78 -1.7929 0.74623 0
M  V30 13870 C 1337.91 -3.02354 1.70877 0
M  V30 13871 C 1336.86 -3.18819 2.85549 0
M  V30 13872 C 1336.19 -4.58506 2.75094 0
M  V30 13873 C 1337.49 -3.01086 4.26784 0
M  V30 13874 H 1339.18 -1.49127 2.59618 0
M  V30 13875 H 1336.73 -0.715997 1.24938 0
M  V30 13876 H 1338.68 -3.80105 1.81929 0
M  V30 13877 H 1337.4 -3.18044 0.742682 0
M  V30 13878 H 1336.06 -2.43487 2.74061 0
M  V30 13879 H 1335.71 -4.71038 1.76443 0
M  V30 13880 H 1335.41 -4.70466 3.52044 0
M  V30 13881 H 1336.93 -5.38348 2.88121 0
M  V30 13882 H 1338.35 -3.68624 4.39077 0
M  V30 13883 H 1336.75 -3.24536 5.04774 0
M  V30 13884 H 1337.82 -1.97454 4.42877 0
M  V30 13885 N 1339.16 -1.37287 -0.77395 0
M  V30 13886 C 1340.09 -1.35569 -1.90114 0
M  V30 13887 C 1341.07 -0.224658 -1.6861 0
M  V30 13888 O 1342.25 -0.424676 -1.895 0
M  V30 13889 C 1339.38 -1.15971 -3.27365 0
M  V30 13890 C 1338.34 -2.26063 -3.63427 0
M  V30 13891 C 1337.66 -1.9159 -4.99197 0
M  V30 13892 C 1338.96 -3.68236 -3.70405 0
M  V30 13893 H 1340.66 -2.29891 -1.91808 0
M  V30 13894 H 1338.2 -1.10661 -0.92142 0
M  V30 13895 H 1340.16 -1.134 -4.05855 0
M  V30 13896 H 1338.88 -0.181043 -3.26098 0
M  V30 13897 H 1337.54 -2.27786 -2.87244 0
M  V30 13898 H 1337.19 -0.922586 -4.94467 0
M  V30 13899 H 1336.89 -2.65309 -5.24294 0
M  V30 13900 H 1338.41 -1.90602 -5.80089 0
M  V30 13901 H 1339.83 -3.68655 -4.39052 0
M  V30 13902 H 1338.22 -4.4099 -4.06999 0
M  V30 13903 H 1339.29 -4.02021 -2.71122 0
M  V30 13904 N 1340.64 0.999871 -1.21821 0
M  V30 13905 C 1341.86 1.77405 -1.06467 0
M  V30 13906 C 1342.28 1.84828 0.385227 0
M  V30 13907 O 1341.64 1.31338 1.26714 0
M  V30 13908 C 1341.69 3.21062 -1.66137 0
M  V30 13909 O 1341.41 3.14054 -3.05454 0
M  V30 13910 C 1342.91 4.14958 -1.55963 0
M  V30 13911 H 1340.13 0.557368 -0.373607 0
M  V30 13912 H 1342.67 1.2575 -1.61267 0
M  V30 13913 H 1340.83 3.69808 -1.15416 0
M  V30 13914 H 1341.24 4.04346 -3.34073 0
M  V30 13915 H 1342.72 5.13536 -2.02448 0
M  V30 13916 H 1343.19 4.36171 -0.514949 0
M  V30 13917 H 1343.8 3.72105 -2.05956 0
M  V30 13918 N 1342.11 1.02678 1.19562 0
M  V30 13919 C 1343.05 0.563882 2.22155 0
M  V30 13920 C 1344.06 -0.359132 1.58789 0
M  V30 13921 O 1345.25 -0.155857 1.77818 0
M  V30 13922 C 1342.35 -0.197894 3.38322 0
M  V30 13923 C 1341.52 0.729542 4.31273 0
M  V30 13924 C 1340.58 0.013543 5.26198 0
M  V30 13925 O 1339.61 0.639417 5.65597 0
M  V30 13926 N 1340.81 -1.25791 5.66707 0
M  V30 13927 H 1343.57 1.44623 2.62496 0
M  V30 13928 H 1341.13 0.90555 1.34207 0
M  V30 13929 H 1343.13 -0.686381 3.98837 0
M  V30 13930 H 1341.7 -0.981632 2.96787 0
M  V30 13931 H 1340.92 1.39816 3.68572 0
M  V30 13932 H 1342.2 1.35994 4.90289 0
M  V30 13933 H 1341.6 -1.78716 5.36728 0
M  V30 13934 H 1340.16 -1.69093 6.29485 0
M  V30 13935 N 1343.59 -1.35528 0.804364 0
M  V30 13936 C 1344.87 -1.93175 0.307049 0
M  V30 13937 C 1345.25 -1.73466 -1.20303 0
M  V30 13938 O 1344.6 -1.10235 -2.00151 0
M  V30 13939 C 1344.81 -3.41576 0.716018 0
M  V30 13940 C 1346.16 -4.18719 0.704242 0
M  V30 13941 O 1347.18 -3.50081 0.657423 0
M  V30 13942 O 1346.04 -5.41181 0.760601 0
M  V30 13943 H 1343.13 -0.823142 0.0797888 0
M  V30 13944 H 1345.68 -1.44617 0.887912 0
M  V30 13945 H 1344.45 -3.49642 1.75688 0
M  V30 13946 H 1344.07 -3.97448 0.109843 0
M  V30 13947 N 1345.07 -0.557671 -1.47404 0
M  V30 13948 C 1346.02 0.202834 -2.31714 0
M  V30 13949 C 1347.01 0.908873 -1.42954 0
M  V30 13950 O 1348.22 0.830106 -1.59716 0
M  V30 13951 H 1344.59 0.0842824 -0.747262 0
M  V30 13952 H 1346.57 -0.527431 -2.93702 0
M  V30 13953 C 1345.31 1.21937 -3.25617 0
M  V30 13954 H 1344.64 0.685506 -3.93879 0
M  V30 13955 H 1346.08 1.72237 -3.87441 0
M  V30 13956 C 1344.54 2.26748 -2.49173 0
M  V30 13957 O 1345.07 3.33681 -2.23651 0
M  V30 13958 N 1343.27 2.00687 -2.10174 0
M  V30 13959 H 1342.82 1.13741 -2.3113 0
M  V30 13960 H 1342.78 2.71031 -1.59342 0
M  V30 13961 N 1346.55 1.54831 -0.294147 0
M  V30 13962 C 1347.8 1.99606 0.316509 0
M  V30 13963 C 1348.12 1.18405 1.54936 0
M  V30 13964 O 1347.39 0.278289 1.93913 0
M  V30 13965 H 1345.97 0.737309 0.119938 0
M  V30 13966 H 1348.63 1.90669 -0.403891 0
M  V30 13967 H 1347.73 3.06409 0.593282 0
M  V30 13968 N 1348.03 0.0217466 1.57585 0
M  V30 13969 C 1349.28 -0.657793 1.90672 0
M  V30 13970 C 1349.59 -1.73713 0.899066 0
M  V30 13971 O 1350.8 -2.4728 1.12092 0
M  V30 13972 C 1349.25 -1.22124 3.38547 0
M  V30 13973 C 1348.86 -0.175575 4.47656 0
M  V30 13974 C 1350.6 -1.87771 3.80713 0
M  V30 13975 C 1348.51 -0.750239 5.86622 0
M  V30 13976 H 1347.44 -0.249459 0.711538 0
M  V30 13977 H 1350.09 0.0858449 1.83299 0
M  V30 13978 H 1348.47 -2.01625 3.40828 0
M  V30 13979 H 1349.65 0.596436 4.56924 0
M  V30 13980 H 1347.96 0.381715 4.14647 0
M  V30 13981 H 1350.56 -2.3171 4.81887 0
M  V30 13982 H 1350.9 -2.71737 3.1538 0
M  V30 13983 H 1351.44 -1.14971 3.80823 0
M  V30 13984 H 1348.17 0.0511222 6.5548 0
M  V30 13985 H 1347.69 -1.49091 5.80975 0
M  V30 13986 H 1349.37 -1.24225 6.34962 0
M  V30 13987 N 1349.51 -1.55583 -0.251311 0
M  V30 13988 C 1350.44 -1.9296 -1.31486 0
M  V30 13989 C 1351.42 -0.794001 -1.50431 0
M  V30 13990 O 1352.6 -1.05393 -1.63113 0
M  V30 13991 C 1349.73 -2.22046 -2.67045 0
M  V30 13992 C 1348.69 -3.37816 -2.62801 0
M  V30 13993 C 1348.01 -3.52433 -4.02113 0
M  V30 13994 C 1349.31 -4.73626 -2.20171 0
M  V30 13995 H 1351.01 -2.82046 -1.00451 0
M  V30 13996 H 1348.55 -1.35702 -0.481775 0
M  V30 13997 H 1350.5 -2.46783 -3.41579 0
M  V30 13998 H 1349.23 -1.29782 -2.99707 0
M  V30 13999 H 1347.89 -3.13081 -1.90724 0
M  V30 14000 H 1347.54 -2.57597 -4.32034 0
M  V30 14001 H 1347.24 -4.30283 -4.00163 0
M  V30 14002 H 1348.76 -3.79486 -4.78354 0
M  V30 14003 H 1350.17 -4.97764 -2.84436 0
M  V30 14004 H 1348.57 -5.54547 -2.29341 0
M  V30 14005 H 1349.64 -4.70985 -1.1533 0
M  V30 14006 N 1350.98 0.516783 -1.48886 0
M  V30 14007 C 1352.21 1.29628 -1.61258 0
M  V30 14008 C 1352.63 1.86744 -0.27786 0
M  V30 14009 O 1351.98 1.67061 0.734639 0
M  V30 14010 C 1352.03 2.43779 -2.66935 0
M  V30 14011 O 1351.76 1.89014 -3.95228 0
M  V30 14012 C 1353.26 3.35398 -2.89867 0
M  V30 14013 H 1350.48 0.393736 -0.543335 0
M  V30 14014 H 1353.02 0.622069 -1.94809 0
M  V30 14015 H 1351.18 3.0706 -2.36206 0
M  V30 14016 H 1351.59 2.63833 -4.53312 0
M  V30 14017 H 1353.06 4.11812 -3.6758 0
M  V30 14018 H 1353.54 3.91436 -1.99185 0
M  V30 14019 H 1354.15 2.77898 -3.21952 0
M  V30 14020 N 1352.46 1.37696 0.766659 0
M  V30 14021 C 1353.71 1.33185 1.52539 0
M  V30 14022 C 1354.04 -0.0821239 1.94327 0
M  V30 14023 O 1353.29 -1.05645 1.64735 0
M  V30 14024 C 1353.59 2.22154 2.79968 0
M  V30 14025 C 1353.26 3.70344 2.57208 0
M  V30 14026 C 1351.92 4.10729 2.50709 0
M  V30 14027 C 1354.27 4.64205 2.36988 0
M  V30 14028 C 1351.6 5.43082 2.21988 0
M  V30 14029 C 1353.95 5.96801 2.0979 0
M  V30 14030 C 1352.61 6.36284 2.01739 0
M  V30 14031 H 1351.88 0.487357 0.558179 0
M  V30 14032 H 1354.53 1.69945 0.882662 0
M  V30 14033 H 1352.84 1.78406 3.48825 0
M  V30 14034 H 1354.53 2.15975 3.37869 0
M  V30 14035 H 1351.12 3.38319 2.63131 0
M  V30 14036 H 1355.31 4.3386 2.40996 0
M  V30 14037 H 1350.56 5.7263 2.14254 0
M  V30 14038 H 1354.74 6.6908 1.93145 0
M  V30 14039 H 1352.36 7.38765 1.79248 0
M  V30 14040 N 1353.94 -0.993397 1.22349 0
M  V30 14041 C 1355.16 -1.77373 1.07488 0
M  V30 14042 C 1355.59 -1.84418 -0.37034 0
M  V30 14043 O 1354.95 -1.29629 -1.26752 0
M  V30 14044 C 1355 -3.18538 1.69014 0
M  V30 14045 O 1354.1 -4.01463 0.943474 0
M  V30 14046 H 1353.44 -0.546209 0.37756 0
M  V30 14047 H 1355.97 -1.24792 1.62136 0
M  V30 14048 H 1355.98 -3.6917 1.73717 0
M  V30 14049 H 1354.66 -3.12725 2.74182 0
M  V30 14050 H 1353.23 -3.59998 0.972415 0
M  V30 14051 N 1355.42 -1.03311 -1.19015 0
M  V30 14052 C 1356.37 -0.611169 -2.24427 0
M  V30 14053 C 1357.36 0.358303 -1.65567 0
M  V30 14054 O 1358.57 0.22642 -1.7857 0
M  V30 14055 H 1354.94 -0.179393 -0.730289 0
M  V30 14056 H 1356.91 -1.51077 -2.57329 0
M  V30 14057 C 1355.66 0.0178126 -3.47695 0
M  V30 14058 H 1354.98 -0.71921 -3.93278 0
M  V30 14059 H 1356.42 0.275926 -4.23101 0
M  V30 14060 C 1354.88 1.26564 -3.12223 0
M  V30 14061 O 1355.41 2.35725 -3.25264 0
M  V30 14062 N 1353.62 1.15602 -2.66617 0
M  V30 14063 H 1353.17 0.267736 -2.56205 0
M  V30 14064 H 1353.12 1.99186 -2.43254 0
M  V30 14065 N 1356.9 1.35099 -0.81154 0
M  V30 14066 C 1357.83 2.32264 -0.239925 0
M  V30 14067 C 1358.81 1.57708 0.637354 0
M  V30 14068 O 1359.99 1.85751 0.566598 0
M  V30 14069 C 1357.12 3.41931 0.608325 0
M  V30 14070 C 1356.08 4.27659 -0.170869 0
M  V30 14071 C 1355.4 5.28691 0.799398 0
M  V30 14072 C 1356.7 5.0394 -1.37266 0
M  V30 14073 H 1358.4 2.8032 -1.05172 0
M  V30 14074 H 1355.94 1.34773 -0.507185 0
M  V30 14075 H 1357.89 4.08911 1.01832 0
M  V30 14076 H 1356.62 2.92496 1.45306 0
M  V30 14077 H 1355.28 3.62265 -0.562094 0
M  V30 14078 H 1354.93 4.75521 1.63977 0
M  V30 14079 H 1354.63 5.86921 0.282331 0
M  V30 14080 H 1356.15 5.98542 1.20749 0
M  V30 14081 H 1357.56 5.63838 -1.03728 0
M  V30 14082 H 1355.96 5.7169 -1.82456 0
M  V30 14083 H 1357.03 4.34295 -2.15676 0
M  V30 14084 N 1358.37 0.56548 1.47106 0
M  V30 14085 C 1359.6 0.0476763 2.07345 0
M  V30 14086 C 1360.02 -1.24032 1.41413 0
M  V30 14087 O 1359.38 -1.74498 0.491941 0
M  V30 14088 C 1359.43 -0.122618 3.60391 0
M  V30 14089 O 1358.53 -1.18326 3.9506 0
M  V30 14090 H 1357.87 0.0550419 0.661715 0
M  V30 14091 H 1360.4 0.78352 1.89003 0
M  V30 14092 H 1360.41 -0.334227 4.06629 0
M  V30 14093 H 1359.09 0.81807 4.07775 0
M  V30 14094 H 1357.67 -0.951481 3.60557 0
M  V30 14095 N 1359.85 -1.54672 0.302354 0
M  V30 14096 C 1361.26 -1.85731 -0.190019 0
M  V30 14097 C 1361.61 -1.22427 -1.53317 0
M  V30 14098 O 1360.74 -0.522461 -2.09998 0
M  V30 14099 C 1361.33 -3.36971 -0.351562 0
M  V30 14100 C 1359.89 -3.68056 -0.788155 0
M  V30 14101 C 1359.04 -2.7711 0.102705 0
M  V30 14102 H 1361.99 -1.49823 0.523324 0
M  V30 14103 H 1362.01 -3.61547 -1.18592 0
M  V30 14104 H 1361.52 -3.83016 0.626152 0
M  V30 14105 H 1359.63 -3.2753 -1.77637 0
M  V30 14106 H 1359.74 -4.75244 -0.606604 0
M  V30 14107 H 1358.1 -2.51243 -0.418235 0
M  V30 14108 H 1358.89 -3.25975 1.0768 0
M  V30 14109 N 1361.33 -0.0301034 -1.57571 0
M  V30 14110 C 1362.58 0.647042 -1.91462 0
M  V30 14111 C 1362.9 1.72612 -0.907206 0
M  V30 14112 O 1362.17 1.95833 0.0511268 0
M  V30 14113 H 1360.75 0.241988 -0.706718 0
M  V30 14114 H 1363.41 -0.0781385 -1.94743 0
M  V30 14115 H 1362.51 1.09915 -2.92105 0
M  V30 14116 N 1362.81 1.55714 0.243056 0
M  V30 14117 C 1363.74 1.87093 1.32396 0
M  V30 14118 C 1364.75 0.757482 1.44104 0
M  V30 14119 O 1365.94 1.03563 1.45386 0
M  V30 14120 C 1363.04 2.04546 2.70212 0
M  V30 14121 C 1362.22 3.3543 2.80723 0
M  V30 14122 C 1361.27 3.42578 3.99408 0
M  V30 14123 O 1360.3 4.15762 3.88755 0
M  V30 14124 N 1361.5 2.7215 5.12752 0
M  V30 14125 H 1364.27 2.80399 1.05813 0
M  V30 14126 H 1361.83 1.55998 0.433151 0
M  V30 14127 H 1363.82 2.06665 3.47954 0
M  V30 14128 H 1362.39 1.17966 2.89487 0
M  V30 14129 H 1361.61 3.45594 1.89626 0
M  V30 14130 H 1362.9 4.21692 2.84698 0
M  V30 14131 H 1362.3 2.1243 5.24299 0
M  V30 14132 H 1360.85 2.79957 5.88615 0
M  V30 14133 N 1364.29 -0.50888 1.49158 0
M  V30 14134 C 1365.52 -1.28585 1.61708 0
M  V30 14135 C 1365.92 -1.87047 0.284629 0
M  V30 14136 O 1365.27 -1.68182 -0.738959 0
M  V30 14137 C 1365.33 -2.46043 2.62113 0
M  V30 14138 C 1364.99 -2.0851 4.0666 0
M  V30 14139 C 1365.99 -1.62943 4.93706 0
M  V30 14140 C 1363.68 -2.18386 4.52342 0
M  V30 14141 C 1365.67 -1.27747 6.24467 0
M  V30 14142 C 1363.36 -1.82801 5.83118 0
M  V30 14143 C 1364.35 -1.37555 6.69005 0
M  V30 14144 O 1364.04 -1.02447 7.97345 0
M  V30 14145 H 1363.77 -0.396504 0.547504 0
M  V30 14146 H 1366.33 -0.61834 1.95872 0
M  V30 14147 H 1364.56 -3.15844 2.23113 0
M  V30 14148 H 1366.25 -3.08081 2.64275 0
M  V30 14149 H 1367.01 -1.54766 4.59644 0
M  V30 14150 H 1362.89 -2.52556 3.85664 0
M  V30 14151 H 1366.44 -0.923589 6.91459 0
M  V30 14152 H 1362.33 -1.90626 6.16711 0
M  V30 14153 H 1363.1 -1.15663 8.10287 0
M  V30 14154 N 1365.76 -1.381 -0.759346 0
M  V30 14155 C 1366.99 -1.37014 -1.54631 0
M  V30 14156 C 1367.4 0.0433843 -1.8915 0
M  V30 14157 O 1366.75 1.01888 -1.52855 0
M  V30 14158 C 1366.81 -2.15575 -2.87693 0
M  V30 14159 C 1366.47 -3.64438 -2.75743 0
M  V30 14160 C 1367.47 -4.58055 -2.45929 0
M  V30 14161 C 1365.15 -4.0772 -2.93376 0
M  V30 14162 C 1367.15 -5.92935 -2.33894 0
M  V30 14163 C 1364.83 -5.42682 -2.80961 0
M  V30 14164 C 1365.83 -6.35103 -2.51262 0
M  V30 14165 O 1365.52 -7.67583 -2.38896 0
M  V30 14166 H 1365.25 -0.47062 -0.485276 0
M  V30 14167 H 1367.81 -1.82214 -0.948 0
M  V30 14168 H 1366.04 -1.65084 -3.49691 0
M  V30 14169 H 1367.73 -2.06968 -3.49169 0
M  V30 14170 H 1368.49 -4.25923 -2.3198 0
M  V30 14171 H 1364.37 -3.36135 -3.15491 0
M  V30 14172 H 1367.91 -6.65041 -2.10634 0
M  V30 14173 H 1363.81 -5.74413 -2.94482 0
M  V30 14174 H 1364.58 -7.78042 -2.54152 0
M  V30 14175 N 1367.24 0.986894 -1.22875 0
M  V30 14176 C 1368.49 1.72729 -1.05693 0
M  V30 14177 C 1368.82 1.90191 0.407121 0
M  V30 14178 O 1368.07 1.44667 1.31796 0
M  V30 14179 C 1368.37 3.13283 -1.72012 0
M  V30 14180 C 1368.04 3.15719 -3.2192 0
M  V30 14181 C 1366.7 3.1609 -3.62823 0
M  V30 14182 C 1369.05 3.11539 -4.17843 0
M  V30 14183 C 1366.38 3.09991 -4.98119 0
M  V30 14184 C 1368.73 3.06982 -5.53123 0
M  V30 14185 C 1367.4 3.05672 -5.93397 0
M  V30 14186 H 1366.67 0.63206 -0.386758 0
M  V30 14187 H 1369.31 1.15538 -1.52719 0
M  V30 14188 H 1367.62 3.7382 -1.17327 0
M  V30 14189 H 1369.31 3.69326 -1.56203 0
M  V30 14190 H 1365.9 3.16183 -2.89355 0
M  V30 14191 H 1370.09 3.10397 -3.87256 0
M  V30 14192 H 1365.34 3.07326 -5.28546 0
M  V30 14193 H 1369.52 3.02705 -6.27171 0
M  V30 14194 H 1367.15 3.00701 -6.982 0
M  V30 14195 N 1368.72 1.0394 1.18466 0
M  V30 14196 C 1369.67 0.629352 2.22054 0
M  V30 14197 C 1370.64 -0.362187 1.62103 0
M  V30 14198 O 1371.82 -0.256457 1.89069 0
M  V30 14199 C 1368.96 -0.00282888 3.451 0
M  V30 14200 C 1368.08 1.03602 4.19393 0
M  V30 14201 C 1367.21 0.372492 5.29892 0
M  V30 14202 C 1366.25 1.39652 5.95956 0
M  V30 14203 N 1365.39 0.758053 6.97996 0
M  V30 14204 H 1370.23 1.51722 2.56485 0
M  V30 14205 H 1367.76 0.759043 1.26004 0
M  V30 14206 H 1369.72 -0.386688 4.15404 0
M  V30 14207 H 1368.35 -0.854224 3.11292 0
M  V30 14208 H 1367.4 1.53784 3.47929 0
M  V30 14209 H 1368.72 1.81387 4.64651 0
M  V30 14210 H 1367.87 -0.065642 6.06664 0
M  V30 14211 H 1366.61 -0.437462 4.85734 0
M  V30 14212 H 1365.61 1.84481 5.17926 0
M  V30 14213 H 1366.84 2.20816 6.42197 0
M  V30 14214 H 1364.78 -0.0316173 6.55992 0
M  V30 14215 H 1364.7 1.47363 7.41499 0
M  V30 14216 H 1365.97 0.344273 7.78739 0
M  V30 14217 N 1370.2 -1.34667 0.818693 0
M  V30 14218 C 1371.61 -1.80839 0.46414 0
M  V30 14219 C 1371.96 -1.67902 -1.01506 0
M  V30 14220 O 1371.09 -1.21658 -1.78964 0
M  V30 14221 C 1371.68 -3.28331 0.835698 0
M  V30 14222 C 1370.24 -3.72599 0.533575 0
M  V30 14223 C 1369.39 -2.56452 1.05487 0
M  V30 14224 H 1372.34 -1.22474 1.00925 0
M  V30 14225 H 1372.36 -3.8025 0.13785 0
M  V30 14226 H 1371.87 -3.37715 1.91233 0
M  V30 14227 H 1369.97 -3.68756 -0.533819 0
M  V30 14228 H 1370.08 -4.66891 1.07468 0
M  V30 14229 H 1368.45 -2.50201 0.476612 0
M  V30 14230 H 1369.23 -2.68608 2.13786 0
M  V30 14231 N 1371.68 -0.573274 -1.46804 0
M  V30 14232 C 1372.61 0.213527 -2.27199 0
M  V30 14233 C 1373.59 0.905598 -1.35047 0
M  V30 14234 O 1374.77 0.921377 -1.64447 0
M  V30 14235 C 1371.9 1.30556 -3.12527 0
M  V30 14236 C 1370.94 0.720331 -4.20373 0
M  V30 14237 S 1371.78 -0.445518 -5.33644 0
M  V30 14238 C 1372.93 0.64794 -6.22537 0
M  V30 14239 H 1373.17 -0.468642 -2.93583 0
M  V30 14240 H 1370.7 -0.359949 -1.50146 0
M  V30 14241 H 1372.66 1.93086 -3.62254 0
M  V30 14242 H 1371.32 1.95963 -2.45474 0
M  V30 14243 H 1370.51 1.54089 -4.79867 0
M  V30 14244 H 1370.11 0.170885 -3.73609 0
M  V30 14245 H 1372.41 1.53602 -6.59858 0
M  V30 14246 H 1373.35 0.0899764 -7.08043 0
M  V30 14247 H 1373.76 0.94784 -5.56486 0
M  V30 14248 N 1373.15 1.5451 -0.310553 0
M  V30 14249 C 1374.09 2.20075 0.603513 0
M  V30 14250 C 1375.07 1.17336 1.12566 0
M  V30 14251 O 1376.25 1.4602 1.19208 0
M  V30 14252 C 1373.38 2.85216 1.82674 0
M  V30 14253 C 1372.42 4.01563 1.43699 0
M  V30 14254 S 1373.26 5.33301 0.48477 0
M  V30 14255 C 1374.41 6.01929 1.71557 0
M  V30 14256 H 1374.64 2.97264 0.0465278 0
M  V30 14257 H 1372.18 1.5411 -0.0946638 0
M  V30 14258 H 1374.14 3.23371 2.52867 0
M  V30 14259 H 1372.8 2.07855 2.3549 0
M  V30 14260 H 1371.99 4.45958 2.34813 0
M  V30 14261 H 1371.59 3.65014 0.814904 0
M  V30 14262 H 1373.88 6.23317 2.65484 0
M  V30 14263 H 1374.83 6.95801 1.31401 0
M  V30 14264 H 1375.23 5.31684 1.89663 0
M  V30 14265 N 1374.63 0.0384594 1.57553 0
M  V30 14266 C 1375.58 -0.940256 2.10779 0
M  V30 14267 C 1376.55 -1.31705 1.01208 0
M  V30 14268 O 1377.74 -1.40874 1.28683 0
M  V30 14269 C 1374.88 -2.21419 2.64703 0
M  V30 14270 C 1373.99 -1.89302 3.88315 0
M  V30 14271 C 1373.12 -3.1106 4.30599 0
M  V30 14272 C 1372.16 -2.74805 5.46945 0
M  V30 14273 N 1371.3 -3.89217 5.84341 0
M  V30 14274 H 1376.14 -0.479458 2.94118 0
M  V30 14275 H 1373.68 -0.22505 1.45368 0
M  V30 14276 H 1375.63 -2.95946 2.94061 0
M  V30 14277 H 1374.26 -2.65099 1.84181 0
M  V30 14278 H 1373.32 -1.04977 3.65628 0
M  V30 14279 H 1374.63 -1.58607 4.72912 0
M  V30 14280 H 1373.78 -3.93898 4.61442 0
M  V30 14281 H 1372.52 -3.44924 3.44788 0
M  V30 14282 H 1371.53 -1.9038 5.15786 0
M  V30 14283 H 1372.75 -2.42147 6.34462 0
M  V30 14284 H 1370.7 -4.22905 5.01485 0
M  V30 14285 H 1370.61 -3.62177 6.63599 0
M  V30 14286 H 1371.88 -4.72732 6.19794 0
M  V30 14287 N 1376.11 -1.55841 -0.234795 0
M  V30 14288 C 1377.02 -1.94476 -1.31211 0
M  V30 14289 C 1378.04 -0.846782 -1.52005 0
M  V30 14290 O 1379.21 -1.14922 -1.65393 0
M  V30 14291 C 1376.28 -2.24213 -2.64442 0
M  V30 14292 C 1375.34 -3.47508 -2.52065 0
M  V30 14293 C 1374.57 -3.75817 -3.78942 0
M  V30 14294 O 1374.8 -3.06007 -4.81369 0
M  V30 14295 O 1373.73 -4.69328 -3.76848 0
M  V30 14296 H 1377.56 -2.8626 -1.01434 0
M  V30 14297 H 1375.14 -1.42879 -0.436563 0
M  V30 14298 H 1377.02 -2.44594 -3.4315 0
M  V30 14299 H 1375.7 -1.35605 -2.93927 0
M  V30 14300 H 1374.6 -3.32421 -1.71602 0
M  V30 14301 H 1375.94 -4.36457 -2.27523 0
M  V30 14302 N 1377.59 0.500963 -1.49426 0
M  V30 14303 C 1378.84 1.25509 -1.58915 0
M  V30 14304 C 1379.16 1.92534 -0.275868 0
M  V30 14305 O 1378.42 1.81324 0.736212 0
M  V30 14306 C 1378.72 2.34448 -2.69757 0
M  V30 14307 C 1378.38 1.8488 -4.11254 0
M  V30 14308 C 1377.05 1.71081 -4.49761 0
M  V30 14309 C 1379.4 1.4778 -4.9981 0
M  V30 14310 C 1376.73 1.18561 -5.74596 0
M  V30 14311 C 1379.08 0.967118 -6.25164 0
M  V30 14312 C 1377.74 0.815523 -6.62499 0
M  V30 14313 H 1377.01 0.459268 -0.58151 0
M  V30 14314 H 1379.66 0.555817 -1.83256 0
M  V30 14315 H 1377.96 3.10163 -2.39387 0
M  V30 14316 H 1379.66 2.925 -2.74308 0
M  V30 14317 H 1376.25 1.9658 -3.8086 0
M  V30 14318 H 1380.44 1.57288 -4.70717 0
M  V30 14319 H 1375.69 1.05536 -6.02223 0
M  V30 14320 H 1379.87 0.670857 -6.93161 0
M  V30 14321 H 1377.49 0.406375 -7.59113 0
M  V30 14322 N 1379.07 1.38501 0.752011 0
M  V30 14323 C 1380.48 1.19733 1.05529 0
M  V30 14324 C 1380.68 0.047088 2.01445 0
M  V30 14325 O 1379.74 -0.606645 2.45104 0
M  V30 14326 C 1381.05 2.52439 1.63386 0
M  V30 14327 C 1382.6 2.59136 1.7555 0
M  V30 14328 C 1383.08 3.92022 2.36819 0
M  V30 14329 N 1384.57 3.9357 2.44248 0
M  V30 14330 C 1385.3 4.93154 2.92553 0
M  V30 14331 N 1384.8 6.03135 3.40882 0
M  V30 14332 N 1386.59 4.80543 2.91607 0
M  V30 14333 H 1378.74 2.12085 0.115543 0
M  V30 14334 H 1381 0.941134 0.113888 0
M  V30 14335 H 1380.71 3.37072 1.00376 0
M  V30 14336 H 1380.58 2.70947 2.62427 0
M  V30 14337 H 1382.97 1.74897 2.37687 0
M  V30 14338 H 1383.05 2.44494 0.752092 0
M  V30 14339 H 1382.7 4.76684 1.75314 0
M  V30 14340 H 1382.63 4.03976 3.37803 0
M  V30 14341 H 1385.12 3.14133 2.10068 0
M  V30 14342 H 1385.43 6.7505 3.76201 0
M  V30 14343 H 1383.78 6.06752 3.38935 0
M  V30 14344 H 1386.97 3.93733 2.53163 0
M  V30 14345 H 1387.14 5.58303 3.28941 0
M  V30 14346 N 1380.55 -0.980364 1.23396 0
M  V30 14347 C 1381.79 -1.72166 1.06607 0
M  V30 14348 C 1382.12 -1.90405 -0.397029 0
M  V30 14349 O 1381.38 -1.45363 -1.31027 0
M  V30 14350 C 1381.67 -3.12367 1.73671 0
M  V30 14351 C 1381.34 -3.14007 3.2359 0
M  V30 14352 C 1380 -3.14162 3.64494 0
M  V30 14353 C 1382.35 -3.09319 4.19489 0
M  V30 14354 C 1379.68 -3.07345 4.99756 0
M  V30 14355 C 1382.03 -3.04044 5.54743 0
M  V30 14356 C 1380.7 -3.02521 5.9501 0
M  V30 14357 H 1379.97 -0.63 0.390104 0
M  V30 14358 H 1382.62 -1.14727 1.5333 0
M  V30 14359 H 1380.92 -3.73193 1.19308 0
M  V30 14360 H 1382.62 -3.68493 1.58159 0
M  V30 14361 H 1379.21 -3.14644 2.91028 0
M  V30 14362 H 1383.39 -3.08339 3.88897 0
M  V30 14363 H 1378.65 -3.04519 5.30168 0
M  V30 14364 H 1382.82 -2.99374 6.28767 0
M  V30 14365 H 1380.45 -2.96994 6.99785 0
M  V30 14366 N 1382.02 -1.04567 -1.17913 0
M  V30 14367 C 1382.93 -0.651674 -2.25367 0
M  V30 14368 C 1383.95 0.32437 -1.7095 0
M  V30 14369 O 1385.13 0.178039 -2.00612 0
M  V30 14370 C 1382.19 -0.0259452 -3.4669 0
M  V30 14371 C 1381.25 -1.05163 -4.1622 0
M  V30 14372 C 1380.48 -0.45567 -5.31751 0
M  V30 14373 O 1380.71 0.736698 -5.65623 0
M  V30 14374 O 1379.64 -1.18684 -5.90083 0
M  V30 14375 H 1383.47 -1.54704 -2.61344 0
M  V30 14376 H 1381.05 -0.816852 -1.25092 0
M  V30 14377 H 1382.93 0.322126 -4.20167 0
M  V30 14378 H 1381.61 0.843165 -3.12526 0
M  V30 14379 H 1380.52 -1.45159 -3.44789 0
M  V30 14380 H 1381.85 -1.89168 -4.54397 0
M  V30 14381 N 1383.5 1.34231 -0.825823 0
M  V30 14382 C 1384.91 1.8059 -0.473724 0
M  V30 14383 C 1385.26 1.68438 1.00614 0
M  V30 14384 O 1384.39 1.22606 1.78317 0
M  V30 14385 C 1384.98 3.27884 -0.853099 0
M  V30 14386 C 1383.54 3.72311 -0.553327 0
M  V30 14387 C 1382.69 2.55889 -1.06845 0
M  V30 14388 H 1385.64 1.21937 -1.01573 0
M  V30 14389 H 1385.66 3.80172 -0.158014 0
M  V30 14390 H 1385.17 3.36696 -1.93021 0
M  V30 14391 H 1383.27 3.69034 0.514256 0
M  V30 14392 H 1383.39 4.66315 -1.09942 0
M  V30 14393 H 1381.75 2.49945 -0.489874 0
M  V30 14394 H 1382.53 2.67471 -2.15207 0
M  V30 14395 N 1384.98 0.581051 1.46498 0
M  V30 14396 C 1386.2 0.0696654 2.07283 0
M  V30 14397 C 1386.63 -1.22525 1.42721 0
M  V30 14398 O 1385.99 -1.73967 0.510421 0
M  V30 14399 C 1386.04 -0.0843864 3.60501 0
M  V30 14400 O 1385.14 -1.14129 3.96293 0
M  V30 14401 H 1384.48 0.0620572 0.661094 0
M  V30 14402 H 1387.01 0.803522 1.88161 0
M  V30 14403 H 1387.02 -0.29108 4.0696 0
M  V30 14404 H 1385.7 0.861274 4.06884 0
M  V30 14405 H 1384.27 -0.913186 3.61546 0
M  V30 14406 N 1386.46 -1.54343 0.318742 0
M  V30 14407 C 1387.68 -2.05361 -0.290126 0
M  V30 14408 C 1388.11 -1.19362 -1.45376 0
M  V30 14409 O 1387.47 -0.201639 -1.80175 0
M  V30 14410 C 1387.51 -3.53601 -0.707025 0
M  V30 14411 O 1386.62 -3.70561 -1.80992 0
M  V30 14412 H 1385.96 -0.661858 -0.0532933 0
M  V30 14413 H 1388.49 -1.99228 0.46575 0
M  V30 14414 H 1388.5 -3.95782 -0.991005 0
M  V30 14415 H 1387.17 -4.1565 0.144091 0
M  V30 14416 H 1385.75 -3.40286 -1.52513 0
M  V30 14417 N 1387.94 -0.0468143 -1.5753 0
M  V30 14418 C 1388.87 0.958157 -2.08211 0
M  V30 14419 C 1389.88 1.27757 -1.00906 0
M  V30 14420 O 1391.07 1.23913 -1.28483 0
M  V30 14421 C 1388.17 2.28088 -2.50657 0
M  V30 14422 C 1387.34 2.14403 -3.81248 0
M  V30 14423 C 1386.4 3.29761 -4.10054 0
M  V30 14424 O 1385.43 3.05859 -4.8004 0
M  V30 14425 N 1386.63 4.54104 -3.61621 0
M  V30 14426 H 1389.39 0.525612 -2.95055 0
M  V30 14427 H 1386.96 0.139532 -1.61298 0
M  V30 14428 H 1388.95 3.04121 -2.67007 0
M  V30 14429 H 1387.52 2.62924 -1.69085 0
M  V30 14430 H 1386.74 1.22988 -3.74523 0
M  V30 14431 H 1388.03 2.02482 -4.66775 0
M  V30 14432 H 1387.42 4.76414 -3.05034 0
M  V30 14433 H 1385.98 5.27246 -3.83217 0
M  V30 14434 N 1389.41 1.55964 0.226527 0
M  V30 14435 C 1390.35 1.87013 1.30772 0
M  V30 14436 C 1391.33 0.727044 1.4544 0
M  V30 14437 O 1392.51 0.974898 1.61332 0
M  V30 14438 C 1389.64 2.07278 2.67869 0
M  V30 14439 C 1388.68 3.29956 2.70243 0
M  V30 14440 S 1389.52 4.86026 2.24808 0
M  V30 14441 C 1390.67 5.09321 3.6379 0
M  V30 14442 H 1390.9 2.78427 1.0424 0
M  V30 14443 H 1388.44 1.48334 0.428525 0
M  V30 14444 H 1390.4 2.19636 3.468 0
M  V30 14445 H 1389.06 1.1667 2.91628 0
M  V30 14446 H 1388.25 3.41164 3.70975 0
M  V30 14447 H 1387.85 3.16429 1.99371 0
M  V30 14448 H 1390.14 4.97914 4.59443 0
M  V30 14449 H 1391.09 6.11227 3.57501 0
M  V30 14450 H 1391.49 4.37076 3.57247 0
M  V30 14451 N 1390.89 -0.493031 1.4969 0
M  V30 14452 C 1392.14 -1.2433 1.58823 0
M  V30 14453 C 1392.45 -1.9353 0.283823 0
M  V30 14454 O 1393.66 -2.70311 0.253801 0
M  V30 14455 C 1392.12 -2.25792 2.8026 0
M  V30 14456 C 1391.72 -1.62496 4.17491 0
M  V30 14457 C 1393.47 -3.01598 2.98729 0
M  V30 14458 C 1391.38 -2.62115 5.30141 0
M  V30 14459 H 1390.31 -0.467738 0.591386 0
M  V30 14460 H 1392.96 -0.516238 1.76089 0
M  V30 14461 H 1391.34 -3.01696 2.56506 0
M  V30 14462 H 1392.51 -0.925305 4.51414 0
M  V30 14463 H 1390.83 -0.990516 4.04447 0
M  V30 14464 H 1393.42 -3.76111 3.80058 0
M  V30 14465 H 1393.77 -3.59687 2.09597 0
M  V30 14466 H 1394.3 -2.32809 3.2256 0
M  V30 14467 H 1391.04 -2.08797 6.21357 0
M  V30 14468 H 1390.56 -3.30298 5.00663 0
M  V30 14469 H 1392.24 -3.24385 5.59807 0
M  V30 14470 N 1392.37 -1.38898 -0.744656 0
M  V30 14471 C 1393.28 -1.39098 -1.88915 0
M  V30 14472 C 1394.3 -0.286956 -1.71617 0
M  V30 14473 O 1395.47 -0.526852 -1.94387 0
M  V30 14474 C 1392.54 -1.22352 -3.24393 0
M  V30 14475 C 1391.6 -2.4264 -3.54153 0
M  V30 14476 C 1390.83 -2.26683 -4.83167 0
M  V30 14477 O 1391.05 -1.26523 -5.56191 0
M  V30 14478 O 1389.99 -3.15464 -5.12607 0
M  V30 14479 H 1393.81 -2.35551 -1.91701 0
M  V30 14480 H 1391.4 -1.19911 -0.891158 0
M  V30 14481 H 1393.28 -1.15109 -4.05374 0
M  V30 14482 H 1391.96 -0.289886 -3.22399 0
M  V30 14483 H 1390.86 -2.55459 -2.73298 0
M  V30 14484 H 1392.2 -3.34664 -3.60917 0
M  V30 14485 N 1393.85 0.973806 -1.23914 0
M  V30 14486 C 1395.09 1.71852 -1.07678 0
M  V30 14487 C 1395.43 1.90357 0.384425 0
M  V30 14488 O 1394.7 1.46063 1.28436 0
M  V30 14489 C 1394.99 3.1129 -1.81026 0
M  V30 14490 C 1394.84 3.00315 -3.3486 0
M  V30 14491 C 1396.16 4.10835 -1.57805 0
M  V30 14492 H 1393.28 0.623749 -0.392564 0
M  V30 14493 H 1395.92 1.13325 -1.52504 0
M  V30 14494 H 1394.07 3.61255 -1.42922 0
M  V30 14495 H 1395.74 2.57823 -3.82524 0
M  V30 14496 H 1393.98 2.36667 -3.63553 0
M  V30 14497 H 1394.65 3.9907 -3.81376 0
M  V30 14498 H 1397.13 3.69705 -1.90939 0
M  V30 14499 H 1396.01 5.06478 -2.11591 0
M  V30 14500 H 1396.27 4.39091 -0.514894 0
M  V30 14501 N 1395.33 1.05191 1.17357 0
M  V30 14502 C 1396.26 0.610878 2.20909 0
M  V30 14503 C 1397.27 -0.325369 1.59515 0
M  V30 14504 O 1398.46 -0.118104 1.78109 0
M  V30 14505 C 1395.56 -0.126086 3.38665 0
M  V30 14506 C 1394.73 0.820857 4.29629 0
M  V30 14507 C 1393.79 0.125154 5.26051 0
M  V30 14508 O 1392.82 0.759245 5.64114 0
M  V30 14509 N 1394.02 -1.13742 5.69248 0
M  V30 14510 H 1396.79 1.50158 2.5937 0
M  V30 14511 H 1394.35 0.933814 1.32256 0
M  V30 14512 H 1396.34 -0.601627 4.00203 0
M  V30 14513 H 1394.91 -0.918459 2.98803 0
M  V30 14514 H 1394.13 1.47602 3.65523 0
M  V30 14515 H 1395.42 1.46363 4.87294 0
M  V30 14516 H 1394.81 -1.67291 5.40398 0
M  V30 14517 H 1393.37 -1.55703 6.3293 0
M  V30 14518 N 1396.8 -1.33791 0.83293 0
M  V30 14519 C 1397.71 -2.33108 0.264169 0
M  V30 14520 C 1398.73 -1.6308 -0.606694 0
M  V30 14521 O 1399.91 -1.94777 -0.512225 0
M  V30 14522 C 1396.97 -3.42208 -0.556315 0
M  V30 14523 C 1396.03 -4.27966 0.338123 0
M  V30 14524 C 1395.27 -5.31856 -0.443297 0
M  V30 14525 O 1395.49 -5.45234 -1.6756 0
M  V30 14526 O 1394.42 -6.01632 0.179599 0
M  V30 14527 H 1398.25 -2.83602 1.08645 0
M  V30 14528 H 1395.83 -1.37027 0.595307 0
M  V30 14529 H 1397.72 -4.088 -1.02277 0
M  V30 14530 H 1396.39 -2.9394 -1.35575 0
M  V30 14531 H 1395.3 -3.64262 0.852293 0
M  V30 14532 H 1396.63 -4.79701 1.10217 0
M  V30 14533 N 1398.28 -0.588812 -1.46187 0
M  V30 14534 C 1399.53 -0.0765765 -2.01955 0
M  V30 14535 C 1399.85 1.29034 -1.46203 0
M  V30 14536 O 1399.12 1.84836 -0.649044 0
M  V30 14537 H 1397.7 -0.025318 -0.746571 0
M  V30 14538 H 1400.36 -0.765971 -1.79217 0
M  V30 14539 H 1399.46 -0.0121702 -3.12098 0
M  V30 14540 N 1399.76 1.54172 -0.326923 0
M  V30 14541 C 1400.69 2.21958 0.571588 0
M  V30 14542 C 1401.71 1.22067 1.0772 0
M  V30 14543 O 1402.89 1.48517 0.990202 0
M  V30 14544 C 1399.99 2.87307 1.79744 0
M  V30 14545 C 1399.17 4.13366 1.42995 0
M  V30 14546 C 1398.23 4.62276 2.5137 0
M  V30 14547 O 1397.25 5.2688 2.15373 0
M  V30 14548 N 1398.45 4.36789 3.82355 0
M  V30 14549 H 1401.22 2.99699 -0.00885848 0
M  V30 14550 H 1398.78 1.61201 -0.150279 0
M  V30 14551 H 1400.77 3.1695 2.51644 0
M  V30 14552 H 1399.34 2.13252 2.28566 0
M  V30 14553 H 1398.56 3.9045 0.542444 0
M  V30 14554 H 1399.85 4.95396 1.16017 0
M  V30 14555 H 1399.25 3.85086 4.14397 0
M  V30 14556 H 1397.81 4.71079 4.50475 0
M  V30 14557 N 1401.24 0.0551678 1.57503 0
M  V30 14558 C 1402.19 -0.935665 2.12951 0
M  V30 14559 C 1403.18 -1.31954 1.06229 0
M  V30 14560 O 1404.39 -1.29873 1.24632 0
M  V30 14561 H 1400.76 -0.319618 0.680697 0
M  V30 14562 H 1402.73 -0.442937 2.95094 0
M  V30 14563 C 1401.48 -2.19977 2.69268 0
M  V30 14564 H 1400.8 -1.91319 3.51051 0
M  V30 14565 H 1402.24 -2.87456 3.11681 0
M  V30 14566 C 1400.7 -2.94714 1.63233 0
M  V30 14567 O 1401.23 -3.87803 1.04747 0
M  V30 14568 N 1399.44 -2.57518 1.34659 0
M  V30 14569 H 1398.99 -1.81894 1.82407 0
M  V30 14570 H 1398.94 -3.07829 0.639425 0
M  V30 14571 N 1402.72 -1.56081 -0.218252 0
M  V30 14572 C 1403.65 -1.95706 -1.27364 0
M  V30 14573 C 1404.63 -0.825731 -1.48713 0
M  V30 14574 O 1405.81 -1.08829 -1.60841 0
M  V30 14575 C 1402.94 -2.2766 -2.62275 0
M  V30 14576 C 1401.9 -3.43314 -2.55576 0
M  V30 14577 C 1401.22 -3.60883 -3.94547 0
M  V30 14578 C 1402.52 -4.7819 -2.10075 0
M  V30 14579 H 1404.22 -2.84113 -0.944459 0
M  V30 14580 H 1401.76 -1.36693 -0.452882 0
M  V30 14581 H 1403.72 -2.53973 -3.36268 0
M  V30 14582 H 1402.44 -1.3611 -2.96887 0
M  V30 14583 H 1401.1 -3.17056 -1.8404 0
M  V30 14584 H 1400.75 -2.66703 -4.26472 0
M  V30 14585 H 1400.45 -4.38674 -3.90946 0
M  V30 14586 H 1401.97 -3.89547 -4.70197 0
M  V30 14587 H 1403.38 -5.03686 -2.73813 0
M  V30 14588 H 1401.78 -5.59287 -2.17527 0
M  V30 14589 H 1402.85 -4.73325 -1.05314 0
M  V30 14590 N 1404.2 0.485086 -1.49949 0
M  V30 14591 C 1405.14 1.5848 -1.67788 0
M  V30 14592 C 1406.11 1.57776 -0.519216 0
M  V30 14593 O 1407.3 1.75521 -0.748141 0
M  V30 14594 C 1404.44 2.9654 -1.76516 0
M  V30 14595 C 1403.55 3.07139 -3.03792 0
M  V30 14596 C 1402.69 4.36029 -3.03401 0
M  V30 14597 C 1401.72 4.40318 -4.2519 0
M  V30 14598 N 1400.86 5.60659 -4.22618 0
M  V30 14599 H 1405.7 1.42575 -2.6168 0
M  V30 14600 H 1403.24 0.693426 -1.29731 0
M  V30 14601 H 1405.2 3.76583 -1.79557 0
M  V30 14602 H 1403.83 3.11112 -0.860764 0
M  V30 14603 H 1402.88 2.20057 -3.10289 0
M  V30 14604 H 1404.19 3.06167 -3.9378 0
M  V30 14605 H 1403.34 5.24407 -3.05094 0
M  V30 14606 H 1402.08 4.39588 -2.11219 0
M  V30 14607 H 1401.09 3.50339 -4.23725 0
M  V30 14608 H 1402.31 4.38461 -5.18583 0
M  V30 14609 H 1400.26 5.6503 -3.33282 0
M  V30 14610 H 1400.18 5.61371 -5.06359 0
M  V30 14611 H 1401.44 6.51201 -4.28436 0
M  V30 14612 N 1405.67 1.39291 0.737279 0
M  V30 14613 C 1406.92 1.35702 1.49224 0
M  V30 14614 C 1407.24 -0.0450282 1.95548 0
M  V30 14615 O 1408.44 -0.203495 2.70736 0
M  V30 14616 C 1406.9 2.38387 2.69629 0
M  V30 14617 C 1406.51 3.84295 2.30263 0
M  V30 14618 C 1408.25 2.4387 3.47459 0
M  V30 14619 C 1406.16 4.78626 3.47377 0
M  V30 14620 H 1405.09 0.50449 0.560362 0
M  V30 14621 H 1407.74 1.64926 0.804466 0
M  V30 14622 H 1406.12 2.0223 3.40469 0
M  V30 14623 H 1407.29 4.2948 1.66984 0
M  V30 14624 H 1405.61 3.82085 1.6553 0
M  V30 14625 H 1408.21 3.11539 4.34566 0
M  V30 14626 H 1408.55 1.46253 3.89764 0
M  V30 14627 H 1409.08 2.78908 2.83646 0
M  V30 14628 H 1405.82 5.77497 3.10124 0
M  V30 14629 H 1405.34 4.38123 4.09645 0
M  V30 14630 H 1407.02 4.9742 4.13742 0
M  V30 14631 N 1407.15 -0.967221 1.24429 0
M  V30 14632 C 1408.38 -1.7452 1.11133 0
M  V30 14633 C 1408.79 -1.85785 -0.336087 0
M  V30 14634 O 1408.15 -1.34652 -1.23188 0
M  V30 14635 C 1408.2 -3.16544 1.74591 0
M  V30 14636 O 1407.92 -3.05845 3.13673 0
M  V30 14637 C 1409.42 -4.10677 1.6691 0
M  V30 14638 H 1406.64 -0.547267 0.388253 0
M  V30 14639 H 1409.19 -1.2143 1.64545 0
M  V30 14640 H 1407.34 -3.66618 1.2518 0
M  V30 14641 H 1407.76 -3.95346 3.44676 0
M  V30 14642 H 1409.23 -5.07987 2.15992 0
M  V30 14643 H 1409.71 -4.34652 0.630411 0
M  V30 14644 H 1410.31 -3.66514 2.15749 0
M  V30 14645 N 1408.63 -1.05812 -1.16797 0
M  V30 14646 C 1409.88 -0.767008 -1.86547 0
M  V30 14647 C 1410.19 0.708979 -1.82299 0
M  V30 14648 O 1411.4 1.11428 -2.4758 0
M  V30 14649 C 1409.85 -1.32186 -3.34746 0
M  V30 14650 C 1409.46 -2.82774 -3.4748 0
M  V30 14651 C 1411.21 -1.10808 -4.09783 0
M  V30 14652 C 1409.11 -3.31529 -4.89737 0
M  V30 14653 H 1408.04 -0.283235 -0.698781 0
M  V30 14654 H 1410.69 -1.27621 -1.31853 0
M  V30 14655 H 1409.08 -0.740453 -3.89016 0
M  V30 14656 H 1410.25 -3.46825 -3.03396 0
M  V30 14657 H 1408.56 -3.02765 -2.85871 0
M  V30 14658 H 1411.16 -1.44728 -5.14741 0
M  V30 14659 H 1411.5 -0.046167 -4.16274 0
M  V30 14660 H 1412.04 -1.65502 -3.61737 0
M  V30 14661 H 1408.78 -4.37177 -4.88422 0
M  V30 14662 H 1408.3 -2.72224 -5.34466 0
M  V30 14663 H 1409.98 -3.26572 -5.58534 0
M  V30 14664 N 1410.11 1.33347 -0.840014 0
M  V30 14665 C 1411.34 2.01952 -0.449793 0
M  V30 14666 C 1411.75 1.63197 0.949317 0
M  V30 14667 O 1411.11 0.84589 1.61713 0
M  V30 14668 C 1411.16 3.57102 -0.562178 0
M  V30 14669 O 1410.88 3.94458 -1.90616 0
M  V30 14670 C 1412.38 4.42978 -0.169062 0
M  V30 14671 H 1409.6 0.646843 -0.178425 0
M  V30 14672 H 1412.14 1.70251 -1.1329 0
M  V30 14673 H 1410.3 3.87331 0.0730345 0
M  V30 14674 H 1410.71 4.89167 -1.8925 0
M  V30 14675 H 1412.19 5.51191 -0.298742 0
M  V30 14676 H 1412.66 4.30106 0.889137 0
M  V30 14677 H 1413.27 4.18109 -0.778756 0
M  V30 14678 N 1411.59 0.596556 1.45873 0
M  V30 14679 C 1412.83 0.0872856 2.01911 0
M  V30 14680 C 1413.15 -1.28257 1.46885 0
M  V30 14681 O 1412.42 -1.84489 0.658837 0
M  V30 14682 H 1411 0.0292769 0.746426 0
M  V30 14683 H 1413.67 0.775464 1.78809 0
M  V30 14684 H 1412.76 0.0287213 3.12087 0
M  V30 14685 N 1413.06 -1.53996 0.335095 0
M  V30 14686 C 1414.29 -2.0489 -0.265245 0
M  V30 14687 C 1414.7 -1.21024 -1.4543 0
M  V30 14688 O 1414.04 -0.236417 -1.82172 0
M  V30 14689 C 1414.11 -3.51546 -0.752018 0
M  V30 14690 C 1413.77 -4.55904 0.316261 0
M  V30 14691 C 1414.77 -5.06881 1.15617 0
M  V30 14692 C 1412.45 -5.00117 0.467762 0
M  V30 14693 C 1414.45 -6.00644 2.13321 0
M  V30 14694 C 1412.13 -5.93692 1.4482 0
M  V30 14695 C 1413.13 -6.43842 2.27938 0
M  V30 14696 O 1412.82 -7.35578 3.24315 0
M  V30 14697 H 1412.55 -0.673631 -0.0565427 0
M  V30 14698 H 1415.11 -1.99646 0.482771 0
M  V30 14699 H 1413.34 -3.54227 -1.55114 0
M  V30 14700 H 1415.02 -3.85455 -1.27197 0
M  V30 14701 H 1415.79 -4.73494 1.05017 0
M  V30 14702 H 1411.67 -4.60689 -0.169338 0
M  V30 14703 H 1415.21 -6.39711 2.78236 0
M  V30 14704 H 1411.11 -6.26495 1.5548 0
M  V30 14705 H 1411.88 -7.53487 3.19688 0
M  V30 14706 N 1414.54 -0.0635198 -1.57472 0
M  V30 14707 C 1415.96 0.293084 -1.56886 0
M  V30 14708 C 1416.16 1.70603 -1.07224 0
M  V30 14709 O 1415.21 2.41584 -0.734388 0
M  V30 14710 C 1416.53 0.110286 -3.00498 0
M  V30 14711 C 1418.07 0.180453 -3.12479 0
M  V30 14712 C 1418.55 0.0260354 -4.57993 0
M  V30 14713 N 1420.04 0.0819109 -4.63128 0
M  V30 14714 C 1420.78 -0.0132764 -5.73398 0
M  V30 14715 N 1420.27 -0.161514 -6.92612 0
M  V30 14716 N 1422.06 0.0431948 -5.62083 0
M  V30 14717 H 1414.22 -0.98706 -1.88072 0
M  V30 14718 H 1416.48 -0.384232 -0.866643 0
M  V30 14719 H 1416.18 -0.864378 -3.40913 0
M  V30 14720 H 1416.06 0.866117 -3.67122 0
M  V30 14721 H 1418.45 1.1456 -2.71956 0
M  V30 14722 H 1418.53 -0.606342 -2.4851 0
M  V30 14723 H 1418.17 -0.935839 -4.99204 0
M  V30 14724 H 1418.1 0.832131 -5.19984 0
M  V30 14725 H 1420.59 0.195229 -3.77395 0
M  V30 14726 H 1420.9 -0.226517 -7.72468 0
M  V30 14727 H 1419.25 -0.196766 -6.94721 0
M  V30 14728 H 1422.44 0.157648 -4.67834 0
M  V30 14729 H 1422.61 -0.0344435 -6.47991 0
M  V30 14730 N 1416.02 1.56195 0.209972 0
M  V30 14731 C 1417.25 1.8384 0.949228 0
M  V30 14732 C 1417.66 0.644141 1.77472 0
M  V30 14733 O 1417.02 -0.387276 1.78344 0
M  V30 14734 C 1417.07 3.10131 1.85745 0
M  V30 14735 O 1416.79 4.2495 1.06531 0
M  V30 14736 C 1418.29 3.50847 2.70963 0
M  V30 14737 H 1415.51 0.610856 0.277662 0
M  V30 14738 H 1418.06 2.03295 0.221708 0
M  V30 14739 H 1416.21 2.92618 2.53877 0
M  V30 14740 H 1416.63 4.96769 1.68287 0
M  V30 14741 H 1418.1 4.4222 3.30372 0
M  V30 14742 H 1418.58 2.73139 3.43936 0
M  V30 14743 H 1419.18 3.7084 2.08226 0
M  V30 14744 N 1417.5 -0.477127 1.50204 0
M  V30 14745 C 1418.46 -1.55824 1.68082 0
M  V30 14746 C 1419.46 -1.51039 0.551719 0
M  V30 14747 O 1420.65 -1.53766 0.818638 0
M  V30 14748 C 1417.78 -2.95462 1.70044 0
M  V30 14749 H 1418.98 -1.41292 2.64531 0
M  V30 14750 H 1416.53 -0.70308 1.39594 0
M  V30 14751 H 1417.26 -3.15445 0.752663 0
M  V30 14752 H 1417.05 -3.00343 2.52065 0
M  V30 14753 H 1418.54 -3.73964 1.85851 0
M  V30 14754 N 1418.98 -1.3968 -0.729882 0
M  V30 14755 C 1420.21 -1.40263 -1.5169 0
M  V30 14756 C 1420.61 0.00325293 -1.892 0
M  V30 14757 O 1419.96 0.986225 -1.54982 0
M  V30 14758 C 1420.02 -2.21629 -2.83056 0
M  V30 14759 C 1419.68 -3.70204 -2.67951 0
M  V30 14760 C 1420.68 -4.63169 -2.36158 0
M  V30 14761 C 1418.37 -4.13851 -2.84662 0
M  V30 14762 C 1420.36 -5.97763 -2.21265 0
M  V30 14763 C 1418.05 -5.4852 -2.69387 0
M  V30 14764 C 1419.04 -6.4029 -2.37734 0
M  V30 14765 O 1418.73 -7.72478 -2.22561 0
M  V30 14766 H 1418.46 -0.480808 -0.475184 0
M  V30 14767 H 1421.02 -1.84184 -0.909136 0
M  V30 14768 H 1419.25 -1.72465 -3.46111 0
M  V30 14769 H 1420.94 -2.14328 -3.447 0
M  V30 14770 H 1421.7 -4.30748 -2.22893 0
M  V30 14771 H 1417.58 -3.42751 -3.0829 0
M  V30 14772 H 1421.13 -6.69359 -1.96481 0
M  V30 14773 H 1417.02 -5.8053 -2.82232 0
M  V30 14774 H 1417.79 -7.83258 -2.37591 0
M  V30 14775 N 1420.45 0.960609 -1.2494 0
M  V30 14776 C 1421.68 1.7446 -1.12153 0
M  V30 14777 C 1422.1 1.85335 0.321315 0
M  V30 14778 O 1421.46 1.32944 1.23271 0
M  V30 14779 C 1421.51 3.13945 -1.774 0
M  V30 14780 O 1420.61 3.9882 -1.04958 0
M  V30 14781 H 1419.96 0.536007 -0.391909 0
M  V30 14782 H 1422.49 1.2045 -1.65388 0
M  V30 14783 H 1422.5 3.64434 -1.83444 0
M  V30 14784 H 1421.17 3.05346 -2.82377 0
M  V30 14785 H 1419.75 3.57293 -1.06752 0
M  V30 14786 N 1421.93 1.0643 1.16234 0
M  V30 14787 C 1423.17 0.791061 1.88472 0
M  V30 14788 C 1423.54 -0.670265 1.79921 0
M  V30 14789 O 1424.74 -1.05815 2.47096 0
M  V30 14790 C 1423.01 1.27371 3.33933 0
M  V30 14791 S 1424.57 1.12974 4.24008 0
M  V30 14792 H 1421.39 0.286924 0.650535 0
M  V30 14793 H 1423.99 1.3615 1.40298 0
M  V30 14794 H 1422.69 2.33215 3.37696 0
M  V30 14795 H 1422.22 0.698083 3.87157 0
M  V30 14796 H 1424.24 0.0614942 4.96162 0
M  V30 14797 N 1423.41 -1.329 0.847073 0
M  V30 14798 C 1424.64 -2.01418 0.459829 0
M  V30 14799 C 1425.05 -1.63857 -0.945921 0
M  V30 14800 O 1424.39 -0.851946 -1.6275 0
M  V30 14801 C 1424.45 -3.55859 0.510376 0
M  V30 14802 C 1424.12 -4.16824 1.87368 0
M  V30 14803 C 1425.11 -4.35602 2.83808 0
M  V30 14804 C 1422.8 -4.53067 2.16876 0
M  V30 14805 C 1424.79 -4.89782 4.07912 0
M  V30 14806 C 1422.48 -5.06953 3.41235 0
M  V30 14807 C 1423.48 -5.25258 4.36569 0
M  V30 14808 O 1423.17 -5.77995 5.58728 0
M  V30 14809 H 1422.9 -0.651608 0.179952 0
M  V30 14810 H 1425.45 -1.70624 1.14353 0
M  V30 14811 H 1423.68 -3.86015 -0.230145 0
M  V30 14812 H 1425.37 -4.05659 0.139804 0
M  V30 14813 H 1426.14 -4.07942 2.62313 0
M  V30 14814 H 1422.02 -4.3811 1.43461 0
M  V30 14815 H 1425.56 -5.03985 4.82333 0
M  V30 14816 H 1421.46 -5.34045 3.62583 0
M  V30 14817 H 1422.23 -5.96399 5.60581 0
M  V30 14818 N 1424.89 -0.604284 -1.45555 0
M  V30 14819 C 1426.14 -0.0979922 -2.01862 0
M  V30 14820 C 1426.46 1.27476 -1.47563 0
M  V30 14821 O 1425.73 1.84137 -0.668612 0
M  V30 14822 H 1424.31 -0.033235 -0.74626 0
M  V30 14823 H 1426.97 -0.784936 -1.78395 0
M  V30 14824 H 1426.07 -0.0452716 -3.12067 0
M  V30 14825 N 1426.37 1.53816 -0.343257 0
M  V30 14826 C 1427.59 2.05326 0.254744 0
M  V30 14827 C 1428.01 1.21824 1.44237 0
M  V30 14828 O 1427.37 0.253507 1.80731 0
M  V30 14829 C 1427.42 3.55235 0.670075 0
M  V30 14830 O 1427.14 4.35568 -0.470322 0
M  V30 14831 C 1428.64 4.22915 1.32882 0
M  V30 14832 H 1425.86 0.669191 0.0492324 0
M  V30 14833 H 1428.4 1.98415 -0.495159 0
M  V30 14834 H 1426.56 3.6237 1.36992 0
M  V30 14835 H 1426.97 5.24315 -0.139303 0
M  V30 14836 H 1428.45 5.29197 1.57019 0
M  V30 14837 H 1428.92 3.75244 2.28229 0
M  V30 14838 H 1429.53 4.19973 0.67102 0
M  V30 14839 N 1427.84 0.0718701 1.57436 0
M  V30 14840 C 1429.09 -0.598116 1.93779 0
M  V30 14841 C 1429.42 -1.69258 0.952131 0
M  V30 14842 O 1428.7 -1.94491 -0.0186426 0
M  V30 14843 C 1428.98 -1.17499 3.40391 0
M  V30 14844 C 1428.83 -0.0871719 4.49716 0
M  V30 14845 C 1430.15 -2.08047 3.8782 0
M  V30 14846 H 1427.27 -0.215954 0.704651 0
M  V30 14847 H 1429.91 0.137854 1.89499 0
M  V30 14848 H 1428.06 -1.80221 3.44169 0
M  V30 14849 H 1429.74 0.545906 4.58058 0
M  V30 14850 H 1427.98 0.582213 4.29875 0
M  V30 14851 H 1428.65 -0.531202 5.49438 0
M  V30 14852 H 1431.13 -1.5526 3.86049 0
M  V30 14853 H 1430 -2.45345 4.91016 0
M  V30 14854 H 1430.26 -2.98879 3.25766 0
M  V30 14855 N 1429.32 -1.56304 -0.201686 0
M  V30 14856 C 1430.55 -1.84692 -0.943583 0
M  V30 14857 C 1430.97 -0.654649 -1.7634 0
M  V30 14858 O 1430.33 0.396586 -1.76909 0
M  V30 14859 C 1430.38 -3.11251 -1.82085 0
M  V30 14860 O 1429.48 -2.9134 -2.91881 0
M  V30 14861 H 1428.82 -0.608351 -0.266092 0
M  V30 14862 H 1431.35 -2.0353 -0.208992 0
M  V30 14863 H 1431.36 -3.41874 -2.2268 0
M  V30 14864 H 1430.04 -3.97652 -1.21844 0
M  V30 14865 H 1428.62 -2.72 -2.55089 0
M  V30 14866 N 1430.8 0.469154 -1.50455 0
M  V30 14867 C 1432.03 1.24899 -1.65575 0
M  V30 14868 C 1432.45 1.85009 -0.339581 0
M  V30 14869 O 1431.81 1.67376 0.696774 0
M  V30 14870 C 1431.86 2.33205 -2.75041 0
M  V30 14871 O 1430.96 3.37898 -2.36429 0
M  V30 14872 H 1430.3 0.367362 -0.553119 0
M  V30 14873 H 1432.83 0.558083 -1.96842 0
M  V30 14874 H 1432.84 2.78487 -2.98176 0
M  V30 14875 H 1431.52 1.88826 -3.70564 0
M  V30 14876 H 1430.09 2.98314 -2.23748 0
M  V30 14877 N 1432.28 1.40065 0.722464 0
M  V30 14878 C 1433.21 1.42532 1.84951 0
M  V30 14879 C 1434.19 0.287082 1.6766 0
M  V30 14880 O 1435.37 0.494715 1.87793 0
M  V30 14881 C 1432.5 1.28041 3.22836 0
M  V30 14882 C 1431.46 2.39396 3.54787 0
M  V30 14883 C 1430.78 2.09986 4.91742 0
M  V30 14884 C 1432.08 3.81729 3.56483 0
M  V30 14885 H 1433.78 2.36851 1.83144 0
M  V30 14886 H 1431.32 1.14005 0.879714 0
M  V30 14887 H 1433.28 1.28385 4.01367 0
M  V30 14888 H 1432 0.301947 3.25201 0
M  V30 14889 H 1430.66 2.3829 2.78592 0
M  V30 14890 H 1430.31 1.10547 4.90702 0
M  V30 14891 H 1430.01 2.84586 5.14086 0
M  V30 14892 H 1431.53 2.12 5.72615 0
M  V30 14893 H 1432.95 3.84696 4.25067 0
M  V30 14894 H 1431.34 4.55791 3.90351 0
M  V30 14895 H 1432.41 4.11807 2.56014 0
M  V30 14896 N 1433.76 -0.95397 1.25448 0
M  V30 14897 C 1434.71 -2.07206 1.05681 0
M  V30 14898 C 1435.7 -1.69395 -0.0124672 0
M  V30 14899 O 1436.91 -1.79429 0.143201 0
M  V30 14900 H 1433.28 -0.678231 0.324817 0
M  V30 14901 H 1435.25 -2.21034 2.00466 0
M  V30 14902 C 1434 -3.40725 0.692955 0
M  V30 14903 H 1433.32 -3.70287 1.50756 0
M  V30 14904 H 1434.76 -4.19814 0.594351 0
M  V30 14905 C 1433.22 -3.31495 -0.601028 0
M  V30 14906 O 1433.75 -3.66565 -1.64296 0
M  V30 14907 N 1431.96 -2.84612 -0.586899 0
M  V30 14908 H 1431.51 -2.56271 0.261375 0
M  V30 14909 H 1431.46 -2.78819 -1.45284 0
M  V30 14910 N 1435.24 -1.07045 -1.15668 0
M  V30 14911 C 1436.48 -0.790172 -1.86013 0
M  V30 14912 C 1436.8 0.685663 -1.82548 0
M  V30 14913 O 1436.07 1.49644 -1.26426 0
M  V30 14914 H 1434.65 -0.28931 -0.688701 0
M  V30 14915 H 1437.32 -1.35354 -1.40233 0
M  V30 14916 H 1436.41 -1.1219 -2.91239 0
M  V30 14917 N 1436.71 1.32449 -0.85411 0
M  V30 14918 C 1437.62 2.32658 -0.301221 0
M  V30 14919 C 1438.64 1.64025 0.580673 0
M  V30 14920 O 1439.82 1.95568 0.481172 0
M  V30 14921 C 1436.88 3.43049 0.501803 0
M  V30 14922 C 1435.94 4.27374 -0.406166 0
M  V30 14923 C 1435.17 5.32494 0.358627 0
M  V30 14924 O 1435.4 5.4783 1.58865 0
M  V30 14925 O 1434.33 6.0127 -0.275291 0
M  V30 14926 H 1438.16 2.81838 -1.13143 0
M  V30 14927 H 1435.74 1.36063 -0.617032 0
M  V30 14928 H 1437.62 4.10375 0.957608 0
M  V30 14929 H 1436.3 2.9606 1.30882 0
M  V30 14930 H 1435.21 3.6286 -0.910136 0
M  V30 14931 H 1436.54 4.77887 -1.17835 0
M  V30 14932 N 1438.19 0.611994 1.45232 0
M  V30 14933 C 1439.6 0.193464 1.85695 0
M  V30 14934 C 1439.95 -1.25069 1.5117 0
M  V30 14935 O 1439.08 -1.94894 0.940497 0
M  V30 14936 C 1439.67 0.344334 3.37046 0
M  V30 14937 C 1438.23 -0.0195378 3.76395 0
M  V30 14938 C 1437.38 0.666714 2.69166 0
M  V30 14939 H 1440.33 0.818395 1.35971 0
M  V30 14940 H 1440.35 -0.422209 3.7815 0
M  V30 14941 H 1439.86 1.3955 3.62143 0
M  V30 14942 H 1437.96 -1.06971 3.56915 0
M  V30 14943 H 1438.08 0.377184 4.77613 0
M  V30 14944 H 1436.44 0.103912 2.54488 0
M  V30 14945 H 1437.22 1.7201 2.97099 0
M  V30 14946 N 1439.67 -1.53632 0.351409 0
M  V30 14947 C 1440.58 -2.2899 -0.509985 0
M  V30 14948 C 1441.6 -1.34403 -1.10507 0
M  V30 14949 O 1442.77 -1.67448 -1.11906 0
M  V30 14950 C 1439.84 -3.05392 -1.64124 0
M  V30 14951 C 1438.9 -4.15619 -1.07514 0
M  V30 14952 C 1438.13 -4.88369 -2.15248 0
M  V30 14953 O 1438.35 -4.60854 -3.3611 0
M  V30 14954 O 1437.29 -5.74636 -1.79101 0
M  V30 14955 H 1441.11 -3.03526 0.10283 0
M  V30 14956 H 1438.7 -1.48947 0.116214 0
M  V30 14957 H 1440.58 -3.53146 -2.29926 0
M  V30 14958 H 1439.26 -2.33705 -2.23972 0
M  V30 14959 H 1438.16 -3.7215 -0.381421 0
M  V30 14960 H 1439.5 -4.8943 -0.521413 0
M  V30 14961 N 1441.15 -0.0802183 -1.57396 0
M  V30 14962 C 1442.08 0.913777 -2.10197 0
M  V30 14963 C 1443.09 1.25588 -1.03593 0
M  V30 14964 O 1444.28 1.21159 -1.31083 0
M  V30 14965 C 1441.38 2.2272 -2.55439 0
M  V30 14966 C 1440.55 2.06268 -3.8571 0
M  V30 14967 C 1439.61 3.20989 -4.16956 0
M  V30 14968 O 1438.64 2.95608 -4.8642 0
M  V30 14969 N 1439.84 4.46331 -3.71172 0
M  V30 14970 H 1442.61 0.462908 -2.96103 0
M  V30 14971 H 1440.17 0.105287 -1.61557 0
M  V30 14972 H 1442.16 2.98389 -2.73397 0
M  V30 14973 H 1440.73 2.59278 -1.74624 0
M  V30 14974 H 1439.95 1.15016 -3.77048 0
M  V30 14975 H 1441.24 1.92535 -4.70965 0
M  V30 14976 H 1440.64 4.69837 -3.15071 0
M  V30 14977 H 1439.19 5.18999 -3.94314 0
M  V30 14978 N 1442.63 1.56409 0.193394 0
M  V30 14979 C 1443.87 1.80367 0.911717 0
M  V30 14980 C 1444.19 0.653561 1.83721 0
M  V30 14981 O 1443.46 -0.328001 1.93135 0
M  V30 14982 H 1442.04 0.665316 0.339652 0
M  V30 14983 H 1444.71 1.93887 0.198496 0
M  V30 14984 H 1443.8 2.7359 1.50182 0
M  V30 14985 N 1444.1 -0.461169 1.50702 0
M  V30 14986 C 1445.35 -1.21431 1.62427 0
M  V30 14987 C 1445.68 -1.91406 0.328228 0
M  V30 14988 O 1444.96 -1.82563 -0.670898 0
M  V30 14989 C 1445.24 -2.25016 2.8114 0
M  V30 14990 C 1445.09 -1.5928 4.20654 0
M  V30 14991 C 1446.41 -3.26234 2.95397 0
M  V30 14992 H 1443.53 -0.440113 0.59116 0
M  V30 14993 H 1446.17 -0.506726 1.83118 0
M  V30 14994 H 1444.32 -2.85363 2.63629 0
M  V30 14995 H 1446 -1.02454 4.49779 0
M  V30 14996 H 1444.24 -0.895665 4.24453 0
M  V30 14997 H 1444.91 -2.34602 4.99666 0
M  V30 14998 H 1447.39 -2.7592 3.1146 0
M  V30 14999 H 1446.26 -3.96031 3.80067 0
M  V30 15000 H 1446.52 -3.90943 2.06436 0
M  V30 15001 N 1445.58 -1.40446 -0.715026 0
M  V30 15002 C 1446.54 -1.40506 -1.81082 0
M  V30 15003 C 1447.54 -0.298768 -1.58 0
M  V30 15004 O 1448.73 -0.5577 -1.65031 0
M  V30 15005 C 1445.87 -1.19735 -3.19181 0
M  V30 15006 H 1447.06 -2.38034 -1.82427 0
M  V30 15007 H 1444.61 -1.26303 -0.920718 0
M  V30 15008 H 1445.35 -0.229695 -3.23486 0
M  V30 15009 H 1445.13 -1.99871 -3.37334 0
M  V30 15010 H 1446.62 -1.22566 -3.99208 0
M  V30 15011 N 1447.06 0.947303 -1.25952 0
M  V30 15012 C 1447.99 2.04485 -1.01297 0
M  V30 15013 C 1448.97 1.62488 0.06024 0
M  V30 15014 O 1450.15 1.88326 -0.0809237 0
M  V30 15015 C 1447.28 3.34484 -0.532733 0
M  V30 15016 C 1446.33 3.95449 -1.59758 0
M  V30 15017 S 1447.16 4.30498 -3.18484 0
M  V30 15018 C 1448.32 5.63605 -2.72213 0
M  V30 15019 H 1448.55 2.25084 -1.94228 0
M  V30 15020 H 1446.08 1.0879 -1.09564 0
M  V30 15021 H 1448.04 4.09661 -0.262309 0
M  V30 15022 H 1446.7 3.11839 0.376192 0
M  V30 15023 H 1445.89 4.892 -1.21243 0
M  V30 15024 H 1445.5 3.26781 -1.81907 0
M  V30 15025 H 1447.79 6.42046 -2.16295 0
M  V30 15026 H 1448.73 6.07 -3.64633 0
M  V30 15027 H 1449.14 5.2319 -2.11974 0
M  V30 15028 N 1448.54 1.07657 1.15099 0
M  V30 15029 C 1449.45 0.711198 2.2356 0
M  V30 15030 C 1450.46 -0.278932 1.7175 0
M  V30 15031 O 1451.64 -0.124788 2.01013 0
M  V30 15032 C 1448.71 0.117855 3.465 0
M  V30 15033 C 1447.77 1.16162 4.13286 0
M  V30 15034 C 1447 0.596494 5.30356 0
M  V30 15035 O 1447.22 -0.586474 5.67377 0
M  V30 15036 O 1446.16 1.34288 5.86729 0
M  V30 15037 H 1449.98 1.61578 2.5715 0
M  V30 15038 H 1447.57 0.84973 1.22882 0
M  V30 15039 H 1449.45 -0.210613 4.20873 0
M  V30 15040 H 1448.12 -0.760008 3.14652 0
M  V30 15041 H 1447.03 1.54249 3.4082 0
M  V30 15042 H 1448.36 2.01149 4.49221 0
M  V30 15043 N 1450.02 -1.31994 0.861122 0
M  V30 15044 C 1450.98 -2.27019 0.315421 0
M  V30 15045 C 1451.98 -1.51864 -0.528575 0
M  V30 15046 O 1453.17 -1.70867 -0.339154 0
M  V30 15047 C 1450.3 -3.36384 -0.553021 0
M  V30 15048 H 1451.49 -2.768 1.1542 0
M  V30 15049 H 1449.05 -1.42776 0.635982 0
M  V30 15050 H 1449.78 -2.91882 -1.41335 0
M  V30 15051 H 1449.57 -3.92067 0.0511919 0
M  V30 15052 H 1451.06 -4.07172 -0.927392 0
M  V30 15053 N 1451.49 -0.619688 -1.44906 0
M  V30 15054 C 1452.74 -0.11981 -2.02446 0
M  V30 15055 C 1453.07 1.2509 -1.48546 0
M  V30 15056 O 1452.35 1.82781 -0.664942 0
M  V30 15057 C 1452.63 -0.0940205 -3.59977 0
M  V30 15058 C 1452.48 -1.49626 -4.24184 0
M  V30 15059 C 1453.8 0.58748 -4.36161 0
M  V30 15060 H 1450.92 -0.0450119 -0.735624 0
M  V30 15061 H 1453.56 -0.793975 -1.72615 0
M  V30 15062 H 1451.71 0.480073 -3.85522 0
M  V30 15063 H 1453.39 -2.11836 -4.09784 0
M  V30 15064 H 1451.63 -2.05348 -3.82119 0
M  V30 15065 H 1452.3 -1.43035 -5.33146 0
M  V30 15066 H 1454.78 0.0993863 -4.15981 0
M  V30 15067 H 1453.65 0.574672 -5.45883 0
M  V30 15068 H 1453.91 1.65579 -4.09922 0
M  V30 15069 N 1452.97 1.53444 -0.359552 0
M  V30 15070 C 1454.22 2.00769 0.231564 0
M  V30 15071 C 1454.54 1.2487 1.49775 0
M  V30 15072 O 1453.81 0.360284 1.92558 0
M  V30 15073 H 1452.39 0.741732 0.0885581 0
M  V30 15074 H 1455.05 1.88785 -0.484397 0
M  V30 15075 H 1454.15 3.0865 0.462789 0
M  V30 15076 N 1454.45 0.0885642 1.57351 0
M  V30 15077 C 1455.38 -0.902617 2.10679 0
M  V30 15078 C 1456.4 -1.25037 1.04257 0
M  V30 15079 O 1457.58 -1.20462 1.31723 0
M  V30 15080 C 1454.68 -2.21362 2.56616 0
M  V30 15081 C 1453.86 -2.04219 3.86799 0
M  V30 15082 C 1452.92 -3.18774 4.18652 0
M  V30 15083 O 1451.94 -2.93024 4.87981 0
M  V30 15084 N 1453.14 -4.44357 3.73534 0
M  V30 15085 H 1455.91 -0.447199 2.96345 0
M  V30 15086 H 1453.47 -0.0967178 1.61611 0
M  V30 15087 H 1455.46 -2.96935 2.74976 0
M  V30 15088 H 1454.03 -2.58349 1.75996 0
M  V30 15089 H 1453.25 -1.13015 3.77652 0
M  V30 15090 H 1454.54 -1.90035 4.71979 0
M  V30 15091 H 1453.94 -4.68159 3.17558 0
M  V30 15092 H 1452.5 -5.169 3.97061 0
M  V30 15093 N 1455.93 -1.56509 -0.185096 0
M  V30 15094 C 1456.88 -1.96237 -1.24875 0
M  V30 15095 C 1457.87 -0.849169 -1.46579 0
M  V30 15096 O 1459.08 -1.03422 -1.47322 0
M  V30 15097 H 1455.45 -0.624147 -0.419457 0
M  V30 15098 H 1457.42 -2.8492 -0.88673 0
M  V30 15099 C 1456.17 -2.32667 -2.58382 0
M  V30 15100 H 1455.49 -3.17858 -2.425 0
M  V30 15101 H 1456.93 -2.6432 -3.31528 0
M  V30 15102 C 1455.39 -1.16496 -3.16118 0
M  V30 15103 O 1455.92 -0.445283 -3.99224 0
M  V30 15104 N 1454.13 -0.939133 -2.75007 0
M  V30 15105 H 1453.68 -1.52611 -2.07527 0
M  V30 15106 H 1453.63 -0.163659 -3.13974 0
M  V30 15107 N 1457.41 0.45317 -1.50944 0
M  V30 15108 C 1458.68 1.21413 -1.53357 0
M  V30 15109 C 1459.06 2.09118 -0.288584 0
M  V30 15110 O 1458.41 2.16621 0.727164 0
M  V30 15111 C 1458.62 2.02969 -2.83909 0
M  V30 15112 C 1459.97 2.60551 -3.35258 0
M  V30 15113 O 1460.99 2.13196 -2.85353 0
M  V30 15114 O 1459.85 3.46881 -4.22298 0
M  V30 15115 H 1456.95 0.551909 -0.615894 0
M  V30 15116 H 1459.49 0.463529 -1.63247 0
M  V30 15117 H 1458.26 1.38453 -3.65987 0
M  V30 15118 H 1457.89 2.85127 -2.77107 0
M  V30 15119 N 1458.88 1.40823 0.707568 0
M  V30 15120 C 1460.12 1.40992 1.47989 0
M  V30 15121 C 1460.49 0.0138056 1.91995 0
M  V30 15122 O 1461.69 -0.109666 2.68576 0
M  V30 15123 C 1459.96 2.37857 2.66756 0
M  V30 15124 S 1461.52 2.56453 3.56058 0
M  V30 15125 H 1458.34 0.499622 0.505864 0
M  V30 15126 H 1460.94 1.77161 0.826703 0
M  V30 15127 H 1459.64 3.38113 2.32611 0
M  V30 15128 H 1459.17 2.03 3.36979 0
M  V30 15129 H 1461.19 1.82294 4.61501 0
M  V30 15130 N 1460.36 -0.94061 1.26453 0
M  V30 15131 C 1461.59 -1.72654 1.14914 0
M  V30 15132 C 1462.01 -1.85823 -0.291789 0
M  V30 15133 O 1461.37 -1.34888 -1.2114 0
M  V30 15134 C 1461.42 -3.11083 1.82372 0
M  V30 15135 O 1460.52 -3.971 1.1129 0
M  V30 15136 H 1459.86 -0.529704 0.400387 0
M  V30 15137 H 1462.39 -1.17803 1.67283 0
M  V30 15138 H 1462.4 -3.6147 1.89219 0
M  V30 15139 H 1461.08 -3.00815 2.87199 0
M  V30 15140 H 1459.66 -3.5555 1.12423 0
M  V30 15141 N 1461.84 -1.08266 -1.14527 0
M  V30 15142 C 1463.09 -0.806405 -1.84878 0
M  V30 15143 C 1463.4 0.670151 -1.83762 0
M  V30 15144 O 1464.61 1.06151 -2.49888 0
M  V30 15145 C 1463.06 -1.39257 -3.31867 0
M  V30 15146 C 1462.67 -2.90081 -3.41404 0
M  V30 15147 C 1464.42 -1.19475 -4.0734 0
M  V30 15148 C 1462.32 -3.41842 -4.82595 0
M  V30 15149 H 1461.25 -0.297993 -0.692615 0
M  V30 15150 H 1463.9 -1.30389 -1.29116 0
M  V30 15151 H 1462.29 -0.822802 -3.87358 0
M  V30 15152 H 1463.46 -3.53182 -2.95971 0
M  V30 15153 H 1461.78 -3.08761 -2.79385 0
M  V30 15154 H 1464.37 -1.55614 -5.11555 0
M  V30 15155 H 1464.72 -0.134455 -4.16083 0
M  V30 15156 H 1465.25 -1.73138 -3.58145 0
M  V30 15157 H 1461.99 -4.47439 -4.79039 0
M  V30 15158 H 1461.51 -2.835 -5.28572 0
M  V30 15159 H 1463.19 -3.38346 -5.51481 0
M  V30 15160 N 1463.32 1.31536 -0.86811 0
M  V30 15161 C 1464.55 2.00661 -0.491815 0
M  V30 15162 C 1464.96 1.65341 0.919733 0
M  V30 15163 O 1464.3 0.87773 1.61374 0
M  V30 15164 C 1464.36 3.55002 -0.566926 0
M  V30 15165 C 1464.03 4.1379 -1.93976 0
M  V30 15166 C 1465.02 4.31032 -2.90702 0
M  V30 15167 C 1462.71 4.4956 -2.24056 0
M  V30 15168 C 1464.7 4.8323 -4.15653 0
M  V30 15169 C 1462.39 5.01461 -3.49257 0
M  V30 15170 C 1463.39 5.18246 -4.44871 0
M  V30 15171 O 1463.08 5.69033 -5.67852 0
M  V30 15172 H 1462.81 0.648663 -0.190296 0
M  V30 15173 H 1465.36 1.68783 -1.17053 0
M  V30 15174 H 1463.59 3.86332 0.168704 0
M  V30 15175 H 1465.28 4.05385 -0.204323 0
M  V30 15176 H 1466.05 4.03717 -2.6877 0
M  V30 15177 H 1461.93 4.35772 -1.50412 0
M  V30 15178 H 1465.47 4.96247 -4.9029 0
M  V30 15179 H 1461.37 5.28209 -3.71033 0
M  V30 15180 H 1462.13 5.87405 -5.69998 0
M  V30 15181 N 1464.8 0.627364 1.44575 0
M  V30 15182 C 1466.05 0.130094 2.01681 0
M  V30 15183 C 1466.37 -1.25112 1.49572 0
M  V30 15184 O 1465.64 -1.8305 0.697822 0
M  V30 15185 H 1464.22 0.0451032 0.745637 0
M  V30 15186 H 1466.88 0.813218 1.77124 0
M  V30 15187 H 1465.97 0.0949131 3.11956 0
M  V30 15188 N 1466.28 -1.53251 0.367684 0
M  V30 15189 C 1467.19 -2.29518 -0.485669 0
M  V30 15190 C 1468.2 -1.35568 -1.09075 0
M  V30 15191 O 1469.38 -1.68626 -1.10124 0
M  V30 15192 C 1466.44 -3.07115 -1.60876 0
M  V30 15193 C 1465.5 -4.16736 -1.031 0
M  V30 15194 C 1464.74 -4.90624 -2.10056 0
M  V30 15195 O 1464.96 -4.64393 -3.31203 0
M  V30 15196 O 1463.89 -5.76503 -1.72996 0
M  V30 15197 H 1467.72 -3.034 0.135017 0
M  V30 15198 H 1465.3 -1.48816 0.132005 0
M  V30 15199 H 1467.19 -3.55564 -2.26168 0
M  V30 15200 H 1465.86 -2.36068 -2.21481 0
M  V30 15201 H 1464.77 -3.72534 -0.341928 0
M  V30 15202 H 1466.1 -4.89956 -0.469473 0
M  V30 15203 N 1467.75 -0.0969077 -1.57302 0
M  V30 15204 C 1469.03 0.608737 -1.85886 0
M  V30 15205 C 1469.41 1.86228 -0.994096 0
M  V30 15206 O 1468.76 2.28402 -0.0669975 0
M  V30 15207 C 1468.97 0.922385 -3.3659 0
M  V30 15208 C 1470.32 1.28505 -4.04687 0
M  V30 15209 O 1471.34 1.01334 -3.41482 0
M  V30 15210 O 1470.2 1.794 -5.16215 0
M  V30 15211 H 1467.29 0.304808 -0.768779 0
M  V30 15212 H 1469.84 -0.129742 -1.69203 0
M  V30 15213 H 1468.61 0.0331488 -3.91286 0
M  V30 15214 H 1468.23 1.71678 -3.58626 0
M  V30 15215 N 1469.23 1.56605 0.176793 0
M  V30 15216 C 1470.46 1.85812 0.910019 0
M  V30 15217 C 1470.87 0.68164 1.76066 0
M  V30 15218 O 1470.23 -0.34936 1.79125 0
M  V30 15219 C 1470.28 3.14001 1.79125 0
M  V30 15220 O 1470 4.27114 0.974931 0
M  V30 15221 C 1471.5 3.56516 2.6346 0
M  V30 15222 H 1468.72 0.616608 0.264643 0
M  V30 15223 H 1471.27 2.03719 0.178537 0
M  V30 15224 H 1469.42 2.97937 2.47613 0
M  V30 15225 H 1469.84 5.00227 1.57711 0
M  V30 15226 H 1471.31 4.49128 3.20918 0
M  V30 15227 H 1471.79 2.80373 3.38065 0
M  V30 15228 H 1472.39 3.75173 2.00313 0
M  V30 15229 N 1470.71 -0.445159 1.51182 0
M  V30 15230 C 1471.96 -1.19701 1.63705 0
M  V30 15231 C 1472.29 -1.91047 0.348511 0
M  V30 15232 O 1471.56 -1.83264 -0.651497 0
M  V30 15233 C 1471.85 -2.22021 2.83511 0
M  V30 15234 C 1471.7 -1.54809 4.2232 0
M  V30 15235 C 1473.02 -3.23083 2.9884 0
M  V30 15236 H 1470.14 -0.433818 0.595795 0
M  V30 15237 H 1472.78 -0.487276 1.83645 0
M  V30 15238 H 1470.93 -2.82551 2.66641 0
M  V30 15239 H 1472.6 -0.976774 4.5084 0
M  V30 15240 H 1470.84 -0.850596 4.25379 0
M  V30 15241 H 1471.52 -2.29289 5.02126 0
M  V30 15242 H 1473.99 -2.72601 3.14369 0
M  V30 15243 H 1472.87 -3.91978 3.84246 0
M  V30 15244 H 1473.13 -3.88732 2.1057 0
M  V30 15245 N 1472.19 -1.41197 -0.700089 0
M  V30 15246 C 1473.42 -1.43658 -1.48896 0
M  V30 15247 C 1473.83 -0.0405771 -1.88756 0
M  V30 15248 O 1473.19 0.93909 -1.56484 0
M  V30 15249 C 1473.24 -2.34125 -2.75441 0
M  V30 15250 O 1472.96 -3.68291 -2.37261 0
M  V30 15251 C 1474.46 -2.45342 -3.69218 0
M  V30 15252 H 1471.68 -0.48945 -0.458999 0
M  V30 15253 H 1474.22 -1.85429 -0.862345 0
M  V30 15254 H 1472.38 -1.95674 -3.34351 0
M  V30 15255 H 1472.79 -4.16495 -3.18798 0
M  V30 15256 H 1474.27 -3.12818 -4.54807 0
M  V30 15257 H 1474.74 -1.48327 -4.13395 0
M  V30 15258 H 1475.35 -2.84409 -3.16214 0
M  V30 15259 N 1473.67 0.933891 -1.2695 0
M  V30 15260 C 1474.94 1.65874 -1.0366 0
M  V30 15261 C 1475.32 2.0666 0.43066 0
M  V30 15262 O 1474.67 1.79606 1.41259 0
M  V30 15263 C 1474.88 2.86546 -1.99229 0
M  V30 15264 C 1476.23 3.58031 -2.28251 0
M  V30 15265 O 1477.25 2.96663 -1.97154 0
M  V30 15266 O 1476.11 4.68583 -2.81233 0
M  V30 15267 H 1473.21 0.72673 -0.394706 0
M  V30 15268 H 1475.75 0.984975 -1.38189 0
M  V30 15269 H 1474.52 2.53351 -2.9821 0
M  V30 15270 H 1474.15 3.61645 -1.65224 0
M  V30 15271 N 1475.14 1.08871 1.13951 0
M  V30 15272 C 1476.05 0.734869 2.22793 0
M  V30 15273 C 1477.07 -0.260699 1.72036 0
M  V30 15274 O 1478.25 -0.103461 2.01134 0
M  V30 15275 C 1475.31 0.154599 3.46355 0
M  V30 15276 C 1474.37 1.20539 4.1203 0
M  V30 15277 C 1473.6 0.652712 5.29694 0
M  V30 15278 O 1473.83 -0.526264 5.67967 0
M  V30 15279 O 1472.76 1.40503 5.85271 0
M  V30 15280 H 1476.59 1.64297 2.55422 0
M  V30 15281 H 1474.17 0.862716 1.21974 0
M  V30 15282 H 1476.05 -0.165962 4.21073 0
M  V30 15283 H 1474.73 -0.726592 3.1544 0
M  V30 15284 H 1473.64 1.57855 3.39164 0
M  V30 15285 H 1474.97 2.05902 4.47063 0
M  V30 15286 N 1476.62 -1.31073 0.875073 0
M  V30 15287 C 1477.53 -2.3215 0.338196 0
M  V30 15288 C 1478.55 -1.64928 -0.554504 0
M  V30 15289 O 1479.72 -1.96308 -0.449998 0
M  V30 15290 C 1476.79 -3.43804 -0.447163 0
M  V30 15291 C 1475.85 -4.26674 0.474106 0
M  V30 15292 C 1475.08 -5.32997 -0.273867 0
M  V30 15293 O 1475.31 -5.50288 -1.50129 0
M  V30 15294 O 1474.24 -6.00756 0.370913 0
M  V30 15295 H 1478.07 -2.80002 1.17612 0
M  V30 15296 H 1475.65 -1.35064 0.6386 0
M  V30 15297 H 1477.53 -4.11847 -0.892199 0
M  V30 15298 H 1476.21 -2.98105 -1.26155 0
M  V30 15299 H 1475.11 -3.61366 0.967748 0
M  V30 15300 H 1476.45 -4.75952 1.25423 0
M  V30 15301 N 1478.1 -0.635022 -1.4424 0
M  V30 15302 C 1479.35 -0.140788 -2.01609 0
M  V30 15303 C 1479.67 1.24317 -1.50234 0
M  V30 15304 O 1478.94 1.82677 -0.707519 0
M  V30 15305 H 1477.52 -0.0490568 -0.745387 0
M  V30 15306 H 1480.18 -0.8226 -1.7669 0
M  V30 15307 H 1479.28 -0.111456 -3.11901 0
M  V30 15308 N 1479.58 1.53054 -0.375806 0
M  V30 15309 C 1480.53 2.2605 0.46582 0
M  V30 15310 C 1481.5 1.27123 1.06906 0
M  V30 15311 O 1482.68 1.55926 1.09963 0
M  V30 15312 C 1479.82 3.06066 1.59429 0
M  V30 15313 C 1478.93 4.19901 1.01523 0
M  V30 15314 C 1478.07 4.87339 2.11363 0
M  V30 15315 C 1477.11 5.93189 1.50976 0
M  V30 15316 N 1476.24 6.54276 2.54692 0
M  V30 15317 H 1481.08 2.97553 -0.163149 0
M  V30 15318 H 1478.62 1.4681 -0.092282 0
M  V30 15319 H 1480.58 3.50739 2.25915 0
M  V30 15320 H 1479.21 2.36799 2.19377 0
M  V30 15321 H 1478.26 3.7964 0.240346 0
M  V30 15322 H 1479.57 4.95935 0.533812 0
M  V30 15323 H 1478.73 5.35247 2.85649 0
M  V30 15324 H 1477.47 4.10799 2.6286 0
M  V30 15325 H 1476.47 5.44632 0.752095 0
M  V30 15326 H 1477.7 6.71654 1.00291 0
M  V30 15327 H 1475.64 5.80584 3.05383 0
M  V30 15328 H 1475.56 7.2588 2.11267 0
M  V30 15329 H 1476.83 7.06831 3.28648 0
M  V30 15330 N 1481.06 0.105248 1.57248 0
M  V30 15331 C 1482.3 -0.556054 1.94716 0
M  V30 15332 C 1482.63 -1.67557 0.987669 0
M  V30 15333 O 1481.89 -1.95698 0.00905706 0
M  V30 15334 C 1482.19 -1.14178 3.38671 0
M  V30 15335 C 1481.85 -0.145022 4.50667 0
M  V30 15336 C 1480.51 0.129099 4.81027 0
M  V30 15337 C 1482.87 0.535015 5.18447 0
M  V30 15338 C 1480.19 1.08978 5.7649 0
M  V30 15339 C 1482.55 1.48423 6.14942 0
M  V30 15340 C 1481.21 1.76648 6.43702 0
M  V30 15341 H 1480.48 -0.203475 0.712516 0
M  V30 15342 H 1483.13 0.183237 1.90621 0
M  V30 15343 H 1481.43 -1.95754 3.39393 0
M  V30 15344 H 1483.13 -1.66132 3.64967 0
M  V30 15345 H 1479.72 -0.36886 4.2701 0
M  V30 15346 H 1483.9 0.336391 4.95159 0
M  V30 15347 H 1479.16 1.31535 5.97083 0
M  V30 15348 H 1483.33 2.01693 6.66553 0
M  V30 15349 H 1480.96 2.51245 7.17482 0
M  V30 15350 N 1482.53 -1.56697 -0.168486 0
M  V30 15351 C 1483.95 -1.50879 -0.52036 0
M  V30 15352 C 1484.15 -0.810001 -1.84503 0
M  V30 15353 O 1483.21 -0.371549 -2.49751 0
M  V30 15354 C 1484.52 -2.95618 -0.550502 0
M  V30 15355 C 1486.07 -3.06439 -0.637508 0
M  V30 15356 C 1486.54 -4.52642 -0.698516 0
M  V30 15357 N 1488.03 -4.569 -0.761328 0
M  V30 15358 C 1488.77 -5.67373 -0.829155 0
M  V30 15359 N 1488.26 -6.87471 -0.857642 0
M  V30 15360 N 1490.06 -5.55352 -0.868392 0
M  V30 15361 H 1482.21 -2.00531 0.700087 0
M  V30 15362 H 1484.47 -0.913683 0.252759 0
M  V30 15363 H 1484.18 -3.49912 0.354222 0
M  V30 15364 H 1484.05 -3.50416 -1.396 0
M  V30 15365 H 1486.44 -2.52178 -1.53266 0
M  V30 15366 H 1486.52 -2.54721 0.234719 0
M  V30 15367 H 1486.16 -5.07535 0.192387 0
M  V30 15368 H 1486.09 -5.0212 -1.58693 0
M  V30 15369 H 1488.58 -3.70434 -0.747482 0
M  V30 15370 H 1488.9 -7.67416 -0.910648 0
M  V30 15371 H 1487.24 -6.90076 -0.825872 0
M  V30 15372 H 1490.43 -4.60444 -0.843158 0
M  V30 15373 H 1490.61 -6.41468 -0.917789 0
M  V30 15374 N 1484.01 0.437135 -1.51416 0
M  V30 15375 C 1484.94 1.538 -1.75692 0
M  V30 15376 C 1485.92 1.5891 -0.606759 0
M  V30 15377 O 1487.11 1.74635 -0.849492 0
M  V30 15378 C 1484.24 2.91877 -1.88215 0
M  V30 15379 C 1483.19 3.01628 -3.03652 0
M  V30 15380 C 1482.52 4.41687 -3.01358 0
M  V30 15381 C 1483.82 2.75691 -4.43612 0
M  V30 15382 H 1485.51 1.33737 -2.67871 0
M  V30 15383 H 1483.06 0.641936 -1.289 0
M  V30 15384 H 1485.01 3.68851 -2.03781 0
M  V30 15385 H 1483.74 3.13173 -0.926847 0
M  V30 15386 H 1482.39 2.27094 -2.87791 0
M  V30 15387 H 1482.04 4.5995 -2.03605 0
M  V30 15388 H 1481.74 4.49141 -3.78875 0
M  V30 15389 H 1483.27 5.20634 -3.19018 0
M  V30 15390 H 1484.68 3.42398 -4.59822 0
M  V30 15391 H 1483.08 2.94554 -5.22836 0
M  V30 15392 H 1484.15 1.71297 -4.53636 0
M  V30 15393 N 1485.49 1.41566 0.692592 0
M  V30 15394 C 1486.91 1.24101 1.00355 0
M  V30 15395 C 1487.11 0.132485 2.01064 0
M  V30 15396 O 1486.16 -0.502142 2.47457 0
M  V30 15397 C 1487.48 2.59142 1.52532 0
M  V30 15398 C 1489.02 2.66348 1.64401 0
M  V30 15399 C 1489.5 4.01713 2.19978 0
M  V30 15400 N 1490.99 4.03575 2.27335 0
M  V30 15401 C 1491.72 5.05118 2.71373 0
M  V30 15402 N 1491.22 6.1705 3.14994 0
M  V30 15403 N 1493.01 4.92479 2.70963 0
M  V30 15404 H 1485.16 2.12385 0.0254859 0
M  V30 15405 H 1487.43 0.945118 0.0738684 0
M  V30 15406 H 1487.13 3.41026 0.85989 0
M  V30 15407 H 1487.01 2.81833 2.50699 0
M  V30 15408 H 1489.39 1.84821 2.30055 0
M  V30 15409 H 1489.48 2.47464 0.647717 0
M  V30 15410 H 1489.12 4.8369 1.54939 0
M  V30 15411 H 1489.05 4.1794 3.20365 0
M  V30 15412 H 1491.54 3.2276 1.96556 0
M  V30 15413 H 1491.85 6.90399 3.47231 0
M  V30 15414 H 1490.2 6.20582 3.12895 0
M  V30 15415 H 1493.39 4.04117 2.36236 0
M  V30 15416 H 1493.56 5.71752 3.04965 0
M  V30 15417 N 1486.97 -0.927146 1.27443 0
M  V30 15418 C 1488.22 -1.67159 1.13589 0
M  V30 15419 C 1488.54 -1.92379 -0.31865 0
M  V30 15420 O 1487.81 -1.53045 -1.22287 0
M  V30 15421 H 1486.39 -0.619524 0.417371 0
M  V30 15422 H 1489.05 -1.11323 1.59979 0
M  V30 15423 H 1488.15 -2.63954 1.66537 0
M  V30 15424 N 1488.45 -1.09474 -1.13372 0
M  V30 15425 C 1489.38 -0.756441 -2.20908 0
M  V30 15426 C 1490.36 0.266113 -1.68006 0
M  V30 15427 O 1491.54 0.134067 -1.93737 0
M  V30 15428 C 1488.67 -0.176733 -3.4685 0
M  V30 15429 C 1487.63 -1.12886 -4.12845 0
M  V30 15430 C 1486.95 -0.410831 -5.33119 0
M  V30 15431 C 1488.25 -2.47148 -4.60125 0
M  V30 15432 H 1489.95 -1.65555 -2.49463 0
M  V30 15433 H 1487.49 -0.797458 -1.19902 0
M  V30 15434 H 1489.45 0.0720151 -4.21338 0
M  V30 15435 H 1488.17 0.757576 -3.17692 0
M  V30 15436 H 1486.83 -1.36289 -3.40325 0
M  V30 15437 H 1486.48 0.527632 -5.00225 0
M  V30 15438 H 1486.18 -1.04567 -5.78221 0
M  V30 15439 H 1487.7 -0.170394 -6.10362 0
M  V30 15440 H 1489.11 -2.27949 -5.26034 0
M  V30 15441 H 1487.51 -3.06425 -5.15969 0
M  V30 15442 H 1488.58 -3.07874 -3.74622 0
M  V30 15443 N 1489.92 1.30607 -0.882012 0
M  V30 15444 C 1490.85 2.30666 -0.362706 0
M  V30 15445 C 1491.84 1.60865 0.552861 0
M  V30 15446 O 1493.02 1.88493 0.467339 0
M  V30 15447 C 1490.15 3.44675 0.42622 0
M  V30 15448 C 1489.1 4.26152 -0.397322 0
M  V30 15449 C 1488.43 5.32185 0.518027 0
M  V30 15450 C 1489.73 4.95955 -1.63785 0
M  V30 15451 H 1491.42 2.74351 -1.19883 0
M  V30 15452 H 1488.97 1.31895 -0.577912 0
M  V30 15453 H 1490.92 4.13734 0.80013 0
M  V30 15454 H 1489.65 2.99787 1.29597 0
M  V30 15455 H 1488.31 3.58776 -0.753332 0
M  V30 15456 H 1487.95 4.83545 1.3854 0
M  V30 15457 H 1487.65 5.87593 -0.0291802 0
M  V30 15458 H 1489.18 6.04101 0.888518 0
M  V30 15459 H 1490.59 5.57547 -1.3347 0
M  V30 15460 H 1488.99 5.61215 -2.12504 0
M  V30 15461 H 1490.06 4.22252 -2.38394 0
M  V30 15462 N 1491.4 0.642663 1.43901 0
M  V30 15463 C 1492.81 0.232809 1.85243 0
M  V30 15464 C 1493.16 -1.21834 1.53789 0
M  V30 15465 O 1492.29 -1.92855 0.981625 0
M  V30 15466 C 1492.88 0.415749 3.36239 0
M  V30 15467 C 1491.44 0.0603055 3.76352 0
M  V30 15468 C 1490.59 0.723658 2.67691 0
M  V30 15469 H 1493.54 0.847052 1.34204 0
M  V30 15470 H 1493.56 -0.341903 3.78961 0
M  V30 15471 H 1493.07 1.472 3.59101 0
M  V30 15472 H 1491.18 -0.993761 3.59103 0
M  V30 15473 H 1491.29 0.478408 4.76705 0
M  V30 15474 H 1489.65 0.15787 2.5421 0
M  V30 15475 H 1490.44 1.78273 2.93383 0
M  V30 15476 N 1492.88 -1.52852 0.383918 0
M  V30 15477 C 1494.13 -2.01112 -0.199594 0
M  V30 15478 C 1494.45 -1.27237 -1.47769 0
M  V30 15479 O 1493.72 -0.390873 -1.91961 0
M  V30 15480 H 1492.3 -0.743047 -0.0767466 0
M  V30 15481 H 1494.96 -1.8799 0.51437 0
M  V30 15482 H 1494.06 -3.09347 -0.413627 0
M  V30 15483 N 1494.36 -0.113586 -1.5719 0
M  V30 15484 C 1495.6 0.548872 -1.96893 0
M  V30 15485 C 1495.96 1.64191 -0.99525 0
M  V30 15486 O 1497.16 2.36289 -1.28145 0
M  V30 15487 C 1495.44 1.07279 -3.40919 0
M  V30 15488 S 1496.99 1.74453 -4.02631 0
M  V30 15489 H 1493.81 0.178565 -0.688212 0
M  V30 15490 H 1496.41 -0.197382 -1.94501 0
M  V30 15491 H 1495.12 0.266019 -4.09537 0
M  V30 15492 H 1494.65 1.85444 -3.46949 0
M  V30 15493 H 1496.66 3.02998 -3.92946 0
M  V30 15494 N 1495.84 1.56784 0.160173 0
M  V30 15495 C 1497.08 1.82891 0.876278 0
M  V30 15496 C 1497.42 0.693173 1.81408 0
M  V30 15497 O 1496.69 -0.304136 1.92107 0
M  V30 15498 C 1496.97 3.19439 1.66226 0
M  V30 15499 C 1496.83 4.43557 0.746831 0
M  V30 15500 C 1498.15 3.53053 2.62758 0
M  V30 15501 H 1495.27 0.665285 0.31712 0
M  V30 15502 H 1497.91 1.89469 0.142004 0
M  V30 15503 H 1496.06 3.13962 2.28823 0
M  V30 15504 H 1497.73 4.61109 0.132876 0
M  V30 15505 H 1495.97 4.33764 0.0555625 0
M  V30 15506 H 1496.64 5.35675 1.33253 0
M  V30 15507 H 1499.12 3.59054 2.10284 0
M  V30 15508 H 1498 4.4965 3.14811 0
M  V30 15509 H 1498.26 2.78329 3.4349 0
M  V30 15510 N 1497.32 -0.429099 1.51646 0
M  V30 15511 C 1498.55 -1.19832 1.68297 0
M  V30 15512 C 1498.95 -1.85275 0.383378 0
M  V30 15513 O 1498.3 -1.71862 -0.648771 0
M  V30 15514 C 1498.36 -2.31803 2.74786 0
M  V30 15515 C 1498.02 -1.8666 4.17141 0
M  V30 15516 C 1499.02 -1.36544 5.01649 0
M  V30 15517 C 1496.7 -1.94101 4.63282 0
M  V30 15518 C 1498.7 -0.944655 6.30361 0
M  V30 15519 C 1496.39 -1.51634 5.91988 0
M  V30 15520 C 1497.38 -1.01899 6.75356 0
M  V30 15521 O 1497.07 -0.600375 8.01655 0
M  V30 15522 H 1496.8 -0.366924 0.567752 0
M  V30 15523 H 1499.36 -0.513643 1.98874 0
M  V30 15524 H 1497.59 -3.03573 2.39542 0
M  V30 15525 H 1499.28 -2.93639 2.80234 0
M  V30 15526 H 1500.04 -1.30184 4.67201 0
M  V30 15527 H 1495.92 -2.31758 3.98509 0
M  V30 15528 H 1499.47 -0.555763 6.95383 0
M  V30 15529 H 1495.36 -1.57667 6.25948 0
M  V30 15530 H 1496.13 -0.725485 8.15278 0
M  V30 15531 N 1498.79 -1.41931 -0.685074 0
M  V30 15532 C 1499.74 -1.41066 -1.79121 0
M  V30 15533 C 1500.73 -0.283467 -1.58383 0
M  V30 15534 O 1501.92 -0.524931 -1.69037 0
M  V30 15535 C 1499.05 -1.30551 -3.17508 0
M  V30 15536 C 1498.13 -2.48174 -3.43905 0
M  V30 15537 N 1498.53 -3.73621 -3.40941 0
M  V30 15538 C 1496.82 -2.42213 -3.74498 0
M  V30 15539 C 1497.52 -4.51693 -3.66536 0
M  V30 15540 N 1496.5 -3.81955 -3.86796 0
M  V30 15541 H 1500.3 -2.35965 -1.75208 0
M  V30 15542 H 1497.82 -1.36135 -0.885498 0
M  V30 15543 H 1499.81 -1.28013 -3.9676 0
M  V30 15544 H 1498.47 -0.366454 -3.22625 0
M  V30 15545 H 1499.48 -4.0636 -3.21079 0
M  V30 15546 H 1496.16 -1.56835 -3.86923 0
M  V30 15547 H 1497.55 -5.60654 -3.70292 0
M  V30 15548 N 1500.27 0.920374 -1.27933 0
M  V30 15549 C 1501.52 1.67131 -1.1487 0
M  V30 15550 C 1501.85 1.91816 0.303343 0
M  V30 15551 O 1501.13 1.51379 1.22125 0
M  V30 15552 C 1501.41 3.03332 -1.94066 0
M  V30 15553 C 1501.26 2.85842 -3.47296 0
M  V30 15554 C 1502.58 4.03773 -1.75087 0
M  V30 15555 H 1499.7 0.606537 -0.418666 0
M  V30 15556 H 1502.34 1.06755 -1.57173 0
M  V30 15557 H 1500.49 3.54869 -1.58116 0
M  V30 15558 H 1502.16 2.41367 -3.93115 0
M  V30 15559 H 1500.41 2.21035 -3.73264 0
M  V30 15560 H 1501.08 3.82535 -3.97958 0
M  V30 15561 H 1503.55 3.61274 -2.06447 0
M  V30 15562 H 1502.43 4.97048 -2.32882 0
M  V30 15563 H 1502.69 4.36512 -0.700665 0
M  V30 15564 N 1501.75 1.10074 1.1279 0
M  V30 15565 C 1502.68 0.704023 2.1812 0
M  V30 15566 C 1503.69 -0.25742 1.60752 0
M  V30 15567 O 1504.88 -0.0424559 1.7845 0
M  V30 15568 C 1501.98 0.0176666 3.38895 0
M  V30 15569 C 1501.16 1.00234 4.2576 0
M  V30 15570 C 1500.22 0.348158 5.25047 0
M  V30 15571 O 1499.24 0.997821 5.60386 0
M  V30 15572 N 1500.44 -0.894955 5.7356 0
M  V30 15573 H 1503.21 1.61024 2.52767 0
M  V30 15574 H 1500.77 0.989068 1.28176 0
M  V30 15575 H 1502.76 -0.431346 4.02395 0
M  V30 15576 H 1501.33 -0.7909 3.02429 0
M  V30 15577 H 1500.55 1.62972 3.58934 0
M  V30 15578 H 1501.84 1.669 4.80647 0
M  V30 15579 H 1501.24 -1.4422 5.47007 0
M  V30 15580 H 1499.79 -1.28718 6.38964 0
M  V30 15581 N 1503.23 -1.30138 0.888926 0
M  V30 15582 C 1504.16 -2.3047 0.374934 0
M  V30 15583 C 1505.14 -1.61156 -0.544322 0
M  V30 15584 O 1506.32 -1.88738 -0.457337 0
M  V30 15585 C 1503.45 -3.44896 -0.407935 0
M  V30 15586 C 1502.41 -4.25935 0.419916 0
M  V30 15587 C 1501.73 -5.32452 -0.489797 0
M  V30 15588 C 1503.03 -4.9508 1.66413 0
M  V30 15589 H 1504.73 -2.73711 1.21337 0
M  V30 15590 H 1502.27 -1.31586 0.584899 0
M  V30 15591 H 1504.23 -4.14153 -0.778177 0
M  V30 15592 H 1502.95 -3.0047 -1.28005 0
M  V30 15593 H 1501.61 -3.58372 0.772348 0
M  V30 15594 H 1501.26 -4.84273 -1.35974 0
M  V30 15595 H 1500.96 -5.87569 0.0603412 0
M  V30 15596 H 1502.48 -6.04563 -0.856468 0
M  V30 15597 H 1503.9 -5.56831 1.36425 0
M  V30 15598 H 1502.29 -5.6008 2.15477 0
M  V30 15599 H 1503.36 -4.20981 2.4063 0
M  V30 15600 N 1504.71 -0.650285 -1.43559 0
M  V30 15601 C 1505.65 0.043098 -2.3076 0
M  V30 15602 C 1506.62 0.81763 -1.44582 0
M  V30 15603 O 1507.81 0.794825 -1.73457 0
M  V30 15604 C 1504.95 1.00557 -3.30125 0
M  V30 15605 C 1504.06 0.227448 -4.31401 0
M  V30 15606 C 1503.2 1.18345 -5.17849 0
M  V30 15607 C 1502.23 0.395596 -6.1082 0
M  V30 15608 N 1501.37 1.30304 -6.89902 0
M  V30 15609 H 1506.21 -0.706402 -2.89506 0
M  V30 15610 H 1503.75 -0.360118 -1.42624 0
M  V30 15611 H 1505.71 1.57717 -3.8624 0
M  V30 15612 H 1504.34 1.72198 -2.73034 0
M  V30 15613 H 1503.39 -0.460391 -3.77604 0
M  V30 15614 H 1504.7 -0.385316 -4.9731 0
M  V30 15615 H 1503.85 1.82578 -5.78576 0
M  V30 15616 H 1502.59 1.83013 -4.52059 0
M  V30 15617 H 1501.6 -0.260099 -5.49184 0
M  V30 15618 H 1502.82 -0.246633 -6.78652 0
M  V30 15619 H 1500.77 1.93657 -6.26764 0
M  V30 15620 H 1500.69 0.744768 -7.52323 0
M  V30 15621 H 1501.95 1.93361 -7.55137 0
M  V30 15622 N 1506.18 1.52647 -0.392018 0
M  V30 15623 C 1507.15 2.25135 0.429754 0
M  V30 15624 C 1508.15 1.26871 0.987946 0
M  V30 15625 O 1509.34 1.50947 0.86952 0
M  V30 15626 C 1506.47 3.00849 1.60321 0
M  V30 15627 H 1507.66 2.99199 -0.204918 0
M  V30 15628 H 1505.21 1.55634 -0.144188 0
M  V30 15629 H 1505.95 2.31092 2.27524 0
M  V30 15630 H 1505.73 3.72975 1.20964 0
M  V30 15631 H 1507.22 3.55879 2.18494 0
M  V30 15632 N 1507.66 0.121921 1.57128 0
M  V30 15633 C 1508.57 -0.840825 2.19014 0
M  V30 15634 C 1509.59 -1.29051 1.16712 0
M  V30 15635 O 1510.76 -1.35289 1.49194 0
M  V30 15636 C 1507.83 -2.07204 2.7797 0
M  V30 15637 C 1506.89 -1.67399 3.95318 0
M  V30 15638 C 1506.12 -2.84652 4.51452 0
M  V30 15639 O 1506.35 -4.00161 4.06482 0
M  V30 15640 O 1505.28 -2.61568 5.42094 0
M  V30 15641 H 1509.11 -0.344146 3.01744 0
M  V30 15642 H 1506.69 -0.103841 1.49039 0
M  V30 15643 H 1508.57 -2.79307 3.1554 0
M  V30 15644 H 1507.25 -2.55872 1.9827 0
M  V30 15645 H 1506.16 -0.92395 3.62511 0
M  V30 15646 H 1507.49 -1.2347 4.76462 0
M  V30 15647 N 1509.14 -1.56867 -0.151857 0
M  V30 15648 C 1510.39 -1.82721 -0.863575 0
M  V30 15649 C 1510.71 -0.702042 -1.81924 0
M  V30 15650 O 1509.98 0.27668 -1.93936 0
M  V30 15651 H 1508.56 -0.674088 -0.321893 0
M  V30 15652 H 1511.22 -1.94345 -0.14702 0
M  V30 15653 H 1510.32 -2.77476 -1.42876 0
M  V30 15654 N 1510.62 0.421051 -1.51871 0
M  V30 15655 C 1511.57 1.53277 -1.74954 0
M  V30 15656 C 1512.56 1.57792 -0.616282 0
M  V30 15657 O 1513.77 1.61342 -0.798054 0
M  V30 15658 H 1510.14 0.50953 -0.553067 0
M  V30 15659 H 1512.11 1.30988 -2.68113 0
M  V30 15660 C 1510.86 2.90772 -1.90649 0
M  V30 15661 H 1510.18 2.88035 -2.77265 0
M  V30 15662 H 1511.62 3.67882 -2.10805 0
M  V30 15663 C 1510.08 3.30161 -0.670463 0
M  V30 15664 O 1510.61 4.01352 0.167271 0
M  V30 15665 N 1508.82 2.86093 -0.509813 0
M  V30 15666 H 1508.37 2.28329 -1.19262 0
M  V30 15667 H 1508.32 3.12809 0.315918 0
M  V30 15668 N 1512.1 1.42293 0.677538 0
M  V30 15669 C 1513.37 1.331 1.43331 0
M  V30 15670 C 1513.75 -0.0329227 2.11074 0
M  V30 15671 O 1513.1 -1.04826 2.03036 0
M  V30 15672 C 1513.31 2.49725 2.438 0
M  V30 15673 C 1514.66 2.91716 3.08524 0
M  V30 15674 O 1515.68 2.49596 2.54127 0
M  V30 15675 O 1514.54 3.64609 4.07091 0
M  V30 15676 H 1511.64 0.524758 0.639185 0
M  V30 15677 H 1514.18 1.54294 0.706493 0
M  V30 15678 H 1512.95 3.40663 1.92522 0
M  V30 15679 H 1512.58 2.30503 3.23966 0
M  V30 15680 N 1513.57 -0.913576 1.28419 0
M  V30 15681 C 1514.52 -2.00257 1.09001 0
M  V30 15682 C 1515.51 -1.60894 0.0136118 0
M  V30 15683 O 1516.7 -1.75449 0.233769 0
M  V30 15684 C 1513.83 -3.34916 0.754073 0
M  V30 15685 C 1512.92 -3.8068 1.86932 0
M  V30 15686 N 1513.31 -3.98814 3.11096 0
M  V30 15687 C 1511.6 -4.09839 1.75921 0
M  V30 15688 C 1512.31 -4.37149 3.83765 0
M  V30 15689 N 1511.28 -4.45417 3.11616 0
M  V30 15690 H 1515.08 -2.12327 2.0321 0
M  V30 15691 H 1512.6 -1.10143 1.19341 0
M  V30 15692 H 1514.59 -4.12617 0.596035 0
M  V30 15693 H 1513.25 -3.24199 -0.180246 0
M  V30 15694 H 1514.27 -3.84729 3.46705 0
M  V30 15695 H 1510.94 -4.07757 0.896679 0
M  V30 15696 H 1512.33 -4.5914 4.9055 0
M  V30 15697 N 1515.05 -1.1067 -1.12204 0
M  V30 15698 C 1516.3 -0.845439 -1.83126 0
M  V30 15699 C 1516.61 0.631022 -1.85142 0
M  V30 15700 O 1517.82 1.00827 -2.52084 0
M  V30 15701 C 1516.28 -1.46265 -3.28838 0
M  V30 15702 C 1515.88 -2.97258 -3.35174 0
M  V30 15703 C 1517.63 -1.28088 -4.04714 0
M  V30 15704 C 1515.54 -3.52002 -4.75235 0
M  V30 15705 H 1514.47 -0.312617 -0.686139 0
M  V30 15706 H 1517.12 -1.33098 -1.26321 0
M  V30 15707 H 1515.5 -0.904781 -3.85525 0
M  V30 15708 H 1516.67 -3.59381 -2.88413 0
M  V30 15709 H 1514.99 -3.14617 -2.72773 0
M  V30 15710 H 1517.58 -1.6643 -5.08139 0
M  V30 15711 H 1517.93 -0.222682 -4.15704 0
M  V30 15712 H 1518.46 -1.80696 -3.54392 0
M  V30 15713 H 1515.2 -4.57499 -4.69441 0
M  V30 15714 H 1514.72 -2.94648 -5.22439 0
M  V30 15715 H 1516.4 -3.49967 -5.4418 0
M  V30 15716 N 1516.53 1.29665 -0.895815 0
M  V30 15717 C 1517.44 2.31582 -0.375086 0
M  V30 15718 C 1518.46 1.65789 0.528196 0
M  V30 15719 O 1519.63 1.96999 0.41871 0
M  V30 15720 C 1516.7 3.44472 0.39241 0
M  V30 15721 C 1515.76 4.25866 -0.541926 0
M  V30 15722 C 1514.99 5.33365 0.189037 0
M  V30 15723 O 1515.21 5.52607 1.41355 0
M  V30 15724 O 1514.15 6.0009 -0.466441 0
M  V30 15725 H 1517.97 2.78095 -1.22052 0
M  V30 15726 H 1515.56 1.34031 -0.660007 0
M  V30 15727 H 1517.44 4.13214 0.826565 0
M  V30 15728 H 1516.12 3.00074 1.21397 0
M  V30 15729 H 1515.02 3.59781 -1.02512 0
M  V30 15730 H 1516.36 4.73896 -1.32979 0
M  V30 15731 N 1518.01 0.657889 1.43212 0
M  V30 15732 C 1519.42 0.325876 1.56238 0
M  V30 15733 C 1519.62 -1.16975 1.6407 0
M  V30 15734 O 1518.68 -1.95473 1.59833 0
M  V30 15735 C 1519.99 1.04134 2.82093 0
M  V30 15736 C 1521.54 1.02204 2.95844 0
M  V30 15737 C 1522.02 1.71849 4.24537 0
M  V30 15738 N 1523.51 1.68635 4.31412 0
M  V30 15739 C 1524.24 2.19393 5.29768 0
M  V30 15740 N 1523.74 2.7846 6.34375 0
M  V30 15741 N 1525.53 2.09866 5.21452 0
M  V30 15742 H 1517.68 1.62839 1.36371 0
M  V30 15743 H 1519.95 0.685072 0.655271 0
M  V30 15744 H 1519.65 2.09647 2.82385 0
M  V30 15745 H 1519.53 0.595842 3.72464 0
M  V30 15746 H 1521.91 -0.0247029 2.9509 0
M  V30 15747 H 1521.99 1.50627 2.06749 0
M  V30 15748 H 1521.64 2.76482 4.26052 0
M  V30 15749 H 1521.57 1.20888 5.12536 0
M  V30 15750 H 1524.06 1.25536 3.56439 0
M  V30 15751 H 1524.37 3.14855 7.05752 0
M  V30 15752 H 1522.72 2.82523 6.34985 0
M  V30 15753 H 1525.91 1.63422 4.38647 0
M  V30 15754 H 1526.08 2.49732 5.97945 0
M  V30 15755 N 1519.49 -1.52437 0.400108 0
M  V30 15756 C 1520.45 -2.2536 -0.417808 0
M  V30 15757 C 1521.45 -1.27393 -0.981204 0
M  V30 15758 O 1522.64 -1.51406 -0.861503 0
M  V30 15759 C 1519.77 -3.01695 -1.58724 0
M  V30 15760 H 1520.96 -2.99086 0.220782 0
M  V30 15761 H 1518.52 -1.55555 0.152439 0
M  V30 15762 H 1519.25 -2.32295 -2.26295 0
M  V30 15763 H 1519.04 -3.73611 -1.18984 0
M  V30 15764 H 1520.53 -3.57033 -2.16604 0
M  V30 15765 N 1520.96 -0.130252 -1.57061 0
M  V30 15766 C 1521.89 0.812189 -2.18919 0
M  V30 15767 C 1522.88 1.2692 -1.13249 0
M  V30 15768 O 1524.06 1.32978 -1.41529 0
M  V30 15769 C 1521.19 2.05803 -2.79754 0
M  V30 15770 C 1520.14 1.73841 -3.91105 0
M  V30 15771 C 1519.47 3.05549 -4.38799 0
M  V30 15772 C 1520.77 0.997991 -5.12677 0
M  V30 15773 H 1522.46 0.296692 -2.97926 0
M  V30 15774 H 1520.01 0.141265 -1.43305 0
M  V30 15775 H 1521.96 2.72201 -3.21691 0
M  V30 15776 H 1520.69 2.59697 -1.98053 0
M  V30 15777 H 1519.35 1.09828 -3.49762 0
M  V30 15778 H 1518.99 3.57399 -3.53942 0
M  V30 15779 H 1518.69 2.84932 -5.13894 0
M  V30 15780 H 1520.22 3.73045 -4.83394 0
M  V30 15781 H 1521.63 1.56372 -5.51562 0
M  V30 15782 H 1520.03 0.892378 -5.93428 0
M  V30 15783 H 1521.1 -0.0132936 -4.84898 0
M  V30 15784 N 1522.44 1.56945 0.143535 0
M  V30 15785 C 1523.85 1.72949 0.703249 0
M  V30 15786 C 1524.21 0.745193 1.81497 0
M  V30 15787 O 1523.33 -0.0874144 2.16223 0
M  V30 15788 C 1523.93 3.1359 1.28244 0
M  V30 15789 C 1522.48 3.31184 1.78869 0
M  V30 15790 C 1521.63 2.6887 0.678531 0
M  V30 15791 H 1524.58 1.58487 -0.0821664 0
M  V30 15792 H 1524.6 3.13782 2.15224 0
M  V30 15793 H 1524.12 3.85206 0.473087 0
M  V30 15794 H 1522.22 2.64571 2.6236 0
M  V30 15795 H 1522.33 4.39163 1.91502 0
M  V30 15796 H 1520.69 2.29432 1.10603 0
M  V30 15797 H 1521.48 3.43092 -0.119437 0
M  V30 15798 N 1523.92 -0.412991 1.52093 0
M  V30 15799 C 1524.87 -1.50193 1.7154 0
M  V30 15800 C 1525.86 -1.50492 0.569294 0
M  V30 15801 O 1527.05 -1.56534 0.826207 0
M  V30 15802 C 1524.18 -2.8816 1.86598 0
M  V30 15803 C 1523.26 -2.92524 3.07068 0
M  V30 15804 N 1523.65 -2.66591 4.29841 0
M  V30 15805 C 1521.95 -3.23691 3.06822 0
M  V30 15806 C 1522.65 -2.77424 5.11284 0
M  V30 15807 N 1521.63 -3.10138 4.46448 0
M  V30 15808 H 1525.43 -1.28932 2.64109 0
M  V30 15809 H 1522.94 -0.620648 1.50072 0
M  V30 15810 H 1524.94 -3.66532 1.98646 0
M  V30 15811 H 1523.6 -3.10422 0.952263 0
M  V30 15812 H 1524.61 -2.41058 4.58379 0
M  V30 15813 H 1521.29 -3.51572 2.25174 0
M  V30 15814 H 1522.68 -2.61121 6.19084 0
M  V30 15815 N 1525.4 -1.4265 -0.669982 0
M  V30 15816 C 1526.35 -1.42958 -1.77615 0
M  V30 15817 C 1527.33 -0.30025 -1.58074 0
M  V30 15818 O 1528.53 -0.54283 -1.68471 0
M  V30 15819 C 1525.65 -1.33911 -3.16106 0
M  V30 15820 C 1524.74 -2.51808 -3.41253 0
M  V30 15821 N 1525.13 -3.77216 -3.36959 0
M  V30 15822 C 1523.43 -2.46172 -3.71908 0
M  V30 15823 C 1524.13 -4.55555 -3.61724 0
M  V30 15824 N 1523.11 -3.86036 -3.82724 0
M  V30 15825 H 1526.91 -2.3781 -1.72696 0
M  V30 15826 H 1524.42 -1.37066 -0.871009 0
M  V30 15827 H 1526.42 -1.32214 -3.9538 0
M  V30 15828 H 1525.08 -0.400652 -3.22219 0
M  V30 15829 H 1526.09 -4.09743 -3.16751 0
M  V30 15830 H 1522.77 -1.6093 -3.85237 0
M  V30 15831 H 1524.16 -5.6455 -3.64325 0
M  V30 15832 N 1526.88 0.906753 -1.28902 0
M  V30 15833 C 1528.29 1.18635 -1.06761 0
M  V30 15834 C 1528.49 2.00643 0.185594 0
M  V30 15835 O 1527.55 2.3647 0.885324 0
M  V30 15836 C 1528.86 1.91414 -2.31907 0
M  V30 15837 C 1530.41 2.04269 -2.37156 0
M  V30 15838 C 1530.89 2.80458 -3.62088 0
M  V30 15839 N 1532.38 2.88016 -3.62769 0
M  V30 15840 C 1533.11 3.47485 -4.56116 0
M  V30 15841 N 1532.61 4.08178 -5.59788 0
M  V30 15842 N 1534.4 3.45092 -4.43698 0
M  V30 15843 H 1526.55 0.359413 -2.09337 0
M  V30 15844 H 1528.81 0.221688 -0.921715 0
M  V30 15845 H 1528.52 1.38587 -3.23244 0
M  V30 15846 H 1528.39 2.91929 -2.38867 0
M  V30 15847 H 1530.78 2.56275 -1.46312 0
M  V30 15848 H 1530.86 1.0291 -2.34186 0
M  V30 15849 H 1530.51 2.2913 -4.53279 0
M  V30 15850 H 1530.44 3.82147 -3.62314 0
M  V30 15851 H 1532.93 2.44902 -2.87805 0
M  V30 15852 H 1533.24 4.51557 -6.27149 0
M  V30 15853 H 1531.59 4.06661 -5.63606 0
M  V30 15854 H 1534.78 2.96891 -3.61903 0
M  V30 15855 H 1534.95 3.91145 -5.16633 0
M  V30 15856 N 1528.36 1.11264 1.11616 0
M  V30 15857 C 1529.6 0.861639 1.83585 0
M  V30 15858 C 1529.93 -0.611221 1.8433 0
M  V30 15859 O 1529.21 -1.45116 1.29505 0
M  V30 15860 C 1529.49 1.42157 3.30852 0
M  V30 15861 C 1529.35 2.96192 3.38512 0
M  V30 15862 C 1530.66 1.07099 4.2687 0
M  V30 15863 H 1527.78 0.314464 0.666545 0
M  V30 15864 H 1530.43 1.37722 1.30892 0
M  V30 15865 H 1528.58 0.983054 3.75857 0
M  V30 15866 H 1530.25 3.48634 3.0208 0
M  V30 15867 H 1528.49 3.32353 2.7879 0
M  V30 15868 H 1529.16 3.30457 4.42156 0
M  V30 15869 H 1531.64 1.44952 3.90036 0
M  V30 15870 H 1530.51 1.48957 5.28302 0
M  V30 15871 H 1530.77 -0.018482 4.42096 0
M  V30 15872 N 1529.83 -1.29188 0.902679 0
M  V30 15873 C 1531.08 -1.94718 0.526082 0
M  V30 15874 C 1531.4 -1.71924 -0.932816 0
M  V30 15875 O 1532.6 -2.31585 -1.41707 0
M  V30 15876 C 1531.06 -3.48723 0.889974 0
M  V30 15877 C 1530.67 -3.80312 2.36784 0
M  V30 15878 C 1532.41 -4.20472 0.58343 0
M  V30 15879 C 1530.32 -5.27574 2.67244 0
M  V30 15880 H 1529.25 -0.728875 0.193019 0
M  V30 15881 H 1531.9 -1.46869 1.10008 0
M  V30 15882 H 1530.28 -3.95242 0.244872 0
M  V30 15883 H 1531.45 -3.44641 3.05875 0
M  V30 15884 H 1529.77 -3.21709 2.64371 0
M  V30 15885 H 1532.37 -5.28864 0.787813 0
M  V30 15886 H 1532.71 -4.13544 -0.478204 0
M  V30 15887 H 1533.24 -3.79693 1.1865 0
M  V30 15888 H 1529.98 -5.39569 3.72217 0
M  V30 15889 H 1529.5 -5.64482 2.0278 0
M  V30 15890 H 1531.18 -5.95199 2.53666 0
M  V30 15891 N 1531.31 -0.665475 -1.42861 0
M  V30 15892 C 1532.22 0.018927 -2.34592 0
M  V30 15893 C 1533.24 0.798967 -1.54572 0
M  V30 15894 O 1534.41 0.743419 -1.87177 0
M  V30 15895 C 1531.48 0.965013 -3.32999 0
M  V30 15896 C 1530.54 0.180544 -4.2892 0
M  V30 15897 C 1529.77 1.08157 -5.22626 0
M  V30 15898 O 1530 2.32101 -5.21043 0
M  V30 15899 O 1528.93 0.54738 -5.99406 0
M  V30 15900 H 1532.76 -0.736444 -2.94636 0
M  V30 15901 H 1530.34 -0.425684 -1.43207 0
M  V30 15902 H 1532.22 1.50839 -3.93479 0
M  V30 15903 H 1530.9 1.7004 -2.75442 0
M  V30 15904 H 1529.8 -0.40671 -3.71883 0
M  V30 15905 H 1531.14 -0.515529 -4.89493 0
M  V30 15906 N 1532.79 1.52222 -0.408187 0
M  V30 15907 C 1534.04 2.02102 0.168154 0
M  V30 15908 C 1534.37 1.2933 1.4487 0
M  V30 15909 O 1533.64 0.399336 1.90356 0
M  V30 15910 C 1533.93 3.57679 0.416821 0
M  V30 15911 C 1533.78 4.41101 -0.880335 0
M  V30 15912 C 1535.1 4.23442 1.19936 0
M  V30 15913 H 1532.22 0.734583 0.0596402 0
M  V30 15914 H 1534.86 1.82121 -0.541467 0
M  V30 15915 H 1533.01 3.74835 1.02131 0
M  V30 15916 H 1534.68 4.35658 -1.51656 0
M  V30 15917 H 1532.92 4.07353 -1.49152 0
M  V30 15918 H 1533.6 5.48031 -0.660748 0
M  V30 15919 H 1536.07 4.10379 0.687605 0
M  V30 15920 H 1534.95 5.32239 1.3421 0
M  V30 15921 H 1535.21 3.82335 2.21973 0
M  V30 15922 N 1534.27 0.138579 1.5699 0
M  V30 15923 C 1535.52 -0.513611 1.95465 0
M  V30 15924 C 1535.84 -1.65952 1.02396 0
M  V30 15925 O 1535.11 -1.9572 0.0839001 0
M  V30 15926 H 1533.69 -0.192729 0.72171 0
M  V30 15927 H 1536.35 0.212107 1.93742 0
M  V30 15928 H 1535.44 -0.895313 2.98983 0
M  V30 15929 N 1535.75 -1.57019 -0.13521 0
M  V30 15930 C 1536.69 -2.0011 -1.18569 0
M  V30 15931 C 1537.69 -0.895372 -1.43804 0
M  V30 15932 O 1538.89 -1.08057 -1.43957 0
M  V30 15933 H 1535.27 -0.637176 -0.399388 0
M  V30 15934 H 1537.24 -2.87597 -0.795636 0
M  V30 15935 C 1535.99 -2.40769 -2.50849 0
M  V30 15936 H 1535.31 -3.25412 -2.32265 0
M  V30 15937 H 1536.75 -2.74733 -3.22951 0
M  V30 15938 C 1535.21 -1.26494 -3.12251 0
M  V30 15939 O 1535.74 -0.572067 -3.97606 0
M  V30 15940 N 1533.95 -1.02615 -2.7188 0
M  V30 15941 H 1533.49 -1.59136 -2.02567 0
M  V30 15942 H 1533.45 -0.263464 -3.13294 0
M  V30 15943 N 1537.22 0.404919 -1.52309 0
M  V30 15944 C 1538.17 1.51412 -1.7657 0
M  V30 15945 C 1539.17 1.5713 -0.632983 0
M  V30 15946 O 1540.37 1.60486 -0.815121 0
M  V30 15947 H 1536.75 0.503636 -0.55844 0
M  V30 15948 H 1538.72 1.28137 -2.69488 0
M  V30 15949 C 1537.47 2.88733 -1.93722 0
M  V30 15950 H 1536.79 2.85078 -2.80304 0
M  V30 15951 H 1538.23 3.65626 -2.14695 0
M  V30 15952 C 1536.69 3.29431 -0.705444 0
M  V30 15953 O 1537.22 4.01506 0.124693 0
M  V30 15954 N 1535.43 2.85536 -0.540128 0
M  V30 15955 H 1534.97 2.27052 -1.21677 0
M  V30 15956 H 1534.93 3.13126 0.282723 0
M  V30 15957 N 1538.7 1.43003 0.662408 0
M  V30 15958 C 1539.98 1.34613 1.41911 0
M  V30 15959 C 1540.36 -0.0105336 2.11097 0
M  V30 15960 O 1539.71 -1.02667 2.04137 0
M  V30 15961 C 1539.92 2.52297 2.41137 0
M  V30 15962 C 1541.27 2.94972 3.05412 0
M  V30 15963 O 1542.29 2.52277 2.51465 0
M  V30 15964 O 1541.15 3.68906 4.03201 0
M  V30 15965 H 1538.24 0.531508 0.633583 0
M  V30 15966 H 1540.79 1.55035 0.690088 0
M  V30 15967 H 1539.56 3.42685 1.88898 0
M  V30 15968 H 1539.18 2.33926 3.21503 0
M  V30 15969 N 1540.18 -0.899904 1.29381 0
M  V30 15970 C 1541.43 -1.64502 1.16713 0
M  V30 15971 C 1541.74 -1.93577 -0.280563 0
M  V30 15972 O 1542.95 -2.66305 -0.528563 0
M  V30 15973 C 1541.4 -2.96414 2.04125 0
M  V30 15974 C 1541.01 -2.74935 3.53716 0
M  V30 15975 C 1542.76 -3.74337 2.0018 0
M  V30 15976 C 1540.66 -4.02571 4.33232 0
M  V30 15977 H 1539.59 -0.617121 0.433218 0
M  V30 15978 H 1542.24 -0.997521 1.54019 0
M  V30 15979 H 1540.63 -3.62375 1.59687 0
M  V30 15980 H 1541.8 -2.17567 4.06203 0
M  V30 15981 H 1540.12 -2.10407 3.5933 0
M  V30 15982 H 1542.71 -4.6897 2.56849 0
M  V30 15983 H 1543.06 -4.04559 0.981735 0
M  V30 15984 H 1543.59 -3.15216 2.4266 0
M  V30 15985 H 1540.33 -3.77516 5.35875 0
M  V30 15986 H 1539.85 -4.59499 3.85514 0
M  V30 15987 H 1541.53 -4.70719 4.43884 0
M  V30 15988 N 1541.66 -1.11854 -1.11024 0
M  V30 15989 C 1542.94 -0.781693 -1.79301 0
M  V30 15990 C 1543.32 0.72956 -1.98092 0
M  V30 15991 O 1542.66 1.66109 -1.56908 0
M  V30 15992 C 1542.87 -1.54976 -3.12703 0
M  V30 15993 C 1544.22 -1.73183 -3.87676 0
M  V30 15994 O 1545.25 -1.51437 -3.22406 0
M  V30 15995 O 1544.1 -2.0935 -5.04812 0
M  V30 15996 H 1541.2 -0.283672 -0.776826 0
M  V30 15997 H 1543.74 -1.22222 -1.17728 0
M  V30 15998 H 1542.52 -2.57759 -2.94408 0
M  V30 15999 H 1542.14 -1.10308 -3.81992 0
M  V30 16000 N 1543.14 1.28707 -0.909517 0
M  V30 16001 C 1544.41 1.90124 -0.459585 0
M  V30 16002 C 1544.79 1.82477 1.06139 0
M  V30 16003 O 1544.14 1.25792 1.90758 0
M  V30 16004 C 1544.35 3.34806 -0.985188 0
M  V30 16005 C 1545.7 4.11799 -1.03475 0
M  V30 16006 O 1546.72 3.43749 -0.933536 0
M  V30 16007 O 1545.58 5.33426 -1.18825 0
M  V30 16008 H 1542.68 0.814199 -0.144948 0
M  V30 16009 H 1545.22 1.37104 -1.00002 0
M  V30 16010 H 1543.99 3.34575 -2.02917 0
M  V30 16011 H 1543.62 3.95318 -0.425329 0
M  V30 16012 N 1544.61 0.673042 1.42506 0
M  V30 16013 C 1545.86 0.194864 2.01862 0
M  V30 16014 C 1546.19 -1.19491 1.53087 0
M  V30 16015 O 1545.47 -1.80187 0.732322 0
M  V30 16016 C 1545.75 0.227559 3.5938 0
M  V30 16017 C 1545.6 1.65266 4.18338 0
M  V30 16018 C 1546.92 -0.425197 4.38041 0
M  V30 16019 H 1544.04 0.0722831 0.733447 0
M  V30 16020 H 1546.68 0.857493 1.6955 0
M  V30 16021 H 1544.83 -0.336658 3.87039 0
M  V30 16022 H 1546.51 2.26899 4.0164 0
M  V30 16023 H 1544.75 2.19388 3.74234 0
M  V30 16024 H 1545.42 1.62724 5.2747 0
M  V30 16025 H 1547.9 0.0550709 4.16064 0
M  V30 16026 H 1546.77 -0.371675 5.4764 0
M  V30 16027 H 1547.03 -1.50251 4.15785 0
M  V30 16028 N 1546.09 -1.52004 0.416254 0
M  V30 16029 C 1547.04 -2.28771 -0.420331 0
M  V30 16030 C 1548.03 -1.33751 -1.03957 0
M  V30 16031 O 1549.24 -1.51181 -0.976951 0
M  V30 16032 H 1545.62 -0.735991 -0.15434 0
M  V30 16033 H 1547.59 -2.97366 0.248255 0
M  V30 16034 C 1546.34 -3.12675 -1.52085 0
M  V30 16035 H 1545.66 -3.85665 -1.0537 0
M  V30 16036 H 1547.1 -3.69482 -2.07989 0
M  V30 16037 C 1545.56 -2.26692 -2.49224 0
M  V30 16038 O 1546.09 -1.91205 -3.53276 0
M  V30 16039 N 1544.29 -1.90322 -2.19604 0
M  V30 16040 H 1543.84 -2.1938 -1.35019 0
M  V30 16041 H 1543.8 -1.33086 -2.84843 0
M  V30 16042 N 1547.57 -0.146903 -1.56914 0
M  V30 16043 C 1548.82 0.504195 -1.95297 0
M  V30 16044 C 1549.13 1.66019 -1.03426 0
M  V30 16045 O 1550.34 2.37591 -1.31388 0
M  V30 16046 C 1548.79 0.948348 -3.47181 0
M  V30 16047 C 1548.4 -0.18071 -4.47635 0
M  V30 16048 C 1550.15 1.56924 -3.9443 0
M  V30 16049 C 1548.05 0.281707 -5.90729 0
M  V30 16050 H 1546.98 0.192127 -0.729111 0
M  V30 16051 H 1549.63 -0.231232 -1.82037 0
M  V30 16052 H 1548.02 1.73903 -3.55772 0
M  V30 16053 H 1549.19 -0.957645 -4.50739 0
M  V30 16054 H 1547.51 -0.710007 -4.10302 0
M  V30 16055 H 1550.1 1.92684 -4.98776 0
M  V30 16056 H 1550.45 2.45816 -3.35976 0
M  V30 16057 H 1550.98 0.843456 -3.88755 0
M  V30 16058 H 1547.72 -0.571839 -6.53001 0
M  V30 16059 H 1547.24 1.02452 -5.90985 0
M  V30 16060 H 1548.92 0.733746 -6.42826 0
M  V30 16061 N 1549.05 1.57088 0.126881 0
M  V30 16062 C 1550.3 1.83624 0.834582 0
M  V30 16063 C 1550.61 0.731331 1.81414 0
M  V30 16064 O 1551.82 0.88286 2.56745 0
M  V30 16065 C 1550.27 3.25529 1.5349 0
M  V30 16066 C 1549.88 4.44008 0.59673 0
M  V30 16067 C 1551.62 3.6132 2.22819 0
M  V30 16068 C 1549.53 5.76939 1.29982 0
M  V30 16069 H 1548.46 0.684858 0.315414 0
M  V30 16070 H 1551.11 1.83292 0.087305 0
M  V30 16071 H 1549.49 3.20306 2.32852 0
M  V30 16072 H 1550.67 4.60511 -0.163109 0
M  V30 16073 H 1548.98 4.16399 0.0108081 0
M  V30 16074 H 1551.58 4.57902 2.76098 0
M  V30 16075 H 1551.92 2.88363 3.00254 0
M  V30 16076 H 1552.46 3.68291 1.50354 0
M  V30 16077 H 1549.2 6.53044 0.566925 0
M  V30 16078 H 1548.72 5.64336 2.03187 0
M  V30 16079 H 1550.39 6.20427 1.8352 0
M  V30 16080 N 1550.53 -0.396836 1.52522 0
M  V30 16081 C 1551.77 -1.14432 1.67431 0
M  V30 16082 C 1552.11 -1.89842 0.409115 0
M  V30 16083 O 1551.38 -1.85244 -0.592863 0
M  V30 16084 C 1551.66 -2.12889 2.90431 0
M  V30 16085 C 1551.52 -1.41295 4.27031 0
M  V30 16086 C 1552.84 -3.13412 3.08967 0
M  V30 16087 H 1549.95 -0.414643 0.609295 0
M  V30 16088 H 1552.6 -0.428604 1.85103 0
M  V30 16089 H 1550.75 -2.73924 2.75495 0
M  V30 16090 H 1552.42 -0.832848 4.53719 0
M  V30 16091 H 1550.66 -0.714834 4.2787 0
M  V30 16092 H 1551.33 -2.13198 5.09167 0
M  V30 16093 H 1553.81 -2.62462 3.22883 0
M  V30 16094 H 1552.68 -3.79555 3.96522 0
M  V30 16095 H 1552.95 -3.81836 2.22831 0
M  V30 16096 N 1552.01 -1.43353 -0.654814 0
M  V30 16097 C 1553.25 -1.44885 -1.41473 0
M  V30 16098 C 1553.58 -0.0725577 -1.94365 0
M  V30 16099 O 1552.84 0.9222 -1.72609 0
M  V30 16100 C 1553.13 -2.437 -2.61429 0
M  V30 16101 C 1552.8 -3.89612 -2.26965 0
M  V30 16102 C 1551.46 -4.29353 -2.17278 0
M  V30 16103 C 1553.81 -4.81569 -1.99351 0
M  V30 16104 C 1551.14 -5.59005 -1.7813 0
M  V30 16105 C 1553.49 -6.11584 -1.61702 0
M  V30 16106 C 1552.16 -6.50303 -1.50539 0
M  V30 16107 H 1551.43 -0.530172 -0.517686 0
M  V30 16108 H 1554.08 -1.76422 -0.744824 0
M  V30 16109 H 1552.38 -2.05561 -3.33544 0
M  V30 16110 H 1554.08 -2.42141 -3.19638 0
M  V30 16111 H 1550.67 -3.58159 -2.35414 0
M  V30 16112 H 1554.85 -4.51639 -2.05757 0
M  V30 16113 H 1550.11 -5.87845 -1.68072 0
M  V30 16114 H 1554.28 -6.82312 -1.39365 0
M  V30 16115 H 1551.91 -7.50673 -1.19975 0
M  V30 16116 N 1553.48 0.89303 -1.29857 0
M  V30 16117 C 1554.9 1.17496 -1.08013 0
M  V30 16118 C 1555.1 2.00829 0.164302 0
M  V30 16119 O 1554.16 2.37396 0.860194 0
M  V30 16120 C 1555.47 1.88944 -2.33924 0
M  V30 16121 C 1557.02 2.01742 -2.3931 0
M  V30 16122 C 1557.49 2.76601 -3.65042 0
M  V30 16123 N 1558.98 2.84152 -3.65803 0
M  V30 16124 C 1559.72 3.42628 -4.59776 0
M  V30 16125 N 1559.21 4.02218 -5.64086 0
M  V30 16126 N 1561.01 3.40366 -4.47334 0
M  V30 16127 H 1553.16 0.33719 -2.09706 0
M  V30 16128 H 1555.42 0.211899 -0.924014 0
M  V30 16129 H 1555.13 1.35151 -3.24695 0
M  V30 16130 H 1555 2.89379 -2.4195 0
M  V30 16131 H 1557.39 2.54708 -1.49022 0
M  V30 16132 H 1557.47 1.0042 -2.35265 0
M  V30 16133 H 1557.11 2.24309 -4.55684 0
M  V30 16134 H 1557.04 3.78283 -3.66346 0
M  V30 16135 H 1559.53 2.41835 -2.90386 0
M  V30 16136 H 1559.85 4.4488 -6.31903 0
M  V30 16137 H 1558.19 4.00661 -5.67887 0
M  V30 16138 H 1561.38 2.93035 -3.65031 0
M  V30 16139 H 1561.56 3.85644 -5.20752 0
M  V30 16140 N 1554.96 1.12442 1.10429 0
M  V30 16141 C 1555.89 0.750131 2.16577 0
M  V30 16142 C 1556.91 -0.223265 1.61262 0
M  V30 16143 O 1558.1 -0.00459454 1.78499 0
M  V30 16144 C 1555.2 0.0895474 3.38782 0
M  V30 16145 C 1554.37 1.09242 4.23539 0
M  V30 16146 C 1553.43 0.45945 5.2419 0
M  V30 16147 O 1552.45 1.11646 5.58143 0
M  V30 16148 N 1553.66 -0.773093 5.75329 0
M  V30 16149 H 1556.42 1.66349 2.49295 0
M  V30 16150 H 1553.98 1.01603 1.26049 0
M  V30 16151 H 1555.97 -0.345895 4.03219 0
M  V30 16152 H 1554.54 -0.726572 3.04039 0
M  V30 16153 H 1553.76 1.70549 3.55396 0
M  V30 16154 H 1555.05 1.77057 4.76999 0
M  V30 16155 H 1554.45 -1.32585 5.49943 0
M  V30 16156 H 1553.01 -1.15135 6.41551 0
M  V30 16157 N 1556.44 -1.28223 0.91633 0
M  V30 16158 C 1557.69 -1.94149 0.546705 0
M  V30 16159 C 1558 -1.72904 -0.914529 0
M  V30 16160 O 1559.21 -2.33075 -1.39243 0
M  V30 16161 C 1557.66 -3.47759 0.92691 0
M  V30 16162 C 1557.27 -3.77779 2.40805 0
M  V30 16163 C 1559.02 -4.19829 0.627994 0
M  V30 16164 C 1556.92 -5.2471 2.72825 0
M  V30 16165 H 1555.85 -0.726787 0.200739 0
M  V30 16166 H 1558.5 -1.45694 1.1156 0
M  V30 16167 H 1556.89 -3.9496 0.286779 0
M  V30 16168 H 1558.06 -3.41377 3.09513 0
M  V30 16169 H 1556.37 -3.18887 2.67769 0
M  V30 16170 H 1558.97 -5.27999 0.843862 0
M  V30 16171 H 1559.31 -4.14028 -0.434315 0
M  V30 16172 H 1559.85 -3.78413 1.22671 0
M  V30 16173 H 1556.59 -5.35591 3.77919 0
M  V30 16174 H 1556.11 -5.623 2.08756 0
M  V30 16175 H 1557.79 -5.92475 2.59965 0
M  V30 16176 N 1557.92 -0.68059 -1.42147 0
M  V30 16177 C 1558.87 0.00572503 -2.32599 0
M  V30 16178 C 1559.86 0.784449 -1.50142 0
M  V30 16179 O 1561.07 0.69176 -1.66177 0
M  V30 16180 H 1557.44 0.0206483 -0.751716 0
M  V30 16181 H 1559.41 -0.774447 -2.88175 0
M  V30 16182 C 1558.16 0.939019 -3.3478 0
M  V30 16183 H 1557.48 0.349225 -3.98272 0
M  V30 16184 H 1558.92 1.38782 -4.00644 0
M  V30 16185 C 1557.38 2.04814 -2.67493 0
M  V30 16186 O 1557.91 3.13526 -2.51126 0
M  V30 16187 N 1556.12 1.82153 -2.26426 0
M  V30 16188 H 1555.67 0.93743 -2.39938 0
M  V30 16189 H 1555.62 2.56551 -1.81738 0
M  V30 16190 N 1559.4 1.51781 -0.424309 0
M  V30 16191 C 1560.33 2.25144 0.429274 0
M  V30 16192 C 1561.34 1.2867 0.997389 0
M  V30 16193 O 1562.53 1.54514 0.893746 0
M  V30 16194 C 1559.63 2.98156 1.61109 0
M  V30 16195 C 1558.8 4.21623 1.16417 0
M  V30 16196 C 1557.86 4.77327 2.21462 0
M  V30 16197 O 1556.89 5.39511 1.8143 0
M  V30 16198 N 1558.09 4.60221 3.53803 0
M  V30 16199 H 1560.85 2.99036 -0.199438 0
M  V30 16200 H 1558.42 1.59919 -0.252492 0
M  V30 16201 H 1560.41 3.32312 2.30978 0
M  V30 16202 H 1558.98 2.27356 2.14541 0
M  V30 16203 H 1558.2 3.93109 0.293034 0
M  V30 16204 H 1559.49 5.01772 0.842767 0
M  V30 16205 H 1558.88 4.10661 3.89068 0
M  V30 16206 H 1557.44 4.98774 4.19604 0
M  V30 16207 N 1560.87 0.155222 1.56834 0
M  V30 16208 C 1562.12 -0.493826 1.96386 0
M  V30 16209 C 1562.45 -1.6433 1.04048 0
M  V30 16210 O 1561.7 -1.9557 0.0713123 0
M  V30 16211 C 1562 -1.03346 3.42132 0
M  V30 16212 C 1561.67 -0.00157215 4.509 0
M  V30 16213 C 1560.33 0.282068 4.80373 0
M  V30 16214 C 1562.68 0.699684 5.16482 0
M  V30 16215 C 1560.01 1.27263 5.72731 0
M  V30 16216 C 1562.36 1.67912 6.09908 0
M  V30 16217 C 1561.03 1.97037 6.37756 0
M  V30 16218 H 1560.3 -0.180704 0.718629 0
M  V30 16219 H 1562.94 0.243789 1.89942 0
M  V30 16220 H 1561.25 -1.84857 3.45449 0
M  V30 16221 H 1562.95 -1.54437 3.70068 0
M  V30 16222 H 1559.54 -0.232824 4.27967 0
M  V30 16223 H 1563.72 0.493751 4.93838 0
M  V30 16224 H 1558.98 1.50464 5.92597 0
M  V30 16225 H 1563.15 2.22796 6.59799 0
M  V30 16226 H 1560.78 2.73944 7.09125 0
M  V30 16227 N 1562.35 -1.57153 -0.118549 0
M  V30 16228 C 1563.63 -1.75846 -0.856587 0
M  V30 16229 C 1564.01 -0.730801 -1.98047 0
M  V30 16230 O 1563.36 0.245156 -2.27181 0
M  V30 16231 C 1563.57 -3.20864 -1.37286 0
M  V30 16232 C 1564.91 -3.83378 -1.82501 0
M  V30 16233 O 1565.94 -3.24469 -1.46964 0
M  V30 16234 O 1564.8 -4.86922 -2.48132 0
M  V30 16235 H 1561.89 -0.72002 -0.406817 0
M  V30 16236 H 1564.44 -1.69392 -0.102254 0
M  V30 16237 H 1563.21 -3.87177 -0.566531 0
M  V30 16238 H 1562.83 -3.31858 -2.18988 0
M  V30 16239 N 1563.83 0.388742 -1.5273 0
M  V30 16240 C 1564.76 1.48133 -1.80496 0
M  V30 16241 C 1565.74 1.56899 -0.657008 0
M  V30 16242 O 1566.93 1.71844 -0.904621 0
M  V30 16243 C 1564.06 2.85742 -1.97405 0
M  V30 16244 C 1563.01 2.91815 -3.13094 0
M  V30 16245 C 1562.34 4.31876 -3.15258 0
M  V30 16246 C 1563.64 2.61438 -4.52159 0
M  V30 16247 H 1565.33 1.25147 -2.7199 0
M  V30 16248 H 1562.88 0.600603 -1.30877 0
M  V30 16249 H 1564.83 3.62182 -2.15412 0
M  V30 16250 H 1563.55 3.10065 -1.02601 0
M  V30 16251 H 1562.21 2.17824 -2.9487 0
M  V30 16252 H 1561.86 4.53239 -2.18135 0
M  V30 16253 H 1561.56 4.3686 -3.92972 0
M  V30 16254 H 1563.08 5.10221 -3.3542 0
M  V30 16255 H 1564.5 3.27596 -4.70483 0
M  V30 16256 H 1562.89 2.77771 -5.31943 0
M  V30 16257 H 1563.96 1.56778 -4.58856 0
M  V30 16258 N 1565.31 1.43698 0.647203 0
M  V30 16259 C 1566.53 1.49301 1.43958 0
M  V30 16260 C 1566.96 0.11395 1.87755 0
M  V30 16261 O 1566.32 -0.893571 1.5775 0
M  V30 16262 C 1566.36 2.44905 2.64677 0
M  V30 16263 O 1565.47 1.93947 3.63948 0
M  V30 16264 H 1564.81 0.504771 0.431396 0
M  V30 16265 H 1567.34 1.88673 0.791432 0
M  V30 16266 H 1567.35 2.62409 3.12419 0
M  V30 16267 H 1566.02 3.45083 2.32143 0
M  V30 16268 H 1564.6 1.86133 3.23124 0
M  V30 16269 N 1566.79 -0.886131 1.30328 0
M  V30 16270 C 1568.03 -1.6346 1.18849 0
M  V30 16271 C 1568.36 -1.93295 -0.257285 0
M  V30 16272 O 1567.63 -1.56858 -1.17356 0
M  V30 16273 H 1566.21 -0.605932 0.43687 0
M  V30 16274 H 1568.87 -1.06177 1.63439 0
M  V30 16275 H 1567.96 -2.58522 1.7485 0
M  V30 16276 N 1568.26 -1.13026 -1.09832 0
M  V30 16277 C 1569.21 -0.799174 -2.1844 0
M  V30 16278 C 1570.21 0.216695 -1.68008 0
M  V30 16279 O 1571.41 0.0742662 -1.79847 0
M  V30 16280 H 1567.79 -0.24064 -0.712458 0
M  V30 16281 H 1569.76 -1.72342 -2.436 0
M  V30 16282 C 1568.51 -0.276925 -3.46595 0
M  V30 16283 H 1567.83 -1.04993 -3.85768 0
M  V30 16284 H 1569.27 -0.0836468 -4.23917 0
M  V30 16285 C 1567.73 0.996479 -3.21826 0
M  V30 16286 O 1568.26 2.0731 -3.44072 0
M  V30 16287 N 1566.47 0.925903 -2.75455 0
M  V30 16288 H 1566.01 0.0496383 -2.57552 0
M  V30 16289 H 1565.97 1.77853 -2.5926 0
M  V30 16290 N 1569.74 1.27735 -0.923117 0
M  V30 16291 C 1570.99 1.94858 -0.56198 0
M  V30 16292 C 1571.32 1.72414 0.893698 0
M  V30 16293 O 1570.6 1.05054 1.63689 0
M  V30 16294 C 1570.88 3.49102 -0.883173 0
M  V30 16295 C 1570.73 3.80908 -2.39227 0
M  V30 16296 C 1572.05 4.38405 -0.385848 0
M  V30 16297 H 1569.17 0.707728 -0.205646 0
M  V30 16298 H 1571.81 1.50935 -1.15406 0
M  V30 16299 H 1569.96 3.86644 -0.379292 0
M  V30 16300 H 1571.63 3.53182 -2.96749 0
M  V30 16301 H 1569.88 3.2762 -2.84337 0
M  V30 16302 H 1570.55 4.88653 -2.56754 0
M  V30 16303 H 1573.02 4.07988 -0.817631 0
M  V30 16304 H 1571.9 5.45161 -0.63958 0
M  V30 16305 H 1572.16 4.36296 0.714009 0
M  V30 16306 N 1571.22 0.688118 1.41784 0
M  V30 16307 C 1572.47 0.213085 2.00571 0
M  V30 16308 C 1572.78 -1.19176 1.55101 0
M  V30 16309 O 1573.99 -1.76387 2.06397 0
M  V30 16310 C 1572.44 0.330075 3.58383 0
M  V30 16311 C 1572.05 1.73981 4.12837 0
M  V30 16312 C 1573.8 -0.0855651 4.24414 0
M  V30 16313 C 1571.7 1.80886 5.63058 0
M  V30 16314 H 1570.63 0.075906 0.750169 0
M  V30 16315 H 1573.28 0.855236 1.62351 0
M  V30 16316 H 1571.67 -0.380199 3.94171 0
M  V30 16317 H 1572.84 2.47825 3.88484 0
M  V30 16318 H 1571.16 2.10447 3.59306 0
M  V30 16319 H 1573.75 -0.0543142 5.34672 0
M  V30 16320 H 1574.1 -1.12307 4.00865 0
M  V30 16321 H 1574.63 0.574169 3.93635 0
M  V30 16322 H 1571.37 2.82663 5.91424 0
M  V30 16323 H 1570.89 1.11417 5.89361 0
M  V30 16324 H 1572.57 1.56835 6.27704 0
M  V30 16325 N 1572.7 -1.51554 0.432352 0
M  V30 16326 C 1573.93 -2.06462 -0.1346 0
M  V30 16327 C 1574.34 -1.30027 -1.36889 0
M  V30 16328 O 1573.7 -0.358447 -1.78945 0
M  V30 16329 C 1573.75 -3.58538 -0.461822 0
M  V30 16330 O 1573.47 -4.32085 0.723471 0
M  V30 16331 C 1574.97 -4.29943 -1.07999 0
M  V30 16332 H 1572.19 -0.670923 -0.0101329 0
M  V30 16333 H 1574.74 -1.9519 0.609999 0
M  V30 16334 H 1572.89 -3.6974 -1.15632 0
M  V30 16335 H 1573.3 -5.22611 0.444757 0
M  V30 16336 H 1574.78 -5.37451 -1.25898 0
M  V30 16337 H 1575.26 -3.87912 -2.05963 0
M  V30 16338 H 1575.86 -4.23171 -0.425022 0
M  V30 16339 N 1574.18 -0.163538 -1.56749 0
M  V30 16340 C 1575.4 0.493087 -2.01453 0
M  V30 16341 C 1575.83 1.56535 -1.043 0
M  V30 16342 O 1575.18 1.81287 -0.0213039 0
M  V30 16343 C 1575.23 1.05546 -3.44808 0
M  V30 16344 O 1574.34 2.16977 -3.50706 0
M  V30 16345 H 1573.68 0.118905 -0.653267 0
M  V30 16346 H 1576.21 -0.265139 -2.02875 0
M  V30 16347 H 1576.22 1.38002 -3.83953 0
M  V30 16348 H 1574.89 0.270333 -4.1502 0
M  V30 16349 H 1573.47 1.85625 -3.23416 0
M  V30 16350 N 1575.65 1.57214 0.110213 0
M  V30 16351 C 1576.88 1.8988 0.834297 0
M  V30 16352 C 1577.3 0.756347 1.72224 0
M  V30 16353 O 1576.66 -0.292768 1.78921 0
M  V30 16354 C 1576.71 3.21338 1.63629 0
M  V30 16355 O 1575.81 3.07862 2.74399 0
M  V30 16356 H 1575.16 0.62283 0.23017 0
M  V30 16357 H 1577.69 2.04402 0.0899726 0
M  V30 16358 H 1577.7 3.54275 2.02369 0
M  V30 16359 H 1576.37 4.04079 0.984521 0
M  V30 16360 H 1574.95 2.8641 2.38797 0
M  V30 16361 N 1577.13 -0.380637 1.52934 0
M  V30 16362 C 1578.04 -1.48957 1.81243 0
M  V30 16363 C 1579.06 -1.5931 0.69974 0
M  V30 16364 O 1580.23 -1.75488 0.988218 0
M  V30 16365 C 1577.3 -2.84397 1.9829 0
M  V30 16366 C 1576.36 -2.83697 3.22202 0
M  V30 16367 C 1575.59 -4.12677 3.38427 0
M  V30 16368 O 1575.82 -5.08068 2.59274 0
M  V30 16369 O 1574.75 -4.19407 4.31719 0
M  V30 16370 H 1578.58 -1.27964 2.75425 0
M  V30 16371 H 1576.16 -0.56929 1.38128 0
M  V30 16372 H 1578.04 -3.64676 2.11161 0
M  V30 16373 H 1576.72 -3.054 1.07298 0
M  V30 16374 H 1575.63 -2.0217 3.14767 0
M  V30 16375 H 1576.96 -2.67648 4.13068 0
M  V30 16376 N 1578.61 -1.44039 -0.639573 0
M  V30 16377 C 1579.84 -1.49626 -1.42462 0
M  V30 16378 C 1580.25 -0.117078 -1.88837 0
M  V30 16379 O 1579.59 0.885666 -1.6094 0
M  V30 16380 C 1579.65 -2.39182 -2.68388 0
M  V30 16381 C 1579.32 -3.86496 -2.43865 0
M  V30 16382 C 1580.31 -4.7725 -2.06224 0
M  V30 16383 C 1578 -4.31117 -2.57766 0
M  V30 16384 C 1579.99 -6.10625 -1.82801 0
M  V30 16385 C 1577.68 -5.64541 -2.33958 0
M  V30 16386 C 1578.68 -6.54113 -1.96533 0
M  V30 16387 O 1578.37 -7.85068 -1.72983 0
M  V30 16388 H 1578.1 -0.510054 -0.443645 0
M  V30 16389 H 1580.65 -1.89593 -0.790162 0
M  V30 16390 H 1578.88 -1.94127 -3.34442 0
M  V30 16391 H 1580.57 -2.35816 -3.30372 0
M  V30 16392 H 1581.34 -4.44051 -1.95048 0
M  V30 16393 H 1577.22 -3.61663 -2.85868 0
M  V30 16394 H 1580.76 -6.80499 -1.53514 0
M  V30 16395 H 1576.66 -5.97304 -2.44741 0
M  V30 16396 H 1577.43 -7.96782 -1.87298 0
M  V30 16397 N 1580.09 0.879207 -1.30796 0
M  V30 16398 C 1581.02 2.00158 -1.20246 0
M  V30 16399 C 1582 1.69852 -0.091769 0
M  V30 16400 O 1583.18 1.92246 -0.274792 0
M  V30 16401 C 1580.31 3.3545 -0.899472 0
M  V30 16402 C 1579.27 3.80033 -1.96873 0
M  V30 16403 C 1578.59 5.12681 -1.51861 0
M  V30 16404 C 1579.89 3.98136 -3.38061 0
M  V30 16405 H 1581.59 2.09242 -2.14145 0
M  V30 16406 H 1579.13 1.00535 -1.03096 0
M  V30 16407 H 1581.09 4.13497 -0.812299 0
M  V30 16408 H 1579.81 3.26513 0.075189 0
M  V30 16409 H 1578.47 3.04219 -2.04564 0
M  V30 16410 H 1578.12 5.00178 -0.532063 0
M  V30 16411 H 1577.82 5.43482 -2.23386 0
M  V30 16412 H 1579.34 5.93247 -1.44534 0
M  V30 16413 H 1580.76 4.66604 -3.33096 0
M  V30 16414 H 1579.15 4.40321 -4.07722 0
M  V30 16415 H 1580.22 3.01807 -3.79526 0
M  V30 16416 N 1581.57 1.13606 1.09231 0
M  V30 16417 C 1582.98 0.91148 1.62938 0
M  V30 16418 C 1583.33 -0.55157 1.88287 0
M  V30 16419 O 1582.45 -1.4187 1.63407 0
M  V30 16420 C 1583.05 1.64812 2.96011 0
M  V30 16421 C 1581.61 1.46935 3.46536 0
M  V30 16422 C 1580.76 1.67605 2.20916 0
M  V30 16423 H 1583.71 1.28907 0.925669 0
M  V30 16424 H 1583.73 1.10638 3.6406 0
M  V30 16425 H 1583.24 2.71291 2.77529 0
M  V30 16426 H 1581.34 0.427667 3.70138 0
M  V30 16427 H 1581.45 2.23374 4.2384 0
M  V30 16428 H 1579.82 1.10105 2.29672 0
M  V30 16429 H 1580.6 2.75408 2.04952 0
M  V30 16430 N 1583.05 -1.27244 0.929878 0
M  V30 16431 C 1584.27 -1.98373 0.587845 0
M  V30 16432 C 1584.69 -1.69349 -0.834638 0
M  V30 16433 O 1584.05 -0.955281 -1.55501 0
M  V30 16434 C 1584.1 -3.52381 0.806843 0
M  V30 16435 O 1583.82 -3.8039 2.17337 0
M  V30 16436 C 1585.32 -4.40761 0.473818 0
M  V30 16437 H 1582.54 -0.633015 0.22256 0
M  V30 16438 H 1585.08 -1.62043 1.2475 0
M  V30 16439 H 1583.24 -3.86914 0.193963 0
M  V30 16440 H 1583.65 -4.74968 2.22498 0
M  V30 16441 H 1585.13 -5.47824 0.677736 0
M  V30 16442 H 1585.6 -4.35209 -0.590734 0
M  V30 16443 H 1586.21 -4.11751 1.06493 0
M  V30 16444 N 1584.52 -0.695628 -1.41417 0
M  V30 16445 C 1585.45 -0.0447013 -2.33457 0
M  V30 16446 C 1586.43 0.767104 -1.51821 0
M  V30 16447 O 1587.62 0.720066 -1.80357 0
M  V30 16448 C 1584.75 0.892353 -3.3564 0
M  V30 16449 C 1583.7 0.187638 -4.27588 0
M  V30 16450 C 1583.03 1.23906 -5.20146 0
M  V30 16451 C 1584.33 -0.946093 -5.1366 0
M  V30 16452 H 1586.02 -0.81343 -2.88138 0
M  V30 16453 H 1583.57 -0.392614 -1.38544 0
M  V30 16454 H 1585.52 1.35696 -3.98954 0
M  V30 16455 H 1584.25 1.69275 -2.79309 0
M  V30 16456 H 1582.91 -0.256942 -3.65698 0
M  V30 16457 H 1582.55 2.03198 -4.6013 0
M  V30 16458 H 1582.25 0.772536 -5.82499 0
M  V30 16459 H 1583.78 1.70417 -5.86336 0
M  V30 16460 H 1585.19 -0.561764 -5.70541 0
M  V30 16461 H 1583.59 -1.33971 -5.84954 0
M  V30 16462 H 1584.66 -1.78573 -4.50821 0
M  V30 16463 N 1586 1.51322 -0.440383 0
M  V30 16464 C 1587.25 2.0306 0.117497 0
M  V30 16465 C 1587.6 1.31849 1.4012 0
M  V30 16466 O 1586.9 0.4256 1.86813 0
M  V30 16467 C 1587.09 3.55287 0.388079 0
M  V30 16468 C 1586.92 4.41247 -0.867845 0
M  V30 16469 C 1585.69 4.85453 -1.40226 0
M  V30 16470 C 1587.89 4.83436 -1.75483 0
M  V30 16471 N 1585.87 5.55636 -2.61041 0
M  V30 16472 C 1587.24 5.52716 -2.80901 0
M  V30 16473 C 1589.29 4.65419 -1.76888 0
M  V30 16474 C 1588 6.05889 -3.87674 0
M  V30 16475 C 1590.02 5.19511 -2.82598 0
M  V30 16476 C 1589.39 5.8874 -3.86736 0
M  V30 16477 H 1585.48 0.781991 0.00375238 0
M  V30 16478 H 1588.07 1.85168 -0.601734 0
M  V30 16479 H 1586.24 3.73188 1.07635 0
M  V30 16480 H 1587.97 3.93689 0.937586 0
M  V30 16481 H 1584.73 4.63856 -0.955753 0
M  V30 16482 H 1585.15 5.95352 -3.22312 0
M  V30 16483 H 1589.79 4.11355 -0.977064 0
M  V30 16484 H 1587.51 6.59007 -4.67692 0
M  V30 16485 H 1591.1 5.07421 -2.84631 0
M  V30 16486 H 1589.98 6.29845 -4.67189 0
M  V30 16487 N 1587.48 0.171848 1.5666 0
M  V30 16488 C 1588.73 -0.473669 1.97191 0
M  V30 16489 C 1589.06 -1.6286 1.05784 0
M  V30 16490 O 1588.33 -1.94216 0.105084 0
M  V30 16491 C 1588.62 -0.956134 3.47174 0
M  V30 16492 C 1588.47 0.199007 4.4936 0
M  V30 16493 C 1589.79 -1.82962 4.00266 0
M  V30 16494 H 1586.91 -0.170704 0.716958 0
M  V30 16495 H 1589.55 0.25809 1.88239 0
M  V30 16496 H 1587.7 -1.57969 3.54934 0
M  V30 16497 H 1589.37 0.836109 4.53659 0
M  V30 16498 H 1587.61 0.85442 4.25302 0
M  V30 16499 H 1588.29 -0.180704 5.51704 0
M  V30 16500 H 1590.76 -1.30394 3.95141 0
M  V30 16501 H 1589.64 -2.13621 5.05625 0
M  V30 16502 H 1589.9 -2.77557 3.44114 0
M  V30 16503 N 1588.96 -1.5727 -0.101874 0
M  V30 16504 C 1589.9 -2.01577 -1.12406 0
M  V30 16505 C 1590.87 -0.890883 -1.40187 0
M  V30 16506 O 1592.06 -1.15638 -1.51764 0
M  V30 16507 C 1589.2 -2.43952 -2.44093 0
M  V30 16508 C 1588.31 -3.69932 -2.23101 0
M  V30 16509 C 1587.45 -4.01215 -3.48138 0
M  V30 16510 C 1586.49 -5.20325 -3.22379 0
M  V30 16511 N 1585.62 -5.47394 -4.39664 0
M  V30 16512 H 1590.46 -2.88685 -0.739244 0
M  V30 16513 H 1588 -1.42789 -0.353497 0
M  V30 16514 H 1589.96 -2.66563 -3.20936 0
M  V30 16515 H 1588.59 -1.59863 -2.80435 0
M  V30 16516 H 1587.64 -3.54838 -1.37092 0
M  V30 16517 H 1588.95 -4.56924 -2.00054 0
M  V30 16518 H 1588.11 -4.24566 -4.33392 0
M  V30 16519 H 1586.85 -3.12732 -3.74233 0
M  V30 16520 H 1585.85 -4.96802 -2.35517 0
M  V30 16521 H 1587.08 -6.10401 -2.97637 0
M  V30 16522 H 1585.02 -4.61869 -4.65847 0
M  V30 16523 H 1584.94 -6.28743 -4.19783 0
M  V30 16524 H 1586.21 -5.75276 -5.26002 0
M  V30 16525 N 1590.44 0.372521 -1.53134 0
M  V30 16526 C 1591.37 1.4621 -1.82057 0
M  V30 16527 C 1592.35 1.56194 -0.673612 0
M  V30 16528 O 1593.53 1.70875 -0.922797 0
M  V30 16529 C 1590.66 2.83632 -2.00425 0
M  V30 16530 C 1589.62 2.88478 -3.16171 0
M  V30 16531 C 1588.94 4.28508 -3.19821 0
M  V30 16532 C 1590.24 2.56628 -4.54906 0
M  V30 16533 H 1591.94 1.22256 -2.73302 0
M  V30 16534 H 1589.48 0.586688 -1.31507 0
M  V30 16535 H 1591.43 3.59876 -2.19242 0
M  V30 16536 H 1590.16 3.0896 -1.05884 0
M  V30 16537 H 1588.82 2.14684 -2.97164 0
M  V30 16538 H 1588.47 4.509 -2.2293 0
M  V30 16539 H 1588.17 4.32667 -3.97584 0
M  V30 16540 H 1589.69 5.06635 -3.40813 0
M  V30 16541 H 1591.1 3.22587 -4.73931 0
M  V30 16542 H 1589.5 2.72114 -5.34859 0
M  V30 16543 H 1590.57 1.51902 -4.60493 0
M  V30 16544 N 1591.91 1.44376 0.631925 0
M  V30 16545 C 1593.14 1.5038 1.41667 0
M  V30 16546 C 1593.55 0.12709 1.88773 0
M  V30 16547 O 1592.89 -0.877119 1.61407 0
M  V30 16548 C 1592.96 2.40602 2.67116 0
M  V30 16549 C 1592.62 3.87784 2.41812 0
M  V30 16550 C 1593.62 4.78337 2.0369 0
M  V30 16551 C 1591.3 4.32478 2.55476 0
M  V30 16552 C 1593.3 6.11586 1.7956 0
M  V30 16553 C 1590.98 5.65774 2.30961 0
M  V30 16554 C 1591.98 6.55146 1.93061 0
M  V30 16555 O 1591.67 7.85974 1.68818 0
M  V30 16556 H 1591.4 0.5124 0.440933 0
M  V30 16557 H 1593.96 1.9001 0.780096 0
M  V30 16558 H 1592.19 1.95898 3.33408 0
M  V30 16559 H 1593.87 2.37564 3.29117 0
M  V30 16560 H 1594.64 4.45079 1.92691 0
M  V30 16561 H 1590.52 3.63174 2.83946 0
M  V30 16562 H 1594.06 6.81304 1.49903 0
M  V30 16563 H 1589.96 5.98594 2.4157 0
M  V30 16564 H 1590.73 7.97764 1.8307 0
M  V30 16565 N 1593.39 -0.872258 1.31261 0
M  V30 16566 C 1594.34 -1.97926 1.18718 0
M  V30 16567 C 1595.31 -1.65937 0.0735242 0
M  V30 16568 O 1596.49 -1.89208 0.245979 0
M  V30 16569 C 1593.63 -3.33208 0.898117 0
M  V30 16570 C 1592.75 -3.77808 2.09488 0
M  V30 16571 C 1591.88 -5.01796 1.74281 0
M  V30 16572 C 1590.92 -5.38838 2.90379 0
M  V30 16573 N 1590.06 -6.54007 2.55382 0
M  V30 16574 H 1594.9 -2.07986 2.13415 0
M  V30 16575 H 1592.43 -1.01821 1.06165 0
M  V30 16576 H 1594.39 -4.11095 0.711089 0
M  V30 16577 H 1593.02 -3.22798 -0.0120097 0
M  V30 16578 H 1592.07 -2.95722 2.39276 0
M  V30 16579 H 1593.39 -4.01191 2.96391 0
M  V30 16580 H 1592.54 -5.87344 1.52027 0
M  V30 16581 H 1591.28 -4.80312 0.845665 0
M  V30 16582 H 1590.28 -4.51811 3.13284 0
M  V30 16583 H 1591.51 -5.62289 3.80799 0
M  V30 16584 H 1589.46 -6.34073 1.68188 0
M  V30 16585 H 1589.37 -6.77322 3.35814 0
M  V30 16586 H 1590.64 -7.42752 2.36516 0
M  V30 16587 N 1594.87 -1.14184 -1.08627 0
M  V30 16588 C 1596.09 -0.932504 -1.85254 0
M  V30 16589 C 1596.52 0.513792 -1.80947 0
M  V30 16590 O 1595.88 1.36525 -1.19292 0
M  V30 16591 C 1595.93 -1.43519 -3.30809 0
M  V30 16592 O 1595.03 -0.625806 -4.07624 0
M  V30 16593 H 1594.37 -0.333573 -0.57413 0
M  V30 16594 H 1596.9 -1.51853 -1.3712 0
M  V30 16595 H 1596.91 -1.44238 -3.81654 0
M  V30 16596 H 1595.59 -2.48819 -3.3326 0
M  V30 16597 H 1594.16 -0.687168 -3.66514 0
M  V30 16598 N 1596.35 1.26749 -0.936613 0
M  V30 16599 C 1597.26 2.30272 -0.448573 0
M  V30 16600 C 1598.27 1.67386 0.475184 0
M  V30 16601 O 1599.45 1.98232 0.355825 0
M  V30 16602 C 1596.52 3.45546 0.28262 0
M  V30 16603 C 1595.58 4.23926 -0.677138 0
M  V30 16604 C 1594.81 5.33697 0.019255 0
M  V30 16605 O 1595.03 5.56825 1.23703 0
M  V30 16606 O 1593.97 5.98302 -0.657119 0
M  V30 16607 H 1597.79 2.74072 -1.30838 0
M  V30 16608 H 1595.38 1.31863 -0.702314 0
M  V30 16609 H 1597.26 4.15635 0.694686 0
M  V30 16610 H 1595.93 3.03784 1.11789 0
M  V30 16611 H 1594.84 3.56337 -1.13906 0
M  V30 16612 H 1596.17 4.69425 -1.47988 0
M  V30 16613 N 1597.83 0.703118 1.41046 0
M  V30 16614 C 1598.77 0.0312802 2.32579 0
M  V30 16615 C 1599.77 -0.760463 1.51371 0
M  V30 16616 O 1600.97 -0.665235 1.67256 0
M  V30 16617 H 1597.35 -0.00868655 0.75195 0
M  V30 16618 H 1599.32 0.820195 2.86907 0
M  V30 16619 C 1598.07 -0.885639 3.36232 0
M  V30 16620 H 1597.39 -0.285819 3.98777 0
M  V30 16621 H 1598.83 -1.3239 4.02801 0
M  V30 16622 C 1597.29 -2.00533 2.70718 0
M  V30 16623 O 1597.82 -3.09491 2.56082 0
M  V30 16624 N 1596.03 -1.78528 2.29295 0
M  V30 16625 H 1595.57 -0.899139 2.41399 0
M  V30 16626 H 1595.53 -2.53627 1.85797 0
M  V30 16627 N 1599.3 -1.51086 0.448402 0
M  V30 16628 C 1600.23 -2.30896 -0.347773 0
M  V30 16629 C 1601.22 -1.36792 -1.01104 0
M  V30 16630 O 1602.4 -1.65713 -1.01257 0
M  V30 16631 C 1599.53 -3.15901 -1.44304 0
M  V30 16632 C 1598.48 -4.18373 -0.90265 0
M  V30 16633 C 1597.81 -4.9197 -2.0945 0
M  V30 16634 C 1599.11 -5.22252 0.0705335 0
M  V30 16635 H 1600.8 -2.97704 0.318273 0
M  V30 16636 H 1598.35 -1.43169 0.154509 0
M  V30 16637 H 1600.3 -3.70519 -2.00733 0
M  V30 16638 H 1599.03 -2.46935 -2.13753 0
M  V30 16639 H 1597.69 -3.64823 -0.3605 0
M  V30 16640 H 1597.33 -4.19497 -2.77545 0
M  V30 16641 H 1597.03 -5.6127 -1.73926 0
M  V30 16642 H 1598.56 -5.49415 -2.66412 0
M  V30 16643 H 1599.97 -5.71876 -0.403814 0
M  V30 16644 H 1598.37 -5.99142 0.338905 0
M  V30 16645 H 1599.44 -4.74398 1.00373 0
M  V30 16646 N 1600.78 -0.180154 -1.56567 0
M  V30 16647 C 1602.06 0.509347 -1.88852 0
M  V30 16648 C 1602.44 1.80697 -1.09141 0
M  V30 16649 O 1601.79 2.27726 -0.187974 0
M  V30 16650 C 1602 0.742669 -3.41006 0
M  V30 16651 C 1603.35 1.06873 -4.1093 0
M  V30 16652 O 1604.37 0.830907 -3.46373 0
M  V30 16653 O 1603.23 1.51784 -5.24999 0
M  V30 16654 H 1600.32 0.263629 -0.783855 0
M  V30 16655 H 1602.87 -0.219251 -1.68278 0
M  V30 16656 H 1601.64 -0.17431 -3.90912 0
M  V30 16657 H 1601.26 1.52427 -3.67222 0
M  V30 16658 N 1602.26 1.57322 0.0935319 0
M  V30 16659 C 1603.21 2.03184 1.13222 0
M  V30 16660 C 1604.2 0.933184 1.41379 0
M  V30 16661 O 1605.41 1.11836 1.41042 0
M  V30 16662 H 1601.78 0.647541 0.382354 0
M  V30 16663 H 1603.75 2.89606 0.719105 0
M  V30 16664 C 1602.5 2.47336 2.44378 0
M  V30 16665 H 1601.83 3.31456 2.23556 0
M  V30 16666 H 1603.27 2.83199 3.15554 0
M  V30 16667 C 1601.73 1.34728 3.08788 0
M  V30 16668 O 1602.26 0.677285 3.95949 0
M  V30 16669 N 1600.46 1.09787 2.69063 0
M  V30 16670 H 1600.01 1.64451 1.98277 0
M  V30 16671 H 1599.97 0.346436 3.12485 0
M  V30 16672 N 1603.74 -0.364395 1.53329 0
M  V30 16673 C 1605.15 -0.941133 1.61244 0
M  V30 16674 C 1605.5 -1.90223 0.480596 0
M  V30 16675 O 1604.63 -2.12805 -0.392805 0
M  V30 16676 C 1605.22 -1.7137 2.92263 0
M  V30 16677 C 1603.78 -2.23976 3.02509 0
M  V30 16678 C 1602.93 -1.05253 2.56548 0
M  V30 16679 H 1605.88 -0.143153 1.58053 0
M  V30 16680 H 1605.9 -2.575 2.80132 0
M  V30 16681 H 1605.41 -1.01395 3.74621 0
M  V30 16682 H 1603.51 -2.9719 2.24741 0
M  V30 16683 H 1603.62 -2.51777 4.07609 0
M  V30 16684 H 1601.99 -1.41986 2.11452 0
M  V30 16685 H 1602.77 -0.367744 3.41325 0
M  V30 16686 N 1605.22 -1.44709 -0.62426 0
M  V30 16687 C 1606.47 -1.47131 -1.37968 0
M  V30 16688 C 1606.78 -0.110507 -1.95288 0
M  V30 16689 O 1607.98 -0.0122892 -2.71497 0
M  V30 16690 C 1606.44 -2.59059 -2.49833 0
M  V30 16691 C 1606.05 -4.01378 -1.98997 0
M  V30 16692 C 1607.79 -2.70709 -3.26981 0
M  V30 16693 C 1605.7 -5.04717 -3.08244 0
M  V30 16694 H 1604.63 -0.547424 -0.5185 0
M  V30 16695 H 1607.28 -1.70797 -0.670863 0
M  V30 16696 H 1605.66 -2.28646 -3.23322 0
M  V30 16697 H 1606.84 -4.41391 -1.32327 0
M  V30 16698 H 1605.15 -3.9403 -1.34644 0
M  V30 16699 H 1607.75 -3.45087 -4.08435 0
M  V30 16700 H 1608.09 -1.76763 -3.76909 0
M  V30 16701 H 1608.62 -3.00566 -2.60585 0
M  V30 16702 H 1605.36 -6.00315 -2.63253 0
M  V30 16703 H 1604.88 -4.6929 -3.73534 0
M  V30 16704 H 1606.56 -5.28725 -3.72906 0
M  V30 16705 N 1606.69 0.865285 -1.31722 0
M  V30 16706 C 1607.63 1.97919 -1.15588 0
M  V30 16707 C 1608.64 1.6253 -0.0936929 0
M  V30 16708 O 1609.83 1.752 -0.341639 0
M  V30 16709 C 1606.93 3.30614 -0.744814 0
M  V30 16710 C 1606.1 3.94314 -1.89301 0
M  V30 16711 C 1605.16 5.0533 -1.46724 0
M  V30 16712 O 1604.19 5.25898 -2.17762 0
M  V30 16713 N 1605.39 5.794 -0.357262 0
M  V30 16714 H 1608.15 2.12304 -2.11535 0
M  V30 16715 H 1605.71 1.03953 -1.24118 0
M  V30 16716 H 1607.71 4.02273 -0.442594 0
M  V30 16717 H 1606.28 3.12357 0.123186 0
M  V30 16718 H 1605.5 3.15577 -2.3623 0
M  V30 16719 H 1606.78 4.33609 -2.66196 0
M  V30 16720 H 1606.18 5.65215 0.23423 0
M  V30 16721 H 1604.74 6.51699 -0.114599 0
M  V30 16722 N 1608.17 1.14759 1.0802 0
M  V30 16723 C 1609.4 0.941887 1.84218 0
M  V30 16724 C 1609.82 -0.509702 1.8179 0
M  V30 16725 O 1609.17 -1.35331 1.22441 0
M  V30 16726 C 1609.22 1.43978 3.31591 0
M  V30 16727 O 1608.94 2.83449 3.34048 0
M  V30 16728 C 1610.45 1.27459 4.24581 0
M  V30 16729 H 1607.67 0.334942 0.581425 0
M  V30 16730 H 1610.21 1.52367 1.36399 0
M  V30 16731 H 1608.36 0.900674 3.76785 0
M  V30 16732 H 1608.78 3.05878 4.26073 0
M  V30 16733 H 1610.25 1.67151 5.26084 0
M  V30 16734 H 1610.73 0.217925 4.38659 0
M  V30 16735 H 1611.34 1.80243 3.85217 0
M  V30 16736 N 1609.65 -1.26251 0.943322 0
M  V30 16737 C 1610.9 -1.93939 0.592909 0
M  V30 16738 C 1611.23 -1.73814 -0.866155 0
M  V30 16739 O 1610.5 -1.07645 -1.61997 0
M  V30 16740 C 1610.79 -3.47653 0.938601 0
M  V30 16741 C 1610.64 -3.77053 2.45257 0
M  V30 16742 C 1611.96 -4.37736 0.455546 0
M  V30 16743 H 1609.08 -0.704367 0.21688 0
M  V30 16744 H 1611.72 -1.4908 1.17793 0
M  V30 16745 H 1609.87 -3.85992 0.440756 0
M  V30 16746 H 1611.54 -3.48417 3.0233 0
M  V30 16747 H 1609.79 -3.23055 2.89513 0
M  V30 16748 H 1610.46 -4.84506 2.64495 0
M  V30 16749 H 1612.93 -4.06635 0.882435 0
M  V30 16750 H 1611.81 -5.44075 0.72623 0
M  V30 16751 H 1612.07 -4.37377 -0.644508 0
M  V30 16752 N 1611.13 -0.710588 -1.40671 0
M  V30 16753 C 1612.35 -0.256007 -2.05814 0
M  V30 16754 C 1612.78 1.09178 -1.53173 0
M  V30 16755 O 1612.14 1.68665 -0.664977 0
M  V30 16756 C 1612.19 -0.240528 -3.59797 0
M  V30 16757 O 1611.29 0.779859 -4.04959 0
M  V30 16758 H 1610.63 -0.121326 -0.652822 0
M  V30 16759 H 1613.16 -0.969667 -1.80163 0
M  V30 16760 H 1613.17 -0.0765027 -4.07928 0
M  V30 16761 H 1611.85 -1.22411 -3.97478 0
M  V30 16762 H 1610.42 0.583965 -3.68299 0
M  V30 16763 N 1612.61 1.50847 -0.456408 0
M  V30 16764 C 1613.54 2.31077 0.335523 0
M  V30 16765 C 1614.52 1.37326 1.00377 0
M  V30 16766 O 1615.7 1.66247 1.00376 0
M  V30 16767 C 1612.83 3.16662 1.42627 0
M  V30 16768 C 1611.79 4.18846 0.88045 0
M  V30 16769 C 1611.11 4.93074 2.06838 0
M  V30 16770 C 1612.41 5.22208 -0.0982288 0
M  V30 16771 H 1614.11 2.97531 -0.334056 0
M  V30 16772 H 1611.65 1.43085 -0.162099 0
M  V30 16773 H 1613.61 3.71578 1.98765 0
M  V30 16774 H 1612.33 2.48066 2.12441 0
M  V30 16775 H 1610.99 3.65009 0.341147 0
M  V30 16776 H 1610.64 4.20963 2.75316 0
M  V30 16777 H 1610.34 5.62184 1.70947 0
M  V30 16778 H 1611.86 5.5082 2.63494 0
M  V30 16779 H 1613.28 5.72082 0.373481 0
M  V30 16780 H 1611.67 5.98954 -0.370674 0
M  V30 16781 H 1612.74 4.73859 -1.02887 0
M  V30 16782 N 1614.09 0.188454 1.56469 0
M  V30 16783 C 1615.33 -0.451165 1.97 0
M  V30 16784 C 1615.65 -1.6261 1.07624 0
M  V30 16785 O 1614.92 -1.95354 0.146125 0
M  V30 16786 H 1613.5 -0.16967 0.727476 0
M  V30 16787 H 1616.17 0.273638 1.9297 0
M  V30 16788 H 1615.26 -0.799741 3.0168 0
M  V30 16789 N 1615.56 -1.5737 -0.0851874 0
M  V30 16790 C 1616.5 -1.99462 -1.12905 0
M  V30 16791 C 1617.51 -0.898597 -1.35754 0
M  V30 16792 O 1618.7 -1.17662 -1.34231 0
M  V30 16793 C 1615.8 -2.30689 -2.48266 0
M  V30 16794 C 1614.97 -3.61967 -2.45557 0
M  V30 16795 C 1614.03 -3.81017 -3.62922 0
M  V30 16796 O 1613.06 -4.52759 -3.44961 0
M  V30 16797 N 1614.26 -3.22348 -4.82775 0
M  V30 16798 H 1617.02 -2.89621 -0.7707 0
M  V30 16799 H 1614.58 -1.59564 -0.274033 0
M  V30 16800 H 1616.58 -2.40618 -3.254 0
M  V30 16801 H 1615.15 -1.46488 -2.76152 0
M  V30 16802 H 1614.37 -3.62916 -1.539 0
M  V30 16803 H 1615.65 -4.48191 -2.40836 0
M  V30 16804 H 1615.05 -2.64093 -5.00271 0
M  V30 16805 H 1613.61 -3.37747 -5.57468 0
M  V30 16806 N 1617.04 0.356258 -1.53521 0
M  V30 16807 C 1618.27 1.12273 -1.74383 0
M  V30 16808 C 1618.69 1.81981 -0.475881 0
M  V30 16809 O 1618.05 1.72083 0.570699 0
M  V30 16810 C 1618.1 2.12161 -2.91582 0
M  V30 16811 O 1617.2 3.1943 -2.60842 0
M  V30 16812 H 1616.54 0.325321 -0.578845 0
M  V30 16813 H 1619.07 0.410533 -2.00439 0
M  V30 16814 H 1619.08 2.55602 -3.18012 0
M  V30 16815 H 1617.76 1.60818 -3.8355 0
M  V30 16816 H 1616.33 2.80895 -2.4526 0
M  V30 16817 N 1618.52 1.45038 0.616577 0
M  V30 16818 C 1619.45 1.55858 1.73869 0
M  V30 16819 C 1620.43 0.410657 1.65069 0
M  V30 16820 O 1621.62 0.632652 1.83606 0
M  V30 16821 C 1618.75 1.51635 3.12448 0
M  V30 16822 C 1617.7 2.65053 3.36052 0
M  V30 16823 C 1617.03 2.45883 4.74811 0
M  V30 16824 C 1618.33 4.07121 3.27185 0
M  V30 16825 H 1620.02 2.49784 1.6507 0
M  V30 16826 H 1617.57 1.20216 0.792724 0
M  V30 16827 H 1619.52 1.57803 3.90738 0
M  V30 16828 H 1618.24 0.542342 3.22066 0
M  V30 16829 H 1616.9 2.58299 2.60149 0
M  V30 16830 H 1616.55 1.46641 4.8115 0
M  V30 16831 H 1616.25 3.21935 4.9156 0
M  V30 16832 H 1617.77 2.53892 5.55312 0
M  V30 16833 H 1619.19 4.15167 3.9536 0
M  V30 16834 H 1617.58 4.83491 3.55466 0
M  V30 16835 H 1618.65 4.29663 2.24762 0
M  V30 16836 N 1620 -0.858287 1.32179 0
M  V30 16837 C 1621.24 -1.61221 1.22532 0
M  V30 16838 C 1621.57 -1.93322 -0.213739 0
M  V30 16839 O 1620.83 -1.5719 -1.16575 0
M  V30 16840 C 1621.13 -2.94391 2.02654 0
M  V30 16841 C 1620.79 -2.81735 3.52046 0
M  V30 16842 C 1619.45 -2.7799 3.92778 0
M  V30 16843 C 1621.81 -2.67928 4.47062 0
M  V30 16844 C 1619.13 -2.58312 5.26775 0
M  V30 16845 C 1621.49 -2.49785 5.81197 0
M  V30 16846 C 1620.15 -2.44431 6.21136 0
M  V30 16847 H 1619.42 -0.589949 0.448376 0
M  V30 16848 H 1622.07 -0.995897 1.63567 0
M  V30 16849 H 1620.37 -3.60122 1.54336 0
M  V30 16850 H 1622.07 -3.5174 1.92561 0
M  V30 16851 H 1618.66 -2.85472 3.19693 0
M  V30 16852 H 1622.84 -2.69868 4.16515 0
M  V30 16853 H 1618.1 -2.526 5.56779 0
M  V30 16854 H 1622.27 -2.38081 6.54439 0
M  V30 16855 H 1619.9 -2.28943 7.24906 0
M  V30 16856 N 1621.48 -1.1533 -1.07409 0
M  V30 16857 C 1622.72 -0.927807 -1.79994 0
M  V30 16858 C 1623.05 0.545092 -1.86706 0
M  V30 16859 O 1622.31 1.4202 -1.34643 0
M  V30 16860 C 1622.6 -1.48646 -3.25022 0
M  V30 16861 C 1622.27 -2.97974 -3.38411 0
M  V30 16862 C 1620.93 -3.3874 -3.41773 0
M  V30 16863 C 1623.28 -3.93946 -3.41257 0
M  V30 16864 C 1620.61 -4.7412 -3.45582 0
M  V30 16865 C 1622.96 -5.29197 -3.46603 0
M  V30 16866 C 1621.63 -5.6946 -3.48241 0
M  V30 16867 H 1620.9 -0.339509 -0.658646 0
M  V30 16868 H 1623.55 -1.43863 -1.26395 0
M  V30 16869 H 1621.85 -0.89681 -3.81398 0
M  V30 16870 H 1623.55 -1.28781 -3.79759 0
M  V30 16871 H 1620.14 -2.65463 -3.36493 0
M  V30 16872 H 1624.32 -3.63525 -3.37881 0
M  V30 16873 H 1619.58 -5.04661 -3.45149 0
M  V30 16874 H 1623.75 -6.03359 -3.47751 0
M  V30 16875 H 1621.38 -6.74345 -3.50946 0
M  V30 16876 N 1622.95 1.25748 -0.950004 0
M  V30 16877 C 1623.9 2.23767 -0.43731 0
M  V30 16878 C 1624.89 1.53856 0.47088 0
M  V30 16879 O 1626.08 1.74358 0.304687 0
M  V30 16880 C 1623.21 3.4209 0.288037 0
M  V30 16881 C 1622.29 4.19274 -0.637955 0
M  V30 16882 N 1622.69 4.73909 -1.76759 0
M  V30 16883 C 1620.98 4.43772 -0.445251 0
M  V30 16884 C 1621.68 5.32323 -2.34535 0
M  V30 16885 N 1620.66 5.18511 -1.63239 0
M  V30 16886 H 1624.46 2.6361 -1.29949 0
M  V30 16887 H 1621.98 1.40934 -0.806931 0
M  V30 16888 H 1623.97 4.11441 0.672433 0
M  V30 16889 H 1622.63 3.03771 1.14688 0
M  V30 16890 H 1623.64 4.71184 -2.14955 0
M  V30 16891 H 1620.32 4.15848 0.37109 0
M  V30 16892 H 1621.71 5.85411 -3.29763 0
M  V30 16893 N 1624.43 0.718038 1.40292 0
M  V30 16894 C 1625.68 0.258603 2.00842 0
M  V30 16895 C 1626.01 -1.14894 1.56938 0
M  V30 16896 O 1625.26 -1.79414 0.781606 0
M  V30 16897 C 1625.56 0.289374 3.56227 0
M  V30 16898 C 1625.23 1.64756 4.19722 0
M  V30 16899 C 1623.89 2.01934 4.36779 0
M  V30 16900 C 1626.24 2.54008 4.55115 0
M  V30 16901 C 1623.57 3.27905 4.86513 0
M  V30 16902 C 1625.92 3.79334 5.06249 0
M  V30 16903 C 1624.58 4.16626 5.21516 0
M  V30 16904 H 1623.85 0.0946296 0.734933 0
M  V30 16905 H 1626.5 0.921552 1.67868 0
M  V30 16906 H 1624.81 -0.457147 3.89124 0
M  V30 16907 H 1626.5 -0.0839832 4.00912 0
M  V30 16908 H 1623.09 1.34846 4.06835 0
M  V30 16909 H 1627.28 2.2656 4.4157 0
M  V30 16910 H 1622.53 3.56763 4.96518 0
M  V30 16911 H 1626.71 4.48663 5.32611 0
M  V30 16912 H 1624.33 5.14306 5.59815 0
M  V30 16913 N 1625.91 -1.50602 0.464402 0
M  V30 16914 C 1627.32 -1.86698 0.00767586 0
M  V30 16915 C 1627.67 -1.37971 -1.39494 0
M  V30 16916 O 1626.8 -0.741843 -2.03287 0
M  V30 16917 C 1627.39 -3.38799 0.00715323 0
M  V30 16918 C 1625.95 -3.74331 -0.394077 0
M  V30 16919 C 1625.1 -2.74465 0.395495 0
M  V30 16920 H 1628.05 -1.43441 0.678996 0
M  V30 16921 H 1628.07 -3.7207 -0.796497 0
M  V30 16922 H 1627.58 -3.74234 1.02812 0
M  V30 16923 H 1625.68 -3.44495 -1.41964 0
M  V30 16924 H 1625.8 -4.78995 -0.10007 0
M  V30 16925 H 1624.16 -2.54258 -0.149903 0
M  V30 16926 H 1624.94 -3.12744 1.41585 0
M  V30 16927 N 1627.39 -0.19675 -1.56367 0
M  V30 16928 C 1628.8 0.315555 -1.84014 0
M  V30 16929 C 1629.15 1.61267 -1.11747 0
M  V30 16930 O 1628.28 2.13058 -0.378824 0
M  V30 16931 C 1628.87 0.579307 -3.33811 0
M  V30 16932 C 1627.43 1.03598 -3.61862 0
M  V30 16933 C 1626.58 0.0854845 -2.77168 0
M  V30 16934 H 1629.53 -0.4205 -1.53028 0
M  V30 16935 H 1629.55 1.42841 -3.52671 0
M  V30 16936 H 1629.06 -0.364925 -3.86381 0
M  V30 16937 H 1627.16 1.99443 -3.14727 0
M  V30 16938 H 1627.27 0.927547 -4.70035 0
M  V30 16939 H 1625.64 0.58768 -2.47827 0
M  V30 16940 H 1626.42 -0.853221 -3.32528 0
M  V30 16941 N 1628.87 1.57413 0.0768405 0
M  V30 16942 C 1629.8 2.06378 1.09226 0
M  V30 16943 C 1630.78 0.956269 1.40675 0
M  V30 16944 O 1631.96 1.22868 1.5039 0
M  V30 16945 C 1629.09 2.50349 2.40712 0
M  V30 16946 C 1628.05 3.64931 2.23628 0
M  V30 16947 C 1627.37 3.9494 3.60453 0
M  V30 16948 C 1628.67 4.95162 1.66169 0
M  V30 16949 H 1630.37 2.91463 0.684827 0
M  V30 16950 H 1627.91 1.40215 0.327974 0
M  V30 16951 H 1629.87 2.83216 3.12036 0
M  V30 16952 H 1628.59 1.62287 2.83426 0
M  V30 16953 H 1627.25 3.32339 1.54747 0
M  V30 16954 H 1626.9 3.04016 4.00728 0
M  V30 16955 H 1626.6 4.72091 3.49863 0
M  V30 16956 H 1628.12 4.30299 4.33215 0
M  V30 16957 H 1629.53 5.26292 2.27353 0
M  V30 16958 H 1627.93 5.76601 1.66289 0
M  V30 16959 H 1629 4.80885 0.62271 0
M  V30 16960 N 1630.34 -0.348112 1.53707 0
M  V30 16961 C 1631.27 -1.43296 1.8436 0
M  V30 16962 C 1632.26 -1.55102 0.698376 0
M  V30 16963 O 1633.44 -1.69385 0.949864 0
M  V30 16964 C 1630.57 -2.80407 2.04912 0
M  V30 16965 C 1629.52 -2.83412 3.20721 0
M  V30 16966 C 1628.85 -4.23365 3.26597 0
M  V30 16967 C 1630.15 -2.49358 4.58931 0
M  V30 16968 H 1631.84 -1.17892 2.75212 0
M  V30 16969 H 1629.39 -0.565692 1.32423 0
M  V30 16970 H 1631.34 -3.56343 2.24939 0
M  V30 16971 H 1630.07 -3.07236 1.10786 0
M  V30 16972 H 1628.73 -2.09929 3.00542 0
M  V30 16973 H 1628.37 -4.47297 2.30076 0
M  V30 16974 H 1628.07 -4.26287 4.04417 0
M  V30 16975 H 1629.6 -5.01149 3.4883 0
M  V30 16976 H 1631.01 -3.15006 4.79003 0
M  V30 16977 H 1629.41 -2.6357 5.3912 0
M  V30 16978 H 1630.48 -1.44557 4.62851 0
M  V30 16979 N 1631.82 -1.45363 -0.608876 0
M  V30 16980 C 1633.24 -1.29741 -0.929491 0
M  V30 16981 C 1633.44 -0.249486 -1.9995 0
M  V30 16982 O 1632.49 0.357014 -2.49963 0
M  V30 16983 C 1633.81 -2.67594 -1.37164 0
M  V30 16984 C 1635.36 -2.7548 -1.48592 0
M  V30 16985 C 1635.83 -4.13855 -1.96183 0
M  V30 16986 N 1637.32 -4.16143 -2.03419 0
M  V30 16987 C 1638.06 -5.20081 -2.41462 0
M  V30 16988 N 1637.55 -6.34365 -2.78482 0
M  V30 16989 N 1639.35 -5.07439 -2.4179 0
M  V30 16990 H 1631.5 -2.12172 0.0983838 0
M  V30 16991 H 1633.76 -0.947817 -0.0186397 0
M  V30 16992 H 1633.47 -3.45459 -0.6596 0
M  V30 16993 H 1633.34 -2.9597 -2.33841 0
M  V30 16994 H 1635.73 -1.97919 -2.18888 0
M  V30 16995 H 1635.81 -2.50819 -0.502337 0
M  V30 16996 H 1635.45 -4.91901 -1.26475 0
M  V30 16997 H 1635.38 -4.35907 -2.95453 0
M  V30 16998 H 1637.87 -3.33671 -1.77404 0
M  V30 16999 H 1638.19 -7.09469 -3.06388 0
M  V30 17000 H 1636.53 -6.37769 -2.76181 0
M  V30 17001 H 1639.72 -4.17202 -2.12273 0
M  V30 17002 H 1639.89 -5.8856 -2.71112 0
M  V30 17003 N 1633.3 0.851265 -1.32632 0
M  V30 17004 C 1634.58 1.58945 -1.13999 0
M  V30 17005 C 1634.96 2.08981 0.29836 0
M  V30 17006 O 1634.31 1.88226 1.2955 0
M  V30 17007 C 1634.52 2.73296 -2.17049 0
M  V30 17008 C 1635.86 3.42791 -2.50559 0
M  V30 17009 O 1636.89 2.83524 -2.15621 0
M  V30 17010 O 1635.75 4.49749 -3.10464 0
M  V30 17011 H 1632.84 0.700157 -0.440124 0
M  V30 17012 H 1635.39 0.895098 -1.44174 0
M  V30 17013 H 1634.16 2.33873 -3.13718 0
M  V30 17014 H 1633.78 3.50405 -1.87888 0
M  V30 17015 N 1634.78 1.15898 1.06796 0
M  V30 17016 C 1636.03 0.935488 1.79145 0
M  V30 17017 C 1636.35 -0.538433 1.87419 0
M  V30 17018 O 1635.62 -1.39124 1.37917 0
M  V30 17019 H 1634.2 0.343123 0.663533 0
M  V30 17020 H 1636.86 1.4607 1.29034 0
M  V30 17021 H 1635.96 1.34978 2.81402 0
M  V30 17022 N 1636.26 -1.25243 0.956659 0
M  V30 17023 C 1637.17 -2.29529 0.48515 0
M  V30 17024 C 1638.18 -1.68121 -0.448494 0
M  V30 17025 O 1639.36 -1.98773 -0.324243 0
M  V30 17026 C 1636.42 -3.45952 -0.227611 0
M  V30 17027 C 1635.48 -4.22795 0.744495 0
M  V30 17028 C 1634.72 -5.3366 0.0656539 0
M  V30 17029 O 1634.94 -5.58722 -1.14829 0
M  V30 17030 O 1633.87 -5.97181 0.75222 0
M  V30 17031 H 1637.7 -2.71955 1.35181 0
M  V30 17032 H 1635.29 -1.30729 0.723203 0
M  V30 17033 H 1637.17 -4.16687 -0.628474 0
M  V30 17034 H 1635.84 -3.05524 -1.06942 0
M  V30 17035 H 1634.75 -3.5448 1.1956 0
M  V30 17036 H 1636.08 -4.67012 1.55438 0
M  V30 17037 N 1637.73 -0.725468 -1.3991 0
M  V30 17038 C 1638.68 -0.0682776 -2.325 0
M  V30 17039 C 1639.68 0.736285 -1.52562 0
M  V30 17040 O 1640.88 0.638542 -1.68293 0
M  V30 17041 H 1637.26 -0.00327742 -0.751993 0
M  V30 17042 H 1639.23 -0.865735 -2.85565 0
M  V30 17043 C 1637.98 0.832036 -3.37598 0
M  V30 17044 H 1637.3 0.222341 -3.99181 0
M  V30 17045 H 1638.74 1.25965 -4.04856 0
M  V30 17046 C 1637.2 1.96201 -2.73874 0
M  V30 17047 O 1637.73 3.05378 -2.60974 0
M  V30 17048 N 1635.94 1.74857 -2.32106 0
M  V30 17049 H 1635.48 0.860621 -2.42798 0
M  V30 17050 H 1635.44 2.50639 -1.89808 0
M  V30 17051 N 1639.21 1.50354 -0.472382 0
M  V30 17052 C 1640.44 2.06446 0.0796976 0
M  V30 17053 C 1640.85 1.33626 1.33943 0
M  V30 17054 O 1640.19 0.399473 1.79304 0
M  V30 17055 C 1640.26 3.56889 0.432455 0
M  V30 17056 C 1639.92 4.51205 -0.725443 0
M  V30 17057 C 1640.92 4.94413 -1.60784 0
M  V30 17058 C 1638.6 4.93875 -0.916135 0
M  V30 17059 C 1640.6 5.78998 -2.66533 0
M  V30 17060 C 1638.28 5.78242 -1.97684 0
M  V30 17061 C 1639.28 6.20706 -2.8498 0
M  V30 17062 O 1638.97 7.03391 -3.89224 0
M  V30 17063 H 1638.7 0.675986 -0.00433625 0
M  V30 17064 H 1641.25 1.94489 -0.660558 0
M  V30 17065 H 1639.48 3.66754 1.22591 0
M  V30 17066 H 1641.17 3.95342 0.919769 0
M  V30 17067 H 1641.94 4.62116 -1.47221 0
M  V30 17068 H 1637.82 4.60343 -0.246124 0
M  V30 17069 H 1641.36 6.12063 -3.34701 0
M  V30 17070 H 1637.26 6.09953 -2.11254 0
M  V30 17071 H 1638.03 7.21644 -3.86229 0
M  V30 17072 N 1640.69 0.205039 1.56261 0
M  V30 17073 C 1641.94 -0.431735 1.98151 0
M  V30 17074 C 1642.27 -1.60579 1.09215 0
M  V30 17075 O 1641.55 -1.93949 0.146257 0
M  V30 17076 C 1641.83 -0.882278 3.49124 0
M  V30 17077 C 1641.68 0.294278 4.48836 0
M  V30 17078 C 1643 -1.7443 4.04057 0
M  V30 17079 H 1640.12 -0.155457 0.720418 0
M  V30 17080 H 1642.76 0.29796 1.87649 0
M  V30 17081 H 1640.91 -1.50404 3.58205 0
M  V30 17082 H 1642.58 0.932148 4.51784 0
M  V30 17083 H 1640.83 0.94444 4.23394 0
M  V30 17084 H 1641.5 -0.063639 5.51963 0
M  V30 17085 H 1643.97 -1.21983 3.97818 0
M  V30 17086 H 1642.85 -2.02848 5.10043 0
M  V30 17087 H 1643.11 -2.70195 3.49924 0
M  V30 17088 N 1642.17 -1.57451 -0.0684915 0
M  V30 17089 C 1643.42 -1.87689 -0.768156 0
M  V30 17090 C 1643.75 -0.79776 -1.77058 0
M  V30 17091 O 1643.02 0.191614 -1.93554 0
M  V30 17092 C 1643.31 -3.28587 -1.47319 0
M  V30 17093 C 1643.16 -4.47156 -0.486954 0
M  V30 17094 C 1644.48 -3.67772 -2.41727 0
M  V30 17095 H 1641.6 -0.682642 -0.277793 0
M  V30 17096 H 1644.24 -1.89974 -0.0312968 0
M  V30 17097 H 1642.39 -3.26769 -2.10129 0
M  V30 17098 H 1644.06 -4.61099 0.136189 0
M  V30 17099 H 1642.3 -4.33351 0.197429 0
M  V30 17100 H 1642.98 -5.42533 -1.01795 0
M  V30 17101 H 1645.45 -3.70704 -1.88992 0
M  V30 17102 H 1644.33 -4.6724 -2.88059 0
M  V30 17103 H 1644.59 -2.97882 -3.26679 0
M  V30 17104 N 1643.65 0.339955 -1.5389 0
M  V30 17105 C 1644.58 1.42316 -1.85117 0
M  V30 17106 C 1645.56 1.5473 -0.706591 0
M  V30 17107 O 1646.74 1.68879 -0.958834 0
M  V30 17108 C 1643.87 2.79317 -2.06396 0
M  V30 17109 C 1642.83 2.81707 -3.22219 0
M  V30 17110 C 1642.15 4.21627 -3.28838 0
M  V30 17111 C 1643.45 2.46921 -4.60247 0
M  V30 17112 H 1645.15 1.16431 -2.75834 0
M  V30 17113 H 1642.69 0.558661 -1.32721 0
M  V30 17114 H 1644.65 3.55145 -2.26826 0
M  V30 17115 H 1643.37 3.06644 -1.12414 0
M  V30 17116 H 1642.03 2.08332 -3.01651 0
M  V30 17117 H 1641.68 4.4607 -2.32444 0
M  V30 17118 H 1641.38 4.24137 -4.06672 0
M  V30 17119 H 1642.9 4.99292 -3.51482 0
M  V30 17120 H 1644.32 3.12462 -4.80667 0
M  V30 17121 H 1642.71 2.60707 -5.40511 0
M  V30 17122 H 1643.78 1.421 -4.63611 0
M  V30 17123 N 1645.13 1.45684 0.601159 0
M  V30 17124 C 1646.06 1.57694 1.72206 0
M  V30 17125 C 1647.04 0.428141 1.64624 0
M  V30 17126 O 1648.22 0.65209 1.82925 0
M  V30 17127 C 1645.35 1.54941 3.10822 0
M  V30 17128 C 1644.31 2.68603 3.33222 0
M  V30 17129 C 1643.63 2.50906 4.72176 0
M  V30 17130 C 1644.93 4.10568 3.22849 0
M  V30 17131 H 1646.63 2.51521 1.62412 0
M  V30 17132 H 1644.17 1.2105 0.779929 0
M  V30 17133 H 1646.12 1.61939 3.89042 0
M  V30 17134 H 1644.85 0.576471 3.21472 0
M  V30 17135 H 1643.51 2.61043 2.57394 0
M  V30 17136 H 1643.16 1.51736 4.79568 0
M  V30 17137 H 1642.86 3.27131 4.88118 0
M  V30 17138 H 1644.38 2.59767 5.52588 0
M  V30 17139 H 1645.79 4.19336 3.90935 0
M  V30 17140 H 1644.19 4.87234 3.50318 0
M  V30 17141 H 1645.26 4.32022 2.20192 0
M  V30 17142 N 1646.6 -0.84422 1.33082 0
M  V30 17143 C 1647.88 -1.58339 1.1484 0
M  V30 17144 C 1648.26 -2.09136 -0.287273 0
M  V30 17145 O 1647.61 -1.8891 -1.2855 0
M  V30 17146 C 1647.82 -2.72141 2.18496 0
M  V30 17147 C 1649.17 -3.41457 2.52373 0
M  V30 17148 O 1650.19 -2.82377 2.17122 0
M  V30 17149 O 1649.05 -4.48096 3.12845 0
M  V30 17150 H 1646.14 -0.697813 0.443831 0
M  V30 17151 H 1648.69 -0.88744 1.44646 0
M  V30 17152 H 1647.46 -2.32206 3.14954 0
M  V30 17153 H 1647.08 -3.49404 1.89744 0
M  V30 17154 N 1648.08 -1.16463 -1.0618 0
M  V30 17155 C 1649.31 -0.97159 -1.83235 0
M  V30 17156 C 1649.73 0.475295 -1.81996 0
M  V30 17157 O 1649.09 1.33964 -1.22161 0
M  V30 17158 C 1649.14 -1.50504 -3.2769 0
M  V30 17159 O 1648.24 -0.712128 -4.06205 0
M  V30 17160 H 1647.58 -0.345676 -0.566925 0
M  V30 17161 H 1650.11 -1.54727 -1.33868 0
M  V30 17162 H 1650.12 -1.52301 -3.78508 0
M  V30 17163 H 1648.8 -2.55832 -3.27907 0
M  V30 17164 H 1647.37 -0.764756 -3.64974 0
M  V30 17165 N 1649.56 1.24734 -0.963288 0
M  V30 17166 C 1650.79 1.96745 -0.640234 0
M  V30 17167 C 1651.2 1.71503 0.789445 0
M  V30 17168 O 1650.56 0.996174 1.52914 0
M  V30 17169 C 1650.61 3.50118 -0.899987 0
M  V30 17170 O 1650.33 3.74494 -2.27346 0
M  V30 17171 C 1651.83 4.39349 -0.590511 0
M  V30 17172 H 1649.05 0.626892 -0.239266 0
M  V30 17173 H 1651.6 1.58678 -1.29002 0
M  V30 17174 H 1649.75 3.86264 -0.296478 0
M  V30 17175 H 1650.17 4.68902 -2.35013 0
M  V30 17176 H 1651.64 5.45834 -0.822744 0
M  V30 17177 H 1652.12 4.36622 0.475138 0
M  V30 17178 H 1652.72 4.08783 -1.17373 0
M  V30 17179 N 1651.04 0.732878 1.39523 0
M  V30 17180 C 1651.97 0.106583 2.33257 0
M  V30 17181 C 1652.95 -0.726582 1.53801 0
M  V30 17182 O 1654.13 -0.671994 1.82203 0
M  V30 17183 C 1651.26 -0.803051 3.37888 0
M  V30 17184 C 1650.22 -0.0742048 4.27936 0
M  V30 17185 C 1649.54 -1.10071 5.23248 0
M  V30 17186 C 1650.84 1.08195 5.10971 0
M  V30 17187 H 1652.54 0.889539 2.8588 0
M  V30 17188 H 1650.08 0.429209 1.37455 0
M  V30 17189 H 1652.04 -1.25071 4.02412 0
M  V30 17190 H 1650.76 -1.6181 2.83699 0
M  V30 17191 H 1649.42 0.35381 3.64889 0
M  V30 17192 H 1649.07 -1.90927 4.65356 0
M  V30 17193 H 1648.77 -0.617825 5.84343 0
M  V30 17194 H 1650.29 -1.54812 5.90649 0
M  V30 17195 H 1651.71 0.712835 5.68851 0
M  V30 17196 H 1650.1 1.49433 5.81197 0
M  V30 17197 H 1651.17 1.90463 4.45928 0
M  V30 17198 N 1652.52 -1.50101 0.480349 0
M  V30 17199 C 1653.93 -1.8668 0.0274773 0
M  V30 17200 C 1654.28 -1.39442 -1.38023 0
M  V30 17201 O 1653.4 -0.763363 -2.02489 0
M  V30 17202 C 1654 -3.38773 0.043087 0
M  V30 17203 C 1652.56 -3.74728 -0.354352 0
M  V30 17204 C 1651.7 -2.7403 0.424583 0
M  V30 17205 H 1654.65 -1.42713 0.694172 0
M  V30 17206 H 1654.68 -3.72894 -0.756989 0
M  V30 17207 H 1654.19 -3.73123 1.06775 0
M  V30 17208 H 1652.29 -3.45981 -1.38303 0
M  V30 17209 H 1652.4 -4.79075 -0.0492608 0
M  V30 17210 H 1650.77 -2.54403 -0.122927 0
M  V30 17211 H 1651.55 -3.11225 1.44894 0
M  V30 17212 N 1653.99 -0.213323 -1.5615 0
M  V30 17213 C 1655.41 0.142215 -1.58965 0
M  V30 17214 C 1655.61 1.59606 -1.22996 0
M  V30 17215 O 1654.67 2.33485 -0.961308 0
M  V30 17216 C 1655.98 -0.176632 -3.00181 0
M  V30 17217 C 1657.53 -0.118205 -3.12777 0
M  V30 17218 C 1658 -0.410614 -4.56156 0
M  V30 17219 N 1659.49 -0.359887 -4.618 0
M  V30 17220 C 1660.23 -0.559744 -5.70661 0
M  V30 17221 N 1659.72 -0.820934 -6.87919 0
M  V30 17222 N 1661.52 -0.492746 -5.59936 0
M  V30 17223 H 1653.67 -1.16182 -1.77807 0
M  V30 17224 H 1655.93 -0.465086 -0.826075 0
M  V30 17225 H 1655.64 -1.18538 -3.31122 0
M  V30 17226 H 1655.51 0.512256 -3.73705 0
M  V30 17227 H 1657.9 0.88117 -2.81637 0
M  V30 17228 H 1657.98 -0.840446 -2.41599 0
M  V30 17229 H 1657.62 -1.40739 -4.88011 0
M  V30 17230 H 1657.55 0.332725 -5.25548 0
M  V30 17231 H 1660.04 -0.16537 -3.77538 0
M  V30 17232 H 1660.36 -0.961755 -7.66792 0
M  V30 17233 H 1658.7 -0.858036 -6.89683 0
M  V30 17234 H 1661.89 -0.288981 -4.67207 0
M  V30 17235 H 1662.07 -0.651912 -6.44712 0
M  V30 17236 N 1655.47 1.57485 0.0601405 0
M  V30 17237 C 1656.7 1.92438 0.773466 0
M  V30 17238 C 1657.12 0.810755 1.6973 0
M  V30 17239 O 1656.48 -0.235697 1.79761 0
M  V30 17240 C 1656.53 3.26381 1.53323 0
M  V30 17241 O 1655.63 3.16436 2.64465 0
M  V30 17242 H 1654.97 0.629838 0.210239 0
M  V30 17243 H 1657.5 2.04585 0.0248981 0
M  V30 17244 H 1657.51 3.60534 1.90996 0
M  V30 17245 H 1656.19 4.07007 0.855468 0
M  V30 17246 H 1654.77 2.93862 2.29564 0
M  V30 17247 N 1656.95 -0.331789 1.54068 0
M  V30 17248 C 1657.88 -1.42889 1.79208 0
M  V30 17249 C 1658.9 -1.48204 0.673754 0
M  V30 17250 O 1660.08 -1.51075 0.950712 0
M  V30 17251 C 1657.18 -2.81477 1.88743 0
M  V30 17252 C 1656.36 -2.99463 3.18812 0
M  V30 17253 C 1655.42 -4.18363 3.19154 0
M  V30 17254 O 1654.44 -4.11916 3.92828 0
M  V30 17255 N 1655.64 -5.27489 2.42354 0
M  V30 17256 H 1658.41 -1.21689 2.73883 0
M  V30 17257 H 1655.97 -0.521735 1.53263 0
M  V30 17258 H 1657.96 -3.59213 1.86409 0
M  V30 17259 H 1656.53 -2.95765 1.01202 0
M  V30 17260 H 1655.75 -2.09097 3.34174 0
M  V30 17261 H 1657.04 -3.0837 4.04704 0
M  V30 17262 H 1656.44 -5.35599 1.82071 0
M  V30 17263 H 1655 -6.03674 2.45806 0
M  V30 17264 N 1658.43 -1.46001 -0.593424 0
M  V30 17265 C 1659.66 -1.54083 -1.3763 0
M  V30 17266 C 1660.07 -0.177096 -1.88369 0
M  V30 17267 O 1659.41 0.834016 -1.63676 0
M  V30 17268 C 1659.47 -2.47599 -2.60643 0
M  V30 17269 C 1659.14 -3.94058 -2.31445 0
M  V30 17270 C 1660.13 -4.83569 -1.90936 0
M  V30 17271 C 1657.82 -4.39099 -2.4392 0
M  V30 17272 C 1659.81 -6.16131 -1.63282 0
M  V30 17273 C 1657.5 -5.71699 -2.15879 0
M  V30 17274 C 1658.5 -6.60034 -1.75624 0
M  V30 17275 O 1658.18 -7.90174 -1.4792 0
M  V30 17276 H 1657.92 -0.52391 -0.427193 0
M  V30 17277 H 1660.47 -1.92011 -0.729444 0
M  V30 17278 H 1658.7 -2.04669 -3.28097 0
M  V30 17279 H 1660.39 -2.46207 -3.22703 0
M  V30 17280 H 1661.16 -4.50031 -1.80822 0
M  V30 17281 H 1657.03 -3.70575 -2.74218 0
M  V30 17282 H 1660.58 -6.85039 -1.31787 0
M  V30 17283 H 1656.48 -6.04788 -2.25614 0
M  V30 17284 H 1657.24 -8.02338 -1.61854 0
M  V30 17285 N 1659.91 0.83715 -1.33527 0
M  V30 17286 C 1661.18 1.57727 -1.15678 0
M  V30 17287 C 1661.56 2.09286 0.276178 0
M  V30 17288 O 1660.91 1.89589 1.27547 0
M  V30 17289 C 1661.12 2.70978 -2.19936 0
M  V30 17290 C 1662.47 3.40114 -2.5418 0
M  V30 17291 O 1663.49 2.81221 -2.18616 0
M  V30 17292 O 1662.35 4.46431 -3.15217 0
M  V30 17293 H 1659.45 0.69545 -0.447525 0
M  V30 17294 H 1661.99 0.879756 -1.45115 0
M  V30 17295 H 1660.76 2.30532 -3.16181 0
M  V30 17296 H 1660.39 3.48393 -1.91594 0
M  V30 17297 N 1661.38 1.17024 1.05561 0
M  V30 17298 C 1662.61 0.979328 1.81914 0
M  V30 17299 C 1663.02 -0.475688 1.83122 0
M  V30 17300 O 1662.37 -1.34205 1.25438 0
M  V30 17301 C 1662.43 1.4391 3.29439 0
M  V30 17302 C 1662.09 2.9155 3.5192 0
M  V30 17303 C 1663.09 3.89509 3.44353 0
M  V30 17304 C 1660.77 3.2964 3.79003 0
M  V30 17305 C 1662.77 5.23557 3.63548 0
M  V30 17306 C 1660.45 4.63855 3.97846 0
M  V30 17307 C 1661.45 5.60623 3.90117 0
M  V30 17308 O 1661.14 6.92411 4.08439 0
M  V30 17309 H 1660.87 0.34689 0.58021 0
M  V30 17310 H 1663.43 1.55641 1.34034 0
M  V30 17311 H 1661.66 0.805555 3.78216 0
M  V30 17312 H 1663.35 1.21445 3.87306 0
M  V30 17313 H 1664.11 3.61428 3.23412 0
M  V30 17314 H 1659.99 2.54891 3.84124 0
M  V30 17315 H 1663.53 5.99074 3.5743 0
M  V30 17316 H 1659.43 4.91644 4.18278 0
M  V30 17317 H 1660.2 6.99095 4.25685 0
M  V30 17318 N 1662.86 -1.24221 0.969889 0
M  V30 17319 C 1664.11 -1.91656 0.628559 0
M  V30 17320 C 1664.42 -1.76627 -0.840371 0
M  V30 17321 O 1665.63 -2.38771 -1.29232 0
M  V30 17322 C 1664.09 -3.43515 1.07357 0
M  V30 17323 C 1663.69 -3.67226 2.56611 0
M  V30 17324 C 1665.44 -4.16788 0.805493 0
M  V30 17325 C 1663.35 -5.12667 2.94834 0
M  V30 17326 H 1662.28 -0.717619 0.231384 0
M  V30 17327 H 1664.93 -1.40831 1.17639 0
M  V30 17328 H 1663.31 -3.93388 0.454037 0
M  V30 17329 H 1664.48 -3.27942 3.23713 0
M  V30 17330 H 1662.8 -3.07243 2.81053 0
M  V30 17331 H 1665.39 -5.23945 1.06705 0
M  V30 17332 H 1665.74 -4.15498 -0.258321 0
M  V30 17333 H 1666.27 -3.7287 1.3861 0
M  V30 17334 H 1663.01 -5.1908 4.00295 0
M  V30 17335 H 1662.53 -5.5294 2.32417 0
M  V30 17336 H 1664.21 -5.80916 2.8486 0
M  V30 17337 N 1664.34 -0.740267 -1.39132 0
M  V30 17338 C 1665.27 -0.118951 -2.33197 0
M  V30 17339 C 1666.25 0.718416 -1.54184 0
M  V30 17340 O 1667.44 0.662322 -1.82557 0
M  V30 17341 C 1664.57 0.78512 -3.38309 0
M  V30 17342 C 1663.52 0.0515093 -4.27969 0
M  V30 17343 C 1662.85 1.07295 -5.23824 0
M  V30 17344 C 1664.15 -1.10903 -5.1039 0
M  V30 17345 H 1665.84 -0.904687 -2.85405 0
M  V30 17346 H 1663.39 -0.436493 -1.37225 0
M  V30 17347 H 1665.34 1.22935 -4.03069 0
M  V30 17348 H 1664.06 1.60303 -2.84553 0
M  V30 17349 H 1662.72 -0.373156 -3.64696 0
M  V30 17350 H 1662.37 1.88456 -4.66362 0
M  V30 17351 H 1662.07 0.586827 -5.84662 0
M  V30 17352 H 1663.59 1.51677 -5.91461 0
M  V30 17353 H 1665.01 -0.742993 -5.68465 0
M  V30 17354 H 1663.41 -1.52513 -5.80396 0
M  V30 17355 H 1664.48 -1.92825 -4.44912 0
M  V30 17356 N 1665.82 1.49844 -0.488302 0
M  V30 17357 C 1667.23 1.86663 -0.037377 0
M  V30 17358 C 1667.58 1.40172 1.37281 0
M  V30 17359 O 1666.71 0.77409 2.02081 0
M  V30 17360 C 1667.3 3.38745 -0.0610523 0
M  V30 17361 C 1665.86 3.74911 0.334475 0
M  V30 17362 C 1665.01 2.73801 -0.439109 0
M  V30 17363 H 1667.96 1.42343 -0.70173 0
M  V30 17364 H 1667.98 3.7329 0.737203 0
M  V30 17365 H 1667.49 3.72551 -1.08753 0
M  V30 17366 H 1665.59 3.4671 1.36466 0
M  V30 17367 H 1665.7 4.79094 0.0238536 0
M  V30 17368 H 1664.07 2.54465 0.109433 0
M  V30 17369 H 1664.85 3.10452 -1.46542 0
M  V30 17370 N 1667.3 0.221601 1.56034 0
M  V30 17371 C 1668.23 -0.720818 2.1757 0
M  V30 17372 C 1669.24 -1.15751 1.14479 0
M  V30 17373 O 1670.43 -1.08865 1.41459 0
M  V30 17374 C 1667.53 -1.98817 2.74454 0
M  V30 17375 C 1666.7 -1.70703 4.02715 0
M  V30 17376 C 1665.76 -2.82146 4.44162 0
M  V30 17377 O 1664.79 -2.50614 5.11059 0
M  V30 17378 N 1665.99 -4.11101 4.09849 0
M  V30 17379 H 1668.76 -0.194436 2.99069 0
M  V30 17380 H 1666.32 0.0405962 1.61849 0
M  V30 17381 H 1668.31 -2.72562 2.99152 0
M  V30 17382 H 1666.88 -2.42503 1.97258 0
M  V30 17383 H 1666.1 -0.806022 3.85872 0
M  V30 17384 H 1667.39 -1.49351 4.86387 0
M  V30 17385 H 1666.78 -4.39562 3.56092 0
M  V30 17386 H 1665.34 -4.81389 4.3944 0
M  V30 17387 N 1668.77 -1.57515 -0.0517878 0
M  V30 17388 C 1670.02 -1.88493 -0.748206 0
M  V30 17389 C 1670.35 -0.816494 -1.76202 0
M  V30 17390 O 1669.63 0.171075 -1.93746 0
M  V30 17391 C 1669.91 -3.30131 -1.43825 0
M  V30 17392 C 1669.76 -4.47648 -0.4395 0
M  V30 17393 C 1671.08 -3.70315 -2.37813 0
M  V30 17394 H 1668.2 -0.68555 -0.270537 0
M  V30 17395 H 1670.84 -1.89997 -0.0111457 0
M  V30 17396 H 1668.99 -3.2898 -2.06651 0
M  V30 17397 H 1670.67 -4.60929 0.185088 0
M  V30 17398 H 1668.91 -4.33117 0.243381 0
M  V30 17399 H 1669.58 -5.43582 -0.96035 0
M  V30 17400 H 1672.06 -3.72687 -1.8505 0
M  V30 17401 H 1670.93 -4.70269 -2.83087 0
M  V30 17402 H 1671.19 -3.0133 -3.23501 0
M  V30 17403 N 1670.25 0.323614 -1.54242 0
M  V30 17404 C 1671.48 1.08548 -1.76726 0
M  V30 17405 C 1671.9 1.8093 -0.514375 0
M  V30 17406 O 1671.26 1.73255 0.534069 0
M  V30 17407 C 1671.31 2.05928 -2.96017 0
M  V30 17408 O 1670.41 3.13825 -2.67559 0
M  V30 17409 H 1669.75 0.31297 -0.585616 0
M  V30 17410 H 1672.28 0.367925 -2.01265 0
M  V30 17411 H 1672.29 2.48799 -3.23362 0
M  V30 17412 H 1670.97 1.52646 -3.86875 0
M  V30 17413 H 1669.55 2.7563 -2.51163 0
M  V30 17414 N 1671.73 1.46313 0.585673 0
M  V30 17415 C 1672.98 1.5147 1.34399 0
M  V30 17416 C 1673.31 0.165209 1.93797 0
M  V30 17417 O 1672.56 -0.838796 1.76813 0
M  V30 17418 C 1672.86 2.55895 2.49504 0
M  V30 17419 C 1672.53 3.99997 2.08118 0
M  V30 17420 C 1671.19 4.3923 1.96545 0
M  V30 17421 C 1673.54 4.90532 1.76147 0
M  V30 17422 C 1670.87 5.66867 1.51256 0
M  V30 17423 C 1673.22 6.18603 1.32338 0
M  V30 17424 C 1671.88 6.56745 1.1934 0
M  V30 17425 H 1671.15 0.554268 0.491801 0
M  V30 17426 H 1673.8 1.79774 0.659803 0
M  V30 17427 H 1672.11 2.21241 3.23357 0
M  V30 17428 H 1673.8 2.57116 3.07722 0
M  V30 17429 H 1670.39 3.68983 2.18058 0
M  V30 17430 H 1674.58 4.60942 1.83974 0
M  V30 17431 H 1669.83 5.95194 1.39834 0
M  V30 17432 H 1674.01 6.88185 1.06653 0
M  V30 17433 H 1671.63 7.55542 0.840228 0
M  V30 17434 N 1673.21 -0.830057 1.33969 0
M  V30 17435 C 1674.44 -1.61774 1.28984 0
M  V30 17436 C 1674.85 -1.88299 -0.137515 0
M  V30 17437 O 1674.21 -1.46936 -1.0824 0
M  V30 17438 C 1674.26 -2.96282 2.07121 0
M  V30 17439 O 1673.98 -2.70918 3.44289 0
M  V30 17440 C 1675.48 -3.90699 2.09449 0
M  V30 17441 H 1672.7 -0.503088 0.444008 0
M  V30 17442 H 1675.25 -1.03328 1.76475 0
M  V30 17443 H 1673.4 -3.51305 1.63289 0
M  V30 17444 H 1673.82 -3.56635 3.84593 0
M  V30 17445 H 1675.29 -4.82266 2.68558 0
M  V30 17446 H 1675.77 -4.25536 1.08702 0
M  V30 17447 H 1676.37 -3.41614 2.53338 0
M  V30 17448 N 1674.69 -1.17582 -1.04939 0
M  V30 17449 C 1675.65 -0.897095 -2.10914 0
M  V30 17450 C 1676.65 0.113823 -1.60397 0
M  V30 17451 O 1677.84 -0.118635 -1.73796 0
M  V30 17452 C 1674.97 -0.344251 -3.39157 0
M  V30 17453 H 1676.17 -1.83674 -2.37074 0
M  V30 17454 H 1673.72 -0.986634 -1.21224 0
M  V30 17455 H 1674.45 0.602417 -3.18656 0
M  V30 17456 H 1674.24 -1.07287 -3.77137 0
M  V30 17457 H 1675.73 -0.167644 -4.17263 0
M  V30 17458 N 1676.17 1.23705 -0.976463 0
M  V30 17459 C 1677.41 1.92299 -0.64412 0
M  V30 17460 C 1677.74 1.7605 0.819767 0
M  V30 17461 O 1677.02 1.11902 1.59086 0
M  V30 17462 C 1677.3 3.45042 -1.03044 0
M  V30 17463 C 1677.16 3.70418 -2.55167 0
M  V30 17464 C 1678.47 4.36374 -0.571444 0
M  V30 17465 H 1675.59 0.698369 -0.235478 0
M  V30 17466 H 1678.24 1.45904 -1.21704 0
M  V30 17467 H 1676.39 3.84687 -0.54294 0
M  V30 17468 H 1678.06 3.40278 -3.11462 0
M  V30 17469 H 1676.3 3.15266 -2.97976 0
M  V30 17470 H 1676.97 4.77323 -2.77248 0
M  V30 17471 H 1679.45 4.04153 -0.989936 0
M  V30 17472 H 1678.32 5.41958 -0.870226 0
M  V30 17473 H 1678.58 4.38932 0.528318 0
M  V30 17474 N 1677.64 0.747635 1.38738 0
M  V30 17475 C 1678.89 0.300552 1.99853 0
M  V30 17476 C 1679.21 -1.11986 1.59638 0
M  V30 17477 O 1678.48 -1.76477 0.850447 0
M  V30 17478 H 1677.06 0.108134 0.739132 0
M  V30 17479 H 1679.72 0.960405 1.69594 0
M  V30 17480 H 1678.82 0.358956 3.10029 0
M  V30 17481 N 1679.12 -1.49583 0.496242 0
M  V30 17482 C 1680.35 -2.06547 -0.0468437 0
M  V30 17483 C 1680.76 -1.3574 -1.31801 0
M  V30 17484 O 1680.1 -0.427948 -1.78646 0
M  V30 17485 C 1680.16 -3.57532 -0.375622 0
M  V30 17486 C 1679.83 -4.49994 0.797134 0
M  V30 17487 C 1680.83 -4.91793 1.6863 0
M  V30 17488 C 1678.51 -4.92355 0.99459 0
M  V30 17489 C 1680.5 -5.74685 2.7571 0
M  V30 17490 C 1678.19 -5.75024 2.06859 0
M  V30 17491 C 1679.19 -6.16093 2.94819 0
M  V30 17492 O 1678.88 -6.9711 4.00366 0
M  V30 17493 H 1678.61 -0.675832 0.0150901 0
M  V30 17494 H 1681.16 -1.93413 0.691416 0
M  V30 17495 H 1679.39 -3.68658 -1.16741 0
M  V30 17496 H 1681.08 -3.96755 -0.856757 0
M  V30 17497 H 1681.85 -4.59715 1.54554 0
M  V30 17498 H 1677.73 -4.59893 0.31933 0
M  V30 17499 H 1681.27 -6.06661 3.44396 0
M  V30 17500 H 1677.17 -6.06514 2.20931 0
M  V30 17501 H 1677.94 -7.15408 3.9766 0
M  V30 17502 N 1680.6 -0.229873 -1.55915 0
M  V30 17503 C 1681.55 0.690362 -2.17297 0
M  V30 17504 C 1682.53 1.15155 -1.12375 0
M  V30 17505 O 1683.73 1.10416 -1.38338 0
M  V30 17506 C 1680.85 1.89461 -2.86286 0
M  V30 17507 C 1679.94 1.45271 -3.98443 0
M  V30 17508 N 1680.33 0.723932 -5.00593 0
M  V30 17509 C 1678.63 1.73935 -4.10686 0
M  V30 17510 C 1679.33 0.497439 -5.79569 0
M  V30 17511 N 1678.31 1.05662 -5.33232 0
M  V30 17512 H 1682.11 0.12522 -2.93633 0
M  V30 17513 H 1679.62 -0.0314724 -1.6237 0
M  V30 17514 H 1681.62 2.5647 -3.28677 0
M  V30 17515 H 1680.28 2.46414 -2.11448 0
M  V30 17516 H 1681.29 0.375765 -5.16535 0
M  V30 17517 H 1677.97 2.32149 -3.47006 0
M  V30 17518 H 1679.36 -0.0831841 -6.71849 0
M  V30 17519 N 1682.08 1.5754 0.0434337 0
M  V30 17520 C 1683.02 2.0561 1.04848 0
M  V30 17521 C 1683.99 0.942299 1.36784 0
M  V30 17522 O 1685.18 1.21191 1.47368 0
M  V30 17523 C 1682.32 2.52844 2.3487 0
M  V30 17524 C 1681.43 3.77958 2.09218 0
M  V30 17525 C 1680.57 4.13859 3.33007 0
M  V30 17526 C 1679.61 5.31932 3.02845 0
M  V30 17527 N 1678.74 5.63335 4.19045 0
M  V30 17528 H 1683.58 2.9123 0.631591 0
M  V30 17529 H 1681.12 1.44003 0.300258 0
M  V30 17530 H 1683.08 2.78291 3.10822 0
M  V30 17531 H 1681.71 1.70161 2.74308 0
M  V30 17532 H 1680.76 3.59681 1.23828 0
M  V30 17533 H 1682.07 4.64034 1.82958 0
M  V30 17534 H 1681.23 4.40358 4.17336 0
M  V30 17535 H 1679.97 3.26406 3.62368 0
M  V30 17536 H 1678.97 5.052 2.16916 0
M  V30 17537 H 1680.2 6.21027 2.74777 0
M  V30 17538 H 1678.14 4.7884 4.48384 0
M  V30 17539 H 1678.06 6.4389 3.96158 0
M  V30 17540 H 1679.33 5.94402 5.04289 0
M  V30 17541 N 1683.56 -0.31543 1.54411 0
M  V30 17542 C 1684.51 -1.3898 1.80745 0
M  V30 17543 C 1685.49 -1.46567 0.663849 0
M  V30 17544 O 1686.68 -1.50963 0.924084 0
M  V30 17545 C 1683.81 -2.7571 2.04546 0
M  V30 17546 C 1682.9 -2.72403 3.2505 0
M  V30 17547 N 1683.29 -2.38715 4.45925 0
M  V30 17548 C 1681.59 -3.03523 3.26787 0
M  V30 17549 C 1682.29 -2.44346 5.27892 0
M  V30 17550 N 1681.26 -2.81118 4.65268 0
M  V30 17551 H 1685.06 -1.11875 2.71774 0
M  V30 17552 H 1682.58 -0.523951 1.53716 0
M  V30 17553 H 1684.58 -3.53156 2.21554 0
M  V30 17554 H 1683.24 -3.03738 1.14775 0
M  V30 17555 H 1684.25 -2.11419 4.72782 0
M  V30 17556 H 1680.92 -3.3654 2.47076 0
M  V30 17557 H 1682.31 -2.21221 6.34437 0
M  V30 17558 N 1685.03 -1.46622 -0.577906 0
M  V30 17559 C 1686.28 -1.51446 -1.33218 0
M  V30 17560 C 1686.6 -0.17258 -1.94837 0
M  V30 17561 O 1687.8 -0.0986578 -2.71321 0
M  V30 17562 C 1686.26 -2.66876 -2.41465 0
M  V30 17563 C 1685.87 -4.07506 -1.86127 0
M  V30 17564 C 1687.61 -2.80975 -3.18203 0
M  V30 17565 C 1685.52 -5.14268 -2.92031 0
M  V30 17566 H 1684.45 -0.563643 -0.500822 0
M  V30 17567 H 1687.1 -1.72845 -0.616186 0
M  V30 17568 H 1685.48 -2.38816 -3.15884 0
M  V30 17569 H 1686.65 -4.45378 -1.18218 0
M  V30 17570 H 1684.97 -3.98115 -1.2204 0
M  V30 17571 H 1687.57 -3.57906 -3.97249 0
M  V30 17572 H 1687.91 -1.88665 -3.71095 0
M  V30 17573 H 1688.44 -3.08705 -2.50891 0
M  V30 17574 H 1685.18 -6.08386 -2.44021 0
M  V30 17575 H 1684.7 -4.80936 -3.58414 0
M  V30 17576 H 1686.38 -5.40321 -3.55896 0
M  V30 17577 N 1686.51 0.822941 -1.34408 0
M  V30 17578 C 1687.74 1.61087 -1.2984 0
M  V30 17579 C 1688.16 1.88369 0.127527 0
M  V30 17580 O 1687.51 1.47508 1.0746 0
M  V30 17581 C 1687.56 2.9518 -2.08689 0
M  V30 17582 O 1687.28 2.69089 -3.45721 0
M  V30 17583 C 1688.79 3.89583 -2.11518 0
M  V30 17584 H 1686.01 0.500726 -0.44667 0
M  V30 17585 H 1688.55 1.02391 -1.77021 0
M  V30 17586 H 1686.7 3.50434 -1.6515 0
M  V30 17587 H 1687.12 3.5459 -3.86479 0
M  V30 17588 H 1688.59 4.80835 -2.71111 0
M  V30 17589 H 1689.07 4.24953 -1.10957 0
M  V30 17590 H 1689.68 3.40265 -2.55146 0
M  V30 17591 N 1687.99 1.18137 1.04314 0
M  V30 17592 C 1688.92 0.929593 2.14198 0
M  V30 17593 C 1689.9 -0.131766 1.69589 0
M  V30 17594 O 1691.09 0.0203104 1.94189 0
M  V30 17595 C 1688.22 0.451799 3.44349 0
M  V30 17596 C 1687.17 1.45336 4.02569 0
M  V30 17597 C 1686.5 0.833176 5.28169 0
M  V30 17598 C 1687.8 2.8293 4.39031 0
M  V30 17599 H 1689.49 1.84856 2.35518 0
M  V30 17600 H 1687.04 0.890217 1.13186 0
M  V30 17601 H 1688.99 0.26303 4.20578 0
M  V30 17602 H 1687.71 -0.502725 3.22708 0
M  V30 17603 H 1686.37 1.62902 3.28418 0
M  V30 17604 H 1686.02 -0.128459 5.02836 0
M  V30 17605 H 1685.72 1.50185 5.68083 0
M  V30 17606 H 1687.24 0.654881 6.07078 0
M  V30 17607 H 1688.66 2.6903 5.06257 0
M  V30 17608 H 1687.06 3.46458 4.89987 0
M  V30 17609 H 1688.13 3.3667 3.48972 0
M  V30 17610 N 1689.47 -1.23186 0.98301 0
M  V30 17611 C 1690.72 -1.90979 0.648851 0
M  V30 17612 C 1691.03 -1.77508 -0.82159 0
M  V30 17613 O 1692.24 -2.40128 -1.26692 0
M  V30 17614 C 1690.69 -3.42357 1.10995 0
M  V30 17615 C 1690.3 -3.64483 2.60492 0
M  V30 17616 C 1692.04 -4.1591 0.849653 0
M  V30 17617 C 1689.95 -5.09511 3.00255 0
M  V30 17618 H 1688.88 -0.715125 0.238983 0
M  V30 17619 H 1691.53 -1.39575 1.19126 0
M  V30 17620 H 1689.91 -3.92885 0.495735 0
M  V30 17621 H 1691.09 -3.24491 3.27173 0
M  V30 17622 H 1689.4 -3.04245 2.84296 0
M  V30 17623 H 1692 -5.22784 1.12256 0
M  V30 17624 H 1692.34 -4.15748 -0.214237 0
M  V30 17625 H 1692.88 -3.71379 1.42557 0
M  V30 17626 H 1689.62 -5.14805 4.05778 0
M  V30 17627 H 1689.14 -5.50443 2.38269 0
M  V30 17628 H 1690.81 -5.77862 2.91005 0
M  V30 17629 N 1690.95 -0.754982 -1.38339 0
M  V30 17630 C 1692.19 -0.311762 -2.00086 0
M  V30 17631 C 1692.52 1.10693 -1.59929 0
M  V30 17632 O 1691.78 1.77279 -0.8289 0
M  V30 17633 C 1692.08 -0.383719 -3.55334 0
M  V30 17634 C 1691.74 -1.75826 -4.15206 0
M  V30 17635 C 1690.4 -2.13443 -4.31272 0
M  V30 17636 C 1692.76 -2.65985 -4.4822 0
M  V30 17637 C 1690.08 -3.40689 -4.77649 0
M  V30 17638 C 1692.44 -3.92623 -4.96014 0
M  V30 17639 C 1691.1 -4.30307 -5.10286 0
M  V30 17640 H 1690.37 -0.114082 -0.732166 0
M  V30 17641 H 1693.02 -0.965735 -1.65366 0
M  V30 17642 H 1691.32 0.353817 -3.90199 0
M  V30 17643 H 1693.02 -0.022341 -4.00994 0
M  V30 17644 H 1689.61 -1.45585 -4.03117 0
M  V30 17645 H 1693.79 -2.38188 -4.35408 0
M  V30 17646 H 1689.05 -3.69802 -4.86884 0
M  V30 17647 H 1693.22 -4.62626 -5.20529 0
M  V30 17648 H 1690.85 -5.28968 -5.45982 0
M  V30 17649 N 1692.42 1.49318 -0.504168 0
M  V30 17650 C 1693.37 2.30832 0.286237 0
M  V30 17651 C 1694.37 1.39585 0.959818 0
M  V30 17652 O 1695.57 1.5662 0.887146 0
M  V30 17653 H 1691.95 0.743738 0.111167 0
M  V30 17654 H 1693.92 2.95412 -0.421206 0
M  V30 17655 C 1692.67 3.2101 1.33596 0
M  V30 17656 H 1691.99 3.91152 0.827057 0
M  V30 17657 H 1693.43 3.8098 1.86093 0
M  V30 17658 C 1691.89 2.40836 2.35583 0
M  V30 17659 O 1692.42 2.11476 3.41527 0
M  V30 17660 N 1690.63 2.02802 2.08134 0
M  V30 17661 H 1690.17 2.26879 1.21999 0
M  V30 17662 H 1690.13 1.49467 2.76599 0
M  V30 17663 N 1693.9 0.238138 1.5579 0
M  V30 17664 C 1695.31 -0.266656 1.84786 0
M  V30 17665 C 1695.66 -1.58248 1.15983 0
M  V30 17666 O 1694.79 -2.11979 0.43518 0
M  V30 17667 C 1695.38 -0.4906 3.35229 0
M  V30 17668 C 1693.94 -0.939672 3.64482 0
M  V30 17669 C 1693.09 -0.0119682 2.77297 0
M  V30 17670 H 1696.04 0.460924 1.51859 0
M  V30 17671 H 1696.06 -1.3344 3.56334 0
M  V30 17672 H 1695.57 0.467239 3.85277 0
M  V30 17673 H 1693.68 -1.91029 3.19904 0
M  V30 17674 H 1693.79 -0.8026 4.72329 0
M  V30 17675 H 1692.15 -0.521767 2.49298 0
M  V30 17676 H 1692.94 0.941085 3.30149 0
M  V30 17677 N 1695.38 -1.57561 -0.0350783 0
M  V30 17678 C 1696.61 -1.93251 -0.73903 0
M  V30 17679 C 1697.02 -0.83739 -1.69214 0
M  V30 17680 O 1696.38 0.186669 -1.81543 0
M  V30 17681 C 1696.43 -3.28853 -1.50127 0
M  V30 17682 O 1696.15 -4.34157 -0.586426 0
M  V30 17683 C 1697.65 -3.78788 -2.30292 0
M  V30 17684 H 1694.87 -0.63793 -0.208053 0
M  V30 17685 H 1697.42 -2.04499 0.00560398 0
M  V30 17686 H 1695.57 -3.1902 -2.19784 0
M  V30 17687 H 1695.99 -5.12395 -1.12034 0
M  V30 17688 H 1697.46 -4.76197 -2.79178 0
M  V30 17689 H 1697.94 -3.09671 -3.11449 0
M  V30 17690 H 1698.54 -3.91684 -1.65721 0
M  V30 17691 N 1696.86 0.307236 -1.54576 0
M  V30 17692 C 1698.27 0.652539 -1.45651 0
M  V30 17693 C 1698.47 1.90978 -0.64263 0
M  V30 17694 O 1697.53 2.52067 -0.147863 0
M  V30 17695 C 1698.84 0.811341 -2.89547 0
M  V30 17696 C 1700.39 0.90763 -2.99551 0
M  V30 17697 C 1700.87 1.09848 -4.44632 0
M  V30 17698 N 1702.36 1.16483 -4.48315 0
M  V30 17699 C 1703.09 1.33068 -5.57746 0
M  V30 17700 N 1702.59 1.46591 -6.77114 0
M  V30 17701 N 1704.38 1.35906 -5.45423 0
M  V30 17702 H 1696.53 -0.518891 -2.05964 0
M  V30 17703 H 1698.8 -0.170463 -0.932548 0
M  V30 17704 H 1698.5 -0.0414879 -3.51676 0
M  V30 17705 H 1698.38 1.70224 -3.36606 0
M  V30 17706 H 1700.76 1.75095 -2.37541 0
M  V30 17707 H 1700.84 -0.00715386 -2.55799 0
M  V30 17708 H 1700.49 0.259948 -5.07234 0
M  V30 17709 H 1700.42 2.02739 -4.86009 0
M  V30 17710 H 1702.91 1.07411 -3.62314 0
M  V30 17711 H 1703.22 1.58983 -7.5627 0
M  V30 17712 H 1701.57 1.43658 -6.79991 0
M  V30 17713 H 1704.76 1.24949 -4.51116 0
M  V30 17714 H 1704.93 1.48489 -6.30758 0
M  V30 17715 N 1698.34 1.46926 0.570122 0
M  V30 17716 C 1699.28 1.58442 1.67824 0
M  V30 17717 C 1700.25 0.428053 1.6049 0
M  V30 17718 O 1701.44 0.646445 1.79515 0
M  V30 17719 C 1698.58 1.59253 3.06158 0
M  V30 17720 C 1697.69 2.85714 3.24024 0
M  V30 17721 C 1696.83 2.77945 4.52681 0
M  V30 17722 C 1695.87 3.99289 4.63934 0
M  V30 17723 N 1695 3.89833 5.83931 0
M  V30 17724 H 1699.84 2.5309 1.5732 0
M  V30 17725 H 1697.38 1.25549 0.766548 0
M  V30 17726 H 1699.34 1.57707 3.86244 0
M  V30 17727 H 1697.97 0.68127 3.15529 0
M  V30 17728 H 1697.02 2.97184 2.37458 0
M  V30 17729 H 1698.33 3.7561 3.28206 0
M  V30 17730 H 1697.49 2.74576 5.41011 0
M  V30 17731 H 1696.22 1.85711 4.50958 0
M  V30 17732 H 1695.23 4.02976 3.74019 0
M  V30 17733 H 1696.45 4.92635 4.67427 0
M  V30 17734 H 1694.4 3.00393 5.83181 0
M  V30 17735 H 1694.32 4.73395 5.89434 0
M  V30 17736 H 1695.59 3.90459 6.74657 0
M  V30 17737 N 1699.82 -0.815801 1.34842 0
M  V30 17738 C 1700.75 -1.94193 1.29659 0
M  V30 17739 C 1701.73 -1.69221 0.172703 0
M  V30 17740 O 1702.91 -1.90716 0.366203 0
M  V30 17741 C 1700.04 -3.30777 1.0585 0
M  V30 17742 C 1699 -3.70207 2.1478 0
M  V30 17743 C 1698.32 -5.04852 1.76149 0
M  V30 17744 C 1699.62 -3.81553 3.56671 0
M  V30 17745 H 1701.32 -1.98787 2.23884 0
M  V30 17746 H 1698.86 -0.955013 1.07775 0
M  V30 17747 H 1700.81 -4.0915 1.00866 0
M  V30 17748 H 1699.54 -3.265 0.0806804 0
M  V30 17749 H 1698.2 -2.94113 2.18845 0
M  V30 17750 H 1697.85 -4.9707 0.770099 0
M  V30 17751 H 1697.55 -5.32205 2.49062 0
M  V30 17752 H 1699.07 -5.85676 1.72674 0
M  V30 17753 H 1700.48 -4.50181 3.54979 0
M  V30 17754 H 1698.88 -4.20367 4.28266 0
M  V30 17755 H 1699.95 -2.83356 3.93494 0
M  V30 17756 N 1701.29 -1.18689 -1.03686 0
M  V30 17757 C 1702.7 -0.988182 -1.58404 0
M  V30 17758 C 1703.06 0.461107 -1.90705 0
M  V30 17759 O 1702.18 1.33912 -1.6999 0
M  V30 17760 C 1702.78 -1.78748 -2.8781 0
M  V30 17761 C 1701.33 -1.63301 -3.39131 0
M  V30 17762 C 1700.48 -1.77954 -2.12668 0
M  V30 17763 H 1703.43 -1.33177 -0.863112 0
M  V30 17764 H 1703.45 -1.27882 -3.58366 0
M  V30 17765 H 1702.97 -2.84224 -2.6427 0
M  V30 17766 H 1701.07 -0.603777 -3.67676 0
M  V30 17767 H 1701.18 -2.43342 -4.127 0
M  V30 17768 H 1699.54 -1.20937 -2.24157 0
M  V30 17769 H 1700.33 -2.84873 -1.91579 0
M  V30 17770 N 1702.77 1.22662 -0.989529 0
M  V30 17771 C 1703.68 2.28162 -0.545835 0
M  V30 17772 C 1704.7 1.69251 0.403762 0
M  V30 17773 O 1705.87 1.99563 0.271428 0
M  V30 17774 C 1702.94 3.46434 0.135808 0
M  V30 17775 C 1702 4.20673 -0.85633 0
M  V30 17776 C 1701.23 5.33298 -0.207121 0
M  V30 17777 O 1701.46 5.6157 0.99975 0
M  V30 17778 O 1700.39 5.94977 -0.910288 0
M  V30 17779 H 1704.22 2.68276 -1.42344 0
M  V30 17780 H 1701.8 1.28766 -0.757609 0
M  V30 17781 H 1703.68 4.18207 0.517776 0
M  V30 17782 H 1702.36 3.08252 0.988035 0
M  V30 17783 H 1701.26 3.51186 -1.28917 0
M  V30 17784 H 1702.6 4.62726 -1.67765 0
M  V30 17785 N 1704.25 0.762308 1.37937 0
M  V30 17786 C 1705.18 0.100528 2.28979 0
M  V30 17787 C 1706.19 -0.674409 1.48174 0
M  V30 17788 O 1707.38 -0.514059 1.70938 0
M  V30 17789 C 1704.48 -0.881478 3.27236 0
M  V30 17790 C 1703.66 -0.162349 4.37099 0
M  V30 17791 C 1702.72 -1.05636 5.15488 0
M  V30 17792 O 1701.74 -0.523636 5.66786 0
M  V30 17793 N 1702.94 -2.3836 5.29306 0
M  V30 17794 H 1705.71 0.882451 2.86414 0
M  V30 17795 H 1703.27 0.613839 1.49812 0
M  V30 17796 H 1705.26 -1.48278 3.76558 0
M  V30 17797 H 1703.83 -1.56443 2.70637 0
M  V30 17798 H 1703.05 0.61976 3.89298 0
M  V30 17799 H 1704.34 0.334928 5.07696 0
M  V30 17800 H 1703.74 -2.84087 4.89194 0
M  V30 17801 H 1702.29 -2.9352 5.8197 0
M  V30 17802 N 1705.73 -1.49049 0.51208 0
M  V30 17803 C 1707 -1.95383 -0.0920331 0
M  V30 17804 C 1707.38 -1.4539 -1.53053 0
M  V30 17805 O 1706.73 -0.672485 -2.1838 0
M  V30 17806 C 1706.94 -3.48999 0.00673901 0
M  V30 17807 C 1708.29 -4.24292 -0.161602 0
M  V30 17808 O 1709.31 -3.56135 -0.0679198 0
M  V30 17809 O 1708.17 -5.45343 -0.355351 0
M  V30 17810 H 1705.27 -0.822175 -0.0891992 0
M  V30 17811 H 1707.81 -1.59647 0.575406 0
M  V30 17812 H 1706.59 -3.78055 1.00948 0
M  V30 17813 H 1706.21 -3.91383 -0.700353 0
M  V30 17814 N 1707.21 -0.246397 -1.55662 0
M  V30 17815 C 1708.45 0.378973 -1.98108 0
M  V30 17816 C 1708.77 1.59106 -1.13775 0
M  V30 17817 O 1709.97 2.28754 -1.46232 0
M  V30 17818 C 1708.43 0.725634 -3.52509 0
M  V30 17819 C 1708.04 -0.465024 -4.4558 0
M  V30 17820 C 1709.78 1.31522 -4.03611 0
M  V30 17821 C 1707.69 -0.0945447 -5.91324 0
M  V30 17822 H 1706.62 0.14537 -0.739854 0
M  V30 17823 H 1709.27 -0.346533 -1.80198 0
M  V30 17824 H 1707.65 1.50925 -3.66111 0
M  V30 17825 H 1708.83 -1.24236 -4.43736 0
M  V30 17826 H 1707.14 -0.969507 -4.04956 0
M  V30 17827 H 1709.74 1.60573 -5.1002 0
M  V30 17828 H 1710.08 2.23952 -3.50929 0
M  V30 17829 H 1710.61 0.594515 -3.93332 0
M  V30 17830 H 1707.35 -0.985965 -6.48042 0
M  V30 17831 H 1706.87 0.646601 -5.96305 0
M  V30 17832 H 1708.55 0.323447 -6.46191 0
M  V30 17833 N 1708.68 1.57577 0.026722 0
M  V30 17834 C 1709.65 2.05684 1.01127 0
M  V30 17835 C 1710.65 0.961373 1.28896 0
M  V30 17836 O 1711.84 1.22491 1.23861 0
M  V30 17837 C 1708.97 2.47576 2.34348 0
M  V30 17838 H 1710.16 2.93925 0.595681 0
M  V30 17839 H 1707.71 1.53887 0.273603 0
M  V30 17840 H 1708.45 1.62498 2.80651 0
M  V30 17841 H 1708.23 3.27556 2.15521 0
M  V30 17842 H 1709.72 2.85214 3.05029 0
M  V30 17843 N 1710.16 -0.299034 1.54737 0
M  V30 17844 C 1711.09 -1.39055 1.82199 0
M  V30 17845 C 1712.11 -1.46741 0.705038 0
M  V30 17846 O 1713.3 -1.49025 0.982543 0
M  V30 17847 C 1710.4 -2.7741 1.94671 0
M  V30 17848 C 1709.57 -2.92633 3.25092 0
M  V30 17849 C 1708.63 -4.11499 3.27956 0
M  V30 17850 O 1707.65 -4.03491 4.01477 0
M  V30 17851 N 1708.86 -5.2223 2.53488 0
M  V30 17852 H 1711.62 -1.15852 2.76402 0
M  V30 17853 H 1709.18 -0.489108 1.54335 0
M  V30 17854 H 1711.17 -3.55178 1.93987 0
M  V30 17855 H 1709.74 -2.93552 1.07453 0
M  V30 17856 H 1708.96 -2.01962 3.38534 0
M  V30 17857 H 1710.25 -2.99716 4.11154 0
M  V30 17858 H 1709.65 -5.31617 1.93391 0
M  V30 17859 H 1708.21 -5.98325 2.58555 0
M  V30 17860 N 1711.64 -1.47227 -0.562322 0
M  V30 17861 C 1712.89 -1.53286 -1.31712 0
M  V30 17862 C 1713.21 -0.194583 -1.94027 0
M  V30 17863 O 1712.48 0.780961 -1.7966 0
M  V30 17864 H 1711.06 -0.564621 -0.489094 0
M  V30 17865 H 1713.72 -1.83492 -0.657024 0
M  V30 17866 H 1712.82 -2.29665 -2.1133 0
M  V30 17867 N 1713.12 0.808639 -1.35273 0
M  V30 17868 C 1714.34 1.60219 -1.31699 0
M  V30 17869 C 1714.77 1.87816 0.103386 0
M  V30 17870 O 1714.13 1.46389 1.06957 0
M  V30 17871 C 1714.17 2.9116 -2.12739 0
M  V30 17872 O 1713.28 3.83891 -1.5067 0
M  V30 17873 H 1712.62 0.486742 -0.45164 0
M  V30 17874 H 1715.15 1.00378 -1.78284 0
M  V30 17875 H 1715.16 3.40602 -2.2462 0
M  V30 17876 H 1713.83 2.70399 -3.16002 0
M  V30 17877 H 1712.41 3.42437 -1.47618 0
M  V30 17878 N 1714.6 1.19237 1.03055 0
M  V30 17879 C 1715.83 1.01769 1.79796 0
M  V30 17880 C 1716.23 -0.436738 1.8409 0
M  V30 17881 O 1715.58 -1.31514 1.28257 0
M  V30 17882 C 1715.64 1.50866 3.26312 0
M  V30 17883 C 1715.3 2.98949 3.45657 0
M  V30 17884 C 1716.3 3.96725 3.36014 0
M  V30 17885 C 1713.99 3.37605 3.71925 0
M  V30 17886 C 1715.98 5.31151 3.5236 0
M  V30 17887 C 1713.67 4.7219 3.87918 0
M  V30 17888 C 1714.66 5.68772 3.78137 0
M  V30 17889 O 1714.35 7.00919 3.9366 0
M  V30 17890 H 1714.08 0.359119 0.572721 0
M  V30 17891 H 1716.64 1.58449 1.30702 0
M  V30 17892 H 1714.87 0.885599 3.76423 0
M  V30 17893 H 1716.56 1.29633 3.84643 0
M  V30 17894 H 1717.32 3.68206 3.15672 0
M  V30 17895 H 1713.2 2.62982 3.78631 0
M  V30 17896 H 1716.75 6.06521 3.44643 0
M  V30 17897 H 1712.64 5.00405 4.07756 0
M  V30 17898 H 1713.41 7.07968 4.10761 0
M  V30 17899 N 1716.07 -1.22136 0.99602 0
M  V30 17900 C 1717.32 -1.9028 0.66907 0
M  V30 17901 C 1717.64 -1.7837 -0.802717 0
M  V30 17902 O 1718.84 -2.41458 -1.24138 0
M  V30 17903 C 1717.3 -3.4116 1.1462 0
M  V30 17904 C 1716.91 -3.617 2.64343 0
M  V30 17905 C 1718.65 -4.14985 0.893718 0
M  V30 17906 C 1716.56 -5.06297 3.05642 0
M  V30 17907 H 1715.49 -0.71255 0.246554 0
M  V30 17908 H 1718.14 -1.38304 1.20599 0
M  V30 17909 H 1716.52 -3.92337 0.537378 0
M  V30 17910 H 1717.69 -3.21002 3.30597 0
M  V30 17911 H 1716.01 -3.01212 2.87507 0
M  V30 17912 H 1718.61 -5.21564 1.17794 0
M  V30 17913 H 1718.95 -4.15952 -0.17013 0
M  V30 17914 H 1719.48 -3.69846 1.46488 0
M  V30 17915 H 1716.22 -5.10472 4.11216 0
M  V30 17916 H 1715.74 -5.47885 2.44094 0
M  V30 17917 H 1717.42 -5.74743 2.97118 0
M  V30 17918 N 1717.55 -0.769612 -1.37531 0
M  V30 17919 C 1718.52 -0.160716 -2.28636 0
M  V30 17920 C 1719.52 0.630362 -1.47929 0
M  V30 17921 O 1720.71 0.454265 -1.68173 0
M  V30 17922 C 1717.84 0.779904 -3.31859 0
M  V30 17923 H 1719.03 -0.963794 -2.83991 0
M  V30 17924 H 1716.58 -0.537678 -1.46761 0
M  V30 17925 H 1717.32 1.60807 -2.81623 0
M  V30 17926 H 1717.1 0.21485 -3.91511 0
M  V30 17927 H 1718.59 1.20143 -3.99944 0
M  V30 17928 N 1719.03 1.48775 -0.519977 0
M  V30 17929 C 1719.96 2.32292 0.237213 0
M  V30 17930 C 1720.94 1.4146 0.944625 0
M  V30 17931 O 1722.13 1.70355 0.932349 0
M  V30 17932 C 1719.26 3.22426 1.29068 0
M  V30 17933 C 1718.21 4.22204 0.702011 0
M  V30 17934 C 1717.54 5.01403 1.85739 0
M  V30 17935 C 1718.84 5.21321 -0.319626 0
M  V30 17936 H 1720.53 2.95846 -0.459949 0
M  V30 17937 H 1718.08 1.42268 -0.222641 0
M  V30 17938 H 1720.03 3.79674 1.82826 0
M  V30 17939 H 1718.75 2.56853 2.01728 0
M  V30 17940 H 1717.41 3.66128 0.186027 0
M  V30 17941 H 1717.06 4.32262 2.57214 0
M  V30 17942 H 1716.76 5.68929 1.46949 0
M  V30 17943 H 1718.28 5.615 2.39895 0
M  V30 17944 H 1719.7 5.73151 0.130505 0
M  V30 17945 H 1718.1 5.96843 -0.624377 0
M  V30 17946 H 1719.17 4.69069 -1.22893 0
M  V30 17947 N 1720.51 0.254649 1.55529 0
M  V30 17948 C 1721.92 -0.247042 1.85058 0
M  V30 17949 C 1722.27 -1.57009 1.17655 0
M  V30 17950 O 1721.4 -2.11506 0.457638 0
M  V30 17951 C 1721.99 -0.455017 3.35731 0
M  V30 17952 C 1720.55 -0.900961 3.65458 0
M  V30 17953 C 1719.7 0.0174436 2.77295 0
M  V30 17954 H 1722.65 0.477005 1.51362 0
M  V30 17955 H 1722.67 -1.29654 3.57729 0
M  V30 17956 H 1722.18 0.508076 3.8476 0
M  V30 17957 H 1720.28 -1.87625 3.21913 0
M  V30 17958 H 1720.39 -0.752458 4.73154 0
M  V30 17959 H 1718.76 -0.495296 2.49838 0
M  V30 17960 H 1719.54 0.976049 3.29132 0
M  V30 17961 N 1721.99 -1.57589 -0.0183649 0
M  V30 17962 C 1722.92 -2.1029 -1.01492 0
M  V30 17963 C 1723.9 -1.00782 -1.37029 0
M  V30 17964 O 1725.08 -1.28365 -1.45726 0
M  V30 17965 C 1722.21 -2.59111 -2.31255 0
M  V30 17966 C 1721.17 -3.72979 -2.0993 0
M  V30 17967 C 1720.49 -4.08046 -3.45547 0
M  V30 17968 C 1721.79 -5.00988 -1.47677 0
M  V30 17969 H 1723.49 -2.93804 -0.57618 0
M  V30 17970 H 1721.03 -1.41336 -0.275708 0
M  V30 17971 H 1722.99 -2.94602 -3.0131 0
M  V30 17972 H 1721.71 -1.72694 -2.77208 0
M  V30 17973 H 1720.37 -3.37853 -1.42306 0
M  V30 17974 H 1720.02 -3.1868 -3.89169 0
M  V30 17975 H 1719.72 -4.8475 -3.32101 0
M  V30 17976 H 1721.24 -4.46081 -4.16947 0
M  V30 17977 H 1722.65 -5.34368 -2.07663 0
M  V30 17978 H 1721.05 -5.82375 -1.44774 0
M  V30 17979 H 1722.12 -4.82865 -0.443804 0
M  V30 17980 N 1723.46 0.290824 -1.54893 0
M  V30 17981 C 1724.69 1.04344 -1.78661 0
M  V30 17982 C 1725.11 1.80578 -0.551083 0
M  V30 17983 O 1724.46 1.76091 0.479394 0
M  V30 17984 C 1724.52 2.01604 -3.00064 0
M  V30 17985 O 1724.24 1.28461 -4.18843 0
M  V30 17986 C 1725.74 2.88822 -3.36298 0
M  V30 17987 H 1722.96 0.309018 -0.595608 0
M  V30 17988 H 1725.5 0.327011 -2.01868 0
M  V30 17989 H 1723.66 2.68735 -2.79035 0
M  V30 17990 H 1724.07 1.93864 -4.87357 0
M  V30 17991 H 1725.54 3.52898 -4.24461 0
M  V30 17992 H 1726.02 3.5766 -2.54904 0
M  V30 17993 H 1726.63 2.27208 -3.59523 0
M  V30 17994 N 1724.94 1.47523 0.554506 0
M  V30 17995 C 1725.87 1.63093 1.67102 0
M  V30 17996 C 1726.85 0.480298 1.63178 0
M  V30 17997 O 1728.04 0.709956 1.80757 0
M  V30 17998 C 1725.17 1.64751 3.05736 0
M  V30 17999 C 1724.12 2.79068 3.24507 0
M  V30 18000 C 1723.45 2.65801 4.63955 0
M  V30 18001 C 1724.75 4.20631 3.09623 0
M  V30 18002 H 1726.44 2.56561 1.54328 0
M  V30 18003 H 1723.99 1.2347 0.741023 0
M  V30 18004 H 1725.94 1.74234 3.83693 0
M  V30 18005 H 1724.67 0.678453 3.19475 0
M  V30 18006 H 1723.32 2.691 2.48959 0
M  V30 18007 H 1722.97 1.66917 4.74497 0
M  V30 18008 H 1722.67 3.42494 4.77464 0
M  V30 18009 H 1724.2 2.77216 5.44044 0
M  V30 18010 H 1725.61 4.31562 3.77396 0
M  V30 18011 H 1724.01 4.98133 3.3464 0
M  V30 18012 H 1725.08 4.38809 2.06336 0
M  V30 18013 N 1726.42 -0.801453 1.357 0
M  V30 18014 C 1727.35 -1.92807 1.31711 0
M  V30 18015 C 1728.33 -1.69028 0.190642 0
M  V30 18016 O 1729.52 -1.90317 0.38641 0
M  V30 18017 C 1726.65 -3.29635 1.09352 0
M  V30 18018 C 1725.6 -3.67908 2.18695 0
M  V30 18019 C 1724.93 -5.02955 1.81494 0
M  V30 18020 C 1726.23 -3.77749 3.60698 0
M  V30 18021 H 1727.92 -1.96401 2.2598 0
M  V30 18022 H 1725.47 -0.943528 1.08782 0
M  V30 18023 H 1727.42 -4.08058 1.052 0
M  V30 18024 H 1726.14 -3.26396 0.115306 0
M  V30 18025 H 1724.8 -2.91775 2.21952 0
M  V30 18026 H 1724.45 -4.96225 0.822776 0
M  V30 18027 H 1724.15 -5.29533 2.54692 0
M  V30 18028 H 1725.67 -5.83811 1.78876 0
M  V30 18029 H 1727.09 -4.4639 3.59734 0
M  V30 18030 H 1725.49 -4.15801 4.327 0
M  V30 18031 H 1726.56 -2.79167 3.96477 0
M  V30 18032 N 1727.9 -1.19782 -1.02421 0
M  V30 18033 C 1729.14 -1.0048 -1.76158 0
M  V30 18034 C 1729.48 0.46281 -1.88605 0
M  V30 18035 O 1728.75 1.34366 -1.40628 0
M  V30 18036 C 1729.04 -1.67999 -3.1851 0
M  V30 18037 C 1728.89 -3.22155 -3.13905 0
M  V30 18038 C 1730.21 -1.40681 -4.17009 0
M  V30 18039 H 1727.33 -0.366436 -0.639448 0
M  V30 18040 H 1729.97 -1.47688 -1.19534 0
M  V30 18041 H 1728.12 -1.27862 -3.66856 0
M  V30 18042 H 1729.79 -3.71536 -2.7342 0
M  V30 18043 H 1728.03 -3.53456 -2.51498 0
M  V30 18044 H 1728.7 -3.64548 -4.14498 0
M  V30 18045 H 1731.18 -1.75488 -3.77284 0
M  V30 18046 H 1730.06 -1.90467 -5.14795 0
M  V30 18047 H 1730.32 -0.332889 -4.40845 0
M  V30 18048 N 1729.38 1.21606 -1.00248 0
M  V30 18049 C 1730.31 2.26159 -0.580911 0
M  V30 18050 C 1731.29 1.65402 0.397017 0
M  V30 18051 O 1732.47 1.92089 0.285552 0
M  V30 18052 C 1729.6 3.47168 0.0957564 0
M  V30 18053 C 1728.56 4.20425 -0.801695 0
M  V30 18054 C 1727.88 5.34699 0.00842241 0
M  V30 18055 C 1729.18 4.78086 -2.10311 0
M  V30 18056 H 1730.88 2.61675 -1.45487 0
M  V30 18057 H 1728.42 1.25786 -0.700995 0
M  V30 18058 H 1730.38 4.19477 0.402141 0
M  V30 18059 H 1729.1 3.10775 1.00433 0
M  V30 18060 H 1727.76 3.49963 -1.09187 0
M  V30 18061 H 1727.41 4.94548 0.918206 0
M  V30 18062 H 1727.11 5.84639 -0.589105 0
M  V30 18063 H 1728.63 6.09819 0.30868 0
M  V30 18064 H 1730.05 5.42287 -1.86004 0
M  V30 18065 H 1728.44 5.38405 -2.65028 0
M  V30 18066 H 1729.51 3.97607 -2.77555 0
M  V30 18067 N 1730.86 0.776895 1.37121 0
M  V30 18068 C 1731.79 0.180738 2.32799 0
M  V30 18069 C 1732.77 -0.677284 1.56035 0
M  V30 18070 O 1733.95 -0.613687 1.84249 0
M  V30 18071 C 1731.08 -0.695148 3.40272 0
M  V30 18072 C 1730.04 0.0619772 4.27955 0
M  V30 18073 C 1729.36 -0.933688 5.26485 0
M  V30 18074 C 1730.66 1.24396 5.0727 0
M  V30 18075 H 1732.36 0.980039 2.82906 0
M  V30 18076 H 1729.9 0.472722 1.3602 0
M  V30 18077 H 1731.85 -1.12205 4.06187 0
M  V30 18078 H 1730.58 -1.52702 2.88703 0
M  V30 18079 H 1729.24 0.469717 3.63578 0
M  V30 18080 H 1728.89 -1.76025 4.71194 0
M  V30 18081 H 1728.59 -0.431608 5.86013 0
M  V30 18082 H 1730.11 -1.35942 5.95275 0
M  V30 18083 H 1731.52 0.89345 5.66295 0
M  V30 18084 H 1729.92 1.67848 5.76149 0
M  V30 18085 H 1730.99 2.04553 4.39643 0
M  V30 18086 N 1732.33 -1.48497 0.527859 0
M  V30 18087 C 1733.3 -2.2809 -0.225312 0
M  V30 18088 C 1734.3 -1.35251 -0.869707 0
M  V30 18089 O 1735.49 -1.58163 -0.730086 0
M  V30 18090 C 1732.62 -3.14061 -1.32584 0
M  V30 18091 H 1733.81 -2.96139 0.473465 0
M  V30 18092 H 1731.36 -1.53703 0.283724 0
M  V30 18093 H 1732.1 -2.50638 -2.05794 0
M  V30 18094 H 1731.88 -3.82351 -0.868922 0
M  V30 18095 H 1733.37 -3.74106 -1.85566 0
M  V30 18096 N 1733.81 -0.262893 -1.55392 0
M  V30 18097 C 1735.06 0.35666 -1.98928 0
M  V30 18098 C 1735.38 1.5729 -1.1526 0
M  V30 18099 O 1734.65 1.94435 -0.239164 0
M  V30 18100 H 1733.23 0.134768 -0.734742 0
M  V30 18101 H 1735.89 -0.365394 -1.91444 0
M  V30 18102 H 1734.99 0.654895 -3.05152 0
M  V30 18103 N 1735.29 1.57597 0.0100073 0
M  V30 18104 C 1736.52 1.9412 0.707165 0
M  V30 18105 C 1736.93 0.862669 1.68388 0
M  V30 18106 O 1736.27 -0.167949 1.82931 0
M  V30 18107 C 1736.33 3.26571 1.50306 0
M  V30 18108 C 1736 4.51776 0.689031 0
M  V30 18109 C 1736.99 5.19897 -0.018977 0
M  V30 18110 C 1734.68 4.98232 0.637951 0
M  V30 18111 C 1736.67 6.32766 -0.76716 0
M  V30 18112 C 1734.36 6.10994 -0.113964 0
M  V30 18113 C 1735.36 6.78117 -0.815262 0
M  V30 18114 O 1735.05 7.88719 -1.55493 0
M  V30 18115 H 1734.78 0.644932 0.202579 0
M  V30 18116 H 1737.33 2.05372 -0.0341978 0
M  V30 18117 H 1735.56 3.11699 2.28868 0
M  V30 18118 H 1737.25 3.4828 2.08461 0
M  V30 18119 H 1738.02 4.84999 0.0113968 0
M  V30 18120 H 1733.9 4.45818 1.17333 0
M  V30 18121 H 1737.44 6.85092 -1.31508 0
M  V30 18122 H 1733.34 6.45334 -0.146194 0
M  V30 18123 H 1734.1 8.05181 -1.47059 0
M  V30 18124 N 1736.77 -0.282606 1.55045 0
M  V30 18125 C 1737.72 -1.36902 1.88044 0
M  V30 18126 C 1738.71 -1.51603 0.755845 0
M  V30 18127 O 1739.92 -1.53501 0.940074 0
M  V30 18128 H 1736.29 -0.457666 0.596696 0
M  V30 18129 H 1738.26 -1.06317 2.78818 0
M  V30 18130 C 1737.01 -2.72426 2.16054 0
M  V30 18131 H 1736.33 -2.61903 3.02071 0
M  V30 18132 H 1737.77 -3.47409 2.43071 0
M  V30 18133 C 1736.23 -3.22784 0.964996 0
M  V30 18134 O 1736.76 -4.01228 0.194759 0
M  V30 18135 N 1734.97 -2.80341 0.765322 0
M  V30 18136 H 1734.52 -2.16665 1.39335 0
M  V30 18137 H 1734.47 -3.14383 -0.0330026 0
M  V30 18138 N 1738.25 -1.47815 -0.546675 0
M  V30 18139 C 1739.2 -1.57497 -1.6486 0
M  V30 18140 C 1740.18 -0.433138 -1.5496 0
M  V30 18141 O 1741.37 -0.683657 -1.63264 0
M  V30 18142 C 1738.5 -1.60219 -3.03619 0
M  V30 18143 C 1737.59 -2.79823 -3.18684 0
M  V30 18144 N 1737.98 -4.04416 -3.03778 0
M  V30 18145 C 1736.28 -2.76806 -3.49707 0
M  V30 18146 C 1736.98 -4.84573 -3.21814 0
M  V30 18147 N 1735.95 -4.17083 -3.4863 0
M  V30 18148 H 1739.75 -2.5159 -1.5192 0
M  V30 18149 H 1737.27 -1.43955 -0.751711 0
M  V30 18150 H 1739.27 -1.65246 -3.82752 0
M  V30 18151 H 1737.93 -0.672293 -3.17664 0
M  V30 18152 H 1738.94 -4.35114 -2.80885 0
M  V30 18153 H 1735.61 -1.93 -3.70213 0
M  V30 18154 H 1737 -5.93396 -3.15168 0
M  V30 18155 N 1739.72 0.794246 -1.36123 0
M  V30 18156 C 1741 1.53967 -1.20638 0
M  V30 18157 C 1741.38 2.10058 0.209456 0
M  V30 18158 O 1740.73 1.93551 1.2145 0
M  V30 18159 C 1740.94 2.63844 -2.28445 0
M  V30 18160 C 1742.29 3.31855 -2.64872 0
M  V30 18161 O 1743.31 2.74124 -2.27452 0
M  V30 18162 O 1742.17 4.36177 -3.2926 0
M  V30 18163 H 1739.26 0.68086 -0.469424 0
M  V30 18164 H 1741.81 0.833144 -1.4784 0
M  V30 18165 H 1740.58 2.20357 -3.23355 0
M  V30 18166 H 1740.2 3.42121 -2.02581 0
M  V30 18167 N 1741.2 1.20323 1.01785 0
M  V30 18168 C 1742.15 0.950946 2.10299 0
M  V30 18169 C 1743.12 -0.118376 1.65678 0
M  V30 18170 O 1744.3 0.0260849 1.90782 0
M  V30 18171 C 1741.44 0.507765 3.41344 0
M  V30 18172 C 1740.56 1.6451 3.9945 0
M  V30 18173 C 1739.69 1.15235 5.1855 0
M  V30 18174 C 1738.73 2.26285 5.68737 0
M  V30 18175 N 1737.87 1.78237 6.79099 0
M  V30 18176 H 1742.71 1.87999 2.31215 0
M  V30 18177 H 1740.24 0.937108 1.13387 0
M  V30 18178 H 1742.2 0.232143 4.16554 0
M  V30 18179 H 1740.83 -0.384278 3.20505 0
M  V30 18180 H 1739.88 2.03567 3.21348 0
M  V30 18181 H 1741.2 2.48135 4.32702 0
M  V30 18182 H 1740.35 0.832619 6.0096 0
M  V30 18183 H 1739.09 0.285978 4.86861 0
M  V30 18184 H 1738.09 2.59076 4.84933 0
M  V30 18185 H 1739.32 3.13397 6.02461 0
M  V30 18186 H 1737.27 0.939248 6.49241 0
M  V30 18187 H 1737.18 2.55443 7.11537 0
M  V30 18188 H 1738.45 1.4926 7.65076 0
M  V30 18189 N 1742.68 -1.21073 1.00892 0
M  V30 18190 C 1743.61 -2.25847 0.592897 0
M  V30 18191 C 1744.59 -1.6561 -0.38824 0
M  V30 18192 O 1745.78 -1.92238 -0.275361 0
M  V30 18193 C 1742.91 -3.47214 -0.0773439 0
M  V30 18194 C 1741.86 -4.19994 0.82398 0
M  V30 18195 C 1741.19 -5.34696 0.0199341 0
M  V30 18196 C 1742.49 -4.76964 2.12844 0
M  V30 18197 H 1744.18 -2.609 1.46873 0
M  V30 18198 H 1741.73 -1.25412 0.707656 0
M  V30 18199 H 1743.68 -4.19684 -0.379889 0
M  V30 18200 H 1742.4 -3.11303 -0.987833 0
M  V30 18201 H 1741.06 -3.49379 1.11041 0
M  V30 18202 H 1740.71 -4.95028 -0.891966 0
M  V30 18203 H 1740.41 -5.84319 0.620102 0
M  V30 18204 H 1741.93 -6.09974 -0.276336 0
M  V30 18205 H 1743.35 -5.41293 1.88878 0
M  V30 18206 H 1741.74 -5.36992 2.67879 0
M  V30 18207 H 1742.81 -3.96129 2.79659 0
M  V30 18208 N 1744.16 -0.784156 -1.36707 0
M  V30 18209 C 1745.41 -0.350748 -1.98627 0
M  V30 18210 C 1745.72 1.08208 -1.62943 0
M  V30 18211 O 1746.93 1.6175 -2.18058 0
M  V30 18212 C 1745.38 -0.576173 -3.55258 0
M  V30 18213 C 1744.99 -2.02008 -3.99871 0
M  V30 18214 C 1746.73 -0.207008 -4.23995 0
M  V30 18215 C 1744.64 -2.19244 -5.4926 0
M  V30 18216 H 1743.57 -0.127403 -0.743158 0
M  V30 18217 H 1746.22 -0.965044 -1.56074 0
M  V30 18218 H 1744.6 0.10776 -3.95853 0
M  V30 18219 H 1745.78 -2.73998 -3.70489 0
M  V30 18220 H 1744.09 -2.34699 -3.43955 0
M  V30 18221 H 1746.69 -0.314139 -5.33776 0
M  V30 18222 H 1747.03 0.844253 -4.07649 0
M  V30 18223 H 1747.57 -0.843971 -3.88744 0
M  V30 18224 H 1744.31 -3.22734 -5.70546 0
M  V30 18225 H 1743.83 -1.51752 -5.80286 0
M  V30 18226 H 1745.5 -1.99703 -6.15408 0
M  V30 18227 N 1745.64 1.48215 -0.535727 0
M  V30 18228 C 1747.05 1.86449 -0.0967433 0
M  V30 18229 C 1747.4 1.44469 1.32752 0
M  V30 18230 O 1746.52 0.837989 1.99516 0
M  V30 18231 C 1747.12 3.38379 -0.168791 0
M  V30 18232 C 1745.68 3.75785 0.21503 0
M  V30 18233 C 1744.82 2.72266 -0.525995 0
M  V30 18234 H 1747.78 1.40038 -0.74666 0
M  V30 18235 H 1747.8 3.75447 0.61807 0
M  V30 18236 H 1747.31 3.68903 -1.2055 0
M  V30 18237 H 1745.41 3.50876 1.25366 0
M  V30 18238 H 1745.52 4.78927 -0.128579 0
M  V30 18239 H 1743.89 2.54684 0.028422 0
M  V30 18240 H 1744.67 3.05632 -1.56345 0
M  V30 18241 N 1747.11 0.27113 1.5525 0
M  V30 18242 C 1748.04 -0.61179 2.25343 0
M  V30 18243 C 1749.03 -1.16208 1.24216 0
M  V30 18244 O 1750.21 -1.19696 1.52927 0
M  V30 18245 C 1747.34 -1.7978 2.97147 0
M  V30 18246 C 1746.29 -1.37922 4.05169 0
M  V30 18247 C 1745.62 -2.64801 4.64526 0
M  V30 18248 C 1746.92 -0.532357 5.1958 0
M  V30 18249 H 1748.61 -0.0272538 2.99388 0
M  V30 18250 H 1746.16 -0.0116681 1.43995 0
M  V30 18251 H 1748.11 -2.42132 3.44891 0
M  V30 18252 H 1746.84 -2.40811 2.20631 0
M  V30 18253 H 1745.5 -0.778918 3.5823 0
M  V30 18254 H 1745.14 -3.24081 3.84682 0
M  V30 18255 H 1744.84 -2.37507 5.37461 0
M  V30 18256 H 1746.37 -3.28009 5.15017 0
M  V30 18257 H 1747.78 -1.06078 5.63401 0
M  V30 18258 H 1746.18 -0.35447 5.99052 0
M  V30 18259 H 1747.25 0.44981 4.82809 0
M  V30 18260 N 1748.59 -1.576 -0.00164943 0
M  V30 18261 C 1749.52 -2.11354 -0.992554 0
M  V30 18262 C 1750.5 -1.0223 -1.35952 0
M  V30 18263 O 1751.69 -1.29904 -1.44356 0
M  V30 18264 C 1748.82 -2.61549 -2.28494 0
M  V30 18265 C 1747.77 -3.75185 -2.05962 0
M  V30 18266 C 1747.1 -4.11688 -3.412 0
M  V30 18267 C 1748.4 -5.02526 -1.42355 0
M  V30 18268 H 1750.09 -2.94398 -0.544986 0
M  V30 18269 H 1747.64 -1.4162 -0.260702 0
M  V30 18270 H 1749.59 -2.97782 -2.98168 0
M  V30 18271 H 1748.32 -1.75625 -2.75361 0
M  V30 18272 H 1746.97 -3.39343 -1.38714 0
M  V30 18273 H 1746.62 -3.22789 -3.85767 0
M  V30 18274 H 1746.32 -4.88246 -3.2694 0
M  V30 18275 H 1747.85 -4.50478 -4.12192 0
M  V30 18276 H 1749.26 -5.3654 -2.01984 0
M  V30 18277 H 1747.66 -5.83878 -1.38589 0
M  V30 18278 H 1748.73 -4.83308 -0.392565 0
M  V30 18279 N 1750.07 0.274379 -1.55193 0
M  V30 18280 C 1751 1.34336 -1.90987 0
M  V30 18281 C 1751.98 1.51594 -0.771582 0
M  V30 18282 O 1753.17 1.6466 -1.0296 0
M  V30 18283 C 1750.3 2.70312 -2.18057 0
M  V30 18284 C 1749.25 2.67787 -3.33878 0
M  V30 18285 C 1748.58 4.07301 -3.46425 0
M  V30 18286 C 1749.88 2.27178 -4.70306 0
M  V30 18287 H 1751.57 1.04627 -2.80524 0
M  V30 18288 H 1749.12 0.501867 -1.34971 0
M  V30 18289 H 1751.07 3.45205 -2.41685 0
M  V30 18290 H 1749.79 3.01601 -1.25318 0
M  V30 18291 H 1748.45 1.95351 -3.10216 0
M  V30 18292 H 1748.1 4.3581 -2.51155 0
M  V30 18293 H 1747.8 4.06507 -4.24295 0
M  V30 18294 H 1749.32 4.83935 -3.72343 0
M  V30 18295 H 1750.74 2.91794 -4.93487 0
M  V30 18296 H 1749.14 2.37548 -5.51082 0
M  V30 18297 H 1750.21 1.22309 -4.69221 0
M  V30 18298 N 1751.55 1.48103 0.538828 0
M  V30 18299 C 1752.48 1.58044 1.65996 0
M  V30 18300 C 1753.49 0.465316 1.56009 0
M  V30 18301 O 1754.68 0.735769 1.62631 0
M  V30 18302 C 1751.78 1.48587 3.0459 0
M  V30 18303 C 1750.96 2.74987 3.40148 0
M  V30 18304 C 1750.01 2.59109 4.57984 0
M  V30 18305 O 1749.04 3.32974 4.61646 0
M  V30 18306 N 1750.24 1.68143 5.55615 0
M  V30 18307 H 1753.01 2.54726 1.57908 0
M  V30 18308 H 1750.57 1.44715 0.725901 0
M  V30 18309 H 1752.56 1.35673 3.81281 0
M  V30 18310 H 1751.13 0.599157 3.06804 0
M  V30 18311 H 1750.35 3.02531 2.52723 0
M  V30 18312 H 1751.64 3.58862 3.60687 0
M  V30 18313 H 1751.04 1.07317 5.55427 0
M  V30 18314 H 1749.59 1.61171 6.31559 0
M  V30 18315 N 1753.03 -0.787016 1.36542 0
M  V30 18316 C 1753.96 -1.91399 1.33749 0
M  V30 18317 C 1754.94 -1.68817 0.208559 0
M  V30 18318 O 1756.12 -1.89896 0.406574 0
M  V30 18319 C 1753.25 -3.28457 1.12842 0
M  V30 18320 C 1752.21 -3.65568 2.22585 0
M  V30 18321 C 1751.53 -5.01002 1.86818 0
M  V30 18322 C 1752.83 -3.73902 3.64684 0
M  V30 18323 H 1754.53 -1.93993 2.2805 0
M  V30 18324 H 1752.07 -0.931937 1.09777 0
M  V30 18325 H 1754.03 -4.06919 1.09522 0
M  V30 18326 H 1752.75 -3.26256 0.149918 0
M  V30 18327 H 1751.41 -2.89405 2.25035 0
M  V30 18328 H 1751.06 -4.95325 0.875361 0
M  V30 18329 H 1750.76 -5.26802 2.60294 0
M  V30 18330 H 1752.28 -5.81881 1.85058 0
M  V30 18331 H 1753.69 -4.4255 3.64448 0
M  V30 18332 H 1752.09 -4.11188 4.37086 0
M  V30 18333 H 1753.16 -2.74946 3.99416 0
M  V30 18334 N 1754.5 -1.20861 -1.01145 0
M  V30 18335 C 1755.73 -1.04769 -1.78413 0
M  V30 18336 C 1756.15 0.402846 -1.84452 0
M  V30 18337 O 1755.5 1.27962 -1.30123 0
M  V30 18338 C 1755.56 -1.63065 -3.22633 0
M  V30 18339 O 1755.28 -3.02443 -3.16954 0
M  V30 18340 C 1756.78 -1.51996 -4.16428 0
M  V30 18341 H 1754 -0.368271 -0.560908 0
M  V30 18342 H 1756.54 -1.6006 -1.27283 0
M  V30 18343 H 1754.7 -1.11882 -3.70892 0
M  V30 18344 H 1755.11 -3.30199 -4.07515 0
M  V30 18345 H 1756.58 -1.97539 -5.15444 0
M  V30 18346 H 1757.06 -0.473305 -4.36642 0
M  V30 18347 H 1757.67 -2.02396 -3.74054 0
M  V30 18348 N 1755.98 1.20536 -1.01532 0
M  V30 18349 C 1757.21 1.94393 -0.722908 0
M  V30 18350 C 1757.63 1.74191 0.709857 0
M  V30 18351 O 1756.99 1.03538 1.48827 0
M  V30 18352 C 1757.04 3.44597 -1.06231 0
M  V30 18353 O 1756.14 4.12036 -0.173286 0
M  V30 18354 H 1755.48 0.607361 -0.268345 0
M  V30 18355 H 1758.01 1.53003 -1.35835 0
M  V30 18356 H 1758.02 3.95212 -1.01348 0
M  V30 18357 H 1756.7 3.58624 -2.10621 0
M  V30 18358 H 1755.28 3.71851 -0.27953 0
M  V30 18359 N 1757.46 0.791395 1.36289 0
M  V30 18360 C 1758.88 0.473308 1.5242 0
M  V30 18361 C 1759.08 -1.00805 1.74473 0
M  V30 18362 O 1758.13 -1.79349 1.77737 0
M  V30 18363 C 1759.45 1.30547 2.70884 0
M  V30 18364 C 1760.99 1.29936 2.84755 0
M  V30 18365 C 1761.47 2.1153 4.06225 0
M  V30 18366 N 1762.96 2.08987 4.13375 0
M  V30 18367 C 1763.69 2.68889 5.06445 0
M  V30 18368 N 1763.19 3.37657 6.04946 0
M  V30 18369 N 1764.98 2.58612 4.99075 0
M  V30 18370 H 1757.13 1.75096 1.20229 0
M  V30 18371 H 1759.4 0.74441 0.586991 0
M  V30 18372 H 1759.1 2.35607 2.61117 0
M  V30 18373 H 1758.98 0.948139 3.65089 0
M  V30 18374 H 1761.36 0.256671 2.93982 0
M  V30 18375 H 1761.45 1.69647 1.91451 0
M  V30 18376 H 1761.09 3.15832 3.9776 0
M  V30 18377 H 1761.02 1.69189 4.98681 0
M  V30 18378 H 1763.51 1.58938 3.42851 0
M  V30 18379 H 1763.82 3.8069 6.72529 0
M  V30 18380 H 1762.17 3.4176 6.05165 0
M  V30 18381 H 1765.36 2.04487 4.21073 0
M  V30 18382 H 1765.53 3.05587 5.7142 0
M  V30 18383 N 1758.94 -1.47929 0.54358 0
M  V30 18384 C 1759.87 -2.3264 -0.200228 0
M  V30 18385 C 1760.85 -1.42945 -0.922 0
M  V30 18386 O 1762.04 -1.71817 -0.905129 0
M  V30 18387 C 1759.17 -3.24439 -1.23922 0
M  V30 18388 C 1758.12 -4.23267 -0.634753 0
M  V30 18389 C 1757.45 -5.04295 -1.77739 0
M  V30 18390 C 1758.75 -5.20747 0.402524 0
M  V30 18391 H 1760.44 -2.95077 0.506957 0
M  V30 18392 H 1757.99 -1.41896 0.245246 0
M  V30 18393 H 1759.94 -3.82535 -1.76763 0
M  V30 18394 H 1758.66 -2.60029 -1.97616 0
M  V30 18395 H 1757.32 -3.66377 -0.127756 0
M  V30 18396 H 1756.97 -4.36299 -2.50304 0
M  V30 18397 H 1756.67 -5.71195 -1.37879 0
M  V30 18398 H 1758.19 -5.65246 -2.30932 0
M  V30 18399 H 1759.61 -5.73287 -0.039305 0
M  V30 18400 H 1758 -5.95774 0.719251 0
M  V30 18401 H 1759.07 -4.67054 1.3034 0
M  V30 18402 N 1760.42 -0.27936 -1.55104 0
M  V30 18403 C 1761.35 0.639572 -2.20096 0
M  V30 18404 C 1762.36 1.11423 -1.18696 0
M  V30 18405 O 1763.55 1.0354 -1.45402 0
M  V30 18406 C 1760.65 1.88494 -2.81644 0
M  V30 18407 C 1759.82 1.55639 -4.08773 0
M  V30 18408 C 1758.88 2.65466 -4.54328 0
M  V30 18409 O 1757.91 2.31473 -5.20008 0
M  V30 18410 N 1759.11 3.95606 -4.24825 0
M  V30 18411 H 1761.88 0.0833048 -2.99584 0
M  V30 18412 H 1759.44 -0.100637 -1.61587 0
M  V30 18413 H 1761.43 2.61272 -3.09062 0
M  V30 18414 H 1760 2.35015 -2.06123 0
M  V30 18415 H 1759.22 0.662253 -3.88597 0
M  V30 18416 H 1760.51 1.31196 -4.91594 0
M  V30 18417 H 1759.91 4.26043 -3.72161 0
M  V30 18418 H 1758.46 4.64748 -4.57004 0
M  V30 18419 N 1761.9 1.57599 -0.0067085 0
M  V30 18420 C 1763.14 1.90481 0.675393 0
M  V30 18421 C 1763.46 0.881481 1.73939 0
M  V30 18422 O 1762.73 -0.0801928 1.95736 0
M  V30 18423 H 1761.31 0.703048 0.252452 0
M  V30 18424 H 1763.98 1.94838 -0.04922 0
M  V30 18425 H 1763.07 2.90441 1.14239 0
M  V30 18426 N 1763.37 -0.266145 1.55336 0
M  V30 18427 C 1764.62 -0.998308 1.76527 0
M  V30 18428 C 1764.95 -1.85691 0.568535 0
M  V30 18429 O 1764.23 -1.89602 -0.433735 0
M  V30 18430 C 1764.51 -1.87509 3.07429 0
M  V30 18431 C 1764.36 -1.04596 4.3747 0
M  V30 18432 C 1765.68 -2.86099 3.34418 0
M  V30 18433 H 1762.8 -0.361514 0.642244 0
M  V30 18434 H 1765.44 -0.270186 1.88069 0
M  V30 18435 H 1763.59 -2.49591 2.97719 0
M  V30 18436 H 1765.27 -0.445323 4.59145 0
M  V30 18437 H 1763.51 -0.349641 4.32389 0
M  V30 18438 H 1764.18 -1.69279 5.25403 0
M  V30 18439 H 1766.66 -2.34153 3.43965 0
M  V30 18440 H 1765.53 -3.44584 4.27262 0
M  V30 18441 H 1765.79 -3.61577 2.5439 0
M  V30 18442 N 1764.85 -1.48386 -0.530967 0
M  V30 18443 C 1766.27 -1.34485 -0.859412 0
M  V30 18444 C 1766.47 -0.355124 -1.98346 0
M  V30 18445 O 1765.52 0.224012 -2.51504 0
M  V30 18446 C 1766.84 -2.74488 -1.22787 0
M  V30 18447 C 1768.38 -2.82969 -1.33781 0
M  V30 18448 C 1768.86 -4.23673 -1.7397 0
M  V30 18449 N 1770.35 -4.26341 -1.81074 0
M  V30 18450 C 1771.09 -5.32149 -2.13554 0
M  V30 18451 N 1770.58 -6.48235 -2.44464 0
M  V30 18452 N 1772.37 -5.19542 -2.14551 0
M  V30 18453 H 1764.53 -2.11352 0.210713 0
M  V30 18454 H 1766.79 -0.947472 0.0316283 0
M  V30 18455 H 1766.49 -3.4847 -0.475552 0
M  V30 18456 H 1766.37 -3.0795 -2.17823 0
M  V30 18457 H 1768.76 -2.09244 -2.08089 0
M  V30 18458 H 1768.84 -2.53129 -0.368677 0
M  V30 18459 H 1768.48 -4.97914 -1.00222 0
M  V30 18460 H 1768.41 -4.50956 -2.71931 0
M  V30 18461 H 1770.9 -3.42606 -1.59467 0
M  V30 18462 H 1771.21 -7.24712 -2.6835 0
M  V30 18463 H 1769.56 -6.51512 -2.41986 0
M  V30 18464 H 1772.75 -4.27868 -1.89859 0
M  V30 18465 H 1772.92 -6.02103 -2.39532 0
M  V30 18466 N 1766.33 0.779763 -1.36958 0
M  V30 18467 C 1767.29 1.87439 -1.31906 0
M  V30 18468 C 1768.29 1.59222 -0.224739 0
M  V30 18469 O 1769.48 1.67453 -0.480109 0
M  V30 18470 C 1766.61 3.24419 -1.04716 0
M  V30 18471 H 1767.81 1.93333 -2.29265 0
M  V30 18472 H 1765.36 0.978634 -1.21871 0
M  V30 18473 H 1766.1 3.24205 -0.0785442 0
M  V30 18474 H 1765.88 3.4629 -1.83917 0
M  V30 18475 H 1767.37 4.04491 -1.0381 0
M  V30 18476 N 1767.81 1.21396 1.00503 0
M  V30 18477 C 1768.74 0.997268 2.11132 0
M  V30 18478 C 1769.72 -0.0777455 1.69922 0
M  V30 18479 O 1770.9 0.08208 1.94026 0
M  V30 18480 C 1768.03 0.561122 3.42737 0
M  V30 18481 C 1766.99 1.58069 3.97741 0
M  V30 18482 C 1766.31 1.00079 5.25251 0
M  V30 18483 C 1767.61 2.96754 4.29807 0
M  V30 18484 H 1769.31 1.92255 2.29518 0
M  V30 18485 H 1766.85 0.925776 1.10297 0
M  V30 18486 H 1768.81 0.396701 4.19529 0
M  V30 18487 H 1767.53 -0.399804 3.24144 0
M  V30 18488 H 1766.19 1.73268 3.23069 0
M  V30 18489 H 1765.84 0.0315797 5.0299 0
M  V30 18490 H 1765.54 1.68182 5.63017 0
M  V30 18491 H 1767.06 0.847687 6.04687 0
M  V30 18492 H 1768.48 2.85 4.97441 0
M  V30 18493 H 1766.87 3.61871 4.78717 0
M  V30 18494 H 1767.94 3.47602 3.38084 0
M  V30 18495 N 1769.29 -1.19996 1.0217 0
M  V30 18496 C 1770.53 -1.89121 0.712579 0
M  V30 18497 C 1770.85 -1.79556 -0.760561 0
M  V30 18498 O 1770.12 -1.2013 -1.54744 0
M  V30 18499 H 1768.7 -0.700075 0.260585 0
M  V30 18500 H 1771.37 -1.4571 1.2944 0
M  V30 18501 H 1770.46 -2.95629 1.00051 0
M  V30 18502 N 1770.76 -0.798611 -1.35867 0
M  V30 18503 C 1771.7 -0.161203 -2.28632 0
M  V30 18504 C 1772.71 0.634886 -1.4991 0
M  V30 18505 O 1773.9 0.468557 -1.72241 0
M  V30 18506 C 1771 0.794407 -3.29458 0
M  V30 18507 C 1770.17 0.0464031 -4.37375 0
M  V30 18508 C 1769.23 0.919313 -5.18107 0
M  V30 18509 O 1768.26 0.373179 -5.67975 0
M  V30 18510 N 1769.46 2.24243 -5.35439 0
M  V30 18511 H 1772.22 -0.958079 -2.83973 0
M  V30 18512 H 1769.78 -0.653344 -1.48132 0
M  V30 18513 H 1771.78 1.38242 -3.80357 0
M  V30 18514 H 1770.35 1.49212 -2.7469 0
M  V30 18515 H 1769.57 -0.722757 -3.87518 0
M  V30 18516 H 1770.85 -0.469417 -5.0663 0
M  V30 18517 H 1770.25 2.71017 -4.96554 0
M  V30 18518 H 1768.81 2.77986 -5.89548 0
M  V30 18519 N 1772.24 1.47639 -0.551417 0
M  V30 18520 C 1773.2 2.28419 0.188996 0
M  V30 18521 C 1774.2 1.36617 0.84808 0
M  V30 18522 O 1775.39 1.59304 0.704831 0
M  V30 18523 C 1772.53 3.16131 1.27571 0
M  V30 18524 H 1773.72 2.95348 -0.520518 0
M  V30 18525 H 1771.27 1.53232 -0.308141 0
M  V30 18526 H 1772.01 2.5388 2.0178 0
M  V30 18527 H 1771.79 3.83685 0.807984 0
M  V30 18528 H 1773.28 3.77011 1.79591 0
M  V30 18529 N 1773.72 0.287581 1.54954 0
M  V30 18530 C 1774.68 -0.581465 2.21702 0
M  V30 18531 C 1775.68 -1.07172 1.19878 0
M  V30 18532 O 1776.87 -0.969899 1.44702 0
M  V30 18533 C 1774.01 -1.80358 2.89282 0
M  V30 18534 H 1775.2 0.00151035 2.999 0
M  V30 18535 H 1772.75 0.0382953 1.56253 0
M  V30 18536 H 1773.49 -2.42674 2.15128 0
M  V30 18537 H 1773.27 -1.45983 3.63911 0
M  V30 18538 H 1774.76 -2.42129 3.4024 0
M  V30 18539 N 1775.2 -1.57593 0.0150662 0
M  V30 18540 C 1776.42 -1.95909 -0.68077 0
M  V30 18541 C 1776.85 -0.890813 -1.65669 0
M  V30 18542 O 1776.21 0.149663 -1.80681 0
M  V30 18543 C 1776.25 -3.33324 -1.37576 0
M  V30 18544 O 1775.36 -3.28694 -2.49066 0
M  V30 18545 H 1774.7 -0.639151 -0.179949 0
M  V30 18546 H 1777.23 -2.04471 0.0727403 0
M  V30 18547 H 1777.24 -3.69236 -1.73577 0
M  V30 18548 H 1775.91 -4.10625 -0.660305 0
M  V30 18549 H 1774.49 -3.0448 -2.15282 0
M  V30 18550 N 1776.68 0.257904 -1.55475 0
M  V30 18551 C 1777.95 1.00965 -1.67528 0
M  V30 18552 C 1778.33 2.03763 -0.551694 0
M  V30 18553 O 1777.68 2.24099 0.446314 0
M  V30 18554 C 1777.89 1.65289 -3.07377 0
M  V30 18555 C 1779.24 2.15888 -3.65619 0
M  V30 18556 O 1780.26 1.7525 -3.10106 0
M  V30 18557 O 1779.12 2.90471 -4.62913 0
M  V30 18558 H 1776.22 0.469266 -0.680969 0
M  V30 18559 H 1778.76 0.252562 -1.6781 0
M  V30 18560 H 1777.53 0.908769 -3.80601 0
M  V30 18561 H 1777.16 2.47646 -3.11058 0
M  V30 18562 N 1778.15 1.48666 0.52309 0
M  V30 18563 C 1779.1 1.64155 1.6479 0
M  V30 18564 C 1780.1 0.507838 1.61609 0
M  V30 18565 O 1781.3 0.686784 1.66383 0
M  V30 18566 H 1777.68 0.517234 0.545869 0
M  V30 18567 H 1779.65 2.58611 1.48871 0
M  V30 18568 C 1778.4 1.70488 3.03033 0
M  V30 18569 H 1777.72 2.5709 3.06178 0
M  V30 18570 H 1779.16 1.85367 3.81333 0
M  V30 18571 C 1777.62 0.444984 3.33948 0
M  V30 18572 O 1778.15 -0.439107 3.99293 0
M  V30 18573 N 1776.36 0.314593 2.88892 0
M  V30 18574 H 1775.9 1.03501 2.35893 0
M  V30 18575 H 1775.86 -0.527357 3.09946 0
M  V30 18576 N 1779.63 -0.772489 1.37369 0
M  V30 18577 C 1780.86 -1.56671 1.35901 0
M  V30 18578 C 1781.28 -1.88024 -0.0535538 0
M  V30 18579 O 1780.64 -1.49174 -1.03038 0
M  V30 18580 C 1780.69 -2.85417 2.20384 0
M  V30 18581 O 1779.79 -3.79761 1.60796 0
M  V30 18582 H 1779.13 -0.474596 0.464386 0
M  V30 18583 H 1781.66 -0.956162 1.80883 0
M  V30 18584 H 1781.67 -3.34527 2.33571 0
M  V30 18585 H 1780.35 -2.61926 3.2306 0
M  V30 18586 H 1778.93 -3.38403 1.56645 0
M  V30 18587 N 1781.11 -1.21927 -0.998575 0
M  V30 18588 C 1782.36 -1.03834 -1.73386 0
M  V30 18589 C 1782.68 0.428247 -1.90239 0
M  V30 18590 O 1781.95 1.30847 -1.45794 0
M  V30 18591 H 1780.53 -0.381225 -0.642399 0
M  V30 18592 H 1783.19 -1.53344 -1.20298 0
M  V30 18593 H 1782.29 -1.51155 -2.73054 0
M  V30 18594 N 1782.59 1.19452 -1.02805 0
M  V30 18595 C 1784 1.70804 -0.753845 0
M  V30 18596 C 1784.35 1.8225 0.726584 0
M  V30 18597 O 1783.48 1.49307 1.56641 0
M  V30 18598 C 1784.07 3.10227 -1.36178 0
M  V30 18599 C 1782.63 3.58842 -1.13618 0
M  V30 18600 C 1781.78 2.3573 -1.46036 0
M  V30 18601 H 1784.73 1.04305 -1.19608 0
M  V30 18602 H 1784.75 3.72867 -0.758315 0
M  V30 18603 H 1784.26 3.01864 -2.43925 0
M  V30 18604 H 1782.36 3.72521 -0.0768914 0
M  V30 18605 H 1782.47 4.43008 -1.82431 0
M  V30 18606 H 1780.84 2.39027 -0.879669 0
M  V30 18607 H 1781.62 2.29998 -2.54864 0
M  V30 18608 N 1784.07 0.805805 1.35442 0
M  V30 18609 C 1784.98 0.217149 2.33593 0
M  V30 18610 C 1785.99 -0.639428 1.61825 0
M  V30 18611 O 1787.17 -0.551363 1.93706 0
M  V30 18612 C 1784.23 -0.625149 3.41017 0
M  V30 18613 C 1783.29 0.25183 4.28561 0
M  V30 18614 C 1782.53 -0.550363 5.30855 0
M  V30 18615 O 1782.75 -1.78511 5.41747 0
M  V30 18616 O 1781.68 0.0583487 6.01872 0
M  V30 18617 H 1785.51 1.02909 2.85733 0
M  V30 18618 H 1783.1 0.567579 1.38199 0
M  V30 18619 H 1784.98 -1.10493 4.06656 0
M  V30 18620 H 1783.65 -1.4147 2.91149 0
M  V30 18621 H 1782.56 0.77873 3.65905 0
M  V30 18622 H 1783.89 1.0053 4.81824 0
M  V30 18623 N 1785.54 -1.47344 0.559239 0
M  V30 18624 C 1786.82 -1.95577 -0.0298268 0
M  V30 18625 C 1787.2 -1.50185 -1.4835 0
M  V30 18626 O 1786.55 -0.74162 -2.1613 0
M  V30 18627 C 1786.76 -3.48801 0.117767 0
M  V30 18628 C 1788.11 -4.24592 -0.026535 0
M  V30 18629 O 1789.13 -3.56171 0.0454163 0
M  V30 18630 O 1787.99 -5.46198 -0.181675 0
M  V30 18631 H 1785.08 -0.824597 -0.0629972 0
M  V30 18632 H 1787.63 -1.57736 0.625905 0
M  V30 18633 H 1786.4 -3.74652 1.12924 0
M  V30 18634 H 1786.03 -3.93413 -0.575483 0
M  V30 18635 N 1787.02 -0.295795 -1.54799 0
M  V30 18636 C 1787.99 0.569699 -2.22007 0
M  V30 18637 C 1788.99 1.06535 -1.20445 0
M  V30 18638 O 1790.18 0.962212 -1.45214 0
M  V30 18639 C 1787.31 1.78821 -2.90234 0
M  V30 18640 H 1788.5 -0.0174148 -2.99895 0
M  V30 18641 H 1786.05 -0.0465813 -1.56231 0
M  V30 18642 H 1786.79 2.4153 -2.16412 0
M  V30 18643 H 1786.57 1.44051 -3.6468 0
M  V30 18644 H 1788.06 2.40321 -3.41519 0
M  V30 18645 N 1788.5 1.57583 -0.0234236 0
M  V30 18646 C 1789.45 2.09872 0.960327 0
M  V30 18647 C 1790.42 0.999466 1.32665 0
M  V30 18648 O 1791.6 1.27332 1.42095 0
M  V30 18649 C 1788.74 2.62578 2.23935 0
M  V30 18650 C 1787.86 3.86491 1.92999 0
M  V30 18651 C 1786.99 4.27611 3.15154 0
M  V30 18652 C 1786.03 5.44298 2.80011 0
M  V30 18653 N 1785.17 5.80601 3.94775 0
M  V30 18654 H 1790.01 2.93647 0.507502 0
M  V30 18655 H 1787.54 1.45147 0.238911 0
M  V30 18656 H 1789.5 2.91223 2.98739 0
M  V30 18657 H 1788.13 1.81643 2.66844 0
M  V30 18658 H 1787.18 3.6461 1.08462 0
M  V30 18659 H 1788.5 4.71377 1.63112 0
M  V30 18660 H 1787.65 4.57663 3.98284 0
M  V30 18661 H 1786.39 3.41481 3.48198 0
M  V30 18662 H 1785.39 5.13946 1.95293 0
M  V30 18663 H 1786.62 6.32122 2.4819 0
M  V30 18664 H 1784.57 4.97427 4.27671 0
M  V30 18665 H 1784.48 6.60113 3.68492 0
M  V30 18666 H 1785.75 6.15255 4.78624 0
M  V30 18667 N 1789.98 -0.249655 1.5561 0
M  V30 18668 C 1791.4 -0.598032 1.47972 0
M  V30 18669 C 1791.6 -1.88461 0.713067 0
M  V30 18670 O 1790.65 -2.51344 0.241314 0
M  V30 18671 C 1791.96 -0.703318 2.92359 0
M  V30 18672 C 1793.51 -0.795828 3.02714 0
M  V30 18673 C 1793.99 -0.932698 4.48402 0
M  V30 18674 N 1795.48 -0.997638 4.52329 0
M  V30 18675 C 1796.21 -1.12276 5.623 0
M  V30 18676 N 1795.71 -1.21359 6.82088 0
M  V30 18677 N 1797.5 -1.1557 5.50091 0
M  V30 18678 H 1789.65 0.594976 2.03897 0
M  V30 18679 H 1791.92 0.204956 0.925579 0
M  V30 18680 H 1791.62 0.171981 3.51279 0
M  V30 18681 H 1791.5 -1.57614 3.42692 0
M  V30 18682 H 1793.88 -1.66158 2.43876 0
M  V30 18683 H 1793.96 0.102087 2.55596 0
M  V30 18684 H 1793.61 -0.0715123 5.0785 0
M  V30 18685 H 1793.54 -1.84561 4.93198 0
M  V30 18686 H 1796.03 -0.938895 3.66051 0
M  V30 18687 H 1796.34 -1.30805 7.61649 0
M  V30 18688 H 1794.69 -1.18322 6.84854 0
M  V30 18689 H 1797.88 -1.0812 4.55442 0
M  V30 18690 H 1798.05 -1.24976 6.35834 0
M  V30 18691 N 1791.46 -1.48941 -0.515198 0
M  V30 18692 C 1792.39 -1.60665 -1.63461 0
M  V30 18693 C 1793.4 -0.490076 -1.55248 0
M  V30 18694 O 1794.59 -0.761549 -1.61439 0
M  V30 18695 C 1791.69 -1.53414 -3.02187 0
M  V30 18696 C 1790.86 -2.80364 -3.3573 0
M  V30 18697 C 1789.92 -2.66362 -4.53804 0
M  V30 18698 O 1788.95 -3.40276 -4.5629 0
M  V30 18699 N 1790.15 -1.76961 -5.5287 0
M  V30 18700 H 1792.92 -2.57206 -1.53836 0
M  V30 18701 H 1790.48 -1.45851 -0.702786 0
M  V30 18702 H 1792.47 -1.41721 -3.79074 0
M  V30 18703 H 1791.04 -0.647891 -3.05812 0
M  V30 18704 H 1790.26 -3.06513 -2.47878 0
M  V30 18705 H 1791.55 -3.64555 -3.54932 0
M  V30 18706 H 1790.95 -1.16139 -5.5365 0
M  V30 18707 H 1789.5 -1.71198 -6.28915 0
M  V30 18708 N 1792.94 0.765193 -1.37777 0
M  V30 18709 C 1793.9 1.8603 -1.33886 0
M  V30 18710 C 1794.9 1.58974 -0.241614 0
M  V30 18711 O 1796.09 1.66935 -0.497843 0
M  V30 18712 C 1793.22 3.2329 -1.08151 0
M  V30 18713 H 1794.41 1.9089 -2.31303 0
M  V30 18714 H 1791.97 0.965653 -1.22902 0
M  V30 18715 H 1792.7 3.24103 -0.112926 0
M  V30 18716 H 1792.49 3.4432 -1.8758 0
M  V30 18717 H 1793.98 4.03367 -1.08095 0
M  V30 18718 N 1794.41 1.22455 0.992094 0
M  V30 18719 C 1795.36 0.99534 2.08235 0
M  V30 18720 C 1796.33 -0.0832064 1.65891 0
M  V30 18721 O 1797.52 0.0665468 1.90684 0
M  V30 18722 C 1794.66 0.580055 3.4019 0
M  V30 18723 C 1793.77 1.72946 3.95871 0
M  V30 18724 C 1792.9 1.26208 5.15989 0
M  V30 18725 C 1791.94 2.38298 5.63809 0
M  V30 18726 N 1791.08 1.92602 6.75166 0
M  V30 18727 H 1795.92 1.92861 2.27175 0
M  V30 18728 H 1793.46 0.960948 1.11374 0
M  V30 18729 H 1795.41 0.320448 4.15968 0
M  V30 18730 H 1794.04 -0.316208 3.21248 0
M  V30 18731 H 1793.1 2.10337 3.16958 0
M  V30 18732 H 1794.41 2.57257 4.27341 0
M  V30 18733 H 1793.56 0.959904 5.99058 0
M  V30 18734 H 1792.3 0.389184 4.86145 0
M  V30 18735 H 1791.31 2.69304 4.79328 0
M  V30 18736 H 1792.53 3.26105 5.95678 0
M  V30 18737 H 1790.48 1.07675 6.47103 0
M  V30 18738 H 1790.39 2.70478 7.05959 0
M  V30 18739 H 1791.66 1.65455 7.61738 0
M  V30 18740 N 1795.89 -1.18905 1.03437 0
M  V30 18741 C 1796.84 -2.22318 0.619933 0
M  V30 18742 C 1797.81 -1.61948 -0.369056 0
M  V30 18743 O 1798.99 -1.88958 -0.26447 0
M  V30 18744 C 1796.13 -3.45096 -0.0174579 0
M  V30 18745 C 1795.25 -4.19829 1.01823 0
M  V30 18746 C 1794.38 -5.30046 0.350026 0
M  V30 18747 C 1793.42 -5.96543 1.37125 0
M  V30 18748 N 1792.56 -6.98311 0.728458 0
M  V30 18749 H 1797.4 -2.57125 1.50634 0
M  V30 18750 H 1794.93 -1.26324 0.753695 0
M  V30 18751 H 1796.89 -4.15236 -0.404294 0
M  V30 18752 H 1795.52 -3.10927 -0.867412 0
M  V30 18753 H 1794.57 -3.48578 1.52308 0
M  V30 18754 H 1795.89 -4.65415 1.79416 0
M  V30 18755 H 1795.04 -6.06631 -0.0913585 0
M  V30 18756 H 1793.78 -4.85544 -0.458049 0
M  V30 18757 H 1792.78 -5.18703 1.82284 0
M  V30 18758 H 1794.01 -6.43127 2.18091 0
M  V30 18759 H 1791.96 -6.55973 -0.0594251 0
M  V30 18760 H 1791.87 -7.42117 1.44218 0
M  V30 18761 H 1793.14 -7.78878 0.311259 0
M  V30 18762 N 1797.37 -0.812977 -1.35013 0
M  V30 18763 C 1798.3 -0.185443 -2.28449 0
M  V30 18764 C 1799.31 0.618951 -1.50575 0
M  V30 18765 O 1800.5 0.450262 -1.72728 0
M  V30 18766 C 1797.6 0.759419 -3.30282 0
M  V30 18767 C 1796.78 1.09356e-05 -4.374 0
M  V30 18768 C 1795.84 0.864309 -5.19053 0
M  V30 18769 O 1794.86 0.312916 -5.68339 0
M  V30 18770 N 1796.06 2.18551 -5.37788 0
M  V30 18771 H 1798.83 -0.988144 -2.82941 0
M  V30 18772 H 1796.39 -0.669018 -1.47431 0
M  V30 18773 H 1798.38 1.342 -3.81802 0
M  V30 18774 H 1796.95 1.4629 -2.76257 0
M  V30 18775 H 1796.17 -0.763818 -3.86729 0
M  V30 18776 H 1797.46 -0.523125 -5.06104 0
M  V30 18777 H 1796.86 2.65735 -4.99401 0
M  V30 18778 H 1795.41 2.71718 -5.92463 0
M  V30 18779 N 1798.85 1.47045 -0.567045 0
M  V30 18780 C 1799.79 2.30135 0.175115 0
M  V30 18781 C 1800.76 1.39665 0.899049 0
M  V30 18782 O 1801.95 1.68623 0.892809 0
M  V30 18783 C 1799.09 3.23827 1.19289 0
M  V30 18784 C 1798.2 4.29392 0.474011 0
M  V30 18785 C 1797.34 5.10226 1.47793 0
M  V30 18786 C 1796.38 6.07554 0.744584 0
M  V30 18787 N 1795.51 6.81313 1.69581 0
M  V30 18788 H 1800.35 2.93075 -0.539529 0
M  V30 18789 H 1797.89 1.44451 -0.277889 0
M  V30 18790 H 1799.85 3.76579 1.79567 0
M  V30 18791 H 1798.48 2.6273 1.87544 0
M  V30 18792 H 1797.53 3.7962 -0.243494 0
M  V30 18793 H 1798.84 4.987 -0.100022 0
M  V30 18794 H 1798 5.67176 2.15397 0
M  V30 18795 H 1796.74 4.40842 2.08589 0
M  V30 18796 H 1795.74 5.49773 0.0546832 0
M  V30 18797 H 1796.97 6.78951 0.142235 0
M  V30 18798 H 1794.91 6.14651 2.29216 0
M  V30 18799 H 1794.83 7.46826 1.17418 0
M  V30 18800 H 1796.1 7.42831 2.36268 0
M  V30 18801 N 1800.33 0.304 1.5464 0
M  V30 18802 C 1801.55 -0.306916 2.04611 0
M  V30 18803 C 1801.97 -1.4729 1.18114 0
M  V30 18804 O 1801.33 -1.81317 0.20743 0
M  V30 18805 C 1801.38 -0.760263 3.53415 0
M  V30 18806 O 1801.1 0.359321 4.36624 0
M  V30 18807 C 1802.6 -1.43602 4.19396 0
M  V30 18808 H 1799.82 -0.066247 0.667722 0
M  V30 18809 H 1802.36 0.444504 1.99611 0
M  V30 18810 H 1800.52 -1.4617 3.58766 0
M  V30 18811 H 1800.93 0.00582275 5.245 0
M  V30 18812 H 1802.41 -1.70436 5.25029 0
M  V30 18813 H 1802.88 -2.37705 3.69314 0
M  V30 18814 H 1803.49 -0.777683 4.18129 0
M  V30 18815 N 1801.8 -1.57568 0.0317802 0
M  V30 18816 C 1803.22 -1.56264 -0.324633 0
M  V30 18817 C 1803.42 -1.03765 -1.72728 0
M  V30 18818 O 1802.48 -0.685566 -2.43015 0
M  V30 18819 C 1803.79 -3.00214 -0.170806 0
M  V30 18820 C 1805.34 -3.12052 -0.243373 0
M  V30 18821 C 1805.81 -4.57847 -0.118304 0
M  V30 18822 N 1807.3 -4.62869 -0.175203 0
M  V30 18823 C 1808.04 -5.73309 -0.102252 0
M  V30 18824 N 1807.53 -6.92797 0.0219373 0
M  V30 18825 N 1809.33 -5.61882 -0.156432 0
M  V30 18826 H 1801.48 -1.90022 0.948968 0
M  V30 18827 H 1803.74 -0.874208 0.366693 0
M  V30 18828 H 1803.45 -3.42585 0.795517 0
M  V30 18829 H 1803.32 -3.65302 -0.939907 0
M  V30 18830 H 1805.71 -2.69593 -1.20016 0
M  V30 18831 H 1805.79 -2.49681 0.55615 0
M  V30 18832 H 1805.43 -5.00988 0.835072 0
M  V30 18833 H 1805.36 -5.18202 -0.936726 0
M  V30 18834 H 1807.85 -3.76925 -0.271225 0
M  V30 18835 H 1808.17 -7.72768 0.0708376 0
M  V30 18836 H 1806.51 -6.94977 0.0567564 0
M  V30 18837 H 1809.7 -4.67422 -0.251873 0
M  V30 18838 H 1809.88 -6.47929 -0.0961177 0
M  V30 18839 N 1803.28 0.241399 -1.5574 0
M  V30 18840 C 1804.7 0.590176 -1.48287 0
M  V30 18841 C 1804.9 1.8808 -0.723052 0
M  V30 18842 O 1803.95 2.51213 -0.25464 0
M  V30 18843 C 1805.27 0.687804 -2.92728 0
M  V30 18844 C 1806.82 0.779763 -3.03131 0
M  V30 18845 C 1807.29 0.908905 -4.48891 0
M  V30 18846 N 1808.78 0.973636 -4.52852 0
M  V30 18847 C 1809.52 1.09292 -5.62888 0
M  V30 18848 N 1809.01 1.1774 -6.82722 0
M  V30 18849 N 1810.81 1.12651 -5.50696 0
M  V30 18850 H 1802.96 -0.605781 -2.03578 0
M  V30 18851 H 1805.22 -0.209862 -0.924479 0
M  V30 18852 H 1804.93 -0.190608 -3.51183 0
M  V30 18853 H 1804.8 1.55794 -3.43523 0
M  V30 18854 H 1807.19 1.64863 -2.44754 0
M  V30 18855 H 1807.27 -0.115641 -2.55538 0
M  V30 18856 H 1806.91 0.0445788 -5.0788 0
M  V30 18857 H 1806.84 1.81943 -4.9417 0
M  V30 18858 H 1809.33 0.919469 -3.66544 0
M  V30 18859 H 1809.65 1.26764 -7.62332 0
M  V30 18860 H 1807.99 1.14688 -6.85472 0
M  V30 18861 H 1811.18 1.05703 -4.56009 0
M  V30 18862 H 1811.35 1.21602 -6.36488 0
M  V30 18863 N 1804.76 1.49212 0.507292 0
M  V30 18864 C 1805.99 1.6208 1.28599 0
M  V30 18865 C 1806.4 0.289745 1.86563 0
M  V30 18866 O 1805.76 -0.723987 1.67525 0
M  V30 18867 C 1805.81 2.68482 2.42074 0
M  V30 18868 O 1805.53 3.96424 1.86493 0
M  V30 18869 C 1807.03 2.91997 3.33546 0
M  V30 18870 H 1804.25 0.545831 0.390268 0
M  V30 18871 H 1806.8 1.95201 0.609652 0
M  V30 18872 H 1804.95 2.38156 3.05549 0
M  V30 18873 H 1805.37 4.54983 2.60942 0
M  V30 18874 H 1806.84 3.70195 4.09463 0
M  V30 18875 H 1807.32 2.01673 3.9016 0
M  V30 18876 H 1807.92 3.23715 2.75842 0
M  V30 18877 O 1806.28 -0.652518 1.47731 0
M  V30 18878 H 1806.97 -1.30599 1.43051 0
M  V30 END ATOM
M  V30 BEGIN BOND
M  V30 END BOND
M  V30 END CTAB
M  END
$$$$
