drugbank_target|P08174 Complement decay-accelerating factor (DB00446)
 OpenBabel12092119433D

  0  0  0     0  0            999 V3000
M  V30 BEGIN CTAB
M  V30 COUNTS 5782 5855 0 0 0
M  V30 BEGIN ATOM
M  V30 1 H -0.908 1.98254 -0.117106 0
M  V30 2 N 0 1.576 0 0
M  V30 3 C 0.933 2.03868 1.02534 0
M  V30 4 C 1.911 0.928543 1.3348 0
M  V30 5 O 3.095 1.19667 1.45644 0
M  V30 6 C 0.222 2.43627 2.35294 0
M  V30 7 C -0.732 3.65373 2.2001 0
M  V30 8 S 0.101 5.13292 1.52614 0
M  V30 9 C 1.257 5.56322 2.86805 0
M  V30 10 H 1.49 2.90518 0.631377 0
M  V30 11 H -0.977 1.52953 0.210867 0
M  V30 12 H 0.981 2.67203 3.11629 0
M  V30 13 H -0.358 1.57376 2.7183 0
M  V30 14 H -1.165 3.90944 3.18086 0
M  V30 15 H -1.563 3.418 1.51819 0
M  V30 16 H 0.729 5.58782 3.83104 0
M  V30 17 H 1.672 6.56266 2.65933 0
M  V30 18 H 2.08 4.83886 2.90714 0
M  V30 19 N 1.4781 -0.272755 1.55222 0
M  V30 20 C 2.7061 -1.02255 1.79865 0
M  V30 21 C 3.1211 -1.79924 0.572088 0
M  V30 22 O 2.4781 -1.76638 -0.458842 0
M  V30 23 C 2.5291 -1.98094 3.02392 0
M  V30 24 O 2.2501 -1.23572 4.20311 0
M  V30 25 C 3.7511 -2.84884 3.39641 0
M  V30 26 H 0.9711 -0.302057 0.599168 0
M  V30 27 H 3.5151 -0.303465 2.02236 0
M  V30 28 H 1.6701 -2.65465 2.82147 0
M  V30 29 H 2.0841 -1.88172 4.89583 0
M  V30 30 H 3.5581 -3.47927 4.28545 0
M  V30 31 H 4.0351 -3.54665 2.59055 0
M  V30 32 H 4.6411 -2.23003 3.62146 0
M  V30 33 N 2.9562 -1.48159 -0.537278 0
M  V30 34 C 4.2022 -1.56035 -1.29541 0
M  V30 35 C 4.5352 -0.230377 -1.92829 0
M  V30 36 O 3.8102 0.762952 -1.78911 0
M  V30 37 C 4.0932 -2.69323 -2.39034 0
M  V30 38 C 3.9462 -4.12002 -1.80485 0
M  V30 39 C 5.2652 -2.78408 -3.40847 0
M  V30 40 H 2.3842 -0.567992 -0.469632 0
M  V30 41 H 5.0262 -1.80302 -0.599277 0
M  V30 42 H 3.1762 -2.48763 -2.98412 0
M  V30 43 H 4.8482 -4.43981 -1.25215 0
M  V30 44 H 3.0912 -4.19344 -1.11055 0
M  V30 45 H 3.7622 -4.87077 -2.59731 0
M  V30 46 H 6.2382 -2.97012 -2.91416 0
M  V30 47 H 5.1142 -3.59416 -4.14863 0
M  V30 48 H 5.3752 -1.86269 -4.00944 0
M  V30 49 N 4.4343 0.785586 -1.36625 0
M  V30 50 C 5.3973 1.87999 -1.31107 0
M  V30 51 C 6.3973 1.59316 -0.217959 0
M  V30 52 O 7.5873 1.67656 -0.472977 0
M  V30 53 C 4.7193 3.24861 -1.03334 0
M  V30 54 H 5.9123 1.94307 -2.2844 0
M  V30 55 H 3.4653 0.983813 -1.21453 0
M  V30 56 H 4.2003 3.24235 -0.0647432 0
M  V30 57 H 3.9853 3.4707 -1.82441 0
M  V30 58 H 5.4753 4.04929 -1.02088 0
M  V30 59 N 5.9124 1.20967 1.01018 0
M  V30 60 C 7.3284 0.965905 1.27053 0
M  V30 61 C 7.5284 -0.350785 1.98423 0
M  V30 62 O 6.5844 -1.07773 2.28344 0
M  V30 63 C 7.8974 2.15294 2.09926 0
M  V30 64 C 9.4454 2.19463 2.23171 0
M  V30 65 C 9.9204 3.3767 3.09424 0
M  V30 66 N 11.4114 3.37724 3.17012 0
M  V30 67 C 12.1464 4.25837 3.83993 0
M  V30 68 N 11.6424 5.24138 4.53047 0
M  V30 69 N 13.4354 4.1366 3.80581 0
M  V30 70 H 5.5864 2.0565 0.531194 0
M  V30 71 H 7.8494 0.90024 0.297106 0
M  V30 72 H 7.5554 3.10684 1.64828 0
M  V30 73 H 7.4294 2.13923 3.10672 0
M  V30 74 H 9.8164 1.24632 2.6749 0
M  V30 75 H 9.8974 2.2488 1.21912 0
M  V30 76 H 9.5414 4.32791 2.65808 0
M  V30 77 H 9.4714 3.29491 4.10784 0
M  V30 78 H 11.9624 2.6658 2.6785 0
M  V30 79 H 12.2754 5.87684 5.01844 0
M  V30 80 H 10.6204 5.28068 4.5185 0
M  V30 81 H 13.8114 3.36127 3.25785 0
M  V30 82 H 13.9844 4.82538 4.32505 0
M  V30 83 N 7.3905 -1.2043 1.01659 0
M  V30 84 C 8.8015 -1.71517 0.737482 0
M  V30 85 C 9.1525 -1.81547 -0.743973 0
M  V30 86 O 8.2775 -1.47803 -1.58061 0
M  V30 87 C 8.8725 -3.11515 1.33206 0
M  V30 88 C 7.4315 -3.59912 1.10183 0
M  V30 89 C 6.5785 -2.37116 1.43776 0
M  V30 90 H 9.5295 -1.05444 1.18606 0
M  V30 91 H 9.5505 -3.73575 0.722636 0
M  V30 92 H 9.0625 -3.04182 2.41028 0
M  V30 93 H 7.1635 -3.72577 0.0412756 0
M  V30 94 H 7.2765 -4.44731 1.78188 0
M  V30 95 H 5.6405 -2.39857 0.856778 0
M  V30 96 H 6.4235 -2.32424 2.52654 0
M  V30 97 N 8.8686 -0.792821 -1.36206 0
M  V30 98 C 10.0936 -0.377701 -2.03932 0
M  V30 99 C 10.5186 0.998947 -1.59382 0
M  V30 100 O 9.8766 1.64421 -0.763903 0
M  V30 101 C 9.9246 -0.453635 -3.57735 0
M  V30 102 O 9.0286 0.538151 -4.08874 0
M  V30 103 H 8.3696 -0.159855 -0.644471 0
M  V30 104 H 10.8996 -1.07488 -1.7409 0
M  V30 105 H 10.9096 -0.318464 -4.06755 0
M  V30 106 H 9.5846 -1.45784 -3.89512 0
M  V30 107 H 8.1616 0.364359 -3.71116 0
M  V30 108 N 10.3467 1.47872 -0.545128 0
M  V30 109 C 11.5927 2.02793 -0.0166104 0
M  V30 110 C 11.9257 1.41987 1.32489 0
M  V30 111 O 11.2007 0.571045 1.85928 0
M  V30 112 C 11.4837 3.59989 0.0893294 0
M  V30 113 C 11.3367 4.3125 -1.27841 0
M  V30 114 C 12.6557 4.32606 0.808724 0
M  V30 115 H 9.7747 0.736962 -0.00751035 0
M  V30 116 H 12.4167 1.76433 -0.705085 0
M  V30 117 H 10.5667 3.82579 0.675681 0
M  V30 118 H 12.2387 4.20035 -1.90704 0
M  V30 119 H 10.4817 3.92076 -1.85632 0
M  V30 120 H 11.1527 5.39736 -1.15713 0
M  V30 121 H 13.6287 4.14936 0.310992 0
M  V30 122 H 12.5047 5.42251 0.851782 0
M  V30 123 H 12.7657 4.00963 1.86229 0
M  V30 124 N 11.8248 0.280983 1.55075 0
M  V30 125 C 13.2358 -0.215629 1.85451 0
M  V30 126 C 13.5868 -1.54991 1.203 0
M  V30 127 O 12.7118 -2.10699 0.493435 0
M  V30 128 C 13.3068 -0.398026 3.36454 0
M  V30 129 C 11.8658 -0.838866 3.66933 0
M  V30 130 C 11.0128 0.064458 2.77225 0
M  V30 131 H 13.9638 0.502601 1.50531 0
M  V30 132 H 13.9848 -1.23569 3.59876 0
M  V30 133 H 13.4968 0.573241 3.83843 0
M  V30 134 H 11.5978 -1.8214 3.25048 0
M  V30 135 H 11.7108 -0.672123 4.74362 0
M  V30 136 H 10.0748 -0.452863 2.50642 0
M  V30 137 H 10.8578 1.03172 3.2743 0
M  V30 138 N 13.3029 -1.57598 0.00835791 0
M  V30 139 C 14.2659 -2.07884 -0.965242 0
M  V30 140 C 15.2659 -0.989825 -1.26725 0
M  V30 141 O 16.4559 -1.25218 -1.21104 0
M  V30 142 C 13.5879 -2.52731 -2.28779 0
M  V30 143 H 14.7809 -2.95178 -0.530112 0
M  V30 144 H 12.3339 -1.54458 -0.239283 0
M  V30 145 H 13.0689 -1.68705 -2.76964 0
M  V30 146 H 12.8539 -3.32272 -2.08177 0
M  V30 147 H 14.3439 -2.91933 -2.98605 0
M  V30 148 N 14.781 0.264519 -1.55364 0
M  V30 149 C 15.744 1.31046 -1.88042 0
M  V30 150 C 16.744 1.41943 -0.755569 0
M  V30 151 O 17.934 1.40947 -1.02369 0
M  V30 152 C 15.066 2.69067 -2.09323 0
M  V30 153 H 16.259 1.03297 -2.81549 0
M  V30 154 H 13.812 0.502989 -1.47986 0
M  V30 155 H 14.547 3.01982 -1.18226 0
M  V30 156 H 14.332 2.62542 -2.91229 0
M  V30 157 H 15.822 3.44623 -2.35848 0
M  V30 158 N 16.2591 1.48442 0.529413 0
M  V30 159 C 17.1891 1.65902 1.64313 0
M  V30 160 C 18.1701 0.507897 1.6234 0
M  V30 161 O 19.3551 0.740503 1.79528 0
M  V30 162 C 16.4851 1.69911 3.02898 0
M  V30 163 C 15.4391 2.8453 3.19729 0
M  V30 164 C 14.7651 2.73629 4.59381 0
M  V30 165 C 16.0651 4.25821 3.02447 0
M  V30 166 H 17.7591 2.5914 1.49955 0
M  V30 167 H 15.3051 1.24709 0.719982 0
M  V30 168 H 17.2581 1.80715 3.80684 0
M  V30 169 H 15.9821 0.732524 3.18279 0
M  V30 170 H 14.6411 2.73283 2.44361 0
M  V30 171 H 14.2891 1.74938 4.71599 0
M  V30 172 H 13.9891 3.50541 4.71588 0
M  V30 173 H 15.5131 2.86401 5.39265 0
M  V30 174 H 16.9271 4.37898 3.70024 0
M  V30 175 H 15.3241 5.03735 3.26146 0
M  V30 176 H 16.3941 4.42244 1.98867 0
M  V30 177 N 17.7372 -0.778329 1.37039 0
M  V30 178 C 19.1482 -1.35421 1.28523 0
M  V30 179 C 19.4992 -1.96075 -0.0700901 0
M  V30 180 O 18.6242 -1.93352 -0.971801 0
M  V30 181 C 19.2192 -2.46211 2.32735 0
M  V30 182 C 17.7782 -2.99585 2.27873 0
M  V30 183 C 16.9252 -1.72748 2.16918 0
M  V30 184 H 19.8762 -0.5791 1.47757 0
M  V30 185 H 19.8972 -3.2552 1.9702 0
M  V30 186 H 19.4092 -2.02036 3.31365 0
M  V30 187 H 17.5102 -3.48152 1.32745 0
M  V30 188 H 17.6232 -3.55646 3.21018 0
M  V30 189 H 15.9872 -1.95416 1.63354 0
M  V30 190 H 16.7702 -1.30686 3.17452 0
M  V30 191 N 19.2153 -1.21501 -1.00376 0
M  V30 192 C 20.1453 -0.999478 -2.11028 0
M  V30 193 C 21.1263 0.0759671 -1.6993 0
M  V30 194 O 22.3113 -0.0841106 -1.94018 0
M  V30 195 C 19.4413 -0.564709 -3.42678 0
M  V30 196 C 18.3953 -1.58486 -3.97576 0
M  V30 197 C 17.7213 -1.00628 -5.25146 0
M  V30 198 C 19.0213 -2.97204 -4.29496 0
M  V30 199 H 20.7153 -1.92495 -2.29317 0
M  V30 200 H 18.2613 -0.92693 -1.102 0
M  V30 201 H 20.2143 -0.401091 -4.19487 0
M  V30 202 H 18.9383 0.396411 -3.24185 0
M  V30 203 H 17.5973 -1.73606 -3.22888 0
M  V30 204 H 17.2453 -0.0368439 -5.02987 0
M  V30 205 H 16.9453 -1.68771 -5.62841 0
M  V30 206 H 18.4693 -0.854015 -6.04598 0
M  V30 207 H 19.8833 -2.8552 -4.97143 0
M  V30 208 H 18.2803 -3.62372 -4.78338 0
M  V30 209 H 19.3503 -3.47956 -3.3772 0
M  V30 210 N 20.6934 1.19889 -1.02296 0
M  V30 211 C 21.6234 2.25141 -0.619174 0
M  V30 212 C 22.6044 1.66051 0.368915 0
M  V30 213 O 23.7894 1.92546 0.252941 0
M  V30 214 C 20.9194 3.4728 0.0368783 0
M  V30 215 C 19.8734 4.19005 -0.872865 0
M  V30 216 C 19.1994 5.34637 -0.0822402 0
M  V30 217 C 20.4994 4.74452 -2.18387 0
M  V30 218 H 22.1934 2.59171 -1.49903 0
M  V30 219 H 19.7394 1.24579 -0.722222 0
M  V30 220 H 21.6924 4.20098 0.330958 0
M  V30 221 H 20.4164 3.12433 0.95149 0
M  V30 222 H 19.0754 3.48061 -1.15105 0
M  V30 223 H 18.7234 4.96034 0.83422 0
M  V30 224 H 18.4234 5.83557 -0.688149 0
M  V30 225 H 19.9474 6.10255 0.205238 0
M  V30 226 H 21.3614 5.39055 -1.95172 0
M  V30 227 H 19.7584 5.33834 -2.74119 0
M  V30 228 H 20.8284 3.92844 -2.84257 0
M  V30 229 N 22.1715 0.800033 1.35784 0
M  V30 230 C 23.4195 0.376597 1.9856 0
M  V30 231 C 23.7405 -1.05812 1.63795 0
M  V30 232 O 23.0105 -1.73103 0.917171 0
M  V30 233 H 21.5905 0.136261 0.734467 0
M  V30 234 H 24.2525 1.02442 1.65806 0
M  V30 235 H 23.3485 0.477002 3.08433 0
M  V30 236 N 23.6496 -1.47581 0.552962 0
M  V30 237 C 24.5596 -2.33743 -0.200353 0
M  V30 238 C 25.5756 -1.47928 -0.916151 0
M  V30 239 O 26.7516 -1.80865 -0.885993 0
M  V30 240 C 23.8166 -3.24536 -1.21973 0
M  V30 241 C 22.8776 -4.26238 -0.511819 0
M  V30 242 C 22.1106 -5.12693 -1.48263 0
M  V30 243 O 22.3336 -5.01525 -2.71714 0
M  V30 244 O 21.2676 -5.93375 -1.00945 0
M  V30 245 H 25.0936 -2.9945 0.506304 0
M  V30 246 H 22.6786 -1.46071 0.313622 0
M  V30 247 H 24.5606 -3.80631 -1.80827 0
M  V30 248 H 23.2356 -2.61462 -1.90839 0
M  V30 249 H 22.1426 -3.73914 0.117799 0
M  V30 250 H 23.4756 -4.92014 0.135308 0
M  V30 251 N 25.1277 -0.289203 -1.54924 0
M  V30 252 C 26.0577 0.58549 -2.2604 0
M  V30 253 C 27.0387 1.14753 -1.25562 0
M  V30 254 O 28.2237 1.17906 -1.54311 0
M  V30 255 C 25.3537 1.76305 -2.99222 0
M  V30 256 C 24.3077 1.33191 -4.06748 0
M  V30 257 C 23.6337 2.5937 -4.6758 0
M  V30 258 C 24.9337 0.471775 -5.20165 0
M  V30 259 H 26.6277 -0.00763532 -2.99399 0
M  V30 260 H 24.1737 -0.00511229 -1.43999 0
M  V30 261 H 26.1267 2.38097 -3.47689 0
M  V30 262 H 24.8507 2.38223 -2.23422 0
M  V30 263 H 23.5097 0.737121 -3.59113 0
M  V30 264 H 23.1577 3.19576 -3.88433 0
M  V30 265 H 22.8577 2.31228 -5.40192 0
M  V30 266 H 24.3817 3.21985 -5.18804 0
M  V30 267 H 25.7957 0.995056 -5.64599 0
M  V30 268 H 24.1927 0.284639 -5.99425 0
M  V30 269 H 25.2627 -0.506041 -4.82252 0
M  V30 270 N 26.6058 1.57591 -0.0167156 0
M  V30 271 C 28.0168 1.79201 0.523834 0
M  V30 272 C 28.3678 0.925796 1.72984 0
M  V30 273 O 27.4928 0.132792 2.15992 0
M  V30 274 C 28.0878 3.25 0.957091 0
M  V30 275 C 26.6468 3.47648 1.44283 0
M  V30 276 C 25.7938 2.74374 0.401757 0
M  V30 277 H 28.7448 1.56831 -0.242816 0
M  V30 278 H 28.7658 3.34031 1.82219 0
M  V30 279 H 28.2778 3.88019 0.0791415 0
M  V30 280 H 26.3788 2.89866 2.34113 0
M  V30 281 H 26.4918 4.56352 1.45877 0
M  V30 282 H 24.8558 2.39485 0.867121 0
M  V30 283 H 25.6388 3.40102 -0.467513 0
M  V30 284 N 28.0839 -0.256276 1.55502 0
M  V30 285 C 29.4999 -0.604325 1.47716 0
M  V30 286 C 29.6999 -1.88763 0.705039 0
M  V30 287 O 28.7559 -2.51445 0.230613 0
M  V30 288 C 30.0689 -0.715756 2.92057 0
M  V30 289 C 31.6169 -0.808706 3.02372 0
M  V30 290 C 32.0919 -0.951777 4.48001 0
M  V30 291 N 33.5829 -1.01688 4.519 0
M  V30 292 C 34.3179 -1.14668 5.61817 0
M  V30 293 N 33.8139 -1.24261 6.81565 0
M  V30 294 N 35.6069 -1.1791 5.49594 0
M  V30 295 H 27.7579 0.586291 2.04148 0
M  V30 296 H 30.0209 0.201015 0.926443 0
M  V30 297 H 29.7269 0.157027 3.51349 0
M  V30 298 H 29.6009 -1.59071 3.42018 0
M  V30 299 H 31.9879 -1.67195 2.43166 0
M  V30 300 H 32.0689 0.0912063 2.55637 0
M  V30 301 H 31.7129 -0.0931291 5.07815 0
M  V30 302 H 31.6429 -1.86659 4.92408 0
M  V30 303 H 34.1339 -0.954468 3.65648 0
M  V30 304 H 34.4469 -1.34046 7.61086 0
M  V30 305 H 32.7919 -1.21236 6.84344 0
M  V30 306 H 35.9829 -1.10057 4.54978 0
M  V30 307 H 36.1559 -1.27681 6.35296 0
M  V30 308 N 29.562 -1.4872 -0.521534 0
M  V30 309 C 30.492 -1.66771 -1.63431 0
M  V30 310 C 31.473 -0.516499 -1.62069 0
M  V30 311 O 32.658 -0.750013 -1.79132 0
M  V30 312 C 29.788 -1.71515 -3.01993 0
M  V30 313 C 28.742 -2.86222 -3.18216 0
M  V30 314 C 28.068 -2.76061 -4.57924 0
M  V30 315 C 29.368 -4.27419 -3.00184 0
M  V30 316 H 31.062 -2.59932 -1.48579 0
M  V30 317 H 28.608 -1.25089 -0.713358 0
M  V30 318 H 30.561 -1.82731 -3.7972 0
M  V30 319 H 29.285 -0.749393 -3.17886 0
M  V30 320 H 27.944 -2.74575 -2.42908 0
M  V30 321 H 27.592 -1.77437 -4.70665 0
M  V30 322 H 27.292 -3.53037 -4.69722 0
M  V30 323 H 28.816 -2.89256 -5.37739 0
M  V30 324 H 30.23 -4.39855 -3.67697 0
M  V30 325 H 28.627 -5.05458 -3.2347 0
M  V30 326 H 29.697 -4.43293 -1.96518 0
M  V30 327 N 31.0401 0.771051 -1.3745 0
M  V30 328 C 31.9701 1.89827 -1.3597 0
M  V30 329 C 32.9511 1.68562 -0.228216 0
M  V30 330 O 34.1361 1.8941 -0.428675 0
M  V30 331 C 31.2661 3.2712 -1.16662 0
M  V30 332 C 30.2201 3.6295 -2.2683 0
M  V30 333 C 29.5461 4.98791 -1.92644 0
M  V30 334 C 30.8461 3.69627 -3.69017 0
M  V30 335 H 32.5401 1.91323 -2.30295 0
M  V30 336 H 30.0861 0.919082 -1.10855 0
M  V30 337 H 32.0391 4.05615 -1.14256 0
M  V30 338 H 30.7631 3.26059 -0.187926 0
M  V30 339 H 29.4221 2.86763 -2.28392 0
M  V30 340 H 29.0701 4.94271 -0.933021 0
M  V30 341 H 28.7701 5.23733 -2.66416 0
M  V30 342 H 30.2941 5.79685 -1.91826 0
M  V30 343 H 31.7081 4.38273 -3.69581 0
M  V30 344 H 30.1051 4.06067 -4.41848 0
M  V30 345 H 31.1751 2.70273 -4.02592 0
M  V30 346 N 32.5182 1.22032 0.997298 0
M  V30 347 C 33.4482 1.01065 2.10495 0
M  V30 348 C 34.4292 -0.0669542 1.69968 0
M  V30 349 O 35.6142 0.0943987 1.9397 0
M  V30 350 C 32.7442 0.582874 3.42374 0
M  V30 351 C 31.6982 1.60592 3.96729 0
M  V30 352 C 31.0242 1.03412 5.24605 0
M  V30 353 C 32.3242 2.99478 4.27914 0
M  V30 354 H 34.0182 1.93708 2.28292 0
M  V30 355 H 31.5642 0.932761 1.09707 0
M  V30 356 H 33.5172 0.423332 4.19268 0
M  V30 357 H 32.2412 -0.379213 3.24391 0
M  V30 358 H 30.9002 1.75316 3.21963 0
M  V30 359 H 30.5482 0.063518 5.0296 0
M  V30 360 H 30.2482 1.71754 5.61938 0
M  V30 361 H 31.7722 0.886066 6.04137 0
M  V30 362 H 33.1862 2.88153 4.95622 0
M  V30 363 H 31.5832 3.64903 4.76409 0
M  V30 364 H 32.6532 3.49742 3.3587 0
M  V30 365 N 33.9963 -1.19345 1.0293 0
M  V30 366 C 34.9263 -2.2481 0.631105 0
M  V30 367 C 35.9073 -1.66245 -0.360104 0
M  V30 368 O 37.0923 -1.92677 -0.242726 0
M  V30 369 C 34.2223 -3.47295 -0.0184607 0
M  V30 370 C 33.1763 -4.18536 0.895073 0
M  V30 371 C 32.5023 -5.34586 0.110592 0
M  V30 372 C 33.8023 -4.73287 2.209 0
M  V30 373 H 35.4963 -2.58372 1.51275 0
M  V30 374 H 33.0423 -1.24194 0.728818 0
M  V30 375 H 34.9953 -4.20268 -0.308675 0
M  V30 376 H 33.7193 -3.12933 -0.934907 0
M  V30 377 H 32.3783 -3.47446 1.16949 0
M  V30 378 H 32.0263 -4.96469 -0.807902 0
M  V30 379 H 31.7263 -5.83183 0.719087 0
M  V30 380 H 33.2503 -6.10355 -0.172871 0
M  V30 381 H 34.6643 -5.38013 1.98028 0
M  V30 382 H 33.0613 -5.32373 2.76946 0
M  V30 383 H 34.1313 -3.91331 2.86336 0
M  V30 384 N 35.4744 -0.807222 -1.35358 0
M  V30 385 C 36.7204 -0.388463 -1.99045 0
M  V30 386 C 37.0534 1.04184 -1.63888 0
M  V30 387 O 36.3284 1.72292 -0.902535 0
M  V30 388 C 36.6114 -0.572783 -3.55515 0
M  V30 389 C 36.4644 -2.04807 -4.00468 0
M  V30 390 C 37.7834 0.00114064 -4.401 0
M  V30 391 H 34.9024 -0.142619 -0.723069 0
M  V30 392 H 37.5444 -1.01687 -1.60498 0
M  V30 393 H 35.6944 -0.0378425 -3.88482 0
M  V30 394 H 37.3664 -2.64544 -3.77908 0
M  V30 395 H 35.6094 -2.54427 -3.51353 0
M  V30 396 H 36.2804 -2.12792 -5.09337 0
M  V30 397 H 38.7564 -0.455716 -4.13597 0
M  V30 398 H 37.6324 -0.157737 -5.48673 0
M  V30 399 H 37.8934 1.09488 -4.28328 0
M  V30 400 N 36.9525 1.47285 -0.560781 0
M  V30 401 C 37.8825 2.32857 0.173105 0
M  V30 402 C 38.8635 1.44009 0.905281 0
M  V30 403 O 40.0485 1.7286 0.885046 0
M  V30 404 C 37.1785 3.25861 1.20133 0
M  V30 405 C 36.1325 4.23978 0.585388 0
M  V30 406 C 35.4585 5.06332 1.7185 0
M  V30 407 C 36.7585 5.20242 -0.463178 0
M  V30 408 H 38.4525 2.94466 -0.541307 0
M  V30 409 H 35.9985 1.41601 -0.261764 0
M  V30 410 H 37.9515 3.84569 1.72293 0
M  V30 411 H 36.6755 2.62315 1.94573 0
M  V30 412 H 35.3345 3.66501 0.085054 0
M  V30 413 H 34.9825 4.39186 2.45203 0
M  V30 414 H 34.6825 5.72762 1.31213 0
M  V30 415 H 36.2065 5.67899 2.24329 0
M  V30 416 H 37.6205 5.73293 -0.027502 0
M  V30 417 H 36.0175 5.94896 -0.788627 0
M  V30 418 H 37.0875 4.65504 -1.35773 0
M  V30 419 N 38.4306 0.297415 1.54768 0
M  V30 420 C 39.3606 -0.573494 2.26348 0
M  V30 421 C 40.3416 -1.14085 1.26169 0
M  V30 422 O 41.5266 -1.17086 1.54934 0
M  V30 423 C 38.6566 -1.74716 3.00153 0
M  V30 424 C 37.6106 -1.31032 4.07449 0
M  V30 425 C 36.9366 -2.56887 4.68949 0
M  V30 426 C 38.2366 -0.444183 5.20408 0
M  V30 427 H 39.9306 0.0235131 2.99391 0
M  V30 428 H 37.4766 0.0127488 1.43994 0
M  V30 429 H 39.4296 -2.3625 3.48947 0
M  V30 430 H 38.1536 -2.37035 2.24682 0
M  V30 431 H 36.8126 -0.718066 3.59499 0
M  V30 432 H 36.4606 -3.17512 3.90122 0
M  V30 433 H 36.1606 -2.2836 5.41411 0
M  V30 434 H 37.6846 -3.19229 5.20505 0
M  V30 435 H 39.0986 -0.9651 5.65118 0
M  V30 436 H 37.4956 -0.252846 5.99567 0
M  V30 437 H 38.5656 0.531609 4.81977 0
M  V30 438 N 39.9087 -1.5758 0.0250728 0
M  V30 439 C 41.1487 -1.93497 -0.65865 0
M  V30 440 C 41.5127 -0.901409 -1.69525 0
M  V30 441 O 42.7137 -1.14664 -2.43116 0
M  V30 442 C 40.9847 -3.34352 -1.26267 0
M  V30 443 S 42.5437 -3.92191 -1.96803 0
M  V30 444 H 39.3617 -0.67709 -0.216958 0
M  V30 445 H 41.9637 -1.95303 0.0877692 0
M  V30 446 H 40.6677 -4.07395 -0.495741 0
M  V30 447 H 40.1987 -3.3598 -2.04648 0
M  V30 448 H 42.2137 -3.75298 -3.24601 0
M  V30 449 N 41.3868 0.248026 -1.55636 0
M  V30 450 C 42.3168 1.31079 -1.93237 0
M  V30 451 C 43.2978 1.50264 -0.797174 0
M  V30 452 O 44.4828 1.62891 -1.05737 0
M  V30 453 C 41.6128 2.66575 -2.22609 0
M  V30 454 C 40.5668 2.62087 -3.3837 0
M  V30 455 C 39.8928 4.01369 -3.53281 0
M  V30 456 C 41.1928 2.19171 -4.7409 0
M  V30 457 H 42.8868 0.998556 -2.82257 0
M  V30 458 H 40.4328 0.47891 -1.35803 0
M  V30 459 H 42.3858 3.41057 -2.47503 0
M  V30 460 H 41.1098 2.99432 -1.30414 0
M  V30 461 H 39.7688 1.90063 -3.13483 0
M  V30 462 H 39.4168 4.31489 -2.58508 0
M  V30 463 H 39.1168 3.99254 -4.31127 0
M  V30 464 H 40.6408 4.77552 -3.80495 0
M  V30 465 H 42.0548 2.83384 -4.98363 0
M  V30 466 H 40.4518 2.2817 -5.5503 0
M  V30 467 H 41.5218 1.14336 -4.71227 0
M  V30 468 N 42.8649 1.48995 0.513639 0
M  V30 469 C 44.2759 1.5119 1.09537 0
M  V30 470 C 44.6269 0.290906 1.94031 0
M  V30 471 O 43.7519 -0.60049 2.07902 0
M  V30 472 C 44.3469 2.73964 1.99322 0
M  V30 473 C 42.9059 2.78978 2.52682 0
M  V30 474 C 42.0529 2.44934 1.30009 0
M  V30 475 H 45.0039 1.55875 0.298125 0
M  V30 476 H 45.0249 2.53409 2.83838 0
M  V30 477 H 44.5369 3.62813 1.37799 0
M  V30 478 H 42.6379 1.94378 3.1788 0
M  V30 479 H 42.7509 3.8083 2.90698 0
M  V30 480 H 41.1149 1.9644 1.62122 0
M  V30 481 H 41.8979 3.36043 0.702131 0
M  V30 482 N 44.343 -0.763751 1.37857 0
M  V30 483 C 45.306 -1.85889 1.34081 0
M  V30 484 C 46.306 -1.58949 0.243277 0
M  V30 485 O 47.496 -1.66882 0.499589 0
M  V30 486 C 44.628 -3.23176 1.08489 0
M  V30 487 H 45.821 -1.90648 2.31502 0
M  V30 488 H 43.374 -0.964367 1.23003 0
M  V30 489 H 44.109 -3.24091 0.116318 0
M  V30 490 H 43.894 -3.44124 1.8794 0
M  V30 491 H 45.384 -4.03254 1.08517 0
M  V30 492 N 45.8211 -1.22559 -0.990812 0
M  V30 493 C 47.0671 -1.05297 -1.73322 0
M  V30 494 C 47.4001 0.410655 -1.89808 0
M  V30 495 O 46.6751 1.30439 -1.44277 0
M  V30 496 C 46.9581 -1.76713 -3.13759 0
M  V30 497 C 46.8111 -3.30684 -3.04907 0
M  V30 498 C 48.1301 -1.52121 -4.12974 0
M  V30 499 H 45.2491 -0.38392 -0.629106 0
M  V30 500 H 47.8911 -1.50926 -1.15418 0
M  V30 501 H 46.0411 -1.37924 -3.63193 0
M  V30 502 H 47.7131 -3.7893 -2.63077 0
M  V30 503 H 45.9561 -3.60253 -2.41661 0
M  V30 504 H 46.6271 -3.75833 -4.04294 0
M  V30 505 H 49.1031 -1.85819 -3.72304 0
M  V30 506 H 47.9791 -2.04582 -5.0935 0
M  V30 507 H 48.2401 -0.454257 -4.3976 0
M  V30 508 N 47.2992 1.18797 -1.03562 0
M  V30 509 C 48.5452 1.89192 -0.746867 0
M  V30 510 C 48.9002 1.78531 0.717245 0
M  V30 511 O 48.1932 1.17137 1.51622 0
M  V30 512 C 48.3872 3.38692 -1.14117 0
M  V30 513 C 48.2162 3.63902 -2.64207 0
M  V30 514 C 46.9862 3.81553 -3.31279 0
M  V30 515 C 49.1842 3.64903 -3.62423 0
M  V30 516 N 47.1662 3.94455 -4.70402 0
M  V30 517 C 48.5372 3.83458 -4.87196 0
M  V30 518 C 50.5922 3.47965 -3.56125 0
M  V30 519 C 49.2952 3.86829 -6.06429 0
M  V30 520 C 51.3212 3.52616 -4.7478 0
M  V30 521 C 50.6832 3.71663 -5.9837 0
M  V30 522 H 46.7822 0.711141 -0.325273 0
M  V30 523 H 49.3662 1.42727 -1.32428 0
M  V30 524 H 47.5372 3.83864 -0.591889 0
M  V30 525 H 49.2692 3.96634 -0.803966 0
M  V30 526 H 46.0242 3.80723 -2.81686 0
M  V30 527 H 46.4482 4.0474 -5.42692 0
M  V30 528 H 51.0902 3.32189 -2.61553 0
M  V30 529 H 48.8082 4.01395 -7.01362 0
M  V30 530 H 52.3942 3.40791 -4.71543 0
M  V30 531 H 51.2742 3.75145 -6.88648 0
M  V30 532 N 48.7773 0.814389 1.34928 0
M  V30 533 C 50.0253 0.397636 1.9815 0
M  V30 534 C 50.3463 -1.04069 1.64908 0
M  V30 535 O 49.6163 -1.72121 0.93548 0
M  V30 536 H 48.1963 0.144043 0.732981 0
M  V30 537 H 50.8583 1.04195 1.6471 0
M  V30 538 H 49.9543 0.509688 3.0791 0
M  V30 539 N 50.2554 -1.46986 0.568584 0
M  V30 540 C 51.5324 -1.95592 -0.0174074 0
M  V30 541 C 51.9124 -1.51124 -1.47393 0
M  V30 542 O 51.2604 -0.755329 -2.15655 0
M  V30 543 C 51.4704 -3.48719 0.139913 0
M  V30 544 C 52.8184 -4.246 0.000426376 0
M  V30 545 O 53.8424 -3.56135 0.0680316 0
M  V30 546 O 52.7014 -5.46302 -0.146988 0
M  V30 547 H 49.7954 -0.82498 -0.0577599 0
M  V30 548 H 52.3414 -1.57335 0.635909 0
M  V30 549 H 51.1134 -3.73927 1.15301 0
M  V30 550 H 50.7364 -3.93771 -0.550491 0
M  V30 551 N 51.7335 -0.305618 -1.54608 0
M  V30 552 C 52.9735 0.303114 -2.0214 0
M  V30 553 C 53.3375 1.50737 -1.18921 0
M  V30 554 O 54.5385 2.18778 -1.56172 0
M  V30 555 C 52.8095 0.646332 -3.51507 0
M  V30 556 S 54.3685 1.23727 -4.20995 0
M  V30 557 H 51.1865 0.0927643 -0.704923 0
M  V30 558 H 53.7885 -0.434566 -1.90609 0
M  V30 559 H 52.4925 -0.238541 -4.09706 0
M  V30 560 H 52.0235 1.41468 -3.67084 0
M  V30 561 H 54.0385 2.52489 -4.27158 0
M  V30 562 N 53.2116 1.57565 -0.0334293 0
M  V30 563 C 54.4596 1.91598 0.642999 0
M  V30 564 C 54.7806 0.910847 1.7242 0
M  V30 565 O 54.0506 -0.0469931 1.95844 0
M  V30 566 H 52.6306 0.707228 0.240496 0
M  V30 567 H 55.2926 1.94726 -0.0822488 0
M  V30 568 H 54.3886 2.92336 1.09298 0
M  V30 569 N 54.6897 -0.239769 1.55765 0
M  V30 570 C 55.6197 -1.30052 1.9393 0
M  V30 571 C 56.6007 -1.49839 0.805132 0
M  V30 572 O 57.7857 -1.62328 1.06599 0
M  V30 573 C 54.9157 -2.65391 2.2402 0
M  V30 574 C 53.8697 -2.60289 3.39755 0
M  V30 575 C 53.1957 -3.99489 3.55405 0
M  V30 576 C 54.4957 -2.16654 4.75246 0
M  V30 577 H 56.1897 -0.983573 2.82783 0
M  V30 578 H 53.7357 -0.471701 1.36055 0
M  V30 579 H 55.6887 -3.3974 2.49308 0
M  V30 580 H 54.4127 -2.98736 1.32 0
M  V30 581 H 53.0717 -1.88398 3.14487 0
M  V30 582 H 52.7197 -4.30112 2.60793 0
M  V30 583 H 52.4197 -3.96962 4.33238 0
M  V30 584 H 53.9437 -4.75528 3.83022 0
M  V30 585 H 55.3577 -2.80737 4.99859 0
M  V30 586 H 53.7547 -2.25223 5.56232 0
M  V30 587 H 54.8247 -1.11835 4.71827 0
M  V30 588 N 56.1678 -1.49265 -0.50573 0
M  V30 589 C 57.5788 -1.51769 -1.08734 0
M  V30 590 C 57.9298 -0.301192 -1.93874 0
M  V30 591 O 57.0548 0.589456 -2.08217 0
M  V30 592 C 57.6498 -2.75017 -1.97867 0
M  V30 593 C 56.2088 -2.80314 -2.51199 0
M  V30 594 C 55.3558 -2.4562 -1.28709 0
M  V30 595 H 58.3068 -1.56031 -0.289855 0
M  V30 596 H 58.3278 -2.5491 -2.82491 0
M  V30 597 H 57.8398 -3.63539 -1.35873 0
M  V30 598 H 55.9408 -1.96061 -3.16845 0
M  V30 599 H 56.0538 -3.82366 -2.88675 0
M  V30 600 H 54.4178 -1.97297 -1.61078 0
M  V30 601 H 55.2008 -3.36411 -0.6843 0
M  V30 602 N 57.6459 0.756429 -1.3826 0
M  V30 603 C 59.0569 1.33359 -1.30661 0
M  V30 604 C 59.4079 1.96161 0.0388875 0
M  V30 605 O 58.5329 1.94874 0.940918 0
M  V30 606 C 59.1279 2.42477 -2.36622 0
M  V30 607 C 57.6869 2.95922 -2.3261 0
M  V30 608 C 56.8339 1.69275 -2.19639 0
M  V30 609 H 59.7849 0.55552 -1.4866 0
M  V30 610 H 59.8059 3.22345 -2.02174 0
M  V30 611 H 59.3179 1.96739 -3.34538 0
M  V30 612 H 57.4189 3.45996 -1.38267 0
M  V30 613 H 57.5319 3.50494 -3.26636 0
M  V30 614 H 55.8959 1.92793 -1.66442 0
M  V30 615 H 56.6789 1.25619 -3.19491 0
M  V30 616 N 59.124 1.23083 0.984299 0
M  V30 617 C 60.401 0.9689 1.69917 0
M  V30 618 C 60.781 -0.513604 2.04757 0
M  V30 619 O 60.129 -1.48383 1.73767 0
M  V30 620 C 60.339 1.87518 2.94343 0
M  V30 621 C 61.687 2.13636 3.6694 0
M  V30 622 O 62.711 1.85036 3.04368 0
M  V30 623 O 61.57 2.62119 4.79537 0
M  V30 624 H 58.664 0.365095 0.742048 0
M  V30 625 H 61.21 1.34107 1.03987 0
M  V30 626 H 59.982 2.87756 2.65164 0
M  V30 627 H 59.605 1.50514 3.6801 0
M  V30 628 N 60.6021 -1.18246 1.0419 0
M  V30 629 C 61.8481 -1.88536 0.747122 0
M  V30 630 C 62.1811 -1.80223 -0.723409 0
M  V30 631 O 61.4561 -1.20337 -1.52804 0
M  V30 632 C 61.7391 -3.38968 1.21544 0
M  V30 633 C 61.5921 -3.56084 2.74816 0
M  V30 634 C 62.9111 -4.32648 0.806482 0
M  V30 635 H 60.0301 -0.684619 0.272883 0
M  V30 636 H 62.6721 -1.39113 1.29413 0
M  V30 637 H 60.8221 -3.8119 0.750081 0
M  V30 638 H 62.4941 -3.22946 3.29399 0
M  V30 639 H 60.7371 -2.98699 3.14582 0
M  V30 640 H 61.4081 -4.61639 3.02644 0
M  V30 641 H 63.8841 -3.98211 1.20695 0
M  V30 642 H 62.7601 -5.36462 1.1619 0
M  V30 643 H 63.0211 -4.41146 -0.29029 0
M  V30 644 N 62.0802 -0.821533 -1.34494 0
M  V30 645 C 63.4912 -0.467956 -1.8074 0
M  V30 646 C 63.8422 1.01151 -1.68116 0
M  V30 647 O 62.9672 1.78707 -1.22036 0
M  V30 648 C 63.5622 -0.842627 -3.28154 0
M  V30 649 C 62.1212 -0.541439 -3.72485 0
M  V30 650 C 61.2682 -1.06028 -2.56229 0
M  V30 651 H 64.2192 -1.01183 -1.22261 0
M  V30 652 H 64.2402 -0.145876 -3.8022 0
M  V30 653 H 63.7522 -1.91945 -3.37311 0
M  V30 654 H 61.8532 0.526034 -3.68868 0
M  V30 655 H 61.9662 -1.08453 -4.66663 0
M  V30 656 H 60.3302 -0.481892 -2.501 0
M  V30 657 H 61.1132 -2.14352 -2.68157 0
M  V30 658 N 63.5583 1.46682 -0.576371 0
M  V30 659 C 64.5063 2.31953 0.17335 0
M  V30 660 C 65.5003 1.44098 0.89062 0
M  V30 661 O 66.7063 1.60759 0.809728 0
M  V30 662 H 63.0813 0.748273 0.0747727 0
M  V30 663 H 65.0523 2.93007 -0.564738 0
M  V30 664 C 63.8013 3.27142 1.17786 0
M  V30 665 H 63.1243 3.94719 0.635361 0
M  V30 666 H 64.5643 3.896 1.67296 0
M  V30 667 C 63.0233 2.52036 2.23561 0
M  V30 668 O 63.5533 2.27877 3.3081 0
M  V30 669 N 61.7593 2.12709 1.97998 0
M  V30 670 H 61.3063 2.32557 1.10792 0
M  V30 671 H 61.2643 1.62776 2.68982 0
M  V30 672 N 65.0364 0.313813 1.54444 0
M  V30 673 C 65.9994 -0.54379 2.22656 0
M  V30 674 C 66.9994 -1.05124 1.21678 0
M  V30 675 O 68.1894 -0.945225 1.46325 0
M  V30 676 C 65.3214 -1.75427 2.92298 0
M  V30 677 H 66.5144 0.0523599 2.99854 0
M  V30 678 H 64.0674 0.0647834 1.56166 0
M  V30 679 H 64.8024 -2.38991 2.19211 0
M  V30 680 H 64.5874 -1.39791 3.66334 0
M  V30 681 H 66.0774 -2.36325 3.44297 0
M  V30 682 N 66.5145 -1.57545 0.0417849 0
M  V30 683 C 67.4465 -2.07904 -0.964799 0
M  V30 684 C 68.4595 -1.00497 -1.28079 0
M  V30 685 O 69.6485 -1.28087 -1.24322 0
M  V30 686 C 66.7485 -2.49928 -2.28887 0
M  V30 687 C 65.9215 -3.80562 -2.15619 0
M  V30 688 C 64.9805 -4.08999 -3.31069 0
M  V30 689 O 64.0065 -4.79061 -3.0739 0
M  V30 690 N 65.2085 -3.6017 -4.55256 0
M  V30 691 H 67.9735 -2.94886 -0.535029 0
M  V30 692 H 65.5345 -1.61252 -0.144681 0
M  V30 693 H 67.5265 -2.66034 -3.04972 0
M  V30 694 H 66.0965 -1.68245 -2.63463 0
M  V30 695 H 65.3165 -3.74129 -1.24183 0
M  V30 696 H 66.6045 -4.66126 -2.03971 0
M  V30 697 H 66.0025 -3.03512 -4.77386 0
M  V30 698 H 64.5595 -3.81532 -5.28466 0
M  V30 699 N 67.9926 0.231505 -1.5589 0
M  V30 700 C 69.4036 0.799327 -1.68724 0
M  V30 701 C 69.7546 1.85398 -0.642022 0
M  V30 702 O 68.8796 2.1539 0.208784 0
M  V30 703 C 69.4746 1.45664 -3.05888 0
M  V30 704 C 68.0336 1.97197 -3.20609 0
M  V30 705 C 67.1806 0.828552 -2.64632 0
M  V30 706 H 70.1316 0.00702616 -1.58698 0
M  V30 707 H 70.1526 2.32517 -3.01191 0
M  V30 708 H 69.6646 0.688808 -3.81939 0
M  V30 709 H 67.7656 2.76813 -2.4941 0
M  V30 710 H 67.8786 2.15878 -4.27707 0
M  V30 711 H 66.2426 1.23321 -2.22854 0
M  V30 712 H 67.0256 0.0735544 -3.43221 0
M  V30 713 N 69.4707 1.49531 0.497807 0
M  V30 714 C 70.4337 1.65916 1.58128 0
M  V30 715 C 71.4337 0.530825 1.51786 0
M  V30 716 O 72.6237 0.797342 1.54881 0
M  V30 717 C 69.7557 1.65951 2.9778 0
M  V30 718 H 70.9487 2.62556 1.44929 0
M  V30 719 H 68.5017 1.38611 0.722275 0
M  V30 720 H 69.2367 0.709065 3.16453 0
M  V30 721 H 69.0217 2.47897 3.03792 0
M  V30 722 H 70.5117 1.80673 3.76493 0
M  V30 723 N 70.9488 -0.749086 1.3866 0
M  V30 724 C 71.8788 -1.8764 1.38973 0
M  V30 725 C 72.8598 -1.68178 0.255004 0
M  V30 726 O 74.0448 -1.88704 0.458754 0
M  V30 727 C 71.1748 -3.25222 1.21851 0
M  V30 728 C 70.1288 -3.59295 2.32575 0
M  V30 729 C 69.4548 -4.95663 2.00555 0
M  V30 730 C 70.7548 -3.63709 3.7485 0
M  V30 731 H 72.4488 -1.87635 2.3331 0
M  V30 732 H 69.9948 -0.901329 1.12303 0
M  V30 733 H 71.9478 -4.03746 1.20695 0
M  V30 734 H 70.6718 -3.25719 0.239775 0
M  V30 735 H 69.3308 -2.83093 2.32925 0
M  V30 736 H 68.9788 -4.92724 1.01154 0
M  V30 737 H 68.6788 -5.19429 2.74714 0
M  V30 738 H 70.2028 -5.7656 2.01024 0
M  V30 739 H 71.6168 -4.32338 3.76506 0
M  V30 740 H 70.0138 -3.98986 4.48252 0
M  V30 741 H 71.0838 -2.63834 4.06841 0
M  V30 742 N 72.4269 -1.23603 -0.977757 0
M  V30 743 C 73.3369 -1.03632 -2.1047 0
M  V30 744 C 74.3529 0.0199435 -1.73989 0
M  V30 745 O 75.5289 -0.176076 -2.00629 0
M  V30 746 C 72.5939 -0.63276 -3.40877 0
M  V30 747 C 71.6549 -1.76437 -3.91367 0
M  V30 748 C 70.8879 -1.37997 -5.15551 0
M  V30 749 O 71.1109 -0.265357 -5.69782 0
M  V30 750 O 70.0449 -2.20201 -5.60174 0
M  V30 751 H 73.8709 -1.98086 -2.30208 0
M  V30 752 H 71.4559 -1.02332 -1.08851 0
M  V30 753 H 73.3379 -0.418761 -4.19314 0
M  V30 754 H 72.0129 0.282754 -3.22463 0
M  V30 755 H 70.9199 -2.03304 -3.14036 0
M  V30 756 H 72.2529 -2.6583 -4.14241 0
M  V30 757 N 73.905 1.17692 -1.04816 0
M  V30 758 C 75.153 1.87488 -0.754497 0
M  V30 759 C 75.474 1.81205 0.720407 0
M  V30 760 O 74.744 1.23544 1.52032 0
M  V30 761 H 73.324 0.694101 -0.276102 0
M  V30 762 H 75.986 1.42793 -1.32651 0
M  V30 763 H 75.082 2.93328 -1.06606 0
M  V30 764 N 75.3831 0.828654 1.34056 0
M  V30 765 C 76.7991 0.515135 1.51058 0
M  V30 766 C 76.9991 -0.959581 1.77184 0
M  V30 767 O 76.0551 -1.74382 1.82612 0
M  V30 768 C 77.3681 1.37963 2.67183 0
M  V30 769 C 78.9161 1.37735 2.81066 0
M  V30 770 C 79.3911 2.22645 4.00241 0
M  V30 771 N 80.8821 2.203 4.07458 0
M  V30 772 C 81.6171 2.82744 4.98842 0
M  V30 773 N 81.1131 3.54201 5.9541 0
M  V30 774 N 82.9061 2.72268 4.91759 0
M  V30 775 H 75.0571 1.78343 1.15358 0
M  V30 776 H 77.3201 0.760304 0.566252 0
M  V30 777 H 77.0261 2.42714 2.54525 0
M  V30 778 H 76.9001 1.0484 3.62338 0
M  V30 779 H 79.2871 0.337593 2.93163 0
M  V30 780 H 79.3681 1.74859 1.86703 0
M  V30 781 H 79.0121 3.26674 3.88905 0
M  V30 782 H 78.9421 1.82869 4.93829 0
M  V30 783 H 81.4331 1.68327 3.38341 0
M  V30 784 H 81.7461 3.9908 6.61782 0
M  V30 785 H 80.0911 3.58308 5.95517 0
M  V30 786 H 83.2821 2.16014 4.15278 0
M  V30 787 H 83.4551 3.21219 5.62781 0
M  V30 788 N 76.8612 -1.46375 0.584142 0
M  V30 789 C 78.0892 -2.06761 0.0759296 0
M  V30 790 C 78.5042 -1.43266 -1.22965 0
M  V30 791 O 77.8612 -0.538458 -1.74376 0
M  V30 792 C 77.9122 -3.61375 -0.0950384 0
M  V30 793 O 77.6332 -4.22495 1.15887 0
M  V30 794 C 79.1342 -4.38693 -0.637434 0
M  V30 795 H 76.3542 -0.668479 0.0581075 0
M  V30 796 H 78.8982 -1.8798 0.805218 0
M  V30 797 H 77.0532 -3.79578 -0.774554 0
M  V30 798 H 77.4672 -5.15385 0.973598 0
M  V30 799 H 78.9412 -5.47464 -0.706237 0
M  V30 800 H 79.4182 -4.06836 -1.65472 0
M  V30 801 H 80.0242 -4.25299 0.00725967 0
M  V30 802 N 78.3393 -0.321999 -1.54275 0
M  V30 803 C 79.5643 0.285791 -2.05422 0
M  V30 804 C 79.9893 1.45124 -1.19669 0
M  V30 805 O 79.3473 1.80132 -0.205441 0
M  V30 806 C 79.3953 0.69956 -3.53749 0
M  V30 807 O 78.4993 1.8021 -3.70942 0
M  V30 808 H 77.8403 0.0518962 -0.661969 0
M  V30 809 H 80.3703 -0.469954 -1.9913 0
M  V30 810 H 80.3803 0.982649 -3.9599 0
M  V30 811 H 79.0553 -0.152864 -4.15619 0
M  V30 812 H 77.6323 1.51794 -3.40607 0
M  V30 813 N 79.8174 1.5752 -0.0501392 0
M  V30 814 C 81.0644 1.9265 0.623874 0
M  V30 815 C 81.3924 0.928411 1.70912 0
M  V30 816 O 80.6474 -0.0594525 1.9561 0
M  V30 817 C 80.9464 3.34467 1.25963 0
M  V30 818 C 80.6124 4.49883 0.302689 0
M  V30 819 C 79.2744 4.81184 0.0393636 0
M  V30 820 C 81.6264 5.20002 -0.353205 0
M  V30 821 C 78.9544 5.79951 -0.887308 0
M  V30 822 C 81.3064 6.1976 -1.26806 0
M  V30 823 C 79.9704 6.49491 -1.54007 0
M  V30 824 H 79.2404 0.704957 0.228292 0
M  V30 825 H 81.8874 1.91146 -0.116398 0
M  V30 826 H 80.1924 3.32333 2.07514 0
M  V30 827 H 81.8894 3.58928 1.78806 0
M  V30 828 H 78.4794 4.25457 0.518109 0
M  V30 829 H 82.6634 4.96033 -0.162854 0
M  V30 830 H 77.9194 6.01322 -1.10553 0
M  V30 831 H 82.0934 6.73205 -1.78236 0
M  V30 832 H 79.7204 7.25837 -2.25976 0
M  V30 833 N 81.2955 -0.223234 1.56011 0
M  V30 834 C 82.7065 -0.790368 1.69145 0
M  V30 835 C 83.0575 -1.85055 0.651845 0
M  V30 836 O 82.1825 -2.15498 -0.197359 0
M  V30 837 C 82.7775 -1.4404 3.06656 0
M  V30 838 C 81.3365 -1.95494 3.2165 0
M  V30 839 C 80.4835 -0.814506 2.65068 0
M  V30 840 H 83.4345 0.00139011 1.587 0
M  V30 841 H 83.4555 -2.30916 3.0242 0
M  V30 842 H 82.9675 -0.668543 3.82298 0
M  V30 843 H 81.0685 -2.75487 2.50874 0
M  V30 844 H 81.1815 -2.13607 4.28846 0
M  V30 845 H 79.5455 -1.22137 2.23505 0
M  V30 846 H 80.3285 -0.0553515 3.43255 0
M  V30 847 N 82.7736 -1.49793 -0.48987 0
M  V30 848 C 83.6836 -1.70036 -1.61632 0
M  V30 849 C 84.6996 -0.583102 -1.63939 0
M  V30 850 O 85.8756 -0.859169 -1.82154 0
M  V30 851 C 82.9406 -1.77277 -2.97949 0
M  V30 852 C 82.0016 -3.00918 -3.06181 0
M  V30 853 C 81.2346 -3.07804 -4.35996 0
M  V30 854 O 81.4576 -2.21982 -5.25433 0
M  V30 855 O 80.3916 -4.00369 -4.49431 0
M  V30 856 H 84.2176 -2.65486 -1.47482 0
M  V30 857 H 81.8026 -1.33666 -0.667362 0
M  V30 858 H 83.6846 -1.84329 -3.78947 0
M  V30 859 H 82.3596 -0.850076 -3.12339 0
M  V30 860 H 81.2666 -2.99377 -2.2433 0
M  V30 861 H 82.5996 -3.92704 -2.96723 0
M  V30 862 N 84.2517 0.741722 -1.39055 0
M  V30 863 C 85.5287 1.49252 -1.26425 0
M  V30 864 C 85.9087 2.10705 0.129144 0
M  V30 865 O 85.2567 1.98045 1.13976 0
M  V30 866 C 85.4667 2.54934 -2.38347 0
M  V30 867 C 86.8147 3.21506 -2.77343 0
M  V30 868 O 87.8387 2.65245 -2.37747 0
M  V30 869 O 86.6977 4.23294 -3.45665 0
M  V30 870 H 83.7917 0.662451 -0.495064 0
M  V30 871 H 86.3377 0.776121 -1.50912 0
M  V30 872 H 85.1097 2.07857 -3.31529 0
M  V30 873 H 84.7327 3.34141 -2.15489 0
M  V30 874 N 85.7298 1.2412 0.971189 0
M  V30 875 C 86.9578 1.10575 1.74874 0
M  V30 876 C 87.3728 -0.342017 1.85676 0
M  V30 877 O 86.7298 -1.23617 1.34258 0
M  V30 878 C 86.7808 1.73579 3.171 0
M  V30 879 O 86.5018 3.12695 3.06844 0
M  V30 880 C 88.0028 1.65598 4.11208 0
M  V30 881 H 85.2228 0.386504 0.548503 0
M  V30 882 H 87.7668 1.64156 1.21955 0
M  V30 883 H 85.9218 1.24009 3.67016 0
M  V30 884 H 86.3358 3.43412 3.96445 0
M  V30 885 H 87.8098 2.1437 5.08674 0
M  V30 886 H 88.2868 0.616532 4.34851 0
M  V30 887 H 88.8928 2.14578 3.67201 0
M  V30 888 N 87.2079 -1.17134 1.05439 0
M  V30 889 C 88.4539 -1.87733 0.767077 0
M  V30 890 C 88.7869 -1.8098 -0.704253 0
M  V30 891 O 88.0619 -1.21951 -1.5152 0
M  V30 892 C 88.3449 -3.37659 1.25133 0
M  V30 893 C 88.1979 -3.53149 2.78578 0
M  V30 894 C 89.5169 -4.31768 0.852324 0
M  V30 895 H 86.6359 -0.681687 0.280129 0
M  V30 896 H 89.2779 -1.37732 1.30881 0
M  V30 897 H 87.4279 -3.80373 0.790469 0
M  V30 898 H 89.0999 -3.19434 3.32806 0
M  V30 899 H 87.3429 -2.95345 3.17732 0
M  V30 900 H 88.0139 -4.58403 3.07523 0
M  V30 901 H 90.4899 -3.96909 1.24911 0
M  V30 902 H 89.3659 -5.35199 1.21873 0
M  V30 903 H 89.6269 -4.41429 -0.243485 0
M  V30 904 N 88.686 -0.835752 -1.33615 0
M  V30 905 C 89.935 -0.426289 -1.97144 0
M  V30 906 C 90.248 1.01912 -1.66953 0
M  V30 907 O 91.454 1.53311 -2.24072 0
M  V30 908 C 89.91 -0.711321 -3.52801 0
M  V30 909 C 89.518 -2.1712 -3.91871 0
M  V30 910 C 91.262 -0.368654 -4.22896 0
M  V30 911 C 89.169 -2.40044 -5.40493 0
M  V30 912 H 88.099 -0.15567 -0.737755 0
M  V30 913 H 90.75 -1.0239 -1.52278 0
M  V30 914 H 89.132 -0.0433766 -3.95976 0
M  V30 915 H 90.306 -2.87936 -3.59763 0
M  V30 916 H 88.621 -2.47654 -3.34749 0
M  V30 917 H 91.218 -0.517601 -5.32189 0
M  V30 918 H 91.561 0.688078 -4.10574 0
M  V30 919 H 92.094 -0.991702 -3.8524 0
M  V30 920 H 88.833 -3.44271 -5.57815 0
M  V30 921 H 88.353 -1.73785 -5.74072 0
M  V30 922 H 90.032 -2.23042 -6.0734 0
M  V30 923 N 90.1641 1.46063 -0.591896 0
M  V30 924 C 91.3921 2.06717 -0.0868936 0
M  V30 925 C 91.8071 1.43916 1.22203 0
M  V30 926 O 91.1641 0.547698 1.74088 0
M  V30 927 C 91.2151 3.6142 0.0758725 0
M  V30 928 O 90.9361 4.21874 -1.18126 0
M  V30 929 C 92.4371 4.39025 0.61416 0
M  V30 930 H 89.6571 0.668162 -0.0616518 0
M  V30 931 H 92.2011 1.8755 -0.815175 0
M  V30 932 H 90.3561 3.79983 0.754413 0
M  V30 933 H 90.7701 5.14861 -1.00092 0
M  V30 934 H 92.2441 5.4783 0.677193 0
M  V30 935 H 92.7211 4.07708 1.63312 0
M  V30 936 H 93.3271 4.2529 -0.0298142 0
M  V30 937 N 91.6422 0.330177 1.54103 0
M  V30 938 C 92.8722 -0.271784 2.04805 0
M  V30 939 C 93.2802 -1.45816 1.20559 0
M  V30 940 O 92.6232 -1.82247 0.2306 0
M  V30 941 C 92.6852 -0.763238 3.51305 0
M  V30 942 C 92.3492 0.301705 4.56003 0
M  V30 943 C 93.3462 1.13999 5.07248 0
M  V30 944 C 91.0312 0.451793 5.00264 0
M  V30 945 C 93.0252 2.11402 6.01322 0
M  V30 946 C 90.7122 1.42924 5.94151 0
M  V30 947 C 91.7102 2.25882 6.44567 0
M  V30 948 O 91.3982 3.21965 7.3661 0
M  V30 949 H 91.1302 -0.058693 0.673447 0
M  V30 950 H 93.6842 0.476395 1.99799 0
M  V30 951 H 91.9142 -1.56244 3.5373 0
M  V30 952 H 93.6032 -1.28427 3.85047 0
M  V30 953 H 94.3692 1.03505 4.73827 0
M  V30 954 H 90.2482 -0.184044 4.60632 0
M  V30 955 H 93.7922 2.76192 6.40596 0
M  V30 956 H 89.6892 1.53479 6.26988 0
M  V30 957 H 90.4572 3.17281 7.54503 0
M  V30 958 N 93.1203 -1.57491 0.0584922 0
M  V30 959 C 94.0673 -2.11958 -0.913376 0
M  V30 960 C 95.0373 -1.02875 -1.30407 0
M  V30 961 O 96.2223 -1.30464 -1.39226 0
M  V30 962 C 93.3623 -2.67497 -2.18035 0
M  V30 963 C 92.4753 -3.90691 -1.84349 0
M  V30 964 C 91.6103 -4.3452 -3.05559 0
M  V30 965 C 90.6493 -5.50395 -2.67827 0
M  V30 966 N 89.7863 -5.89244 -3.81754 0
M  V30 967 H 94.6263 -2.94704 -0.442017 0
M  V30 968 H 92.1633 -1.45643 -0.206545 0
M  V30 969 H 94.1213 -2.978 -2.92183 0
M  V30 970 H 92.7513 -1.87537 -2.62735 0
M  V30 971 H 91.8033 -3.66934 -1.00319 0
M  V30 972 H 93.1153 -4.7489 -1.5258 0
M  V30 973 H 92.2693 -4.66414 -3.87998 0
M  V30 974 H 91.0083 -3.49147 -3.40511 0
M  V30 975 H 90.0133 -5.18165 -1.83806 0
M  V30 976 H 91.2383 -6.3749 -2.34059 0
M  V30 977 H 89.1843 -5.06823 -4.16493 0
M  V30 978 H 89.1013 -6.68151 -3.53708 0
M  V30 979 H 90.3693 -6.25756 -4.64811 0
M  V30 980 N 94.5984 0.214957 -1.56127 0
M  V30 981 C 95.8384 0.945364 -1.81224 0
M  V30 982 C 96.2024 1.81265 -0.633005 0
M  V30 983 O 97.4034 2.57731 -0.763423 0
M  V30 984 C 95.6744 1.75665 -3.1125 0
M  V30 985 S 97.2334 2.54179 -3.57685 0
M  V30 986 H 94.0514 0.317443 -0.6362 0
M  V30 987 H 96.6534 0.210381 -1.94365 0
M  V30 988 H 95.3574 1.10977 -3.9511 0
M  V30 989 H 94.8884 2.53381 -3.00934 0
M  V30 990 H 96.9034 3.7792 -3.21545 0
M  V30 991 N 96.0765 1.50051 0.48192 0
M  V30 992 C 96.9865 1.7089 1.60728 0
M  V30 993 C 98.0025 0.591788 1.63627 0
M  V30 994 O 99.1785 0.868817 1.81696 0
M  V30 995 C 96.2435 1.78855 2.97005 0
M  V30 996 C 95.3045 3.02537 3.04581 0
M  V30 997 C 94.5375 3.10112 4.34357 0
M  V30 998 O 94.7605 2.24765 5.24249 0
M  V30 999 O 93.6945 4.02747 4.47301 0
M  V30 1000 H 97.5205 2.66264 1.46072 0
M  V30 1001 H 95.1055 1.34018 0.660264 0
M  V30 1002 H 96.9875 1.86336 3.77964 0
M  V30 1003 H 95.6625 0.866628 3.11883 0
M  V30 1004 H 94.5695 3.00563 2.22739 0
M  V30 1005 H 95.9025 3.94272 2.94636 0
M  V30 1006 N 97.5546 -0.734337 1.39446 0
M  V30 1007 C 98.4646 -1.87879 1.40495 0
M  V30 1008 C 99.4806 -1.714 0.299672 0
M  V30 1009 O 100.657 -1.93991 0.541249 0
M  V30 1010 C 97.7216 -3.23477 1.24754 0
M  V30 1011 C 96.7826 -3.52344 2.45259 0
M  V30 1012 C 96.0156 -4.81473 2.30259 0
M  V30 1013 O 96.2386 -5.55237 1.30643 0
M  V30 1014 O 95.1726 -5.10254 3.19256 0
M  V30 1015 H 98.9986 -1.89949 2.36966 0
M  V30 1016 H 96.5836 -0.882243 1.20569 0
M  V30 1017 H 98.4656 -4.04509 1.18111 0
M  V30 1018 H 97.1406 -3.22176 0.313781 0
M  V30 1019 H 96.0476 -2.71396 2.57478 0
M  V30 1020 H 97.3806 -3.58426 3.37331 0
M  V30 1021 N 99.0327 -1.24633 -0.964593 0
M  V30 1022 C 100.258 -1.11596 -1.74818 0
M  V30 1023 C 100.683 0.32723 -1.85232 0
M  V30 1024 O 100.041 1.23695 -1.32549 0
M  V30 1025 C 100.089 -1.76397 -3.1451 0
M  V30 1026 O 99.1927 -1.03685 -3.99153 0
M  V30 1027 H 98.5337 -0.390196 -0.537255 0
M  V30 1028 H 101.064 -1.65002 -1.20977 0
M  V30 1029 H 101.074 -1.8228 -3.65018 0
M  V30 1030 H 99.7487 -2.81401 -3.06246 0
M  V30 1031 H 98.3257 -1.05611 -3.57632 0
M  V30 1032 N 100.511 1.16574 -1.06058 0
M  V30 1033 C 101.758 1.87047 -0.775873 0
M  V30 1034 C 102.086 1.81562 0.697534 0
M  V30 1035 O 101.341 1.22445 1.52662 0
M  V30 1036 C 101.64 3.36195 -1.21275 0
M  V30 1037 C 101.306 3.6188 -2.68986 0
M  V30 1038 C 99.9678 3.68599 -3.09335 0
M  V30 1039 C 102.32 3.72648 -3.64394 0
M  V30 1040 C 99.6478 3.83584 -4.43937 0
M  V30 1041 C 102 3.89154 -4.98741 0
M  V30 1042 C 100.664 3.94114 -5.3873 0
M  V30 1043 H 99.9338 0.684452 -0.283912 0
M  V30 1044 H 102.581 1.37853 -1.32925 0
M  V30 1045 H 100.886 3.87505 -0.578528 0
M  V30 1046 H 102.583 3.89103 -0.969542 0
M  V30 1047 H 99.1728 3.57281 -2.36744 0
M  V30 1048 H 103.357 3.66769 -3.34356 0
M  V30 1049 H 98.6128 3.85677 -4.74409 0
M  V30 1050 H 102.787 3.96427 -5.72554 0
M  V30 1051 H 100.414 4.05478 -6.43033 0
M  V30 1052 N 101.989 0.842826 1.3317 0
M  V30 1053 C 103.235 0.441099 1.97945 0
M  V30 1054 C 103.568 -0.998024 1.66593 0
M  V30 1055 O 102.843 -1.69839 0.947898 0
M  V30 1056 C 103.126 0.666841 3.53872 0
M  V30 1057 C 102.979 2.15352 3.94897 0
M  V30 1058 C 104.298 0.115544 4.39948 0
M  V30 1059 H 101.417 0.161739 0.719034 0
M  V30 1060 H 104.059 1.05907 1.57746 0
M  V30 1061 H 102.209 0.140828 3.88245 0
M  V30 1062 H 103.881 2.7447 3.70761 0
M  V30 1063 H 102.124 2.63653 3.44484 0
M  V30 1064 H 102.795 2.26221 5.03516 0
M  V30 1065 H 105.271 0.565213 4.12243 0
M  V30 1066 H 104.147 0.303152 5.48062 0
M  V30 1067 H 104.408 -0.980935 4.3108 0
M  V30 1068 N 103.467 -1.45747 0.599634 0
M  V30 1069 C 104.414 -2.30467 -0.123849 0
M  V30 1070 C 105.384 -1.41632 -0.86774 0
M  V30 1071 O 106.569 -1.70568 -0.855056 0
M  V30 1072 C 103.709 -3.26402 -1.12051 0
M  V30 1073 C 102.822 -4.3034 -0.37832 0
M  V30 1074 C 101.957 -5.13389 -1.364 0
M  V30 1075 C 100.996 -6.09061 -0.609171 0
M  V30 1076 N 100.133 -6.84918 -1.54374 0
M  V30 1077 H 104.973 -2.91802 0.604627 0
M  V30 1078 H 102.51 -1.43797 0.309972 0
M  V30 1079 H 104.468 -3.80482 -1.7114 0
M  V30 1080 H 103.098 -2.66839 -1.8165 0
M  V30 1081 H 102.15 -3.78984 0.327929 0
M  V30 1082 H 103.462 -4.98354 0.210997 0
M  V30 1083 H 102.616 -5.7183 -2.02719 0
M  V30 1084 H 101.355 -4.45376 -1.98725 0
M  V30 1085 H 100.36 -5.49758 0.0676979 0
M  V30 1086 H 101.585 -6.79099 0.00891991 0
M  V30 1087 H 99.531 -6.19601 -2.15478 0
M  V30 1088 H 99.448 -7.49254 -1.00766 0
M  V30 1089 H 100.716 -7.47906 -2.19676 0
M  V30 1090 N 104.945 -0.338344 -1.53925 0
M  V30 1091 C 106.194 0.260732 -2.00008 0
M  V30 1092 C 106.507 1.52073 -1.23017 0
M  V30 1093 O 107.713 2.19672 -1.5955 0
M  V30 1094 C 106.169 0.51515 -3.56194 0
M  V30 1095 C 105.777 -0.728645 -4.42035 0
M  V30 1096 C 107.521 1.07337 -4.10706 0
M  V30 1097 C 105.428 -0.445315 -5.89721 0
M  V30 1098 H 104.358 0.101205 -0.747177 0
M  V30 1099 H 107.009 -0.452866 -1.77824 0
M  V30 1100 H 105.391 1.28932 -3.74423 0
M  V30 1101 H 106.565 -1.50352 -4.35581 0
M  V30 1102 H 104.88 -1.20813 -3.98489 0
M  V30 1103 H 107.477 1.30022 -5.18651 0
M  V30 1104 H 107.82 2.0273 -3.63602 0
M  V30 1105 H 108.353 0.360034 -3.96167 0
M  V30 1106 H 105.092 -1.36883 -6.41049 0
M  V30 1107 H 104.612 0.291569 -5.99091 0
M  V30 1108 H 106.291 -0.0606218 -6.46972 0
M  V30 1109 N 106.423 1.57458 -0.0668435 0
M  V30 1110 C 107.834 1.80776 0.466558 0
M  V30 1111 C 108.185 0.980361 1.69951 0
M  V30 1112 O 107.31 0.201441 2.1546 0
M  V30 1113 C 107.905 3.27881 0.85321 0
M  V30 1114 C 106.464 3.52062 1.3315 0
M  V30 1115 C 105.611 2.75513 0.314264 0
M  V30 1116 H 108.562 1.5598 -0.292588 0
M  V30 1117 H 108.583 3.39659 1.715 0
M  V30 1118 H 108.095 3.88075 -0.0443439 0
M  V30 1119 H 106.196 2.97167 2.24772 0
M  V30 1120 H 106.309 4.60762 1.31285 0
M  V30 1121 H 104.673 2.42123 0.790492 0
M  V30 1122 H 105.456 3.38442 -0.575477 0
M  V30 1123 N 107.901 -0.206675 1.56239 0
M  V30 1124 C 109.149 -0.927007 1.79586 0
M  V30 1125 C 109.47 -1.8427 0.637929 0
M  V30 1126 O 108.74 -1.92849 -0.344398 0
M  V30 1127 H 107.32 -0.345292 0.662407 0
M  V30 1128 H 109.982 -0.21496 1.93711 0
M  V30 1129 H 109.078 -1.52501 2.72305 0
M  V30 1130 N 109.379 -1.50304 -0.473955 0
M  V30 1131 C 110.289 -1.7174 -1.5982 0
M  V30 1132 C 111.305 -0.600457 -1.63311 0
M  V30 1133 O 112.481 -0.878441 -1.81233 0
M  V30 1134 C 109.546 -1.80427 -2.96052 0
M  V30 1135 C 108.607 -3.04148 -3.02972 0
M  V30 1136 C 107.84 -3.12411 -4.32706 0
M  V30 1137 O 108.063 -2.27542 -5.23049 0
M  V30 1138 O 106.997 -4.05113 -4.45159 0
M  V30 1139 H 110.823 -2.67035 -1.44657 0
M  V30 1140 H 108.408 -1.34366 -0.653148 0
M  V30 1141 H 110.29 -1.88338 -3.7697 0
M  V30 1142 H 108.965 -0.883156 -3.11419 0
M  V30 1143 H 107.872 -3.0174 -2.21142 0
M  V30 1144 H 109.205 -3.95829 -2.92541 0
M  V30 1145 N 110.857 0.726932 -1.39834 0
M  V30 1146 C 111.804 1.841 -1.39197 0
M  V30 1147 C 112.774 1.642 -0.250502 0
M  V30 1148 O 113.959 1.85494 -0.446846 0
M  V30 1149 C 111.099 3.21697 -1.24919 0
M  V30 1150 C 110.212 3.53247 -2.48678 0
M  V30 1151 C 109.347 4.80289 -2.26928 0
M  V30 1152 C 108.386 5.04707 -3.4632 0
M  V30 1153 N 107.523 6.22956 -3.23836 0
M  V30 1154 H 112.363 1.83979 -2.34427 0
M  V30 1155 H 109.9 0.898876 -1.16442 0
M  V30 1156 H 111.858 4.01137 -1.1465 0
M  V30 1157 H 110.488 3.21076 -0.333153 0
M  V30 1158 H 109.54 2.68447 -2.69519 0
M  V30 1159 H 110.852 3.67205 -3.37582 0
M  V30 1160 H 110.006 5.67725 -2.13947 0
M  V30 1161 H 108.745 4.68519 -1.35431 0
M  V30 1162 H 107.75 4.1573 -3.5979 0
M  V30 1163 H 108.975 5.18357 -4.38729 0
M  V30 1164 H 106.921 6.12459 -2.35011 0
M  V30 1165 H 106.838 6.37539 -4.063 0
M  V30 1166 H 108.106 7.1321 -3.14566 0
M  V30 1167 N 112.336 1.25143 0.95797 0
M  V30 1168 C 113.613 1.00472 1.67823 0
M  V30 1169 C 113.993 -0.470056 2.058 0
M  V30 1170 O 113.341 -1.44663 1.76875 0
M  V30 1171 C 113.551 1.9372 2.90299 0
M  V30 1172 C 114.899 2.21371 3.62326 0
M  V30 1173 O 115.923 1.91451 3.00375 0
M  V30 1174 O 114.782 2.72231 4.7387 0
M  V30 1175 H 111.876 0.380752 0.734137 0
M  V30 1176 H 114.422 1.36283 1.01119 0
M  V30 1177 H 113.194 2.93316 2.59001 0
M  V30 1178 H 112.817 1.58286 3.64735 0
M  V30 1179 N 113.814 -1.1601 1.06675 0
M  V30 1180 C 115.039 -1.91068 0.806706 0
M  V30 1181 C 115.464 -1.77112 -0.633485 0
M  V30 1182 O 114.822 -1.09908 -1.44187 0
M  V30 1183 C 114.87 -3.39655 1.21106 0
M  V30 1184 O 113.974 -4.10893 0.352189 0
M  V30 1185 H 113.315 -0.595125 0.294486 0
M  V30 1186 H 115.845 -1.46955 1.42356 0
M  V30 1187 H 115.855 -3.90434 1.18428 0
M  V30 1188 H 114.53 -3.49132 2.26008 0
M  V30 1189 H 113.107 -3.70285 0.440868 0
M  V30 1190 N 115.292 -0.849877 -1.32721 0
M  V30 1191 C 116.538 -0.451591 -1.97708 0
M  V30 1192 C 116.871 0.989175 -1.6712 0
M  V30 1193 O 116.146 1.69334 -0.956891 0
M  V30 1194 C 116.429 -0.685598 -3.53513 0
M  V30 1195 C 116.282 -2.17444 -3.93749 0
M  V30 1196 C 117.601 -0.138874 -4.39881 0
M  V30 1197 H 114.72 -0.16555 -0.718166 0
M  V30 1198 H 117.362 -1.06742 -1.57182 0
M  V30 1199 H 115.512 -0.161416 -3.88165 0
M  V30 1200 H 117.184 -2.76433 -3.693 0
M  V30 1201 H 115.427 -2.65476 -3.43081 0
M  V30 1202 H 116.098 -2.28888 -5.02309 0
M  V30 1203 H 118.574 -0.587068 -4.11938 0
M  V30 1204 H 117.45 -0.332213 -5.47894 0
M  V30 1205 H 117.711 0.95806 -4.31594 0
M  V30 1206 N 116.77 1.45427 -0.607355 0
M  V30 1207 C 118.019 2.01452 -0.100036 0
M  V30 1208 C 118.332 1.48159 1.27704 0
M  V30 1209 O 119.538 1.96159 1.87707 0
M  V30 1210 C 117.994 3.59672 -0.128158 0
M  V30 1211 C 117.602 4.21962 -1.50507 0
M  V30 1212 C 119.346 4.23262 0.323932 0
M  V30 1213 C 117.253 5.72333 -1.48959 0
M  V30 1214 H 116.183 0.75325 -0.0336299 0
M  V30 1215 H 118.834 1.66901 -0.76265 0
M  V30 1216 H 117.216 3.91411 0.601105 0
M  V30 1217 H 118.39 4.01796 -2.25602 0
M  V30 1218 H 116.705 3.70565 -1.89923 0
M  V30 1219 H 119.302 5.33522 0.354691 0
M  V30 1220 H 119.645 3.93921 1.34656 0
M  V30 1221 H 120.178 3.96239 -0.352056 0
M  V30 1222 H 116.917 6.06373 -2.48981 0
M  V30 1223 H 116.437 5.94691 -0.781214 0
M  V30 1224 H 118.116 6.35525 -1.21313 0
M  V30 1225 N 118.248 0.346503 1.53744 0
M  V30 1226 C 119.488 -0.249413 2.02873 0
M  V30 1227 C 119.852 -1.47532 1.22876 0
M  V30 1228 O 121.053 -2.1456 1.61918 0
M  V30 1229 C 119.324 -0.552909 3.53097 0
M  V30 1230 S 120.883 -1.12521 4.24128 0
M  V30 1231 H 117.701 -0.074042 0.707134 0
M  V30 1232 H 120.303 0.48495 1.8939 0
M  V30 1233 H 119.007 0.347083 4.0893 0
M  V30 1234 H 118.538 -1.31686 3.70705 0
M  V30 1235 H 120.553 -2.41075 4.33702 0
M  V30 1236 N 119.726 -1.57421 0.075193 0
M  V30 1237 C 120.656 -2.15942 -0.888324 0
M  V30 1238 C 121.637 -1.08737 -1.30806 0
M  V30 1239 O 122.822 -1.36787 -1.37851 0
M  V30 1240 C 119.952 -2.72379 -2.1547 0
M  V30 1241 C 118.906 -3.8478 -1.87425 0
M  V30 1242 C 118.232 -4.27834 -3.20721 0
M  V30 1243 C 119.532 -5.08869 -1.17684 0
M  V30 1244 H 121.226 -2.96705 -0.400799 0
M  V30 1245 H 118.772 -1.42723 -0.191342 0
M  V30 1246 H 120.725 -3.11965 -2.83295 0
M  V30 1247 H 119.449 -1.88841 -2.6647 0
M  V30 1248 H 118.108 -3.45703 -1.22004 0
M  V30 1249 H 117.756 -3.41214 -3.6957 0
M  V30 1250 H 117.456 -5.03605 -3.02746 0
M  V30 1251 H 118.98 -4.70039 -3.89738 0
M  V30 1252 H 120.394 -5.4575 -1.75584 0
M  V30 1253 H 118.791 -5.8994 -1.09956 0
M  V30 1254 H 119.861 -4.84648 -0.156453 0
M  V30 1255 N 121.204 0.198386 -1.56346 0
M  V30 1256 C 122.151 1.24589 -1.94284 0
M  V30 1257 C 123.121 1.454 -0.802997 0
M  V30 1258 O 124.306 1.58588 -1.06087 0
M  V30 1259 C 121.446 2.58631 -2.28482 0
M  V30 1260 C 120.559 2.45426 -3.55514 0
M  V30 1261 C 119.694 3.7215 -3.79049 0
M  V30 1262 C 118.733 3.53763 -4.99518 0
M  V30 1263 N 117.87 4.72491 -5.19323 0
M  V30 1264 H 122.71 0.915356 -2.83593 0
M  V30 1265 H 120.247 0.440629 -1.40346 0
M  V30 1266 H 122.205 3.3672 -2.46324 0
M  V30 1267 H 120.835 2.89734 -1.42317 0
M  V30 1268 H 119.887 1.58652 -3.45737 0
M  V30 1269 H 121.199 2.27772 -4.43758 0
M  V30 1270 H 120.353 4.58679 -3.97113 0
M  V30 1271 H 119.092 3.92754 -2.89129 0
M  V30 1272 H 118.097 2.65619 -4.8138 0
M  V30 1273 H 119.322 3.34607 -5.90944 0
M  V30 1274 H 117.268 4.93365 -4.3235 0
M  V30 1275 H 117.185 4.5765 -6.01741 0
M  V30 1276 H 118.453 5.6038 -5.41843 0
M  V30 1277 N 122.682 1.50554 0.465978 0
M  V30 1278 C 123.93 1.61479 1.21528 0
M  V30 1279 C 124.251 0.319596 1.92363 0
M  V30 1280 O 123.521 -0.663194 1.84333 0
M  V30 1281 H 122.101 0.595055 0.451573 0
M  V30 1282 H 124.763 1.87355 0.53704 0
M  V30 1283 H 123.859 2.42846 1.96042 0
M  V30 1284 N 124.16 -0.719506 1.40217 0
M  V30 1285 C 125.385 -1.51371 1.4178 0
M  V30 1286 C 125.81 -1.88091 0.0182355 0
M  V30 1287 O 125.168 -1.52997 -0.972707 0
M  V30 1288 C 125.216 -2.768 2.31115 0
M  V30 1289 O 124.32 -3.73349 1.7517 0
M  V30 1290 H 123.661 -0.456529 0.482159 0
M  V30 1291 H 126.191 -0.88644 1.844 0
M  V30 1292 H 126.201 -3.25371 2.46167 0
M  V30 1293 H 124.876 -2.49407 3.3282 0
M  V30 1294 H 123.453 -3.32179 1.69444 0
M  V30 1295 N 125.638 -1.25649 -0.95132 0
M  V30 1296 C 126.57 -1.02112 -2.05197 0
M  V30 1297 C 127.583 0.0150571 -1.62793 0
M  V30 1298 O 128.772 -0.223874 -1.77091 0
M  V30 1299 C 125.872 -0.522361 -3.3485 0
M  V30 1300 C 125.045 -1.62546 -4.06076 0
M  V30 1301 C 124.104 -1.12649 -5.14001 0
M  V30 1302 O 123.13 -1.82156 -5.39266 0
M  V30 1303 N 124.332 0.03047 -5.80492 0
M  V30 1304 H 127.097 -1.96885 -2.25957 0
M  V30 1305 H 124.658 -1.16899 -1.1201 0
M  V30 1306 H 126.65 -0.172961 -4.0433 0
M  V30 1307 H 125.22 0.33151 -3.10837 0
M  V30 1308 H 124.44 -2.14628 -3.30649 0
M  V30 1309 H 125.728 -2.36644 -4.50419 0
M  V30 1310 H 125.126 0.611169 -5.62389 0
M  V30 1311 H 123.683 0.320875 -6.5101 0
M  V30 1312 N 127.117 1.15442 -1.07289 0
M  V30 1313 C 128.363 1.8672 -0.806679 0
M  V30 1314 C 128.718 1.80723 0.660084 0
M  V30 1315 O 128.011 1.21902 1.47819 0
M  V30 1316 C 128.205 3.3489 -1.24834 0
M  V30 1317 C 128.034 3.55313 -2.7565 0
M  V30 1318 C 126.804 3.7082 -3.4325 0
M  V30 1319 C 129.002 3.53188 -3.73848 0
M  V30 1320 N 126.984 3.7929 -4.82713 0
M  V30 1321 C 128.355 3.67765 -4.99149 0
M  V30 1322 C 130.41 3.36459 -3.67015 0
M  V30 1323 C 129.113 3.6734 -6.18428 0
M  V30 1324 C 131.139 3.37333 -4.85758 0
M  V30 1325 C 130.501 3.52438 -6.09891 0
M  V30 1326 H 126.6 0.700433 -0.347733 0
M  V30 1327 H 129.184 1.38441 -1.36902 0
M  V30 1328 H 127.355 3.81786 -0.713713 0
M  V30 1329 H 129.087 3.93875 -0.929745 0
M  V30 1330 H 125.842 3.71568 -2.93656 0
M  V30 1331 H 126.266 3.8727 -5.55294 0
M  V30 1332 H 130.908 3.237 -2.71989 0
M  V30 1333 H 128.626 3.78878 -7.13777 0
M  V30 1334 H 132.212 3.25617 -4.82146 0
M  V30 1335 H 131.092 3.53047 -7.00234 0
M  V30 1336 N 128.595 0.856903 1.32268 0
M  V30 1337 C 129.82 0.474569 2.01897 0
M  V30 1338 C 130.245 -0.921766 1.63967 0
M  V30 1339 O 129.603 -1.60589 0.84148 0
M  V30 1340 C 129.651 0.623799 3.55164 0
M  V30 1341 O 128.755 -0.342459 4.10976 0
M  V30 1342 H 128.096 0.190422 0.63611 0
M  V30 1343 H 130.626 1.15672 1.68764 0
M  V30 1344 H 130.636 0.512169 4.04773 0
M  V30 1345 H 129.311 1.64202 3.82113 0
M  V30 1346 H 127.888 -0.18688 3.72431 0
M  V30 1347 N 130.073 -1.45103 0.615059 0
M  V30 1348 C 131.35 -1.95549 0.0448276 0
M  V30 1349 C 131.73 -1.55737 -1.4251 0
M  V30 1350 O 131.078 -0.823556 -2.13143 0
M  V30 1351 C 131.288 -3.48098 0.250785 0
M  V30 1352 C 132.636 -4.24384 0.135509 0
M  V30 1353 O 133.66 -3.55738 0.181299 0
M  V30 1354 O 132.519 -5.46493 0.0268878 0
M  V30 1355 H 129.613 -0.8264 -0.0314845 0
M  V30 1356 H 132.159 -1.55232 0.685642 0
M  V30 1357 H 130.931 -3.7007 1.27139 0
M  V30 1358 H 130.554 -3.95323 -0.424937 0
M  V30 1359 N 131.551 -0.354651 -1.53558 0
M  V30 1360 C 132.8 0.239504 -2.00273 0
M  V30 1361 C 133.113 1.50759 -1.24623 0
M  V30 1362 O 134.319 2.17968 -1.61871 0
M  V30 1363 C 132.775 0.477341 -3.5672 0
M  V30 1364 C 132.383 -0.775488 -4.41237 0
M  V30 1365 C 134.127 1.02975 -4.11821 0
M  V30 1366 C 132.034 -0.507838 -5.89216 0
M  V30 1367 H 130.964 0.0932743 -0.748208 0
M  V30 1368 H 133.615 -0.471701 -1.77334 0
M  V30 1369 H 131.997 1.24953 -3.7577 0
M  V30 1370 H 133.171 -1.54963 -4.33962 0
M  V30 1371 H 131.486 -1.25033 -3.97185 0
M  V30 1372 H 134.083 1.24513 -5.2 0
M  V30 1373 H 134.426 1.98862 -3.65731 0
M  V30 1374 H 134.959 0.317994 -3.96527 0
M  V30 1375 H 131.698 -1.43674 -6.39561 0
M  V30 1376 H 131.218 0.228011 -5.99366 0
M  V30 1377 H 132.897 -0.129238 -6.46871 0
M  V30 1378 N 133.029 1.57378 -0.0835403 0
M  V30 1379 C 133.939 2.16897 0.894021 0
M  V30 1380 C 134.955 1.13528 1.31861 0
M  V30 1381 O 136.131 1.45848 1.3889 0
M  V30 1382 C 133.196 2.72831 2.13925 0
M  V30 1383 C 132.257 3.91115 1.76997 0
M  V30 1384 C 131.49 4.44371 2.95584 0
M  V30 1385 O 131.713 3.96596 4.09961 0
M  V30 1386 O 130.647 5.35549 2.74719 0
M  V30 1387 H 134.473 3.00814 0.417679 0
M  V30 1388 H 132.058 1.48741 0.140181 0
M  V30 1389 H 133.94 3.0863 2.86924 0
M  V30 1390 H 132.615 1.91967 2.60635 0
M  V30 1391 H 131.522 3.60148 1.01214 0
M  V30 1392 H 132.855 4.73307 1.3506 0
M  V30 1393 N 134.507 -0.190092 1.56449 0
M  V30 1394 C 135.417 -1.25591 1.98152 0
M  V30 1395 C 136.433 -1.49519 0.889944 0
M  V30 1396 O 137.609 -1.62036 1.19609 0
M  V30 1397 C 134.674 -2.57916 2.3169 0
M  V30 1398 C 133.735 -2.42015 3.5458 0
M  V30 1399 C 132.968 -3.6803 3.8651 0
M  V30 1400 O 133.191 -4.72413 3.1966 0
M  V30 1401 O 132.125 -3.6326 4.79923 0
M  V30 1402 H 135.951 -0.931988 2.89046 0
M  V30 1403 H 133.536 -0.395488 1.4407 0
M  V30 1404 H 135.418 -3.36008 2.54316 0
M  V30 1405 H 134.093 -2.89925 1.43963 0
M  V30 1406 H 133 -1.62017 3.37196 0
M  V30 1407 H 134.333 -2.14937 4.4279 0
M  V30 1408 N 135.985 -1.50799 -0.457987 0
M  V30 1409 C 137.232 -1.62442 -1.20908 0
M  V30 1410 C 137.56 -0.330865 -1.91665 0
M  V30 1411 O 136.815 0.68401 -1.83357 0
M  V30 1412 C 137.114 -2.76358 -2.2663 0
M  V30 1413 C 136.78 -4.16378 -1.73033 0
M  V30 1414 C 135.442 -4.54473 -1.58138 0
M  V30 1415 C 137.794 -5.03836 -1.33413 0
M  V30 1416 C 135.122 -5.77754 -1.02065 0
M  V30 1417 C 137.474 -6.27676 -0.78778 0
M  V30 1418 C 136.138 -6.64562 -0.625561 0
M  V30 1419 H 135.408 -0.594417 -0.442435 0
M  V30 1420 H 138.055 -1.84772 -0.503136 0
M  V30 1421 H 136.36 -2.48167 -3.03184 0
M  V30 1422 H 138.057 -2.82568 -2.84528 0
M  V30 1423 H 134.647 -3.86331 -1.85598 0
M  V30 1424 H 138.831 -4.75026 -1.4375 0
M  V30 1425 H 134.087 -6.04997 -0.882547 0
M  V30 1426 H 138.261 -6.94797 -0.472177 0
M  V30 1427 H 135.888 -7.59965 -0.188926 0
M  V30 1428 N 137.463 0.71206 -1.40597 0
M  V30 1429 C 138.703 1.48438 -1.40519 0
M  V30 1430 C 139.067 1.91998 -0.00767611 0
M  V30 1431 O 140.268 2.6854 0.118239 0
M  V30 1432 C 138.539 2.67514 -2.37004 0
M  V30 1433 S 140.098 3.56875 -2.55315 0
M  V30 1434 H 136.916 0.507457 -0.498005 0
M  V30 1435 H 139.518 0.832355 -1.76896 0
M  V30 1436 H 138.222 2.33689 -3.37368 0
M  V30 1437 H 137.753 3.37625 -2.01923 0
M  V30 1438 H 139.768 4.62081 -1.8082 0
M  V30 1439 N 138.941 1.26152 0.944643 0
M  V30 1440 C 139.889 1.07215 2.06417 0
M  V30 1441 C 140.883 9.2007e-05 1.694 0
M  V30 1442 O 142.089 0.1565 1.79318 0
M  V30 1443 H 138.464 0.329837 0.675805 0
M  V30 1444 H 140.435 2.02099 2.19541 0
M  V30 1445 C 139.184 0.718197 3.40202 0
M  V30 1446 H 138.507 1.53497 3.69159 0
M  V30 1447 H 139.947 0.625459 4.19361 0
M  V30 1448 C 138.406 -0.576435 3.31932 0
M  V30 1449 O 138.936 -1.61574 3.67773 0
M  V30 1450 N 137.142 -0.565781 2.85039 0
M  V30 1451 H 136.689 0.280367 2.5607 0
M  V30 1452 H 136.647 -1.43213 2.79888 0
M  V30 1453 N 140.419 -1.14872 1.07899 0
M  V30 1454 C 141.835 -1.37776 0.805606 0
M  V30 1455 C 142.035 -1.92743 -0.587555 0
M  V30 1456 O 141.091 -2.13678 -1.34528 0
M  V30 1457 C 142.404 -2.34361 1.88402 0
M  V30 1458 C 143.952 -2.48012 1.90942 0
M  V30 1459 C 144.427 -3.47893 2.97883 0
M  V30 1460 N 145.918 -3.55433 2.97021 0
M  V30 1461 C 146.653 -4.32553 3.76412 0
M  V30 1462 N 146.149 -5.12959 4.65666 0
M  V30 1463 N 147.942 -4.27697 3.64735 0
M  V30 1464 H 140.093 -0.775365 1.97742 0
M  V30 1465 H 142.356 -0.403521 0.857831 0
M  V30 1466 H 142.062 -2.01098 2.88535 0
M  V30 1467 H 141.936 -3.34206 1.74889 0
M  V30 1468 H 144.323 -2.8057 0.914579 0
M  V30 1469 H 144.404 -1.48147 2.08534 0
M  V30 1470 H 144.048 -3.16069 3.97571 0
M  V30 1471 H 143.978 -4.47527 2.77538 0
M  V30 1472 H 146.469 -2.98048 2.32326 0
M  V30 1473 H 146.782 -5.69065 5.22862 0
M  V30 1474 H 145.127 -5.12245 4.69712 0
M  V30 1475 H 148.318 -3.63949 2.94378 0
M  V30 1476 H 148.491 -4.8755 4.26848 0
M  V30 1477 N 141.898 -0.863906 -1.31812 0
M  V30 1478 C 143.123 -0.48527 -2.01643 0
M  V30 1479 C 143.548 0.913058 -1.64453 0
M  V30 1480 O 142.906 1.6014 -0.849985 0
M  V30 1481 C 142.954 -0.642625 -3.54828 0
M  V30 1482 O 142.058 0.320659 -4.11151 0
M  V30 1483 H 141.399 -0.193793 -0.635091 0
M  V30 1484 H 143.929 -1.16565 -1.68148 0
M  V30 1485 H 143.939 -0.533628 -4.04495 0
M  V30 1486 H 142.614 -1.66227 -3.81237 0
M  V30 1487 H 141.191 0.167126 -3.72525 0
M  V30 1488 N 143.376 1.44774 -0.622745 0
M  V30 1489 C 144.616 2.04004 -0.127102 0
M  V30 1490 C 144.98 1.47862 1.22478 0
M  V30 1491 O 146.181 1.98541 1.81204 0
M  V30 1492 C 144.452 3.57247 -0.104429 0
M  V30 1493 S 146.011 4.37574 0.327814 0
M  V30 1494 H 142.829 0.708713 -0.0569776 0
M  V30 1495 H 145.431 1.77275 -0.824253 0
M  V30 1496 H 144.135 3.95616 -1.09159 0
M  V30 1497 H 143.666 3.88575 0.614236 0
M  V30 1498 H 145.681 4.70575 1.57395 0
M  V30 1499 N 144.854 0.36279 1.53368 0
M  V30 1500 C 145.764 -0.492994 2.29362 0
M  V30 1501 C 146.78 -1.09507 1.35219 0
M  V30 1502 O 147.956 -1.10662 1.68273 0
M  V30 1503 C 145.021 -1.61855 3.066 0
M  V30 1504 C 144.082 -1.04429 4.16405 0
M  V30 1505 C 143.315 -2.11621 4.89951 0
M  V30 1506 O 143.538 -3.32684 4.63333 0
M  V30 1507 O 142.472 -1.74835 5.75948 0
M  V30 1508 H 146.298 0.125331 3.03441 0
M  V30 1509 H 143.883 0.127253 1.48857 0
M  V30 1510 H 145.765 -2.27302 3.54841 0
M  V30 1511 H 144.44 -2.22233 2.3536 0
M  V30 1512 H 143.347 -0.353819 3.72423 0
M  V30 1513 H 144.68 -0.485113 4.89804 0
M  V30 1514 N 146.332 -1.57332 0.0918853 0
M  V30 1515 C 147.578 -1.94524 -0.573425 0
M  V30 1516 C 147.911 -0.973578 -1.68033 0
M  V30 1517 O 147.186 -0.00609226 -1.94499 0
M  V30 1518 C 147.469 -3.41858 -1.13161 0
M  V30 1519 C 147.322 -4.4979 -0.0299747 0
M  V30 1520 C 148.641 -3.90435 -2.03098 0
M  V30 1521 H 145.76 -0.70734 -0.206975 0
M  V30 1522 H 148.402 -1.89309 0.161942 0
M  V30 1523 H 146.552 -3.46433 -1.7583 0
M  V30 1524 H 148.224 -4.57327 0.604112 0
M  V30 1525 H 146.467 -4.291 0.636833 0
M  V30 1526 H 147.138 -5.50069 -0.461287 0
M  V30 1527 H 149.614 -3.87992 -1.50338 0
M  V30 1528 H 148.49 -4.94097 -2.39081 0
M  V30 1529 H 148.751 -3.29541 -2.94712 0
M  V30 1530 N 147.81 0.181792 -1.56548 0
M  V30 1531 C 149.221 0.745244 -1.71181 0
M  V30 1532 C 149.572 1.83262 -0.70068 0
M  V30 1533 O 148.697 2.15946 0.140154 0
M  V30 1534 C 149.292 1.35859 -3.10367 0
M  V30 1535 C 147.851 1.86898 -3.2672 0
M  V30 1536 C 146.998 0.743942 -2.67134 0
M  V30 1537 H 149.949 -0.0434661 -1.5864 0
M  V30 1538 H 149.97 2.22817 -3.08436 0
M  V30 1539 H 149.482 0.566948 -3.83937 0
M  V30 1540 H 147.583 2.68738 -2.5809 0
M  V30 1541 H 147.696 2.02162 -4.34359 0
M  V30 1542 H 146.06 1.16169 -2.26665 0
M  V30 1543 H 146.843 -0.035676 -3.43281 0
M  V30 1544 N 149.288 1.51039 0.449983 0
M  V30 1545 C 150.516 1.66869 1.2232 0
M  V30 1546 C 150.931 0.360727 1.85322 0
M  V30 1547 O 150.288 -0.659531 1.70166 0
M  V30 1548 C 150.339 2.77524 2.31652 0
M  V30 1549 O 150.06 4.03252 1.7123 0
M  V30 1550 C 151.561 3.04512 3.2216 0
M  V30 1551 H 148.781 0.560326 0.369155 0
M  V30 1552 H 151.325 1.97385 0.534719 0
M  V30 1553 H 149.48 2.49642 2.96239 0
M  V30 1554 H 149.894 4.64609 2.43389 0
M  V30 1555 H 151.368 3.85551 3.95038 0
M  V30 1556 H 151.845 2.16415 3.8218 0
M  V30 1557 H 152.451 3.34005 2.63288 0
M  V30 1558 N 150.766 -0.704594 1.40972 0
M  V30 1559 C 152.182 -1.01406 1.23244 0
M  V30 1560 C 152.382 -2.01169 0.115399 0
M  V30 1561 O 151.438 -2.47021 -0.523147 0
M  V30 1562 C 152.751 -1.54728 2.57836 0
M  V30 1563 C 154.299 -1.66658 2.64942 0
M  V30 1564 C 154.774 -2.23383 3.9983 0
M  V30 1565 N 156.265 -2.30756 4.01629 0
M  V30 1566 C 157 -2.75655 5.02794 0
M  V30 1567 N 156.496 -3.20225 6.14352 0
M  V30 1568 N 158.289 -2.75138 4.90159 0
M  V30 1569 H 150.44 -0.0435285 2.12355 0
M  V30 1570 H 152.703 -0.0818951 0.944456 0
M  V30 1571 H 152.409 -0.888832 3.40283 0
M  V30 1572 H 152.283 -2.53084 2.79693 0
M  V30 1573 H 154.67 -2.31617 1.8286 0
M  V30 1574 H 154.751 -0.668717 2.46904 0
M  V30 1575 H 154.395 -1.59043 4.82357 0
M  V30 1576 H 154.325 -3.23904 4.15203 0
M  V30 1577 H 156.816 -1.99291 3.21079 0
M  V30 1578 H 157.129 -3.53084 6.87424 0
M  V30 1579 H 155.474 -3.18156 6.17901 0
M  V30 1580 H 158.665 -2.39661 4.02095 0
M  V30 1581 H 158.838 -3.09812 5.6914 0
M  V30 1582 N 152.244 -1.26651 -0.937939 0
M  V30 1583 C 153.174 -1.10993 -2.05433 0
M  V30 1584 C 154.155 -0.0142161 -1.70094 0
M  V30 1585 O 155.34 -0.186837 -1.93299 0
M  V30 1586 C 152.47 -0.745561 -3.39203 0
M  V30 1587 C 151.424 -1.79337 -3.88616 0
M  V30 1588 C 150.75 -1.28324 -5.19073 0
M  V30 1589 C 152.05 -3.19553 -4.13138 0
M  V30 1590 H 153.744 -2.0438 -2.1879 0
M  V30 1591 H 151.29 -0.984041 -1.05131 0
M  V30 1592 H 153.243 -0.622888 -4.16771 0
M  V30 1593 H 151.967 0.22401 -3.25831 0
M  V30 1594 H 150.626 -1.90477 -3.13231 0
M  V30 1595 H 150.274 -0.303414 -5.02084 0
M  V30 1596 H 149.974 -1.98369 -5.53103 0
M  V30 1597 H 151.498 -1.1733 -5.99221 0
M  V30 1598 H 152.912 -3.11471 -4.81309 0
M  V30 1599 H 151.309 -3.87218 -4.58457 0
M  V30 1600 H 152.379 -3.65368 -3.18801 0
M  V30 1601 N 153.722 1.14298 -1.08507 0
M  V30 1602 C 154.67 2.21483 -0.710483 0
M  V30 1603 C 155.664 1.66998 0.284234 0
M  V30 1604 O 156.87 1.79401 0.146692 0
M  V30 1605 H 153.245 0.721578 -0.211729 0
M  V30 1606 H 155.216 2.50348 -1.62384 0
M  V30 1607 C 153.965 3.4743 -0.137007 0
M  V30 1608 H 153.288 3.89686 -0.893592 0
M  V30 1609 H 154.728 4.2391 0.0872789 0
M  V30 1610 C 153.187 3.17548 1.12538 0
M  V30 1611 O 153.717 3.35437 2.21009 0
M  V30 1612 N 151.923 2.71499 1.03617 0
M  V30 1613 H 151.47 2.57143 0.153403 0
M  V30 1614 H 151.428 2.51881 1.88158 0
M  V30 1615 N 155.201 0.870884 1.31352 0
M  V30 1616 C 156.426 0.495957 2.01383 0
M  V30 1617 C 156.851 -0.904324 1.64935 0
M  V30 1618 O 156.209 -1.59687 0.858466 0
M  V30 1619 C 156.257 0.661433 3.54482 0
M  V30 1620 O 155.361 -0.298851 4.11316 0
M  V30 1621 H 154.702 0.197158 0.634054 0
M  V30 1622 H 157.232 1.17455 1.67527 0
M  V30 1623 H 157.242 0.555072 4.04207 0
M  V30 1624 H 155.917 1.68246 3.8035 0
M  V30 1625 H 154.494 -0.147368 3.72609 0
M  V30 1626 N 156.679 -1.44442 0.630414 0
M  V30 1627 C 157.642 -2.29107 -0.0652523 0
M  V30 1628 C 158.642 -1.41002 -0.772995 0
M  V30 1629 O 159.832 -1.62881 -0.617692 0
M  V30 1630 C 156.964 -3.22564 -1.10296 0
M  V30 1631 H 158.157 -2.92103 0.679401 0
M  V30 1632 H 155.71 -1.51343 0.390517 0
M  V30 1633 H 156.445 -2.64416 -1.87762 0
M  V30 1634 H 156.23 -3.87491 -0.59941 0
M  V30 1635 H 157.72 -3.86167 -1.5895 0
M  V30 1636 N 158.157 -0.370918 -1.53173 0
M  V30 1637 C 159.382 0.220293 -2.06227 0
M  V30 1638 C 159.807 1.41243 -1.24225 0
M  V30 1639 O 159.165 1.79387 -0.262645 0
M  V30 1640 C 159.213 0.586663 -3.55796 0
M  V30 1641 O 158.317 1.68317 -3.76488 0
M  V30 1642 H 157.658 0.0308099 -0.663285 0
M  V30 1643 H 160.188 -0.533068 -1.97534 0
M  V30 1644 H 160.198 0.85617 -3.98916 0
M  V30 1645 H 158.873 -0.285013 -4.14922 0
M  V30 1646 H 157.45 1.40881 -3.45264 0
M  V30 1647 N 159.635 1.57281 -0.100228 0
M  V30 1648 C 160.565 2.17328 0.853857 0
M  V30 1649 C 161.546 1.10804 1.2906 0
M  V30 1650 O 162.731 1.38963 1.35657 0
M  V30 1651 C 159.861 2.75772 2.11109 0
M  V30 1652 C 158.815 3.87713 1.81279 0
M  V30 1653 C 158.141 4.32882 3.13874 0
M  V30 1654 C 159.441 5.10677 1.09574 0
M  V30 1655 H 161.135 2.97305 0.353545 0
M  V30 1656 H 158.681 1.43009 0.168612 0
M  V30 1657 H 160.634 3.16433 2.78296 0
M  V30 1658 H 159.358 1.93057 2.63432 0
M  V30 1659 H 158.017 3.476 1.16489 0
M  V30 1660 H 157.665 3.47051 3.64095 0
M  V30 1661 H 157.365 5.08358 2.94696 0
M  V30 1662 H 158.889 4.7618 3.82211 0
M  V30 1663 H 160.303 5.48474 1.66879 0
M  V30 1664 H 158.7 5.91615 1.00557 0
M  V30 1665 H 159.77 4.84835 0.0793299 0
M  V30 1666 N 161.113 -0.173488 1.56642 0
M  V30 1667 C 162.06 -1.21482 1.96242 0
M  V30 1668 C 163.03 -1.44104 0.826027 0
M  V30 1669 O 164.215 -1.5688 1.08597 0
M  V30 1670 C 161.355 -2.54964 2.32567 0
M  V30 1671 C 160.468 -2.39739 3.59373 0
M  V30 1672 C 159.603 -3.66072 3.84921 0
M  V30 1673 C 158.642 -3.45771 5.05083 0
M  V30 1674 N 157.779 -4.64169 5.26775 0
M  V30 1675 H 162.619 -0.870123 2.85014 0
M  V30 1676 H 160.156 -0.418245 1.41029 0
M  V30 1677 H 162.114 -3.32758 2.5165 0
M  V30 1678 H 160.744 -2.87433 1.46908 0
M  V30 1679 H 159.796 -1.53131 3.48217 0
M  V30 1680 H 161.108 -2.20683 4.47326 0
M  V30 1681 H 160.262 -4.52303 4.0436 0
M  V30 1682 H 159.001 -3.88105 2.9534 0
M  V30 1683 H 158.006 -2.57927 4.85545 0
M  V30 1684 H 159.231 -3.25163 5.96193 0
M  V30 1685 H 157.177 -4.86425 4.40144 0
M  V30 1686 H 157.094 -4.48019 6.08946 0
M  V30 1687 H 158.362 -5.51689 5.5069 0
M  V30 1688 N 162.591 -1.51276 -0.441967 0
M  V30 1689 C 163.523 -1.68444 -1.55433 0
M  V30 1690 C 164.536 -0.565187 -1.52674 0
M  V30 1691 O 165.725 -0.839356 -1.57534 0
M  V30 1692 C 162.825 -1.67966 -2.94348 0
M  V30 1693 C 161.998 -2.964 -3.21661 0
M  V30 1694 C 161.057 -2.88171 -4.40277 0
M  V30 1695 O 160.083 -3.62119 -4.39157 0
M  V30 1696 N 161.285 -2.03706 -5.43584 0
M  V30 1697 H 164.05 -2.644 -1.41112 0
M  V30 1698 H 161.611 -1.49104 -0.630838 0
M  V30 1699 H 163.603 -1.60035 -3.71713 0
M  V30 1700 H 162.173 -0.796225 -3.0229 0
M  V30 1701 H 161.393 -3.18234 -2.32638 0
M  V30 1702 H 162.681 -3.81427 -3.36736 0
M  V30 1703 H 162.079 -1.42995 -5.47329 0
M  V30 1704 H 160.636 -2.01658 -6.1982 0
M  V30 1705 N 164.069 0.697108 -1.41344 0
M  V30 1706 C 165.48 1.27697 -1.36199 0
M  V30 1707 C 165.831 1.9615 -0.0443463 0
M  V30 1708 O 164.956 1.98689 0.857419 0
M  V30 1709 C 165.551 2.32223 -2.46694 0
M  V30 1710 C 164.11 2.8579 -2.44952 0
M  V30 1711 C 163.257 1.59807 -2.26621 0
M  V30 1712 H 166.208 0.491968 -1.50882 0
M  V30 1713 H 166.229 3.1348 -2.15664 0
M  V30 1714 H 165.741 1.82373 -3.42581 0
M  V30 1715 H 163.842 3.3982 -1.52817 0
M  V30 1716 H 163.955 3.36325 -3.41207 0
M  V30 1717 H 162.319 1.8556 -1.7447 0
M  V30 1718 H 163.102 1.11956 -3.24532 0
M  V30 1719 N 165.547 1.27147 0.931209 0
M  V30 1720 C 166.777 1.15914 1.71019 0
M  V30 1721 C 167.185 -0.287112 1.87009 0
M  V30 1722 O 166.528 -1.20761 1.38429 0
M  V30 1723 C 166.59 1.76647 3.13107 0
M  V30 1724 C 166.254 3.25807 3.20467 0
M  V30 1725 C 167.251 4.22489 3.02983 0
M  V30 1726 C 164.936 3.66452 3.43538 0
M  V30 1727 C 166.93 5.57794 3.08454 0
M  V30 1728 C 164.617 5.01888 3.48643 0
M  V30 1729 C 165.615 5.97369 3.31119 0
M  V30 1730 O 165.303 7.30337 3.35952 0
M  V30 1731 H 165.035 0.404062 0.54195 0
M  V30 1732 H 167.589 1.68457 1.17521 0
M  V30 1733 H 165.819 1.18578 3.68071 0
M  V30 1734 H 167.508 1.60179 3.72958 0
M  V30 1735 H 168.274 3.92425 2.85004 0
M  V30 1736 H 164.153 2.92611 3.5623 0
M  V30 1737 H 167.697 6.32298 2.94694 0
M  V30 1738 H 163.594 5.31609 3.66145 0
M  V30 1739 H 164.362 7.38739 3.5243 0
M  V30 1740 N 167.025 -1.13721 1.09112 0
M  V30 1741 C 168.274 -1.84275 0.82009 0
M  V30 1742 C 168.587 -1.84253 -0.656509 0
M  V30 1743 O 169.793 -2.50668 -1.04296 0
M  V30 1744 C 168.249 -3.30825 1.41714 0
M  V30 1745 C 167.857 -3.39244 2.92605 0
M  V30 1746 C 169.601 -4.06443 1.22492 0
M  V30 1747 C 167.508 -4.80047 3.45411 0
M  V30 1748 H 166.438 -0.690387 0.30312 0
M  V30 1749 H 169.089 -1.28146 1.31343 0
M  V30 1750 H 167.471 -3.86737 0.851498 0
M  V30 1751 H 168.645 -2.93344 3.55367 0
M  V30 1752 H 166.96 -2.77088 3.10823 0
M  V30 1753 H 169.557 -5.10387 1.59402 0
M  V30 1754 H 169.9 -4.15972 0.165299 0
M  V30 1755 H 170.433 -3.56852 1.75788 0
M  V30 1756 H 167.172 -4.75709 4.50978 0
M  V30 1757 H 166.692 -5.26455 2.87411 0
M  V30 1758 H 168.371 -5.48957 3.42425 0
M  V30 1759 N 168.503 -0.877838 -1.30888 0
M  V30 1760 C 169.731 -0.507414 -2.00581 0
M  V30 1761 C 170.146 0.902216 -1.65848 0
M  V30 1762 O 169.503 1.59225 -0.891831 0
M  V30 1763 C 169.554 -0.664162 -3.55347 0
M  V30 1764 O 169.275 -2.01829 -3.8884 0
M  V30 1765 C 170.776 -0.295787 -4.42312 0
M  V30 1766 H 167.996 -0.196866 -0.641471 0
M  V30 1767 H 170.54 -1.18117 -1.66939 0
M  V30 1768 H 168.695 -0.0378619 -3.87381 0
M  V30 1769 H 169.109 -2.03174 -4.8355 0
M  V30 1770 H 170.583 -0.456388 -5.5011 0
M  V30 1771 H 171.06 0.765663 -4.32475 0
M  V30 1772 H 171.666 -0.898113 -4.15709 0
M  V30 1773 N 169.982 1.44106 -0.638065 0
M  V30 1774 C 170.914 2.28976 0.101205 0
M  V30 1775 C 171.927 1.4167 0.802088 0
M  V30 1776 O 173.116 1.65755 0.662375 0
M  V30 1777 C 170.216 3.18217 1.16581 0
M  V30 1778 C 169.389 4.33978 0.546066 0
M  V30 1779 C 168.448 5.04202 1.50554 0
M  V30 1780 O 167.474 5.59986 1.01999 0
M  V30 1781 N 168.676 5.06296 2.8398 0
M  V30 1782 H 171.441 2.93064 -0.627186 0
M  V30 1783 H 169.002 1.54629 -0.479731 0
M  V30 1784 H 170.994 3.62061 1.80815 0
M  V30 1785 H 169.564 2.55833 1.79634 0
M  V30 1786 H 168.784 3.93239 -0.275046 0
M  V30 1787 H 170.072 5.08675 0.112793 0
M  V30 1788 H 169.47 4.62319 3.26002 0
M  V30 1789 H 168.027 5.53907 3.43556 0
M  V30 1790 N 171.46 0.379036 1.52974 0
M  V30 1791 C 172.408 -0.476033 2.27677 0
M  V30 1792 C 173.402 -1.0719 1.31174 0
M  V30 1793 O 174.608 -1.01355 1.48752 0
M  V30 1794 H 170.983 -0.172255 0.732006 0
M  V30 1795 H 172.954 0.175615 2.97883 0
M  V30 1796 C 171.703 -1.5967 3.0887 0
M  V30 1797 H 171.026 -1.1475 3.82978 0
M  V30 1798 H 172.466 -2.16943 3.64296 0
M  V30 1799 C 170.925 -2.54682 2.20542 0
M  V30 1800 O 171.455 -3.57836 1.82527 0
M  V30 1801 N 169.661 -2.24183 1.84907 0
M  V30 1802 H 169.208 -1.40333 2.1602 0
M  V30 1803 H 169.166 -2.88006 1.26096 0
M  V30 1804 N 172.938 -1.57226 0.108567 0
M  V30 1805 C 174.168 -1.9889 -0.559142 0
M  V30 1806 C 174.576 -0.986889 -1.61422 0
M  V30 1807 O 173.919 0.0298705 -1.83676 0
M  V30 1808 C 173.981 -3.36952 -1.25315 0
M  V30 1809 C 173.645 -4.55679 -0.347248 0
M  V30 1810 C 174.642 -5.18281 0.409996 0
M  V30 1811 C 172.327 -5.0162 -0.261367 0
M  V30 1812 C 174.321 -6.25203 1.24096 0
M  V30 1813 C 172.008 -6.08405 0.573238 0
M  V30 1814 C 173.006 -6.70063 1.32304 0
M  V30 1815 O 172.694 -7.74788 2.14381 0
M  V30 1816 H 172.426 -0.658343 -0.153492 0
M  V30 1817 H 174.98 -2.04532 0.188584 0
M  V30 1818 H 173.21 -3.28032 -2.04773 0
M  V30 1819 H 174.899 -3.62974 -1.81673 0
M  V30 1820 H 175.665 -4.8371 0.353457 0
M  V30 1821 H 171.544 -4.53381 -0.834656 0
M  V30 1822 H 175.088 -6.73259 1.82669 0
M  V30 1823 H 170.985 -6.42406 0.631208 0
M  V30 1824 H 171.753 -7.91837 2.07209 0
M  V30 1825 N 174.416 0.165178 -1.56732 0
M  V30 1826 C 175.663 0.880807 -1.8234 0
M  V30 1827 C 175.991 1.81977 -0.686621 0
M  V30 1828 O 175.246 1.92971 0.325697 0
M  V30 1829 C 175.545 1.70405 -3.1416 0
M  V30 1830 C 175.211 0.913475 -4.4155 0
M  V30 1831 C 173.873 0.695303 -4.7615 0
M  V30 1832 C 176.225 0.359349 -5.1996 0
M  V30 1833 C 173.553 -0.0879947 -5.86634 0
M  V30 1834 C 175.905 -0.410893 -6.31264 0
M  V30 1835 C 174.569 -0.639808 -6.64427 0
M  V30 1836 H 173.839 0.32231 -0.667231 0
M  V30 1837 H 176.486 0.145402 -1.90947 0
M  V30 1838 H 174.791 2.50903 -3.00923 0
M  V30 1839 H 176.488 2.26091 -3.31186 0
M  V30 1840 H 173.078 1.09357 -4.14414 0
M  V30 1841 H 177.262 0.515228 -4.93618 0
M  V30 1842 H 172.518 -0.27503 -6.10781 0
M  V30 1843 H 176.692 -0.847494 -6.91224 0
M  V30 1844 H 174.319 -1.24864 -7.49875 0
M  V30 1845 N 175.894 1.51508 0.433938 0
M  V30 1846 C 177.305 1.56784 1.01369 0
M  V30 1847 C 177.656 0.393349 1.92217 0
M  V30 1848 O 176.781 -0.489441 2.10792 0
M  V30 1849 C 177.376 2.84144 1.8452 0
M  V30 1850 C 175.935 2.9198 2.37539 0
M  V30 1851 C 175.082 2.51482 1.16843 0
M  V30 1852 H 178.033 1.57236 0.215081 0
M  V30 1853 H 178.054 2.68098 2.70007 0
M  V30 1854 H 177.566 3.69607 1.18373 0
M  V30 1855 H 175.667 2.10955 3.0713 0
M  V30 1856 H 175.78 3.95704 2.70103 0
M  V30 1857 H 174.144 2.04758 1.51481 0
M  V30 1858 H 174.927 3.39293 0.523015 0
M  V30 1859 N 177.372 -0.689602 1.41712 0
M  V30 1860 C 178.618 -1.45181 1.41599 0
M  V30 1861 C 178.951 -1.94181 0.0270081 0
M  V30 1862 O 178.226 -1.6993 -0.946265 0
M  V30 1863 C 178.509 -2.65945 2.42787 0
M  V30 1864 C 178.362 -2.22672 3.90816 0
M  V30 1865 C 179.681 -3.68149 2.41151 0
M  V30 1866 H 176.8 -0.526576 0.515642 0
M  V30 1867 H 179.442 -0.784947 1.73028 0
M  V30 1868 H 177.592 -3.2284 2.16116 0
M  V30 1869 H 179.264 -1.71058 4.28412 0
M  V30 1870 H 177.507 -1.54394 4.05395 0
M  V30 1871 H 178.178 -3.0935 4.57172 0
M  V30 1872 H 180.654 -3.2094 2.64834 0
M  V30 1873 H 179.53 -4.50248 3.13955 0
M  V30 1874 H 179.791 -4.18259 1.43221 0
M  V30 1875 N 178.85 -1.27639 -0.924453 0
M  V30 1876 C 180.098 -1.13941 -1.66918 0
M  V30 1877 C 180.419 0.314589 -1.92446 0
M  V30 1878 O 179.689 1.21964 -1.53303 0
M  V30 1879 H 178.269 -0.418678 -0.618642 0
M  V30 1880 H 180.931 -1.60213 -1.10985 0
M  V30 1881 H 180.027 -1.67094 -2.63602 0
M  V30 1882 N 180.328 1.1314 -1.09713 0
M  V30 1883 C 181.556 1.88321 -0.856898 0
M  V30 1884 C 181.971 1.79276 0.592073 0
M  V30 1885 O 181.328 1.16142 1.40774 0
M  V30 1886 C 181.379 3.37812 -1.28706 0
M  V30 1887 O 181.1 3.46627 -2.67921 0
M  V30 1888 C 182.601 4.29952 -1.07964 0
M  V30 1889 H 179.821 0.596094 -0.308079 0
M  V30 1890 H 182.365 1.43205 -1.45988 0
M  V30 1891 H 180.52 3.805 -0.727912 0
M  V30 1892 H 180.934 4.39579 -2.8613 0
M  V30 1893 H 182.408 5.33159 -1.42986 0
M  V30 1894 H 182.885 4.39196 -0.0176577 0
M  V30 1895 H 183.491 3.93036 -1.62489 0
M  V30 1896 N 181.806 0.884767 1.30421 0
M  V30 1897 C 183.052 0.503851 1.96441 0
M  V30 1898 C 183.385 -0.944518 1.69684 0
M  V30 1899 O 182.66 -1.66737 1.00145 0
M  V30 1900 C 182.943 0.779085 3.51571 0
M  V30 1901 C 182.796 2.27807 3.87846 0
M  V30 1902 C 184.115 0.255452 4.39358 0
M  V30 1903 H 181.234 0.184533 0.713524 0
M  V30 1904 H 183.876 1.10872 1.54297 0
M  V30 1905 H 182.026 0.264274 3.876 0
M  V30 1906 H 183.698 2.86127 3.61841 0
M  V30 1907 H 181.941 2.74479 3.35922 0
M  V30 1908 H 182.612 2.42125 4.96064 0
M  V30 1909 H 185.088 0.696079 4.10236 0
M  V30 1910 H 183.964 0.477361 5.4682 0
M  V30 1911 H 184.225 -0.843293 4.33983 0
M  V30 1912 N 183.284 -1.43765 0.645699 0
M  V30 1913 C 184.53 -2.02197 0.156271 0
M  V30 1914 C 184.863 -1.50776 -1.22393 0
M  V30 1915 O 184.138 -0.697771 -1.81553 0
M  V30 1916 C 184.421 -3.59749 0.158872 0
M  V30 1917 C 184.274 -4.21419 1.57245 0
M  V30 1918 C 185.593 -4.37149 -0.50879 0
M  V30 1919 H 182.712 -0.734694 0.0582602 0
M  V30 1920 H 185.354 -1.71157 0.824951 0
M  V30 1921 H 183.504 -3.86325 -0.410525 0
M  V30 1922 H 185.176 -4.059 2.19186 0
M  V30 1923 H 183.419 -3.78356 2.122 0
M  V30 1924 H 184.09 -5.30482 1.52619 0
M  V30 1925 H 186.566 -4.16093 -0.024412 0
M  V30 1926 H 185.442 -5.4683 -0.476213 0
M  V30 1927 H 185.703 -4.12839 -1.58165 0
M  V30 1928 N 184.763 -0.387143 -1.52771 0
M  V30 1929 C 185.673 0.456442 -2.30117 0
M  V30 1930 C 186.689 1.07342 -1.36944 0
M  V30 1931 O 187.865 1.07971 -1.70013 0
M  V30 1932 C 184.93 1.56957 -3.09136 0
M  V30 1933 C 183.991 0.977916 -4.18014 0
M  V30 1934 C 183.224 2.038 -4.93256 0
M  V30 1935 O 183.447 3.25271 -4.68567 0
M  V30 1936 O 182.381 1.6565 -5.78657 0
M  V30 1937 H 186.207 -0.17359 -3.03203 0
M  V30 1938 H 183.792 -0.150919 -1.48636 0
M  V30 1939 H 185.674 2.21628 -3.58412 0
M  V30 1940 H 184.349 2.18461 -2.38865 0
M  V30 1941 H 183.256 0.294525 -3.72939 0
M  V30 1942 H 184.589 0.407128 -4.90513 0
M  V30 1943 N 186.241 1.57166 -0.116904 0
M  V30 1944 C 187.471 1.99184 0.548586 0
M  V30 1945 C 187.879 0.995436 1.60897 0
M  V30 1946 O 187.222 -0.0201293 1.83689 0
M  V30 1947 C 187.284 3.37611 1.23526 0
M  V30 1948 C 186.948 4.55857 0.323077 0
M  V30 1949 C 187.945 5.18056 -0.437476 0
M  V30 1950 C 185.63 5.01751 0.234761 0
M  V30 1951 C 187.624 6.24536 -1.2741 0
M  V30 1952 C 185.311 6.08093 -0.605496 0
M  V30 1953 C 186.309 6.69352 -1.35856 0
M  V30 1954 O 185.997 7.7364 -2.18487 0
M  V30 1955 H 185.729 0.659148 0.149999 0
M  V30 1956 H 188.283 2.0443 -0.199428 0
M  V30 1957 H 186.513 3.29113 2.0303 0
M  V30 1958 H 188.202 3.63932 1.79745 0
M  V30 1959 H 188.968 4.83516 -0.379105 0
M  V30 1960 H 184.847 4.53817 0.810601 0
M  V30 1961 H 188.391 6.72281 -1.86237 0
M  V30 1962 H 184.288 6.42063 -0.665268 0
M  V30 1963 H 185.056 7.90727 -2.11406 0
M  V30 1964 N 187.719 -0.156864 1.56817 0
M  V30 1965 C 188.629 -1.2136 2.00771 0
M  V30 1966 C 189.645 -1.47598 0.921459 0
M  V30 1967 O 190.821 -1.59462 1.2302 0
M  V30 1968 C 187.886 -2.52943 2.37109 0
M  V30 1969 C 186.947 -2.34439 3.59634 0
M  V30 1970 C 186.18 -3.59748 3.94229 0
M  V30 1971 O 186.403 -4.65526 3.29609 0
M  V30 1972 O 185.337 -3.52998 4.8752 0
M  V30 1973 H 189.163 -0.870468 2.90958 0
M  V30 1974 H 186.748 -0.36484 1.44877 0
M  V30 1975 H 188.63 -3.30538 2.61386 0
M  V30 1976 H 187.305 -2.86806 1.5008 0
M  V30 1977 H 186.212 -1.54828 3.40557 0
M  V30 1978 H 187.545 -2.05496 4.4725 0
M  V30 1979 N 189.197 -1.51736 -0.425897 0
M  V30 1980 C 190.437 -1.66636 -1.18371 0
M  V30 1981 C 190.801 -0.379854 -1.88205 0
M  V30 1982 O 192.002 -0.404758 -2.65735 0
M  V30 1983 C 190.273 -2.84382 -2.16476 0
M  V30 1984 S 191.832 -3.19673 -3.0059 0
M  V30 1985 H 188.65 -0.586957 -0.40125 0
M  V30 1986 H 191.252 -1.89679 -0.473518 0
M  V30 1987 H 189.956 -3.76281 -1.63831 0
M  V30 1988 H 189.487 -2.63562 -2.92059 0
M  V30 1989 H 191.502 -2.66994 -4.18245 0
M  V30 1990 N 190.675 0.682077 -1.42076 0
M  V30 1991 C 192.091 0.994324 -1.24841 0
M  V30 1992 C 192.291 2.0096 -0.147389 0
M  V30 1993 O 191.347 2.47822 0.483782 0
M  V30 1994 C 192.66 1.50607 -2.60265 0
M  V30 1995 C 194.208 1.62421 -2.6756 0
M  V30 1996 C 194.683 2.16994 -4.03333 0
M  V30 1997 N 196.174 2.24337 -4.0525 0
M  V30 1998 C 196.909 2.67621 -5.07116 0
M  V30 1999 N 196.405 3.1041 -6.19368 0
M  V30 2000 N 198.198 2.67305 -4.94474 0
M  V30 2001 H 190.349 0.00973908 -2.12398 0
M  V30 2002 H 192.612 0.0668593 -0.945639 0
M  V30 2003 H 192.318 0.834583 -3.41654 0
M  V30 2004 H 192.192 2.48602 -2.83684 0
M  V30 2005 H 194.579 2.28678 -1.86521 0
M  V30 2006 H 194.66 0.629352 -2.47937 0
M  V30 2007 H 194.304 1.51349 -4.84826 0
M  V30 2008 H 194.234 3.17258 -4.20304 0
M  V30 2009 H 196.725 1.94158 -3.24209 0
M  V30 2010 H 197.038 3.42103 -6.92954 0
M  V30 2011 H 195.383 3.08286 -6.22884 0
M  V30 2012 H 198.574 2.33233 -4.05857 0
M  V30 2013 H 198.747 3.00718 -5.73997 0
M  V30 2014 N 192.153 1.28127 0.917671 0
M  V30 2015 C 193.564 1.13622 1.48145 0
M  V30 2016 C 193.915 -0.275207 1.9426 0
M  V30 2017 O 193.04 -1.1691 1.82102 0
M  V30 2018 C 193.635 2.05648 2.69248 0
M  V30 2019 C 192.194 1.95219 3.21818 0
M  V30 2020 C 191.341 1.97618 1.94532 0
M  V30 2021 H 194.292 1.40874 0.730772 0
M  V30 2022 H 194.313 1.61818 3.44377 0
M  V30 2023 H 193.825 3.08365 2.35653 0
M  V30 2024 H 191.926 0.955244 3.60147 0
M  V30 2025 H 192.039 2.81976 3.87333 0
M  V30 2026 H 190.403 1.41973 2.11461 0
M  V30 2027 H 191.186 3.02007 1.63238 0
M  V30 2028 N 193.631 -1.12557 1.10312 0
M  V30 2029 C 194.879 -1.83675 0.843091 0
M  V30 2030 C 195.2 -1.84435 -0.633131 0
M  V30 2031 O 194.47 -1.30657 -1.45964 0
M  V30 2032 H 193.05 -0.680138 0.308904 0
M  V30 2033 H 195.712 -1.36301 1.39313 0
M  V30 2034 H 194.808 -2.87908 1.2048 0
M  V30 2035 N 195.109 -0.891671 -1.2995 0
M  V30 2036 C 196.339 -0.527893 -1.99742 0
M  V30 2037 C 196.747 0.88979 -1.66971 0
M  V30 2038 O 196.09 1.59766 -0.906667 0
M  V30 2039 C 196.152 -0.630804 -3.53922 0
M  V30 2040 C 195.816 -2.01401 -4.10228 0
M  V30 2041 C 196.813 -2.98422 -4.25724 0
M  V30 2042 C 194.498 -2.32121 -4.45449 0
M  V30 2043 C 196.492 -4.24293 -4.75662 0
M  V30 2044 C 194.179 -3.58237 -4.95086 0
M  V30 2045 C 195.177 -4.54137 -5.10146 0
M  V30 2046 O 194.865 -5.78014 -5.58708 0
M  V30 2047 H 194.597 -0.201953 -0.645129 0
M  V30 2048 H 197.151 -1.20076 -1.66646 0
M  V30 2049 H 195.381 0.0990616 -3.86573 0
M  V30 2050 H 197.07 -0.277338 -4.04951 0
M  V30 2051 H 197.836 -2.76001 -3.98809 0
M  V30 2052 H 193.715 -1.5824 -4.32991 0
M  V30 2053 H 197.259 -4.99153 -4.87332 0
M  V30 2054 H 193.156 -3.80491 -5.21437 0
M  V30 2055 H 193.924 -5.8049 -5.77039 0
M  V30 2056 N 196.587 1.43421 -0.653314 0
M  V30 2057 C 198.003 1.56341 -0.320886 0
M  V30 2058 C 198.203 1.63696 1.17499 0
M  V30 2059 O 197.259 1.59208 1.95982 0
M  V30 2060 C 198.572 2.82424 -1.03233 0
M  V30 2061 C 200.12 2.96168 -1.01259 0
M  V30 2062 C 200.595 4.25084 -1.70492 0
M  V30 2063 N 202.086 4.31948 -1.67257 0
M  V30 2064 C 202.821 5.30466 -2.17701 0
M  V30 2065 N 202.317 6.35261 -2.76434 0
M  V30 2066 N 204.11 5.2212 -2.082 0
M  V30 2067 H 196.261 1.3689 -1.62403 0
M  V30 2068 H 198.524 0.657455 -0.682977 0
M  V30 2069 H 198.23 2.83053 -2.08744 0
M  V30 2070 H 198.104 3.72653 -0.583948 0
M  V30 2071 H 200.491 2.9508 0.0341235 0
M  V30 2072 H 200.572 2.07229 -1.49966 0
M  V30 2073 H 200.216 4.26932 -2.7512 0
M  V30 2074 H 200.146 5.1292 -1.19251 0
M  V30 2075 H 202.637 3.56838 -1.24398 0
M  V30 2076 H 202.95 7.06754 -3.12601 0
M  V30 2077 H 201.295 6.35884 -2.80495 0
M  V30 2078 H 204.486 4.39166 -1.62021 0
M  V30 2079 H 204.659 5.98739 -2.47822 0
M  V30 2080 N 198.065 0.39524 1.52563 0
M  V30 2081 C 199.481 0.0454682 1.59535 0
M  V30 2082 C 199.681 -1.44056 1.4089 0
M  V30 2083 O 198.737 -2.20579 1.22888 0
M  V30 2084 C 200.05 0.527963 2.96029 0
M  V30 2085 C 201.598 0.484733 3.09224 0
M  V30 2086 C 202.073 0.943512 4.48176 0
M  V30 2087 N 203.564 0.899765 4.54377 0
M  V30 2088 C 204.299 1.22609 5.60138 0
M  V30 2089 N 203.795 1.62319 6.73516 0
M  V30 2090 N 205.588 1.14696 5.50274 0
M  V30 2091 H 197.739 1.36261 1.62931 0
M  V30 2092 H 200.002 0.558887 0.765735 0
M  V30 2093 H 199.708 1.56607 3.14908 0
M  V30 2094 H 199.582 -0.0698056 3.77135 0
M  V30 2095 H 201.969 -0.544298 2.90037 0
M  V30 2096 H 202.05 1.11838 2.30056 0
M  V30 2097 H 201.694 1.9708 4.68104 0
M  V30 2098 H 201.624 0.286817 5.25818 0
M  V30 2099 H 204.115 0.607632 3.72983 0
M  V30 2100 H 204.428 1.85567 7.5019 0
M  V30 2101 H 202.773 1.66211 6.74833 0
M  V30 2102 H 205.964 0.835701 4.6058 0
M  V30 2103 H 206.137 1.40459 6.32594 0
M  V30 2104 N 199.544 -1.57102 0.125237 0
M  V30 2105 C 200.454 -2.19191 -0.8362 0
M  V30 2106 C 201.47 -1.16985 -1.28805 0
M  V30 2107 O 202.646 -1.49479 -1.34974 0
M  V30 2108 C 199.711 -2.78407 -2.06617 0
M  V30 2109 C 198.772 -3.9567 -1.66565 0
M  V30 2110 C 198.005 -4.52052 -2.83698 0
M  V30 2111 O 198.228 -4.07326 -3.99302 0
M  V30 2112 O 197.162 -5.42645 -2.60423 0
M  V30 2113 H 200.988 -3.01816 -0.337776 0
M  V30 2114 H 198.573 -1.4906 -0.100695 0
M  V30 2115 H 200.455 -3.16129 -2.7864 0
M  V30 2116 H 199.13 -1.9881 -2.55453 0
M  V30 2117 H 198.037 -3.62705 -0.916296 0
M  V30 2118 H 199.37 -4.76722 -1.22464 0
M  V30 2119 N 201.022 0.148545 -1.56898 0
M  V30 2120 C 202.433 0.708766 -1.72723 0
M  V30 2121 C 202.784 1.81734 -0.739395 0
M  V30 2122 O 201.909 2.16194 0.0943169 0
M  V30 2123 C 202.504 1.29245 -3.13179 0
M  V30 2124 C 201.063 1.79925 -3.30611 0
M  V30 2125 C 200.21 0.687111 -2.68652 0
M  V30 2126 H 203.161 -0.0771063 -1.58513 0
M  V30 2127 H 203.182 2.16224 -3.13093 0
M  V30 2128 H 202.694 0.485382 -3.85053 0
M  V30 2129 H 200.795 2.63203 -2.63732 0
M  V30 2130 H 200.908 1.92903 -4.38549 0
M  V30 2131 H 199.272 1.11335 -2.29078 0
M  V30 2132 H 200.055 -0.108483 -3.43129 0
M  V30 2133 N 202.5 1.5196 0.417844 0
M  V30 2134 C 203.725 1.69717 1.1921 0
M  V30 2135 C 204.15 0.402148 1.83751 0
M  V30 2136 O 203.508 -0.639593 1.69643 0
M  V30 2137 C 203.556 2.82794 2.2374 0
M  V30 2138 O 202.66 2.47756 3.29683 0
M  V30 2139 H 202.001 0.565263 0.348387 0
M  V30 2140 H 204.531 1.98621 0.490985 0
M  V30 2141 H 204.541 3.07452 2.68212 0
M  V30 2142 H 203.216 3.76756 1.76146 0
M  V30 2143 H 201.793 2.33739 2.90552 0
M  V30 2144 N 203.978 -0.674533 1.42435 0
M  V30 2145 C 204.908 -1.80009 1.48724 0
M  V30 2146 C 205.889 -1.6659 0.343793 0
M  V30 2147 O 207.074 -1.86007 0.558137 0
M  V30 2148 C 204.204 -3.18306 1.38919 0
M  V30 2149 C 203.158 -3.46461 2.51294 0
M  V30 2150 C 202.484 -4.84335 2.26547 0
M  V30 2151 C 203.784 -3.43328 3.93603 0
M  V30 2152 H 205.478 -1.75004 2.42928 0
M  V30 2153 H 203.024 -0.840533 1.16923 0
M  V30 2154 H 204.977 -3.9678 1.41927 0
M  V30 2155 H 203.701 -3.2399 0.412094 0
M  V30 2156 H 202.36 -2.70348 2.47604 0
M  V30 2157 H 202.008 -4.86669 1.2713 0
M  V30 2158 H 201.708 -5.04136 3.01861 0
M  V30 2159 H 203.232 -5.65094 2.31304 0
M  V30 2160 H 204.646 -4.11772 3.98894 0
M  V30 2161 H 203.043 -3.74664 4.68771 0
M  V30 2162 H 204.113 -2.41897 4.20255 0
M  V30 2163 N 205.456 -1.28612 -0.910864 0
M  V30 2164 C 206.681 -1.1891 -1.69927 0
M  V30 2165 C 207.106 0.248372 -1.86453 0
M  V30 2166 O 206.464 1.17961 -1.37676 0
M  V30 2167 C 206.512 -1.89578 -3.06745 0
M  V30 2168 O 205.616 -1.20521 -3.94396 0
M  V30 2169 H 204.957 -0.412632 -0.520222 0
M  V30 2170 H 207.487 -1.69985 -1.1387 0
M  V30 2171 H 207.497 -1.97597 -3.56958 0
M  V30 2172 H 206.172 -2.94136 -2.94035 0
M  V30 2173 H 204.749 -1.20684 -3.52831 0
M  V30 2174 N 206.934 1.1197 -1.10907 0
M  V30 2175 C 208.345 1.65114 -0.871446 0
M  V30 2176 C 208.696 1.86885 0.597353 0
M  V30 2177 O 207.821 1.59896 1.45816 0
M  V30 2178 C 208.416 2.99944 -1.5754 0
M  V30 2179 C 206.975 3.50018 -1.38435 0
M  V30 2180 C 206.122 2.24941 -1.62164 0
M  V30 2181 H 209.073 0.956851 -1.2661 0
M  V30 2182 H 209.094 3.66651 -1.01721 0
M  V30 2183 H 208.606 2.84067 -2.64438 0
M  V30 2184 H 206.707 3.71071 -0.337214 0
M  V30 2185 H 206.82 4.29165 -2.12965 0
M  V30 2186 H 205.184 2.3229 -1.04467 0
M  V30 2187 H 205.967 2.11612 -2.70324 0
M  V30 2188 N 208.412 0.89855 1.29475 0
M  V30 2189 C 209.359 0.373819 2.27753 0
M  V30 2190 C 210.329 -0.543444 1.56958 0
M  V30 2191 O 211.514 -0.468934 1.84948 0
M  V30 2192 C 208.654 -0.393648 3.42848 0
M  V30 2193 C 207.767 0.554379 4.28428 0
M  V30 2194 C 206.902 -0.230026 5.30702 0
M  V30 2195 C 205.941 0.712599 6.07938 0
M  V30 2196 N 205.078 -0.0373283 7.0209 0
M  V30 2197 H 209.918 1.21699 2.72017 0
M  V30 2198 H 207.455 0.611456 1.33789 0
M  V30 2199 H 209.413 -0.85466 4.08352 0
M  V30 2200 H 208.043 -1.20128 2.99615 0
M  V30 2201 H 207.095 1.13391 3.63107 0
M  V30 2202 H 208.407 1.27597 4.82204 0
M  V30 2203 H 207.561 -0.752288 6.02018 0
M  V30 2204 H 206.3 -0.984758 4.77654 0
M  V30 2205 H 205.305 1.24637 5.35486 0
M  V30 2206 H 206.53 1.46664 6.63074 0
M  V30 2207 H 204.476 -0.774348 6.51414 0
M  V30 2208 H 204.393 0.624374 7.53417 0
M  V30 2209 H 205.661 -0.539891 7.77628 0
M  V30 2210 N 209.89 -1.43072 0.660911 0
M  V30 2211 C 210.82 -2.33497 -0.0122829 0
M  V30 2212 C 211.801 -1.49903 -0.803925 0
M  V30 2213 O 212.986 -1.78546 -0.763864 0
M  V30 2214 C 210.116 -3.33363 -0.973994 0
M  V30 2215 C 209.07 -4.27003 -0.291928 0
M  V30 2216 C 208.396 -5.16967 -1.36562 0
M  V30 2217 C 209.696 -5.15816 0.820462 0
M  V30 2218 H 211.39 -2.90038 0.742873 0
M  V30 2219 H 208.936 -1.39461 0.358688 0
M  V30 2220 H 210.889 -3.95524 -1.45392 0
M  V30 2221 H 209.613 -2.75095 -1.7604 0
M  V30 2222 H 208.272 -3.66217 0.167623 0
M  V30 2223 H 207.92 -4.55034 -2.14366 0
M  V30 2224 H 207.62 -5.80441 -0.914454 0
M  V30 2225 H 209.144 -5.82003 -1.84675 0
M  V30 2226 H 210.558 -5.71742 0.422366 0
M  V30 2227 H 208.955 -5.8805 1.19656 0
M  V30 2228 H 210.025 -4.55045 1.67518 0
M  V30 2229 N 211.368 -0.403325 -1.52352 0
M  V30 2230 C 212.596 0.174012 -2.06167 0
M  V30 2231 C 213.011 1.39347 -1.27388 0
M  V30 2232 O 212.368 1.79597 -0.324201 0
M  V30 2233 C 212.419 0.530223 -3.5759 0
M  V30 2234 O 212.14 -0.640806 -4.33388 0
M  V30 2235 C 213.641 1.16192 -4.27802 0
M  V30 2236 H 210.861 0.0229464 -0.670608 0
M  V30 2237 H 213.405 -0.572604 -1.9632 0
M  V30 2238 H 211.56 1.22673 -3.67464 0
M  V30 2239 H 211.974 -0.344851 -5.23365 0
M  V30 2240 H 213.448 1.36141 -5.34948 0
M  V30 2241 H 213.925 2.13335 -3.83907 0
M  V30 2242 H 214.531 0.505775 -4.22282 0
M  V30 2243 N 212.846 1.57033 -0.133567 0
M  V30 2244 C 214.086 1.97575 0.523789 0
M  V30 2245 C 214.45 1.01605 1.62912 0
M  V30 2246 O 215.651 1.3114 2.3464 0
M  V30 2247 C 213.922 3.42256 1.02935 0
M  V30 2248 S 215.481 4.04817 1.69319 0
M  V30 2249 H 212.299 0.690427 0.169799 0
M  V30 2250 H 214.901 1.94234 -0.222101 0
M  V30 2251 H 213.605 4.09842 0.213917 0
M  V30 2252 H 213.136 3.4928 1.81017 0
M  V30 2253 H 215.151 3.96767 2.97977 0
M  V30 2254 N 214.325 -0.140222 1.56975 0
M  V30 2255 C 215.255 -1.17456 2.01808 0
M  V30 2256 C 216.236 -1.44415 0.898794 0
M  V30 2257 O 217.421 -1.5522 1.16707 0
M  V30 2258 C 214.551 -2.50607 2.40444 0
M  V30 2259 C 213.505 -2.38155 3.55621 0
M  V30 2260 C 212.831 -3.76078 3.80091 0
M  V30 2261 C 214.131 -1.85991 4.88062 0
M  V30 2262 H 215.825 -0.801743 2.88466 0
M  V30 2263 H 213.371 -0.38422 1.38779 0
M  V30 2264 H 215.324 -3.23197 2.7041 0
M  V30 2265 H 214.048 -2.89737 1.50732 0
M  V30 2266 H 212.707 -1.68016 3.25832 0
M  V30 2267 H 212.355 -4.12656 2.87618 0
M  V30 2268 H 212.055 -3.68606 4.57606 0
M  V30 2269 H 213.579 -4.50206 4.12488 0
M  V30 2270 H 214.993 -2.4838 5.16701 0
M  V30 2271 H 213.39 -1.89393 5.6943 0
M  V30 2272 H 214.46 -0.816023 4.77984 0
M  V30 2273 N 215.803 -1.52179 -0.40978 0
M  V30 2274 C 216.735 -1.71703 -1.51825 0
M  V30 2275 C 217.748 -0.597445 -1.51441 0
M  V30 2276 O 218.937 -0.872582 -1.55719 0
M  V30 2277 C 216.037 -1.74171 -2.90719 0
M  V30 2278 C 215.21 -3.03156 -3.15302 0
M  V30 2279 C 214.269 -2.97445 -4.34065 0
M  V30 2280 O 213.295 -3.71352 -4.31377 0
M  V30 2281 N 214.497 -2.15191 -5.39141 0
M  V30 2282 H 217.262 -2.67334 -1.35472 0
M  V30 2283 H 214.823 -1.50409 -0.599069 0
M  V30 2284 H 216.815 -1.67884 -3.68235 0
M  V30 2285 H 215.385 -0.860166 -3.00533 0
M  V30 2286 H 214.605 -3.23097 -2.25836 0
M  V30 2287 H 215.893 -3.88484 -3.28569 0
M  V30 2288 H 215.291 -1.54573 -5.44173 0
M  V30 2289 H 213.848 -2.1476 -6.15403 0
M  V30 2290 N 217.281 0.66697 -1.42791 0
M  V30 2291 C 218.229 1.80157 -1.47127 0
M  V30 2292 C 219.223 1.65825 -0.346199 0
M  V30 2293 O 220.429 1.72338 -0.519572 0
M  V30 2294 H 216.804 0.594158 -0.460956 0
M  V30 2295 H 218.775 1.73619 -2.42692 0
M  V30 2296 C 217.524 3.18351 -1.39813 0
M  V30 2297 H 216.847 3.3001 -2.25684 0
M  V30 2298 H 218.287 3.97736 -1.46908 0
M  V30 2299 C 216.746 3.36707 -0.11391 0
M  V30 2300 O 217.276 3.93027 0.830241 0
M  V30 2301 N 215.482 2.90586 -0.0285295 0
M  V30 2302 H 215.029 2.4494 -0.79764 0
M  V30 2303 H 214.987 3.03245 0.830063 0
M  V30 2304 N 218.759 1.29093 0.90403 0
M  V30 2305 C 219.689 1.16401 2.02418 0
M  V30 2306 C 220.67 0.0593085 1.69997 0
M  V30 2307 O 221.855 0.238021 1.92736 0
M  V30 2308 C 218.985 0.835233 3.37107 0
M  V30 2309 C 217.939 1.89578 3.83724 0
M  V30 2310 C 217.265 1.42041 5.15489 0
M  V30 2311 C 218.565 3.30394 4.04521 0
M  V30 2312 H 220.259 2.10109 2.13295 0
M  V30 2313 H 217.805 1.01157 1.02486 0
M  V30 2314 H 219.758 0.733169 4.14973 0
M  V30 2315 H 218.482 -0.137543 3.2631 0
M  V30 2316 H 217.141 1.98715 3.08071 0
M  V30 2317 H 216.789 0.436426 5.01103 0
M  V30 2318 H 216.489 2.12964 5.4765 0
M  V30 2319 H 218.013 1.33176 5.959 0
M  V30 2320 H 219.427 3.24123 4.72882 0
M  V30 2321 H 217.824 3.99237 4.48029 0
M  V30 2322 H 218.894 3.73692 3.09002 0
M  V30 2323 N 220.237 -1.11381 1.11499 0
M  V30 2324 C 221.184 -2.17439 0.773887 0
M  V30 2325 C 222.154 -1.64132 -0.254899 0
M  V30 2326 O 223.339 -1.90345 -0.13168 0
M  V30 2327 C 220.479 -3.44373 0.223917 0
M  V30 2328 C 219.592 -4.1168 1.30934 0
M  V30 2329 C 218.727 -5.263 0.71984 0
M  V30 2330 C 217.766 -5.85493 1.78507 0
M  V30 2331 N 216.903 -6.91507 1.21502 0
M  V30 2332 H 221.743 -2.45962 1.68246 0
M  V30 2333 H 219.28 -1.20744 0.840191 0
M  V30 2334 H 221.238 -4.17047 -0.112921 0
M  V30 2335 H 219.868 -3.16232 -0.647851 0
M  V30 2336 H 218.92 -3.37073 1.76312 0
M  V30 2337 H 220.232 -4.51729 2.11524 0
M  V30 2338 H 219.386 -6.05785 0.333094 0
M  V30 2339 H 218.125 -4.87559 -0.117377 0
M  V30 2340 H 217.13 -5.04686 2.18111 0
M  V30 2341 H 218.355 -6.26301 2.62533 0
M  V30 2342 H 216.301 -6.54783 0.399455 0
M  V30 2343 H 216.218 -7.30214 1.95763 0
M  V30 2344 H 217.486 -7.74795 0.855181 0
M  V30 2345 N 221.715 -0.905404 -1.28997 0
M  V30 2346 C 222.961 -0.544465 -1.95977 0
M  V30 2347 C 223.316 0.90041 -1.70031 0
M  V30 2348 O 222.609 1.63064 -1.00601 0
M  V30 2349 C 222.803 -0.779906 -3.48787 0
M  V30 2350 C 222.632 -2.24612 -3.89589 0
M  V30 2351 C 221.402 -2.89464 -4.14172 0
M  V30 2352 C 223.6 -3.22182 -4.00878 0
M  V30 2353 N 221.582 -4.26469 -4.41585 0
M  V30 2354 C 222.953 -4.44323 -4.32409 0
M  V30 2355 C 225.008 -3.17694 -3.83373 0
M  V30 2356 C 223.711 -5.62546 -4.48258 0
M  V30 2357 C 225.737 -4.35208 -4.00435 0
M  V30 2358 C 225.099 -5.56121 -4.3233 0
M  V30 2359 H 221.198 -0.248948 -0.741316 0
M  V30 2360 H 223.782 -1.1674 -1.5582 0
M  V30 2361 H 221.953 -0.186308 -3.87953 0
M  V30 2362 H 223.685 -0.383833 -4.02876 0
M  V30 2363 H 220.44 -2.40232 -4.08149 0
M  V30 2364 H 220.864 -4.97283 -4.5939 0
M  V30 2365 H 225.506 -2.25297 -3.57773 0
M  V30 2366 H 223.224 -6.55429 -4.72692 0
M  V30 2367 H 226.81 -4.33228 -3.88336 0
M  V30 2368 H 225.69 -6.45537 -4.45255 0
M  V30 2369 N 223.193 1.4272 -0.668489 0
M  V30 2370 C 224.418 2.06484 -0.194758 0
M  V30 2371 C 224.843 1.49862 1.13679 0
M  V30 2372 O 224.201 0.614582 1.70565 0
M  V30 2373 C 224.249 3.60353 -0.133546 0
M  V30 2374 O 223.353 4.02464 0.899806 0
M  V30 2375 H 222.694 0.656137 -0.10188 0
M  V30 2376 H 225.224 1.82964 -0.915722 0
M  V30 2377 H 225.234 4.07976 0.0447041 0
M  V30 2378 H 223.909 4.00938 -1.1055 0
M  V30 2379 H 222.486 3.66402 0.693109 0
M  V30 2380 N 224.671 0.411399 1.52136 0
M  V30 2381 C 225.899 -0.163076 2.06256 0
M  V30 2382 C 226.314 -1.3867 1.28125 0
M  V30 2383 O 225.671 -1.79423 0.333721 0
M  V30 2384 C 225.722 -0.511252 3.57867 0
M  V30 2385 O 225.443 0.66378 4.33042 0
M  V30 2386 C 226.944 -1.13921 4.28412 0
M  V30 2387 H 224.164 -0.0193897 0.67072 0
M  V30 2388 H 226.708 0.583007 1.96013 0
M  V30 2389 H 224.863 -1.20723 3.6811 0
M  V30 2390 H 225.277 0.372601 5.23175 0
M  V30 2391 H 226.751 -1.33302 5.35663 0
M  V30 2392 H 227.228 -2.11296 3.85033 0
M  V30 2393 H 227.834 -0.483373 4.22544 0
M  V30 2394 N 226.149 -1.5696 0.141893 0
M  V30 2395 C 227.112 -2.15316 -0.785587 0
M  V30 2396 C 228.112 -1.09366 -1.1788 0
M  V30 2397 O 229.302 -1.35031 -1.10056 0
M  V30 2398 C 226.434 -2.71211 -2.06537 0
M  V30 2399 H 227.627 -2.98608 -0.278041 0
M  V30 2400 H 225.18 -1.5593 -0.107519 0
M  V30 2401 H 225.915 -1.91571 -2.6167 0
M  V30 2402 H 225.7 -3.4872 -1.79268 0
M  V30 2403 H 227.19 -3.16189 -2.72789 0
M  V30 2404 N 227.627 0.131896 -1.57047 0
M  V30 2405 C 228.873 0.843179 -1.84441 0
M  V30 2406 C 229.206 1.80129 -0.725749 0
M  V30 2407 O 228.481 1.92624 0.269469 0
M  V30 2408 C 228.764 1.60442 -3.22382 0
M  V30 2409 C 228.617 0.666782 -4.4483 0
M  V30 2410 C 229.936 2.56354 -3.5773 0
M  V30 2411 H 227.055 0.305081 -0.670891 0
M  V30 2412 H 229.697 0.107839 -1.89694 0
M  V30 2413 H 227.847 2.23128 -3.18035 0
M  V30 2414 H 229.519 0.0497646 -4.61273 0
M  V30 2415 H 227.762 -0.022609 -4.33794 0
M  V30 2416 H 228.433 1.23579 -5.37989 0
M  V30 2417 H 230.909 2.0378 -3.62785 0
M  V30 2418 H 229.785 3.06657 -4.5525 0
M  V30 2419 H 230.046 3.38419 -2.84473 0
M  V30 2420 N 229.106 1.52395 0.401703 0
M  V30 2421 C 230.016 1.7917 1.51444 0
M  V30 2422 C 231.032 0.677691 1.6026 0
M  V30 2423 O 232.208 0.963909 1.76835 0
M  V30 2424 C 229.273 1.94347 2.87107 0
M  V30 2425 C 228.334 3.18257 2.88116 0
M  V30 2426 C 227.567 3.32701 4.17308 0
M  V30 2427 O 227.79 2.52238 5.11598 0
M  V30 2428 O 226.724 4.25891 4.25324 0
M  V30 2429 H 230.55 2.73633 1.31752 0
M  V30 2430 H 228.135 1.3733 0.588296 0
M  V30 2431 H 230.017 2.06109 3.67555 0
M  V30 2432 H 228.692 1.03073 3.06851 0
M  V30 2433 H 227.599 3.11947 2.06494 0
M  V30 2434 H 228.932 4.09336 2.73322 0
M  V30 2435 N 230.584 -0.659388 1.43143 0
M  V30 2436 C 231.831 -1.41935 1.44433 0
M  V30 2437 C 232.159 -1.94387 0.0663522 0
M  V30 2438 O 231.414 -1.72314 -0.927706 0
M  V30 2439 C 231.713 -2.62206 2.42864 0
M  V30 2440 C 231.379 -2.28208 3.88886 0
M  V30 2441 C 230.041 -2.18647 4.28657 0
M  V30 2442 C 232.393 -2.00887 4.8093 0
M  V30 2443 C 229.721 -1.79914 5.58433 0
M  V30 2444 C 232.073 -1.63653 6.11065 0
M  V30 2445 C 230.737 -1.52614 6.49819 0
M  V30 2446 H 230.007 -0.519376 0.528517 0
M  V30 2447 H 232.654 -0.750453 1.76183 0
M  V30 2448 H 230.959 -3.34199 2.04495 0
M  V30 2449 H 232.656 -3.2041 2.41119 0
M  V30 2450 H 229.246 -2.36557 3.57406 0
M  V30 2451 H 233.43 -2.07198 4.5098 0
M  V30 2452 H 228.686 -1.69948 5.87305 0
M  V30 2453 H 232.86 -1.41543 6.81864 0
M  V30 2454 H 230.487 -1.22371 7.50286 0
M  V30 2455 N 232.062 -1.29571 -0.897171 0
M  V30 2456 C 233.302 -1.18959 -1.66217 0
M  V30 2457 C 233.666 0.254271 -1.90309 0
M  V30 2458 O 234.867 0.483407 -2.64417 0
M  V30 2459 C 233.138 -1.98302 -2.9734 0
M  V30 2460 S 234.697 -2.04253 -3.88364 0
M  V30 2461 H 231.515 -0.424137 -0.570639 0
M  V30 2462 H 234.117 -1.6389 -1.06585 0
M  V30 2463 H 232.821 -3.02342 -2.77521 0
M  V30 2464 H 232.352 -1.53986 -3.62011 0
M  V30 2465 H 234.367 -1.16105 -4.82425 0
M  V30 2466 N 233.54 1.10788 -1.12088 0
M  V30 2467 C 234.487 2.17025 -0.785407 0
M  V30 2468 C 235.457 1.64265 0.246191 0
M  V30 2469 O 236.642 1.90412 0.121584 0
M  V30 2470 C 233.782 3.44249 -0.242177 0
M  V30 2471 C 232.895 4.1098 -1.33115 0
M  V30 2472 C 232.03 5.25911 -0.747741 0
M  V30 2473 C 231.069 5.84538 -1.81609 0
M  V30 2474 N 230.206 6.90853 -1.25167 0
M  V30 2475 H 235.046 2.45066 -1.69548 0
M  V30 2476 H 232.583 1.20297 -0.846582 0
M  V30 2477 H 234.541 4.17101 0.0908026 0
M  V30 2478 H 233.171 3.16571 0.631072 0
M  V30 2479 H 232.223 3.36133 -1.78097 0
M  V30 2480 H 233.535 4.50601 -2.13917 0
M  V30 2481 H 232.689 6.056 -0.365216 0
M  V30 2482 H 231.428 4.87614 0.0915188 0
M  V30 2483 H 230.433 5.03522 -2.20785 0
M  V30 2484 H 231.658 6.249 -2.6585 0
M  V30 2485 H 229.604 6.54562 -0.434174 0
M  V30 2486 H 229.521 7.29166 -1.99633 0
M  V30 2487 H 230.789 7.7433 -0.896259 0
M  V30 2488 N 235.018 0.912232 1.28515 0
M  V30 2489 C 235.965 0.397954 2.27343 0
M  V30 2490 C 236.935 -0.526766 1.57526 0
M  V30 2491 O 238.12 -0.449292 1.85435 0
M  V30 2492 C 235.26 -0.357263 3.43246 0
M  V30 2493 C 234.373 0.599788 4.27816 0
M  V30 2494 C 233.508 -0.173725 5.30916 0
M  V30 2495 C 232.547 0.777039 6.07148 0
M  V30 2496 N 231.684 0.0371398 7.0209 0
M  V30 2497 H 236.524 1.24577 2.70711 0
M  V30 2498 H 234.061 0.625612 1.33133 0
M  V30 2499 H 236.019 -0.8113 4.09236 0
M  V30 2500 H 234.649 -1.16943 3.00872 0
M  V30 2501 H 233.701 1.17235 3.61884 0
M  V30 2502 H 235.013 1.32704 4.80823 0
M  V30 2503 H 234.167 -0.688394 6.02782 0
M  V30 2504 H 232.906 -0.934041 4.78672 0
M  V30 2505 H 231.911 1.3031 5.34134 0
M  V30 2506 H 233.136 1.53689 6.61481 0
M  V30 2507 H 231.082 -0.705213 6.52198 0
M  V30 2508 H 230.999 0.704249 7.52713 0
M  V30 2509 H 232.267 -0.457383 7.78157 0
M  V30 2510 N 236.496 -1.42363 0.676048 0
M  V30 2511 C 237.443 -2.308 -0.00150904 0
M  V30 2512 C 238.413 -1.46032 -0.791444 0
M  V30 2513 O 239.598 -1.74861 -0.76344 0
M  V30 2514 C 236.738 -3.31883 -0.945919 0
M  V30 2515 C 235.851 -4.31741 -0.149675 0
M  V30 2516 C 234.986 -5.19898 -1.08995 0
M  V30 2517 C 234.025 -6.11434 -0.285465 0
M  V30 2518 N 233.162 -6.92138 -1.17851 0
M  V30 2519 H 238.002 -2.88187 0.758455 0
M  V30 2520 H 235.539 -1.41952 0.38576 0
M  V30 2521 H 237.497 -3.89019 -1.50731 0
M  V30 2522 H 236.127 -2.76093 -1.6725 0
M  V30 2523 H 235.179 -3.76713 0.528359 0
M  V30 2524 H 236.491 -4.96534 0.474866 0
M  V30 2525 H 235.645 -5.81772 -1.72123 0
M  V30 2526 H 234.384 -4.55284 -1.74837 0
M  V30 2527 H 233.389 -5.48627 0.359018 0
M  V30 2528 H 234.614 -6.78097 0.368883 0
M  V30 2529 H 232.56 -6.30152 -1.82332 0
M  V30 2530 H 232.477 -7.53542 -0.609082 0
M  V30 2531 H 233.745 -7.58499 -1.79722 0
M  V30 2532 N 237.974 -0.419461 -1.51915 0
M  V30 2533 C 239.199 0.154572 -2.06823 0
M  V30 2534 C 239.624 1.3722 -1.28656 0
M  V30 2535 O 238.982 1.78461 -0.319583 0
M  V30 2536 C 239.03 0.473172 -3.57482 0
M  V30 2537 O 238.134 1.56255 -3.81652 0
M  V30 2538 H 237.475 0.0096924 -0.663929 0
M  V30 2539 H 240.005 -0.595642 -1.95738 0
M  V30 2540 H 240.015 0.728825 -4.01438 0
M  V30 2541 H 238.69 -0.416873 -4.13805 0
M  V30 2542 H 237.267 1.29825 -3.49571 0
M  V30 2543 N 239.452 1.56882 -0.150215 0
M  V30 2544 C 240.692 1.98119 0.502804 0
M  V30 2545 C 241.056 1.03327 1.61826 0
M  V30 2546 O 242.257 1.33621 2.33236 0
M  V30 2547 C 240.528 3.43329 0.992988 0
M  V30 2548 S 242.087 4.0659 1.65015 0
M  V30 2549 H 238.905 0.692189 0.162467 0
M  V30 2550 H 241.507 1.93988 -0.242689 0
M  V30 2551 H 240.211 4.10046 0.170436 0
M  V30 2552 H 239.742 3.5118 1.77303 0
M  V30 2553 H 241.757 3.99906 2.93752 0
M  V30 2554 N 240.93 -0.123565 1.57115 0
M  V30 2555 C 242.341 -0.681198 1.73829 0
M  V30 2556 C 242.692 -1.80535 0.768214 0
M  V30 2557 O 241.817 -2.16317 -0.0599103 0
M  V30 2558 C 242.412 -1.24246 3.15196 0
M  V30 2559 C 240.971 -1.74643 3.33432 0
M  V30 2560 C 240.118 -0.644284 2.69711 0
M  V30 2561 H 243.069 0.102315 1.5837 0
M  V30 2562 H 243.09 -2.11216 3.16493 0
M  V30 2563 H 242.602 -0.424062 3.85776 0
M  V30 2564 H 240.703 -2.58974 2.67886 0
M  V30 2565 H 240.816 -1.85902 4.41562 0
M  V30 2566 H 239.18 -1.07676 2.3082 0
M  V30 2567 H 239.963 0.163058 3.42913 0
M  V30 2568 N 242.408 -1.52605 -0.393616 0
M  V30 2569 C 243.356 -1.77688 -1.50099 0
M  V30 2570 C 244.35 -0.644615 -1.56656 0
M  V30 2571 O 245.556 -0.826997 -1.59877 0
M  V30 2572 H 241.931 -0.562159 -0.499481 0
M  V30 2573 H 243.902 -2.7043 -1.26135 0
M  V30 2574 C 242.651 -1.95858 -2.87289 0
M  V30 2575 H 241.974 -2.8241 -2.82992 0
M  V30 2576 H 243.414 -2.174 -3.64024 0
M  V30 2577 C 241.873 -0.729848 -3.28899 0
M  V30 2578 O 242.403 0.0949217 -4.01588 0
M  V30 2579 N 240.609 -0.561283 -2.85128 0
M  V30 2580 H 240.156 -1.23357 -2.26143 0
M  V30 2581 H 240.114 0.2595 -3.13327 0
M  V30 2582 N 243.887 0.651787 -1.4349 0
M  V30 2583 C 245.298 1.233 -1.40193 0
M  V30 2584 C 245.649 1.9591 -0.106727 0
M  V30 2585 O 244.774 2.01316 0.793773 0
M  V30 2586 C 245.369 2.24257 -2.53957 0
M  V30 2587 C 243.928 2.77852 -2.5392 0
M  V30 2588 C 243.075 1.52517 -2.3159 0
M  V30 2589 H 246.026 0.443717 -1.52371 0
M  V30 2590 H 246.047 3.0646 -2.25528 0
M  V30 2591 H 245.559 1.71382 -3.4821 0
M  V30 2592 H 243.66 3.34786 -1.63551 0
M  V30 2593 H 243.773 3.25299 -3.51735 0
M  V30 2594 H 242.137 1.79915 -1.80285 0
M  V30 2595 H 242.92 1.01574 -3.27929 0
M  V30 2596 N 245.365 1.30045 0.890287 0
M  V30 2597 C 246.613 1.18327 1.63839 0
M  V30 2598 C 246.934 -0.263455 1.93212 0
M  V30 2599 O 246.204 -1.17856 1.56482 0
M  V30 2600 H 244.784 0.434933 0.607324 0
M  V30 2601 H 247.446 1.631 1.06698 0
M  V30 2602 H 246.542 1.74024 2.59079 0
M  V30 2603 N 246.843 -1.10192 1.12674 0
M  V30 2604 C 247.753 -2.20172 0.810026 0
M  V30 2605 C 248.769 -1.72821 -0.202188 0
M  V30 2606 O 249.945 -2.01369 -0.0351691 0
M  V30 2607 C 247.01 -3.45631 0.272007 0
M  V30 2608 C 246.071 -4.07704 1.34447 0
M  V30 2609 C 245.304 -5.27175 0.832029 0
M  V30 2610 O 245.527 -5.69425 -0.333284 0
M  V30 2611 O 244.461 -5.80168 1.60277 0
M  V30 2612 H 248.287 -2.49701 1.72867 0
M  V30 2613 H 245.872 -1.18977 0.903597 0
M  V30 2614 H 247.754 -4.21394 -0.0230219 0
M  V30 2615 H 246.429 -3.17723 -0.619164 0
M  V30 2616 H 245.336 -3.33614 1.6927 0
M  V30 2617 H 246.669 -4.3982 2.2095 0
M  V30 2618 N 248.321 -0.919034 -1.28029 0
M  V30 2619 C 249.57 -0.550802 -1.94034 0
M  V30 2620 C 249.883 0.910877 -1.73096 0
M  V30 2621 O 251.089 1.3875 -2.33368 0
M  V30 2622 C 249.545 -0.934249 -3.47563 0
M  V30 2623 C 249.153 -2.41602 -3.7727 0
M  V30 2624 C 250.897 -0.636854 -4.19696 0
M  V30 2625 C 248.804 -2.73932 -5.24133 0
M  V30 2626 H 247.734 -0.202273 -0.726362 0
M  V30 2627 H 250.385 -1.11867 -1.45458 0
M  V30 2628 H 248.767 -0.295115 -3.94899 0
M  V30 2629 H 249.941 -3.10233 -3.40723 0
M  V30 2630 H 248.256 -2.68441 -3.18321 0
M  V30 2631 H 250.853 -0.855005 -5.2782 0
M  V30 2632 H 251.196 0.425575 -4.14119 0
M  V30 2633 H 251.729 -1.23469 -3.78154 0
M  V30 2634 H 248.468 -3.79049 -5.34792 0
M  V30 2635 H 247.988 -2.09942 -5.61858 0
M  V30 2636 H 249.667 -2.61215 -5.91925 0
M  V30 2637 N 249.799 1.42003 -0.683588 0
M  V30 2638 C 251.215 1.55625 -0.353976 0
M  V30 2639 C 251.415 1.66151 1.14 0
M  V30 2640 O 250.471 1.63329 1.92561 0
M  V30 2641 C 251.784 2.80171 -1.092 0
M  V30 2642 C 253.332 2.93954 -1.07518 0
M  V30 2643 C 253.807 4.21372 -1.79471 0
M  V30 2644 N 255.298 4.28303 -1.76381 0
M  V30 2645 C 256.033 5.25729 -2.28904 0
M  V30 2646 N 255.529 6.29254 -2.89846 0
M  V30 2647 N 257.322 5.17586 -2.19228 0
M  V30 2648 H 249.473 1.33415 -1.6527 0
M  V30 2649 H 251.736 0.64282 -0.696769 0
M  V30 2650 H 251.442 2.78561 -2.14701 0
M  V30 2651 H 251.316 3.7133 -0.662862 0
M  V30 2652 H 253.703 2.95086 -0.028475 0
M  V30 2653 H 253.784 2.04002 -1.54328 0
M  V30 2654 H 253.428 4.21001 -2.84114 0
M  V30 2655 H 253.358 5.10275 -1.30104 0
M  V30 2656 H 255.849 3.54119 -1.31939 0
M  V30 2657 H 256.162 6.99964 -3.27522 0
M  V30 2658 H 254.507 6.29791 -2.93919 0
M  V30 2659 H 257.698 4.35631 -1.71299 0
M  V30 2660 H 257.871 5.93348 -2.60466 0
M  V30 2661 N 251.277 0.427512 1.51691 0
M  V30 2662 C 252.225 -0.403359 2.29076 0
M  V30 2663 C 253.219 -1.02962 1.34518 0
M  V30 2664 O 254.425 -0.965715 1.51901 0
M  V30 2665 H 250.8 -0.148879 0.737115 0
M  V30 2666 H 252.771 0.270295 2.97173 0
M  V30 2667 C 251.52 -1.49763 3.13794 0
M  V30 2668 H 250.843 -1.02508 3.86435 0
M  V30 2669 H 252.283 -2.05244 3.71014 0
M  V30 2670 C 250.742 -2.47536 2.28533 0
M  V30 2671 O 251.272 -3.51848 1.93819 0
M  V30 2672 N 249.478 -2.18187 1.91945 0
M  V30 2673 H 249.025 -1.33389 2.20375 0
M  V30 2674 H 248.983 -2.83848 1.35195 0
M  V30 2675 N 252.755 -1.56801 0.158532 0
M  V30 2676 C 254.003 -1.96102 -0.488712 0
M  V30 2677 C 254.324 -1.04498 -1.64636 0
M  V30 2678 O 253.594 -0.108783 -1.95598 0
M  V30 2679 H 252.174 -0.724102 -0.183535 0
M  V30 2680 H 254.836 -1.93457 0.236728 0
M  V30 2681 H 253.932 -3.00097 -0.857219 0
M  V30 2682 N 254.233 0.115231 -1.57178 0
M  V30 2683 C 255.165 1.16694 -1.97269 0
M  V30 2684 C 256.178 1.37445 -0.872502 0
M  V30 2685 O 257.367 1.36454 -1.15077 0
M  V30 2686 C 254.467 2.52627 -2.25905 0
M  V30 2687 C 253.64 2.52427 -3.57211 0
M  V30 2688 C 252.699 3.70134 -3.74016 0
M  V30 2689 O 251.725 3.53546 -4.46087 0
M  V30 2690 N 252.927 4.88844 -3.13068 0
M  V30 2691 H 255.692 0.82588 -2.88096 0
M  V30 2692 H 253.253 0.304461 -1.59011 0
M  V30 2693 H 255.245 3.29937 -2.34359 0
M  V30 2694 H 253.815 2.789 -1.41186 0
M  V30 2695 H 253.035 1.60805 -3.5991 0
M  V30 2696 H 254.323 2.49353 -4.43509 0
M  V30 2697 H 253.721 5.05225 -2.54489 0
M  V30 2698 H 252.278 5.63817 -3.27037 0
M  V30 2699 N 255.711 1.52812 0.385517 0
M  V30 2700 C 256.96 1.67249 1.12741 0
M  V30 2701 C 257.273 0.4205 1.91027 0
M  V30 2702 O 258.479 0.445064 2.67827 0
M  V30 2703 C 256.935 2.95583 2.05326 0
M  V30 2704 C 256.543 4.27974 1.32447 0
M  V30 2705 C 258.287 3.19386 2.7963 0
M  V30 2706 C 256.194 5.47412 2.23818 0
M  V30 2707 H 255.124 0.6231 0.424573 0
M  V30 2708 H 257.775 1.79309 0.389924 0
M  V30 2709 H 256.157 2.77277 2.82725 0
M  V30 2710 H 257.331 4.56844 0.602495 0
M  V30 2711 H 255.646 4.10459 0.700885 0
M  V30 2712 H 258.243 4.05801 3.48181 0
M  V30 2713 H 258.586 2.34604 3.43899 0
M  V30 2714 H 259.119 3.38274 2.09322 0
M  V30 2715 H 255.858 6.34612 1.64157 0
M  V30 2716 H 255.378 5.22849 2.93921 0
M  V30 2717 H 257.057 5.81423 2.83824 0
M  V30 2718 N 257.189 -0.644168 1.43834 0
M  V30 2719 C 258.466 -1.40188 1.36406 0
M  V30 2720 C 258.846 -2.11094 0.0163124 0
M  V30 2721 O 258.194 -2.05426 -1.00062 0
M  V30 2722 C 258.404 -2.3791 2.55343 0
M  V30 2723 C 259.752 -3.01637 2.98832 0
M  V30 2724 O 260.776 -2.48237 2.55455 0
M  V30 2725 O 259.635 -3.98477 3.74003 0
M  V30 2726 H 256.729 -0.626773 0.539523 0
M  V30 2727 H 259.275 -0.670317 1.559 0
M  V30 2728 H 258.047 -1.84525 3.4506 0
M  V30 2729 H 257.67 -3.18503 2.37995 0
M  V30 2730 N 258.668 -1.30515 -0.883378 0
M  V30 2731 C 259.914 -1.19607 -1.63774 0
M  V30 2732 C 260.247 0.248314 -1.92606 0
M  V30 2733 O 259.522 1.17742 -1.54813 0
M  V30 2734 C 259.805 -2.02669 -2.97653 0
M  V30 2735 C 259.658 -3.55335 -2.75784 0
M  V30 2736 C 260.977 -1.86573 -3.98596 0
M  V30 2737 H 258.096 -0.435856 -0.594305 0
M  V30 2738 H 260.738 -1.60165 -1.02212 0
M  V30 2739 H 258.888 -1.68208 -3.50197 0
M  V30 2740 H 260.56 -3.99863 -2.30016 0
M  V30 2741 H 258.803 -3.79438 -2.1026 0
M  V30 2742 H 259.474 -4.08745 -3.70988 0
M  V30 2743 H 261.95 -2.16703 -3.55217 0
M  V30 2744 H 260.826 -2.47014 -4.90179 0
M  V30 2745 H 261.087 -0.825321 -4.34328 0
M  V30 2746 N 260.146 1.09593 -1.13257 0
M  V30 2747 C 261.557 1.63229 -0.906274 0
M  V30 2748 C 261.908 1.8811 0.557578 0
M  V30 2749 O 261.033 1.62953 1.42391 0
M  V30 2750 C 261.628 2.96535 -1.63867 0
M  V30 2751 C 260.187 3.47003 -1.45828 0
M  V30 2752 C 259.334 2.2145 -1.66898 0
M  V30 2753 H 262.285 0.92978 -1.28611 0
M  V30 2754 H 262.306 3.64411 -1.09476 0
M  V30 2755 H 261.818 2.78394 -2.70404 0
M  V30 2756 H 259.919 3.70272 -0.415848 0
M  V30 2757 H 260.032 4.24551 -2.2202 0
M  V30 2758 H 258.396 2.30022 -1.09371 0
M  V30 2759 H 259.179 2.0583 -2.74752 0
M  V30 2760 N 261.624 0.925811 1.2754 0
M  V30 2761 C 262.872 0.564138 1.94067 0
M  V30 2762 C 263.193 -0.897188 1.73134 0
M  V30 2763 O 262.463 -1.63573 1.07799 0
M  V30 2764 H 261.043 0.205645 0.718136 0
M  V30 2765 H 263.705 1.1778 1.55287 0
M  V30 2766 H 262.801 0.76881 3.02483 0
M  V30 2767 N 263.102 -1.41638 0.69111 0
M  V30 2768 C 264.35 -2.00902 0.219758 0
M  V30 2769 C 264.671 -1.54994 -1.18329 0
M  V30 2770 O 263.941 -0.778628 -1.79762 0
M  V30 2771 H 262.521 -0.74289 0.0782558 0
M  V30 2772 H 265.183 -1.73327 0.891271 0
M  V30 2773 H 264.279 -3.11224 0.233708 0
M  V30 2774 N 264.58 -0.43555 -1.51462 0
M  V30 2775 C 265.829 0.133007 -2.01261 0
M  V30 2776 C 266.142 1.43942 -1.32439 0
M  V30 2777 O 267.348 2.09081 -1.73198 0
M  V30 2778 C 265.804 0.287581 -3.58749 0
M  V30 2779 C 265.412 -1.00829 -4.36506 0
M  V30 2780 C 267.156 0.810004 -4.167 0
M  V30 2781 C 265.063 -0.819454 -5.85695 0
M  V30 2782 H 263.993 0.0534822 -0.752101 0
M  V30 2783 H 266.644 -0.565038 -1.74584 0
M  V30 2784 H 265.026 1.04859 -3.81865 0
M  V30 2785 H 266.2 -1.77749 -4.25138 0
M  V30 2786 H 264.515 -1.45911 -3.89999 0
M  V30 2787 H 267.112 0.967743 -5.2587 0
M  V30 2788 H 267.455 1.79196 -3.75758 0
M  V30 2789 H 267.988 0.107357 -3.97655 0
M  V30 2790 H 264.727 -1.77374 -6.31046 0
M  V30 2791 H 264.247 -0.0900208 -5.99732 0
M  V30 2792 H 265.926 -0.471949 -6.45276 0
M  V30 2793 N 266.058 1.56714 -0.166846 0
M  V30 2794 C 266.988 2.20754 0.760913 0
M  V30 2795 C 267.969 1.16178 1.24244 0
M  V30 2796 O 269.154 1.44592 1.29641 0
M  V30 2797 C 266.284 2.84478 1.99223 0
M  V30 2798 C 265.238 3.95053 1.64672 0
M  V30 2799 C 264.564 4.45805 2.95232 0
M  V30 2800 C 265.864 5.14865 0.878155 0
M  V30 2801 H 267.558 2.98537 0.22713 0
M  V30 2802 H 265.104 1.43596 0.107805 0
M  V30 2803 H 267.057 3.27951 2.64624 0
M  V30 2804 H 265.781 2.04056 2.55007 0
M  V30 2805 H 264.44 3.52228 1.01641 0
M  V30 2806 H 264.088 3.62181 3.49047 0
M  V30 2807 H 263.788 5.204 2.7287 0
M  V30 2808 H 265.312 4.91962 3.6167 0
M  V30 2809 H 266.726 5.55059 1.43466 0
M  V30 2810 H 265.123 5.95348 0.753738 0
M  V30 2811 H 266.193 4.84735 -0.126377 0
M  V30 2812 N 267.536 -0.106894 1.57237 0
M  V30 2813 C 268.783 -0.812526 1.85484 0
M  V30 2814 C 269.111 -1.79304 0.753687 0
M  V30 2815 O 268.366 -1.94047 -0.253853 0
M  V30 2816 C 268.665 -1.58628 3.20268 0
M  V30 2817 C 268.331 -0.748967 4.44636 0
M  V30 2818 C 266.993 -0.518104 4.78403 0
M  V30 2819 C 269.345 -0.166122 5.20935 0
M  V30 2820 C 266.673 0.305659 5.85903 0
M  V30 2821 C 269.025 0.644899 6.29304 0
M  V30 2822 C 267.689 0.885965 6.61594 0
M  V30 2823 H 266.959 -0.297324 0.678734 0
M  V30 2824 H 269.606 -0.0744332 1.91355 0
M  V30 2825 H 267.911 -2.39562 3.10028 0
M  V30 2826 H 269.608 -2.13643 3.39349 0
M  V30 2827 H 266.198 -0.939006 4.18187 0
M  V30 2828 H 270.382 -0.33167 4.95191 0
M  V30 2829 H 265.638 0.501528 6.0934 0
M  V30 2830 H 269.812 1.10345 6.87602 0
M  V30 2831 H 267.439 1.52609 7.44725 0
M  V30 2832 N 269.014 -1.53014 -0.377408 0
M  V30 2833 C 270.262 -1.6829 -1.11906 0
M  V30 2834 C 270.583 -0.431206 -1.90173 0
M  V30 2835 O 269.853 0.554595 -1.87886 0
M  V30 2836 H 268.433 -0.620371 -0.416112 0
M  V30 2837 H 271.095 -1.90167 -0.426893 0
M  V30 2838 H 270.191 -2.53862 -1.8155 0
M  V30 2839 N 270.492 0.636531 -1.44174 0
M  V30 2840 C 271.455 1.73063 -1.50273 0
M  V30 2841 C 272.455 1.56113 -0.385397 0
M  V30 2842 O 273.645 1.61707 -0.64781 0
M  V30 2843 C 270.777 3.12096 -1.37145 0
M  V30 2844 H 271.97 1.69031 -2.47727 0
M  V30 2845 H 269.523 0.849706 -1.31186 0
M  V30 2846 H 270.258 3.21728 -0.407636 0
M  V30 2847 H 270.043 3.25805 -2.18159 0
M  V30 2848 H 271.533 3.91846 -1.44382 0
M  V30 2849 N 271.97 1.30982 0.876444 0
M  V30 2850 C 273.198 1.23242 1.6619 0
M  V30 2851 C 273.613 -0.203345 1.87702 0
M  V30 2852 O 272.97 -1.13317 1.43057 0
M  V30 2853 C 273.021 1.96623 3.03351 0
M  V30 2854 O 272.742 3.34594 2.82804 0
M  V30 2855 C 274.243 1.95644 3.97792 0
M  V30 2856 H 271.463 0.426126 0.518322 0
M  V30 2857 H 274.007 1.7275 1.09442 0
M  V30 2858 H 272.162 1.50892 3.56806 0
M  V30 2859 H 272.576 3.71873 3.69879 0
M  V30 2860 H 274.05 2.51511 4.91372 0
M  V30 2861 H 274.527 0.937395 4.2908 0
M  V30 2862 H 275.133 2.41225 3.50272 0
M  V30 2863 N 273.449 -1.08991 1.13837 0
M  V30 2864 C 274.698 -1.80631 0.897509 0
M  V30 2865 C 275.011 -1.86872 -0.57777 0
M  V30 2866 O 276.217 -2.54866 -0.935701 0
M  V30 2867 C 274.673 -3.24517 1.55618 0
M  V30 2868 C 274.281 -3.26529 3.0673 0
M  V30 2869 C 276.025 -4.00882 1.3962 0
M  V30 2870 C 273.932 -4.64965 3.65461 0
M  V30 2871 H 272.862 -0.67691 0.332129 0
M  V30 2872 H 275.513 -1.2246 1.3666 0
M  V30 2873 H 273.895 -3.82778 1.01476 0
M  V30 2874 H 275.069 -2.78008 3.67489 0
M  V30 2875 H 273.384 -2.63656 3.22296 0
M  V30 2876 H 275.981 -5.03167 1.80906 0
M  V30 2877 H 276.324 -4.14896 0.341578 0
M  V30 2878 H 276.857 -3.49075 1.90766 0
M  V30 2879 H 273.596 -4.56153 4.70749 0
M  V30 2880 H 273.116 -5.13792 3.09481 0
M  V30 2881 H 274.795 -5.3394 3.654 0
M  V30 2882 N 274.927 -0.932562 -1.27047 0
M  V30 2883 C 276.152 -0.591474 -1.98787 0
M  V30 2884 C 276.577 0.824601 -1.69062 0
M  V30 2885 O 275.935 1.5541 -0.933677 0
M  V30 2886 C 275.983 -0.829808 -3.50922 0
M  V30 2887 O 275.087 0.102266 -4.12273 0
M  V30 2888 H 274.428 -0.227185 -0.623926 0
M  V30 2889 H 276.958 -1.25314 -1.61733 0
M  V30 2890 H 276.968 -0.747292 -4.01098 0
M  V30 2891 H 275.643 -1.86201 -3.7189 0
M  V30 2892 H 274.22 -0.0305761 -3.72887 0
M  V30 2893 N 276.405 1.4127 -0.698611 0
M  V30 2894 C 277.652 2.0118 -0.230865 0
M  V30 2895 C 277.98 1.55338 1.17049 0
M  V30 2896 O 277.235 0.756775 1.80475 0
M  V30 2897 C 277.534 3.56592 -0.240192 0
M  V30 2898 C 277.2 4.21955 -1.58948 0
M  V30 2899 C 275.862 4.39524 -1.95887 0
M  V30 2900 C 278.214 4.58576 -2.47704 0
M  V30 2901 C 275.542 4.90992 -3.2116 0
M  V30 2902 C 277.894 5.11435 -3.72313 0
M  V30 2903 C 276.558 5.27215 -4.0939 0
M  V30 2904 H 275.828 0.736169 -0.0844796 0
M  V30 2905 H 278.475 1.69124 -0.8983 0
M  V30 2906 H 276.78 3.88456 0.510797 0
M  V30 2907 H 278.477 4.00758 0.139296 0
M  V30 2908 H 275.067 4.08657 -1.29219 0
M  V30 2909 H 279.251 4.44654 -2.20445 0
M  V30 2910 H 274.507 5.01393 -3.49878 0
M  V30 2911 H 278.681 5.38752 -4.4127 0
M  V30 2912 H 276.308 5.66859 -5.06533 0
M  V30 2913 N 277.883 0.443576 1.51229 0
M  V30 2914 C 279.108 -0.121648 2.07043 0
M  V30 2915 C 279.533 -1.35156 1.30823 0
M  V30 2916 O 278.891 -1.7793 0.347934 0
M  V30 2917 C 278.939 -0.41624 3.5819 0
M  V30 2918 O 278.043 -1.50163 3.8409 0
M  V30 2919 H 277.384 0.000871367 0.663999 0
M  V30 2920 H 279.914 0.626706 1.94765 0
M  V30 2921 H 279.924 -0.664867 4.02546 0
M  V30 2922 H 278.599 0.482653 4.1309 0
M  V30 2923 H 277.176 -1.24248 3.51592 0
M  V30 2924 N 279.361 -1.56624 0.175154 0
M  V30 2925 C 280.601 -1.98894 -0.471221 0
M  V30 2926 C 280.965 -1.05889 -1.60161 0
M  V30 2927 O 282.166 -1.37315 -2.3108 0
M  V30 2928 C 280.437 -3.44865 -0.938241 0
M  V30 2929 S 281.996 -4.09164 -1.58526 0
M  V30 2930 H 278.814 -0.694686 -0.151434 0
M  V30 2931 H 281.416 -1.93577 0.27352 0
M  V30 2932 H 280.12 -4.10265 -0.10518 0
M  V30 2933 H 279.651 -3.53956 -1.71693 0
M  V30 2934 H 281.666 -4.04528 -2.87352 0
M  V30 2935 N 280.839 0.0985539 -1.57292 0
M  V30 2936 C 281.787 1.1387 -2.02821 0
M  V30 2937 C 282.781 1.41676 -0.928666 0
M  V30 2938 O 283.987 1.41398 -1.11385 0
M  V30 2939 H 280.362 0.384419 -0.646317 0
M  V30 2940 H 282.333 0.728347 -2.89375 0
M  V30 2941 C 281.082 2.45166 -2.46554 0
M  V30 2942 H 280.405 2.24613 -3.3074 0
M  V30 2943 H 281.845 3.16456 -2.8219 0
M  V30 2944 C 280.304 3.09216 -1.33742 0
M  V30 2945 O 280.834 3.96163 -0.66464 0
M  V30 2946 N 279.04 2.69413 -1.08928 0
M  V30 2947 H 278.587 1.98801 -1.63817 0
M  V30 2948 H 278.545 3.12594 -0.336458 0
M  V30 2949 N 282.317 1.53212 0.369288 0
M  V30 2950 C 283.545 1.73119 1.13303 0
M  V30 2951 C 283.96 0.458455 1.83149 0
M  V30 2952 O 283.317 -0.568403 1.73423 0
M  V30 2953 C 283.368 2.89413 2.16616 0
M  V30 2954 O 283.089 4.11761 1.49614 0
M  V30 2955 C 284.59 3.21161 3.05566 0
M  V30 2956 H 281.81 0.579107 0.338934 0
M  V30 2957 H 284.354 1.99942 0.429338 0
M  V30 2958 H 282.509 2.64994 2.82589 0
M  V30 2959 H 282.923 4.76858 2.18419 0
M  V30 2960 H 284.397 4.05949 3.74045 0
M  V30 2961 H 284.874 2.36369 3.70171 0
M  V30 2962 H 285.48 3.47492 2.45213 0
M  V30 2963 N 283.795 -0.628877 1.44509 0
M  V30 2964 C 285.043 -1.38565 1.4712 0
M  V30 2965 C 285.364 -1.94712 0.105899 0
M  V30 2966 O 284.634 -1.75912 -0.862079 0
M  V30 2967 H 283.214 -0.514333 0.541729 0
M  V30 2968 H 285.876 -0.740018 1.80305 0
M  V30 2969 H 284.972 -2.21583 2.19789 0
M  V30 2970 N 285.273 -1.31445 -0.869486 0
M  V30 2971 C 286.503 -1.23942 -1.65294 0
M  V30 2972 C 286.911 0.197561 -1.88166 0
M  V30 2973 O 286.254 1.14019 -1.44033 0
M  V30 2974 C 286.316 -1.91385 -3.04322 0
M  V30 2975 C 285.98 -3.40726 -3.04557 0
M  V30 2976 C 286.977 -4.36464 -2.82481 0
M  V30 2977 C 284.662 -3.82425 -3.25663 0
M  V30 2978 C 286.656 -5.71876 -2.8149 0
M  V30 2979 C 284.343 -5.1795 -3.243 0
M  V30 2980 C 285.341 -6.12486 -3.02241 0
M  V30 2981 O 285.029 -7.45534 -3.00724 0
M  V30 2982 H 284.761 -0.429459 -0.522054 0
M  V30 2983 H 287.315 -1.73873 -1.0935 0
M  V30 2984 H 285.545 -1.36004 -3.61994 0
M  V30 2985 H 287.234 -1.77791 -3.64891 0
M  V30 2986 H 288 -4.05576 -2.65956 0
M  V30 2987 H 283.879 -3.09274 -3.41863 0
M  V30 2988 H 287.423 -6.45638 -2.64191 0
M  V30 2989 H 283.32 -5.48473 -3.40365 0
M  V30 2990 H 284.088 -7.54713 -3.16782 0
M  V30 2991 N 286.751 1.08385 -1.14413 0
M  V30 2992 C 287.698 2.15311 -0.831265 0
M  V30 2993 C 288.668 1.64751 0.211292 0
M  V30 2994 O 289.853 1.90627 0.0811674 0
M  V30 2995 C 286.993 3.43658 -0.315143 0
M  V30 2996 C 286.106 4.08064 -1.41802 0
M  V30 2997 C 285.241 5.24207 -0.859126 0
M  V30 2998 C 284.28 5.80554 -1.93967 0
M  V30 2999 N 283.417 6.88042 -1.39793 0
M  V30 3000 H 288.257 2.41415 -1.74708 0
M  V30 3001 H 285.794 1.18474 -0.871909 0
M  V30 3002 H 287.752 4.172 0.00230884 0
M  V30 3003 H 286.382 3.17839 0.56378 0
M  V30 3004 H 285.434 3.3228 -1.85187 0
M  V30 3005 H 286.746 4.45962 -2.23427 0
M  V30 3006 H 285.9 6.04689 -0.49359 0
M  V30 3007 H 284.639 4.87699 -0.011932 0
M  V30 3008 H 283.644 4.98725 -2.31415 0
M  V30 3009 H 284.869 6.19121 -2.79046 0
M  V30 3010 H 282.815 6.53493 -0.572919 0
M  V30 3011 H 282.732 7.24767 -2.15054 0
M  V30 3012 H 284 7.72255 -1.0603 0
M  V30 3013 N 288.23 0.939286 1.26551 0
M  V30 3014 C 289.16 0.465044 2.28822 0
M  V30 3015 C 290.141 -0.480692 1.63167 0
M  V30 3016 O 291.326 -0.382955 1.90387 0
M  V30 3017 C 288.456 -0.27234 3.46231 0
M  V30 3018 C 287.41 0.58666 4.2396 0
M  V30 3019 C 286.736 -0.280573 5.33963 0
M  V30 3020 C 288.036 1.85704 4.88171 0
M  V30 3021 H 289.73 1.31979 2.68741 0
M  V30 3022 H 287.276 0.636061 1.29191 0
M  V30 3023 H 289.229 -0.615133 4.16886 0
M  V30 3024 H 287.953 -1.16121 3.0526 0
M  V30 3025 H 286.612 0.91232 3.55067 0
M  V30 3026 H 286.26 -1.16874 4.89234 0
M  V30 3027 H 285.96 0.29076 5.8688 0
M  V30 3028 H 287.484 -0.618678 6.07458 0
M  V30 3029 H 288.898 1.58161 5.51052 0
M  V30 3030 H 287.295 2.37279 5.51197 0
M  V30 3031 H 288.365 2.56957 4.11219 0
M  V30 3032 N 289.708 -1.40897 0.706093 0
M  V30 3033 C 290.955 -2.01054 0.241531 0
M  V30 3034 C 291.283 -1.55956 -1.16223 0
M  V30 3035 O 290.538 -0.766336 -1.80072 0
M  V30 3036 C 290.837 -3.5646 0.259099 0
M  V30 3037 C 290.503 -4.21106 1.61184 0
M  V30 3038 C 289.165 -4.38479 1.98216 0
M  V30 3039 C 291.517 -4.57256 2.50132 0
M  V30 3040 C 288.845 -4.89282 3.2376 0
M  V30 3041 C 291.197 -5.09454 3.7502 0
M  V30 3042 C 289.861 -5.25037 4.12181 0
M  V30 3043 H 289.131 -0.73571 0.0883825 0
M  V30 3044 H 291.778 -1.68645 0.907257 0
M  V30 3045 H 290.083 -3.88721 -0.490189 0
M  V30 3046 H 291.78 -4.00826 -0.11804 0
M  V30 3047 H 288.37 -4.07966 1.31384 0
M  V30 3048 H 292.554 -4.43479 2.228 0
M  V30 3049 H 287.81 -4.99531 3.52532 0
M  V30 3050 H 291.984 -5.36404 4.44121 0
M  V30 3051 H 289.611 -5.64164 5.09532 0
M  V30 3052 N 291.186 -0.45159 -1.50991 0
M  V30 3053 C 292.434 0.109857 -2.01801 0
M  V30 3054 C 292.755 1.41958 -1.3369 0
M  V30 3055 O 292.025 1.9003 -0.475951 0
M  V30 3056 H 290.605 0.0435884 -0.745727 0
M  V30 3057 H 293.267 -0.597557 -1.85514 0
M  V30 3058 H 292.363 0.275489 -3.10882 0
M  V30 3059 N 292.664 1.56529 -0.183458 0
M  V30 3060 C 293.889 2.02064 0.467428 0
M  V30 3061 C 294.314 1.06282 1.55196 0
M  V30 3062 O 293.672 0.0443565 1.81246 0
M  V30 3063 C 293.72 3.46122 1.01153 0
M  V30 3064 O 292.824 3.53437 2.12499 0
M  V30 3065 H 292.165 0.654726 0.110588 0
M  V30 3066 H 294.695 2.02521 -0.290917 0
M  V30 3067 H 294.705 3.85676 1.33108 0
M  V30 3068 H 293.38 4.15331 0.217533 0
M  V30 3069 H 291.957 3.2575 1.81497 0
M  V30 3070 N 294.142 -0.090211 1.57342 0
M  V30 3071 C 295.37 -0.806224 1.90546 0
M  V30 3072 C 295.785 -1.72041 0.777644 0
M  V30 3073 O 295.142 -1.80778 -0.250103 0
M  V30 3074 C 295.193 -1.61546 3.23396 0
M  V30 3075 O 294.914 -0.738043 4.31839 0
M  V30 3076 C 296.415 -2.4341 3.70495 0
M  V30 3077 H 293.635 -0.230256 0.630257 0
M  V30 3078 H 296.179 -0.0659843 2.04394 0
M  V30 3079 H 294.334 -2.30816 3.11131 0
M  V30 3080 H 294.748 -1.29901 5.08159 0
M  V30 3081 H 296.222 -2.95676 4.66133 0
M  V30 3082 H 296.699 -3.22098 2.98579 0
M  V30 3083 H 297.305 -1.79331 3.85643 0
M  V30 3084 N 295.62 -1.53406 -0.361157 0
M  V30 3085 C 296.845 -1.74024 -1.12829 0
M  V30 3086 C 297.27 -0.470069 -1.82132 0
M  V30 3087 O 296.628 0.57619 -1.719 0
M  V30 3088 C 296.676 -2.90903 -2.13091 0
M  V30 3089 O 295.78 -2.59821 -3.20261 0
M  V30 3090 H 295.121 -0.577804 -0.327168 0
M  V30 3091 H 297.651 -2.00307 -0.41693 0
M  V30 3092 H 297.661 -3.17194 -2.56616 0
M  V30 3093 H 296.336 -3.83034 -1.62042 0
M  V30 3094 H 294.913 -2.44362 -2.81677 0
M  V30 3095 N 297.098 0.621204 -1.44841 0
M  V30 3096 C 298.323 1.41244 -1.51871 0
M  V30 3097 C 298.748 1.87519 -0.147764 0
M  V30 3098 O 298.106 1.59334 0.865 0
M  V30 3099 C 298.154 2.60221 -2.49634 0
M  V30 3100 O 297.258 3.60395 -2.00473 0
M  V30 3101 H 296.599 0.42223 -0.512463 0
M  V30 3102 H 299.129 0.757305 -1.90069 0
M  V30 3103 H 299.139 3.0764 -2.67996 0
M  V30 3104 H 297.814 2.25887 -3.4921 0
M  V30 3105 H 296.391 3.19717 -1.91925 0
M  V30 3106 N 298.576 1.31904 0.862503 0
M  V30 3107 C 299.823 1.22017 1.61611 0
M  V30 3108 C 300.151 -0.21991 1.93253 0
M  V30 3109 O 299.406 -1.17076 1.56817 0
M  V30 3110 C 299.705 2.01713 2.95037 0
M  V30 3111 C 299.371 3.51145 2.82857 0
M  V30 3112 C 298.033 3.91889 2.79243 0
M  V30 3113 C 300.385 4.46204 2.69353 0
M  V30 3114 C 297.713 5.25947 2.59993 0
M  V30 3115 C 300.065 5.80397 2.5164 0
M  V30 3116 C 298.729 6.20352 2.46413 0
M  V30 3117 H 297.999 0.44649 0.591378 0
M  V30 3118 H 300.646 1.63248 1.00111 0
M  V30 3119 H 298.951 1.53185 3.60613 0
M  V30 3120 H 300.648 1.91437 3.52353 0
M  V30 3121 H 297.238 3.1878 2.86491 0
M  V30 3122 H 301.422 4.15652 2.71196 0
M  V30 3123 H 296.678 5.5597 2.54376 0
M  V30 3124 H 300.852 6.53676 2.40169 0
M  V30 3125 H 298.479 7.24172 2.31256 0
M  V30 3126 N 300.054 -1.07777 1.14986 0
M  V30 3127 C 301.294 -1.81888 0.932527 0
M  V30 3128 C 301.658 -1.84509 -0.531064 0
M  V30 3129 O 302.859 -2.54448 -0.866577 0
M  V30 3130 C 301.13 -3.23244 1.52473 0
M  V30 3131 S 302.689 -4.14154 1.44989 0
M  V30 3132 H 299.507 -0.626752 0.335712 0
M  V30 3133 H 302.109 -1.29503 1.46455 0
M  V30 3134 H 300.813 -3.18922 2.58296 0
M  V30 3135 H 300.344 -3.80704 0.991381 0
M  V30 3136 H 302.359 -4.94247 0.439799 0
M  V30 3137 N 301.532 -0.945985 -1.26051 0
M  V30 3138 C 302.462 -0.477172 -2.28572 0
M  V30 3139 C 303.443 0.472032 -1.63419 0
M  V30 3140 O 304.628 0.372853 -1.90587 0
M  V30 3141 C 301.758 0.253975 -3.4637 0
M  V30 3142 C 300.712 -0.609135 -4.23643 0
M  V30 3143 C 300.038 0.252252 -5.34105 0
M  V30 3144 C 301.338 -1.8829 -4.8718 0
M  V30 3145 H 303.032 -1.33402 -2.68038 0
M  V30 3146 H 300.578 -0.642904 -1.28852 0
M  V30 3147 H 302.531 0.593016 -4.17207 0
M  V30 3148 H 301.255 1.145 -3.05871 0
M  V30 3149 H 299.914 -0.931138 -3.54578 0
M  V30 3150 H 299.562 1.14278 -4.89846 0
M  V30 3151 H 299.262 -0.32188 -5.86718 0
M  V30 3152 H 300.786 0.586454 -6.07777 0
M  V30 3153 H 302.2 -1.61081 -5.50205 0
M  V30 3154 H 300.597 -2.40199 -5.49931 0
M  V30 3155 H 301.667 -2.59134 -4.09851 0
M  V30 3156 N 303.011 1.40521 -0.713556 0
M  V30 3157 C 304.26 2.00155 -0.249192 0
M  V30 3158 C 304.573 1.57224 1.16362 0
M  V30 3159 O 305.779 2.09542 1.72639 0
M  V30 3160 C 304.235 3.5773 -0.3946 0
M  V30 3161 C 303.843 4.09635 -1.81392 0
M  V30 3162 C 305.587 4.24499 0.00907364 0
M  V30 3163 C 303.494 5.59707 -1.91003 0
M  V30 3164 H 302.424 0.74868 -0.0894114 0
M  V30 3165 H 305.075 1.60784 -0.884352 0
M  V30 3166 H 303.457 3.94792 0.30911 0
M  V30 3167 H 304.631 3.83955 -2.54785 0
M  V30 3168 H 302.946 3.55456 -2.16888 0
M  V30 3169 H 305.543 5.34683 -0.0420404 0
M  V30 3170 H 305.886 4.02824 1.05065 0
M  V30 3171 H 306.419 3.92536 -0.645007 0
M  V30 3172 H 303.158 5.86234 -2.93275 0
M  V30 3173 H 302.678 5.87258 -1.22019 0
M  V30 3174 H 304.357 6.24776 -1.6812 0
M  V30 3175 N 304.489 0.459591 1.5075 0
M  V30 3176 C 305.714 -0.0996819 2.0716 0
M  V30 3177 C 306.139 -1.33761 1.32249 0
M  V30 3178 O 305.497 -1.77551 0.366786 0
M  V30 3179 C 305.545 -0.378226 3.58611 0
M  V30 3180 O 304.649 -1.46081 3.85661 0
M  V30 3181 H 303.99 0.00791392 0.663953 0
M  V30 3182 H 306.52 0.647329 1.9409 0
M  V30 3183 H 306.53 -0.622135 4.03229 0
M  V30 3184 H 305.205 0.526439 4.12555 0
M  V30 3185 H 303.782 -1.20511 3.5289 0
M  V30 3186 N 305.967 -1.56429 0.191757 0
M  V30 3187 C 307.215 -1.97095 -0.447006 0
M  V30 3188 C 307.536 -1.07967 -1.62383 0
M  V30 3189 O 306.806 -0.150248 -1.95323 0
M  V30 3190 H 305.386 -0.727832 -0.168135 0
M  V30 3191 H 308.048 -1.92911 0.27771 0
M  V30 3192 H 307.144 -3.01848 -0.793371 0
M  V30 3193 N 307.445 0.0818655 -1.57387 0
M  V30 3194 C 308.67 0.799946 -1.91352 0
M  V30 3195 C 309.095 1.70833 -0.787258 0
M  V30 3196 O 308.453 1.79419 0.26048 0
M  V30 3197 C 308.501 1.57812 -3.24234 0
M  V30 3198 O 307.605 2.68806 -3.12757 0
M  V30 3199 H 306.946 0.21891 -0.626877 0
M  V30 3200 H 309.476 0.0531256 -2.04531 0
M  V30 3201 H 309.486 1.95952 -3.57864 0
M  V30 3202 H 308.161 0.911548 -4.05788 0
M  V30 3203 H 306.738 2.33597 -2.90666 0
M  V30 3204 N 308.923 1.53595 0.353017 0
M  V30 3205 C 310.148 1.7462 1.11904 0
M  V30 3206 C 310.573 0.479721 1.8188 0
M  V30 3207 O 309.931 -0.567066 1.72204 0
M  V30 3208 C 309.979 2.92029 2.11545 0
M  V30 3209 O 309.083 2.61516 3.18878 0
M  V30 3210 H 308.424 0.579531 0.324099 0
M  V30 3211 H 310.954 2.00525 0.406301 0
M  V30 3212 H 310.964 3.18551 2.5493 0
M  V30 3213 H 309.639 3.83888 1.60008 0
M  V30 3214 H 308.216 2.45852 2.80377 0
M  V30 3215 N 310.401 -0.613514 1.45168 0
M  V30 3216 C 311.647 -1.37471 1.49096 0
M  V30 3217 C 311.98 -1.93765 0.129901 0
M  V30 3218 O 311.255 -1.74707 -0.854858 0
M  V30 3219 C 311.538 -2.52701 2.56542 0
M  V30 3220 C 311.391 -2.01643 4.0207 0
M  V30 3221 C 312.71 -3.54849 2.60327 0
M  V30 3222 H 309.829 -0.498502 0.54283 0
M  V30 3223 H 312.471 -0.692125 1.76945 0
M  V30 3224 H 310.621 -3.10931 2.32926 0
M  V30 3225 H 312.293 -1.48108 4.36877 0
M  V30 3226 H 310.536 -1.32688 4.13009 0
M  V30 3227 H 311.207 -2.84681 4.72928 0
M  V30 3228 H 313.683 -3.0645 2.81474 0
M  V30 3229 H 312.559 -4.32973 3.37381 0
M  V30 3230 H 312.82 -4.10079 1.6519 0
M  V30 3231 N 311.879 -1.3236 -0.855495 0
M  V30 3232 C 312.811 -1.17052 -1.97057 0
M  V30 3233 C 313.824 -0.10574 -1.62456 0
M  V30 3234 O 315.013 -0.354619 -1.74942 0
M  V30 3235 C 312.113 -0.769305 -3.30053 0
M  V30 3236 C 311.286 -1.9222 -3.929 0
M  V30 3237 C 310.345 -1.50466 -5.04228 0
M  V30 3238 O 309.371 -2.21655 -5.24269 0
M  V30 3239 N 310.573 -0.400209 -5.79119 0
M  V30 3240 H 313.338 -2.13103 -2.1073 0
M  V30 3241 H 310.899 -1.24885 -1.0303 0
M  V30 3242 H 312.891 -0.472407 -4.01933 0
M  V30 3243 H 311.461 0.100025 -3.1244 0
M  V30 3244 H 310.681 -2.38563 -3.13817 0
M  V30 3245 H 311.969 -2.69403 -4.31624 0
M  V30 3246 H 311.367 0.192319 -5.65373 0
M  V30 3247 H 309.924 -0.162912 -6.51596 0
M  V30 3248 N 313.357 1.07166 -1.15556 0
M  V30 3249 C 314.603 1.80222 -0.942961 0
M  V30 3250 C 314.958 1.85121 0.524209 0
M  V30 3251 O 314.251 1.32531 1.38369 0
M  V30 3252 C 314.445 3.24707 -1.49332 0
M  V30 3253 C 314.274 3.33887 -3.01247 0
M  V30 3254 C 313.044 3.44337 -3.69811 0
M  V30 3255 C 315.242 3.24484 -3.99017 0
M  V30 3256 N 313.224 3.42439 -5.09518 0
M  V30 3257 C 314.595 3.29726 -5.25053 0
M  V30 3258 C 316.65 3.08307 -3.90962 0
M  V30 3259 C 315.353 3.20455 -6.43973 0
M  V30 3260 C 317.379 3.00371 -5.09442 0
M  V30 3261 C 316.741 3.06227 -6.34354 0
M  V30 3262 H 312.84 0.672709 -0.398731 0
M  V30 3263 H 315.424 1.27905 -1.46794 0
M  V30 3264 H 313.595 3.7544 -0.994946 0
M  V30 3265 H 315.327 3.85894 -1.21935 0
M  V30 3266 H 312.082 3.48762 -3.20409 0
M  V30 3267 H 312.506 3.45013 -5.8249 0
M  V30 3268 H 317.148 3.02633 -2.95251 0
M  V30 3269 H 314.866 3.24888 -7.39914 0
M  V30 3270 H 318.452 2.88955 -5.04971 0
M  V30 3271 H 317.332 3.00132 -7.24493 0
M  V30 3272 N 314.835 0.952656 1.25548 0
M  V30 3273 C 316.06 0.623025 1.97821 0
M  V30 3274 C 316.485 -0.7976 1.70352 0
M  V30 3275 O 315.843 -1.53905 0.958283 0
M  V30 3276 C 315.891 0.885532 3.49558 0
M  V30 3277 O 314.995 -0.0366641 4.12384 0
M  V30 3278 H 314.336 0.237082 0.620232 0
M  V30 3279 H 316.866 1.27871 1.59719 0
M  V30 3280 H 316.876 0.811009 3.99858 0
M  V30 3281 H 315.551 1.92094 3.6888 0
M  V30 3282 H 314.128 0.0898954 3.72792 0
M  V30 3283 N 316.313 -1.40141 0.720998 0
M  V30 3284 C 317.59 -1.94677 0.189757 0
M  V30 3285 C 317.97 -1.65879 -1.30566 0
M  V30 3286 O 317.318 -0.979391 -2.06447 0
M  V30 3287 C 317.528 -3.45279 0.508304 0
M  V30 3288 C 318.876 -4.22209 0.449934 0
M  V30 3289 O 319.9 -3.53413 0.444677 0
M  V30 3290 O 318.759 -5.44788 0.432189 0
M  V30 3291 H 315.853 -0.826459 0.0299026 0
M  V30 3292 H 318.399 -1.49719 0.7989 0
M  V30 3293 H 317.171 -3.59619 1.54239 0
M  V30 3294 H 316.794 -3.97386 -0.130525 0
M  V30 3295 N 317.792 -0.46758 -1.50504 0
M  V30 3296 C 319.203 -0.0116166 -1.86696 0
M  V30 3297 C 319.554 1.39202 -1.38265 0
M  V30 3298 O 318.679 2.0313 -0.746132 0
M  V30 3299 C 319.274 -0.0143044 -3.38797 0
M  V30 3300 C 317.833 0.386175 -3.74414 0
M  V30 3301 C 316.98 -0.401287 -2.74381 0
M  V30 3302 H 319.931 -0.682022 -1.43297 0
M  V30 3303 H 319.952 0.788641 -3.72237 0
M  V30 3304 H 319.464 -1.03602 -3.74016 0
M  V30 3305 H 317.565 1.41237 -3.44794 0
M  V30 3306 H 317.678 0.0899596 -4.79016 0
M  V30 3307 H 316.042 0.144536 -2.5429 0
M  V30 3308 H 316.825 -1.42244 -3.12444 0
M  V30 3309 N 319.27 1.56325 -0.20005 0
M  V30 3310 C 320.2 2.22318 0.713916 0
M  V30 3311 C 321.181 1.18788 1.21752 0
M  V30 3312 O 322.366 1.47309 1.26545 0
M  V30 3313 C 319.496 2.88639 1.93144 0
M  V30 3314 C 318.45 3.98457 1.56255 0
M  V30 3315 C 317.776 4.51967 2.85709 0
M  V30 3316 C 319.076 5.16612 0.768747 0
M  V30 3317 H 320.77 2.98952 0.163755 0
M  V30 3318 H 318.316 1.43792 0.0773219 0
M  V30 3319 H 320.269 3.33491 2.57608 0
M  V30 3320 H 318.993 2.09419 2.50621 0
M  V30 3321 H 317.652 3.54305 0.941471 0
M  V30 3322 H 317.3 3.69503 3.41287 0
M  V30 3323 H 317 5.26071 2.6177 0
M  V30 3324 H 318.524 4.99523 3.51154 0
M  V30 3325 H 319.938 5.57977 1.3166 0
M  V30 3326 H 318.335 5.96812 0.627286 0
M  V30 3327 H 319.405 4.84358 -0.229168 0
M  V30 3328 N 320.748 -0.0735177 1.57428 0
M  V30 3329 C 322.159 -0.625551 1.75908 0
M  V30 3330 C 322.51 -1.78 0.825261 0
M  V30 3331 O 321.635 -2.16398 0.00893964 0
M  V30 3332 C 322.23 -1.14155 3.18989 0
M  V30 3333 C 320.789 -1.63946 3.38819 0
M  V30 3334 C 319.936 -0.558151 2.71625 0
M  V30 3335 H 322.887 0.152647 1.57964 0
M  V30 3336 H 322.908 -2.0104 3.23053 0
M  V30 3337 H 322.42 -0.301116 3.8693 0
M  V30 3338 H 320.521 -2.50321 2.7599 0
M  V30 3339 H 320.634 -1.71759 4.47253 0
M  V30 3340 H 318.998 -1.00278 2.34129 0
M  V30 3341 H 319.781 0.272071 3.4222 0
M  V30 3342 N 322.226 -1.5378 -0.344866 0
M  V30 3343 C 323.136 -1.84667 -1.4469 0
M  V30 3344 C 324.152 -0.736704 -1.57635 0
M  V30 3345 O 325.328 -1.02888 -1.73136 0
M  V30 3346 C 322.393 -2.04869 -2.79696 0
M  V30 3347 C 321.454 -3.28731 -2.76106 0
M  V30 3348 C 320.687 -3.4796 -4.04673 0
M  V30 3349 O 320.91 -2.71052 -5.01883 0
M  V30 3350 O 319.844 -4.41383 -4.09224 0
M  V30 3351 H 323.67 -2.78334 -1.21506 0
M  V30 3352 H 321.255 -1.39418 -0.536921 0
M  V30 3353 H 323.137 -2.19609 -3.59652 0
M  V30 3354 H 321.812 -1.14391 -3.02814 0
M  V30 3355 H 320.719 -3.19396 -1.94774 0
M  V30 3356 H 322.052 -4.19198 -2.57941 0
M  V30 3357 N 323.704 0.605807 -1.45491 0
M  V30 3358 C 324.944 1.37606 -1.51142 0
M  V30 3359 C 325.308 1.91413 -0.150075 0
M  V30 3360 O 326.509 2.68677 -0.0812828 0
M  V30 3361 C 324.78 2.49197 -2.56195 0
M  V30 3362 S 326.339 3.36953 -2.81083 0
M  V30 3363 H 323.157 0.469118 -0.534275 0
M  V30 3364 H 325.759 0.698845 -1.82583 0
M  V30 3365 H 324.463 2.0802 -3.53773 0
M  V30 3366 H 323.994 3.21717 -2.26411 0
M  V30 3367 H 326.009 4.47395 -2.14598 0
M  V30 3368 N 325.182 1.32811 0.848464 0
M  V30 3369 C 326.598 1.11937 1.13764 0
M  V30 3370 C 326.798 -0.0960789 2.01271 0
M  V30 3371 O 325.854 -0.779165 2.40178 0
M  V30 3372 C 327.167 2.402 1.809 0
M  V30 3373 C 328.715 2.46016 1.93508 0
M  V30 3374 C 329.19 3.74215 2.64059 0
M  V30 3375 N 330.681 3.75232 2.71579 0
M  V30 3376 C 331.416 4.71134 3.26833 0
M  V30 3377 N 330.912 5.77406 3.8285 0
M  V30 3378 N 332.705 4.58623 3.24995 0
M  V30 3379 H 324.856 2.1073 0.265855 0
M  V30 3380 H 327.119 0.930671 0.180431 0
M  V30 3381 H 326.825 3.29093 1.24058 0
M  V30 3382 H 326.699 2.51628 2.81004 0
M  V30 3383 H 329.086 1.57577 2.49506 0
M  V30 3384 H 329.167 2.38536 0.923811 0
M  V30 3385 H 328.811 4.63031 2.08722 0
M  V30 3386 H 328.741 3.78968 3.65637 0
M  V30 3387 H 331.232 2.98423 2.31845 0
M  V30 3388 H 331.545 6.46632 4.23187 0
M  V30 3389 H 329.89 5.81152 3.81165 0
M  V30 3390 H 333.081 3.74762 2.80484 0
M  V30 3391 H 333.254 5.33535 3.67756 0
M  V30 3392 N 326.66 -1.06551 1.16123 0
M  V30 3393 C 327.57 -2.17484 0.879662 0
M  V30 3394 C 328.586 -1.73377 -0.147104 0
M  V30 3395 O 329.762 -2.01379 0.0289128 0
M  V30 3396 C 326.827 -3.44591 0.381829 0
M  V30 3397 C 325.888 -4.0322 1.4735 0
M  V30 3398 C 325.121 -5.24261 0.999324 0
M  V30 3399 O 325.344 -5.70198 -0.151957 0
M  V30 3400 O 324.278 -5.74775 1.78653 0
M  V30 3401 H 328.104 -2.44075 1.80724 0
M  V30 3402 H 325.689 -1.16042 0.940992 0
M  V30 3403 H 327.571 -4.21254 0.111053 0
M  V30 3404 H 326.246 -3.19532 -0.51777 0
M  V30 3405 H 325.153 -3.2806 1.79798 0
M  V30 3406 H 326.486 -4.32568 2.34831 0
M  V30 3407 N 328.138 -0.959301 -1.25041 0
M  V30 3408 C 329.387 -0.612254 -1.92183 0
M  V30 3409 C 329.7 0.855347 -1.75907 0
M  V30 3410 O 330.906 1.31256 -2.37664 0
M  V30 3411 C 329.362 -1.04435 -3.44414 0
M  V30 3412 C 328.97 -2.53482 -3.69393 0
M  V30 3413 C 330.714 -0.770055 -4.17457 0
M  V30 3414 C 328.621 -2.90468 -5.15153 0
M  V30 3415 H 327.551 -0.225279 -0.719559 0
M  V30 3416 H 330.202 -1.16438 -1.41825 0
M  V30 3417 H 328.584 -0.4206 -3.9376 0
M  V30 3418 H 329.758 -3.20916 -3.30681 0
M  V30 3419 H 328.073 -2.78432 -3.0962 0
M  V30 3420 H 330.67 -1.02249 -5.24832 0
M  V30 3421 H 331.013 0.293611 -4.15263 0
M  V30 3422 H 331.546 -1.35437 -3.74034 0
M  V30 3423 H 328.285 -3.95871 -5.22462 0
M  V30 3424 H 327.805 -2.27711 -5.54894 0
M  V30 3425 H 329.484 -2.79914 -5.83315 0
M  V30 3426 N 329.616 1.39756 -0.72842 0
M  V30 3427 C 330.846 2.04651 -0.283117 0
M  V30 3428 C 331.254 1.5502 1.08469 0
M  V30 3429 O 330.597 0.707343 1.69536 0
M  V30 3430 C 330.659 3.58947 -0.199309 0
M  V30 3431 C 330.323 4.31525 -1.5045 0
M  V30 3432 C 331.32 4.5861 -2.44894 0
M  V30 3433 C 329.005 4.70195 -1.76698 0
M  V30 3434 C 330.999 5.23366 -3.63822 0
M  V30 3435 C 328.686 5.3468 -2.95906 0
M  V30 3436 C 329.684 5.61198 -3.89289 0
M  V30 3437 O 329.372 6.24347 -5.06404 0
M  V30 3438 H 329.104 0.664777 -0.122666 0
M  V30 3439 H 331.658 1.79913 -0.990987 0
M  V30 3440 H 329.888 3.82556 0.56461 0
M  V30 3441 H 331.577 4.0534 0.213125 0
M  V30 3442 H 332.343 4.29187 -2.25883 0
M  V30 3443 H 328.222 4.48916 -1.04859 0
M  V30 3444 H 331.766 5.4398 -4.36728 0
M  V30 3445 H 327.663 5.63524 -3.14819 0
M  V30 3446 H 328.431 6.42842 -5.06652 0
M  V30 3447 N 331.094 0.475555 1.50254 0
M  V30 3448 C 332.334 -0.0765802 2.04256 0
M  V30 3449 C 332.698 -1.36587 1.34937 0
M  V30 3450 O 333.899 -2.00066 1.79519 0
M  V30 3451 C 332.17 -0.251668 3.56513 0
M  V30 3452 S 333.729 -0.761716 4.32138 0
M  V30 3453 H 330.547 -0.0138456 0.710865 0
M  V30 3454 H 333.149 0.643714 1.84598 0
M  V30 3455 H 331.853 0.692404 4.04517 0
M  V30 3456 H 331.384 -0.997946 3.80532 0
M  V30 3457 H 333.399 -2.03451 4.52573 0
M  V30 3458 N 332.573 -1.56217 0.208337 0
M  V30 3459 C 333.984 -1.84243 -0.301904 0
M  V30 3460 C 334.335 -1.12939 -1.60434 0
M  V30 3461 O 333.46 -0.39461 -2.12772 0
M  V30 3462 C 334.055 -3.34231 -0.554543 0
M  V30 3463 C 332.614 -3.62621 -1.00912 0
M  V30 3464 C 331.761 -2.77224 -0.064933 0
M  V30 3465 H 334.712 -1.52712 0.431833 0
M  V30 3466 H 334.733 -3.5372 -1.40223 0
M  V30 3467 H 334.245 -3.86099 0.393561 0
M  V30 3468 H 332.346 -3.16197 -1.97104 0
M  V30 3469 H 332.459 -4.7071 -0.892674 0
M  V30 3470 H 330.823 -2.48256 -0.56929 0
M  V30 3471 H 331.606 -3.31887 0.877851 0
M  V30 3472 N 334.051 0.0651679 -1.57465 0
M  V30 3473 C 335.014 1.06117 -2.03155 0
M  V30 3474 C 336.014 1.31204 -0.929632 0
M  V30 3475 O 337.204 1.26813 -1.19432 0
M  V30 3476 C 334.336 2.4032 -2.41783 0
M  V30 3477 H 335.529 0.667231 -2.92383 0
M  V30 3478 H 333.082 0.311075 -1.53173 0
M  V30 3479 H 333.817 2.84532 -1.55601 0
M  V30 3480 H 333.602 2.23451 -3.22199 0
M  V30 3481 H 335.092 3.11898 -2.77685 0
M  V30 3482 N 335.529 1.53961 0.336706 0
M  V30 3483 C 336.94 1.62914 0.911925 0
M  V30 3484 C 337.291 0.514795 1.89326 0
M  V30 3485 O 336.416 -0.354395 2.13478 0
M  V30 3486 C 337.011 2.95304 1.66076 0
M  V30 3487 C 335.57 3.06496 2.18489 0
M  V30 3488 C 334.717 2.58403 1.00613 0
M  V30 3489 H 337.668 1.58285 0.114649 0
M  V30 3490 H 337.689 2.84727 2.5241 0
M  V30 3491 H 337.201 3.76387 0.946276 0
M  V30 3492 H 335.302 2.3006 2.93092 0
M  V30 3493 H 335.415 4.1208 2.44391 0
M  V30 3494 H 333.779 2.13977 1.38152 0
M  V30 3495 H 334.562 3.41932 0.306179 0
M  V30 3496 N 337.007 -0.598083 1.45811 0
M  V30 3497 C 338.418 -1.18011 1.44673 0
M  V30 3498 C 338.769 -1.95378 0.179364 0
M  V30 3499 O 337.894 -2.04124 -0.718509 0
M  V30 3500 C 338.489 -2.14677 2.62105 0
M  V30 3501 C 337.048 -2.68236 2.64057 0
M  V30 3502 C 336.195 -1.43816 2.37091 0
M  V30 3503 H 339.146 -0.38686 1.53913 0
M  V30 3504 H 339.167 -2.97878 2.36746 0
M  V30 3505 H 338.679 -1.5834 3.5433 0
M  V30 3506 H 336.78 -3.28486 1.75864 0
M  V30 3507 H 336.893 -3.12021 3.63566 0
M  V30 3508 H 335.257 -1.731 1.86838 0
M  V30 3509 H 336.04 -0.893333 3.31473 0
M  V30 3510 N 338.485 -1.33259 -0.841409 0
M  V30 3511 C 339.417 -1.19136 -1.95804 0
M  V30 3512 C 340.43 -0.122965 -1.62335 0
M  V30 3513 O 341.619 -0.373154 -1.74556 0
M  V30 3514 C 338.719 -0.804268 -3.29218 0
M  V30 3515 C 337.892 -1.96376 -3.90839 0
M  V30 3516 C 336.951 -1.55806 -5.02604 0
M  V30 3517 O 335.977 -2.27203 -5.21888 0
M  V30 3518 N 337.179 -0.461609 -5.78662 0
M  V30 3519 H 339.944 -2.15326 -2.08458 0
M  V30 3520 H 337.505 -1.25971 -1.017 0
M  V30 3521 H 339.497 -0.51501 -4.0141 0
M  V30 3522 H 338.067 0.0668809 -3.12528 0
M  V30 3523 H 337.287 -2.41879 -3.11269 0
M  V30 3524 H 338.575 -2.73966 -4.28742 0
M  V30 3525 H 337.973 0.132343 -5.65545 0
M  V30 3526 H 336.53 -0.232013 -6.51387 0
M  V30 3527 N 339.963 1.05934 -1.16686 0
M  V30 3528 C 341.212 1.78188 -0.945085 0
M  V30 3529 C 341.525 1.88338 0.528021 0
M  V30 3530 O 342.731 2.57258 0.867799 0
M  V30 3531 C 341.187 3.20277 -1.64167 0
M  V30 3532 C 340.795 3.18281 -3.15279 0
M  V30 3533 C 342.539 3.97039 -1.502 0
M  V30 3534 C 340.446 4.55112 -3.7766 0
M  V30 3535 H 339.376 0.667866 -0.349959 0
M  V30 3536 H 342.027 1.18794 -1.39858 0
M  V30 3537 H 340.409 3.79952 -1.11589 0
M  V30 3538 H 341.583 2.68167 -3.74731 0
M  V30 3539 H 339.898 2.55018 -3.29173 0
M  V30 3540 H 342.495 4.98194 -1.94183 0
M  V30 3541 H 342.838 4.13845 -0.451461 0
M  V30 3542 H 343.371 3.43894 -1.99954 0
M  V30 3543 H 340.11 4.43512 -4.82677 0
M  V30 3544 H 339.63 5.05406 -3.22994 0
M  V30 3545 H 341.309 5.24064 -3.79428 0
M  V30 3546 N 341.441 0.965919 1.2453 0
M  V30 3547 C 342.718 0.543777 1.87889 0
M  V30 3548 C 343.098 -0.97909 1.87021 0
M  V30 3549 O 342.446 -1.84969 1.3416 0
M  V30 3550 C 342.656 1.13327 3.30088 0
M  V30 3551 C 344.004 1.21707 4.06783 0
M  V30 3552 O 345.028 1.08566 3.39252 0
M  V30 3553 O 343.887 1.42456 5.27606 0
M  V30 3554 H 340.981 0.181054 0.806938 0
M  V30 3555 H 343.527 1.06007 1.32516 0
M  V30 3556 H 342.299 2.17612 3.25209 0
M  V30 3557 H 341.922 0.600911 3.93033 0
M  V30 3558 N 342.919 -1.39368 0.735821 0
M  V30 3559 C 343.867 -2.32443 0.0855131 0
M  V30 3560 C 344.861 -1.53104 -0.724954 0
M  V30 3561 O 346.067 -1.68762 -0.626047 0
M  V30 3562 H 342.442 -0.751948 0.00885257 0
M  V30 3563 H 344.413 -2.84916 0.886883 0
M  V30 3564 C 343.162 -3.38206 -0.806983 0
M  V30 3565 H 342.485 -3.99335 -0.19274 0
M  V30 3566 H 343.925 -4.05779 -1.2296 0
M  V30 3567 C 342.384 -2.75321 -1.94165 0
M  V30 3568 O 342.914 -2.63231 -3.03435 0
M  V30 3569 N 341.12 -2.33396 -1.73132 0
M  V30 3570 H 340.667 -2.4343 -0.842596 0
M  V30 3571 H 340.625 -1.91661 -2.49225 0
M  V30 3572 N 344.397 -0.483516 -1.5 0
M  V30 3573 C 345.645 0.067027 -2.01989 0
M  V30 3574 C 345.966 1.3909 -1.36671 0
M  V30 3575 O 345.236 1.88978 -0.516152 0
M  V30 3576 H 343.816 0.0277606 -0.746484 0
M  V30 3577 H 346.478 -0.636773 -1.84204 0
M  V30 3578 H 345.574 0.209484 -3.11396 0
M  V30 3579 N 345.875 1.56104 -0.216619 0
M  V30 3580 C 347.124 1.97348 0.416744 0
M  V30 3581 C 347.437 1.10715 1.6125 0
M  V30 3582 O 348.643 1.41836 2.31506 0
M  V30 3583 C 347.099 3.51059 0.792835 0
M  V30 3584 C 346.707 4.46387 -0.379828 0
M  V30 3585 C 348.451 4.01026 1.39208 0
M  V30 3586 C 346.358 5.91397 0.0184223 0
M  V30 3587 H 345.288 0.736942 0.159475 0
M  V30 3588 H 347.939 1.80827 -0.31205 0
M  V30 3589 H 346.321 3.63162 1.57891 0
M  V30 3590 H 347.495 4.46029 -1.15737 0
M  V30 3591 H 345.81 4.06734 -0.891979 0
M  V30 3592 H 348.407 5.0686 1.70286 0
M  V30 3593 H 348.75 3.46587 2.30614 0
M  V30 3594 H 349.283 3.92125 0.669537 0
M  V30 3595 H 346.022 6.49807 -0.862002 0
M  V30 3596 H 345.542 5.94961 0.760384 0
M  V30 3597 H 347.221 6.45455 0.446818 0
M  V30 3598 N 347.353 -0.0568162 1.57498 0
M  V30 3599 C 348.602 -0.752001 1.87157 0
M  V30 3600 C 348.915 -1.77978 0.811375 0
M  V30 3601 O 350.121 -2.52559 0.996293 0
M  V30 3602 C 348.577 -1.38844 3.3204 0
M  V30 3603 C 348.185 -0.398456 4.46225 0
M  V30 3604 C 349.929 -2.06512 3.70882 0
M  V30 3605 C 347.836 -1.04166 5.82154 0
M  V30 3606 H 346.766 -0.28461 0.698222 0
M  V30 3607 H 349.417 -0.00561272 1.83499 0
M  V30 3608 H 347.799 -2.1836 3.30356 0
M  V30 3609 H 348.973 0.367977 4.59328 0
M  V30 3610 H 347.288 0.174592 4.16034 0
M  V30 3611 H 349.885 -2.55437 4.6974 0
M  V30 3612 H 350.228 -2.87117 3.01445 0
M  V30 3613 H 350.761 -1.33808 3.7462 0
M  V30 3614 H 347.5 -0.275614 6.5492 0
M  V30 3615 H 347.02 -1.7786 5.72823 0
M  V30 3616 H 348.699 -1.55715 6.27982 0
M  V30 3617 N 348.832 -1.54138 -0.328536 0
M  V30 3618 C 349.764 -1.79509 -1.4251 0
M  V30 3619 C 350.777 -0.67688 -1.48061 0
M  V30 3620 O 351.966 -0.953898 -1.50874 0
M  V30 3621 C 349.066 -1.89337 -2.81078 0
M  V30 3622 C 348.239 -3.19443 -2.98789 0
M  V30 3623 C 347.298 -3.20036 -4.17688 0
M  V30 3624 O 346.324 -3.93697 -4.11086 0
M  V30 3625 N 347.526 -2.43467 -5.26976 0
M  V30 3626 H 350.291 -2.74139 -1.21111 0
M  V30 3627 H 347.852 -1.53373 -0.518499 0
M  V30 3628 H 349.844 -1.87167 -3.58818 0
M  V30 3629 H 348.414 -1.01826 -2.95551 0
M  V30 3630 H 347.634 -3.34614 -2.08391 0
M  V30 3631 H 348.922 -4.05354 -3.07515 0
M  V30 3632 H 348.32 -1.83201 -5.35214 0
M  V30 3633 H 346.877 -2.4708 -6.03154 0
M  V30 3634 N 350.31 0.590341 -1.46126 0
M  V30 3635 C 351.558 1.34616 -1.50742 0
M  V30 3636 C 351.879 1.94363 -0.157486 0
M  V30 3637 O 351.149 1.78136 0.815136 0
M  V30 3638 H 349.729 0.499789 -0.555175 0
M  V30 3639 H 352.391 0.691953 -1.82203 0
M  V30 3640 H 351.487 2.15678 -2.25587 0
M  V30 3641 N 351.788 1.33704 0.83433 0
M  V30 3642 C 352.698 1.26382 1.97648 0
M  V30 3643 C 353.714 0.173548 1.73132 0
M  V30 3644 O 354.89 0.397962 1.97429 0
M  V30 3645 C 351.955 1.00769 3.31733 0
M  V30 3646 C 351.016 2.1884 3.69334 0
M  V30 3647 C 350.249 1.9444 4.9702 0
M  V30 3648 O 350.472 0.896961 5.63303 0
M  V30 3649 O 349.406 2.81093 5.32231 0
M  V30 3650 H 353.232 2.22444 2.06767 0
M  V30 3651 H 350.817 1.13795 0.968037 0
M  V30 3652 H 352.699 0.882186 4.12062 0
M  V30 3653 H 351.374 0.0773783 3.23608 0
M  V30 3654 H 350.281 2.36946 2.89495 0
M  V30 3655 H 351.614 3.10221 3.82131 0
M  V30 3656 N 353.266 -1.05314 1.17247 0
M  V30 3657 C 354.682 -1.30452 0.919473 0
M  V30 3658 C 354.882 -1.9703 -0.42209 0
M  V30 3659 O 353.938 -2.24311 -1.15935 0
M  V30 3660 C 355.251 -2.17551 2.07586 0
M  V30 3661 C 356.799 -2.30937 2.11275 0
M  V30 3662 C 357.274 -3.21396 3.26296 0
M  V30 3663 N 358.765 -3.28981 3.26076 0
M  V30 3664 C 359.5 -3.99095 4.11716 0
M  V30 3665 N 358.996 -4.71648 5.07465 0
M  V30 3666 N 360.789 -3.95247 3.9967 0
M  V30 3667 H 352.94 -0.604988 2.03602 0
M  V30 3668 H 355.203 -0.329368 0.888944 0
M  V30 3669 H 354.909 -1.75921 3.0454 0
M  V30 3670 H 354.783 -3.18182 2.02584 0
M  V30 3671 H 357.17 -2.71809 1.14907 0
M  V30 3672 H 357.251 -1.2994 2.20339 0
M  V30 3673 H 356.895 -2.81238 4.22927 0
M  V30 3674 H 356.825 -4.22395 3.14467 0
M  V30 3675 H 359.316 -2.77286 2.5675 0
M  V30 3676 H 359.629 -5.22705 5.6921 0
M  V30 3677 H 357.974 -4.70594 5.11435 0
M  V30 3678 H 361.165 -3.37691 3.24164 0
M  V30 3679 H 361.338 -4.4962 4.66632 0
M  V30 3680 N 354.744 -0.972509 -1.24016 0
M  V30 3681 C 356.021 -0.553733 -1.87598 0
M  V30 3682 C 356.401 0.969158 -1.87538 0
M  V30 3683 O 355.749 1.84255 -1.35139 0
M  V30 3684 C 355.959 -1.15076 -3.29482 0
M  V30 3685 C 357.307 -1.23862 -4.06132 0
M  V30 3686 O 358.331 -1.10363 -3.38672 0
M  V30 3687 O 357.19 -1.45252 -5.26844 0
M  V30 3688 H 354.284 -0.185331 -0.805966 0
M  V30 3689 H 356.83 -1.06709 -1.31952 0
M  V30 3690 H 355.602 -2.19333 -3.2405 0
M  V30 3691 H 355.225 -0.621746 -3.92709 0
M  V30 3692 N 356.222 1.38976 -0.743202 0
M  V30 3693 C 357.172 2.27843 -0.084513 0
M  V30 3694 C 358.156 1.44677 0.704094 0
M  V30 3695 O 359.348 1.67511 0.571755 0
M  V30 3696 C 356.477 3.33466 0.815781 0
M  V30 3697 C 355.563 4.24095 0.0208844 0
M  V30 3698 N 355.954 4.95609 -1.0102 0
M  V30 3699 C 354.252 4.45303 0.249293 0
M  V30 3700 C 354.953 5.62287 -1.49024 0
M  V30 3701 N 353.929 5.37571 -0.807377 0
M  V30 3702 H 357.731 2.80593 -0.87436 0
M  V30 3703 H 355.245 1.51755 -0.578283 0
M  V30 3704 H 357.242 3.96008 1.30321 0
M  V30 3705 H 355.902 2.82276 1.6047 0
M  V30 3706 H 356.913 4.98849 -1.39176 0
M  V30 3707 H 353.59 4.0504 1.01237 0
M  V30 3708 H 354.98 6.29519 -2.34853 0
M  V30 3709 N 357.7 0.491464 1.49741 0
M  V30 3710 C 358.93 -0.0534375 2.06531 0
M  V30 3711 C 359.338 -1.32233 1.35318 0
M  V30 3712 O 358.681 -1.78781 0.422243 0
M  V30 3713 C 358.743 -0.387034 3.57411 0
M  V30 3714 C 358.407 0.782764 4.50246 0
M  V30 3715 C 359.404 1.67059 4.92329 0
M  V30 3716 C 357.089 0.978866 4.9267 0
M  V30 3717 C 359.083 2.73874 5.75562 0
M  V30 3718 C 356.77 2.05022 5.75682 0
M  V30 3719 C 357.768 2.92851 6.17031 0
M  V30 3720 O 357.456 3.98138 6.98385 0
M  V30 3721 H 357.188 0.0129324 0.675876 0
M  V30 3722 H 359.742 0.685238 1.93633 0
M  V30 3723 H 357.972 -1.17918 3.68283 0
M  V30 3724 H 359.661 -0.869419 3.96479 0
M  V30 3725 H 360.427 1.53086 4.60206 0
M  V30 3726 H 356.306 0.304646 4.59992 0
M  V30 3727 H 359.85 3.42458 6.07757 0
M  V30 3728 H 355.747 2.18993 6.07217 0
M  V30 3729 H 356.515 3.95374 7.16674 0
M  V30 3730 N 359.178 -1.55987 0.224894 0
M  V30 3731 C 360.426 -1.97998 -0.405099 0
M  V30 3732 C 360.747 -1.11387 -1.60056 0
M  V30 3733 O 360.017 -0.191645 -1.9496 0
M  V30 3734 H 358.597 -0.731235 -0.152658 0
M  V30 3735 H 361.259 -1.92279 0.318567 0
M  V30 3736 H 360.355 -3.03463 -0.729167 0
M  V30 3737 N 360.656 0.0484629 -1.57525 0
M  V30 3738 C 361.886 0.754326 -1.92337 0
M  V30 3739 C 362.294 1.70443 -0.82132 0
M  V30 3740 O 361.637 1.82466 0.21254 0
M  V30 3741 C 361.699 1.58231 -3.22805 0
M  V30 3742 C 361.363 0.799074 -4.4996 0
M  V30 3743 C 362.36 0.1079 -5.19788 0
M  V30 3744 C 360.045 0.759345 -4.96527 0
M  V30 3745 C 362.039 -0.612516 -6.3445 0
M  V30 3746 C 359.726 0.0351713 -6.1109 0
M  V30 3747 C 360.724 -0.649537 -6.79904 0
M  V30 3748 O 360.412 -1.36199 -7.92278 0
M  V30 3749 H 360.144 0.218257 -0.639797 0
M  V30 3750 H 362.698 0.0159295 -2.05394 0
M  V30 3751 H 360.928 2.36406 -3.06021 0
M  V30 3752 H 362.617 2.16898 -3.43089 0
M  V30 3753 H 363.383 0.129748 -4.84826 0
M  V30 3754 H 359.262 1.28177 -4.42822 0
M  V30 3755 H 362.806 -1.14751 -6.88097 0
M  V30 3756 H 358.703 0.0113314 -6.45499 0
M  V30 3757 H 359.471 -1.27366 -8.0853 0
M  V30 3758 N 362.134 1.5431 0.320358 0
M  V30 3759 C 363.55 1.45091 0.664889 0
M  V30 3760 C 363.75 0.626382 1.91517 0
M  V30 3761 O 362.806 0.126443 2.52183 0
M  V30 3762 C 364.119 2.88848 0.83591 0
M  V30 3763 C 365.667 2.9877 0.933046 0
M  V30 3764 C 366.142 4.43683 1.13621 0
M  V30 3765 N 367.633 4.47309 1.20287 0
M  V30 3766 C 368.368 5.56595 1.37801 0
M  V30 3767 N 367.864 6.75844 1.52338 0
M  V30 3768 N 369.657 5.44248 1.40535 0
M  V30 3769 H 361.808 2.06398 -0.501374 0
M  V30 3770 H 364.071 0.933963 -0.162534 0
M  V30 3771 H 363.777 3.51698 -0.0116092 0
M  V30 3772 H 363.651 3.35148 1.73078 0
M  V30 3773 H 366.038 2.36045 1.77107 0
M  V30 3774 H 366.119 2.55796 0.0145782 0
M  V30 3775 H 365.763 5.06995 0.303032 0
M  V30 3776 H 365.693 4.84269 2.0686 0
M  V30 3777 H 368.184 3.61388 1.10485 0
M  V30 3778 H 368.497 7.54892 1.65403 0
M  V30 3779 H 366.842 6.78746 1.4943 0
M  V30 3780 H 370.033 4.50038 1.28777 0
M  V30 3781 H 370.206 6.29473 1.53842 0
M  V30 3782 N 363.613 -0.582584 1.46437 0
M  V30 3783 C 364.545 -1.70618 1.53043 0
M  V30 3784 C 365.558 -1.57322 0.418769 0
M  V30 3785 O 366.747 -1.64744 0.687136 0
M  V30 3786 C 363.847 -3.08869 1.39474 0
M  V30 3787 C 363.02 -3.48166 2.64762 0
M  V30 3788 C 362.079 -4.65478 2.4539 0
M  V30 3789 O 361.105 -4.71333 3.19114 0
M  V30 3790 N 362.307 -5.60365 1.51564 0
M  V30 3791 H 365.072 -1.65405 2.49923 0
M  V30 3792 H 362.633 -0.768567 1.42494 0
M  V30 3793 H 364.625 -3.85143 1.24287 0
M  V30 3794 H 363.195 -3.08449 0.507758 0
M  V30 3795 H 362.415 -2.61598 2.9489 0
M  V30 3796 H 363.703 -3.71188 3.4799 0
M  V30 3797 H 363.101 -5.5837 0.907705 0
M  V30 3798 H 361.658 -6.36068 1.4234 0
M  V30 3799 N 365.091 -1.34144 -0.827227 0
M  V30 3800 C 366.316 -1.29476 -1.62021 0
M  V30 3801 C 366.741 0.129292 -1.87655 0
M  V30 3802 O 366.099 1.08967 -1.449 0
M  V30 3803 C 366.147 -2.08702 -2.94068 0
M  V30 3804 O 365.251 -1.45359 -3.85933 0
M  V30 3805 H 364.592 -0.444881 -0.492927 0
M  V30 3806 H 367.122 -1.76882 -1.02829 0
M  V30 3807 H 367.132 -2.19898 -3.43669 0
M  V30 3808 H 365.807 -3.12241 -2.74734 0
M  V30 3809 H 364.384 -1.42879 -3.44442 0
M  V30 3810 N 366.569 1.04691 -1.17803 0
M  V30 3811 C 367.815 1.78045 -0.970969 0
M  V30 3812 C 368.148 1.87686 0.498751 0
M  V30 3813 O 367.423 1.38035 1.37027 0
M  V30 3814 C 367.706 3.2166 -1.61884 0
M  V30 3815 C 367.559 3.20001 -3.161 0
M  V30 3816 C 368.878 4.1962 -1.3269 0
M  V30 3817 H 365.997 0.64633 -0.354155 0
M  V30 3818 H 368.639 1.22333 -1.45378 0
M  V30 3819 H 366.789 3.69232 -1.20831 0
M  V30 3820 H 368.461 2.80467 -3.66246 0
M  V30 3821 H 366.704 2.58203 -3.48588 0
M  V30 3822 H 367.375 4.21386 -3.56564 0
M  V30 3823 H 369.851 3.80567 -1.68249 0
M  V30 3824 H 368.727 5.18339 -1.80599 0
M  V30 3825 H 368.988 4.414 -0.248622 0
M  V30 3826 N 368.047 0.979072 1.23499 0
M  V30 3827 C 369.275 0.665202 1.95915 0
M  V30 3828 C 369.69 -0.767571 1.72493 0
M  V30 3829 O 369.047 -1.51635 1.01554 0
M  V30 3830 C 369.098 0.944438 3.48945 0
M  V30 3831 O 368.819 2.3209 3.71572 0
M  V30 3832 C 370.32 0.646336 4.38563 0
M  V30 3833 H 367.54 0.247218 0.623798 0
M  V30 3834 H 370.084 1.31009 1.57025 0
M  V30 3835 H 368.239 0.345575 3.85856 0
M  V30 3836 H 368.653 2.40957 4.65876 0
M  V30 3837 H 370.127 0.892091 5.44744 0
M  V30 3838 H 370.604 -0.419575 4.37191 0
M  V30 3839 H 371.21 1.22562 4.07258 0
M  V30 3840 N 369.525 -1.3858 0.750561 0
M  V30 3841 C 370.755 -2.04175 0.31564 0
M  V30 3842 C 371.163 -1.56726 -1.05989 0
M  V30 3843 O 370.506 -0.734225 -1.68389 0
M  V30 3844 C 370.568 -3.58585 0.256389 0
M  V30 3845 C 370.232 -4.29077 1.57296 0
M  V30 3846 C 371.229 -4.54656 2.52159 0
M  V30 3847 C 368.914 -4.67324 1.84156 0
M  V30 3848 C 370.908 -5.17512 3.72103 0
M  V30 3849 C 368.595 -5.29905 3.04374 0
M  V30 3850 C 369.593 -5.54933 3.98168 0
M  V30 3851 O 369.281 -6.16212 5.16273 0
M  V30 3852 H 369.013 -0.662742 0.133226 0
M  V30 3853 H 371.567 -1.78313 1.01948 0
M  V30 3854 H 369.797 -3.83406 -0.503677 0
M  V30 3855 H 371.486 -4.05628 -0.148612 0
M  V30 3856 H 372.252 -4.25539 2.32683 0
M  V30 3857 H 368.131 -4.47191 1.11988 0
M  V30 3858 H 371.675 -5.36963 4.45327 0
M  V30 3859 H 367.572 -5.58444 3.23745 0
M  V30 3860 H 368.34 -6.34701 5.16815 0
M  V30 3861 N 371.003 -0.499398 -1.49478 0
M  V30 3862 C 371.966 0.268838 -2.27618 0
M  V30 3863 C 372.966 0.895383 -1.33565 0
M  V30 3864 O 374.156 0.760164 -1.56739 0
M  V30 3865 C 371.288 1.38559 -3.11471 0
M  V30 3866 H 372.481 -0.416812 -2.96989 0
M  V30 3867 H 370.034 -0.254313 -1.54217 0
M  V30 3868 H 370.769 2.10544 -2.46661 0
M  V30 3869 H 370.554 0.941797 -3.80621 0
M  V30 3870 H 372.044 1.92678 -3.70493 0
M  V30 3871 N 372.481 1.55866 -0.233164 0
M  V30 3872 C 373.721 2.00506 0.397078 0
M  V30 3873 C 374.085 1.1176 1.56121 0
M  V30 3874 O 375.286 1.45796 2.25825 0
M  V30 3875 C 373.557 3.4811 0.809601 0
M  V30 3876 S 375.116 4.14765 1.43231 0
M  V30 3877 H 371.934 0.699828 0.125547 0
M  V30 3878 H 374.536 1.92429 -0.345177 0
M  V30 3879 H 373.24 4.10373 -0.0471601 0
M  V30 3880 H 372.771 3.60085 1.58438 0
M  V30 3881 H 374.786 4.14914 2.7214 0
M  V30 3882 N 373.959 -0.0401083 1.57549 0
M  V30 3883 C 374.907 -1.06264 2.06908 0
M  V30 3884 C 375.901 -1.38132 0.980608 0
M  V30 3885 O 377.107 -1.37167 1.16556 0
M  V30 3886 H 373.482 -0.360166 0.660139 0
M  V30 3887 H 375.453 -0.620445 2.91878 0
M  V30 3888 C 374.202 -2.35846 2.55483 0
M  V30 3889 H 373.525 -2.12183 3.38849 0
M  V30 3890 H 374.965 -3.05765 2.93741 0
M  V30 3891 C 373.424 -3.0404 1.45126 0
M  V30 3892 O 373.954 -3.93424 0.811216 0
M  V30 3893 N 372.16 -2.65184 1.18852 0
M  V30 3894 H 371.707 -1.92584 1.71083 0
M  V30 3895 H 371.665 -3.1113 0.452244 0
M  V30 3896 N 375.437 -1.54477 -0.31217 0
M  V30 3897 C 376.384 -1.84655 -1.38461 0
M  V30 3898 C 377.354 -0.694536 -1.50882 0
M  V30 3899 O 378.539 -0.942081 -1.6592 0
M  V30 3900 C 375.679 -2.0896 -2.74645 0
M  V30 3901 C 374.792 -3.36618 -2.70763 0
M  V30 3902 C 373.927 -3.50824 -3.98868 0
M  V30 3903 C 372.966 -4.72315 -3.89339 0
M  V30 3904 N 372.103 -4.83387 -5.09197 0
M  V30 3905 H 376.943 -2.76142 -1.12026 0
M  V30 3906 H 374.48 -1.36748 -0.542065 0
M  V30 3907 H 376.438 -2.21045 -3.53829 0
M  V30 3908 H 375.068 -1.20752 -2.99364 0
M  V30 3909 H 374.12 -3.33211 -1.83506 0
M  V30 3910 H 375.432 -4.25917 -2.59608 0
M  V30 3911 H 374.586 -3.62513 -4.86486 0
M  V30 3912 H 373.325 -2.59638 -4.12843 0
M  V30 3913 H 372.33 -4.6067 -3.00105 0
M  V30 3914 H 373.555 -5.64897 -3.76919 0
M  V30 3915 H 371.501 -3.9512 -5.23657 0
M  V30 3916 H 371.418 -5.66669 -5.00422 0
M  V30 3917 H 372.686 -4.9942 -5.98498 0
M  V30 3918 N 376.915 0.57481 -1.46744 0
M  V30 3919 C 378.163 1.33009 -1.52161 0
M  V30 3920 C 378.484 1.94185 -0.178092 0
M  V30 3921 O 377.754 1.7899 0.796196 0
M  V30 3922 H 376.334 0.493873 -0.560445 0
M  V30 3923 H 378.996 0.672589 -1.82927 0
M  V30 3924 H 378.092 2.13273 -2.27862 0
M  V30 3925 N 378.394 1.34581 0.820102 0
M  V30 3926 C 379.641 1.27096 1.57648 0
M  V30 3927 C 379.969 -0.158317 1.93855 0
M  V30 3928 O 379.224 -1.12028 1.60463 0
M  V30 3929 C 379.523 2.10997 2.8847 0
M  V30 3930 C 379.189 3.59966 2.71543 0
M  V30 3931 C 377.851 4.00575 2.66634 0
M  V30 3932 C 380.203 4.54548 2.55021 0
M  V30 3933 C 377.531 5.33953 2.43128 0
M  V30 3934 C 379.883 5.88109 2.33047 0
M  V30 3935 C 378.547 6.27878 2.26552 0
M  V30 3936 H 377.817 0.465078 0.576874 0
M  V30 3937 H 380.464 1.6635 0.948671 0
M  V30 3938 H 378.769 1.6458 3.55557 0
M  V30 3939 H 380.466 2.0255 3.46084 0
M  V30 3940 H 377.056 3.27733 2.76205 0
M  V30 3941 H 381.24 4.24069 2.57835 0
M  V30 3942 H 376.496 5.63781 2.3656 0
M  V30 3943 H 380.67 6.60985 2.19251 0
M  V30 3944 H 378.297 7.31162 2.081 0
M  V30 3945 N 379.872 -1.04064 1.18357 0
M  V30 3946 C 381.1 -1.80916 1.00384 0
M  V30 3947 C 381.515 -1.83414 -0.447738 0
M  V30 3948 O 380.872 -1.26962 -1.31099 0
M  V30 3949 C 380.923 -3.26516 1.55144 0
M  V30 3950 O 380.644 -3.2424 2.94618 0
M  V30 3951 C 382.145 -4.20013 1.41789 0
M  V30 3952 H 379.365 -0.569728 0.354474 0
M  V30 3953 H 381.909 -1.31151 1.56906 0
M  V30 3954 H 380.064 -3.73512 1.02798 0
M  V30 3955 H 380.478 -4.15452 3.20156 0
M  V30 3956 H 381.952 -5.20111 1.84901 0
M  V30 3957 H 382.429 -4.37667 0.36661 0
M  V30 3958 H 383.035 -3.78881 1.93207 0
M  V30 3959 N 381.35 -0.985608 -1.22978 0
M  V30 3960 C 382.283 -0.47487 -2.23204 0
M  V30 3961 C 383.261 0.460865 -1.55932 0
M  V30 3962 O 384.445 0.388105 -1.84461 0
M  V30 3963 C 381.572 0.312427 -3.37256 0
M  V30 3964 C 380.618 -0.568219 -4.22698 0
M  V30 3965 S 381.451 -2.01919 -4.95973 0
M  V30 3966 C 382.607 -1.24118 -6.1347 0
M  V30 3967 H 382.84 -1.32419 -2.66181 0
M  V30 3968 H 380.373 -0.792005 -1.32539 0
M  V30 3969 H 382.331 0.760645 -4.03391 0
M  V30 3970 H 380.992 1.13693 -2.92801 0
M  V30 3971 H 380.185 0.0371657 -5.03986 0
M  V30 3972 H 379.787 -0.952897 -3.61657 0
M  V30 3973 H 382.079 -0.505121 -6.75614 0
M  V30 3974 H 383.022 -2.02907 -6.78406 0
M  V30 3975 H 383.43 -0.757669 -5.59392 0
M  V30 3976 N 382.828 1.3818 -0.7579 0
M  V30 3977 C 384.077 1.99261 -0.312744 0
M  V30 3978 C 384.39 1.60846 1.11301 0
M  V30 3979 O 385.596 2.14929 1.65885 0
M  V30 3980 C 384.052 3.56294 -0.50821 0
M  V30 3981 C 383.66 4.03657 -1.94333 0
M  V30 3982 C 385.404 4.24313 -0.125982 0
M  V30 3983 C 383.311 5.53347 -2.08712 0
M  V30 3984 H 382.241 0.745456 -0.113185 0
M  V30 3985 H 384.892 1.57889 -0.935056 0
M  V30 3986 H 383.274 3.95575 0.183353 0
M  V30 3987 H 384.448 3.75655 -2.66871 0
M  V30 3988 H 382.763 3.48376 -2.28086 0
M  V30 3989 H 385.36 5.34279 -0.212125 0
M  V30 3990 H 385.703 4.05962 0.921964 0
M  V30 3991 H 386.236 3.90285 -0.769563 0
M  V30 3992 H 382.975 5.76607 -3.11777 0
M  V30 3993 H 382.495 5.83078 -1.4064 0
M  V30 3994 H 384.174 6.19111 -1.87912 0
M  V30 3995 N 384.306 0.507319 1.49211 0
M  V30 3996 C 385.554 -0.0348839 2.0207 0
M  V30 3997 C 385.875 -1.36898 1.38866 0
M  V30 3998 O 385.145 -1.88133 0.546151 0
M  V30 3999 H 383.725 -0.0158812 0.746831 0
M  V30 4000 H 386.387 0.665998 1.83168 0
M  V30 4001 H 385.483 -0.159917 3.1169 0
M  V30 4002 N 385.784 -1.5574 0.241426 0
M  V30 4003 C 386.694 -2.2479 -0.671305 0
M  V30 4004 C 387.71 -1.26217 -1.19772 0
M  V30 4005 O 388.886 -1.59079 -1.23514 0
M  V30 4006 C 385.951 -2.92966 -1.85396 0
M  V30 4007 C 385.012 -4.06935 -1.36756 0
M  V30 4008 C 384.245 -4.71851 -2.49384 0
M  V30 4009 O 384.468 -4.35823 -3.67987 0
M  V30 4010 O 383.402 -5.60467 -2.19454 0
M  V30 4011 H 387.228 -3.0349 -0.112966 0
M  V30 4012 H 384.813 -1.49397 0.0101513 0
M  V30 4013 H 386.695 -3.35927 -2.54423 0
M  V30 4014 H 385.37 -2.17211 -2.40002 0
M  V30 4015 H 384.277 -3.68503 -0.644726 0
M  V30 4016 H 385.61 -4.84492 -0.867647 0
M  V30 4017 N 387.262 0.0317525 -1.57568 0
M  V30 4018 C 388.212 1.04101 -2.02847 0
M  V30 4019 C 389.196 1.3219 -0.917317 0
M  V30 4020 O 390.388 1.31819 -1.18121 0
M  V30 4021 C 387.517 2.34295 -2.5092 0
M  V30 4022 C 386.603 2.09308 -3.68851 0
M  V30 4023 N 386.994 1.5437 -4.81667 0
M  V30 4024 C 385.292 2.39604 -3.76172 0
M  V30 4025 C 385.993 1.45126 -5.63306 0
M  V30 4026 N 384.969 1.92589 -5.08341 0
M  V30 4027 H 388.771 0.610217 -2.87495 0
M  V30 4028 H 386.285 0.238108 -1.60645 0
M  V30 4029 H 388.282 3.07404 -2.81617 0
M  V30 4030 H 386.942 2.78055 -1.67677 0
M  V30 4031 H 387.953 1.22678 -5.03161 0
M  V30 4032 H 384.63 2.86457 -3.03724 0
M  V30 4033 H 386.02 1.03163 -6.63933 0
M  V30 4034 N 388.74 1.54641 0.303973 0
M  V30 4035 C 389.965 1.78092 1.06292 0
M  V30 4036 C 390.39 0.537342 1.80262 0
M  V30 4037 O 389.748 -0.511993 1.7392 0
M  V30 4038 C 389.796 2.98612 2.02147 0
M  V30 4039 O 388.9 2.71528 3.10397 0
M  V30 4040 H 388.241 0.589548 0.305497 0
M  V30 4041 H 390.771 2.01716 0.3423 0
M  V30 4042 H 390.781 3.265 2.44667 0
M  V30 4043 H 389.456 3.88785 1.47714 0
M  V30 4044 H 388.033 2.54648 2.72413 0
M  V30 4045 N 390.218 -0.567019 1.47046 0
M  V30 4046 C 391.467 -1.32091 1.5243 0
M  V30 4047 C 391.78 -1.94704 0.187021 0
M  V30 4048 O 392.986 -2.7124 0.118771 0
M  V30 4049 C 391.442 -2.39479 2.68659 0
M  V30 4050 C 391.05 -1.831 4.08874 0
M  V30 4051 C 392.794 -3.16111 2.83327 0
M  V30 4052 C 390.701 -2.8821 5.16419 0
M  V30 4053 H 389.631 -0.496629 0.56734 0
M  V30 4054 H 392.282 -0.603354 1.73297 0
M  V30 4055 H 390.664 -3.14105 2.41152 0
M  V30 4056 H 391.838 -1.14913 4.46242 0
M  V30 4057 H 390.153 -1.19085 3.99008 0
M  V30 4058 H 392.75 -3.94585 3.60842 0
M  V30 4059 H 393.093 -3.69686 1.91411 0
M  V30 4060 H 393.626 -2.48595 3.10556 0
M  V30 4061 H 390.365 -2.39504 6.10179 0
M  V30 4062 H 389.885 -3.54839 4.8358 0
M  V30 4063 H 391.564 -3.51881 5.42945 0
M  V30 4064 N 391.696 -1.35014 -0.812953 0
M  V30 4065 C 392.926 -1.30841 -1.59888 0
M  V30 4066 C 393.334 0.117576 -1.88834 0
M  V30 4067 O 392.677 1.07807 -1.48739 0
M  V30 4068 C 392.739 -2.0412 -2.95931 0
M  V30 4069 C 392.403 -3.53336 -2.89832 0
M  V30 4070 C 393.4 -4.48052 -2.63714 0
M  V30 4071 C 391.085 -3.95894 -3.0915 0
M  V30 4072 C 393.079 -5.833 -2.56982 0
M  V30 4073 C 390.766 -5.31239 -3.0204 0
M  V30 4074 C 391.764 -6.24754 -2.75991 0
M  V30 4075 O 391.452 -7.57617 -2.68833 0
M  V30 4076 H 391.184 -0.451215 -0.50337 0
M  V30 4077 H 393.738 -1.78354 -1.01877 0
M  V30 4078 H 391.968 -1.51235 -3.559 0
M  V30 4079 H 393.657 -1.93107 -3.57022 0
M  V30 4080 H 394.423 -4.16492 -2.48515 0
M  V30 4081 H 390.302 -3.23495 -3.28438 0
M  V30 4082 H 393.846 -6.56263 -2.36569 0
M  V30 4083 H 389.743 -5.62415 -3.16796 0
M  V30 4084 H 390.511 -7.67469 -2.84487 0
M  V30 4085 N 393.175 1.03435 -1.18907 0
M  V30 4086 C 394.415 1.78302 -0.999391 0
M  V30 4087 C 394.779 1.86353 0.462219 0
M  V30 4088 O 395.98 2.57489 0.771543 0
M  V30 4089 C 394.251 3.17362 -1.64365 0
M  V30 4090 S 395.81 4.08488 -1.6026 0
M  V30 4091 H 392.628 0.613861 -0.358742 0
M  V30 4092 H 395.23 1.23979 -1.51161 0
M  V30 4093 H 393.934 3.09116 -2.69955 0
M  V30 4094 H 393.465 3.76762 -1.13199 0
M  V30 4095 H 395.48 4.92274 -0.622932 0
M  V30 4096 N 394.653 0.992116 1.22453 0
M  V30 4097 C 395.881 0.685944 1.95198 0
M  V30 4098 C 396.296 -0.749233 1.73297 0
M  V30 4099 O 395.653 -1.50549 1.03156 0
M  V30 4100 C 395.704 0.981395 3.47924 0
M  V30 4101 O 395.425 2.36018 3.6909 0
M  V30 4102 C 396.926 0.692815 4.37853 0
M  V30 4103 H 394.146 0.253821 0.621141 0
M  V30 4104 H 396.69 1.32668 1.55626 0
M  V30 4105 H 394.845 0.386481 3.85467 0
M  V30 4106 H 395.259 2.45884 4.63294 0
M  V30 4107 H 396.733 0.949818 5.43767 0
M  V30 4108 H 397.21 -0.373181 4.37612 0
M  V30 4109 H 397.816 1.26874 4.05935 0
M  V30 4110 N 396.131 -1.37776 0.765217 0
M  V30 4111 C 397.377 -2.00145 0.327072 0
M  V30 4112 C 397.71 -1.60607 -1.09175 0
M  V30 4113 O 396.985 -0.849127 -1.74986 0
M  V30 4114 C 397.268 -3.57109 0.46319 0
M  V30 4115 C 397.121 -4.06576 1.92395 0
M  V30 4116 C 398.44 -4.39888 -0.136473 0
M  V30 4117 H 395.559 -0.727113 0.120316 0
M  V30 4118 H 398.201 -1.63549 0.967039 0
M  V30 4119 H 396.351 -3.88414 -0.0816358 0
M  V30 4120 H 398.023 -3.85864 2.52798 0
M  V30 4121 H 396.266 -3.59011 2.43503 0
M  V30 4122 H 396.937 -5.15639 1.97028 0
M  V30 4123 H 399.413 -4.14803 0.328317 0
M  V30 4124 H 398.289 -5.48899 -0.0110582 0
M  V30 4125 H 398.55 -4.24758 -1.22608 0
M  V30 4126 N 397.609 -0.515225 -1.4894 0
M  V30 4127 C 398.557 0.269115 -2.31038 0
M  V30 4128 C 399.551 0.949443 -1.40292 0
M  V30 4129 O 400.757 0.87551 -1.57273 0
M  V30 4130 H 397.132 0.10565 -0.744542 0
M  V30 4131 H 399.103 -0.443096 -2.95092 0
M  V30 4132 C 397.852 1.31213 -3.21991 0
M  V30 4133 H 397.175 0.798034 -3.91754 0
M  V30 4134 H 398.615 1.83263 -3.82349 0
M  V30 4135 C 397.074 2.33791 -2.42576 0
M  V30 4136 O 397.604 3.3995 -2.14003 0
M  V30 4137 N 395.81 2.06625 -2.0434 0
M  V30 4138 H 395.357 1.20314 -2.27777 0
M  V30 4139 H 395.315 2.75483 -1.51514 0
M  V30 4140 N 399.087 1.5561 -0.249682 0
M  V30 4141 C 400.035 2.22894 0.664906 0
M  V30 4142 C 401.029 1.21743 1.17792 0
M  V30 4143 O 402.235 1.39748 1.13449 0
M  V30 4144 H 398.61 0.715022 0.232912 0
M  V30 4145 H 400.581 2.98307 0.0742998 0
M  V30 4146 C 399.33 2.94424 1.84959 0
M  V30 4147 H 398.653 3.72031 1.46399 0
M  V30 4148 H 400.093 3.44862 2.4667 0
M  V30 4149 C 398.552 1.98454 2.72245 0
M  V30 4150 O 399.082 1.51939 3.71857 0
M  V30 4151 N 397.288 1.65496 2.38871 0
M  V30 4152 H 396.835 2.03517 1.57919 0
M  V30 4153 H 396.793 1.0155 2.97548 0
M  V30 4154 N 400.565 -0.0233959 1.57583 0
M  V30 4155 C 401.842 -0.748794 1.807 0
M  V30 4156 C 402.222 -1.9327 0.849106 0
M  V30 4157 O 401.57 -2.28247 -0.107468 0
M  V30 4158 C 401.78 -1.17651 3.28571 0
M  V30 4159 C 403.128 -1.59008 3.93702 0
M  V30 4160 O 404.152 -1.27094 3.32755 0
M  V30 4161 O 403.011 -2.18264 5.01022 0
M  V30 4162 H 400.105 -0.362578 0.743281 0
M  V30 4163 H 402.651 0.000261958 1.697 0
M  V30 4164 H 401.423 -0.331603 3.89892 0
M  V30 4165 H 401.046 -1.98541 3.44481 0
M  V30 4166 N 402.043 -1.548 -0.295768 0
M  V30 4167 C 402.953 -1.89177 -1.38742 0
M  V30 4168 C 403.969 -0.786481 -1.55211 0
M  V30 4169 O 405.145 -1.08344 -1.69775 0
M  V30 4170 C 402.21 -2.13663 -2.73036 0
M  V30 4171 C 401.271 -3.37349 -2.65508 0
M  V30 4172 C 400.504 -3.60658 -3.93398 0
M  V30 4173 O 400.727 -2.86882 -4.93006 0
M  V30 4174 O 399.661 -4.54179 -3.94975 0
M  V30 4175 H 403.487 -2.82059 -1.12589 0
M  V30 4176 H 401.072 -1.41056 -0.492295 0
M  V30 4177 H 402.954 -2.3094 -3.52484 0
M  V30 4178 H 401.629 -1.23967 -2.99022 0
M  V30 4179 H 400.536 -3.25431 -1.84514 0
M  V30 4180 H 401.869 -4.27192 -2.44474 0
M  V30 4181 N 403.521 0.559213 -1.47345 0
M  V30 4182 C 404.769 1.31388 -1.53563 0
M  V30 4183 C 405.09 1.93985 -0.198678 0
M  V30 4184 O 404.36 1.79825 0.777167 0
M  V30 4185 H 402.94 0.487901 -0.565652 0
M  V30 4186 H 405.602 0.65315 -1.8363 0
M  V30 4187 H 404.698 2.10844 -2.30111 0
M  V30 4188 N 404.999 1.35443 0.805782 0
M  V30 4189 C 405.909 1.30546 1.94923 0
M  V30 4190 C 406.925 0.210233 1.72725 0
M  V30 4191 O 408.101 0.43975 1.9654 0
M  V30 4192 C 405.166 1.07782 3.29521 0
M  V30 4193 C 404.227 2.26625 3.64609 0
M  V30 4194 C 403.46 2.04938 4.92784 0
M  V30 4195 O 403.683 1.01624 5.61274 0
M  V30 4196 O 402.617 2.9232 5.26149 0
M  V30 4197 H 406.443 2.26779 2.02002 0
M  V30 4198 H 404.028 1.15823 0.943682 0
M  V30 4199 H 405.91 0.969392 4.10098 0
M  V30 4200 H 404.585 0.146003 3.23371 0
M  V30 4201 H 403.492 2.43033 2.84404 0
M  V30 4202 H 404.825 3.18257 3.75464 0
M  V30 4203 N 406.477 -1.02803 1.19454 0
M  V30 4204 C 407.723 -1.76598 1.0092 0
M  V30 4205 C 408.078 -1.86939 -0.455142 0
M  V30 4206 O 407.371 -1.37575 -1.33355 0
M  V30 4207 C 407.565 -3.18941 1.6128 0
M  V30 4208 C 407.394 -3.22476 3.13431 0
M  V30 4209 C 406.164 -3.30375 3.82336 0
M  V30 4210 C 408.362 -3.09451 4.10785 0
M  V30 4211 N 406.344 -3.23292 5.21877 0
M  V30 4212 C 407.715 -3.10012 5.36929 0
M  V30 4213 C 409.77 -2.93585 4.02135 0
M  V30 4214 C 408.473 -2.96334 6.55423 0
M  V30 4215 C 410.499 -2.81256 5.20239 0
M  V30 4216 C 409.861 -2.82472 6.45282 0
M  V30 4217 H 405.96 -0.657447 0.423424 0
M  V30 4218 H 408.544 -1.22369 1.5144 0
M  V30 4219 H 406.715 -3.71489 1.1336 0
M  V30 4220 H 408.447 -3.81102 1.36173 0
M  V30 4221 H 405.202 -3.3663 3.33132 0
M  V30 4222 H 405.626 -3.23156 5.94894 0
M  V30 4223 H 410.268 -2.91466 3.0628 0
M  V30 4224 H 407.986 -2.97203 7.51463 0
M  V30 4225 H 411.572 -2.70014 5.15348 0
M  V30 4226 H 410.452 -2.73036 7.35133 0
M  V30 4227 N 407.956 -0.998596 -1.21925 0
M  V30 4228 C 409.181 -0.696015 -1.95372 0
M  V30 4229 C 409.606 0.733826 -1.73195 0
M  V30 4230 O 408.964 1.50242 -1.01474 0
M  V30 4231 C 409.012 -1.01466 -3.4603 0
M  V30 4232 O 408.116 -0.116415 -4.12236 0
M  V30 4233 H 407.457 -0.259938 -0.611006 0
M  V30 4234 H 409.987 -1.33711 -1.54863 0
M  V30 4235 H 409.997 -0.958855 -3.96573 0
M  V30 4236 H 408.672 -2.05653 -3.61497 0
M  V30 4237 H 407.249 -0.228193 -3.72201 0
M  V30 4238 N 409.434 1.37368 -0.772513 0
M  V30 4239 C 410.682 1.99279 -0.336516 0
M  V30 4240 C 411.003 1.6163 1.09091 0
M  V30 4241 O 410.273 0.882109 1.74916 0
M  V30 4242 H 408.853 0.737063 -0.121435 0
M  V30 4243 H 411.515 1.67836 -0.990809 0
M  V30 4244 H 410.611 3.09332 -0.414763 0
M  V30 4245 N 410.912 0.523116 1.48665 0
M  V30 4246 C 412.323 0.0808997 1.86525 0
M  V30 4247 C 412.674 -1.33975 1.43336 0
M  V30 4248 O 411.799 -2.00221 0.821009 0
M  V30 4249 C 412.394 0.140037 3.3851 0
M  V30 4250 C 410.953 -0.246948 3.75589 0
M  V30 4251 C 410.1 0.502845 2.72703 0
M  V30 4252 H 413.051 0.734736 1.40667 0
M  V30 4253 H 413.072 -0.649945 3.74908 0
M  V30 4254 H 412.584 1.17412 3.69914 0
M  V30 4255 H 410.685 -1.28343 3.49798 0
M  V30 4256 H 410.798 0.0878859 4.79019 0
M  V30 4257 H 409.162 -0.0500581 2.54651 0
M  V30 4258 H 409.945 1.53743 3.0695 0
M  V30 4259 N 412.39 -1.55475 0.257931 0
M  V30 4260 C 413.801 -1.8511 -0.243135 0
M  V30 4261 C 414.152 -1.17986 -1.5676 0
M  V30 4262 O 413.277 -0.462102 -2.11409 0
M  V30 4263 C 413.872 -3.35826 -0.447929 0
M  V30 4264 C 412.431 -3.65647 -0.893245 0
M  V30 4265 C 411.578 -2.7729 0.0232965 0
M  V30 4266 H 414.529 -1.51261 0.480199 0
M  V30 4267 H 414.55 -3.58002 -1.28898 0
M  V30 4268 H 414.062 -3.84652 0.516196 0
M  V30 4269 H 412.163 -3.22308 -1.86945 0
M  V30 4270 H 412.276 -4.73312 -0.742469 0
M  V30 4271 H 410.64 -2.49942 -0.490021 0
M  V30 4272 H 411.423 -3.28926 0.982994 0
M  V30 4273 N 413.868 0.0150385 -1.57593 0
M  V30 4274 C 415.279 0.559832 -1.78109 0
M  V30 4275 C 415.63 1.74814 -0.890756 0
M  V30 4276 O 414.755 2.16216 -0.0892482 0
M  V30 4277 C 415.35 1.02238 -3.23006 0
M  V30 4278 C 413.909 1.51258 -3.44671 0
M  V30 4279 C 413.056 0.456955 -2.73509 0
M  V30 4280 H 416.007 -0.211169 -1.57289 0
M  V30 4281 H 416.028 1.88912 -3.30292 0
M  V30 4282 H 415.54 0.157302 -3.87781 0
M  V30 4283 H 413.641 2.39905 -2.8509 0
M  V30 4284 H 413.754 1.55042 -4.5332 0
M  V30 4285 H 412.118 0.915196 -2.37689 0
M  V30 4286 H 412.901 -0.398896 -3.40975 0
M  V30 4287 N 415.346 1.54954 0.287554 0
M  V30 4288 C 416.256 1.8991 1.37736 0
M  V30 4289 C 417.272 0.794701 1.54792 0
M  V30 4290 O 418.448 1.09243 1.69198 0
M  V30 4291 C 415.513 2.15108 2.71899 0
M  V30 4292 C 414.574 3.38752 2.63715 0
M  V30 4293 C 413.807 3.62739 3.91479 0
M  V30 4294 O 414.03 2.89492 4.91478 0
M  V30 4295 O 412.964 4.56267 3.92561 0
M  V30 4296 H 416.79 2.82652 1.11092 0
M  V30 4297 H 414.375 1.41315 0.484807 0
M  V30 4298 H 416.257 2.32806 3.51254 0
M  V30 4299 H 414.932 1.25551 2.9836 0
M  V30 4300 H 413.839 3.26405 1.82786 0
M  V30 4301 H 415.172 4.28483 2.42205 0
M  V30 4302 N 416.824 -0.551391 1.4764 0
M  V30 4303 C 418.064 -1.31901 1.56145 0
M  V30 4304 C 418.428 -1.90724 0.221013 0
M  V30 4305 O 419.629 -2.6819 0.180945 0
M  V30 4306 C 417.9 -2.39517 2.65267 0
M  V30 4307 S 419.459 -3.26289 2.93395 0
M  V30 4308 H 416.277 -0.448965 0.551318 0
M  V30 4309 H 418.879 -0.630599 1.85051 0
M  V30 4310 H 417.583 -1.94747 3.6125 0
M  V30 4311 H 417.114 -3.13092 2.38195 0
M  V30 4312 H 419.129 -4.39122 2.31055 0
M  V30 4313 N 418.302 -1.35869 -0.798587 0
M  V30 4314 C 419.718 -1.16082 -1.09532 0
M  V30 4315 C 419.918 0.0213124 -2.01489 0
M  V30 4316 O 418.974 0.689488 -2.42904 0
M  V30 4317 C 420.287 -2.46748 -1.7186 0
M  V30 4318 C 421.835 -2.53028 -1.84244 0
M  V30 4319 C 422.31 -3.83758 -2.49988 0
M  V30 4320 N 423.801 -3.85053 -2.57465 0
M  V30 4321 C 424.536 -4.8294 -3.09122 0
M  V30 4322 N 424.032 -5.91217 -3.61157 0
M  V30 4323 N 425.825 -4.70369 -3.0775 0
M  V30 4324 H 417.976 -2.11571 -0.187461 0
M  V30 4325 H 420.239 -0.936726 -0.145765 0
M  V30 4326 H 419.945 -3.33471 -1.11759 0
M  V30 4327 H 419.819 -2.61883 -2.71472 0
M  V30 4328 H 422.206 -1.66729 -2.43486 0
M  V30 4329 H 422.287 -2.418 -0.834643 0
M  V30 4330 H 421.931 -4.70459 -1.91393 0
M  V30 4331 H 421.861 -3.92278 -3.5132 0
M  V30 4332 H 424.352 -3.06822 -2.20609 0
M  V30 4333 H 424.665 -6.61892 -3.98896 0
M  V30 4334 H 423.01 -5.94899 -3.59333 0
M  V30 4335 H 426.201 -3.84914 -2.66381 0
M  V30 4336 H 426.374 -5.46816 -3.47701 0
M  V30 4337 N 419.78 1.02168 -1.19998 0
M  V30 4338 C 421.028 1.75338 -1.00504 0
M  V30 4339 C 421.349 1.89387 0.464506 0
M  V30 4340 O 420.619 1.43268 1.33608 0
M  V30 4341 H 419.199 0.649564 -0.368885 0
M  V30 4342 H 421.861 1.23205 -1.51018 0
M  V30 4343 H 420.957 2.75892 -1.45912 0
M  V30 4344 N 421.258 1.00505 1.21394 0
M  V30 4345 C 422.205 0.565496 2.23765 0
M  V30 4346 C 423.175 -0.408466 1.60999 0
M  V30 4347 O 424.36 -0.310503 1.88257 0
M  V30 4348 C 421.5 -0.101667 3.4495 0
M  V30 4349 C 420.613 0.915479 4.22188 0
M  V30 4350 C 419.748 0.220574 5.30742 0
M  V30 4351 C 418.787 1.22527 5.99711 0
M  V30 4352 N 417.924 0.557831 6.9988 0
M  V30 4353 H 422.764 1.44314 2.60725 0
M  V30 4354 H 420.301 0.722643 1.28126 0
M  V30 4355 H 422.259 -0.505504 4.14126 0
M  V30 4356 H 420.889 -0.94303 3.08718 0
M  V30 4357 H 419.941 1.43756 3.52191 0
M  V30 4358 H 421.253 1.68005 4.69655 0
M  V30 4359 H 420.407 -0.239368 6.06228 0
M  V30 4360 H 419.146 -0.576401 4.84282 0
M  V30 4361 H 418.151 1.69571 5.22997 0
M  V30 4362 H 419.376 2.02332 6.48258 0
M  V30 4363 H 417.322 -0.219486 6.55633 0
M  V30 4364 H 417.239 1.26065 7.45415 0
M  V30 4365 H 418.507 0.121095 7.79406 0
M  V30 4366 N 422.737 -1.36956 0.779787 0
M  V30 4367 C 423.962 -2.04283 0.358224 0
M  V30 4368 C 424.387 -1.58422 -1.01411 0
M  V30 4369 O 423.745 -0.748179 -1.65142 0
M  V30 4370 C 423.793 -3.58152 0.419479 0
M  V30 4371 O 422.897 -4.08342 -0.577142 0
M  V30 4372 H 422.238 -0.645967 0.153698 0
M  V30 4373 H 424.768 -1.75108 1.05822 0
M  V30 4374 H 424.778 -4.07041 0.279636 0
M  V30 4375 H 423.453 -3.90886 1.42061 0
M  V30 4376 H 422.03 -3.70751 -0.399755 0
M  V30 4377 N 424.215 -0.530993 -1.48385 0
M  V30 4378 C 425.145 0.219985 -2.32461 0
M  V30 4379 C 426.126 0.934111 -1.42156 0
M  V30 4380 O 427.311 0.919694 -1.71042 0
M  V30 4381 C 424.441 1.26674 -3.23375 0
M  V30 4382 C 423.395 0.67069 -4.22712 0
M  V30 4383 C 422.721 1.82017 -5.02766 0
M  V30 4384 C 424.021 -0.358268 -5.2107 0
M  V30 4385 H 425.715 -0.48187 -2.95497 0
M  V30 4386 H 423.261 -0.233182 -1.42099 0
M  V30 4387 H 425.214 1.80006 -3.81019 0
M  V30 4388 H 423.938 1.99818 -2.58341 0
M  V30 4389 H 422.597 0.158878 -3.66256 0
M  V30 4390 H 422.245 2.54002 -4.34157 0
M  V30 4391 H 421.945 1.42727 -5.70003 0
M  V30 4392 H 423.469 2.35725 -5.63264 0
M  V30 4393 H 424.883 0.0880081 -5.73232 0
M  V30 4394 H 423.28 -0.66861 -5.96364 0
M  V30 4395 H 424.35 -1.26367 -4.68145 0
M  V30 4396 N 425.693 1.55336 -0.266172 0
M  V30 4397 C 426.921 2.03801 0.356756 0
M  V30 4398 C 427.336 1.14485 1.50129 0
M  V30 4399 O 426.693 0.163121 1.8177 0
M  V30 4400 C 426.744 3.51455 0.846281 0
M  V30 4401 O 426.465 4.37371 -0.252663 0
M  V30 4402 C 427.966 4.15767 1.53794 0
M  V30 4403 H 425.186 0.665906 0.0825218 0
M  V30 4404 H 427.73 2.00636 -0.39566 0
M  V30 4405 H 425.885 3.55092 1.54881 0
M  V30 4406 H 426.299 5.24358 0.122173 0
M  V30 4407 H 427.773 5.20714 1.83198 0
M  V30 4408 H 428.25 3.63404 2.46646 0
M  V30 4409 H 428.856 4.16107 0.879488 0
M  V30 4410 N 427.171 -0.0066808 1.57599 0
M  V30 4411 C 428.396 -0.707738 1.94951 0
M  V30 4412 C 428.821 -1.66882 0.867868 0
M  V30 4413 O 428.179 -1.80457 -0.17458 0
M  V30 4414 C 428.227 -1.42162 3.31394 0
M  V30 4415 O 427.331 -2.53578 3.25226 0
M  V30 4416 H 426.672 -0.188752 0.636607 0
M  V30 4417 H 429.202 0.0445193 2.04552 0
M  V30 4418 H 429.212 -1.78655 3.66806 0
M  V30 4419 H 427.887 -0.716903 4.09675 0
M  V30 4420 H 426.464 -2.19463 3.01481 0
M  V30 4421 N 428.649 -1.55105 -0.279332 0
M  V30 4422 C 429.596 -1.8755 -1.34513 0
M  V30 4423 C 430.566 -0.726384 -1.49375 0
M  V30 4424 O 431.751 -0.977063 -1.63884 0
M  V30 4425 C 428.891 -2.14738 -2.70151 0
M  V30 4426 C 428.004 -3.42285 -2.63562 0
M  V30 4427 C 427.139 -3.59206 -3.91337 0
M  V30 4428 C 426.178 -4.80467 -3.79233 0
M  V30 4429 N 425.315 -4.94079 -4.98829 0
M  V30 4430 H 430.155 -2.78456 -1.06143 0
M  V30 4431 H 427.692 -1.37867 -0.512936 0
M  V30 4432 H 429.65 -2.28501 -3.49061 0
M  V30 4433 H 428.28 -1.27075 -2.96735 0
M  V30 4434 H 427.332 -3.37029 -1.76397 0
M  V30 4435 H 428.644 -4.31328 -2.50515 0
M  V30 4436 H 427.798 -3.72751 -4.78687 0
M  V30 4437 H 426.537 -2.68337 -4.07243 0
M  V30 4438 H 425.542 -4.66932 -2.90266 0
M  V30 4439 H 426.767 -5.72765 -3.64852 0
M  V30 4440 H 424.713 -4.06139 -5.15158 0
M  V30 4441 H 424.63 -5.77156 -4.8829 0
M  V30 4442 H 425.898 -5.12003 -5.8777 0
M  V30 4443 N 430.127 0.543554 -1.4793 0
M  V30 4444 C 431.373 1.30201 -1.55485 0
M  V30 4445 C 431.706 1.92925 -0.222201 0
M  V30 4446 O 430.981 1.78586 0.77053 0
M  V30 4447 C 431.264 2.40174 -2.68307 0
M  V30 4448 C 431.117 1.8223 -4.11233 0
M  V30 4449 C 432.436 3.42024 -2.76961 0
M  V30 4450 H 429.555 0.472036 -0.565996 0
M  V30 4451 H 432.197 0.606914 -1.80046 0
M  V30 4452 H 430.347 2.99463 -2.47495 0
M  V30 4453 H 432.019 1.27096 -4.43446 0
M  V30 4454 H 430.262 1.12832 -4.18869 0
M  V30 4455 H 430.933 2.61793 -4.85972 0
M  V30 4456 H 433.409 2.92672 -2.95774 0
M  V30 4457 H 432.285 4.16383 -3.57654 0
M  V30 4458 H 432.546 4.0173 -1.84568 0
M  V30 4459 N 431.605 1.3629 0.791371 0
M  V30 4460 C 433.016 1.27225 1.36641 0
M  V30 4461 C 433.367 -0.0887968 1.95999 0
M  V30 4462 O 432.492 -0.990207 1.92416 0
M  V30 4463 C 433.087 2.30375 2.48421 0
M  V30 4464 C 431.646 2.25004 3.01746 0
M  V30 4465 C 430.793 2.15259 1.7481 0
M  V30 4466 H 433.744 1.47198 0.593173 0
M  V30 4467 H 433.765 1.93905 3.27385 0
M  V30 4468 H 433.277 3.29422 2.05189 0
M  V30 4469 H 431.378 1.29417 3.49403 0
M  V30 4470 H 431.491 3.1761 3.58693 0
M  V30 4471 H 429.855 1.61482 1.96966 0
M  V30 4472 H 430.638 3.16191 1.33709 0
M  V30 4473 N 433.083 -1.0153 1.20538 0
M  V30 4474 C 434.494 -1.56598 1.01657 0
M  V30 4475 C 434.845 -1.91505 -0.426668 0
M  V30 4476 O 433.97 -1.72375 -1.30827 0
M  V30 4477 C 434.565 -2.84542 1.83905 0
M  V30 4478 C 433.124 -3.36133 1.69386 0
M  V30 4479 C 432.271 -2.09427 1.81757 0
M  V30 4480 H 435.222 -0.838974 1.34711 0
M  V30 4481 H 435.243 -3.56004 1.34319 0
M  V30 4482 H 434.755 -2.59105 2.8894 0
M  V30 4483 H 432.856 -3.66528 0.669933 0
M  V30 4484 H 432.969 -4.08248 2.50739 0
M  V30 4485 H 431.333 -2.21941 1.24957 0
M  V30 4486 H 432.116 -1.86414 2.88279 0
M  V30 4487 N 434.561 -1.01147 -1.20859 0
M  V30 4488 C 435.789 -0.716911 -1.94082 0
M  V30 4489 C 436.204 0.721568 -1.74467 0
M  V30 4490 O 435.561 1.48889 -1.05539 0
M  V30 4491 C 435.612 -1.03662 -3.46318 0
M  V30 4492 O 435.333 -2.4186 -3.65288 0
M  V30 4493 C 436.834 -0.762386 -4.36695 0
M  V30 4494 H 434.054 -0.26367 -0.617024 0
M  V30 4495 H 436.598 -1.35127 -1.53496 0
M  V30 4496 H 434.753 -0.447757 -3.84804 0
M  V30 4497 H 435.167 -2.53224 -4.59323 0
M  V30 4498 H 436.641 -1.03621 -5.42187 0
M  V30 4499 H 437.118 0.303514 -4.3815 0
M  V30 4500 H 437.724 -1.33316 -4.03865 0
M  V30 4501 N 436.039 1.36541 -0.78704 0
M  V30 4502 C 437.285 1.99599 -0.358872 0
M  V30 4503 C 437.618 1.62323 1.06606 0
M  V30 4504 O 436.893 0.876858 1.73613 0
M  V30 4505 C 437.176 3.56327 -0.519944 0
M  V30 4506 C 437.029 4.03464 -1.98839 0
M  V30 4507 C 438.348 4.4005 0.0664737 0
M  V30 4508 H 435.467 0.725107 -0.131869 0
M  V30 4509 H 438.109 1.6199 -0.992936 0
M  V30 4510 H 436.259 3.88495 0.0198321 0
M  V30 4511 H 437.931 3.81793 -2.58905 0
M  V30 4512 H 436.174 3.55092 -2.49183 0
M  V30 4513 H 436.845 5.12439 -2.05207 0
M  V30 4514 H 439.321 4.14228 -0.394267 0
M  V30 4515 H 438.197 5.48847 -0.0762682 0
M  V30 4516 H 438.458 4.26655 1.15835 0
M  V30 4517 N 437.518 0.538854 1.48102 0
M  V30 4518 C 438.45 -0.256278 2.27763 0
M  V30 4519 C 439.463 -0.89633 1.35904 0
M  V30 4520 O 440.652 -0.773275 1.60881 0
M  V30 4521 C 437.752 -1.37896 3.09577 0
M  V30 4522 C 436.925 -0.839159 4.29275 0
M  V30 4523 C 435.984 -1.84405 4.9283 0
M  V30 4524 O 435.01 -1.39746 5.51779 0
M  V30 4525 N 436.212 -3.17666 4.85869 0
M  V30 4526 H 438.977 0.426968 2.96643 0
M  V30 4527 H 436.538 0.373747 1.57527 0
M  V30 4528 H 438.53 -2.04955 3.48963 0
M  V30 4529 H 437.1 -1.96572 2.4306 0
M  V30 4530 H 436.32 0.00769287 3.94199 0
M  V30 4531 H 437.608 -0.457548 5.06739 0
M  V30 4532 H 437.006 -3.56609 4.39143 0
M  V30 4533 H 435.563 -3.80334 5.29329 0
M  V30 4534 N 438.996 -1.55193 0.274407 0
M  V30 4535 C 439.943 -2.225 -0.613374 0
M  V30 4536 C 440.913 -1.19823 -1.15029 0
M  V30 4537 O 442.098 -1.48362 -1.19973 0
M  V30 4538 C 439.238 -2.94927 -1.79199 0
M  V30 4539 C 438.351 -4.12322 -1.28899 0
M  V30 4540 C 437.486 -4.72394 -2.42934 0
M  V30 4541 C 436.525 -5.81984 -1.89634 0
M  V30 4542 N 435.662 -6.36123 -2.9714 0
M  V30 4543 H 440.502 -2.97982 -0.032756 0
M  V30 4544 H 438.039 -1.47099 -0.00440146 0
M  V30 4545 H 439.997 -3.35134 -2.48478 0
M  V30 4546 H 438.627 -2.2187 -2.34465 0
M  V30 4547 H 437.679 -3.7724 -0.489327 0
M  V30 4548 H 438.991 -4.91355 -0.858587 0
M  V30 4549 H 438.145 -5.15317 -3.20208 0
M  V30 4550 H 436.884 -3.92636 -2.8929 0
M  V30 4551 H 435.889 -5.38511 -1.1084 0
M  V30 4552 H 437.114 -6.6361 -1.44215 0
M  V30 4553 H 435.06 -5.59259 -3.42878 0
M  V30 4554 H 434.977 -7.10427 -2.58515 0
M  V30 4555 H 436.245 -6.83704 -3.74391 0
M  V30 4556 N 440.474 -0.00167713 -1.576 0
M  V30 4557 C 441.885 0.54091 -1.78693 0
M  V30 4558 C 442.236 1.7386 -0.909247 0
M  V30 4559 O 441.361 2.16109 -0.112176 0
M  V30 4560 C 441.956 0.98806 -3.24072 0
M  V30 4561 C 440.515 1.47594 -3.46256 0
M  V30 4562 C 439.662 0.42792 -2.73978 0
M  V30 4563 H 442.613 -0.22784 -1.57056 0
M  V30 4564 H 442.634 1.85398 -3.32277 0
M  V30 4565 H 442.146 0.116164 -3.87926 0
M  V30 4566 H 440.247 2.36868 -2.87618 0
M  V30 4567 H 440.36 1.50225 -4.54939 0
M  V30 4568 H 438.724 0.889934 -2.38647 0
M  V30 4569 H 439.507 -0.435038 -3.40532 0
M  V30 4570 N 441.952 1.55251 0.271103 0
M  V30 4571 C 443.18 1.79974 1.02064 0
M  V30 4572 C 443.595 0.574003 1.79863 0
M  V30 4573 O 442.952 -0.456962 1.76686 0
M  V30 4574 C 443.003 3.02603 1.97772 0
M  V30 4575 O 442.724 4.20443 1.23124 0
M  V30 4576 C 444.225 3.39944 2.84522 0
M  V30 4577 H 441.445 0.599489 0.301419 0
M  V30 4578 H 443.989 2.02268 0.301313 0
M  V30 4579 H 442.144 2.8243 2.65165 0
M  V30 4580 H 442.558 4.89783 1.87651 0
M  V30 4581 H 444.032 4.28915 3.47471 0
M  V30 4582 H 444.509 2.59432 3.54389 0
M  V30 4583 H 445.115 3.62383 2.22618 0
M  V30 4584 N 443.43 -0.535701 1.48216 0
M  V30 4585 C 444.658 -1.31671 1.59594 0
M  V30 4586 C 445.073 -1.87083 0.254056 0
M  V30 4587 O 444.43 -1.66112 -0.755854 0
M  V30 4588 C 444.481 -2.47158 2.63809 0
M  V30 4589 O 444.202 -1.94032 3.92789 0
M  V30 4590 C 445.703 -3.39062 2.85573 0
M  V30 4591 H 442.923 -0.400623 0.538277 0
M  V30 4592 H 445.467 -0.646827 1.94001 0
M  V30 4593 H 443.622 -3.10043 2.32276 0
M  V30 4594 H 444.036 -2.69585 4.49916 0
M  V30 4595 H 445.51 -4.16459 3.62306 0
M  V30 4596 H 445.987 -3.93941 1.94184 0
M  V30 4597 H 446.593 -2.81975 3.18387 0
M  V30 4598 N 444.908 -1.36708 -0.784132 0
M  V30 4599 C 446.154 -1.31426 -1.54451 0
M  V30 4600 C 446.487 0.10476 -1.93917 0
M  V30 4601 O 445.762 1.05934 -1.6312 0
M  V30 4602 C 446.045 -2.24189 -2.818 0
M  V30 4603 C 445.898 -3.74813 -2.48667 0
M  V30 4604 C 447.217 -2.15626 -3.83658 0
M  V30 4605 H 444.336 -0.478739 -0.560337 0
M  V30 4606 H 446.978 -1.67305 -0.900498 0
M  V30 4607 H 445.128 -1.93722 -3.36755 0
M  V30 4608 H 446.8 -4.15823 -1.99722 0
M  V30 4609 H 445.043 -3.93989 -1.81535 0
M  V30 4610 H 445.714 -4.35138 -3.39646 0
M  V30 4611 H 448.19 -2.42456 -3.38163 0
M  V30 4612 H 447.066 -2.82694 -4.70506 0
M  V30 4613 H 447.327 -1.14522 -4.27009 0
M  V30 4614 N 446.386 1.0089 -1.21074 0
M  V30 4615 C 447.334 2.11707 -0.963476 0
M  V30 4616 C 448.328 1.69172 0.0879032 0
M  V30 4617 O 449.534 1.79889 -0.0631415 0
M  V30 4618 H 445.909 0.692026 -0.294287 0
M  V30 4619 H 447.88 2.29743 -1.90422 0
M  V30 4620 C 446.629 3.43473 -0.540509 0
M  V30 4621 H 445.952 3.76634 -1.34114 0
M  V30 4622 H 447.392 4.22044 -0.406777 0
M  V30 4623 C 445.851 3.2849 0.748079 0
M  V30 4624 O 446.381 3.58883 1.8046 0
M  V30 4625 N 444.587 2.81715 0.713081 0
M  V30 4626 H 444.134 2.5718 -0.146973 0
M  V30 4627 H 444.092 2.72071 1.57558 0
M  V30 4628 N 447.864 1.01787 1.20321 0
M  V30 4629 C 449.11 0.708985 1.90003 0
M  V30 4630 C 449.443 -0.759572 1.78729 0
M  V30 4631 O 448.718 -1.55198 1.17234 0
M  V30 4632 C 449.001 1.1469 3.41348 0
M  V30 4633 C 448.854 2.67586 3.61549 0
M  V30 4634 C 450.173 0.71915 4.34185 0
M  V30 4635 H 447.292 0.259034 0.689978 0
M  V30 4636 H 449.934 1.26584 1.41692 0
M  V30 4637 H 448.084 0.673128 3.82624 0
M  V30 4638 H 449.756 3.22826 3.29517 0
M  V30 4639 H 447.999 3.085 3.04976 0
M  V30 4640 H 448.67 2.93281 4.67643 0
M  V30 4641 H 451.146 1.12647 4.00562 0
M  V30 4642 H 450.022 1.05358 5.38694 0
M  V30 4643 H 450.283 -0.379111 4.40472 0
M  V30 4644 N 449.342 -1.36122 0.79427 0
M  V30 4645 C 450.753 -1.81646 0.431446 0
M  V30 4646 C 451.104 -1.66043 -1.04518 0
M  V30 4647 O 450.229 -1.1841 -1.8113 0
M  V30 4648 C 450.824 -3.29785 0.776341 0
M  V30 4649 C 449.383 -3.73501 0.466282 0
M  V30 4650 C 448.53 -2.58313 1.00844 0
M  V30 4651 H 451.481 -1.24274 0.986995 0
M  V30 4652 H 451.502 -3.80437 0.0692413 0
M  V30 4653 H 451.014 -3.4111 1.8511 0
M  V30 4654 H 449.115 -3.67733 -0.600245 0
M  V30 4655 H 449.228 -4.68754 0.990288 0
M  V30 4656 H 447.592 -2.5102 0.431406 0
M  V30 4657 H 448.375 -2.72421 2.08906 0
M  V30 4658 N 450.82 -0.546701 -1.47814 0
M  V30 4659 C 452.048 -0.0232857 -2.06887 0
M  V30 4660 C 452.463 1.26571 -1.4009 0
M  V30 4661 O 451.82 1.7569 -0.493906 0
M  V30 4662 C 451.871 0.186975 -3.61016 0
M  V30 4663 O 451.592 -1.05097 -4.25307 0
M  V30 4664 C 453.093 0.748872 -4.36929 0
M  V30 4665 H 450.313 -0.0410763 -0.669742 0
M  V30 4666 H 452.857 -0.757117 -1.89968 0
M  V30 4667 H 451.012 0.870903 -3.77484 0
M  V30 4668 H 451.426 -0.842121 -5.17695 0
M  V30 4669 H 452.9 0.845334 -5.45489 0
M  V30 4670 H 453.377 1.75772 -4.02493 0
M  V30 4671 H 453.983 0.100979 -4.2518 0
M  V30 4672 N 452.299 1.55045 -0.282633 0
M  V30 4673 C 453.527 2.04168 0.33512 0
M  V30 4674 C 453.942 1.16071 1.48906 0
M  V30 4675 O 453.299 0.182391 1.81586 0
M  V30 4676 C 453.35 3.52332 0.808957 0
M  V30 4677 O 453.071 4.37078 -0.299038 0
M  V30 4678 C 454.572 4.17375 1.49375 0
M  V30 4679 H 451.792 0.666744 0.0754543 0
M  V30 4680 H 454.336 2.00205 -0.416918 0
M  V30 4681 H 452.491 3.56715 1.51106 0
M  V30 4682 H 452.905 5.24458 0.0665514 0
M  V30 4683 H 454.379 5.22627 1.77664 0
M  V30 4684 H 454.856 3.65999 2.42778 0
M  V30 4685 H 455.462 4.17016 0.835305 0
M  V30 4686 N 453.777 0.010035 1.57597 0
M  V30 4687 C 454.687 -0.994226 2.12491 0
M  V30 4688 C 455.703 -1.37013 1.07254 0
M  V30 4689 O 456.879 -1.45542 1.3921 0
M  V30 4690 C 453.944 -2.2642 2.62555 0
M  V30 4691 C 453.005 -1.95049 3.82432 0
M  V30 4692 C 452.238 -3.15991 4.30099 0
M  V30 4693 O 452.461 -4.28015 3.7704 0
M  V30 4694 O 451.395 -2.99403 5.22151 0
M  V30 4695 H 455.221 -0.557549 2.98538 0
M  V30 4696 H 452.806 -0.209413 1.47925 0
M  V30 4697 H 454.688 -3.01009 2.9491 0
M  V30 4698 H 453.363 -2.69306 1.796 0
M  V30 4699 H 452.27 -1.17904 3.55034 0
M  V30 4700 H 453.603 -1.56992 4.66491 0
M  V30 4701 N 455.255 -1.55392 -0.262866 0
M  V30 4702 C 456.501 -1.76737 -0.99458 0
M  V30 4703 C 456.834 -0.572453 -1.85571 0
M  V30 4704 O 456.109 0.429732 -1.89693 0
M  V30 4705 C 456.392 -3.07824 -1.8686 0
M  V30 4706 C 456.245 -4.3769 -1.03672 0
M  V30 4707 C 457.564 -3.35021 -2.85393 0
M  V30 4708 H 454.683 -0.643005 -0.360157 0
M  V30 4709 H 457.325 -1.88126 -0.266216 0
M  V30 4710 H 455.475 -2.98245 -2.48962 0
M  V30 4711 H 457.147 -4.59238 -0.43563 0
M  V30 4712 H 455.39 -4.32461 -0.340513 0
M  V30 4713 H 456.061 -5.25759 -1.6817 0
M  V30 4714 H 458.537 -3.44458 -2.33426 0
M  V30 4715 H 457.413 -4.27989 -3.43681 0
M  V30 4716 H 457.674 -2.55153 -3.61039 0
M  V30 4717 N 456.733 0.527833 -1.48498 0
M  V30 4718 C 457.958 1.313 -1.60546 0
M  V30 4719 C 458.383 1.86199 -0.26672 0
M  V30 4720 O 457.741 1.64513 0.761918 0
M  V30 4721 C 457.789 2.43818 -2.65678 0
M  V30 4722 O 456.893 3.46916 -2.22987 0
M  V30 4723 H 456.234 0.388784 -0.538277 0
M  V30 4724 H 458.764 0.634896 -1.945 0
M  V30 4725 H 458.774 2.89973 -2.87018 0
M  V30 4726 H 457.449 2.03222 -3.62869 0
M  V30 4727 H 456.026 3.06864 -2.11869 0
M  V30 4728 N 458.211 1.37122 0.776871 0
M  V30 4729 C 459.622 1.28667 1.35284 0
M  V30 4730 C 459.973 -0.0680035 1.96082 0
M  V30 4731 O 459.098 -0.969743 1.93455 0
M  V30 4732 C 459.693 2.32997 2.45963 0
M  V30 4733 C 458.252 2.28191 2.99342 0
M  V30 4734 C 457.399 2.17101 1.72517 0
M  V30 4735 H 460.35 1.47819 0.577527 0
M  V30 4736 H 460.371 1.97366 3.2531 0
M  V30 4737 H 459.883 3.3158 2.01684 0
M  V30 4738 H 457.984 1.33115 3.4801 0
M  V30 4739 H 458.097 3.21397 3.55304 0
M  V30 4740 H 456.461 1.63562 1.95242 0
M  V30 4741 H 457.244 3.17591 1.30348 0
M  V30 4742 N 459.689 -1.00246 1.21608 0
M  V30 4743 C 460.917 -1.77631 1.06089 0
M  V30 4744 C 461.332 -1.84746 -0.38916 0
M  V30 4745 O 460.689 -1.31068 -1.26994 0
M  V30 4746 C 460.74 -3.21415 1.65453 0
M  V30 4747 O 460.461 -3.14703 3.04785 0
M  V30 4748 C 461.962 -4.15289 1.55079 0
M  V30 4749 H 459.182 -0.558162 0.37242 0
M  V30 4750 H 461.726 -1.26093 1.60999 0
M  V30 4751 H 459.881 -3.70053 1.14629 0
M  V30 4752 H 460.295 -4.05056 3.33212 0
M  V30 4753 H 461.769 -5.13965 2.01355 0
M  V30 4754 H 462.246 -4.36279 0.505665 0
M  V30 4755 H 462.852 -3.72543 2.05163 0
M  V30 4756 N 461.167 -1.02423 -1.1978 0
M  V30 4757 C 462.392 -0.7373 -1.93852 0
M  V30 4758 C 462.817 0.696923 -1.74713 0
M  V30 4759 O 462.175 1.48056 -1.04638 0
M  V30 4760 C 462.223 -1.08783 -3.438 0
M  V30 4761 O 461.327 -0.20383 -4.11896 0
M  V30 4762 H 460.668 -0.27284 -0.605355 0
M  V30 4763 H 463.198 -1.36966 -1.51992 0
M  V30 4764 H 463.208 -1.04276 -3.9445 0
M  V30 4765 H 461.883 -2.13274 -3.57053 0
M  V30 4766 H 460.46 -0.307091 -3.71633 0
M  V30 4767 N 462.645 1.35699 -0.801477 0
M  V30 4768 C 463.577 2.28598 -0.166028 0
M  V30 4769 C 464.59 1.50044 0.631721 0
M  V30 4770 O 465.779 1.72339 0.464921 0
M  V30 4771 C 462.879 3.29625 0.787451 0
M  V30 4772 C 462.052 4.37384 0.037171 0
M  V30 4773 C 461.111 5.183 0.908375 0
M  V30 4774 O 460.137 5.68053 0.361189 0
M  V30 4775 N 461.339 5.35912 2.23112 0
M  V30 4776 H 464.104 2.83771 -0.964071 0
M  V30 4777 H 461.665 1.47994 -0.656469 0
M  V30 4778 H 463.657 3.80648 1.37439 0
M  V30 4779 H 462.227 2.75004 1.48632 0
M  V30 4780 H 461.447 3.87364 -0.730935 0
M  V30 4781 H 462.735 5.0653 -0.480109 0
M  V30 4782 H 462.133 4.97125 2.69968 0
M  V30 4783 H 460.69 5.90133 2.76741 0
M  V30 4784 N 464.123 0.554532 1.47522 0
M  V30 4785 C 465.07 -0.19466 2.29978 0
M  V30 4786 C 466.04 -0.910882 1.38896 0
M  V30 4787 O 467.225 -0.907102 1.67858 0
M  V30 4788 C 464.365 -1.22035 3.22802 0
M  V30 4789 C 463.478 -0.510474 4.28973 0
M  V30 4790 C 462.613 -1.52123 5.08952 0
M  V30 4791 C 461.652 -0.796173 6.069 0
M  V30 4792 N 460.789 -1.75363 6.79847 0
M  V30 4793 H 465.629 0.51461 2.93523 0
M  V30 4794 H 463.166 0.265607 1.44682 0
M  V30 4795 H 465.124 -1.8276 3.7504 0
M  V30 4796 H 463.754 -1.89769 2.61127 0
M  V30 4797 H 462.806 0.211234 3.79813 0
M  V30 4798 H 464.118 0.0576503 4.98767 0
M  V30 4799 H 463.272 -2.20207 5.65326 0
M  V30 4800 H 462.011 -2.12327 4.39054 0
M  V30 4801 H 461.016 -0.101388 5.49707 0
M  V30 4802 H 462.241 -0.199911 6.78806 0
M  V30 4803 H 460.187 -2.3443 6.12682 0
M  V30 4804 H 460.104 -1.23759 7.45801 0
M  V30 4805 H 461.372 -2.4257 7.40797 0
M  V30 4806 N 465.601 -1.54893 0.290851 0
M  V30 4807 C 466.829 -2.04343 -0.324288 0
M  V30 4808 C 467.244 -1.16859 -1.48289 0
M  V30 4809 O 466.601 -0.192018 -1.81487 0
M  V30 4810 C 466.652 -3.52756 -0.79026 0
M  V30 4811 O 466.373 -4.36913 0.322213 0
M  V30 4812 C 467.874 -4.18161 -1.4716 0
M  V30 4813 H 465.094 -0.667135 -0.0719173 0
M  V30 4814 H 467.638 -1.99981 0.427529 0
M  V30 4815 H 465.793 -3.57511 -1.49213 0
M  V30 4816 H 466.207 -5.24486 -0.0387372 0
M  V30 4817 H 467.681 -5.23562 -1.7489 0
M  V30 4818 H 468.158 -3.67282 -2.40834 0
M  V30 4819 H 468.764 -4.17454 -0.813178 0
M  V30 4820 N 467.08 -0.0183926 -1.57589 0
M  V30 4821 C 468.308 0.673046 -1.95647 0
M  V30 4822 C 468.723 1.66275 -0.894312 0
M  V30 4823 O 468.08 1.82072 0.124975 0
M  V30 4824 C 468.131 1.38884 -3.33756 0
M  V30 4825 O 467.852 0.438806 -4.35897 0
M  V30 4826 C 469.353 2.1731 -3.86383 0
M  V30 4827 H 466.573 0.186292 -0.644621 0
M  V30 4828 H 469.117 -0.0749748 -2.04363 0
M  V30 4829 H 467.272 2.08835 -3.26293 0
M  V30 4830 H 467.686 0.945869 -5.15901 0
M  V30 4831 H 469.16 2.62863 -4.85394 0
M  V30 4832 H 469.637 3.00764 -3.20059 0
M  V30 4833 H 470.243 1.52339 -3.97081 0
M  V30 4834 N 468.558 1.5553 0.254621 0
M  V30 4835 C 469.786 1.81046 1.00149 0
M  V30 4836 C 470.201 0.593047 1.79244 0
M  V30 4837 O 469.558 -0.438196 1.77161 0
M  V30 4838 C 469.609 3.04684 1.94551 0
M  V30 4839 O 469.33 4.21725 1.18658 0
M  V30 4840 C 470.831 3.42943 2.80901 0
M  V30 4841 H 468.051 0.602653 0.295044 0
M  V30 4842 H 470.595 2.02576 0.279842 0
M  V30 4843 H 468.75 2.85226 2.62154 0
M  V30 4844 H 469.164 4.91746 1.82445 0
M  V30 4845 H 470.638 4.32576 3.42902 0
M  V30 4846 H 471.115 2.63176 3.51617 0
M  V30 4847 H 471.721 3.64724 2.18762 0
M  V30 4848 N 470.036 -0.519951 1.48776 0
M  V30 4849 C 470.983 -1.62352 1.64044 0
M  V30 4850 C 471.953 -1.58945 0.482251 0
M  V30 4851 O 473.138 -1.77219 0.706971 0
M  V30 4852 C 470.278 -3.00579 1.69547 0
M  V30 4853 C 469.391 -3.14145 2.96541 0
M  V30 4854 C 468.526 -4.42991 2.93142 0
M  V30 4855 C 467.565 -4.50122 4.14797 0
M  V30 4856 N 466.702 -5.7037 4.09418 0
M  V30 4857 H 471.542 -1.48643 2.58281 0
M  V30 4858 H 469.079 -0.723516 1.28077 0
M  V30 4859 H 471.037 -3.80671 1.70719 0
M  V30 4860 H 469.667 -3.13036 0.787918 0
M  V30 4861 H 468.719 -2.27239 3.05068 0
M  V30 4862 H 470.031 -3.15275 3.86527 0
M  V30 4863 H 469.185 -5.31385 2.92772 0
M  V30 4864 H 467.924 -4.44398 2.00902 0
M  V30 4865 H 466.929 -3.60133 4.15433 0
M  V30 4866 H 468.154 -4.50445 5.08208 0
M  V30 4867 H 466.1 -5.72655 3.20004 0
M  V30 4868 H 466.017 -5.73036 4.93119 0
M  V30 4869 H 467.285 -6.61023 4.13121 0
M  V30 4870 N 471.514 -1.37532 -0.769588 0
M  V30 4871 C 472.742 -1.36059 -1.55871 0
M  V30 4872 C 473.157 0.053544 -1.88724 0
M  V30 4873 O 472.514 1.01591 -1.5161 0
M  V30 4874 C 472.565 -2.20107 -2.86767 0
M  V30 4875 O 472.286 -3.56009 -2.55321 0
M  V30 4876 C 473.787 -2.26636 -3.80987 0
M  V30 4877 H 471.007 -0.465967 -0.482821 0
M  V30 4878 H 473.551 -1.80901 -0.953686 0
M  V30 4879 H 471.706 -1.78768 -3.43687 0
M  V30 4880 H 472.12 -4.0009 -3.39158 0
M  V30 4881 H 473.594 -2.89763 -4.69831 0
M  V30 4882 H 474.071 -1.2754 -4.20274 0
M  V30 4883 H 474.677 -2.68296 -3.29996 0
M  V30 4884 N 472.992 0.995999 -1.22138 0
M  V30 4885 C 474.22 1.77066 -1.07029 0
M  V30 4886 C 474.635 1.8495 0.379357 0
M  V30 4887 O 473.992 1.3174 1.26297 0
M  V30 4888 C 474.043 3.20533 -1.67155 0
M  V30 4889 O 473.764 3.13082 -3.06449 0
M  V30 4890 C 475.265 4.14461 -1.5728 0
M  V30 4891 H 472.485 0.556179 -0.375374 0
M  V30 4892 H 475.029 1.25238 -1.61666 0
M  V30 4893 H 473.184 3.6944 -1.16589 0
M  V30 4894 H 473.598 4.03283 -3.35355 0
M  V30 4895 H 475.072 5.1289 -2.04078 0
M  V30 4896 H 475.549 4.36005 -0.528795 0
M  V30 4897 H 476.155 3.71449 -2.07136 0
M  V30 4898 N 474.47 1.03057 1.19235 0
M  V30 4899 C 475.698 0.747697 1.92917 0
M  V30 4900 C 476.113 -0.69372 1.75593 0
M  V30 4901 O 475.47 -1.47191 1.07894 0
M  V30 4902 C 475.521 1.09159 3.44625 0
M  V30 4903 O 475.242 2.47641 3.61394 0
M  V30 4904 C 476.743 0.831763 4.35427 0
M  V30 4905 H 473.963 0.273453 0.612751 0
M  V30 4906 H 476.507 1.37552 1.51327 0
M  V30 4907 H 474.662 0.508919 3.84043 0
M  V30 4908 H 475.076 2.60499 4.55237 0
M  V30 4909 H 476.55 1.12233 5.4047 0
M  V30 4910 H 477.027 -0.233769 4.38577 0
M  V30 4911 H 477.633 1.39725 4.01693 0
M  V30 4912 N 475.948 -1.35272 0.808662 0
M  V30 4913 C 477.359 -1.81179 0.450688 0
M  V30 4914 C 477.71 -1.67143 -1.02751 0
M  V30 4915 O 476.835 -1.20325 -1.79864 0
M  V30 4916 C 477.43 -3.28943 0.811275 0
M  V30 4917 C 475.989 -3.72985 0.505871 0
M  V30 4918 C 475.136 -2.57229 1.03578 0
M  V30 4919 H 478.087 -1.2322 1.00012 0
M  V30 4920 H 478.108 -3.80342 0.109588 0
M  V30 4921 H 477.62 -3.39127 1.88718 0
M  V30 4922 H 475.721 -3.68349 -0.561209 0
M  V30 4923 H 475.834 -4.67677 1.03995 0
M  V30 4924 H 474.198 -2.50548 0.458005 0
M  V30 4925 H 474.981 -2.7019 2.11784 0
M  V30 4926 N 477.426 -0.562348 -1.47226 0
M  V30 4927 C 478.374 0.195476 -2.31777 0
M  V30 4928 C 479.368 0.90433 -1.43242 0
M  V30 4929 O 480.574 0.825031 -1.59979 0
M  V30 4930 H 476.949 0.0819095 -0.747526 0
M  V30 4931 H 478.92 -0.536753 -2.93533 0
M  V30 4932 C 477.669 1.20902 -3.26003 0
M  V30 4933 H 476.992 0.672997 -3.94095 0
M  V30 4934 H 478.432 1.71006 -3.87986 0
M  V30 4935 C 476.891 2.25955 -2.49891 0
M  V30 4936 O 477.421 3.32969 -2.2471 0
M  V30 4937 N 475.627 2.00019 -2.1081 0
M  V30 4938 H 475.174 1.13006 -2.31489 0
M  V30 4939 H 475.132 2.70523 -1.60201 0
M  V30 4940 N 478.904 1.54736 -0.299062 0
M  V30 4941 C 479.867 2.22127 0.565012 0
M  V30 4942 C 480.867 1.20669 1.06281 0
M  V30 4943 O 482.057 1.45417 0.959145 0
M  V30 4944 C 479.189 2.90611 1.78208 0
M  V30 4945 H 480.382 2.99891 -0.0237448 0
M  V30 4946 H 477.935 1.5622 -0.0498788 0
M  V30 4947 H 478.67 2.16921 2.41072 0
M  V30 4948 H 478.455 3.64984 1.43281 0
M  V30 4949 H 479.945 3.42026 2.396 0
M  V30 4950 N 480.382 0.0267497 1.57577 0
M  V30 4951 C 481.314 -0.984594 2.06974 0
M  V30 4952 C 482.327 -1.29032 0.992705 0
M  V30 4953 O 483.516 -1.25539 1.26895 0
M  V30 4954 C 480.616 -2.31262 2.47732 0
M  V30 4955 C 479.789 -2.1924 3.78487 0
M  V30 4956 C 478.848 -3.34956 4.05821 0
M  V30 4957 O 477.874 -3.11948 4.76106 0
M  V30 4958 N 479.076 -4.58672 3.55809 0
M  V30 4959 H 481.841 -0.563143 2.94362 0
M  V30 4960 H 479.402 -0.160061 1.61107 0
M  V30 4961 H 481.394 -3.07496 2.63112 0
M  V30 4962 H 479.964 -2.65056 1.65723 0
M  V30 4963 H 479.184 -1.27747 3.72927 0
M  V30 4964 H 480.472 -2.08409 4.64158 0
M  V30 4965 H 479.87 -4.8026 2.98942 0
M  V30 4966 H 478.427 -5.32083 3.76472 0
M  V30 4967 N 481.861 -1.55662 -0.24637 0
M  V30 4968 C 482.824 -1.89558 -1.28842 0
M  V30 4969 C 483.824 -0.772082 -1.41052 0
M  V30 4970 O 485.014 -1.04007 -1.39743 0
M  V30 4971 C 482.146 -2.12449 -2.66605 0
M  V30 4972 H 483.339 -2.82735 -1.00004 0
M  V30 4973 H 480.892 -1.48562 -0.485684 0
M  V30 4974 H 481.627 -1.21742 -3.00582 0
M  V30 4975 H 481.412 -2.94273 -2.59125 0
M  V30 4976 H 482.902 -2.39854 -3.41847 0
M  V30 4977 N 483.339 0.512053 -1.4905 0
M  V30 4978 C 484.567 1.29116 -1.61669 0
M  V30 4979 C 484.982 1.86655 -0.283787 0
M  V30 4980 O 484.339 1.67293 0.729331 0
M  V30 4981 C 484.39 2.4293 -2.67707 0
M  V30 4982 O 484.111 1.87758 -3.95826 0
M  V30 4983 C 485.612 3.34476 -2.90931 0
M  V30 4984 H 482.832 0.392009 -0.544583 0
M  V30 4985 H 485.376 0.615881 -1.95006 0
M  V30 4986 H 483.531 3.06308 -2.37179 0
M  V30 4987 H 483.945 2.62393 -4.54148 0
M  V30 4988 H 485.419 4.10642 -3.68886 0
M  V30 4989 H 485.896 3.90801 -2.00427 0
M  V30 4990 H 486.502 2.76874 -3.22832 0
M  V30 4991 N 484.817 1.37938 0.762283 0
M  V30 4992 C 486.233 1.18945 1.06415 0
M  V30 4993 C 486.433 0.0321163 2.01474 0
M  V30 4994 O 485.489 -0.624844 2.44647 0
M  V30 4995 C 486.802 2.51218 1.65258 0
M  V30 4996 C 488.35 2.57824 1.7747 0
M  V30 4997 C 488.825 3.90251 2.39725 0
M  V30 4998 N 490.316 3.91744 2.47166 0
M  V30 4999 C 491.051 4.90966 2.96209 0
M  V30 5000 N 490.547 6.00585 3.45354 0
M  V30 5001 N 492.34 4.78363 2.9517 0
M  V30 5002 H 484.491 2.11994 0.131301 0
M  V30 5003 H 486.754 0.940262 0.120879 0
M  V30 5004 H 486.46 3.36317 1.02878 0
M  V30 5005 H 486.334 2.68989 2.64433 0
M  V30 5006 H 488.721 1.73126 2.3898 0
M  V30 5007 H 488.802 2.43928 0.770241 0
M  V30 5008 H 488.446 4.75368 1.78852 0
M  V30 5009 H 488.376 4.01454 3.40796 0
M  V30 5010 H 490.867 3.12563 2.12397 0
M  V30 5011 H 491.18 6.72236 3.81207 0
M  V30 5012 H 489.525 6.04217 3.43434 0
M  V30 5013 H 492.716 3.91841 2.56082 0
M  V30 5014 H 492.889 5.55843 3.33081 0
M  V30 5015 N 486.295 -0.989507 1.22664 0
M  V30 5016 C 487.52 -1.77031 1.08051 0
M  V30 5017 C 487.945 -1.84535 -0.364483 0
M  V30 5018 O 487.303 -1.3003 -1.2634 0
M  V30 5019 C 487.351 -3.18 1.70024 0
M  V30 5020 O 486.455 -4.01161 0.956216 0
M  V30 5021 H 485.796 -0.545008 0.379292 0
M  V30 5022 H 488.326 -1.24277 1.62531 0
M  V30 5023 H 488.336 -3.68616 1.74888 0
M  V30 5024 H 487.011 -3.11853 2.75174 0
M  V30 5025 H 485.588 -3.59687 0.98384 0
M  V30 5026 N 487.773 -1.03688 -1.18687 0
M  V30 5027 C 489.001 -0.757918 -1.92518 0
M  V30 5028 C 489.416 0.684398 -1.75959 0
M  V30 5029 O 488.773 1.46617 -1.08673 0
M  V30 5030 C 488.824 -1.10985 -3.44042 0
M  V30 5031 O 488.545 -2.49554 -3.60076 0
M  V30 5032 C 490.046 -0.854844 -4.3498 0
M  V30 5033 H 487.266 -0.276699 -0.611293 0
M  V30 5034 H 489.81 -1.38352 -1.50595 0
M  V30 5035 H 487.965 -0.529279 -3.83767 0
M  V30 5036 H 488.379 -2.6291 -4.53849 0
M  V30 5037 H 489.853 -1.15098 -5.39867 0
M  V30 5038 H 490.33 0.210507 -4.38695 0
M  V30 5039 H 490.936 -1.41853 -4.00946 0
M  V30 5040 N 489.251 1.34841 -0.815825 0
M  V30 5041 C 490.662 1.80937 -0.46029 0
M  V30 5042 C 491.013 1.67685 1.01863 0
M  V30 5043 O 490.138 1.21277 1.79223 0
M  V30 5044 C 490.733 3.28509 -0.828708 0
M  V30 5045 C 489.292 3.72712 -0.525644 0
M  V30 5046 C 488.439 2.56676 -1.04941 0
M  V30 5047 H 491.39 1.22688 -1.00664 0
M  V30 5048 H 491.411 3.80279 -0.129757 0
M  V30 5049 H 490.923 3.38122 -1.90513 0
M  V30 5050 H 489.024 3.68642 0.541666 0
M  V30 5051 H 489.137 4.67119 -1.06474 0
M  V30 5052 H 487.501 2.50302 -0.471286 0
M  V30 5053 H 488.284 2.69063 -2.13214 0
M  V30 5054 N 490.729 0.570148 1.46925 0
M  V30 5055 C 491.975 0.0510284 2.02736 0
M  V30 5056 C 492.308 -1.3006 1.44215 0
M  V30 5057 O 491.583 -1.84932 0.602521 0
M  V30 5058 C 491.866 -0.028215 3.60089 0
M  V30 5059 C 491.719 1.35142 4.29018 0
M  V30 5060 C 493.038 -0.735181 4.33916 0
M  V30 5061 H 490.157 0.0200178 0.736728 0
M  V30 5062 H 492.799 0.73493 1.75211 0
M  V30 5063 H 490.949 -0.610648 3.83671 0
M  V30 5064 H 492.621 1.97806 4.16738 0
M  V30 5065 H 490.864 1.9226 3.88868 0
M  V30 5066 H 491.535 1.24857 5.37694 0
M  V30 5067 H 494.011 -0.240519 4.15404 0
M  V30 5068 H 492.887 -0.759622 5.43618 0
M  V30 5069 H 493.148 -1.79397 4.04066 0
M  V30 5070 N 492.207 -1.54576 0.307264 0
M  V30 5071 C 493.432 -2.05139 -0.305379 0
M  V30 5072 C 493.857 -1.18278 -1.46259 0
M  V30 5073 O 493.215 -0.188243 -1.8032 0
M  V30 5074 C 493.263 -3.53066 -0.733283 0
M  V30 5075 O 492.367 -3.69206 -1.83741 0
M  V30 5076 H 491.708 -0.661444 -0.0582105 0
M  V30 5077 H 494.238 -1.99569 0.450931 0
M  V30 5078 H 494.248 -3.95034 -1.02039 0
M  V30 5079 H 492.923 -4.15746 0.113198 0
M  V30 5080 H 491.5 -3.39143 -1.55037 0
M  V30 5081 N 493.685 -0.035106 -1.57561 0
M  V30 5082 C 495.101 0.321334 -1.56332 0
M  V30 5083 C 495.301 1.72509 -1.04129 0
M  V30 5084 O 494.357 2.4287 -0.690694 0
M  V30 5085 C 495.67 0.164469 -3.0025 0
M  V30 5086 C 497.218 0.236786 -3.12103 0
M  V30 5087 C 497.693 0.10864 -4.57871 0
M  V30 5088 N 499.184 0.165433 -4.62904 0
M  V30 5089 C 499.919 0.0901506 -5.73329 0
M  V30 5090 N 499.415 -0.0365606 -6.9279 0
M  V30 5091 N 501.208 0.144572 -5.61914 0
M  V30 5092 H 493.359 -0.952976 -1.89821 0
M  V30 5093 H 495.622 -0.368537 -0.873432 0
M  V30 5094 H 495.328 -0.802746 -3.42416 0
M  V30 5095 H 495.202 0.932194 -3.655 0
M  V30 5096 H 497.589 1.19446 -2.69845 0
M  V30 5097 H 497.67 -0.561419 -2.49563 0
M  V30 5098 H 497.314 -0.845644 -5.00811 0
M  V30 5099 H 497.244 0.925786 -5.18398 0
M  V30 5100 H 499.735 0.263269 -3.76982 0
M  V30 5101 H 500.048 -0.0871487 -7.72751 0
M  V30 5102 H 498.393 -0.0714256 -6.94963 0
M  V30 5103 H 501.584 0.242006 -4.67474 0
M  V30 5104 H 501.757 0.0824413 -6.47948 0
M  V30 5105 N 495.163 1.55791 0.238111 0
M  V30 5106 C 496.391 1.82098 0.982233 0
M  V30 5107 C 496.806 0.612025 1.78605 0
M  V30 5108 O 496.163 -0.419381 1.77616 0
M  V30 5109 C 496.214 3.0673 1.91309 0
M  V30 5110 O 495.935 4.2296 1.14179 0
M  V30 5111 C 497.436 3.45903 2.77248 0
M  V30 5112 H 494.656 0.605748 0.288635 0
M  V30 5113 H 497.2 2.02862 0.258341 0
M  V30 5114 H 495.355 2.87991 2.59114 0
M  V30 5115 H 495.769 4.93653 1.7722 0
M  V30 5116 H 497.243 4.36189 3.38295 0
M  V30 5117 H 497.72 2.66891 3.48806 0
M  V30 5118 H 498.326 3.67024 2.14881 0
M  V30 5119 N 496.642 -0.504142 1.49319 0
M  V30 5120 C 497.87 -1.28256 1.62351 0
M  V30 5121 C 498.285 -1.86502 0.293682 0
M  V30 5122 O 497.642 -1.67678 -0.720449 0
M  V30 5123 C 497.693 -2.41507 2.68992 0
M  V30 5124 O 497.414 -1.85656 3.96817 0
M  V30 5125 C 498.915 -3.32929 2.927 0
M  V30 5126 H 496.135 -0.389115 0.546654 0
M  V30 5127 H 498.679 -0.605531 1.95329 0
M  V30 5128 H 496.834 -3.05046 2.38801 0
M  V30 5129 H 497.248 -2.59981 4.55533 0
M  V30 5130 H 498.722 -4.0868 3.71058 0
M  V30 5131 H 499.199 -3.89733 2.02496 0
M  V30 5132 H 499.805 -2.75158 3.24296 0
M  V30 5133 N 498.12 -1.38341 -0.754957 0
M  V30 5134 C 499.067 -1.3546 -1.86867 0
M  V30 5135 C 500.037 -0.217369 -1.64672 0
M  V30 5136 O 501.222 -0.409383 -1.86356 0
M  V30 5137 C 498.362 -1.18413 -3.24149 0
M  V30 5138 C 497.475 -2.41511 -3.58185 0
M  V30 5139 C 496.61 -2.17205 -4.84763 0
M  V30 5140 C 495.649 -3.36081 -5.11582 0
M  V30 5141 N 494.786 -3.11219 -6.29354 0
M  V30 5142 H 499.626 -2.30672 -1.88664 0
M  V30 5143 H 497.163 -1.14607 -0.922154 0
M  V30 5144 H 499.121 -1.06545 -4.03366 0
M  V30 5145 H 497.751 -0.268397 -3.21682 0
M  V30 5146 H 496.803 -2.64056 -2.73822 0
M  V30 5147 H 498.115 -3.30115 -3.73932 0
M  V30 5148 H 497.269 -2.02465 -5.7192 0
M  V30 5149 H 496.008 -1.25964 -4.71152 0
M  V30 5150 H 495.013 -3.51341 -4.22894 0
M  V30 5151 H 496.238 -4.28196 -5.27091 0
M  V30 5152 H 494.184 -2.22624 -6.17069 0
M  V30 5153 H 494.101 -3.93373 -6.45596 0
M  V30 5154 H 495.369 -3.00132 -7.19403 0
M  V30 5155 N 499.598 0.982988 -1.23187 0
M  V30 5156 C 500.548 2.05962 -0.977942 0
M  V30 5157 C 501.532 1.60725 0.0751148 0
M  V30 5158 O 502.724 1.76471 -0.136683 0
M  V30 5159 C 499.853 3.38564 -0.568276 0
M  V30 5160 C 498.939 3.90407 -1.6566 0
M  V30 5161 N 499.33 4.15359 -2.88635 0
M  V30 5162 C 497.628 4.18915 -1.53058 0
M  V30 5163 C 498.329 4.57642 -3.5908 0
M  V30 5164 N 497.305 4.6192 -2.86584 0
M  V30 5165 H 501.107 2.23208 -1.91195 0
M  V30 5166 H 498.621 1.16555 -1.13087 0
M  V30 5167 H 500.618 4.15276 -0.36764 0
M  V30 5168 H 499.278 3.22712 0.358713 0
M  V30 5169 H 500.289 4.03258 -3.24966 0
M  V30 5170 H 496.966 4.12081 -0.670506 0
M  V30 5171 H 498.356 4.85488 -4.6449 0
M  V30 5172 N 501.076 1.04316 1.18135 0
M  V30 5173 C 502.323 0.74802 1.88178 0
M  V30 5174 C 502.651 -0.72441 1.80506 0
M  V30 5175 O 501.906 -1.54463 1.20165 0
M  V30 5176 C 502.205 1.16271 3.37958 0
M  V30 5177 C 501.871 2.63585 3.65833 0
M  V30 5178 C 500.533 3.03829 3.73151 0
M  V30 5179 C 502.885 3.58822 3.78016 0
M  V30 5180 C 500.213 4.38194 3.90132 0
M  V30 5181 C 502.565 4.92909 3.96514 0
M  V30 5182 C 501.229 5.3282 4.02068 0
M  V30 5183 H 500.499 0.27372 0.688592 0
M  V30 5184 H 503.146 1.30863 1.39811 0
M  V30 5185 H 501.451 0.520938 3.88321 0
M  V30 5186 H 503.148 0.911672 3.90499 0
M  V30 5187 H 499.738 2.31414 3.60757 0
M  V30 5188 H 503.922 3.28875 3.71692 0
M  V30 5189 H 499.178 4.68631 3.92677 0
M  V30 5190 H 503.352 5.66606 4.04883 0
M  V30 5191 H 500.979 6.36943 4.14979 0
M  V30 5192 N 502.554 -1.34406 0.822964 0
M  V30 5193 C 503.504 -2.26963 0.217208 0
M  V30 5194 C 504.488 -1.48536 -0.618545 0
M  V30 5195 O 505.68 -1.7056 -0.473118 0
M  V30 5196 C 502.809 -3.37655 -0.619973 0
M  V30 5197 C 501.895 -4.23495 0.226411 0
M  V30 5198 N 502.286 -4.88876 1.29744 0
M  V30 5199 C 500.584 -4.45999 0.0107554 0
M  V30 5200 C 501.285 -5.52642 1.81553 0
M  V30 5201 N 500.261 -5.31949 1.11942 0
M  V30 5202 H 504.063 -2.75017 1.03647 0
M  V30 5203 H 501.577 -1.48126 0.665777 0
M  V30 5204 H 503.574 -4.02932 -1.07011 0
M  V30 5205 H 502.234 -2.91151 -1.43739 0
M  V30 5206 H 503.245 -4.89886 1.68024 0
M  V30 5207 H 499.922 -4.10253 -0.774495 0
M  V30 5208 H 501.312 -6.14755 2.71156 0
M  V30 5209 N 504.032 -0.577932 -1.46621 0
M  V30 5210 C 504.942 0.160651 -2.34049 0
M  V30 5211 C 505.958 0.890911 -1.49462 0
M  V30 5212 O 507.134 0.855166 -1.82343 0
M  V30 5213 C 504.199 1.16447 -3.26559 0
M  V30 5214 C 503.26 0.4394 -4.27045 0
M  V30 5215 C 502.493 1.3954 -5.15135 0
M  V30 5216 O 502.716 2.63162 -5.06065 0
M  V30 5217 O 501.65 0.908585 -5.95003 0
M  V30 5218 H 505.476 -0.557057 -2.98547 0
M  V30 5219 H 503.061 -0.338369 -1.45518 0
M  V30 5220 H 504.943 1.7434 -3.83645 0
M  V30 5221 H 503.618 1.86373 -2.64663 0
M  V30 5222 H 502.525 -0.181247 -3.73661 0
M  V30 5223 H 503.858 -0.218799 -4.91713 0
M  V30 5224 N 505.51 1.54411 -0.315457 0
M  V30 5225 C 506.738 2.04833 0.291738 0
M  V30 5226 C 507.153 1.19203 1.46411 0
M  V30 5227 O 506.51 0.220867 1.81159 0
M  V30 5228 C 506.561 3.53969 0.73404 0
M  V30 5229 O 506.282 4.36346 -0.391682 0
M  V30 5230 C 507.783 4.2045 1.40489 0
M  V30 5231 H 505.003 0.668195 0.0612947 0
M  V30 5232 H 507.547 1.99276 -0.45929 0
M  V30 5233 H 505.702 3.5984 1.43506 0
M  V30 5234 H 506.116 5.24481 -0.0447088 0
M  V30 5235 H 507.59 5.26278 1.66539 0
M  V30 5236 H 508.067 3.71067 2.3496 0
M  V30 5237 H 508.673 4.18694 0.746662 0
M  V30 5238 N 506.988 0.0434614 1.5754 0
M  V30 5239 C 508.216 -0.641835 1.96693 0
M  V30 5240 C 508.631 -1.64832 0.920652 0
M  V30 5241 O 507.988 -1.82247 -0.095993 0
M  V30 5242 C 508.039 -1.33557 3.35924 0
M  V30 5243 O 507.76 -0.369403 4.3654 0
M  V30 5244 C 509.261 -2.11135 3.89791 0
M  V30 5245 H 506.481 -0.176013 0.647503 0
M  V30 5246 H 509.025 0.107478 2.04217 0
M  V30 5247 H 507.18 -2.03617 3.29574 0
M  V30 5248 H 507.594 -0.863674 5.1734 0
M  V30 5249 H 509.068 -2.55107 4.89514 0
M  V30 5250 H 509.545 -2.95634 3.24803 0
M  V30 5251 H 510.151 -1.46002 3.99454 0
M  V30 5252 N 508.466 -1.55915 -0.229846 0
M  V30 5253 C 509.877 -1.68809 -0.797531 0
M  V30 5254 C 510.228 -0.643995 -1.8533 0
M  V30 5255 O 509.353 0.206492 -2.15413 0
M  V30 5256 C 509.948 -3.06043 -1.45338 0
M  V30 5257 C 508.507 -3.20819 -1.96856 0
M  V30 5258 C 507.654 -2.6472 -0.825736 0
M  V30 5259 H 510.605 -1.58699 -0.00533733 0
M  V30 5260 H 510.626 -3.01438 -2.32196 0
M  V30 5261 H 510.138 -3.82012 -0.684743 0
M  V30 5262 H 508.239 -2.49704 -2.76548 0
M  V30 5263 H 508.352 -4.27937 -2.15423 0
M  V30 5264 H 506.716 -2.22985 -1.23084 0
M  V30 5265 H 507.499 -3.43229 -0.0699019 0
M  V30 5266 N 509.944 0.496216 -1.49584 0
M  V30 5267 C 510.892 1.61805 -1.67098 0
M  V30 5268 C 511.886 1.60667 -0.536877 0
M  V30 5269 O 513.092 1.65118 -0.716654 0
M  V30 5270 H 509.467 0.53646 -0.526986 0
M  V30 5271 H 511.438 1.44187 -2.61252 0
M  V30 5272 C 510.187 2.99912 -1.75921 0
M  V30 5273 H 509.51 3.01496 -2.62565 0
M  V30 5274 H 510.95 3.77931 -1.92209 0
M  V30 5275 C 509.409 3.33092 -0.505088 0
M  V30 5276 O 509.939 4.00019 0.367085 0
M  V30 5277 N 508.145 2.88278 -0.366599 0
M  V30 5278 H 507.692 2.33989 -1.07735 0
M  V30 5279 H 507.65 3.10846 0.47142 0
M  V30 5280 N 511.423 1.38739 0.74761 0
M  V30 5281 C 512.37 1.36449 1.86146 0
M  V30 5282 C 513.34 0.226098 1.64554 0
M  V30 5283 O 514.525 0.41926 1.86137 0
M  V30 5284 C 511.665 1.2013 3.23516 0
M  V30 5285 C 510.778 2.43407 3.56899 0
M  V30 5286 C 509.913 2.19773 4.83605 0
M  V30 5287 C 508.952 3.3879 5.09792 0
M  V30 5288 N 508.089 3.14553 6.27695 0
M  V30 5289 H 512.929 2.3167 1.87438 0
M  V30 5290 H 510.466 1.15094 0.916063 0
M  V30 5291 H 512.424 1.08683 4.02795 0
M  V30 5292 H 511.054 0.285453 3.21535 0
M  V30 5293 H 510.106 2.65504 2.72418 0
M  V30 5294 H 511.418 3.32094 3.72176 0
M  V30 5295 H 510.572 2.05496 5.70838 0
M  V30 5296 H 509.311 1.28461 4.70478 0
M  V30 5297 H 508.316 3.53579 4.21025 0
M  V30 5298 H 509.541 4.30986 5.24812 0
M  V30 5299 H 507.487 2.25893 6.1588 0
M  V30 5300 H 507.404 3.96791 6.435 0
M  V30 5301 H 508.672 3.03943 7.17801 0
M  V30 5302 N 512.901 -0.976442 1.23707 0
M  V30 5303 C 514.149 -1.71487 1.06942 0
M  V30 5304 C 514.47 -1.9098 -0.393897 0
M  V30 5305 O 513.74 -1.48128 -1.28198 0
M  V30 5306 H 512.32 -0.635425 0.392739 0
M  V30 5307 H 514.982 -1.17515 1.55487 0
M  V30 5308 H 514.078 -2.70286 1.56051 0
M  V30 5309 N 514.379 -1.04941 -1.1758 0
M  V30 5310 C 515.604 -0.778253 -1.92245 0
M  V30 5311 C 516.029 0.659707 -1.76152 0
M  V30 5312 O 515.387 1.45803 -1.07755 0
M  V30 5313 C 515.435 -1.16051 -3.41416 0
M  V30 5314 O 514.539 -0.291153 -4.11371 0
M  V30 5315 H 513.88 -0.285619 -0.599431 0
M  V30 5316 H 516.41 -1.40159 -1.49052 0
M  V30 5317 H 516.42 -1.12619 -3.92149 0
M  V30 5318 H 515.095 -2.208 -3.52449 0
M  V30 5319 H 513.672 -0.385851 -3.70898 0
M  V30 5320 N 515.857 1.33968 -0.830081 0
M  V30 5321 C 517.105 1.97672 -0.420734 0
M  V30 5322 C 517.426 1.66111 1.02138 0
M  V30 5323 O 516.696 0.955503 1.71017 0
M  V30 5324 H 515.276 0.73125 -0.152587 0
M  V30 5325 H 517.938 1.63483 -1.0611 0
M  V30 5326 H 517.034 3.07294 -0.545588 0
M  V30 5327 N 517.335 0.585699 1.46312 0
M  V30 5328 C 518.563 0.0781299 2.06752 0
M  V30 5329 C 518.978 -1.22812 1.43396 0
M  V30 5330 O 518.335 -1.74318 0.540314 0
M  V30 5331 C 518.386 -0.0911927 3.61385 0
M  V30 5332 O 518.107 1.16336 4.22371 0
M  V30 5333 C 519.608 -0.632765 4.38761 0
M  V30 5334 H 516.828 0.0588188 0.668417 0
M  V30 5335 H 519.372 0.807218 1.87894 0
M  V30 5336 H 517.527 -0.770514 3.7966 0
M  V30 5337 H 517.941 0.979082 5.15281 0
M  V30 5338 H 519.415 -0.70041 5.47538 0
M  V30 5339 H 519.892 -1.65039 4.07012 0
M  V30 5340 H 520.498 0.0117856 4.25298 0
M  V30 5341 N 518.813 -1.54241 0.323641 0
M  V30 5342 C 520.041 -2.04985 -0.280871 0
M  V30 5343 C 520.456 -1.19978 -1.45777 0
M  V30 5344 O 519.813 -0.230471 -1.81039 0
M  V30 5345 C 519.864 -3.54353 -0.715258 0
M  V30 5346 O 519.585 -4.36132 0.414817 0
M  V30 5347 C 521.086 -4.21189 -1.38257 0
M  V30 5348 H 518.306 -0.66851 -0.0577502 0
M  V30 5349 H 520.85 -1.99029 0.469852 0
M  V30 5350 H 519.005 -3.60596 -1.41596 0
M  V30 5351 H 519.419 -5.2445 0.0725227 0
M  V30 5352 H 520.893 -5.27154 -1.63745 0
M  V30 5353 H 521.37 -3.72307 -2.32989 0
M  V30 5354 H 521.976 -4.19085 -0.724447 0
M  V30 5355 N 520.291 -0.0518155 -1.57515 0
M  V30 5356 C 521.516 0.634896 -1.97443 0
M  V30 5357 C 521.941 1.63546 -0.929207 0
M  V30 5358 O 521.299 1.80981 0.107484 0
M  V30 5359 C 521.347 1.29765 -3.36442 0
M  V30 5360 O 520.451 2.41333 -3.34413 0
M  V30 5361 H 519.792 0.164994 -0.643174 0
M  V30 5362 H 522.322 -0.120407 -2.04245 0
M  V30 5363 H 522.332 1.64918 -3.73184 0
M  V30 5364 H 521.007 0.564361 -4.12053 0
M  V30 5365 H 519.584 2.08122 -3.09418 0
M  V30 5366 N 521.769 1.56035 0.221574 0
M  V30 5367 C 523.017 1.78693 0.944102 0
M  V30 5368 C 523.338 0.620317 1.8487 0
M  V30 5369 O 522.608 -0.362784 1.92512 0
M  V30 5370 H 521.188 0.659082 0.351597 0
M  V30 5371 H 523.85 1.93497 0.233435 0
M  V30 5372 H 522.946 2.70837 1.55093 0
M  V30 5373 N 523.247 -0.488276 1.49845 0
M  V30 5374 C 524.475 -1.26527 1.63702 0
M  V30 5375 C 524.89 -1.8618 0.313447 0
M  V30 5376 O 524.247 -1.68432 -0.702624 0
M  V30 5377 C 524.298 -2.3864 2.71538 0
M  V30 5378 O 524.019 -1.81437 3.98763 0
M  V30 5379 C 525.52 -3.29805 2.96215 0
M  V30 5380 H 522.74 -0.383295 0.55075 0
M  V30 5381 H 525.284 -0.584779 1.95961 0
M  V30 5382 H 523.439 -3.02496 2.42023 0
M  V30 5383 H 523.853 -2.55135 4.58265 0
M  V30 5384 H 525.327 -4.04722 3.75372 0
M  V30 5385 H 525.804 -3.87563 2.06619 0
M  V30 5386 H 526.41 -2.71703 3.27196 0
M  V30 5387 N 524.725 -1.39134 -0.740242 0
M  V30 5388 C 525.953 -1.39334 -1.5295 0
M  V30 5389 C 526.368 0.0135008 -1.88795 0
M  V30 5390 O 525.725 0.983524 -1.5373 0
M  V30 5391 C 525.776 -2.2614 -2.82034 0
M  V30 5392 O 525.497 -3.61345 -2.47712 0
M  V30 5393 C 526.998 -2.34666 -3.76094 0
M  V30 5394 H 524.218 -0.476103 -0.472828 0
M  V30 5395 H 526.762 -1.82883 -0.9151 0
M  V30 5396 H 524.917 -1.86018 -3.39818 0
M  V30 5397 H 525.331 -4.07194 -3.30595 0
M  V30 5398 H 526.805 -2.99663 -4.63579 0
M  V30 5399 H 527.282 -1.36426 -4.17474 0
M  V30 5400 H 527.888 -2.75236 -3.2423 0
M  V30 5401 N 526.204 0.969867 -1.24223 0
M  V30 5402 C 527.62 1.23809 -1.00716 0
M  V30 5403 C 527.82 1.99469 0.285358 0
M  V30 5404 O 526.876 2.31764 1.00207 0
M  V30 5405 C 528.189 2.02734 -2.2208 0
M  V30 5406 C 529.737 2.15834 -2.26681 0
M  V30 5407 C 530.212 2.98154 -3.47661 0
M  V30 5408 N 531.703 3.05737 -3.47964 0
M  V30 5409 C 532.438 3.69785 -4.38231 0
M  V30 5410 N 531.934 4.35569 -5.3875 0
M  V30 5411 N 533.727 3.66775 -4.25949 0
M  V30 5412 H 525.878 0.463294 -2.07286 0
M  V30 5413 H 528.141 0.267348 -0.909521 0
M  V30 5414 H 527.847 1.54524 -3.15935 0
M  V30 5415 H 527.721 3.0347 -2.24021 0
M  V30 5416 H 530.108 2.63248 -1.33359 0
M  V30 5417 H 530.189 1.14453 -2.28767 0
M  V30 5418 H 529.833 2.51435 -4.41297 0
M  V30 5419 H 529.763 3.99729 -3.42818 0
M  V30 5420 H 532.254 2.58941 -2.75242 0
M  V30 5421 H 532.567 4.82251 -6.03866 0
M  V30 5422 H 530.912 4.34244 -5.42639 0
M  V30 5423 H 534.103 3.14558 -3.46657 0
M  V30 5424 H 534.276 4.16407 -4.96497 0
M  V30 5425 N 527.682 1.05563 1.17022 0
M  V30 5426 C 528.612 0.681026 2.23348 0
M  V30 5427 C 529.593 -0.322983 1.67005 0
M  V30 5428 O 530.778 -0.199746 1.9317 0
M  V30 5429 C 527.908 0.0589053 3.4725 0
M  V30 5430 C 526.862 0.988082 4.16438 0
M  V30 5431 C 526.188 0.229646 5.34207 0
M  V30 5432 C 527.488 2.31388 4.68249 0
M  V30 5433 H 529.182 1.56993 2.54938 0
M  V30 5434 H 526.728 0.756302 1.2254 0
M  V30 5435 H 528.681 -0.214982 4.20851 0
M  V30 5436 H 527.405 -0.864968 3.14938 0
M  V30 5437 H 526.064 1.24659 3.44754 0
M  V30 5438 H 525.712 -0.697111 4.98146 0
M  V30 5439 H 525.412 0.848815 5.81437 0
M  V30 5440 H 526.936 -0.0368694 6.10589 0
M  V30 5441 H 528.35 2.09964 5.33468 0
M  V30 5442 H 526.747 2.88736 5.26072 0
M  V30 5443 H 527.817 2.94982 3.84855 0
M  V30 5444 N 529.16 -1.33526 0.837174 0
M  V30 5445 C 530.09 -2.31764 0.284206 0
M  V30 5446 C 531.071 -1.58896 -0.607142 0
M  V30 5447 O 532.256 -1.86798 -0.531047 0
M  V30 5448 C 529.386 -3.43029 -0.542962 0
M  V30 5449 C 528.34 -4.27255 0.252451 0
M  V30 5450 C 527.666 -5.3012 -0.69836 0
M  V30 5451 C 528.966 -5.01229 1.46858 0
M  V30 5452 H 530.66 -2.78262 1.10502 0
M  V30 5453 H 528.206 -1.3378 0.532812 0
M  V30 5454 H 530.159 -4.1078 -0.940096 0
M  V30 5455 H 528.883 -2.95216 -1.39697 0
M  V30 5456 H 527.542 -3.61127 0.631124 0
M  V30 5457 H 527.19 -4.78564 -1.54872 0
M  V30 5458 H 526.89 -5.87353 -0.170274 0
M  V30 5459 H 528.414 -6.00737 -1.09305 0
M  V30 5460 H 529.828 -5.61756 1.14469 0
M  V30 5461 H 528.225 -5.68104 1.93333 0
M  V30 5462 H 529.295 -4.301 2.23924 0
M  V30 5463 N 530.638 -0.59345 -1.46 0
M  V30 5464 C 531.863 -0.0872365 -2.07216 0
M  V30 5465 C 532.288 1.2131 -1.43755 0
M  V30 5466 O 531.646 1.73528 -0.525152 0
M  V30 5467 C 531.694 0.0538197 -3.6056 0
M  V30 5468 O 530.798 1.10765 -3.97247 0
M  V30 5469 H 530.139 -0.0676598 -0.660544 0
M  V30 5470 H 532.669 -0.819445 -1.87473 0
M  V30 5471 H 532.679 0.256567 -4.07193 0
M  V30 5472 H 531.354 -0.895739 -4.0614 0
M  V30 5473 H 529.931 0.882501 -3.62307 0
M  V30 5474 N 532.116 1.54067 -0.331816 0
M  V30 5475 C 533.364 2.00319 0.267739 0
M  V30 5476 C 533.685 1.22148 1.52003 0
M  V30 5477 O 532.955 0.325494 1.93177 0
M  V30 5478 H 531.535 0.740014 0.101922 0
M  V30 5479 H 534.197 1.89628 -0.450267 0
M  V30 5480 H 533.293 3.07765 0.518385 0
M  V30 5481 N 533.594 0.0601682 1.57485 0
M  V30 5482 C 534.544 -0.920969 2.08572 0
M  V30 5483 C 535.528 -1.26617 0.992827 0
M  V30 5484 O 536.72 -1.24708 1.25606 0
M  V30 5485 C 533.849 -2.19267 2.64153 0
M  V30 5486 C 532.935 -1.87447 3.80427 0
M  V30 5487 N 533.326 -1.26025 4.89848 0
M  V30 5488 C 531.624 -2.17265 3.89502 0
M  V30 5489 C 532.325 -1.12036 5.70809 0
M  V30 5490 N 531.301 -1.62624 5.18705 0
M  V30 5491 H 535.103 -0.441561 2.90564 0
M  V30 5492 H 532.617 -0.144043 1.6176 0
M  V30 5493 H 534.614 -2.90462 2.99061 0
M  V30 5494 H 533.274 -2.67806 1.83603 0
M  V30 5495 H 534.285 -0.931336 5.09457 0
M  V30 5496 H 530.962 -2.68262 3.19909 0
M  V30 5497 H 532.352 -0.642783 6.68818 0
M  V30 5498 N 535.072 -1.5615 -0.213296 0
M  V30 5499 C 536.3 -1.83638 -0.953139 0
M  V30 5500 C 536.715 -0.640362 -1.77609 0
M  V30 5501 O 536.072 0.391071 -1.78261 0
M  V30 5502 C 536.123 -3.09735 -1.86405 0
M  V30 5503 O 535.844 -4.24723 -1.07435 0
M  V30 5504 C 537.345 -3.5027 -2.71709 0
M  V30 5505 H 534.565 -0.610263 -0.278962 0
M  V30 5506 H 537.109 -2.03247 -0.226035 0
M  V30 5507 H 535.264 -2.92077 -2.545 0
M  V30 5508 H 535.678 -4.9641 -1.69343 0
M  V30 5509 H 537.152 -4.41515 -3.31313 0
M  V30 5510 H 537.629 -2.72406 -3.44516 0
M  V30 5511 H 538.235 -3.70396 -2.09015 0
M  V30 5512 N 536.55 0.480323 -1.50102 0
M  V30 5513 C 537.79 1.24301 -1.62261 0
M  V30 5514 C 538.154 1.89452 -0.311758 0
M  V30 5515 O 539.355 2.67022 -0.308696 0
M  V30 5516 C 537.626 2.26588 -2.76392 0
M  V30 5517 S 539.185 3.11919 -3.08629 0
M  V30 5518 H 536.003 0.42215 -0.57211 0
M  V30 5519 H 538.605 0.541591 -1.87848 0
M  V30 5520 H 537.309 1.7729 -3.70131 0
M  V30 5521 H 536.84 3.01371 -2.52862 0
M  V30 5522 H 538.855 4.27598 -2.51742 0
M  V30 5523 N 538.028 1.39524 0.732853 0
M  V30 5524 C 539.275 1.36865 1.49246 0
M  V30 5525 C 539.603 -0.0347118 1.94469 0
M  V30 5526 O 538.858 -1.01596 1.67262 0
M  V30 5527 C 539.157 2.28916 2.74468 0
M  V30 5528 C 538.823 3.76506 2.481 0
M  V30 5529 C 537.485 4.16721 2.40619 0
M  V30 5530 C 539.837 4.69846 2.25598 0
M  V30 5531 C 537.165 5.48334 2.08679 0
M  V30 5532 C 539.517 6.01739 1.95174 0
M  V30 5533 C 538.181 6.41015 1.86163 0
M  V30 5534 H 537.451 0.500824 0.546129 0
M  V30 5535 H 540.098 1.72047 0.840958 0
M  V30 5536 H 538.403 1.86859 3.4437 0
M  V30 5537 H 540.1 2.2415 3.32502 0
M  V30 5538 H 536.69 3.44635 2.54803 0
M  V30 5539 H 540.874 4.39608 2.30344 0
M  V30 5540 H 536.13 5.77685 2.00226 0
M  V30 5541 H 540.304 6.73591 1.76771 0
M  V30 5542 H 537.931 7.42917 1.61179 0
M  V30 5543 N 539.506 -0.963266 1.24736 0
M  V30 5544 C 540.734 -1.74166 1.11686 0
M  V30 5545 C 541.149 -1.8589 -0.330187 0
M  V30 5546 O 540.506 -1.35042 -1.2276 0
M  V30 5547 C 540.557 -3.15989 1.75595 0
M  V30 5548 O 540.278 -3.04847 3.14642 0
M  V30 5549 C 541.779 -4.10145 1.68213 0
M  V30 5550 H 538.999 -0.546031 0.389989 0
M  V30 5551 H 541.543 -1.20907 1.64929 0
M  V30 5552 H 539.698 -3.66219 1.26343 0
M  V30 5553 H 540.112 -3.9425 3.4593 0
M  V30 5554 H 541.586 -5.07299 2.17604 0
M  V30 5555 H 542.063 -4.3445 0.644208 0
M  V30 5556 H 542.669 -3.65827 2.16912 0
M  V30 5557 N 540.985 -1.06182 -1.16461 0
M  V30 5558 C 541.915 -0.692861 -2.22984 0
M  V30 5559 C 542.896 0.314122 -1.67174 0
M  V30 5560 O 544.081 0.189499 -1.93273 0
M  V30 5561 C 541.211 -0.07732 -3.47214 0
M  V30 5562 C 540.165 -1.01015 -4.15909 0
M  V30 5563 C 539.491 -0.257973 -5.34077 0
M  V30 5564 C 540.791 -2.33868 -4.67015 0
M  V30 5565 H 542.485 -1.58343 -2.54102 0
M  V30 5566 H 540.031 -0.76279 -1.22137 0
M  V30 5567 H 541.984 0.19266 -4.20959 0
M  V30 5568 H 540.708 0.848254 -3.15392 0
M  V30 5569 H 539.367 -1.26486 -3.44088 0
M  V30 5570 H 539.015 0.670684 -4.98509 0
M  V30 5571 H 538.715 -0.879638 -5.80979 0
M  V30 5572 H 540.239 0.00448788 -6.106 0
M  V30 5573 H 541.653 -2.1279 -5.32347 0
M  V30 5574 H 540.05 -2.91522 -5.24533 0
M  V30 5575 H 541.12 -2.97019 -3.83286 0
M  V30 5576 N 542.463 1.3308 -0.844243 0
M  V30 5577 C 543.691 2.01808 -0.456203 0
M  V30 5578 C 544.106 1.63498 0.944131 0
M  V30 5579 O 543.463 0.85102 1.61443 0
M  V30 5580 C 543.514 3.56922 -0.573513 0
M  V30 5581 O 543.235 3.93851 -1.91868 0
M  V30 5582 C 544.736 4.42922 -0.183125 0
M  V30 5583 H 541.956 0.646273 -0.180477 0
M  V30 5584 H 544.5 1.69891 -1.1383 0
M  V30 5585 H 542.655 3.87352 0.0607367 0
M  V30 5586 H 543.069 4.88564 -1.90802 0
M  V30 5587 H 544.543 5.51093 -0.316241 0
M  V30 5588 H 545.02 4.30386 0.875477 0
M  V30 5589 H 545.626 4.1786 -0.792027 0
M  V30 5590 N 543.941 0.601185 1.45683 0
M  V30 5591 C 545.189 0.0936957 2.01883 0
M  V30 5592 C 545.51 -1.2779 1.47291 0
M  V30 5593 O 544.78 -1.84279 0.664691 0
M  V30 5594 H 543.36 0.0316466 0.746329 0
M  V30 5595 H 546.022 0.781137 1.78562 0
M  V30 5596 H 545.118 0.0386297 3.12076 0
M  V30 5597 N 545.419 -1.53889 0.339982 0
M  V30 5598 C 546.349 -2.27843 -0.510856 0
M  V30 5599 C 547.33 -1.29267 -1.10563 0
M  V30 5600 O 548.515 -1.58104 -1.12768 0
M  V30 5601 C 545.645 -3.04857 -1.66372 0
M  V30 5602 C 544.599 -4.10907 -1.19746 0
M  V30 5603 C 543.925 -4.75855 -2.43857 0
M  V30 5604 C 545.225 -5.21435 -0.300501 0
M  V30 5605 H 546.919 -2.99212 0.106067 0
M  V30 5606 H 544.465 -1.43904 0.0524533 0
M  V30 5607 H 546.418 -3.5533 -2.26537 0
M  V30 5608 H 545.142 -2.31133 -2.30749 0
M  V30 5609 H 543.801 -3.61342 -0.618654 0
M  V30 5610 H 543.449 -3.9873 -3.06633 0
M  V30 5611 H 543.149 -5.47502 -2.13343 0
M  V30 5612 H 544.673 -5.2911 -3.04754 0
M  V30 5613 H 546.087 -5.67565 -0.80889 0
M  V30 5614 H 544.484 -6.00036 -0.0874076 0
M  V30 5615 H 545.554 -4.80328 0.664321 0
M  V30 5616 N 546.897 -0.0685191 -1.57451 0
M  V30 5617 C 547.827 0.89747 -2.15564 0
M  V30 5618 C 548.808 1.31266 -1.08181 0
M  V30 5619 O 549.993 1.38429 -1.36202 0
M  V30 5620 C 547.123 2.16623 -2.71463 0
M  V30 5621 C 546.077 1.89054 -3.83982 0
M  V30 5622 C 545.403 3.22532 -4.26471 0
M  V30 5623 C 546.703 1.1984 -5.08366 0
M  V30 5624 H 548.397 0.413373 -2.96533 0
M  V30 5625 H 545.943 0.197391 -1.42641 0
M  V30 5626 H 547.896 2.84614 -3.10761 0
M  V30 5627 H 546.62 2.67269 -1.8771 0
M  V30 5628 H 545.279 1.23469 -3.45183 0
M  V30 5629 H 544.927 3.71013 -3.39644 0
M  V30 5630 H 544.627 3.04879 -5.02317 0
M  V30 5631 H 546.151 3.91727 -4.68383 0
M  V30 5632 H 547.565 1.77896 -5.45001 0
M  V30 5633 H 545.962 1.12456 -5.89469 0
M  V30 5634 H 547.032 0.176996 -4.84577 0
M  V30 5635 N 548.375 1.56261 0.205012 0
M  V30 5636 C 549.623 1.79684 0.925096 0
M  V30 5637 C 549.944 0.63989 1.84202 0
M  V30 5638 O 549.214 -0.342345 1.92885 0
M  V30 5639 H 547.794 0.662774 0.344587 0
M  V30 5640 H 550.456 1.93734 0.212899 0
M  V30 5641 H 549.552 2.72467 1.52211 0
M  V30 5642 N 549.853 -0.472356 1.50355 0
M  V30 5643 C 551.081 -1.24784 1.65035 0
M  V30 5644 C 551.496 -1.85837 0.333176 0
M  V30 5645 O 550.853 -1.69168 -0.68472 0
M  V30 5646 C 550.904 -2.35747 2.74054 0
M  V30 5647 O 550.625 -1.77197 4.00665 0
M  V30 5648 C 552.126 -3.26645 2.99696 0
M  V30 5649 H 549.346 -0.377432 0.554785 0
M  V30 5650 H 551.89 -0.563962 1.9657 0
M  V30 5651 H 550.045 -2.99912 2.45217 0
M  V30 5652 H 550.459 -2.5026 4.60945 0
M  V30 5653 H 551.933 -4.00718 3.79644 0
M  V30 5654 H 552.41 -3.8535 2.10718 0
M  V30 5655 H 553.016 -2.68218 3.3006 0
M  V30 5656 N 551.331 -1.39911 -0.725443 0
M  V30 5657 C 552.261 -1.42138 -1.85254 0
M  V30 5658 C 553.242 -0.283513 -1.67721 0
M  V30 5659 O 554.427 -0.490717 -1.87898 0
M  V30 5660 C 551.557 -1.27354 -3.23107 0
M  V30 5661 C 550.511 -2.3864 -3.55296 0
M  V30 5662 C 549.837 -2.08939 -4.92188 0
M  V30 5663 C 551.137 -3.8097 -3.57295 0
M  V30 5664 H 552.831 -2.36461 -1.83648 0
M  V30 5665 H 550.377 -1.13817 -0.882138 0
M  V30 5666 H 552.33 -1.2753 -4.01639 0
M  V30 5667 H 551.054 -0.295025 -3.25265 0
M  V30 5668 H 549.713 -2.37696 -2.79099 0
M  V30 5669 H 549.361 -1.09502 -4.90936 0
M  V30 5670 H 549.061 -2.83491 -5.14691 0
M  V30 5671 H 550.585 -2.10781 -5.73065 0
M  V30 5672 H 551.999 -3.8379 -4.25885 0
M  V30 5673 H 550.396 -4.5496 -3.9132 0
M  V30 5674 H 551.466 -4.11261 -2.5689 0
M  V30 5675 N 552.809 0.956637 -1.25245 0
M  V30 5676 C 554.055 1.70352 -1.10036 0
M  V30 5677 C 554.388 1.90869 0.358156 0
M  V30 5678 O 553.663 1.47819 1.26411 0
M  V30 5679 C 553.946 3.08766 -1.85298 0
M  V30 5680 C 553.799 2.95672 -3.38966 0
M  V30 5681 C 555.118 4.08622 -1.63451 0
M  V30 5682 H 552.237 0.618279 -0.401123 0
M  V30 5683 H 554.879 1.11212 -1.54051 0
M  V30 5684 H 553.029 3.59252 -1.47887 0
M  V30 5685 H 554.701 2.52527 -3.86041 0
M  V30 5686 H 552.944 2.31634 -3.6678 0
M  V30 5687 H 553.615 3.93776 -3.86839 0
M  V30 5688 H 556.091 3.67038 -1.96015 0
M  V30 5689 H 554.967 5.03514 -2.18551 0
M  V30 5690 H 555.228 4.3834 -0.575357 0
M  V30 5691 N 554.287 1.06798 1.15896 0
M  V30 5692 C 555.515 0.808694 1.90441 0
M  V30 5693 C 555.93 -0.637506 1.77711 0
M  V30 5694 O 555.287 -1.43684 1.12522 0
M  V30 5695 C 555.338 1.20068 3.40978 0
M  V30 5696 O 555.059 2.59013 3.53333 0
M  V30 5697 C 556.56 0.96987 4.3256 0
M  V30 5698 H 553.78 0.292809 0.603742 0
M  V30 5699 H 556.324 1.42296 1.46874 0
M  V30 5700 H 554.479 0.630842 3.82229 0
M  V30 5701 H 554.893 2.7485 4.46719 0
M  V30 5702 H 556.367 1.29371 5.36626 0
M  V30 5703 H 556.844 -0.0941209 4.39099 0
M  V30 5704 H 557.45 1.52433 3.97044 0
M  V30 5705 N 555.766 -1.3263 0.851289 0
M  V30 5706 C 556.699 -2.26952 0.238318 0
M  V30 5707 C 557.677 -1.50243 -0.621757 0
M  V30 5708 O 558.861 -1.79378 -0.579298 0
M  V30 5709 C 555.988 -3.32124 -0.664178 0
M  V30 5710 C 555.034 -4.26325 0.122067 0
M  V30 5711 S 555.867 -5.14404 1.48824 0
M  V30 5712 C 557.023 -6.231 0.591372 0
M  V30 5713 H 557.256 -2.78594 1.03791 0
M  V30 5714 H 554.789 -1.4011 0.648731 0
M  V30 5715 H 556.747 -3.93197 -1.17924 0
M  V30 5716 H 555.408 -2.79273 -1.43755 0
M  V30 5717 H 554.601 -5.00821 -0.565181 0
M  V30 5718 H 554.203 -3.69652 0.568602 0
M  V30 5719 H 556.495 -6.77187 -0.205762 0
M  V30 5720 H 557.438 -6.95936 1.30687 0
M  V30 5721 H 557.846 -5.64252 0.167206 0
M  V30 5722 N 557.244 -0.608902 -1.45362 0
M  V30 5723 C 558.492 -0.104401 -2.0183 0
M  V30 5724 C 558.813 1.27007 -1.47967 0
M  V30 5725 O 558.083 1.83924 -0.674455 0
M  V30 5726 H 556.663 -0.0356042 -0.746151 0
M  V30 5727 H 559.325 -0.790596 -1.78145 0
M  V30 5728 H 558.421 -0.0551793 -3.12051 0
M  V30 5729 N 558.722 1.53707 -0.348139 0
M  V30 5730 C 559.652 2.28111 0.498766 0
M  V30 5731 C 560.633 1.29851 1.09876 0
M  V30 5732 O 561.818 1.587 1.11928 0
M  V30 5733 C 558.948 3.05735 1.64753 0
M  V30 5734 C 557.902 4.11537 1.17565 0
M  V30 5735 C 557.228 4.77142 2.4133 0
M  V30 5736 C 558.528 5.21587 0.272844 0
M  V30 5737 H 560.222 2.99152 -0.121934 0
M  V30 5738 H 557.768 1.43875 -0.0600842 0
M  V30 5739 H 559.721 3.56526 2.24649 0
M  V30 5740 H 558.445 2.32354 2.2952 0
M  V30 5741 H 557.104 3.61665 0.599483 0
M  V30 5742 H 556.752 4.0035 3.04514 0
M  V30 5743 H 556.452 5.48626 2.10436 0
M  V30 5744 H 557.976 5.30719 3.01943 0
M  V30 5745 H 559.39 5.67986 0.778779 0
M  V30 5746 H 557.787 6.00074 0.0555849 0
M  V30 5747 H 558.857 4.79969 -0.689785 0
M  V30 5748 N 560.2 0.0768682 1.57412 0
M  V30 5749 C 561.13 -0.886026 2.16037 0
M  V30 5750 C 562.111 -1.30691 1.08876 0
M  V30 5751 O 563.296 -1.37705 1.36934 0
M  V30 5752 C 560.426 -2.1518 2.72608 0
M  V30 5753 C 559.38 -1.87015 3.8498 0
M  V30 5754 C 558.706 -3.20266 4.28175 0
M  V30 5755 C 560.006 -1.17143 5.08994 0
M  V30 5756 H 561.7 -0.397642 2.96748 0
M  V30 5757 H 559.246 -0.189823 1.42743 0
M  V30 5758 H 561.199 -2.82962 3.12266 0
M  V30 5759 H 559.923 -2.66269 1.89125 0
M  V30 5760 H 558.582 -1.21636 3.45833 0
M  V30 5761 H 558.23 -3.69207 3.41607 0
M  V30 5762 H 557.93 -3.0221 5.03927 0
M  V30 5763 H 559.454 -3.89237 4.70454 0
M  V30 5764 H 560.868 -1.75003 5.45937 0
M  V30 5765 H 559.265 -1.09328 5.90057 0
M  V30 5766 H 560.335 -0.151295 4.84664 0
M  V30 5767 N 561.678 -1.56367 -0.196722 0
M  V30 5768 C 562.906 -1.84639 -0.933608 0
M  V30 5769 C 563.321 -0.659164 -1.76919 0
M  V30 5770 O 562.678 0.372142 -1.78665 0
M  V30 5771 C 562.729 -3.11694 -1.83109 0
M  V30 5772 O 562.45 -4.25838 -1.02924 0
M  V30 5773 C 563.951 -3.53132 -2.67979 0
M  V30 5774 H 561.171 -0.613188 -0.272473 0
M  V30 5775 H 563.715 -2.03475 -0.204465 0
M  V30 5776 H 561.87 -2.94759 -2.51387 0
M  V30 5777 H 562.284 -4.98178 -1.64069 0
M  V30 5778 H 563.758 -4.45005 -3.26611 0
M  V30 5779 H 564.235 -2.76045 -3.41608 0
M  V30 5780 H 564.841 -3.72592 -2.05074 0
M  V30 5781 O 563.195 0.341958 -1.57838 0
M  V30 5782 H 563.886 0.991482 -1.66401 0
M  V30 END ATOM
M  V30 BEGIN BOND
M  V30 END BOND
M  V30 END CTAB
M  END
$$$$
