drugbank_target|Q9AQS0 Xanthan lyase (DB04386; DB04596; DB04597)
 OpenBabel12092120293D

  0  0  0     0  0            999 V3000
M  V30 BEGIN CTAB
M  V30 COUNTS 13744 13910 0 0 0
M  V30 BEGIN ATOM
M  V30 1 H -0.908 1.98254 -0.117106 0
M  V30 2 N 0 1.576 0 0
M  V30 3 C 0.933 2.03868 1.02534 0
M  V30 4 C 1.911 0.928543 1.3348 0
M  V30 5 O 3.095 1.19667 1.45644 0
M  V30 6 C 0.222 2.43627 2.35294 0
M  V30 7 C -0.732 3.65373 2.2001 0
M  V30 8 S 0.101 5.13292 1.52614 0
M  V30 9 C 1.257 5.56322 2.86805 0
M  V30 10 H 1.49 2.90518 0.631377 0
M  V30 11 H -0.977 1.52953 0.210867 0
M  V30 12 H 0.981 2.67203 3.11629 0
M  V30 13 H -0.358 1.57376 2.7183 0
M  V30 14 H -1.165 3.90944 3.18086 0
M  V30 15 H -1.563 3.418 1.51819 0
M  V30 16 H 0.729 5.58782 3.83104 0
M  V30 17 H 1.672 6.56266 2.65933 0
M  V30 18 H 2.08 4.83886 2.90714 0
M  V30 19 N 1.4781 -0.272755 1.55222 0
M  V30 20 C 2.4081 -1.34136 1.91127 0
M  V30 21 C 3.3891 -1.51513 0.773168 0
M  V30 22 O 4.5741 -1.64552 1.03132 0
M  V30 23 C 1.7041 -2.70083 2.1834 0
M  V30 24 C 0.6581 -2.67437 3.34158 0
M  V30 25 C -0.0159 -4.06938 3.46851 0
M  V30 26 C 1.2841 -2.26686 4.70543 0
M  V30 27 H 2.9781 -1.04333 2.80633 0
M  V30 28 H 0.5241 -0.500454 1.35024 0
M  V30 29 H 2.4771 -3.44952 2.42046 0
M  V30 30 H 1.2011 -3.01469 1.25634 0
M  V30 31 H -0.1399 -1.95026 3.1042 0
M  V30 32 H -0.4919 -4.35547 2.51611 0
M  V30 33 H -0.7919 -4.06062 4.2472 0
M  V30 34 H 0.7321 -4.83545 3.72849 0
M  V30 35 H 2.1461 -2.91277 4.93792 0
M  V30 36 H 0.5431 -2.36971 5.5133 0
M  V30 37 H 1.6131 -1.21818 4.69349 0
M  V30 38 N 2.9562 -1.48159 -0.537278 0
M  V30 39 C 4.1812 -1.59707 -1.32319 0
M  V30 40 C 4.6062 -0.254859 -1.86365 0
M  V30 41 O 3.9642 0.772378 -1.64024 0
M  V30 42 C 4.0122 -2.6412 -2.45505 0
M  V30 43 O 3.1162 -2.20774 -3.48328 0
M  V30 44 H 2.4572 -0.535791 -0.392204 0
M  V30 45 H 4.9872 -1.94092 -0.647268 0
M  V30 46 H 4.9972 -2.85166 -2.91795 0
M  V30 47 H 3.6722 -3.61567 -2.05528 0
M  V30 48 H 2.2492 -2.09911 -3.08207 0
M  V30 49 N 4.4343 0.785586 -1.36625 0
M  V30 50 C 5.6823 1.54057 -1.30808 0
M  V30 51 C 6.0033 1.94683 0.111157 0
M  V30 52 O 5.2733 1.65241 1.05224 0
M  V30 53 H 3.8533 0.571354 -0.481211 0
M  V30 54 H 6.5153 0.935821 -1.70963 0
M  V30 55 H 5.6113 2.44637 -1.93801 0
M  V30 56 N 5.9124 1.20967 1.01018 0
M  V30 57 C 7.1614 1.01796 1.74128 0
M  V30 58 C 7.4744 -0.449691 1.90361 0
M  V30 59 O 8.6804 -0.76068 2.60626 0
M  V30 60 C 7.1364 1.7727 3.13215 0
M  V30 61 C 6.7444 3.28171 3.04972 0
M  V30 62 C 8.4884 1.66489 3.90489 0
M  V30 63 C 6.3954 3.96156 4.39107 0
M  V30 64 H 5.3254 0.377276 0.652824 0
M  V30 65 H 7.9764 1.44651 1.12909 0
M  V30 66 H 6.3584 1.27205 3.75013 0
M  V30 67 H 7.5324 3.85499 2.52443 0
M  V30 68 H 5.8474 3.39437 2.41188 0
M  V30 69 H 8.4444 2.14617 4.89738 0
M  V30 70 H 8.7874 0.6222 4.11624 0
M  V30 71 H 9.3204 2.14003 3.35332 0
M  V30 72 H 6.0594 5.00604 4.23174 0
M  V30 73 H 5.5794 3.43617 4.91617 0
M  V30 74 H 7.2584 4.00774 5.07926 0
M  V30 75 N 7.3905 -1.2043 1.01659 0
M  V30 76 C 8.3205 -2.25466 0.607226 0
M  V30 77 C 9.3015 -1.65853 -0.377716 0
M  V30 78 O 10.4865 -1.92409 -0.263149 0
M  V30 79 C 7.6165 -3.47256 -0.0552949 0
M  V30 80 C 6.5705 -4.19462 0.850632 0
M  V30 81 C 5.8965 -5.34673 0.0538859 0
M  V30 82 C 7.1965 -4.75603 2.15868 0
M  V30 83 H 8.8905 -2.59962 1.48526 0
M  V30 84 H 6.4365 -1.2496 0.715605 0
M  V30 85 H 8.3895 -4.19917 -0.353233 0
M  V30 86 H 7.1135 -3.11924 -0.968045 0
M  V30 87 H 5.7725 -3.48667 1.13257 0
M  V30 88 H 5.4205 -4.95585 -0.860514 0
M  V30 89 H 5.1205 -5.83913 0.657192 0
M  V30 90 H 6.6445 -6.10138 -0.237598 0
M  V30 91 H 8.0585 -5.40083 1.92311 0
M  V30 92 H 6.4555 -5.3528 2.71284 0
M  V30 93 H 7.5255 -3.94346 2.82169 0
M  V30 94 N 8.8686 -0.792821 -1.36206 0
M  V30 95 C 10.1176 -0.363353 -1.984 0
M  V30 96 C 10.4306 1.07172 -1.63626 0
M  V30 97 O 11.6366 1.60362 -2.19081 0
M  V30 98 C 10.0926 -0.59872 -3.54885 0
M  V30 99 C 9.7006 -2.04543 -3.9858 0
M  V30 100 C 11.4446 -0.233926 -4.23855 0
M  V30 101 C 9.3516 -2.22727 -5.47856 0
M  V30 102 H 8.2816 -0.13212 -0.742334 0
M  V30 103 H 10.9326 -0.974935 -1.55458 0
M  V30 104 H 9.3146 0.0826222 -3.95914 0
M  V30 105 H 10.4886 -2.76345 -3.68741 0
M  V30 106 H 8.8036 -2.36879 -3.42458 0
M  V30 107 H 11.4006 -0.348027 -5.33566 0
M  V30 108 H 11.7436 0.818351 -4.08177 0
M  V30 109 H 12.2766 -0.868639 -3.882 0
M  V30 110 H 9.0156 -3.2635 -5.68486 0
M  V30 111 H 8.5356 -1.55434 -5.7931 0
M  V30 112 H 10.2146 -2.03607 -6.14128 0
M  V30 113 N 10.3467 1.47872 -0.545128 0
M  V30 114 C 11.3097 2.28337 0.198717 0
M  V30 115 C 12.3097 1.36255 0.853888 0
M  V30 116 O 13.4997 1.59003 0.711606 0
M  V30 117 C 10.6317 3.15585 1.28915 0
M  V30 118 H 11.8247 2.95567 -0.507941 0
M  V30 119 H 9.3777 1.53362 -0.301616 0
M  V30 120 H 10.1127 2.53019 2.02859 0
M  V30 121 H 9.8977 3.83337 0.824309 0
M  V30 122 H 11.3877 3.76243 1.81194 0
M  V30 123 N 11.8248 0.280983 1.55075 0
M  V30 124 C 12.7878 -0.590896 2.21452 0
M  V30 125 C 13.7878 -1.07682 1.19421 0
M  V30 126 O 14.9778 -0.97605 1.44288 0
M  V30 127 C 12.1098 -1.81587 2.88511 0
M  V30 128 H 13.3028 -0.0112554 2.99898 0
M  V30 129 H 10.8558 0.0316438 1.56268 0
M  V30 130 H 11.5908 -2.43587 2.14093 0
M  V30 131 H 11.3758 -1.4753 3.63287 0
M  V30 132 H 12.8658 -2.43575 3.39206 0
M  V30 133 N 13.3029 -1.57598 0.00835791 0
M  V30 134 C 14.2329 -2.1198 -0.979113 0
M  V30 135 C 15.2139 -1.03091 -1.35301 0
M  V30 136 O 16.3989 -1.30818 -1.43528 0
M  V30 137 C 13.5289 -2.62995 -2.26828 0
M  V30 138 C 12.4829 -3.76485 -2.03576 0
M  V30 139 C 11.8089 -4.13846 -3.38579 0
M  V30 140 C 13.1089 -5.0342 -1.39161 0
M  V30 141 H 14.8029 -2.94738 -0.526281 0
M  V30 142 H 12.3489 -1.41783 -0.251704 0
M  V30 143 H 14.3019 -2.99669 -2.96271 0
M  V30 144 H 13.0259 -1.7737 -2.7424 0
M  V30 145 H 11.6849 -3.40217 -1.36557 0
M  V30 146 H 11.3329 -3.25232 -3.83709 0
M  V30 147 H 11.0329 -4.90312 -3.23834 0
M  V30 148 H 12.5569 -4.53086 -4.09323 0
M  V30 149 H 13.9709 -5.37812 -1.98573 0
M  V30 150 H 12.3679 -5.84746 -1.34878 0
M  V30 151 H 13.4379 -4.83548 -0.361868 0
M  V30 152 N 14.781 0.264519 -1.55364 0
M  V30 153 C 15.711 1.33121 -1.91836 0
M  V30 154 C 16.692 1.51101 -0.781192 0
M  V30 155 O 17.877 1.64003 -1.04003 0
M  V30 156 C 15.007 2.68921 -2.19769 0
M  V30 157 C 13.961 2.65661 -3.35571 0
M  V30 158 C 13.287 4.05093 -3.49004 0
M  V30 159 C 14.587 2.24187 -4.71739 0
M  V30 160 H 16.281 1.02844 -2.81182 0
M  V30 161 H 13.827 0.493286 -1.35287 0
M  V30 162 H 15.78 3.43663 -2.43872 0
M  V30 163 H 14.504 3.00799 -1.27231 0
M  V30 164 H 13.163 1.93377 -3.1145 0
M  V30 165 H 12.811 4.34206 -2.53917 0
M  V30 166 H 12.511 4.03804 -4.26868 0
M  V30 167 H 14.035 4.81561 -3.75408 0
M  V30 168 H 15.449 2.88654 -4.9533 0
M  V30 169 H 13.846 2.34044 -5.52579 0
M  V30 170 H 14.916 1.19327 -4.69988 0
M  V30 171 N 16.2591 1.48442 0.529413 0
M  V30 172 C 17.1921 1.57577 1.65059 0
M  V30 173 C 18.1701 0.426198 1.56915 0
M  V30 174 O 19.3541 0.637877 1.77379 0
M  V30 175 C 16.4811 1.5043 3.03461 0
M  V30 176 C 15.5271 2.70235 3.29962 0
M  V30 177 S 16.3601 4.32198 3.16172 0
M  V30 178 C 17.5161 4.2765 4.57019 0
M  V30 179 H 17.7491 2.52427 1.5706 0
M  V30 180 H 15.2821 1.36982 0.712417 0
M  V30 181 H 17.2401 1.46992 3.8328 0
M  V30 182 H 15.9011 0.569167 3.089 0
M  V30 183 H 15.0941 2.61374 4.30929 0
M  V30 184 H 14.6961 2.70938 2.57815 0
M  V30 185 H 16.9881 3.97618 5.48549 0
M  V30 186 H 17.9311 5.28797 4.70934 0
M  V30 187 H 18.3391 3.5811 4.36368 0
M  V30 188 N 17.7372 -0.778329 1.37039 0
M  V30 189 C 18.9652 -1.56734 1.35063 0
M  V30 190 C 19.3802 -1.88686 -0.0655597 0
M  V30 191 O 18.7372 -1.5096 -1.02554 0
M  V30 192 C 18.7882 -2.88163 2.18276 0
M  V30 193 O 18.5092 -2.57583 3.54376 0
M  V30 194 C 20.0102 -3.82422 2.24206 0
M  V30 195 H 17.2302 -0.485778 0.462883 0
M  V30 196 H 19.7742 -0.965185 1.8029 0
M  V30 197 H 17.9292 -3.44818 1.76576 0
M  V30 198 H 18.3432 -3.41699 3.97922 0
M  V30 199 H 19.8172 -4.71667 2.86765 0
M  V30 200 H 20.2942 -4.21078 1.24861 0
M  V30 201 H 20.9002 -3.31697 2.6619 0
M  V30 202 N 19.2153 -1.21501 -1.00376 0
M  V30 203 C 20.1453 -0.999478 -2.11028 0
M  V30 204 C 21.1263 0.0759671 -1.6993 0
M  V30 205 O 22.3113 -0.0841106 -1.94018 0
M  V30 206 C 19.4413 -0.564709 -3.42678 0
M  V30 207 C 18.3953 -1.58486 -3.97576 0
M  V30 208 C 17.7213 -1.00628 -5.25146 0
M  V30 209 C 19.0213 -2.97204 -4.29496 0
M  V30 210 H 20.7153 -1.92495 -2.29317 0
M  V30 211 H 18.2613 -0.92693 -1.102 0
M  V30 212 H 20.2143 -0.401091 -4.19487 0
M  V30 213 H 18.9383 0.396411 -3.24185 0
M  V30 214 H 17.5973 -1.73606 -3.22888 0
M  V30 215 H 17.2453 -0.0368439 -5.02987 0
M  V30 216 H 16.9453 -1.68771 -5.62841 0
M  V30 217 H 18.4693 -0.854015 -6.04598 0
M  V30 218 H 19.8833 -2.8552 -4.97143 0
M  V30 219 H 18.2803 -3.62372 -4.78338 0
M  V30 220 H 19.3503 -3.47956 -3.3772 0
M  V30 221 N 20.6934 1.19889 -1.02296 0
M  V30 222 C 21.9394 1.89973 -0.726759 0
M  V30 223 C 22.2944 1.7776 0.73614 0
M  V30 224 O 21.5874 1.15523 1.52856 0
M  V30 225 C 21.7814 3.39883 -1.10518 0
M  V30 226 C 21.6104 3.66684 -2.60332 0
M  V30 227 C 20.3804 3.85045 -3.27213 0
M  V30 228 C 22.5784 3.68727 -3.58532 0
M  V30 229 N 20.5604 3.99422 -4.66192 0
M  V30 230 C 21.9314 3.88604 -4.83101 0
M  V30 231 C 23.9864 3.51722 -3.52414 0
M  V30 232 C 22.6894 3.9324 -6.02292 0
M  V30 233 C 24.7154 3.57632 -4.71013 0
M  V30 234 C 24.0774 3.77988 -5.94394 0
M  V30 235 H 20.1764 0.714551 -0.317712 0
M  V30 236 H 22.7604 1.44123 -1.30907 0
M  V30 237 H 20.9314 3.8447 -0.551142 0
M  V30 238 H 22.6634 3.97464 -0.761853 0
M  V30 239 H 19.4184 3.83689 -2.77632 0
M  V30 240 H 19.8424 4.10473 -5.38368 0
M  V30 241 H 24.4844 3.34945 -2.58015 0
M  V30 242 H 22.2024 4.08811 -6.97065 0
M  V30 243 H 25.7884 3.45773 -4.67902 0
M  V30 244 H 24.6684 3.82428 -6.8463 0
M  V30 245 N 22.1715 0.800033 1.35784 0
M  V30 246 C 23.4195 0.376597 1.9856 0
M  V30 247 C 23.7405 -1.05812 1.63795 0
M  V30 248 O 23.0105 -1.73103 0.917171 0
M  V30 249 H 21.5905 0.136261 0.734467 0
M  V30 250 H 24.2525 1.02442 1.65806 0
M  V30 251 H 23.3485 0.477002 3.08433 0
M  V30 252 N 23.6496 -1.47581 0.552962 0
M  V30 253 C 24.8976 -2.02082 0.0272703 0
M  V30 254 C 25.2186 -1.4301 -1.32563 0
M  V30 255 O 24.4886 -0.603745 -1.86365 0
M  V30 256 H 23.0686 -0.746966 0.00709182 0
M  V30 257 H 25.7306 -1.81033 0.722008 0
M  V30 258 H 24.8266 -3.12034 -0.0639951 0
M  V30 259 N 25.1277 -0.289203 -1.54924 0
M  V30 260 C 26.3737 0.316922 -2.00916 0
M  V30 261 C 26.7287 1.52424 -1.17408 0
M  V30 262 O 26.0217 1.90097 -0.239536 0
M  V30 263 C 26.2157 0.736119 -3.49737 0
M  V30 264 C 26.0447 -0.429036 -4.47649 0
M  V30 265 C 24.8147 -0.917311 -4.96904 0
M  V30 266 C 27.0127 -1.27016 -4.98369 0
M  V30 267 N 24.9947 -2.05046 -5.78644 0
M  V30 268 C 26.3657 -2.25097 -5.77695 0
M  V30 269 C 28.4207 -1.30188 -4.80578 0
M  V30 270 C 27.1237 -3.26114 -6.41126 0
M  V30 271 C 29.1497 -2.30057 -5.44819 0
M  V30 272 C 28.5117 -3.2687 -6.23968 0
M  V30 273 H 24.6107 0.0807535 -0.777819 0
M  V30 274 H 27.1947 -0.416434 -1.90194 0
M  V30 275 H 25.3657 1.43867 -3.60773 0
M  V30 276 H 27.0977 1.32078 -3.82541 0
M  V30 277 H 23.8527 -0.494248 -4.71014 0
M  V30 278 H 24.2767 -2.62108 -6.24202 0
M  V30 279 H 28.9187 -0.567163 -4.18979 0
M  V30 280 H 26.6367 -4.00512 -7.01866 0
M  V30 281 H 30.2227 -2.33271 -5.32988 0
M  V30 282 H 29.1027 -4.02883 -6.72796 0
M  V30 283 N 26.6058 1.57591 -0.0167156 0
M  V30 284 C 27.5378 2.06343 0.997753 0
M  V30 285 C 28.5508 0.984469 1.29661 0
M  V30 286 O 29.7398 1.26093 1.26344 0
M  V30 287 C 26.8398 2.46255 2.32834 0
M  V30 288 C 26.0128 3.77083 2.21646 0
M  V30 289 C 25.0718 4.0368 3.37534 0
M  V30 290 O 24.0978 4.7411 3.14973 0
M  V30 291 N 25.2998 3.52881 4.60929 0
M  V30 292 H 28.0648 2.93997 0.581875 0
M  V30 293 H 25.6258 1.61002 0.170316 0
M  V30 294 H 27.6178 2.61149 3.09166 0
M  V30 295 H 26.1878 1.64032 2.66106 0
M  V30 296 H 25.4078 3.72106 1.30119 0
M  V30 297 H 26.6958 4.62822 2.11361 0
M  V30 298 H 26.0938 2.95878 4.82154 0
M  V30 299 H 24.6508 3.73076 5.34469 0
M  V30 300 N 28.0839 -0.256276 1.55502 0
M  V30 301 C 29.4949 -0.826068 1.67431 0
M  V30 302 C 29.8459 -1.86396 0.612446 0
M  V30 303 O 28.9709 -2.15031 -0.243025 0
M  V30 304 C 29.5659 -1.50512 3.03532 0
M  V30 305 C 28.1249 -2.02273 3.17431 0
M  V30 306 C 27.2719 -0.870548 2.63281 0
M  V30 307 H 30.2229 -0.0322728 1.58667 0
M  V30 308 H 30.2439 -2.37279 2.97454 0
M  V30 309 H 29.7559 -0.749484 3.80794 0
M  V30 310 H 27.8569 -2.80746 2.44974 0
M  V30 311 H 27.9699 -2.22655 4.24219 0
M  V30 312 H 26.3339 -1.26851 2.20864 0
M  V30 313 H 27.1169 -0.128149 3.43061 0
M  V30 314 N 29.562 -1.4872 -0.521534 0
M  V30 315 C 30.839 -1.4766 -1.2828 0
M  V30 316 C 31.219 -0.19292 -2.10217 0
M  V30 317 O 30.567 0.825193 -2.13079 0
M  V30 318 C 30.777 -2.74358 -2.15705 0
M  V30 319 C 32.125 -3.23028 -2.75569 0
M  V30 320 O 33.149 -2.75333 -2.25987 0
M  V30 321 O 32.008 -4.0604 -3.65778 0
M  V30 322 H 29.102 -0.590085 -0.579421 0
M  V30 323 H 31.648 -1.60963 -0.537492 0
M  V30 324 H 30.42 -3.59292 -1.54999 0
M  V30 325 H 30.043 -2.63816 -2.97467 0
M  V30 326 N 31.0401 0.771051 -1.3745 0
M  V30 327 C 32.2891 1.52491 -1.3202 0
M  V30 328 C 32.6021 1.9538 0.0927347 0
M  V30 329 O 33.8081 2.70159 0.269503 0
M  V30 330 C 32.2641 2.75366 -2.31736 0
M  V30 331 C 31.8721 2.39573 -3.78562 0
M  V30 332 C 33.6161 3.53307 -2.35318 0
M  V30 333 C 31.5231 3.58954 -4.70007 0
M  V30 334 H 30.4531 0.572506 -0.490666 0
M  V30 335 H 33.1041 0.844474 -1.62914 0
M  V30 336 H 31.4861 3.45303 -1.93861 0
M  V30 337 H 32.6601 1.77415 -4.25277 0
M  V30 338 H 30.9751 1.74805 -3.77932 0
M  V30 339 H 33.5721 4.42039 -3.00842 0
M  V30 340 H 33.9151 3.93217 -1.36698 0
M  V30 341 H 34.4481 2.90367 -2.71904 0
M  V30 342 H 31.1871 3.24125 -5.69757 0
M  V30 343 H 30.7071 4.20214 -4.27996 0
M  V30 344 H 32.3861 4.25758 -4.87175 0
M  V30 345 N 32.5182 1.22032 0.997298 0
M  V30 346 C 33.4812 0.987909 2.06816 0
M  V30 347 C 34.4812 -0.0440084 1.6074 0
M  V30 348 O 35.6712 0.194053 1.73116 0
M  V30 349 C 32.8032 0.49132 3.37341 0
M  V30 350 H 33.9962 1.93803 2.28868 0
M  V30 351 H 31.5492 1.03838 1.16822 0
M  V30 352 H 32.2842 -0.463364 3.20973 0
M  V30 353 H 32.0692 1.23575 3.72118 0
M  V30 354 H 33.5592 0.348824 4.16141 0
M  V30 355 N 33.9963 -1.19345 1.0293 0
M  V30 356 C 34.9463 -2.20472 0.58104 0
M  V30 357 C 35.9303 -1.56578 -0.370442 0
M  V30 358 O 37.1223 -1.75963 -0.191344 0
M  V30 359 C 34.2513 -3.43236 -0.066306 0
M  V30 360 C 33.3373 -4.14274 0.907642 0
M  V30 361 N 33.7283 -4.61492 2.07023 0
M  V30 362 C 32.0263 -4.39966 0.731177 0
M  V30 363 C 32.7273 -5.1605 2.68454 0
M  V30 364 N 31.7033 -5.06875 1.96414 0
M  V30 365 H 35.5053 -2.54659 1.46717 0
M  V30 366 H 33.0193 -1.35423 0.896345 0
M  V30 367 H 35.0163 -4.14927 -0.405068 0
M  V30 368 H 33.6763 -3.10549 -0.948118 0
M  V30 369 H 34.6873 -4.56304 2.44963 0
M  V30 370 H 31.3643 -4.17377 -0.101507 0
M  V30 371 H 32.7543 -5.6287 3.66915 0
M  V30 372 N 35.4744 -0.807222 -1.35358 0
M  V30 373 C 36.4374 -0.223665 -2.28106 0
M  V30 374 C 37.4374 0.589354 -1.4961 0
M  V30 375 O 38.6274 0.407745 -1.69361 0
M  V30 376 C 35.7594 0.688149 -3.33882 0
M  V30 377 H 36.9524 -1.04169 -2.81227 0
M  V30 378 H 34.5054 -0.577921 -1.45223 0
M  V30 379 H 35.2404 1.52984 -2.85948 0
M  V30 380 H 35.0254 0.10687 -3.91954 0
M  V30 381 H 36.5154 1.09075 -4.03104 0
M  V30 382 N 36.9525 1.47285 -0.560781 0
M  V30 383 C 38.1775 2.07359 -0.0410566 0
M  V30 384 C 38.6025 1.41017 1.24483 0
M  V30 385 O 37.9605 0.486368 1.74654 0
M  V30 386 C 38.0085 3.6035 0.134123 0
M  V30 387 O 37.1125 3.94681 1.19587 0
M  V30 388 H 36.4535 0.661887 -0.0529291 0
M  V30 389 H 38.9835 1.89252 -0.777482 0
M  V30 390 H 38.9935 4.0652 0.347207 0
M  V30 391 H 37.6685 4.08034 -0.805047 0
M  V30 392 H 36.2455 3.60251 0.962987 0
M  V30 393 N 38.4306 0.297415 1.54768 0
M  V30 394 C 39.7076 -0.365847 1.92148 0
M  V30 395 C 40.0876 -1.71975 1.22424 0
M  V30 396 O 39.4356 -2.25666 0.358739 0
M  V30 397 C 39.6456 -0.484056 3.45627 0
M  V30 398 C 40.9936 -0.756594 4.17805 0
M  V30 399 O 42.0176 -0.568007 3.51642 0
M  V30 400 O 40.8766 -1.11863 5.34929 0
M  V30 401 H 37.9706 -0.203919 0.801465 0
M  V30 402 H 40.5166 0.34521 1.66152 0
M  V30 403 H 39.2886 0.467865 3.88493 0
M  V30 404 H 38.9116 -1.24372 3.77647 0
M  V30 405 N 39.9087 -1.5758 0.0250728 0
M  V30 406 C 40.8187 -2.1343 -0.973905 0
M  V30 407 C 41.8347 -1.08556 -1.35984 0
M  V30 408 O 43.0107 -1.40592 -1.44207 0
M  V30 409 C 40.0757 -2.64703 -2.23904 0
M  V30 410 C 39.1367 -3.84276 -1.91391 0
M  V30 411 C 38.3697 -4.33095 -3.11873 0
M  V30 412 O 38.5927 -3.81107 -4.24398 0
M  V30 413 O 37.5267 -5.24984 -2.94406 0
M  V30 414 H 41.3527 -2.99057 -0.529036 0
M  V30 415 H 38.9377 -1.48118 -0.195288 0
M  V30 416 H 40.8197 -2.97769 -2.98181 0
M  V30 417 H 39.4947 -1.82161 -2.6758 0
M  V30 418 H 38.4017 -3.56143 -1.14511 0
M  V30 419 H 39.7347 -4.67968 -1.52534 0
M  V30 420 N 41.3868 0.248026 -1.55636 0
M  V30 421 C 42.6338 0.976224 -1.77415 0
M  V30 422 C 42.9618 1.85361 -0.589193 0
M  V30 423 O 42.2168 1.90973 0.427529 0
M  V30 424 C 42.5158 1.86819 -3.04686 0
M  V30 425 C 42.1818 1.14625 -4.36087 0
M  V30 426 C 40.8438 0.946723 -4.71795 0
M  V30 427 C 43.1958 0.634463 -5.17324 0
M  V30 428 C 40.5238 0.223091 -5.86276 0
M  V30 429 C 42.8758 -0.0756959 -6.32555 0
M  V30 430 C 41.5398 -0.286711 -6.66884 0
M  V30 431 H 40.8098 0.357226 -0.649208 0
M  V30 432 H 43.4568 0.246415 -1.89908 0
M  V30 433 H 41.7618 2.66502 -2.872 0
M  V30 434 H 43.4588 2.43329 -3.18735 0
M  V30 435 H 40.0488 1.3117 -4.08035 0
M  V30 436 H 44.2328 0.77616 -4.90193 0
M  V30 437 H 39.4888 0.0491185 -6.1138 0
M  V30 438 H 43.6628 -0.479899 -6.94745 0
M  V30 439 H 41.2898 -0.849389 -7.5544 0
M  V30 440 N 42.8649 1.48995 0.513639 0
M  V30 441 C 44.1419 1.48338 1.27495 0
M  V30 442 C 44.5219 0.204065 2.10111 0
M  V30 443 O 43.8699 -0.813881 2.13514 0
M  V30 444 C 44.0799 2.75498 2.14247 0
M  V30 445 C 45.4279 3.24484 2.73852 0
M  V30 446 O 46.4519 2.76528 2.24523 0
M  V30 447 O 45.3109 4.07974 3.6362 0
M  V30 448 H 42.4049 0.593149 0.576284 0
M  V30 449 H 44.9509 1.61246 0.528948 0
M  V30 450 H 43.7229 3.60109 1.53092 0
M  V30 451 H 43.3459 2.6539 2.96064 0
M  V30 452 N 44.343 -0.763751 1.37857 0
M  V30 453 C 45.306 -1.85889 1.34081 0
M  V30 454 C 46.306 -1.58949 0.243277 0
M  V30 455 O 47.496 -1.66882 0.499589 0
M  V30 456 C 44.628 -3.23176 1.08489 0
M  V30 457 H 45.821 -1.90648 2.31502 0
M  V30 458 H 43.374 -0.964367 1.23003 0
M  V30 459 H 44.109 -3.24091 0.116318 0
M  V30 460 H 43.894 -3.44124 1.8794 0
M  V30 461 H 45.384 -4.03254 1.08517 0
M  V30 462 N 45.8211 -1.22559 -0.990812 0
M  V30 463 C 46.7511 -1.0218 -2.09956 0
M  V30 464 C 47.7321 0.0579394 -1.70001 0
M  V30 465 O 48.9171 -0.104684 -1.93918 0
M  V30 466 C 46.0471 -0.601023 -3.4206 0
M  V30 467 C 45.0011 -1.62694 -3.95872 0
M  V30 468 C 44.3271 -1.06193 -5.24049 0
M  V30 469 C 45.6271 -3.01743 -4.2632 0
M  V30 470 H 47.3211 -1.94916 -2.27262 0
M  V30 471 H 44.8671 -0.938566 -1.09211 0
M  V30 472 H 46.8201 -0.445561 -4.19038 0
M  V30 473 H 45.5441 0.362005 -3.24588 0
M  V30 474 H 44.2031 -1.77021 -3.21028 0
M  V30 475 H 43.8511 -0.0901903 -5.02919 0
M  V30 476 H 43.5511 -1.74732 -5.61019 0
M  V30 477 H 45.0751 -0.918092 -6.03658 0
M  V30 478 H 46.4891 -2.90777 -4.94087 0
M  V30 479 H 44.8861 -3.67425 -4.74467 0
M  V30 480 H 45.9561 -3.51518 -3.34011 0
M  V30 481 N 47.2992 1.18797 -1.03562 0
M  V30 482 C 48.7152 1.40671 -0.753917 0
M  V30 483 C 48.9152 1.9043 0.658686 0
M  V30 484 O 47.9712 2.08538 1.42366 0
M  V30 485 C 49.2842 2.41192 -1.79574 0
M  V30 486 C 50.8322 2.54928 -1.81606 0
M  V30 487 C 51.3072 3.58709 -2.84766 0
M  V30 488 N 52.7982 3.66212 -2.83625 0
M  V30 489 C 53.5332 4.46225 -3.60098 0
M  V30 490 N 53.0292 5.29888 -4.46308 0
M  V30 491 N 54.8222 4.40939 -3.4861 0
M  V30 492 H 46.9732 0.848221 -1.94728 0
M  V30 493 H 49.2362 0.435081 -0.842264 0
M  V30 494 H 48.9422 2.11669 -2.80872 0
M  V30 495 H 48.8162 3.40467 -1.62365 0
M  V30 496 H 51.2032 2.83771 -0.809817 0
M  V30 497 H 51.2842 1.55784 -2.02891 0
M  V30 498 H 50.9282 3.30607 -3.85566 0
M  V30 499 H 50.8582 4.57519 -2.60737 0
M  V30 500 H 53.3492 3.06466 -2.21105 0
M  V30 501 H 53.6622 5.88078 -5.01382 0
M  V30 502 H 52.0072 5.29326 -4.50377 0
M  V30 503 H 55.1982 3.74624 -2.80668 0
M  V30 504 H 55.3712 5.03056 -4.08459 0
M  V30 505 N 48.7773 0.814389 1.34928 0
M  V30 506 C 50.0263 0.394871 1.97797 0
M  V30 507 C 50.3393 -1.04555 1.65311 0
M  V30 508 O 51.5453 -1.56856 2.21604 0
M  V30 509 C 50.0013 0.655103 3.53888 0
M  V30 510 C 49.6093 2.10858 3.95276 0
M  V30 511 C 51.3533 0.301329 4.23429 0
M  V30 512 C 49.2603 2.31415 5.44244 0
M  V30 513 H 48.1903 0.143913 0.740139 0
M  V30 514 H 50.8413 0.999544 1.53888 0
M  V30 515 H 49.2233 -0.0196253 3.95995 0
M  V30 516 H 50.3973 2.82176 3.64298 0
M  V30 517 H 48.7123 2.42297 3.38646 0
M  V30 518 H 51.3093 0.432869 5.32945 0
M  V30 519 H 51.6523 -0.75331 4.09428 0
M  V30 520 H 52.1853 0.930288 3.86769 0
M  V30 521 H 48.9243 3.35353 5.63222 0
M  V30 522 H 48.4443 1.6463 5.76764 0
M  V30 523 H 50.1233 2.13352 6.10811 0
M  V30 524 N 50.2554 -1.46986 0.568584 0
M  V30 525 C 51.2024 -2.30153 -0.172707 0
M  V30 526 C 52.1724 -1.39759 -0.897586 0
M  V30 527 O 53.3574 -1.68716 -0.891044 0
M  V30 528 C 50.4974 -3.23952 -1.1895 0
M  V30 529 C 49.6104 -4.29441 -0.469517 0
M  V30 530 C 48.7454 -5.1038 -1.47259 0
M  V30 531 C 47.7844 -6.07632 -0.738225 0
M  V30 532 N 46.9214 -6.8149 -1.68868 0
M  V30 533 H 51.7614 -2.93019 0.542596 0
M  V30 534 H 49.2984 -1.44422 0.279401 0
M  V30 535 H 51.2564 -3.76767 -1.79173 0
M  V30 536 H 49.8864 -2.62926 -1.87269 0
M  V30 537 H 48.9384 -3.79594 0.247467 0
M  V30 538 H 50.2504 -4.98689 0.105241 0
M  V30 539 H 49.4044 -5.67402 -2.14803 0
M  V30 540 H 48.1434 -4.4106 -2.08128 0
M  V30 541 H 47.1484 -5.49778 -0.0489293 0
M  V30 542 H 48.3734 -6.78966 -0.135129 0
M  V30 543 H 46.3194 -6.14891 -2.28573 0
M  V30 544 H 46.2364 -7.46948 -1.16636 0
M  V30 545 H 47.5044 -7.43078 -2.3549 0
M  V30 546 N 51.7335 -0.305618 -1.54608 0
M  V30 547 C 52.9795 0.295595 -2.01241 0
M  V30 548 C 53.3345 1.51171 -1.19018 0
M  V30 549 O 52.6275 1.89832 -0.259684 0
M  V30 550 C 52.8215 0.698983 -3.50498 0
M  V30 551 C 52.6505 -0.476491 -4.47168 0
M  V30 552 C 51.4205 -0.969963 -4.95903 0
M  V30 553 C 53.6185 -1.32294 -4.96994 0
M  V30 554 N 51.6005 -2.11172 -5.76437 0
M  V30 555 C 52.9715 -2.31212 -5.75275 0
M  V30 556 C 55.0265 -1.35278 -4.7917 0
M  V30 557 C 53.7295 -3.32896 -6.37631 0
M  V30 558 C 55.7555 -2.35823 -5.42348 0
M  V30 559 C 55.1175 -3.33469 -6.20466 0
M  V30 560 H 51.2165 0.0724992 -0.778632 0
M  V30 561 H 53.8005 -0.436583 -1.89742 0
M  V30 562 H 51.9715 1.40032 -3.62278 0
M  V30 563 H 53.7035 1.28013 -3.8392 0
M  V30 564 H 50.4585 -0.544178 -4.70463 0
M  V30 565 H 50.8825 -2.68714 -6.21387 0
M  V30 566 H 55.5245 -0.61157 -4.18354 0
M  V30 567 H 53.2425 -4.07933 -6.97579 0
M  V30 568 H 56.8285 -2.38911 -5.30484 0
M  V30 569 H 55.7085 -4.09996 -6.68485 0
M  V30 570 N 53.2116 1.57565 -0.0334293 0
M  V30 571 C 54.1746 2.09393 0.932048 0
M  V30 572 C 55.1746 1.00986 1.25134 0
M  V30 573 O 56.3646 1.27129 1.19096 0
M  V30 574 C 53.4966 2.56338 2.2473 0
M  V30 575 H 54.6896 2.95984 0.483085 0
M  V30 576 H 52.2426 1.54819 0.21468 0
M  V30 577 H 52.9776 1.7309 2.74245 0
M  V30 578 H 52.7626 3.35542 2.02865 0
M  V30 579 H 54.2526 2.96646 2.93923 0
M  V30 580 N 54.6897 -0.239769 1.55765 0
M  V30 581 C 55.9177 -0.98417 1.81994 0
M  V30 582 C 56.3327 -1.7867 0.610124 0
M  V30 583 O 55.6897 -1.77571 -0.421271 0
M  V30 584 C 55.7407 -1.91635 3.06526 0
M  V30 585 O 55.4617 -1.14629 4.22838 0
M  V30 586 C 56.9627 -2.77616 3.45607 0
M  V30 587 H 54.1827 -0.28928 0.605441 0
M  V30 588 H 56.7267 -0.260499 2.02834 0
M  V30 589 H 54.8817 -2.5942 2.87715 0
M  V30 590 H 55.2957 -1.77745 4.93464 0
M  V30 591 H 56.7697 -3.38759 4.35828 0
M  V30 592 H 57.2467 -3.4909 2.6652 0
M  V30 593 H 57.8527 -2.15271 3.66795 0
M  V30 594 N 56.1678 -1.49265 -0.50573 0
M  V30 595 C 57.0978 -1.68495 -1.61653 0
M  V30 596 C 58.0788 -0.53366 -1.61512 0
M  V30 597 O 59.2638 -0.76897 -1.78327 0
M  V30 598 C 56.3938 -1.74709 -3.00157 0
M  V30 599 C 55.3478 -2.89581 -3.15162 0
M  V30 600 C 54.6738 -2.80903 -4.5497 0
M  V30 601 C 55.9738 -4.30578 -2.95634 0
M  V30 602 H 57.6678 -2.61493 -1.45814 0
M  V30 603 H 55.2138 -1.25838 -0.70005 0
M  V30 604 H 57.1668 -1.86748 -3.77761 0
M  V30 605 H 55.8908 -0.783067 -3.17074 0
M  V30 606 H 54.5498 -2.77136 -2.39982 0
M  V30 607 H 54.1978 -1.82419 -4.68756 0
M  V30 608 H 53.8978 -3.57999 -4.65951 0
M  V30 609 H 55.4218 -2.94944 -5.34641 0
M  V30 610 H 56.8358 -4.4373 -3.63011 0
M  V30 611 H 55.2328 -5.0886 -3.18091 0
M  V30 612 H 56.3028 -4.45352 -1.91806 0
M  V30 613 N 57.6459 0.756429 -1.3826 0
M  V30 614 C 58.5759 1.88374 -1.37976 0
M  V30 615 C 59.5569 1.68311 -0.246082 0
M  V30 616 O 60.7419 1.88944 -0.44874 0
M  V30 617 C 57.8719 3.25864 -1.20125 0
M  V30 618 C 56.8259 3.60523 -2.30666 0
M  V30 619 C 56.1519 4.9672 -1.97923 0
M  V30 620 C 57.4519 3.65692 -3.72916 0
M  V30 621 H 59.1459 1.88869 -2.32312 0
M  V30 622 H 56.6919 0.907272 -1.11824 0
M  V30 623 H 58.6449 4.0438 -1.18552 0
M  V30 624 H 57.3689 3.25841 -0.222498 0
M  V30 625 H 56.0279 2.84324 -2.3142 0
M  V30 626 H 55.6759 4.93253 -0.985393 0
M  V30 627 H 55.3759 5.20878 -2.71955 0
M  V30 628 H 56.8999 5.77618 -1.97964 0
M  V30 629 H 58.3139 4.34328 -3.74208 0
M  V30 630 H 56.7109 4.01358 -4.4613 0
M  V30 631 H 57.7809 2.65987 -4.05436 0
M  V30 632 N 59.124 1.23083 0.984299 0
M  V30 633 C 60.352 1.08714 1.76037 0
M  V30 634 C 60.767 -0.361691 1.85303 0
M  V30 635 O 60.124 -1.25034 1.32939 0
M  V30 636 C 60.175 1.70206 3.18923 0
M  V30 637 O 59.896 3.09423 3.10144 0
M  V30 638 C 61.397 1.61227 4.12941 0
M  V30 639 H 58.617 0.380664 0.552572 0
M  V30 640 H 61.161 1.62853 1.23689 0
M  V30 641 H 59.316 1.20109 3.6831 0
M  V30 642 H 59.73 3.39188 4.00065 0
M  V30 643 H 61.204 2.08962 5.10919 0
M  V30 644 H 61.681 0.570375 4.35481 0
M  V30 645 H 62.287 2.10671 3.69456 0
M  V30 646 N 60.6021 -1.18246 1.0419 0
M  V30 647 C 61.8501 -1.87886 0.744543 0
M  V30 648 C 62.1711 -1.8082 -0.730006 0
M  V30 649 O 61.4411 -1.22736 -1.52685 0
M  V30 650 H 60.0211 -0.695556 0.272417 0
M  V30 651 H 62.6831 -1.43494 1.31892 0
M  V30 652 H 61.7791 -2.9389 1.05049 0
M  V30 653 N 62.0802 -0.821533 -1.34494 0
M  V30 654 C 63.3282 -0.408139 -1.97936 0
M  V30 655 C 63.6492 1.03193 -1.65457 0
M  V30 656 O 62.9192 1.71622 -0.944595 0
M  V30 657 H 61.4992 -0.147928 -0.732206 0
M  V30 658 H 64.1612 -1.05067 -1.64155 0
M  V30 659 H 63.2572 -0.52601 -3.07635 0
M  V30 660 N 63.5583 1.46682 -0.576371 0
M  V30 661 C 64.9693 1.86112 -0.148091 0
M  V30 662 C 65.3203 1.48073 1.2872 0
M  V30 663 O 64.4453 0.892656 1.97131 0
M  V30 664 C 65.0403 3.37786 -0.261982 0
M  V30 665 C 63.5993 3.76235 0.111384 0
M  V30 666 C 62.7463 2.70713 -0.60083 0
M  V30 667 H 65.6973 1.37927 -0.78497 0
M  V30 668 H 65.7183 3.77007 0.514364 0
M  V30 669 H 65.2303 3.6544 -1.30671 0
M  V30 670 H 63.3313 3.54198 1.15649 0
M  V30 671 H 63.4443 4.78391 -0.26052 0
M  V30 672 H 61.8083 2.54666 -0.0417783 0
M  V30 673 H 62.5913 3.01208 -1.64708 0
M  V30 674 N 65.0364 0.313813 1.54444 0
M  V30 675 C 65.9994 -0.54379 2.22656 0
M  V30 676 C 66.9994 -1.05124 1.21678 0
M  V30 677 O 68.1894 -0.945225 1.46325 0
M  V30 678 C 65.3214 -1.75427 2.92298 0
M  V30 679 H 66.5144 0.0523599 2.99854 0
M  V30 680 H 64.0674 0.0647834 1.56166 0
M  V30 681 H 64.8024 -2.38991 2.19211 0
M  V30 682 H 64.5874 -1.39791 3.66334 0
M  V30 683 H 66.0774 -2.36325 3.44297 0
M  V30 684 N 66.5145 -1.57545 0.0417849 0
M  V30 685 C 67.4445 -2.14009 -0.933929 0
M  V30 686 C 68.4255 -1.05938 -1.33083 0
M  V30 687 O 69.6105 -1.33833 -1.40721 0
M  V30 688 C 66.7405 -2.67747 -2.21199 0
M  V30 689 C 65.6945 -3.80718 -1.95544 0
M  V30 690 C 65.0205 -4.20935 -3.29724 0
M  V30 691 C 66.3205 -5.06258 -1.28452 0
M  V30 692 H 68.0145 -2.95788 -0.463645 0
M  V30 693 H 65.5605 -1.42285 -0.221573 0
M  V30 694 H 67.5135 -3.05886 -2.89848 0
M  V30 695 H 66.2375 -1.83147 -2.70416 0
M  V30 696 H 64.8965 -3.43037 -1.2931 0
M  V30 697 H 64.5445 -3.33298 -3.76724 0
M  V30 698 H 64.2445 -4.9707 -3.13361 0
M  V30 699 H 65.7685 -4.61666 -3.9962 0
M  V30 700 H 67.1825 -5.41903 -1.8712 0
M  V30 701 H 65.5795 -5.87475 -1.22445 0
M  V30 702 H 66.6495 -4.84207 -0.259219 0
M  V30 703 N 67.9926 0.231505 -1.5589 0
M  V30 704 C 69.2696 0.981096 -1.69215 0
M  V30 705 C 69.6496 2.02799 -0.586164 0
M  V30 706 O 68.9976 2.24823 0.408253 0
M  V30 707 C 69.2076 1.60054 -3.10135 0
M  V30 708 C 70.5556 2.09658 -3.69227 0
M  V30 709 O 71.5796 1.69967 -3.13033 0
M  V30 710 O 70.4386 2.8258 -4.67772 0
M  V30 711 H 67.5326 0.457653 -0.688827 0
M  V30 712 H 70.0786 0.224073 -1.68214 0
M  V30 713 H 68.8506 0.844105 -3.82087 0
M  V30 714 H 68.4736 2.42336 -3.15212 0
M  V30 715 N 69.4707 1.49531 0.497807 0
M  V30 716 C 70.8817 1.52344 1.07927 0
M  V30 717 C 71.2327 0.311469 1.93712 0
M  V30 718 O 70.3577 -0.578405 2.08527 0
M  V30 719 C 70.9527 2.76062 1.96405 0
M  V30 720 C 69.5117 2.81643 2.49709 0
M  V30 721 C 68.6587 2.46299 1.27404 0
M  V30 722 H 71.6097 1.56182 0.281576 0
M  V30 723 H 71.6307 2.56405 2.81135 0
M  V30 724 H 71.1427 3.64254 1.33943 0
M  V30 725 H 69.2437 1.97739 3.15801 0
M  V30 726 H 69.3567 3.83891 2.86643 0
M  V30 727 H 67.7207 1.98148 1.60029 0
M  V30 728 H 68.5037 3.36769 0.66645 0
M  V30 729 N 70.9488 -0.749086 1.3866 0
M  V30 730 C 71.9118 -1.84457 1.36045 0
M  V30 731 C 72.9118 -1.58682 0.260122 0
M  V30 732 O 74.1018 -1.66343 0.517261 0
M  V30 733 C 71.2338 -3.22008 1.11911 0
M  V30 734 H 72.4268 -1.88182 2.33512 0
M  V30 735 H 69.9798 -0.951266 1.24019 0
M  V30 736 H 70.7148 -3.2395 0.150686 0
M  V30 737 H 70.4998 -3.42111 1.91579 0
M  V30 738 H 71.9898 -4.0208 1.12788 0
M  V30 739 N 72.4269 -1.23603 -0.977757 0
M  V30 740 C 73.7039 -0.977897 -1.69401 0
M  V30 741 C 74.0839 0.502738 -2.05026 0
M  V30 742 O 73.4319 1.47459 -1.74551 0
M  V30 743 C 73.6419 -1.89077 -2.93345 0
M  V30 744 C 74.9899 -2.15579 -3.65802 0
M  V30 745 O 76.0139 -1.86648 -3.03383 0
M  V30 746 O 74.8729 -2.64658 -4.78141 0
M  V30 747 H 71.9669 -0.369025 -0.740101 0
M  V30 748 H 74.5129 -1.34657 -1.03274 0
M  V30 749 H 73.2849 -2.89158 -2.63634 0
M  V30 750 H 72.9079 -1.52463 -3.67207 0
M  V30 751 N 73.905 1.17692 -1.04816 0
M  V30 752 C 75.13 1.92327 -0.776207 0
M  V30 753 C 75.555 1.76082 0.661581 0
M  V30 754 O 74.913 1.076 1.45917 0
M  V30 755 C 74.961 3.41539 -1.15687 0
M  V30 756 O 74.065 4.11402 -0.286775 0
M  V30 757 H 73.406 0.599735 -0.284981 0
M  V30 758 H 75.936 1.49201 -1.4 0
M  V30 759 H 75.946 3.92269 -1.12202 0
M  V30 760 H 74.621 3.52684 -2.20425 0
M  V30 761 H 73.198 3.70939 -0.381903 0
M  V30 762 N 75.3831 0.828654 1.34056 0
M  V30 763 C 76.6601 0.341809 1.9259 0
M  V30 764 C 77.0401 -1.17158 1.75605 0
M  V30 765 O 76.3881 -1.98132 1.13824 0
M  V30 766 C 76.5981 0.777453 3.4023 0
M  V30 767 C 77.9461 0.779579 4.17382 0
M  V30 768 O 78.9701 0.7204 3.48839 0
M  V30 769 O 77.8291 0.857996 5.39723 0
M  V30 770 H 74.9231 0.0946085 0.821571 0
M  V30 771 H 77.4691 0.913827 1.42994 0
M  V30 772 H 76.2411 1.8196 3.46419 0
M  V30 773 H 75.8641 0.181444 3.97186 0
M  V30 774 N 76.8612 -1.46375 0.584142 0
M  V30 775 C 78.1102 -2.01585 0.0679741 0
M  V30 776 C 78.4232 -1.46109 -1.30045 0
M  V30 777 O 79.6292 -1.93148 -1.90804 0
M  V30 778 C 78.0852 -3.5983 0.0709207 0
M  V30 779 C 77.6932 -4.24303 1.43775 0
M  V30 780 C 79.4372 -4.22693 -0.391228 0
M  V30 781 C 77.3442 -5.74631 1.39834 0
M  V30 782 H 76.2742 -0.753689 0.0216421 0
M  V30 783 H 78.9252 -1.68093 0.736001 0
M  V30 784 H 77.3072 -3.90405 -0.663299 0
M  V30 785 H 78.4812 -4.05335 2.19181 0
M  V30 786 H 76.7962 -3.73539 1.84004 0
M  V30 787 H 79.3932 -5.3289 -0.439524 0
M  V30 788 H 79.7362 -3.91728 -1.40906 0
M  V30 789 H 80.2692 -3.96749 0.288974 0
M  V30 790 H 77.0082 -6.10258 2.39303 0
M  V30 791 H 76.5282 -5.95858 0.686505 0
M  V30 792 H 78.2072 -6.37375 1.11187 0
M  V30 793 N 78.3393 -0.321999 -1.54275 0
M  V30 794 C 79.3023 0.531975 -2.22941 0
M  V30 795 C 80.3023 1.04478 -1.22234 0
M  V30 796 O 81.4923 0.937452 -1.46825 0
M  V30 797 C 78.6243 1.73874 -2.93224 0
M  V30 798 H 79.8173 -0.0682612 -2.99822 0
M  V30 799 H 77.3703 -0.0730644 -1.56129 0
M  V30 800 H 78.1053 2.37825 -2.20476 0
M  V30 801 H 77.8903 1.37847 -3.6707 0
M  V30 802 H 79.3803 2.34496 -3.45545 0
M  V30 803 N 79.8174 1.5752 -0.0501392 0
M  V30 804 C 80.7804 2.1037 0.909786 0
M  V30 805 C 81.7804 1.02308 1.24056 0
M  V30 806 O 82.9704 1.28385 1.17741 0
M  V30 807 C 80.1024 2.58708 2.21998 0
M  V30 808 H 81.2954 2.96479 0.451665 0
M  V30 809 H 78.8484 1.55038 0.198248 0
M  V30 810 H 79.5834 1.75989 2.72394 0
M  V30 811 H 79.3684 3.37675 1.99295 0
M  V30 812 H 80.8584 2.99747 2.9076 0
M  V30 813 N 81.2955 -0.223234 1.56011 0
M  V30 814 C 82.7115 -0.572856 1.48965 0
M  V30 815 C 82.9115 -1.87225 0.74492 0
M  V30 816 O 81.9675 -2.50899 0.283896 0
M  V30 817 C 83.2805 -0.653646 2.9351 0
M  V30 818 C 84.8285 -0.744386 3.0402 0
M  V30 819 C 85.3035 -0.856535 4.49919 0
M  V30 820 N 86.7945 -0.9208 4.53955 0
M  V30 821 C 87.5295 -1.02726 5.64123 0
M  V30 822 N 87.0255 -1.09777 6.84047 0
M  V30 823 N 88.8185 -1.06226 5.51971 0
M  V30 824 H 80.9695 0.629462 2.02858 0
M  V30 825 H 83.2325 0.220621 0.921971 0
M  V30 826 H 82.9385 0.231518 3.50937 0
M  V30 827 H 82.8125 -1.51781 3.45315 0
M  V30 828 H 85.1995 -1.61999 2.46658 0
M  V30 829 H 85.2805 0.14541 2.55386 0
M  V30 830 H 84.9245 0.0146069 5.07898 0
M  V30 831 H 84.8545 -1.76172 4.96257 0
M  V30 832 H 87.3455 -0.876694 3.6759 0
M  V30 833 H 87.6585 -1.17872 7.63758 0
M  V30 834 H 86.0035 -1.06693 6.86762 0
M  V30 835 H 89.1945 -1.00382 4.5721 0
M  V30 836 H 89.3675 -1.14177 6.37862 0
M  V30 837 N 82.7736 -1.49793 -0.48987 0
M  V30 838 C 84.0016 -1.63568 -1.26701 0
M  V30 839 C 84.4166 -0.311465 -1.86213 0
M  V30 840 O 83.7736 0.704416 -1.68357 0
M  V30 841 C 83.8246 -2.71284 -2.38929 0
M  V30 842 O 83.5456 -3.9857 -1.81861 0
M  V30 843 C 85.0466 -2.95864 -3.3012 0
M  V30 844 H 82.2666 -0.550342 -0.383881 0
M  V30 845 H 84.8106 -1.95898 -0.586864 0
M  V30 846 H 82.9656 -2.417 -3.02753 0
M  V30 847 H 83.3796 -4.57993 -2.55622 0
M  V30 848 H 84.8536 -3.74941 -4.05121 0
M  V30 849 H 85.3306 -2.06206 -3.87783 0
M  V30 850 H 85.9366 -3.26907 -2.72051 0
M  V30 851 N 84.2517 0.741722 -1.39055 0
M  V30 852 C 85.5287 1.49252 -1.26425 0
M  V30 853 C 85.9087 2.10705 0.129144 0
M  V30 854 O 85.2567 1.98045 1.13976 0
M  V30 855 C 85.4667 2.54934 -2.38347 0
M  V30 856 C 86.8147 3.21506 -2.77343 0
M  V30 857 O 87.8387 2.65245 -2.37747 0
M  V30 858 O 86.6977 4.23294 -3.45665 0
M  V30 859 H 83.7917 0.662451 -0.495064 0
M  V30 860 H 86.3377 0.776121 -1.50912 0
M  V30 861 H 85.1097 2.07857 -3.31529 0
M  V30 862 H 84.7327 3.34141 -2.15489 0
M  V30 863 N 85.7298 1.2412 0.971189 0
M  V30 864 C 86.6768 1.0305 2.06517 0
M  V30 865 C 87.6468 -0.0550666 1.66009 0
M  V30 866 O 88.8318 0.0988688 1.90544 0
M  V30 867 C 85.9718 0.637653 3.39158 0
M  V30 868 C 85.0848 1.79633 3.92882 0
M  V30 869 C 84.2198 1.34939 5.13775 0
M  V30 870 C 83.2588 2.47823 5.59687 0
M  V30 871 N 82.3958 2.04022 6.71803 0
M  V30 872 H 87.2358 1.96685 2.23873 0
M  V30 873 H 84.7728 0.979694 1.09729 0
M  V30 874 H 86.7308 0.390931 4.15364 0
M  V30 875 H 85.3608 -0.261693 3.21737 0
M  V30 876 H 84.4128 2.15681 3.13346 0
M  V30 877 H 85.7248 2.64466 4.22918 0
M  V30 878 H 84.8788 1.06134 5.97345 0
M  V30 879 H 83.6178 0.471557 4.85415 0
M  V30 880 H 82.6228 2.77392 4.74693 0
M  V30 881 H 83.8478 3.36158 5.90063 0
M  V30 882 H 81.7938 1.18632 6.45184 0
M  V30 883 H 81.7108 2.82409 7.01271 0
M  V30 884 H 82.9788 1.78347 7.58823 0
M  V30 885 N 87.2079 -1.17134 1.05439 0
M  V30 886 C 88.1379 -2.2342 0.678649 0
M  V30 887 C 89.1189 -1.66971 -0.32476 0
M  V30 888 O 90.3039 -1.93149 -0.201802 0
M  V30 889 C 87.4339 -3.47256 0.0552099 0
M  V30 890 C 86.3879 -4.16543 0.98365 0
M  V30 891 C 85.7139 -5.34231 0.223961 0
M  V30 892 C 87.0139 -4.68495 2.3089 0
M  V30 893 H 88.7079 -2.55105 1.56722 0
M  V30 894 H 86.2539 -1.2262 0.754998 0
M  V30 895 H 88.2069 -4.20828 -0.21946 0
M  V30 896 H 86.9309 -3.14846 -0.868319 0
M  V30 897 H 85.5899 -3.44887 1.24293 0
M  V30 898 H 85.2379 -4.98071 -0.702412 0
M  V30 899 H 84.9379 -5.81527 0.842627 0
M  V30 900 H 86.4619 -6.10585 -0.0433671 0
M  V30 901 H 87.8759 -5.33691 2.09396 0
M  V30 902 H 86.2729 -5.26379 2.88176 0
M  V30 903 H 87.3429 -3.85169 2.94572 0
M  V30 904 N 88.686 -0.835752 -1.33615 0
M  V30 905 C 89.649 -0.272 -2.2758 0
M  V30 906 C 90.649 0.557487 -1.50827 0
M  V30 907 O 91.839 0.37173 -1.70188 0
M  V30 908 C 88.971 0.617173 -3.35267 0
M  V30 909 H 90.164 -1.10111 -2.78954 0
M  V30 910 H 87.717 -0.608594 -1.43965 0
M  V30 911 H 88.452 1.46884 -2.89129 0
M  V30 912 H 88.237 0.0237066 -3.92093 0
M  V30 913 H 89.727 1.005 -4.05326 0
M  V30 914 N 90.1641 1.46063 -0.591896 0
M  V30 915 C 91.0961 2.28539 0.174001 0
M  V30 916 C 92.1091 1.39047 0.846753 0
M  V30 917 O 93.2981 1.63564 0.714774 0
M  V30 918 C 90.3981 3.14347 1.26645 0
M  V30 919 C 89.5711 4.32021 0.683856 0
M  V30 920 C 88.6301 4.99157 1.66518 0
M  V30 921 O 87.6561 5.56458 1.19763 0
M  V30 922 N 88.8581 4.97005 2.99943 0
M  V30 923 H 91.6231 2.94911 -0.533633 0
M  V30 924 H 89.1841 1.56077 -0.430294 0
M  V30 925 H 91.1761 3.56125 1.92242 0
M  V30 926 H 89.7461 2.49988 1.87682 0
M  V30 927 H 88.9661 3.93915 -0.1498 0
M  V30 928 H 90.2541 5.08059 0.274567 0
M  V30 929 H 89.6521 4.51714 3.40545 0
M  V30 930 H 88.2091 5.42696 3.61004 0
M  V30 931 N 91.6422 0.330177 1.54103 0
M  V30 932 C 92.9192 -0.325007 1.92881 0
M  V30 933 C 93.2992 -1.6934 1.26045 0
M  V30 934 O 92.6472 -2.24855 0.406526 0
M  V30 935 C 92.8572 -0.410634 3.46576 0
M  V30 936 C 94.2052 -0.667801 4.19316 0
M  V30 937 O 95.2292 -0.49329 3.52768 0
M  V30 938 O 94.0882 -1.00491 5.37181 0
M  V30 939 H 91.1822 -0.186873 0.80561 0
M  V30 940 H 93.7282 0.380376 1.65382 0
M  V30 941 H 92.5002 0.550164 3.87413 0
M  V30 942 H 92.1232 -1.16333 3.802 0
M  V30 943 N 93.1203 -1.57491 0.0584922 0
M  V30 944 C 94.0833 -2.1085 -0.898617 0
M  V30 945 C 95.0833 -1.02964 -1.23511 0
M  V30 946 O 96.2733 -1.29007 -1.17059 0
M  V30 947 C 93.4053 -2.59881 -2.20623 0
M  V30 948 H 94.5983 -2.96715 -0.435936 0
M  V30 949 H 92.1513 -1.55141 -0.190023 0
M  V30 950 H 92.8863 -1.77431 -2.71457 0
M  V30 951 H 92.6713 -3.38727 -1.97501 0
M  V30 952 H 94.1613 -3.01285 -2.89166 0
M  V30 953 N 94.5984 0.214957 -1.56127 0
M  V30 954 C 95.5464 1.28601 -1.93816 0
M  V30 955 C 96.5404 1.48175 -0.821016 0
M  V30 956 O 97.7464 1.49271 -1.0059 0
M  V30 957 H 94.1214 0.431302 -0.616022 0
M  V30 958 H 96.0924 0.940991 -2.83175 0
M  V30 959 C 94.8414 2.62779 -2.27689 0
M  V30 960 H 94.1644 2.48527 -3.13168 0
M  V30 961 H 95.6044 3.36517 -2.57939 0
M  V30 962 C 94.0634 3.18285 -1.10436 0
M  V30 963 O 94.5934 4.00002 -0.368945 0
M  V30 964 N 92.7994 2.7675 -0.886433 0
M  V30 965 H 92.3464 2.10404 -1.48619 0
M  V30 966 H 92.3044 3.14229 -0.103656 0
M  V30 967 N 96.0765 1.50051 0.48192 0
M  V30 968 C 97.3535 1.51009 1.2432 0
M  V30 969 C 97.7335 0.248587 2.09631 0
M  V30 970 O 97.0815 -0.768409 2.15192 0
M  V30 971 C 97.2915 2.79981 2.08355 0
M  V30 972 C 98.6395 3.3022 2.66908 0
M  V30 973 O 99.6635 2.81228 2.18607 0
M  V30 974 O 98.5225 4.15595 3.54884 0
M  V30 975 H 95.6165 0.605239 0.563573 0
M  V30 976 H 98.1625 1.62332 0.494627 0
M  V30 977 H 96.9345 3.63275 1.45419 0
M  V30 978 H 96.5575 2.7161 2.90368 0
M  V30 979 N 97.5546 -0.734337 1.39446 0
M  V30 980 C 98.7846 -1.52137 1.39778 0
M  V30 981 C 99.1926 -1.89198 -0.00929312 0
M  V30 982 O 98.5356 -1.54666 -0.991168 0
M  V30 983 C 98.5976 -2.83762 2.20724 0
M  V30 984 C 98.2616 -2.69131 3.69347 0
M  V30 985 C 99.2586 -2.37635 4.62413 0
M  V30 986 C 96.9436 -2.85982 4.1294 0
M  V30 987 C 98.9376 -2.23172 5.97054 0
M  V30 988 C 96.6246 -2.71137 5.47657 0
M  V30 989 C 97.6226 -2.39777 6.39528 0
M  V30 990 O 97.3106 -2.25026 7.71763 0
M  V30 991 H 97.0426 -0.476717 0.479288 0
M  V30 992 H 99.5966 -0.915012 1.83893 0
M  V30 993 H 97.8266 -3.4666 1.71359 0
M  V30 994 H 99.5156 -3.45383 2.13226 0
M  V30 995 H 100.282 -2.24267 4.30034 0
M  V30 996 H 96.1606 -3.09383 3.41765 0
M  V30 997 H 99.7046 -1.98617 6.68728 0
M  V30 998 H 95.6016 -2.84083 5.79626 0
M  V30 999 H 96.3696 -2.40091 7.82495 0
M  V30 1000 N 99.0327 -1.24633 -0.964593 0
M  V30 1001 C 100.279 -1.09957 -1.71117 0
M  V30 1002 C 100.634 0.357422 -1.89051 0
M  V30 1003 O 99.9267 1.26029 -1.44317 0
M  V30 1004 C 100.121 -1.7763 -3.10133 0
M  V30 1005 C 99.9497 -3.29759 -3.05759 0
M  V30 1006 C 98.7197 -3.98981 -3.10068 0
M  V30 1007 C 100.918 -4.26305 -2.87695 0
M  V30 1008 N 98.8997 -5.37966 -2.95747 0
M  V30 1009 C 100.271 -5.52308 -2.81702 0
M  V30 1010 C 102.326 -4.16842 -2.72299 0
M  V30 1011 C 101.029 -6.69931 -2.61887 0
M  V30 1012 C 103.055 -5.34147 -2.53853 0
M  V30 1013 C 102.417 -6.59084 -2.48572 0
M  V30 1014 H 98.5157 -0.457003 -0.634564 0
M  V30 1015 H 101.1 -1.57592 -1.14337 0
M  V30 1016 H 99.2707 -1.32504 -3.65099 0
M  V30 1017 H 101.003 -1.55786 -3.73514 0
M  V30 1018 H 97.7577 -3.50169 -3.18871 0
M  V30 1019 H 98.1817 -6.10877 -2.91818 0
M  V30 1020 H 102.824 -3.21007 -2.75163 0
M  V30 1021 H 100.542 -7.65886 -2.57767 0
M  V30 1022 H 104.128 -5.28678 -2.4288 0
M  V30 1023 H 103.008 -7.48324 -2.34481 0
M  V30 1024 N 100.511 1.16574 -1.06058 0
M  V30 1025 C 101.421 2.2452 -0.680282 0
M  V30 1026 C 102.437 1.71348 0.302604 0
M  V30 1027 O 103.613 2.00822 0.152513 0
M  V30 1028 C 100.678 3.46629 -0.0700315 0
M  V30 1029 C 99.7388 4.14849 -1.10448 0
M  V30 1030 C 98.9718 5.31129 -0.523256 0
M  V30 1031 O 99.1948 5.66514 0.664709 0
M  V30 1032 O 98.1288 5.88526 -1.26179 0
M  V30 1033 H 101.955 2.59355 -1.58015 0
M  V30 1034 H 99.5398 1.24043 -0.832694 0
M  V30 1035 H 101.422 4.20543 0.268667 0
M  V30 1036 H 100.097 3.13573 0.803353 0
M  V30 1037 H 99.0038 3.42916 -1.49532 0
M  V30 1038 H 100.337 4.51954 -1.94931 0
M  V30 1039 N 101.989 0.842826 1.3317 0
M  V30 1040 C 103.266 0.362216 1.92217 0
M  V30 1041 C 103.646 -1.15289 1.76838 0
M  V30 1042 O 102.994 -1.96914 1.15919 0
M  V30 1043 C 103.204 0.813495 3.39387 0
M  V30 1044 C 104.552 0.823804 4.16532 0
M  V30 1045 O 105.576 0.757358 3.48055 0
M  V30 1046 O 104.435 0.915193 5.38782 0
M  V30 1047 H 101.529 0.103317 0.820521 0
M  V30 1048 H 104.075 0.928942 1.42017 0
M  V30 1049 H 102.847 1.85624 3.4447 0
M  V30 1050 H 102.47 0.223561 3.96971 0
M  V30 1051 N 103.467 -1.45747 0.599634 0
M  V30 1052 C 104.4 -2.27547 -0.172552 0
M  V30 1053 C 105.378 -1.36657 -0.881116 0
M  V30 1054 O 106.562 -1.66081 -0.891595 0
M  V30 1055 C 103.689 -3.14829 -1.24903 0
M  V30 1056 C 102.735 -4.21603 -0.644465 0
M  V30 1057 S 103.568 -5.32754 0.541606 0
M  V30 1058 C 104.724 -6.23604 -0.535656 0
M  V30 1059 H 104.957 -2.92691 0.521468 0
M  V30 1060 H 102.49 -1.49473 0.386947 0
M  V30 1061 H 104.448 -3.65675 -1.86527 0
M  V30 1062 H 103.109 -2.48965 -1.91508 0
M  V30 1063 H 102.302 -4.82566 -1.45417 0
M  V30 1064 H 101.904 -3.73857 -0.103534 0
M  V30 1065 H 104.196 -6.62519 -1.41686 0
M  V30 1066 H 105.139 -7.0809 0.0376246 0
M  V30 1067 H 105.547 -5.58103 -0.84741 0
M  V30 1068 N 104.945 -0.338344 -1.53925 0
M  V30 1069 C 106.222 0.314774 -1.93051 0
M  V30 1070 C 106.602 1.68669 -1.26941 0
M  V30 1071 O 105.95 2.24636 -0.418445 0
M  V30 1072 C 106.16 0.392249 -3.46789 0
M  V30 1073 C 107.508 0.645554 -4.19664 0
M  V30 1074 O 108.532 0.474575 -3.53024 0
M  V30 1075 O 107.391 0.976408 -5.37707 0
M  V30 1076 H 104.485 0.182598 -0.80659 0
M  V30 1077 H 107.031 -0.389141 -1.65178 0
M  V30 1078 H 105.803 -0.570702 -3.87116 0
M  V30 1079 H 105.426 1.14316 -3.80812 0
M  V30 1080 N 106.423 1.57458 -0.0668435 0
M  V30 1081 C 107.353 2.15468 0.899764 0
M  V30 1082 C 108.334 1.08042 1.31381 0
M  V30 1083 O 109.519 1.36054 1.38574 0
M  V30 1084 C 106.649 2.71232 2.16911 0
M  V30 1085 C 105.603 3.83781 1.89463 0
M  V30 1086 C 104.929 4.26127 3.22986 0
M  V30 1087 C 106.229 5.08238 1.20381 0
M  V30 1088 H 107.923 2.96488 0.416529 0
M  V30 1089 H 105.469 1.4262 0.198908 0
M  V30 1090 H 107.422 3.10458 2.84945 0
M  V30 1091 H 106.146 1.87426 2.67468 0
M  V30 1092 H 104.805 3.45051 1.23836 0
M  V30 1093 H 104.453 3.39249 3.71374 0
M  V30 1094 H 104.153 5.01993 3.05413 0
M  V30 1095 H 105.677 4.67966 3.92225 0
M  V30 1096 H 107.091 5.44811 1.78475 0
M  V30 1097 H 105.488 5.89349 1.13083 0
M  V30 1098 H 106.558 4.84558 0.182153 0
M  V30 1099 N 107.901 -0.206675 1.56239 0
M  V30 1100 C 109.126 -0.949474 1.8439 0
M  V30 1101 C 109.551 -1.76549 0.649016 0
M  V30 1102 O 108.909 -1.76782 -0.402231 0
M  V30 1103 C 108.957 -1.83078 3.10668 0
M  V30 1104 O 108.061 -2.9281 2.90407 0
M  V30 1105 H 107.402 -0.268033 0.607499 0
M  V30 1106 H 109.932 -0.215488 2.03462 0
M  V30 1107 H 109.942 -2.2377 3.41161 0
M  V30 1108 H 108.617 -1.23112 3.97261 0
M  V30 1109 H 107.194 -2.55956 2.71184 0
M  V30 1110 N 109.379 -1.50304 -0.473955 0
M  V30 1111 C 110.604 -1.65175 -1.25427 0
M  V30 1112 C 111.029 -0.333673 -1.85117 0
M  V30 1113 O 110.387 0.702114 -1.67153 0
M  V30 1114 C 110.435 -2.74295 -2.34082 0
M  V30 1115 O 109.539 -2.35349 -3.38651 0
M  V30 1116 H 108.88 -0.551944 -0.369126 0
M  V30 1117 H 111.41 -1.96662 -0.564364 0
M  V30 1118 H 111.42 -2.97285 -2.79438 0
M  V30 1119 H 110.095 -3.69959 -1.90008 0
M  V30 1120 H 108.672 -2.22794 -2.99027 0
M  V30 1121 N 110.857 0.726932 -1.39834 0
M  V30 1122 C 112.082 1.52121 -1.40976 0
M  V30 1123 C 112.507 1.88098 -0.00826029 0
M  V30 1124 O 111.865 1.52479 0.980807 0
M  V30 1125 C 111.913 2.78021 -2.29644 0
M  V30 1126 O 111.017 3.74272 -1.73188 0
M  V30 1127 H 110.358 0.45908 -0.479731 0
M  V30 1128 H 112.888 0.896207 -1.83927 0
M  V30 1129 H 112.898 3.26671 -2.44438 0
M  V30 1130 H 111.573 2.51169 -3.31492 0
M  V30 1131 H 110.15 3.33073 -1.6768 0
M  V30 1132 N 112.336 1.25143 0.95797 0
M  V30 1133 C 113.752 1.01892 1.22842 0
M  V30 1134 C 113.952 -0.266311 1.99732 0
M  V30 1135 O 113.008 -0.979913 2.3271 0
M  V30 1136 C 114.321 2.24004 2.00606 0
M  V30 1137 C 115.869 2.28731 2.13662 0
M  V30 1138 C 116.344 3.5049 2.94823 0
M  V30 1139 N 117.835 3.50866 3.02403 0
M  V30 1140 C 118.57 4.4174 3.65586 0
M  V30 1141 N 118.066 5.42882 4.30408 0
M  V30 1142 N 119.859 4.29429 3.62694 0
M  V30 1143 H 112.01 2.07718 0.443493 0
M  V30 1144 H 114.273 0.912031 0.258657 0
M  V30 1145 H 113.979 3.17395 1.51503 0
M  V30 1146 H 113.853 2.26907 3.01319 0
M  V30 1147 H 116.24 1.35865 2.61963 0
M  V30 1148 H 116.321 2.29848 1.12265 0
M  V30 1149 H 115.965 4.43676 2.47213 0
M  V30 1150 H 115.895 3.46617 3.96439 0
M  V30 1151 H 118.386 2.777 2.56302 0
M  V30 1152 H 118.699 6.0844 4.76467 0
M  V30 1153 H 117.044 5.46758 4.29047 0
M  V30 1154 H 120.235 3.49643 3.11236 0
M  V30 1155 H 120.408 5.00448 4.1165 0
M  V30 1156 N 113.814 -1.1601 1.06675 0
M  V30 1157 C 115.042 -1.90527 0.806667 0
M  V30 1158 C 115.457 -1.77643 -0.639396 0
M  V30 1159 O 114.814 -1.12369 -1.43803 0
M  V30 1160 C 114.865 -3.41106 1.19705 0
M  V30 1161 O 114.586 -3.53608 2.58636 0
M  V30 1162 C 116.087 -4.32663 0.965266 0
M  V30 1163 H 113.307 -0.604053 0.292166 0
M  V30 1164 H 115.851 -1.47026 1.4214 0
M  V30 1165 H 114.006 -3.82296 0.626774 0
M  V30 1166 H 114.42 -4.47011 2.74375 0
M  V30 1167 H 115.894 -5.36763 1.288 0
M  V30 1168 H 116.371 -4.39089 -0.0987936 0
M  V30 1169 H 116.977 -3.97206 1.52011 0
M  V30 1170 N 115.292 -0.849877 -1.32721 0
M  V30 1171 C 116.522 -0.46408 -2.0132 0
M  V30 1172 C 116.93 0.94246 -1.64056 0
M  V30 1173 O 116.273 1.6257 -0.855379 0
M  V30 1174 C 116.335 -0.517887 -3.5575 0
M  V30 1175 C 115.999 -1.88248 -4.16427 0
M  V30 1176 C 116.996 -2.84726 -4.35002 0
M  V30 1177 C 114.681 -2.17832 -4.52609 0
M  V30 1178 C 116.675 -4.08945 -4.8892 0
M  V30 1179 C 114.362 -3.42304 -5.06232 0
M  V30 1180 C 115.36 -4.37677 -5.24335 0
M  V30 1181 O 115.048 -5.59946 -5.76815 0
M  V30 1182 H 114.78 -0.181327 -0.651227 0
M  V30 1183 H 117.334 -1.14713 -1.70382 0
M  V30 1184 H 115.564 0.221997 -3.86062 0
M  V30 1185 H 117.253 -0.148366 -4.05629 0
M  V30 1186 H 118.019 -2.63174 -4.07388 0
M  V30 1187 H 113.898 -1.44385 -4.37806 0
M  V30 1188 H 117.442 -4.83396 -5.02966 0
M  V30 1189 H 113.339 -3.63709 -5.33278 0
M  V30 1190 H 114.107 -5.61838 -5.95214 0
M  V30 1191 N 116.77 1.45427 -0.607355 0
M  V30 1192 C 118.019 2.01452 -0.100036 0
M  V30 1193 C 118.332 1.48159 1.27704 0
M  V30 1194 O 119.538 1.96159 1.87707 0
M  V30 1195 C 117.994 3.59672 -0.128158 0
M  V30 1196 C 117.602 4.21962 -1.50507 0
M  V30 1197 C 119.346 4.23262 0.323932 0
M  V30 1198 C 117.253 5.72333 -1.48959 0
M  V30 1199 H 116.183 0.75325 -0.0336299 0
M  V30 1200 H 118.834 1.66901 -0.76265 0
M  V30 1201 H 117.216 3.91411 0.601105 0
M  V30 1202 H 118.39 4.01796 -2.25602 0
M  V30 1203 H 116.705 3.70565 -1.89923 0
M  V30 1204 H 119.302 5.33522 0.354691 0
M  V30 1205 H 119.645 3.93921 1.34656 0
M  V30 1206 H 120.178 3.96239 -0.352056 0
M  V30 1207 H 116.917 6.06373 -2.48981 0
M  V30 1208 H 116.437 5.94691 -0.781214 0
M  V30 1209 H 118.116 6.35525 -1.21313 0
M  V30 1210 N 118.248 0.346503 1.53744 0
M  V30 1211 C 119.494 -0.242135 2.01954 0
M  V30 1212 C 119.849 -1.47962 1.22984 0
M  V30 1213 O 119.142 -1.89077 0.309924 0
M  V30 1214 C 119.336 -0.605809 3.52228 0
M  V30 1215 C 119.165 0.594882 4.45748 0
M  V30 1216 C 117.935 1.1011 4.93157 0
M  V30 1217 C 120.133 1.45425 4.93311 0
M  V30 1218 N 118.115 2.26381 5.70636 0
M  V30 1219 C 119.486 2.46383 5.68942 0
M  V30 1220 C 121.541 1.47935 4.75415 0
M  V30 1221 C 120.244 3.49684 6.28581 0
M  V30 1222 C 122.27 2.50119 5.35905 0
M  V30 1223 C 121.632 3.49803 6.11406 0
M  V30 1224 H 117.731 -0.0518296 0.780281 0
M  V30 1225 H 120.315 0.486736 1.88518 0
M  V30 1226 H 118.486 -1.30378 3.65864 0
M  V30 1227 H 120.218 -1.17789 3.87179 0
M  V30 1228 H 116.973 0.668721 4.68855 0
M  V30 1229 H 117.397 2.85094 6.14044 0
M  V30 1230 H 122.039 0.722274 4.16585 0
M  V30 1231 H 119.757 4.26285 6.86518 0
M  V30 1232 H 123.343 2.52892 5.23963 0
M  V30 1233 H 122.223 4.27576 6.5738 0
M  V30 1234 N 119.726 -1.57421 0.075193 0
M  V30 1235 C 120.956 -1.97659 -0.601203 0
M  V30 1236 C 121.364 -0.952427 -1.63479 0
M  V30 1237 O 120.707 0.0688241 -1.83571 0
M  V30 1238 C 120.769 -3.34218 -1.32434 0
M  V30 1239 C 120.433 -4.5484 -0.443826 0
M  V30 1240 C 121.43 -5.19034 0.299969 0
M  V30 1241 C 119.115 -5.00952 -0.367709 0
M  V30 1242 C 121.109 -6.27695 1.10807 0
M  V30 1243 C 118.796 -6.09484 0.444058 0
M  V30 1244 C 119.794 -6.72719 1.18061 0
M  V30 1245 O 119.482 -7.79161 1.97898 0
M  V30 1246 H 119.214 -0.65494 -0.167422 0
M  V30 1247 H 121.768 -2.04886 0.145157 0
M  V30 1248 H 119.998 -3.23615 -2.11685 0
M  V30 1249 H 121.687 -3.59038 -1.89331 0
M  V30 1250 H 122.453 -4.84351 0.250776 0
M  V30 1251 H 118.332 -4.51509 -0.930638 0
M  V30 1252 H 121.876 -6.76982 1.68347 0
M  V30 1253 H 117.773 -6.43601 0.494803 0
M  V30 1254 H 118.541 -7.96055 1.90367 0
M  V30 1255 N 121.204 0.198386 -1.56346 0
M  V30 1256 C 122.167 1.22952 -1.93431 0
M  V30 1257 C 123.167 1.38611 -0.815092 0
M  V30 1258 O 124.357 1.36479 -1.08255 0
M  V30 1259 C 121.489 2.59946 -2.20546 0
M  V30 1260 H 122.682 0.912626 -2.85677 0
M  V30 1261 H 120.235 0.43977 -1.49986 0
M  V30 1262 H 120.97 2.96696 -1.30927 0
M  V30 1263 H 120.755 2.49953 -3.02102 0
M  V30 1264 H 122.245 3.3431 -2.50253 0
M  V30 1265 N 122.682 1.50554 0.465978 0
M  V30 1266 C 123.612 1.72722 1.57128 0
M  V30 1267 C 124.593 0.576294 1.6004 0
M  V30 1268 O 125.778 0.81598 1.76225 0
M  V30 1269 C 122.908 1.82605 2.95419 0
M  V30 1270 C 121.862 2.97835 3.07373 0
M  V30 1271 C 121.188 2.92867 4.47363 0
M  V30 1272 C 122.488 4.38265 2.84114 0
M  V30 1273 H 124.182 2.65267 1.38829 0
M  V30 1274 H 121.728 1.2765 0.666441 0
M  V30 1275 H 123.681 1.96698 3.72677 0
M  V30 1276 H 122.405 0.866858 3.14886 0
M  V30 1277 H 121.064 2.83401 2.3255 0
M  V30 1278 H 120.712 1.94783 4.63755 0
M  V30 1279 H 120.412 3.70227 4.56296 0
M  V30 1280 H 121.936 3.09015 5.26633 0
M  V30 1281 H 123.35 4.53198 3.51118 0
M  V30 1282 H 121.747 5.17115 3.04487 0
M  V30 1283 H 122.817 4.50281 1.7993 0
M  V30 1284 N 124.16 -0.719506 1.40217 0
M  V30 1285 C 125.576 -1.02707 1.22161 0
M  V30 1286 C 125.776 -2.0128 0.0940557 0
M  V30 1287 O 124.832 -2.46452 -0.549318 0
M  V30 1288 C 126.145 -1.57454 2.56181 0
M  V30 1289 C 127.693 -1.69458 2.63159 0
M  V30 1290 C 128.168 -2.27611 3.97438 0
M  V30 1291 N 129.659 -2.35002 3.99159 0
M  V30 1292 C 130.394 -2.80972 4.99842 0
M  V30 1293 N 129.89 -3.26723 6.10921 0
M  V30 1294 N 131.683 -2.80321 4.87213 0
M  V30 1295 H 123.834 -0.0660492 2.12297 0
M  V30 1296 H 126.097 -0.0919077 0.943534 0
M  V30 1297 H 125.803 -0.924873 3.39321 0
M  V30 1298 H 125.677 -2.56036 2.76993 0
M  V30 1299 H 128.064 -2.33543 1.80393 0
M  V30 1300 H 128.145 -0.694867 2.46181 0
M  V30 1301 H 127.789 -1.6415 4.80643 0
M  V30 1302 H 127.719 -3.2829 4.11744 0
M  V30 1303 H 130.21 -2.02685 3.18947 0
M  V30 1304 H 130.523 -3.60355 6.8364 0
M  V30 1305 H 128.868 -3.24692 6.14492 0
M  V30 1306 H 132.059 -2.43912 3.9953 0
M  V30 1307 H 132.232 -3.15831 5.65822 0
M  V30 1308 N 125.638 -1.25649 -0.95132 0
M  V30 1309 C 126.886 -1.10375 -1.69298 0
M  V30 1310 C 127.207 0.355339 -1.91735 0
M  V30 1311 O 126.477 1.25188 -1.50681 0
M  V30 1312 H 125.057 -0.405461 -0.627384 0
M  V30 1313 H 127.719 -1.57823 -1.14358 0
M  V30 1314 H 126.815 -1.61465 -2.67087 0
M  V30 1315 N 127.117 1.15442 -1.07289 0
M  V30 1316 C 128.065 2.22225 -0.686952 0
M  V30 1317 C 129.059 1.66688 0.30193 0
M  V30 1318 O 130.265 1.79236 0.165712 0
M  V30 1319 H 126.64 0.723783 -0.204064 0
M  V30 1320 H 128.611 2.52056 -1.5972 0
M  V30 1321 C 127.36 3.47556 -0.100149 0
M  V30 1322 H 126.683 3.90612 -0.852211 0
M  V30 1323 H 128.123 4.23794 0.132235 0
M  V30 1324 C 126.582 3.16337 1.159 0
M  V30 1325 O 127.112 3.33074 2.24555 0
M  V30 1326 N 125.318 2.70385 1.06491 0
M  V30 1327 H 124.865 2.56966 0.180668 0
M  V30 1328 H 124.823 2.49871 1.90819 0
M  V30 1329 N 128.595 0.856903 1.32268 0
M  V30 1330 C 129.843 0.460474 1.96784 0
M  V30 1331 C 130.164 -0.987701 1.68135 0
M  V30 1332 O 129.434 -1.69058 0.989765 0
M  V30 1333 H 128.014 0.167289 0.728027 0
M  V30 1334 H 130.676 1.09383 1.61312 0
M  V30 1335 H 129.772 0.60739 3.06133 0
M  V30 1336 N 130.073 -1.45103 0.615059 0
M  V30 1337 C 131.301 -2.06553 0.11977 0
M  V30 1338 C 131.716 -1.45842 -1.19898 0
M  V30 1339 O 131.073 -0.575325 -1.73194 0
M  V30 1340 C 131.124 -3.61495 -0.018364 0
M  V30 1341 O 130.845 -4.19942 1.24822 0
M  V30 1342 C 132.346 -4.39947 -0.544237 0
M  V30 1343 H 129.566 -0.667096 0.0722739 0
M  V30 1344 H 132.11 -1.8623 0.84491 0
M  V30 1345 H 130.265 -3.81135 -0.693865 0
M  V30 1346 H 130.679 -5.13204 1.0827 0
M  V30 1347 H 132.153 -5.48838 -0.589953 0
M  V30 1348 H 132.63 -4.10255 -1.56805 0
M  V30 1349 H 133.236 -4.25188 0.0974703 0
M  V30 1350 N 131.551 -0.354651 -1.53558 0
M  V30 1351 C 132.776 0.242153 -2.05981 0
M  V30 1352 C 133.201 1.42553 -1.2272 0
M  V30 1353 O 132.559 1.79656 -0.243604 0
M  V30 1354 C 132.607 0.624367 -3.55154 0
M  V30 1355 O 131.711 1.72301 -3.74681 0
M  V30 1356 H 131.052 0.0378432 -0.662921 0
M  V30 1357 H 133.582 -0.512087 -1.98088 0
M  V30 1358 H 133.592 0.898433 -3.97985 0
M  V30 1359 H 132.267 -0.240989 -4.15201 0
M  V30 1360 H 130.844 1.44535 -3.4375 0
M  V30 1361 N 133.029 1.57378 -0.0835403 0
M  V30 1362 C 134.306 1.85363 0.624507 0
M  V30 1363 C 134.686 0.978239 1.87066 0
M  V30 1364 O 134.034 0.0475908 2.2845 0
M  V30 1365 C 134.244 3.35795 0.950947 0
M  V30 1366 C 135.592 4.03581 1.31939 0
M  V30 1367 O 136.616 3.40609 1.04232 0
M  V30 1368 O 135.475 5.14672 1.83779 0
M  V30 1369 H 132.569 0.766162 0.311329 0
M  V30 1370 H 135.115 1.69307 -0.115362 0
M  V30 1371 H 133.887 3.91244 0.0663899 0
M  V30 1372 H 133.51 3.57154 1.74719 0
M  V30 1373 N 134.507 -0.190092 1.56449 0
M  V30 1374 C 135.455 -1.25501 1.95837 0
M  V30 1375 C 136.449 -1.4685 0.844485 0
M  V30 1376 O 137.655 -1.47651 1.02952 0
M  V30 1377 H 134.03 -0.421447 0.622805 0
M  V30 1378 H 136.001 -0.895821 2.84636 0
M  V30 1379 C 134.75 -2.59124 2.31841 0
M  V30 1380 H 134.073 -2.43514 3.17082 0
M  V30 1381 H 135.513 -3.32371 2.6326 0
M  V30 1382 C 133.972 -3.16488 1.15486 0
M  V30 1383 O 134.502 -3.99365 0.432535 0
M  V30 1384 N 132.708 -2.75305 0.930349 0
M  V30 1385 H 132.255 -2.08013 1.51948 0
M  V30 1386 H 132.213 -3.14024 0.153634 0
M  V30 1387 N 135.985 -1.50799 -0.457987 0
M  V30 1388 C 137.231 -1.62683 -1.21088 0
M  V30 1389 C 137.564 -0.332268 -1.91336 0
M  V30 1390 O 136.839 0.667043 -1.82704 0
M  V30 1391 C 137.122 -2.81615 -2.24422 0
M  V30 1392 C 136.975 -4.20989 -1.58392 0
M  V30 1393 C 138.294 -2.96085 -3.2561 0
M  V30 1394 H 135.413 -0.592087 -0.438864 0
M  V30 1395 H 138.055 -1.83225 -0.50286 0
M  V30 1396 H 136.205 -2.64231 -2.84806 0
M  V30 1397 H 137.877 -4.49994 -1.01504 0
M  V30 1398 H 136.12 -4.24641 -0.886704 0
M  V30 1399 H 136.791 -5.0016 -2.33547 0
M  V30 1400 H 139.267 -3.12042 -2.75262 0
M  V30 1401 H 138.143 -3.80902 -3.95228 0
M  V30 1402 H 138.404 -2.0726 -3.90507 0
M  V30 1403 N 137.463 0.71206 -1.40597 0
M  V30 1404 C 138.411 1.84746 -1.41321 0
M  V30 1405 C 139.405 1.66842 -0.293268 0
M  V30 1406 O 140.611 1.73904 -0.464481 0
M  V30 1407 H 136.986 0.608522 -0.441819 0
M  V30 1408 H 138.957 1.81252 -2.37045 0
M  V30 1409 C 137.706 3.22638 -1.29614 0
M  V30 1410 H 137.029 3.37023 -2.15071 0
M  V30 1411 H 138.469 4.02209 -1.3418 0
M  V30 1412 C 136.928 3.36899 -0.00673121 0
M  V30 1413 O 137.458 3.90186 0.954859 0
M  V30 1414 N 135.664 2.9053 0.0639327 0
M  V30 1415 H 135.211 2.47353 -0.719311 0
M  V30 1416 H 135.169 3.0045 0.926118 0
M  V30 1417 N 138.941 1.26152 0.944643 0
M  V30 1418 C 139.904 1.07474 2.0244 0
M  V30 1419 C 140.904 0.0242064 1.60782 0
M  V30 1420 O 142.094 0.267302 1.72137 0
M  V30 1421 C 139.226 0.633956 3.34953 0
M  V30 1422 H 140.419 2.03336 2.20442 0
M  V30 1423 H 137.972 1.087 1.12312 0
M  V30 1424 H 138.707 -0.326811 3.22649 0
M  V30 1425 H 138.492 1.39247 3.66542 0
M  V30 1426 H 139.982 0.52501 4.14287 0
M  V30 1427 N 140.419 -1.14872 1.07899 0
M  V30 1428 C 141.665 -1.86064 0.806725 0
M  V30 1429 C 141.998 -1.82434 -0.665706 0
M  V30 1430 O 141.273 -1.25138 -1.48899 0
M  V30 1431 C 141.556 -3.34929 1.32267 0
M  V30 1432 C 141.409 -3.47161 2.86006 0
M  V30 1433 C 142.728 -4.29863 0.943717 0
M  V30 1434 H 139.847 -0.675591 0.294526 0
M  V30 1435 H 142.489 -1.34925 1.33773 0
M  V30 1436 H 140.639 -3.78611 0.870974 0
M  V30 1437 H 142.311 -3.12302 3.39507 0
M  V30 1438 H 140.554 -2.88539 3.23925 0
M  V30 1439 H 141.225 -4.51777 3.17177 0
M  V30 1440 H 143.701 -3.9417 1.33302 0
M  V30 1441 H 142.577 -5.32494 1.33198 0
M  V30 1442 H 142.838 -4.41846 -0.149796 0
M  V30 1443 N 141.898 -0.863906 -1.31812 0
M  V30 1444 C 143.128 -0.485406 -2.00817 0
M  V30 1445 C 143.536 0.925007 -1.65046 0
M  V30 1446 O 142.879 1.61653 -0.872574 0
M  V30 1447 C 142.941 -0.555589 -3.55181 0
M  V30 1448 C 142.605 -1.92654 -4.14407 0
M  V30 1449 C 143.602 -2.89324 -4.31958 0
M  V30 1450 C 141.287 -2.2262 -4.50273 0
M  V30 1451 C 143.281 -4.14108 -4.84555 0
M  V30 1452 C 140.968 -3.47654 -5.02573 0
M  V30 1453 C 141.966 -4.43214 -5.19664 0
M  V30 1454 O 141.654 -5.66033 -5.70843 0
M  V30 1455 H 141.386 -0.188224 -0.649267 0
M  V30 1456 H 143.94 -1.16514 -1.69156 0
M  V30 1457 H 142.17 0.181037 -3.86276 0
M  V30 1458 H 143.859 -0.19138 -4.05449 0
M  V30 1459 H 144.625 -2.6748 -4.04573 0
M  V30 1460 H 140.504 -1.4902 -4.3625 0
M  V30 1461 H 144.048 -4.88703 -4.9781 0
M  V30 1462 H 139.945 -3.69345 -5.29391 0
M  V30 1463 H 140.713 -5.6812 -5.89222 0
M  V30 1464 N 143.376 1.44774 -0.622745 0
M  V30 1465 C 144.286 2.34433 0.0886031 0
M  V30 1466 C 145.302 1.52131 0.844529 0
M  V30 1467 O 146.478 1.84886 0.798691 0
M  V30 1468 C 143.543 3.29986 1.0635 0
M  V30 1469 C 142.604 4.28195 0.307873 0
M  V30 1470 C 141.837 5.19183 1.23633 0
M  V30 1471 O 142.06 5.13918 2.47476 0
M  V30 1472 O 140.994 5.97515 0.725189 0
M  V30 1473 H 144.82 2.96693 -0.648599 0
M  V30 1474 H 142.405 1.44408 -0.382957 0
M  V30 1475 H 144.287 3.88825 1.6246 0
M  V30 1476 H 142.962 2.70269 1.78146 0
M  V30 1477 H 141.869 3.72927 -0.296064 0
M  V30 1478 H 143.202 4.90808 -0.3699 0
M  V30 1479 N 144.854 0.36279 1.53368 0
M  V30 1480 C 146.27 0.0116182 1.59596 0
M  V30 1481 C 146.47 -1.47012 1.37803 0
M  V30 1482 O 145.526 -2.23136 1.18181 0
M  V30 1483 C 146.839 0.465052 2.97082 0
M  V30 1484 C 148.387 0.419033 3.10182 0
M  V30 1485 C 148.862 0.848235 4.50077 0
M  V30 1486 N 150.353 0.803183 4.56183 0
M  V30 1487 C 151.088 1.107 5.62613 0
M  V30 1488 N 150.584 1.47996 6.76808 0
M  V30 1489 N 152.377 1.02998 5.52583 0
M  V30 1490 H 144.528 1.32775 1.65785 0
M  V30 1491 H 146.791 0.542518 0.777417 0
M  V30 1492 H 146.497 1.49892 3.18159 0
M  V30 1493 H 146.371 -0.149786 3.76902 0
M  V30 1494 H 148.758 -0.605696 2.88817 0
M  V30 1495 H 148.839 1.06933 2.32377 0
M  V30 1496 H 148.483 1.87107 4.7218 0
M  V30 1497 H 148.413 0.175218 5.26308 0
M  V30 1498 H 150.904 0.52838 3.74188 0
M  V30 1499 H 151.217 1.69613 7.53957 0
M  V30 1500 H 149.562 1.51859 6.78206 0
M  V30 1501 H 152.753 0.737817 4.62249 0
M  V30 1502 H 152.926 1.2701 6.35431 0
M  V30 1503 N 146.332 -1.57332 0.0918853 0
M  V30 1504 C 147.262 -2.16872 -0.865371 0
M  V30 1505 C 148.243 -1.10118 -1.29646 0
M  V30 1506 O 149.428 -1.38242 -1.36392 0
M  V30 1507 C 146.558 -2.74649 -2.12569 0
M  V30 1508 C 145.512 -3.86747 -1.83333 0
M  V30 1509 C 144.838 -4.31212 -3.16166 0
M  V30 1510 C 146.138 -5.10089 -1.1228 0
M  V30 1511 H 147.832 -2.97114 -0.369307 0
M  V30 1512 H 145.378 -1.42918 -0.176194 0
M  V30 1513 H 147.331 -3.14952 -2.7997 0
M  V30 1514 H 146.055 -1.91657 -2.64452 0
M  V30 1515 H 144.714 -3.46978 -1.18331 0
M  V30 1516 H 144.362 -3.45115 -3.6593 0
M  V30 1517 H 144.062 -5.06788 -2.97388 0
M  V30 1518 H 145.586 -4.74146 -3.84731 0
M  V30 1519 H 147 -5.47582 -1.69785 0
M  V30 1520 H 145.397 -5.91073 -1.03693 0
M  V30 1521 H 146.467 -4.84786 -0.105041 0
M  V30 1522 N 147.81 0.181792 -1.56548 0
M  V30 1523 C 149.226 0.53316 -1.50431 0
M  V30 1524 C 149.426 1.85184 -0.794297 0
M  V30 1525 O 148.482 2.50058 -0.350318 0
M  V30 1526 C 149.795 0.575597 -2.9514 0
M  V30 1527 C 151.343 0.663519 -3.05886 0
M  V30 1528 C 151.818 0.736946 -4.52032 0
M  V30 1529 N 153.309 0.800118 -4.56237 0
M  V30 1530 C 154.044 0.877327 -5.66649 0
M  V30 1531 N 153.54 0.916016 -6.86718 0
M  V30 1532 N 155.333 0.915542 -5.54594 0
M  V30 1533 H 147.484 -0.683025 -2.01118 0
M  V30 1534 H 149.747 -0.244988 -0.915797 0
M  V30 1535 H 149.453 -0.324482 -3.502 0
M  V30 1536 H 149.327 1.42572 -3.49218 0
M  V30 1537 H 151.714 1.55403 -2.50867 0
M  V30 1538 H 151.795 -0.21307 -2.54911 0
M  V30 1539 H 151.439 -0.149262 -5.07681 0
M  V30 1540 H 151.369 1.62953 -5.00753 0
M  V30 1541 H 153.86 0.778926 -3.69785 0
M  V30 1542 H 154.173 0.975813 -7.66614 0
M  V30 1543 H 152.518 0.884469 -6.89349 0
M  V30 1544 H 155.709 0.882245 -4.59711 0
M  V30 1545 H 155.882 0.972253 -6.40665 0
M  V30 1546 N 149.288 1.51039 0.449983 0
M  V30 1547 C 150.516 1.66869 1.2232 0
M  V30 1548 C 150.931 0.360727 1.85322 0
M  V30 1549 O 150.288 -0.659531 1.70166 0
M  V30 1550 C 150.339 2.77524 2.31652 0
M  V30 1551 O 150.06 4.03252 1.7123 0
M  V30 1552 C 151.561 3.04512 3.2216 0
M  V30 1553 H 148.781 0.560326 0.369155 0
M  V30 1554 H 151.325 1.97385 0.534719 0
M  V30 1555 H 149.48 2.49642 2.96239 0
M  V30 1556 H 149.894 4.64609 2.43389 0
M  V30 1557 H 151.368 3.85551 3.95038 0
M  V30 1558 H 151.845 2.16415 3.8218 0
M  V30 1559 H 152.451 3.34005 2.63288 0
M  V30 1560 N 150.766 -0.704594 1.40972 0
M  V30 1561 C 151.699 -1.82861 1.36518 0
M  V30 1562 C 152.677 -1.6091 0.23382 0
M  V30 1563 O 153.861 -1.83778 0.419271 0
M  V30 1564 C 150.988 -3.1939 1.12729 0
M  V30 1565 C 150.034 -3.60148 2.28463 0
M  V30 1566 S 150.867 -3.65994 3.90907 0
M  V30 1567 C 152.023 -5.05264 3.69403 0
M  V30 1568 H 152.256 -1.86361 2.3164 0
M  V30 1569 H 149.789 -0.872439 1.27389 0
M  V30 1570 H 151.747 -3.98211 0.996893 0
M  V30 1571 H 150.408 -3.1351 0.192427 0
M  V30 1572 H 149.601 -4.59309 2.07489 0
M  V30 1573 H 149.203 -2.88612 2.37863 0
M  V30 1574 H 151.495 -5.92504 3.28551 0
M  V30 1575 H 152.438 -5.31278 4.68134 0
M  V30 1576 H 152.846 -4.76377 3.02862 0
M  V30 1577 N 152.244 -1.26651 -0.937939 0
M  V30 1578 C 153.207 -1.08546 -2.01867 0
M  V30 1579 C 154.207 -0.0327327 -1.60767 0
M  V30 1580 O 155.397 -0.276427 -1.71993 0
M  V30 1581 C 152.529 -0.651711 -3.34613 0
M  V30 1582 H 153.722 -2.04502 -2.1936 0
M  V30 1583 H 151.275 -1.09294 -1.11734 0
M  V30 1584 H 152.01 0.309696 -3.22818 0
M  V30 1585 H 151.795 -1.41189 -3.65798 0
M  V30 1586 H 153.285 -0.546973 -4.14002 0
M  V30 1587 N 153.722 1.14298 -1.08507 0
M  V30 1588 C 154.652 2.21542 -0.737646 0
M  V30 1589 C 155.633 1.67773 0.280377 0
M  V30 1590 O 156.818 1.93616 0.150521 0
M  V30 1591 C 153.948 3.46988 -0.147259 0
M  V30 1592 C 152.902 4.13789 -1.09374 0
M  V30 1593 C 152.228 5.33449 -0.365524 0
M  V30 1594 C 153.528 4.62208 -2.4323 0
M  V30 1595 H 155.222 2.5086 -1.6343 0
M  V30 1596 H 152.768 1.20576 -0.787243 0
M  V30 1597 H 154.721 4.21262 0.107808 0
M  V30 1598 H 153.445 3.17037 0.784538 0
M  V30 1599 H 152.104 3.4147 -1.33393 0
M  V30 1600 H 151.752 4.99759 0.57011 0
M  V30 1601 H 151.452 5.79088 -0.996512 0
M  V30 1602 H 152.976 6.10485 -0.118534 0
M  V30 1603 H 154.39 5.27952 -2.23472 0
M  V30 1604 H 152.787 5.18553 -3.02031 0
M  V30 1605 H 153.857 3.77224 -3.04681 0
M  V30 1606 N 155.201 0.870884 1.31352 0
M  V30 1607 C 156.164 0.332243 2.26779 0
M  V30 1608 C 157.164 -0.517302 1.52252 0
M  V30 1609 O 158.354 -0.326477 1.71113 0
M  V30 1610 C 155.486 -0.528066 3.36785 0
M  V30 1611 H 156.679 1.17469 2.75937 0
M  V30 1612 H 154.232 0.64655 1.423 0
M  V30 1613 H 154.967 -1.39167 2.92922 0
M  V30 1614 H 154.752 0.0802582 3.92018 0
M  V30 1615 H 156.242 -0.897179 4.07849 0
M  V30 1616 N 156.679 -1.44442 0.630414 0
M  V30 1617 C 157.642 -2.29107 -0.0652523 0
M  V30 1618 C 158.642 -1.41002 -0.772995 0
M  V30 1619 O 159.832 -1.62881 -0.617692 0
M  V30 1620 C 156.964 -3.22564 -1.10296 0
M  V30 1621 H 158.157 -2.92103 0.679401 0
M  V30 1622 H 155.71 -1.51343 0.390517 0
M  V30 1623 H 156.445 -2.64416 -1.87762 0
M  V30 1624 H 156.23 -3.87491 -0.59941 0
M  V30 1625 H 157.72 -3.86167 -1.5895 0
M  V30 1626 N 158.157 -0.370918 -1.53173 0
M  V30 1627 C 159.385 0.217704 -2.05751 0
M  V30 1628 C 159.8 1.42018 -1.24404 0
M  V30 1629 O 159.157 1.80245 -0.286033 0
M  V30 1630 C 159.208 0.605954 -3.56385 0
M  V30 1631 O 158.929 -0.548734 -4.3465 0
M  V30 1632 C 160.43 1.2524 -4.25241 0
M  V30 1633 H 157.65 0.0371659 -0.66997 0
M  V30 1634 H 160.194 -0.530832 -1.9749 0
M  V30 1635 H 158.349 1.3044 -3.6478 0
M  V30 1636 H 158.763 -0.23376 -5.23979 0
M  V30 1637 H 160.237 1.47458 -5.3194 0
M  V30 1638 H 160.714 2.2143 -3.79296 0
M  V30 1639 H 161.32 0.595233 -4.21114 0
M  V30 1640 N 159.635 1.57281 -0.100228 0
M  V30 1641 C 160.863 1.98879 0.570509 0
M  V30 1642 C 161.278 0.979476 1.61405 0
M  V30 1643 O 160.635 -0.0302288 1.82475 0
M  V30 1644 C 160.686 3.4052 1.2136 0
M  V30 1645 O 160.407 4.37588 0.211786 0
M  V30 1646 C 161.908 3.97149 1.96945 0
M  V30 1647 H 159.128 0.653428 0.152555 0
M  V30 1648 H 161.672 2.03697 -0.18103 0
M  V30 1649 H 159.827 3.367 1.91603 0
M  V30 1650 H 160.241 5.20118 0.676607 0
M  V30 1651 H 161.715 4.98393 2.37294 0
M  V30 1652 H 162.192 3.3525 2.83733 0
M  V30 1653 H 162.798 4.04458 1.31506 0
M  V30 1654 N 161.113 -0.173488 1.56642 0
M  V30 1655 C 162.359 -0.891784 1.8214 0
M  V30 1656 C 162.692 -1.8199 0.677736 0
M  V30 1657 O 161.967 -1.91842 -0.320446 0
M  V30 1658 C 162.25 -1.68933 3.18015 0
M  V30 1659 C 162.103 -0.784487 4.42906 0
M  V30 1660 C 163.422 -2.65748 3.50808 0
M  V30 1661 H 160.541 -0.322761 0.662567 0
M  V30 1662 H 163.183 -0.158095 1.89341 0
M  V30 1663 H 161.333 -2.31482 3.12007 0
M  V30 1664 H 163.005 -0.172046 4.60979 0
M  V30 1665 H 161.248 -0.0924117 4.33702 0
M  V30 1666 H 161.919 -1.37799 5.34524 0
M  V30 1667 H 164.395 -2.13327 3.57255 0
M  V30 1668 H 163.271 -3.18619 4.4696 0
M  V30 1669 H 163.532 -3.45842 2.75401 0
M  V30 1670 N 162.591 -1.51276 -0.441967 0
M  V30 1671 C 163.839 -1.63392 -1.18943 0
M  V30 1672 C 164.16 -0.350159 -1.9183 0
M  V30 1673 O 163.43 0.633784 -1.85364 0
M  V30 1674 H 162.01 -0.602164 -0.442049 0
M  V30 1675 H 164.672 -1.88186 -0.507165 0
M  V30 1676 H 163.768 -2.45934 -1.92154 0
M  V30 1677 N 164.069 0.697108 -1.41344 0
M  V30 1678 C 165.294 1.49096 -1.44171 0
M  V30 1679 C 165.719 1.88038 -0.0481568 0
M  V30 1680 O 165.077 1.54525 0.948243 0
M  V30 1681 C 165.125 2.73088 -2.3549 0
M  V30 1682 O 164.229 3.70514 -1.81088 0
M  V30 1683 H 163.57 0.448801 -0.489361 0
M  V30 1684 H 166.1 0.856992 -1.85787 0
M  V30 1685 H 166.11 3.21413 -2.51312 0
M  V30 1686 H 164.785 2.44081 -3.36745 0
M  V30 1687 H 163.362 3.29441 -1.74708 0
M  V30 1688 N 165.547 1.27147 0.931209 0
M  V30 1689 C 166.772 1.16191 1.71797 0
M  V30 1690 C 167.197 -0.278004 1.86034 0
M  V30 1691 O 166.555 -1.20137 1.35782 0
M  V30 1692 C 166.603 1.84673 3.09723 0
M  V30 1693 O 165.707 1.14231 3.96264 0
M  V30 1694 H 165.048 0.404303 0.526721 0
M  V30 1695 H 167.578 1.68152 1.1656 0
M  V30 1696 H 167.588 1.91893 3.60057 0
M  V30 1697 H 166.263 2.89421 2.98677 0
M  V30 1698 H 164.84 1.15056 3.54706 0
M  V30 1699 N 167.025 -1.13721 1.09112 0
M  V30 1700 C 167.955 -2.21148 0.749385 0
M  V30 1701 C 168.936 -1.6792 -0.271475 0
M  V30 1702 O 170.121 -1.93693 -0.140251 0
M  V30 1703 C 167.251 -3.46905 0.165659 0
M  V30 1704 C 166.205 -4.13203 1.11567 0
M  V30 1705 C 165.531 -5.33248 0.393809 0
M  V30 1706 C 166.831 -4.60912 2.45678 0
M  V30 1707 H 168.525 -2.4999 1.64758 0
M  V30 1708 H 166.071 -1.20156 0.793626 0
M  V30 1709 H 168.024 -4.21313 -0.085466 0
M  V30 1710 H 166.748 -3.17449 -0.767714 0
M  V30 1711 H 165.407 -3.40758 1.35202 0
M  V30 1712 H 165.055 -5.00054 -0.543599 0
M  V30 1713 H 164.755 -5.78552 1.02721 0
M  V30 1714 H 166.279 -6.10413 0.150908 0
M  V30 1715 H 167.693 -5.26759 2.26269 0
M  V30 1716 H 166.09 -5.16944 3.04776 0
M  V30 1717 H 167.16 -3.75603 3.06677 0
M  V30 1718 N 168.503 -0.877838 -1.30888 0
M  V30 1719 C 169.733 -0.506678 -2.00291 0
M  V30 1720 C 170.141 0.907449 -1.66018 0
M  V30 1721 O 169.484 1.60719 -0.88967 0
M  V30 1722 C 169.546 -0.59323 -3.54572 0
M  V30 1723 C 169.21 -1.97038 -4.12341 0
M  V30 1724 C 170.207 -2.93889 -4.28865 0
M  V30 1725 C 167.892 -2.27383 -4.47886 0
M  V30 1726 C 169.886 -4.19224 -4.80136 0
M  V30 1727 C 167.573 -3.52965 -4.98857 0
M  V30 1728 C 168.571 -4.48701 -5.14934 0
M  V30 1729 O 168.259 -5.72056 -5.64808 0
M  V30 1730 H 167.991 -0.1951 -0.647234 0
M  V30 1731 H 170.545 -1.18301 -1.6791 0
M  V30 1732 H 168.775 0.140057 -3.86446 0
M  V30 1733 H 170.464 -0.234372 -4.05223 0
M  V30 1734 H 171.23 -2.71756 -4.01714 0
M  V30 1735 H 167.109 -1.53639 -4.34645 0
M  V30 1736 H 170.653 -4.93956 -4.92599 0
M  V30 1737 H 166.55 -3.74939 -5.25443 0
M  V30 1738 H 167.318 -5.74337 -5.83163 0
M  V30 1739 N 169.982 1.44106 -0.638065 0
M  V30 1740 C 171.23 2.01579 -0.145043 0
M  V30 1741 C 171.551 1.50496 1.24 0
M  V30 1742 O 170.821 0.711374 1.82527 0
M  V30 1743 H 169.401 0.745282 -0.05063 0
M  V30 1744 H 172.063 1.76516 -0.826327 0
M  V30 1745 H 171.159 3.11877 -0.118039 0
M  V30 1746 N 171.46 0.379036 1.52974 0
M  V30 1747 C 172.408 -0.476033 2.27677 0
M  V30 1748 C 173.402 -1.0719 1.31174 0
M  V30 1749 O 174.608 -1.01355 1.48752 0
M  V30 1750 H 170.983 -0.172255 0.732006 0
M  V30 1751 H 172.954 0.175615 2.97883 0
M  V30 1752 C 171.703 -1.5967 3.0887 0
M  V30 1753 H 171.026 -1.1475 3.82978 0
M  V30 1754 H 172.466 -2.16943 3.64296 0
M  V30 1755 C 170.925 -2.54682 2.20542 0
M  V30 1756 O 171.455 -3.57836 1.82527 0
M  V30 1757 N 169.661 -2.24183 1.84907 0
M  V30 1758 H 169.208 -1.40333 2.1602 0
M  V30 1759 H 169.166 -2.88006 1.26096 0
M  V30 1760 N 172.938 -1.57226 0.108567 0
M  V30 1761 C 173.901 -2.13602 -0.831082 0
M  V30 1762 C 174.901 -1.06841 -1.20173 0
M  V30 1763 O 176.091 -1.32666 -1.12895 0
M  V30 1764 C 173.223 -2.66769 -2.12243 0
M  V30 1765 H 174.416 -2.97951 -0.341317 0
M  V30 1766 H 171.969 -1.55667 -0.14057 0
M  V30 1767 H 172.704 -1.85977 -2.65675 0
M  V30 1768 H 172.489 -3.44839 -1.86625 0
M  V30 1769 H 173.979 -3.10332 -2.79435 0
M  V30 1770 N 174.416 0.165178 -1.56732 0
M  V30 1771 C 175.693 0.908443 -1.73224 0
M  V30 1772 C 176.073 2.0013 -0.67165 0
M  V30 1773 O 175.421 2.26353 0.31253 0
M  V30 1774 C 175.631 1.46756 -3.16644 0
M  V30 1775 C 176.979 1.93809 -3.77787 0
M  V30 1776 O 178.003 1.56537 -3.1996 0
M  V30 1777 O 176.862 2.62486 -4.79336 0
M  V30 1778 H 173.956 0.428025 -0.707618 0
M  V30 1779 H 176.502 0.152526 -1.69013 0
M  V30 1780 H 175.274 0.68129 -3.85323 0
M  V30 1781 H 174.897 2.28749 -3.25207 0
M  V30 1782 N 175.894 1.51508 0.433938 0
M  V30 1783 C 176.824 1.76016 1.53429 0
M  V30 1784 C 177.805 0.610112 1.58782 0
M  V30 1785 O 178.99 0.853177 1.74455 0
M  V30 1786 C 176.12 1.88831 2.9148 0
M  V30 1787 C 175.074 3.04288 3.00987 0
M  V30 1788 C 174.4 3.0229 4.4105 0
M  V30 1789 C 175.7 4.44193 2.74754 0
M  V30 1790 H 177.394 2.68152 1.33171 0
M  V30 1791 H 174.94 1.29035 0.639214 0
M  V30 1792 H 176.893 2.04559 3.6842 0
M  V30 1793 H 175.617 0.933455 3.12976 0
M  V30 1794 H 174.276 2.8827 2.26486 0
M  V30 1795 H 173.924 2.04576 4.59519 0
M  V30 1796 H 173.624 3.79822 4.4834 0
M  V30 1797 H 175.148 3.20116 5.1996 0
M  V30 1798 H 176.562 4.60544 3.41426 0
M  V30 1799 H 174.959 5.23457 2.9345 0
M  V30 1800 H 176.029 4.53996 1.70339 0
M  V30 1801 N 177.372 -0.689602 1.41712 0
M  V30 1802 C 178.319 -1.80345 1.44029 0
M  V30 1803 C 179.289 -1.63478 0.293948 0
M  V30 1804 O 180.474 -1.84244 0.495869 0
M  V30 1805 C 177.614 -3.18272 1.33405 0
M  V30 1806 C 176.727 -3.46529 2.57956 0
M  V30 1807 C 175.862 -4.74103 2.39582 0
M  V30 1808 C 174.901 -4.95347 3.5958 0
M  V30 1809 N 174.038 -6.14151 3.40239 0
M  V30 1810 H 178.878 -1.77698 2.39222 0
M  V30 1811 H 176.415 -0.867688 1.18784 0
M  V30 1812 H 178.373 -3.97956 1.25246 0
M  V30 1813 H 177.003 -3.2008 0.418164 0
M  V30 1814 H 176.055 -2.61207 2.76542 0
M  V30 1815 H 177.367 -3.58126 3.47199 0
M  V30 1816 H 176.521 -5.61853 2.28924 0
M  V30 1817 H 175.26 -4.64763 1.47805 0
M  V30 1818 H 174.265 -4.06044 3.70686 0
M  V30 1819 H 175.49 -5.06542 4.52318 0
M  V30 1820 H 173.436 -6.06013 2.51167 0
M  V30 1821 H 173.353 -6.26543 4.23061 0
M  V30 1822 H 174.621 -7.04619 3.33365 0
M  V30 1823 N 178.85 -1.27639 -0.924453 0
M  V30 1824 C 179.76 -1.12466 -2.05885 0
M  V30 1825 C 180.776 -0.053869 -1.73917 0
M  V30 1826 O 181.952 -0.261012 -1.99702 0
M  V30 1827 C 179.017 -0.776768 -3.37886 0
M  V30 1828 C 178.078 -1.92878 -3.83532 0
M  V30 1829 C 177.311 -1.59739 -5.09234 0
M  V30 1830 O 177.534 -0.506782 -5.68144 0
M  V30 1831 O 176.468 -2.43761 -5.50331 0
M  V30 1832 H 180.294 -2.07671 -2.21599 0
M  V30 1833 H 177.879 -1.06857 -1.04413 0
M  V30 1834 H 179.761 -0.596229 -4.17161 0
M  V30 1835 H 178.436 0.145732 -3.23372 0
M  V30 1836 H 177.343 -2.1644 -3.0513 0
M  V30 1837 H 178.676 -2.8316 -4.02593 0
M  V30 1838 N 180.328 1.1314 -1.09713 0
M  V30 1839 C 181.605 1.80762 -0.747302 0
M  V30 1840 C 181.985 1.96663 0.767265 0
M  V30 1841 O 181.333 1.53706 1.69076 0
M  V30 1842 C 181.543 3.15606 -1.48975 0
M  V30 1843 C 182.891 3.90914 -1.65746 0
M  V30 1844 O 183.915 3.25239 -1.45251 0
M  V30 1845 O 182.774 5.08718 -1.9967 0
M  V30 1846 H 179.868 0.782103 -0.268782 0
M  V30 1847 H 182.414 1.20041 -1.19951 0
M  V30 1848 H 181.186 2.99278 -2.52088 0
M  V30 1849 H 180.809 3.84029 -1.02991 0
M  V30 1850 N 181.806 0.884767 1.30421 0
M  V30 1851 C 183.055 0.499164 1.95426 0
M  V30 1852 C 183.368 -0.95645 1.70621 0
M  V30 1853 O 184.574 -1.44889 2.29607 0
M  V30 1854 C 183.03 0.84177 3.49917 0
M  V30 1855 C 182.638 2.31514 3.83543 0
M  V30 1856 C 184.382 0.525355 4.21237 0
M  V30 1857 C 182.289 2.59939 5.31212 0
M  V30 1858 H 181.219 0.182944 0.73147 0
M  V30 1859 H 183.87 1.07971 1.48373 0
M  V30 1860 H 182.252 0.190311 3.95542 0
M  V30 1861 H 183.426 3.0109 3.48829 0
M  V30 1862 H 181.741 2.59907 3.25326 0
M  V30 1863 H 184.338 0.714762 5.29901 0
M  V30 1864 H 184.681 -0.535222 4.12845 0
M  V30 1865 H 185.214 1.134 3.81294 0
M  V30 1866 H 181.953 3.64736 5.44654 0
M  V30 1867 H 181.473 1.94972 5.67227 0
M  V30 1868 H 183.152 2.45429 5.98643 0
M  V30 1869 N 183.284 -1.43765 0.645699 0
M  V30 1870 C 184.214 -2.33471 -0.0370477 0
M  V30 1871 C 185.195 -1.49042 -0.819779 0
M  V30 1872 O 186.38 -1.77726 -0.782758 0
M  V30 1873 C 183.51 -3.32311 -1.0093 0
M  V30 1874 C 182.464 -4.2667 -0.337201 0
M  V30 1875 C 181.79 -5.1549 -1.42037 0
M  V30 1876 C 183.09 -5.16657 0.765706 0
M  V30 1877 H 184.784 -2.90809 0.712069 0
M  V30 1878 H 182.33 -1.39834 0.343876 0
M  V30 1879 H 184.283 -3.9396 -1.49578 0
M  V30 1880 H 183.007 -2.73213 -1.78948 0
M  V30 1881 H 181.666 -3.66374 0.128771 0
M  V30 1882 H 181.314 -4.52735 -2.1918 0
M  V30 1883 H 181.014 -5.79438 -0.975966 0
M  V30 1884 H 182.538 -5.80012 -1.90838 0
M  V30 1885 H 183.952 -5.72158 0.361702 0
M  V30 1886 H 182.349 -5.89286 1.13413 0
M  V30 1887 H 183.419 -4.56796 1.62683 0
M  V30 1888 N 184.763 -0.387143 -1.52771 0
M  V30 1889 C 186.04 0.253197 -1.93954 0
M  V30 1890 C 186.42 1.64545 -1.32243 0
M  V30 1891 O 185.768 2.23191 -0.489699 0
M  V30 1892 C 185.978 0.281722 -3.47861 0
M  V30 1893 C 187.326 0.511715 -4.21505 0
M  V30 1894 O 188.35 0.362023 -3.54356 0
M  V30 1895 O 187.209 0.804847 -5.40541 0
M  V30 1896 H 184.303 0.156845 -0.811991 0
M  V30 1897 H 186.849 -0.441494 -1.63856 0
M  V30 1898 H 185.621 -0.693571 -3.85104 0
M  V30 1899 H 185.244 1.02142 -3.84256 0
M  V30 1900 N 186.241 1.57166 -0.116904 0
M  V30 1901 C 187.204 2.14039 0.819742 0
M  V30 1902 C 188.204 1.07477 1.19605 0
M  V30 1903 O 189.394 1.33263 1.1219 0
M  V30 1904 C 186.526 2.67891 2.10826 0
M  V30 1905 H 187.719 2.98128 0.325511 0
M  V30 1906 H 185.272 1.55739 0.132312 0
M  V30 1907 H 186.007 1.87384 2.64685 0
M  V30 1908 H 185.792 3.45823 1.84793 0
M  V30 1909 H 187.282 3.11809 2.77785 0
M  V30 1910 N 187.719 -0.156864 1.56817 0
M  V30 1911 C 188.649 -1.19589 2.00551 0
M  V30 1912 C 189.63 -1.4536 0.883426 0
M  V30 1913 O 190.815 -1.56449 1.15054 0
M  V30 1914 C 187.945 -2.53143 2.37773 0
M  V30 1915 C 186.899 -2.41913 3.53075 0
M  V30 1916 C 186.225 -3.80088 3.76081 0
M  V30 1917 C 187.525 -1.91157 4.86062 0
M  V30 1918 H 189.219 -0.832293 2.87599 0
M  V30 1919 H 186.765 -0.398918 1.38364 0
M  V30 1920 H 188.718 -3.26047 2.66967 0
M  V30 1921 H 187.442 -2.91319 1.4765 0
M  V30 1922 H 186.101 -1.71462 3.24031 0
M  V30 1923 H 185.749 -4.15683 2.83225 0
M  V30 1924 H 185.449 -3.73439 4.53671 0
M  V30 1925 H 186.973 -4.54556 4.0769 0
M  V30 1926 H 188.387 -2.53846 5.14038 0
M  V30 1927 H 186.784 -1.95422 5.67389 0
M  V30 1928 H 187.854 -0.866673 4.77092 0
M  V30 1929 N 189.197 -1.51736 -0.425897 0
M  V30 1930 C 190.474 -1.55519 -1.1863 0
M  V30 1931 C 190.854 -0.326219 -2.08564 0
M  V30 1932 O 190.202 0.688012 -2.17896 0
M  V30 1933 C 190.412 -2.87521 -1.9782 0
M  V30 1934 C 191.76 -3.39899 -2.54468 0
M  V30 1935 O 192.784 -2.89148 -2.08019 0
M  V30 1936 O 191.643 -4.2848 -3.39215 0
M  V30 1937 H 188.737 -0.625739 -0.540721 0
M  V30 1938 H 191.283 -1.64055 -0.434038 0
M  V30 1939 H 190.055 -3.68422 -1.31836 0
M  V30 1940 H 189.678 -2.822 -2.80088 0
M  V30 1941 N 190.675 0.682077 -1.42076 0
M  V30 1942 C 191.921 1.44283 -1.43366 0
M  V30 1943 C 192.276 1.92344 -0.0465775 0
M  V30 1944 O 191.569 1.67517 0.929973 0
M  V30 1945 C 191.763 2.66036 -2.38662 0
M  V30 1946 C 191.592 2.29889 -3.86499 0
M  V30 1947 C 190.362 2.19599 -4.55087 0
M  V30 1948 C 192.56 1.91999 -4.77117 0
M  V30 1949 N 190.542 1.76478 -5.87987 0
M  V30 1950 C 191.913 1.59741 -5.99068 0
M  V30 1951 C 193.968 1.78927 -4.64639 0
M  V30 1952 C 192.671 1.15723 -7.0993 0
M  V30 1953 C 194.697 1.36314 -5.75476 0
M  V30 1954 C 194.059 1.04975 -6.96534 0
M  V30 1955 H 190.158 0.524739 -0.579805 0
M  V30 1956 H 192.742 0.787834 -1.78048 0
M  V30 1957 H 190.913 3.29237 -2.06053 0
M  V30 1958 H 192.645 3.32588 -2.30581 0
M  V30 1959 H 189.4 2.38433 -4.09202 0
M  V30 1960 H 189.824 1.57362 -6.58458 0
M  V30 1961 H 194.466 2.01805 -3.7153 0
M  V30 1962 H 192.184 0.91591 -8.02893 0
M  V30 1963 H 195.77 1.26731 -5.6783 0
M  V30 1964 H 194.65 0.725017 -7.80841 0
M  V30 1965 N 192.153 1.28127 0.917671 0
M  V30 1966 C 193.083 1.14248 2.03641 0
M  V30 1967 C 194.064 0.0412748 1.7005 0
M  V30 1968 O 195.249 0.217566 1.92977 0
M  V30 1969 C 192.379 0.799431 3.37974 0
M  V30 1970 C 191.333 1.85497 3.85713 0
M  V30 1971 C 190.659 1.36565 5.16966 0
M  V30 1972 C 191.959 3.26085 4.08002 0
M  V30 1973 H 193.653 2.07835 2.15511 0
M  V30 1974 H 191.199 1.00064 1.03553 0
M  V30 1975 H 193.152 0.689114 4.15727 0
M  V30 1976 H 191.876 -0.172145 3.26146 0
M  V30 1977 H 190.535 1.95437 3.10161 0
M  V30 1978 H 190.183 0.383253 5.01538 0
M  V30 1979 H 189.883 2.07143 5.49878 0
M  V30 1980 H 191.407 1.26848 5.97279 0
M  V30 1981 H 192.821 3.19089 4.76293 0
M  V30 1982 H 191.218 3.94462 4.52238 0
M  V30 1983 H 192.288 3.70394 3.12948 0
M  V30 1984 N 193.631 -1.12557 1.10312 0
M  V30 1985 C 194.861 -1.87592 0.865617 0
M  V30 1986 C 195.269 -1.79851 -0.587389 0
M  V30 1987 O 194.612 -1.16949 -1.41664 0
M  V30 1988 C 194.674 -3.37665 1.23381 0
M  V30 1989 C 194.338 -3.69181 2.69359 0
M  V30 1990 C 195.335 -3.67652 3.67597 0
M  V30 1991 C 193.02 -3.98555 3.05711 0
M  V30 1992 C 195.014 -3.95053 5.00212 0
M  V30 1993 C 192.701 -4.25616 4.38514 0
M  V30 1994 C 193.699 -4.23851 5.35574 0
M  V30 1995 O 193.387 -4.50242 6.65986 0
M  V30 1996 H 193.119 -0.600442 0.310557 0
M  V30 1997 H 195.673 -1.4335 1.47105 0
M  V30 1998 H 193.903 -3.82454 0.571467 0
M  V30 1999 H 195.592 -3.94041 0.973994 0
M  V30 2000 H 196.358 -3.45024 3.40857 0
M  V30 2001 H 192.237 -3.99071 2.30789 0
M  V30 2002 H 195.781 -3.93591 5.75962 0
M  V30 2003 H 191.678 -4.47718 4.64994 0
M  V30 2004 H 192.446 -4.67867 6.71597 0
M  V30 2005 N 195.109 -0.891671 -1.2995 0
M  V30 2006 C 196.355 -0.514261 -1.96171 0
M  V30 2007 C 196.688 0.935506 -1.70182 0
M  V30 2008 O 195.963 1.66204 -1.01028 0
M  V30 2009 C 196.246 -0.797719 -3.51153 0
M  V30 2010 C 196.099 -2.2986 -3.86632 0
M  V30 2011 C 197.418 -0.278749 -4.39216 0
M  V30 2012 H 194.537 -0.188314 -0.712535 0
M  V30 2013 H 197.179 -1.11689 -1.53706 0
M  V30 2014 H 195.329 -0.284826 -3.87455 0
M  V30 2015 H 197.001 -2.88042 -3.60319 0
M  V30 2016 H 195.244 -2.76257 -3.34462 0
M  V30 2017 H 195.915 -2.44753 -4.94773 0
M  V30 2018 H 198.391 -0.717825 -4.09862 0
M  V30 2019 H 197.267 -0.506353 -5.46559 0
M  V30 2020 H 197.528 0.820266 -4.34424 0
M  V30 2021 N 196.587 1.43421 -0.653314 0
M  V30 2022 C 197.535 2.32546 0.0501531 0
M  V30 2023 C 198.529 1.48617 0.812985 0
M  V30 2024 O 199.735 1.64825 0.723375 0
M  V30 2025 H 196.11 0.751185 0.0350032 0
M  V30 2026 H 198.081 2.89602 -0.719261 0
M  V30 2027 C 196.83 3.32925 1.00279 0
M  V30 2028 H 196.153 3.97532 0.425236 0
M  V30 2029 H 197.593 3.9792 1.46409 0
M  V30 2030 C 196.052 2.63532 2.09886 0
M  V30 2031 O 196.582 2.45092 3.18265 0
M  V30 2032 N 194.788 2.22905 1.86445 0
M  V30 2033 H 194.335 2.38103 0.98309 0
M  V30 2034 H 194.293 1.76805 2.59976 0
M  V30 2035 N 198.065 0.39524 1.52563 0
M  V30 2036 C 199.29 -0.187456 2.06551 0
M  V30 2037 C 199.715 -1.39249 1.26457 0
M  V30 2038 O 199.073 -1.78947 0.291151 0
M  V30 2039 C 199.121 -0.529985 3.56684 0
M  V30 2040 O 198.225 -1.62307 3.79118 0
M  V30 2041 H 197.566 -0.0202537 0.663691 0
M  V30 2042 H 200.096 0.564426 1.96661 0
M  V30 2043 H 200.106 -0.792598 4.00227 0
M  V30 2044 H 198.781 0.350987 4.14416 0
M  V30 2045 H 197.358 -1.3537 3.47461 0
M  V30 2046 N 199.544 -1.57102 0.125237 0
M  V30 2047 C 200.774 -1.99472 -0.538015 0
M  V30 2048 C 201.182 -1.00395 -1.60366 0
M  V30 2049 O 200.525 0.0103875 -1.83697 0
M  V30 2050 C 200.587 -3.38262 -1.21734 0
M  V30 2051 C 200.251 -4.56021 -0.298897 0
M  V30 2052 C 201.248 -5.17817 0.464943 0
M  V30 2053 C 198.933 -5.01869 -0.208149 0
M  V30 2054 C 200.927 -6.23852 1.3072 0
M  V30 2055 C 198.614 -6.07763 0.637736 0
M  V30 2056 C 199.612 -6.68622 1.39403 0
M  V30 2057 O 199.3 -7.7247 2.22586 0
M  V30 2058 H 199.032 -0.659934 -0.146501 0
M  V30 2059 H 201.586 -2.04321 0.210267 0
M  V30 2060 H 199.816 -3.30185 -2.01282 0
M  V30 2061 H 201.505 -3.6488 -1.77813 0
M  V30 2062 H 202.271 -4.83308 0.404741 0
M  V30 2063 H 198.15 -4.54241 -0.786522 0
M  V30 2064 H 201.694 -6.71284 1.898 0
M  V30 2065 H 197.591 -6.41701 0.699309 0
M  V30 2066 H 198.359 -7.89595 2.15596 0
M  V30 2067 N 201.022 0.148545 -1.56898 0
M  V30 2068 C 201.97 1.20265 -1.99096 0
M  V30 2069 C 202.964 1.44559 -0.883123 0
M  V30 2070 O 204.17 1.4487 -1.0683 0
M  V30 2071 H 200.545 0.404786 -0.63376 0
M  V30 2072 H 202.516 0.82004 -2.86911 0
M  V30 2073 C 201.265 2.52886 -2.3863 0
M  V30 2074 H 200.588 2.35021 -3.23427 0
M  V30 2075 H 202.028 3.25274 -2.7198 0
M  V30 2076 C 200.487 3.13315 -1.23837 0
M  V30 2077 O 201.017 3.98077 -0.538268 0
M  V30 2078 N 199.223 2.72742 -1.00301 0
M  V30 2079 H 198.77 2.03912 -1.5741 0
M  V30 2080 H 198.728 3.13507 -0.236838 0
M  V30 2081 N 202.5 1.5196 0.417844 0
M  V30 2082 C 203.725 1.69717 1.1921 0
M  V30 2083 C 204.15 0.402148 1.83751 0
M  V30 2084 O 203.508 -0.639593 1.69643 0
M  V30 2085 C 203.556 2.82794 2.2374 0
M  V30 2086 O 202.66 2.47756 3.29683 0
M  V30 2087 H 202.001 0.565263 0.348387 0
M  V30 2088 H 204.531 1.98621 0.490985 0
M  V30 2089 H 204.541 3.07452 2.68212 0
M  V30 2090 H 203.216 3.76756 1.76146 0
M  V30 2091 H 201.793 2.33739 2.90552 0
M  V30 2092 N 203.978 -0.674533 1.42435 0
M  V30 2093 C 205.206 -1.46283 1.46317 0
M  V30 2094 C 205.621 -1.88653 0.0745836 0
M  V30 2095 O 204.978 -1.58151 -0.91074 0
M  V30 2096 C 205.029 -2.71178 2.3905 0
M  V30 2097 O 204.75 -2.30586 3.72507 0
M  V30 2098 C 206.251 -3.64738 2.51955 0
M  V30 2099 H 203.471 -0.450104 0.497642 0
M  V30 2100 H 206.015 -0.828792 1.86953 0
M  V30 2101 H 204.17 -3.3077 2.01667 0
M  V30 2102 H 204.584 -3.11241 4.22172 0
M  V30 2103 H 206.058 -4.49096 3.20962 0
M  V30 2104 H 206.535 -4.10656 1.55752 0
M  V30 2105 H 207.141 -3.11038 2.90061 0
M  V30 2106 N 205.456 -1.28612 -0.910864 0
M  V30 2107 C 206.872 -1.06381 -1.18976 0
M  V30 2108 C 207.072 0.191998 -2.00583 0
M  V30 2109 O 206.128 0.892869 -2.36187 0
M  V30 2110 C 207.441 -2.31295 -1.92154 0
M  V30 2111 C 208.989 -2.36503 -2.05025 0
M  V30 2112 C 209.464 -3.61191 -2.81612 0
M  V30 2113 N 210.955 -3.61847 -2.89172 0
M  V30 2114 C 211.69 -4.55004 -3.4894 0
M  V30 2115 N 211.186 -5.58482 -4.09963 0
M  V30 2116 N 212.979 -4.42594 -3.46506 0
M  V30 2117 H 205.13 -2.09221 -0.366094 0
M  V30 2118 H 207.393 -0.921003 -0.224629 0
M  V30 2119 H 207.099 -3.228 -1.39618 0
M  V30 2120 H 206.973 -2.37934 -2.9269 0
M  V30 2121 H 209.36 -1.45494 -2.5674 0
M  V30 2122 H 209.441 -2.33857 -1.03657 0
M  V30 2123 H 209.085 -4.52545 -2.30576 0
M  V30 2124 H 209.015 -3.61092 -3.83302 0
M  V30 2125 H 211.506 -2.87022 -2.45819 0
M  V30 2126 H 211.819 -6.25704 -4.53557 0
M  V30 2127 H 210.164 -5.62305 -4.08459 0
M  V30 2128 H 213.355 -3.60953 -2.98045 0
M  V30 2129 H 213.528 -5.15381 -3.92793 0
M  V30 2130 N 206.934 1.1197 -1.10907 0
M  V30 2131 C 208.159 1.87942 -0.877064 0
M  V30 2132 C 208.584 1.79341 0.567314 0
M  V30 2133 O 207.942 1.15184 1.40009 0
M  V30 2134 C 207.99 3.34926 -1.33629 0
M  V30 2135 O 207.094 4.09303 -0.504447 0
M  V30 2136 H 206.435 0.583785 -0.316371 0
M  V30 2137 H 208.965 1.4157 -1.47712 0
M  V30 2138 H 208.975 3.8577 -1.32837 0
M  V30 2139 H 207.65 3.40504 -2.3881 0
M  V30 2140 H 206.227 3.68393 -0.577993 0
M  V30 2141 N 208.412 0.89855 1.29475 0
M  V30 2142 C 209.828 0.594483 1.48115 0
M  V30 2143 C 210.028 -0.86431 1.82022 0
M  V30 2144 O 209.084 -1.64457 1.91599 0
M  V30 2145 C 210.397 1.51932 2.59494 0
M  V30 2146 C 211.945 1.5244 2.7337 0
M  V30 2147 C 212.42 2.43548 3.87877 0
M  V30 2148 N 213.911 2.41589 3.95208 0
M  V30 2149 C 214.646 3.08789 4.83153 0
M  V30 2150 N 214.142 3.85265 5.75798 0
M  V30 2151 N 215.935 2.97952 4.76635 0
M  V30 2152 H 208.086 1.84207 1.05742 0
M  V30 2153 H 210.349 0.789251 0.525154 0
M  V30 2154 H 210.055 2.55865 2.41301 0
M  V30 2155 H 209.929 1.23899 3.56271 0
M  V30 2156 H 212.316 0.492518 2.90961 0
M  V30 2157 H 212.397 1.8451 1.77172 0
M  V30 2158 H 212.041 3.46829 3.71041 0
M  V30 2159 H 211.971 2.08788 4.83441 0
M  V30 2160 H 214.462 1.86025 3.28943 0
M  V30 2161 H 214.775 4.33598 6.39697 0
M  V30 2162 H 213.12 3.89371 5.75687 0
M  V30 2163 H 216.311 2.37723 4.03244 0
M  V30 2164 H 216.484 3.50599 5.44962 0
M  V30 2165 N 209.89 -1.43072 0.660911 0
M  V30 2166 C 211.115 -2.06584 0.183805 0
M  V30 2167 C 211.54 -1.49257 -1.14472 0
M  V30 2168 O 210.898 -0.605528 -1.70889 0
M  V30 2169 C 210.946 -3.60418 0.114434 0
M  V30 2170 O 210.05 -4.01981 -0.921137 0
M  V30 2171 H 209.391 -0.656669 0.0983994 0
M  V30 2172 H 211.921 -1.83447 0.906006 0
M  V30 2173 H 211.931 -4.07946 -0.0663394 0
M  V30 2174 H 210.606 -4.01519 1.08422 0
M  V30 2175 H 209.183 -3.66029 -0.71253 0
M  V30 2176 N 211.368 -0.403325 -1.52352 0
M  V30 2177 C 212.331 0.413051 -2.25447 0
M  V30 2178 C 213.331 0.978513 -1.276 0
M  V30 2179 O 214.521 0.858305 -1.51587 0
M  V30 2180 C 211.653 1.58087 -3.02029 0
M  V30 2181 H 212.846 -0.227094 -2.99039 0
M  V30 2182 H 210.399 -0.155722 -1.55522 0
M  V30 2183 H 211.134 2.25804 -2.32772 0
M  V30 2184 H 210.919 1.18195 -3.73861 0
M  V30 2185 H 212.409 2.1585 -3.57489 0
M  V30 2186 N 212.846 1.57033 -0.133567 0
M  V30 2187 C 214.076 1.99754 0.527429 0
M  V30 2188 C 214.484 1.01245 1.59832 0
M  V30 2189 O 213.827 -0.000645496 1.837 0
M  V30 2190 C 213.889 3.38903 1.19939 0
M  V30 2191 C 213.553 4.56174 0.274709 0
M  V30 2192 C 214.55 5.17563 -0.492398 0
M  V30 2193 C 212.235 5.01972 0.18153 0
M  V30 2194 C 214.229 6.2315 -1.34027 0
M  V30 2195 C 211.916 6.07416 -0.669958 0
M  V30 2196 C 212.914 6.67874 -1.42947 0
M  V30 2197 O 212.602 7.71279 -2.2668 0
M  V30 2198 H 212.334 0.660702 0.142999 0
M  V30 2199 H 214.888 2.04207 -0.221099 0
M  V30 2200 H 213.118 3.31248 1.99528 0
M  V30 2201 H 214.807 3.65818 1.75875 0
M  V30 2202 H 215.573 4.83087 -0.430367 0
M  V30 2203 H 211.452 4.54652 0.762422 0
M  V30 2204 H 214.996 6.70268 -1.93357 0
M  V30 2205 H 210.893 6.41321 -0.73333 0
M  V30 2206 H 211.661 7.88441 -2.1978 0
M  V30 2207 N 214.325 -0.140222 1.56975 0
M  V30 2208 C 215.273 -1.19207 1.99731 0
M  V30 2209 C 216.267 -1.44089 0.890777 0
M  V30 2210 O 217.473 -1.44301 1.07597 0
M  V30 2211 H 213.848 -0.40142 0.635898 0
M  V30 2212 H 215.819 -0.804813 2.87342 0
M  V30 2213 C 214.568 -2.51617 2.39967 0
M  V30 2214 H 213.891 -2.33303 3.24669 0
M  V30 2215 H 215.331 -3.23827 2.73701 0
M  V30 2216 C 213.79 -3.12654 1.25496 0
M  V30 2217 O 214.32 -3.97786 0.559371 0
M  V30 2218 N 212.526 -2.72206 1.01746 0
M  V30 2219 H 212.073 -2.03074 1.58489 0
M  V30 2220 H 212.031 -3.13377 0.253461 0
M  V30 2221 N 215.803 -1.52179 -0.40978 0
M  V30 2222 C 217.049 -1.67408 -1.15525 0
M  V30 2223 C 217.404 -0.398746 -1.88223 0
M  V30 2224 O 216.697 0.60678 -1.81738 0
M  V30 2225 C 216.891 -2.83428 -2.17723 0
M  V30 2226 C 216.72 -4.22121 -1.55061 0
M  V30 2227 C 215.49 -4.87657 -1.3236 0
M  V30 2228 C 217.688 -5.04248 -1.01185 0
M  V30 2229 N 215.67 -6.10387 -0.655834 0
M  V30 2230 C 217.041 -6.18209 -0.470963 0
M  V30 2231 C 219.096 -4.89583 -0.906252 0
M  V30 2232 C 217.799 -7.1911 0.165172 0
M  V30 2233 C 219.825 -5.90718 -0.28397 0
M  V30 2234 C 219.187 -7.03969 0.246243 0
M  V30 2235 H 215.286 -0.666251 -0.409431 0
M  V30 2236 H 217.87 -1.89482 -0.447729 0
M  V30 2237 H 216.041 -2.6297 -2.85834 0
M  V30 2238 H 217.773 -2.87697 -2.84627 0
M  V30 2239 H 214.528 -4.46007 -1.59294 0
M  V30 2240 H 214.952 -6.76153 -0.338596 0
M  V30 2241 H 219.594 -4.02253 -1.302 0
M  V30 2242 H 217.312 -8.06066 0.572986 0
M  V30 2243 H 220.898 -5.81443 -0.203792 0
M  V30 2244 H 219.778 -7.80886 0.720173 0
M  V30 2245 N 217.281 0.66697 -1.42791 0
M  V30 2246 C 218.527 1.42754 -1.44889 0
M  V30 2247 C 218.882 1.92283 -0.0669755 0
M  V30 2248 O 218.175 1.68494 0.912154 0
M  V30 2249 C 218.369 2.6349 -2.4147 0
M  V30 2250 C 218.198 2.25776 -3.88915 0
M  V30 2251 C 216.968 2.1476 -4.57391 0
M  V30 2252 C 219.166 1.86927 -4.79127 0
M  V30 2253 N 217.148 1.70232 -5.89826 0
M  V30 2254 C 218.519 1.53378 -6.00729 0
M  V30 2255 C 220.574 1.73989 -4.66511 0
M  V30 2256 C 219.277 1.08187 -7.11117 0
M  V30 2257 C 221.303 1.30203 -5.76889 0
M  V30 2258 C 220.665 0.975818 -6.97608 0
M  V30 2259 H 216.764 0.518559 -0.585338 0
M  V30 2260 H 219.348 0.768906 -1.78874 0
M  V30 2261 H 217.519 3.27033 -2.09533 0
M  V30 2262 H 219.251 3.30123 -2.34096 0
M  V30 2263 H 216.006 2.3408 -4.11708 0
M  V30 2264 H 216.43 1.50369 -6.6009 0
M  V30 2265 H 221.072 1.97853 -3.7365 0
M  V30 2266 H 218.79 0.830701 -8.03819 0
M  V30 2267 H 222.376 1.20701 -5.69142 0
M  V30 2268 H 221.256 0.642157 -7.81566 0
M  V30 2269 N 218.759 1.29093 0.90403 0
M  V30 2270 C 219.709 1.10482 1.99443 0
M  V30 2271 C 220.693 0.0255401 1.6088 0
M  V30 2272 O 221.885 0.24677 1.75271 0
M  V30 2273 C 219.014 0.778882 3.34348 0
M  V30 2274 C 218.1 1.89749 3.79284 0
M  V30 2275 N 218.491 3.14045 3.96497 0
M  V30 2276 C 216.789 1.78955 4.08523 0
M  V30 2277 C 217.49 3.86996 4.34292 0
M  V30 2278 N 216.466 3.14909 4.43095 0
M  V30 2279 H 220.268 2.04778 2.10815 0
M  V30 2280 H 217.782 1.20155 1.09255 0
M  V30 2281 H 219.779 0.62661 4.12164 0
M  V30 2282 H 218.439 -0.156205 3.24324 0
M  V30 2283 H 219.45 3.49548 3.82148 0
M  V30 2284 H 216.127 0.926886 4.07081 0
M  V30 2285 H 217.517 4.93941 4.55491 0
M  V30 2286 N 220.237 -1.11381 1.11499 0
M  V30 2287 C 221.483 -1.83597 0.875423 0
M  V30 2288 C 221.838 -1.83048 -0.592555 0
M  V30 2289 O 221.131 -1.27304 -1.43193 0
M  V30 2290 C 221.325 -3.30026 1.37177 0
M  V30 2291 C 221.154 -3.44837 2.88647 0
M  V30 2292 C 219.924 -3.57825 3.56776 0
M  V30 2293 C 222.122 -3.3907 3.86699 0
M  V30 2294 N 220.104 -3.61113 4.96458 0
M  V30 2295 C 221.475 -3.48986 5.12454 0
M  V30 2296 C 223.53 -3.22605 3.7925 0
M  V30 2297 C 222.233 -3.44135 6.31636 0
M  V30 2298 C 224.259 -3.19072 4.97943 0
M  V30 2299 C 223.621 -3.29559 6.22551 0
M  V30 2300 H 219.72 -0.687044 0.37349 0
M  V30 2301 H 222.304 -1.33265 1.41946 0
M  V30 2302 H 220.475 -3.78874 0.854919 0
M  V30 2303 H 222.207 -3.90153 1.07529 0
M  V30 2304 H 218.962 -3.60414 3.07244 0
M  V30 2305 H 219.386 -3.66394 5.69284 0
M  V30 2306 H 224.028 -3.13382 2.83816 0
M  V30 2307 H 221.746 -3.52126 7.27347 0
M  V30 2308 H 225.332 -3.07498 4.93899 0
M  V30 2309 H 224.212 -3.26815 7.12855 0
M  V30 2310 N 221.715 -0.905404 -1.28997 0
M  V30 2311 C 222.647 -0.344748 -2.26592 0
M  V30 2312 C 223.66 0.512135 -1.54535 0
M  V30 2313 O 224.849 0.328368 -1.75454 0
M  V30 2314 C 221.949 0.526587 -3.34784 0
M  V30 2315 C 221.122 -0.305871 -4.36329 0
M  V30 2316 C 220.181 0.499209 -5.23827 0
M  V30 2317 O 219.207 -0.0853004 -5.69136 0
M  V30 2318 N 220.409 1.80408 -5.51755 0
M  V30 2319 H 223.174 -1.18359 -2.75338 0
M  V30 2320 H 220.735 -0.770481 -1.42391 0
M  V30 2321 H 222.727 1.07171 -3.90252 0
M  V30 2322 H 221.297 1.26613 -2.85811 0
M  V30 2323 H 220.517 -1.0324 -3.80441 0
M  V30 2324 H 221.805 -0.875773 -5.01206 0
M  V30 2325 H 221.203 2.3016 -5.16762 0
M  V30 2326 H 219.76 2.29621 -6.10014 0
M  V30 2327 N 223.193 1.4272 -0.668489 0
M  V30 2328 C 224.123 2.335 -0.000100175 0
M  V30 2329 C 225.104 1.50328 0.795964 0
M  V30 2330 O 226.289 1.78949 0.754385 0
M  V30 2331 C 223.419 3.33874 0.956302 0
M  V30 2332 C 222.373 4.27152 0.269278 0
M  V30 2333 C 221.699 5.17684 1.33818 0
M  V30 2334 C 222.999 5.15373 -0.847805 0
M  V30 2335 H 224.693 2.89639 -0.758244 0
M  V30 2336 H 222.239 1.39269 -0.366079 0
M  V30 2337 H 224.192 3.9629 1.43292 0
M  V30 2338 H 222.916 2.76025 1.74579 0
M  V30 2339 H 221.575 3.66123 -0.187042 0
M  V30 2340 H 221.223 4.56165 2.1195 0
M  V30 2341 H 220.923 5.80918 0.883659 0
M  V30 2342 H 222.447 5.82974 1.81586 0
M  V30 2343 H 223.861 5.7151 -0.452681 0
M  V30 2344 H 222.258 5.87407 -1.22773 0
M  V30 2345 H 223.328 4.5415 -1.69929 0
M  V30 2346 N 224.671 0.411399 1.52136 0
M  V30 2347 C 225.919 -0.163322 2.01439 0
M  V30 2348 C 226.24 -1.45453 1.29879 0
M  V30 2349 O 225.51 -1.91225 0.4254 0
M  V30 2350 H 224.09 -0.0633447 0.744309 0
M  V30 2351 H 226.752 0.548161 1.87033 0
M  V30 2352 H 225.848 -0.357817 3.10042 0
M  V30 2353 N 226.149 -1.5696 0.141893 0
M  V30 2354 C 227.398 -1.95135 -0.510427 0
M  V30 2355 C 227.711 -1.02896 -1.66348 0
M  V30 2356 O 228.917 -1.30629 -2.38009 0
M  V30 2357 C 227.373 -3.46876 -0.959427 0
M  V30 2358 C 226.981 -4.47691 0.166419 0
M  V30 2359 C 228.725 -3.93927 -1.58183 0
M  V30 2360 C 226.632 -5.90636 -0.300565 0
M  V30 2361 H 225.562 -0.728494 -0.194454 0
M  V30 2362 H 228.213 -1.8211 0.22542 0
M  V30 2363 H 226.595 -3.55215 -1.75038 0
M  V30 2364 H 227.769 -4.51043 0.94325 0
M  V30 2365 H 226.084 -4.10527 0.696905 0
M  V30 2366 H 228.681 -4.98158 -1.94275 0
M  V30 2367 H 229.024 -3.3519 -2.46888 0
M  V30 2368 H 229.557 -3.88484 -0.855863 0
M  V30 2369 H 226.296 -6.5318 0.550989 0
M  V30 2370 H 225.816 -5.90655 -1.04338 0
M  V30 2371 H 227.495 -6.42588 -0.754265 0
M  V30 2372 N 227.627 0.131896 -1.57047 0
M  V30 2373 C 229.038 0.690407 -1.73465 0
M  V30 2374 C 229.389 1.8094 -0.758629 0
M  V30 2375 O 228.514 2.16282 0.0713813 0
M  V30 2376 C 229.109 1.25916 -3.14532 0
M  V30 2377 C 227.668 1.76409 -3.32501 0
M  V30 2378 C 226.815 0.658579 -2.69366 0
M  V30 2379 H 229.766 -0.0939144 -1.58422 0
M  V30 2380 H 229.787 2.12892 -3.15369 0
M  V30 2381 H 229.299 0.444515 -3.85546 0
M  V30 2382 H 227.4 2.60391 -2.66509 0
M  V30 2383 H 227.513 1.88241 -4.4057 0
M  V30 2384 H 225.877 1.08899 -2.30246 0
M  V30 2385 H 226.66 -0.14487 -3.42994 0
M  V30 2386 N 229.106 1.52395 0.401703 0
M  V30 2387 C 230.039 1.70999 1.51111 0
M  V30 2388 C 231.017 0.55765 1.52738 0
M  V30 2389 O 232.201 0.785912 1.71335 0
M  V30 2390 C 229.328 1.75607 2.8962 0
M  V30 2391 C 228.374 2.97227 3.05873 0
M  V30 2392 S 229.207 4.57439 2.78405 0
M  V30 2393 C 230.363 4.64844 4.19131 0
M  V30 2394 H 230.596 2.6483 1.35102 0
M  V30 2395 H 228.129 1.42527 0.593762 0
M  V30 2396 H 230.087 1.78947 3.69443 0
M  V30 2397 H 228.748 0.828914 3.02965 0
M  V30 2398 H 227.941 2.96955 4.07227 0
M  V30 2399 H 227.543 2.91813 2.33925 0
M  V30 2400 H 229.835 4.42677 5.12877 0
M  V30 2401 H 230.778 5.66807 4.24424 0
M  V30 2402 H 231.186 3.93804 4.04448 0
M  V30 2403 N 230.584 -0.659388 1.43143 0
M  V30 2404 C 231.809 -1.45221 1.48073 0
M  V30 2405 C 232.234 -1.87845 0.097995 0
M  V30 2406 O 231.592 -1.56985 -0.90694 0
M  V30 2407 C 231.64 -2.66748 2.42647 0
M  V30 2408 O 230.744 -3.65583 1.90848 0
M  V30 2409 H 230.085 -0.435669 0.501088 0
M  V30 2410 H 232.615 -0.807432 1.87994 0
M  V30 2411 H 232.625 -3.14637 2.59745 0
M  V30 2412 H 231.3 -2.35067 3.43098 0
M  V30 2413 H 229.877 -3.24693 1.83381 0
M  V30 2414 N 232.062 -1.29571 -0.897171 0
M  V30 2415 C 232.992 -1.17473 -2.01798 0
M  V30 2416 C 233.973 -0.068323 -1.69963 0
M  V30 2417 O 235.158 -0.248239 -1.92607 0
M  V30 2418 C 232.288 -0.853099 -3.36659 0
M  V30 2419 C 231.242 -1.9161 -3.82713 0
M  V30 2420 C 230.568 -1.44773 -5.14728 0
M  V30 2421 C 231.868 -3.32535 -4.02763 0
M  V30 2422 H 233.562 -2.11237 -2.12177 0
M  V30 2423 H 231.108 -1.01699 -1.01948 0
M  V30 2424 H 233.061 -0.755165 -4.14578 0
M  V30 2425 H 231.785 0.120236 -3.26379 0
M  V30 2426 H 230.444 -2.00346 -3.07013 0
M  V30 2427 H 230.092 -0.462995 -5.00865 0
M  V30 2428 H 229.792 -2.15865 -5.46513 0
M  V30 2429 H 231.316 -1.36334 -5.95185 0
M  V30 2430 H 232.73 -3.26626 -4.71156 0
M  V30 2431 H 231.127 -4.01607 -4.45905 0
M  V30 2432 H 232.197 -3.75326 -3.07016 0
M  V30 2433 N 233.54 1.10788 -1.12088 0
M  V30 2434 C 234.488 2.19111 -0.780587 0
M  V30 2435 C 235.482 1.67818 0.230961 0
M  V30 2436 O 236.688 1.79777 0.0895427 0
M  V30 2437 H 233.063 0.714477 -0.234578 0
M  V30 2438 H 235.034 2.45055 -1.70266 0
M  V30 2439 C 233.783 3.46818 -0.24747 0
M  V30 2440 H 233.106 3.86646 -1.01712 0
M  V30 2441 H 234.546 4.23973 -0.0476291 0
M  V30 2442 C 233.005 3.20968 1.02378 0
M  V30 2443 O 233.535 3.42298 2.10226 0
M  V30 2444 N 231.741 2.74658 0.949271 0
M  V30 2445 H 231.288 2.57501 0.0715173 0
M  V30 2446 H 231.246 2.57739 1.80049 0
M  V30 2447 N 235.018 0.912232 1.28515 0
M  V30 2448 C 236.295 0.463597 1.90027 0
M  V30 2449 C 236.675 -1.05753 1.82701 0
M  V30 2450 O 236.023 -1.90492 1.26194 0
M  V30 2451 C 236.233 0.992253 3.34597 0
M  V30 2452 C 237.581 1.04344 4.11579 0
M  V30 2453 O 238.605 0.94079 3.43551 0
M  V30 2454 O 237.464 1.1995 5.33174 0
M  V30 2455 H 234.558 0.146666 0.813891 0
M  V30 2456 H 237.104 1.00292 1.36893 0
M  V30 2457 H 235.876 2.03623 3.34146 0
M  V30 2458 H 235.499 0.433672 3.95228 0
M  V30 2459 N 236.496 -1.42363 0.676048 0
M  V30 2460 C 237.745 -2.00745 0.196037 0
M  V30 2461 C 238.058 -1.54083 -1.20489 0
M  V30 2462 O 239.264 -2.04891 -1.78134 0
M  V30 2463 C 237.72 -3.58651 0.299616 0
M  V30 2464 C 237.328 -4.143 1.70468 0
M  V30 2465 C 239.072 -4.24326 -0.121619 0
M  V30 2466 C 236.979 -5.64574 1.76096 0
M  V30 2467 H 235.909 -0.750787 0.0695301 0
M  V30 2468 H 238.56 -1.63072 0.841412 0
M  V30 2469 H 236.942 -3.93833 -0.413673 0
M  V30 2470 H 238.116 -3.90575 2.44515 0
M  V30 2471 H 236.431 -3.61081 2.07387 0
M  V30 2472 H 239.028 -5.34607 -0.0997362 0
M  V30 2473 H 239.371 -3.99897 -1.15708 0
M  V30 2474 H 239.904 -3.94108 0.540706 0
M  V30 2475 H 236.643 -5.93804 2.77628 0
M  V30 2476 H 236.163 -5.90286 1.06406 0
M  V30 2477 H 237.842 -6.29013 1.51496 0
M  V30 2478 N 237.974 -0.419461 -1.51915 0
M  V30 2479 C 238.937 0.389116 -2.25873 0
M  V30 2480 C 239.937 0.964924 -1.28631 0
M  V30 2481 O 241.127 0.842179 -1.52489 0
M  V30 2482 C 238.259 1.54874 -3.03689 0
M  V30 2483 H 239.452 -0.258799 -2.98781 0
M  V30 2484 H 237.005 -0.172209 -1.55348 0
M  V30 2485 H 237.74 2.23323 -2.35154 0
M  V30 2486 H 237.525 1.14223 -3.75094 0
M  V30 2487 H 239.015 2.12046 -3.59759 0
M  V30 2488 N 239.452 1.56882 -0.150215 0
M  V30 2489 C 240.698 1.96518 0.500834 0
M  V30 2490 C 241.031 1.03527 1.64304 0
M  V30 2491 O 240.306 0.0782751 1.94342 0
M  V30 2492 C 240.589 3.45822 1.00395 0
M  V30 2493 C 240.442 4.49591 -0.136983 0
M  V30 2494 C 241.761 3.97704 1.88467 0
M  V30 2495 H 238.88 0.714535 0.18058 0
M  V30 2496 H 241.522 1.88577 -0.232091 0
M  V30 2497 H 239.672 3.5272 1.62851 0
M  V30 2498 H 241.344 4.5477 -0.77343 0
M  V30 2499 H 239.587 4.26441 -0.795652 0
M  V30 2500 H 240.258 5.51402 0.256815 0
M  V30 2501 H 242.734 3.93304 1.35834 0
M  V30 2502 H 241.61 5.0263 2.20578 0
M  V30 2503 H 241.871 3.40252 2.82279 0
M  V30 2504 N 240.93 -0.123565 1.57115 0
M  V30 2505 C 241.86 -1.15309 2.03042 0
M  V30 2506 C 242.841 -1.43454 0.914061 0
M  V30 2507 O 244.026 -1.53973 1.18347 0
M  V30 2508 C 241.156 -2.48043 2.43089 0
M  V30 2509 C 240.11 -2.3437 3.58127 0
M  V30 2510 C 239.436 -3.72026 3.84059 0
M  V30 2511 C 240.736 -1.80804 4.90007 0
M  V30 2512 H 242.43 -0.771102 2.893 0
M  V30 2513 H 239.976 -0.369479 1.39179 0
M  V30 2514 H 241.929 -3.20311 2.73823 0
M  V30 2515 H 240.653 -2.88122 1.53796 0
M  V30 2516 H 239.312 -1.64551 3.27595 0
M  V30 2517 H 238.96 -4.09582 2.91979 0
M  V30 2518 H 238.66 -3.63732 4.6149 0
M  V30 2519 H 240.184 -4.45806 4.1724 0
M  V30 2520 H 241.598 -2.42886 5.19307 0
M  V30 2521 H 239.995 -1.83343 5.71407 0
M  V30 2522 H 241.065 -0.76528 4.78823 0
M  V30 2523 N 242.408 -1.52605 -0.393616 0
M  V30 2524 C 243.338 -1.80022 -1.48709 0
M  V30 2525 C 244.319 -0.651995 -1.57108 0
M  V30 2526 O 245.504 -0.89913 -1.72132 0
M  V30 2527 C 242.634 -1.96492 -2.86371 0
M  V30 2528 C 241.588 -3.12161 -2.92813 0
M  V30 2529 C 240.914 -3.13877 -4.3288 0
M  V30 2530 C 242.214 -4.51322 -2.6288 0
M  V30 2531 H 243.908 -2.71589 -1.26015 0
M  V30 2532 H 241.454 -1.30684 -0.604778 0
M  V30 2533 H 243.407 -2.14255 -3.62867 0
M  V30 2534 H 242.131 -1.01611 -3.10391 0
M  V30 2535 H 240.79 -2.94173 -2.18764 0
M  V30 2536 H 240.438 -2.16687 -4.53933 0
M  V30 2537 H 240.138 -3.91576 -4.38112 0
M  V30 2538 H 241.662 -3.33789 -5.1129 0
M  V30 2539 H 243.076 -4.69435 -3.29096 0
M  V30 2540 H 241.473 -5.31053 -2.79468 0
M  V30 2541 H 242.543 -4.58353 -1.58242 0
M  V30 2542 N 243.887 0.651787 -1.4349 0
M  V30 2543 C 245.117 1.43728 -1.48411 0
M  V30 2544 C 245.525 1.8893 -0.10103 0
M  V30 2545 O 244.868 1.60182 0.899307 0
M  V30 2546 C 244.93 2.70411 -2.36893 0
M  V30 2547 C 244.594 2.4714 -3.8441 0
M  V30 2548 C 245.591 2.10271 -4.75481 0
M  V30 2549 C 243.276 2.6142 -4.28912 0
M  V30 2550 C 245.27 1.87982 -6.0905 0
M  V30 2551 C 242.957 2.38746 -5.62533 0
M  V30 2552 C 243.955 2.02083 -6.5242 0
M  V30 2553 O 243.643 1.79647 -7.8357 0
M  V30 2554 H 243.375 0.447962 -0.506267 0
M  V30 2555 H 245.929 0.80624 -1.88915 0
M  V30 2556 H 244.159 3.36079 -1.91278 0
M  V30 2557 H 245.848 3.32364 -2.33 0
M  V30 2558 H 246.614 1.98814 -4.42378 0
M  V30 2559 H 242.493 2.88931 -3.59222 0
M  V30 2560 H 246.037 1.5929 -6.7917 0
M  V30 2561 H 241.934 2.49806 -5.95203 0
M  V30 2562 H 242.702 1.9406 -7.95162 0
M  V30 2563 N 245.365 1.30045 0.890287 0
M  V30 2564 C 246.642 1.09227 1.62262 0
M  V30 2565 C 247.022 -0.360305 2.08002 0
M  V30 2566 O 246.37 -1.35084 1.84295 0
M  V30 2567 C 246.58 2.08835 2.79623 0
M  V30 2568 C 247.928 2.40266 3.50082 0
M  V30 2569 O 248.952 2.07104 2.89804 0
M  V30 2570 O 247.811 2.96967 4.58773 0
M  V30 2571 H 244.905 0.419132 0.712922 0
M  V30 2572 H 247.451 1.41451 0.937529 0
M  V30 2573 H 246.223 3.06633 2.43089 0
M  V30 2574 H 245.846 1.77397 3.55832 0
M  V30 2575 N 246.843 -1.10192 1.12674 0
M  V30 2576 C 248.12 -1.78717 0.794965 0
M  V30 2577 C 248.5 -1.98628 -0.714853 0
M  V30 2578 O 247.848 -1.58135 -1.64941 0
M  V30 2579 C 248.058 -3.11546 1.5729 0
M  V30 2580 C 249.406 -3.86382 1.76052 0
M  V30 2581 O 250.43 -3.21274 1.53823 0
M  V30 2582 O 249.289 -5.03246 2.13087 0
M  V30 2583 H 246.383 -0.774702 0.289423 0
M  V30 2584 H 248.929 -1.16819 1.23091 0
M  V30 2585 H 247.701 -2.92489 2.59935 0
M  V30 2586 H 247.324 -3.81164 1.13137 0
M  V30 2587 N 248.321 -0.919034 -1.28029 0
M  V30 2588 C 249.57 -0.550802 -1.94034 0
M  V30 2589 C 249.883 0.910877 -1.73096 0
M  V30 2590 O 251.089 1.3875 -2.33368 0
M  V30 2591 C 249.545 -0.934249 -3.47563 0
M  V30 2592 C 249.153 -2.41602 -3.7727 0
M  V30 2593 C 250.897 -0.636854 -4.19696 0
M  V30 2594 C 248.804 -2.73932 -5.24133 0
M  V30 2595 H 247.734 -0.202273 -0.726362 0
M  V30 2596 H 250.385 -1.11867 -1.45458 0
M  V30 2597 H 248.767 -0.295115 -3.94899 0
M  V30 2598 H 249.941 -3.10233 -3.40723 0
M  V30 2599 H 248.256 -2.68441 -3.18321 0
M  V30 2600 H 250.853 -0.855005 -5.2782 0
M  V30 2601 H 251.196 0.425575 -4.14119 0
M  V30 2602 H 251.729 -1.23469 -3.78154 0
M  V30 2603 H 248.468 -3.79049 -5.34792 0
M  V30 2604 H 247.988 -2.09942 -5.61858 0
M  V30 2605 H 249.667 -2.61215 -5.91925 0
M  V30 2606 N 249.799 1.42003 -0.683588 0
M  V30 2607 C 251.024 2.06265 -0.216647 0
M  V30 2608 C 251.449 1.51059 1.12083 0
M  V30 2609 O 250.807 0.632638 1.69904 0
M  V30 2610 C 250.855 3.60191 -0.171759 0
M  V30 2611 O 249.959 4.03396 0.857069 0
M  V30 2612 H 249.3 0.65502 -0.108834 0
M  V30 2613 H 251.83 1.81982 -0.935077 0
M  V30 2614 H 251.84 4.08 0.0014303 0
M  V30 2615 H 250.515 3.99743 -1.14796 0
M  V30 2616 H 249.092 3.67117 0.654208 0
M  V30 2617 N 251.277 0.427512 1.51691 0
M  V30 2618 C 252.24 -0.377132 2.26076 0
M  V30 2619 C 253.24 -0.958089 1.29141 0
M  V30 2620 O 254.43 -0.83408 1.52934 0
M  V30 2621 C 251.562 -1.53262 3.04506 0
M  V30 2622 H 252.755 0.27464 2.9864 0
M  V30 2623 H 250.308 0.180445 1.55255 0
M  V30 2624 H 251.043 -2.22072 2.36335 0
M  V30 2625 H 250.828 -1.12232 3.75694 0
M  V30 2626 H 252.318 -2.10135 3.60878 0
M  V30 2627 N 252.755 -1.56801 0.158532 0
M  V30 2628 C 253.718 -2.16138 -0.762705 0
M  V30 2629 C 254.718 -1.1061 -1.16713 0
M  V30 2630 O 255.908 -1.36191 -1.08617 0
M  V30 2631 C 253.04 -2.73386 -2.03649 0
M  V30 2632 H 254.233 -2.98886 -0.246354 0
M  V30 2633 H 251.786 -1.56035 -0.0909744 0
M  V30 2634 H 252.521 -1.94335 -2.59623 0
M  V30 2635 H 252.306 -3.50601 -1.75559 0
M  V30 2636 H 253.796 -3.19065 -2.6942 0
M  V30 2637 N 254.233 0.115231 -1.57178 0
M  V30 2638 C 255.649 0.468877 -1.52557 0
M  V30 2639 C 255.849 1.81649 -0.872125 0
M  V30 2640 O 254.905 2.48347 -0.45606 0
M  V30 2641 C 256.218 0.4499 -2.97315 0
M  V30 2642 C 257.766 0.533185 -3.08425 0
M  V30 2643 C 258.241 0.54456 -4.54751 0
M  V30 2644 N 259.732 0.605892 -4.5922 0
M  V30 2645 C 260.467 0.636203 -5.6986 0
M  V30 2646 N 259.963 0.623931 -6.89985 0
M  V30 2647 N 261.756 0.679496 -5.57978 0
M  V30 2648 H 253.907 -0.767712 -1.9804 0
M  V30 2649 H 256.17 -0.283609 -0.904583 0
M  V30 2650 H 255.876 -0.472721 -3.48509 0
M  V30 2651 H 255.75 1.27632 -3.5495 0
M  V30 2652 H 258.137 1.44623 -2.57232 0
M  V30 2653 H 258.218 -0.320995 -2.53778 0
M  V30 2654 H 257.862 -0.364452 -5.06591 0
M  V30 2655 H 257.792 1.41568 -5.07214 0
M  V30 2656 H 260.283 0.621386 -3.72756 0
M  V30 2657 H 260.596 0.649787 -7.70063 0
M  V30 2658 H 258.941 0.591296 -6.9248 0
M  V30 2659 H 262.132 0.686472 -4.63039 0
M  V30 2660 H 262.305 0.69965 -6.44212 0
M  V30 2661 N 255.711 1.52812 0.385517 0
M  V30 2662 C 256.644 1.72592 1.49289 0
M  V30 2663 C 257.622 0.573819 1.52138 0
M  V30 2664 O 258.806 0.80404 1.70492 0
M  V30 2665 C 255.933 1.78669 2.87741 0
M  V30 2666 C 254.979 3.00455 3.02703 0
M  V30 2667 S 255.812 4.60366 2.73538 0
M  V30 2668 C 256.968 4.69263 4.14177 0
M  V30 2669 H 257.201 2.66248 1.32285 0
M  V30 2670 H 254.734 1.43148 0.578611 0
M  V30 2671 H 256.692 1.82855 3.67524 0
M  V30 2672 H 255.353 0.861 3.02069 0
M  V30 2673 H 254.546 3.01258 4.04054 0
M  V30 2674 H 254.148 2.94278 2.30817 0
M  V30 2675 H 256.44 4.48092 5.08153 0
M  V30 2676 H 257.383 5.71276 4.18388 0
M  V30 2677 H 257.791 3.98072 4.00249 0
M  V30 2678 N 257.189 -0.644168 1.43834 0
M  V30 2679 C 258.152 -1.73857 1.49353 0
M  V30 2680 C 259.152 -1.56315 0.377112 0
M  V30 2681 O 260.342 -1.62048 0.639226 0
M  V30 2682 C 257.474 -3.12819 1.35488 0
M  V30 2683 H 258.667 -1.70342 2.46827 0
M  V30 2684 H 256.22 -0.856652 1.30733 0
M  V30 2685 H 256.955 -3.2194 0.390569 0
M  V30 2686 H 256.74 -3.26958 2.16428 0
M  V30 2687 H 258.23 -3.92606 1.42302 0
M  V30 2688 N 258.668 -1.30515 -0.883378 0
M  V30 2689 C 259.896 -1.22359 -1.66841 0
M  V30 2690 C 260.311 0.213296 -1.87591 0
M  V30 2691 O 259.668 1.14075 -1.42454 0
M  V30 2692 C 259.719 -1.95011 -3.04389 0
M  V30 2693 O 259.44 -3.3309 -2.84575 0
M  V30 2694 C 260.941 -1.93532 -3.98824 0
M  V30 2695 H 258.161 -0.423371 -0.520575 0
M  V30 2696 H 260.705 -1.72167 -1.10357 0
M  V30 2697 H 258.86 -1.48997 -3.57601 0
M  V30 2698 H 259.274 -3.69907 -3.71846 0
M  V30 2699 H 260.748 -2.48902 -4.92699 0
M  V30 2700 H 261.225 -0.914627 -4.29571 0
M  V30 2701 H 261.831 -2.39364 -3.51547 0
M  V30 2702 N 260.146 1.09593 -1.13257 0
M  V30 2703 C 261.376 1.85231 -0.915049 0
M  V30 2704 C 261.784 1.81345 0.539498 0
M  V30 2705 O 261.127 1.20664 1.38513 0
M  V30 2706 C 261.189 3.34275 -1.3229 0
M  V30 2707 C 260.853 3.6191 -2.79052 0
M  V30 2708 C 261.85 3.57777 -3.77216 0
M  V30 2709 C 259.535 3.90309 -3.16171 0
M  V30 2710 C 261.529 3.81652 -5.1051 0
M  V30 2711 C 259.216 4.13839 -4.49644 0
M  V30 2712 C 260.214 4.09502 -5.46623 0
M  V30 2713 O 259.902 4.32426 -6.77689 0
M  V30 2714 H 259.634 0.591997 -0.326367 0
M  V30 2715 H 262.188 1.394 -1.50854 0
M  V30 2716 H 260.418 3.80805 -0.672667 0
M  V30 2717 H 262.107 3.9132 -1.07812 0
M  V30 2718 H 262.873 3.35865 -3.49885 0
M  V30 2719 H 258.752 3.92811 -2.41289 0
M  V30 2720 H 262.296 3.78182 -5.86195 0
M  V30 2721 H 258.193 4.35232 -4.767 0
M  V30 2722 H 258.961 4.49896 -6.83766 0
M  V30 2723 N 261.624 0.925811 1.2754 0
M  V30 2724 C 262.557 0.367836 2.25216 0
M  V30 2725 C 263.535 -0.534738 1.53556 0
M  V30 2726 O 264.719 -0.475672 1.824 0
M  V30 2727 C 261.846 -0.47298 3.35381 0
M  V30 2728 C 260.892 0.365898 4.24928 0
M  V30 2729 S 261.725 1.78025 5.05042 0
M  V30 2730 C 262.881 0.947068 6.18693 0
M  V30 2731 H 263.114 1.19568 2.72196 0
M  V30 2732 H 260.647 0.727867 1.36167 0
M  V30 2733 H 262.605 -0.952242 3.99303 0
M  V30 2734 H 261.266 -1.27533 2.87044 0
M  V30 2735 H 260.459 -0.277582 5.03235 0
M  V30 2736 H 260.061 0.779261 3.65792 0
M  V30 2737 H 262.353 0.182201 6.77255 0
M  V30 2738 H 263.296 1.70309 6.87314 0
M  V30 2739 H 263.704 0.489913 5.6237 0
M  V30 2740 N 263.102 -1.41638 0.69111 0
M  V30 2741 C 264.379 -1.95036 0.148421 0
M  V30 2742 C 264.759 -1.63072 -1.34055 0
M  V30 2743 O 264.107 -0.93538 -2.08478 0
M  V30 2744 C 264.317 -3.46279 0.434951 0
M  V30 2745 C 265.665 -4.23069 0.360275 0
M  V30 2746 O 266.689 -3.54277 0.369613 0
M  V30 2747 O 265.548 -5.45583 0.316534 0
M  V30 2748 H 262.642 -0.826908 0.0123654 0
M  V30 2749 H 265.188 -1.5138 0.766963 0
M  V30 2750 H 263.96 -3.6281 1.46576 0
M  V30 2751 H 263.583 -3.97019 -0.214787 0
M  V30 2752 N 264.58 -0.43555 -1.51462 0
M  V30 2753 C 265.808 0.130242 -2.0649 0
M  V30 2754 C 266.223 1.36614 -1.30315 0
M  V30 2755 O 265.58 1.78869 -0.362223 0
M  V30 2756 C 265.631 0.454253 -3.58635 0
M  V30 2757 O 265.352 -0.73259 -4.31931 0
M  V30 2758 C 266.853 1.07091 -4.3017 0
M  V30 2759 H 264.073 0.00871669 -0.670943 0
M  V30 2760 H 266.617 -0.614117 -1.95061 0
M  V30 2761 H 264.772 1.14851 -3.69984 0
M  V30 2762 H 265.186 -0.455787 -5.22516 0
M  V30 2763 H 266.66 1.24764 -5.37716 0
M  V30 2764 H 267.137 2.05144 -3.88346 0
M  V30 2765 H 267.743 0.416089 -4.2326 0
M  V30 2766 N 266.058 1.56714 -0.166846 0
M  V30 2767 C 267.307 1.95922 0.479318 0
M  V30 2768 C 267.62 1.05529 1.6469 0
M  V30 2769 O 268.826 1.34399 2.35901 0
M  V30 2770 C 267.282 3.48359 0.90412 0
M  V30 2771 C 266.89 4.47369 -0.237621 0
M  V30 2772 C 268.634 3.96394 1.51896 0
M  V30 2773 C 266.541 5.91039 0.206561 0
M  V30 2774 H 265.471 0.731495 0.18284 0
M  V30 2775 H 268.122 1.81728 -0.254363 0
M  V30 2776 H 266.504 3.57955 1.69365 0
M  V30 2777 H 267.678 4.49485 -1.01489 0
M  V30 2778 H 265.993 4.09366 -0.762128 0
M  V30 2779 H 268.59 5.01186 1.86325 0
M  V30 2780 H 268.933 3.39075 2.41524 0
M  V30 2781 H 269.466 3.89796 0.79395 0
M  V30 2782 H 266.205 6.52221 -0.654834 0
M  V30 2783 H 265.725 5.9224 0.949282 0
M  V30 2784 H 267.404 6.43707 0.651939 0
M  V30 2785 N 267.536 -0.106894 1.57237 0
M  V30 2786 C 268.813 -0.843526 1.76477 0
M  V30 2787 C 269.193 -1.97499 0.745464 0
M  V30 2788 O 268.541 -2.27357 -0.228306 0
M  V30 2789 C 268.751 -1.34903 3.21873 0
M  V30 2790 C 270.099 -1.79654 3.8472 0
M  V30 2791 O 271.123 -1.44554 3.2555 0
M  V30 2792 O 269.982 -2.44515 4.88748 0
M  V30 2793 H 267.076 -0.401468 0.723016 0
M  V30 2794 H 269.622 -0.0896927 1.69463 0
M  V30 2795 H 268.394 -0.53781 3.87586 0
M  V30 2796 H 268.017 -2.16522 3.33473 0
M  V30 2797 N 269.014 -1.53014 -0.377408 0
M  V30 2798 C 270.244 -1.72265 -1.14054 0
M  V30 2799 C 270.652 -0.44601 -1.83868 0
M  V30 2800 O 269.995 0.590095 -1.73964 0
M  V30 2801 C 270.057 -2.82492 -2.22348 0
M  V30 2802 C 269.721 -4.23233 -1.72402 0
M  V30 2803 C 270.718 -5.05992 -1.19448 0
M  V30 2804 C 268.403 -4.696 -1.78273 0
M  V30 2805 C 270.397 -6.33203 -0.730268 0
M  V30 2806 C 268.084 -5.96792 -1.31464 0
M  V30 2807 C 269.082 -6.78424 -0.789297 0
M  V30 2808 O 268.77 -8.0323 -0.328077 0
M  V30 2809 H 268.502 -0.579873 -0.347453 0
M  V30 2810 H 271.056 -2.00502 -0.445882 0
M  V30 2811 H 269.286 -2.49702 -2.95272 0
M  V30 2812 H 270.975 -2.90034 -2.83963 0
M  V30 2813 H 271.741 -4.71349 -1.14259 0
M  V30 2814 H 267.62 -4.06142 -2.18106 0
M  V30 2815 H 271.164 -6.96868 -0.319542 0
M  V30 2816 H 267.061 -6.30937 -1.36342 0
M  V30 2817 H 267.829 -8.1727 -0.448493 0
M  V30 2818 N 270.492 0.636531 -1.44174 0
M  V30 2819 C 271.739 1.39619 -1.46672 0
M  V30 2820 C 272.067 1.94257 -0.0972691 0
M  V30 2821 O 271.322 1.73768 0.900175 0
M  V30 2822 C 271.621 2.58309 -2.47005 0
M  V30 2823 C 271.287 2.21992 -3.92467 0
M  V30 2824 C 269.949 2.118 -4.32081 0
M  V30 2825 C 272.301 1.9321 -4.84065 0
M  V30 2826 C 269.629 1.71007 -5.61225 0
M  V30 2827 C 271.981 1.53911 -6.13591 0
M  V30 2828 C 270.645 1.42257 -6.52165 0
M  V30 2829 H 269.915 0.510902 -0.536712 0
M  V30 2830 H 272.562 0.722328 -1.77355 0
M  V30 2831 H 270.867 3.30903 -2.09786 0
M  V30 2832 H 272.564 3.16533 -2.46186 0
M  V30 2833 H 269.154 2.30841 -3.61124 0
M  V30 2834 H 273.338 1.99997 -4.54219 0
M  V30 2835 H 268.594 1.60583 -5.89935 0
M  V30 2836 H 272.768 1.30677 -6.8403 0
M  V30 2837 H 270.395 1.10419 -7.52138 0
M  V30 2838 N 271.97 1.30982 0.876444 0
M  V30 2839 C 273.198 1.23242 1.6619 0
M  V30 2840 C 273.613 -0.203345 1.87702 0
M  V30 2841 O 272.97 -1.13317 1.43057 0
M  V30 2842 C 273.021 1.96623 3.03351 0
M  V30 2843 O 272.742 3.34594 2.82804 0
M  V30 2844 C 274.243 1.95644 3.97792 0
M  V30 2845 H 271.463 0.426126 0.518322 0
M  V30 2846 H 274.007 1.7275 1.09442 0
M  V30 2847 H 272.162 1.50892 3.56806 0
M  V30 2848 H 272.576 3.71873 3.69879 0
M  V30 2849 H 274.05 2.51511 4.91372 0
M  V30 2850 H 274.527 0.937395 4.2908 0
M  V30 2851 H 275.133 2.41225 3.50272 0
M  V30 2852 N 273.449 -1.08991 1.13837 0
M  V30 2853 C 274.86 -1.62746 0.914917 0
M  V30 2854 C 275.211 -1.88403 -0.547594 0
M  V30 2855 O 274.336 -1.63706 -1.41525 0
M  V30 2856 C 274.931 -2.95662 1.65437 0
M  V30 2857 C 273.49 -3.46225 1.47666 0
M  V30 2858 C 272.637 -2.20562 1.6807 0
M  V30 2859 H 275.588 -0.922946 1.29102 0
M  V30 2860 H 275.609 -3.63825 1.11407 0
M  V30 2861 H 275.121 -2.76956 2.71877 0
M  V30 2862 H 273.222 -3.70046 0.435478 0
M  V30 2863 H 273.335 -4.23368 2.24268 0
M  V30 2864 H 271.699 -2.29439 1.10589 0
M  V30 2865 H 272.482 -2.0437 2.7584 0
M  V30 2866 N 274.927 -0.932562 -1.27047 0
M  V30 2867 C 276.152 -0.591474 -1.98787 0
M  V30 2868 C 276.577 0.824601 -1.69062 0
M  V30 2869 O 275.935 1.5541 -0.933677 0
M  V30 2870 C 275.983 -0.829808 -3.50922 0
M  V30 2871 O 275.087 0.102266 -4.12273 0
M  V30 2872 H 274.428 -0.227185 -0.623926 0
M  V30 2873 H 276.958 -1.25314 -1.61733 0
M  V30 2874 H 276.968 -0.747292 -4.01098 0
M  V30 2875 H 275.643 -1.86201 -3.7189 0
M  V30 2876 H 274.22 -0.0305761 -3.72887 0
M  V30 2877 N 276.405 1.4127 -0.698611 0
M  V30 2878 C 277.654 2.00408 -0.227949 0
M  V30 2879 C 277.967 1.55981 1.18023 0
M  V30 2880 O 279.173 2.07699 1.74852 0
M  V30 2881 C 277.629 3.58129 -0.356636 0
M  V30 2882 C 277.237 4.11536 -1.77037 0
M  V30 2883 C 278.981 4.24466 0.0540969 0
M  V30 2884 C 276.888 5.61701 -1.85055 0
M  V30 2885 H 275.818 0.749586 -0.0814657 0
M  V30 2886 H 278.469 1.61713 -0.867249 0
M  V30 2887 H 276.851 3.94442 0.350965 0
M  V30 2888 H 278.025 3.86636 -2.50698 0
M  V30 2889 H 276.34 3.57736 -2.13105 0
M  V30 2890 H 278.937 5.34698 0.0146723 0
M  V30 2891 H 279.28 4.01687 1.09332 0
M  V30 2892 H 279.813 3.93198 -0.603337 0
M  V30 2893 H 276.552 5.89312 -2.8704 0
M  V30 2894 H 276.072 5.88519 -1.15783 0
M  V30 2895 H 277.751 6.26524 -1.61484 0
M  V30 2896 N 277.883 0.443576 1.51229 0
M  V30 2897 C 279.131 -0.120557 2.0174 0
M  V30 2898 C 279.452 -1.42665 1.32935 0
M  V30 2899 O 278.722 -1.9028 0.465866 0
M  V30 2900 H 277.302 -0.0475426 0.745486 0
M  V30 2901 H 279.964 0.587711 1.85828 0
M  V30 2902 H 279.06 -0.291972 3.10731 0
M  V30 2903 N 279.361 -1.56624 0.175154 0
M  V30 2904 C 280.291 -2.21155 -0.749195 0
M  V30 2905 C 281.272 -1.16836 -1.23626 0
M  V30 2906 O 282.457 -1.45277 -1.28873 0
M  V30 2907 C 279.587 -2.8553 -1.97711 0
M  V30 2908 C 278.541 -3.95921 -1.62575 0
M  V30 2909 C 277.867 -4.47365 -2.92864 0
M  V30 2910 C 279.167 -5.15323 -0.850838 0
M  V30 2911 H 280.861 -2.98653 -0.211295 0
M  V30 2912 H 278.407 -1.43651 -0.100188 0
M  V30 2913 H 280.36 -3.2935 -2.62881 0
M  V30 2914 H 279.084 -2.05406 -2.53921 0
M  V30 2915 H 277.743 -3.52762 -0.997719 0
M  V30 2916 H 277.391 -3.64027 -3.47122 0
M  V30 2917 H 277.091 -5.21839 -2.70106 0
M  V30 2918 H 278.615 -4.93873 -3.59056 0
M  V30 2919 H 280.029 -5.55812 -1.40521 0
M  V30 2920 H 278.426 -5.95739 -0.722154 0
M  V30 2921 H 279.496 -4.84661 0.152082 0
M  V30 2922 N 280.839 0.0985539 -1.57292 0
M  V30 2923 C 282.067 0.816318 -1.90115 0
M  V30 2924 C 282.482 1.72451 -0.768509 0
M  V30 2925 O 281.839 1.80643 0.259687 0
M  V30 2926 C 281.89 1.63259 -3.22535 0
M  V30 2927 O 281.611 0.760934 -4.31441 0
M  V30 2928 C 283.112 2.45372 -3.69199 0
M  V30 2929 H 280.332 0.233595 -0.629027 0
M  V30 2930 H 282.876 0.0768229 -2.04356 0
M  V30 2931 H 281.031 2.32463 -3.09903 0
M  V30 2932 H 281.445 1.32595 -5.07463 0
M  V30 2933 H 282.919 2.98144 -4.64558 0
M  V30 2934 H 283.396 3.23677 -2.96867 0
M  V30 2935 H 284.002 1.81373 -3.84687 0
M  V30 2936 N 282.317 1.53212 0.369288 0
M  V30 2937 C 283.565 1.68881 1.11012 0
M  V30 2938 C 283.886 0.441285 1.89941 0
M  V30 2939 O 283.156 -0.544623 1.88177 0
M  V30 2940 H 281.736 0.622569 0.412816 0
M  V30 2941 H 284.398 1.90391 0.416802 0
M  V30 2942 H 283.494 2.54822 1.80201 0
M  V30 2943 N 283.795 -0.628877 1.44509 0
M  V30 2944 C 284.758 -1.72263 1.51188 0
M  V30 2945 C 285.758 -1.55907 0.39367 0
M  V30 2946 O 286.948 -1.61361 0.656377 0
M  V30 2947 C 284.08 -3.11365 1.38798 0
M  V30 2948 H 285.273 -1.67714 2.4862 0
M  V30 2949 H 282.826 -0.842737 1.31634 0
M  V30 2950 H 283.561 -3.21507 0.424693 0
M  V30 2951 H 283.346 -3.24644 2.19884 0
M  V30 2952 H 284.836 -3.91075 1.46458 0
M  V30 2953 N 285.273 -1.31445 -0.869486 0
M  V30 2954 C 286.221 -1.19067 -1.99814 0
M  V30 2955 C 287.215 -0.0988569 -1.69111 0
M  V30 2956 O 288.421 -0.260781 -1.78101 0
M  V30 2957 H 284.796 -0.368677 -0.655425 0
M  V30 2958 H 286.767 -2.14555 -2.07385 0
M  V30 2959 C 285.516 -0.915323 -3.35436 0
M  V30 2960 H 284.839 -1.74759 -3.59582 0
M  V30 2961 H 286.279 -0.868895 -4.15001 0
M  V30 2962 C 284.738 0.381928 -3.34728 0
M  V30 2963 O 285.268 1.39857 -3.76567 0
M  V30 2964 N 283.474 0.398633 -2.87853 0
M  V30 2965 H 283.021 -0.429186 -2.54 0
M  V30 2966 H 282.979 1.26651 -2.87762 0
M  V30 2967 N 286.751 1.08385 -1.14413 0
M  V30 2968 C 288.167 1.32844 -0.884563 0
M  V30 2969 C 288.367 1.95841 0.474181 0
M  V30 2970 O 287.423 2.21158 1.21842 0
M  V30 2971 C 288.736 2.22978 -2.01745 0
M  V30 2972 C 290.284 2.36458 -2.05077 0
M  V30 2973 C 290.759 3.29934 -3.1766 0
M  V30 2974 N 292.25 3.37511 -3.17239 0
M  V30 2975 C 292.985 4.09871 -4.0099 0
M  V30 2976 N 292.481 4.84936 -4.94781 0
M  V30 2977 N 294.274 4.05704 -3.89051 0
M  V30 2978 H 286.425 0.658756 -2.01926 0
M  V30 2979 H 288.688 0.352821 -0.879899 0
M  V30 2980 H 288.394 1.83934 -2.99769 0
M  V30 2981 H 288.268 3.23441 -1.94077 0
M  V30 2982 H 290.655 2.7476 -1.0766 0
M  V30 2983 H 290.736 1.35736 -2.16816 0
M  V30 2984 H 290.38 2.92352 -4.15322 0
M  V30 2985 H 290.31 4.30584 -3.03158 0
M  V30 2986 H 292.801 2.83996 -2.49308 0
M  V30 2987 H 293.114 5.37612 -5.55151 0
M  V30 2988 H 291.459 4.83988 -4.98779 0
M  V30 2989 H 294.65 3.46167 -3.15097 0
M  V30 2990 H 294.823 4.61834 -4.54547 0
M  V30 2991 N 288.23 0.939286 1.26551 0
M  V30 2992 C 289.193 0.451987 2.24699 0
M  V30 2993 C 290.193 -0.435869 1.5478 0
M  V30 2994 O 291.383 -0.235314 1.72603 0
M  V30 2995 C 288.515 -0.348801 3.39111 0
M  V30 2996 H 289.708 1.3193 2.69322 0
M  V30 2997 H 287.261 0.721072 1.38673 0
M  V30 2998 H 287.996 -1.23444 2.99887 0
M  V30 2999 H 287.781 0.287945 3.91041 0
M  V30 3000 H 289.271 -0.679726 4.12031 0
M  V30 3001 N 289.708 -1.40897 0.706093 0
M  V30 3002 C 290.954 -2.01849 0.250681 0
M  V30 3003 C 291.309 -1.5496 -1.14041 0
M  V30 3004 O 290.602 -0.755566 -1.76073 0
M  V30 3005 C 290.796 -3.5646 0.259099 0
M  V30 3006 C 290.625 -4.18357 1.64947 0
M  V30 3007 C 289.395 -4.522 2.25485 0
M  V30 3008 C 291.593 -4.43856 2.598 0
M  V30 3009 N 289.575 -4.9944 3.56977 0
M  V30 3010 C 290.946 -4.92986 3.75985 0
M  V30 3011 C 293.001 -4.25882 2.57933 0
M  V30 3012 C 291.704 -5.2603 4.90597 0
M  V30 3013 C 293.73 -4.6002 3.71665 0
M  V30 3014 C 293.092 -5.09331 4.86581 0
M  V30 3015 H 289.191 -0.769843 0.137353 0
M  V30 3016 H 291.775 -1.71278 0.925845 0
M  V30 3017 H 289.946 -3.86481 -0.385592 0
M  V30 3018 H 291.678 -4.04144 -0.21213 0
M  V30 3019 H 288.433 -4.3901 1.77671 0
M  V30 3020 H 288.857 -5.27454 4.24407 0
M  V30 3021 H 293.499 -3.86986 1.70298 0
M  V30 3022 H 291.217 -5.63843 5.78884 0
M  V30 3023 H 294.803 -4.47762 3.71484 0
M  V30 3024 H 293.683 -5.35251 5.73129 0
M  V30 3025 N 291.186 -0.45159 -1.50991 0
M  V30 3026 C 292.118 0.388634 -2.25881 0
M  V30 3027 C 293.131 0.974041 -1.30446 0
M  V30 3028 O 294.32 0.865758 -1.56099 0
M  V30 3029 C 291.42 1.5571 -3.01011 0
M  V30 3030 C 290.593 1.08801 -4.23652 0
M  V30 3031 C 289.652 2.12825 -4.8124 0
M  V30 3032 O 288.678 1.71678 -5.42693 0
M  V30 3033 N 289.88 3.45453 -4.66522 0
M  V30 3034 H 292.645 -0.25329 -2.98628 0
M  V30 3035 H 290.206 -0.281268 -1.59438 0
M  V30 3036 H 292.198 2.24952 -3.3642 0
M  V30 3037 H 290.768 2.10409 -2.31186 0
M  V30 3038 H 289.988 0.22215 -3.93574 0
M  V30 3039 H 291.276 0.752213 -5.03209 0
M  V30 3040 H 290.674 3.81605 -4.17605 0
M  V30 3041 H 289.231 4.10549 -5.06254 0
M  V30 3042 N 292.664 1.56529 -0.183458 0
M  V30 3043 C 293.627 2.17324 0.728223 0
M  V30 3044 C 294.627 1.12453 1.14939 0
M  V30 3045 O 295.817 1.37902 1.06437 0
M  V30 3046 C 292.949 2.76591 1.99274 0
M  V30 3047 H 294.142 2.99241 0.198772 0
M  V30 3048 H 291.695 1.5616 0.0661391 0
M  V30 3049 H 292.43 1.98441 2.56499 0
M  V30 3050 H 292.215 3.5335 1.69959 0
M  V30 3051 H 293.705 3.23311 2.6431 0
M  V30 3052 N 294.142 -0.090211 1.57342 0
M  V30 3053 C 295.391 -0.791531 1.8552 0
M  V30 3054 C 295.704 -1.79659 0.773441 0
M  V30 3055 O 296.91 -2.54616 0.942497 0
M  V30 3056 C 295.366 -1.45856 3.2902 0
M  V30 3057 C 294.974 -0.493017 4.45279 0
M  V30 3058 C 296.718 -2.14332 3.66418 0
M  V30 3059 C 294.625 -1.16491 5.79814 0
M  V30 3060 H 293.555 -0.299356 0.692027 0
M  V30 3061 H 296.206 -0.0445343 1.83446 0
M  V30 3062 H 294.588 -2.25318 3.2565 0
M  V30 3063 H 295.762 0.270464 4.60006 0
M  V30 3064 H 294.077 0.0863061 4.16311 0
M  V30 3065 H 296.674 -2.65344 4.64216 0
M  V30 3066 H 297.017 -2.93447 2.95287 0
M  V30 3067 H 297.55 -1.41724 3.71698 0
M  V30 3068 H 294.289 -0.41447 6.54188 0
M  V30 3069 H 293.809 -1.8997 5.68921 0
M  V30 3070 H 295.488 -1.69001 6.24538 0
M  V30 3071 N 295.62 -1.53406 -0.361157 0
M  V30 3072 C 296.866 -1.70054 -1.10496 0
M  V30 3073 C 297.199 -0.453278 -1.88836 0
M  V30 3074 O 296.474 0.5495 -1.86576 0
M  V30 3075 C 296.757 -2.95317 -2.06058 0
M  V30 3076 C 296.61 -4.3021 -1.31298 0
M  V30 3077 C 297.929 -3.16193 -3.06121 0
M  V30 3078 H 295.048 -0.618799 -0.400321 0
M  V30 3079 H 297.69 -1.86052 -0.385318 0
M  V30 3080 H 295.84 -2.81809 -2.67425 0
M  V30 3081 H 297.512 -4.55538 -0.726807 0
M  V30 3082 H 295.755 -4.29421 -0.614853 0
M  V30 3083 H 296.426 -5.14 -2.01265 0
M  V30 3084 H 298.902 -3.28916 -2.5486 0
M  V30 3085 H 297.778 -4.05266 -3.70204 0
M  V30 3086 H 298.039 -2.31676 -3.76535 0
M  V30 3087 N 297.098 0.621204 -1.44841 0
M  V30 3088 C 298.344 1.3826 -1.48365 0
M  V30 3089 C 298.677 1.93831 -0.119624 0
M  V30 3090 O 297.952 1.74251 0.864111 0
M  V30 3091 C 298.235 2.54058 -2.55199 0
M  V30 3092 C 298.088 2.03772 -4.00995 0
M  V30 3093 C 299.407 3.56225 -2.58442 0
M  V30 3094 H 296.526 0.501374 -0.540179 0
M  V30 3095 H 299.168 0.7015 -1.76576 0
M  V30 3096 H 297.318 3.12162 -2.31274 0
M  V30 3097 H 298.99 1.50423 -4.36086 0
M  V30 3098 H 297.233 1.34876 -4.12299 0
M  V30 3099 H 297.904 2.87185 -4.71411 0
M  V30 3100 H 300.38 3.07939 -2.79844 0
M  V30 3101 H 299.256 4.34756 -3.3508 0
M  V30 3102 H 299.517 4.10949 -1.63013 0
M  V30 3103 N 298.576 1.31904 0.862503 0
M  V30 3104 C 299.824 1.21776 1.61292 0
M  V30 3105 C 300.145 -0.222413 1.93727 0
M  V30 3106 O 299.415 -1.1451 1.58947 0
M  V30 3107 H 297.995 0.447717 0.597962 0
M  V30 3108 H 300.657 1.65326 1.03215 0
M  V30 3109 H 299.753 1.7948 2.5533 0
M  V30 3110 N 300.054 -1.07777 1.14986 0
M  V30 3111 C 301.3 -1.80557 0.923422 0
M  V30 3112 C 301.633 -1.86298 -0.548337 0
M  V30 3113 O 300.908 -1.34354 -1.40639 0
M  V30 3114 C 301.191 -3.25839 1.53299 0
M  V30 3115 C 301.044 -3.28269 3.07505 0
M  V30 3116 C 302.363 -4.22991 1.21518 0
M  V30 3117 H 299.482 -0.655493 0.336894 0
M  V30 3118 H 302.124 -1.26144 1.42083 0
M  V30 3119 H 300.274 -3.72306 1.10999 0
M  V30 3120 H 301.946 -2.90079 3.58681 0
M  V30 3121 H 300.189 -2.67355 3.4162 0
M  V30 3122 H 300.86 -4.30691 3.45266 0
M  V30 3123 H 303.336 -3.84894 1.581 0
M  V30 3124 H 302.212 -5.22945 1.66793 0
M  V30 3125 H 302.473 -4.41904 0.131505 0
M  V30 3126 N 301.532 -0.945985 -1.26051 0
M  V30 3127 C 302.948 -0.649045 -1.45807 0
M  V30 3128 C 303.148 0.796158 -1.85104 0
M  V30 3129 O 302.204 1.57233 -1.97571 0
M  V30 3130 C 303.517 -1.61458 -2.53677 0
M  V30 3131 C 305.065 -1.62481 -2.67524 0
M  V30 3132 C 305.54 -2.57776 -3.7857 0
M  V30 3133 N 307.031 -2.5609 -3.85969 0
M  V30 3134 C 307.766 -3.26508 -4.7136 0
M  V30 3135 N 307.262 -4.0637 -5.61102 0
M  V30 3136 N 309.055 -3.15437 -4.65248 0
M  V30 3137 H 301.206 -1.88005 -0.988328 0
M  V30 3138 H 303.469 -0.808198 -0.4955 0
M  V30 3139 H 303.175 -2.64644 -2.31638 0
M  V30 3140 H 303.049 -1.37036 -3.51427 0
M  V30 3141 H 305.436 -0.600167 -2.88933 0
M  V30 3142 H 305.517 -1.90958 -1.70202 0
M  V30 3143 H 305.161 -3.60361 -3.57913 0
M  V30 3144 H 305.091 -2.26587 -4.75359 0
M  V30 3145 H 307.582 -1.98105 -3.21812 0
M  V30 3146 H 307.895 -4.57042 -6.23164 0
M  V30 3147 H 306.24 -4.10469 -5.60839 0
M  V30 3148 H 309.431 -2.52525 -3.94143 0
M  V30 3149 H 309.604 -3.70584 -5.31575 0
M  V30 3150 N 303.011 1.40521 -0.713556 0
M  V30 3151 C 303.974 2.29098 -0.0684347 0
M  V30 3152 C 304.974 1.45268 0.689472 0
M  V30 3153 O 306.164 1.66205 0.521677 0
M  V30 3154 C 303.296 3.28446 0.913024 0
M  V30 3155 H 304.489 2.87645 -0.84855 0
M  V30 3156 H 302.042 1.48809 -0.47809 0
M  V30 3157 H 302.777 2.74913 1.72027 0
M  V30 3158 H 302.562 3.90327 0.372472 0
M  V30 3159 H 304.052 3.94777 1.36165 0
M  V30 3160 N 304.489 0.459591 1.5075 0
M  V30 3161 C 305.735 -0.0994966 2.02556 0
M  V30 3162 C 306.068 -1.40399 1.3417 0
M  V30 3163 O 305.343 -1.88892 0.463683 0
M  V30 3164 C 305.626 -0.295242 3.58888 0
M  V30 3165 C 305.479 1.02947 4.37861 0
M  V30 3166 C 306.798 -1.05502 4.27267 0
M  V30 3167 H 303.917 -0.034686 0.736183 0
M  V30 3168 H 306.559 0.602938 1.8018 0
M  V30 3169 H 304.709 -0.893563 3.78084 0
M  V30 3170 H 306.381 1.66348 4.30263 0
M  V30 3171 H 304.624 1.62885 4.02058 0
M  V30 3172 H 305.295 0.846281 5.45474 0
M  V30 3173 H 307.771 -0.547993 4.12476 0
M  V30 3174 H 306.647 -1.16077 5.36486 0
M  V30 3175 H 306.908 -2.08875 3.89645 0
M  V30 3176 N 305.967 -1.56429 0.191757 0
M  V30 3177 C 307.216 -1.9666 -0.448088 0
M  V30 3178 C 307.529 -1.08136 -1.62991 0
M  V30 3179 O 308.735 -1.38135 -2.33733 0
M  V30 3180 C 307.191 -3.49753 -0.848585 0
M  V30 3181 C 306.799 -4.46935 0.308764 0
M  V30 3182 C 308.543 -3.9876 -1.4557 0
M  V30 3183 C 306.45 -5.91293 -0.112506 0
M  V30 3184 H 305.38 -0.734312 -0.171179 0
M  V30 3185 H 308.031 -1.81301 0.283242 0
M  V30 3186 H 306.413 -3.60604 -1.63649 0
M  V30 3187 H 307.587 -4.47813 1.08627 0
M  V30 3188 H 305.902 -4.08102 0.827158 0
M  V30 3189 H 308.499 -5.04086 -1.78328 0
M  V30 3190 H 308.842 -3.42875 -2.36099 0
M  V30 3191 H 309.375 -3.9101 -0.731836 0
M  V30 3192 H 306.114 -6.51097 0.758514 0
M  V30 3193 H 305.634 -5.93676 -0.854941 0
M  V30 3194 H 307.313 -6.44663 -0.549448 0
M  V30 3195 N 307.445 0.0818655 -1.57387 0
M  V30 3196 C 308.691 0.784074 -1.8703 0
M  V30 3197 C 309.024 1.77729 -0.782689 0
M  V30 3198 O 308.299 1.93384 0.208051 0
M  V30 3199 C 308.582 1.50105 -3.27323 0
M  V30 3200 C 308.435 0.524925 -4.46727 0
M  V30 3201 C 309.754 2.44843 -3.65705 0
M  V30 3202 H 306.873 0.283582 -0.680257 0
M  V30 3203 H 309.515 0.0474352 -1.89941 0
M  V30 3204 H 307.665 2.12897 -3.24972 0
M  V30 3205 H 309.337 -0.0970111 -4.61198 0
M  V30 3206 H 307.58 -0.160606 -4.33503 0
M  V30 3207 H 308.251 1.064 -5.41648 0
M  V30 3208 H 310.727 1.92135 -3.69085 0
M  V30 3209 H 309.603 2.92018 -4.64776 0
M  V30 3210 H 309.864 3.29197 -2.95096 0
M  V30 3211 N 308.923 1.53595 0.353017 0
M  V30 3212 C 309.87 1.80919 1.43308 0
M  V30 3213 C 310.84 0.654288 1.5267 0
M  V30 3214 O 312.025 0.897759 1.6836 0
M  V30 3215 C 309.165 2.01605 2.80089 0
M  V30 3216 C 308.278 3.29321 2.79593 0
M  V30 3217 C 307.413 3.40125 4.0803 0
M  V30 3218 C 306.452 4.61826 4.01725 0
M  V30 3219 N 305.589 4.69716 5.21834 0
M  V30 3220 H 310.429 2.73074 1.19308 0
M  V30 3221 H 307.966 1.35263 0.578131 0
M  V30 3222 H 309.924 2.11586 3.59565 0
M  V30 3223 H 308.554 1.12772 3.0246 0
M  V30 3224 H 307.606 3.28229 1.92276 0
M  V30 3225 H 308.918 4.18884 2.70809 0
M  V30 3226 H 308.072 3.49488 4.95927 0
M  V30 3227 H 306.811 2.48601 4.19582 0
M  V30 3228 H 305.816 4.52552 3.12213 0
M  V30 3229 H 307.041 5.54705 3.91764 0
M  V30 3230 H 304.987 3.81097 5.33948 0
M  V30 3231 H 304.904 5.53202 5.1527 0
M  V30 3232 H 306.172 4.83376 6.11529 0
M  V30 3233 N 310.401 -0.613514 1.45168 0
M  V30 3234 C 311.678 -1.37263 1.39349 0
M  V30 3235 C 312.058 -2.11012 0.0610848 0
M  V30 3236 O 311.406 -2.07502 -0.956825 0
M  V30 3237 C 311.616 -2.3244 2.60332 0
M  V30 3238 C 312.964 -2.9523 3.05163 0
M  V30 3239 O 313.988 -2.42762 2.60663 0
M  V30 3240 O 312.847 -3.90454 3.82372 0
M  V30 3241 H 309.941 -0.615188 0.552696 0
M  V30 3242 H 312.487 -0.637097 1.57287 0
M  V30 3243 H 311.259 -1.77164 3.48896 0
M  V30 3244 H 310.882 -3.13383 2.44698 0
M  V30 3245 N 311.879 -1.3236 -0.855495 0
M  V30 3246 C 312.842 -1.21164 -1.94556 0
M  V30 3247 C 313.842 -0.134908 -1.60233 0
M  V30 3248 O 315.032 -0.385249 -1.69887 0
M  V30 3249 C 312.164 -0.863192 -3.29791 0
M  V30 3250 H 313.357 -2.18038 -2.05911 0
M  V30 3251 H 310.91 -1.16179 -1.04557 0
M  V30 3252 H 311.645 0.103769 -3.24134 0
M  V30 3253 H 311.43 -1.64166 -3.56078 0
M  V30 3254 H 312.92 -0.809156 -4.09686 0
M  V30 3255 N 313.357 1.07166 -1.15556 0
M  V30 3256 C 314.603 1.80065 -0.932984 0
M  V30 3257 C 314.936 1.86586 0.53845 0
M  V30 3258 O 314.211 1.35098 1.39924 0
M  V30 3259 C 314.494 3.25022 -1.55025 0
M  V30 3260 C 314.347 3.26634 -3.09242 0
M  V30 3261 C 315.666 4.22341 -1.2376 0
M  V30 3262 H 312.785 0.653697 -0.340366 0
M  V30 3263 H 315.427 1.25389 -1.4275 0
M  V30 3264 H 313.577 3.71712 -1.12972 0
M  V30 3265 H 315.249 2.88173 -3.60214 0
M  V30 3266 H 313.492 2.65539 -3.43033 0
M  V30 3267 H 314.163 4.28854 -3.47546 0
M  V30 3268 H 316.639 3.8405 -1.60139 0
M  V30 3269 H 315.515 5.22053 -1.69564 0
M  V30 3270 H 315.776 4.41828 -0.154938 0
M  V30 3271 N 314.835 0.952656 1.25548 0
M  V30 3272 C 315.782 0.47008 2.25962 0
M  V30 3273 C 316.752 -0.476384 1.59122 0
M  V30 3274 O 317.937 -0.39007 1.8677 0
M  V30 3275 C 315.077 -0.247881 3.44209 0
M  V30 3276 C 314.19 0.735591 4.25691 0
M  V30 3277 C 313.325 -0.0047306 5.312 0
M  V30 3278 C 312.364 0.969805 6.04368 0
M  V30 3279 N 311.501 0.260486 7.01617 0
M  V30 3280 H 316.341 1.33126 2.66611 0
M  V30 3281 H 313.878 0.66765 1.31076 0
M  V30 3282 H 315.836 -0.680695 4.1161 0
M  V30 3283 H 314.466 -1.07312 3.0444 0
M  V30 3284 H 313.518 1.28689 3.57971 0
M  V30 3285 H 314.83 1.47934 4.76358 0
M  V30 3286 H 313.984 -0.496275 6.04667 0
M  V30 3287 H 312.723 -0.781282 4.81401 0
M  V30 3288 H 311.728 1.47237 5.29718 0
M  V30 3289 H 312.953 1.74655 6.56256 0
M  V30 3290 H 310.899 -0.497364 6.54112 0
M  V30 3291 H 310.816 0.943362 7.50091 0
M  V30 3292 H 312.084 -0.209587 7.79218 0
M  V30 3293 N 316.313 -1.40141 0.720998 0
M  V30 3294 C 317.243 -2.33339 0.0867621 0
M  V30 3295 C 318.224 -1.53178 -0.739622 0
M  V30 3296 O 319.409 -1.81625 -0.687449 0
M  V30 3297 C 316.539 -3.37194 -0.831728 0
M  V30 3298 C 315.493 -4.27857 -0.110558 0
M  V30 3299 C 314.819 -5.22294 -1.14513 0
M  V30 3300 C 316.119 -5.11872 1.0385 0
M  V30 3301 H 317.813 -2.86626 0.865219 0
M  V30 3302 H 315.359 -1.37814 0.417516 0
M  V30 3303 H 317.312 -4.01335 -1.28485 0
M  V30 3304 H 316.036 -2.82314 -1.64214 0
M  V30 3305 H 314.695 -3.65176 0.322797 0
M  V30 3306 H 314.343 -4.63717 -1.94874 0
M  V30 3307 H 314.043 -5.83797 -0.667446 0
M  V30 3308 H 315.567 -5.89312 -1.59824 0
M  V30 3309 H 316.981 -5.69436 0.664482 0
M  V30 3310 H 315.378 -5.82445 1.4449 0
M  V30 3311 H 316.448 -4.4753 1.86668 0
M  V30 3312 N 317.792 -0.46758 -1.50504 0
M  V30 3313 C 318.755 0.317059 -2.26996 0
M  V30 3314 C 319.755 0.923513 -1.31635 0
M  V30 3315 O 320.945 0.793239 -1.55091 0
M  V30 3316 C 318.077 1.45134 -3.08462 0
M  V30 3317 H 319.27 -0.353723 -2.97807 0
M  V30 3318 H 316.823 -0.221545 -1.54722 0
M  V30 3319 H 317.558 2.15728 -2.4214 0
M  V30 3320 H 317.343 1.02232 -3.78538 0
M  V30 3321 H 318.833 2.00493 -3.66323 0
M  V30 3322 N 319.27 1.56325 -0.20005 0
M  V30 3323 C 320.233 2.18084 0.705132 0
M  V30 3324 C 321.233 1.13666 1.1374 0
M  V30 3325 O 322.423 1.39023 1.04968 0
M  V30 3326 C 319.555 2.78689 1.96329 0
M  V30 3327 H 320.748 2.99435 0.167023 0
M  V30 3328 H 318.301 1.56221 0.0495725 0
M  V30 3329 H 319.036 2.0115 2.5438 0
M  V30 3330 H 318.821 3.55133 1.66202 0
M  V30 3331 H 320.311 3.26096 2.60866 0
M  V30 3332 N 320.748 -0.0735177 1.57428 0
M  V30 3333 C 321.711 -1.07192 2.02589 0
M  V30 3334 C 322.711 -1.31695 0.922661 0
M  V30 3335 O 323.901 -1.27445 1.18758 0
M  V30 3336 C 321.033 -2.41599 2.40506 0
M  V30 3337 H 322.226 -0.682727 2.92025 0
M  V30 3338 H 319.779 -0.319193 1.53006 0
M  V30 3339 H 320.514 -2.85354 1.5409 0
M  V30 3340 H 320.299 -2.25156 3.21009 0
M  V30 3341 H 321.789 -3.13367 2.76027 0
M  V30 3342 N 322.226 -1.5378 -0.344866 0
M  V30 3343 C 323.642 -1.44015 -0.687888 0
M  V30 3344 C 323.842 -0.595834 -1.92489 0
M  V30 3345 O 322.898 -0.0863064 -2.52352 0
M  V30 3346 C 324.211 -2.87481 -0.881758 0
M  V30 3347 C 325.759 -2.97247 -0.980459 0
M  V30 3348 C 326.234 -4.41819 -1.20665 0
M  V30 3349 N 327.725 -4.45339 -1.27389 0
M  V30 3350 C 328.46 -5.54333 -1.46639 0
M  V30 3351 N 327.956 -6.73335 -1.63071 0
M  V30 3352 N 329.749 -5.41944 -1.49176 0
M  V30 3353 H 321.9 -2.07169 0.468475 0
M  V30 3354 H 324.163 -0.93643 0.147655 0
M  V30 3355 H 323.869 -3.51672 -0.0443444 0
M  V30 3356 H 323.743 -3.32352 -1.78388 0
M  V30 3357 H 326.13 -2.33197 -1.8084 0
M  V30 3358 H 326.211 -2.5574 -0.0552713 0
M  V30 3359 H 325.855 -5.06449 -0.383652 0
M  V30 3360 H 325.785 -4.80917 -2.14539 0
M  V30 3361 H 328.276 -3.59585 -1.1622 0
M  V30 3362 H 328.589 -7.52165 -1.77391 0
M  V30 3363 H 326.934 -6.76282 -1.60209 0
M  V30 3364 H 330.125 -4.47932 -1.3592 0
M  V30 3365 H 330.298 -6.26946 -1.63837 0
M  V30 3366 N 323.704 0.605807 -1.45491 0
M  V30 3367 C 324.652 1.73754 -1.54636 0
M  V30 3368 C 325.646 1.64207 -0.416219 0
M  V30 3369 O 326.852 1.69979 -0.592199 0
M  V30 3370 H 323.227 0.574073 -0.485741 0
M  V30 3371 H 325.198 1.63169 -2.49837 0
M  V30 3372 C 323.947 3.12135 -1.53189 0
M  V30 3373 H 323.27 3.20141 -2.39478 0
M  V30 3374 H 324.71 3.91147 -1.63645 0
M  V30 3375 C 323.169 3.35921 -0.256616 0
M  V30 3376 O 323.699 3.96194 0.662798 0
M  V30 3377 N 321.905 2.90204 -0.151751 0
M  V30 3378 H 321.452 2.41336 -0.90081 0
M  V30 3379 H 321.41 3.06492 0.700699 0
M  V30 3380 N 325.182 1.32811 0.848464 0
M  V30 3381 C 326.43 1.23479 1.59991 0
M  V30 3382 C 326.751 -0.201853 1.93952 0
M  V30 3383 O 326.021 -1.12818 1.60153 0
M  V30 3384 H 324.601 0.454034 0.593179 0
M  V30 3385 H 327.263 1.66412 1.01455 0
M  V30 3386 H 326.359 1.82178 2.53412 0
M  V30 3387 N 326.66 -1.06551 1.16123 0
M  V30 3388 C 327.59 -2.15935 0.88851 0
M  V30 3389 C 328.571 -1.69306 -0.164135 0
M  V30 3390 O 329.756 -1.94193 -0.0167857 0
M  V30 3391 C 326.886 -3.45149 0.385942 0
M  V30 3392 C 325.84 -4.05271 1.3762 0
M  V30 3393 C 325.166 -5.29664 0.732137 0
M  V30 3394 C 326.466 -4.44355 2.74493 0
M  V30 3395 H 328.16 -2.39006 1.80323 0
M  V30 3396 H 325.706 -1.14866 0.868435 0
M  V30 3397 H 327.659 -4.21004 0.182647 0
M  V30 3398 H 326.383 -3.21689 -0.564274 0
M  V30 3399 H 325.042 -3.3147 1.56599 0
M  V30 3400 H 324.69 -5.02499 -0.224483 0
M  V30 3401 H 324.39 -5.70848 1.39307 0
M  V30 3402 H 325.914 -6.08218 0.538802 0
M  V30 3403 H 327.328 -5.11303 2.59311 0
M  V30 3404 H 325.725 -4.96515 3.37035 0
M  V30 3405 H 326.795 -3.55339 3.29943 0
M  V30 3406 N 328.138 -0.959301 -1.25041 0
M  V30 3407 C 329.363 -0.633507 -1.97488 0
M  V30 3408 C 329.788 0.788555 -1.70773 0
M  V30 3409 O 329.146 1.53394 -0.966431 0
M  V30 3410 C 329.194 -0.904057 -3.49083 0
M  V30 3411 O 328.298 0.0147939 -4.12397 0
M  V30 3412 H 327.639 -0.240368 -0.618966 0
M  V30 3413 H 330.169 -1.28717 -1.59038 0
M  V30 3414 H 330.179 -0.832203 -3.99423 0
M  V30 3415 H 328.854 -1.94048 -3.67856 0
M  V30 3416 H 327.431 -0.109664 -3.72739 0
M  V30 3417 N 329.616 1.39756 -0.72842 0
M  V30 3418 C 330.864 2.00248 -0.272946 0
M  V30 3419 C 331.185 1.58077 1.14178 0
M  V30 3420 O 330.455 0.826014 1.77634 0
M  V30 3421 H 329.035 0.740554 -0.0979247 0
M  V30 3422 H 331.697 1.70903 -0.936912 0
M  V30 3423 H 330.793 3.10495 -0.316142 0
M  V30 3424 N 331.094 0.475555 1.50254 0
M  V30 3425 C 332.322 -0.0754493 2.06762 0
M  V30 3426 C 332.737 -1.33111 1.33891 0
M  V30 3427 O 332.094 -1.77846 0.40952 0
M  V30 3428 C 332.145 -0.359008 3.59713 0
M  V30 3429 O 331.866 0.846851 4.29837 0
M  V30 3430 C 333.367 -0.956484 4.32858 0
M  V30 3431 H 330.587 0.00907525 0.670939 0
M  V30 3432 H 333.131 0.665618 1.93364 0
M  V30 3433 H 331.286 -1.05001 3.72899 0
M  V30 3434 H 331.7 0.594162 5.21124 0
M  V30 3435 H 333.174 -1.10463 5.40834 0
M  V30 3436 H 333.651 -1.94775 3.93649 0
M  V30 3437 H 334.257 -0.303723 4.24214 0
M  V30 3438 N 332.573 -1.56217 0.208337 0
M  V30 3439 C 333.821 -1.97558 -0.426076 0
M  V30 3440 C 334.142 -1.09683 -1.61229 0
M  V30 3441 O 333.412 -0.170956 -1.95153 0
M  V30 3442 H 331.992 -0.729575 -0.160405 0
M  V30 3443 H 334.654 -1.92606 0.298155 0
M  V30 3444 H 333.75 -3.02672 -0.761312 0
M  V30 3445 N 334.051 0.0651679 -1.57465 0
M  V30 3446 C 335.3 0.761916 -1.86756 0
M  V30 3447 C 335.613 1.78406 -0.801925 0
M  V30 3448 O 336.819 2.53084 -0.982885 0
M  V30 3449 C 335.275 1.40603 -3.31299 0
M  V30 3450 C 334.883 0.422115 -4.46007 0
M  V30 3451 C 336.627 2.08476 -3.69781 0
M  V30 3452 C 334.534 1.07252 -5.81593 0
M  V30 3453 H 333.464 0.288308 -0.696702 0
M  V30 3454 H 336.115 0.015344 -1.83494 0
M  V30 3455 H 334.497 2.20109 -3.29193 0
M  V30 3456 H 335.671 -0.343613 -4.59517 0
M  V30 3457 H 333.986 -0.152527 -4.16121 0
M  V30 3458 H 336.583 2.57925 -4.68379 0
M  V30 3459 H 336.926 2.88712 -2.99919 0
M  V30 3460 H 337.459 1.35792 -3.73905 0
M  V30 3461 H 334.198 0.310342 -6.54765 0
M  V30 3462 H 333.718 1.80895 -5.71872 0
M  V30 3463 H 335.397 1.59043 -6.27148 0
M  V30 3464 N 335.529 1.53961 0.336706 0
M  V30 3465 C 336.776 1.71536 1.07618 0
M  V30 3466 C 337.104 0.482125 1.8843 0
M  V30 3467 O 336.359 -0.536142 1.88213 0
M  V30 3468 C 336.658 2.93493 2.03953 0
M  V30 3469 C 336.324 4.28811 1.39399 0
M  V30 3470 C 334.986 4.65602 1.21523 0
M  V30 3471 C 337.338 5.12844 0.929541 0
M  V30 3472 C 334.666 5.84037 0.558312 0
M  V30 3473 C 337.018 6.31951 0.286505 0
M  V30 3474 C 335.682 6.67432 0.0954869 0
M  V30 3475 H 334.952 0.627696 0.393801 0
M  V30 3476 H 337.599 1.88186 0.354715 0
M  V30 3477 H 335.904 2.71475 2.82504 0
M  V30 3478 H 337.601 3.04285 2.61174 0
M  V30 3479 H 334.191 3.99858 1.54311 0
M  V30 3480 H 338.375 4.84947 1.05548 0
M  V30 3481 H 333.631 6.10097 0.398995 0
M  V30 3482 H 337.805 6.96352 -0.0814376 0
M  V30 3483 H 335.432 7.59063 -0.415579 0
M  V30 3484 N 337.007 -0.598083 1.45811 0
M  V30 3485 C 338.418 -1.18011 1.44673 0
M  V30 3486 C 338.769 -1.95378 0.179364 0
M  V30 3487 O 337.894 -2.04124 -0.718509 0
M  V30 3488 C 338.489 -2.14677 2.62105 0
M  V30 3489 C 337.048 -2.68236 2.64057 0
M  V30 3490 C 336.195 -1.43816 2.37091 0
M  V30 3491 H 339.146 -0.38686 1.53913 0
M  V30 3492 H 339.167 -2.97878 2.36746 0
M  V30 3493 H 338.679 -1.5834 3.5433 0
M  V30 3494 H 336.78 -3.28486 1.75864 0
M  V30 3495 H 336.893 -3.12021 3.63566 0
M  V30 3496 H 335.257 -1.731 1.86838 0
M  V30 3497 H 336.04 -0.893333 3.31473 0
M  V30 3498 N 338.485 -1.33259 -0.841409 0
M  V30 3499 C 339.715 -1.2742 -1.62628 0
M  V30 3500 C 340.123 0.157604 -1.88542 0
M  V30 3501 O 339.466 1.10938 -1.46419 0
M  V30 3502 C 339.528 -1.97797 -3.00194 0
M  V30 3503 C 339.192 -3.47109 -2.97261 0
M  V30 3504 C 340.189 -4.42358 -2.73159 0
M  V30 3505 C 337.874 -3.89247 -3.17478 0
M  V30 3506 C 339.868 -5.77718 -2.69296 0
M  V30 3507 C 337.555 -5.24713 -3.13241 0
M  V30 3508 C 338.553 -6.1876 -2.89181 0
M  V30 3509 O 338.241 -7.51745 -2.84843 0
M  V30 3510 H 337.973 -0.440436 -0.512827 0
M  V30 3511 H 340.527 -1.76153 -1.05638 0
M  V30 3512 H 338.757 -1.43652 -3.59028 0
M  V30 3513 H 340.446 -1.8549 -3.61038 0
M  V30 3514 H 341.212 -4.11127 -2.57294 0
M  V30 3515 H 337.091 -3.16456 -3.35226 0
M  V30 3516 H 340.635 -6.51097 -2.50436 0
M  V30 3517 H 336.532 -5.55569 -3.28654 0
M  V30 3518 H 337.3 -7.61262 -3.00702 0
M  V30 3519 N 339.963 1.05934 -1.16686 0
M  V30 3520 C 340.926 2.11669 -0.879144 0
M  V30 3521 C 341.926 1.60294 0.127445 0
M  V30 3522 O 343.116 1.7389 -0.103865 0
M  V30 3523 C 340.248 3.39438 -0.315425 0
M  V30 3524 H 341.441 2.38626 -1.81653 0
M  V30 3525 H 338.994 1.22058 -0.976299 0
M  V30 3526 H 339.729 3.18132 0.629468 0
M  V30 3527 H 339.514 3.78034 -1.04079 0
M  V30 3528 H 341.004 4.17391 -0.132189 0
M  V30 3529 N 341.441 0.965919 1.2453 0
M  V30 3530 C 342.669 0.644385 1.96609 0
M  V30 3531 C 343.084 -0.785823 1.71669 0
M  V30 3532 O 342.441 -1.52703 0.999399 0
M  V30 3533 C 342.492 0.907375 3.49927 0
M  V30 3534 O 342.213 2.28136 3.74013 0
M  V30 3535 C 343.714 0.599784 4.39224 0
M  V30 3536 H 340.934 0.240588 0.626385 0
M  V30 3537 H 343.478 1.29337 1.58405 0
M  V30 3538 H 341.633 0.304631 3.862 0
M  V30 3539 H 342.047 2.36002 4.68405 0
M  V30 3540 H 343.521 0.834263 5.45659 0
M  V30 3541 H 343.998 -0.465921 4.36722 0
M  V30 3542 H 344.604 1.18235 4.08535 0
M  V30 3543 N 342.919 -1.39368 0.735821 0
M  V30 3544 C 344.167 -2.00101 0.283562 0
M  V30 3545 C 344.488 -1.5868 -1.13338 0
M  V30 3546 O 343.758 -0.835423 -1.77193 0
M  V30 3547 H 342.338 -0.740024 0.101851 0
M  V30 3548 H 345 -1.70404 0.945962 0
M  V30 3549 H 344.096 -3.10323 0.332604 0
M  V30 3550 N 344.397 -0.483516 -1.5 0
M  V30 3551 C 345.645 0.067027 -2.01989 0
M  V30 3552 C 345.966 1.3909 -1.36671 0
M  V30 3553 O 345.236 1.88978 -0.516152 0
M  V30 3554 H 343.816 0.0277606 -0.746484 0
M  V30 3555 H 346.478 -0.636773 -1.84204 0
M  V30 3556 H 345.574 0.209484 -3.11396 0
M  V30 3557 N 345.875 1.56104 -0.216619 0
M  V30 3558 C 347.152 1.89988 0.465165 0
M  V30 3559 C 347.532 1.13326 1.78102 0
M  V30 3560 O 346.88 0.241033 2.27225 0
M  V30 3561 C 347.09 3.42646 0.662939 0
M  V30 3562 C 348.438 4.13311 0.972602 0
M  V30 3563 O 349.462 3.48217 0.749901 0
M  V30 3564 O 348.321 5.28396 1.39499 0
M  V30 3565 H 345.415 0.78979 0.245276 0
M  V30 3566 H 347.961 1.67721 -0.258436 0
M  V30 3567 H 346.733 3.90399 -0.26543 0
M  V30 3568 H 346.356 3.70677 1.43821 0
M  V30 3569 N 347.353 -0.0568162 1.57498 0
M  V30 3570 C 348.601 -0.751617 1.87604 0
M  V30 3571 C 348.922 -1.77351 0.81066 0
M  V30 3572 O 348.192 -1.95254 -0.159018 0
M  V30 3573 H 346.772 -0.280583 0.692302 0
M  V30 3574 H 349.434 -0.0293483 1.94878 0
M  V30 3575 H 348.53 -1.25852 2.856 0
M  V30 3576 N 348.832 -1.54138 -0.328536 0
M  V30 3577 C 350.079 -1.72105 -1.06706 0
M  V30 3578 C 350.407 -0.492111 -1.88171 0
M  V30 3579 O 349.662 0.526153 -1.88494 0
M  V30 3580 C 349.961 -2.9457 -2.02393 0
M  V30 3581 C 349.627 -4.29544 -1.37122 0
M  V30 3582 C 348.289 -4.6624 -1.19052 0
M  V30 3583 C 350.641 -5.1333 -0.902331 0
M  V30 3584 C 347.969 -5.84325 -0.527331 0
M  V30 3585 C 350.321 -6.32094 -0.252988 0
M  V30 3586 C 348.985 -6.67473 -0.0600901 0
M  V30 3587 H 348.255 -0.629775 -0.390466 0
M  V30 3588 H 350.902 -1.88372 -0.34473 0
M  V30 3589 H 349.207 -2.72969 -2.81061 0
M  V30 3590 H 350.904 -3.05665 -2.59557 0
M  V30 3591 H 347.494 -4.0067 -1.52188 0
M  V30 3592 H 351.678 -4.855 -1.02974 0
M  V30 3593 H 346.934 -6.103 -0.366634 0
M  V30 3594 H 351.108 -6.96299 0.118366 0
M  V30 3595 H 348.735 -7.58832 0.455828 0
M  V30 3596 N 350.31 0.590341 -1.46126 0
M  V30 3597 C 351.54 1.37304 -1.54373 0
M  V30 3598 C 351.948 1.88332 -0.181071 0
M  V30 3599 O 351.291 1.63852 0.830559 0
M  V30 3600 C 351.353 2.6012 -2.48149 0
M  V30 3601 C 351.017 2.30613 -3.94546 0
M  V30 3602 C 352.014 1.89915 -4.83971 0
M  V30 3603 C 349.699 2.42993 -4.39613 0
M  V30 3604 C 351.693 1.61981 -6.16475 0
M  V30 3605 C 349.38 2.14672 -5.72153 0
M  V30 3606 C 350.378 1.7423 -6.60404 0
M  V30 3607 O 350.066 1.46251 -7.90485 0
M  V30 3608 H 349.798 0.426086 -0.524811 0
M  V30 3609 H 352.352 0.72539 -1.92165 0
M  V30 3610 H 350.582 3.27664 -2.05361 0
M  V30 3611 H 352.271 3.22182 -2.46887 0
M  V30 3612 H 353.037 1.79872 -4.50412 0
M  V30 3613 H 348.916 2.73435 -3.71153 0
M  V30 3614 H 352.46 1.30341 -6.85315 0
M  V30 3615 H 348.357 2.24337 -6.05263 0
M  V30 3616 H 349.125 1.6016 -8.02677 0
M  V30 3617 N 351.788 1.33704 0.83433 0
M  V30 3618 C 352.751 1.24244 1.92603 0
M  V30 3619 C 353.751 0.160383 1.59998 0
M  V30 3620 O 354.941 0.412228 1.69252 0
M  V30 3621 C 352.073 0.91555 3.28376 0
M  V30 3622 H 353.266 2.21287 2.02416 0
M  V30 3623 H 350.819 1.17827 1.02696 0
M  V30 3624 H 351.554 -0.0521886 3.24258 0
M  V30 3625 H 351.339 1.69811 3.53422 0
M  V30 3626 H 352.829 0.874231 4.08347 0
M  V30 3627 N 353.266 -1.05314 1.17247 0
M  V30 3628 C 354.543 -1.75184 0.87005 0
M  V30 3629 C 354.923 -2.01481 -0.629965 0
M  V30 3630 O 354.271 -1.64988 -1.58086 0
M  V30 3631 C 354.481 -3.04594 1.70363 0
M  V30 3632 C 355.829 -3.78567 1.92281 0
M  V30 3633 O 356.853 -3.14461 1.67311 0
M  V30 3634 O 355.712 -4.93755 2.3424 0
M  V30 3635 H 352.806 -0.761729 0.322021 0
M  V30 3636 H 355.352 -1.11493 1.27935 0
M  V30 3637 H 354.124 -2.81201 2.72106 0
M  V30 3638 H 353.747 -3.76022 1.29202 0
M  V30 3639 N 354.744 -0.972509 -1.24016 0
M  V30 3640 C 355.992 -0.635776 -1.91839 0
M  V30 3641 C 356.313 0.832312 -1.76345 0
M  V30 3642 O 355.583 1.5946 -1.13795 0
M  V30 3643 H 354.163 -0.232157 -0.710009 0
M  V30 3644 H 356.825 -1.23462 -1.50809 0
M  V30 3645 H 355.921 -0.880545 -2.99421 0
M  V30 3646 N 356.222 1.38976 -0.743202 0
M  V30 3647 C 357.447 2.05161 -0.303936 0
M  V30 3648 C 357.872 1.55677 1.05576 0
M  V30 3649 O 357.23 0.704131 1.67068 0
M  V30 3650 C 357.278 3.59138 -0.324373 0
M  V30 3651 O 356.382 4.06668 0.685204 0
M  V30 3652 H 355.723 0.649815 -0.136518 0
M  V30 3653 H 358.253 1.77852 -1.01142 0
M  V30 3654 H 358.263 4.07639 -0.171618 0
M  V30 3655 H 356.938 3.94515 -1.31647 0
M  V30 3656 H 355.515 3.69561 0.497913 0
M  V30 3657 N 357.7 0.491464 1.49741 0
M  V30 3658 C 358.947 -0.0564256 2.02421 0
M  V30 3659 C 359.275 -1.37872 1.37192 0
M  V30 3660 O 358.53 -1.89375 0.493508 0
M  V30 3661 C 358.829 -0.267329 3.56399 0
M  V30 3662 C 358.495 0.975775 4.40215 0
M  V30 3663 C 357.157 1.31655 4.62839 0
M  V30 3664 C 359.509 1.80251 4.89039 0
M  V30 3665 C 356.837 2.48375 5.31532 0
M  V30 3666 C 359.189 2.96116 5.59015 0
M  V30 3667 C 357.853 3.30585 5.79888 0
M  V30 3668 H 357.123 -0.0206476 0.740712 0
M  V30 3669 H 359.77 0.649686 1.80143 0
M  V30 3670 H 358.075 -1.05588 3.77304 0
M  V30 3671 H 359.772 -0.705549 3.94744 0
M  V30 3672 H 356.362 0.700315 4.2284 0
M  V30 3673 H 360.546 1.55239 4.71396 0
M  V30 3674 H 355.802 2.7533 5.45897 0
M  V30 3675 H 359.976 3.60509 5.95824 0
M  V30 3676 H 357.603 4.21132 6.32892 0
M  V30 3677 N 359.178 -1.55987 0.224894 0
M  V30 3678 C 360.424 -1.98684 -0.406502 0
M  V30 3679 C 360.757 -1.11248 -1.59177 0
M  V30 3680 O 360.032 -0.170909 -1.93748 0
M  V30 3681 C 360.315 -3.50218 -0.837808 0
M  V30 3682 C 360.168 -4.48426 0.351332 0
M  V30 3683 C 361.487 -4.06243 -1.69278 0
M  V30 3684 H 358.606 -0.722337 -0.146283 0
M  V30 3685 H 361.248 -1.87255 0.321799 0
M  V30 3686 H 359.398 -3.60089 -1.45837 0
M  V30 3687 H 361.07 -4.50562 0.989526 0
M  V30 3688 H 359.313 -4.22159 0.998207 0
M  V30 3689 H 359.984 -5.52 0.00655905 0
M  V30 3690 H 362.46 -3.99337 -1.16914 0
M  V30 3691 H 361.336 -5.12581 -1.96346 0
M  V30 3692 H 361.597 -3.53332 -2.65723 0
M  V30 3693 N 360.656 0.0484629 -1.57525 0
M  V30 3694 C 361.588 1.08222 -2.02041 0
M  V30 3695 C 362.601 1.33621 -0.930012 0
M  V30 3696 O 363.79 1.3145 -1.20761 0
M  V30 3697 C 360.89 2.42818 -2.36416 0
M  V30 3698 C 360.063 2.37049 -3.67596 0
M  V30 3699 C 359.122 3.53937 -3.89378 0
M  V30 3700 O 358.148 3.34308 -4.60681 0
M  V30 3701 N 359.35 4.75126 -3.3352 0
M  V30 3702 H 362.115 0.702946 -2.9134 0
M  V30 3703 H 359.676 0.236745 -1.6016 0
M  V30 3704 H 361.668 3.197 -2.48141 0
M  V30 3705 H 360.238 2.72661 -1.52888 0
M  V30 3706 H 359.458 1.45395 -3.66407 0
M  V30 3707 H 360.746 2.30318 -4.53686 0
M  V30 3708 H 360.144 4.93976 -2.75688 0
M  V30 3709 H 358.701 5.49439 -3.50656 0
M  V30 3710 N 362.134 1.5431 0.320358 0
M  V30 3711 C 363.084 1.803 1.39556 0
M  V30 3712 C 364.068 0.659166 1.46778 0
M  V30 3713 O 365.26 0.91926 1.51257 0
M  V30 3714 C 362.389 2.03665 2.76361 0
M  V30 3715 C 361.475 3.24178 2.73439 0
M  V30 3716 N 361.866 4.4516 2.40137 0
M  V30 3717 C 360.164 3.25816 3.04565 0
M  V30 3718 C 360.865 5.27109 2.4603 0
M  V30 3719 N 359.841 4.64368 2.82601 0
M  V30 3720 H 363.643 2.71416 1.12742 0
M  V30 3721 H 361.157 1.53548 0.528856 0
M  V30 3722 H 363.154 2.20425 3.53862 0
M  V30 3723 H 361.814 1.13805 3.04103 0
M  V30 3724 H 362.825 4.72104 2.12927 0
M  V30 3725 H 359.502 2.46001 3.37328 0
M  V30 3726 H 360.892 6.33728 2.23246 0
M  V30 3727 N 363.613 -0.582584 1.46437 0
M  V30 3728 C 364.841 -1.36682 1.55324 0
M  V30 3729 C 365.256 -1.87796 0.194409 0
M  V30 3730 O 364.613 -1.63623 -0.808318 0
M  V30 3731 C 364.664 -2.55426 2.55812 0
M  V30 3732 O 364.385 -2.0643 3.86417 0
M  V30 3733 C 365.886 -3.47976 2.74641 0
M  V30 3734 H 363.106 -0.417545 0.525259 0
M  V30 3735 H 365.65 -0.708219 1.91845 0
M  V30 3736 H 363.805 -3.17275 2.22295 0
M  V30 3737 H 364.219 -2.83762 4.41111 0
M  V30 3738 H 365.693 -4.27775 3.48874 0
M  V30 3739 H 366.17 -3.99919 1.81553 0
M  V30 3740 H 366.776 -2.91962 3.09255 0
M  V30 3741 N 365.091 -1.34144 -0.827227 0
M  V30 3742 C 366.319 -1.29325 -1.61501 0
M  V30 3743 C 366.734 0.13354 -1.88327 0
M  V30 3744 O 366.091 1.0793 -1.47164 0
M  V30 3745 C 366.142 -2.07746 -2.95844 0
M  V30 3746 O 365.863 -3.4486 -2.70191 0
M  V30 3747 C 367.364 -2.10273 -3.90256 0
M  V30 3748 H 364.584 -0.445069 -0.50215 0
M  V30 3749 H 367.128 -1.76693 -1.02955 0
M  V30 3750 H 365.283 -1.6403 -3.5096 0
M  V30 3751 H 365.697 -3.85345 -3.55822 0
M  V30 3752 H 367.171 -2.69575 -4.81698 0
M  V30 3753 H 367.648 -1.096 -4.25305 0
M  V30 3754 H 368.254 -2.54059 -3.41078 0
M  V30 3755 N 366.569 1.04691 -1.17803 0
M  V30 3756 C 367.816 1.77782 -0.969532 0
M  V30 3757 C 368.144 1.87926 0.501401 0
M  V30 3758 O 367.399 1.37918 1.38842 0
M  V30 3759 C 367.698 3.21467 -1.56186 0
M  V30 3760 C 367.364 3.3137 -3.05786 0
M  V30 3761 C 366.026 3.3378 -3.46619 0
M  V30 3762 C 368.378 3.31976 -4.01797 0
M  V30 3763 C 365.706 3.34431 -4.82051 0
M  V30 3764 C 368.058 3.34167 -5.37136 0
M  V30 3765 C 366.722 3.34866 -5.77426 0
M  V30 3766 H 365.992 0.650549 -0.354777 0
M  V30 3767 H 368.639 1.23006 -1.46772 0
M  V30 3768 H 366.944 3.79203 -0.985515 0
M  V30 3769 H 368.641 3.76652 -1.37602 0
M  V30 3770 H 365.231 3.3021 -2.73238 0
M  V30 3771 H 369.415 3.29311 -3.71306 0
M  V30 3772 H 364.671 3.33285 -5.12573 0
M  V30 3773 H 368.845 3.33585 -6.11305 0
M  V30 3774 H 366.472 3.35124 -6.82346 0
M  V30 3775 N 368.047 0.979072 1.23499 0
M  V30 3776 C 369.01 0.523244 2.23147 0
M  V30 3777 C 370.01 -0.386406 1.56088 0
M  V30 3778 O 371.2 -0.180283 1.73265 0
M  V30 3779 C 368.332 -0.240739 3.40049 0
M  V30 3780 H 369.525 1.40432 2.64989 0
M  V30 3781 H 367.078 0.764824 1.36309 0
M  V30 3782 H 367.813 -1.13841 3.03662 0
M  V30 3783 H 367.598 0.412207 3.89927 0
M  V30 3784 H 369.088 -0.548297 4.13985 0
M  V30 3785 N 369.525 -1.3858 0.750561 0
M  V30 3786 C 370.755 -2.04175 0.31564 0
M  V30 3787 C 371.163 -1.56726 -1.05989 0
M  V30 3788 O 370.506 -0.734225 -1.68389 0
M  V30 3789 C 370.568 -3.58585 0.256389 0
M  V30 3790 C 370.232 -4.29077 1.57296 0
M  V30 3791 C 371.229 -4.54656 2.52159 0
M  V30 3792 C 368.914 -4.67324 1.84156 0
M  V30 3793 C 370.908 -5.17512 3.72103 0
M  V30 3794 C 368.595 -5.29905 3.04374 0
M  V30 3795 C 369.593 -5.54933 3.98168 0
M  V30 3796 O 369.281 -6.16212 5.16273 0
M  V30 3797 H 369.013 -0.662742 0.133226 0
M  V30 3798 H 371.567 -1.78313 1.01948 0
M  V30 3799 H 369.797 -3.83406 -0.503677 0
M  V30 3800 H 371.486 -4.05628 -0.148612 0
M  V30 3801 H 372.252 -4.25539 2.32683 0
M  V30 3802 H 368.131 -4.47191 1.11988 0
M  V30 3803 H 371.675 -5.36963 4.45327 0
M  V30 3804 H 367.572 -5.58444 3.23745 0
M  V30 3805 H 368.34 -6.34701 5.16815 0
M  V30 3806 N 371.003 -0.499398 -1.49478 0
M  V30 3807 C 372.231 0.0425456 -2.06856 0
M  V30 3808 C 372.646 1.30964 -1.35992 0
M  V30 3809 O 372.003 1.77172 -0.437762 0
M  V30 3810 C 372.054 0.301735 -3.60239 0
M  V30 3811 O 371.775 -0.915127 -4.28436 0
M  V30 3812 C 373.276 0.887499 -4.34325 0
M  V30 3813 H 370.496 -0.0197482 -0.670709 0
M  V30 3814 H 373.04 -0.696297 -1.92281 0
M  V30 3815 H 371.195 0.990556 -3.74522 0
M  V30 3816 H 371.609 -0.676993 -5.20113 0
M  V30 3817 H 373.083 1.01845 -5.42523 0
M  V30 3818 H 373.56 1.88488 -3.96698 0
M  V30 3819 H 374.166 0.236196 -4.24644 0
M  V30 3820 N 372.481 1.55866 -0.233164 0
M  V30 3821 C 373.729 1.9821 0.394593 0
M  V30 3822 C 374.05 1.12234 1.59463 0
M  V30 3823 O 373.32 0.201981 1.94856 0
M  V30 3824 H 371.9 0.732034 0.148778 0
M  V30 3825 H 374.562 1.92107 -0.32876 0
M  V30 3826 H 373.658 3.03845 0.713063 0
M  V30 3827 N 373.959 -0.0401083 1.57549 0
M  V30 3828 C 375.207 -0.731677 1.8839 0
M  V30 3829 C 375.528 -1.76481 0.829425 0
M  V30 3830 O 374.798 -1.95411 -0.1383 0
M  V30 3831 H 373.378 -0.273225 0.695239 0
M  V30 3832 H 376.04 -0.00867725 1.94898 0
M  V30 3833 H 375.136 -1.22816 2.86919 0
M  V30 3834 N 375.437 -1.54477 -0.31217 0
M  V30 3835 C 376.667 -1.76948 -1.06645 0
M  V30 3836 C 377.075 -0.523593 -1.81811 0
M  V30 3837 O 376.418 0.51578 -1.76311 0
M  V30 3838 C 376.48 -2.91668 -2.10166 0
M  V30 3839 C 376.144 -4.30165 -1.54296 0
M  V30 3840 C 377.141 -5.10603 -0.978793 0
M  V30 3841 C 374.826 -4.76738 -1.58196 0
M  V30 3842 C 376.82 -6.3573 -0.461048 0
M  V30 3843 C 374.507 -6.01831 -1.06034 0
M  V30 3844 C 375.505 -6.81161 -0.500844 0
M  V30 3845 O 375.193 -8.03899 0.0128958 0
M  V30 3846 H 374.925 -0.594088 -0.322546 0
M  V30 3847 H 377.479 -2.02213 -0.360441 0
M  V30 3848 H 375.709 -2.62001 -2.84416 0
M  V30 3849 H 377.398 -3.01817 -2.71406 0
M  V30 3850 H 378.164 -4.75771 -0.941651 0
M  V30 3851 H 374.043 -4.15027 -2.00683 0
M  V30 3852 H 377.587 -6.97596 -0.0236894 0
M  V30 3853 H 373.484 -6.36152 -1.09459 0
M  V30 3854 H 374.252 -8.18437 -0.101457 0
M  V30 3855 N 376.915 0.57481 -1.46744 0
M  V30 3856 C 378.163 1.33009 -1.52161 0
M  V30 3857 C 378.484 1.94185 -0.178092 0
M  V30 3858 O 377.754 1.7899 0.796196 0
M  V30 3859 H 376.334 0.493873 -0.560445 0
M  V30 3860 H 378.996 0.672589 -1.82927 0
M  V30 3861 H 378.092 2.13273 -2.27862 0
M  V30 3862 N 378.394 1.34581 0.820102 0
M  V30 3863 C 379.619 1.30333 1.61332 0
M  V30 3864 C 380.044 -0.119339 1.87721 0
M  V30 3865 O 379.402 -1.08197 1.45475 0
M  V30 3866 C 379.45 2.10258 2.92957 0
M  V30 3867 O 378.554 1.47404 3.85157 0
M  V30 3868 H 377.895 0.447488 0.490561 0
M  V30 3869 H 380.425 1.77425 1.01889 0
M  V30 3870 H 380.435 2.21718 3.42498 0
M  V30 3871 H 379.11 3.13693 2.73074 0
M  V30 3872 H 377.687 1.44703 3.43679 0
M  V30 3873 N 379.872 -1.04064 1.18357 0
M  V30 3874 C 381.097 -1.81454 1.00445 0
M  V30 3875 C 381.522 -1.82823 -0.442423 0
M  V30 3876 O 380.88 -1.24555 -1.31741 0
M  V30 3877 C 380.928 -3.24925 1.56384 0
M  V30 3878 O 380.032 -4.04856 0.785209 0
M  V30 3879 H 379.373 -0.560604 0.355835 0
M  V30 3880 H 381.903 -1.31059 1.57114 0
M  V30 3881 H 381.913 -3.75702 1.59097 0
M  V30 3882 H 380.588 -3.23244 2.61699 0
M  V30 3883 H 379.165 -3.63537 0.830399 0
M  V30 3884 N 381.35 -0.985608 -1.22978 0
M  V30 3885 C 382.596 -0.65836 -1.91816 0
M  V30 3886 C 382.929 0.806692 -1.76653 0
M  V30 3887 O 382.204 1.58252 -1.13078 0
M  V30 3888 C 382.487 -1.056 -3.44268 0
M  V30 3889 C 382.34 -2.57906 -3.68516 0
M  V30 3890 C 383.659 -0.603781 -4.35939 0
M  V30 3891 H 380.778 -0.24065 -0.696604 0
M  V30 3892 H 383.42 -1.22783 -1.44998 0
M  V30 3893 H 381.57 -0.571445 -3.84274 0
M  V30 3894 H 383.242 -3.13976 -3.3796 0
M  V30 3895 H 381.485 -3.00305 -3.13048 0
M  V30 3896 H 382.156 -2.80779 -4.75255 0
M  V30 3897 H 384.632 -1.01987 -4.03408 0
M  V30 3898 H 383.508 -0.910383 -5.41298 0
M  V30 3899 H 383.769 0.495761 -4.39312 0
M  V30 3900 N 382.828 1.3818 -0.7579 0
M  V30 3901 C 383.758 2.33027 -0.148597 0
M  V30 3902 C 384.739 1.55085 0.69875 0
M  V30 3903 O 385.924 1.83384 0.639053 0
M  V30 3904 C 383.054 3.3928 0.742034 0
M  V30 3905 C 382.008 4.28 -0.00291946 0
M  V30 3906 C 381.334 5.25146 1.00625 0
M  V30 3907 C 382.634 5.08938 -1.17385 0
M  V30 3908 H 384.328 2.84231 -0.940909 0
M  V30 3909 H 381.874 1.36659 -0.453908 0
M  V30 3910 H 383.827 4.046 1.17799 0
M  V30 3911 H 382.551 2.86569 1.56671 0
M  V30 3912 H 381.21 3.64192 -0.419504 0
M  V30 3913 H 380.858 4.68721 1.8251 0
M  V30 3914 H 380.558 5.85361 0.512428 0
M  V30 3915 H 382.082 5.93342 1.44143 0
M  V30 3916 H 383.496 5.67474 -0.815224 0
M  V30 3917 H 381.893 5.7841 -1.59882 0
M  V30 3918 H 382.963 4.42424 -1.98468 0
M  V30 3919 N 384.306 0.507319 1.49211 0
M  V30 3920 C 385.216 -0.272136 2.33016 0
M  V30 3921 C 386.232 -0.961206 1.45041 0
M  V30 3922 O 387.408 -0.941191 1.78055 0
M  V30 3923 C 384.473 -1.31895 3.20631 0
M  V30 3924 C 383.534 -0.642648 4.24463 0
M  V30 3925 C 382.767 -1.63959 5.07891 0
M  V30 3926 O 382.99 -2.87007 4.92933 0
M  V30 3927 O 381.924 -1.19143 5.8999 0
M  V30 3928 H 385.75 0.413982 3.00865 0
M  V30 3929 H 383.335 0.268556 1.46966 0
M  V30 3930 H 385.217 -1.92446 3.7489 0
M  V30 3931 H 383.892 -1.98788 2.5547 0
M  V30 3932 H 382.799 0.00276252 3.741 0
M  V30 3933 H 384.132 -0.0160534 4.92197 0
M  V30 3934 N 385.784 -1.5574 0.241426 0
M  V30 3935 C 387.012 -2.03208 -0.389134 0
M  V30 3936 C 387.427 -1.12082 -1.51931 0
M  V30 3937 O 386.784 -0.134183 -1.82006 0
M  V30 3938 C 386.835 -3.50064 -0.902087 0
M  V30 3939 O 386.556 -4.37717 0.18305 0
M  V30 3940 C 388.057 -4.13268 -1.60389 0
M  V30 3941 H 385.277 -0.664509 -0.0931053 0
M  V30 3942 H 387.821 -2.0124 0.36369 0
M  V30 3943 H 385.976 -3.52583 -1.60511 0
M  V30 3944 H 386.39 -5.24097 -0.205579 0
M  V30 3945 H 387.864 -5.17733 -1.91458 0
M  V30 3946 H 388.341 -3.59434 -2.52397 0
M  V30 3947 H 388.947 -4.14655 -0.945576 0
M  V30 3948 N 387.262 0.0317525 -1.57568 0
M  V30 3949 C 388.49 0.734949 -1.93407 0
M  V30 3950 C 388.905 1.69036 -0.84096 0
M  V30 3951 O 388.262 1.81582 0.182836 0
M  V30 3952 C 388.313 1.49432 -3.29169 0
M  V30 3953 O 388.034 0.577261 -4.3428 0
M  V30 3954 C 389.535 2.29492 -3.79273 0
M  V30 3955 H 386.755 0.206706 -0.638368 0
M  V30 3956 H 389.299 -0.00992046 -2.04498 0
M  V30 3957 H 387.454 2.1911 -3.19483 0
M  V30 3958 H 387.868 1.10952 -5.1263 0
M  V30 3959 H 389.342 2.78172 -4.76785 0
M  V30 3960 H 389.819 3.10794 -3.10328 0
M  V30 3961 H 390.425 1.64894 -3.92033 0
M  V30 3962 N 388.74 1.54641 0.303973 0
M  V30 3963 C 389.703 1.84646 1.35789 0
M  V30 3964 C 390.703 0.7192 1.4382 0
M  V30 3965 O 391.893 0.987491 1.43507 0
M  V30 3966 C 389.025 2.02407 2.74307 0
M  V30 3967 H 390.218 2.78829 1.10429 0
M  V30 3968 H 387.771 1.46658 0.540487 0
M  V30 3969 H 388.506 1.10502 3.04893 0
M  V30 3970 H 388.291 2.84453 2.69868 0
M  V30 3971 H 389.781 2.27002 3.50514 0
M  V30 3972 N 390.218 -0.567019 1.47046 0
M  V30 3973 C 391.166 -1.69593 1.59188 0
M  V30 3974 C 392.16 -1.63046 0.459609 0
M  V30 3975 O 393.366 -1.6835 0.637058 0
M  V30 3976 H 389.741 -0.560993 0.500791 0
M  V30 3977 H 391.712 -1.56488 2.54075 0
M  V30 3978 C 390.461 -3.07964 1.61411 0
M  V30 3979 H 389.784 -3.13679 2.47881 0
M  V30 3980 H 391.224 -3.86671 1.73958 0
M  V30 3981 C 389.683 -3.35123 0.34559 0
M  V30 3982 O 390.213 -3.97812 -0.557521 0
M  V30 3983 N 388.419 -2.89699 0.22864 0
M  V30 3984 H 387.966 -2.38863 0.964479 0
M  V30 3985 H 387.924 -3.08242 -0.619192 0
M  V30 3986 N 391.696 -1.35014 -0.812953 0
M  V30 3987 C 392.626 -1.30069 -1.93919 0
M  V30 3988 C 393.607 -0.176275 -1.69184 0
M  V30 3989 O 394.792 -0.370227 -1.90638 0
M  V30 3990 C 391.922 -1.06547 -3.30552 0
M  V30 3991 C 390.876 -2.15561 -3.69753 0
M  V30 3992 C 390.202 -1.77214 -5.04479 0
M  V30 3993 C 391.502 -3.57476 -3.808 0
M  V30 3994 H 393.196 -2.24303 -1.98314 0
M  V30 3995 H 390.742 -1.07977 -0.952736 0
M  V30 3996 H 392.695 -1.01729 -4.08937 0
M  V30 3997 H 391.419 -0.0875719 -3.26483 0
M  V30 3998 H 390.078 -2.19466 -2.9365 0
M  V30 3999 H 389.726 -0.780589 -4.96906 0
M  V30 4000 H 389.426 -2.50184 -5.31678 0
M  V30 4001 H 390.95 -1.7391 -5.8531 0
M  V30 4002 H 392.364 -3.55929 -4.4943 0
M  V30 4003 H 390.761 -4.29152 -4.19462 0
M  V30 4004 H 391.831 -3.94091 -2.82525 0
M  V30 4005 N 393.175 1.03435 -1.18907 0
M  V30 4006 C 394.108 2.11162 -0.86521 0
M  V30 4007 C 395.086 1.6165 0.175473 0
M  V30 4008 O 396.27 1.88425 0.0530129 0
M  V30 4009 C 393.397 3.37423 -0.293868 0
M  V30 4010 C 392.443 4.05795 -1.31274 0
M  V30 4011 S 393.276 4.52027 -2.8711 0
M  V30 4012 C 394.432 5.81513 -2.31504 0
M  V30 4013 H 394.665 2.38308 -1.77754 0
M  V30 4014 H 392.198 1.16295 -1.01562 0
M  V30 4015 H 394.156 4.1049 0.0292572 0
M  V30 4016 H 392.817 3.0838 0.596682 0
M  V30 4017 H 392.01 4.96574 -0.86198 0
M  V30 4018 H 391.612 3.38874 -1.58242 0
M  V30 4019 H 393.904 6.55784 -1.70157 0
M  V30 4020 H 394.847 6.3136 -3.20608 0
M  V30 4021 H 395.255 5.36921 -1.74286 0
M  V30 4022 N 394.653 0.992116 1.22453 0
M  V30 4023 C 395.883 0.684949 1.94915 0
M  V30 4024 C 396.291 -0.754292 1.73514 0
M  V30 4025 O 395.634 -1.52056 1.03076 0
M  V30 4026 C 395.696 0.910054 3.47791 0
M  V30 4027 C 395.36 2.33363 3.92926 0
M  V30 4028 C 396.357 3.31308 4.00663 0
M  V30 4029 C 394.042 2.66785 4.25595 0
M  V30 4030 C 396.036 4.6075 4.40441 0
M  V30 4031 C 393.723 3.96446 4.65053 0
M  V30 4032 C 394.721 4.9324 4.72444 0
M  V30 4033 O 394.409 6.20584 5.1101 0
M  V30 4034 H 394.141 0.25258 0.62704 0
M  V30 4035 H 396.695 1.32939 1.56577 0
M  V30 4036 H 394.925 0.208443 3.86138 0
M  V30 4037 H 396.614 0.598257 4.01467 0
M  V30 4038 H 397.38 3.0682 3.75615 0
M  V30 4039 H 393.259 1.92148 4.19047 0
M  V30 4040 H 396.803 5.363 4.46126 0
M  V30 4041 H 392.7 4.20724 4.89552 0
M  V30 4042 H 393.468 6.24509 5.29085 0
M  V30 4043 N 396.131 -1.37776 0.765217 0
M  V30 4044 C 397.061 -2.32945 0.160953 0
M  V30 4045 C 398.042 -1.55454 -0.690516 0
M  V30 4046 O 399.227 -1.83721 -0.629318 0
M  V30 4047 C 396.357 -3.39669 -0.724031 0
M  V30 4048 C 395.311 -4.27992 0.0256173 0
M  V30 4049 C 394.637 -5.25673 -0.978383 0
M  V30 4050 C 395.937 -5.08309 1.20082 0
M  V30 4051 H 397.631 -2.83728 0.955969 0
M  V30 4052 H 395.177 -1.36416 0.461149 0
M  V30 4053 H 397.13 -4.05219 -1.15652 0
M  V30 4054 H 395.854 -2.87396 -1.5515 0
M  V30 4055 H 394.513 -3.63964 0.438812 0
M  V30 4056 H 394.161 -4.69682 -1.80022 0
M  V30 4057 H 393.861 -5.85625 -0.481378 0
M  V30 4058 H 395.385 -5.94098 -1.40995 0
M  V30 4059 H 396.799 -5.67034 0.845307 0
M  V30 4060 H 395.196 -5.77554 1.62947 0
M  V30 4061 H 396.266 -4.41365 2.00811 0
M  V30 4062 N 397.609 -0.515225 -1.4894 0
M  V30 4063 C 398.539 0.244628 -2.32215 0
M  V30 4064 C 399.52 0.949136 -1.41157 0
M  V30 4065 O 400.705 0.937783 -1.70057 0
M  V30 4066 C 397.835 1.30096 -3.22013 0
M  V30 4067 C 396.789 0.715486 -4.21977 0
M  V30 4068 C 396.115 1.87339 -5.00808 0
M  V30 4069 C 397.415 -0.302982 -5.2142 0
M  V30 4070 H 399.109 -0.450501 -2.95991 0
M  V30 4071 H 396.655 -0.218098 -1.42339 0
M  V30 4072 H 398.608 1.84037 -3.79089 0
M  V30 4073 H 397.332 2.02547 -2.56207 0
M  V30 4074 H 395.991 0.197715 -3.66066 0
M  V30 4075 H 395.639 2.58592 -4.31438 0
M  V30 4076 H 395.339 1.48764 -5.68457 0
M  V30 4077 H 396.863 2.41686 -5.60732 0
M  V30 4078 H 398.277 0.148802 -5.73107 0
M  V30 4079 H 396.674 -0.60532 -5.97039 0
M  V30 4080 H 397.744 -1.21395 -4.69459 0
M  V30 4081 N 399.087 1.5561 -0.249682 0
M  V30 4082 C 400.312 2.03865 0.381305 0
M  V30 4083 C 400.737 1.12769 1.50548 0
M  V30 4084 O 400.095 0.121189 1.80895 0
M  V30 4085 C 400.143 3.50101 0.863816 0
M  V30 4086 O 399.247 3.62132 1.97318 0
M  V30 4087 H 398.588 0.658827 0.0827194 0
M  V30 4088 H 401.118 2.01105 -0.376552 0
M  V30 4089 H 401.128 3.90975 1.1663 0
M  V30 4090 H 399.803 4.1588 0.0411816 0
M  V30 4091 H 398.38 3.33155 1.67517 0
M  V30 4092 N 400.565 -0.0233959 1.57583 0
M  V30 4093 C 401.813 -0.711654 1.89156 0
M  V30 4094 C 402.134 -1.75591 0.848096 0
M  V30 4095 O 401.404 -1.95547 -0.117566 0
M  V30 4096 H 399.984 -0.265835 0.698098 0
M  V30 4097 H 402.646 0.0119948 1.94896 0
M  V30 4098 H 401.742 -1.19766 2.88206 0
M  V30 4099 N 402.043 -1.548 -0.295768 0
M  V30 4100 C 403.268 -1.78653 -1.05346 0
M  V30 4101 C 403.693 -0.546894 -1.79974 0
M  V30 4102 O 403.051 0.502763 -1.7419 0
M  V30 4103 C 403.099 -2.99679 -2.00561 0
M  V30 4104 O 402.203 -2.7317 -3.08953 0
M  V30 4105 H 401.544 -0.59116 -0.302367 0
M  V30 4106 H 404.074 -2.01895 -0.331598 0
M  V30 4107 H 404.084 -3.27793 -2.42932 0
M  V30 4108 H 402.759 -3.89562 -1.4565 0
M  V30 4109 H 401.336 -2.56089 -2.71059 0
M  V30 4110 N 403.521 0.559213 -1.47345 0
M  V30 4111 C 404.749 1.34194 -1.57479 0
M  V30 4112 C 405.164 1.87463 -0.224261 0
M  V30 4113 O 404.521 1.64888 0.782185 0
M  V30 4114 C 404.572 2.51324 -2.59843 0
M  V30 4115 O 404.293 2.00256 -3.89653 0
M  V30 4116 C 405.794 3.43563 -2.80142 0
M  V30 4117 H 403.014 0.409136 -0.531835 0
M  V30 4118 H 405.558 0.677609 -1.92947 0
M  V30 4119 H 403.713 3.13699 -2.27314 0
M  V30 4120 H 404.127 2.76708 -4.4557 0
M  V30 4121 H 405.601 4.2217 -3.55635 0
M  V30 4122 H 406.078 3.9698 -1.87892 0
M  V30 4123 H 406.684 2.87005 -3.1386 0
M  V30 4124 N 404.999 1.35443 0.805782 0
M  V30 4125 C 406.245 1.2996 1.56467 0
M  V30 4126 C 406.6 -0.124742 1.91995 0
M  V30 4127 O 405.893 -1.07533 1.58579 0
M  V30 4128 C 406.087 2.14045 2.86216 0
M  V30 4129 C 405.916 3.64512 2.63365 0
M  V30 4130 C 404.686 4.33744 2.59219 0
M  V30 4131 C 406.884 4.58142 2.33688 0
M  V30 4132 N 404.866 5.69953 2.28094 0
M  V30 4133 C 406.237 5.8248 2.12408 0
M  V30 4134 C 408.292 4.46877 2.19558 0
M  V30 4135 C 406.995 6.96818 1.78429 0
M  V30 4136 C 409.021 5.61065 1.86976 0
M  V30 4137 C 408.383 6.84431 1.66532 0
M  V30 4138 H 404.482 0.530817 0.574245 0
M  V30 4139 H 407.066 1.70333 0.943126 0
M  V30 4140 H 405.237 1.75942 3.46264 0
M  V30 4141 H 406.969 2.00075 3.51784 0
M  V30 4142 H 403.724 3.86365 2.73896 0
M  V30 4143 H 404.148 6.41845 2.15323 0
M  V30 4144 H 408.79 3.52102 2.34061 0
M  V30 4145 H 406.508 7.91559 1.62664 0
M  V30 4146 H 410.094 5.54302 1.7675 0
M  V30 4147 H 408.974 7.71294 1.41688 0
M  V30 4148 N 406.477 -1.02803 1.19454 0
M  V30 4149 C 407.702 -1.80378 1.02364 0
M  V30 4150 C 408.127 -1.83282 -0.423007 0
M  V30 4151 O 407.485 -1.25945 -1.30413 0
M  V30 4152 C 407.533 -3.23248 1.59821 0
M  V30 4153 O 406.637 -4.04 0.828105 0
M  V30 4154 H 405.978 -0.556799 0.361761 0
M  V30 4155 H 408.508 -1.29385 1.58495 0
M  V30 4156 H 408.518 -3.73994 1.63073 0
M  V30 4157 H 407.193 -3.2045 2.65113 0
M  V30 4158 H 405.77 -3.62635 0.86891 0
M  V30 4159 N 407.956 -0.998596 -1.21925 0
M  V30 4160 C 409.202 -0.678667 -1.91107 0
M  V30 4161 C 409.535 0.78791 -1.77498 0
M  V30 4162 O 408.81 1.57043 -1.1475 0
M  V30 4163 C 409.093 -1.09245 -3.43129 0
M  V30 4164 C 408.946 -2.61801 -3.6576 0
M  V30 4165 C 410.265 -0.649984 -4.35274 0
M  V30 4166 H 407.384 -0.248025 -0.694012 0
M  V30 4167 H 410.026 -1.24314 -1.43688 0
M  V30 4168 H 408.176 -0.612171 -3.83647 0
M  V30 4169 H 409.848 -3.17543 -3.34611 0
M  V30 4170 H 408.091 -3.03609 -3.09845 0
M  V30 4171 H 408.762 -2.85804 -4.7225 0
M  V30 4172 H 411.238 -1.0626 -4.02303 0
M  V30 4173 H 410.114 -0.967743 -5.40302 0
M  V30 4174 H 410.375 0.449139 -4.39813 0
M  V30 4175 N 409.434 1.37368 -0.772513 0
M  V30 4176 C 410.659 2.0447 -0.347386 0
M  V30 4177 C 411.084 1.57882 1.0225 0
M  V30 4178 O 410.442 0.73941 1.65537 0
M  V30 4179 C 410.49 3.58369 -0.400479 0
M  V30 4180 O 409.594 4.0803 0.598789 0
M  V30 4181 H 408.935 0.646773 -0.15027 0
M  V30 4182 H 411.465 1.75667 -1.04892 0
M  V30 4183 H 411.475 4.07183 -0.258045 0
M  V30 4184 H 410.15 3.91633 -1.39986 0
M  V30 4185 H 408.727 3.70534 0.419411 0
M  V30 4186 N 410.912 0.523116 1.48665 0
M  V30 4187 C 412.189 -0.0775449 1.95446 0
M  V30 4188 C 412.569 -1.5197 1.4652 0
M  V30 4189 O 411.917 -2.17876 0.688657 0
M  V30 4190 C 412.127 0.0326135 3.48985 0
M  V30 4191 C 413.475 -0.130141 4.24401 0
M  V30 4192 O 414.499 -0.0415142 3.56176 0
M  V30 4193 O 413.358 -0.31491 5.45592 0
M  V30 4194 H 410.452 -0.0831012 0.822814 0
M  V30 4195 H 412.998 0.587227 1.59216 0
M  V30 4196 H 411.77 1.03748 3.77296 0
M  V30 4197 H 411.393 -0.671317 3.91892 0
M  V30 4198 N 412.39 -1.55475 0.257931 0
M  V30 4199 C 413.801 -1.8511 -0.243135 0
M  V30 4200 C 414.152 -1.17986 -1.5676 0
M  V30 4201 O 413.277 -0.462102 -2.11409 0
M  V30 4202 C 413.872 -3.35826 -0.447929 0
M  V30 4203 C 412.431 -3.65647 -0.893245 0
M  V30 4204 C 411.578 -2.7729 0.0232965 0
M  V30 4205 H 414.529 -1.51261 0.480199 0
M  V30 4206 H 414.55 -3.58002 -1.28898 0
M  V30 4207 H 414.062 -3.84652 0.516196 0
M  V30 4208 H 412.163 -3.22308 -1.86945 0
M  V30 4209 H 412.276 -4.73312 -0.742469 0
M  V30 4210 H 410.64 -2.49942 -0.490021 0
M  V30 4211 H 411.423 -3.28926 0.982994 0
M  V30 4212 N 413.868 0.0150385 -1.57593 0
M  V30 4213 C 414.816 1.02958 -2.08572 0
M  V30 4214 C 415.81 1.36554 -1.00246 0
M  V30 4215 O 417.016 1.35295 -1.18724 0
M  V30 4216 H 413.391 0.349619 -0.665786 0
M  V30 4217 H 415.362 0.573932 -2.92829 0
M  V30 4218 C 414.111 2.31752 -2.59203 0
M  V30 4219 H 413.434 2.06765 -3.42182 0
M  V30 4220 H 414.874 3.01053 -2.98568 0
M  V30 4221 C 413.333 3.01692 -1.49945 0
M  V30 4222 O 413.863 3.92083 -0.873704 0
M  V30 4223 N 412.069 2.6326 -1.23056 0
M  V30 4224 H 411.616 1.89838 -1.74125 0
M  V30 4225 H 411.574 3.10372 -0.501685 0
M  V30 4226 N 415.346 1.54954 0.287554 0
M  V30 4227 C 416.278 1.83224 1.37701 0
M  V30 4228 C 417.291 0.715898 1.46215 0
M  V30 4229 O 418.48 0.993565 1.48292 0
M  V30 4230 C 415.58 1.96723 2.75959 0
M  V30 4231 C 414.753 3.27253 2.90215 0
M  V30 4232 C 413.812 3.30998 4.09056 0
M  V30 4233 O 412.838 4.04457 4.00503 0
M  V30 4234 N 414.04 2.57353 5.20336 0
M  V30 4235 H 416.805 2.77254 1.138 0
M  V30 4236 H 414.366 1.54694 0.477652 0
M  V30 4237 H 416.358 1.96615 3.5373 0
M  V30 4238 H 414.928 1.09626 2.92747 0
M  V30 4239 H 414.148 3.40022 1.99447 0
M  V30 4240 H 415.436 4.13365 2.96659 0
M  V30 4241 H 414.834 1.97327 5.30169 0
M  V30 4242 H 413.391 2.62984 5.96391 0
M  V30 4243 N 416.824 -0.551391 1.4764 0
M  V30 4244 C 418.049 -1.33837 1.58437 0
M  V30 4245 C 418.474 -1.866 0.237063 0
M  V30 4246 O 417.832 -1.6328 -0.787994 0
M  V30 4247 C 417.88 -2.48014 2.61766 0
M  V30 4248 O 416.984 -3.50419 2.1744 0
M  V30 4249 H 416.325 -0.397299 0.532024 0
M  V30 4250 H 418.855 -0.665759 1.93465 0
M  V30 4251 H 418.865 -2.94503 2.82369 0
M  V30 4252 H 417.54 -2.08969 3.5959 0
M  V30 4253 H 416.117 -3.10196 2.06961 0
M  V30 4254 N 418.302 -1.35869 -0.798587 0
M  V30 4255 C 419.25 -1.29491 -1.93222 0
M  V30 4256 C 420.244 -0.18836 -1.6835 0
M  V30 4257 O 421.45 -0.354822 -1.76468 0
M  V30 4258 H 417.825 -0.402901 -0.63496 0
M  V30 4259 H 419.796 -2.25247 -1.9572 0
M  V30 4260 C 418.545 -1.09184 -3.30112 0
M  V30 4261 H 417.868 -1.93574 -3.49813 0
M  V30 4262 H 419.308 -1.08766 -4.09812 0
M  V30 4263 C 417.767 0.203959 -3.36282 0
M  V30 4264 O 418.297 1.19699 -3.83451 0
M  V30 4265 N 416.503 0.245488 -2.89561 0
M  V30 4266 H 416.05 -0.563223 -2.51367 0
M  V30 4267 H 416.008 1.11219 -2.94071 0
M  V30 4268 N 419.78 1.02168 -1.19998 0
M  V30 4269 C 421.026 1.75945 -1.00852 0
M  V30 4270 C 421.359 1.88702 0.458828 0
M  V30 4271 O 420.634 1.40911 1.34069 0
M  V30 4272 C 420.917 3.18154 -1.68671 0
M  V30 4273 C 420.77 3.13224 -3.22817 0
M  V30 4274 C 422.089 4.16711 -1.41561 0
M  V30 4275 H 419.208 0.638673 -0.367785 0
M  V30 4276 H 421.85 1.19222 -1.4794 0
M  V30 4277 H 420 3.66586 -1.28636 0
M  V30 4278 H 421.672 2.72635 -3.72112 0
M  V30 4279 H 419.915 2.50751 -3.53986 0
M  V30 4280 H 420.586 4.13728 -3.65422 0
M  V30 4281 H 423.062 3.76913 -1.76284 0
M  V30 4282 H 421.938 5.14391 -1.91553 0
M  V30 4283 H 422.199 4.40774 -0.342193 0
M  V30 4284 N 421.258 1.00505 1.21394 0
M  V30 4285 C 422.504 0.698477 1.91031 0
M  V30 4286 C 422.859 -0.762448 1.76648 0
M  V30 4287 O 422.152 -1.54554 1.13241 0
M  V30 4288 C 422.346 1.0546 3.41486 0
M  V30 4289 C 422.175 2.5486 3.70508 0
M  V30 4290 C 420.945 3.21461 3.8986 0
M  V30 4291 C 423.143 3.53019 3.74008 0
M  V30 4292 N 421.125 4.60211 4.06299 0
M  V30 4293 C 422.496 4.77279 3.95733 0
M  V30 4294 C 424.551 3.47154 3.56915 0
M  V30 4295 C 423.254 5.96388 4.02137 0
M  V30 4296 C 425.28 4.65652 3.64585 0
M  V30 4297 C 424.642 5.88717 3.86771 0
M  V30 4298 H 420.741 0.30707 0.719189 0
M  V30 4299 H 423.325 1.28753 1.46051 0
M  V30 4300 H 421.496 0.494007 3.85246 0
M  V30 4301 H 423.228 0.702765 3.98552 0
M  V30 4302 H 419.983 2.71906 3.87768 0
M  V30 4303 H 420.407 5.32216 4.1842 0
M  V30 4304 H 425.049 2.53015 3.38738 0
M  V30 4305 H 422.767 6.90919 4.19114 0
M  V30 4306 H 426.353 4.62717 3.52681 0
M  V30 4307 H 425.233 6.78877 3.92549 0
M  V30 4308 N 422.737 -1.36956 0.779787 0
M  V30 4309 C 423.669 -2.28833 0.129639 0
M  V30 4310 C 424.682 -1.4902 -0.655511 0
M  V30 4311 O 425.871 -1.71578 -0.492279 0
M  V30 4312 C 422.971 -3.2833 -0.839792 0
M  V30 4313 C 422.144 -4.3727 -0.10675 0
M  V30 4314 C 421.203 -5.16789 -0.990717 0
M  V30 4315 O 420.229 -5.67406 -0.451516 0
M  V30 4316 N 421.431 -5.32294 -2.3161 0
M  V30 4317 H 424.196 -2.85268 0.918803 0
M  V30 4318 H 421.757 -1.49019 0.632841 0
M  V30 4319 H 423.749 -3.78413 -1.43477 0
M  V30 4320 H 422.319 -2.72605 -1.52988 0
M  V30 4321 H 421.539 -3.88478 0.669216 0
M  V30 4322 H 422.827 -5.07229 0.399464 0
M  V30 4323 H 422.225 -4.92768 -2.77843 0
M  V30 4324 H 420.782 -5.85656 -2.86095 0
M  V30 4325 N 424.215 -0.530993 -1.48385 0
M  V30 4326 C 425.461 -0.00538653 -2.03399 0
M  V30 4327 C 425.816 1.31899 -1.40073 0
M  V30 4328 O 425.109 1.83901 -0.537676 0
M  V30 4329 C 425.303 0.172742 -3.56982 0
M  V30 4330 C 425.132 -1.13282 -4.35198 0
M  V30 4331 C 423.902 -1.69296 -4.76096 0
M  V30 4332 C 426.1 -2.04367 -4.71952 0
M  V30 4333 N 424.082 -2.9413 -5.38851 0
M  V30 4334 C 425.453 -3.13777 -5.34737 0
M  V30 4335 C 427.508 -2.04681 -4.53883 0
M  V30 4336 C 426.211 -4.23567 -5.81363 0
M  V30 4337 C 428.237 -3.13466 -5.01491 0
M  V30 4338 C 427.599 -4.21595 -5.64302 0
M  V30 4339 H 423.698 -0.0434945 -0.780789 0
M  V30 4340 H 426.282 -0.712495 -1.81195 0
M  V30 4341 H 424.453 0.848937 -3.79009 0
M  V30 4342 H 426.185 0.698046 -3.98634 0
M  V30 4343 H 422.94 -1.23422 -4.57235 0
M  V30 4344 H 423.364 -3.57689 -5.74794 0
M  V30 4345 H 428.006 -1.22378 -4.04702 0
M  V30 4346 H 425.724 -5.06648 -6.2955 0
M  V30 4347 H 429.31 -3.14765 -4.893 0
M  V30 4348 H 428.19 -5.04384 -6.00472 0
M  V30 4349 N 425.693 1.55336 -0.266172 0
M  V30 4350 C 426.942 1.98574 0.353749 0
M  V30 4351 C 427.255 1.15789 1.57646 0
M  V30 4352 O 428.461 1.49129 2.26876 0
M  V30 4353 C 426.917 3.53403 0.680747 0
M  V30 4354 C 426.525 4.44953 -0.52165 0
M  V30 4355 C 428.269 4.05251 1.26379 0
M  V30 4356 C 426.176 5.91156 -0.169736 0
M  V30 4357 H 425.106 0.741643 0.135949 0
M  V30 4358 H 427.757 1.79743 -0.369421 0
M  V30 4359 H 426.139 3.68001 1.46257 0
M  V30 4360 H 427.313 4.42121 -1.29869 0
M  V30 4361 H 425.628 4.03691 -1.02093 0
M  V30 4362 H 428.225 5.12021 1.54074 0
M  V30 4363 H 428.568 3.53749 2.19471 0
M  V30 4364 H 429.101 3.94057 0.544447 0
M  V30 4365 H 425.84 6.46736 -1.0683 0
M  V30 4366 H 425.36 5.97079 0.570717 0
M  V30 4367 H 427.039 6.4655 0.241245 0
M  V30 4368 N 427.171 -0.0066808 1.57599 0
M  V30 4369 C 428.401 -0.703066 1.94269 0
M  V30 4370 C 428.809 -1.68206 0.866222 0
M  V30 4371 O 428.152 -1.82966 -0.164087 0
M  V30 4372 C 428.214 -1.49616 3.26887 0
M  V30 4373 C 427.878 -0.679494 4.5192 0
M  V30 4374 C 428.875 0.0299508 5.19891 0
M  V30 4375 C 426.56 -0.627433 4.98366 0
M  V30 4376 C 428.554 0.780514 6.32603 0
M  V30 4377 C 426.241 0.126861 6.10968 0
M  V30 4378 C 427.239 0.829574 6.77943 0
M  V30 4379 O 426.927 1.57157 7.88389 0
M  V30 4380 H 426.659 -0.201217 0.645359 0
M  V30 4381 H 429.213 0.0385326 2.05364 0
M  V30 4382 H 427.443 -2.28209 3.12182 0
M  V30 4383 H 429.132 -2.07726 3.48719 0
M  V30 4384 H 429.898 -0.00115963 4.85 0
M  V30 4385 H 425.777 -1.16392 4.46065 0
M  V30 4386 H 429.321 1.32954 6.84813 0
M  V30 4387 H 425.218 0.159815 6.45302 0
M  V30 4388 H 425.986 1.48758 8.04868 0
M  V30 4389 N 428.649 -1.55105 -0.279332 0
M  V30 4390 C 429.559 -1.90638 -1.36727 0
M  V30 4391 C 430.575 -0.802899 -1.54368 0
M  V30 4392 O 431.751 -1.10138 -1.68616 0
M  V30 4393 C 428.816 -2.16547 -2.70755 0
M  V30 4394 C 427.877 -3.40146 -2.61915 0
M  V30 4395 C 427.11 -3.6481 -3.8955 0
M  V30 4396 O 427.333 -2.92095 -4.89935 0
M  V30 4397 O 426.267 -4.58343 -3.90135 0
M  V30 4398 H 430.093 -2.83237 -1.09591 0
M  V30 4399 H 427.678 -1.4157 -0.477306 0
M  V30 4400 H 429.56 -2.34665 -3.50014 0
M  V30 4401 H 428.235 -1.27131 -2.9769 0
M  V30 4402 H 427.142 -3.2737 -1.81052 0
M  V30 4403 H 428.475 -4.29761 -2.3993 0
M  V30 4404 N 430.127 0.543554 -1.4793 0
M  V30 4405 C 431.09 1.63156 -1.60975 0
M  V30 4406 C 432.09 1.53346 -0.483899 0
M  V30 4407 O 433.28 1.5726 -0.749339 0
M  V30 4408 C 430.412 3.02743 -1.56716 0
M  V30 4409 H 431.605 1.52934 -2.57975 0
M  V30 4410 H 429.158 0.764557 -1.36324 0
M  V30 4411 H 429.893 3.18484 -0.611418 0
M  V30 4412 H 429.678 3.11272 -2.38438 0
M  V30 4413 H 431.168 3.81871 -1.6901 0
M  V30 4414 N 431.605 1.3629 0.791371 0
M  V30 4415 C 432.835 1.33368 1.57786 0
M  V30 4416 C 433.243 -0.0875188 1.88997 0
M  V30 4417 O 432.586 -1.05427 1.50435 0
M  V30 4418 C 432.648 2.08802 2.92646 0
M  V30 4419 C 432.312 3.57903 2.84174 0
M  V30 4420 C 433.309 4.52191 2.56553 0
M  V30 4421 C 430.994 4.00762 3.02812 0
M  V30 4422 C 432.988 5.87315 2.47669 0
M  V30 4423 C 430.675 5.35977 2.93551 0
M  V30 4424 C 431.673 6.29066 2.66017 0
M  V30 4425 O 431.361 7.61798 2.56746 0
M  V30 4426 H 431.093 0.459166 0.496128 0
M  V30 4427 H 433.647 1.79952 0.990269 0
M  V30 4428 H 431.877 1.56878 3.53449 0
M  V30 4429 H 433.566 1.98762 3.53904 0
M  V30 4430 H 434.332 4.20393 2.41858 0
M  V30 4431 H 430.211 3.2868 3.2325 0
M  V30 4432 H 433.755 6.59943 2.26099 0
M  V30 4433 H 429.652 5.67384 3.07808 0
M  V30 4434 H 430.42 7.71898 2.72242 0
M  V30 4435 N 433.083 -1.0153 1.20538 0
M  V30 4436 C 434.499 -1.27461 0.96051 0
M  V30 4437 C 434.699 -1.98273 -0.359193 0
M  V30 4438 O 433.755 -2.27886 -1.0874 0
M  V30 4439 C 435.068 -2.10837 2.14402 0
M  V30 4440 C 436.616 -2.24099 2.18515 0
M  V30 4441 C 437.091 -3.10852 3.36355 0
M  V30 4442 N 438.582 -3.18441 3.36377 0
M  V30 4443 C 439.317 -3.85795 4.24205 0
M  V30 4444 N 438.813 -4.55264 5.22213 0
M  V30 4445 N 440.606 -3.82331 4.12043 0
M  V30 4446 H 432.757 -0.539907 2.05423 0
M  V30 4447 H 435.02 -0.30092 0.898972 0
M  V30 4448 H 434.726 -1.66144 3.09983 0
M  V30 4449 H 434.6 -3.11576 2.12604 0
M  V30 4450 H 436.987 -2.68016 1.23497 0
M  V30 4451 H 437.068 -1.22865 2.24361 0
M  V30 4452 H 436.712 -2.6764 4.31661 0
M  V30 4453 H 436.642 -4.12177 3.27746 0
M  V30 4454 H 439.133 -2.68978 2.65442 0
M  V30 4455 H 439.446 -5.04331 5.85551 0
M  V30 4456 H 437.791 -4.54085 5.26148 0
M  V30 4457 H 440.982 -3.27207 3.34743 0
M  V30 4458 H 441.155 -4.34547 4.807 0
M  V30 4459 N 434.561 -1.01147 -1.20859 0
M  V30 4460 C 435.972 -0.730205 -1.71828 0
M  V30 4461 C 436.323 0.751662 -1.8123 0
M  V30 4462 O 435.448 1.58686 -1.47132 0
M  V30 4463 C 436.043 -1.31885 -3.12077 0
M  V30 4464 C 434.602 -1.08656 -3.60376 0
M  V30 4465 C 433.749 -1.42769 -2.37723 0
M  V30 4466 H 436.7 -1.18158 -1.05945 0
M  V30 4467 H 436.721 -0.706793 -3.73878 0
M  V30 4468 H 436.233 -2.39737 -3.05201 0
M  V30 4469 H 434.334 -0.0254814 -3.72591 0
M  V30 4470 H 434.447 -1.76301 -4.45483 0
M  V30 4471 H 432.811 -0.846603 -2.40218 0
M  V30 4472 H 433.594 -2.51666 -2.33493 0
M  V30 4473 N 436.039 1.36541 -0.78704 0
M  V30 4474 C 436.969 2.32659 -0.197992 0
M  V30 4475 C 437.95 1.56533 0.665697 0
M  V30 4476 O 439.135 1.84698 0.60001 0
M  V30 4477 C 436.265 3.40778 0.669901 0
M  V30 4478 C 435.219 4.27897 -0.0937039 0
M  V30 4479 C 434.545 5.27163 0.894629 0
M  V30 4480 C 435.845 5.06334 -1.28154 0
M  V30 4481 H 437.539 2.82171 -1.00099 0
M  V30 4482 H 435.085 1.35665 -0.482793 0
M  V30 4483 H 437.038 4.07008 1.09191 0
M  V30 4484 H 435.762 2.89827 1.50558 0
M  V30 4485 H 434.421 3.6322 -0.49666 0
M  V30 4486 H 434.069 4.72486 1.72527 0
M  V30 4487 H 433.769 5.86317 0.388149 0
M  V30 4488 H 435.293 5.96266 1.31525 0
M  V30 4489 H 436.707 5.65617 -0.93541 0
M  V30 4490 H 435.104 5.74888 -1.72115 0
M  V30 4491 H 436.174 4.38114 -2.07807 0
M  V30 4492 N 437.518 0.538854 1.48102 0
M  V30 4493 C 438.448 -0.207654 2.32575 0
M  V30 4494 C 439.429 -0.926559 1.4265 0
M  V30 4495 O 440.614 -0.91061 1.71527 0
M  V30 4496 C 437.744 -1.24957 3.24042 0
M  V30 4497 C 436.698 -0.648263 4.23062 0
M  V30 4498 C 436.024 -1.79348 5.03725 0
M  V30 4499 C 437.324 0.385897 5.20872 0
M  V30 4500 H 439.018 0.497534 2.95237 0
M  V30 4501 H 436.564 0.240715 1.41974 0
M  V30 4502 H 438.517 -1.77983 3.81969 0
M  V30 4503 H 437.241 -1.98446 2.59397 0
M  V30 4504 H 435.9 -0.139452 3.66335 0
M  V30 4505 H 435.548 -2.51696 4.35498 0
M  V30 4506 H 435.248 -1.39702 5.70751 0
M  V30 4507 H 436.772 -2.32735 5.64506 0
M  V30 4508 H 438.186 -0.057607 5.73271 0
M  V30 4509 H 436.583 0.700227 5.96001 0
M  V30 4510 H 437.653 1.28848 4.67468 0
M  V30 4511 N 438.996 -1.55193 0.274407 0
M  V30 4512 C 440.226 -2.03692 -0.345442 0
M  V30 4513 C 440.634 -1.15224 -1.50067 0
M  V30 4514 O 439.977 -0.164749 -1.8296 0
M  V30 4515 C 440.039 -3.48325 -0.88939 0
M  V30 4516 C 439.703 -4.56794 0.137115 0
M  V30 4517 C 440.7 -5.11028 0.956378 0
M  V30 4518 C 438.385 -5.01568 0.27115 0
M  V30 4519 C 440.379 -6.08552 1.89587 0
M  V30 4520 C 438.066 -5.98918 1.21412 0
M  V30 4521 C 439.064 -6.52291 2.02498 0
M  V30 4522 O 438.752 -7.47738 2.952 0
M  V30 4523 H 438.484 -0.670893 -0.0829332 0
M  V30 4524 H 441.038 -2.01387 0.404056 0
M  V30 4525 H 439.268 -3.47867 -1.68895 0
M  V30 4526 H 440.957 -3.80167 -1.42225 0
M  V30 4527 H 441.723 -4.7725 0.863559 0
M  V30 4528 H 437.602 -4.5967 -0.349987 0
M  V30 4529 H 441.146 -6.50137 2.52918 0
M  V30 4530 H 437.043 -6.32114 1.30776 0
M  V30 4531 H 437.811 -7.65451 2.89874 0
M  V30 4532 N 440.474 -0.00167713 -1.576 0
M  V30 4533 C 441.421 0.989195 -2.08527 0
M  V30 4534 C 442.391 1.34031 -0.981065 0
M  V30 4535 O 443.576 1.43839 -1.2536 0
M  V30 4536 C 440.716 2.27537 -2.59463 0
M  V30 4537 C 439.829 1.98314 -3.83791 0
M  V30 4538 C 438.964 3.21025 -4.23222 0
M  V30 4539 C 438.003 2.87495 -5.40382 0
M  V30 4540 N 437.14 4.02749 -5.75098 0
M  V30 4541 H 441.98 0.547973 -2.92919 0
M  V30 4542 H 439.517 0.258917 -1.44803 0
M  V30 4543 H 441.475 3.02729 -2.87073 0
M  V30 4544 H 440.105 2.69325 -1.77943 0
M  V30 4545 H 439.157 1.13482 -3.63078 0
M  V30 4546 H 440.469 1.69601 -4.69081 0
M  V30 4547 H 439.623 4.04561 -4.52123 0
M  V30 4548 H 438.362 3.52877 -3.36644 0
M  V30 4549 H 437.367 2.02367 -5.11202 0
M  V30 4550 H 438.592 2.56889 -6.28637 0
M  V30 4551 H 436.538 4.34494 -4.91478 0
M  V30 4552 H 436.455 3.77566 -6.54966 0
M  V30 4553 H 437.723 4.87068 -6.08592 0
M  V30 4554 N 441.952 1.55251 0.271103 0
M  V30 4555 C 443.2 1.75599 1.00047 0
M  V30 4556 C 443.521 0.561188 1.8675 0
M  V30 4557 O 442.791 -0.423846 1.9126 0
M  V30 4558 H 441.371 0.647562 0.372387 0
M  V30 4559 H 444.033 1.92656 0.294876 0
M  V30 4560 H 443.129 2.65766 1.6363 0
M  V30 4561 N 443.43 -0.535701 1.48216 0
M  V30 4562 C 444.393 -1.623 1.61838 0
M  V30 4563 C 445.393 -1.53087 0.492024 0
M  V30 4564 O 446.583 -1.5686 0.757668 0
M  V30 4565 C 443.715 -3.01907 1.58319 0
M  V30 4566 H 444.908 -1.51564 2.58783 0
M  V30 4567 H 442.461 -0.757317 1.36727 0
M  V30 4568 H 443.196 -3.18155 0.628299 0
M  V30 4569 H 442.981 -3.10003 2.40085 0
M  V30 4570 H 444.471 -3.80969 1.71033 0
M  V30 4571 N 444.908 -1.36708 -0.784132 0
M  V30 4572 C 445.841 -1.25827 -1.90375 0
M  V30 4573 C 446.819 -0.141331 -1.61985 0
M  V30 4574 O 448.003 -0.313389 -1.85877 0
M  V30 4575 C 445.13 -0.942621 -3.25319 0
M  V30 4576 C 444.176 -2.07474 -3.72635 0
M  V30 4577 S 445.009 -3.69317 -3.8777 0
M  V30 4578 C 446.165 -3.39876 -5.25581 0
M  V30 4579 H 446.398 -2.20593 -1.99314 0
M  V30 4580 H 443.931 -1.22186 -0.943926 0
M  V30 4581 H 445.889 -0.767321 -4.03265 0
M  V30 4582 H 444.55 -0.0126566 -3.14097 0
M  V30 4583 H 443.743 -1.80858 -4.70432 0
M  V30 4584 H 443.345 -2.20953 -3.01754 0
M  V30 4585 H 445.637 -2.94097 -6.10339 0
M  V30 4586 H 446.58 -4.36956 -5.57203 0
M  V30 4587 H 446.988 -2.75098 -4.92931 0
M  V30 4588 N 446.386 1.0089 -1.21074 0
M  V30 4589 C 447.319 2.09279 -0.909806 0
M  V30 4590 C 448.297 1.61986 0.141145 0
M  V30 4591 O 449.481 1.88495 0.0130332 0
M  V30 4592 C 446.608 3.36723 -0.365374 0
M  V30 4593 C 445.654 4.02919 -1.39852 0
M  V30 4594 S 446.487 4.45835 -2.96633 0
M  V30 4595 C 447.643 5.76471 -2.43786 0
M  V30 4596 H 447.876 2.34484 -1.82769 0
M  V30 4597 H 445.409 1.14115 -1.04006 0
M  V30 4598 H 447.367 4.10459 -0.0578203 0
M  V30 4599 H 446.028 3.09577 0.531136 0
M  V30 4600 H 445.221 4.94634 -0.967117 0
M  V30 4601 H 444.823 3.35441 -1.65395 0
M  V30 4602 H 447.115 6.52027 -1.84029 0
M  V30 4603 H 448.058 6.24418 -3.33928 0
M  V30 4604 H 448.466 5.33104 -1.85636 0
M  V30 4605 N 447.864 1.01787 1.20321 0
M  V30 4606 C 449.141 0.622978 1.85414 0
M  V30 4607 C 449.521 -0.898887 1.91006 0
M  V30 4608 O 448.869 -1.79112 1.41884 0
M  V30 4609 C 449.079 1.27226 3.24984 0
M  V30 4610 C 450.427 1.3885 4.01255 0
M  V30 4611 O 451.451 1.22857 3.34342 0
M  V30 4612 O 450.31 1.64705 5.2109 0
M  V30 4613 H 447.404 0.215116 0.798533 0
M  V30 4614 H 449.95 1.11533 1.27901 0
M  V30 4615 H 448.722 2.31209 3.15687 0
M  V30 4616 H 448.345 0.767069 3.90131 0
M  V30 4617 N 449.342 -1.36122 0.79427 0
M  V30 4618 C 450.275 -2.27759 0.141845 0
M  V30 4619 C 451.253 -1.47471 -0.684921 0
M  V30 4620 O 452.437 -1.76759 -0.654857 0
M  V30 4621 C 449.564 -3.29008 -0.804446 0
M  V30 4622 C 448.61 -4.26459 -0.0588617 0
M  V30 4623 S 449.443 -5.20253 1.26873 0
M  V30 4624 C 450.599 -6.25048 0.326562 0
M  V30 4625 H 450.832 -2.82746 0.918818 0
M  V30 4626 H 448.365 -1.42736 0.588722 0
M  V30 4627 H 450.323 -3.87842 -1.34495 0
M  V30 4628 H 448.984 -2.72924 -1.5547 0
M  V30 4629 H 448.177 -4.97973 -0.777087 0
M  V30 4630 H 447.779 -3.71731 0.411309 0
M  V30 4631 H 450.071 -6.75705 -0.492795 0
M  V30 4632 H 451.014 -7.00852 1.01053 0
M  V30 4633 H 451.422 -5.64454 -0.0722627 0
M  V30 4634 N 450.82 -0.546701 -1.47814 0
M  V30 4635 C 452.066 -0.0187684 -2.02791 0
M  V30 4636 C 452.399 1.32338 -1.42128 0
M  V30 4637 O 451.674 1.85867 -0.573023 0
M  V30 4638 C 451.957 0.0854985 -3.59998 0
M  V30 4639 C 451.81 -1.283 -4.31114 0
M  V30 4640 C 453.129 0.80412 -4.32691 0
M  V30 4641 H 450.248 -0.0082946 -0.736953 0
M  V30 4642 H 452.89 -0.706962 -1.76358 0
M  V30 4643 H 451.04 0.671609 -3.82651 0
M  V30 4644 H 452.712 -1.91151 -4.19832 0
M  V30 4645 H 450.955 -1.86049 -3.91878 0
M  V30 4646 H 451.626 -1.16287 -5.39612 0
M  V30 4647 H 454.102 0.306576 -4.14969 0
M  V30 4648 H 452.978 0.846011 -5.42341 0
M  V30 4649 H 453.239 1.85802 -4.01161 0
M  V30 4650 N 452.299 1.55045 -0.282633 0
M  V30 4651 C 453.715 1.59441 0.0712997 0
M  V30 4652 C 453.915 1.2998 1.53972 0
M  V30 4653 O 452.971 1.06431 2.28973 0
M  V30 4654 C 454.284 2.99097 -0.310104 0
M  V30 4655 C 455.832 3.1194 -0.257343 0
M  V30 4656 C 456.307 4.53875 -0.613297 0
M  V30 4657 N 457.798 4.5974 -0.565134 0
M  V30 4658 C 458.533 5.67603 -0.81326 0
M  V30 4659 N 458.029 6.83582 -1.1264 0
M  V30 4660 N 459.822 5.57187 -0.741553 0
M  V30 4661 H 451.973 1.72458 -1.23984 0
M  V30 4662 H 454.236 0.804549 -0.501403 0
M  V30 4663 H 453.942 3.25516 -1.33163 0
M  V30 4664 H 453.816 3.75616 0.345366 0
M  V30 4665 H 456.203 2.85281 0.754905 0
M  V30 4666 H 456.284 2.37618 -0.947178 0
M  V30 4667 H 455.928 4.81261 -1.62327 0
M  V30 4668 H 455.858 5.26508 0.09841 0
M  V30 4669 H 458.349 3.76427 -0.333294 0
M  V30 4670 H 458.662 7.6175 -1.30219 0
M  V30 4671 H 457.007 6.85179 -1.16425 0
M  V30 4672 H 460.198 4.65457 -0.496705 0
M  V30 4673 H 460.371 6.41171 -0.938306 0
M  V30 4674 N 453.777 0.010035 1.57597 0
M  V30 4675 C 455.025 -0.671371 1.90623 0
M  V30 4676 C 455.346 -1.73753 0.885151 0
M  V30 4677 O 454.616 -1.95752 -0.0760611 0
M  V30 4678 H 453.196 -0.250968 0.703579 0
M  V30 4679 H 455.858 0.0533325 1.94827 0
M  V30 4680 H 454.954 -1.13626 2.90681 0
M  V30 4681 N 455.255 -1.55392 -0.262866 0
M  V30 4682 C 456.671 -1.47459 -0.610582 0
M  V30 4683 C 456.871 -0.697031 -1.8906 0
M  V30 4684 O 455.927 -0.219952 -2.5154 0
M  V30 4685 C 457.24 -2.91751 -0.728131 0
M  V30 4686 C 458.788 -3.02027 -0.821517 0
M  V30 4687 C 459.263 -4.47594 -0.97076 0
M  V30 4688 N 460.754 -4.51465 -1.03603 0
M  V30 4689 C 461.489 -5.61326 -1.17049 0
M  V30 4690 N 460.985 -6.81032 -1.2715 0
M  V30 4691 N 462.778 -5.49089 -1.20239 0
M  V30 4692 H 454.929 -2.04395 0.577632 0
M  V30 4693 H 457.192 -0.927287 0.197086 0
M  V30 4694 H 456.898 -3.51413 0.142132 0
M  V30 4695 H 456.772 -3.4134 -1.6052 0
M  V30 4696 H 459.159 -2.42456 -1.68224 0
M  V30 4697 H 459.24 -2.55674 0.0803688 0
M  V30 4698 H 458.884 -5.07771 -0.114655 0
M  V30 4699 H 458.814 -4.91613 -1.88745 0
M  V30 4700 H 461.305 -3.6524 -0.96996 0
M  V30 4701 H 461.618 -7.60511 -1.37271 0
M  V30 4702 H 459.963 -6.83824 -1.24136 0
M  V30 4703 H 463.154 -4.54507 -1.11985 0
M  V30 4704 H 463.327 -6.34749 -1.30373 0
M  V30 4705 N 456.733 0.527833 -1.48498 0
M  V30 4706 C 457.643 1.65907 -1.65867 0
M  V30 4707 C 458.659 1.6537 -0.541192 0
M  V30 4708 O 459.835 1.84282 -0.812534 0
M  V30 4709 C 456.9 3.02364 -1.69637 0
M  V30 4710 C 455.961 3.1374 -2.93028 0
M  V30 4711 C 455.194 4.43688 -2.96609 0
M  V30 4712 O 455.417 5.30913 -2.08538 0
M  V30 4713 O 454.351 4.59475 -3.88802 0
M  V30 4714 H 458.177 1.5419 -2.61647 0
M  V30 4715 H 455.762 0.701163 -1.31924 0
M  V30 4716 H 457.644 3.83515 -1.74625 0
M  V30 4717 H 456.319 3.14401 -0.770312 0
M  V30 4718 H 455.226 2.31877 -2.93571 0
M  V30 4719 H 456.559 3.06621 -3.85026 0
M  V30 4720 N 458.211 1.37122 0.776871 0
M  V30 4721 C 459.46 1.31373 1.53049 0
M  V30 4722 C 459.773 -0.101016 1.95339 0
M  V30 4723 O 460.979 -0.280953 2.70042 0
M  V30 4724 C 459.435 2.30567 2.76346 0
M  V30 4725 C 459.043 3.77543 2.41175 0
M  V30 4726 C 460.787 2.33818 3.54301 0
M  V30 4727 C 458.694 4.68481 3.60943 0
M  V30 4728 H 457.624 0.488234 0.574581 0
M  V30 4729 H 460.275 1.62554 0.851372 0
M  V30 4730 H 458.657 1.92396 3.46121 0
M  V30 4731 H 459.831 4.24521 1.79216 0
M  V30 4732 H 458.146 3.77187 1.76405 0
M  V30 4733 H 460.743 2.98965 4.4331 0
M  V30 4734 H 461.086 1.3503 3.93793 0
M  V30 4735 H 461.619 2.7067 2.91518 0
M  V30 4736 H 458.358 5.68378 3.26537 0
M  V30 4737 H 457.878 4.2621 4.22025 0
M  V30 4738 H 459.557 4.85366 4.27819 0
M  V30 4739 N 459.689 -1.00246 1.21608 0
M  V30 4740 C 460.914 -1.78167 1.06167 0
M  V30 4741 C 461.339 -1.84138 -0.384035 0
M  V30 4742 O 460.697 -1.28683 -1.27712 0
M  V30 4743 C 460.745 -3.19786 1.66642 0
M  V30 4744 O 459.849 -4.02153 0.913613 0
M  V30 4745 H 459.19 -0.549 0.37349 0
M  V30 4746 H 461.72 -1.25994 1.61204 0
M  V30 4747 H 461.73 -3.70451 1.70969 0
M  V30 4748 H 460.405 -3.14754 2.7185 0
M  V30 4749 H 458.982 -3.60711 0.945635 0
M  V30 4750 N 461.167 -1.02423 -1.1978 0
M  V30 4751 C 462.583 -0.740459 -1.41384 0
M  V30 4752 C 462.783 0.676827 -1.89793 0
M  V30 4753 O 461.839 1.4435 -2.0717 0
M  V30 4754 C 463.152 -1.77264 -2.42895 0
M  V30 4755 C 464.7 -1.79165 -2.56649 0
M  V30 4756 C 465.175 -2.8133 -3.6141 0
M  V30 4757 N 466.666 -2.80118 -3.68901 0
M  V30 4758 C 467.401 -3.55824 -4.49641 0
M  V30 4759 N 466.897 -4.41231 -5.34123 0
M  V30 4760 N 468.69 -3.44387 -4.44246 0
M  V30 4761 H 460.841 -1.9391 -0.866764 0
M  V30 4762 H 463.104 -0.838074 -0.443098 0
M  V30 4763 H 462.81 -2.7884 -2.14339 0
M  V30 4764 H 462.684 -1.59108 -3.42001 0
M  V30 4765 H 465.071 -0.782702 -2.84531 0
M  V30 4766 H 465.152 -2.01396 -1.57713 0
M  V30 4767 H 464.796 -3.82394 -3.34271 0
M  V30 4768 H 464.726 -2.56359 -4.59986 0
M  V30 4769 H 467.217 -2.1817 -3.08562 0
M  V30 4770 H 467.53 -4.95747 -5.92836 0
M  V30 4771 H 465.875 -4.45306 -5.33599 0
M  V30 4772 H 469.066 -2.7708 -3.77285 0
M  V30 4773 H 469.239 -4.0364 -5.06931 0
M  V30 4774 N 462.645 1.35699 -0.801477 0
M  V30 4775 C 463.87 2.03687 -0.390678 0
M  V30 4776 C 464.295 1.60015 0.988778 0
M  V30 4777 O 463.653 0.774357 1.63931 0
M  V30 4778 C 463.701 3.57439 -0.476404 0
M  V30 4779 O 462.805 4.09208 0.512106 0
M  V30 4780 H 462.146 0.64344 -0.163956 0
M  V30 4781 H 464.676 1.73403 -1.08594 0
M  V30 4782 H 464.686 4.06544 -0.344357 0
M  V30 4783 H 463.361 3.88576 -1.48262 0
M  V30 4784 H 461.938 3.7134 0.340721 0
M  V30 4785 N 464.123 0.554532 1.47522 0
M  V30 4786 C 465.353 0.0342074 2.06572 0
M  V30 4787 C 465.761 -1.26375 1.40805 0
M  V30 4788 O 465.104 -1.7683 0.49769 0
M  V30 4789 C 465.166 -0.235096 3.5873 0
M  V30 4790 C 464.83 0.973024 4.46521 0
M  V30 4791 C 465.827 1.8779 4.848 0
M  V30 4792 C 463.512 1.18694 4.88075 0
M  V30 4793 C 465.506 2.98039 5.63428 0
M  V30 4794 C 463.193 2.29254 5.66468 0
M  V30 4795 C 464.191 3.18757 6.04055 0
M  V30 4796 O 463.879 4.27401 6.8087 0
M  V30 4797 H 463.611 0.041587 0.67472 0
M  V30 4798 H 466.165 0.766748 1.90552 0
M  V30 4799 H 464.395 -1.02191 3.72953 0
M  V30 4800 H 466.084 -0.700477 3.9981 0
M  V30 4801 H 466.85 1.72467 4.53299 0
M  V30 4802 H 462.729 0.49947 4.58286 0
M  V30 4803 H 466.273 3.67926 5.92685 0
M  V30 4804 H 462.17 2.4455 5.97382 0
M  V30 4805 H 462.938 4.25415 6.9926 0
M  V30 4806 N 465.601 -1.54893 0.290851 0
M  V30 4807 C 466.564 -2.21824 -0.576784 0
M  V30 4808 C 467.564 -1.20104 -1.06919 0
M  V30 4809 O 468.754 -1.44906 -0.966843 0
M  V30 4810 C 465.886 -2.89662 -1.79747 0
M  V30 4811 H 467.079 -2.99899 0.00784051 0
M  V30 4812 H 464.632 -1.56245 0.0415934 0
M  V30 4813 H 465.367 -2.15639 -2.42219 0
M  V30 4814 H 465.152 -3.64219 -1.45214 0
M  V30 4815 H 466.642 -3.4075 -2.4141 0
M  V30 4816 N 467.08 -0.0183926 -1.57589 0
M  V30 4817 C 468.012 0.995557 -2.06449 0
M  V30 4818 C 469.025 1.29556 -0.985849 0
M  V30 4819 O 470.214 1.2621 -1.26227 0
M  V30 4820 C 467.314 2.32572 -2.46502 0
M  V30 4821 C 466.487 2.21245 -3.77319 0
M  V30 4822 C 465.546 3.37104 -4.04039 0
M  V30 4823 O 464.572 3.14468 -4.74445 0
M  V30 4824 N 465.774 4.60553 -3.53372 0
M  V30 4825 H 468.539 0.578746 -2.94059 0
M  V30 4826 H 466.1 0.168603 -1.6102 0
M  V30 4827 H 468.092 3.08887 -2.61478 0
M  V30 4828 H 466.662 2.65931 -1.64315 0
M  V30 4829 H 465.882 1.29723 -3.72244 0
M  V30 4830 H 467.17 2.10868 -4.63047 0
M  V30 4831 H 466.568 4.81839 -2.96391 0
M  V30 4832 H 465.125 5.34072 -3.73644 0
M  V30 4833 N 468.558 1.5553 0.254621 0
M  V30 4834 C 469.835 1.6774 1.00611 0
M  V30 4835 C 470.215 0.555993 2.03647 0
M  V30 4836 O 469.563 -0.441583 2.24193 0
M  V30 4837 C 469.773 3.07725 1.6464 0
M  V30 4838 C 471.121 3.66074 2.15116 0
M  V30 4839 O 472.145 3.10476 1.74595 0
M  V30 4840 O 471.004 4.63526 2.89493 0
M  V30 4841 H 468.098 0.681958 0.467828 0
M  V30 4842 H 470.644 1.67863 0.24902 0
M  V30 4843 H 469.416 3.80792 0.900734 0
M  V30 4844 H 469.039 3.1158 2.46989 0
M  V30 4845 N 470.036 -0.519951 1.48776 0
M  V30 4846 C 470.986 -1.61995 1.60442 0
M  V30 4847 C 471.97 -1.54155 0.460991 0
M  V30 4848 O 473.162 -1.62006 0.712965 0
M  V30 4849 C 470.291 -3.00683 1.65664 0
M  V30 4850 C 469.377 -3.1359 2.8552 0
M  V30 4851 N 469.768 -2.96441 4.09825 0
M  V30 4852 C 468.066 -3.44662 2.83062 0
M  V30 4853 C 468.767 -3.1303 4.90293 0
M  V30 4854 N 467.743 -3.41058 4.23297 0
M  V30 4855 H 471.545 -1.47362 2.54287 0
M  V30 4856 H 469.059 -0.725649 1.45286 0
M  V30 4857 H 471.056 -3.79712 1.72117 0
M  V30 4858 H 469.716 -3.16401 0.729425 0
M  V30 4859 H 470.727 -2.72999 4.40104 0
M  V30 4860 H 467.404 -3.66675 1.9964 0
M  V30 4861 H 468.794 -3.04424 5.98979 0
M  V30 4862 N 471.514 -1.37532 -0.769588 0
M  V30 4863 C 472.477 -1.33292 -1.86456 0
M  V30 4864 C 473.477 -0.236537 -1.59051 0
M  V30 4865 O 474.667 -0.492511 -1.67093 0
M  V30 4866 C 471.799 -1.07118 -3.23633 0
M  V30 4867 H 472.992 -2.30692 -1.91628 0
M  V30 4868 H 470.545 -1.22593 -0.969572 0
M  V30 4869 H 471.28 -0.102578 -3.24138 0
M  V30 4870 H 471.065 -1.86479 -3.44917 0
M  V30 4871 H 472.555 -1.06806 -4.03711 0
M  V30 4872 N 472.992 0.995999 -1.22138 0
M  V30 4873 C 474.238 1.73767 -1.04561 0
M  V30 4874 C 474.571 1.89633 0.418698 0
M  V30 4875 O 473.846 1.43723 1.3105 0
M  V30 4876 C 474.129 3.14505 -1.75382 0
M  V30 4877 C 473.982 3.06306 -3.29388 0
M  V30 4878 C 475.301 4.13615 -1.50369 0
M  V30 4879 H 472.42 0.630728 -0.38125 0
M  V30 4880 H 475.062 1.16057 -1.50435 0
M  V30 4881 H 473.212 3.63775 -1.36383 0
M  V30 4882 H 474.884 2.64681 -3.77812 0
M  V30 4883 H 473.127 2.43186 -3.59226 0
M  V30 4884 H 473.798 4.05884 -3.74116 0
M  V30 4885 H 476.274 3.73089 -1.84239 0
M  V30 4886 H 475.15 5.10212 -2.02421 0
M  V30 4887 H 475.411 4.39949 -0.435611 0
M  V30 4888 N 474.47 1.03057 1.19235 0
M  V30 4889 C 475.718 0.726581 1.88587 0
M  V30 4890 C 476.039 -0.747227 1.80115 0
M  V30 4891 O 475.309 -1.53849 1.21274 0
M  V30 4892 H 473.889 0.265768 0.698124 0
M  V30 4893 H 476.551 1.30516 1.44746 0
M  V30 4894 H 475.647 1.0224 2.94879 0
M  V30 4895 N 475.948 -1.35272 0.808662 0
M  V30 4896 C 476.898 -2.27181 0.193124 0
M  V30 4897 C 477.882 -1.47871 -0.634265 0
M  V30 4898 O 479.074 -1.70048 -0.491182 0
M  V30 4899 C 476.203 -3.36979 -0.655751 0
M  V30 4900 C 475.289 -4.23712 0.181481 0
M  V30 4901 N 475.68 -4.90225 1.24551 0
M  V30 4902 C 473.978 -4.45985 -0.0365493 0
M  V30 4903 C 474.679 -5.54537 1.75682 0
M  V30 4904 N 473.655 -5.33107 1.06294 0
M  V30 4905 H 477.457 -2.76101 1.00724 0
M  V30 4906 H 474.971 -1.48823 0.650029 0
M  V30 4907 H 476.968 -4.01774 -1.11279 0
M  V30 4908 H 475.628 -2.89611 -1.46819 0
M  V30 4909 H 476.639 -4.91641 1.62818 0
M  V30 4910 H 473.316 -4.09409 -0.817964 0
M  V30 4911 H 474.706 -6.17597 2.64621 0
M  V30 4912 N 477.426 -0.562348 -1.47226 0
M  V30 4913 C 478.674 -0.0401371 -2.0206 0
M  V30 4914 C 478.995 1.3165 -1.43852 0
M  V30 4915 O 478.265 1.85976 -0.615599 0
M  V30 4916 H 476.845 -0.0118479 -0.746906 0
M  V30 4917 H 479.507 -0.73352 -1.8057 0
M  V30 4918 H 478.603 0.0441254 -3.12069 0
M  V30 4919 N 478.904 1.54736 -0.299062 0
M  V30 4920 C 480.153 1.99279 0.311549 0
M  V30 4921 C 480.466 1.19107 1.55154 0
M  V30 4922 O 481.672 1.53908 2.23662 0
M  V30 4923 C 480.128 3.54768 0.605632 0
M  V30 4924 C 479.736 4.43746 -0.615914 0
M  V30 4925 C 481.48 4.07841 1.17754 0
M  V30 4926 C 479.387 5.90663 -0.29509 0
M  V30 4927 H 478.317 0.744359 0.120187 0
M  V30 4928 H 480.968 1.78919 -0.407464 0
M  V30 4929 H 479.35 3.71021 1.38419 0
M  V30 4930 H 480.524 4.39267 -1.39218 0
M  V30 4931 H 478.839 4.01434 -1.10633 0
M  V30 4932 H 481.436 5.15174 1.43179 0
M  V30 4933 H 481.779 3.58324 2.11918 0
M  V30 4934 H 482.312 3.95123 0.460739 0
M  V30 4935 H 479.051 6.44325 -1.20524 0
M  V30 4936 H 478.571 5.98155 0.44394 0
M  V30 4937 H 480.25 6.46916 0.104048 0
M  V30 4938 N 480.382 0.0267497 1.57577 0
M  V30 4939 C 481.628 -0.653371 1.91987 0
M  V30 4940 C 481.961 -1.71915 0.903263 0
M  V30 4941 O 481.236 -1.94358 -0.0743387 0
M  V30 4942 C 481.519 -1.272 3.36886 0
M  V30 4943 C 481.372 -0.215938 4.49281 0
M  V30 4944 C 482.691 -2.19069 3.81703 0
M  V30 4945 H 479.81 -0.236047 0.698177 0
M  V30 4946 H 482.452 0.0835236 1.89816 0
M  V30 4947 H 480.602 -1.90005 3.38866 0
M  V30 4948 H 482.274 0.41449 4.59434 0
M  V30 4949 H 480.517 0.458855 4.31366 0
M  V30 4950 H 481.188 -0.688347 5.47691 0
M  V30 4951 H 483.664 -1.66253 3.81444 0
M  V30 4952 H 482.54 -2.59307 4.83788 0
M  V30 4953 H 482.801 -3.08087 3.17072 0
M  V30 4954 N 481.861 -1.55662 -0.24637 0
M  V30 4955 C 482.824 -1.89558 -1.28842 0
M  V30 4956 C 483.824 -0.772082 -1.41052 0
M  V30 4957 O 485.014 -1.04007 -1.39743 0
M  V30 4958 C 482.146 -2.12449 -2.66605 0
M  V30 4959 H 483.339 -2.82735 -1.00004 0
M  V30 4960 H 480.892 -1.48562 -0.485684 0
M  V30 4961 H 481.627 -1.21742 -3.00582 0
M  V30 4962 H 481.412 -2.94273 -2.59125 0
M  V30 4963 H 482.902 -2.39854 -3.41847 0
M  V30 4964 N 483.339 0.512053 -1.4905 0
M  V30 4965 C 484.564 1.2959 -1.6193 0
M  V30 4966 C 484.989 1.85906 -0.286454 0
M  V30 4967 O 484.347 1.65312 0.744426 0
M  V30 4968 C 484.395 2.40987 -2.68249 0
M  V30 4969 O 483.499 3.44531 -2.26654 0
M  V30 4970 H 482.84 0.383053 -0.542371 0
M  V30 4971 H 485.37 0.614231 -1.95162 0
M  V30 4972 H 485.38 2.86913 -2.90078 0
M  V30 4973 H 484.055 1.99361 -3.65004 0
M  V30 4974 H 482.632 3.046 -2.15112 0
M  V30 4975 N 484.817 1.37938 0.762283 0
M  V30 4976 C 486.066 1.32989 1.51647 0
M  V30 4977 C 486.379 -0.0802922 1.95435 0
M  V30 4978 O 487.585 -0.252295 2.70325 0
M  V30 4979 C 486.041 2.33485 2.73885 0
M  V30 4980 C 485.649 3.80079 2.37157 0
M  V30 4981 C 487.393 2.37563 3.51801 0
M  V30 4982 C 485.3 4.72283 3.55954 0
M  V30 4983 H 484.23 0.494301 0.56937 0
M  V30 4984 H 486.881 1.63448 0.834083 0
M  V30 4985 H 485.263 1.96056 3.44061 0
M  V30 4986 H 486.437 4.26398 1.74704 0
M  V30 4987 H 484.752 3.79037 1.72395 0
M  V30 4988 H 487.349 3.0365 4.40114 0
M  V30 4989 H 487.692 1.39199 3.92338 0
M  V30 4990 H 488.225 2.73747 2.8863 0
M  V30 4991 H 484.964 5.7181 3.2049 0
M  V30 4992 H 484.484 4.30663 4.1748 0
M  V30 4993 H 486.163 4.89876 4.22647 0
M  V30 4994 N 486.295 -0.989507 1.22664 0
M  V30 4995 C 487.541 -1.7321 1.05481 0
M  V30 4996 C 487.874 -1.89852 -0.408635 0
M  V30 4997 O 487.149 -1.44416 -1.30285 0
M  V30 4998 C 487.432 -3.1357 1.77047 0
M  V30 4999 C 487.285 -3.04555 3.31008 0
M  V30 5000 C 488.604 -4.12812 1.5256 0
M  V30 5001 H 485.723 -0.628697 0.384589 0
M  V30 5002 H 488.365 -1.15258 1.51049 0
M  V30 5003 H 486.515 -3.63046 1.3831 0
M  V30 5004 H 488.187 -2.62674 3.7921 0
M  V30 5005 H 486.43 -2.41278 3.6051 0
M  V30 5006 H 487.101 -4.03894 3.76263 0
M  V30 5007 H 489.577 -3.72106 1.86215 0
M  V30 5008 H 488.453 -5.09132 2.05124 0
M  V30 5009 H 488.714 -4.39711 0.458936 0
M  V30 5010 N 487.773 -1.03688 -1.18687 0
M  V30 5011 C 489.189 -0.755413 -1.4059 0
M  V30 5012 C 489.389 0.656659 -1.905 0
M  V30 5013 O 488.445 1.42144 -2.08689 0
M  V30 5014 C 489.758 -1.7983 -2.41001 0
M  V30 5015 C 491.306 -1.81877 -2.54735 0
M  V30 5016 C 491.781 -2.85148 -3.58406 0
M  V30 5017 N 493.272 -2.84015 -3.6591 0
M  V30 5018 C 494.007 -3.60573 -4.45841 0
M  V30 5019 N 493.503 -4.46871 -5.29413 0
M  V30 5020 N 495.296 -3.49079 -4.40568 0
M  V30 5021 H 487.447 -1.94818 -0.846148 0
M  V30 5022 H 489.71 -0.842727 -0.434184 0
M  V30 5023 H 489.416 -2.81097 -2.1137 0
M  V30 5024 H 489.29 -1.62727 -3.40294 0
M  V30 5025 H 491.677 -0.812836 -2.83685 0
M  V30 5026 H 491.758 -2.03057 -1.55568 0
M  V30 5027 H 491.402 -3.85918 -3.30197 0
M  V30 5028 H 491.332 -2.61224 -4.57241 0
M  V30 5029 H 493.823 -2.21431 -3.0623 0
M  V30 5030 H 494.136 -5.02007 -5.87545 0
M  V30 5031 H 492.481 -4.5094 -5.28846 0
M  V30 5032 H 495.672 -2.81066 -3.74325 0
M  V30 5033 H 495.845 -4.08994 -5.02621 0
M  V30 5034 N 489.251 1.34841 -0.815825 0
M  V30 5035 C 490.181 2.32187 -0.247298 0
M  V30 5036 C 491.162 1.5791 0.632344 0
M  V30 5037 O 492.347 1.8593 0.560698 0
M  V30 5038 C 489.477 3.42122 0.597466 0
M  V30 5039 C 488.431 4.27602 -0.184446 0
M  V30 5040 C 487.757 5.28942 0.782609 0
M  V30 5041 C 489.057 5.03502 -1.38865 0
M  V30 5042 H 490.751 2.79985 -1.06061 0
M  V30 5043 H 488.297 1.34611 -0.511461 0
M  V30 5044 H 490.25 4.09232 1.00533 0
M  V30 5045 H 488.974 2.92956 1.44376 0
M  V30 5046 H 487.633 3.62085 -0.573592 0
M  V30 5047 H 487.281 4.7604 1.62466 0
M  V30 5048 H 486.981 5.87008 0.263695 0
M  V30 5049 H 488.505 5.98922 1.18848 0
M  V30 5050 H 489.919 5.63506 -1.05518 0
M  V30 5051 H 488.316 5.71108 -1.8427 0
M  V30 5052 H 489.386 4.33608 -2.17054 0
M  V30 5053 N 490.729 0.570148 1.46925 0
M  V30 5054 C 491.692 -0.159933 2.28641 0
M  V30 5055 C 492.692 -0.830638 1.37685 0
M  V30 5056 O 493.882 -0.684516 1.60187 0
M  V30 5057 C 491.014 -1.2354 3.17727 0
M  V30 5058 H 492.207 0.558035 2.94662 0
M  V30 5059 H 489.76 0.327603 1.52828 0
M  V30 5060 H 490.495 -1.98535 2.56426 0
M  V30 5061 H 490.28 -0.759125 3.84681 0
M  V30 5062 H 491.77 -1.74782 3.79264 0
M  V30 5063 N 492.207 -1.54576 0.307264 0
M  V30 5064 C 493.139 -2.21212 -0.599807 0
M  V30 5065 C 494.152 -1.20685 -1.09266 0
M  V30 5066 O 495.341 -1.47244 -1.00903 0
M  V30 5067 C 492.441 -2.84994 -1.83389 0
M  V30 5068 C 491.614 -4.11511 -1.48248 0
M  V30 5069 C 490.673 -4.59038 -2.57237 0
M  V30 5070 O 489.699 -5.24095 -2.22065 0
M  V30 5071 N 490.901 -4.31884 -3.87887 0
M  V30 5072 H 493.666 -2.99686 -0.0293075 0
M  V30 5073 H 491.227 -1.61379 0.129738 0
M  V30 5074 H 493.219 -3.1372 -2.5566 0
M  V30 5075 H 491.789 -2.10324 -2.31263 0
M  V30 5076 H 491.009 -3.89728 -0.592122 0
M  V30 5077 H 492.297 -4.93879 -1.22316 0
M  V30 5078 H 491.695 -3.79778 -4.19268 0
M  V30 5079 H 490.252 -4.65304 -4.56438 0
M  V30 5080 N 493.685 -0.035106 -1.57561 0
M  V30 5081 C 494.932 0.642229 -1.92046 0
M  V30 5082 C 495.26 1.7179 -0.91206 0
M  V30 5083 O 494.515 1.95544 0.0781153 0
M  V30 5084 C 494.814 1.29149 -3.3325 0
M  V30 5085 C 494.48 0.345604 -4.49574 0
M  V30 5086 C 493.142 0.0852775 -4.81124 0
M  V30 5087 C 495.494 -0.303569 -5.20315 0
M  V30 5088 C 492.822 -0.831927 -5.80772 0
M  V30 5089 C 495.174 -1.20886 -6.20942 0
M  V30 5090 C 493.838 -1.47802 -6.50931 0
M  V30 5091 H 493.108 0.235008 -0.702746 0
M  V30 5092 H 495.755 -0.0981529 -1.91248 0
M  V30 5093 H 494.06 2.10676 -3.30337 0
M  V30 5094 H 495.757 1.82223 -3.57205 0
M  V30 5095 H 492.347 0.558683 -4.24943 0
M  V30 5096 H 496.531 -0.115515 -4.96166 0
M  V30 5097 H 491.787 -1.0481 -6.02349 0
M  V30 5098 H 495.961 -1.71804 -6.74875 0
M  V30 5099 H 493.588 -2.19039 -7.2796 0
M  V30 5100 N 495.163 1.55791 0.238111 0
M  V30 5101 C 496.126 1.90239 1.27835 0
M  V30 5102 C 497.126 0.779552 1.4064 0
M  V30 5103 O 498.316 1.04747 1.3919 0
M  V30 5104 C 495.448 2.13859 2.65475 0
M  V30 5105 H 496.641 2.83262 0.985034 0
M  V30 5106 H 494.194 1.48818 0.477799 0
M  V30 5107 H 494.929 1.23334 2.99932 0
M  V30 5108 H 494.714 2.95643 2.57561 0
M  V30 5109 H 496.204 2.41664 3.40571 0
M  V30 5110 N 496.642 -0.504142 1.49319 0
M  V30 5111 C 498.053 -1.08572 1.51885 0
M  V30 5112 C 498.404 -1.93842 0.303255 0
M  V30 5113 O 497.529 -2.0828 -0.58724 0
M  V30 5114 C 498.124 -1.97574 2.75227 0
M  V30 5115 C 496.683 -2.509 2.80581 0
M  V30 5116 C 495.83 -1.28447 2.45757 0
M  V30 5117 H 498.781 -0.288194 1.56061 0
M  V30 5118 H 498.802 -2.82219 2.55211 0
M  V30 5119 H 498.314 -1.35486 3.63683 0
M  V30 5120 H 496.415 -3.16636 1.96398 0
M  V30 5121 H 496.528 -2.88268 3.82673 0
M  V30 5122 H 494.892 -1.60868 1.97468 0
M  V30 5123 H 495.675 -0.68072 3.36483 0
M  V30 5124 N 498.12 -1.38341 -0.754957 0
M  V30 5125 C 499.083 -1.35262 -1.85032 0
M  V30 5126 C 500.083 -0.253393 -1.58791 0
M  V30 5127 O 501.273 -0.510205 -1.66561 0
M  V30 5128 C 498.405 -1.10544 -3.22479 0
M  V30 5129 H 499.598 -2.32712 -1.8917 0
M  V30 5130 H 497.151 -1.23614 -0.956515 0
M  V30 5131 H 497.886 -0.136952 -3.24011 0
M  V30 5132 H 497.671 -1.90127 -3.4292 0
M  V30 5133 H 499.161 -1.11082 -4.02555 0
M  V30 5134 N 499.598 0.982988 -1.23187 0
M  V30 5135 C 501.009 1.53847 -1.05773 0
M  V30 5136 C 501.36 1.92568 0.375744 0
M  V30 5137 O 500.485 1.75783 1.26211 0
M  V30 5138 C 501.08 2.79567 -1.91384 0
M  V30 5139 C 499.639 3.31524 -1.78238 0
M  V30 5140 C 498.786 2.04534 -1.87246 0
M  V30 5141 H 501.737 0.802962 -1.36888 0
M  V30 5142 H 501.758 3.52317 -1.43711 0
M  V30 5143 H 501.27 2.51353 -2.95708 0
M  V30 5144 H 499.371 3.64623 -0.766875 0
M  V30 5145 H 499.484 4.01457 -2.61475 0
M  V30 5146 H 497.848 2.1855 -1.30797 0
M  V30 5147 H 498.631 1.78706 -2.9312 0
M  V30 5148 N 501.076 1.04316 1.18135 0
M  V30 5149 C 502.026 0.606731 2.19779 0
M  V30 5150 C 503.01 -0.352144 1.56999 0
M  V30 5151 O 504.202 -0.170795 1.76174 0
M  V30 5152 C 501.331 -0.0262443 3.4329 0
M  V30 5153 C 500.417 0.955928 4.13186 0
M  V30 5154 N 500.808 2.12395 4.59045 0
M  V30 5155 C 499.106 0.782473 4.39082 0
M  V30 5156 C 499.807 2.74458 5.12882 0
M  V30 5157 N 498.783 2.02316 5.04548 0
M  V30 5158 H 502.585 1.49679 2.5293 0
M  V30 5159 H 500.099 0.912088 1.34368 0
M  V30 5160 H 502.096 -0.356617 4.15372 0
M  V30 5161 H 500.756 -0.911811 3.11635 0
M  V30 5162 H 501.767 2.50272 4.53414 0
M  V30 5163 H 498.444 -0.0527906 4.17467 0
M  V30 5164 H 499.834 3.73459 5.5855 0
M  V30 5165 N 502.554 -1.34406 0.822964 0
M  V30 5166 C 503.517 -2.2783 0.250271 0
M  V30 5167 C 504.517 -1.50288 -0.571854 0
M  V30 5168 O 505.707 -1.69825 -0.387952 0
M  V30 5169 C 502.839 -3.34663 -0.649137 0
M  V30 5170 H 504.032 -2.79992 1.07444 0
M  V30 5171 H 501.585 -1.44539 0.594829 0
M  V30 5172 H 502.32 -2.87714 -1.49637 0
M  V30 5173 H 502.105 -3.92052 -0.0611199 0
M  V30 5174 H 503.595 -4.04349 -1.04363 0
M  V30 5175 N 504.032 -0.577932 -1.46621 0
M  V30 5176 C 504.995 0.147805 -2.28723 0
M  V30 5177 C 505.995 0.823325 -1.38123 0
M  V30 5178 O 507.185 0.676011 -1.60548 0
M  V30 5179 C 504.317 1.21853 -3.18378 0
M  V30 5180 H 505.51 -0.573654 -2.94362 0
M  V30 5181 H 503.063 -0.335703 -1.52652 0
M  V30 5182 H 503.798 1.97173 -2.57475 0
M  V30 5183 H 503.583 0.738714 -3.85078 0
M  V30 5184 H 505.073 1.72768 -3.80186 0
M  V30 5185 N 505.51 1.54411 -0.315457 0
M  V30 5186 C 506.473 2.22713 0.54142 0
M  V30 5187 C 507.473 1.2179 1.04995 0
M  V30 5188 O 508.663 1.46426 0.943667 0
M  V30 5189 C 505.795 2.92485 1.75116 0
M  V30 5190 H 506.988 2.99849 -0.0555508 0
M  V30 5191 H 504.541 1.56159 -0.0664453 0
M  V30 5192 H 505.276 2.19466 2.38758 0
M  V30 5193 H 505.061 3.66483 1.39401 0
M  V30 5194 H 506.551 3.44548 2.35959 0
M  V30 5195 N 506.988 0.0434614 1.5754 0
M  V30 5196 C 508.235 -0.632035 1.92384 0
M  V30 5197 C 508.563 -1.71304 0.921157 0
M  V30 5198 O 507.818 -1.95583 -0.067744 0
M  V30 5199 C 508.117 -1.2738 3.3393 0
M  V30 5200 C 507.783 -0.321757 4.49751 0
M  V30 5201 C 506.445 -0.0597611 4.81163 0
M  V30 5202 C 508.797 0.331158 5.20147 0
M  V30 5203 C 506.125 0.862715 5.80322 0
M  V30 5204 C 508.477 1.24178 6.20292 0
M  V30 5205 C 507.141 1.51252 6.50138 0
M  V30 5206 H 506.411 -0.231278 0.703983 0
M  V30 5207 H 509.058 0.108294 1.91194 0
M  V30 5208 H 507.363 -2.08921 3.3145 0
M  V30 5209 H 509.06 -1.80326 3.58167 0
M  V30 5210 H 505.65 -0.53614 4.25233 0
M  V30 5211 H 509.834 0.141826 4.96097 0
M  V30 5212 H 505.09 1.08003 6.01785 0
M  V30 5213 H 509.264 1.75381 6.73954 0
M  V30 5214 H 506.891 2.22897 7.26788 0
M  V30 5215 N 508.466 -1.55915 -0.229846 0
M  V30 5216 C 509.413 -1.91734 -1.28478 0
M  V30 5217 C 510.383 -0.773539 -1.46988 0
M  V30 5218 O 511.568 -1.02871 -1.60693 0
M  V30 5219 C 508.708 -2.23224 -2.63182 0
M  V30 5220 C 507.821 -3.50497 -2.52539 0
M  V30 5221 C 506.956 -3.71474 -3.79711 0
M  V30 5222 C 505.995 -4.92289 -3.63755 0
M  V30 5223 N 505.132 -5.09698 -4.82858 0
M  V30 5224 H 509.972 -2.81692 -0.972308 0
M  V30 5225 H 507.509 -1.39429 -0.468815 0
M  V30 5226 H 509.467 -2.3949 -3.41614 0
M  V30 5227 H 508.097 -1.36451 -2.92542 0
M  V30 5228 H 507.149 -3.4247 -1.65585 0
M  V30 5229 H 508.461 -4.39079 -2.36666 0
M  V30 5230 H 507.615 -3.87791 -4.66586 0
M  V30 5231 H 506.354 -2.81157 -3.985 0
M  V30 5232 H 505.359 -4.7593 -2.75264 0
M  V30 5233 H 506.584 -5.84083 -3.46445 0
M  V30 5234 H 504.53 -4.22322 -5.01976 0
M  V30 5235 H 504.447 -5.92399 -4.69681 0
M  V30 5236 H 505.715 -5.30443 -5.71183 0
M  V30 5237 N 509.944 0.496216 -1.49584 0
M  V30 5238 C 510.876 1.61404 -1.62731 0
M  V30 5239 C 511.889 1.54613 -0.50978 0
M  V30 5240 O 513.078 1.60458 -0.782017 0
M  V30 5241 C 510.178 3.00212 -1.57245 0
M  V30 5242 C 509.351 3.32138 -2.84611 0
M  V30 5243 C 508.41 4.5038 -2.72112 0
M  V30 5244 O 507.436 4.51926 -3.46051 0
M  V30 5245 N 508.638 5.50575 -1.83977 0
M  V30 5246 H 511.403 1.50552 -2.59141 0
M  V30 5247 H 508.964 0.684182 -1.46733 0
M  V30 5248 H 510.956 3.77241 -1.4653 0
M  V30 5249 H 509.526 3.04964 -0.686729 0
M  V30 5250 H 508.746 2.4396 -3.09641 0
M  V30 5251 H 510.034 3.50268 -3.69039 0
M  V30 5252 H 509.432 5.52128 -1.23171 0
M  V30 5253 H 507.989 6.26687 -1.79182 0
M  V30 5254 N 511.423 1.38739 0.74761 0
M  V30 5255 C 512.672 1.3459 1.50228 0
M  V30 5256 C 512.985 -0.0595592 1.95509 0
M  V30 5257 O 514.191 -0.22361 2.70578 0
M  V30 5258 C 512.647 2.36377 2.71393 0
M  V30 5259 C 512.255 3.82573 2.33113 0
M  V30 5260 C 513.999 2.41281 3.49262 0
M  V30 5261 C 511.906 4.76032 3.50924 0
M  V30 5262 H 510.836 0.500312 0.564096 0
M  V30 5263 H 513.487 1.64324 0.8167 0
M  V30 5264 H 511.869 1.99694 3.41962 0
M  V30 5265 H 513.043 4.28227 1.70171 0
M  V30 5266 H 511.358 3.80844 1.68365 0
M  V30 5267 H 513.955 3.08301 4.36869 0
M  V30 5268 H 514.298 1.43353 3.9084 0
M  V30 5269 H 514.831 2.76793 2.85711 0
M  V30 5270 H 511.57 5.75177 3.14408 0
M  V30 5271 H 511.09 4.35066 4.12889 0
M  V30 5272 H 512.769 4.94331 4.17427 0
M  V30 5273 N 512.901 -0.976442 1.23707 0
M  V30 5274 C 513.864 -2.0511 1.02287 0
M  V30 5275 C 514.864 -1.60791 -0.0167195 0
M  V30 5276 O 516.054 -1.72761 0.223408 0
M  V30 5277 C 513.186 -3.36458 0.548507 0
M  V30 5278 H 514.379 -2.25545 1.9766 0
M  V30 5279 H 511.932 -1.15042 1.05806 0
M  V30 5280 H 512.667 -3.21713 -0.408818 0
M  V30 5281 H 512.452 -3.69967 1.29874 0
M  V30 5282 H 513.942 -4.15489 0.419406 0
M  V30 5283 N 514.379 -1.04941 -1.1758 0
M  V30 5284 C 515.326 -0.648155 -2.21512 0
M  V30 5285 C 516.296 0.348431 -1.62404 0
M  V30 5286 O 517.481 0.240419 -1.89279 0
M  V30 5287 C 514.621 -0.0264291 -3.4509 0
M  V30 5288 C 513.734 -1.07154 -4.185 0
M  V30 5289 C 512.869 -0.417403 -5.29558 0
M  V30 5290 C 511.908 -1.447 -5.94751 0
M  V30 5291 N 511.045 -0.817203 -6.97328 0
M  V30 5292 H 515.885 -1.53891 -2.55189 0
M  V30 5293 H 513.422 -0.769699 -1.25356 0
M  V30 5294 H 515.38 0.351456 -4.15717 0
M  V30 5295 H 514.01 0.827802 -3.12005 0
M  V30 5296 H 513.062 -1.56728 -3.46613 0
M  V30 5297 H 514.374 -1.8532 -4.63096 0
M  V30 5298 H 513.528 0.0142061 -6.06698 0
M  V30 5299 H 512.267 0.396265 -4.86087 0
M  V30 5300 H 511.272 -1.88865 -5.16343 0
M  V30 5301 H 512.497 -2.26252 -6.40302 0
M  V30 5302 H 510.443 -0.0239995 -6.55996 0
M  V30 5303 H 510.36 -1.53644 -7.40223 0
M  V30 5304 H 511.628 -0.410283 -7.7842 0
M  V30 5305 N 515.857 1.33968 -0.830081 0
M  V30 5306 C 517.273 1.51003 -0.516742 0
M  V30 5307 C 517.473 1.77286 0.957694 0
M  V30 5308 O 516.529 1.82797 1.74188 0
M  V30 5309 C 517.842 2.67036 -1.38247 0
M  V30 5310 C 519.39 2.80919 -1.38034 0
M  V30 5311 C 519.865 4.00004 -2.23071 0
M  V30 5312 N 521.356 4.07224 -2.20733 0
M  V30 5313 C 522.091 4.98541 -2.83275 0
M  V30 5314 N 521.587 5.95033 -3.54835 0
M  V30 5315 N 523.38 4.91469 -2.72791 0
M  V30 5316 H 515.531 1.15168 -1.78466 0
M  V30 5317 H 517.794 0.565443 -0.760906 0
M  V30 5318 H 517.5 2.54266 -2.42985 0
M  V30 5319 H 517.374 3.62226 -1.05225 0
M  V30 5320 H 519.761 2.93127 -0.340713 0
M  V30 5321 H 519.842 1.86517 -1.75057 0
M  V30 5322 H 519.486 3.88557 -3.27087 0
M  V30 5323 H 519.416 4.93634 -1.83394 0
M  V30 5324 H 521.907 3.38162 -1.68687 0
M  V30 5325 H 522.22 6.61357 -3.99784 0
M  V30 5326 H 520.565 5.95135 -3.58942 0
M  V30 5327 H 523.756 4.15048 -2.16456 0
M  V30 5328 H 523.929 5.62439 -3.21818 0
M  V30 5329 N 517.335 0.585699 1.46312 0
M  V30 5330 C 518.581 0.0725284 2.0267 0
M  V30 5331 C 518.914 -1.28523 1.45586 0
M  V30 5332 O 518.189 -1.84283 0.622101 0
M  V30 5333 C 518.472 0.0099788 3.60099 0
M  V30 5334 C 518.325 1.39685 4.27561 0
M  V30 5335 C 519.644 -0.689117 4.34671 0
M  V30 5336 H 516.763 0.0278307 0.736474 0
M  V30 5337 H 519.405 0.753472 1.74421 0
M  V30 5338 H 517.555 -0.56992 3.84297 0
M  V30 5339 H 519.227 2.02215 4.14617 0
M  V30 5340 H 517.47 1.96374 3.86807 0
M  V30 5341 H 518.141 1.30553 5.36339 0
M  V30 5342 H 520.617 -0.196446 4.15636 0
M  V30 5343 H 519.493 -0.701921 5.44393 0
M  V30 5344 H 519.754 -1.75101 4.05946 0
M  V30 5345 N 518.813 -1.54241 0.323641 0
M  V30 5346 C 520.062 -1.9975 -0.279806 0
M  V30 5347 C 520.375 -1.2156 -1.5324 0
M  V30 5348 O 521.581 -1.57447 -2.21185 0
M  V30 5349 C 520.037 -3.55686 -0.549115 0
M  V30 5350 C 519.645 -4.4271 0.686432 0
M  V30 5351 C 521.389 -4.09663 -1.11251 0
M  V30 5352 C 519.296 -5.90119 0.389022 0
M  V30 5353 H 518.226 -0.746177 -0.10833 0
M  V30 5354 H 520.877 -1.78248 0.435877 0
M  V30 5355 H 519.259 -3.73176 -1.32499 0
M  V30 5356 H 520.433 -4.36996 1.46188 0
M  V30 5357 H 518.748 -3.99623 1.17005 0
M  V30 5358 H 521.345 -5.17386 -1.34965 0
M  V30 5359 H 521.688 -3.61651 -2.06191 0
M  V30 5360 H 522.221 -3.95806 -0.39782 0
M  V30 5361 H 518.96 -6.42326 1.30759 0
M  V30 5362 H 518.48 -5.98785 -0.348722 0
M  V30 5363 H 520.159 -6.47 -0.0011164 0
M  V30 5364 N 520.291 -0.0518155 -1.57515 0
M  V30 5365 C 521.223 0.951542 -2.08515 0
M  V30 5366 C 522.236 1.27436 -1.01311 0
M  V30 5367 O 523.425 1.23504 -1.28876 0
M  V30 5368 C 520.525 2.27291 -2.5138 0
M  V30 5369 C 519.698 2.13191 -3.81927 0
M  V30 5370 C 518.757 3.28458 -4.11098 0
M  V30 5371 O 517.783 3.04334 -4.81009 0
M  V30 5372 N 518.985 4.52954 -3.63061 0
M  V30 5373 H 521.75 0.516242 -2.9522 0
M  V30 5374 H 519.311 0.13441 -1.61341 0
M  V30 5375 H 521.303 3.03272 -2.67971 0
M  V30 5376 H 519.873 2.62386 -1.69919 0
M  V30 5377 H 519.093 1.21798 -3.74912 0
M  V30 5378 H 520.381 2.00999 -4.67415 0
M  V30 5379 H 519.779 4.75444 -3.06545 0
M  V30 5380 H 518.336 5.26026 -3.84889 0
M  V30 5381 N 521.769 1.56035 0.221574 0
M  V30 5382 C 522.679 1.95581 1.29558 0
M  V30 5383 C 523.695 0.859639 1.51282 0
M  V30 5384 O 524.871 1.16321 1.64413 0
M  V30 5385 C 521.936 2.26447 2.62531 0
M  V30 5386 C 520.997 3.49632 2.4911 0
M  V30 5387 C 520.23 3.79017 3.75742 0
M  V30 5388 O 520.453 3.10077 4.78757 0
M  V30 5389 O 519.387 4.72507 3.72855 0
M  V30 5390 H 523.213 2.8711 0.990035 0
M  V30 5391 H 520.798 1.43244 0.424434 0
M  V30 5392 H 522.68 2.47494 3.41064 0
M  V30 5393 H 521.355 1.38092 2.92766 0
M  V30 5394 H 520.262 3.33864 1.68777 0
M  V30 5395 H 521.595 4.3837 2.23814 0
M  V30 5396 N 523.247 -0.488276 1.49845 0
M  V30 5397 C 524.524 -1.24959 1.50481 0
M  V30 5398 C 524.904 -2.09735 0.239698 0
M  V30 5399 O 524.252 -2.14865 -0.777524 0
M  V30 5400 C 524.462 -2.0954 2.79095 0
M  V30 5401 C 525.81 -2.68305 3.29086 0
M  V30 5402 O 526.834 -2.19797 2.80299 0
M  V30 5403 O 525.693 -3.56643 4.14087 0
M  V30 5404 H 522.787 -0.566133 0.602845 0
M  V30 5405 H 525.333 -0.501504 1.6212 0
M  V30 5406 H 524.105 -1.46958 3.62656 0
M  V30 5407 H 523.728 -2.91517 2.70377 0
M  V30 5408 N 524.725 -1.39134 -0.740242 0
M  V30 5409 C 525.953 -1.39334 -1.5295 0
M  V30 5410 C 526.368 0.0135008 -1.88795 0
M  V30 5411 O 525.725 0.983524 -1.5373 0
M  V30 5412 C 525.776 -2.2614 -2.82034 0
M  V30 5413 O 525.497 -3.61345 -2.47712 0
M  V30 5414 C 526.998 -2.34666 -3.76094 0
M  V30 5415 H 524.218 -0.476103 -0.472828 0
M  V30 5416 H 526.762 -1.82883 -0.9151 0
M  V30 5417 H 524.917 -1.86018 -3.39818 0
M  V30 5418 H 525.331 -4.07194 -3.30595 0
M  V30 5419 H 526.805 -2.99663 -4.63579 0
M  V30 5420 H 527.282 -1.36426 -4.17474 0
M  V30 5421 H 527.888 -2.75236 -3.2423 0
M  V30 5422 N 526.204 0.969867 -1.24223 0
M  V30 5423 C 527.451 1.71256 -1.08063 0
M  V30 5424 C 527.779 1.90734 0.380872 0
M  V30 5425 O 527.034 1.46469 1.29789 0
M  V30 5426 C 527.333 3.10883 -1.76314 0
M  V30 5427 C 526.999 3.11252 -3.26241 0
M  V30 5428 C 525.661 3.1106 -3.67144 0
M  V30 5429 C 528.013 3.05751 -4.22097 0
M  V30 5430 C 525.341 3.03097 -5.02344 0
M  V30 5431 C 527.693 2.9933 -5.57301 0
M  V30 5432 C 526.357 2.97466 -5.97554 0
M  V30 5433 H 525.627 0.62667 -0.395431 0
M  V30 5434 H 528.274 1.13422 -1.54297 0
M  V30 5435 H 526.579 3.72168 -1.22468 0
M  V30 5436 H 528.276 3.67138 -1.61277 0
M  V30 5437 H 524.866 3.12165 -2.93685 0
M  V30 5438 H 529.05 3.05031 -3.91497 0
M  V30 5439 H 524.306 3.00013 -5.32731 0
M  V30 5440 H 528.48 2.94033 -6.31283 0
M  V30 5441 H 526.107 2.91051 -7.02277 0
M  V30 5442 N 527.682 1.05563 1.17022 0
M  V30 5443 C 528.907 0.788437 1.91829 0
M  V30 5444 C 529.332 -0.650356 1.76499 0
M  V30 5445 O 528.69 -1.45229 1.08527 0
M  V30 5446 C 528.738 1.1786 3.40795 0
M  V30 5447 O 527.842 0.312965 4.11211 0
M  V30 5448 H 527.183 0.288794 0.597908 0
M  V30 5449 H 529.713 1.40948 1.48307 0
M  V30 5450 H 529.723 1.14697 3.91546 0
M  V30 5451 H 528.398 2.22666 3.51273 0
M  V30 5452 H 526.975 0.405515 3.70689 0
M  V30 5453 N 529.16 -1.33526 0.837174 0
M  V30 5454 C 530.385 -2.0258 0.444545 0
M  V30 5455 C 530.81 -1.6258 -0.946006 0
M  V30 5456 O 530.168 -0.817548 -1.6182 0
M  V30 5457 C 530.216 -3.5605 0.571006 0
M  V30 5458 O 529.32 -4.10422 -0.403431 0
M  V30 5459 H 528.661 -0.638866 0.180958 0
M  V30 5460 H 531.191 -1.70462 1.13154 0
M  V30 5461 H 531.201 -4.05488 0.452024 0
M  V30 5462 H 529.876 -3.84509 1.58512 0
M  V30 5463 H 528.453 -3.72113 -0.242147 0
M  V30 5464 N 530.638 -0.59345 -1.46 0
M  V30 5465 C 531.885 -0.0831523 -2.02329 0
M  V30 5466 C 532.213 1.28093 -1.46364 0
M  V30 5467 O 531.468 1.85526 -0.622793 0
M  V30 5468 C 531.767 0.021178 -3.57394 0
M  V30 5469 C 531.433 -1.27671 -4.32448 0
M  V30 5470 C 530.095 -1.63227 -4.5267 0
M  V30 5471 C 532.447 -2.13511 -4.7546 0
M  V30 5472 C 529.775 -2.84401 -5.1316 0
M  V30 5473 C 532.127 -3.33922 -5.37289 0
M  V30 5474 C 530.791 -3.69747 -5.55737 0
M  V30 5475 H 530.061 -0.0304276 -0.740375 0
M  V30 5476 H 532.708 -0.772239 -1.75239 0
M  V30 5477 H 531.013 0.793454 -3.83682 0
M  V30 5478 H 532.71 0.431942 -3.98667 0
M  V30 5479 H 529.3 -0.989937 -4.17011 0
M  V30 5480 H 533.484 -1.87344 -4.59582 0
M  V30 5481 H 528.74 -3.12282 -5.25633 0
M  V30 5482 H 532.914 -4.00698 -5.69574 0
M  V30 5483 H 530.541 -4.6373 -6.02377 0
M  V30 5484 N 532.116 1.54067 -0.331816 0
M  V30 5485 C 533.346 2.04833 0.269605 0
M  V30 5486 C 533.754 1.20714 1.45687 0
M  V30 5487 O 533.097 0.232539 1.82222 0
M  V30 5488 C 533.159 3.51386 0.759499 0
M  V30 5489 C 532.823 4.55971 -0.306557 0
M  V30 5490 C 533.82 5.07126 -1.14538 0
M  V30 5491 C 531.505 5.00216 -0.457116 0
M  V30 5492 C 533.499 6.01096 -2.12042 0
M  V30 5493 C 531.186 5.93999 -1.43556 0
M  V30 5494 C 532.184 6.44326 -2.26568 0
M  V30 5495 O 531.872 7.36267 -3.22749 0
M  V30 5496 H 531.604 0.673509 0.0579763 0
M  V30 5497 H 534.158 1.99748 -0.478521 0
M  V30 5498 H 532.388 3.53896 1.55867 0
M  V30 5499 H 534.077 3.85184 1.28017 0
M  V30 5500 H 534.843 4.73716 -1.04009 0
M  V30 5501 H 530.722 4.60652 0.179142 0
M  V30 5502 H 534.266 6.40302 -2.76873 0
M  V30 5503 H 530.163 6.26825 -1.54146 0
M  V30 5504 H 530.931 7.54165 -3.18083 0
M  V30 5505 N 533.594 0.0601682 1.57485 0
M  V30 5506 C 534.842 -0.610386 1.92662 0
M  V30 5507 C 535.163 -1.70849 0.939981 0
M  V30 5508 O 534.433 -1.95895 -0.0137455 0
M  V30 5509 H 533.013 -0.228457 0.711208 0
M  V30 5510 H 535.675 0.115288 1.94559 0
M  V30 5511 H 534.771 -1.0432 2.94149 0
M  V30 5512 N 535.072 -1.5615 -0.213296 0
M  V30 5513 C 536.349 -1.70349 -0.961281 0
M  V30 5514 C 536.729 -0.609791 -2.02101 0
M  V30 5515 O 536.077 0.381987 -2.25285 0
M  V30 5516 C 536.287 -3.11982 -1.56424 0
M  V30 5517 C 537.635 -3.71649 -2.05334 0
M  V30 5518 O 538.659 -3.14995 -1.66302 0
M  V30 5519 O 537.518 -4.71038 -2.77102 0
M  V30 5520 H 534.612 -0.694121 -0.449582 0
M  V30 5521 H 537.158 -1.68464 -0.204426 0
M  V30 5522 H 535.93 -3.83046 -0.799457 0
M  V30 5523 H 535.553 -3.18019 -2.38641 0
M  V30 5524 N 536.55 0.480323 -1.50102 0
M  V30 5525 C 537.796 1.23489 -1.60867 0
M  V30 5526 C 538.129 1.91809 -0.303827 0
M  V30 5527 O 537.404 1.81694 0.694092 0
M  V30 5528 C 537.687 2.28578 -2.78252 0
M  V30 5529 C 537.54 1.64624 -4.18592 0
M  V30 5530 C 538.859 3.2997 -2.91218 0
M  V30 5531 H 535.978 0.447605 -0.585507 0
M  V30 5532 H 538.62 0.530005 -1.82458 0
M  V30 5533 H 536.77 2.88697 -2.59974 0
M  V30 5534 H 538.442 1.08173 -4.48438 0
M  V30 5535 H 536.685 0.949645 -4.23278 0
M  V30 5536 H 537.356 2.40946 -4.96638 0
M  V30 5537 H 539.832 2.79864 -3.07921 0
M  V30 5538 H 538.708 4.00839 -3.74993 0
M  V30 5539 H 538.969 3.93541 -2.0144 0
M  V30 5540 N 538.028 1.39524 0.732853 0
M  V30 5541 C 539.253 1.40329 1.52717 0
M  V30 5542 C 539.678 0.000286574 1.881 0
M  V30 5543 O 539.036 -0.987262 1.52062 0
M  V30 5544 C 539.084 2.28464 2.78992 0
M  V30 5545 O 538.188 1.716 3.75003 0
M  V30 5546 H 537.529 0.47778 0.461109 0
M  V30 5547 H 540.059 1.83546 0.903996 0
M  V30 5548 H 540.069 2.43051 3.27705 0
M  V30 5549 H 538.744 3.30425 2.52572 0
M  V30 5550 H 537.321 1.66267 3.33781 0
M  V30 5551 N 539.506 -0.963266 1.24736 0
M  V30 5552 C 540.734 -1.74166 1.11686 0
M  V30 5553 C 541.149 -1.8589 -0.330187 0
M  V30 5554 O 540.506 -1.35042 -1.2276 0
M  V30 5555 C 540.557 -3.15989 1.75595 0
M  V30 5556 O 540.278 -3.04847 3.14642 0
M  V30 5557 C 541.779 -4.10145 1.68213 0
M  V30 5558 H 538.999 -0.546031 0.389989 0
M  V30 5559 H 541.543 -1.20907 1.64929 0
M  V30 5560 H 539.698 -3.66219 1.26343 0
M  V30 5561 H 540.112 -3.9425 3.4593 0
M  V30 5562 H 541.586 -5.07299 2.17604 0
M  V30 5563 H 542.063 -4.3445 0.644208 0
M  V30 5564 H 542.669 -3.65827 2.16912 0
M  V30 5565 N 540.985 -1.06182 -1.16461 0
M  V30 5566 C 542.262 -0.691364 -1.82974 0
M  V30 5567 C 542.642 0.827377 -1.9421 0
M  V30 5568 O 541.99 1.73723 -1.48434 0
M  V30 5569 C 542.2 -1.39199 -3.20038 0
M  V30 5570 C 543.548 -1.53647 -3.95825 0
M  V30 5571 O 544.572 -1.35181 -3.29552 0
M  V30 5572 O 543.431 -1.83932 -5.14618 0
M  V30 5573 H 540.525 -0.244605 -0.789998 0
M  V30 5574 H 543.071 -1.16203 -1.23673 0
M  V30 5575 H 541.843 -2.42766 -3.06888 0
M  V30 5576 H 541.466 -0.911335 -3.87015 0
M  V30 5577 N 542.463 1.3308 -0.844243 0
M  V30 5578 C 543.691 2.01808 -0.456203 0
M  V30 5579 C 544.106 1.63498 0.944131 0
M  V30 5580 O 543.463 0.85102 1.61443 0
M  V30 5581 C 543.514 3.56922 -0.573513 0
M  V30 5582 O 543.235 3.93851 -1.91868 0
M  V30 5583 C 544.736 4.42922 -0.183125 0
M  V30 5584 H 541.956 0.646273 -0.180477 0
M  V30 5585 H 544.5 1.69891 -1.1383 0
M  V30 5586 H 542.655 3.87352 0.0607367 0
M  V30 5587 H 543.069 4.88564 -1.90802 0
M  V30 5588 H 544.543 5.51093 -0.316241 0
M  V30 5589 H 545.02 4.30386 0.875477 0
M  V30 5590 H 545.626 4.1786 -0.792027 0
M  V30 5591 N 543.941 0.601185 1.45683 0
M  V30 5592 C 545.19 0.0914953 2.01492 0
M  V30 5593 C 545.503 -1.28331 1.47616 0
M  V30 5594 O 546.709 -1.88537 1.95362 0
M  V30 5595 C 545.165 0.11291 3.59723 0
M  V30 5596 C 544.773 1.48717 4.22596 0
M  V30 5597 C 546.517 -0.341871 4.23121 0
M  V30 5598 C 544.424 1.46531 5.7296 0
M  V30 5599 H 543.354 0.0304365 0.753385 0
M  V30 5600 H 546.005 0.755568 1.67223 0
M  V30 5601 H 544.387 -0.617692 3.91153 0
M  V30 5602 H 545.561 2.23897 4.02749 0
M  V30 5603 H 543.876 1.88351 3.71366 0
M  V30 5604 H 546.473 -0.377304 5.33367 0
M  V30 5605 H 546.816 -1.36325 3.93346 0
M  V30 5606 H 547.349 0.335256 3.96385 0
M  V30 5607 H 544.088 2.46408 6.07423 0
M  V30 5608 H 543.608 0.755997 5.95017 0
M  V30 5609 H 545.287 1.18618 6.36034 0
M  V30 5610 N 545.419 -1.53889 0.339982 0
M  V30 5611 C 546.835 -1.59595 -0.0120752 0
M  V30 5612 C 547.035 -1.35605 -1.49042 0
M  V30 5613 O 546.091 -1.14856 -2.24865 0
M  V30 5614 C 547.404 -2.9774 0.420898 0
M  V30 5615 C 548.952 -3.1077 0.37294 0
M  V30 5616 C 549.427 -4.51286 0.781327 0
M  V30 5617 N 550.918 -4.57325 0.735374 0
M  V30 5618 C 551.653 -5.64194 1.02336 0
M  V30 5619 N 551.149 -6.7893 1.37933 0
M  V30 5620 N 552.942 -5.54051 0.947838 0
M  V30 5621 H 545.093 -1.67738 1.30299 0
M  V30 5622 H 547.356 -0.785385 0.530918 0
M  V30 5623 H 547.062 -3.20349 1.45152 0
M  V30 5624 H 546.936 -3.76639 -0.205721 0
M  V30 5625 H 549.323 -2.87886 -0.648505 0
M  V30 5626 H 549.404 -2.33939 1.03472 0
M  V30 5627 H 549.048 -4.74905 1.80077 0
M  V30 5628 H 548.978 -5.26511 0.0970679 0
M  V30 5629 H 551.469 -3.74931 0.472773 0
M  V30 5630 H 551.782 -7.56392 1.58402 0
M  V30 5631 H 550.127 -6.80386 1.41774 0
M  V30 5632 H 553.318 -4.63293 0.669115 0
M  V30 5633 H 553.491 -6.37246 1.17563 0
M  V30 5634 N 546.897 -0.0685191 -1.57451 0
M  V30 5635 C 547.827 0.89747 -2.15564 0
M  V30 5636 C 548.808 1.31266 -1.08181 0
M  V30 5637 O 549.993 1.38429 -1.36202 0
M  V30 5638 C 547.123 2.16623 -2.71463 0
M  V30 5639 C 546.077 1.89054 -3.83982 0
M  V30 5640 C 545.403 3.22532 -4.26471 0
M  V30 5641 C 546.703 1.1984 -5.08366 0
M  V30 5642 H 548.397 0.413373 -2.96533 0
M  V30 5643 H 545.943 0.197391 -1.42641 0
M  V30 5644 H 547.896 2.84614 -3.10761 0
M  V30 5645 H 546.62 2.67269 -1.8771 0
M  V30 5646 H 545.279 1.23469 -3.45183 0
M  V30 5647 H 544.927 3.71013 -3.39644 0
M  V30 5648 H 544.627 3.04879 -5.02317 0
M  V30 5649 H 546.151 3.91727 -4.68383 0
M  V30 5650 H 547.565 1.77896 -5.45001 0
M  V30 5651 H 545.962 1.12456 -5.89469 0
M  V30 5652 H 547.032 0.176996 -4.84577 0
M  V30 5653 N 548.375 1.56261 0.205012 0
M  V30 5654 C 549.338 1.92908 1.23771 0
M  V30 5655 C 550.338 0.809208 1.38955 0
M  V30 5656 O 551.528 1.07676 1.36936 0
M  V30 5657 C 548.66 2.19442 2.60879 0
M  V30 5658 H 549.853 2.85287 0.924728 0
M  V30 5659 H 547.406 1.49798 0.446125 0
M  V30 5660 H 548.141 1.29668 2.97248 0
M  V30 5661 H 547.926 3.0104 2.51232 0
M  V30 5662 H 549.416 2.48833 3.35368 0
M  V30 5663 N 549.853 -0.472356 1.50355 0
M  V30 5664 C 550.8 -1.57051 1.69126 0
M  V30 5665 C 551.77 -1.5733 0.532574 0
M  V30 5666 O 552.955 -1.7488 0.762994 0
M  V30 5667 C 550.095 -2.95033 1.79024 0
M  V30 5668 C 549.208 -3.04552 3.06386 0
M  V30 5669 C 548.343 -4.33441 3.07087 0
M  V30 5670 C 547.382 -4.36697 4.28908 0
M  V30 5671 N 546.519 -5.57056 4.27356 0
M  V30 5672 H 551.359 -1.40351 2.62879 0
M  V30 5673 H 548.896 -0.682403 1.30314 0
M  V30 5674 H 550.854 -3.75048 1.82744 0
M  V30 5675 H 549.484 -3.10371 0.887109 0
M  V30 5676 H 548.536 -2.17419 3.12143 0
M  V30 5677 H 549.848 -3.02818 3.96362 0
M  V30 5678 H 549.002 -5.21801 3.09529 0
M  V30 5679 H 547.741 -4.37782 2.14939 0
M  V30 5680 H 546.746 -3.46734 4.2668 0
M  V30 5681 H 547.971 -4.34049 5.22282 0
M  V30 5682 H 545.917 -5.62184 3.3806 0
M  V30 5683 H 545.834 -5.57058 5.111 0
M  V30 5684 H 547.102 -6.47545 4.33942 0
M  V30 5685 N 551.331 -1.39911 -0.725443 0
M  V30 5686 C 552.294 -1.39156 -1.82121 0
M  V30 5687 C 553.294 -0.287018 -1.58218 0
M  V30 5688 O 554.484 -0.545421 -1.65441 0
M  V30 5689 C 551.616 -1.1736 -3.20062 0
M  V30 5690 H 552.809 -2.36672 -1.84191 0
M  V30 5691 H 550.362 -1.25615 -0.930079 0
M  V30 5692 H 551.097 -0.205648 -3.23647 0
M  V30 5693 H 550.882 -1.97358 -3.3881 0
M  V30 5694 H 552.372 -1.19596 -4.00108 0
M  V30 5695 N 552.809 0.956637 -1.25245 0
M  V30 5696 C 554.058 1.69537 -1.0927 0
M  V30 5697 C 554.371 1.92136 0.366503 0
M  V30 5698 O 555.577 2.63687 0.64665 0
M  V30 5699 C 554.033 3.05211 -1.9072 0
M  V30 5700 C 553.641 2.90416 -3.41119 0
M  V30 5701 C 555.385 3.82882 -1.83308 0
M  V30 5702 C 553.292 4.21468 -4.14872 0
M  V30 5703 H 552.222 0.635804 -0.405302 0
M  V30 5704 H 554.873 1.06513 -1.49423 0
M  V30 5705 H 553.255 3.69128 -1.43389 0
M  V30 5706 H 554.429 2.35444 -3.9611 0
M  V30 5707 H 552.744 2.26203 -3.49602 0
M  V30 5708 H 555.341 4.79944 -2.35706 0
M  V30 5709 H 555.684 4.0853 -0.800572 0
M  V30 5710 H 556.217 3.25711 -2.28379 0
M  V30 5711 H 552.956 4.01009 -5.18529 0
M  V30 5712 H 552.476 4.76213 -3.64665 0
M  V30 5713 H 554.155 4.90022 -4.22478 0
M  V30 5714 N 554.287 1.06798 1.15896 0
M  V30 5715 C 555.533 0.788934 1.86825 0
M  V30 5716 C 555.866 -0.683084 1.8179 0
M  V30 5717 O 555.141 -1.50086 1.23711 0
M  V30 5718 C 555.424 1.29065 3.36176 0
M  V30 5719 C 555.277 2.8268 3.49874 0
M  V30 5720 C 556.596 0.902655 4.30744 0
M  V30 5721 H 553.715 0.288066 0.678371 0
M  V30 5722 H 556.357 1.32479 1.36195 0
M  V30 5723 H 554.507 0.834806 3.79425 0
M  V30 5724 H 556.179 3.36511 3.15528 0
M  V30 5725 H 554.422 3.21157 2.91617 0
M  V30 5726 H 555.093 3.12852 4.54783 0
M  V30 5727 H 557.569 1.29535 3.95424 0
M  V30 5728 H 556.445 1.28111 5.3374 0
M  V30 5729 H 556.706 -0.191951 4.41683 0
M  V30 5730 N 555.766 -1.3263 0.851289 0
M  V30 5731 C 557.043 -1.91982 0.374448 0
M  V30 5732 C 557.423 -1.77568 -1.14161 0
M  V30 5733 O 556.771 -1.1717 -1.96172 0
M  V30 5734 C 556.981 -3.38862 0.835088 0
M  V30 5735 C 558.329 -4.15999 0.850309 0
M  V30 5736 O 559.353 -3.47566 0.779505 0
M  V30 5737 O 558.212 -5.38189 0.949481 0
M  V30 5738 H 555.306 -0.819846 0.10854 0
M  V30 5739 H 557.852 -1.41422 0.937966 0
M  V30 5740 H 556.624 -3.43281 1.87814 0
M  V30 5741 H 556.247 -3.96821 0.248833 0
M  V30 5742 N 557.244 -0.608902 -1.45362 0
M  V30 5743 C 558.521 -0.0365378 -1.95566 0
M  V30 5744 C 558.901 1.43169 -1.55131 0
M  V30 5745 O 558.249 2.1349 -0.814513 0
M  V30 5746 C 558.459 -0.236026 -3.48201 0
M  V30 5747 C 559.807 -0.117518 -4.24437 0
M  V30 5748 O 560.831 -0.166217 -3.55812 0
M  V30 5749 O 559.69 -0.00372127 -5.465 0
M  V30 5750 H 556.784 0.0349874 -0.82626 0
M  V30 5751 H 559.33 -0.679055 -1.55521 0
M  V30 5752 H 558.102 -1.25569 -3.70605 0
M  V30 5753 H 557.725 0.441691 -3.95139 0
M  V30 5754 N 558.722 1.53707 -0.348139 0
M  V30 5755 C 560.133 1.86213 0.134797 0
M  V30 5756 C 560.484 1.26925 1.49614 0
M  V30 5757 O 559.609 0.584573 2.08355 0
M  V30 5758 C 560.204 3.37866 0.251371 0
M  V30 5759 C 558.763 3.70233 0.678543 0
M  V30 5760 C 557.91 2.76683 -0.184925 0
M  V30 5761 H 560.861 1.48204 -0.567571 0
M  V30 5762 H 560.882 3.64908 1.07806 0
M  V30 5763 H 560.394 3.80988 -0.739581 0
M  V30 5764 H 558.495 3.32659 1.67835 0
M  V30 5765 H 558.608 4.76836 0.465251 0
M  V30 5766 H 556.972 2.52374 0.343465 0
M  V30 5767 H 557.755 3.22635 -1.1731 0
M  V30 5768 N 560.2 0.0768682 1.57412 0
M  V30 5769 C 561.425 -0.603404 1.98428 0
M  V30 5770 C 561.85 -1.62047 0.955108 0
M  V30 5771 O 561.208 -1.81129 -0.0786778 0
M  V30 5772 C 561.256 -1.24396 3.38464 0
M  V30 5773 O 560.36 -2.35982 3.3821 0
M  V30 5774 H 559.701 -0.154741 0.645718 0
M  V30 5775 H 562.231 0.152885 2.04028 0
M  V30 5776 H 562.241 -1.5896 3.7576 0
M  V30 5777 H 560.916 -0.498735 4.12899 0
M  V30 5778 H 559.493 -2.03173 3.1269 0
M  V30 5779 N 561.678 -1.56367 -0.196722 0
M  V30 5780 C 562.927 -1.79724 -0.915539 0
M  V30 5781 C 563.24 -0.649804 -1.84491 0
M  V30 5782 O 564.446 -0.767631 -2.60422 0
M  V30 5783 C 562.902 -3.18369 -1.67836 0
M  V30 5784 C 562.51 -4.4091 -0.793897 0
M  V30 5785 C 564.254 -3.51037 -2.38691 0
M  V30 5786 C 562.161 -5.70577 -1.55549 0
M  V30 5787 H 561.091 -0.67013 -0.345604 0
M  V30 5788 H 563.742 -1.82721 -0.168856 0
M  V30 5789 H 562.124 -3.09617 -2.46887 0
M  V30 5790 H 563.298 -4.60781 -0.042163 0
M  V30 5791 H 561.613 -4.15937 -0.19626 0
M  V30 5792 H 564.21 -4.4515 -2.96219 0
M  V30 5793 H 564.553 -2.74704 -3.12799 0
M  V30 5794 H 565.086 -3.61229 -1.66608 0
M  V30 5795 H 561.825 -6.49871 -0.857226 0
M  V30 5796 H 561.345 -5.54726 -2.2812 0
M  V30 5797 H 563.024 -6.11637 -2.10971 0
M  V30 5798 N 563.156 0.464375 -1.50603 0
M  V30 5799 C 564.119 1.54393 -1.69397 0
M  V30 5800 C 565.119 1.50566 -0.564504 0
M  V30 5801 O 566.309 1.53066 -0.831645 0
M  V30 5802 C 563.441 2.9401 -1.72543 0
M  V30 5803 H 564.634 1.39044 -2.65719 0
M  V30 5804 H 562.187 0.69122 -1.40185 0
M  V30 5805 H 562.922 3.14795 -0.77938 0
M  V30 5806 H 562.707 2.98195 -2.54602 0
M  V30 5807 H 564.197 3.72375 -1.89015 0
M  V30 5808 N 564.634 1.40294 0.718013 0
M  V30 5809 C 566.045 1.34289 1.29705 0
M  V30 5810 C 566.396 0.0152228 1.96194 0
M  V30 5811 O 565.521 -0.88682 1.97394 0
M  V30 5812 C 566.116 2.43219 2.3586 0
M  V30 5813 C 564.675 2.40682 2.89394 0
M  V30 5814 C 563.822 2.24223 1.63154 0
M  V30 5815 H 566.773 1.50135 0.514312 0
M  V30 5816 H 566.794 2.10986 3.16647 0
M  V30 5817 H 566.306 3.39836 1.87439 0
M  V30 5818 H 564.407 1.47756 3.42051 0
M  V30 5819 H 564.52 3.36177 3.41353 0
M  V30 5820 H 562.884 1.71696 1.88129 0
M  V30 5821 H 563.667 3.22834 1.16761 0
M  V30 5822 N 566.112 -0.949982 1.2575 0
M  V30 5823 C 567.075 -2.02894 1.06615 0
M  V30 5824 C 568.075 -1.60791 0.0173905 0
M  V30 5825 O 569.265 -1.72249 0.260003 0
M  V30 5826 C 566.397 -3.35219 0.619751 0
M  V30 5827 H 567.59 -2.21302 2.02399 0
M  V30 5828 H 565.143 -1.12772 1.08223 0
M  V30 5829 H 565.878 -3.22508 -0.340486 0
M  V30 5830 H 565.663 -3.67129 1.37692 0
M  V30 5831 H 567.153 -4.14505 0.507443 0
M  V30 5832 N 567.59 -1.07411 -1.15328 0
M  V30 5833 C 568.553 -0.698914 -2.18284 0
M  V30 5834 C 569.553 0.261149 -1.58665 0
M  V30 5835 O 570.743 0.0420277 -1.74149 0
M  V30 5836 C 567.875 -0.0302427 -3.40887 0
M  V30 5837 H 569.068 -1.61045 -2.52991 0
M  V30 5838 H 566.621 -0.870724 -1.298 0
M  V30 5839 H 567.356 0.893505 -3.11748 0
M  V30 5840 H 567.141 -0.720759 -3.85419 0
M  V30 5841 H 568.631 0.21759 -4.17033 0
M  V30 5842 N 569.068 1.32177 -0.85831 0
M  V30 5843 C 570.031 2.27086 -0.310588 0
M  V30 5844 C 571.031 1.51751 0.531806 0
M  V30 5845 O 572.221 1.70794 0.34279 0
M  V30 5846 C 569.353 3.36266 0.560179 0
M  V30 5847 H 570.546 2.77045 -1.1483 0
M  V30 5848 H 568.099 1.42911 -0.632942 0
M  V30 5849 H 568.834 2.9158 1.41956 0
M  V30 5850 H 568.619 3.92077 -0.0428473 0
M  V30 5851 H 570.109 4.06974 0.936056 0
M  V30 5852 N 570.547 0.616602 1.45037 0
M  V30 5853 C 571.958 0.199359 1.85633 0
M  V30 5854 C 572.309 -1.24588 1.51566 0
M  V30 5855 O 571.434 -1.94594 0.94668 0
M  V30 5856 C 572.029 0.355033 3.36935 0
M  V30 5857 C 570.588 -0.00758748 3.76399 0
M  V30 5858 C 569.735 0.675256 2.68953 0
M  V30 5859 H 572.686 0.822708 1.3571 0
M  V30 5860 H 572.707 -0.410201 3.78282 0
M  V30 5861 H 572.219 1.40699 3.61698 0
M  V30 5862 H 570.32 -1.05837 3.57252 0
M  V30 5863 H 570.433 0.392346 4.77491 0
M  V30 5864 H 568.797 0.111992 2.54454 0
M  V30 5865 H 569.58 1.72952 2.96551 0
M  V30 5866 N 572.025 -1.5352 0.356285 0
M  V30 5867 C 572.973 -2.26945 -0.50978 0
M  V30 5868 C 573.967 -1.29569 -1.09125 0
M  V30 5869 O 575.173 -1.47231 -1.03552 0
M  V30 5870 H 571.548 -0.729368 -0.183102 0
M  V30 5871 H 573.519 -2.98111 0.131374 0
M  V30 5872 C 572.268 -3.06466 -1.64237 0
M  V30 5873 H 571.591 -3.81233 -1.20423 0
M  V30 5874 H 573.031 -3.61035 -2.22327 0
M  V30 5875 C 571.49 -2.16737 -2.57928 0
M  V30 5876 O 572.02 -1.77195 -3.60507 0
M  V30 5877 N 570.226 -1.81558 -2.26903 0
M  V30 5878 H 569.773 -2.13913 -1.43524 0
M  V30 5879 H 569.731 -1.21806 -2.89846 0
M  V30 5880 N 573.503 -0.0852151 -1.57369 0
M  V30 5881 C 574.433 0.874556 -2.16503 0
M  V30 5882 C 575.414 1.30111 -1.09568 0
M  V30 5883 O 576.599 1.36977 -1.37662 0
M  V30 5884 C 573.729 2.13731 -2.73745 0
M  V30 5885 C 572.683 1.84971 -3.85966 0
M  V30 5886 C 572.009 3.17991 -4.29867 0
M  V30 5887 C 573.309 1.14442 -5.09608 0
M  V30 5888 H 575.003 0.381899 -2.96954 0
M  V30 5889 H 572.549 0.18225 -1.42842 0
M  V30 5890 H 574.502 2.81302 -3.13763 0
M  V30 5891 H 573.226 2.65263 -1.90534 0
M  V30 5892 H 571.885 1.19801 -3.46473 0
M  V30 5893 H 571.533 3.6739 -3.4356 0
M  V30 5894 H 571.233 2.99534 -5.05523 0
M  V30 5895 H 572.757 3.86737 -4.72511 0
M  V30 5896 H 574.171 1.72105 -5.46857 0
M  V30 5897 H 572.568 1.06197 -5.90629 0
M  V30 5898 H 573.638 0.12559 -4.84737 0
M  V30 5899 N 574.981 1.5647 0.188427 0
M  V30 5900 C 576.211 1.84863 0.922463 0
M  V30 5901 C 576.619 0.666413 1.77075 0
M  V30 5902 O 575.962 -0.374044 1.79852 0
M  V30 5903 C 576.024 3.07447 1.86324 0
M  V30 5904 C 575.688 4.41066 1.19625 0
M  V30 5905 C 576.685 5.16767 0.569946 0
M  V30 5906 C 574.37 4.87802 1.19811 0
M  V30 5907 C 576.364 6.37384 -0.045594 0
M  V30 5908 C 574.051 6.08353 0.57874 0
M  V30 5909 C 575.049 6.82987 -0.0420259 0
M  V30 5910 O 574.737 8.01254 -0.651675 0
M  V30 5911 H 574.469 0.61784 0.274316 0
M  V30 5912 H 577.023 2.04437 0.198613 0
M  V30 5913 H 575.253 2.83774 2.62696 0
M  V30 5914 H 576.942 3.2243 2.46564 0
M  V30 5915 H 577.708 4.81749 0.560601 0
M  V30 5916 H 573.587 4.29662 1.67069 0
M  V30 5917 H 577.131 6.95578 -0.530731 0
M  V30 5918 H 573.028 6.42838 0.58561 0
M  V30 5919 H 573.796 8.16655 -0.549236 0
M  V30 5920 N 576.459 -0.456382 1.50847 0
M  V30 5921 C 577.406 -1.55249 1.70782 0
M  V30 5922 C 578.376 -1.56757 0.549231 0
M  V30 5923 O 579.561 -1.74061 0.7815 0
M  V30 5924 C 576.701 -2.93118 1.82143 0
M  V30 5925 C 575.814 -3.01285 3.09598 0
M  V30 5926 C 574.949 -4.30159 3.11667 0
M  V30 5927 C 573.988 -4.32124 4.33515 0
M  V30 5928 N 573.125 -5.52492 4.3324 0
M  V30 5929 H 577.965 -1.37555 2.64353 0
M  V30 5930 H 575.502 -0.668543 1.3103 0
M  V30 5931 H 577.46 -3.73088 1.86711 0
M  V30 5932 H 576.09 -3.09413 0.919978 0
M  V30 5933 H 575.142 -2.14096 3.14431 0
M  V30 5934 H 576.454 -2.98597 3.99551 0
M  V30 5935 H 575.608 -5.18489 3.15046 0
M  V30 5936 H 574.347 -4.35477 2.1957 0
M  V30 5937 H 573.352 -3.42189 4.30333 0
M  V30 5938 H 574.577 -4.28485 5.26856 0
M  V30 5939 H 572.523 -5.58567 3.44004 0
M  V30 5940 H 572.44 -5.51605 5.16979 0
M  V30 5941 H 573.708 -6.42906 4.40786 0
M  V30 5942 N 577.937 -1.40673 -0.710563 0
M  V30 5943 C 578.869 -1.37256 -1.83558 0
M  V30 5944 C 579.882 -0.277133 -1.60424 0
M  V30 5945 O 581.071 -0.537831 -1.70205 0
M  V30 5946 C 578.171 -1.1144 -3.20054 0
M  V30 5947 C 577.344 -2.32734 -3.70342 0
M  V30 5948 C 576.403 -2.03002 -4.85465 0
M  V30 5949 O 575.429 -2.75912 -4.97857 0
M  V30 5950 N 576.631 -1.01105 -5.71627 0
M  V30 5951 H 579.396 -2.34215 -1.86985 0
M  V30 5952 H 576.957 -1.35091 -0.892301 0
M  V30 5953 H 578.949 -0.895265 -3.94673 0
M  V30 5954 H 577.519 -0.231307 -3.11743 0
M  V30 5955 H 576.739 -2.70446 -2.86798 0
M  V30 5956 H 578.027 -3.13584 -4.00678 0
M  V30 5957 H 577.425 -0.407303 -5.64232 0
M  V30 5958 H 575.982 -0.85182 -6.4621 0
M  V30 5959 N 579.415 0.9433 -1.26252 0
M  V30 5960 C 580.645 1.72117 -1.14277 0
M  V30 5961 C 581.053 1.86726 0.304944 0
M  V30 5962 O 580.396 1.3727 1.22076 0
M  V30 5963 C 580.458 3.14778 -1.73651 0
M  V30 5964 C 580.122 3.23561 -3.22734 0
M  V30 5965 C 581.119 3.07001 -4.19579 0
M  V30 5966 C 578.804 3.47019 -3.63157 0
M  V30 5967 C 580.798 3.13763 -5.54826 0
M  V30 5968 C 578.485 3.53416 -4.98538 0
M  V30 5969 C 579.483 3.36804 -5.94182 0
M  V30 5970 O 579.171 3.42906 -7.27098 0
M  V30 5971 H 578.903 0.545781 -0.398873 0
M  V30 5972 H 581.457 1.19123 -1.67328 0
M  V30 5973 H 579.687 3.69186 -1.1506 0
M  V30 5974 H 581.376 3.74469 -1.56613 0
M  V30 5975 H 582.142 2.88736 -3.89688 0
M  V30 5976 H 578.021 3.59006 -2.89199 0
M  V30 5977 H 581.565 3.00714 -6.29458 0
M  V30 5978 H 577.462 3.71201 -5.28091 0
M  V30 5979 H 578.23 3.59463 -7.35342 0
M  V30 5980 N 580.893 1.08022 1.14757 0
M  V30 5981 C 581.856 0.71048 2.1791 0
M  V30 5982 C 582.856 -0.252731 1.58801 0
M  V30 5983 O 584.046 -0.0327915 1.74169 0
M  V30 5984 C 581.178 0.0483203 3.40866 0
M  V30 5985 H 582.371 1.62384 2.52134 0
M  V30 5986 H 579.924 0.877595 1.29337 0
M  V30 5987 H 580.659 -0.876959 3.12218 0
M  V30 5988 H 580.444 0.741189 3.85031 0
M  V30 5989 H 581.934 -0.195471 4.17142 0
M  V30 5990 N 582.371 -1.3172 0.865308 0
M  V30 5991 C 583.334 -2.26918 0.322627 0
M  V30 5992 C 584.334 -1.52031 -0.523751 0
M  V30 5993 O 585.524 -1.70973 -0.333727 0
M  V30 5994 C 582.656 -3.36558 -0.542338 0
M  V30 5995 H 583.849 -2.76432 1.16298 0
M  V30 5996 H 581.402 -1.42573 0.640512 0
M  V30 5997 H 582.137 -2.92329 -1.40407 0
M  V30 5998 H 581.922 -3.92048 0.0636395 0
M  V30 5999 H 583.412 -4.07465 -0.91446 0
M  V30 6000 N 583.85 -0.624285 -1.44708 0
M  V30 6001 C 584.783 0.133905 -2.27807 0
M  V30 6002 C 585.76 0.857794 -1.38133 0
M  V30 6003 O 586.945 0.863277 -1.6757 0
M  V30 6004 C 584.072 1.19541 -3.16903 0
M  V30 6005 C 583.118 0.572813 -4.22636 0
M  V30 6006 S 583.951 -0.631953 -5.31758 0
M  V30 6007 C 585.106 0.429733 -6.24423 0
M  V30 6008 H 585.34 -0.571072 -2.91764 0
M  V30 6009 H 582.873 -0.412261 -1.48794 0
M  V30 6010 H 584.831 1.80293 -3.68788 0
M  V30 6011 H 583.492 1.87255 -2.5218 0
M  V30 6012 H 582.685 1.37205 -4.84965 0
M  V30 6013 H 582.287 0.0400641 -3.73979 0
M  V30 6014 H 584.579 1.30421 -6.64828 0
M  V30 6015 H 585.522 -0.157804 -7.07924 0
M  V30 6016 H 585.93 0.75256 -5.59461 0
M  V30 6017 N 585.328 1.53329 -0.364422 0
M  V30 6018 C 586.605 1.93557 0.281962 0
M  V30 6019 C 586.985 1.29786 1.6649 0
M  V30 6020 O 586.333 0.456512 2.23893 0
M  V30 6021 C 586.543 3.47405 0.333331 0
M  V30 6022 C 587.891 4.20699 0.574231 0
M  V30 6023 O 588.915 3.53779 0.414588 0
M  V30 6024 O 587.774 5.39287 0.885002 0
M  V30 6025 H 584.868 0.809573 0.168881 0
M  V30 6026 H 587.414 1.64494 -0.417121 0
M  V30 6027 H 586.186 3.86091 -0.636326 0
M  V30 6028 H 585.809 3.82697 1.07836 0
M  V30 6029 N 586.806 0.0935595 1.57322 0
M  V30 6030 C 588.222 -0.263091 1.57417 0
M  V30 6031 C 588.422 -1.68526 1.1046 0
M  V30 6032 O 587.478 -2.40139 0.780357 0
M  V30 6033 C 588.791 -0.0529201 3.00653 0
M  V30 6034 C 590.339 -0.120788 3.12767 0
M  V30 6035 C 590.814 0.0613707 4.57959 0
M  V30 6036 N 592.305 0.00648534 4.632 0
M  V30 6037 C 593.04 0.122699 5.73269 0
M  V30 6038 N 592.536 0.29366 6.92177 0
M  V30 6039 N 594.329 0.0640787 5.62063 0
M  V30 6040 H 586.48 1.02277 1.86154 0
M  V30 6041 H 588.743 0.4007 0.859153 0
M  V30 6042 H 588.449 0.929279 3.39201 0
M  V30 6043 H 588.323 -0.795899 3.68708 0
M  V30 6044 H 590.71 -1.09349 2.74093 0
M  V30 6045 H 590.791 0.653656 2.47307 0
M  V30 6046 H 590.435 1.03093 4.97327 0
M  V30 6047 H 590.365 -0.732748 5.21477 0
M  V30 6048 H 592.856 -0.123173 3.77699 0
M  V30 6049 H 593.169 0.37389 7.71895 0
M  V30 6050 H 591.514 0.329307 6.94219 0
M  V30 6051 H 594.705 -0.0683396 4.6805 0
M  V30 6052 H 594.878 0.158097 6.47807 0
M  V30 6053 N 588.284 -1.56567 -0.180126 0
M  V30 6054 C 589.247 -1.94852 -1.20686 0
M  V30 6055 C 590.247 -0.831212 -1.3765 0
M  V30 6056 O 591.437 -1.09841 -1.35206 0
M  V30 6057 C 588.569 -2.23565 -2.57355 0
M  V30 6058 H 589.762 -2.86722 -0.879225 0
M  V30 6059 H 587.315 -1.50489 -0.422237 0
M  V30 6060 H 588.05 -1.34381 -2.95148 0
M  V30 6061 H 587.835 -3.04999 -2.46411 0
M  V30 6062 H 589.325 -2.54137 -3.31367 0
M  V30 6063 N 589.762 0.448376 -1.51087 0
M  V30 6064 C 591.008 1.20049 -1.6345 0
M  V30 6065 C 591.341 1.91121 -0.344444 0
M  V30 6066 O 590.616 1.83125 0.655396 0
M  V30 6067 C 590.899 2.22624 -2.83038 0
M  V30 6068 C 590.752 1.55708 -4.21989 0
M  V30 6069 C 592.071 3.23718 -2.98152 0
M  V30 6070 H 589.19 0.435085 -0.59487 0
M  V30 6071 H 591.832 0.491183 -1.83541 0
M  V30 6072 H 589.982 2.83117 -2.66039 0
M  V30 6073 H 591.654 0.986367 -4.50631 0
M  V30 6074 H 589.897 0.859647 -4.25197 0
M  V30 6075 H 590.568 2.30357 -5.01637 0
M  V30 6076 H 593.044 2.73269 -3.13788 0
M  V30 6077 H 591.92 3.92795 -3.83411 0
M  V30 6078 H 592.181 3.89179 -2.09743 0
M  V30 6079 N 591.24 1.41047 0.703093 0
M  V30 6080 C 592.17 1.45067 1.82969 0
M  V30 6081 C 593.151 0.31016 1.67248 0
M  V30 6082 O 594.336 0.520548 1.87093 0
M  V30 6083 C 591.466 1.32478 3.2104 0
M  V30 6084 C 590.42 2.44262 3.51454 0
M  V30 6085 C 589.746 2.16742 4.88801 0
M  V30 6086 C 591.046 3.86606 3.51189 0
M  V30 6087 H 592.74 2.39353 1.79863 0
M  V30 6088 H 590.286 1.15206 0.863919 0
M  V30 6089 H 592.239 1.33904 3.99559 0
M  V30 6090 H 590.963 0.346735 3.24754 0
M  V30 6091 H 589.622 2.42107 2.75282 0
M  V30 6092 H 589.27 1.17299 4.89132 0
M  V30 6093 H 588.97 2.91643 5.10116 0
M  V30 6094 H 590.494 2.19872 5.69639 0
M  V30 6095 H 591.908 3.90517 4.19725 0
M  V30 6096 H 590.305 4.61128 3.84033 0
M  V30 6097 H 591.375 4.15296 2.50315 0
M  V30 6098 N 592.718 -0.936591 1.26751 0
M  V30 6099 C 593.65 -2.03991 1.045 0
M  V30 6100 C 594.663 -1.628 0.00394261 0
M  V30 6101 O 595.852 -1.76817 0.244526 0
M  V30 6102 C 592.952 -3.34218 0.561403 0
M  V30 6103 C 592.125 -4.04151 1.67274 0
M  V30 6104 C 591.184 -5.12651 1.1864 0
M  V30 6105 O 590.21 -5.37104 1.88437 0
M  V30 6106 N 591.412 -5.80488 0.037278 0
M  V30 6107 H 594.177 -2.23644 1.99508 0
M  V30 6108 H 591.738 -1.10638 1.18198 0
M  V30 6109 H 593.73 -4.04101 0.220136 0
M  V30 6110 H 592.3 -3.11203 -0.295211 0
M  V30 6111 H 591.52 -3.28121 2.18472 0
M  V30 6112 H 592.808 -4.47626 2.41885 0
M  V30 6113 H 592.206 -5.63064 -0.545494 0
M  V30 6114 H 590.763 -6.5134 -0.244877 0
M  V30 6115 N 594.196 -1.08629 -1.14182 0
M  V30 6116 C 595.612 -0.814363 -1.3726 0
M  V30 6117 C 595.812 0.575271 -1.93114 0
M  V30 6118 O 594.868 1.33165 -2.1453 0
M  V30 6119 C 596.181 -1.8989 -2.33157 0
M  V30 6120 C 597.729 -1.92518 -2.46791 0
M  V30 6121 C 598.204 -3.00092 -3.45989 0
M  V30 6122 N 599.695 -2.99279 -3.53534 0
M  V30 6123 C 600.43 -3.79158 -4.30147 0
M  V30 6124 N 599.926 -4.68923 -5.09983 0
M  V30 6125 N 601.719 -3.67451 -4.25366 0
M  V30 6126 H 593.87 -1.98232 -0.762758 0
M  V30 6127 H 596.133 -0.860383 -0.398051 0
M  V30 6128 H 595.839 -2.89809 -1.99257 0
M  V30 6129 H 595.713 -1.77013 -3.33086 0
M  V30 6130 H 598.1 -0.932425 -2.79982 0
M  V30 6131 H 598.181 -2.09473 -1.46816 0
M  V30 6132 H 597.825 -3.99575 -3.13532 0
M  V30 6133 H 597.755 -2.80382 -4.45751 0
M  V30 6134 H 600.246 -2.3422 -2.96563 0
M  V30 6135 H 600.559 -5.26475 -5.65724 0
M  V30 6136 H 598.904 -4.72964 -5.09244 0
M  V30 6137 H 602.095 -2.9669 -3.62067 0
M  V30 6138 H 602.268 -4.29944 -4.84822 0
M  V30 6139 N 595.674 1.31259 -0.872281 0
M  V30 6140 C 597.085 1.78822 -0.536617 0
M  V30 6141 C 597.436 1.71855 0.946594 0
M  V30 6142 O 596.561 1.28769 1.73918 0
M  V30 6143 C 597.156 3.24698 -0.967294 0
M  V30 6144 C 595.715 3.70147 -0.683251 0
M  V30 6145 C 594.862 2.51994 -1.15733 0
M  V30 6146 H 597.813 1.18308 -1.05777 0
M  V30 6147 H 597.834 3.79386 -0.290929 0
M  V30 6148 H 597.346 3.29737 -2.04683 0
M  V30 6149 H 595.447 3.70607 0.384825 0
M  V30 6150 H 595.56 4.62183 -1.2619 0
M  V30 6151 H 593.924 2.48078 -0.577024 0
M  V30 6152 H 594.707 2.59778 -2.24434 0
M  V30 6153 N 597.152 0.631951 1.44375 0
M  V30 6154 C 598.4 0.136497 2.01639 0
M  V30 6155 C 598.721 -1.24637 1.49969 0
M  V30 6156 O 597.991 -1.82827 0.70363 0
M  V30 6157 H 596.571 0.0474703 0.74549 0
M  V30 6158 H 599.233 0.818837 1.76865 0
M  V30 6159 H 598.329 0.104817 3.11924 0
M  V30 6160 N 598.631 -1.53133 0.372548 0
M  V30 6161 C 599.878 -2.01356 -0.214959 0
M  V30 6162 C 600.206 -1.2596 -1.48204 0
M  V30 6163 O 599.461 -0.343511 -1.92662 0
M  V30 6164 C 599.76 -3.53206 -0.545938 0
M  V30 6165 C 599.426 -4.46511 0.627624 0
M  V30 6166 C 598.088 -4.71737 0.949615 0
M  V30 6167 C 600.44 -5.01666 1.41353 0
M  V30 6168 C 597.768 -5.4937 2.05936 0
M  V30 6169 C 600.12 -5.80511 2.51375 0
M  V30 6170 C 598.784 -6.04022 2.84101 0
M  V30 6171 H 598.054 -0.736813 -0.078659 0
M  V30 6172 H 600.701 -1.84682 0.506447 0
M  V30 6173 H 599.006 -3.67864 -1.34845 0
M  V30 6174 H 600.703 -3.87997 -1.01287 0
M  V30 6175 H 597.293 -4.27029 0.366635 0
M  V30 6176 H 601.477 -4.82117 1.17802 0
M  V30 6177 H 596.733 -5.65803 2.31682 0
M  V30 6178 H 600.907 -6.22255 3.12684 0
M  V30 6179 H 598.534 -6.63962 3.70214 0
M  V30 6180 N 600.109 -0.101901 -1.5727 0
M  V30 6181 C 601.072 0.840129 -2.13247 0
M  V30 6182 C 602.072 1.20625 -1.06331 0
M  V30 6183 O 603.262 1.13456 -1.32186 0
M  V30 6184 C 600.394 2.13372 -2.65867 0
M  V30 6185 H 601.587 0.353945 -2.97804 0
M  V30 6186 H 599.14 0.147167 -1.55606 0
M  V30 6187 H 599.875 2.66461 -1.84849 0
M  V30 6188 H 599.66 1.88085 -3.44044 0
M  V30 6189 H 601.15 2.80748 -3.09145 0
M  V30 6190 N 601.587 1.56661 0.17182 0
M  V30 6191 C 602.517 1.99401 1.21498 0
M  V30 6192 C 603.498 0.869516 1.46197 0
M  V30 6193 O 604.683 1.13556 1.57539 0
M  V30 6194 C 601.813 2.35346 2.55401 0
M  V30 6195 C 600.767 3.5075 2.45272 0
M  V30 6196 C 600.093 3.72437 3.8366 0
M  V30 6197 C 601.393 4.84216 1.95787 0
M  V30 6198 H 603.087 2.86792 0.859699 0
M  V30 6199 H 600.633 1.37977 0.412103 0
M  V30 6200 H 602.586 2.63843 3.2858 0
M  V30 6201 H 601.31 1.44864 2.92715 0
M  V30 6202 H 599.969 3.2238 1.74547 0
M  V30 6203 H 599.617 2.79246 4.18367 0
M  V30 6204 H 599.317 4.50087 3.77751 0
M  V30 6205 H 600.841 4.03334 4.58426 0
M  V30 6206 H 602.255 5.11592 2.5874 0
M  V30 6207 H 600.652 5.65498 2.00827 0
M  V30 6208 H 601.722 4.76243 0.912159 0
M  V30 6209 N 603.065 -0.440357 1.51323 0
M  V30 6210 C 604.313 -1.18769 1.63518 0
M  V30 6211 C 604.634 -1.91793 0.352201 0
M  V30 6212 O 603.904 -1.85432 -0.631811 0
M  V30 6213 H 602.484 -0.441408 0.602634 0
M  V30 6214 H 605.146 -0.505162 1.8824 0
M  V30 6215 H 604.242 -1.91892 2.46138 0
M  V30 6216 N 604.543 -1.41418 -0.695603 0
M  V30 6217 C 605.473 -1.46035 -1.82197 0
M  V30 6218 C 606.454 -0.319025 -1.67082 0
M  V30 6219 O 607.639 -0.530462 -1.86815 0
M  V30 6220 C 604.769 -1.34179 -3.20333 0
M  V30 6221 C 603.723 -2.46123 -3.50154 0
M  V30 6222 C 603.049 -2.19332 -4.87645 0
M  V30 6223 C 604.349 -3.88463 -3.49133 0
M  V30 6224 H 606.043 -2.40303 -1.78591 0
M  V30 6225 H 603.589 -1.15663 -0.857797 0
M  V30 6226 H 605.542 -1.36021 -3.98844 0
M  V30 6227 H 604.266 -0.363952 -3.24566 0
M  V30 6228 H 602.925 -2.43563 -2.73994 0
M  V30 6229 H 602.573 -1.19891 -4.88503 0
M  V30 6230 H 602.273 -2.94344 -5.08562 0
M  V30 6231 H 603.797 -2.22889 -5.68465 0
M  V30 6232 H 605.211 -3.92738 -4.17648 0
M  V30 6233 H 603.608 -4.63158 -3.81582 0
M  V30 6234 H 604.678 -4.16617 -2.48109 0
M  V30 6235 N 606.021 0.929856 -1.27246 0
M  V30 6236 C 606.984 2.01172 -1.09829 0
M  V30 6237 C 607.984 1.60743 -0.0429687 0
M  V30 6238 O 609.174 1.71813 -0.287373 0
M  V30 6239 C 606.306 3.34191 -0.673003 0
M  V30 6240 H 607.499 2.18054 -2.05895 0
M  V30 6241 H 605.052 1.11036 -1.10003 0
M  V30 6242 H 605.787 3.23009 0.289134 0
M  V30 6243 H 605.572 3.64892 -1.43515 0
M  V30 6244 H 607.062 4.13646 -0.573323 0
M  V30 6245 N 607.499 1.09233 1.13605 0
M  V30 6246 C 608.429 0.751738 2.21068 0
M  V30 6247 C 609.41 -0.269688 1.67948 0
M  V30 6248 O 610.595 -0.13819 1.93708 0
M  V30 6249 C 607.725 0.16935 3.46887 0
M  V30 6250 C 606.679 1.12007 4.13084 0
M  V30 6251 C 606.005 0.399483 5.33206 0
M  V30 6252 C 607.305 2.46168 4.6065 0
M  V30 6253 H 608.999 1.65024 2.49815 0
M  V30 6254 H 606.545 0.794905 1.20072 0
M  V30 6255 H 608.498 -0.0809824 4.21322 0
M  V30 6256 H 607.222 -0.764335 3.1753 0
M  V30 6257 H 605.881 1.35564 3.40614 0
M  V30 6258 H 605.529 -0.538277 5.00112 0
M  V30 6259 H 605.229 1.03337 5.78442 0
M  V30 6260 H 606.753 0.157403 6.10397 0
M  V30 6261 H 608.167 2.26829 5.26518 0
M  V30 6262 H 606.564 3.05326 5.1662 0
M  V30 6263 H 607.634 3.07076 3.75276 0
M  V30 6264 N 608.977 -1.30795 0.87923 0
M  V30 6265 C 610.207 -2.00237 0.50881 0
M  V30 6266 C 610.615 -1.66115 -0.905682 0
M  V30 6267 O 609.958 -0.89138 -1.60624 0
M  V30 6268 C 610.02 -3.54508 0.597003 0
M  V30 6269 C 609.684 -4.12131 1.97477 0
M  V30 6270 C 610.681 -4.28552 2.94346 0
M  V30 6271 C 608.366 -4.47644 2.2786 0
M  V30 6272 C 610.36 -4.79689 4.19735 0
M  V30 6273 C 608.047 -4.98481 3.53496 0
M  V30 6274 C 609.045 -5.14456 4.49248 0
M  V30 6275 O 608.733 -5.64199 5.72656 0
M  V30 6276 H 608.465 -0.647026 0.195788 0
M  V30 6277 H 611.019 -1.67785 1.1848 0
M  V30 6278 H 609.249 -3.86461 -0.135945 0
M  V30 6279 H 610.938 -4.05198 0.238684 0
M  V30 6280 H 611.704 -4.01424 2.72183 0
M  V30 6281 H 607.583 -4.34481 1.54102 0
M  V30 6282 H 611.127 -4.92073 4.9448 0
M  V30 6283 H 607.024 -5.25044 3.75498 0
M  V30 6284 H 607.792 -5.82551 5.74957 0
M  V30 6285 N 610.455 -0.639598 -1.44038 0
M  V30 6286 C 611.68 -0.153117 -2.06834 0
M  V30 6287 C 612.105 1.16676 -1.47541 0
M  V30 6288 O 611.463 1.71769 -0.580093 0
M  V30 6289 C 611.511 -0.0609169 -3.60549 0
M  V30 6290 O 610.615 0.98071 -4.00569 0
M  V30 6291 H 609.956 -0.0886402 -0.658057 0
M  V30 6292 H 612.486 -0.878674 -1.84771 0
M  V30 6293 H 612.496 0.126892 -4.07803 0
M  V30 6294 H 611.171 -1.0245 -4.03084 0
M  V30 6295 H 609.748 0.766789 -3.64931 0
M  V30 6296 N 611.933 1.52934 -0.380664 0
M  V30 6297 C 613.161 2.05886 0.204599 0
M  V30 6298 C 613.576 1.25305 1.41223 0
M  V30 6299 O 612.933 0.297504 1.80059 0
M  V30 6300 C 612.984 3.56764 0.583249 0
M  V30 6301 O 612.705 4.34292 -0.576398 0
M  V30 6302 C 614.206 4.2603 1.2253 0
M  V30 6303 H 611.426 0.670193 0.0328991 0
M  V30 6304 H 613.97 1.97148 -0.543397 0
M  V30 6305 H 612.125 3.65603 1.28115 0
M  V30 6306 H 612.539 5.23819 -0.267119 0
M  V30 6307 H 614.013 5.32868 1.44068 0
M  V30 6308 H 614.49 3.80698 2.19011 0
M  V30 6309 H 615.096 4.21485 0.568407 0
M  V30 6310 N 613.412 0.11024 1.57214 0
M  V30 6311 C 614.828 -0.24638 1.57687 0
M  V30 6312 C 615.028 -1.67344 1.12241 0
M  V30 6313 O 614.084 -2.39298 0.805783 0
M  V30 6314 C 615.397 -0.0210288 3.00693 0
M  V30 6315 C 616.945 -0.0876077 3.12877 0
M  V30 6316 C 617.42 0.10994 4.57868 0
M  V30 6317 N 618.911 0.0556135 4.63167 0
M  V30 6318 C 619.646 0.183495 5.73106 0
M  V30 6319 N 619.142 0.367058 6.91827 0
M  V30 6320 N 620.935 0.123689 5.61964 0
M  V30 6321 H 613.086 1.04246 1.85058 0
M  V30 6322 H 615.349 0.40979 0.854854 0
M  V30 6323 H 615.055 0.965203 3.38196 0
M  V30 6324 H 614.929 -0.756748 3.69531 0
M  V30 6325 H 617.316 -1.06436 2.75237 0
M  V30 6326 H 617.397 0.67985 2.466 0
M  V30 6327 H 617.041 1.08362 4.96206 0
M  V30 6328 H 616.971 -0.677397 5.22225 0
M  V30 6329 H 619.462 -0.0831062 3.77809 0
M  V30 6330 H 619.775 0.455739 7.71455 0
M  V30 6331 H 618.12 0.40292 6.93831 0
M  V30 6332 H 621.311 -0.0186928 4.68096 0
M  V30 6333 H 621.484 0.226797 6.47603 0
M  V30 6334 N 614.89 -1.56749 -0.16351 0
M  V30 6335 C 616.139 -1.81626 -0.877211 0
M  V30 6336 C 616.452 -0.688791 -1.83071 0
M  V30 6337 O 617.658 -0.822697 -2.58735 0
M  V30 6338 C 616.114 -3.21858 -1.61045 0
M  V30 6339 C 615.722 -4.42494 -0.700195 0
M  V30 6340 C 617.466 -3.56021 -2.31192 0
M  V30 6341 C 615.373 -5.73748 -1.43412 0
M  V30 6342 H 614.303 -0.67731 -0.331312 0
M  V30 6343 H 616.954 -1.83039 -0.13006 0
M  V30 6344 H 615.336 -3.14784 -2.40264 0
M  V30 6345 H 616.51 -4.60766 0.0555849 0
M  V30 6346 H 614.825 -4.1626 -0.10799 0
M  V30 6347 H 617.422 -4.51333 -2.8671 0
M  V30 6348 H 617.765 -2.81277 -3.06902 0
M  V30 6349 H 618.298 -3.64682 -1.58909 0
M  V30 6350 H 615.037 -6.51543 -0.719186 0
M  V30 6351 H 614.557 -5.5944 -2.16302 0
M  V30 6352 H 616.236 -6.15975 -1.9795 0
M  V30 6353 N 616.368 0.432326 -1.51554 0
M  V30 6354 C 617.593 1.20824 -1.68571 0
M  V30 6355 C 618.018 1.84126 -0.384596 0
M  V30 6356 O 617.376 1.69025 0.655751 0
M  V30 6357 C 617.424 2.26429 -2.80646 0
M  V30 6358 O 616.528 3.32032 -2.44598 0
M  V30 6359 H 615.869 0.353765 -0.561913 0
M  V30 6360 H 618.399 0.509916 -1.98144 0
M  V30 6361 H 618.409 2.71133 -3.04878 0
M  V30 6362 H 617.084 1.79733 -3.75058 0
M  V30 6363 H 615.661 2.92769 -2.30956 0
M  V30 6364 N 617.846 1.41785 0.688094 0
M  V30 6365 C 619.071 1.45117 1.48175 0
M  V30 6366 C 619.496 0.060129 1.88004 0
M  V30 6367 O 618.854 -0.938385 1.55126 0
M  V30 6368 C 618.902 2.37224 2.71583 0
M  V30 6369 O 618.006 1.83443 3.69354 0
M  V30 6370 H 617.347 0.492208 0.445676 0
M  V30 6371 H 619.877 1.86329 0.845145 0
M  V30 6372 H 619.887 2.53353 3.19806 0
M  V30 6373 H 618.562 3.38293 2.41931 0
M  V30 6374 H 617.139 1.76802 3.28322 0
M  V30 6375 N 619.324 -0.923095 1.27737 0
M  V30 6376 C 620.554 -1.70277 1.17001 0
M  V30 6377 C 620.962 -1.87188 -0.275199 0
M  V30 6378 O 620.305 -1.39195 -1.19877 0
M  V30 6379 C 620.367 -3.11976 1.78637 0
M  V30 6380 C 620.031 -3.18386 3.27841 0
M  V30 6381 C 621.028 -3.00287 4.2441 0
M  V30 6382 C 618.713 -3.41198 3.68632 0
M  V30 6383 C 620.707 -3.04896 5.59747 0
M  V30 6384 C 618.394 -3.4544 5.04097 0
M  V30 6385 C 619.392 -3.27309 5.99465 0
M  V30 6386 O 619.08 -3.31295 7.32461 0
M  V30 6387 H 618.812 -0.539366 0.407505 0
M  V30 6388 H 621.366 -1.16446 1.69202 0
M  V30 6389 H 619.596 -3.67308 1.20919 0
M  V30 6390 H 621.285 -3.7193 1.6255 0
M  V30 6391 H 622.051 -2.825 3.94232 0
M  V30 6392 H 617.93 -3.54359 2.94873 0
M  V30 6393 H 621.474 -2.90662 6.34162 0
M  V30 6394 H 617.371 -3.62753 5.33929 0
M  V30 6395 H 618.139 -3.47719 7.40968 0
M  V30 6396 N 620.802 -1.09834 -1.13024 0
M  V30 6397 C 621.712 -0.753731 -2.22162 0
M  V30 6398 C 622.728 0.246105 -1.72251 0
M  V30 6399 O 623.904 0.0864051 -2.01215 0
M  V30 6400 C 620.969 -0.183958 -3.46212 0
M  V30 6401 C 620.03 -1.24028 -4.10993 0
M  V30 6402 C 619.263 -0.697597 -5.29121 0
M  V30 6403 O 619.486 0.478092 -5.68393 0
M  V30 6404 O 618.42 -1.4546 -5.84059 0
M  V30 6405 H 622.246 -1.66456 -2.5402 0
M  V30 6406 H 619.831 -0.873026 -1.21238 0
M  V30 6407 H 621.713 0.130257 -4.21199 0
M  V30 6408 H 620.388 0.699823 -3.16045 0
M  V30 6409 H 619.295 -1.60725 -3.37814 0
M  V30 6410 H 620.628 -2.09685 -4.45301 0
M  V30 6411 N 622.28 1.30327 -0.886154 0
M  V30 6412 C 623.505 2.0079 -0.519425 0
M  V30 6413 C 623.93 1.65979 0.885013 0
M  V30 6414 O 623.288 0.877043 1.58675 0
M  V30 6415 C 623.336 3.53686 -0.702758 0
M  V30 6416 O 622.44 4.11637 0.250828 0
M  V30 6417 H 621.781 0.63171 -0.204544 0
M  V30 6418 H 624.311 1.66145 -1.19402 0
M  V30 6419 H 624.321 4.03531 -0.602207 0
M  V30 6420 H 622.996 3.78361 -1.72673 0
M  V30 6421 H 621.573 3.72755 0.103873 0
M  V30 6422 N 623.758 0.647228 1.43697 0
M  V30 6423 C 625.007 0.155552 2.01099 0
M  V30 6424 C 625.32 -1.23569 1.51624 0
M  V30 6425 O 626.526 -1.82226 2.01261 0
M  V30 6426 C 624.982 0.227296 3.59182 0
M  V30 6427 C 624.59 1.62086 4.17651 0
M  V30 6428 C 626.334 -0.207085 4.23995 0
M  V30 6429 C 624.241 1.64685 5.68008 0
M  V30 6430 H 623.171 0.0543895 0.752036 0
M  V30 6431 H 625.822 0.808386 1.64734 0
M  V30 6432 H 624.204 -0.492937 3.9292 0
M  V30 6433 H 625.378 2.36597 3.95422 0
M  V30 6434 H 623.693 2.0007 3.65186 0
M  V30 6435 H 626.29 -0.207426 5.34298 0
M  V30 6436 H 626.633 -1.23742 3.97484 0
M  V30 6437 H 627.166 0.461193 3.95118 0
M  V30 6438 H 623.905 2.65608 5.99277 0
M  V30 6439 H 623.425 0.944914 5.9231 0
M  V30 6440 H 625.104 1.38792 6.31938 0
M  V30 6441 N 625.236 -1.5273 0.388769 0
M  V30 6442 C 626.184 -2.27975 -0.461527 0
M  V30 6443 C 627.178 -1.31854 -1.06352 0
M  V30 6444 O 628.384 -1.49394 -1.00406 0
M  V30 6445 H 624.759 -0.733088 -0.16759 0
M  V30 6446 H 626.73 -2.97765 0.194579 0
M  V30 6447 C 625.479 -3.09881 -1.577 0
M  V30 6448 H 624.802 -3.83701 -1.12309 0
M  V30 6449 H 626.242 -3.6567 -2.14619 0
M  V30 6450 C 624.701 -2.22159 -2.53272 0
M  V30 6451 O 625.231 -1.84802 -3.56667 0
M  V30 6452 N 623.437 -1.8633 -2.23001 0
M  V30 6453 H 622.984 -2.16909 -1.38954 0
M  V30 6454 H 622.942 -1.27927 -2.87197 0
M  V30 6455 N 626.714 -0.118576 -1.57153 0
M  V30 6456 C 627.939 0.550582 -1.99958 0
M  V30 6457 C 628.364 1.59458 -0.997736 0
M  V30 6458 O 627.722 1.81274 0.0306269 0
M  V30 6459 C 627.77 1.15379 -3.41643 0
M  V30 6460 O 626.874 2.26932 -3.44348 0
M  V30 6461 H 626.215 0.137567 -0.649593 0
M  V30 6462 H 628.745 -0.206926 -2.03551 0
M  V30 6463 H 628.755 1.48942 -3.79843 0
M  V30 6464 H 627.43 0.389087 -4.14076 0
M  V30 6465 H 626.007 1.94812 -3.17967 0
M  V30 6466 N 628.193 1.56834 0.155195 0
M  V30 6467 C 629.103 2.009 1.21146 0
M  V30 6468 C 630.119 0.923029 1.475 0
M  V30 6469 O 631.295 1.23189 1.59331 0
M  V30 6470 C 628.36 2.37378 2.52691 0
M  V30 6471 C 627.421 3.59883 2.34057 0
M  V30 6472 C 626.654 3.94612 3.59329 0
M  V30 6473 O 626.877 3.30104 4.65175 0
M  V30 6474 O 625.811 4.87895 3.52479 0
M  V30 6475 H 629.637 2.9105 0.867371 0
M  V30 6476 H 627.222 1.44916 0.363298 0
M  V30 6477 H 629.104 2.61737 3.3026 0
M  V30 6478 H 627.779 1.50385 2.86646 0
M  V30 6479 H 626.686 3.40722 1.54465 0
M  V30 6480 H 628.019 4.47468 2.0502 0
M  V30 6481 N 629.671 -0.424282 1.51781 0
M  V30 6482 C 630.619 -1.53649 1.74628 0
M  V30 6483 C 631.613 -1.57923 0.612922 0
M  V30 6484 O 632.819 -1.61511 0.794618 0
M  V30 6485 H 629.194 -0.510706 0.551981 0
M  V30 6486 H 631.165 -1.31558 2.67834 0
M  V30 6487 C 629.914 -2.91177 1.9003 0
M  V30 6488 H 629.237 -2.88625 2.76651 0
M  V30 6489 H 630.677 -3.6833 2.10021 0
M  V30 6490 C 629.136 -3.30303 0.663435 0
M  V30 6491 O 629.666 -4.01315 -0.175812 0
M  V30 6492 N 627.872 -2.86201 0.503723 0
M  V30 6493 H 627.419 -2.28583 1.18776 0
M  V30 6494 H 627.377 -3.12741 -0.322575 0
M  V30 6495 N 631.149 -1.42148 -0.680565 0
M  V30 6496 C 632.397 -1.42029 -1.43779 0
M  V30 6497 C 632.718 -0.0356347 -1.94967 0
M  V30 6498 O 631.988 0.924936 -1.7269 0
M  V30 6499 H 630.568 -0.522835 -0.533529 0
M  V30 6500 H 633.23 -1.7752 -0.804538 0
M  V30 6501 H 632.326 -2.11658 -2.29363 0
M  V30 6502 N 632.627 0.916307 -1.28225 0
M  V30 6503 C 634.043 1.19425 -1.05876 0
M  V30 6504 C 634.243 2.005 0.2005 0
M  V30 6505 O 633.299 2.35806 0.902873 0
M  V30 6506 C 634.612 1.93133 -2.30478 0
M  V30 6507 C 636.16 2.06026 -2.35632 0
M  V30 6508 C 636.635 2.83141 -3.59994 0
M  V30 6509 N 638.126 2.90704 -3.60618 0
M  V30 6510 C 638.861 3.50865 -4.53521 0
M  V30 6511 N 638.357 4.12327 -5.56739 0
M  V30 6512 N 640.15 3.48379 -4.41122 0
M  V30 6513 H 632.301 0.37496 -2.09064 0
M  V30 6514 H 634.564 0.228531 -0.920042 0
M  V30 6515 H 634.27 1.40985 -3.22205 0
M  V30 6516 H 634.144 2.93696 -2.36691 0
M  V30 6517 H 636.531 2.57355 -1.44404 0
M  V30 6518 H 636.612 1.04647 -2.33415 0
M  V30 6519 H 636.256 2.32492 -4.51564 0
M  V30 6520 H 636.186 3.84829 -3.59464 0
M  V30 6521 H 638.677 2.47034 -2.85977 0
M  V30 6522 H 638.99 4.56205 -6.23776 0
M  V30 6523 H 637.335 4.10839 -5.60568 0
M  V30 6524 H 640.526 2.99572 -3.59686 0
M  V30 6525 H 640.699 3.94974 -5.13712 0
M  V30 6526 N 634.105 1.10431 1.1244 0
M  V30 6527 C 635.353 0.845045 1.83585 0
M  V30 6528 C 635.674 -0.631168 1.84503 0
M  V30 6529 O 634.944 -1.45825 1.30813 0
M  V30 6530 H 633.524 0.309628 0.679809 0
M  V30 6531 H 636.186 1.39458 1.36153 0
M  V30 6532 H 635.282 1.20786 2.8778 0
M  V30 6533 N 635.583 -1.29855 0.893053 0
M  V30 6534 C 636.829 -1.96488 0.52574 0
M  V30 6535 C 637.184 -1.69164 -0.916594 0
M  V30 6536 O 636.477 -0.990405 -1.64017 0
M  V30 6537 C 636.671 -3.49515 0.746588 0
M  V30 6538 C 636.5 -3.91715 2.20884 0
M  V30 6539 C 635.27 -4.16915 2.85499 0
M  V30 6540 C 637.468 -4.03934 3.18342 0
M  V30 6541 N 635.45 -4.45634 4.22236 0
M  V30 6542 C 636.821 -4.36629 4.40176 0
M  V30 6543 C 638.876 -3.86387 3.14021 0
M  V30 6544 C 637.579 -4.53605 5.58243 0
M  V30 6545 C 639.605 -4.04569 4.31367 0
M  V30 6546 C 638.967 -4.37617 5.5197 0
M  V30 6547 H 635.066 -0.743657 0.241863 0
M  V30 6548 H 637.65 -1.56927 1.15248 0
M  V30 6549 H 635.821 -3.88113 0.149281 0
M  V30 6550 H 637.553 -4.03224 0.345372 0
M  V30 6551 H 634.308 -4.10423 2.36326 0
M  V30 6552 H 634.732 -4.64114 4.92876 0
M  V30 6553 H 639.374 -3.59906 2.21873 0
M  V30 6554 H 637.092 -4.78925 6.50889 0
M  V30 6555 H 640.678 -3.92452 4.29503 0
M  V30 6556 H 639.558 -4.51395 6.41258 0
M  V30 6557 N 637.061 -0.65484 -1.43351 0
M  V30 6558 C 638.291 -0.176429 -2.05845 0
M  V30 6559 C 638.699 1.16375 -1.49176 0
M  V30 6560 O 638.042 1.72981 -0.618322 0
M  V30 6561 C 638.104 -0.0125844 -3.59498 0
M  V30 6562 C 637.768 -1.27831 -4.38758 0
M  V30 6563 C 638.765 -2.2074 -4.70712 0
M  V30 6564 C 636.45 -1.52035 -4.78739 0
M  V30 6565 C 638.444 -3.36145 -5.41558 0
M  V30 6566 C 636.131 -2.67732 -5.49329 0
M  V30 6567 C 637.129 -3.59612 -5.80662 0
M  V30 6568 O 636.817 -4.73289 -6.4981 0
M  V30 6569 H 636.549 -0.0879682 -0.670252 0
M  V30 6570 H 639.103 -0.896193 -1.84818 0
M  V30 6571 H 637.333 0.762567 -3.79107 0
M  V30 6572 H 639.022 0.423392 -4.03686 0
M  V30 6573 H 639.788 -2.03284 -4.40341 0
M  V30 6574 H 635.667 -0.813987 -4.53757 0
M  V30 6575 H 639.211 -4.07881 -5.65932 0
M  V30 6576 H 635.108 -2.85122 -5.79116 0
M  V30 6577 H 635.876 -4.72575 -6.68293 0
M  V30 6578 N 638.539 1.52521 -0.396863 0
M  V30 6579 C 639.767 2.06091 0.18275 0
M  V30 6580 C 640.182 1.26796 1.39886 0
M  V30 6581 O 639.539 0.316585 1.79733 0
M  V30 6582 C 639.59 3.57362 0.545377 0
M  V30 6583 O 639.311 4.33656 -0.622428 0
M  V30 6584 C 640.812 4.27305 1.18004 0
M  V30 6585 H 638.032 0.670504 0.025789 0
M  V30 6586 H 640.576 1.96561 -0.564276 0
M  V30 6587 H 638.731 3.66941 1.2423 0
M  V30 6588 H 639.145 5.23507 -0.322662 0
M  V30 6589 H 640.619 5.34366 1.38408 0
M  V30 6590 H 641.096 3.83 2.1496 0
M  V30 6591 H 641.702 4.22064 0.523671 0
M  V30 6592 N 640.017 0.126909 1.57088 0
M  V30 6593 C 641.265 -0.528123 1.95078 0
M  V30 6594 C 641.586 -1.66708 1.0116 0
M  V30 6595 O 640.856 -1.95777 0.0693527 0
M  V30 6596 H 639.436 -0.198087 0.720257 0
M  V30 6597 H 642.098 0.197703 1.93895 0
M  V30 6598 H 641.194 -0.917507 2.98309 0
M  V30 6599 N 641.495 -1.56914 -0.146875 0
M  V30 6600 C 642.458 -1.97368 -1.16526 0
M  V30 6601 C 643.458 -0.860223 -1.35856 0
M  V30 6602 O 644.648 -1.12684 -1.32846 0
M  V30 6603 C 641.78 -2.28974 -2.52555 0
M  V30 6604 H 642.973 -2.88523 -0.818209 0
M  V30 6605 H 640.526 -1.5135 -0.390221 0
M  V30 6606 H 641.261 -1.40611 -2.92231 0
M  V30 6607 H 641.046 -3.10157 -2.39886 0
M  V30 6608 H 642.536 -2.61109 -3.25902 0
M  V30 6609 N 642.974 0.416227 -1.52004 0
M  V30 6610 C 644.222 1.16153 -1.65387 0
M  V30 6611 C 644.543 1.91208 -0.382669 0
M  V30 6612 O 643.813 1.86413 0.602231 0
M  V30 6613 H 642.393 0.431765 -0.60958 0
M  V30 6614 H 645.055 0.475151 -1.89019 0
M  V30 6615 H 644.151 1.87952 -2.4916 0
M  V30 6616 N 644.452 1.42507 0.673017 0
M  V30 6617 C 645.415 1.4582 1.76831 0
M  V30 6618 C 646.415 0.345542 1.57043 0
M  V30 6619 O 647.605 0.606447 1.63303 0
M  V30 6620 C 644.737 1.29158 3.15485 0
M  V30 6621 H 645.93 2.43345 1.7528 0
M  V30 6622 H 643.483 1.28981 0.882817 0
M  V30 6623 H 644.218 0.325626 3.22661 0
M  V30 6624 H 644.003 2.09797 3.31252 0
M  V30 6625 H 645.493 1.34363 3.95394 0
M  V30 6626 N 645.93 -0.909495 1.28709 0
M  V30 6627 C 647.158 -1.69272 1.18973 0
M  V30 6628 C 647.573 -1.87123 -0.251048 0
M  V30 6629 O 646.93 -1.40127 -1.16922 0
M  V30 6630 C 646.981 -3.08257 1.88839 0
M  V30 6631 O 646.702 -2.91228 3.27289 0
M  V30 6632 C 648.203 -4.02642 1.85457 0
M  V30 6633 H 645.423 -0.528999 0.412797 0
M  V30 6634 H 647.967 -1.13803 1.69909 0
M  V30 6635 H 646.122 -3.6053 1.41762 0
M  V30 6636 H 646.536 -3.79223 3.6234 0
M  V30 6637 H 648.01 -4.97613 2.38925 0
M  V30 6638 H 648.487 -4.31327 0.827893 0
M  V30 6639 H 649.093 -3.56298 2.32233 0
M  V30 6640 N 647.408 -1.11026 -1.11852 0
M  V30 6641 C 648.638 -0.877544 -1.87037 0
M  V30 6642 C 649.046 0.575925 -1.80221 0
M  V30 6643 O 648.389 1.40916 -1.17849 0
M  V30 6644 C 648.451 -1.25529 -3.36872 0
M  V30 6645 C 648.115 -2.71704 -3.67459 0
M  V30 6646 C 649.112 -3.69931 -3.65304 0
M  V30 6647 C 646.797 -3.08243 -3.966 0
M  V30 6648 C 648.791 -5.02717 -3.9186 0
M  V30 6649 C 646.478 -4.41215 -4.22815 0
M  V30 6650 C 647.476 -5.38262 -4.20432 0
M  V30 6651 O 647.164 -6.68839 -4.45992 0
M  V30 6652 H 646.896 -0.314374 -0.598452 0
M  V30 6653 H 649.45 -1.48015 -1.42411 0
M  V30 6654 H 647.68 -0.595808 -3.82082 0
M  V30 6655 H 649.369 -0.999064 -3.93413 0
M  V30 6656 H 650.135 -3.43047 -3.42846 0
M  V30 6657 H 646.014 -2.33326 -3.97593 0
M  V30 6658 H 649.558 -5.78456 -3.89916 0
M  V30 6659 H 645.455 -4.67835 -4.44748 0
M  V30 6660 H 646.223 -6.74563 -4.63581 0
M  V30 6661 N 648.886 1.2938 -0.899927 0
M  V30 6662 C 649.816 2.30144 -0.39446 0
M  V30 6663 C 650.797 1.61611 0.530639 0
M  V30 6664 O 651.982 1.89119 0.441319 0
M  V30 6665 C 649.112 3.45229 0.37868 0
M  V30 6666 C 648.066 4.25564 -0.456012 0
M  V30 6667 C 647.392 5.32848 0.444637 0
M  V30 6668 C 648.692 4.93651 -1.70605 0
M  V30 6669 H 650.386 2.72673 -1.23653 0
M  V30 6670 H 647.932 1.31086 -0.596034 0
M  V30 6671 H 649.885 4.14797 0.743037 0
M  V30 6672 H 648.609 3.01545 1.25453 0
M  V30 6673 H 647.268 3.57704 -0.802704 0
M  V30 6674 H 646.916 4.85408 1.31863 0
M  V30 6675 H 646.616 5.87497 -0.110154 0
M  V30 6676 H 648.14 6.05268 0.805182 0
M  V30 6677 H 649.554 5.55655 -1.41141 0
M  V30 6678 H 647.951 5.58233 -2.20217 0
M  V30 6679 H 649.021 4.18926 -2.4419 0
M  V30 6680 N 650.364 0.662433 1.43002 0
M  V30 6681 C 651.594 0.187343 2.05749 0
M  V30 6682 C 652.002 -1.15582 1.49791 0
M  V30 6683 O 651.345 -1.72651 0.627487 0
M  V30 6684 C 651.407 0.0316493 3.59486 0
M  V30 6685 C 651.071 1.30156 4.38073 0
M  V30 6686 C 652.068 2.23234 4.69535 0
M  V30 6687 C 649.753 1.54572 4.77926 0
M  V30 6688 C 651.747 3.39012 5.39768 0
M  V30 6689 C 649.434 2.70641 5.47902 0
M  V30 6690 C 650.432 3.62687 5.78746 0
M  V30 6691 O 650.12 4.76728 6.47291 0
M  V30 6692 H 649.852 0.0915214 0.669776 0
M  V30 6693 H 652.406 0.905982 1.8434 0
M  V30 6694 H 650.636 -0.742451 3.79506 0
M  V30 6695 H 652.325 -0.401977 4.03905 0
M  V30 6696 H 653.091 2.05616 4.39257 0
M  V30 6697 H 648.97 0.83804 4.53319 0
M  V30 6698 H 652.514 4.10877 5.63761 0
M  V30 6699 H 648.411 2.88189 5.77596 0
M  V30 6700 H 649.179 4.76113 6.65777 0
M  V30 6701 N 651.842 -1.52309 0.404946 0
M  V30 6702 C 652.79 -2.28452 -0.437321 0
M  V30 6703 C 653.784 -1.32975 -1.04948 0
M  V30 6704 O 654.99 -1.50451 -0.988159 0
M  V30 6705 H 651.365 -0.734824 -0.159805 0
M  V30 6706 H 653.336 -2.97542 0.22615 0
M  V30 6707 C 652.085 -3.11536 -1.54404 0
M  V30 6708 H 651.408 -3.84871 -1.08233 0
M  V30 6709 H 652.848 -3.67926 -2.10729 0
M  V30 6710 C 651.307 -2.24833 -2.50902 0
M  V30 6711 O 651.837 -1.88574 -3.54687 0
M  V30 6712 N 650.043 -1.88685 -2.21012 0
M  V30 6713 H 649.59 -2.18371 -1.36646 0
M  V30 6714 H 649.548 -1.30966 -2.85824 0
M  V30 6715 N 653.32 -0.135238 -1.57019 0
M  V30 6716 C 654.252 0.839675 -2.13265 0
M  V30 6717 C 655.265 1.21887 -1.07923 0
M  V30 6718 O 656.454 1.16499 -1.35241 0
M  V30 6719 C 653.554 2.13647 -2.63075 0
M  V30 6720 C 652.727 1.92646 -3.92691 0
M  V30 6721 C 651.786 3.06205 -4.27931 0
M  V30 6722 O 650.812 2.78409 -4.96465 0
M  V30 6723 N 652.014 4.33072 -3.86561 0
M  V30 6724 H 654.779 0.359026 -2.97542 0
M  V30 6725 H 652.34 0.0486979 -1.61827 0
M  V30 6726 H 654.332 2.88641 -2.8367 0
M  V30 6727 H 652.902 2.5301 -1.83588 0
M  V30 6728 H 652.122 1.01754 -3.80841 0
M  V30 6729 H 653.41 1.75939 -4.77413 0
M  V30 6730 H 652.808 4.58526 -3.31316 0
M  V30 6731 H 651.365 5.04885 -4.12231 0
M  V30 6732 N 654.798 1.5699 0.138552 0
M  V30 6733 C 656.075 1.74741 0.87891 0
M  V30 6734 C 656.455 0.705522 1.98961 0
M  V30 6735 O 655.803 -0.274066 2.2685 0
M  V30 6736 C 656.013 3.1909 1.4136 0
M  V30 6737 C 657.361 3.81023 1.87368 0
M  V30 6738 O 658.385 3.22571 1.51084 0
M  V30 6739 O 657.244 4.83722 2.54312 0
M  V30 6740 H 654.338 0.714781 0.415953 0
M  V30 6741 H 656.884 1.69248 0.123817 0
M  V30 6742 H 655.656 3.86424 0.61579 0
M  V30 6743 H 655.279 3.29043 2.23196 0
M  V30 6744 N 656.276 -0.40816 1.52223 0
M  V30 6745 C 657.206 -1.5042 1.78595 0
M  V30 6746 C 658.187 -1.57723 0.636974 0
M  V30 6747 O 659.372 -1.72982 0.882664 0
M  V30 6748 C 656.502 -2.88232 1.93751 0
M  V30 6749 C 655.456 -2.95779 3.09352 0
M  V30 6750 C 654.782 -4.35855 3.09732 0
M  V30 6751 C 656.082 -2.67175 4.48793 0
M  V30 6752 H 657.776 -1.28601 2.70374 0
M  V30 6753 H 655.322 -0.617221 1.30101 0
M  V30 6754 H 657.275 -3.64895 2.10783 0
M  V30 6755 H 655.999 -3.11347 0.986443 0
M  V30 6756 H 654.658 -2.21561 2.92072 0
M  V30 6757 H 654.306 -4.55981 2.12346 0
M  V30 6758 H 654.006 -4.41829 3.87377 0
M  V30 6759 H 655.53 -5.14451 3.28895 0
M  V30 6760 H 656.944 -3.3356 4.66273 0
M  V30 6761 H 655.341 -2.84523 5.28362 0
M  V30 6762 H 656.411 -1.62609 4.56822 0
M  V30 6763 N 657.755 -1.42862 -0.66545 0
M  V30 6764 C 658.718 -1.46756 -1.76055 0
M  V30 6765 C 659.718 -0.353866 -1.56858 0
M  V30 6766 O 660.908 -0.615099 -1.62979 0
M  V30 6767 C 658.04 -1.30829 -3.14796 0
M  V30 6768 H 659.233 -2.44271 -1.73987 0
M  V30 6769 H 656.786 -1.29447 -0.875965 0
M  V30 6770 H 657.521 -0.342733 -3.22484 0
M  V30 6771 H 657.306 -2.11551 -3.30134 0
M  V30 6772 H 658.796 -1.36458 -3.94676 0
M  V30 6773 N 659.233 0.902656 -1.29189 0
M  V30 6774 C 660.165 2.01149 -1.09872 0
M  V30 6775 C 661.178 1.62732 -0.0471046 0
M  V30 6776 O 662.367 1.76107 -0.29132 0
M  V30 6777 C 659.467 3.32612 -0.649818 0
M  V30 6778 C 658.64 3.99574 -1.7793 0
M  V30 6779 C 657.699 5.09325 -1.32191 0
M  V30 6780 O 656.725 5.31919 -2.02611 0
M  V30 6781 N 657.927 5.80185 -0.191171 0
M  V30 6782 H 660.692 2.18276 -2.05368 0
M  V30 6783 H 658.253 1.07466 -1.2109 0
M  V30 6784 H 660.245 4.03375 -0.327199 0
M  V30 6785 H 658.815 3.11876 0.212597 0
M  V30 6786 H 658.035 3.22213 -2.27095 0
M  V30 6787 H 659.323 4.41056 -2.53668 0
M  V30 6788 H 658.721 5.64312 0.396016 0
M  V30 6789 H 657.278 6.5176 0.0721001 0
M  V30 6790 N 660.711 1.11618 1.11262 0
M  V30 6791 C 661.941 0.88745 1.86569 0
M  V30 6792 C 662.349 -0.56636 1.80524 0
M  V30 6793 O 661.692 -1.40289 1.18594 0
M  V30 6794 C 661.754 1.27313 3.36202 0
M  V30 6795 C 661.418 2.73649 3.66013 0
M  V30 6796 C 662.415 3.71863 3.63337 0
M  V30 6797 C 660.1 3.10342 3.9496 0
M  V30 6798 C 662.094 5.04788 3.89188 0
M  V30 6799 C 659.781 4.43451 4.20469 0
M  V30 6800 C 660.779 5.40484 4.17572 0
M  V30 6801 O 660.467 6.71195 4.42439 0
M  V30 6802 H 660.199 0.317543 0.596777 0
M  V30 6803 H 662.753 1.48768 1.41624 0
M  V30 6804 H 660.983 0.616062 3.81761 0
M  V30 6805 H 662.672 1.01991 3.92877 0
M  V30 6806 H 663.438 3.44861 3.41022 0
M  V30 6807 H 659.317 2.35431 3.9635 0
M  V30 6808 H 662.861 5.80516 3.86842 0
M  V30 6809 H 658.758 4.70187 4.42261 0
M  V30 6810 H 659.526 6.77012 4.59997 0
M  V30 6811 N 662.189 -1.289 0.906776 0
M  V30 6812 C 663.414 -1.99939 0.551303 0
M  V30 6813 C 663.839 -1.67366 -0.858496 0
M  V30 6814 O 663.197 -0.902176 -1.57259 0
M  V30 6815 C 663.245 -3.52523 0.758937 0
M  V30 6816 O 662.349 -4.11983 -0.185308 0
M  V30 6817 H 661.69 -0.628376 0.214568 0
M  V30 6818 H 664.22 -1.64225 1.2203 0
M  V30 6819 H 664.23 -4.02522 0.666329 0
M  V30 6820 H 662.905 -3.75566 1.78671 0
M  V30 6821 H 661.482 -3.72873 -0.0445577 0
M  V30 6822 N 663.667 -0.670007 -1.42649 0
M  V30 6823 C 664.577 0.0114788 -2.34597 0
M  V30 6824 C 665.593 0.794055 -1.54825 0
M  V30 6825 O 666.769 0.737472 -1.87412 0
M  V30 6826 C 663.834 0.954436 -3.33304 0
M  V30 6827 C 662.895 0.166925 -4.28975 0
M  V30 6828 C 662.128 1.06497 -5.22967 0
M  V30 6829 O 662.351 2.30446 -5.21777 0
M  V30 6830 O 661.285 0.528347 -5.99577 0
M  V30 6831 H 665.111 -0.745794 -2.944 0
M  V30 6832 H 662.696 -0.430228 -1.43071 0
M  V30 6833 H 664.578 1.49589 -3.93956 0
M  V30 6834 H 663.253 1.69164 -2.7598 0
M  V30 6835 H 662.16 -0.418515 -3.71752 0
M  V30 6836 H 663.493 -0.531067 -4.89327 0
M  V30 6837 N 665.145 1.52092 -0.413018 0
M  V30 6838 C 666.422 1.94356 0.22024 0
M  V30 6839 C 666.802 1.35017 1.62277 0
M  V30 6840 O 666.15 0.527511 2.22328 0
M  V30 6841 C 666.36 3.48289 0.222638 0
M  V30 6842 C 667.708 4.22313 0.440098 0
M  V30 6843 O 668.732 3.54919 0.301826 0
M  V30 6844 O 667.591 5.41829 0.712984 0
M  V30 6845 H 664.685 0.814536 0.14304 0
M  V30 6846 H 667.231 1.63083 -0.469242 0
M  V30 6847 H 666.003 3.83872 -0.758836 0
M  V30 6848 H 665.626 3.85934 0.956057 0
M  V30 6849 N 666.623 0.143563 1.56945 0
M  V30 6850 C 667.853 -0.514699 2.00086 0
M  V30 6851 C 668.261 -1.59184 1.0226 0
M  V30 6852 O 667.604 -1.83697 0.0110514 0
M  V30 6853 C 667.666 -1.17778 3.39659 0
M  V30 6854 C 667.33 -0.245657 4.56339 0
M  V30 6855 C 668.327 0.525343 5.17239 0
M  V30 6856 C 666.012 -0.149564 5.02077 0
M  V30 6857 C 668.006 1.37992 6.22284 0
M  V30 6858 C 665.693 0.708621 6.06978 0
M  V30 6859 C 666.691 1.47197 6.6695 0
M  V30 6860 O 666.379 2.31586 7.6982 0
M  V30 6861 H 666.111 -0.138789 0.661599 0
M  V30 6862 H 668.665 0.234098 2.04062 0
M  V30 6863 H 666.895 -1.97415 3.32512 0
M  V30 6864 H 668.584 -1.73542 3.6693 0
M  V30 6865 H 669.35 0.461118 4.82803 0
M  V30 6866 H 665.229 -0.733457 4.55128 0
M  V30 6867 H 668.773 1.97621 6.69023 0
M  V30 6868 H 664.67 0.77415 6.40841 0
M  V30 6869 H 665.438 2.24796 7.87025 0
M  V30 6870 N 668.101 -1.57061 -0.130224 0
M  V30 6871 C 669.347 -1.85412 -0.836295 0
M  V30 6872 C 669.702 -0.729831 -1.7802 0
M  V30 6873 O 668.995 0.271021 -1.89673 0
M  V30 6874 C 669.189 -3.17878 -1.63365 0
M  V30 6875 C 669.018 -4.43086 -0.768453 0
M  V30 6876 C 667.788 -5.03488 -0.427598 0
M  V30 6877 C 669.986 -5.14219 -0.0911495 0
M  V30 6878 N 667.968 -6.12253 0.449439 0
M  V30 6879 C 669.339 -6.16632 0.645341 0
M  V30 6880 C 671.394 -4.97898 -0.0135625 0
M  V30 6881 C 670.097 -7.0449 1.45212 0
M  V30 6882 C 672.123 -5.86234 0.780001 0
M  V30 6883 C 671.485 -6.88141 1.50472 0
M  V30 6884 H 667.584 -0.728875 -0.283311 0
M  V30 6885 H 670.168 -1.9444 -0.100662 0
M  V30 6886 H 668.339 -3.09967 -2.3404 0
M  V30 6887 H 670.071 -3.34076 -2.28419 0
M  V30 6888 H 666.826 -4.67344 -0.767264 0
M  V30 6889 H 667.25 -6.71263 0.879476 0
M  V30 6890 H 671.892 -4.19082 -0.559511 0
M  V30 6891 H 669.61 -7.82722 2.00926 0
M  V30 6892 H 673.196 -5.75671 0.842246 0
M  V30 6893 H 672.076 -7.55311 2.1089 0
M  V30 6894 N 669.579 0.400081 -1.52437 0
M  V30 6895 C 670.99 0.97851 -1.59003 0
M  V30 6896 C 671.341 1.91293 -0.436068 0
M  V30 6897 O 670.466 2.1183 0.442365 0
M  V30 6898 C 671.061 1.78145 -2.88184 0
M  V30 6899 C 669.62 2.30976 -2.97199 0
M  V30 6900 C 668.767 1.11212 -2.54022 0
M  V30 6901 H 671.718 0.180002 -1.57676 0
M  V30 6902 H 671.739 2.63968 -2.74046 0
M  V30 6903 H 671.251 1.1011 -3.72152 0
M  V30 6904 H 669.352 3.02355 -2.17744 0
M  V30 6905 H 669.465 2.61221 -4.01622 0
M  V30 6906 H 667.829 1.46882 -2.08081 0
M  V30 6907 H 668.612 0.447307 -3.40373 0
M  V30 6908 N 671.057 1.43213 0.657864 0
M  V30 6909 C 672.285 1.48015 1.44566 0
M  V30 6910 C 672.7 0.0965951 1.88553 0
M  V30 6911 O 672.057 -0.892221 1.59203 0
M  V30 6912 C 672.108 2.42199 2.68369 0
M  V30 6913 O 671.829 3.75173 2.26223 0
M  V30 6914 C 673.33 2.56195 3.61772 0
M  V30 6915 H 670.55 0.502861 0.444266 0
M  V30 6916 H 673.094 1.87907 0.806917 0
M  V30 6917 H 671.249 2.05514 3.28394 0
M  V30 6918 H 671.663 4.25776 3.06293 0
M  V30 6919 H 673.137 3.26182 4.4532 0
M  V30 6920 H 673.614 1.60534 4.0881 0
M  V30 6921 H 674.22 2.93671 3.07632 0
M  V30 6922 N 672.536 -0.895792 1.29666 0
M  V30 6923 C 673.782 -1.64908 1.18039 0
M  V30 6924 C 674.115 -1.9236 -0.266682 0
M  V30 6925 O 673.39 -1.53682 -1.19214 0
M  V30 6926 C 673.673 -2.99574 1.99819 0
M  V30 6927 C 673.526 -2.79163 3.52687 0
M  V30 6928 C 674.845 -4.00358 1.82761 0
M  V30 6929 H 671.964 -0.598437 0.430165 0
M  V30 6930 H 674.606 -1.03736 1.59182 0
M  V30 6931 H 672.756 -3.51786 1.64859 0
M  V30 6932 H 674.428 -2.33821 3.9765 0
M  V30 6933 H 672.671 -2.13871 3.77414 0
M  V30 6934 H 673.342 -3.74871 4.05186 0
M  V30 6935 H 675.818 -3.57268 2.13304 0
M  V30 6936 H 674.694 -4.92514 2.42325 0
M  V30 6937 H 674.955 -4.35096 0.783839 0
M  V30 6938 N 674.014 -1.12206 -1.10668 0
M  V30 6939 C 675.291 -0.787382 -1.79052 0
M  V30 6940 C 675.671 0.723267 -1.98323 0
M  V30 6941 O 675.019 1.6561 -1.57434 0
M  V30 6942 C 675.229 -1.55968 -3.1221 0
M  V30 6943 C 676.577 -1.74413 -3.87125 0
M  V30 6944 O 677.601 -1.5246 -3.21923 0
M  V30 6945 O 676.46 -2.10952 -5.04144 0
M  V30 6946 H 673.554 -0.286137 -0.775922 0
M  V30 6947 H 676.1 -1.22595 -1.1734 0
M  V30 6948 H 674.872 -2.58692 -2.93588 0
M  V30 6949 H 674.495 -1.1152 -3.8164 0
M  V30 6950 N 675.492 1.28418 -0.913599 0
M  V30 6951 C 676.455 2.25564 -0.406624 0
M  V30 6952 C 677.455 1.5387 0.466965 0
M  V30 6953 O 678.645 1.72094 0.270042 0
M  V30 6954 C 675.777 3.38339 0.417053 0
M  V30 6955 H 676.97 2.71926 -1.26477 0
M  V30 6956 H 674.523 1.40098 -0.692986 0
M  V30 6957 H 675.258 2.97339 1.29461 0
M  V30 6958 H 675.043 3.91542 -0.209102 0
M  V30 6959 H 676.533 4.10578 0.762602 0
M  V30 6960 N 676.97 0.677563 1.42291 0
M  V30 6961 C 678.2 0.209155 2.05539 0
M  V30 6962 C 678.608 -1.13987 1.51009 0
M  V30 6963 O 677.951 -1.71976 0.645764 0
M  V30 6964 C 678.013 0.0697758 3.59432 0
M  V30 6965 C 677.677 1.34795 4.36668 0
M  V30 6966 C 678.674 2.28201 4.67141 0
M  V30 6967 C 676.359 1.59632 4.76259 0
M  V30 6968 C 678.353 3.44718 5.36142 0
M  V30 6969 C 676.04 2.76437 5.45 0
M  V30 6970 C 677.038 3.68805 5.74867 0
M  V30 6971 O 676.726 4.83567 6.42198 0
M  V30 6972 H 676.458 0.0986202 0.668768 0
M  V30 6973 H 679.012 0.925483 1.83368 0
M  V30 6974 H 677.242 -0.702157 3.80272 0
M  V30 6975 H 678.931 -0.359115 4.04308 0
M  V30 6976 H 679.697 2.10264 4.37052 0
M  V30 6977 H 675.576 0.886073 4.52404 0
M  V30 6978 H 679.12 4.16833 5.59371 0
M  V30 6979 H 675.017 2.94299 5.74507 0
M  V30 6980 H 675.785 4.83147 6.6069 0
M  V30 6981 N 678.448 -1.51871 0.421078 0
M  V30 6982 C 679.864 -1.59435 0.0725398 0
M  V30 6983 C 680.064 -1.43315 -1.41644 0
M  V30 6984 O 679.12 -1.26614 -2.18461 0
M  V30 6985 C 680.433 -2.9509 0.578132 0
M  V30 6986 C 681.981 -3.08356 0.537149 0
M  V30 6987 C 682.456 -4.4651 1.01945 0
M  V30 6988 N 683.947 -4.52784 0.976758 0
M  V30 6989 C 684.682 -5.57976 1.32099 0
M  V30 6990 N 684.178 -6.70664 1.73727 0
M  V30 6991 N 685.971 -5.48248 1.2402 0
M  V30 6992 H 678.122 -1.60595 1.39007 0
M  V30 6993 H 680.385 -0.756138 0.571803 0
M  V30 6994 H 680.091 -3.12205 1.61929 0
M  V30 6995 H 679.965 -3.772 -0.00578374 0
M  V30 6996 H 682.352 -2.90919 -0.494991 0
M  V30 6997 H 682.433 -2.28125 1.15727 0
M  V30 6998 H 682.077 -4.64692 2.04997 0
M  V30 6999 H 682.007 -5.25256 0.376023 0
M  V30 7000 H 684.498 -3.71898 0.670851 0
M  V30 7001 H 684.811 -7.46932 1.98274 0
M  V30 7002 H 683.156 -6.71914 1.77641 0
M  V30 7003 H 686.347 -4.59095 0.913756 0
M  V30 7004 H 686.52 -6.30119 1.51176 0
M  V30 7005 N 679.926 -0.151884 -1.56866 0
M  V30 7006 C 681.175 0.497992 -1.95456 0
M  V30 7007 C 681.488 1.6569 -1.03953 0
M  V30 7008 O 682.694 2.37173 -1.32142 0
M  V30 7009 C 681.15 0.93732 -3.4748 0
M  V30 7010 C 680.758 -0.194921 -4.47576 0
M  V30 7011 C 682.502 1.55671 -3.94926 0
M  V30 7012 C 680.409 0.26295 -5.90815 0
M  V30 7013 H 679.339 0.189811 -0.729717 0
M  V30 7014 H 681.99 -0.237011 -1.81963 0
M  V30 7015 H 680.372 1.72773 -3.56322 0
M  V30 7016 H 681.546 -0.971951 -4.50433 0
M  V30 7017 H 679.861 -0.72303 -4.10075 0
M  V30 7018 H 682.458 1.91099 -4.99385 0
M  V30 7019 H 682.801 2.44748 -3.36755 0
M  V30 7020 H 683.334 0.831109 -3.89021 0
M  V30 7021 H 680.073 -0.592568 -6.52816 0
M  V30 7022 H 679.593 1.00575 -5.91308 0
M  V30 7023 H 681.272 0.713333 -6.43056 0
M  V30 7024 N 681.404 1.57128 0.121893 0
M  V30 7025 C 682.815 1.73902 0.679348 0
M  V30 7026 C 683.166 0.770135 1.80453 0
M  V30 7027 O 682.291 -0.0576083 2.16323 0
M  V30 7028 C 682.886 3.15328 1.2391 0
M  V30 7029 C 681.445 3.33618 1.74288 0
M  V30 7030 C 680.592 2.6978 0.641414 0
M  V30 7031 H 683.543 1.58359 -0.104 0
M  V30 7032 H 683.564 3.16718 2.10879 0
M  V30 7033 H 683.076 3.85821 0.419957 0
M  V30 7034 H 681.177 2.68162 2.58689 0
M  V30 7035 H 681.29 4.4176 1.85432 0
M  V30 7036 H 679.654 2.30935 1.0743 0
M  V30 7037 H 680.437 3.42895 -0.166707 0
M  V30 7038 N 682.882 -0.391992 1.52647 0
M  V30 7039 C 684.13 -1.13507 1.67214 0
M  V30 7040 C 684.451 -1.90575 0.41304 0
M  V30 7041 O 683.721 -1.87348 -0.572498 0
M  V30 7042 H 682.301 -0.422013 0.616372 0
M  V30 7043 H 684.963 -0.44502 1.89751 0
M  V30 7044 H 684.059 -1.83964 2.52118 0
M  V30 7045 N 684.36 -1.4356 -0.65026 0
M  V30 7046 C 685.588 -1.48779 -1.43779 0
M  V30 7047 C 686.003 -0.106593 -1.88499 0
M  V30 7048 O 685.36 0.883766 -1.59674 0
M  V30 7049 C 685.411 -2.43618 -2.67081 0
M  V30 7050 O 685.132 -3.76367 -2.24231 0
M  V30 7051 C 686.633 -2.5811 -3.60409 0
M  V30 7052 H 683.853 -0.50521 -0.441593 0
M  V30 7053 H 686.397 -1.88332 -0.796941 0
M  V30 7054 H 684.552 -2.07253 -3.273 0
M  V30 7055 H 684.966 -4.27394 -3.0403 0
M  V30 7056 H 686.44 -3.28539 -4.43583 0
M  V30 7057 H 686.917 -1.627 -4.07953 0
M  V30 7058 H 687.523 -2.95298 -3.0607 0
M  V30 7059 N 685.838 0.888903 -1.30139 0
M  V30 7060 C 687.066 1.67358 -1.21651 0
M  V30 7061 C 687.481 1.87499 0.221246 0
M  V30 7062 O 686.838 1.41969 1.14677 0
M  V30 7063 C 686.889 3.05213 -1.93719 0
M  V30 7064 O 686.61 2.85984 -3.31881 0
M  V30 7065 C 688.111 3.9964 -1.9184 0
M  V30 7066 H 685.331 0.522365 -0.42116 0
M  V30 7067 H 687.875 1.11086 -1.71698 0
M  V30 7068 H 686.03 3.5823 -1.4748 0
M  V30 7069 H 686.444 3.73411 -3.68327 0
M  V30 7070 H 687.918 4.93749 -2.46811 0
M  V30 7071 H 688.395 4.29955 -0.896409 0
M  V30 7072 H 689.001 3.52558 -2.37872 0
M  V30 7073 N 687.317 1.12792 1.10072 0
M  V30 7074 C 688.563 0.886857 1.82381 0
M  V30 7075 C 688.896 -0.58576 1.85155 0
M  V30 7076 O 688.171 -1.43317 1.31493 0
M  V30 7077 C 688.454 1.46703 3.28862 0
M  V30 7078 C 688.307 3.00829 3.34398 0
M  V30 7079 C 689.626 1.12971 4.25353 0
M  V30 7080 H 686.745 0.32362 0.662148 0
M  V30 7081 H 689.387 1.39513 1.28982 0
M  V30 7082 H 687.537 1.03476 3.74466 0
M  V30 7083 H 689.209 3.52764 2.97247 0
M  V30 7084 H 687.452 3.36164 2.74183 0
M  V30 7085 H 688.123 3.36519 4.3756 0
M  V30 7086 H 690.599 1.50313 3.88001 0
M  V30 7087 H 689.475 1.56223 5.26199 0
M  V30 7088 H 689.736 0.0424452 4.4208 0
M  V30 7089 N 688.795 -1.27931 0.920396 0
M  V30 7090 C 689.758 -2.25345 0.41858 0
M  V30 7091 C 690.758 -1.54116 -0.458798 0
M  V30 7092 O 691.948 -1.72235 -0.260912 0
M  V30 7093 C 689.08 -3.38556 -0.399104 0
M  V30 7094 H 690.273 -2.71251 1.27918 0
M  V30 7095 H 687.826 -1.39728 0.700406 0
M  V30 7096 H 688.561 -2.98021 -1.27882 0
M  V30 7097 H 688.346 -3.91426 0.229863 0
M  V30 7098 H 689.836 -4.10976 -0.740817 0
M  V30 7099 N 690.273 -0.685099 -1.4193 0
M  V30 7100 C 691.498 -0.218842 -2.06242 0
M  V30 7101 C 691.923 1.11923 -1.51178 0
M  V30 7102 O 691.281 1.69837 -0.634446 0
M  V30 7103 C 691.329 -0.175592 -3.60172 0
M  V30 7104 O 690.433 0.852776 -4.03487 0
M  V30 7105 H 689.774 -0.109531 -0.654904 0
M  V30 7106 H 692.304 -0.937013 -1.81882 0
M  V30 7107 H 692.314 -0.00291151 -4.08 0
M  V30 7108 H 690.989 -1.15222 -3.99621 0
M  V30 7109 H 689.566 0.650301 -3.67186 0
M  V30 7110 N 691.751 1.51645 -0.429126 0
M  V30 7111 C 692.999 2.01616 0.139802 0
M  V30 7112 C 693.32 1.31568 1.43927 0
M  V30 7113 O 692.59 0.447688 1.90716 0
M  V30 7114 H 691.17 0.744998 0.054654 0
M  V30 7115 H 693.832 1.8638 -0.569952 0
M  V30 7116 H 692.928 3.10439 0.321609 0
M  V30 7117 N 693.229 0.160201 1.56784 0
M  V30 7118 C 694.457 -0.494165 2.00912 0
M  V30 7119 C 694.872 -1.57548 1.04038 0
M  V30 7120 O 694.229 -1.82457 0.0394581 0
M  V30 7121 C 694.28 -1.08271 3.44905 0
M  V30 7122 O 694.001 -0.0445704 4.38077 0
M  V30 7123 C 695.502 -1.8164 4.04378 0
M  V30 7124 H 692.722 -0.127498 0.658776 0
M  V30 7125 H 695.266 0.258665 2.02858 0
M  V30 7126 H 693.421 -1.78609 3.4377 0
M  V30 7127 H 693.835 -0.477544 5.22322 0
M  V30 7128 H 695.309 -2.18094 5.07089 0
M  V30 7129 H 695.786 -2.70727 3.45838 0
M  V30 7130 H 696.392 -1.15969 4.09184 0
M  V30 7131 N 694.707 -1.5719 -0.113559 0
M  V30 7132 C 696.118 -1.74259 -0.670116 0
M  V30 7133 C 696.469 -0.779694 -1.80042 0
M  V30 7134 O 695.594 0.0461353 -2.16351 0
M  V30 7135 C 696.189 -3.15981 -1.22236 0
M  V30 7136 C 694.748 -3.34537 -1.72516 0
M  V30 7137 C 693.895 -2.70116 -0.627098 0
M  V30 7138 H 696.846 -1.58301 0.112396 0
M  V30 7139 H 696.867 -3.17832 -2.09197 0
M  V30 7140 H 696.379 -3.86038 -0.39949 0
M  V30 7141 H 694.48 -2.6953 -2.57263 0
M  V30 7142 H 694.593 -4.42737 -1.83086 0
M  V30 7143 H 692.957 -2.31501 -1.06204 0
M  V30 7144 H 693.74 -3.42802 0.184889 0
M  V30 7145 N 696.185 0.383891 -1.52853 0
M  V30 7146 C 697.434 1.12563 -1.67369 0
M  V30 7147 C 697.747 1.90982 -0.422533 0
M  V30 7148 O 698.953 2.6778 -0.447914 0
M  V30 7149 C 697.409 2.05011 -2.95801 0
M  V30 7150 C 697.017 1.31991 -4.28115 0
M  V30 7151 C 698.761 2.79289 -3.19684 0
M  V30 7152 C 696.668 2.23235 -5.4765 0
M  V30 7153 H 695.598 0.42391 -0.623552 0
M  V30 7154 H 698.249 0.388016 -1.79351 0
M  V30 7155 H 696.631 2.82429 -2.77578 0
M  V30 7156 H 697.805 0.597633 -4.56908 0
M  V30 7157 H 696.12 0.696517 -4.10533 0
M  V30 7158 H 698.717 3.47749 -4.06171 0
M  V30 7159 H 699.06 3.43649 -2.3497 0
M  V30 7160 H 699.593 2.08962 -3.38496 0
M  V30 7161 H 696.332 1.63482 -6.34786 0
M  V30 7162 H 695.852 2.93364 -5.23161 0
M  V30 7163 H 697.531 2.83205 -5.81725 0
M  V30 7164 N 697.663 1.43903 0.642637 0
M  V30 7165 C 698.626 1.49538 1.73698 0
M  V30 7166 C 699.626 0.378776 1.56275 0
M  V30 7167 O 700.816 0.64095 1.6198 0
M  V30 7168 C 697.948 1.35821 3.12675 0
M  V30 7169 H 699.141 2.47008 1.70079 0
M  V30 7170 H 696.694 1.30824 0.85526 0
M  V30 7171 H 697.429 0.393994 3.21898 0
M  V30 7172 H 697.214 2.16776 3.26727 0
M  V30 7173 H 698.704 1.4272 3.92455 0
M  V30 7174 N 699.141 -0.881989 1.30609 0
M  V30 7175 C 700.366 -1.67236 1.22665 0
M  V30 7176 C 700.791 -1.8696 -0.206777 0
M  V30 7177 O 700.149 -1.4027 -1.14865 0
M  V30 7178 C 700.197 -3.02446 1.96363 0
M  V30 7179 O 699.301 -3.91614 1.29276 0
M  V30 7180 H 698.642 -0.510902 0.424117 0
M  V30 7181 H 701.172 -1.10055 1.72479 0
M  V30 7182 H 701.182 -3.52468 2.055 0
M  V30 7183 H 699.857 -2.8741 3.00613 0
M  V30 7184 H 698.434 -3.50055 1.28514 0
M  V30 7185 N 700.619 -1.13374 -1.09472 0
M  V30 7186 C 701.867 -0.893422 -1.8128 0
M  V30 7187 C 702.188 0.582029 -1.86111 0
M  V30 7188 O 701.458 1.42305 -1.34633 0
M  V30 7189 H 700.038 -0.327543 -0.67136 0
M  V30 7190 H 702.7 -1.43018 -1.32408 0
M  V30 7191 H 701.796 -1.28374 -2.84476 0
M  V30 7192 N 702.098 1.27442 -0.927168 0
M  V30 7193 C 703.326 1.98498 -0.583622 0
M  V30 7194 C 703.741 1.69171 0.838241 0
M  V30 7195 O 703.098 0.951969 1.55704 0
M  V30 7196 C 703.149 3.52552 -0.799341 0
M  V30 7197 O 702.87 3.80851 -2.16527 0
M  V30 7198 C 704.371 4.4086 -0.464436 0
M  V30 7199 H 701.591 0.633487 -0.221213 0
M  V30 7200 H 704.135 1.62308 -1.24404 0
M  V30 7201 H 702.29 3.86955 -0.185728 0
M  V30 7202 H 702.704 4.75441 -2.21487 0
M  V30 7203 H 704.178 5.47967 -0.666075 0
M  V30 7204 H 704.655 4.35082 0.599995 0
M  V30 7205 H 705.261 4.11977 -1.05617 0
M  V30 7206 N 703.576 0.692616 1.41565 0
M  V30 7207 C 704.824 0.221896 2.00878 0
M  V30 7208 C 705.145 -1.18164 1.5512 0
M  V30 7209 O 704.415 -1.79679 0.78054 0
M  V30 7210 H 702.995 0.0790463 0.742806 0
M  V30 7211 H 705.657 0.893115 1.73232 0
M  V30 7212 H 704.753 0.23702 3.11199 0
M  V30 7213 N 705.054 -1.51416 0.437162 0
M  V30 7214 C 706.282 -2.06503 -0.128045 0
M  V30 7215 C 706.697 -1.30461 -1.36475 0
M  V30 7216 O 706.054 -0.364127 -1.78831 0
M  V30 7217 C 706.105 -3.58683 -0.450437 0
M  V30 7218 O 705.826 -4.31853 0.737186 0
M  V30 7219 C 707.327 -4.30284 -1.06633 0
M  V30 7220 H 704.547 -0.670952 -0.00800269 0
M  V30 7221 H 707.091 -1.94996 0.616193 0
M  V30 7222 H 705.246 -3.70106 -1.14457 0
M  V30 7223 H 705.66 -5.22467 0.461347 0
M  V30 7224 H 707.134 -5.37848 -1.24191 0
M  V30 7225 H 707.611 -3.88564 -2.0473 0
M  V30 7226 H 708.217 -4.23304 -0.411585 0
M  V30 7227 N 706.532 -0.168513 -1.56696 0
M  V30 7228 C 707.757 0.486688 -2.01609 0
M  V30 7229 C 708.182 1.56203 -1.04796 0
M  V30 7230 O 707.54 1.8128 -0.0270596 0
M  V30 7231 C 707.588 1.04451 -3.45141 0
M  V30 7232 O 706.692 2.15862 -3.51393 0
M  V30 7233 H 706.033 0.116831 -0.653641 0
M  V30 7234 H 708.563 -0.271579 -2.0279 0
M  V30 7235 H 708.573 1.36782 -3.84389 0
M  V30 7236 H 707.248 0.257155 -4.15104 0
M  V30 7237 H 705.825 1.84597 -3.24004 0
M  V30 7238 N 708.01 1.57248 0.105221 0
M  V30 7239 C 709.235 1.90143 0.828264 0
M  V30 7240 C 709.66 0.761811 1.71983 0
M  V30 7241 O 709.018 -0.287086 1.79013 0
M  V30 7242 C 709.066 3.21856 1.62608 0
M  V30 7243 O 708.17 3.08732 2.7342 0
M  V30 7244 H 707.511 0.623558 0.228192 0
M  V30 7245 H 710.041 2.0443 0.0834826 0
M  V30 7246 H 710.051 3.54916 2.01243 0
M  V30 7247 H 708.726 4.0439 0.971687 0
M  V30 7248 H 707.303 2.87167 2.37886 0
M  V30 7249 N 709.488 -0.375779 1.53054 0
M  V30 7250 C 710.734 -1.11767 1.6994 0
M  V30 7251 C 711.089 -1.87288 0.440574 0
M  V30 7252 O 710.382 -1.83045 -0.566146 0
M  V30 7253 C 710.576 -2.11356 2.88207 0
M  V30 7254 C 710.405 -1.45619 4.25471 0
M  V30 7255 C 709.175 -1.21464 4.90484 0
M  V30 7256 C 711.373 -0.899276 5.06377 0
M  V30 7257 N 709.355 -0.519705 6.11696 0
M  V30 7258 C 710.726 -0.333138 6.19104 0
M  V30 7259 C 712.781 -0.79697 4.9148 0
M  V30 7260 C 711.484 0.325316 7.18564 0
M  V30 7261 C 713.51 -0.152315 5.91204 0
M  V30 7262 C 712.872 0.402994 7.03246 0
M  V30 7263 H 708.971 -0.394489 0.675206 0
M  V30 7264 H 711.555 -0.40541 1.90432 0
M  V30 7265 H 709.726 -2.79905 2.69272 0
M  V30 7266 H 711.458 -2.78148 2.93966 0
M  V30 7267 H 708.213 -1.49319 4.49445 0
M  V30 7268 H 708.637 -0.187896 6.76739 0
M  V30 7269 H 713.279 -1.21208 4.05054 0
M  V30 7270 H 710.997 0.752399 8.0459 0
M  V30 7271 H 714.583 -0.074223 5.81753 0
M  V30 7272 H 713.463 0.89394 7.79088 0
M  V30 7273 N 710.966 -1.44241 -0.634997 0
M  V30 7274 C 712.194 -1.50296 -1.42193 0
M  V30 7275 C 712.609 -0.12658 -1.88375 0
M  V30 7276 O 711.966 0.86678 -1.60603 0
M  V30 7277 C 712.017 -2.46437 -2.64482 0
M  V30 7278 O 711.738 -3.78724 -2.20226 0
M  V30 7279 C 713.239 -2.61918 -3.57651 0
M  V30 7280 H 710.459 -0.509865 -0.43621 0
M  V30 7281 H 713.003 -1.89167 -0.776921 0
M  V30 7282 H 711.158 -2.10712 -3.25083 0
M  V30 7283 H 711.572 -4.30595 -2.9948 0
M  V30 7284 H 713.046 -3.33225 -4.40074 0
M  V30 7285 H 713.523 -1.67017 -4.06204 0
M  V30 7286 H 714.129 -2.98528 -3.02921 0
M  V30 7287 N 712.444 0.87505 -1.31075 0
M  V30 7288 C 713.692 1.62447 -1.20231 0
M  V30 7289 C 714.013 1.93506 0.240888 0
M  V30 7290 O 713.283 1.57847 1.16022 0
M  V30 7291 H 711.863 0.602207 -0.441991 0
M  V30 7292 H 714.525 1.04788 -1.64334 0
M  V30 7293 H 713.621 2.57031 -1.77036 0
M  V30 7294 N 713.922 1.13953 1.08869 0
M  V30 7295 C 715.17 0.903023 1.80803 0
M  V30 7296 C 715.491 -0.572151 1.86417 0
M  V30 7297 O 714.761 -1.41589 1.35386 0
M  V30 7298 H 713.341 0.331099 0.669614 0
M  V30 7299 H 716.003 1.43719 1.31647 0
M  V30 7300 H 715.099 1.29881 2.83791 0
M  V30 7301 N 715.4 -1.26948 0.933913 0
M  V30 7302 C 716.646 -1.94374 0.57848 0
M  V30 7303 C 716.979 -1.73166 -0.879048 0
M  V30 7304 O 716.254 -1.06438 -1.62792 0
M  V30 7305 C 716.537 -3.4834 0.912739 0
M  V30 7306 C 716.39 -3.78866 2.42448 0
M  V30 7307 C 717.709 -4.38062 0.423003 0
M  V30 7308 H 714.828 -0.705959 0.211639 0
M  V30 7309 H 717.47 -1.49951 1.16682 0
M  V30 7310 H 715.62 -3.86309 0.412058 0
M  V30 7311 H 717.292 -3.50654 2.99733 0
M  V30 7312 H 715.535 -3.25198 2.87104 0
M  V30 7313 H 716.206 -4.86458 2.60887 0
M  V30 7314 H 718.682 -4.0728 0.852191 0
M  V30 7315 H 717.558 -5.44599 0.685776 0
M  V30 7316 H 717.819 -4.36886 -0.676994 0
M  V30 7317 N 716.879 -0.700114 -1.41195 0
M  V30 7318 C 718.104 -0.240704 -2.05998 0
M  V30 7319 C 718.529 1.10313 -1.52357 0
M  V30 7320 O 717.887 1.69154 -0.652424 0
M  V30 7321 C 717.935 -0.213783 -3.59966 0
M  V30 7322 O 717.039 0.809933 -4.04368 0
M  V30 7323 H 716.38 -0.116471 -0.653705 0
M  V30 7324 H 718.91 -0.956251 -1.80878 0
M  V30 7325 H 718.92 -0.0461852 -4.07974 0
M  V30 7326 H 717.595 -1.19454 -3.98376 0
M  V30 7327 H 716.172 0.611319 -3.67855 0
M  V30 7328 N 718.357 1.51182 -0.445186 0
M  V30 7329 C 719.287 2.30821 0.352686 0
M  V30 7330 C 720.268 1.36576 1.01395 0
M  V30 7331 O 721.453 1.65497 1.01609 0
M  V30 7332 C 718.583 3.15593 1.44976 0
M  V30 7333 C 717.537 4.1818 0.911553 0
M  V30 7334 C 716.863 4.91523 2.10497 0
M  V30 7335 C 718.163 5.22266 -0.059418 0
M  V30 7336 H 719.857 2.97771 -0.311936 0
M  V30 7337 H 717.403 1.43201 -0.151461 0
M  V30 7338 H 719.356 3.70091 2.01521 0
M  V30 7339 H 718.08 2.4648 2.14278 0
M  V30 7340 H 716.739 3.64746 0.368264 0
M  V30 7341 H 716.387 4.18906 2.78437 0
M  V30 7342 H 716.087 5.60898 1.7512 0
M  V30 7343 H 717.611 5.48847 2.6758 0
M  V30 7344 H 719.025 5.71789 0.415985 0
M  V30 7345 H 717.422 5.99213 -0.326152 0
M  V30 7346 H 718.492 4.7461 -0.993631 0
M  V30 7347 N 719.835 0.176821 1.56605 0
M  V30 7348 C 720.798 -0.737429 2.17013 0
M  V30 7349 C 721.798 -1.15414 1.11965 0
M  V30 7350 O 722.988 -1.0702 1.37449 0
M  V30 7351 C 720.12 -2.00445 2.75744 0
M  V30 7352 H 721.313 -0.211455 2.99154 0
M  V30 7353 H 718.866 -0.0727582 1.56131 0
M  V30 7354 H 719.601 -2.57338 1.97352 0
M  V30 7355 H 719.386 -1.71456 3.52626 0
M  V30 7356 H 720.876 -2.65679 3.22187 0
M  V30 7357 N 721.313 -1.57302 -0.09688 0
M  V30 7358 C 722.561 -1.8563 -0.799117 0
M  V30 7359 C 722.882 -0.765263 -1.79356 0
M  V30 7360 O 722.152 0.208657 -1.94786 0
M  V30 7361 H 720.732 -0.684937 -0.298111 0
M  V30 7362 H 723.394 -1.9474 -0.0789341 0
M  V30 7363 H 722.49 -2.82305 -1.3308 0
M  V30 7364 N 722.791 0.367657 -1.53252 0
M  V30 7365 C 723.723 1.47032 -1.75824 0
M  V30 7366 C 724.736 1.49736 -0.63898 0
M  V30 7367 O 725.925 1.53253 -0.915193 0
M  V30 7368 C 723.025 2.85805 -1.82122 0
M  V30 7369 C 722.198 3.06822 -3.11736 0
M  V30 7370 C 721.257 4.25698 -3.09302 0
M  V30 7371 O 720.283 4.20972 -3.83107 0
M  V30 7372 N 721.485 5.33002 -2.29977 0
M  V30 7373 H 724.25 1.28048 -2.70968 0
M  V30 7374 H 721.811 0.557363 -1.52004 0
M  V30 7375 H 723.803 3.63465 -1.77975 0
M  V30 7376 H 722.373 2.98046 -0.942716 0
M  V30 7377 H 721.593 2.1684 -3.29202 0
M  V30 7378 H 722.881 3.17731 -3.97397 0
M  V30 7379 H 722.279 5.39703 -1.69521 0
M  V30 7380 H 720.836 6.09247 -2.3165 0
M  V30 7381 N 724.269 1.44576 0.627338 0
M  V30 7382 C 725.499 1.50829 1.41189 0
M  V30 7383 C 725.907 0.133083 1.88731 0
M  V30 7384 O 725.25 -0.87199 1.61685 0
M  V30 7385 C 725.312 2.41449 2.66351 0
M  V30 7386 C 724.976 3.88549 2.40579 0
M  V30 7387 C 725.973 4.78981 2.0217 0
M  V30 7388 C 723.658 4.33287 2.54102 0
M  V30 7389 C 725.652 6.12153 1.77618 0
M  V30 7390 C 723.339 5.66505 2.29163 0
M  V30 7391 C 724.337 6.55756 1.9098 0
M  V30 7392 O 724.025 7.86506 1.66321 0
M  V30 7393 H 723.757 0.513797 0.439304 0
M  V30 7394 H 726.311 1.90256 0.774059 0
M  V30 7395 H 724.541 1.96955 3.32784 0
M  V30 7396 H 726.23 2.38608 3.28361 0
M  V30 7397 H 726.996 4.45689 1.91277 0
M  V30 7398 H 722.875 3.64074 2.82792 0
M  V30 7399 H 726.419 6.81776 1.47739 0
M  V30 7400 H 722.316 5.99358 2.39668 0
M  V30 7401 H 723.084 7.98341 1.80536 0
M  V30 7402 N 725.747 -0.868086 1.31537 0
M  V30 7403 C 726.995 -1.61807 1.21091 0
M  V30 7404 C 727.316 -1.93631 -0.230623 0
M  V30 7405 O 726.586 -1.5846 -1.15183 0
M  V30 7406 H 725.166 -0.599854 0.445178 0
M  V30 7407 H 727.828 -1.03915 1.64887 0
M  V30 7408 H 726.924 -2.56088 1.78396 0
M  V30 7409 N 727.225 -1.14528 -1.08264 0
M  V30 7410 C 728.188 -0.83632 -2.13397 0
M  V30 7411 C 729.188 0.159715 -1.60005 0
M  V30 7412 O 730.378 -0.0688098 -1.74064 0
M  V30 7413 C 727.51 -0.246973 -3.40004 0
M  V30 7414 H 728.703 -1.76808 -2.42237 0
M  V30 7415 H 726.256 -0.951509 -1.24 0
M  V30 7416 H 726.991 0.693436 -3.168 0
M  V30 7417 H 726.776 -0.964412 -3.80055 0
M  V30 7418 H 728.266 -0.0480679 -4.17572 0
M  V30 7419 N 728.703 1.26451 -0.940633 0
M  V30 7420 C 729.928 1.98407 -0.60412 0
M  V30 7421 C 730.353 1.69584 0.81382 0
M  V30 7422 O 729.711 0.943553 1.54812 0
M  V30 7423 C 729.759 3.50387 -0.852136 0
M  V30 7424 O 728.863 4.1233 0.076013 0
M  V30 7425 H 728.204 0.622466 -0.231153 0
M  V30 7426 H 730.734 1.60932 -1.26342 0
M  V30 7427 H 730.744 4.00614 -0.772816 0
M  V30 7428 H 729.419 3.70696 -1.88566 0
M  V30 7429 H 727.996 3.7286 -0.0543187 0
M  V30 7430 N 730.181 0.707592 1.40822 0
M  V30 7431 C 731.429 0.243189 2.00632 0
M  V30 7432 C 731.75 -1.16512 1.56365 0
M  V30 7433 O 731.02 -1.78841 0.799553 0
M  V30 7434 H 729.6 0.0869203 0.741926 0
M  V30 7435 H 732.262 0.911438 1.72275 0
M  V30 7436 H 731.358 0.270014 3.1093 0
M  V30 7437 N 731.66 -1.50943 0.453197 0
M  V30 7438 C 732.593 -2.24742 -0.395787 0
M  V30 7439 C 733.571 -1.27316 -1.01141 0
M  V30 7440 O 734.755 -1.56494 -1.05081 0
M  V30 7441 C 731.882 -3.00999 -1.55298 0
M  V30 7442 C 730.928 -4.13207 -1.0565 0
M  V30 7443 S 731.761 -5.35498 0.01435 0
M  V30 7444 C 732.917 -6.15298 -1.14714 0
M  V30 7445 H 733.15 -2.96403 0.23071 0
M  V30 7446 H 730.683 -1.52557 0.237874 0
M  V30 7447 H 732.641 -3.45529 -2.2163 0
M  V30 7448 H 731.302 -2.28896 -2.15094 0
M  V30 7449 H 730.495 -4.65901 -1.9223 0
M  V30 7450 H 730.097 -3.7102 -0.471182 0
M  V30 7451 H 732.389 -6.45346 -2.06239 0
M  V30 7452 H 733.332 -7.05019 -0.659842 0
M  V30 7453 H 733.74 -5.47046 -1.39288 0
M  V30 7454 N 733.138 -0.185124 -1.56509 0
M  V30 7455 C 734.415 0.503348 -1.89013 0
M  V30 7456 C 734.795 1.80349 -1.09715 0
M  V30 7457 O 734.143 2.27665 -0.195203 0
M  V30 7458 C 734.353 0.731839 -3.41241 0
M  V30 7459 C 735.701 1.05568 -4.11267 0
M  V30 7460 O 736.725 0.819906 -3.46635 0
M  V30 7461 O 735.584 1.50116 -5.25478 0
M  V30 7462 H 732.678 0.261139 -0.784688 0
M  V30 7463 H 735.224 -0.224592 -1.68207 0
M  V30 7464 H 733.996 -0.18672 -3.90854 0
M  V30 7465 H 733.619 1.5126 -3.67704 0
M  V30 7466 N 734.616 1.57351 0.0885366 0
M  V30 7467 C 735.546 2.05561 1.10757 0
M  V30 7468 C 736.527 0.945789 1.41382 0
M  V30 7469 O 737.712 1.21747 1.51299 0
M  V30 7470 C 734.842 2.48554 2.42566 0
M  V30 7471 C 733.796 3.63259 2.26334 0
M  V30 7472 C 733.122 3.9225 3.63378 0
M  V30 7473 C 734.422 4.93913 1.69844 0
M  V30 7474 H 736.116 2.90946 0.706468 0
M  V30 7475 H 733.662 1.39968 0.338385 0
M  V30 7476 H 735.615 2.8089 3.14132 0
M  V30 7477 H 734.339 1.60176 2.84625 0
M  V30 7478 H 732.998 3.31179 1.57213 0
M  V30 7479 H 732.646 3.0103 4.02976 0
M  V30 7480 H 732.346 4.69478 3.53362 0
M  V30 7481 H 733.87 4.27067 4.36401 0
M  V30 7482 H 735.284 5.24588 2.31258 0
M  V30 7483 H 733.681 5.75349 1.70569 0
M  V30 7484 H 734.751 4.80409 0.65843 0
M  V30 7485 N 736.094 -0.359525 1.53444 0
M  V30 7486 C 737.319 -1.12644 1.74144 0
M  V30 7487 C 737.744 -1.82082 0.472007 0
M  V30 7488 O 737.102 -1.71962 -0.57436 0
M  V30 7489 C 737.15 -2.12781 2.9113 0
M  V30 7490 O 736.254 -3.19984 2.60162 0
M  V30 7491 H 735.595 -0.326553 0.578152 0
M  V30 7492 H 738.125 -0.414798 2.00351 0
M  V30 7493 H 738.135 -2.56278 3.17467 0
M  V30 7494 H 736.81 -1.61634 3.83207 0
M  V30 7495 H 735.387 -2.81417 2.44661 0
M  V30 7496 N 737.572 -1.44907 -0.619662 0
M  V30 7497 C 738.802 -1.51575 -1.40387 0
M  V30 7498 C 739.21 -0.14309 -1.88658 0
M  V30 7499 O 738.553 0.863403 -1.62145 0
M  V30 7500 C 738.615 -2.42858 -2.65067 0
M  V30 7501 C 738.279 -3.8982 -2.38515 0
M  V30 7502 C 739.276 -4.80047 -1.99627 0
M  V30 7503 C 736.961 -4.34628 -2.51801 0
M  V30 7504 C 738.955 -6.13086 -1.74369 0
M  V30 7505 C 736.642 -5.67712 -2.26156 0
M  V30 7506 C 737.64 -6.56759 -1.875 0
M  V30 7507 O 737.328 -7.87377 -1.62148 0
M  V30 7508 H 737.06 -0.51612 -0.436573 0
M  V30 7509 H 739.614 -1.90664 -0.763959 0
M  V30 7510 H 737.844 -1.98717 -3.31735 0
M  V30 7511 H 739.533 -2.40346 -3.27091 0
M  V30 7512 H 740.299 -4.46697 -1.8891 0
M  V30 7513 H 736.178 -3.65568 -2.80857 0
M  V30 7514 H 739.722 -6.8255 -1.44122 0
M  V30 7515 H 735.619 -6.0062 -2.36486 0
M  V30 7516 H 736.387 -7.99288 -1.763 0
M  V30 7517 N 739.05 0.861098 -1.31996 0
M  V30 7518 C 740.298 1.61162 -1.21947 0
M  V30 7519 C 740.619 1.93751 0.220351 0
M  V30 7520 O 739.889 1.59069 1.14341 0
M  V30 7521 H 738.469 0.597485 -0.448353 0
M  V30 7522 H 741.131 1.03039 -1.65436 0
M  V30 7523 H 740.227 2.55138 -1.79752 0
M  V30 7524 N 740.528 1.15101 1.07655 0
M  V30 7525 C 741.491 0.847625 2.12951 0
M  V30 7526 C 742.491 -0.151227 1.60087 0
M  V30 7527 O 743.681 0.0780399 1.74025 0
M  V30 7528 C 740.813 0.265 3.39868 0
M  V30 7529 H 742.006 1.7809 2.41296 0
M  V30 7530 H 739.559 0.958072 1.23494 0
M  V30 7531 H 740.294 -0.676625 3.17163 0
M  V30 7532 H 740.079 0.984554 3.79538 0
M  V30 7533 H 741.569 0.0702121 4.17541 0
M  V30 7534 N 742.006 -1.2595 0.947325 0
M  V30 7535 C 743.236 -1.97258 0.614235 0
M  V30 7536 C 743.644 -1.70682 -0.816355 0
M  V30 7537 O 742.987 -0.97527 -1.55673 0
M  V30 7538 C 743.049 -3.50845 0.784081 0
M  V30 7539 C 742.713 -4.01084 2.19045 0
M  V30 7540 C 743.71 -4.12347 3.16648 0
M  V30 7541 C 741.395 -4.34936 2.51268 0
M  V30 7542 C 743.389 -4.56766 4.44572 0
M  V30 7543 C 741.076 -4.79043 3.79422 0
M  V30 7544 C 742.074 -4.89919 4.75887 0
M  V30 7545 O 741.762 -5.3305 6.01758 0
M  V30 7546 H 741.494 -0.635738 0.22981 0
M  V30 7547 H 744.048 -1.61268 1.27207 0
M  V30 7548 H 742.278 -3.86638 0.069101 0
M  V30 7549 H 743.967 -4.03363 0.453135 0
M  V30 7550 H 744.733 -3.86432 2.93079 0
M  V30 7551 H 740.612 -4.25702 1.76916 0
M  V30 7552 H 744.156 -4.6517 5.19868 0
M  V30 7553 H 740.053 -5.04402 4.02802 0
M  V30 7554 H 740.821 -5.51255 6.05029 0
M  V30 7555 N 743.484 -0.715051 -1.40445 0
M  V30 7556 C 744.432 -0.0509974 -2.32544 0
M  V30 7557 C 745.426 0.747602 -1.52011 0
M  V30 7558 O 746.632 0.651031 -1.67814 0
M  V30 7559 H 743.007 0.00231113 -0.751996 0
M  V30 7560 H 744.978 -0.84449 -2.86201 0
M  V30 7561 C 743.727 0.857101 -3.3697 0
M  V30 7562 H 743.05 0.252 -3.99005 0
M  V30 7563 H 744.49 1.28971 -4.03909 0
M  V30 7564 C 742.949 1.98231 -2.72408 0
M  V30 7565 O 743.479 3.07309 -2.58697 0
M  V30 7566 N 741.685 1.76577 -2.308 0
M  V30 7567 H 741.232 0.878641 -2.42152 0
M  V30 7568 H 741.19 2.52043 -1.87941 0
M  V30 7569 N 744.962 1.50701 -0.461195 0
M  V30 7570 C 745.892 2.31182 0.328184 0
M  V30 7571 C 746.873 1.37644 0.999408 0
M  V30 7572 O 748.058 1.66565 0.99848 0
M  V30 7573 C 745.188 3.17113 1.41621 0
M  V30 7574 C 744.142 4.19124 0.867148 0
M  V30 7575 C 743.468 4.93728 2.05272 0
M  V30 7576 C 744.768 5.22174 -0.114808 0
M  V30 7577 H 746.462 2.97423 -0.343501 0
M  V30 7578 H 744.008 1.43033 -0.166641 0
M  V30 7579 H 745.961 3.72208 1.97584 0
M  V30 7580 H 744.685 2.48739 2.11652 0
M  V30 7581 H 743.344 3.65116 0.329557 0
M  V30 7582 H 742.992 4.21835 2.73978 0
M  V30 7583 H 742.692 5.62724 1.69161 0
M  V30 7584 H 744.216 5.51654 2.61744 0
M  V30 7585 H 745.63 5.72198 0.355316 0
M  V30 7586 H 744.027 5.98833 -0.389689 0
M  V30 7587 H 745.097 4.7353 -1.04391 0
M  V30 7588 N 746.441 0.193421 1.56409 0
M  V30 7589 C 747.666 -0.454552 2.02358 0
M  V30 7590 C 748.091 -1.54516 1.07268 0
M  V30 7591 O 747.449 -1.81214 0.0558962 0
M  V30 7592 C 747.497 -0.989469 3.46759 0
M  V30 7593 O 746.601 -2.10244 3.54783 0
M  V30 7594 H 745.942 -0.106417 0.655417 0
M  V30 7595 H 748.472 0.303807 2.02332 0
M  V30 7596 H 748.482 -1.30649 3.86516 0
M  V30 7597 H 747.157 -0.191083 4.15461 0
M  V30 7598 H 745.734 -1.79419 3.26899 0
M  V30 7599 N 747.919 -1.57396 -0.0801906 0
M  V30 7600 C 748.882 -2.02133 -1.0805 0
M  V30 7601 C 749.882 -0.91707 -1.32085 0
M  V30 7602 O 751.072 -1.18217 -1.27947 0
M  V30 7603 C 748.204 -2.39479 -2.42616 0
M  V30 7604 H 749.397 -2.91733 -0.6951 0
M  V30 7605 H 746.95 -1.52869 -0.325677 0
M  V30 7606 H 747.685 -1.52879 -2.86004 0
M  V30 7607 H 747.47 -3.20052 -2.26515 0
M  V30 7608 H 748.96 -2.74697 -3.14534 0
M  V30 7609 N 749.397 0.351382 -1.53633 0
M  V30 7610 C 750.813 0.693987 -1.43722 0
M  V30 7611 C 751.013 1.9274 -0.587669 0
M  V30 7612 O 750.069 2.52387 -0.0756082 0
M  V30 7613 C 751.382 0.893937 -2.87105 0
M  V30 7614 C 752.93 0.993051 -2.96829 0
M  V30 7615 C 753.405 1.22537 -4.41303 0
M  V30 7616 N 754.896 1.29275 -4.44795 0
M  V30 7617 C 755.631 1.48988 -5.53706 0
M  V30 7618 N 755.127 1.65924 -6.72637 0
M  V30 7619 N 756.92 1.51472 -5.41306 0
M  V30 7620 H 749.071 -0.459688 -2.07366 0
M  V30 7621 H 751.334 -0.143684 -0.937048 0
M  V30 7622 H 751.04 0.0592517 -3.5165 0
M  V30 7623 H 750.914 1.79795 -3.31592 0
M  V30 7624 H 753.301 1.81827 -2.32429 0
M  V30 7625 H 753.382 0.0661119 -2.55715 0
M  V30 7626 H 753.026 0.405117 -5.06282 0
M  V30 7627 H 752.956 2.16575 -4.80003 0
M  V30 7628 H 755.447 1.17743 -3.59089 0
M  V30 7629 H 755.76 1.80578 -7.51406 0
M  V30 7630 H 754.105 1.63075 -6.75597 0
M  V30 7631 H 757.296 1.37818 -4.47352 0
M  V30 7632 H 757.469 1.66493 -6.26246 0
M  V30 7633 N 750.875 1.45233 0.611969 0
M  V30 7634 C 751.822 1.5357 1.72293 0
M  V30 7635 C 752.792 0.381912 1.6165 0
M  V30 7636 O 753.977 0.594765 1.81293 0
M  V30 7637 C 751.117 1.50419 3.10593 0
M  V30 7638 C 750.23 2.76316 3.32074 0
M  V30 7639 C 749.365 2.64866 4.60456 0
M  V30 7640 C 748.404 3.85838 4.7518 0
M  V30 7641 N 747.541 3.72949 5.94856 0
M  V30 7642 H 752.381 2.4848 1.64504 0
M  V30 7643 H 749.918 1.23302 0.802191 0
M  V30 7644 H 751.876 1.4658 3.90602 0
M  V30 7645 H 750.506 0.590621 3.17351 0
M  V30 7646 H 749.558 2.90261 2.45872 0
M  V30 7647 H 750.87 3.66055 3.38829 0
M  V30 7648 H 750.024 2.58969 5.48653 0
M  V30 7649 H 748.763 1.72719 4.56092 0
M  V30 7650 H 747.768 3.92099 3.85407 0
M  V30 7651 H 748.993 4.79045 4.81344 0
M  V30 7652 H 746.939 2.83567 5.91545 0
M  V30 7653 H 746.856 4.56319 6.02751 0
M  V30 7654 H 748.124 3.70976 6.85563 0
M  V30 7655 N 752.353 -0.854086 1.3245 0
M  V30 7656 C 753.578 -1.64597 1.26185 0
M  V30 7657 C 754.003 -1.87357 -0.167074 0
M  V30 7658 O 753.361 -1.42675 -1.11864 0
M  V30 7659 C 753.409 -2.98213 2.02734 0
M  V30 7660 O 752.513 -3.88784 1.37554 0
M  V30 7661 H 751.854 -0.50179 0.434859 0
M  V30 7662 H 754.384 -1.06372 1.74775 0
M  V30 7663 H 754.394 -3.4803 2.1293 0
M  V30 7664 H 753.069 -2.80969 3.06642 0
M  V30 7665 H 751.646 -3.4725 1.3591 0
M  V30 7666 N 753.831 -1.1567 -1.07043 0
M  V30 7667 C 755.077 -0.944878 -1.80121 0
M  V30 7668 C 755.432 0.522239 -1.85177 0
M  V30 7669 O 754.725 1.38228 -1.32678 0
M  V30 7670 C 754.919 -1.49677 -3.24548 0
M  V30 7671 C 754.748 -3.01602 -3.33566 0
M  V30 7672 C 753.518 -3.70177 -3.43943 0
M  V30 7673 C 755.716 -3.99362 -3.24059 0
M  V30 7674 N 753.698 -5.09882 -3.41896 0
M  V30 7675 C 755.069 -5.25404 -3.29167 0
M  V30 7676 C 757.124 -3.91289 -3.07891 0
M  V30 7677 C 755.827 -6.44314 -3.19769 0
M  V30 7678 C 757.853 -5.09761 -2.99829 0
M  V30 7679 C 757.215 -6.34679 -3.05552 0
M  V30 7680 H 753.314 -0.399447 -0.672284 0
M  V30 7681 H 755.898 -1.4693 -1.27749 0
M  V30 7682 H 754.069 -0.998941 -3.75334 0
M  V30 7683 H 755.801 -1.22346 -3.85764 0
M  V30 7684 H 752.556 -3.2078 -3.48421 0
M  V30 7685 H 752.98 -5.82857 -3.44393 0
M  V30 7686 H 757.622 -2.95573 -3.02318 0
M  V30 7687 H 755.34 -7.4026 -3.24101 0
M  V30 7688 H 758.926 -5.05279 -2.88418 0
M  V30 7689 H 757.806 -7.24812 -2.99361 0
M  V30 7690 N 755.309 1.25446 -0.953992 0
M  V30 7691 C 756.556 1.93143 -0.608429 0
M  V30 7692 C 756.884 1.74727 0.854451 0
M  V30 7693 O 756.139 1.0855 1.62836 0
M  V30 7694 C 756.438 3.45555 -0.912496 0
M  V30 7695 C 756.104 3.84126 -2.36131 0
M  V30 7696 C 754.766 3.94367 -2.75732 0
M  V30 7697 C 757.118 4.0324 -3.30223 0
M  V30 7698 C 754.446 4.21127 -4.08496 0
M  V30 7699 C 756.798 4.31493 -4.62598 0
M  V30 7700 C 755.462 4.3995 -5.01996 0
M  V30 7701 H 754.732 0.706762 -0.22264 0
M  V30 7702 H 757.379 1.49005 -1.20291 0
M  V30 7703 H 755.684 3.91091 -0.235618 0
M  V30 7704 H 757.381 3.9612 -0.623714 0
M  V30 7705 H 753.971 3.76711 -2.04418 0
M  V30 7706 H 758.155 3.94744 -3.00817 0
M  V30 7707 H 753.411 4.2589 -4.38665 0
M  V30 7708 H 757.585 4.45227 -5.35486 0
M  V30 7709 H 755.212 4.60439 -6.04896 0
M  V30 7710 N 756.787 0.722489 1.40064 0
M  V30 7711 C 757.72 0.0233443 2.28188 0
M  V30 7712 C 758.698 -0.7606 1.43714 0
M  V30 7713 O 759.882 -0.745791 1.73119 0
M  V30 7714 C 757.009 -0.974264 3.24385 0
M  V30 7715 C 756.055 -0.280307 4.25578 0
M  V30 7716 S 756.888 0.996769 5.26141 0
M  V30 7717 C 758.044 0.00143923 6.259 0
M  V30 7718 H 758.277 0.770705 2.87137 0
M  V30 7719 H 755.81 0.513783 1.45601 0
M  V30 7720 H 757.768 -1.5446 3.80332 0
M  V30 7721 H 756.429 -1.69438 2.6448 0
M  V30 7722 H 755.622 -1.03471 4.93264 0
M  V30 7723 H 755.224 0.217657 3.73366 0
M  V30 7724 H 757.516 -0.843126 6.72233 0
M  V30 7725 H 758.459 0.645104 7.05155 0
M  V30 7726 H 758.867 -0.365371 5.63316 0
M  V30 7727 N 758.265 -1.50454 0.469181 0
M  V30 7728 C 759.512 -2.02315 -0.086469 0
M  V30 7729 C 759.84 -1.3513 -1.39893 0
M  V30 7730 O 759.095 -0.465341 -1.90087 0
M  V30 7731 C 759.394 -3.55963 -0.320207 0
M  V30 7732 C 759.06 -4.41615 0.910318 0
M  V30 7733 C 757.722 -4.64743 1.2477 0
M  V30 7734 C 760.074 -4.91661 1.72971 0
M  V30 7735 C 757.402 -5.35161 2.40457 0
M  V30 7736 C 759.754 -5.6335 2.87785 0
M  V30 7737 C 758.418 -5.84732 3.2194 0
M  V30 7738 H 757.688 -0.740324 -0.0316412 0
M  V30 7739 H 760.335 -1.81087 0.622872 0
M  V30 7740 H 758.64 -3.75695 -1.11177 0
M  V30 7741 H 760.337 -3.93653 -0.764071 0
M  V30 7742 H 756.927 -4.23833 0.637467 0
M  V30 7743 H 761.111 -4.73649 1.48224 0
M  V30 7744 H 756.367 -5.49924 2.67196 0
M  V30 7745 H 760.541 -6.0111 3.51624 0
M  V30 7746 H 758.168 -6.39074 4.1169 0
M  V30 7747 N 759.743 -0.201713 -1.56304 0
M  V30 7748 C 761.02 0.483273 -1.89536 0
M  V30 7749 C 761.4 1.79176 -1.11621 0
M  V30 7750 O 760.748 2.27445 -0.219339 0
M  V30 7751 C 760.958 0.695604 -3.41998 0
M  V30 7752 C 762.306 1.012 -4.12364 0
M  V30 7753 O 763.33 0.783094 -3.47485 0
M  V30 7754 O 762.189 1.44534 -5.27041 0
M  V30 7755 H 759.283 0.252801 -0.787414 0
M  V30 7756 H 761.829 -0.24242 -1.6796 0
M  V30 7757 H 760.601 -0.228165 -3.90634 0
M  V30 7758 H 760.224 1.47351 -3.69288 0
M  V30 7759 N 761.222 1.57436 0.0718424 0
M  V30 7760 C 762.499 1.78312 0.804006 0
M  V30 7761 C 762.879 0.789273 1.9579 0
M  V30 7762 O 762.227 -0.177605 2.27809 0
M  V30 7763 C 762.437 3.24798 1.277 0
M  V30 7764 C 763.785 3.88627 1.71039 0
M  V30 7765 O 764.809 3.28689 1.37266 0
M  V30 7766 O 763.668 4.94073 2.33567 0
M  V30 7767 H 760.762 0.73178 0.385262 0
M  V30 7768 H 763.308 1.69621 0.0519219 0
M  V30 7769 H 762.08 3.88688 0.45134 0
M  V30 7770 H 761.703 3.38213 2.0904 0
M  V30 7771 N 762.7 -0.34323 1.53817 0
M  V30 7772 C 763.61 -1.44493 1.84821 0
M  V30 7773 C 764.626 -1.57556 0.738381 0
M  V30 7774 O 765.802 -1.73026 1.03072 0
M  V30 7775 C 762.867 -2.79478 2.05166 0
M  V30 7776 C 761.928 -2.75756 3.29025 0
M  V30 7777 C 761.161 -4.04302 3.4839 0
M  V30 7778 O 761.384 -5.01595 2.71586 0
M  V30 7779 O 760.318 -4.08754 4.41819 0
M  V30 7780 H 764.144 -1.21209 2.78464 0
M  V30 7781 H 761.729 -0.535437 1.39476 0
M  V30 7782 H 763.611 -3.59419 2.19991 0
M  V30 7783 H 762.286 -3.02692 1.14713 0
M  V30 7784 H 761.193 -1.94434 3.19603 0
M  V30 7785 H 762.526 -2.57495 4.19472 0
M  V30 7786 N 764.178 -1.45556 -0.604258 0
M  V30 7787 C 765.427 -1.49019 -1.35928 0
M  V30 7788 C 765.74 -0.137409 -1.95117 0
M  V30 7789 O 766.946 -0.0497032 -2.71455 0
M  V30 7790 C 765.402 -2.62477 -2.46239 0
M  V30 7791 C 765.01 -4.04082 -1.93447 0
M  V30 7792 C 766.754 -2.7519 -3.23219 0
M  V30 7793 C 764.661 -5.08917 -3.0126 0
M  V30 7794 H 763.591 -0.554518 -0.510907 0
M  V30 7795 H 766.242 -1.71705 -0.647262 0
M  V30 7796 H 764.624 -2.3308 -3.2014 0
M  V30 7797 H 765.798 -4.43173 -1.26232 0
M  V30 7798 H 764.113 -3.95849 -1.29201 0
M  V30 7799 H 766.71 -3.50683 -4.0364 0
M  V30 7800 H 767.053 -1.81941 -3.74437 0
M  V30 7801 H 767.586 -3.04129 -2.56418 0
M  V30 7802 H 764.325 -6.03886 -2.54955 0
M  V30 7803 H 763.845 -4.74393 -3.67031 0
M  V30 7804 H 765.524 -5.33814 -3.65584 0
M  V30 7805 N 765.656 0.84705 -1.32902 0
M  V30 7806 C 766.902 1.60414 -1.24078 0
M  V30 7807 C 767.235 1.93217 0.195105 0
M  V30 7808 O 766.51 1.58001 1.13428 0
M  V30 7809 C 766.793 2.91951 -2.108 0
M  V30 7810 C 766.646 2.6588 -3.62805 0
M  V30 7811 C 767.965 3.93299 -1.97494 0
M  V30 7812 H 765.084 0.58206 -0.452079 0
M  V30 7813 H 767.726 0.977562 -1.62922 0
M  V30 7814 H 765.876 3.45425 -1.77802 0
M  V30 7815 H 767.548 2.18902 -4.06054 0
M  V30 7816 H 765.791 1.99716 -3.85092 0
M  V30 7817 H 766.462 3.59574 -4.1882 0
M  V30 7818 H 768.938 3.49105 -2.26417 0
M  V30 7819 H 767.814 4.8318 -2.60438 0
M  V30 7820 H 768.075 4.31887 -0.944782 0
M  V30 7821 N 767.134 1.16236 1.06428 0
M  V30 7822 C 768.097 0.870163 2.1204 0
M  V30 7823 C 769.097 -0.134239 1.60239 0
M  V30 7824 O 770.287 0.0964932 1.73933 0
M  V30 7825 C 767.419 0.301033 3.39568 0
M  V30 7826 H 768.612 1.8064 2.39394 0
M  V30 7827 H 766.165 0.971116 1.2247 0
M  V30 7828 H 766.9 -0.642948 3.17863 0
M  V30 7829 H 766.685 1.02475 3.78472 0
M  V30 7830 H 768.175 0.114494 4.17443 0
M  V30 7831 N 768.612 -1.24939 0.960631 0
M  V30 7832 C 769.542 -2.28 0.503815 0
M  V30 7833 C 770.523 -1.63959 -0.452928 0
M  V30 7834 O 771.708 -1.91009 -0.350585 0
M  V30 7835 C 768.838 -3.46643 -0.213535 0
M  V30 7836 C 767.792 -4.22903 0.658535 0
M  V30 7837 C 767.118 -5.34363 -0.189902 0
M  V30 7838 C 768.418 -4.84949 1.93963 0
M  V30 7839 H 770.112 -2.66462 1.36521 0
M  V30 7840 H 767.658 -1.28093 0.657897 0
M  V30 7841 H 769.611 -4.1787 -0.544286 0
M  V30 7842 H 768.335 -3.07187 -1.10923 0
M  V30 7843 H 766.994 -3.53467 0.972455 0
M  V30 7844 H 766.642 -4.91147 -1.08553 0
M  V30 7845 H 766.342 -5.86302 0.390331 0
M  V30 7846 H 767.866 -6.0842 -0.515484 0
M  V30 7847 H 769.28 -5.48288 1.67491 0
M  V30 7848 H 767.677 -5.47091 2.46601 0
M  V30 7849 H 768.747 -4.06799 2.639 0
M  V30 7850 N 770.09 -0.729906 -1.39679 0
M  V30 7851 C 771.338 -0.275077 -2.00219 0
M  V30 7852 C 771.659 1.1401 -1.58199 0
M  V30 7853 O 770.929 1.77546 -0.827904 0
M  V30 7854 H 769.509 -0.0987127 -0.740449 0
M  V30 7855 H 772.171 -0.93873 -1.70804 0
M  V30 7856 H 771.267 -0.319446 -3.10461 0
M  V30 7857 N 771.568 1.50203 -0.477153 0
M  V30 7858 C 772.793 2.07263 0.0754986 0
M  V30 7859 C 773.218 1.33801 1.32208 0
M  V30 7860 O 772.576 0.387482 1.77111 0
M  V30 7861 C 772.624 3.59028 0.336348 0
M  V30 7862 O 771.728 3.87339 1.4157 0
M  V30 7863 H 771.069 0.663815 -0.015662 0
M  V30 7864 H 773.599 1.93321 -0.669936 0
M  V30 7865 H 773.609 4.03927 0.575034 0
M  V30 7866 H 772.284 4.11912 -0.574551 0
M  V30 7867 H 770.861 3.54272 1.16385 0
M  V30 7868 N 773.046 0.209999 1.56195 0
M  V30 7869 C 774.294 -0.423974 1.97603 0
M  V30 7870 C 774.615 -1.61112 1.09854 0
M  V30 7871 O 773.885 -1.95134 0.173032 0
M  V30 7872 H 772.465 -0.159629 0.729745 0
M  V30 7873 H 775.127 0.300205 1.92574 0
M  V30 7874 H 774.223 -0.75809 3.02753 0
M  V30 7875 N 774.524 -1.57472 -0.0634922 0
M  V30 7876 C 775.773 -1.86837 -0.759928 0
M  V30 7877 C 776.086 -0.803823 -1.7832 0
M  V30 7878 O 777.292 -0.985578 -2.52979 0
M  V30 7879 C 775.748 -3.31448 -1.4025 0
M  V30 7880 C 775.356 -4.46052 -0.417368 0
M  V30 7881 C 777.1 -3.70003 -2.08082 0
M  V30 7882 C 775.007 -5.81707 -1.06633 0
M  V30 7883 H 773.937 -0.697009 -0.287567 0
M  V30 7884 H 776.588 -1.83495 -0.0133914 0
M  V30 7885 H 774.97 -3.29427 -2.19759 0
M  V30 7886 H 776.144 -4.5948 0.348503 0
M  V30 7887 H 774.459 -4.16104 0.156955 0
M  V30 7888 H 777.056 -4.68653 -2.57426 0
M  V30 7889 H 777.399 -3.00226 -2.88393 0
M  V30 7890 H 777.932 -3.7405 -1.35394 0
M  V30 7891 H 774.671 -6.54798 -0.303374 0
M  V30 7892 H 774.191 -5.72064 -1.80286 0
M  V30 7893 H 775.87 -6.27317 -1.58376 0
M  V30 7894 N 776.003 0.335068 -1.53997 0
M  V30 7895 C 777.228 1.09859 -1.75914 0
M  V30 7896 C 777.653 1.81308 -0.500915 0
M  V30 7897 O 777.011 1.72854 0.54693 0
M  V30 7898 C 777.059 2.08122 -2.94478 0
M  V30 7899 O 776.163 3.15805 -2.65219 0
M  V30 7900 H 775.504 0.317313 -0.583274 0
M  V30 7901 H 778.034 0.382872 -2.00986 0
M  V30 7902 H 778.044 2.51195 -3.21504 0
M  V30 7903 H 776.719 1.55517 -3.8573 0
M  V30 7904 H 775.296 2.77489 -2.49107 0
M  V30 7905 N 777.481 1.45874 0.596531 0
M  V30 7906 C 778.706 1.54247 1.38646 0
M  V30 7907 C 779.131 0.179571 1.87241 0
M  V30 7908 O 778.489 -0.837831 1.6078 0
M  V30 7909 C 778.537 2.54015 2.55946 0
M  V30 7910 O 777.641 2.06561 3.5694 0
M  V30 7911 H 776.982 0.519555 0.413471 0
M  V30 7912 H 779.512 1.91327 0.724936 0
M  V30 7913 H 779.522 2.73179 3.03047 0
M  V30 7914 H 778.197 3.52994 2.19928 0
M  V30 7915 H 776.774 1.97324 3.16414 0
M  V30 7916 N 778.959 -0.83999 1.33349 0
M  V30 7917 C 780.187 -1.62728 1.27778 0
M  V30 7918 C 780.602 -1.88191 -0.151505 0
M  V30 7919 O 779.959 -1.46128 -1.09329 0
M  V30 7920 C 780.01 -2.97813 2.04913 0
M  V30 7921 O 779.731 -2.73469 3.42266 0
M  V30 7922 C 781.232 -3.92245 2.0654 0
M  V30 7923 H 778.452 -0.506374 0.440257 0
M  V30 7924 H 780.996 -1.04637 1.75703 0
M  V30 7925 H 779.151 -3.52509 1.60674 0
M  V30 7926 H 779.565 -3.59483 3.81932 0
M  V30 7927 H 781.039 -4.84249 2.64966 0
M  V30 7928 H 781.516 -4.26332 1.05537 0
M  V30 7929 H 782.122 -3.43487 2.50793 0
M  V30 7930 N 780.437 -1.16799 -1.0581 0
M  V30 7931 C 781.4 -0.881396 -2.11575 0
M  V30 7932 C 782.4 0.12574 -1.60308 0
M  V30 7933 O 783.59 -0.105716 -1.73879 0
M  V30 7934 C 780.722 -0.319037 -3.39404 0
M  V30 7935 H 781.915 -1.81907 -2.38432 0
M  V30 7936 H 779.468 -0.977597 -1.21954 0
M  V30 7937 H 780.203 0.626082 -3.18199 0
M  V30 7938 H 779.988 -1.04481 -3.77923 0
M  V30 7939 H 781.478 -0.13663 -4.17376 0
M  V30 7940 N 781.915 1.24427 -0.967243 0
M  V30 7941 C 783.163 1.92107 -0.627638 0
M  V30 7942 C 783.484 1.75991 0.83978 0
M  V30 7943 O 782.754 1.13118 1.59941 0
M  V30 7944 H 781.334 0.710986 -0.229145 0
M  V30 7945 H 783.996 1.51331 -1.22821 0
M  V30 7946 H 783.092 2.99791 -0.867844 0
M  V30 7947 N 783.393 0.737304 1.3929 0
M  V30 7948 C 784.642 0.283129 1.99703 0
M  V30 7949 C 784.955 -1.13677 1.59176 0
M  V30 7950 O 786.161 -1.69058 2.12442 0
M  V30 7951 C 784.617 0.455262 3.57009 0
M  V30 7952 C 784.225 1.88319 4.06497 0
M  V30 7953 C 785.969 0.0629786 4.24453 0
M  V30 7954 C 783.876 2.00475 5.56385 0
M  V30 7955 H 782.806 0.102106 0.747054 0
M  V30 7956 H 785.457 0.911515 1.5926 0
M  V30 7957 H 783.839 -0.242057 3.9526 0
M  V30 7958 H 785.013 2.61265 3.79575 0
M  V30 7959 H 783.328 2.2289 3.51723 0
M  V30 7960 H 785.925 0.132787 5.34535 0
M  V30 7961 H 786.268 -0.982128 4.04549 0
M  V30 7962 H 786.801 0.71154 3.91385 0
M  V30 7963 H 783.54 3.03182 5.81172 0
M  V30 7964 H 783.06 1.31969 5.85102 0
M  V30 7965 H 784.739 1.787 6.21832 0
M  V30 7966 N 784.871 -1.49948 0.485112 0
M  V30 7967 C 786.282 -1.8667 0.0334041 0
M  V30 7968 C 786.633 -1.3988 -1.37579 0
M  V30 7969 O 785.758 -0.769788 -2.02245 0
M  V30 7970 C 786.353 -3.38757 0.0538426 0
M  V30 7971 C 784.912 -3.74839 -0.342453 0
M  V30 7972 C 784.059 -2.73894 0.433281 0
M  V30 7973 H 787.01 -1.42492 0.698699 0
M  V30 7974 H 787.031 -3.73132 -0.745146 0
M  V30 7975 H 786.543 -3.72782 1.07959 0
M  V30 7976 H 784.644 -3.46419 -1.37203 0
M  V30 7977 H 784.757 -4.79088 -0.0340503 0
M  V30 7978 H 783.121 -2.54441 -0.114849 0
M  V30 7979 H 783.904 -3.10763 1.45881 0
M  V30 7980 N 786.349 -0.21828 -1.56081 0
M  V30 7981 C 787.598 0.414644 -1.97392 0
M  V30 7982 C 787.911 1.61132 -1.10887 0
M  V30 7983 O 789.117 2.31355 -1.42082 0
M  V30 7984 C 787.573 0.789099 -3.51143 0
M  V30 7985 C 787.181 -0.384578 -4.46346 0
M  V30 7986 C 788.925 1.38781 -4.01173 0
M  V30 7987 C 786.832 0.0121288 -5.91399 0
M  V30 7988 H 785.762 0.158691 -0.737111 0
M  V30 7989 H 788.413 -0.313974 -1.80794 0
M  V30 7990 H 786.795 1.57505 -3.6333 0
M  V30 7991 H 787.969 -1.16212 -4.45905 0
M  V30 7992 H 786.284 -0.896306 -4.06639 0
M  V30 7993 H 788.881 1.69746 -5.07041 0
M  V30 7994 H 789.224 2.30245 -3.46833 0
M  V30 7995 H 789.757 0.665364 -3.92196 0
M  V30 7996 H 786.496 -0.868917 -6.49715 0
M  V30 7997 H 786.016 0.754053 -5.95041 0
M  V30 7998 H 787.695 0.439949 -6.45502 0
M  V30 7999 N 787.827 1.57504 0.0551401 0
M  V30 8000 C 788.737 2.08198 1.08124 0
M  V30 8001 C 789.753 1.01496 1.41331 0
M  V30 8002 O 790.929 1.33073 1.51174 0
M  V30 8003 C 787.994 2.52968 2.37083 0
M  V30 8004 C 787.055 3.7404 2.10696 0
M  V30 8005 C 786.288 4.16665 3.33505 0
M  V30 8006 O 786.511 3.59019 4.4324 0
M  V30 8007 O 785.445 5.09324 3.20737 0
M  V30 8008 H 789.271 2.95977 0.680518 0
M  V30 8009 H 786.856 1.46933 0.270401 0
M  V30 8010 H 788.738 2.82211 3.12946 0
M  V30 8011 H 787.413 1.6831 2.76502 0
M  V30 8012 H 786.32 3.49855 1.32484 0
M  V30 8013 H 787.653 4.59601 1.76148 0
M  V30 8014 N 789.305 -0.326896 1.54172 0
M  V30 8015 C 790.533 -1.08486 1.76177 0
M  V30 8016 C 790.948 -1.81815 0.508788 0
M  V30 8017 O 790.305 -1.74924 -0.520362 0
M  V30 8018 C 790.356 -2.08552 2.95276 0
M  V30 8019 O 790.077 -1.38202 4.15731 0
M  V30 8020 C 791.578 -2.96593 3.29466 0
M  V30 8021 H 788.798 -0.322835 0.588233 0
M  V30 8022 H 791.342 -0.374036 2.0105 0
M  V30 8023 H 789.497 -2.75174 2.72687 0
M  V30 8024 H 789.911 -2.05186 4.827 0
M  V30 8025 H 791.385 -3.62708 4.16109 0
M  V30 8026 H 791.862 -3.63511 2.46487 0
M  V30 8027 H 792.468 -2.35537 3.54122 0
M  V30 8028 N 790.784 -1.46188 -0.588786 0
M  V30 8029 C 792.03 -1.51407 -1.34921 0
M  V30 8030 C 792.363 -0.162771 -1.93517 0
M  V30 8031 O 791.638 0.825082 -1.76132 0
M  V30 8032 C 791.921 -2.60795 -2.48311 0
M  V30 8033 C 791.774 -4.05435 -1.94789 0
M  V30 8034 C 793.093 -2.66313 -3.50379 0
M  V30 8035 H 790.212 -0.551213 -0.489217 0
M  V30 8036 H 792.854 -1.78095 -0.661993 0
M  V30 8037 H 791.004 -2.3817 -3.06932 0
M  V30 8038 H 792.676 -4.39328 -1.40672 0
M  V30 8039 H 790.919 -4.15202 -1.25659 0
M  V30 8040 H 791.59 -4.77691 -2.76613 0
M  V30 8041 H 794.066 -2.86634 -3.01629 0
M  V30 8042 H 792.942 -3.44681 -4.27184 0
M  V30 8043 H 793.203 -1.72127 -4.07216 0
M  V30 8044 N 792.262 0.832906 -1.33792 0
M  V30 8045 C 793.508 1.59089 -1.25772 0
M  V30 8046 C 793.841 1.93414 0.174601 0
M  V30 8047 O 793.116 1.59195 1.11746 0
M  V30 8048 C 793.399 2.89699 -2.13885 0
M  V30 8049 C 793.252 2.62017 -3.65605 0
M  V30 8050 C 794.571 3.91182 -2.01654 0
M  V30 8051 H 791.69 0.577232 -0.458227 0
M  V30 8052 H 794.332 0.960227 -1.6395 0
M  V30 8053 H 792.482 3.4352 -1.81456 0
M  V30 8054 H 794.154 2.14582 -4.08353 0
M  V30 8055 H 792.397 1.95621 -3.87189 0
M  V30 8056 H 793.068 3.55112 -4.2261 0
M  V30 8057 H 795.544 3.46684 -2.30107 0
M  V30 8058 H 794.42 4.80391 -2.65548 0
M  V30 8059 H 794.681 4.30861 -0.990536 0
M  V30 8060 N 793.74 1.17359 1.05189 0
M  V30 8061 C 795.017 0.871914 1.75091 0
M  V30 8062 C 795.397 -0.627821 2.01548 0
M  V30 8063 O 794.745 -1.5791 1.65156 0
M  V30 8064 C 794.955 1.70687 3.04413 0
M  V30 8065 C 796.303 1.92684 3.78362 0
M  V30 8066 O 797.327 1.67645 3.14282 0
M  V30 8067 O 796.186 2.34765 4.93505 0
M  V30 8068 H 793.28 0.322831 0.761386 0
M  V30 8069 H 795.826 1.28054 1.11357 0
M  V30 8070 H 794.598 2.72405 2.80911 0
M  V30 8071 H 794.221 1.29602 3.75884 0
M  V30 8072 N 795.218 -1.23913 0.973828 0
M  V30 8073 C 796.166 -2.27141 0.50098 0
M  V30 8074 C 797.16 -1.63623 -0.438631 0
M  V30 8075 O 798.366 -1.77253 -0.313247 0
M  V30 8076 H 794.741 -0.73817 0.14356 0
M  V30 8077 H 796.712 -2.64392 1.38346 0
M  V30 8078 C 795.461 -3.47195 -0.187377 0
M  V30 8079 H 794.784 -3.96318 0.526535 0
M  V30 8080 H 796.224 -4.21252 -0.481962 0
M  V30 8081 C 794.683 -3.05678 -1.41642 0
M  V30 8082 O 795.213 -3.1338 -2.51309 0
M  V30 8083 N 793.419 -2.60661 -1.28469 0
M  V30 8084 H 792.966 -2.54594 -0.39238 0
M  V30 8085 H 792.924 -2.33249 -2.10813 0
M  V30 8086 N 796.696 -0.74468 -1.38897 0
M  V30 8087 C 798.112 -0.421302 -1.53939 0
M  V30 8088 C 798.312 1.06668 -1.70951 0
M  V30 8089 O 797.368 1.85278 -1.71547 0
M  V30 8090 C 798.681 -1.21278 -2.75159 0
M  V30 8091 C 800.229 -1.20196 -2.89001 0
M  V30 8092 C 800.704 -1.97621 -4.13171 0
M  V30 8093 N 802.195 -1.94836 -4.2023 0
M  V30 8094 C 802.93 -2.51545 -5.15279 0
M  V30 8095 N 802.426 -3.1693 -6.16058 0
M  V30 8096 N 804.219 -2.41524 -5.07565 0
M  V30 8097 H 796.37 -1.70914 -1.26103 0
M  V30 8098 H 798.633 -0.724058 -0.611919 0
M  V30 8099 H 798.339 -2.26609 -2.68963 0
M  V30 8100 H 798.213 -0.823677 -3.68097 0
M  V30 8101 H 800.6 -0.156742 -2.94683 0
M  V30 8102 H 800.681 -1.63051 -1.97099 0
M  V30 8103 H 800.325 -3.02149 -4.0825 0
M  V30 8104 H 800.255 -1.52166 -5.04136 0
M  V30 8105 H 802.746 -1.4721 -3.48048 0
M  V30 8106 H 803.059 -3.57644 -6.85062 0
M  V30 8107 H 801.404 -3.21023 -6.16417 0
M  V30 8108 H 804.595 -1.90077 -4.27771 0
M  V30 8109 H 804.768 -2.86016 -5.81462 0
M  V30 8110 N 798.174 1.49689 -0.493057 0
M  V30 8111 C 799.121 2.28976 0.28959 0
M  V30 8112 C 800.091 1.35011 0.967536 0
M  V30 8113 O 801.276 1.63964 0.975736 0
M  V30 8114 C 798.416 3.1748 1.35279 0
M  V30 8115 C 797.529 4.26496 0.687418 0
M  V30 8116 C 796.664 5.02226 1.73038 0
M  V30 8117 C 795.703 6.03089 1.04645 0
M  V30 8118 N 794.84 6.72014 2.03325 0
M  V30 8119 H 799.68 2.954 -0.392798 0
M  V30 8120 H 797.217 1.45657 -0.205554 0
M  V30 8121 H 799.175 3.67162 1.98111 0
M  V30 8122 H 797.805 2.53057 2.00405 0
M  V30 8123 H 796.857 3.80362 -0.0540001 0
M  V30 8124 H 798.169 4.98578 0.14864 0
M  V30 8125 H 797.323 5.55737 2.43395 0
M  V30 8126 H 796.062 4.29899 2.303 0
M  V30 8127 H 795.067 5.48817 0.328606 0
M  V30 8128 H 796.292 6.77398 0.480428 0
M  V30 8129 H 794.238 6.02464 2.59564 0
M  V30 8130 H 794.155 7.40046 1.54492 0
M  V30 8131 H 795.423 7.30133 2.72995 0
M  V30 8132 N 799.652 0.226554 1.55963 0
M  V30 8133 C 800.582 -0.676079 2.23498 0
M  V30 8134 C 801.563 -1.19718 1.20837 0
M  V30 8135 O 802.748 -1.24027 1.49436 0
M  V30 8136 C 799.878 -1.88217 2.91876 0
M  V30 8137 C 798.832 -1.4947 4.01052 0
M  V30 8138 C 798.158 -2.77997 4.56751 0
M  V30 8139 C 799.458 -0.680951 5.17842 0
M  V30 8140 H 801.152 -0.112989 2.99187 0
M  V30 8141 H 798.698 -0.0529046 1.43903 0
M  V30 8142 H 800.651 -2.51911 3.37815 0
M  V30 8143 H 799.375 -2.47031 2.13643 0
M  V30 8144 H 798.034 -0.881199 3.55852 0
M  V30 8145 H 797.682 -3.34966 3.75243 0
M  V30 8146 H 797.382 -2.52803 5.30438 0
M  V30 8147 H 798.906 -3.42625 5.05411 0
M  V30 8148 H 800.32 -1.22171 5.60131 0
M  V30 8149 H 798.717 -0.525898 5.97791 0
M  V30 8150 H 799.787 0.311346 4.83899 0
M  V30 8151 N 801.13 -1.57531 -0.0467866 0
M  V30 8152 C 802.078 -2.06455 -1.0714 0
M  V30 8153 C 803.072 -0.974744 -1.38546 0
M  V30 8154 O 804.278 -1.15974 -1.37659 0
M  V30 8155 H 800.653 -0.658607 -0.362962 0
M  V30 8156 H 802.624 -2.91613 -0.632813 0
M  V30 8157 C 801.373 -2.54481 -2.36927 0
M  V30 8158 H 800.696 -3.37946 -2.13617 0
M  V30 8159 H 802.136 -2.92442 -3.07007 0
M  V30 8160 C 800.595 -1.43836 -3.04652 0
M  V30 8161 O 801.125 -0.794531 -3.93764 0
M  V30 8162 N 799.331 -1.17727 -2.65686 0
M  V30 8163 H 798.878 -1.70265 -1.93307 0
M  V30 8164 H 798.836 -0.439051 -3.11319 0
M  V30 8165 N 802.608 0.318715 -1.54344 0
M  V30 8166 C 803.856 1.054 -1.72439 0
M  V30 8167 C 804.177 1.88388 -0.503495 0
M  V30 8168 O 803.447 1.89866 0.48246 0
M  V30 8169 H 802.027 0.392124 -0.635805 0
M  V30 8170 H 804.689 0.35398 -1.91659 0
M  V30 8171 H 803.785 1.71726 -2.60608 0
M  V30 8172 N 804.086 1.46499 0.581025 0
M  V30 8173 C 805.049 1.5677 1.672 0
M  V30 8174 C 806.049 0.444716 1.54528 0
M  V30 8175 O 807.239 0.709074 1.59116 0
M  V30 8176 C 804.371 1.4896 3.06633 0
M  V30 8177 H 805.564 2.54 1.5945 0
M  V30 8178 H 803.117 1.34334 0.799003 0
M  V30 8179 H 803.852 0.530168 3.19937 0
M  V30 8180 H 803.637 2.30439 3.17239 0
M  V30 8181 H 805.127 1.59237 3.86048 0
M  V30 8182 N 805.565 -0.825799 1.34232 0
M  V30 8183 C 806.813 -1.57873 1.26177 0
M  V30 8184 C 807.134 -1.94267 -0.168904 0
M  V30 8185 O 806.404 -1.62045 -1.10084 0
M  V30 8186 H 804.984 -0.585388 0.464037 0
M  V30 8187 H 807.646 -0.986163 1.6811 0
M  V30 8188 H 806.742 -2.50283 1.86453 0
M  V30 8189 N 807.043 -1.17915 -1.04565 0
M  V30 8190 C 808.32 -0.881187 -1.74627 0
M  V30 8191 C 808.7 0.617123 -2.01878 0
M  V30 8192 O 808.048 1.57032 -1.65991 0
M  V30 8193 C 808.258 -1.72299 -3.03503 0
M  V30 8194 C 809.606 -1.94688 -3.77335 0
M  V30 8195 O 810.63 -1.6931 -3.13389 0
M  V30 8196 O 809.489 -2.37379 -4.92253 0
M  V30 8197 H 806.583 -0.326864 -0.759664 0
M  V30 8198 H 809.129 -1.28642 -1.10676 0
M  V30 8199 H 807.901 -2.73891 -2.79462 0
M  V30 8200 H 807.524 -1.31593 -3.75192 0
M  V30 8201 N 808.521 1.23394 -0.980386 0
M  V30 8202 C 809.469 2.26872 -0.513018 0
M  V30 8203 C 810.463 1.63853 0.429948 0
M  V30 8204 O 811.669 1.77417 0.303842 0
M  V30 8205 H 808.044 0.737398 -0.147473 0
M  V30 8206 H 810.015 2.63654 -1.39746 0
M  V30 8207 C 808.764 3.47289 0.168962 0
M  V30 8208 H 808.087 3.96033 -0.547546 0
M  V30 8209 H 809.527 4.21502 0.459616 0
M  V30 8210 C 807.986 3.06425 1.40019 0
M  V30 8211 O 808.516 3.14708 2.49643 0
M  V30 8212 N 806.722 2.61339 1.27084 0
M  V30 8213 H 806.269 2.54799 0.378872 0
M  V30 8214 H 806.227 2.34364 2.09573 0
M  V30 8215 N 809.999 0.752036 1.385 0
M  V30 8216 C 810.962 0.131587 2.28822 0
M  V30 8217 C 811.962 -0.649149 1.47115 0
M  V30 8218 O 813.152 -0.475645 1.67581 0
M  V30 8219 C 810.284 -0.822101 3.30839 0
M  V30 8220 H 811.477 0.927551 2.85196 0
M  V30 8221 H 809.03 0.518945 1.47434 0
M  V30 8222 H 809.765 -1.6438 2.79553 0
M  V30 8223 H 809.55 -0.264689 3.91206 0
M  V30 8224 H 811.04 -1.25226 3.98382 0
M  V30 8225 N 811.477 -1.49425 0.500989 0
M  V30 8226 C 812.723 -2.03369 -0.0355945 0
M  V30 8227 C 813.078 -1.37387 -1.34694 0
M  V30 8228 O 812.371 -0.500516 -1.84947 0
M  V30 8229 C 812.565 -3.56562 -0.24463 0
M  V30 8230 C 812.394 -4.37392 1.04491 0
M  V30 8231 C 811.164 -4.7941 1.59669 0
M  V30 8232 C 813.362 -4.75974 1.94817 0
M  V30 8233 N 811.344 -5.44668 2.83214 0
M  V30 8234 C 812.715 -5.4095 3.0294 0
M  V30 8235 C 814.77 -4.57915 1.95495 0
M  V30 8236 C 813.473 -5.89779 4.11768 0
M  V30 8237 C 815.499 -5.07705 3.03298 0
M  V30 8238 C 814.861 -5.72682 4.1014 0
M  V30 8239 H 810.96 -0.781507 0.0277547 0
M  V30 8240 H 813.544 -1.82594 0.675844 0
M  V30 8241 H 811.715 -3.77221 -0.925126 0
M  V30 8242 H 813.447 -3.97147 -0.778219 0
M  V30 8243 H 810.202 -4.59629 1.14185 0
M  V30 8244 H 810.626 -5.81884 3.46035 0
M  V30 8245 H 815.268 -4.07085 1.14199 0
M  V30 8246 H 812.986 -6.3963 4.93862 0
M  V30 8247 H 816.572 -4.95542 3.04843 0
M  V30 8248 H 815.452 -6.10512 4.92184 0
M  V30 8249 N 812.955 -0.234822 -1.55841 0
M  V30 8250 C 814.183 0.397745 -2.03041 0
M  V30 8251 C 814.598 1.52405 -1.11437 0
M  V30 8252 O 813.955 1.82061 -0.126466 0
M  V30 8253 C 814.006 0.916919 -3.49678 0
M  V30 8254 O 813.727 -0.164493 -4.37791 0
M  V30 8255 C 815.228 1.62139 -4.12584 0
M  V30 8256 H 812.448 0.0959214 -0.664108 0
M  V30 8257 H 814.992 -0.355156 -2.01392 0
M  V30 8258 H 813.147 1.62004 -3.519 0
M  V30 8259 H 813.561 0.227794 -5.24005 0
M  V30 8260 H 815.035 1.93651 -5.16917 0
M  V30 8261 H 815.512 2.53918 -3.58361 0
M  V30 8262 H 816.118 0.963145 -4.14251 0
M  V30 8263 N 814.433 1.57553 0.0384317 0
M  V30 8264 C 815.396 2.04927 1.02653 0
M  V30 8265 C 816.396 0.951768 1.29607 0
M  V30 8266 O 817.586 1.21568 1.24768 0
M  V30 8267 C 814.718 2.45828 2.36181 0
M  V30 8268 H 815.911 2.93474 0.617508 0
M  V30 8269 H 813.464 1.53679 0.285031 0
M  V30 8270 H 814.199 1.60408 2.8185 0
M  V30 8271 H 813.984 3.25945 2.1795 0
M  V30 8272 H 815.474 2.82939 3.0714 0
M  V30 8273 N 815.911 -0.310526 1.54511 0
M  V30 8274 C 816.859 -1.40272 1.85544 0
M  V30 8275 C 817.853 -1.52941 0.728377 0
M  V30 8276 O 819.059 -1.55172 0.912234 0
M  V30 8277 H 815.434 -0.468355 0.588343 0
M  V30 8278 H 817.405 -1.11329 2.76855 0
M  V30 8279 C 816.154 -2.76279 2.11105 0
M  V30 8280 H 815.477 -2.67308 2.97298 0
M  V30 8281 H 816.917 -3.51736 2.36765 0
M  V30 8282 C 815.376 -3.24472 0.906618 0
M  V30 8283 O 815.906 -4.01514 0.122358 0
M  V30 8284 N 814.112 -2.81676 0.714632 0
M  V30 8285 H 813.659 -2.19143 1.35404 0
M  V30 8286 H 813.617 -3.14272 -0.089703 0
M  V30 8287 N 817.389 -1.46805 -0.573248 0
M  V30 8288 C 818.637 -1.52302 -1.32847 0
M  V30 8289 C 818.958 -0.180159 -1.94166 0
M  V30 8290 O 818.228 0.794291 -1.79075 0
M  V30 8291 H 816.808 -0.56097 -0.493276 0
M  V30 8292 H 819.47 -1.82998 -0.670642 0
M  V30 8293 H 818.566 -2.28089 -2.13031 0
M  V30 8294 N 818.867 0.818669 -1.34668 0
M  V30 8295 C 819.83 1.9114 -1.26483 0
M  V30 8296 C 820.83 1.598 -0.179044 0
M  V30 8297 O 822.02 1.6876 -0.431952 0
M  V30 8298 C 819.152 3.27285 -0.95381 0
M  V30 8299 H 820.345 1.9982 -2.23634 0
M  V30 8300 H 817.898 1.01314 -1.19018 0
M  V30 8301 H 818.633 3.24297 0.0143428 0
M  V30 8302 H 818.418 3.51416 -1.73924 0
M  V30 8303 H 819.908 4.07299 -0.921827 0
M  V30 8304 N 820.346 1.18468 1.03938 0
M  V30 8305 C 821.309 0.914944 2.10146 0
M  V30 8306 C 822.309 -0.10022 1.60487 0
M  V30 8307 O 823.499 0.133365 1.73689 0
M  V30 8308 C 820.631 0.372993 3.38853 0
M  V30 8309 H 821.824 1.85677 2.35508 0
M  V30 8310 H 819.377 0.996876 1.20383 0
M  V30 8311 H 820.112 -0.57538 3.19155 0
M  V30 8312 H 819.897 1.1048 3.76213 0
M  V30 8313 H 821.387 0.203014 4.17106 0
M  V30 8314 N 821.824 -1.22873 0.986916 0
M  V30 8315 C 822.754 -2.2688 0.552064 0
M  V30 8316 C 823.735 -1.64883 -0.418048 0
M  V30 8317 O 824.92 -1.9171 -0.30999 0
M  V30 8318 C 822.05 -3.47018 -0.139959 0
M  V30 8319 C 821.004 -4.21411 0.748091 0
M  V30 8320 C 820.33 -5.34645 -0.0765132 0
M  V30 8321 C 821.63 -4.80726 2.04206 0
M  V30 8322 H 823.324 -2.63507 1.42143 0
M  V30 8323 H 820.87 -1.26668 0.68492 0
M  V30 8324 H 822.823 -4.18931 -0.455527 0
M  V30 8325 H 821.547 -3.0947 -1.04382 0
M  V30 8326 H 820.206 -3.51325 1.04721 0
M  V30 8327 H 819.854 -4.93339 -0.981109 0
M  V30 8328 H 819.554 -5.85342 0.514606 0
M  V30 8329 H 821.078 -6.09377 -0.386313 0
M  V30 8330 H 822.492 -5.44612 1.79083 0
M  V30 8331 H 820.889 -5.41737 2.5815 0
M  V30 8332 H 821.959 -4.01109 2.72469 0
M  V30 8333 N 823.302 -0.75937 -1.38099 0
M  V30 8334 C 824.527 -0.327859 -2.04792 0
M  V30 8335 C 824.952 1.03752 -1.56899 0
M  V30 8336 O 824.31 1.66235 -0.723581 0
M  V30 8337 C 824.358 -0.366264 -3.58735 0
M  V30 8338 O 823.462 0.637697 -4.0744 0
M  V30 8339 H 822.803 -0.144092 -0.648177 0
M  V30 8340 H 825.333 -1.03211 -1.7666 0
M  V30 8341 H 825.343 -0.219179 -4.07411 0
M  V30 8342 H 824.018 -1.36243 -3.92951 0
M  V30 8343 H 822.595 0.454749 -3.70117 0
M  V30 8344 N 824.78 1.49157 -0.508906 0
M  V30 8345 C 826.008 2.06879 0.0293734 0
M  V30 8346 C 826.423 1.36823 1.30095 0
M  V30 8347 O 825.78 0.449034 1.7689 0
M  V30 8348 C 825.831 3.60423 0.278791 0
M  V30 8349 O 825.552 4.27844 -0.942389 0
M  V30 8350 C 827.053 4.34881 0.859825 0
M  V30 8351 H 824.273 0.67057 -0.0240184 0
M  V30 8352 H 826.817 1.91834 -0.708526 0
M  V30 8353 H 824.972 3.75145 0.966689 0
M  V30 8354 H 825.386 5.19671 -0.710097 0
M  V30 8355 H 826.86 5.43161 0.983884 0
M  V30 8356 H 827.337 3.9789 1.85958 0
M  V30 8357 H 827.943 4.24785 0.209152 0
M  V30 8358 N 826.258 0.243083 1.55714 0
M  V30 8359 C 827.506 -0.381964 1.98458 0
M  V30 8360 C 827.827 -1.58745 1.13247 0
M  V30 8361 O 827.097 -1.94723 0.214384 0
M  V30 8362 H 825.677 -0.144114 0.732967 0
M  V30 8363 H 828.339 0.340985 1.91894 0
M  V30 8364 H 827.435 -0.693702 3.04293 0
M  V30 8365 N 827.736 -1.57571 -0.0300757 0
M  V30 8366 C 828.666 -2.0953 -1.03051 0
M  V30 8367 C 829.647 -0.99761 -1.37774 0
M  V30 8368 O 830.832 -1.27279 -1.46676 0
M  V30 8369 C 827.962 -2.57385 -2.33174 0
M  V30 8370 C 826.916 -3.71409 -2.12696 0
M  V30 8371 C 826.242 -4.05467 -3.4857 0
M  V30 8372 C 827.542 -4.99877 -1.51396 0
M  V30 8373 H 829.236 -2.93367 -0.597999 0
M  V30 8374 H 826.782 -1.41127 -0.286203 0
M  V30 8375 H 828.735 -2.92355 -3.03491 0
M  V30 8376 H 827.459 -1.70629 -2.78484 0
M  V30 8377 H 826.118 -3.36786 -1.44813 0
M  V30 8378 H 825.766 -3.15779 -3.91526 0
M  V30 8379 H 825.466 -4.82269 -3.35694 0
M  V30 8380 H 826.99 -4.4297 -4.2025 0
M  V30 8381 H 828.404 -5.3281 -2.11629 0
M  V30 8382 H 826.801 -5.81283 -1.49098 0
M  V30 8383 H 827.871 -4.82522 -0.479676 0
M  V30 8384 N 829.214 0.302327 -1.54673 0
M  V30 8385 C 830.462 1.03565 -1.73547 0
M  V30 8386 C 830.783 1.87843 -0.523448 0
M  V30 8387 O 830.053 1.90367 0.462295 0
M  V30 8388 H 828.633 0.385358 -0.639928 0
M  V30 8389 H 831.295 0.333632 -1.92023 0
M  V30 8390 H 830.391 1.68952 -2.62415 0
M  V30 8391 N 830.692 1.47107 0.565454 0
M  V30 8392 C 831.938 1.53535 1.32495 0
M  V30 8393 C 832.271 0.193537 1.93233 0
M  V30 8394 O 831.546 -0.796956 1.77423 0
M  V30 8395 C 831.829 2.64712 2.4413 0
M  V30 8396 C 831.682 4.08482 1.88314 0
M  V30 8397 C 833.001 2.71853 3.46098 0
M  V30 8398 H 830.12 0.558926 0.480386 0
M  V30 8399 H 832.762 1.79125 0.633575 0
M  V30 8400 H 830.912 2.43023 3.03104 0
M  V30 8401 H 832.584 4.4151 1.33665 0
M  V30 8402 H 830.827 4.17148 1.19037 0
M  V30 8403 H 831.498 4.82032 2.68978 0
M  V30 8404 H 833.974 2.91397 2.97031 0
M  V30 8405 H 832.85 3.51433 4.21646 0
M  V30 8406 H 833.111 1.78584 4.04426 0
M  V30 8407 N 832.17 -0.811516 1.35101 0
M  V30 8408 C 833.133 -1.90467 1.27495 0
M  V30 8409 C 834.133 -1.59703 0.187516 0
M  V30 8410 O 835.323 -1.68528 0.440896 0
M  V30 8411 C 832.455 -3.26774 0.971154 0
M  V30 8412 H 833.648 -1.98631 2.2469 0
M  V30 8413 H 831.201 -1.00681 1.19553 0
M  V30 8414 H 831.936 -3.243 0.0028557 0
M  V30 8415 H 831.721 -3.50488 1.75785 0
M  V30 8416 H 833.211 -4.06804 0.943414 0
M  V30 8417 N 833.648 -1.19017 -1.03309 0
M  V30 8418 C 834.58 -0.881847 -2.11556 0
M  V30 8419 C 835.593 0.123711 -1.62329 0
M  V30 8420 O 836.782 -0.105141 -1.7819 0
M  V30 8421 C 833.882 -0.297634 -3.37591 0
M  V30 8422 C 833.055 -1.35072 -4.16022 0
M  V30 8423 C 832.114 -0.780812 -5.20375 0
M  V30 8424 O 831.14 -1.45745 -5.50224 0
M  V30 8425 N 832.342 0.417964 -5.78993 0
M  V30 8426 H 835.107 -1.81359 -2.38598 0
M  V30 8427 H 832.668 -1.0916 -1.19565 0
M  V30 8428 H 834.66 0.097374 -4.04583 0
M  V30 8429 H 833.23 0.538299 -3.0793 0
M  V30 8430 H 832.45 -1.92074 -3.4424 0
M  V30 8431 H 833.738 -2.06044 -4.65213 0
M  V30 8432 H 833.136 0.985281 -5.57054 0
M  V30 8433 H 831.693 0.754802 -6.47415 0
M  V30 8434 N 835.127 1.22348 -0.993418 0
M  V30 8435 C 836.355 1.95125 -0.688021 0
M  V30 8436 C 836.77 1.73377 0.747388 0
M  V30 8437 O 836.127 1.03317 1.50439 0
M  V30 8438 C 836.178 3.47819 -0.985097 0
M  V30 8439 O 835.899 3.68838 -2.3641 0
M  V30 8440 C 837.4 4.37779 -0.697474 0
M  V30 8441 H 834.62 0.62087 -0.254481 0
M  V30 8442 H 837.164 1.55485 -1.32833 0
M  V30 8443 H 835.319 3.85426 -0.390583 0
M  V30 8444 H 835.733 4.63032 -2.46377 0
M  V30 8445 H 837.207 5.43666 -0.955604 0
M  V30 8446 H 837.684 4.37651 0.368524 0
M  V30 8447 H 838.29 4.05799 -1.27306 0
M  V30 8448 N 836.605 0.766683 1.37694 0
M  V30 8449 C 837.535 0.163432 2.32927 0
M  V30 8450 C 838.516 -0.688861 1.55527 0
M  V30 8451 O 839.701 -0.627363 1.83787 0
M  V30 8452 C 836.831 -0.720416 3.39746 0
M  V30 8453 C 835.785 0.0301718 4.27989 0
M  V30 8454 C 835.111 -0.972788 5.25776 0
M  V30 8455 C 836.411 1.20623 5.0818 0
M  V30 8456 H 838.105 0.958988 2.83626 0
M  V30 8457 H 835.651 0.462601 1.36367 0
M  V30 8458 H 837.604 -1.15221 4.05342 0
M  V30 8459 H 836.328 -1.54844 2.8756 0
M  V30 8460 H 834.987 0.442685 3.63917 0
M  V30 8461 H 834.635 -1.79522 4.69873 0
M  V30 8462 H 834.335 -0.475145 5.85676 0
M  V30 8463 H 835.859 -1.40362 5.94248 0
M  V30 8464 H 837.273 0.851341 5.66944 0
M  V30 8465 H 835.67 1.63561 5.7738 0
M  V30 8466 H 836.74 2.01281 4.41151 0
M  V30 8467 N 838.083 -1.48885 0.516809 0
M  V30 8468 C 839.311 -2.06892 -0.0184017 0
M  V30 8469 C 839.726 -1.37511 -1.29368 0
M  V30 8470 O 839.083 -0.458409 -1.76649 0
M  V30 8471 C 839.134 -3.60566 -0.259673 0
M  V30 8472 O 838.855 -4.27338 0.965065 0
M  V30 8473 C 840.356 -4.35331 -0.836751 0
M  V30 8474 H 837.576 -0.670433 0.0275743 0
M  V30 8475 H 840.12 -1.91455 0.718689 0
M  V30 8476 H 838.275 -3.75653 -0.94678 0
M  V30 8477 H 838.689 -5.19287 0.737647 0
M  V30 8478 H 840.163 -5.43675 -0.955065 0
M  V30 8479 H 840.64 -3.9887 -1.83845 0
M  V30 8480 H 841.246 -4.2489 -0.186622 0
M  V30 8481 N 839.561 -0.251338 -1.55583 0
M  V30 8482 C 840.809 0.371434 -1.98657 0
M  V30 8483 C 841.13 1.58143 -1.14087 0
M  V30 8484 O 840.4 1.94607 -0.224708 0
M  V30 8485 H 838.98 0.140225 -0.733721 0
M  V30 8486 H 841.642 -0.351157 -1.9171 0
M  V30 8487 H 840.738 0.677554 -3.04657 0
M  V30 8488 N 841.039 1.57585 0.0217189 0
M  V30 8489 C 842.285 1.89887 0.712099 0
M  V30 8490 C 842.618 0.849971 1.74611 0
M  V30 8491 O 841.893 -0.13407 1.94037 0
M  V30 8492 C 842.176 3.32815 1.37499 0
M  V30 8493 C 842.029 4.48405 0.353993 0
M  V30 8494 C 843.348 3.74786 2.30703 0
M  V30 8495 H 840.467 0.690588 0.257405 0
M  V30 8496 H 843.109 1.89983 -0.0251145 0
M  V30 8497 H 841.259 3.32863 2.00335 0
M  V30 8498 H 842.931 4.60491 -0.273015 0
M  V30 8499 H 841.174 4.32573 -0.32599 0
M  V30 8500 H 841.845 5.45316 0.85644 0
M  V30 8501 H 844.321 3.76151 1.77904 0
M  V30 8502 H 843.197 4.75585 2.74061 0
M  V30 8503 H 843.458 3.07449 3.17691 0
M  V30 8504 N 842.517 -0.29412 1.54831 0
M  V30 8505 C 843.465 -1.38296 1.87021 0
M  V30 8506 C 844.459 -1.5216 0.744557 0
M  V30 8507 O 845.665 -1.54196 0.92864 0
M  V30 8508 H 842.04 -0.462088 0.593278 0
M  V30 8509 H 844.011 -1.08386 2.7802 0
M  V30 8510 C 842.76 -2.74024 2.14023 0
M  V30 8511 H 842.083 -2.6414 3.00117 0
M  V30 8512 H 843.523 -3.49205 2.40482 0
M  V30 8513 C 841.982 -3.23492 0.940982 0
M  V30 8514 O 842.512 -4.01361 0.164937 0
M  V30 8515 N 840.718 -2.80902 0.744467 0
M  V30 8516 H 840.265 -2.17694 1.37721 0
M  V30 8517 H 840.223 -3.14349 -0.0563652 0
M  V30 8518 N 843.995 -1.47404 -0.557645 0
M  V30 8519 C 845.241 -1.55219 -1.31449 0
M  V30 8520 C 845.596 -0.211457 -1.91234 0
M  V30 8521 O 844.889 0.782795 -1.7488 0
M  V30 8522 C 845.083 -2.6061 -2.44575 0
M  V30 8523 C 844.912 -4.048 -1.95875 0
M  V30 8524 C 843.682 -4.72252 -1.79738 0
M  V30 8525 C 845.88 -4.91833 -1.50348 0
M  V30 8526 N 843.862 -6.00962 -1.25372 0
M  V30 8527 C 845.233 -6.10566 -1.07745 0
M  V30 8528 C 847.288 -4.78279 -1.38396 0
M  V30 8529 C 845.991 -7.17242 -0.543767 0
M  V30 8530 C 848.017 -5.8505 -0.864293 0
M  V30 8531 C 847.379 -7.02973 -0.44818 0
M  V30 8532 H 843.478 -0.622694 -0.47305 0
M  V30 8533 H 846.062 -1.84152 -0.632144 0
M  V30 8534 H 844.233 -2.33545 -3.10341 0
M  V30 8535 H 845.965 -2.5827 -3.11574 0
M  V30 8536 H 842.72 -4.28153 -2.0244 0
M  V30 8537 H 843.144 -6.69532 -1.00278 0
M  V30 8538 H 847.786 -3.87477 -1.69179 0
M  V30 8539 H 845.504 -8.07791 -0.223563 0
M  V30 8540 H 849.09 -5.7661 -0.775371 0
M  V30 8541 H 847.97 -7.84183 -0.0522964 0
M  V30 8542 N 845.473 0.80434 -1.35529 0
M  V30 8543 C 846.719 1.56385 -1.29118 0
M  V30 8544 C 847.052 1.9374 0.133536 0
M  V30 8545 O 846.327 1.6153 1.08344 0
M  V30 8546 C 846.61 2.85097 -2.19981 0
M  V30 8547 C 846.463 2.54204 -3.7108 0
M  V30 8548 C 847.782 3.86817 -2.09907 0
M  V30 8549 H 844.901 0.567382 -0.470368 0
M  V30 8550 H 847.543 0.925235 -1.6595 0
M  V30 8551 H 845.693 3.39594 -1.88701 0
M  V30 8552 H 847.365 2.05872 -4.12813 0
M  V30 8553 H 845.608 1.87364 -3.91251 0
M  V30 8554 H 846.279 3.46068 -4.30048 0
M  V30 8555 H 848.755 3.41725 -2.37409 0
M  V30 8556 H 847.631 4.7465 -2.75678 0
M  V30 8557 H 847.892 4.28663 -1.08171 0
M  V30 8558 N 846.951 1.19563 1.02676 0
M  V30 8559 C 847.901 0.903055 2.09354 0
M  V30 8560 C 848.885 -0.133009 1.60349 0
M  V30 8561 O 850.077 0.0729744 1.7685 0
M  V30 8562 C 847.206 0.445852 3.40392 0
M  V30 8563 C 846.292 1.51477 3.96126 0
M  V30 8564 N 846.683 2.73474 4.25495 0
M  V30 8565 C 844.981 1.37856 4.2416 0
M  V30 8566 C 845.682 3.42348 4.7029 0
M  V30 8567 N 844.658 2.69746 4.71952 0
M  V30 8568 H 848.46 1.83023 2.29956 0
M  V30 8569 H 845.974 1.08812 1.20556 0
M  V30 8570 H 847.971 0.21769 4.16331 0
M  V30 8571 H 846.631 -0.47482 3.2121 0
M  V30 8572 H 847.642 3.10217 4.14711 0
M  V30 8573 H 844.319 0.521512 4.1423 0
M  V30 8574 H 845.709 4.46686 5.01917 0
M  V30 8575 N 848.429 -1.21819 0.999893 0
M  V30 8576 C 849.359 -2.26282 0.576096 0
M  V30 8577 C 850.34 -1.65317 -0.400537 0
M  V30 8578 O 851.525 -1.92028 -0.28964 0
M  V30 8579 C 848.655 -3.47147 -0.103145 0
M  V30 8580 C 847.609 -4.20594 0.792745 0
M  V30 8581 C 846.935 -5.34696 -0.0198026 0
M  V30 8582 C 848.235 -4.78533 2.09293 0
M  V30 8583 H 849.929 -2.61984 1.4493 0
M  V30 8584 H 847.475 -1.25935 0.698316 0
M  V30 8585 H 849.428 -4.1939 -0.411068 0
M  V30 8586 H 848.152 -3.1056 -1.01094 0
M  V30 8587 H 846.811 -3.50194 1.08442 0
M  V30 8588 H 846.459 -4.94352 -0.928729 0
M  V30 8589 H 846.159 -5.84764 0.576661 0
M  V30 8590 H 847.683 -6.09752 -0.321659 0
M  V30 8591 H 849.097 -5.42682 1.8485 0
M  V30 8592 H 847.494 -5.38968 2.63881 0
M  V30 8593 H 848.564 -3.98197 2.76708 0
M  V30 8594 N 849.908 -0.773975 -1.37286 0
M  V30 8595 C 850.871 -0.167974 -2.28584 0
M  V30 8596 C 851.871 0.625662 -1.48129 0
M  V30 8597 O 853.061 0.448924 -1.68316 0
M  V30 8598 C 850.193 0.769364 -3.32105 0
M  V30 8599 H 851.386 -0.972806 -2.83684 0
M  V30 8600 H 848.939 -0.542335 -1.46589 0
M  V30 8601 H 849.674 1.59912 -2.82132 0
M  V30 8602 H 849.459 0.202419 -3.91577 0
M  V30 8603 H 850.949 1.18872 -4.00324 0
M  V30 8604 N 851.386 1.48609 -0.524698 0
M  V30 8605 C 852.634 2.02097 0.0112991 0
M  V30 8606 C 852.955 1.40455 1.35268 0
M  V30 8607 O 852.225 0.56807 1.87483 0
M  V30 8608 H 850.805 0.746966 0.00716426 0
M  V30 8609 H 853.467 1.82378 -0.687329 0
M  V30 8610 H 852.563 3.11855 0.123531 0
M  V30 8611 N 852.864 0.259585 1.55447 0
M  V30 8612 C 853.812 -0.6507 2.23313 0
M  V30 8613 C 854.806 -1.17014 1.22491 0
M  V30 8614 O 856.012 -1.12557 1.40467 0
M  V30 8615 H 852.387 -0.228354 0.71649 0
M  V30 8616 H 854.358 -0.0553039 2.98349 0
M  V30 8617 C 853.107 -1.83081 2.95596 0
M  V30 8618 H 852.43 -1.44027 3.72956 0
M  V30 8619 H 853.87 -2.44469 3.46426 0
M  V30 8620 C 852.329 -2.70976 2.00184 0
M  V30 8621 O 852.859 -3.70882 1.54304 0
M  V30 8622 N 851.065 -2.37813 1.67014 0
M  V30 8623 H 850.612 -1.5662 2.04519 0
M  V30 8624 H 850.57 -2.96896 1.03443 0
M  V30 8625 N 854.342 -1.57594 -0.0133615 0
M  V30 8626 C 855.57 -1.94251 -0.712328 0
M  V30 8627 C 855.985 -0.86063 -1.68043 0
M  V30 8628 O 855.342 0.161632 -1.81783 0
M  V30 8629 C 855.393 -3.30891 -1.45581 0
M  V30 8630 O 855.114 -4.34924 -0.526539 0
M  V30 8631 C 856.615 -3.81926 -2.2505 0
M  V30 8632 H 853.835 -0.640737 -0.199241 0
M  V30 8633 H 856.379 -2.04472 0.0337855 0
M  V30 8634 H 854.534 -3.22019 -2.15366 0
M  V30 8635 H 854.948 -5.1389 -1.04962 0
M  V30 8636 H 856.422 -4.79999 -2.72589 0
M  V30 8637 H 856.899 -3.13934 -3.07152 0
M  V30 8638 H 857.505 -3.93931 -1.60308 0
M  V30 8639 N 855.82 0.285905 -1.54985 0
M  V30 8640 C 856.783 1.33625 -1.86218 0
M  V30 8641 C 857.783 1.42971 -0.735936 0
M  V30 8642 O 858.973 1.42345 -1.00417 0
M  V30 8643 C 856.105 2.71926 -2.05595 0
M  V30 8644 H 857.298 1.07167 -2.80099 0
M  V30 8645 H 854.851 0.523335 -1.47278 0
M  V30 8646 H 855.586 3.03583 -1.14053 0
M  V30 8647 H 855.371 2.6653 -2.87583 0
M  V30 8648 H 856.861 3.47841 -2.31077 0
M  V30 8649 N 857.298 1.47698 0.54982 0
M  V30 8650 C 858.575 1.45185 1.31075 0
M  V30 8651 C 858.955 0.152768 2.10547 0
M  V30 8652 O 858.303 -0.865706 2.11466 0
M  V30 8653 C 858.513 2.70192 2.20902 0
M  V30 8654 C 859.861 3.1771 2.81683 0
M  V30 8655 O 860.885 2.70971 2.312 0
M  V30 8656 O 859.744 3.98986 3.7346 0
M  V30 8657 H 856.838 0.57892 0.590577 0
M  V30 8658 H 859.384 1.59908 0.568112 0
M  V30 8659 H 858.156 3.56269 1.61828 0
M  V30 8660 H 857.779 2.58091 3.02448 0
M  V30 8661 N 858.776 -0.797141 1.35954 0
M  V30 8662 C 860.024 -1.55161 1.29497 0
M  V30 8663 C 860.345 -1.94582 -0.127659 0
M  V30 8664 O 859.615 -1.64343 -1.06622 0
M  V30 8665 H 858.195 -0.575413 0.47635 0
M  V30 8666 H 860.857 -0.950282 1.70164 0
M  V30 8667 H 859.953 -2.46272 1.9172 0
M  V30 8668 N 860.254 -1.20106 -1.0204 0
M  V30 8669 C 861.479 -1.0351 -1.79723 0
M  V30 8670 C 861.904 0.411328 -1.83548 0
M  V30 8671 O 861.262 1.29608 -1.26773 0
M  V30 8672 C 861.31 -1.61876 -3.22224 0
M  V30 8673 O 860.414 -0.853813 -4.03465 0
M  V30 8674 H 859.755 -0.365299 -0.554484 0
M  V30 8675 H 862.285 -1.59316 -1.28373 0
M  V30 8676 H 862.295 -1.65451 -3.72948 0
M  V30 8677 H 860.97 -2.67148 -3.18755 0
M  V30 8678 H 859.547 -0.891983 -3.62075 0
M  V30 8679 N 861.732 1.21287 -1.00634 0
M  V30 8680 C 863.009 1.86 -0.605257 0
M  V30 8681 C 863.389 1.90139 0.917072 0
M  V30 8682 O 862.737 1.40169 1.80458 0
M  V30 8683 C 862.947 3.26183 -1.24119 0
M  V30 8684 C 864.295 4.02562 -1.35015 0
M  V30 8685 O 865.319 3.35499 -1.19661 0
M  V30 8686 O 864.178 5.22638 -1.59726 0
M  V30 8687 H 861.272 0.800549 -0.207486 0
M  V30 8688 H 863.818 1.28959 -1.10307 0
M  V30 8689 H 862.59 3.17878 -2.28186 0
M  V30 8690 H 862.213 3.90845 -0.729807 0
M  V30 8691 N 863.21 0.781244 1.36873 0
M  V30 8692 C 864.459 0.34652 1.98701 0
M  V30 8693 C 864.772 -1.08555 1.62712 0
M  V30 8694 O 865.978 -1.62213 2.17713 0
M  V30 8695 C 864.434 0.568611 3.5538 0
M  V30 8696 C 864.042 2.01156 4.003 0
M  V30 8697 C 865.786 0.197983 4.24038 0
M  V30 8698 C 863.693 2.18074 5.49725 0
M  V30 8699 H 862.623 0.125821 0.743428 0
M  V30 8700 H 865.274 0.961721 1.56279 0
M  V30 8701 H 863.656 -0.116185 3.9583 0
M  V30 8702 H 864.83 2.73209 3.71071 0
M  V30 8703 H 863.145 2.33967 3.44454 0
M  V30 8704 H 865.742 0.302778 5.33842 0
M  V30 8705 H 866.085 -0.852927 4.07469 0
M  V30 8706 H 866.618 0.835696 3.88923 0
M  V30 8707 H 863.357 3.21519 5.71232 0
M  V30 8708 H 862.877 1.50517 5.80607 0
M  V30 8709 H 864.556 1.98393 6.15832 0
M  V30 8710 N 864.689 -1.48329 0.532571 0
M  V30 8711 C 865.937 -2.021 -0.000581206 0
M  V30 8712 C 866.258 -1.4117 -1.34522 0
M  V30 8713 O 865.528 -0.578005 -1.87179 0
M  V30 8714 H 864.108 -0.746993 -0.00320281 0
M  V30 8715 H 866.77 -1.82011 0.696991 0
M  V30 8716 H 865.866 -3.11917 -0.106991 0
M  V30 8717 N 866.167 -0.267825 -1.55308 0
M  V30 8718 C 867.397 0.354073 -2.03543 0
M  V30 8719 C 867.805 1.50554 -1.14586 0
M  V30 8720 O 867.148 1.83028 -0.156991 0
M  V30 8721 C 867.21 0.904148 -3.47945 0
M  V30 8722 C 866.874 -0.11775 -4.56848 0
M  V30 8723 C 867.871 -0.934707 -5.11429 0
M  V30 8724 C 865.556 -0.249885 -5.01678 0
M  V30 8725 C 867.55 -1.87005 -6.0935 0
M  V30 8726 C 865.237 -1.18872 -5.99427 0
M  V30 8727 C 866.235 -1.99731 -6.53144 0
M  V30 8728 O 865.923 -2.92028 -7.48983 0
M  V30 8729 H 865.655 0.0857765 -0.670536 0
M  V30 8730 H 868.209 -0.395515 -2.01556 0
M  V30 8731 H 866.439 1.70368 -3.47148 0
M  V30 8732 H 868.128 1.43835 -3.79561 0
M  V30 8733 H 868.894 -0.84332 -4.77612 0
M  V30 8734 H 864.773 0.369469 -4.59517 0
M  V30 8735 H 868.317 -2.5016 -6.51203 0
M  V30 8736 H 864.214 -1.28095 -6.32663 0
M  V30 8737 H 864.982 -2.86627 -7.66673 0
M  V30 8738 N 867.645 1.57599 0.00500368 0
M  V30 8739 C 868.875 1.94344 0.700998 0
M  V30 8740 C 869.283 0.868011 1.68114 0
M  V30 8741 O 868.626 -0.16214 1.82983 0
M  V30 8742 C 868.688 3.27046 1.49268 0
M  V30 8743 C 868.352 4.51992 0.674684 0
M  V30 8744 C 869.349 5.19888 -0.0354833 0
M  V30 8745 C 867.034 4.98432 0.622129 0
M  V30 8746 C 869.028 6.3252 -0.787246 0
M  V30 8747 C 866.715 6.10954 -0.133362 0
M  V30 8748 C 867.713 6.77855 -0.836788 0
M  V30 8749 O 867.401 7.88221 -1.57996 0
M  V30 8750 H 867.133 0.645572 0.20053 0
M  V30 8751 H 869.687 2.0536 -0.040718 0
M  V30 8752 H 867.917 3.12424 2.27877 0
M  V30 8753 H 869.606 3.4894 2.07355 0
M  V30 8754 H 870.372 4.85 -0.00400159 0
M  V30 8755 H 866.251 4.46189 1.15917 0
M  V30 8756 H 869.795 6.84671 -1.33683 0
M  V30 8757 H 865.692 6.45285 -0.166682 0
M  V30 8758 H 866.46 8.0471 -1.49615 0
M  V30 8759 N 869.123 -0.277682 1.55134 0
M  V30 8760 C 870.37 -1.0099 1.7552 0
M  V30 8761 C 870.698 -1.86452 0.553712 0
M  V30 8762 O 869.953 -1.90122 -0.463896 0
M  V30 8763 C 870.252 -1.92599 3.01065 0
M  V30 8764 C 869.918 -1.22926 4.3382 0
M  V30 8765 C 868.58 -1.03659 4.69902 0
M  V30 8766 C 870.932 -0.733071 5.16019 0
M  V30 8767 C 868.26 -0.334933 5.85743 0
M  V30 8768 C 870.612 -0.0450319 6.32584 0
M  V30 8769 C 869.276 0.159393 6.6731 0
M  V30 8770 H 868.546 -0.36955 0.642273 0
M  V30 8771 H 871.193 -0.282611 1.89403 0
M  V30 8772 H 869.498 -2.71934 2.82062 0
M  V30 8773 H 871.195 -2.49367 3.14034 0
M  V30 8774 H 867.785 -1.38933 4.05457 0
M  V30 8775 H 871.969 -0.869565 4.88623 0
M  V30 8776 H 867.225 -0.165783 6.11175 0
M  V30 8777 H 871.399 0.34723 6.95534 0
M  V30 8778 H 869.026 0.70507 7.56923 0
M  V30 8779 N 870.601 -1.47988 -0.541979 0
M  V30 8780 C 872.012 -1.49073 -1.12402 0
M  V30 8781 C 872.363 -0.253825 -1.94551 0
M  V30 8782 O 871.488 0.640056 -2.06718 0
M  V30 8783 C 872.083 -2.7011 -2.04514 0
M  V30 8784 C 870.642 -2.74105 -2.5796 0
M  V30 8785 C 869.789 -2.42409 -1.3466 0
M  V30 8786 H 872.74 -1.55277 -0.327818 0
M  V30 8787 H 872.761 -2.47946 -2.88623 0
M  V30 8788 H 872.273 -3.60117 -1.44697 0
M  V30 8789 H 870.374 -1.88276 -3.21532 0
M  V30 8790 H 870.487 -3.75213 -2.97913 0
M  V30 8791 H 868.851 -1.9331 -1.65841 0
M  V30 8792 H 869.634 -3.34642 -0.766133 0
M  V30 8793 N 872.079 0.78992 -1.36375 0
M  V30 8794 C 873.327 1.54472 -1.30319 0
M  V30 8795 C 873.648 1.94647 0.117338 0
M  V30 8796 O 872.918 1.64906 1.05748 0
M  V30 8797 H 871.498 0.572879 -0.479394 0
M  V30 8798 H 874.16 0.941245 -1.70665 0
M  V30 8799 H 873.256 2.45252 -1.93024 0
M  V30 8800 N 873.557 1.20646 1.01402 0
M  V30 8801 C 874.805 1.01618 1.74695 0
M  V30 8802 C 875.126 -0.452438 1.89679 0
M  V30 8803 O 874.396 -1.32693 1.44116 0
M  V30 8804 H 872.976 0.373013 0.647202 0
M  V30 8805 H 875.638 1.518 1.22241 0
M  V30 8806 H 874.734 1.47666 2.74957 0
M  V30 8807 N 875.035 -1.20752 1.01276 0
M  V30 8808 C 875.998 -2.2162 0.584583 0
M  V30 8809 C 876.998 -1.57094 -0.343215 0
M  V30 8810 O 878.188 -1.73696 -0.132433 0
M  V30 8811 C 875.32 -3.40583 -0.146872 0
M  V30 8812 H 876.513 -2.61015 1.47686 0
M  V30 8813 H 874.066 -1.34148 0.802123 0
M  V30 8814 H 874.801 -3.06686 -1.05424 0
M  V30 8815 H 874.586 -3.88642 0.51958 0
M  V30 8816 H 876.076 -4.15339 -0.433924 0
M  V30 8817 N 876.513 -0.788492 -1.36457 0
M  V30 8818 C 877.741 -0.372365 -2.03522 0
M  V30 8819 C 878.156 1.01093 -1.59454 0
M  V30 8820 O 877.513 1.64824 -0.783535 0
M  V30 8821 C 877.564 -0.425435 -3.58988 0
M  V30 8822 O 877.285 -1.75418 -4.01448 0
M  V30 8823 C 878.786 0.000180167 -4.433 0
M  V30 8824 H 876.006 -0.1536 -0.653183 0
M  V30 8825 H 878.55 -1.06708 -1.74452 0
M  V30 8826 H 876.705 0.220856 -3.8677 0
M  V30 8827 H 877.119 -1.70437 -4.96036 0
M  V30 8828 H 878.593 -0.0880919 -5.5193 0
M  V30 8829 H 879.07 1.05269 -4.26398 0
M  V30 8830 H 879.676 -0.618563 -4.20778 0
M  V30 8831 N 877.991 1.48044 -0.54043 0
M  V30 8832 C 878.921 2.32597 0.205178 0
M  V30 8833 C 879.902 1.42748 0.925041 0
M  V30 8834 O 881.087 1.71624 0.908784 0
M  V30 8835 C 878.217 3.24175 1.24612 0
M  V30 8836 C 877.171 4.23131 0.64376 0
M  V30 8837 C 876.497 5.03915 1.78812 0
M  V30 8838 C 877.797 5.20831 -0.39144 0
M  V30 8839 H 879.491 2.95184 -0.500676 0
M  V30 8840 H 877.037 1.41948 -0.242225 0
M  V30 8841 H 878.99 3.82158 1.77576 0
M  V30 8842 H 877.714 2.59608 1.98169 0
M  V30 8843 H 876.373 3.66349 0.135554 0
M  V30 8844 H 876.021 4.35765 2.51232 0
M  V30 8845 H 875.721 5.709 1.39094 0
M  V30 8846 H 877.245 5.64753 2.32134 0
M  V30 8847 H 878.659 5.73277 0.0515064 0
M  V30 8848 H 877.056 5.95926 -0.706569 0
M  V30 8849 H 878.126 4.6733 -1.29345 0
M  V30 8850 N 879.47 0.276058 1.55163 0
M  V30 8851 C 880.402 -0.644254 2.19959 0
M  V30 8852 C 881.415 -1.11675 1.18459 0
M  V30 8853 O 882.604 -1.0385 1.45181 0
M  V30 8854 C 879.704 -1.89093 2.81242 0
M  V30 8855 C 878.877 -1.56509 4.08441 0
M  V30 8856 C 877.936 -2.66433 4.53762 0
M  V30 8857 O 876.962 -2.32579 5.19515 0
M  V30 8858 N 878.164 -3.96509 4.23982 0
M  V30 8859 H 880.929 -0.0896808 2.99566 0
M  V30 8860 H 878.49 0.0971981 1.61608 0
M  V30 8861 H 880.482 -2.61929 3.08505 0
M  V30 8862 H 879.052 -2.35453 2.05622 0
M  V30 8863 H 878.272 -0.670522 3.88455 0
M  V30 8864 H 879.56 -1.32242 4.91314 0
M  V30 8865 H 878.958 -4.26834 3.71254 0
M  V30 8866 H 877.515 -4.6572 4.56014 0
M  V30 8867 N 880.948 -1.576 0.00335426 0
M  V30 8868 C 882.176 -1.94996 -0.691685 0
M  V30 8869 C 882.591 -0.878405 -1.67121 0
M  V30 8870 O 881.948 0.142343 -1.81944 0
M  V30 8871 C 881.999 -3.32416 -1.42063 0
M  V30 8872 O 881.72 -4.35458 -0.48038 0
M  V30 8873 C 883.221 -3.84291 -2.20987 0
M  V30 8874 H 880.441 -0.642814 -0.192434 0
M  V30 8875 H 882.985 -2.04425 0.0554706 0
M  V30 8876 H 881.14 -3.24285 -2.11939 0
M  V30 8877 H 881.554 -5.14975 -0.995054 0
M  V30 8878 H 883.028 -4.82863 -2.67483 0
M  V30 8879 H 883.505 -3.17174 -3.03805 0
M  V30 8880 H 884.111 -3.95609 -1.56121 0
M  V30 8881 N 882.426 0.269451 -1.5528 0
M  V30 8882 C 883.373 1.33316 -1.88403 0
M  V30 8883 C 884.343 1.48909 -0.735881 0
M  V30 8884 O 885.528 1.63259 -0.987479 0
M  V30 8885 C 882.668 2.68778 -2.16454 0
M  V30 8886 C 881.781 2.61377 -3.43956 0
M  V30 8887 C 880.916 3.89042 -3.6169 0
M  V30 8888 C 879.955 3.76166 -4.82872 0
M  V30 8889 N 879.092 4.95673 -4.97245 0
M  V30 8890 H 883.932 1.04368 -2.79126 0
M  V30 8891 H 881.469 0.504147 -1.38191 0
M  V30 8892 H 883.427 3.47599 -2.30719 0
M  V30 8893 H 882.057 2.9592 -1.28961 0
M  V30 8894 H 881.109 1.74247 -3.38145 0
M  V30 8895 H 882.421 2.47764 -4.32914 0
M  V30 8896 H 881.575 4.76304 -3.75791 0
M  V30 8897 H 880.314 4.05526 -2.70924 0
M  V30 8898 H 879.319 2.87287 -4.68771 0
M  V30 8899 H 880.544 3.61198 -5.75077 0
M  V30 8900 H 878.49 5.12561 -4.09411 0
M  V30 8901 H 878.407 4.84605 -5.80254 0
M  V30 8902 H 879.675 5.84498 -5.15735 0
M  V30 8903 N 883.904 1.48273 0.534124 0
M  V30 8904 C 885.32 1.34302 0.862272 0
M  V30 8905 C 885.52 0.350902 1.98421 0
M  V30 8906 O 884.576 -0.229364 2.51456 0
M  V30 8907 C 885.889 2.74227 1.23371 0
M  V30 8908 C 887.437 2.82684 1.34383 0
M  V30 8909 C 887.912 4.23301 1.74871 0
M  V30 8910 N 889.403 4.25954 1.81981 0
M  V30 8911 C 890.138 5.31693 2.14686 0
M  V30 8912 N 889.634 6.47714 2.45844 0
M  V30 8913 N 891.427 5.19084 2.15657 0
M  V30 8914 H 883.578 2.11397 -0.206215 0
M  V30 8915 H 885.841 0.947537 -0.0296116 0
M  V30 8916 H 885.547 3.48368 0.482967 0
M  V30 8917 H 885.421 3.07485 2.18478 0
M  V30 8918 H 887.808 2.08801 2.08534 0
M  V30 8919 H 887.889 2.5305 0.374063 0
M  V30 8920 H 887.533 4.97699 1.01282 0
M  V30 8921 H 887.463 4.50376 2.7289 0
M  V30 8922 H 889.954 3.42266 1.60196 0
M  V30 8923 H 890.267 7.2414 2.69892 0
M  V30 8924 H 888.612 6.50995 2.43372 0
M  V30 8925 H 891.803 4.27463 1.9077 0
M  V30 8926 H 891.976 6.01592 2.40813 0
M  V30 8927 N 885.382 -0.782676 1.36792 0
M  V30 8928 C 886.292 -1.92679 1.33835 0
M  V30 8929 C 887.308 -1.72344 0.23952 0
M  V30 8930 O 888.484 -1.95766 0.473045 0
M  V30 8931 C 885.549 -3.27644 1.1336 0
M  V30 8932 C 884.61 -3.6071 2.32781 0
M  V30 8933 C 883.843 -4.89234 2.13273 0
M  V30 8934 O 884.066 -5.59468 1.11136 0
M  V30 8935 O 883 -5.21112 3.01208 0
M  V30 8936 H 886.826 -1.98124 2.30175 0
M  V30 8937 H 884.411 -0.923887 1.17408 0
M  V30 8938 H 886.293 -4.08394 1.03886 0
M  V30 8939 H 884.968 -3.23076 0.200868 0
M  V30 8940 H 883.875 -2.80238 2.47825 0
M  V30 8941 H 885.208 -3.70008 3.24584 0
M  V30 8942 N 886.86 -1.21182 -1.00761 0
M  V30 8943 C 887.823 -0.970339 -2.07646 0
M  V30 8944 C 888.823 0.0576345 -1.60697 0
M  V30 8945 O 890.013 -0.179369 -1.73274 0
M  V30 8946 C 887.145 -0.462703 -3.37745 0
M  V30 8947 H 888.338 -1.91856 -2.30502 0
M  V30 8948 H 885.891 -1.02844 -1.17698 0
M  V30 8949 H 886.626 0.490559 -3.20568 0
M  V30 8950 H 886.411 -1.20416 -3.73152 0
M  V30 8951 H 887.901 -0.313531 -4.16421 0
M  V30 8952 N 888.338 1.20213 -1.01915 0
M  V30 8953 C 889.754 1.41696 -0.734459 0
M  V30 8954 C 889.954 1.89504 0.684867 0
M  V30 8955 O 889.01 2.06556 1.45227 0
M  V30 8956 C 890.323 2.43644 -1.76233 0
M  V30 8957 C 891.871 2.57406 -1.78076 0
M  V30 8958 C 892.346 3.626 -2.79796 0
M  V30 8959 N 893.837 3.70086 -2.78551 0
M  V30 8960 C 894.572 4.51145 -3.53915 0
M  V30 8961 N 894.068 5.35988 -4.38963 0
M  V30 8962 N 895.861 4.45702 -3.425 0
M  V30 8963 H 888.012 0.874976 -1.93541 0
M  V30 8964 H 890.275 0.446647 -0.836188 0
M  V30 8965 H 889.981 2.15519 -2.77929 0
M  V30 8966 H 889.855 3.42672 -1.57657 0
M  V30 8967 H 892.242 2.8486 -0.770634 0
M  V30 8968 H 892.323 1.58565 -2.00725 0
M  V30 8969 H 891.967 3.35889 -3.80973 0
M  V30 8970 H 891.897 4.61069 -2.54407 0
M  V30 8971 H 894.388 3.09484 -2.1686 0
M  V30 8972 H 894.701 5.94932 -4.9323 0
M  V30 8973 H 893.046 5.35482 -4.4304 0
M  V30 8974 H 896.237 3.78456 -2.75478 0
M  V30 8975 H 896.41 5.08637 -4.01487 0
M  V30 8976 N 889.816 0.795718 1.36037 0
M  V30 8977 C 891.044 0.383153 2.03321 0
M  V30 8978 C 891.459 -1.00246 1.59988 0
M  V30 8979 O 890.816 -1.64406 0.792265 0
M  V30 8980 C 890.867 0.444467 3.58757 0
M  V30 8981 O 890.588 1.77544 4.00512 0
M  V30 8982 C 892.089 0.0233291 4.43294 0
M  V30 8983 H 889.309 0.157061 0.652359 0
M  V30 8984 H 891.853 1.07632 1.73884 0
M  V30 8985 H 890.008 -0.200341 3.86882 0
M  V30 8986 H 890.422 1.73065 4.95125 0
M  V30 8987 H 891.896 0.117361 5.51875 0
M  V30 8988 H 892.373 -1.03007 4.2695 0
M  V30 8989 H 892.979 0.64087 4.20444 0
M  V30 8990 N 891.294 -1.47756 0.548274 0
M  V30 8991 C 892.542 -2.02089 0.0208542 0
M  V30 8992 C 892.863 -1.42589 -1.33017 0
M  V30 8993 O 892.133 -0.597825 -1.86555 0
M  V30 8994 H 890.713 -0.746985 0.00472023 0
M  V30 8995 H 893.375 -1.81262 0.716257 0
M  V30 8996 H 892.471 -3.12012 -0.0739016 0
M  V30 8997 N 892.772 -0.284283 -1.55015 0
M  V30 8998 C 894 0.332948 -2.04203 0
M  V30 8999 C 894.415 1.48783 -1.16229 0
M  V30 9000 O 893.772 1.81567 -0.184323 0
M  V30 9001 C 893.823 0.805207 -3.52418 0
M  V30 9002 O 893.544 -0.303689 -4.37046 0
M  V30 9003 C 895.045 1.48931 -4.17534 0
M  V30 9004 H 892.265 0.0747447 -0.666824 0
M  V30 9005 H 894.809 -0.419048 -2.00161 0
M  V30 9006 H 892.964 1.50727 -3.56876 0
M  V30 9007 H 893.378 0.0609703 -5.24465 0
M  V30 9008 H 894.852 1.77108 -5.22816 0
M  V30 9009 H 895.329 2.42389 -3.66257 0
M  V30 9010 H 895.935 0.830867 -4.17105 0
M  V30 9011 N 894.251 1.57596 -0.0117121 0
M  V30 9012 C 895.497 1.92189 0.665966 0
M  V30 9013 C 895.852 0.887145 1.70726 0
M  V30 9014 O 895.145 -0.099151 1.91343 0
M  V30 9015 C 895.339 3.31296 1.34082 0
M  V30 9016 C 895.168 4.48205 0.366406 0
M  V30 9017 C 893.938 5.05293 -0.0274458 0
M  V30 9018 C 896.136 5.12951 -0.37219 0
M  V30 9019 N 894.118 6.0572 -0.998846 0
M  V30 9020 C 895.489 6.08318 -1.1979 0
M  V30 9021 C 897.544 4.95998 -0.434768 0
M  V30 9022 C 896.247 6.88555 -2.0805 0
M  V30 9023 C 898.273 5.7683 -1.30464 0
M  V30 9024 C 897.635 6.71798 -2.11816 0
M  V30 9025 H 893.734 0.751422 0.216537 0
M  V30 9026 H 896.318 1.94556 -0.0748079 0
M  V30 9027 H 894.489 3.2978 2.05182 0
M  V30 9028 H 896.221 3.53285 1.97413 0
M  V30 9029 H 892.976 4.72354 0.343382 0
M  V30 9030 H 893.4 6.60619 -1.48027 0
M  V30 9031 H 898.042 4.22417 0.179925 0
M  V30 9032 H 895.76 7.61453 -2.70581 0
M  V30 9033 H 899.346 5.6575 -1.35712 0
M  V30 9034 H 898.226 7.33256 -2.78037 0
M  V30 9035 N 895.729 -0.261212 1.5542 0
M  V30 9036 C 896.676 -1.32315 1.89107 0
M  V30 9037 C 897.646 -1.48517 0.743767 0
M  V30 9038 O 898.831 -1.62733 0.996123 0
M  V30 9039 C 895.971 -2.67626 2.17877 0
M  V30 9040 C 895.084 -2.59549 3.45338 0
M  V30 9041 C 894.219 -3.87118 3.63748 0
M  V30 9042 C 893.258 -3.736 4.8486 0
M  V30 9043 N 892.395 -4.93029 4.99867 0
M  V30 9044 H 897.235 -1.02886 2.79675 0
M  V30 9045 H 894.772 -0.496812 1.38456 0
M  V30 9046 H 896.73 -3.4637 2.32559 0
M  V30 9047 H 895.36 -2.95232 1.30529 0
M  V30 9048 H 894.412 -1.72452 3.39064 0
M  V30 9049 H 895.724 -2.45465 4.34222 0
M  V30 9050 H 894.878 -4.74305 3.78312 0
M  V30 9051 H 893.617 -4.04084 2.73071 0
M  V30 9052 H 892.622 -2.84797 4.70288 0
M  V30 9053 H 893.847 -3.58143 5.76984 0
M  V30 9054 H 891.793 -5.10383 4.12123 0
M  V30 9055 H 891.71 -4.81521 5.82815 0
M  V30 9056 H 892.978 -5.81754 5.18828 0
M  V30 9057 N 897.207 -1.48554 -0.526253 0
M  V30 9058 C 898.139 -1.59446 -1.6465 0
M  V30 9059 C 899.152 -0.478525 -1.55608 0
M  V30 9060 O 900.341 -0.74953 -1.62001 0
M  V30 9061 C 897.441 -1.51164 -3.03319 0
M  V30 9062 C 896.614 -2.77861 -3.37805 0
M  V30 9063 C 895.673 -2.62982 -4.5577 0
M  V30 9064 O 894.699 -3.36876 -4.58806 0
M  V30 9065 N 895.901 -1.72847 -5.5417 0
M  V30 9066 H 898.666 -2.56055 -1.55743 0
M  V30 9067 H 896.227 -1.45325 -0.713606 0
M  V30 9068 H 898.219 -1.389 -3.80117 0
M  V30 9069 H 896.789 -0.625147 -3.06285 0
M  V30 9070 H 896.009 -3.04663 -2.50149 0
M  V30 9071 H 897.297 -3.61908 -3.57632 0
M  V30 9072 H 896.695 -1.12022 -5.54498 0
M  V30 9073 H 895.252 -1.6652 -6.3017 0
M  V30 9074 N 898.685 0.775411 -1.37205 0
M  V30 9075 C 899.934 1.52909 -1.31536 0
M  V30 9076 C 900.247 1.9535 0.0989374 0
M  V30 9077 O 901.453 2.70072 0.278079 0
M  V30 9078 C 899.909 2.761 -2.30861 0
M  V30 9079 C 899.517 2.40773 -3.77799 0
M  V30 9080 C 901.261 3.54052 -2.34195 0
M  V30 9081 C 899.168 3.60444 -4.68865 0
M  V30 9082 H 898.098 0.574061 -0.488845 0
M  V30 9083 H 900.749 0.849642 -1.62645 0
M  V30 9084 H 899.131 3.45916 -1.92764 0
M  V30 9085 H 900.305 1.78764 -4.24712 0
M  V30 9086 H 898.62 1.76004 -3.77375 0
M  V30 9087 H 901.217 4.42992 -2.99437 0
M  V30 9088 H 901.56 3.93649 -1.35449 0
M  V30 9089 H 902.093 2.91229 -2.7098 0
M  V30 9090 H 898.832 3.25932 -5.68725 0
M  V30 9091 H 898.352 4.21571 -4.26659 0
M  V30 9092 H 900.031 4.27302 -4.85821 0
M  V30 9093 N 900.163 1.21714 1.00117 0
M  V30 9094 C 901.111 0.976937 2.11089 0
M  V30 9095 C 902.105 -0.0771295 1.69224 0
M  V30 9096 O 903.311 0.0745945 1.79845 0
M  V30 9097 H 899.686 0.298687 0.690138 0
M  V30 9098 H 901.657 1.91881 2.28526 0
M  V30 9099 C 900.406 0.562369 3.43122 0
M  V30 9100 H 899.729 1.36509 3.75773 0
M  V30 9101 H 901.169 0.433642 4.21777 0
M  V30 9102 C 899.628 -0.727148 3.28959 0
M  V30 9103 O 900.158 -1.78171 3.60025 0
M  V30 9104 N 898.364 -0.695129 2.82164 0
M  V30 9105 H 897.911 0.163346 2.57082 0
M  V30 9106 H 897.869 -1.55822 2.73069 0
M  V30 9107 N 901.641 -1.19671 1.02551 0
M  V30 9108 C 902.589 -2.24812 0.596867 0
M  V30 9109 C 903.583 -1.65336 -0.368839 0
M  V30 9110 O 904.789 -1.78422 -0.237786 0
M  V30 9111 H 901.164 -0.731417 0.174739 0
M  V30 9112 H 903.135 -2.58286 1.49435 0
M  V30 9113 C 901.884 -3.47677 -0.0399514 0
M  V30 9114 H 901.207 -3.93728 0.694153 0
M  V30 9115 H 902.647 -4.22917 -0.302861 0
M  V30 9116 C 901.106 -3.11411 -1.2855 0
M  V30 9117 O 901.636 -3.23757 -2.37791 0
M  V30 9118 N 899.842 -2.65875 -1.17297 0
M  V30 9119 H 899.389 -2.56029 -0.284045 0
M  V30 9120 H 899.347 -2.41981 -2.00731 0
M  V30 9121 N 903.119 -0.802921 -1.35613 0
M  V30 9122 C 904.535 -0.486214 -1.52014 0
M  V30 9123 C 904.735 0.993219 -1.75321 0
M  V30 9124 O 903.791 1.77835 -1.79251 0
M  V30 9125 C 905.104 -1.32839 -2.69767 0
M  V30 9126 C 906.652 -1.32346 -2.83643 0
M  V30 9127 C 907.127 -2.14967 -4.04417 0
M  V30 9128 N 908.618 -2.12484 -4.11588 0
M  V30 9129 C 909.353 -2.73173 -5.04147 0
M  V30 9130 N 908.849 -3.42774 -6.02061 0
M  V30 9131 N 910.642 -2.62834 -4.96865 0
M  V30 9132 H 902.793 -1.76109 -1.18741 0
M  V30 9133 H 905.056 -0.74936 -0.580658 0
M  V30 9134 H 904.762 -2.37813 -2.5911 0
M  V30 9135 H 904.636 -0.979058 -3.64272 0
M  V30 9136 H 907.023 -0.281586 -2.93753 0
M  V30 9137 H 907.104 -1.71264 -1.90006 0
M  V30 9138 H 906.748 -3.19193 -3.95068 0
M  V30 9139 H 906.678 -1.73411 -4.97228 0
M  V30 9140 H 909.169 -1.61839 -3.41492 0
M  V30 9141 H 909.482 -3.86378 -6.69277 0
M  V30 9142 H 907.827 -3.46878 -6.02246 0
M  V30 9143 H 911.018 -2.08049 -4.19325 0
M  V30 9144 H 911.191 -3.10421 -5.68808 0
M  V30 9145 N 904.597 1.47463 -0.556102 0
M  V30 9146 C 906.008 1.86298 -0.122429 0
M  V30 9147 C 906.359 1.46285 1.30749 0
M  V30 9148 O 905.484 0.865405 1.98342 0
M  V30 9149 C 906.079 3.38115 -0.215407 0
M  V30 9150 C 904.638 3.76046 0.163223 0
M  V30 9151 C 903.785 2.71515 -0.563466 0
M  V30 9152 H 906.736 1.38996 -0.765888 0
M  V30 9153 H 906.757 3.76263 0.566271 0
M  V30 9154 H 906.269 3.67207 -1.25622 0
M  V30 9155 H 904.37 3.5257 1.20519 0
M  V30 9156 H 904.483 4.78705 -0.194568 0
M  V30 9157 H 902.847 2.54699 -0.00667879 0
M  V30 9158 H 903.63 3.03449 -1.60542 0
M  V30 9159 N 906.075 0.2925 1.54862 0
M  V30 9160 C 907.038 -0.574423 2.21885 0
M  V30 9161 C 908.038 -1.06791 1.20218 0
M  V30 9162 O 909.228 -0.9653 1.45009 0
M  V30 9163 C 906.36 -1.79438 2.89853 0
M  V30 9164 H 907.553 0.0110319 2.99898 0
M  V30 9165 H 905.106 0.043256 1.5624 0
M  V30 9166 H 905.841 -2.4199 2.15897 0
M  V30 9167 H 905.626 -1.44827 3.64373 0
M  V30 9168 H 907.116 -2.41048 3.41007 0
M  V30 9169 N 907.553 -1.57587 0.0200696 0
M  V30 9170 C 908.781 -1.95718 -0.670964 0
M  V30 9171 C 909.196 -0.896081 -1.6618 0
M  V30 9172 O 908.553 0.123037 -1.82085 0
M  V30 9173 C 908.604 -3.33904 -1.38529 0
M  V30 9174 O 908.325 -4.35943 -0.434167 0
M  V30 9175 C 909.826 -3.86614 -2.16898 0
M  V30 9176 H 907.046 -0.644819 -0.185606 0
M  V30 9177 H 909.59 -2.04354 0.0771495 0
M  V30 9178 H 907.745 -3.26515 -2.08487 0
M  V30 9179 H 908.159 -5.16001 -0.940378 0
M  V30 9180 H 909.633 -4.85673 -2.62346 0
M  V30 9181 H 910.11 -3.20379 -3.00423 0
M  V30 9182 H 910.716 -3.97243 -1.51916 0
M  V30 9183 N 909.032 0.252966 -1.55557 0
M  V30 9184 C 910.443 0.822503 -1.67606 0
M  V30 9185 C 910.794 1.86265 -0.616411 0
M  V30 9186 O 909.919 2.15082 0.238447 0
M  V30 9187 C 910.514 1.49866 -3.03852 0
M  V30 9188 C 909.073 2.01597 -3.17861 0
M  V30 9189 C 908.22 0.864943 -2.63465 0
M  V30 9190 H 911.171 0.0288958 -1.58674 0
M  V30 9191 H 911.192 2.36646 -2.97958 0
M  V30 9192 H 910.704 0.741378 -3.80953 0
M  V30 9193 H 908.805 2.80224 -2.45571 0
M  V30 9194 H 908.918 2.21752 -4.24692 0
M  V30 9195 H 907.282 1.2638 -2.21134 0
M  V30 9196 H 908.065 0.120847 -3.43087 0
M  V30 9197 N 910.51 1.48831 0.518367 0
M  V30 9198 C 911.735 1.61379 1.30275 0
M  V30 9199 C 912.16 0.278571 1.86026 0
M  V30 9200 O 911.518 -0.751427 1.64995 0
M  V30 9201 C 911.566 2.67225 2.42122 0
M  V30 9202 O 910.67 2.25192 3.45489 0
M  V30 9203 H 910.011 0.540742 0.385349 0
M  V30 9204 H 912.541 1.949 0.622498 0
M  V30 9205 H 912.551 2.88859 2.8814 0
M  V30 9206 H 911.226 3.64155 2.00907 0
M  V30 9207 H 909.803 2.13819 3.05509 0
M  V30 9208 N 911.988 -0.768124 1.37614 0
M  V30 9209 C 913.216 -1.55726 1.36224 0
M  V30 9210 C 913.631 -1.8873 -0.0515357 0
M  V30 9211 O 912.988 -1.51718 -1.0143 0
M  V30 9212 C 913.039 -2.86533 2.20412 0
M  V30 9213 O 912.76 -2.54942 3.56281 0
M  V30 9214 C 914.261 -3.80745 2.27041 0
M  V30 9215 H 911.481 -0.482325 0.46648 0
M  V30 9216 H 914.025 -0.95176 1.81002 0
M  V30 9217 H 912.18 -3.43496 1.79134 0
M  V30 9218 H 912.594 -3.38732 4.00451 0
M  V30 9219 H 914.068 -4.69523 2.90263 0
M  V30 9220 H 914.545 -4.20138 1.27987 0
M  V30 9221 H 915.151 -3.2971 2.68647 0
M  V30 9222 N 913.466 -1.22244 -0.994698 0
M  V30 9223 C 914.429 -0.992308 -2.06606 0
M  V30 9224 C 915.429 0.0405872 -1.60749 0
M  V30 9225 O 916.619 -0.197737 -1.73074 0
M  V30 9226 C 913.751 -0.498499 -3.37236 0
M  V30 9227 H 914.944 -1.9429 -2.28455 0
M  V30 9228 H 912.497 -1.04087 -1.166 0
M  V30 9229 H 913.232 0.456531 -3.21071 0
M  V30 9230 H 913.017 -1.24367 -3.71854 0
M  V30 9231 H 914.507 -0.35768 -4.16065 0
M  V30 9232 N 914.944 1.19125 -1.03184 0
M  V30 9233 C 916.19 1.89163 -0.731111 0
M  V30 9234 C 916.523 1.79604 0.738662 0
M  V30 9235 O 915.798 1.19037 1.53819 0
M  V30 9236 C 916.081 3.39986 -1.18666 0
M  V30 9237 C 915.934 3.58401 -2.71788 0
M  V30 9238 C 917.253 4.33316 -0.769772 0
M  V30 9239 H 914.372 0.686908 -0.267069 0
M  V30 9240 H 917.014 1.40205 -1.28229 0
M  V30 9241 H 915.164 3.81813 -0.717736 0
M  V30 9242 H 916.836 3.25727 -3.26649 0
M  V30 9243 H 915.079 3.01355 -3.12038 0
M  V30 9244 H 915.75 4.64189 -2.98719 0
M  V30 9245 H 918.226 3.9922 -1.17314 0
M  V30 9246 H 917.102 5.37427 -1.11637 0
M  V30 9247 H 917.363 4.40884 0.327681 0
M  V30 9248 N 916.422 0.810101 1.35185 0
M  V30 9249 C 917.65 0.404696 2.02903 0
M  V30 9250 C 918.065 -0.985434 1.61042 0
M  V30 9251 O 917.422 -1.63557 0.809658 0
M  V30 9252 C 917.473 0.482493 3.58266 0
M  V30 9253 O 917.194 1.81782 3.98606 0
M  V30 9254 C 918.695 0.070345 4.43244 0
M  V30 9255 H 915.915 0.163972 0.650657 0
M  V30 9256 H 918.459 1.0947 1.72733 0
M  V30 9257 H 916.614 -0.159296 3.87072 0
M  V30 9258 H 917.028 1.78306 4.93262 0
M  V30 9259 H 918.502 0.175888 5.5172 0
M  V30 9260 H 918.979 -0.984724 4.28018 0
M  V30 9261 H 919.585 0.685427 4.1974 0
M  V30 9262 N 917.9 -1.47166 0.563914 0
M  V30 9263 C 919.316 -1.58018 0.224173 0
M  V30 9264 C 919.516 -1.56163 -1.27339 0
M  V30 9265 O 918.572 -1.4686 -2.05398 0
M  V30 9266 C 919.885 -2.88236 0.856762 0
M  V30 9267 C 921.433 -3.01833 0.82861 0
M  V30 9268 C 921.908 -4.34761 1.44039 0
M  V30 9269 N 923.399 -4.41413 1.40388 0
M  V30 9270 C 924.134 -5.42845 1.84681 0
M  V30 9271 N 923.63 -6.51052 2.3686 0
M  V30 9272 N 925.423 -5.33931 1.75711 0
M  V30 9273 H 917.574 -1.46615 1.53681 0
M  V30 9274 H 919.837 -0.698195 0.64127 0
M  V30 9275 H 919.543 -2.95349 1.90949 0
M  V30 9276 H 919.417 -3.75537 0.353766 0
M  V30 9277 H 921.804 -2.94312 -0.215451 0
M  V30 9278 H 921.885 -2.16056 1.36943 0
M  V30 9279 H 921.529 -4.43037 2.48355 0
M  V30 9280 H 921.459 -5.1928 0.874953 0
M  V30 9281 H 923.95 -3.63811 1.02227 0
M  V30 9282 H 924.263 -7.24633 2.68564 0
M  V30 9283 H 922.608 -6.51924 2.40875 0
M  V30 9284 H 925.799 -4.48295 1.34718 0
M  V30 9285 H 925.972 -6.12841 2.10547 0
M  V30 9286 N 919.378 -0.300708 -1.54705 0
M  V30 9287 C 920.326 0.591264 -2.2496 0
M  V30 9288 C 921.32 1.13725 -1.2555 0
M  V30 9289 O 922.526 1.08793 -1.43402 0
M  V30 9290 H 918.901 0.209278 -0.722293 0
M  V30 9291 H 920.872 -0.0238175 -2.9839 0
M  V30 9292 C 919.621 1.75179 -3.00346 0
M  V30 9293 H 918.944 1.34089 -3.76643 0
M  V30 9294 H 920.384 2.35198 -3.52786 0
M  V30 9295 C 918.843 2.65574 -2.07298 0
M  V30 9296 O 919.373 3.6666 -1.64083 0
M  V30 9297 N 917.579 2.33301 -1.7326 0
M  V30 9298 H 917.126 1.51142 -2.08599 0
M  V30 9299 H 917.084 2.94049 -1.11278 0
M  V30 9300 N 920.856 1.57574 -0.0284266 0
M  V30 9301 C 922.086 1.95787 0.659617 0
M  V30 9302 C 922.494 0.903475 1.66235 0
M  V30 9303 O 921.837 -0.12329 1.83286 0
M  V30 9304 C 921.899 3.30139 1.42298 0
M  V30 9305 C 921.563 4.53322 0.578658 0
M  V30 9306 C 922.56 5.19696 -0.145751 0
M  V30 9307 C 920.245 4.9964 0.516264 0
M  V30 9308 C 922.239 6.30708 -0.921235 0
M  V30 9309 C 919.926 6.10534 -0.262925 0
M  V30 9310 C 920.924 6.75927 -0.980382 0
M  V30 9311 O 920.612 7.84692 -1.7468 0
M  V30 9312 H 920.344 0.649681 0.186792 0
M  V30 9313 H 922.898 2.05227 -0.0842687 0
M  V30 9314 H 921.128 3.17188 2.21199 0
M  V30 9315 H 922.817 3.53259 1.99906 0
M  V30 9316 H 923.583 4.84882 -0.106876 0
M  V30 9317 H 919.462 4.48547 1.06427 0
M  V30 9318 H 923.006 6.81682 -1.48176 0
M  V30 9319 H 918.903 6.44786 -0.303519 0
M  V30 9320 H 919.671 8.01355 -1.6665 0
M  V30 9321 N 922.334 -0.244713 1.55689 0
M  V30 9322 C 923.244 -1.32447 1.93636 0
M  V30 9323 C 924.26 -1.52541 0.837086 0
M  V30 9324 O 925.436 -1.66121 1.13867 0
M  V30 9325 C 922.501 -2.65864 2.22525 0
M  V30 9326 C 921.562 -2.54273 3.45896 0
M  V30 9327 C 920.795 -3.81327 3.73397 0
M  V30 9328 O 921.018 -4.83307 3.02936 0
M  V30 9329 O 919.952 -3.79829 4.66919 0
M  V30 9330 H 923.778 -1.03255 2.85608 0
M  V30 9331 H 921.363 -0.445652 1.42598 0
M  V30 9332 H 923.245 -3.447 2.42404 0
M  V30 9333 H 921.92 -2.94784 1.33731 0
M  V30 9334 H 920.827 -1.73715 3.31321 0
M  V30 9335 H 922.16 -2.30297 4.34999 0
M  V30 9336 N 923.813 -1.49104 -0.510467 0
M  V30 9337 C 925.041 -1.61806 -1.28944 0
M  V30 9338 C 925.456 -0.285774 -1.86625 0
M  V30 9339 O 924.813 0.727551 -1.67371 0
M  V30 9340 C 924.864 -2.67966 -2.42645 0
M  V30 9341 O 924.585 -3.96026 -1.87337 0
M  V30 9342 C 926.086 -2.91286 -3.34166 0
M  V30 9343 H 923.306 -0.544999 -0.391429 0
M  V30 9344 H 925.85 -1.95071 -0.613805 0
M  V30 9345 H 924.005 -2.37505 -3.06056 0
M  V30 9346 H 924.419 -4.54427 -2.61909 0
M  V30 9347 H 925.893 -3.69323 -4.1025 0
M  V30 9348 H 926.37 -2.00842 -3.90588 0
M  V30 9349 H 926.976 -3.23127 -2.76531 0
M  V30 9350 N 925.291 0.760815 -1.38019 0
M  V30 9351 C 926.224 1.88212 -1.2904 0
M  V30 9352 C 927.202 1.61721 -0.168805 0
M  V30 9353 O 928.386 1.85318 -0.344893 0
M  V30 9354 C 925.513 3.23672 -0.997702 0
M  V30 9355 C 924.559 3.6906 -2.13769 0
M  V30 9356 S 925.392 3.81445 -3.75845 0
M  V30 9357 C 926.548 5.19736 -3.48748 0
M  V30 9358 H 926.781 1.95541 -2.23944 0
M  V30 9359 H 924.314 0.923051 -1.2377 0
M  V30 9360 H 926.272 4.01904 -0.835657 0
M  V30 9361 H 924.933 3.14031 -0.065967 0
M  V30 9362 H 924.126 4.67295 -1.88816 0
M  V30 9363 H 923.728 2.97961 -2.26043 0
M  V30 9364 H 926.02 6.05259 -3.04414 0
M  V30 9365 H 926.963 5.49706 -4.46351 0
M  V30 9366 H 927.371 4.88191 -2.83425 0
M  V30 9367 N 926.769 1.22769 0.988202 0
M  V30 9368 C 928.015 1.06672 1.73184 0
M  V30 9369 C 928.37 -0.393434 1.88334 0
M  V30 9370 O 927.663 -1.2876 1.41885 0
M  V30 9371 C 927.857 1.71679 3.13466 0
M  V30 9372 C 927.686 3.23864 3.11997 0
M  V30 9373 C 926.456 3.92991 3.17626 0
M  V30 9374 C 928.654 4.20737 2.95778 0
M  V30 9375 N 926.636 5.32224 3.05959 0
M  V30 9376 C 928.007 5.46831 2.92191 0
M  V30 9377 C 930.062 4.1157 2.80205 0
M  V30 9378 C 928.765 6.64811 2.74624 0
M  V30 9379 C 930.791 5.29205 2.64 0
M  V30 9380 C 930.153 6.5422 2.61104 0
M  V30 9381 H 926.252 0.44481 0.64317 0
M  V30 9382 H 928.836 1.55381 1.17323 0
M  V30 9383 H 927.007 1.25513 3.67561 0
M  V30 9384 H 928.739 1.48629 3.76419 0
M  V30 9385 H 925.494 3.4402 3.25495 0
M  V30 9386 H 925.918 6.05197 3.03423 0
M  V30 9387 H 930.56 3.15697 2.81239 0
M  V30 9388 H 928.278 7.60828 2.72336 0
M  V30 9389 H 931.864 5.23947 2.52925 0
M  V30 9390 H 930.744 7.43713 2.48719 0
M  V30 9391 N 928.247 -1.18576 1.03814 0
M  V30 9392 C 929.496 -1.87822 0.735235 0
M  V30 9393 C 929.809 -1.81069 -0.739819 0
M  V30 9394 O 931.015 -2.45654 -1.15614 0
M  V30 9395 C 929.471 -3.36941 1.26486 0
M  V30 9396 C 929.079 -3.5223 2.76836 0
M  V30 9397 C 930.823 -4.11604 1.03836 0
M  V30 9398 C 928.73 -4.95294 3.23169 0
M  V30 9399 H 927.66 -0.703487 0.271333 0
M  V30 9400 H 930.311 -1.34 1.25365 0
M  V30 9401 H 928.693 -3.90217 0.674318 0
M  V30 9402 H 929.867 -3.09239 3.41625 0
M  V30 9403 H 928.182 -2.90969 2.97869 0
M  V30 9404 H 930.779 -5.17123 1.3597 0
M  V30 9405 H 931.122 -4.16293 -0.0244945 0
M  V30 9406 H 931.655 -3.64494 1.59338 0
M  V30 9407 H 928.394 -4.95772 4.28824 0
M  V30 9408 H 927.914 -5.3901 2.63113 0
M  V30 9409 H 929.593 -5.63996 3.17045 0
M  V30 9410 N 929.725 -0.817259 -1.34754 0
M  V30 9411 C 931.002 -0.325468 -1.92873 0
M  V30 9412 C 931.382 1.18643 -1.74606 0
M  V30 9413 O 930.73 1.9909 -1.1214 0
M  V30 9414 C 930.94 -0.74858 -3.40877 0
M  V30 9415 C 932.288 -0.744165 -4.18028 0
M  V30 9416 O 933.312 -0.690799 -3.49437 0
M  V30 9417 O 932.171 -0.812207 -5.40431 0
M  V30 9418 H 929.265 -0.0876397 -0.822343 0
M  V30 9419 H 931.811 -0.901671 -1.43764 0
M  V30 9420 H 930.583 -1.79017 -3.47949 0
M  V30 9421 H 930.206 -0.147764 -3.97325 0
M  V30 9422 N 931.203 1.46865 -0.571711 0
M  V30 9423 C 932.153 2.27219 0.188503 0
M  V30 9424 C 933.137 1.35221 0.872019 0
M  V30 9425 O 934.329 1.59474 0.76793 0
M  V30 9426 C 931.458 3.21321 1.20862 0
M  V30 9427 C 930.544 4.20803 0.527783 0
M  V30 9428 N 930.935 5.04132 -0.410403 0
M  V30 9429 C 929.233 4.39128 0.779909 0
M  V30 9430 C 929.934 5.76071 -0.80728 0
M  V30 9431 N 928.91 5.43368 -0.158865 0
M  V30 9432 H 932.712 2.89034 -0.532611 0
M  V30 9433 H 930.226 1.57581 -0.392696 0
M  V30 9434 H 932.223 3.77586 1.76733 0
M  V30 9435 H 930.883 2.61065 1.93067 0
M  V30 9436 H 931.894 5.11911 -0.785351 0
M  V30 9437 H 928.571 3.90031 1.48937 0
M  V30 9438 H 929.961 6.53082 -1.57903 0
M  V30 9439 N 932.681 0.308908 1.54543 0
M  V30 9440 C 933.929 -0.297447 1.99899 0
M  V30 9441 C 934.25 -1.53799 1.19878 0
M  V30 9442 O 933.52 -1.93639 0.29678 0
M  V30 9443 H 932.1 -0.112897 0.738419 0
M  V30 9444 H 934.762 0.422067 1.90275 0
M  V30 9445 H 933.858 -0.564016 3.06961 0
M  V30 9446 N 934.159 -1.57557 0.0367827 0
M  V30 9447 C 935.387 -1.96419 -0.650168 0
M  V30 9448 C 935.802 -0.913656 -1.6522 0
M  V30 9449 O 935.159 0.103718 -1.82205 0
M  V30 9450 C 935.21 -3.35355 -1.3498 0
M  V30 9451 O 934.931 -4.36379 -0.387905 0
M  V30 9452 C 936.432 -3.88892 -2.12786 0
M  V30 9453 H 933.652 -0.646751 -0.178756 0
M  V30 9454 H 936.196 -2.04261 0.0988197 0
M  V30 9455 H 934.351 -3.28708 -2.05012 0
M  V30 9456 H 934.765 -5.16969 -0.885596 0
M  V30 9457 H 936.239 -4.88428 -2.5718 0
M  V30 9458 H 936.716 -3.23547 -2.97008 0
M  V30 9459 H 937.322 -3.98831 -1.47694 0
M  V30 9460 N 935.637 0.236453 -1.55816 0
M  V30 9461 C 936.585 1.31259 -1.92025 0
M  V30 9462 C 937.579 1.49292 -0.800518 0
M  V30 9463 O 938.785 1.50643 -0.985229 0
M  V30 9464 H 935.16 0.439751 -0.610019 0
M  V30 9465 H 937.131 0.979926 -2.81851 0
M  V30 9466 C 935.88 2.65892 -2.24046 0
M  V30 9467 H 935.203 2.5282 -3.09713 0
M  V30 9468 H 936.643 3.40039 -2.53277 0
M  V30 9469 C 935.102 3.19777 -1.0604 0
M  V30 9470 O 935.632 4.00473 -0.313786 0
M  V30 9471 N 933.838 2.77946 -0.848209 0
M  V30 9472 H 933.385 2.12433 -1.45706 0
M  V30 9473 H 933.343 3.14342 -0.0603424 0
M  V30 9474 N 937.115 1.49373 0.502552 0
M  V30 9475 C 938.526 1.52 1.0841 0
M  V30 9476 C 938.877 0.305317 1.9381 0
M  V30 9477 O 938.002 -0.585023 2.08342 0
M  V30 9478 C 938.597 2.75437 1.97281 0
M  V30 9479 C 937.156 2.80848 2.50602 0
M  V30 9480 C 936.303 2.45894 1.28186 0
M  V30 9481 H 939.254 1.56092 0.286533 0
M  V30 9482 H 939.275 2.55511 2.81947 0
M  V30 9483 H 938.787 3.63827 1.35098 0
M  V30 9484 H 936.888 1.96735 3.16427 0
M  V30 9485 H 937.001 3.82979 2.8786 0
M  V30 9486 H 935.365 1.97639 1.60657 0
M  V30 9487 H 936.148 3.36556 0.677139 0
M  V30 9488 N 938.594 -0.753485 1.38421 0
M  V30 9489 C 939.819 -1.54783 1.38047 0
M  V30 9490 C 940.244 -1.8808 -0.0276371 0
M  V30 9491 O 939.602 -1.5058 -1.00973 0
M  V30 9492 C 939.65 -2.82353 2.24297 0
M  V30 9493 O 938.754 -3.77509 1.66014 0
M  V30 9494 H 938.095 -0.468151 0.470883 0
M  V30 9495 H 940.625 -0.931144 1.82184 0
M  V30 9496 H 940.635 -3.31277 2.38159 0
M  V30 9497 H 939.31 -2.57449 3.26639 0
M  V30 9498 H 937.887 -3.36212 1.61294 0
M  V30 9499 N 940.072 -1.23292 -0.981677 0
M  V30 9500 C 941.32 -1.06214 -1.71939 0
M  V30 9501 C 941.641 0.401989 -1.90812 0
M  V30 9502 O 940.911 1.28825 -1.47584 0
M  V30 9503 H 939.491 -0.390042 -0.637084 0
M  V30 9504 H 942.153 -1.54988 -1.18173 0
M  V30 9505 H 941.249 -1.54904 -2.70945 0
M  V30 9506 N 941.55 1.18024 -1.04442 0
M  V30 9507 C 942.513 2.19992 -0.643136 0
M  V30 9508 C 943.513 1.57949 0.301444 0
M  V30 9509 O 944.703 1.73986 0.0863341 0
M  V30 9510 C 941.835 3.40853 0.0565208 0
M  V30 9511 H 943.028 2.57008 -1.54554 0
M  V30 9512 H 940.581 1.31974 -0.837408 0
M  V30 9513 H 941.316 3.09373 0.972553 0
M  V30 9514 H 941.101 3.87128 -0.622439 0
M  V30 9515 H 942.591 4.16344 0.323652 0
M  V30 9516 N 943.028 0.824394 1.34319 0
M  V30 9517 C 944.253 0.425194 2.02995 0
M  V30 9518 C 944.678 -0.961476 1.6167 0
M  V30 9519 O 944.036 -1.62593 0.80207 0
M  V30 9520 C 944.084 0.537004 3.56579 0
M  V30 9521 O 943.188 -0.442576 4.10018 0
M  V30 9522 H 942.529 0.174853 0.640564 0
M  V30 9523 H 945.059 1.11522 1.71534 0
M  V30 9524 H 945.069 0.413311 4.05901 0
M  V30 9525 H 943.744 1.54836 3.86004 0
M  V30 9526 H 942.321 -0.277644 3.71865 0
M  V30 9527 N 944.506 -1.46559 0.579492 0
M  V30 9528 C 945.736 -2.06484 0.0692642 0
M  V30 9529 C 946.144 -1.4293 -1.23967 0
M  V30 9530 O 945.487 -0.527632 -1.75959 0
M  V30 9531 C 945.549 -3.59078 -0.174174 0
M  V30 9532 C 945.213 -4.44805 1.04867 0
M  V30 9533 C 946.21 -4.81543 1.95991 0
M  V30 9534 C 943.895 -4.8599 1.26961 0
M  V30 9535 C 945.889 -5.58288 3.0756 0
M  V30 9536 C 943.576 -5.62495 2.38836 0
M  V30 9537 C 944.574 -5.98558 3.28964 0
M  V30 9538 O 944.262 -6.73518 4.38896 0
M  V30 9539 H 943.994 -0.673917 0.0530331 0
M  V30 9540 H 946.548 -1.89223 0.79898 0
M  V30 9541 H 944.778 -3.74634 -0.958464 0
M  V30 9542 H 946.467 -4.00941 -0.632515 0
M  V30 9543 H 947.233 -4.50307 1.80136 0
M  V30 9544 H 943.112 -4.57372 0.577184 0
M  V30 9545 H 946.656 -5.86355 3.77933 0
M  V30 9546 H 942.553 -5.93145 2.54655 0
M  V30 9547 H 943.321 -6.91938 4.37223 0
M  V30 9548 N 945.984 -0.3171 -1.54377 0
M  V30 9549 C 947.232 0.286842 -2.00054 0
M  V30 9550 C 947.553 1.53161 -1.20692 0
M  V30 9551 O 946.823 1.93479 -0.307045 0
M  V30 9552 H 945.403 0.108979 -0.739008 0
M  V30 9553 H 948.065 -0.432152 -1.90049 0
M  V30 9554 H 947.161 0.547729 -3.07256 0
M  V30 9555 N 947.462 1.57535 -0.0451378 0
M  V30 9556 C 948.692 1.96476 0.638814 0
M  V30 9557 C 949.1 0.921056 1.65267 0
M  V30 9558 O 948.443 -0.103843 1.83406 0
M  V30 9559 C 948.505 3.31629 1.38788 0
M  V30 9560 C 948.169 4.5391 0.530545 0
M  V30 9561 C 949.166 5.19512 -0.200864 0
M  V30 9562 C 946.851 5.00159 0.463242 0
M  V30 9563 C 948.845 6.29695 -0.988078 0
M  V30 9564 C 946.532 6.10221 -0.327665 0
M  V30 9565 C 947.53 6.74849 -1.05202 0
M  V30 9566 O 947.218 7.82795 -1.82993 0
M  V30 9567 H 946.95 0.651625 0.17989 0
M  V30 9568 H 949.504 2.05126 -0.106031 0
M  V30 9569 H 947.734 3.19516 2.17822 0
M  V30 9570 H 949.423 3.5536 1.96148 0
M  V30 9571 H 950.189 4.84742 -0.158299 0
M  V30 9572 H 946.068 4.49651 1.01663 0
M  V30 9573 H 949.612 6.80072 -1.55397 0
M  V30 9574 H 945.509 6.44428 -0.37189 0
M  V30 9575 H 946.277 7.99542 -1.7514 0
M  V30 9576 N 948.94 -0.228186 1.55939 0
M  V30 9577 C 950.186 -0.954964 1.78909 0
M  V30 9578 C 950.519 -1.8425 0.613648 0
M  V30 9579 O 949.794 -1.90604 -0.38737 0
M  V30 9580 C 950.077 -1.79957 3.1191 0
M  V30 9581 C 949.93 -0.938968 4.3989 0
M  V30 9582 C 951.249 -2.77859 3.41295 0
M  V30 9583 H 948.368 -0.345745 0.650868 0
M  V30 9584 H 951.01 -0.224244 1.88672 0
M  V30 9585 H 949.16 -2.42256 3.03717 0
M  V30 9586 H 950.832 -0.333225 4.60095 0
M  V30 9587 H 949.075 -0.244096 4.33113 0
M  V30 9588 H 949.746 -1.56416 5.29375 0
M  V30 9589 H 952.222 -2.25695 3.49572 0
M  V30 9590 H 951.098 -3.34062 4.35538 0
M  V30 9591 H 951.359 -3.55266 2.63132 0
M  V30 9592 N 950.418 -1.49637 -0.494624 0
M  V30 9593 C 951.348 -1.69692 -1.60396 0
M  V30 9594 C 952.329 -0.545648 -1.61111 0
M  V30 9595 O 953.514 -0.782202 -1.77751 0
M  V30 9596 C 950.644 -1.76934 -2.9885 0
M  V30 9597 C 949.598 -2.91915 -3.13001 0
M  V30 9598 C 948.924 -2.84276 -4.5287 0
M  V30 9599 C 950.224 -4.32764 -2.92426 0
M  V30 9600 H 951.918 -2.6257 -1.43866 0
M  V30 9601 H 949.464 -1.26355 -0.690679 0
M  V30 9602 H 951.417 -1.8955 -3.76362 0
M  V30 9603 H 950.141 -0.806609 -3.16483 0
M  V30 9604 H 948.8 -2.78911 -2.37916 0
M  V30 9605 H 948.448 -1.85897 -4.67388 0
M  V30 9606 H 948.148 -3.61452 -4.63278 0
M  V30 9607 H 949.672 -2.98909 -5.32434 0
M  V30 9608 H 951.086 -4.46415 -3.59703 0
M  V30 9609 H 949.483 -5.1121 -3.143 0
M  V30 9610 H 950.553 -4.46765 -1.88491 0
M  V30 9611 N 951.896 0.746133 -1.38819 0
M  V30 9612 C 952.826 1.87344 -1.39372 0
M  V30 9613 C 953.807 1.68123 -0.258583 0
M  V30 9614 O 954.992 1.88606 -0.462769 0
M  V30 9615 C 952.122 3.24962 -1.22543 0
M  V30 9616 C 951.076 3.58799 -2.33339 0
M  V30 9617 C 950.402 4.95235 -2.01609 0
M  V30 9618 C 951.702 3.62911 -3.75624 0
M  V30 9619 H 953.396 1.87138 -2.33709 0
M  V30 9620 H 950.942 0.898937 -1.12495 0
M  V30 9621 H 952.895 4.03488 -1.21554 0
M  V30 9622 H 951.619 3.25667 -0.246707 0
M  V30 9623 H 950.278 2.82596 -2.33527 0
M  V30 9624 H 949.926 4.92508 -1.02202 0
M  V30 9625 H 949.626 5.18843 -2.75819 0
M  V30 9626 H 951.15 5.76131 -2.02251 0
M  V30 9627 H 952.564 4.31535 -3.77426 0
M  V30 9628 H 950.961 3.98031 -4.491 0
M  V30 9629 H 952.031 2.62967 -4.07402 0
M  V30 9630 N 953.375 1.23811 0.975125 0
M  V30 9631 C 954.786 1.0675 1.53171 0
M  V30 9632 C 955.137 -0.363475 1.92804 0
M  V30 9633 O 954.262 -1.25089 1.76583 0
M  V30 9634 C 954.857 1.93161 2.78342 0
M  V30 9635 C 953.416 1.80346 3.30382 0
M  V30 9636 C 952.563 1.88544 2.03338 0
M  V30 9637 H 955.514 1.37396 0.79423 0
M  V30 9638 H 955.535 1.45951 3.51395 0
M  V30 9639 H 955.047 2.97302 2.49465 0
M  V30 9640 H 953.148 0.790077 3.64127 0
M  V30 9641 H 953.261 2.64026 3.99784 0
M  V30 9642 H 951.625 1.32186 2.17713 0
M  V30 9643 H 952.408 2.94252 1.76836 0
M  V30 9644 N 954.853 -1.17469 1.05066 0
M  V30 9645 C 955.801 -2.23495 0.644418 0
M  V30 9646 C 956.795 -1.66081 -0.333685 0
M  V30 9647 O 958.001 -1.78887 -0.199886 0
M  V30 9648 H 954.376 -0.727546 0.190214 0
M  V30 9649 H 956.347 -2.55058 1.5488 0
M  V30 9650 C 955.096 -3.47684 0.0338051 0
M  V30 9651 H 954.419 -3.92167 0.777513 0
M  V30 9652 H 955.859 -4.23464 -0.213086 0
M  V30 9653 C 954.318 -3.14067 -1.21915 0
M  V30 9654 O 954.848 -3.28728 -2.3087 0
M  V30 9655 N 953.054 -2.68304 -1.11631 0
M  V30 9656 H 952.601 -2.56574 -0.229673 0
M  V30 9657 H 952.559 -2.46184 -1.95553 0
M  V30 9658 N 956.331 -0.831506 -1.3388 0
M  V30 9659 C 957.278 -0.257449 -2.2936 0
M  V30 9660 C 958.248 0.622604 -1.5399 0
M  V30 9661 O 959.433 0.562432 -1.82322 0
M  V30 9662 C 956.573 0.567587 -3.404 0
M  V30 9663 C 955.686 -0.335666 -4.30694 0
M  V30 9664 C 954.821 0.499762 -5.28844 0
M  V30 9665 C 953.86 -0.402343 -6.10776 0
M  V30 9666 N 952.997 0.39452 -7.00991 0
M  V30 9667 H 957.837 -1.077 -2.77857 0
M  V30 9668 H 955.374 -0.542589 -1.36727 0
M  V30 9669 H 957.332 1.06133 -4.03474 0
M  V30 9670 H 955.962 1.35217 -2.93115 0
M  V30 9671 H 955.014 -0.94768 -3.68406 0
M  V30 9672 H 956.326 -1.02896 -4.88072 0
M  V30 9673 H 955.48 1.05763 -5.9741 0
M  V30 9674 H 954.219 1.22652 -4.72025 0
M  V30 9675 H 953.224 -0.972288 -5.41135 0
M  V30 9676 H 954.449 -1.12735 -6.69677 0
M  V30 9677 H 952.395 1.1048 -6.4663 0
M  V30 9678 H 952.312 -0.240209 -7.55618 0
M  V30 9679 H 953.58 0.934867 -7.73874 0
M  V30 9680 N 957.809 1.4625 -0.587256 0
M  V30 9681 C 959.037 2.06744 -0.08033 0
M  V30 9682 C 959.452 1.43527 1.2266 0
M  V30 9683 O 958.809 0.542168 1.74261 0
M  V30 9684 C 958.86 3.61394 0.0873469 0
M  V30 9685 O 958.581 4.22247 -1.16785 0
M  V30 9686 C 960.082 4.38828 0.628095 0
M  V30 9687 H 957.302 0.668354 -0.0595301 0
M  V30 9688 H 959.846 1.87808 -0.809217 0
M  V30 9689 H 958.001 3.79742 0.766473 0
M  V30 9690 H 958.415 5.15176 -0.984565 0
M  V30 9691 H 959.889 5.47613 0.694583 0
M  V30 9692 H 960.366 4.07188 1.64606 0
M  V30 9693 H 960.972 4.25297 -0.0163115 0
M  V30 9694 N 959.287 0.325282 1.54207 0
M  V30 9695 C 960.512 -0.281418 2.05482 0
M  V30 9696 C 960.937 -1.44869 1.19977 0
M  V30 9697 O 960.295 -1.80088 0.209275 0
M  V30 9698 C 960.343 -0.692029 3.53897 0
M  V30 9699 O 959.447 -1.7942 3.71325 0
M  V30 9700 H 958.788 -0.0504872 0.662078 0
M  V30 9701 H 961.318 0.474191 1.99029 0
M  V30 9702 H 961.328 -0.974219 3.96198 0
M  V30 9703 H 960.003 0.161709 4.15586 0
M  V30 9704 H 958.58 -1.51069 3.40929 0
M  V30 9705 N 960.765 -1.57509 0.0534917 0
M  V30 9706 C 961.728 -2.10563 -0.905307 0
M  V30 9707 C 962.728 -1.02571 -1.23838 0
M  V30 9708 O 963.918 -1.28635 -1.17468 0
M  V30 9709 C 961.05 -2.5918 -2.21447 0
M  V30 9710 H 962.243 -2.96575 -0.445354 0
M  V30 9711 H 959.796 -1.55079 -0.194947 0
M  V30 9712 H 960.531 -1.76568 -2.72019 0
M  V30 9713 H 960.316 -3.38098 -1.98575 0
M  V30 9714 H 961.806 -3.00365 -2.90122 0
M  V30 9715 N 962.243 0.219913 -1.56058 0
M  V30 9716 C 963.175 1.29604 -1.89038 0
M  V30 9717 C 964.188 1.42964 -0.778791 0
M  V30 9718 O 965.377 1.43832 -1.0571 0
M  V30 9719 C 962.477 2.67145 -2.08534 0
M  V30 9720 C 961.65 2.75712 -3.39561 0
M  V30 9721 C 960.709 3.94279 -3.48469 0
M  V30 9722 O 959.735 3.8254 -4.21487 0
M  V30 9723 N 960.937 5.08655 -2.79732 0
M  V30 9724 H 963.702 1.01638 -2.81939 0
M  V30 9725 H 961.263 0.409945 -1.56624 0
M  V30 9726 H 963.255 3.44847 -2.11808 0
M  V30 9727 H 961.825 2.87704 -1.2225 0
M  V30 9728 H 961.045 1.84475 -3.48371 0
M  V30 9729 H 962.333 2.78407 -4.25872 0
M  V30 9730 H 961.731 5.21088 -2.2019 0
M  V30 9731 H 960.288 5.84394 -2.88665 0
M  V30 9732 N 963.721 1.49897 0.486681 0
M  V30 9733 C 964.967 1.60342 1.2417 0
M  V30 9734 C 965.3 0.295694 1.91936 0
M  V30 9735 O 964.575 -0.701788 1.81398 0
M  V30 9736 C 964.858 2.77281 2.29755 0
M  V30 9737 C 964.711 4.1789 1.66397 0
M  V30 9738 C 966.03 2.89817 3.31201 0
M  V30 9739 H 963.149 0.583605 0.450083 0
M  V30 9740 H 965.791 1.82232 0.537734 0
M  V30 9741 H 963.941 2.58748 2.89796 0
M  V30 9742 H 965.613 4.47975 1.10073 0
M  V30 9743 H 963.856 4.22872 0.967579 0
M  V30 9744 H 964.527 4.95612 2.43049 0
M  V30 9745 H 967.003 3.06732 2.81167 0
M  V30 9746 H 965.879 3.7329 4.02425 0
M  V30 9747 H 966.14 1.9977 3.94391 0
M  V30 9748 N 965.199 -0.738761 1.39212 0
M  V30 9749 C 966.447 -1.49529 1.35962 0
M  V30 9750 C 966.768 -1.94948 -0.0450152 0
M  V30 9751 O 966.038 -1.68717 -0.995552 0
M  V30 9752 H 964.618 -0.554692 0.500326 0
M  V30 9753 H 967.28 -0.877255 1.74041 0
M  V30 9754 H 966.376 -2.37919 2.01993 0
M  V30 9755 N 966.677 -1.24326 -0.968545 0
M  V30 9756 C 967.64 -1.03591 -2.04454 0
M  V30 9757 C 968.64 0.0064809 -1.60799 0
M  V30 9758 O 969.83 -0.234404 -1.72616 0
M  V30 9759 C 966.962 -0.56992 -3.36102 0
M  V30 9760 H 968.155 -1.99092 -2.24282 0
M  V30 9761 H 965.708 -1.06537 -1.14366 0
M  V30 9762 H 966.443 0.388325 -3.21967 0
M  V30 9763 H 966.228 -1.32227 -3.69132 0
M  V30 9764 H 967.718 -0.445854 -4.15213 0
M  V30 9765 N 968.156 1.1691 -1.05688 0
M  V30 9766 C 969.386 1.90927 -0.789339 0
M  V30 9767 C 969.794 1.77339 0.659369 0
M  V30 9768 O 969.137 1.11147 1.4626 0
M  V30 9769 C 969.199 3.42361 -1.09677 0
M  V30 9770 C 968.863 3.79733 -2.54267 0
M  V30 9771 C 969.86 3.82163 -3.52487 0
M  V30 9772 C 967.545 4.10547 -2.89406 0
M  V30 9773 C 969.539 4.14884 -4.8389 0
M  V30 9774 C 967.226 4.42936 -4.21011 0
M  V30 9775 C 968.224 4.45084 -5.18063 0
M  V30 9776 O 967.912 4.76707 -6.47307 0
M  V30 9777 H 967.644 0.612466 -0.286115 0
M  V30 9778 H 970.198 1.4916 -1.4121 0
M  V30 9779 H 968.428 3.84446 -0.416924 0
M  V30 9780 H 970.117 3.97645 -0.814456 0
M  V30 9781 H 970.883 3.58476 -3.26681 0
M  V30 9782 H 966.762 4.08044 -2.14525 0
M  V30 9783 H 970.306 4.16475 -5.59638 0
M  V30 9784 H 966.203 4.66088 -4.46579 0
M  V30 9785 H 966.971 4.94544 -6.52203 0
M  V30 9786 N 969.634 0.838594 1.33437 0
M  V30 9787 C 970.597 0.276843 2.27522 0
M  V30 9788 C 971.597 -0.554275 1.50945 0
M  V30 9789 O 972.787 -0.368107 1.70266 0
M  V30 9790 C 969.919 -0.610036 3.35397 0
M  V30 9791 H 971.112 1.10705 2.78719 0
M  V30 9792 H 968.665 0.611657 1.43835 0
M  V30 9793 H 969.4 -1.46269 2.89441 0
M  V30 9794 H 969.185 -0.0153615 3.92097 0
M  V30 9795 H 970.675 -0.996368 4.05539 0
M  V30 9796 N 971.112 -1.45937 0.595003 0
M  V30 9797 C 972.075 -2.2888 -0.121102 0
M  V30 9798 C 973.075 -1.39075 -0.807149 0
M  V30 9799 O 974.265 -1.61326 -0.657228 0
M  V30 9800 C 971.397 -3.19778 -1.1813 0
M  V30 9801 H 972.59 -2.93673 0.607968 0
M  V30 9802 H 970.143 -1.5225 0.353495 0
M  V30 9803 H 970.878 -2.59759 -1.94154 0
M  V30 9804 H 970.663 -3.85914 -0.693724 0
M  V30 9805 H 972.153 -3.82176 -1.68319 0
M  V30 9806 N 972.59 -0.333456 -1.54032 0
M  V30 9807 C 973.867 0.320902 -1.9295 0
M  V30 9808 C 974.247 1.69071 -1.26405 0
M  V30 9809 O 973.595 2.24768 -0.411311 0
M  V30 9810 C 973.805 0.403257 -3.46662 0
M  V30 9811 C 975.153 0.658875 -4.19457 0
M  V30 9812 O 976.177 0.485781 -3.52872 0
M  V30 9813 O 975.036 0.993475 -5.37394 0
M  V30 9814 H 972.13 0.185158 -0.806006 0
M  V30 9815 H 974.676 -0.383895 -1.65301 0
M  V30 9816 H 973.448 -0.558409 -3.87295 0
M  V30 9817 H 973.071 1.15524 -3.80447 0
M  V30 9818 N 974.068 1.57479 -0.061844 0
M  V30 9819 C 975.479 1.80627 0.472295 0
M  V30 9820 C 975.83 0.97496 1.70261 0
M  V30 9821 O 974.955 0.1946 2.15523 0
M  V30 9822 C 975.55 3.27608 0.863616 0
M  V30 9823 C 974.109 3.51638 1.34267 0
M  V30 9824 C 973.256 2.75412 0.323009 0
M  V30 9825 H 976.207 1.56072 -0.287634 0
M  V30 9826 H 976.228 3.39113 1.72577 0
M  V30 9827 H 975.74 3.88087 -0.0320226 0
M  V30 9828 H 973.841 2.96452 2.25714 0
M  V30 9829 H 973.954 4.60342 1.32747 0
M  V30 9830 H 972.318 2.4187 0.798175 0
M  V30 9831 H 973.101 3.38623 -0.564729 0
M  V30 9832 N 975.546 -0.211634 1.56173 0
M  V30 9833 C 976.509 -1.24588 1.92381 0
M  V30 9834 C 977.509 -1.39297 0.803311 0
M  V30 9835 O 978.699 -1.37392 1.07094 0
M  V30 9836 C 975.831 -2.61807 2.18335 0
M  V30 9837 H 977.024 -0.936814 2.84893 0
M  V30 9838 H 974.577 -0.452471 1.49607 0
M  V30 9839 H 975.312 -2.97795 1.28407 0
M  V30 9840 H 975.097 -2.52506 2.99972 0
M  V30 9841 H 976.587 -3.3642 2.4741 0
M  V30 9842 N 977.024 -1.50153 -0.478725 0
M  V30 9843 C 978.273 -1.60002 -1.22809 0
M  V30 9844 C 978.586 -0.302277 -1.9325 0
M  V30 9845 O 979.792 -0.279583 -2.70057 0
M  V30 9846 C 978.248 -2.82402 -2.23108 0
M  V30 9847 C 977.856 -4.19023 -1.58505 0
M  V30 9848 C 979.6 -3.01593 -2.98734 0
M  V30 9849 C 977.507 -5.32618 -2.57045 0
M  V30 9850 H 976.437 -0.595822 -0.462073 0
M  V30 9851 H 979.088 -1.76573 -0.499412 0
M  V30 9852 H 977.47 -2.59373 -2.99235 0
M  V30 9853 H 978.644 -4.52277 -0.882187 0
M  V30 9854 H 976.959 -4.05374 -0.951877 0
M  V30 9855 H 979.556 -3.8363 -3.72468 0
M  V30 9856 H 979.899 -2.1302 -3.57671 0
M  V30 9857 H 980.432 -3.24766 -2.29721 0
M  V30 9858 H 977.171 -6.23321 -2.02858 0
M  V30 9859 H 976.691 -5.03792 -3.25505 0
M  V30 9860 H 978.37 -5.62877 -3.19028 0
M  V30 9861 N 978.502 0.731368 -1.39602 0
M  V30 9862 C 979.412 1.87579 -1.40894 0
M  V30 9863 C 980.428 1.71336 -0.303319 0
M  V30 9864 O 981.604 1.93875 -0.545377 0
M  V30 9865 C 978.669 3.23211 -1.25442 0
M  V30 9866 C 977.73 3.51822 -2.46008 0
M  V30 9867 C 976.963 4.80982 -2.31284 0
M  V30 9868 O 977.186 5.54958 -1.31824 0
M  V30 9869 O 976.12 5.09574 -3.20341 0
M  V30 9870 H 979.946 1.89444 -2.3737 0
M  V30 9871 H 977.531 0.879675 -1.20756 0
M  V30 9872 H 979.413 4.04257 -1.18972 0
M  V30 9873 H 978.088 3.22108 -0.320637 0
M  V30 9874 H 976.995 2.70847 -2.58055 0
M  V30 9875 H 978.328 3.57707 -3.38093 0
M  V30 9876 N 979.98 1.24838 0.961938 0
M  V30 9877 C 981.229 1.0855 1.69999 0
M  V30 9878 C 981.542 -0.374645 1.91979 0
M  V30 9879 O 982.748 -0.657822 2.6341 0
M  V30 9880 C 981.204 1.89424 3.06017 0
M  V30 9881 C 980.812 3.39885 2.9186 0
M  V30 9882 C 982.556 1.81684 3.83655 0
M  V30 9883 C 980.463 4.13082 4.23223 0
M  V30 9884 H 979.393 0.402603 0.637516 0
M  V30 9885 H 982.044 1.4897 1.07146 0
M  V30 9886 H 980.426 1.41823 3.69733 0
M  V30 9887 H 981.6 3.95108 2.37121 0
M  V30 9888 H 979.915 3.4864 2.27683 0
M  V30 9889 H 982.512 2.3367 4.80939 0
M  V30 9890 H 982.855 0.783247 4.08865 0
M  V30 9891 H 983.388 2.26997 3.26676 0
M  V30 9892 H 980.127 5.16824 4.03204 0
M  V30 9893 H 979.647 3.62644 4.77755 0
M  V30 9894 H 981.326 4.20397 4.91808 0
M  V30 9895 N 981.458 -1.16348 1.06306 0
M  V30 9896 C 982.704 -1.87158 0.781007 0
M  V30 9897 C 983.037 -1.81499 -0.690784 0
M  V30 9898 O 982.312 -1.23074 -1.50609 0
M  V30 9899 C 982.595 -3.3672 1.27639 0
M  V30 9900 C 982.448 -3.51069 2.81194 0
M  V30 9901 C 983.767 -4.31122 0.884388 0
M  V30 9902 H 980.886 -0.679586 0.285187 0
M  V30 9903 H 983.528 -1.36756 1.31901 0
M  V30 9904 H 981.678 -3.79775 0.818715 0
M  V30 9905 H 983.35 -3.16952 3.35171 0
M  V30 9906 H 981.593 -2.92976 3.19918 0
M  V30 9907 H 982.264 -4.56105 3.10921 0
M  V30 9908 H 984.74 -3.95969 1.27858 0
M  V30 9909 H 983.616 -5.34279 1.25847 0
M  V30 9910 H 983.877 -4.41598 -0.210673 0
M  V30 9911 N 982.937 -0.845659 -1.3299 0
M  V30 9912 C 984.183 -0.445311 -1.9785 0
M  V30 9913 C 984.516 0.994476 -1.66805 0
M  V30 9914 O 983.791 1.69636 -0.95151 0
M  V30 9915 C 984.074 -0.674371 -3.53729 0
M  V30 9916 C 983.927 -2.16192 -3.94437 0
M  V30 9917 C 985.246 -0.124908 -4.39923 0
M  V30 9918 H 982.365 -0.163269 -0.718688 0
M  V30 9919 H 985.007 -1.06242 -1.5752 0
M  V30 9920 H 983.157 -0.149091 -3.88214 0
M  V30 9921 H 984.829 -2.75259 -3.70176 0
M  V30 9922 H 983.072 -2.64386 -3.43922 0
M  V30 9923 H 983.743 -2.27292 -5.03033 0
M  V30 9924 H 986.219 -0.573986 -4.12122 0
M  V30 9925 H 985.095 -0.314816 -5.47996 0
M  V30 9926 H 985.356 0.971758 -4.31288 0
M  V30 9927 N 984.415 1.45619 -0.602734 0
M  V30 9928 C 985.363 2.32228 0.131484 0
M  V30 9929 C 986.357 1.45681 0.864484 0
M  V30 9930 O 987.563 1.62193 0.7806 0
M  V30 9931 H 983.938 0.7495 0.0612638 0
M  V30 9932 H 985.909 2.91941 -0.617496 0
M  V30 9933 C 984.658 3.29213 1.11866 0
M  V30 9934 H 983.981 3.95801 0.564061 0
M  V30 9935 H 985.421 3.92554 1.60242 0
M  V30 9936 C 983.88 2.56028 2.18978 0
M  V30 9937 O 984.41 2.33806 3.26646 0
M  V30 9938 N 982.616 2.16245 1.94129 0
M  V30 9939 H 982.163 2.34518 1.06579 0
M  V30 9940 H 982.121 1.67601 2.66003 0
M  V30 9941 N 985.893 0.34162 1.53853 0
M  V30 9942 C 987.121 -0.256929 2.05299 0
M  V30 9943 C 987.536 -1.44366 1.21671 0
M  V30 9944 O 986.893 -1.80758 0.251584 0
M  V30 9945 C 986.944 -0.673854 3.55164 0
M  V30 9946 O 986.665 0.465687 4.35618 0
M  V30 9947 C 988.166 -1.33332 4.22773 0
M  V30 9948 H 985.386 -0.0499445 0.669139 0
M  V30 9949 H 987.93 0.493048 1.98467 0
M  V30 9950 H 986.085 -1.37378 3.62224 0
M  V30 9951 H 986.499 0.133723 5.2433 0
M  V30 9952 H 987.973 -1.57582 5.29029 0
M  V30 9953 H 988.45 -2.28628 3.75001 0
M  V30 9954 H 989.056 -0.675489 4.19901 0
M  V30 9955 N 987.371 -1.57444 0.0701946 0
M  V30 9956 C 988.596 -1.98171 -0.61181 0
M  V30 9957 C 989.021 -0.94823 -1.62451 0
M  V30 9958 O 988.379 0.0863553 -1.81094 0
M  V30 9959 C 988.427 -3.37934 -1.2583 0
M  V30 9960 O 987.531 -3.37207 -2.37414 0
M  V30 9961 H 986.872 -0.645056 -0.157477 0
M  V30 9962 H 989.402 -2.04091 0.144235 0
M  V30 9963 H 989.412 -3.75083 -1.60552 0
M  V30 9964 H 988.087 -4.12684 -0.516234 0
M  V30 9965 H 986.664 -3.11826 -2.04497 0
M  V30 9966 N 988.849 0.203349 -1.56283 0
M  V30 9967 C 990.097 0.923183 -1.79782 0
M  V30 9968 C 990.418 1.84134 -0.64185 0
M  V30 9969 O 989.688 1.92922 0.340292 0
M  V30 9970 H 988.268 0.343881 -0.66314 0
M  V30 9971 H 990.93 0.210837 -1.93756 0
M  V30 9972 H 990.026 1.51921 -2.72629 0
M  V30 9973 N 990.327 1.50405 0.470755 0
M  V30 9974 C 991.573 1.6165 1.22462 0
M  V30 9975 C 991.906 0.316034 1.91611 0
M  V30 9976 O 991.181 -0.682509 1.82132 0
M  V30 9977 C 991.464 2.79702 2.26801 0
M  V30 9978 C 991.317 4.19631 1.61955 0
M  V30 9979 C 992.636 2.93313 3.28109 0
M  V30 9980 H 989.755 0.588345 0.443868 0
M  V30 9981 H 992.397 1.82792 0.518376 0
M  V30 9982 H 990.547 2.61807 2.87036 0
M  V30 9983 H 992.219 4.49117 1.05316 0
M  V30 9984 H 990.462 4.23874 0.922674 0
M  V30 9985 H 991.133 4.98162 2.37779 0
M  V30 9986 H 993.609 3.09697 2.77897 0
M  V30 9987 H 992.485 3.77537 3.98443 0
M  V30 9988 H 992.746 2.03942 3.9225 0
M  V30 9989 N 991.805 -0.723954 1.39988 0
M  V30 9990 C 992.737 -1.84859 1.35498 0
M  V30 9991 C 993.75 -1.60681 0.261812 0
M  V30 9992 O 994.939 -1.7071 0.521566 0
M  V30 9993 C 992.039 -3.21103 1.08381 0
M  V30 9994 C 991.212 -3.72546 2.2919 0
M  V30 9995 C 990.271 -4.8738 1.9836 0
M  V30 9996 O 989.297 -5.00467 2.71149 0
M  V30 9997 N 990.499 -5.72566 0.956461 0
M  V30 9998 H 993.264 -1.89212 2.3242 0
M  V30 9999 H 990.825 -0.905152 1.34233 0
M  V30 10000 H 992.817 -3.9551 0.857564 0
M  V30 10001 H 991.387 -3.1195 0.201549 0
M  V30 10002 H 990.607 -2.89365 2.67697 0
M  V30 10003 H 991.895 -4.03652 3.09746 0
M  V30 10004 H 991.293 -5.64595 0.353444 0
M  V30 10005 H 989.85 -6.46993 0.790118 0
M  V30 10006 N 993.283 -1.25346 -0.955304 0
M  V30 10007 C 994.508 -1.12892 -1.73983 0
M  V30 10008 C 994.933 0.313455 -1.8547 0
M  V30 10009 O 994.291 1.22706 -1.33465 0
M  V30 10010 C 994.339 -1.78729 -3.1319 0
M  V30 10011 O 993.443 -1.06648 -3.98372 0
M  V30 10012 H 992.784 -0.394178 -0.534341 0
M  V30 10013 H 995.314 -1.65897 -1.19747 0
M  V30 10014 H 995.324 -1.84987 -3.63653 0
M  V30 10015 H 993.999 -2.83669 -3.04146 0
M  V30 10016 H 992.576 -1.08266 -3.56837 0
M  V30 10017 N 994.761 1.15782 -1.06922 0
M  V30 10018 C 996.007 1.86741 -0.790922 0
M  V30 10019 C 996.34 1.81863 0.681149 0
M  V30 10020 O 995.615 1.23871 1.49954 0
M  V30 10021 C 995.898 3.36038 -1.29422 0
M  V30 10022 C 995.751 3.49573 -2.83052 0
M  V30 10023 C 997.07 4.30647 -0.907239 0
M  V30 10024 H 994.189 0.678064 -0.288787 0
M  V30 10025 H 996.831 1.36054 -1.32624 0
M  V30 10026 H 994.981 3.79336 -0.838843 0
M  V30 10027 H 996.653 3.1517 -3.36847 0
M  V30 10028 H 994.896 2.91275 -3.21467 0
M  V30 10029 H 995.567 4.5445 -3.13335 0
M  V30 10030 H 998.043 3.95286 -1.29956 0
M  V30 10031 H 996.919 5.33604 -1.28679 0
M  V30 10032 H 997.18 4.41703 0.187251 0
M  V30 10033 N 996.239 0.8527 1.3254 0
M  V30 10034 C 997.186 0.293905 2.28921 0
M  V30 10035 C 998.156 -0.598027 1.54961 0
M  V30 10036 O 999.341 -0.533355 1.83194 0
M  V30 10037 C 996.481 -0.513361 3.4126 0
M  V30 10038 C 995.594 0.404144 4.30105 0
M  V30 10039 C 994.729 -0.415564 5.29572 0
M  V30 10040 C 993.768 0.499461 6.10059 0
M  V30 10041 N 992.905 -0.282949 7.0153 0
M  V30 10042 H 997.745 1.12107 2.76109 0
M  V30 10043 H 995.282 0.564272 1.35847 0
M  V30 10044 H 997.24 -0.997008 4.05112 0
M  V30 10045 H 995.87 -1.30537 2.95229 0
M  V30 10046 H 994.922 1.00617 3.66852 0
M  V30 10047 H 996.234 1.10648 4.86373 0
M  V30 10048 H 995.388 -0.962458 5.99017 0
M  V30 10049 H 994.127 -1.15127 4.73917 0
M  V30 10050 H 993.132 1.05825 5.39519 0
M  V30 10051 H 994.357 1.23375 6.67799 0
M  V30 10052 H 992.303 -1.00179 6.48306 0
M  V30 10053 H 992.22 0.36039 7.55141 0
M  V30 10054 H 993.488 -0.811632 7.75263 0
M  V30 10055 N 997.718 -1.45297 0.610449 0
M  V30 10056 C 998.628 -2.34349 -0.108475 0
M  V30 10057 C 999.644 -1.51409 -0.857397 0
M  V30 10058 O 1000.82 -1.84202 -0.814337 0
M  V30 10059 C 997.885 -3.29072 -1.09144 0
M  V30 10060 C 996.946 -4.27918 -0.344165 0
M  V30 10061 C 996.179 -5.18116 -1.28031 0
M  V30 10062 O 996.402 -5.11802 -2.51824 0
M  V30 10063 O 995.336 -5.96879 -0.775821 0
M  V30 10064 H 999.162 -2.97232 0.623421 0
M  V30 10065 H 996.747 -1.44728 0.3707 0
M  V30 10066 H 998.629 -3.87433 -1.65751 0
M  V30 10067 H 997.304 -2.68749 -1.80431 0
M  V30 10068 H 996.211 -3.73164 0.264437 0
M  V30 10069 H 997.544 -4.91104 0.328275 0
M  V30 10070 N 999.196 -0.349774 -1.5367 0
M  V30 10071 C 1000.14 0.504121 -2.25227 0
M  V30 10072 C 1001.11 1.09048 -1.2529 0
M  V30 10073 O 1002.3 1.12594 -1.54037 0
M  V30 10074 C 999.438 1.64601 -3.03316 0
M  V30 10075 C 998.551 1.08635 -4.18118 0
M  V30 10076 C 997.686 2.19605 -4.83681 0
M  V30 10077 C 996.725 1.61023 -5.90541 0
M  V30 10078 N 995.862 2.6576 -6.49858 0
M  V30 10079 H 1000.7 -0.112621 -2.97787 0
M  V30 10080 H 998.239 -0.0673503 -1.46946 0
M  V30 10081 H 1000.2 2.31836 -3.46854 0
M  V30 10082 H 998.827 2.23364 -2.33041 0
M  V30 10083 H 997.879 0.304748 -3.79177 0
M  V30 10084 H 999.191 0.617911 -4.94958 0
M  V30 10085 H 998.345 2.94693 -5.30322 0
M  V30 10086 H 997.084 2.69795 -4.06278 0
M  V30 10087 H 996.089 0.844428 -5.43277 0
M  V30 10088 H 997.314 1.11677 -6.69855 0
M  V30 10089 H 995.26 3.15193 -5.75317 0
M  V30 10090 H 995.177 2.23557 -7.2219 0
M  V30 10091 H 996.445 3.40598 -7.01151 0
M  V30 10092 N 1000.67 1.57404 -0.0785433 0
M  V30 10093 C 1001.9 1.98074 0.597862 0
M  V30 10094 C 1002.32 0.95714 1.6274 0
M  V30 10095 O 1001.67 -0.0553728 1.82416 0
M  V30 10096 C 1001.72 3.38815 1.26041 0
M  V30 10097 O 1001.45 4.37254 0.27207 0
M  V30 10098 C 1002.95 3.94397 2.024 0
M  V30 10099 H 1000.17 0.651263 0.161546 0
M  V30 10100 H 1002.71 2.03927 -0.152941 0
M  V30 10101 H 1000.87 3.34028 1.96225 0
M  V30 10102 H 1001.28 5.19136 0.74822 0
M  V30 10103 H 1002.75 4.95075 2.4414 0
M  V30 10104 H 1003.23 3.31308 2.88326 0
M  V30 10105 H 1003.84 4.02607 1.37068 0
M  V30 10106 N 1002.15 -0.195058 1.56388 0
M  V30 10107 C 1003.08 -1.24444 1.97575 0
M  V30 10108 C 1004.06 -1.47471 0.847717 0
M  V30 10109 O 1005.25 -1.59208 1.11205 0
M  V30 10110 C 1002.38 -2.58866 2.31529 0
M  V30 10111 C 1001.33 -2.50451 3.47071 0
M  V30 10112 C 1000.66 -3.89146 3.667 0
M  V30 10113 C 1001.96 -2.02953 4.81256 0
M  V30 10114 H 1003.65 -0.902178 2.85484 0
M  V30 10115 H 1001.2 -0.43254 1.3735 0
M  V30 10116 H 1003.15 -3.3246 2.58936 0
M  V30 10117 H 1001.87 -2.94833 1.40502 0
M  V30 10118 H 1000.53 -1.79313 3.19754 0
M  V30 10119 H 1000.18 -4.22466 2.73004 0
M  V30 10120 H 999.882 -3.84391 4.44429 0
M  V30 10121 H 1001.41 -4.64363 3.96484 0
M  V30 10122 H 1002.82 -2.66306 5.07695 0
M  V30 10123 H 1001.22 -2.092 5.62455 0
M  V30 10124 H 1002.29 -0.982757 4.74837 0
M  V30 10125 N 1003.63 -1.50653 -0.462772 0
M  V30 10126 C 1004.88 -1.61737 -1.21184 0
M  V30 10127 C 1005.2 -0.32369 -1.92295 0
M  V30 10128 O 1004.47 0.659269 -1.84473 0
M  V30 10129 H 1003.05 -0.596015 -0.450306 0
M  V30 10130 H 1005.71 -1.87469 -0.533051 0
M  V30 10131 H 1004.81 -2.43262 -1.95525 0
M  V30 10132 N 1005.11 0.71652 -1.4037 0
M  V30 10133 C 1006.04 1.84345 -1.43315 0
M  V30 10134 C 1007.02 1.67537 -0.294186 0
M  V30 10135 O 1008.2 1.87582 -0.502671 0
M  V30 10136 C 1005.33 3.2229 -1.29408 0
M  V30 10137 C 1004.29 3.53769 -2.40897 0
M  V30 10138 C 1003.61 4.90847 -2.12068 0
M  V30 10139 C 1004.91 3.54862 -3.83237 0
M  V30 10140 H 1006.61 1.82138 -2.37626 0
M  V30 10141 H 1004.15 0.874873 -1.14376 0
M  V30 10142 H 1006.11 4.00819 -1.30085 0
M  V30 10143 H 1004.83 3.2507 -0.31573 0
M  V30 10144 H 1003.49 2.77579 -2.39469 0
M  V30 10145 H 1003.14 4.90229 -1.12626 0
M  V30 10146 H 1002.84 5.12875 -2.86762 0
M  V30 10147 H 1004.36 5.71711 -2.14426 0
M  V30 10148 H 1005.78 4.23432 -3.86494 0
M  V30 10149 H 1004.17 3.88416 -4.57442 0
M  V30 10150 H 1005.24 2.54266 -4.12888 0
M  V30 10151 N 1006.59 1.25851 0.948643 0
M  V30 10152 C 1007.83 1.11119 1.69648 0
M  V30 10153 C 1008.17 -0.345995 1.91093 0
M  V30 10154 O 1007.44 -1.25467 1.48621 0
M  V30 10155 C 1007.72 1.87261 3.0758 0
M  V30 10156 C 1007.58 3.40842 2.93507 0
M  V30 10157 C 1008.9 1.6605 4.07573 0
M  V30 10158 H 1006.01 0.405052 0.615713 0
M  V30 10159 H 1008.66 1.54756 1.10229 0
M  V30 10160 H 1006.81 1.50172 3.58303 0
M  V30 10161 H 1008.48 3.87641 2.50064 0
M  V30 10162 H 1006.72 3.68248 2.29294 0
M  V30 10163 H 1007.39 3.89339 3.91305 0
M  V30 10164 H 1009.87 1.98348 3.65783 0
M  V30 10165 H 1008.74 2.21753 5.02113 0
M  V30 10166 H 1009.01 0.603256 4.37965 0
M  V30 10167 N 1008.06 -1.15214 1.07534 0
M  V30 10168 C 1009.31 -1.85676 0.79805 0
M  V30 10169 C 1009.63 -1.82837 -0.677919 0
M  V30 10170 O 1008.9 -1.27059 -1.49107 0
M  V30 10171 H 1007.48 -0.687468 0.292227 0
M  V30 10172 H 1010.15 -1.39658 1.35947 0
M  V30 10173 H 1009.24 -2.9076 1.13423 0
M  V30 10174 N 1009.54 -0.859717 -1.32086 0
M  V30 10175 C 1010.51 -0.313005 -2.27053 0
M  V30 10176 C 1011.51 0.530191 -1.51808 0
M  V30 10177 O 1012.7 0.340972 -1.7083 0
M  V30 10178 C 1009.83 0.5566 -3.36325 0
M  V30 10179 H 1011.02 -1.15125 -2.76923 0
M  V30 10180 H 1008.57 -0.634463 -1.42843 0
M  V30 10181 H 1009.31 1.41645 -2.91731 0
M  V30 10182 H 1009.09 -0.0470197 -3.92072 0
M  V30 10183 H 1010.58 0.931725 -4.07073 0
M  V30 10184 N 1011.02 1.44971 -0.618145 0
M  V30 10185 C 1011.97 2.32354 0.106846 0
M  V30 10186 C 1012.96 1.4659 0.848984 0
M  V30 10187 O 1014.17 1.63012 0.763354 0
M  V30 10188 H 1010.54 0.750108 0.0533109 0
M  V30 10189 H 1012.51 2.9127 -0.648426 0
M  V30 10190 C 1011.26 3.30381 1.08368 0
M  V30 10191 H 1010.59 3.96377 0.52205 0
M  V30 10192 H 1012.03 3.94231 1.56069 0
M  V30 10193 C 1010.49 2.58336 2.1625 0
M  V30 10194 O 1011.02 2.37258 3.24148 0
M  V30 10195 N 1009.22 2.18292 1.91825 0
M  V30 10196 H 1008.77 2.35635 1.04086 0
M  V30 10197 H 1008.73 1.70413 2.6421 0
M  V30 10198 N 1012.5 0.357919 1.53482 0
M  V30 10199 C 1013.75 -0.234163 2.01142 0
M  V30 10200 C 1014.07 -1.49399 1.2454 0
M  V30 10201 O 1013.33 -1.92981 0.325111 0
M  V30 10202 C 1013.63 -0.579617 3.52669 0
M  V30 10203 C 1013.29 0.584988 4.47089 0
M  V30 10204 C 1011.96 0.904558 4.72622 0
M  V30 10205 C 1014.31 1.3656 5.02992 0
M  V30 10206 C 1011.64 2.00685 5.5131 0
M  V30 10207 C 1013.99 2.45824 5.82884 0
M  V30 10208 C 1012.65 2.78325 6.06706 0
M  V30 10209 H 1011.92 -0.0856863 0.736029 0
M  V30 10210 H 1014.57 0.488801 1.85157 0
M  V30 10211 H 1012.87 -1.38349 3.66561 0
M  V30 10212 H 1014.57 -1.04985 3.87013 0
M  V30 10213 H 1011.16 0.32587 4.27359 0
M  V30 10214 H 1015.34 1.13196 4.83219 0
M  V30 10215 H 1010.6 2.26272 5.67988 0
M  V30 10216 H 1014.77 3.06732 6.25211 0
M  V30 10217 H 1012.4 3.63862 6.67464 0
M  V30 10218 N 1013.98 -1.5736 0.0868897 0
M  V30 10219 C 1015.22 -1.95147 -0.573512 0
M  V30 10220 C 1015.58 -0.967591 -1.66299 0
M  V30 10221 O 1014.87 0.00774571 -1.91598 0
M  V30 10222 C 1015.06 -3.37316 -1.18123 0
M  V30 10223 C 1014.89 -4.49443 -0.152145 0
M  V30 10224 C 1013.66 -5.04586 0.268496 0
M  V30 10225 C 1015.86 -5.10592 0.616502 0
M  V30 10226 N 1013.84 -6.00264 1.28671 0
M  V30 10227 C 1015.21 -6.0191 1.48677 0
M  V30 10228 C 1017.27 -4.93359 0.67092 0
M  V30 10229 C 1015.97 -6.77844 2.40664 0
M  V30 10230 C 1018 -5.69949 1.57837 0
M  V30 10231 C 1017.36 -6.60927 2.43628 0
M  V30 10232 H 1013.46 -0.760898 -0.180439 0
M  V30 10233 H 1016.04 -1.93978 0.167548 0
M  V30 10234 H 1014.21 -3.39194 -1.89214 0
M  V30 10235 H 1015.95 -3.62301 -1.80332 0
M  V30 10236 H 1012.7 -4.73454 -0.117625 0
M  V30 10237 H 1013.13 -6.52804 1.79377 0
M  V30 10238 H 1017.77 -4.22794 0.0218207 0
M  V30 10239 H 1015.49 -7.47677 3.06603 0
M  V30 10240 H 1019.07 -5.58631 1.6255 0
M  V30 10241 H 1017.95 -7.19156 3.12705 0
M  V30 10242 N 1015.45 0.186762 -1.56489 0
M  V30 10243 C 1016.68 0.921832 -1.85229 0
M  V30 10244 C 1017.1 1.76496 -0.670416 0
M  V30 10245 O 1016.45 1.78899 0.360758 0
M  V30 10246 C 1016.51 1.81121 -3.12854 0
M  V30 10247 O 1016.23 1.00211 -4.26485 0
M  V30 10248 C 1017.73 2.65725 -3.54831 0
M  V30 10249 H 1014.95 0.268563 -0.61491 0
M  V30 10250 H 1017.49 0.191505 -2.03601 0
M  V30 10251 H 1015.65 2.49506 -2.96354 0
M  V30 10252 H 1016.06 1.60893 -4.99213 0
M  V30 10253 H 1017.53 3.23771 -4.47075 0
M  V30 10254 H 1018.01 3.39843 -2.78215 0
M  V30 10255 H 1018.62 2.02698 -3.7389 0
M  V30 10256 N 1016.93 1.50896 0.454776 0
M  V30 10257 C 1018.21 1.53227 1.21576 0
M  V30 10258 C 1018.59 0.286358 2.09149 0
M  V30 10259 O 1017.94 -0.729469 2.16543 0
M  V30 10260 C 1018.15 2.83693 2.03271 0
M  V30 10261 C 1019.5 3.34981 2.60908 0
M  V30 10262 O 1020.52 2.85126 2.13499 0
M  V30 10263 O 1019.38 4.21929 3.4733 0
M  V30 10264 H 1016.47 0.615306 0.552564 0
M  V30 10265 H 1019.02 1.63197 0.465266 0
M  V30 10266 H 1017.79 3.65839 1.38843 0
M  V30 10267 H 1017.41 2.76803 2.85422 0
M  V30 10268 N 1018.41 -0.709066 1.40748 0
M  V30 10269 C 1019.64 -1.49808 1.42707 0
M  V30 10270 C 1020.05 -1.88778 0.0285574 0
M  V30 10271 O 1019.41 -1.55883 -0.949035 0
M  V30 10272 C 1019.46 -2.76926 2.32366 0
M  V30 10273 O 1019.18 -2.39602 3.66773 0
M  V30 10274 C 1020.68 -3.70773 2.42986 0
M  V30 10275 H 1017.9 -0.462106 0.486517 0
M  V30 10276 H 1020.45 -0.874135 1.84876 0
M  V30 10277 H 1018.6 -3.3559 1.93541 0
M  V30 10278 H 1019.02 -3.21443 4.14457 0
M  V30 10279 H 1020.49 -4.56789 3.09916 0
M  V30 10280 H 1020.97 -4.14332 1.45691 0
M  V30 10281 H 1021.57 -3.18019 2.8239 0
M  V30 10282 N 1019.89 -1.26353 -0.941956 0
M  V30 10283 C 1021.12 -1.14626 -1.72245 0
M  V30 10284 C 1021.53 0.298588 -1.86424 0
M  V30 10285 O 1020.89 1.2045 -1.37106 0
M  V30 10286 C 1020.94 -1.80933 -3.12963 0
M  V30 10287 O 1020.66 -3.19771 -2.99463 0
M  V30 10288 C 1022.16 -1.7515 -4.07231 0
M  V30 10289 H 1019.38 -0.3992 -0.539333 0
M  V30 10290 H 1021.93 -1.66958 -1.1809 0
M  V30 10291 H 1020.08 -1.32541 -3.64021 0
M  V30 10292 H 1020.5 -3.52571 -3.88322 0
M  V30 10293 H 1021.97 -2.26183 -5.03533 0
M  V30 10294 H 1022.45 -0.717855 -4.33294 0
M  V30 10295 H 1023.05 -2.2309 -3.62093 0
M  V30 10296 N 1021.37 1.14642 -1.08144 0
M  V30 10297 C 1022.3 2.19283 -0.6669 0
M  V30 10298 C 1023.31 1.60292 0.284668 0
M  V30 10299 O 1024.5 1.78352 0.0727383 0
M  V30 10300 C 1021.6 3.38877 0.0398572 0
M  V30 10301 C 1020.77 4.274 -0.929929 0
M  V30 10302 C 1019.83 5.25562 -0.258991 0
M  V30 10303 O 1018.86 5.61999 -0.902563 0
M  V30 10304 N 1020.06 5.71958 0.992177 0
M  V30 10305 H 1022.83 2.55464 -1.5671 0
M  V30 10306 H 1020.39 1.29836 -0.96717 0
M  V30 10307 H 1022.38 4.01605 0.499583 0
M  V30 10308 H 1020.95 3.01043 0.842118 0
M  V30 10309 H 1020.17 3.61649 -1.56857 0
M  V30 10310 H 1021.46 4.83411 -1.58717 0
M  V30 10311 H 1020.86 5.44481 1.53484 0
M  V30 10312 H 1019.41 6.36687 1.39544 0
M  V30 10313 N 1022.85 0.866709 1.31628 0
M  V30 10314 C 1024.07 0.49039 2.01004 0
M  V30 10315 C 1024.49 -0.916244 1.65077 0
M  V30 10316 O 1023.85 -1.59975 0.8783 0
M  V30 10317 C 1023.9 0.634011 3.55897 0
M  V30 10318 O 1023.62 1.98525 3.90537 0
M  V30 10319 C 1025.12 0.258277 4.42547 0
M  V30 10320 H 1022.34 0.191421 0.643117 0
M  V30 10321 H 1024.88 1.16698 1.67934 0
M  V30 10322 H 1023.04 0.00501801 3.874 0
M  V30 10323 H 1023.45 1.99067 4.85255 0
M  V30 10324 H 1024.93 0.409733 5.50477 0
M  V30 10325 H 1025.4 -0.802301 4.3181 0
M  V30 10326 H 1026.01 0.862837 4.16456 0
M  V30 10327 N 1024.32 -1.44642 0.625825 0
M  V30 10328 C 1025.29 -2.29085 -0.072526 0
M  V30 10329 C 1026.29 -1.40755 -0.777467 0
M  V30 10330 O 1027.48 -1.62684 -0.622861 0
M  V30 10331 C 1024.61 -3.22212 -1.1132 0
M  V30 10332 H 1025.8 -2.92317 0.670124 0
M  V30 10333 H 1023.35 -1.51466 0.38571 0
M  V30 10334 H 1024.09 -2.63819 -1.88601 0
M  V30 10335 H 1023.87 -3.87299 -0.611709 0
M  V30 10336 H 1025.36 -3.8566 -1.60175 0
M  V30 10337 N 1025.8 -0.366053 -1.5329 0
M  V30 10338 C 1027.08 0.279902 -1.93587 0
M  V30 10339 C 1027.46 1.66352 -1.29963 0
M  V30 10340 O 1026.81 2.23845 -0.458895 0
M  V30 10341 C 1027.02 0.329634 -3.4744 0
M  V30 10342 C 1028.36 0.569754 -4.2076 0
M  V30 10343 O 1029.39 0.410823 -3.53823 0
M  V30 10344 O 1028.25 0.879262 -5.3938 0
M  V30 10345 H 1025.34 0.16802 -0.809752 0
M  V30 10346 H 1027.89 -0.418871 -1.64449 0
M  V30 10347 H 1026.66 -0.640434 -3.86023 0
M  V30 10348 H 1026.28 1.07428 -3.82812 0
M  V30 10349 N 1027.28 1.57312 -0.0952337 0
M  V30 10350 C 1028.21 2.17056 0.860753 0
M  V30 10351 C 1029.19 1.10394 1.29411 0
M  V30 10352 O 1030.38 1.38532 1.36098 0
M  V30 10353 C 1027.51 2.751 2.11984 0
M  V30 10354 C 1026.46 3.87136 1.8251 0
M  V30 10355 C 1025.79 4.31883 3.15247 0
M  V30 10356 C 1027.09 5.10326 1.11194 0
M  V30 10357 H 1028.78 2.97192 0.362983 0
M  V30 10358 H 1026.33 1.42955 0.173151 0
M  V30 10359 H 1028.28 3.15547 2.79299 0
M  V30 10360 H 1027 1.92219 2.64044 0
M  V30 10361 H 1025.66 3.47229 1.17592 0
M  V30 10362 H 1025.31 3.45893 3.65195 0
M  V30 10363 H 1025.01 5.0742 2.96309 0
M  V30 10364 H 1026.53 4.74964 3.83721 0
M  V30 10365 H 1027.95 5.47942 1.6862 0
M  V30 10366 H 1026.34 5.91293 1.02435 0
M  V30 10367 H 1027.41 4.84807 0.0947227 0
M  V30 10368 N 1028.76 -0.17846 1.56586 0
M  V30 10369 C 1030.01 -0.894502 1.8078 0
M  V30 10370 C 1030.32 -1.8372 0.67129 0
M  V30 10371 O 1031.53 -2.59509 0.797971 0
M  V30 10372 C 1029.98 -1.64109 3.20306 0
M  V30 10373 C 1029.59 -0.742387 4.41806 0
M  V30 10374 C 1031.33 -2.34578 3.53798 0
M  V30 10375 C 1029.24 -1.4888 5.72354 0
M  V30 10376 H 1028.17 -0.33776 0.674117 0
M  V30 10377 H 1030.82 -0.14752 1.82906 0
M  V30 10378 H 1029.2 -2.43257 3.12477 0
M  V30 10379 H 1030.38 0.011615 4.60799 0
M  V30 10380 H 1028.69 -0.147705 4.16138 0
M  V30 10381 H 1031.29 -2.91004 4.48577 0
M  V30 10382 H 1031.63 -3.09572 2.78336 0
M  V30 10383 H 1032.17 -1.62381 3.63149 0
M  V30 10384 H 1028.9 -0.781325 6.50827 0
M  V30 10385 H 1028.42 -2.21631 5.57351 0
M  V30 10386 H 1030.1 -2.03819 6.14058 0
M  V30 10387 N 1030.24 -1.51135 -0.446768 0
M  V30 10388 C 1031.46 -1.67129 -1.21965 0
M  V30 10389 C 1031.88 -0.36467 -1.85245 0
M  V30 10390 O 1031.24 0.655908 -1.70306 0
M  V30 10391 C 1031.29 -2.78016 -2.31061 0
M  V30 10392 O 1031.01 -4.03615 -1.70371 0
M  V30 10393 C 1032.51 -3.05197 -3.21511 0
M  V30 10394 H 1029.73 -0.561111 -0.367961 0
M  V30 10395 H 1032.27 -1.97499 -0.530517 0
M  V30 10396 H 1030.43 -2.50272 -2.95707 0
M  V30 10397 H 1030.84 -4.65126 -2.424 0
M  V30 10398 H 1032.32 -3.8639 -3.94216 0
M  V30 10399 H 1032.79 -2.17228 -3.81718 0
M  V30 10400 H 1033.4 -3.34565 -2.62577 0
M  V30 10401 N 1031.71 0.701592 -1.41122 0
M  V30 10402 C 1032.94 1.49553 -1.43696 0
M  V30 10403 C 1033.36 1.88053 -0.0421865 0
M  V30 10404 O 1032.72 1.54223 0.953144 0
M  V30 10405 C 1032.77 2.73834 -2.34622 0
M  V30 10406 O 1031.87 3.71088 -1.7991 0
M  V30 10407 H 1031.21 0.450352 -0.487933 0
M  V30 10408 H 1033.74 0.862886 -1.85514 0
M  V30 10409 H 1033.75 3.22209 -2.5029 0
M  V30 10410 H 1032.43 2.45149 -3.35969 0
M  V30 10411 H 1031.01 3.29994 -1.73661 0
M  V30 10412 N 1033.19 1.2685 0.935242 0
M  V30 10413 C 1034.14 1.08746 2.05614 0
M  V30 10414 C 1035.13 0.012681 1.69395 0
M  V30 10415 O 1036.34 0.169822 1.79197 0
M  V30 10416 H 1032.71 0.33485 0.673335 0
M  V30 10417 H 1034.69 2.03725 2.18033 0
M  V30 10418 C 1033.43 0.74346 3.39659 0
M  V30 10419 H 1032.76 1.56236 3.68008 0
M  V30 10420 H 1034.2 0.656607 4.18885 0
M  V30 10421 C 1032.66 -0.551751 3.32351 0
M  V30 10422 O 1033.19 -1.58836 3.68963 0
M  V30 10423 N 1031.39 -0.544583 2.85452 0
M  V30 10424 H 1030.94 0.29939 2.55854 0
M  V30 10425 H 1030.9 -1.41129 2.80945 0
M  V30 10426 N 1034.67 -1.14067 1.0875 0
M  V30 10427 C 1035.62 -2.19261 0.720633 0
M  V30 10428 C 1036.59 -1.63462 -0.294847 0
M  V30 10429 O 1037.77 -1.89967 -0.178058 0
M  V30 10430 C 1034.91 -3.44816 0.139873 0
M  V30 10431 C 1034.03 -4.1475 1.20856 0
M  V30 10432 C 1033.16 -5.27899 0.591285 0
M  V30 10433 C 1032.2 -5.89672 1.64176 0
M  V30 10434 N 1031.34 -6.94264 1.04603 0
M  V30 10435 H 1036.18 -2.49991 1.62198 0
M  V30 10436 H 1033.71 -1.22757 0.810497 0
M  V30 10437 H 1035.67 -4.16648 -0.214587 0
M  V30 10438 H 1034.3 -3.14558 -0.724774 0
M  V30 10439 H 1033.35 -3.41272 1.6804 0
M  V30 10440 H 1034.67 -4.56753 2.00446 0
M  V30 10441 H 1033.82 -6.06417 0.185271 0
M  V30 10442 H 1032.56 -4.87128 -0.236236 0
M  V30 10443 H 1031.56 -5.09854 2.05739 0
M  V30 10444 H 1032.79 -6.32517 2.47182 0
M  V30 10445 H 1030.73 -6.55562 0.239664 0
M  V30 10446 H 1030.65 -7.34771 1.77898 0
M  V30 10447 H 1031.92 -7.7665 0.665989 0
M  V30 10448 N 1036.15 -0.873678 -1.31166 0
M  V30 10449 C 1037.1 -0.330288 -2.28424 0
M  V30 10450 C 1038.07 0.573299 -1.55893 0
M  V30 10451 O 1039.25 0.504143 -1.84019 0
M  V30 10452 C 1036.39 0.459004 -3.42034 0
M  V30 10453 C 1035.5 -0.472519 -4.29408 0
M  V30 10454 C 1034.64 0.331261 -5.30166 0
M  V30 10455 C 1033.68 -0.596453 -6.09187 0
M  V30 10456 N 1032.81 0.171305 -7.01891 0
M  V30 10457 H 1037.65 -1.16485 -2.7429 0
M  V30 10458 H 1035.19 -0.585813 -1.34932 0
M  V30 10459 H 1037.15 0.932432 -4.06647 0
M  V30 10460 H 1035.78 1.25824 -2.97268 0
M  V30 10461 H 1034.83 -1.06441 -3.65205 0
M  V30 10462 H 1036.14 -1.18372 -4.84551 0
M  V30 10463 H 1035.3 0.867038 -6.00473 0
M  V30 10464 H 1034.04 1.07573 -4.75688 0
M  V30 10465 H 1033.04 -1.14395 -5.37767 0
M  V30 10466 H 1034.27 -1.33983 -6.65752 0
M  V30 10467 H 1032.21 0.89852 -6.49817 0
M  V30 10468 H 1032.13 -0.480481 -7.54472 0
M  V30 10469 H 1033.4 0.688192 -7.76456 0
M  V30 10470 N 1037.63 1.44308 -0.633487 0
M  V30 10471 C 1038.59 2.2912 0.060376 0
M  V30 10472 C 1039.59 1.41166 0.769992 0
M  V30 10473 O 1040.78 1.63012 0.614224 0
M  V30 10474 C 1037.91 3.22798 1.0961 0
M  V30 10475 H 1039.1 2.91958 -0.685617 0
M  V30 10476 H 1036.66 1.51259 -0.393738 0
M  V30 10477 H 1037.39 2.64815 1.87199 0
M  V30 10478 H 1037.18 3.87618 0.591161 0
M  V30 10479 H 1038.67 3.86504 1.58127 0
M  V30 10480 N 1039.1 0.374177 1.53094 0
M  V30 10481 C 1040.33 -0.215903 2.06273 0
M  V30 10482 C 1040.75 -1.40979 1.24526 0
M  V30 10483 O 1040.11 -1.79331 0.266462 0
M  V30 10484 C 1040.16 -0.579089 3.5592 0
M  V30 10485 O 1039.26 -1.67516 3.76845 0
M  V30 10486 H 1038.61 -0.0293981 0.663349 0
M  V30 10487 H 1041.14 0.537271 1.9742 0
M  V30 10488 H 1041.15 -0.847678 3.99097 0
M  V30 10489 H 1039.82 0.293843 4.14861 0
M  V30 10490 H 1038.4 -1.40146 3.45563 0
M  V30 10491 N 1040.58 -1.57259 0.103575 0
M  V30 10492 C 1041.83 -1.94945 -0.558953 0
M  V30 10493 C 1042.16 -0.986038 -1.67305 0
M  V30 10494 O 1041.44 -0.0205464 -1.94489 0
M  V30 10495 C 1041.72 -3.42689 -1.10617 0
M  V30 10496 C 1041.57 -4.498 0.00345246 0
M  V30 10497 C 1042.89 -3.91933 -2.00191 0
M  V30 10498 H 1040.01 -0.708859 -0.201713 0
M  V30 10499 H 1042.65 -1.89183 0.176006 0
M  V30 10500 H 1040.8 -3.4773 -1.73251 0
M  V30 10501 H 1042.47 -4.56866 0.638082 0
M  V30 10502 H 1040.72 -4.28615 0.668705 0
M  V30 10503 H 1041.39 -5.50397 -0.420396 0
M  V30 10504 H 1043.86 -3.89098 -1.4745 0
M  V30 10505 H 1042.74 -4.9586 -2.35402 0
M  V30 10506 H 1043 -3.31722 -2.92255 0
M  V30 10507 N 1042.06 0.170153 -1.56679 0
M  V30 10508 C 1042.99 1.23945 -1.91606 0
M  V30 10509 C 1043.97 1.42725 -0.779004 0
M  V30 10510 O 1045.16 1.57712 -1.03243 0
M  V30 10511 C 1042.28 2.60222 -2.168 0
M  V30 10512 C 1041.33 2.58172 -3.39484 0
M  V30 10513 S 1042.16 2.0714 -4.93815 0
M  V30 10514 C 1043.32 3.45192 -5.22105 0
M  V30 10515 H 1043.55 0.941345 -2.82004 0
M  V30 10516 H 1041.08 0.374771 -1.49783 0
M  V30 10517 H 1043.04 3.38656 -2.31996 0
M  V30 10518 H 1041.7 2.87232 -1.27107 0
M  V30 10519 H 1040.9 3.58435 -3.54317 0
M  V30 10520 H 1040.5 1.87834 -3.2341 0
M  V30 10521 H 1042.79 4.41194 -5.14154 0
M  V30 10522 H 1043.73 3.35233 -6.23718 0
M  V30 10523 H 1044.14 3.41257 -4.49671 0
M  V30 10524 N 1043.54 1.5137 0.438746 0
M  V30 10525 C 1044.77 1.67774 1.21077 0
M  V30 10526 C 1045.18 0.374489 1.85049 0
M  V30 10527 O 1044.54 -0.646867 1.70651 0
M  V30 10528 C 1044.59 2.79238 2.29584 0
M  V30 10529 O 1044.31 4.04513 1.68228 0
M  V30 10530 C 1045.81 3.06898 3.19888 0
M  V30 10531 H 1043.03 0.563054 0.364981 0
M  V30 10532 H 1045.58 1.97777 0.520035 0
M  V30 10533 H 1043.73 2.51837 2.94375 0
M  V30 10534 H 1044.14 4.66405 2.3993 0
M  V30 10535 H 1045.62 3.88476 3.92162 0
M  V30 10536 H 1046.1 2.19249 3.80561 0
M  V30 10537 H 1046.7 3.35952 2.60799 0
M  V30 10538 N 1045.02 -0.694098 1.41492 0
M  V30 10539 C 1046.43 -1.00487 1.23994 0
M  V30 10540 C 1046.63 -2.01078 0.130346 0
M  V30 10541 O 1045.69 -2.47403 -0.504775 0
M  V30 10542 C 1047 -1.52808 2.58979 0
M  V30 10543 C 1048.55 -1.64684 2.66173 0
M  V30 10544 C 1049.02 -2.20406 4.01479 0
M  V30 10545 N 1050.52 -2.27765 4.03333 0
M  V30 10546 C 1051.25 -2.7191 5.04829 0
M  V30 10547 N 1050.75 -3.1565 6.16714 0
M  V30 10548 N 1052.54 -2.71487 4.9219 0
M  V30 10549 H 1044.69 -0.027746 2.12382 0
M  V30 10550 H 1046.95 -0.0748741 0.945039 0
M  V30 10551 H 1046.66 -0.863519 3.40934 0
M  V30 10552 H 1046.53 -2.50998 2.81566 0
M  V30 10553 H 1048.92 -2.30251 1.84576 0
M  V30 10554 H 1049 -0.65035 2.47395 0
M  V30 10555 H 1048.65 -1.55454 4.83525 0
M  V30 10556 H 1048.58 -3.2081 4.17599 0
M  V30 10557 H 1051.07 -1.96899 3.22551 0
M  V30 10558 H 1051.38 -3.47966 6.90029 0
M  V30 10559 H 1049.72 -3.13555 6.20248 0
M  V30 10560 H 1052.92 -2.36666 4.03865 0
M  V30 10561 H 1053.09 -3.05573 5.71427 0
M  V30 10562 N 1046.49 -1.27344 -0.928501 0
M  V30 10563 C 1047.4 -1.11812 -2.06241 0
M  V30 10564 C 1048.42 -0.048347 -1.73933 0
M  V30 10565 O 1049.6 -0.25467 -1.99783 0
M  V30 10566 C 1046.66 -0.766036 -3.38131 0
M  V30 10567 C 1045.72 -1.91659 -3.84142 0
M  V30 10568 C 1044.96 -1.58121 -5.09738 0
M  V30 10569 O 1045.18 -0.488742 -5.68302 0
M  V30 10570 O 1044.11 -2.42013 -5.51102 0
M  V30 10571 H 1047.94 -2.06967 -2.22258 0
M  V30 10572 H 1045.52 -1.06524 -1.04752 0
M  V30 10573 H 1047.41 -0.582982 -4.17348 0
M  V30 10574 H 1046.08 0.155998 -3.23324 0
M  V30 10575 H 1044.99 -2.1547 -3.05816 0
M  V30 10576 H 1046.32 -2.8188 -4.0349 0
M  V30 10577 N 1047.97 1.13488 -1.09353 0
M  V30 10578 C 1049.22 1.841 -0.82401 0
M  V30 10579 C 1049.53 1.84393 0.652586 0
M  V30 10580 O 1050.74 2.5089 1.03762 0
M  V30 10581 C 1049.2 3.30523 -1.42418 0
M  V30 10582 C 1048.8 3.38621 -2.93326 0
M  V30 10583 C 1050.55 4.06182 -1.23356 0
M  V30 10584 C 1048.46 4.79311 -3.46432 0
M  V30 10585 H 1047.39 0.68974 -0.304589 0
M  V30 10586 H 1050.04 1.27866 -1.31615 0
M  V30 10587 H 1048.42 3.86555 -0.859727 0
M  V30 10588 H 1049.59 2.92587 -3.5599 0
M  V30 10589 H 1047.91 2.76426 -3.11412 0
M  V30 10590 H 1050.5 5.10047 -1.60488 0
M  V30 10591 H 1050.85 4.15936 -0.174152 0
M  V30 10592 H 1051.38 3.56477 -1.76547 0
M  V30 10593 H 1048.12 4.74748 -4.5199 0
M  V30 10594 H 1047.64 5.25842 -2.8853 0
M  V30 10595 H 1049.32 5.48227 -3.43593 0
M  V30 10596 N 1049.45 0.880621 1.30701 0
M  V30 10597 C 1050.41 0.349087 2.26526 0
M  V30 10598 C 1051.41 -0.505973 1.52632 0
M  V30 10599 O 1052.6 -0.313751 1.71351 0
M  V30 10600 C 1049.74 -0.503023 3.37168 0
M  V30 10601 H 1050.93 1.19516 2.75056 0
M  V30 10602 H 1048.48 0.657107 1.41816 0
M  V30 10603 H 1049.22 -1.36986 2.93948 0
M  V30 10604 H 1049 0.109389 3.91947 0
M  V30 10605 H 1050.49 -0.866845 4.08504 0
M  V30 10606 N 1050.93 -1.4397 0.641131 0
M  V30 10607 C 1052.21 -1.95436 0.0800918 0
M  V30 10608 C 1052.59 -1.58282 -1.39678 0
M  V30 10609 O 1051.93 -0.861867 -2.11623 0
M  V30 10610 C 1052.14 -3.47589 0.313531 0
M  V30 10611 C 1053.49 -4.2407 0.212034 0
M  V30 10612 O 1054.52 -3.55353 0.245434 0
M  V30 10613 O 1053.38 -5.46356 0.125455 0
M  V30 10614 H 1050.47 -0.826834 -0.0165735 0
M  V30 10615 H 1053.02 -1.5397 0.71353 0
M  V30 10616 H 1051.79 -3.67716 1.33793 0
M  V30 10617 H 1051.41 -3.96025 -0.353563 0
M  V30 10618 N 1052.41 -0.382291 -1.52893 0
M  V30 10619 C 1053.32 0.463745 -2.29971 0
M  V30 10620 C 1054.33 1.07777 -1.36602 0
M  V30 10621 O 1055.51 1.0851 -1.69669 0
M  V30 10622 C 1052.57 1.57938 -3.08637 0
M  V30 10623 C 1051.64 0.991182 -4.17701 0
M  V30 10624 C 1050.87 2.05365 -4.92606 0
M  V30 10625 O 1051.09 3.26757 -4.67532 0
M  V30 10626 O 1050.03 1.67487 -5.78128 0
M  V30 10627 H 1053.85 -0.163962 -3.03257 0
M  V30 10628 H 1051.44 -0.146199 -1.48683 0
M  V30 10629 H 1053.32 2.22765 -3.57706 0
M  V30 10630 H 1051.99 2.19218 -2.3817 0
M  V30 10631 H 1050.9 0.306364 -3.72843 0
M  V30 10632 H 1052.23 0.422699 -4.90382 0
M  V30 10633 N 1053.89 1.57202 -0.111913 0
M  V30 10634 C 1055.3 1.57713 0.244702 0
M  V30 10635 C 1055.5 1.12419 1.67225 0
M  V30 10636 O 1054.56 0.808329 2.39212 0
M  V30 10637 C 1055.87 3.00695 0.0178289 0
M  V30 10638 C 1057.42 3.12887 0.0842781 0
M  V30 10639 C 1057.89 4.57856 -0.114812 0
M  V30 10640 N 1059.38 4.6316 -0.0605423 0
M  V30 10641 C 1060.12 5.73086 -0.189594 0
M  V30 10642 N 1059.62 6.91787 -0.37442 0
M  V30 10643 N 1061.41 5.6195 -0.12967 0
M  V30 10644 H 1053.56 1.84947 -1.04443 0
M  V30 10645 H 1055.82 0.854418 -0.4107 0
M  V30 10646 H 1055.53 3.38093 -0.968802 0
M  V30 10647 H 1055.4 3.69611 0.752815 0
M  V30 10648 H 1057.79 2.7535 1.06143 0
M  V30 10649 H 1057.87 2.46528 -0.682474 0
M  V30 10650 H 1057.51 4.9609 -1.0889 0
M  V30 10651 H 1057.44 5.22297 0.671839 0
M  V30 10652 H 1059.94 3.77817 0.0790856 0
M  V30 10653 H 1060.25 7.71406 -0.463948 0
M  V30 10654 H 1058.59 6.93788 -0.410303 0
M  V30 10655 H 1061.78 4.68098 0.0137115 0
M  V30 10656 H 1061.96 6.47578 -0.233688 0
M  V30 10657 N 1055.36 -0.161842 1.56767 0
M  V30 10658 C 1056.29 -1.20226 2.0017 0
M  V30 10659 C 1057.27 -1.4564 0.878807 0
M  V30 10660 O 1058.46 -1.56813 1.14557 0
M  V30 10661 C 1055.59 -2.53897 2.36968 0
M  V30 10662 C 1054.54 -2.43033 3.52305 0
M  V30 10663 C 1053.87 -3.81281 3.74872 0
M  V30 10664 C 1055.17 -1.927 4.85453 0
M  V30 10665 H 1056.86 -0.84142 2.87333 0
M  V30 10666 H 1054.41 -0.403309 1.38237 0
M  V30 10667 H 1056.36 -3.26893 2.6593 0
M  V30 10668 H 1055.09 -2.91787 1.46724 0
M  V30 10669 H 1053.75 -1.7249 3.23485 0
M  V30 10670 H 1053.39 -4.1658 2.81904 0
M  V30 10671 H 1053.09 -3.74877 4.52483 0
M  V30 10672 H 1054.62 -4.55848 4.06245 0
M  V30 10673 H 1056.03 -2.55477 5.13229 0
M  V30 10674 H 1054.43 -1.97222 5.66766 0
M  V30 10675 H 1055.5 -0.881816 4.76814 0
M  V30 10676 N 1056.84 -1.516 -0.430713 0
M  V30 10677 C 1057.75 -1.76247 -1.54836 0
M  V30 10678 C 1058.77 -0.646985 -1.61524 0
M  V30 10679 O 1059.94 -0.929987 -1.78643 0
M  V30 10680 C 1057.01 -1.88833 -2.90763 0
M  V30 10681 C 1056.07 -3.12701 -2.94137 0
M  V30 10682 C 1055.3 -3.24676 -4.23581 0
M  V30 10683 O 1055.53 -2.42429 -5.16318 0
M  V30 10684 O 1054.46 -4.17697 -4.33374 0
M  V30 10685 H 1058.29 -2.71069 -1.3695 0
M  V30 10686 H 1055.87 -1.36182 -0.614396 0
M  V30 10687 H 1057.75 -1.99057 -3.71422 0
M  V30 10688 H 1056.43 -0.971987 -3.08762 0
M  V30 10689 H 1055.33 -3.0795 -2.1241 0
M  V30 10690 H 1056.67 -4.04045 -2.81084 0
M  V30 10691 N 1058.32 0.686584 -1.41858 0
M  V30 10692 C 1059.28 1.78214 -1.44126 0
M  V30 10693 C 1060.28 1.57366 -0.330541 0
M  V30 10694 O 1061.47 1.63874 -0.590837 0
M  V30 10695 C 1058.6 3.16704 -1.26142 0
M  V30 10696 H 1059.8 1.77594 -2.41661 0
M  V30 10697 H 1057.35 0.895085 -1.28132 0
M  V30 10698 H 1058.09 3.22957 -0.294823 0
M  V30 10699 H 1057.87 3.33238 -2.06627 0
M  V30 10700 H 1059.36 3.96658 -1.30584 0
M  V30 10701 N 1059.8 1.27835 0.921735 0
M  V30 10702 C 1061.02 1.17465 1.70929 0
M  V30 10703 C 1061.45 -0.264171 1.86236 0
M  V30 10704 O 1060.81 -1.19124 1.36671 0
M  V30 10705 C 1060.85 1.8697 3.08342 0
M  V30 10706 O 1059.96 1.17173 3.95404 0
M  V30 10707 H 1059.3 0.408206 0.523702 0
M  V30 10708 H 1061.83 1.69013 1.15307 0
M  V30 10709 H 1061.84 1.94564 3.58621 0
M  V30 10710 H 1060.51 2.91633 2.96518 0
M  V30 10711 H 1059.09 1.17688 3.53842 0
M  V30 10712 N 1061.28 -1.12907 1.09954 0
M  V30 10713 C 1062.52 -1.84579 0.840155 0
M  V30 10714 C 1062.85 -1.83605 -0.632692 0
M  V30 10715 O 1062.13 -1.27803 -1.46617 0
M  V30 10716 C 1062.41 -3.32489 1.38286 0
M  V30 10717 C 1062.27 -3.41946 2.92221 0
M  V30 10718 C 1063.58 -4.28091 1.0211 0
M  V30 10719 H 1060.7 -0.670169 0.306663 0
M  V30 10720 H 1063.35 -1.3249 1.36185 0
M  V30 10721 H 1061.5 -3.76978 0.939123 0
M  V30 10722 H 1063.17 -3.06128 3.45085 0
M  V30 10723 H 1061.41 -2.8265 3.29077 0
M  V30 10724 H 1062.08 -4.45983 3.25274 0
M  V30 10725 H 1064.56 -3.91701 1.4039 0
M  V30 10726 H 1063.43 -5.30005 1.42781 0
M  V30 10727 H 1063.69 -4.42044 -0.0700753 0
M  V30 10728 N 1062.75 -0.88754 -1.30232 0
M  V30 10729 C 1063.98 -0.521562 -2.00735 0
M  V30 10730 C 1064.4 0.883247 -1.66073 0
M  V30 10731 O 1063.76 1.58581 -0.878731 0
M  V30 10732 C 1063.81 -0.706521 -3.53611 0
M  V30 10733 O 1062.91 0.246447 -4.11663 0
M  V30 10734 H 1062.25 -0.205216 -0.631492 0
M  V30 10735 H 1064.78 -1.19579 -1.66018 0
M  V30 10736 H 1064.79 -0.606501 -4.03467 0
M  V30 10737 H 1063.47 -1.73076 -3.78177 0
M  V30 10738 H 1062.05 0.0999062 -3.72766 0
M  V30 10739 N 1064.23 1.43628 -0.648757 0
M  V30 10740 C 1065.51 1.95391 -0.0904551 0
M  V30 10741 C 1065.89 1.59021 1.38837 0
M  V30 10742 O 1065.24 0.873078 2.11163 0
M  V30 10743 C 1065.45 3.47418 -0.33196 0
M  V30 10744 C 1066.8 4.23952 -0.234521 0
M  V30 10745 O 1067.82 3.55218 -0.264276 0
M  V30 10746 O 1066.68 5.46282 -0.154428 0
M  V30 10747 H 1063.77 0.82691 0.0121884 0
M  V30 10748 H 1066.32 1.5359 -0.721685 0
M  V30 10749 H 1065.09 3.67001 -1.35741 0
M  V30 10750 H 1064.71 3.96207 0.332556 0
M  V30 10751 N 1065.71 0.390394 1.52688 0
M  V30 10752 C 1067.12 -0.083394 1.86514 0
M  V30 10753 C 1067.47 -1.46057 1.31003 0
M  V30 10754 O 1066.6 -2.06663 0.641809 0
M  V30 10755 C 1067.19 -0.158102 3.38431 0
M  V30 10756 C 1065.75 -0.576186 3.71964 0
M  V30 10757 C 1064.9 0.261156 2.76068 0
M  V30 10758 H 1067.85 0.608226 1.46582 0
M  V30 10759 H 1067.87 -0.977023 3.67742 0
M  V30 10760 H 1067.38 0.844365 3.78803 0
M  V30 10761 H 1065.48 -1.58598 3.37161 0
M  V30 10762 H 1065.6 -0.333577 4.77937 0
M  V30 10763 H 1063.96 -0.273737 2.53225 0
M  V30 10764 H 1064.74 1.26162 3.19277 0
M  V30 10765 N 1067.19 -1.57141 0.120249 0
M  V30 10766 C 1068.42 -1.99589 -0.545136 0
M  V30 10767 C 1068.83 -0.999951 -1.60145 0
M  V30 10768 O 1068.19 0.00698897 -1.82499 0
M  V30 10769 C 1068.24 -3.42038 -1.17014 0
M  V30 10770 O 1067.96 -4.37822 -0.156044 0
M  V30 10771 C 1069.46 -3.99625 -1.91872 0
M  V30 10772 H 1066.68 -0.655318 -0.144222 0
M  V30 10773 H 1069.23 -2.0345 0.206955 0
M  V30 10774 H 1067.38 -3.39113 -1.873 0
M  V30 10775 H 1067.79 -5.20937 -0.610317 0
M  V30 10776 H 1069.27 -5.01374 -2.30928 0
M  V30 10777 H 1069.75 -3.38836 -2.7944 0
M  V30 10778 H 1070.35 -4.061 -1.26345 0
M  V30 10779 N 1068.67 0.153526 -1.5685 0
M  V30 10780 C 1069.6 1.2147 -1.94365 0
M  V30 10781 C 1070.61 1.39532 -0.838726 0
M  V30 10782 O 1071.8 1.39219 -1.11715 0
M  V30 10783 C 1068.9 2.5806 -2.19677 0
M  V30 10784 C 1068.07 2.61062 -3.50949 0
M  V30 10785 C 1067.13 3.79144 -3.64878 0
M  V30 10786 O 1066.16 3.64319 -4.37333 0
M  V30 10787 N 1067.36 4.96333 -3.01054 0
M  V30 10788 H 1070.13 0.895889 -2.85996 0
M  V30 10789 H 1067.69 0.343147 -1.58222 0
M  V30 10790 H 1069.68 3.35553 -2.26243 0
M  V30 10791 H 1068.25 2.8226 -1.34343 0
M  V30 10792 H 1067.47 1.69533 -3.55882 0
M  V30 10793 H 1068.76 2.60094 -4.37297 0
M  V30 10794 H 1068.15 5.1128 -2.42093 0
M  V30 10795 H 1066.71 5.71625 -3.13191 0
M  V30 10796 N 1070.14 1.51827 0.422667 0
M  V30 10797 C 1071.11 1.7359 1.49663 0
M  V30 10798 C 1072.11 0.605811 1.48952 0
M  V30 10799 O 1073.3 0.87354 1.50715 0
M  V30 10800 C 1070.43 1.80585 2.8914 0
M  V30 10801 H 1071.62 2.69453 1.31664 0
M  V30 10802 H 1069.18 1.42038 0.652298 0
M  V30 10803 H 1069.91 0.865895 3.12526 0
M  V30 10804 H 1069.7 2.62729 2.9106 0
M  V30 10805 H 1071.19 1.99212 3.67021 0
M  V30 10806 N 1071.62 -0.679052 1.4222 0
M  V30 10807 C 1072.57 -1.81398 1.45594 0
M  V30 10808 C 1073.56 -1.66112 0.332127 0
M  V30 10809 O 1074.77 -1.72772 0.504942 0
M  V30 10810 H 1071.15 -0.598045 0.455902 0
M  V30 10811 H 1073.12 -1.7567 2.41211 0
M  V30 10812 C 1071.87 -3.19525 1.37109 0
M  V30 10813 H 1071.19 -3.31912 2.22878 0
M  V30 10814 H 1072.63 -3.98967 1.43531 0
M  V30 10815 C 1071.09 -3.36792 0.0853593 0
M  V30 10816 O 1071.62 -3.92309 -0.863532 0
M  V30 10817 N 1069.82 -2.906 0.00389229 0
M  V30 10818 H 1069.37 -2.45607 0.776846 0
M  V30 10819 H 1069.33 -3.0253 -0.855742 0
M  V30 10820 N 1073.1 -1.28322 -0.914942 0
M  V30 10821 C 1074.05 -1.12003 -2.03858 0
M  V30 10822 C 1075.04 -0.0396287 -1.69354 0
M  V30 10823 O 1076.25 -0.198309 -1.78904 0
M  V30 10824 H 1072.62 -0.34552 -0.667922 0
M  V30 10825 H 1074.59 -2.07168 -2.14765 0
M  V30 10826 C 1073.34 -0.797402 -3.38433 0
M  V30 10827 H 1072.67 -1.62071 -3.65476 0
M  V30 10828 H 1074.11 -0.723165 -4.17787 0
M  V30 10829 C 1072.57 0.498807 -3.33187 0
M  V30 10830 O 1073.1 1.52946 -3.71444 0
M  V30 10831 N 1071.3 0.499101 -2.86282 0
M  V30 10832 H 1070.85 -0.340056 -2.55346 0
M  V30 10833 H 1070.81 1.36641 -2.83155 0
M  V30 10834 N 1074.58 1.12322 -1.10551 0
M  V30 10835 C 1075.83 1.83495 -0.846998 0
M  V30 10836 C 1076.15 1.8457 0.629205 0
M  V30 10837 O 1075.42 1.30968 1.45686 0
M  V30 10838 H 1074 0.679479 -0.310351 0
M  V30 10839 H 1076.66 1.36004 -1.39602 0
M  V30 10840 H 1075.76 2.87651 -1.21092 0
M  V30 10841 N 1076.06 0.894434 1.2976 0
M  V30 10842 C 1077.28 0.532916 1.99919 0
M  V30 10843 C 1077.7 -0.881022 1.66983 0
M  V30 10844 O 1077.06 -1.58076 0.912035 0
M  V30 10845 C 1077.11 0.70936 3.54472 0
M  V30 10846 O 1076.83 2.06764 3.86239 0
M  V30 10847 C 1078.33 0.352089 4.419 0
M  V30 10848 H 1075.55 0.205019 0.638912 0
M  V30 10849 H 1078.09 1.20233 1.65421 0
M  V30 10850 H 1076.25 0.0871901 3.87302 0
M  V30 10851 H 1076.66 2.09315 4.80924 0
M  V30 10852 H 1078.14 0.526405 5.49484 0
M  V30 10853 H 1078.61 -0.710527 4.33415 0
M  V30 10854 H 1079.22 0.950979 4.14532 0
M  V30 10855 N 1077.53 -1.43282 0.656365 0
M  V30 10856 C 1078.78 -2.00996 0.168354 0
M  V30 10857 C 1079.1 -1.52408 -1.22601 0
M  V30 10858 O 1080.3 -2.02417 -1.80941 0
M  V30 10859 C 1078.76 -3.5903 0.250161 0
M  V30 10860 C 1078.37 -4.1661 1.64742 0
M  V30 10861 C 1080.11 -4.24118 -0.180084 0
M  V30 10862 C 1078.02 -5.66948 1.68299 0
M  V30 10863 H 1076.95 -0.751674 0.0591769 0
M  V30 10864 H 1079.6 -1.64216 0.818859 0
M  V30 10865 H 1077.98 -3.93226 -0.467908 0
M  V30 10866 H 1079.15 -3.93908 2.3911 0
M  V30 10867 H 1077.47 -3.63905 2.02391 0
M  V30 10868 H 1080.07 -5.34419 -0.173401 0
M  V30 10869 H 1080.41 -3.98264 -1.21208 0
M  V30 10870 H 1080.94 -3.94816 0.486343 0
M  V30 10871 H 1077.68 -5.97573 2.69419 0
M  V30 10872 H 1077.2 -5.91697 0.98261 0
M  V30 10873 H 1078.88 -6.31041 1.42813 0
M  V30 10874 N 1079.01 -0.398486 -1.52479 0
M  V30 10875 C 1079.98 0.420206 -2.25315 0
M  V30 10876 C 1080.98 0.982559 -1.27289 0
M  V30 10877 O 1082.17 0.863113 -1.51314 0
M  V30 10878 C 1079.3 1.59045 -3.01525 0
M  V30 10879 H 1080.49 -0.217599 -2.9911 0
M  V30 10880 H 1078.04 -0.150784 -1.55571 0
M  V30 10881 H 1078.78 2.26542 -2.32054 0
M  V30 10882 H 1078.56 1.19382 -3.73484 0
M  V30 10883 H 1080.05 2.16984 -3.56802 0
M  V30 10884 N 1080.49 1.57075 -0.12858 0
M  V30 10885 C 1081.74 1.94695 0.526952 0
M  V30 10886 C 1082.05 1.01482 1.67215 0
M  V30 10887 O 1083.26 1.28606 2.39108 0
M  V30 10888 C 1081.72 3.4605 0.988801 0
M  V30 10889 C 1081.32 4.47816 -0.128457 0
M  V30 10890 C 1083.07 3.92572 1.61517 0
M  V30 10891 C 1080.97 5.9036 0.350628 0
M  V30 10892 H 1079.9 0.726819 0.200623 0
M  V30 10893 H 1082.56 1.82295 -0.209972 0
M  V30 10894 H 1080.94 3.53718 1.78043 0
M  V30 10895 H 1082.11 4.51826 -0.904976 0
M  V30 10896 H 1080.43 4.11103 -0.662075 0
M  V30 10897 H 1083.02 4.96493 1.98491 0
M  V30 10898 H 1083.37 3.33085 2.49721 0
M  V30 10899 H 1083.9 3.87744 0.888768 0
M  V30 10900 H 1080.64 6.53624 -0.495592 0
M  V30 10901 H 1080.16 5.89749 1.09342 0
M  V30 10902 H 1081.84 6.41926 0.808717 0
M  V30 10903 N 1081.97 -0.145205 1.5693 0
M  V30 10904 C 1082.88 -1.19864 2.01667 0
M  V30 10905 C 1083.9 -1.46909 0.932402 0
M  V30 10906 O 1085.07 -1.58543 1.24201 0
M  V30 10907 C 1082.14 -2.51174 2.38982 0
M  V30 10908 C 1081.2 -2.3176 3.61366 0
M  V30 10909 C 1080.43 -3.56809 3.96892 0
M  V30 10910 O 1080.65 -4.63063 3.33059 0
M  V30 10911 O 1079.59 -3.49366 4.9013 0
M  V30 10912 H 1083.41 -0.848821 2.91597 0
M  V30 10913 H 1081 -0.354063 1.45144 0
M  V30 10914 H 1082.88 -3.28587 2.63835 0
M  V30 10915 H 1081.56 -2.85683 1.52207 0
M  V30 10916 H 1080.46 -1.52293 3.41698 0
M  V30 10917 H 1081.8 -2.02167 4.48764 0
M  V30 10918 N 1083.45 -1.52049 -0.414609 0
M  V30 10919 C 1084.38 -1.77956 -1.51175 0
M  V30 10920 C 1085.36 -0.630282 -1.57992 0
M  V30 10921 O 1086.54 -0.875324 -1.73354 0
M  V30 10922 C 1083.67 -1.92527 -2.89051 0
M  V30 10923 C 1082.63 -3.08096 -2.97087 0
M  V30 10924 C 1081.95 -3.07882 -4.37164 0
M  V30 10925 C 1083.25 -4.47656 -2.69075 0
M  V30 10926 H 1084.95 -2.69827 -1.29746 0
M  V30 10927 H 1082.49 -1.29839 -0.62273 0
M  V30 10928 H 1084.45 -2.09234 -3.65786 0
M  V30 10929 H 1083.17 -0.973235 -3.11762 0
M  V30 10930 H 1081.83 -2.91131 -2.22797 0
M  V30 10931 H 1081.48 -2.10411 -4.56877 0
M  V30 10932 H 1081.18 -3.85501 -4.43467 0
M  V30 10933 H 1082.7 -3.26712 -5.15841 0
M  V30 10934 H 1084.12 -4.64855 -3.35534 0
M  V30 10935 H 1082.51 -5.27151 -2.8676 0
M  V30 10936 H 1083.58 -4.56129 -1.64544 0
M  V30 10937 N 1084.93 0.6715 -1.42579 0
M  V30 10938 C 1085.89 1.76676 -1.46008 0
M  V30 10939 C 1086.89 1.57007 -0.347213 0
M  V30 10940 O 1088.08 1.63238 -0.608185 0
M  V30 10941 C 1085.21 3.15348 -1.29494 0
M  V30 10942 H 1086.4 1.75021 -2.43531 0
M  V30 10943 H 1083.96 0.881444 -1.29075 0
M  V30 10944 H 1084.69 3.22626 -0.32906 0
M  V30 10945 H 1084.48 3.31028 -2.10149 0
M  V30 10946 H 1085.97 3.95251 -1.34784 0
M  V30 10947 N 1086.4 1.28806 0.908124 0
M  V30 10948 C 1087.82 1.06634 1.18749 0
M  V30 10949 C 1088.02 -0.187729 2.00624 0
M  V30 10950 O 1087.08 -0.88784 2.36376 0
M  V30 10951 C 1088.39 2.31703 1.91661 0
M  V30 10952 C 1089.94 2.36939 2.04521 0
M  V30 10953 C 1090.41 3.61789 2.80843 0
M  V30 10954 N 1091.9 3.62462 2.88402 0
M  V30 10955 C 1092.64 4.55746 3.47971 0
M  V30 10956 N 1092.13 5.59353 4.08774 0
M  V30 10957 N 1093.93 4.43331 3.45564 0
M  V30 10958 H 1086.08 2.09299 0.36164 0
M  V30 10959 H 1088.34 0.921479 0.222668 0
M  V30 10960 H 1088.05 3.23096 1.38931 0
M  V30 10961 H 1087.92 2.38556 2.92183 0
M  V30 10962 H 1090.31 1.4604 2.5643 0
M  V30 10963 H 1090.39 2.34077 1.03159 0
M  V30 10964 H 1090.03 4.53035 2.29612 0
M  V30 10965 H 1089.96 3.61907 3.82532 0
M  V30 10966 H 1092.45 2.87544 2.45208 0
M  V30 10967 H 1092.77 6.26668 4.52224 0
M  V30 10968 H 1091.11 5.63173 4.07261 0
M  V30 10969 H 1094.3 3.61587 2.97276 0
M  V30 10970 H 1094.48 5.16216 3.91695 0
M  V30 10971 N 1087.88 -1.11734 1.11145 0
M  V30 10972 C 1089.11 -1.87755 0.881062 0
M  V30 10973 C 1089.53 -1.79461 -0.563496 0
M  V30 10974 O 1088.89 -1.15481 -1.39763 0
M  V30 10975 C 1088.94 -3.34641 1.34342 0
M  V30 10976 O 1088.04 -4.09195 0.513157 0
M  V30 10977 H 1087.38 -0.583111 0.317613 0
M  V30 10978 H 1089.91 -1.41256 1.48013 0
M  V30 10979 H 1089.92 -3.85486 1.33658 0
M  V30 10980 H 1088.6 -3.39994 2.39534 0
M  V30 10981 H 1087.17 -3.68269 0.585833 0
M  V30 10982 N 1089.36 -0.901303 -1.29284 0
M  V30 10983 C 1090.32 -0.385081 -2.25942 0
M  V30 10984 C 1091.32 0.481626 -1.53418 0
M  V30 10985 O 1092.51 0.286451 -1.71829 0
M  V30 10986 C 1089.64 0.449319 -3.37926 0
M  V30 10987 H 1090.84 -1.23877 -2.7312 0
M  V30 10988 H 1088.39 -0.679586 -1.40753 0
M  V30 10989 H 1089.13 1.32292 -2.9609 0
M  V30 10990 H 1088.91 -0.171731 -3.91724 0
M  V30 10991 H 1090.4 0.801746 -4.09831 0
M  V30 10992 N 1090.84 1.42931 -0.663954 0
M  V30 10993 C 1091.75 2.3459 0.0214234 0
M  V30 10994 C 1092.76 1.54487 0.800611 0
M  V30 10995 O 1093.94 1.87098 0.74541 0
M  V30 10996 C 1091 3.32896 0.968556 0
M  V30 10997 C 1090.07 4.28901 0.185108 0
M  V30 10998 C 1089.3 5.2251 1.08713 0
M  V30 10999 O 1089.52 5.20795 2.32655 0
M  V30 11000 O 1088.46 5.99347 0.553758 0
M  V30 11001 H 1092.28 2.94714 -0.733308 0
M  V30 11002 H 1089.87 1.43252 -0.424159 0
M  V30 11003 H 1091.75 3.93318 1.51257 0
M  V30 11004 H 1090.42 2.75261 1.70333 0
M  V30 11005 H 1089.33 3.71926 -0.402752 0
M  V30 11006 H 1090.66 4.89547 -0.510319 0
M  V30 11007 N 1092.32 0.406567 1.52266 0
M  V30 11008 C 1093.56 -0.169717 2.01386 0
M  V30 11009 C 1093.88 -1.45864 1.29417 0
M  V30 11010 O 1093.15 -1.9136 0.419327 0
M  V30 11011 H 1091.73 -0.0657075 0.744105 0
M  V30 11012 H 1094.4 0.542221 1.87206 0
M  V30 11013 H 1093.49 -0.367659 3.09927 0
M  V30 11014 N 1093.79 -1.57004 0.136909 0
M  V30 11015 C 1095.02 -1.99866 -0.523177 0
M  V30 11016 C 1095.43 -1.01584 -1.59616 0
M  V30 11017 O 1094.78 -0.00326426 -1.837 0
M  V30 11018 C 1094.84 -3.39157 -1.19217 0
M  V30 11019 C 1094.5 -4.56231 -0.265 0
M  V30 11020 C 1095.5 -5.17457 0.503412 0
M  V30 11021 C 1093.18 -5.02009 -0.170846 0
M  V30 11022 C 1095.18 -6.22863 1.35353 0
M  V30 11023 C 1092.86 -6.07273 0.682884 0
M  V30 11024 C 1093.86 -6.67568 1.44369 0
M  V30 11025 O 1093.55 -7.70795 2.28321 0
M  V30 11026 H 1093.28 -0.661005 -0.141593 0
M  V30 11027 H 1095.84 -2.04159 0.225445 0
M  V30 11028 H 1094.07 -3.31672 -1.98823 0
M  V30 11029 H 1095.76 -3.66191 -1.75096 0
M  V30 11030 H 1096.52 -4.82994 0.440648 0
M  V30 11031 H 1092.4 -4.54813 -0.752744 0
M  V30 11032 H 1095.94 -6.69855 1.94783 0
M  V30 11033 H 1091.84 -6.41163 0.746978 0
M  V30 11034 H 1092.61 -7.87971 2.21458 0
M  V30 11035 N 1095.27 0.136881 -1.57004 0
M  V30 11036 C 1096.5 0.866405 -1.88436 0
M  V30 11037 C 1096.92 1.73483 -0.727006 0
M  V30 11038 O 1096.28 1.78398 0.323094 0
M  V30 11039 C 1096.33 1.69059 -3.18514 0
M  V30 11040 O 1095.43 2.79584 -3.03161 0
M  V30 11041 H 1094.77 0.240709 -0.618834 0
M  V30 11042 H 1097.3 0.124653 -2.0422 0
M  V30 11043 H 1097.31 2.08353 -3.50789 0
M  V30 11044 H 1095.99 1.05296 -4.0235 0
M  V30 11045 H 1094.57 2.43623 -2.82315 0
M  V30 11046 N 1096.75 1.52266 0.40654 0
M  V30 11047 C 1097.71 1.75168 1.47814 0
M  V30 11048 C 1098.71 0.621575 1.48301 0
M  V30 11049 O 1099.9 0.889476 1.4978 0
M  V30 11050 C 1097.04 1.83642 2.87208 0
M  V30 11051 H 1098.23 2.70834 1.28798 0
M  V30 11052 H 1095.78 1.42722 0.637196 0
M  V30 11053 H 1096.52 0.898994 3.1159 0
M  V30 11054 H 1096.3 2.65801 2.88257 0
M  V30 11055 H 1097.79 2.03093 3.64888 0
M  V30 11056 N 1098.23 -0.663929 1.42933 0
M  V30 11057 C 1099.51 -1.42054 1.34462 0
M  V30 11058 C 1099.89 -2.11096 -0.0127801 0
M  V30 11059 O 1099.23 -2.04027 -1.02884 0
M  V30 11060 C 1099.44 -2.41406 2.5204 0
M  V30 11061 C 1100.79 -3.05726 2.94647 0
M  V30 11062 O 1101.82 -2.51733 2.52009 0
M  V30 11063 O 1100.67 -4.03593 3.68477 0
M  V30 11064 H 1097.77 -0.634149 0.530834 0
M  V30 11065 H 1100.31 -0.691738 1.54962 0
M  V30 11066 H 1099.09 -1.89263 3.42484 0
M  V30 11067 H 1098.71 -3.21752 2.33584 0
M  V30 11068 N 1099.71 -1.29285 -0.901281 0
M  V30 11069 C 1101.12 -1.15499 -1.46686 0
M  V30 11070 C 1101.47 0.250446 -1.94595 0
M  V30 11071 O 1100.59 1.14581 -1.83576 0
M  V30 11072 C 1101.19 -2.0906 -2.66607 0
M  V30 11073 C 1099.75 -1.99301 -3.19306 0
M  V30 11074 C 1098.89 -2.00079 -1.91999 0
M  V30 11075 H 1101.85 -1.41793 -0.712773 0
M  V30 11076 H 1101.87 -1.6619 -3.42288 0
M  V30 11077 H 1101.38 -3.11341 -2.31707 0
M  V30 11078 H 1099.48 -1.00103 -3.58901 0
M  V30 11079 H 1099.59 -2.86885 -3.8371 0
M  V30 11080 H 1097.96 -1.44655 -2.09636 0
M  V30 11081 H 1098.74 -3.04061 -1.59379 0
M  V30 11082 N 1101.18 1.11143 -1.11736 0
M  V30 11083 C 1102.43 1.82586 -0.866412 0
M  V30 11084 C 1102.75 1.85227 0.609593 0
M  V30 11085 O 1102.02 1.32505 1.44288 0
M  V30 11086 H 1100.6 0.676149 -0.31754 0
M  V30 11087 H 1103.27 1.34516 -1.41037 0
M  V30 11088 H 1102.36 2.8635 -1.24136 0
M  V30 11089 N 1102.66 0.908147 1.28804 0
M  V30 11090 C 1103.91 0.534332 1.94494 0
M  V30 11091 C 1104.22 -0.92552 1.72318 0
M  V30 11092 O 1105.43 -1.40724 2.32183 0
M  V30 11093 C 1103.89 0.904748 3.48342 0
M  V30 11094 C 1103.49 2.38394 3.79305 0
M  V30 11095 C 1105.24 0.601249 4.2022 0
M  V30 11096 C 1103.15 2.69478 5.26437 0
M  V30 11097 H 1102.08 0.196107 0.728051 0
M  V30 11098 H 1104.73 1.1063 1.46401 0
M  V30 11099 H 1103.11 0.261624 3.95135 0
M  V30 11100 H 1104.28 3.07333 3.43341 0
M  V30 11101 H 1102.6 2.65733 3.20586 0
M  V30 11102 H 1105.19 0.810225 5.28526 0
M  V30 11103 H 1105.54 -0.460669 4.13743 0
M  V30 11104 H 1106.07 1.20259 3.79187 0
M  V30 11105 H 1102.81 3.74501 5.37986 0
M  V30 11106 H 1102.33 2.05171 5.63618 0
M  V30 11107 H 1104.01 2.56187 5.94119 0
M  V30 11108 N 1104.14 -1.42577 0.671525 0
M  V30 11109 C 1105.37 -2.05924 0.200731 0
M  V30 11110 C 1105.78 -1.50434 -1.14083 0
M  V30 11111 O 1105.14 -0.642845 -1.70803 0
M  V30 11112 C 1105.19 -3.61289 0.123505 0
M  V30 11113 O 1104.91 -4.1472 1.41205 0
M  V30 11114 C 1106.41 -4.41743 -0.371178 0
M  V30 11115 H 1103.63 -0.663746 0.0983958 0
M  V30 11116 H 1106.18 -1.82771 0.917338 0
M  V30 11117 H 1104.33 -3.83565 -0.543769 0
M  V30 11118 H 1104.75 -5.0856 1.28325 0
M  V30 11119 H 1106.22 -5.50731 -0.374128 0
M  V30 11120 H 1106.7 -4.16092 -1.40585 0
M  V30 11121 H 1107.3 -4.24478 0.264244 0
M  V30 11122 N 1105.62 -0.414636 -1.52048 0
M  V30 11123 C 1106.86 0.159585 -2.02171 0
M  V30 11124 C 1107.2 1.44321 -1.29943 0
M  V30 11125 O 1106.47 1.90185 -0.407402 0
M  V30 11126 C 1106.76 0.401655 -3.57853 0
M  V30 11127 C 1106.61 -0.899026 -4.40724 0
M  V30 11128 C 1107.93 1.1814 -4.23947 0
M  V30 11129 H 1105.05 0.0565257 -0.734829 0
M  V30 11130 H 1107.69 -0.549183 -1.8189 0
M  V30 11131 H 1105.84 1.00541 -3.75265 0
M  V30 11132 H 1107.51 -1.53502 -4.35011 0
M  V30 11133 H 1105.75 -1.50877 -4.06717 0
M  V30 11134 H 1106.42 -0.683974 -5.47746 0
M  V30 11135 H 1108.9 0.670203 -4.10667 0
M  V30 11136 H 1107.78 1.31953 -5.32804 0
M  V30 11137 H 1108.04 2.2035 -3.83273 0
M  V30 11138 N 1107.1 1.56929 -0.145233 0
M  V30 11139 C 1108.32 2.00431 0.513314 0
M  V30 11140 C 1108.74 1.0253 1.58534 0
M  V30 11141 O 1108.1 0.0220459 1.82487 0
M  V30 11142 C 1108.15 3.43856 1.11557 0
M  V30 11143 O 1107.87 4.38015 0.0863707 0
M  V30 11144 C 1109.37 4.02627 1.8549 0
M  V30 11145 H 1106.59 0.657529 0.133778 0
M  V30 11146 H 1109.13 2.03095 -0.239296 0
M  V30 11147 H 1107.29 3.4205 1.81881 0
M  V30 11148 H 1107.7 5.21842 0.527363 0
M  V30 11149 H 1109.18 5.04985 2.22923 0
M  V30 11150 H 1109.65 3.43239 2.74014 0
M  V30 11151 H 1110.26 4.08058 1.19869 0
M  V30 11152 N 1108.58 -0.128553 1.57075 0
M  V30 11153 C 1109.51 -1.18362 1.96273 0
M  V30 11154 C 1110.52 -1.3818 0.860818 0
M  V30 11155 O 1111.71 -1.37424 1.13916 0
M  V30 11156 C 1108.81 -2.54533 2.23755 0
M  V30 11157 C 1107.98 -2.55446 3.55058 0
M  V30 11158 C 1107.04 -3.73291 3.70864 0
M  V30 11159 O 1106.07 -3.57315 4.43074 0
M  V30 11160 N 1107.27 -4.91481 3.08912 0
M  V30 11161 H 1110.03 -0.850276 2.87385 0
M  V30 11162 H 1107.6 -0.317931 1.58748 0
M  V30 11163 H 1109.59 -3.31912 2.31553 0
M  V30 11164 H 1108.16 -2.80087 1.38816 0
M  V30 11165 H 1107.38 -1.6385 3.58534 0
M  V30 11166 H 1108.67 -2.53104 4.4138 0
M  V30 11167 H 1108.06 -5.07364 2.50196 0
M  V30 11168 H 1106.62 -5.6657 3.22245 0
M  V30 11169 N 1110.05 -1.5248 -0.398459 0
M  V30 11170 C 1110.98 -1.79549 -1.49279 0
M  V30 11171 C 1111.96 -0.647004 -1.57315 0
M  V30 11172 O 1113.15 -0.893661 -1.72416 0
M  V30 11173 C 1110.28 -1.95582 -2.86993 0
M  V30 11174 C 1109.23 -3.1123 -2.93803 0
M  V30 11175 C 1108.56 -3.12501 -4.33874 0
M  V30 11176 C 1109.86 -4.50485 -2.64312 0
M  V30 11177 H 1111.55 -2.71187 -1.26877 0
M  V30 11178 H 1109.1 -1.30492 -0.608924 0
M  V30 11179 H 1111.05 -2.13102 -3.63546 0
M  V30 11180 H 1109.78 -1.00625 -3.10712 0
M  V30 11181 H 1108.44 -2.93477 -2.19697 0
M  V30 11182 H 1108.08 -2.15245 -4.54619 0
M  V30 11183 H 1107.78 -3.90183 -4.39353 0
M  V30 11184 H 1109.31 -3.32164 -5.12347 0
M  V30 11185 H 1110.72 -4.68387 -3.30585 0
M  V30 11186 H 1109.12 -5.30163 -2.81153 0
M  V30 11187 H 1110.19 -4.57848 -1.59696 0
M  V30 11188 N 1111.53 0.65634 -1.43283 0
M  V30 11189 C 1112.49 1.75117 -1.47874 0
M  V30 11190 C 1113.49 1.56629 -0.363846 0
M  V30 11191 O 1114.68 1.62584 -0.625464 0
M  V30 11192 C 1111.82 3.13957 -1.32831 0
M  V30 11193 H 1113.01 1.72429 -2.45374 0
M  V30 11194 H 1110.56 0.867704 -1.30002 0
M  V30 11195 H 1111.3 3.22259 -0.36326 0
M  V30 11196 H 1111.08 3.28781 -2.13649 0
M  V30 11197 H 1112.57 3.93799 -1.38969 0
M  V30 11198 N 1113.01 1.29761 0.894412 0
M  V30 11199 C 1114.42 1.16275 1.46072 0
M  V30 11200 C 1114.77 -0.240123 1.94725 0
M  V30 11201 O 1113.9 -1.13606 1.84181 0
M  V30 11202 C 1114.49 2.10471 2.65494 0
M  V30 11203 C 1113.05 2.00992 3.18244 0
M  V30 11204 C 1112.2 2.01094 1.90936 0
M  V30 11205 H 1115.15 1.42169 0.705243 0
M  V30 11206 H 1115.17 1.68003 3.41402 0
M  V30 11207 H 1114.68 3.12566 2.30053 0
M  V30 11208 H 1112.78 1.02005 3.58365 0
M  V30 11209 H 1112.9 2.88916 3.82184 0
M  V30 11210 H 1111.26 1.45764 2.08866 0
M  V30 11211 H 1112.04 3.04902 1.57764 0
M  V30 11212 N 1114.49 -1.10549 1.12324 0
M  V30 11213 C 1115.72 -1.8627 0.900618 0
M  V30 11214 C 1116.13 -1.80609 -0.550069 0
M  V30 11215 O 1115.49 -1.19396 -1.38025 0
M  V30 11216 C 1115.54 -3.34716 1.36556 0
M  V30 11217 O 1115.26 -3.40279 2.75938 0
M  V30 11218 C 1116.76 -4.27315 1.17969 0
M  V30 11219 H 1113.98 -0.588741 0.321908 0
M  V30 11220 H 1116.52 -1.39759 1.49291 0
M  V30 11221 H 1114.68 -3.78697 0.81652 0
M  V30 11222 H 1115.09 -4.32781 2.96312 0
M  V30 11223 H 1116.57 -5.29677 1.55391 0
M  V30 11224 H 1117.04 -4.39036 0.120158 0
M  V30 11225 H 1117.65 -3.89137 1.71617 0
M  V30 11226 N 1115.97 -0.914965 -1.28321 0
M  V30 11227 C 1117.21 -0.544639 -1.94208 0
M  V30 11228 C 1117.53 0.916368 -1.72806 0
M  V30 11229 O 1118.73 1.39491 -2.32926 0
M  V30 11230 C 1117.19 -0.923209 -3.47858 0
M  V30 11231 C 1116.8 -2.40403 -3.78035 0
M  V30 11232 C 1118.54 -0.623526 -4.19896 0
M  V30 11233 C 1116.45 -2.72266 -5.25 0
M  V30 11234 H 1115.38 -0.199966 -0.727 0
M  V30 11235 H 1118.03 -1.11405 -1.45812 0
M  V30 11236 H 1116.41 -0.282576 -3.94991 0
M  V30 11237 H 1117.59 -3.09149 -3.41706 0
M  V30 11238 H 1115.9 -2.67429 -3.19172 0
M  V30 11239 H 1118.5 -0.838243 -5.28089 0
M  V30 11240 H 1118.84 0.438721 -4.13982 0
M  V30 11241 H 1119.37 -1.22268 -3.78544 0
M  V30 11242 H 1116.11 -3.77349 -5.35993 0
M  V30 11243 H 1115.63 -2.08157 -5.62522 0
M  V30 11244 H 1117.31 -2.59334 -5.92752 0
M  V30 11245 N 1117.44 1.42219 -0.679077 0
M  V30 11246 C 1118.39 2.308 -0.00340316 0
M  V30 11247 C 1119.36 1.462 0.788334 0
M  V30 11248 O 1120.55 1.75023 0.759716 0
M  V30 11249 C 1117.69 3.32084 0.938854 0
M  V30 11250 C 1116.8 4.31772 0.140485 0
M  V30 11251 C 1115.93 5.20128 1.07888 0
M  V30 11252 C 1114.97 6.11493 0.27245 0
M  V30 11253 N 1114.11 6.92388 1.16378 0
M  V30 11254 H 1118.95 2.88024 -0.764587 0
M  V30 11255 H 1116.49 1.41869 -0.38878 0
M  V30 11256 H 1118.44 3.89339 1.49903 0
M  V30 11257 H 1117.07 2.76448 1.66662 0
M  V30 11258 H 1116.13 3.76599 -0.536376 0
M  V30 11259 H 1117.44 4.96432 -0.485433 0
M  V30 11260 H 1116.59 5.82137 1.70884 0
M  V30 11261 H 1115.33 4.55655 1.73868 0
M  V30 11262 H 1114.34 5.48549 -0.370693 0
M  V30 11263 H 1115.56 6.78017 -0.383315 0
M  V30 11264 H 1113.51 6.30538 1.8099 0
M  V30 11265 H 1113.42 7.5367 0.593043 0
M  V30 11266 H 1114.69 7.58879 1.78107 0
M  V30 11267 N 1118.92 0.422693 1.51826 0
M  V30 11268 C 1120.17 -0.148641 2.01954 0
M  V30 11269 C 1120.5 -1.43982 1.30765 0
M  V30 11270 O 1119.75 -1.91428 0.406668 0
M  V30 11271 C 1120.05 -0.429516 3.5481 0
M  V30 11272 C 1119.72 0.774088 4.44206 0
M  V30 11273 C 1118.38 1.1042 4.6836 0
M  V30 11274 C 1120.73 1.5777 4.96747 0
M  V30 11275 C 1118.06 2.23887 5.42302 0
M  V30 11276 C 1120.41 2.70325 5.71933 0
M  V30 11277 C 1119.07 3.03807 5.94355 0
M  V30 11278 H 1118.34 -0.0543917 0.739001 0
M  V30 11279 H 1120.99 0.566892 1.82917 0
M  V30 11280 H 1119.3 -1.22678 3.72099 0
M  V30 11281 H 1120.99 -0.884761 3.91118 0
M  V30 11282 H 1117.58 0.506834 4.25593 0
M  V30 11283 H 1121.77 1.33589 4.77983 0
M  V30 11284 H 1117.02 2.50159 5.5788 0
M  V30 11285 H 1121.2 3.32974 6.11638 0
M  V30 11286 H 1118.82 3.91844 6.51431 0
M  V30 11287 N 1120.4 -1.5685 0.153553 0
M  V30 11288 C 1121.63 -2.00701 -0.502678 0
M  V30 11289 C 1122.04 -1.0337 -1.57988 0
M  V30 11290 O 1121.4 -0.0317233 -1.82472 0
M  V30 11291 C 1121.45 -3.44443 -1.09732 0
M  V30 11292 O 1121.17 -4.38054 -0.0631405 0
M  V30 11293 C 1122.67 -4.03605 -1.83352 0
M  V30 11294 H 1119.89 -0.658229 -0.130289 0
M  V30 11295 H 1122.44 -2.02965 0.250063 0
M  V30 11296 H 1120.59 -3.43009 -1.80065 0
M  V30 11297 H 1121.01 -5.22114 -0.499681 0
M  V30 11298 H 1122.48 -5.0616 -2.20241 0
M  V30 11299 H 1122.96 -3.44687 -2.7219 0
M  V30 11300 H 1123.56 -4.08688 -1.17703 0
M  V30 11301 N 1121.88 0.120221 -1.57141 0
M  V30 11302 C 1123.12 0.829449 -1.85062 0
M  V30 11303 C 1123.46 1.79585 -0.739116 0
M  V30 11304 O 1122.73 1.92819 0.255147 0
M  V30 11305 C 1123.01 1.58042 -3.23566 0
M  V30 11306 C 1122.87 0.633706 -4.45314 0
M  V30 11307 C 1124.19 2.53688 -3.59625 0
M  V30 11308 H 1121.31 0.300086 -0.67314 0
M  V30 11309 H 1123.95 0.0937393 -1.89769 0
M  V30 11310 H 1122.1 2.20758 -3.19684 0
M  V30 11311 H 1123.77 0.0154836 -4.61297 0
M  V30 11312 H 1122.01 -0.054846 -4.33765 0
M  V30 11313 H 1122.68 1.19577 -5.38893 0
M  V30 11314 H 1125.16 2.01078 -3.6429 0
M  V30 11315 H 1124.04 3.03265 -4.57516 0
M  V30 11316 H 1124.3 3.36296 -2.8698 0
M  V30 11317 N 1123.36 1.52689 0.390367 0
M  V30 11318 C 1124.3 1.78007 1.4972 0
M  V30 11319 C 1125.3 0.647948 1.56518 0
M  V30 11320 O 1126.5 0.830398 1.59701 0
M  V30 11321 H 1122.88 0.56322 0.498284 0
M  V30 11322 H 1124.85 2.70698 1.25559 0
M  V30 11323 C 1123.6 1.96469 2.86872 0
M  V30 11324 H 1122.92 2.83012 2.82391 0
M  V30 11325 H 1124.36 2.18174 3.6356 0
M  V30 11326 C 1122.82 0.736847 3.28743 0
M  V30 11327 O 1123.35 -0.0863743 4.01607 0
M  V30 11328 N 1121.56 0.56735 2.85008 0
M  V30 11329 H 1121.1 1.23838 2.2588 0
M  V30 11330 H 1121.06 -0.252831 3.13382 0
M  V30 11331 N 1124.83 -0.648732 1.43629 0
M  V30 11332 C 1126.08 -1.41066 1.45699 0
M  V30 11333 C 1126.41 -1.94024 0.082612 0
M  V30 11334 O 1125.69 -1.7257 -0.897207 0
M  V30 11335 C 1125.97 -2.58882 2.50304 0
M  V30 11336 C 1125.82 -2.11387 3.97033 0
M  V30 11337 C 1127.14 -3.61092 2.51597 0
M  V30 11338 H 1124.26 -0.511591 0.530512 0
M  V30 11339 H 1126.9 -0.735069 1.75205 0
M  V30 11340 H 1125.05 -3.16518 2.25274 0
M  V30 11341 H 1126.73 -1.58718 4.33136 0
M  V30 11342 H 1124.97 -1.4272 4.0965 0
M  V30 11343 H 1125.64 -2.96129 4.65845 0
M  V30 11344 H 1128.12 -3.13223 2.73917 0
M  V30 11345 H 1126.99 -4.41071 3.26722 0
M  V30 11346 H 1127.25 -4.13985 1.55141 0
M  V30 11347 N 1126.31 -1.30234 -0.887518 0
M  V30 11348 C 1127.26 -1.16302 -2.01436 0
M  V30 11349 C 1128.25 -0.0755422 -1.69231 0
M  V30 11350 O 1129.46 -0.236213 -1.78443 0
M  V30 11351 H 1125.84 -0.35961 -0.660443 0
M  V30 11352 H 1127.81 -2.11677 -2.10322 0
M  V30 11353 C 1126.56 -0.869009 -3.36665 0
M  V30 11354 H 1125.88 -1.69787 -3.61956 0
M  V30 11355 H 1127.32 -0.811621 -4.16159 0
M  V30 11356 C 1125.78 0.428021 -3.3417 0
M  V30 11357 O 1126.31 1.45033 -3.74604 0
M  V30 11358 N 1124.51 0.438264 -2.87276 0
M  V30 11359 H 1124.06 -0.394142 -2.54567 0
M  V30 11360 H 1124.02 1.30604 -2.85989 0
M  V30 11361 N 1127.79 1.09952 -1.12909 0
M  V30 11362 C 1129.04 1.81657 -0.885729 0
M  V30 11363 C 1129.36 1.85863 0.589913 0
M  V30 11364 O 1128.63 1.34028 1.42875 0
M  V30 11365 H 1127.21 0.672743 -0.324694 0
M  V30 11366 H 1129.87 1.33013 -1.42456 0
M  V30 11367 H 1128.97 2.85018 -1.27167 0
M  V30 11368 N 1129.27 0.921757 1.27833 0
M  V30 11369 C 1130.23 0.420978 2.25301 0
M  V30 11370 C 1131.23 -0.457158 1.54165 0
M  V30 11371 O 1132.42 -0.259079 1.72263 0
M  V30 11372 C 1129.55 -0.395501 3.38598 0
M  V30 11373 H 1130.75 1.28206 2.71115 0
M  V30 11374 H 1128.3 0.701893 1.39654 0
M  V30 11375 H 1129.03 -1.27565 2.98157 0
M  V30 11376 H 1128.82 0.234029 3.91401 0
M  V30 11377 H 1130.31 -0.736444 4.11055 0
M  V30 11378 N 1130.75 -1.41857 0.686609 0
M  V30 11379 C 1131.69 -2.30795 0.015643 0
M  V30 11380 C 1132.66 -1.46616 -0.780569 0
M  V30 11381 O 1133.85 -1.75423 -0.750424 0
M  V30 11382 C 1130.99 -3.32577 -0.921229 0
M  V30 11383 C 1130.1 -4.3184 -0.117585 0
M  V30 11384 C 1129.24 -5.20693 -1.05128 0
M  V30 11385 C 1128.28 -6.11629 -0.240018 0
M  V30 11386 N 1127.41 -6.92995 -1.12704 0
M  V30 11387 H 1132.25 -2.87615 0.77985 0
M  V30 11388 H 1129.79 -1.41661 0.396298 0
M  V30 11389 H 1131.75 -3.90129 -1.47836 0
M  V30 11390 H 1130.38 -2.77328 -1.65193 0
M  V30 11391 H 1129.43 -3.7631 0.55634 0
M  V30 11392 H 1130.74 -4.96168 0.511753 0
M  V30 11393 H 1129.9 -5.83035 -1.67795 0
M  V30 11394 H 1128.63 -4.5657 -1.71449 0
M  V30 11395 H 1127.64 -5.48345 0.399779 0
M  V30 11396 H 1128.86 -6.77805 0.419266 0
M  V30 11397 H 1126.81 -6.31489 -1.77644 0
M  V30 11398 H 1126.73 -7.53974 -0.553065 0
M  V30 11399 H 1128 -7.59813 -1.7408 0
M  V30 11400 N 1132.22 -0.430739 -1.51599 0
M  V30 11401 C 1133.47 0.137657 -2.01631 0
M  V30 11402 C 1133.79 1.43787 -1.31721 0
M  V30 11403 O 1133.06 1.90668 -0.449717 0
M  V30 11404 H 1131.64 0.0538611 -0.745056 0
M  V30 11405 H 1134.31 -0.571935 -1.86319 0
M  V30 11406 H 1133.4 0.318305 -3.10473 0
M  V30 11407 N 1133.7 1.56767 -0.161869 0
M  V30 11408 C 1134.65 2.17502 0.772102 0
M  V30 11409 C 1135.62 1.11223 1.23364 0
M  V30 11410 O 1136.8 1.39332 1.30351 0
M  V30 11411 C 1133.94 2.81248 1.99984 0
M  V30 11412 C 1133.06 4.01962 1.58274 0
M  V30 11413 C 1132.19 4.53662 2.76341 0
M  V30 11414 C 1131.23 5.66807 2.31076 0
M  V30 11415 N 1130.37 6.13059 3.42203 0
M  V30 11416 H 1135.21 2.96971 0.247382 0
M  V30 11417 H 1132.75 1.46685 0.110382 0
M  V30 11418 H 1134.7 3.16359 2.7198 0
M  V30 11419 H 1133.33 2.04398 2.49842 0
M  V30 11420 H 1132.39 3.72733 0.759874 0
M  V30 11421 H 1133.7 4.83891 1.2104 0
M  V30 11422 H 1132.85 4.90905 3.56507 0
M  V30 11423 H 1131.59 3.7077 3.16829 0
M  V30 11424 H 1130.6 5.29125 1.49354 0
M  V30 11425 H 1131.82 6.51494 1.91657 0
M  V30 11426 H 1129.77 5.33099 3.82285 0
M  V30 11427 H 1129.68 6.89953 3.09033 0
M  V30 11428 H 1130.95 6.54951 4.22682 0
M  V30 11429 N 1135.18 -0.111886 1.57202 0
M  V30 11430 C 1136.41 -0.836317 1.89791 0
M  V30 11431 C 1136.83 -1.72304 0.754513 0
M  V30 11432 O 1136.19 -1.78889 -0.294672 0
M  V30 11433 C 1136.24 -1.63971 3.21164 0
M  V30 11434 O 1135.34 -2.74726 3.0757 0
M  V30 11435 H 1134.68 -0.230833 0.622585 0
M  V30 11436 H 1137.21 -0.0921478 2.04392 0
M  V30 11437 H 1137.22 -2.02746 3.54059 0
M  V30 11438 H 1135.9 -0.98882 4.03974 0
M  V30 11439 H 1134.47 -2.39101 2.86156 0
M  V30 11440 N 1136.66 -1.52894 -0.382264 0
M  V30 11441 C 1137.91 -1.68266 -1.12663 0
M  V30 11442 C 1138.23 -0.425974 -1.89778 0
M  V30 11443 O 1137.49 0.59178 -1.86538 0
M  V30 11444 C 1137.79 -2.87309 -2.12576 0
M  V30 11445 C 1137.45 -4.24484 -1.52067 0
M  V30 11446 C 1136.12 -4.6179 -1.35292 0
M  V30 11447 C 1138.47 -5.09858 -1.08138 0
M  V30 11448 C 1135.8 -5.82123 -0.731449 0
M  V30 11449 C 1138.15 -6.30822 -0.473986 0
M  V30 11450 C 1136.81 -6.66854 -0.293585 0
M  V30 11451 H 1136.08 -0.615728 -0.412262 0
M  V30 11452 H 1138.73 -1.8705 -0.410425 0
M  V30 11453 H 1137.03 -2.62968 -2.90439 0
M  V30 11454 H 1138.73 -2.96397 -2.70092 0
M  V30 11455 H 1135.32 -3.951 -1.66114 0
M  V30 11456 H 1139.5 -4.816 -1.19898 0
M  V30 11457 H 1134.76 -6.08643 -0.579938 0
M  V30 11458 H 1138.93 -6.96287 -0.125324 0
M  V30 11459 H 1136.56 -7.59962 0.190054 0
M  V30 11460 N 1138.14 0.641106 -1.43971 0
M  V30 11461 C 1139.09 1.74699 -1.46507 0
M  V30 11462 C 1140.07 1.57437 -0.332037 0
M  V30 11463 O 1141.26 1.67343 -0.576663 0
M  V30 11464 C 1138.39 3.13344 -1.40252 0
M  V30 11465 C 1137.48 3.3611 -2.58632 0
M  V30 11466 N 1137.87 3.29291 -3.83929 0
M  V30 11467 C 1136.17 3.66873 -2.53615 0
M  V30 11468 C 1136.87 3.52472 -4.62751 0
M  V30 11469 N 1135.84 3.74868 -3.93668 0
M  V30 11470 H 1139.65 1.67869 -2.41241 0
M  V30 11471 H 1137.16 0.843217 -1.38793 0
M  V30 11472 H 1139.16 3.92636 -1.40153 0
M  V30 11473 H 1137.82 3.21346 -0.46549 0
M  V30 11474 H 1138.83 3.08431 -4.16041 0
M  V30 11475 H 1135.51 3.81917 -1.68659 0
M  V30 11476 H 1136.9 3.52876 -5.71776 0
M  V30 11477 N 1139.62 1.30703 0.880598 0
M  V30 11478 C 1140.58 1.17429 1.96832 0
M  V30 11479 C 1141.58 0.104305 1.60461 0
M  V30 11480 O 1142.77 0.352758 1.70591 0
M  V30 11481 C 1139.9 0.800099 3.31378 0
M  V30 11482 H 1141.09 2.14069 2.10034 0
M  V30 11483 H 1138.65 1.14162 1.06755 0
M  V30 11484 H 1139.38 -0.165606 3.23877 0
M  V30 11485 H 1139.17 1.57341 3.59146 0
M  V30 11486 H 1140.66 0.730826 4.11155 0
M  V30 11487 N 1141.09 -1.09351 1.1349 0
M  V30 11488 C 1142.32 -1.85844 0.92069 0
M  V30 11489 C 1142.74 -1.80616 -0.525303 0
M  V30 11490 O 1142.1 -1.1842 -1.37282 0
M  V30 11491 C 1142.15 -3.31716 1.4141 0
M  V30 11492 O 1141.25 -4.08014 0.599838 0
M  V30 11493 H 1140.59 -0.576242 0.32991 0
M  V30 11494 H 1143.12 -1.38084 1.50976 0
M  V30 11495 H 1143.13 -3.82564 1.41805 0
M  V30 11496 H 1141.81 -3.34837 2.46692 0
M  V30 11497 H 1140.39 -3.66944 0.663816 0
M  V30 11498 N 1142.57 -0.928524 -1.27343 0
M  V30 11499 C 1143.82 -0.569392 -1.9433 0
M  V30 11500 C 1144.15 0.889481 -1.7297 0
M  V30 11501 O 1143.4 1.6499 -1.05247 0
M  V30 11502 C 1143.7 -0.84269 -3.47323 0
M  V30 11503 C 1143.37 -2.28344 -3.88806 0
M  V30 11504 C 1142.03 -2.67731 -3.99842 0
M  V30 11505 C 1144.38 -3.22031 -4.09811 0
M  V30 11506 C 1141.71 -3.99928 -4.29272 0
M  V30 11507 C 1144.06 -4.5381 -4.40725 0
M  V30 11508 C 1142.72 -4.93031 -4.49975 0
M  V30 11509 H 1141.99 -0.208355 -0.711104 0
M  V30 11510 H 1144.64 -1.17264 -1.51398 0
M  V30 11511 H 1142.95 -0.156775 -3.91486 0
M  V30 11512 H 1144.64 -0.543779 -3.97296 0
M  V30 11513 H 1141.23 -1.96787 -3.80753 0
M  V30 11514 H 1145.42 -2.92803 -4.00724 0
M  V30 11515 H 1140.67 -4.29996 -4.34642 0
M  V30 11516 H 1144.85 -5.26407 -4.55926 0
M  V30 11517 H 1142.47 -5.95497 -4.72533 0
M  V30 11518 N 1144.05 1.41491 -0.694123 0
M  V30 11519 C 1144.98 2.29197 0.0112742 0
M  V30 11520 C 1145.99 1.44708 0.745877 0
M  V30 11521 O 1147.18 1.68227 0.596821 0
M  V30 11522 C 1144.28 3.22547 1.04004 0
M  V30 11523 C 1143.46 4.35787 0.375347 0
M  V30 11524 C 1142.52 5.09722 1.30652 0
M  V30 11525 O 1141.54 5.63558 0.799459 0
M  V30 11526 N 1142.74 5.1705 2.63893 0
M  V30 11527 H 1145.51 2.90377 -0.741705 0
M  V30 11528 H 1143.07 1.52628 -0.540039 0
M  V30 11529 H 1145.06 3.68878 1.66468 0
M  V30 11530 H 1143.63 2.62685 1.69456 0
M  V30 11531 H 1142.85 3.91857 -0.429145 0
M  V30 11532 H 1144.14 5.08726 -0.0869041 0
M  V30 11533 H 1143.54 4.74756 3.07609 0
M  V30 11534 H 1142.09 5.66962 3.21555 0
M  V30 11535 N 1145.53 0.438773 1.51369 0
M  V30 11536 C 1146.46 -0.362467 2.3067 0
M  V30 11537 C 1147.44 -1.01973 1.36145 0
M  V30 11538 O 1148.62 -1.0231 1.65065 0
M  V30 11539 C 1145.75 -1.46313 3.14976 0
M  V30 11540 C 1144.71 -0.929272 4.1779 0
M  V30 11541 C 1144.03 -2.12579 4.90627 0
M  V30 11542 C 1145.33 0.0372782 5.22287 0
M  V30 11543 H 1147.03 0.29931 2.979 0
M  V30 11544 H 1144.57 0.14539 1.43264 0
M  V30 11545 H 1146.53 -2.03088 3.69233 0
M  V30 11546 H 1145.25 -2.15321 2.45569 0
M  V30 11547 H 1143.91 -0.383722 3.64586 0
M  V30 11548 H 1143.56 -2.8021 4.17722 0
M  V30 11549 H 1143.26 -1.77496 5.60151 0
M  V30 11550 H 1144.78 -2.69905 5.47708 0
M  V30 11551 H 1146.2 -0.44022 5.71607 0
M  V30 11552 H 1144.59 0.300748 5.99346 0
M  V30 11553 H 1145.66 0.973503 4.75027 0
M  V30 11554 N 1147.01 -1.56678 0.170181 0
M  V30 11555 C 1148.25 -1.9646 -0.474125 0
M  V30 11556 C 1148.57 -1.05719 -1.63855 0
M  V30 11557 O 1147.84 -0.123316 -1.95511 0
M  V30 11558 H 1146.42 -0.725446 -0.178149 0
M  V30 11559 H 1149.09 -1.93276 0.251099 0
M  V30 11560 H 1148.18 -3.00726 -0.834894 0
M  V30 11561 N 1148.48 0.103547 -1.57259 0
M  V30 11562 C 1149.39 1.14475 -2.04774 0
M  V30 11563 C 1150.41 1.44385 -0.971025 0
M  V30 11564 O 1151.59 1.55195 -1.28361 0
M  V30 11565 C 1148.65 2.4475 -2.45558 0
M  V30 11566 C 1147.71 2.22098 -3.67384 0
M  V30 11567 C 1146.94 3.4616 -4.06213 0
M  V30 11568 O 1147.17 4.5407 -3.45219 0
M  V30 11569 O 1146.1 3.36248 -4.9922 0
M  V30 11570 H 1149.93 0.771211 -2.93745 0
M  V30 11571 H 1147.51 0.315456 -1.46032 0
M  V30 11572 H 1149.39 3.21476 -2.72454 0
M  V30 11573 H 1148.07 2.81547 -1.59728 0
M  V30 11574 H 1146.98 1.43179 -3.45616 0
M  V30 11575 H 1148.31 1.90197 -4.53967 0
M  V30 11576 N 1149.96 1.53094 0.37415 0
M  V30 11577 C 1151.24 1.59456 1.13283 0
M  V30 11578 C 1151.62 0.396821 2.07337 0
M  V30 11579 O 1150.97 -0.613659 2.20106 0
M  V30 11580 C 1151.18 2.94069 1.87948 0
M  V30 11581 C 1152.52 3.4834 2.42785 0
M  V30 11582 O 1153.55 2.96042 1.98085 0
M  V30 11583 O 1152.41 4.39747 3.24477 0
M  V30 11584 H 1149.5 0.643731 0.519171 0
M  V30 11585 H 1152.05 1.65434 0.378105 0
M  V30 11586 H 1150.82 3.72685 1.19255 0
M  V30 11587 H 1150.44 2.91544 2.70348 0
M  V30 11588 N 1151.44 -0.633461 1.44309 0
M  V30 11589 C 1152.67 -1.42033 1.50447 0
M  V30 11590 C 1153.08 -1.88362 0.128585 0
M  V30 11591 O 1152.44 -1.60695 -0.865071 0
M  V30 11592 C 1152.49 -2.6422 2.46719 0
M  V30 11593 O 1152.21 -2.19823 3.78958 0
M  V30 11594 C 1153.71 -3.57372 2.62298 0
M  V30 11595 H 1150.93 -0.435667 0.510329 0
M  V30 11596 H 1153.48 -0.774907 1.8925 0
M  V30 11597 H 1151.63 -3.24859 2.11058 0
M  V30 11598 H 1152.05 -2.99022 4.30913 0
M  V30 11599 H 1153.52 -4.39719 3.33693 0
M  V30 11600 H 1154 -4.06026 1.67449 0
M  V30 11601 H 1154.6 -3.02603 2.9885 0
M  V30 11602 N 1152.92 -1.31168 -0.873655 0
M  V30 11603 C 1154.14 -1.23728 -1.66452 0
M  V30 11604 C 1154.57 0.194869 -1.87088 0
M  V30 11605 O 1153.93 1.1397 -1.40998 0
M  V30 11606 C 1153.97 -1.98285 -3.0119 0
M  V30 11607 O 1153.08 -1.31767 -3.90783 0
M  V30 11608 H 1152.42 -0.427362 -0.508191 0
M  V30 11609 H 1154.95 -1.73176 -1.08955 0
M  V30 11610 H 1154.96 -2.0774 -3.51153 0
M  V30 11611 H 1153.63 -3.02437 -2.8549 0
M  V30 11612 H 1152.21 -1.3074 -3.4923 0
M  V30 11613 N 1154.4 1.08748 -1.14068 0
M  V30 11614 C 1155.64 1.80707 -0.904947 0
M  V30 11615 C 1155.97 1.86478 0.570167 0
M  V30 11616 O 1155.24 1.35536 1.41445 0
M  V30 11617 H 1153.82 0.669261 -0.331811 0
M  V30 11618 H 1156.48 1.31494 -1.43859 0
M  V30 11619 H 1155.57 2.83653 -1.30182 0
M  V30 11620 N 1155.87 0.935264 1.26849 0
M  V30 11621 C 1157.29 0.623198 1.75992 0
M  V30 11622 C 1157.64 -0.861647 1.76267 0
M  V30 11623 O 1156.76 -1.6743 1.37099 0
M  V30 11624 C 1157.36 1.12451 3.19594 0
M  V30 11625 C 1155.92 0.862974 3.66374 0
M  V30 11626 C 1155.06 1.27886 2.4605 0
M  V30 11627 H 1158.01 1.11422 1.13008 0
M  V30 11628 H 1158.03 0.475626 3.77516 0
M  V30 11629 H 1157.55 2.20522 3.19361 0
M  V30 11630 H 1155.65 -0.203606 3.72043 0
M  V30 11631 H 1155.76 1.48582 4.55478 0
M  V30 11632 H 1154.12 0.697335 2.44968 0
M  V30 11633 H 1154.91 2.36837 2.48522 0
M  V30 11634 N 1157.35 -1.41121 0.701616 0
M  V30 11635 C 1158.6 -2.01428 0.235495 0
M  V30 11636 C 1158.93 -1.55463 -1.16382 0
M  V30 11637 O 1158.21 -0.768477 -1.78675 0
M  V30 11638 C 1158.49 -3.58849 0.299919 0
M  V30 11639 C 1158.34 -4.14924 1.73661 0
M  V30 11640 C 1159.66 -4.38809 -0.336856 0
M  V30 11641 H 1156.78 -0.731842 0.0870456 0
M  V30 11642 H 1159.42 -1.67787 0.891479 0
M  V30 11643 H 1157.57 -3.87638 -0.258611 0
M  V30 11644 H 1159.24 -3.96987 2.34945 0
M  V30 11645 H 1157.49 -3.69738 2.26884 0
M  V30 11646 H 1158.16 -5.24085 1.73318 0
M  V30 11647 H 1160.63 -4.15868 0.138886 0
M  V30 11648 H 1159.51 -5.48278 -0.261264 0
M  V30 11649 H 1159.77 -4.18728 -1.41843 0
M  V30 11650 N 1158.83 -0.446794 -1.51134 0
M  V30 11651 C 1160.11 0.176892 -1.94798 0
M  V30 11652 C 1160.49 1.59229 -1.38598 0
M  V30 11653 O 1159.84 2.21097 -0.576905 0
M  V30 11654 C 1160.05 0.145 -3.48699 0
M  V30 11655 C 1161.39 0.345917 -4.23189 0
M  V30 11656 O 1162.42 0.222691 -3.55503 0
M  V30 11657 O 1161.28 0.592112 -5.43283 0
M  V30 11658 H 1158.37 0.12486 -0.81752 0
M  V30 11659 H 1160.92 -0.505453 -1.61998 0
M  V30 11660 H 1159.69 -0.844156 -3.82086 0
M  V30 11661 H 1159.31 0.869851 -3.87968 0
M  V30 11662 N 1160.31 1.56586 -0.178487 0
M  V30 11663 C 1161.72 1.83633 0.337009 0
M  V30 11664 C 1162.07 1.09857 1.6256 0
M  V30 11665 O 1161.2 0.353933 2.13486 0
M  V30 11666 C 1161.79 3.33112 0.618225 0
M  V30 11667 C 1160.35 3.60629 1.07814 0
M  V30 11668 C 1159.5 2.7705 0.117825 0
M  V30 11669 H 1162.45 1.53508 -0.402612 0
M  V30 11670 H 1162.47 3.5098 1.46947 0
M  V30 11671 H 1161.98 3.8678 -0.319808 0
M  V30 11672 H 1160.08 3.12378 2.03103 0
M  V30 11673 H 1160.19 4.68921 0.982339 0
M  V30 11674 H 1158.56 2.47125 0.616563 0
M  V30 11675 H 1159.34 3.33501 -0.814356 0
M  V30 11676 N 1161.79 -0.095206 1.57312 0
M  V30 11677 C 1163.03 -0.797142 1.85715 0
M  V30 11678 C 1163.36 -1.79275 0.767171 0
M  V30 11679 O 1162.63 -1.94808 -0.206584 0
M  V30 11680 H 1161.21 -0.297382 0.685254 0
M  V30 11681 H 1163.87 -0.0768617 1.94748 0
M  V30 11682 H 1162.96 -1.32779 2.82447 0
M  V30 11683 N 1163.26 -1.53291 -0.366026 0
M  V30 11684 C 1164.17 -1.82656 -1.47221 0
M  V30 11685 C 1165.19 -0.71491 -1.58635 0
M  V30 11686 O 1166.37 -1.00492 -1.74538 0
M  V30 11687 C 1163.43 -2.00995 -2.82492 0
M  V30 11688 C 1162.49 -3.24895 -2.8061 0
M  V30 11689 C 1161.73 -3.4235 -4.09429 0
M  V30 11690 O 1161.95 -2.6411 -5.05571 0
M  V30 11691 O 1160.88 -4.35702 -4.15268 0
M  V30 11692 H 1164.71 -2.76634 -1.2533 0
M  V30 11693 H 1162.29 -1.38665 -0.556084 0
M  V30 11694 H 1164.18 -2.14632 -3.62645 0
M  V30 11695 H 1162.85 -1.10207 -3.04362 0
M  V30 11696 H 1161.76 -3.16682 -1.99157 0
M  V30 11697 H 1163.09 -4.15604 -2.63694 0
M  V30 11698 N 1164.74 0.6258 -1.44643 0
M  V30 11699 C 1166.15 1.20751 -1.42394 0
M  V30 11700 C 1166.5 1.95685 -0.142047 0
M  V30 11701 O 1165.63 2.02715 0.757332 0
M  V30 11702 C 1166.22 2.1964 -2.57961 0
M  V30 11703 C 1164.78 2.73227 -2.5889 0
M  V30 11704 C 1163.93 1.48315 -2.34303 0
M  V30 11705 H 1166.88 0.416162 -1.53146 0
M  V30 11706 H 1166.9 3.02342 -2.31019 0
M  V30 11707 H 1166.41 1.65073 -3.51244 0
M  V30 11708 H 1164.52 3.31782 -1.69563 0
M  V30 11709 H 1164.63 3.18902 -3.57545 0
M  V30 11710 H 1162.99 1.76634 -1.83501 0
M  V30 11711 H 1163.78 0.956427 -3.29708 0
M  V30 11712 N 1166.22 1.31629 0.866686 0
M  V30 11713 C 1167.13 1.21524 2.00671 0
M  V30 11714 C 1168.15 0.131277 1.73504 0
M  V30 11715 O 1169.32 0.349699 1.98341 0
M  V30 11716 C 1166.39 0.926491 3.34091 0
M  V30 11717 C 1165.45 2.09769 3.7456 0
M  V30 11718 C 1164.68 1.82262 5.01614 0
M  V30 11719 O 1164.9 0.759329 5.65323 0
M  V30 11720 O 1163.84 2.68031 5.38928 0
M  V30 11721 H 1167.66 2.17335 2.1213 0
M  V30 11722 H 1165.25 1.11401 0.995499 0
M  V30 11723 H 1167.13 0.78144 4.14091 0
M  V30 11724 H 1165.81 -0.00155829 3.237 0
M  V30 11725 H 1164.71 2.29816 2.95187 0
M  V30 11726 H 1166.05 3.0081 3.89582 0
M  V30 11727 N 1167.7 -1.08142 1.14644 0
M  V30 11728 C 1168.63 -2.17139 0.858667 0
M  V30 11729 C 1169.61 -1.69064 -0.187452 0
M  V30 11730 O 1170.8 -1.94151 -0.0435458 0
M  V30 11731 C 1167.93 -3.45648 0.33834 0
M  V30 11732 C 1166.88 -4.07129 1.32021 0
M  V30 11733 C 1166.21 -5.30623 0.659075 0
M  V30 11734 C 1167.51 -4.48095 2.68343 0
M  V30 11735 H 1169.2 -2.41468 1.77012 0
M  V30 11736 H 1166.75 -1.16052 0.852523 0
M  V30 11737 H 1168.7 -4.21216 0.124611 0
M  V30 11738 H 1167.42 -3.2088 -0.608553 0
M  V30 11739 H 1166.08 -3.33596 1.52016 0
M  V30 11740 H 1165.73 -5.02142 -0.293711 0
M  V30 11741 H 1165.43 -5.72714 1.31427 0
M  V30 11742 H 1166.95 -6.08903 0.454933 0
M  V30 11743 H 1168.37 -5.14828 2.5224 0
M  V30 11744 H 1166.76 -5.01113 3.30161 0
M  V30 11745 H 1167.83 -3.59852 3.25015 0
M  V30 11746 N 1169.18 -0.941978 -1.26351 0
M  V30 11747 C 1170.59 -0.632522 -1.75659 0
M  V30 11748 C 1170.94 0.852287 -1.76722 0
M  V30 11749 O 1170.06 1.66701 -1.37985 0
M  V30 11750 C 1170.66 -1.14145 -3.18993 0
M  V30 11751 C 1169.22 -0.882391 -3.65911 0
M  V30 11752 C 1168.37 -1.29189 -2.45368 0
M  V30 11753 H 1171.32 -1.12019 -1.12416 0
M  V30 11754 H 1171.34 -0.495639 -3.77258 0
M  V30 11755 H 1170.85 -2.22213 -3.18187 0
M  V30 11756 H 1168.95 0.183873 -3.72146 0
M  V30 11757 H 1169.06 -1.50996 -4.54683 0
M  V30 11758 H 1167.43 -0.710316 -2.44595 0
M  V30 11759 H 1168.21 -2.38152 -2.47262 0
M  V30 11760 N 1170.66 1.40747 -0.709091 0
M  V30 11761 C 1171.88 2.05841 -0.253816 0
M  V30 11762 C 1172.31 1.53056 1.09341 0
M  V30 11763 O 1171.66 0.663181 1.68735 0
M  V30 11764 C 1171.71 3.59822 -0.236699 0
M  V30 11765 O 1170.82 4.04876 0.784168 0
M  V30 11766 H 1170.16 0.65295 -0.120631 0
M  V30 11767 H 1172.69 1.80266 -0.967749 0
M  V30 11768 H 1172.7 4.07936 -0.0721616 0
M  V30 11769 H 1171.37 3.97608 -1.21988 0
M  V30 11770 H 1169.95 3.68237 0.587884 0
M  V30 11771 N 1172.13 0.454803 1.50895 0
M  V30 11772 C 1173.38 -0.105927 2.02523 0
M  V30 11773 C 1173.71 -1.40825 1.33724 0
M  V30 11774 O 1172.99 -1.89038 0.457683 0
M  V30 11775 C 1173.27 -0.306635 3.58792 0
M  V30 11776 C 1173.12 1.01556 4.38185 0
M  V30 11777 C 1174.44 -1.06858 4.2693 0
M  V30 11778 H 1171.56 -0.0370232 0.736069 0
M  V30 11779 H 1174.2 0.597215 1.8037 0
M  V30 11780 H 1172.35 -0.905563 3.77799 0
M  V30 11781 H 1174.03 1.64981 4.30789 0
M  V30 11782 H 1172.27 1.61608 4.02574 0
M  V30 11783 H 1172.94 0.828959 5.4574 0
M  V30 11784 H 1175.42 -0.561086 4.123 0
M  V30 11785 H 1174.29 -1.1778 5.36115 0
M  V30 11786 H 1174.55 -2.10111 3.8898 0
M  V30 11787 N 1173.61 -1.56489 0.186789 0
M  V30 11788 C 1174.86 -1.96517 -0.45433 0
M  V30 11789 C 1175.17 -1.07618 -1.63333 0
M  V30 11790 O 1176.38 -1.37392 -2.3417 0
M  V30 11791 C 1174.84 -3.49482 -0.859685 0
M  V30 11792 C 1174.44 -4.47031 0.294572 0
M  V30 11793 C 1176.19 -3.98296 -1.46835 0
M  V30 11794 C 1174.09 -5.91254 -0.131279 0
M  V30 11795 H 1173.02 -0.733765 -0.17351 0
M  V30 11796 H 1175.68 -1.8139 0.277485 0
M  V30 11797 H 1174.06 -3.60082 -1.64793 0
M  V30 11798 H 1175.23 -4.48156 1.07205 0
M  V30 11799 H 1173.55 -4.08362 0.814197 0
M  V30 11800 H 1176.14 -5.03518 -1.79928 0
M  V30 11801 H 1176.49 -3.42123 -2.37186 0
M  V30 11802 H 1177.02 -3.90776 -0.744247 0
M  V30 11803 H 1173.76 -6.51334 0.737839 0
M  V30 11804 H 1173.28 -5.93401 -0.873786 0
M  V30 11805 H 1174.96 -6.44485 -0.569913 0
M  V30 11806 N 1175.09 0.086862 -1.5736 0
M  V30 11807 C 1176.34 0.790008 -1.8678 0
M  V30 11808 C 1176.67 1.77977 -0.777042 0
M  V30 11809 O 1175.94 1.93317 0.21419 0
M  V30 11810 C 1176.23 1.51143 -3.26845 0
M  V30 11811 C 1176.08 0.539106 -4.46558 0
M  V30 11812 C 1177.4 2.46003 -3.64926 0
M  V30 11813 H 1174.52 0.285741 -0.679354 0
M  V30 11814 H 1177.16 0.0534655 -1.89925 0
M  V30 11815 H 1175.31 2.13928 -3.24295 0
M  V30 11816 H 1176.98 -0.0823679 -4.61226 0
M  V30 11817 H 1175.22 -0.146842 -4.33551 0
M  V30 11818 H 1175.9 1.0812 -5.41308 0
M  V30 11819 H 1178.37 1.93306 -3.68473 0
M  V30 11820 H 1177.25 2.93493 -4.63846 0
M  V30 11821 H 1177.51 3.30133 -2.94049 0
M  V30 11822 N 1176.57 1.53483 0.357892 0
M  V30 11823 C 1177.84 1.60649 1.11585 0
M  V30 11824 C 1178.22 0.418789 2.06904 0
M  V30 11825 O 1177.57 -0.590279 2.20744 0
M  V30 11826 C 1177.78 2.96046 1.84818 0
M  V30 11827 C 1179.13 3.50895 2.39076 0
M  V30 11828 O 1180.15 2.98126 1.94934 0
M  V30 11829 O 1179.01 4.43163 3.19794 0
M  V30 11830 H 1176.11 0.649202 0.512315 0
M  V30 11831 H 1178.65 1.65826 0.360537 0
M  V30 11832 H 1177.43 3.73929 1.15296 0
M  V30 11833 H 1177.05 2.94395 2.6724 0
M  V30 11834 N 1178.05 -0.61812 1.44973 0
M  V30 11835 C 1178.99 -1.75059 1.53157 0
M  V30 11836 C 1179.99 -1.64554 0.402282 0
M  V30 11837 O 1181.19 -1.70475 0.577767 0
M  V30 11838 H 1177.57 -0.57817 0.480856 0
M  V30 11839 H 1179.54 -1.65281 2.48445 0
M  V30 11840 C 1178.29 -3.13423 1.50538 0
M  V30 11841 H 1177.61 -3.2216 2.36755 0
M  V30 11842 H 1179.05 -3.92521 1.60323 0
M  V30 11843 C 1177.51 -3.36127 0.228127 0
M  V30 11844 O 1178.04 -3.95618 -0.696364 0
M  V30 11845 N 1176.25 -2.90322 0.127142 0
M  V30 11846 H 1175.79 -2.42091 0.880317 0
M  V30 11847 H 1175.75 -3.05887 -0.726659 0
M  V30 11848 N 1179.52 -1.32087 -0.859693 0
M  V30 11849 C 1180.49 -1.20546 -1.94939 0
M  V30 11850 C 1181.49 -0.12982 -1.60275 0
M  V30 11851 O 1182.68 -0.379853 -1.70008 0
M  V30 11852 C 1179.81 -0.852717 -3.30063 0
M  V30 11853 H 1181 -2.17384 -2.06602 0
M  V30 11854 H 1178.55 -1.15846 -1.04926 0
M  V30 11855 H 1179.29 0.114059 -3.24099 0
M  V30 11856 H 1179.07 -1.63035 -3.56598 0
M  V30 11857 H 1180.56 -0.796145 -4.09941 0
M  V30 11858 N 1181 1.07532 -1.15215 0
M  V30 11859 C 1182.28 1.76813 -0.83646 0
M  V30 11860 C 1182.66 2.00242 0.6683 0
M  V30 11861 O 1182.01 1.61941 1.61206 0
M  V30 11862 C 1182.22 3.0779 -1.64519 0
M  V30 11863 C 1183.56 3.82168 -1.85022 0
M  V30 11864 O 1184.59 3.17596 -1.61279 0
M  V30 11865 O 1183.45 4.98135 -2.24775 0
M  V30 11866 H 1180.54 0.767736 -0.307426 0
M  V30 11867 H 1183.09 1.13914 -1.25784 0
M  V30 11868 H 1181.86 2.86342 -2.6669 0
M  V30 11869 H 1181.48 3.78419 -1.22002 0
M  V30 11870 N 1182.48 0.948665 1.2585 0
M  V30 11871 C 1183.71 0.616741 1.98018 0
M  V30 11872 C 1184.13 -0.803005 1.70098 0
M  V30 11873 O 1183.49 -1.54208 0.953392 0
M  V30 11874 C 1183.54 0.874429 3.49837 0
M  V30 11875 O 1182.64 -0.0497568 4.1237 0
M  V30 11876 H 1181.98 0.235112 0.620982 0
M  V30 11877 H 1184.51 1.27364 1.60124 0
M  V30 11878 H 1184.52 0.798309 4.00114 0
M  V30 11879 H 1183.2 1.90922 3.69488 0
M  V30 11880 H 1181.77 0.0780591 3.72818 0
M  V30 11881 N 1183.96 -1.40369 0.716545 0
M  V30 11882 C 1184.92 -2.29083 0.0733105 0
M  V30 11883 C 1185.92 -1.45415 -0.686378 0
M  V30 11884 O 1187.11 -1.66316 -0.518139 0
M  V30 11885 C 1184.24 -3.28639 -0.906032 0
M  V30 11886 H 1185.44 -2.87464 0.85467 0
M  V30 11887 H 1182.99 -1.48706 0.481256 0
M  V30 11888 H 1183.72 -2.75279 -1.71441 0
M  V30 11889 H 1183.51 -3.90405 -0.364163 0
M  V30 11890 H 1185 -3.95066 -1.35324 0
M  V30 11891 N 1185.44 -0.462799 -1.50652 0
M  V30 11892 C 1186.68 0.0948568 -2.01877 0
M  V30 11893 C 1187.01 1.4096 -1.34741 0
M  V30 11894 O 1186.28 1.89671 -0.49006 0
M  V30 11895 H 1184.86 0.0380453 -0.746031 0
M  V30 11896 H 1187.52 -0.611327 -1.85064 0
M  V30 11897 H 1186.61 0.252378 -3.11078 0
M  V30 11898 N 1186.91 1.56388 -0.195085 0
M  V30 11899 C 1188.16 1.97872 0.444344 0
M  V30 11900 C 1188.49 1.0819 1.61271 0
M  V30 11901 O 1187.77 0.133904 1.94039 0
M  V30 11902 C 1188.05 3.48556 0.90449 0
M  V30 11903 C 1187.9 4.49015 -0.265693 0
M  V30 11904 C 1189.22 4.02938 1.76999 0
M  V30 11905 H 1186.34 0.719413 0.160041 0
M  V30 11906 H 1188.98 1.87835 -0.286005 0
M  V30 11907 H 1187.13 3.5724 1.52682 0
M  V30 11908 H 1188.81 4.52368 -0.903363 0
M  V30 11909 H 1187.05 4.23987 -0.917462 0
M  V30 11910 H 1187.72 5.51912 0.0987834 0
M  V30 11911 H 1190.2 3.97033 1.24514 0
M  V30 11912 H 1189.07 5.08741 2.06092 0
M  V30 11913 H 1189.33 3.48197 2.72418 0
M  V30 11914 N 1188.39 -0.0785156 1.57404 0
M  V30 11915 C 1189.62 -0.792042 1.9114 0
M  V30 11916 C 1190.04 -1.71458 0.790408 0
M  V30 11917 O 1189.39 -1.80959 -0.236662 0
M  V30 11918 C 1189.44 -1.59138 3.24588 0
M  V30 11919 O 1189.16 -0.705931 4.32375 0
M  V30 11920 C 1190.67 -2.4065 3.72293 0
M  V30 11921 H 1187.89 -0.225566 0.63195 0
M  V30 11922 H 1190.43 -0.0507929 2.04437 0
M  V30 11923 H 1188.58 -2.28498 3.12838 0
M  V30 11924 H 1189 -1.26121 5.09111 0
M  V30 11925 H 1190.47 -2.92204 4.68317 0
M  V30 11926 H 1190.95 -3.1987 3.00965 0
M  V30 11927 H 1191.56 -1.7646 3.86965 0
M  V30 11928 N 1189.87 -1.5367 -0.349747 0
M  V30 11929 C 1191.29 -1.43796 -0.692457 0
M  V30 11930 C 1191.49 -0.58972 -1.92677 0
M  V30 11931 O 1190.54 -0.078294 -2.52379 0
M  V30 11932 C 1191.86 -2.872 -0.890881 0
M  V30 11933 C 1193.4 -2.96935 -0.989892 0
M  V30 11934 C 1193.88 -4.41433 -1.22068 0
M  V30 11935 N 1195.37 -4.44932 -1.28802 0
M  V30 11936 C 1196.1 -5.53864 -1.48398 0
M  V30 11937 N 1195.6 -6.72814 -1.65208 0
M  V30 11938 N 1197.39 -5.41467 -1.50896 0
M  V30 11939 H 1189.54 -2.07317 0.461895 0
M  V30 11940 H 1191.81 -0.936895 0.144681 0
M  V30 11941 H 1191.51 -3.51656 -0.0555095 0
M  V30 11942 H 1191.39 -3.31784 -1.79442 0
M  V30 11943 H 1193.77 -2.32622 -1.81579 0
M  V30 11944 H 1193.86 -2.55721 -0.0633906 0
M  V30 11945 H 1193.5 -5.06325 -0.399729 0
M  V30 11946 H 1193.43 -4.80233 -2.16064 0
M  V30 11947 H 1195.92 -3.59214 -1.17361 0
M  V30 11948 H 1196.23 -7.51598 -1.79779 0
M  V30 11949 H 1194.58 -6.7577 -1.62356 0
M  V30 11950 H 1197.77 -4.47498 -1.37342 0
M  V30 11951 H 1197.94 -6.26423 -1.65826 0
M  V30 11952 N 1191.35 0.610423 -1.45298 0
M  V30 11953 C 1192.58 1.39621 -1.52688 0
M  V30 11954 C 1192.99 1.88133 -0.158535 0
M  V30 11955 O 1192.35 1.62051 0.839396 0
M  V30 11956 C 1192.4 2.60261 -2.50891 0
M  V30 11957 O 1192.12 2.13766 -3.82408 0
M  V30 11958 C 1193.62 3.53154 -2.6795 0
M  V30 11959 H 1190.84 0.427493 -0.517195 0
M  V30 11960 H 1193.39 0.744701 -1.90459 0
M  V30 11961 H 1191.54 3.2146 -2.162 0
M  V30 11962 H 1191.95 2.92128 -4.35616 0
M  V30 11963 H 1193.43 4.34355 -3.40647 0
M  V30 11964 H 1193.91 4.03311 -1.73888 0
M  V30 11965 H 1194.51 2.9781 -3.03627 0
M  V30 11966 N 1192.83 1.32541 0.852676 0
M  V30 11967 C 1194.07 1.22971 1.60383 0
M  V30 11968 C 1194.4 -0.208009 1.93887 0
M  V30 11969 O 1193.67 -1.13326 1.59794 0
M  V30 11970 H 1192.25 0.452149 0.594618 0
M  V30 11971 H 1194.91 1.66089 1.01983 0
M  V30 11972 H 1194 1.81373 2.53989 0
M  V30 11973 N 1194.3 -1.0692 1.15784 0
M  V30 11974 C 1195.53 -1.8331 0.959422 0
M  V30 11975 C 1195.95 -1.82268 -0.492332 0
M  V30 11976 O 1195.3 -1.23727 -1.34156 0
M  V30 11977 C 1195.36 -3.30202 1.47135 0
M  V30 11978 O 1195.08 -3.31328 2.86624 0
M  V30 11979 C 1196.58 -4.23346 1.31504 0
M  V30 11980 H 1193.8 -0.578202 0.340475 0
M  V30 11981 H 1196.34 -1.34939 1.53661 0
M  V30 11982 H 1194.5 -3.75908 0.936587 0
M  V30 11983 H 1194.91 -4.23135 3.0993 0
M  V30 11984 H 1196.38 -5.24465 1.72163 0
M  V30 11985 H 1196.86 -4.38431 0.259773 0
M  V30 11986 H 1197.47 -3.8348 1.83911 0
M  V30 11987 N 1195.78 -0.955326 -1.25345 0
M  V30 11988 C 1197.03 -0.62095 -1.9369 0
M  V30 11989 C 1197.38 0.832995 -1.73433 0
M  V30 11990 O 1196.68 1.58991 -1.06922 0
M  V30 11991 C 1196.87 -0.916173 -3.45458 0
M  V30 11992 C 1196.7 -2.39726 -3.80475 0
M  V30 11993 C 1195.47 -3.05494 -4.02494 0
M  V30 11994 C 1197.67 -3.37664 -3.87927 0
M  V30 11995 N 1195.65 -4.43469 -4.2451 0
M  V30 11996 C 1197.02 -4.60949 -4.1464 0
M  V30 11997 C 1199.08 -3.32493 -3.70611 0
M  V30 11998 C 1197.78 -5.79703 -4.25837 0
M  V30 11999 C 1199.8 -4.50586 -3.83048 0
M  V30 12000 C 1199.17 -5.72657 -4.10174 0
M  V30 12001 H 1195.27 -0.277847 -0.730976 0
M  V30 12002 H 1197.85 -1.22764 -1.51119 0
M  V30 12003 H 1196.02 -0.338402 -3.86923 0
M  V30 12004 H 1197.75 -0.54163 -4.01059 0
M  V30 12005 H 1194.51 -2.56063 -3.98408 0
M  V30 12006 H 1194.93 -5.14927 -4.39522 0
M  V30 12007 H 1199.57 -2.39163 -3.48656 0
M  V30 12008 H 1197.29 -6.73473 -4.46609 0
M  V30 12009 H 1200.88 -4.48133 -3.71036 0
M  V30 12010 H 1199.76 -6.62512 -4.19581 0
M  V30 12011 N 1197.26 1.39987 -0.723979 0
M  V30 12012 C 1198.21 2.30672 -0.0768286 0
M  V30 12013 C 1199.18 1.48634 0.741422 0
M  V30 12014 O 1200.36 1.77351 0.703649 0
M  V30 12015 C 1197.5 3.34902 0.832729 0
M  V30 12016 C 1196.62 4.32 0.00304942 0
M  V30 12017 C 1195.75 5.23298 0.91286 0
M  V30 12018 C 1194.79 6.12051 0.0777706 0
M  V30 12019 N 1193.93 6.9574 0.942912 0
M  V30 12020 H 1198.77 2.85446 -0.855832 0
M  V30 12021 H 1196.3 1.40561 -0.433718 0
M  V30 12022 H 1198.26 3.93911 1.37441 0
M  V30 12023 H 1196.89 2.81611 1.57782 0
M  V30 12024 H 1195.94 3.74702 -0.655916 0
M  V30 12025 H 1197.26 4.94637 -0.643124 0
M  V30 12026 H 1196.41 5.87279 1.52277 0
M  V30 12027 H 1195.15 4.60956 1.59284 0
M  V30 12028 H 1194.15 5.47092 -0.545022 0
M  V30 12029 H 1195.38 6.76455 -0.598827 0
M  V30 12030 H 1193.33 6.35977 1.60838 0
M  V30 12031 H 1193.24 7.55176 0.352968 0
M  V30 12032 H 1194.51 7.64162 1.53874 0
M  V30 12033 N 1198.74 0.470782 1.50404 0
M  V30 12034 C 1199.97 -0.0820134 2.06737 0
M  V30 12035 C 1200.38 -1.33535 1.33468 0
M  V30 12036 O 1199.74 -1.77975 0.403872 0
M  V30 12037 C 1199.79 -0.370427 3.59597 0
M  V30 12038 O 1199.51 0.8332 4.30104 0
M  V30 12039 C 1201.01 -0.970222 4.32552 0
M  V30 12040 H 1198.23 0.00694502 0.670964 0
M  V30 12041 H 1200.78 0.659476 1.93575 0
M  V30 12042 H 1198.93 -1.06185 3.72563 0
M  V30 12043 H 1199.35 0.577614 5.2131 0
M  V30 12044 H 1200.82 -1.1218 5.40481 0
M  V30 12045 H 1201.3 -1.96024 3.93028 0
M  V30 12046 H 1201.9 -0.31719 4.24116 0
M  V30 12047 N 1200.22 -1.56282 0.203376 0
M  V30 12048 C 1201.18 -2.18233 -0.700489 0
M  V30 12049 C 1202.18 -1.13908 -1.13497 0
M  V30 12050 O 1203.37 -1.39246 -1.04672 0
M  V30 12051 C 1200.5 -2.79107 -1.95735 0
M  V30 12052 H 1201.7 -2.99469 -0.160649 0
M  V30 12053 H 1199.25 -1.56232 -0.0462475 0
M  V30 12054 H 1199.98 -2.01691 -2.53951 0
M  V30 12055 H 1199.77 -3.55486 -1.65446 0
M  V30 12056 H 1201.26 -3.2665 -2.60172 0
M  V30 12057 N 1201.7 0.070167 -1.57444 0
M  V30 12058 C 1202.92 0.785703 -1.91941 0
M  V30 12059 C 1203.35 1.70243 -0.799932 0
M  V30 12060 O 1202.7 1.79608 0.247139 0
M  V30 12061 C 1202.75 1.55398 -3.25398 0
M  V30 12062 O 1201.86 2.66475 -3.14746 0
M  V30 12063 H 1201.2 0.214245 -0.628486 0
M  V30 12064 H 1203.73 0.0379243 -2.04565 0
M  V30 12065 H 1203.74 1.93287 -3.5931 0
M  V30 12066 H 1202.41 0.881366 -4.06454 0
M  V30 12067 H 1200.99 2.3143 -2.92394 0
M  V30 12068 N 1203.17 1.53854 0.341593 0
M  V30 12069 C 1204.4 1.75134 1.10162 0
M  V30 12070 C 1204.82 0.491415 1.82292 0
M  V30 12071 O 1204.17 -0.53703 1.7442 0
M  V30 12072 C 1204.22 2.93273 2.1136 0
M  V30 12073 O 1203.95 4.14393 1.42162 0
M  V30 12074 C 1205.45 3.26621 2.99723 0
M  V30 12075 H 1202.67 0.585126 0.328434 0
M  V30 12076 H 1205.21 2.00684 0.393204 0
M  V30 12077 H 1203.37 2.70048 2.77764 0
M  V30 12078 H 1203.78 4.8072 2.09783 0
M  V30 12079 H 1205.25 4.12629 3.66662 0
M  V30 12080 H 1205.73 2.43008 3.65847 0
M  V30 12081 H 1206.34 3.51858 2.38906 0
M  V30 12082 N 1204.65 -0.602709 1.4562 0
M  V30 12083 C 1205.58 -1.7271 1.50678 0
M  V30 12084 C 1206.6 -1.57884 0.397048 0
M  V30 12085 O 1207.79 -1.65676 0.664367 0
M  V30 12086 C 1204.89 -3.10762 1.35204 0
M  V30 12087 C 1204.06 -3.51782 2.59939 0
M  V30 12088 C 1203.12 -4.68816 2.38952 0
M  V30 12089 O 1202.14 -4.75686 3.12588 0
M  V30 12090 N 1203.35 -5.624 1.43827 0
M  V30 12091 H 1206.11 -1.68833 2.47619 0
M  V30 12092 H 1203.67 -0.788131 1.41422 0
M  V30 12093 H 1205.66 -3.86819 1.18967 0
M  V30 12094 H 1204.23 -3.09119 0.465203 0
M  V30 12095 H 1203.45 -2.65637 2.91257 0
M  V30 12096 H 1204.74 -3.75948 3.42842 0
M  V30 12097 H 1204.14 -5.59568 0.830669 0
M  V30 12098 H 1202.7 -6.37969 1.33561 0
M  V30 12099 N 1206.13 -1.32992 -0.845635 0
M  V30 12100 C 1207.36 -1.27087 -1.63268 0
M  V30 12101 C 1207.77 0.159481 -1.88125 0
M  V30 12102 O 1207.13 1.09948 -1.45663 0
M  V30 12103 C 1207.18 -2.03649 -2.98679 0
M  V30 12104 O 1206.9 -3.41104 -2.74918 0
M  V30 12105 C 1208.4 -2.04875 -3.93117 0
M  V30 12106 H 1205.62 -0.438107 -0.508236 0
M  V30 12107 H 1208.17 -1.75257 -1.05381 0
M  V30 12108 H 1206.32 -1.59178 -3.53187 0
M  V30 12109 H 1206.74 -3.80405 -3.61099 0
M  V30 12110 H 1208.21 -2.62911 -4.85368 0
M  V30 12111 H 1208.69 -1.03728 -4.26775 0
M  V30 12112 H 1209.29 -2.49334 -3.44547 0
M  V30 12113 N 1207.61 1.06304 -1.1635 0
M  V30 12114 C 1208.88 1.75916 -0.855166 0
M  V30 12115 C 1209.26 2.0094 0.647024 0
M  V30 12116 O 1208.61 1.63642 1.59479 0
M  V30 12117 C 1208.82 3.06028 -1.67774 0
M  V30 12118 C 1210.17 3.80184 -1.89065 0
M  V30 12119 O 1211.19 3.15868 -1.64639 0
M  V30 12120 O 1210.05 4.95723 -2.30045 0
M  V30 12121 H 1207.15 0.764432 -0.315551 0
M  V30 12122 H 1209.69 1.12574 -1.26985 0
M  V30 12123 H 1208.47 2.83498 -2.69712 0
M  V30 12124 H 1208.09 3.77104 -1.26009 0
M  V30 12125 N 1209.09 0.96196 1.24836 0
M  V30 12126 C 1210.5 0.667561 1.44968 0
M  V30 12127 C 1210.7 -0.772521 1.86103 0
M  V30 12128 O 1209.76 -1.54704 1.99557 0
M  V30 12129 C 1211.07 1.64675 2.516 0
M  V30 12130 C 1212.62 1.65874 2.65433 0
M  V30 12131 C 1213.09 2.62576 3.75257 0
M  V30 12132 N 1214.58 2.60984 3.82677 0
M  V30 12133 C 1215.32 3.32484 4.67163 0
M  V30 12134 N 1214.82 4.13482 5.55882 0
M  V30 12135 N 1216.61 3.21336 4.61193 0
M  V30 12136 H 1208.76 1.89248 0.964307 0
M  V30 12137 H 1211.02 0.814443 0.485167 0
M  V30 12138 H 1210.73 2.67572 2.2825 0
M  V30 12139 H 1210.6 1.415 3.49653 0
M  V30 12140 H 1212.99 0.636912 2.88145 0
M  V30 12141 H 1213.07 1.9311 1.67756 0
M  V30 12142 H 1212.71 3.6489 3.53295 0
M  V30 12143 H 1212.64 2.32622 4.72435 0
M  V30 12144 H 1215.14 2.02187 3.19263 0
M  V30 12145 H 1215.45 4.6494 6.17293 0
M  V30 12146 H 1213.79 4.17578 5.55566 0
M  V30 12147 H 1216.98 2.57524 3.90895 0
M  V30 12148 H 1217.16 3.77323 5.26812 0
M  V30 12149 N 1210.56 -1.39601 0.731392 0
M  V30 12150 C 1211.79 -2.0459 0.287472 0
M  V30 12151 C 1212.2 -1.5525 -1.08139 0
M  V30 12152 O 1211.54 -0.710949 -1.69385 0
M  V30 12153 C 1211.61 -3.58904 0.206948 0
M  V30 12154 C 1211.27 -4.31204 1.51368 0
M  V30 12155 C 1212.27 -4.58088 2.45869 0
M  V30 12156 C 1209.95 -4.69818 1.77698 0
M  V30 12157 C 1211.95 -5.22591 3.64935 0
M  V30 12158 C 1209.63 -5.34049 2.97043 0
M  V30 12159 C 1210.63 -5.60368 3.90483 0
M  V30 12160 O 1210.32 -6.23268 5.07732 0
M  V30 12161 H 1210.05 -0.664515 0.12408 0
M  V30 12162 H 1212.61 -1.79701 0.994814 0
M  V30 12163 H 1210.84 -3.82675 -0.556466 0
M  V30 12164 H 1212.52 -4.05385 -0.204498 0
M  V30 12165 H 1213.29 -4.28706 2.26796 0
M  V30 12166 H 1209.17 -4.48692 1.05815 0
M  V30 12167 H 1212.71 -5.43049 4.37885 0
M  V30 12168 H 1208.61 -5.62852 3.16018 0
M  V30 12169 H 1209.38 -6.41763 5.08019 0
M  V30 12170 N 1212.04 -0.478751 -1.50152 0
M  V30 12171 C 1213.29 0.0734397 -2.01967 0
M  V30 12172 C 1213.61 1.39523 -1.36229 0
M  V30 12173 O 1212.88 1.89141 -0.510149 0
M  V30 12174 H 1211.46 0.0301305 -0.746392 0
M  V30 12175 H 1214.12 -0.630921 -1.84406 0
M  V30 12176 H 1213.22 0.21937 -3.11328 0
M  V30 12177 N 1213.52 1.56172 -0.211661 0
M  V30 12178 C 1214.48 2.18602 0.688906 0
M  V30 12179 C 1215.48 1.14508 1.12892 0
M  V30 12180 O 1216.67 1.39799 1.03932 0
M  V30 12181 C 1213.81 2.80141 1.94253 0
M  V30 12182 H 1215 2.9955 0.144765 0
M  V30 12183 H 1212.55 1.56254 0.0379615 0
M  V30 12184 H 1213.29 2.03035 2.52878 0
M  V30 12185 H 1213.07 3.56358 1.63558 0
M  V30 12186 H 1214.56 3.28026 2.58436 0
M  V30 12187 N 1215 -0.0618163 1.57479 0
M  V30 12188 C 1215.95 -1.09105 2.05424 0
M  V30 12189 C 1216.94 -1.3947 0.961479 0
M  V30 12190 O 1218.15 -1.3876 1.14655 0
M  V30 12191 H 1214.52 -0.36923 0.655113 0
M  V30 12192 H 1216.49 -0.66061 2.90996 0
M  V30 12193 C 1215.24 -2.39345 2.52209 0
M  V30 12194 H 1214.56 -2.16832 3.35893 0
M  V30 12195 H 1216 -3.09784 2.89499 0
M  V30 12196 C 1214.46 -3.06011 1.40922 0
M  V30 12197 O 1214.99 -3.94504 0.756921 0
M  V30 12198 N 1213.2 -2.66797 1.15186 0
M  V30 12199 H 1212.75 -1.94923 1.68412 0
M  V30 12200 H 1212.7 -3.11724 0.409324 0
M  V30 12201 N 1216.48 -1.54033 -0.333429 0
M  V30 12202 C 1217.71 -1.75461 -1.09073 0
M  V30 12203 C 1218.11 -0.498488 -1.82515 0
M  V30 12204 O 1217.46 0.540029 -1.75583 0
M  V30 12205 C 1217.52 -2.88744 -2.14166 0
M  V30 12206 C 1217.18 -4.27998 -1.60209 0
M  V30 12207 C 1218.18 -5.09206 -1.04907 0
M  V30 12208 C 1215.87 -4.74513 -1.6475 0
M  V30 12209 C 1217.86 -6.35035 -0.548615 0
M  V30 12210 C 1215.55 -6.00312 -1.14318 0
M  V30 12211 C 1216.54 -6.80406 -0.594667 0
M  V30 12212 O 1216.23 -8.0384 -0.097891 0
M  V30 12213 H 1215.96 -0.589586 -0.330702 0
M  V30 12214 H 1218.52 -2.01697 -0.388274 0
M  V30 12215 H 1216.75 -2.58057 -2.87999 0
M  V30 12216 H 1218.44 -2.98048 -2.7554 0
M  V30 12217 H 1219.2 -4.74428 -1.00713 0
M  V30 12218 H 1215.08 -4.12222 -2.06384 0
M  V30 12219 H 1218.63 -6.97497 -0.119823 0
M  V30 12220 H 1214.52 -6.34583 -1.18215 0
M  V30 12221 H 1215.29 -8.1822 -0.214237 0
M  V30 12222 N 1217.95 0.594978 -1.45938 0
M  V30 12223 C 1218.88 1.71536 -1.58422 0
M  V30 12224 C 1219.87 1.64441 -0.435116 0
M  V30 12225 O 1221.05 1.82647 -0.659839 0
M  V30 12226 C 1218.18 3.10163 -1.56257 0
M  V30 12227 C 1217.13 3.3208 -2.70013 0
M  V30 12228 C 1216.46 4.71108 -2.52905 0
M  V30 12229 C 1217.76 3.21105 -4.11933 0
M  V30 12230 H 1219.45 1.61344 -2.52207 0
M  V30 12231 H 1217 0.774791 -1.2138 0
M  V30 12232 H 1218.95 3.88352 -1.63587 0
M  V30 12233 H 1217.68 3.21225 -0.590093 0
M  V30 12234 H 1216.34 2.56286 -2.62132 0
M  V30 12235 H 1215.98 4.7892 -1.53768 0
M  V30 12236 H 1215.68 4.86727 -3.29197 0
M  V30 12237 H 1217.21 5.51482 -2.62107 0
M  V30 12238 H 1218.62 3.89153 -4.2099 0
M  V30 12239 H 1217.02 3.4825 -4.88715 0
M  V30 12240 H 1218.09 2.18359 -4.32952 0
M  V30 12241 N 1219.43 1.33438 0.838571 0
M  V30 12242 C 1220.38 1.20285 1.93689 0
M  V30 12243 C 1221.37 0.105686 1.60553 0
M  V30 12244 O 1222.56 0.333814 1.73824 0
M  V30 12245 C 1219.69 0.944544 3.3005 0
M  V30 12246 C 1218.77 2.08416 3.69356 0
M  V30 12247 N 1219.16 3.33415 3.80353 0
M  V30 12248 C 1217.46 1.99092 3.99097 0
M  V30 12249 C 1218.16 4.08159 4.14465 0
M  V30 12250 N 1217.14 3.36601 4.2685 0
M  V30 12251 H 1220.94 2.1503 2.00348 0
M  V30 12252 H 1218.46 1.2545 1.03131 0
M  V30 12253 H 1220.45 0.831242 4.08529 0
M  V30 12254 H 1219.11 0.00562273 3.247 0
M  V30 12255 H 1220.12 3.68159 3.64252 0
M  V30 12256 H 1216.8 1.12861 4.01956 0
M  V30 12257 H 1218.19 5.16027 4.30308 0
M  V30 12258 N 1220.91 -1.05686 1.16912 0
M  V30 12259 C 1222.19 -1.7546 0.864483 0
M  V30 12260 C 1222.57 -2.0128 -0.636359 0
M  V30 12261 O 1221.92 -1.64485 -1.58609 0
M  V30 12262 C 1222.13 -3.05134 1.69395 0
M  V30 12263 C 1223.47 -3.79176 1.91079 0
M  V30 12264 O 1224.5 -3.1499 1.66312 0
M  V30 12265 O 1223.36 -4.94496 2.32671 0
M  V30 12266 H 1220.45 -0.762748 0.319601 0
M  V30 12267 H 1223 -1.11899 1.27581 0
M  V30 12268 H 1221.77 -2.82063 2.71212 0
M  V30 12269 H 1221.39 -3.76431 1.28007 0
M  V30 12270 N 1222.39 -0.968567 -1.24324 0
M  V30 12271 C 1223.67 -0.547774 -1.87773 0
M  V30 12272 C 1224.05 0.975107 -1.87229 0
M  V30 12273 O 1223.39 1.84683 -1.34553 0
M  V30 12274 C 1223.6 -1.1403 -3.29846 0
M  V30 12275 C 1224.95 -1.22572 -4.06523 0
M  V30 12276 O 1225.98 -1.09287 -3.3902 0
M  V30 12277 O 1224.83 -1.43579 -5.27302 0
M  V30 12278 H 1221.93 -0.182771 -0.806551 0
M  V30 12279 H 1224.47 -1.06289 -1.3229 0
M  V30 12280 H 1223.25 -2.18303 -3.24745 0
M  V30 12281 H 1222.87 -0.609275 -3.92904 0
M  V30 12282 N 1223.87 1.39211 -0.738786 0
M  V30 12283 C 1224.81 2.32424 -0.0904601 0
M  V30 12284 C 1225.81 1.53258 0.721694 0
M  V30 12285 O 1227.01 1.68895 0.622454 0
M  V30 12286 H 1223.39 0.751927 -0.010453 0
M  V30 12287 H 1225.36 2.84726 -0.892945 0
M  V30 12288 C 1224.11 3.38377 0.799783 0
M  V30 12289 H 1223.43 3.99375 0.18424 0
M  V30 12290 H 1224.87 4.0604 1.22096 0
M  V30 12291 C 1223.33 2.75734 1.93578 0
M  V30 12292 O 1223.86 2.63876 3.02874 0
M  V30 12293 N 1222.07 2.33764 1.72634 0
M  V30 12294 H 1221.61 2.43609 0.837413 0
M  V30 12295 H 1221.57 1.92191 2.48817 0
M  V30 12296 N 1225.34 0.486708 1.49896 0
M  V30 12297 C 1226.31 -0.288126 2.27382 0
M  V30 12298 C 1227.31 -0.906675 1.32801 0
M  V30 12299 O 1228.5 -0.773425 1.56089 0
M  V30 12300 C 1225.63 -1.41194 3.10285 0
M  V30 12301 H 1226.82 0.391618 2.97332 0
M  V30 12302 H 1224.38 0.24123 1.54427 0
M  V30 12303 H 1225.11 -2.12627 2.44868 0
M  V30 12304 H 1224.9 -0.974033 3.79809 0
M  V30 12305 H 1226.39 -1.95812 3.68846 0
M  V30 12306 N 1226.82 -1.56058 0.219941 0
M  V30 12307 C 1228.07 -1.97869 -0.411383 0
M  V30 12308 C 1228.39 -1.10878 -1.60409 0
M  V30 12309 O 1227.66 -0.185454 -1.9502 0
M  V30 12310 H 1226.24 -0.730747 -0.154979 0
M  V30 12311 H 1228.9 -1.92379 0.312461 0
M  V30 12312 H 1228 -3.0323 -0.738798 0
M  V30 12313 N 1228.3 0.053464 -1.57509 0
M  V30 12314 C 1229.25 1.06155 -2.04939 0
M  V30 12315 C 1230.22 1.37382 -0.93357 0
M  V30 12316 O 1231.4 1.48137 -1.2025 0
M  V30 12317 C 1228.54 2.36476 -2.51343 0
M  V30 12318 C 1227.66 2.1162 -3.76618 0
M  V30 12319 C 1226.79 3.35636 -4.11731 0
M  V30 12320 C 1225.83 3.06226 -5.29993 0
M  V30 12321 N 1224.97 4.22623 -5.60655 0
M  V30 12322 H 1229.81 0.650122 -2.90822 0
M  V30 12323 H 1227.34 0.309421 -1.43809 0
M  V30 12324 H 1229.3 3.12588 -2.76306 0
M  V30 12325 H 1227.93 2.75386 -1.68411 0
M  V30 12326 H 1226.98 1.26116 -3.58886 0
M  V30 12327 H 1228.3 1.85909 -4.6286 0
M  V30 12328 H 1227.45 4.20132 -4.37692 0
M  V30 12329 H 1226.19 3.64439 -3.24092 0
M  V30 12330 H 1225.19 2.20128 -5.03809 0
M  V30 12331 H 1226.42 2.78726 -6.19265 0
M  V30 12332 H 1224.37 4.51424 -4.75976 0
M  V30 12333 H 1224.28 4.0025 -6.41355 0
M  V30 12334 H 1225.55 5.08063 -5.91178 0
M  V30 12335 N 1229.78 1.54207 0.325255 0
M  V30 12336 C 1231.03 1.71991 1.0613 0
M  V30 12337 C 1231.35 0.495505 1.88599 0
M  V30 12338 O 1230.62 -0.490504 1.8966 0
M  V30 12339 H 1229.2 0.634137 0.394816 0
M  V30 12340 H 1231.86 1.91507 0.362101 0
M  V30 12341 H 1230.96 2.59878 1.72829 0
M  V30 12342 N 1231.26 -0.58723 1.46251 0
M  V30 12343 C 1232.49 -1.37174 1.5489 0
M  V30 12344 C 1232.9 -1.87857 0.188445 0
M  V30 12345 O 1232.26 -1.63365 -0.813509 0
M  V30 12346 C 1232.31 -2.56237 2.55 0
M  V30 12347 O 1232.03 -2.07655 3.8576 0
M  V30 12348 C 1233.53 -3.48846 2.73535 0
M  V30 12349 H 1230.75 -0.419211 0.523931 0
M  V30 12350 H 1233.29 -0.714307 1.91619 0
M  V30 12351 H 1231.45 -3.1798 2.21287 0
M  V30 12352 H 1231.86 -2.85161 4.40208 0
M  V30 12353 H 1233.34 -4.2888 3.47514 0
M  V30 12354 H 1233.81 -4.00493 1.80282 0
M  V30 12355 H 1234.42 -2.92942 3.08326 0
M  V30 12356 N 1232.74 -1.33881 -0.831482 0
M  V30 12357 C 1233.68 -1.24748 -1.94182 0
M  V30 12358 C 1234.65 -0.124516 -1.65633 0
M  V30 12359 O 1235.84 -0.304045 -1.88362 0
M  V30 12360 C 1232.98 -1.00016 -3.30289 0
M  V30 12361 C 1232.09 -2.21007 -3.71187 0
M  V30 12362 C 1231.23 -1.89629 -4.962 0
M  V30 12363 C 1230.26 -3.06811 -5.29654 0
M  V30 12364 N 1229.4 -2.75372 -6.45844 0
M  V30 12365 H 1234.24 -2.19709 -2.01325 0
M  V30 12366 H 1231.78 -1.09245 -0.985081 0
M  V30 12367 H 1233.74 -0.837167 -4.08714 0
M  V30 12368 H 1232.37 -0.0872582 -3.22682 0
M  V30 12369 H 1231.42 -2.48256 -2.88224 0
M  V30 12370 H 1232.73 -3.08587 -3.91887 0
M  V30 12371 H 1231.88 -1.70016 -5.82391 0
M  V30 12372 H 1230.62 -0.992964 -4.77485 0
M  V30 12373 H 1229.63 -3.27029 -4.41964 0
M  V30 12374 H 1230.85 -3.97909 -5.50314 0
M  V30 12375 H 1228.8 -1.87607 -6.28601 0
M  V30 12376 H 1228.72 -3.56483 -6.66675 0
M  V30 12377 H 1229.98 -2.59244 -7.35128 0
M  V30 12378 N 1234.21 1.05064 -1.1747 0
M  V30 12379 C 1235.44 1.82299 -0.98903 0
M  V30 12380 C 1235.86 1.82441 0.457907 0
M  V30 12381 O 1235.22 1.23433 1.32793 0
M  V30 12382 C 1235.27 3.26239 -1.53624 0
M  V30 12383 O 1234.37 4.05507 -0.750857 0
M  V30 12384 H 1233.71 0.563601 -0.35107 0
M  V30 12385 H 1236.24 1.32386 -1.55997 0
M  V30 12386 H 1236.25 3.77038 -1.55906 0
M  V30 12387 H 1234.93 3.25451 -2.58949 0
M  V30 12388 H 1233.51 3.64227 -0.799548 0
M  V30 12389 N 1235.69 0.975146 1.23809 0
M  V30 12390 C 1236.94 0.642074 1.92367 0
M  V30 12391 C 1237.27 -0.82164 1.75962 0
M  V30 12392 O 1236.55 -1.59205 1.11732 0
M  V30 12393 C 1236.83 1.02677 3.45151 0
M  V30 12394 C 1236.68 2.54773 3.7069 0
M  V30 12395 C 1238 0.5668 4.36435 0
M  V30 12396 H 1235.12 0.234735 0.698619 0
M  V30 12397 H 1237.76 1.21549 1.46034 0
M  V30 12398 H 1235.91 0.538846 3.84745 0
M  V30 12399 H 1237.58 3.11099 3.4061 0
M  V30 12400 H 1235.83 2.97641 3.15583 0
M  V30 12401 H 1236.5 2.7674 4.77618 0
M  V30 12402 H 1238.97 0.985635 4.04258 0
M  V30 12403 H 1237.85 0.864458 5.4205 0
M  V30 12404 H 1238.11 -0.532989 4.38875 0
M  V30 12405 N 1237.17 -1.38817 0.746158 0
M  V30 12406 C 1238.4 -2.0457 0.309605 0
M  V30 12407 C 1238.81 -1.5627 -1.05948 0
M  V30 12408 O 1238.17 -0.73248 -1.67156 0
M  V30 12409 C 1238.22 -3.60126 0.314843 0
M  V30 12410 O 1237.94 -4.06652 1.6299 0
M  V30 12411 C 1239.44 -4.4309 -0.136497 0
M  V30 12412 H 1236.66 -0.657597 0.133441 0
M  V30 12413 H 1239.21 -1.77651 1.01293 0
M  V30 12414 H 1237.36 -3.85908 -0.339685 0
M  V30 12415 H 1237.78 -5.01042 1.55103 0
M  V30 12416 H 1239.25 -5.5194 -0.0816714 0
M  V30 12417 H 1239.73 -4.22959 -1.18332 0
M  V30 12418 H 1240.33 -4.22481 0.488879 0
M  V30 12419 N 1238.65 -0.49465 -1.49636 0
M  V30 12420 C 1239.89 0.0521172 -2.02433 0
M  V30 12421 C 1240.22 1.37579 -1.37485 0
M  V30 12422 O 1239.48 1.8927 -0.497538 0
M  V30 12423 C 1239.78 0.259743 -3.56455 0
M  V30 12424 C 1239.44 -0.985143 -4.40007 0
M  V30 12425 C 1238.1 -1.3264 -4.62558 0
M  V30 12426 C 1240.46 -1.81291 -4.88654 0
M  V30 12427 C 1237.78 -2.49506 -5.31003 0
M  V30 12428 C 1240.14 -2.97305 -5.58384 0
M  V30 12429 C 1238.8 -3.31818 -5.79183 0
M  V30 12430 H 1238.07 0.0190711 -0.740755 0
M  V30 12431 H 1240.72 -0.653519 -1.80004 0
M  V30 12432 H 1239.02 1.04785 -3.77528 0
M  V30 12433 H 1240.72 0.697146 -3.94893 0
M  V30 12434 H 1237.31 -0.709313 -4.2269 0
M  V30 12435 H 1241.49 -1.56242 -4.71065 0
M  V30 12436 H 1236.75 -2.76491 -5.4531 0
M  V30 12437 H 1240.92 -3.61777 -5.95055 0
M  V30 12438 H 1238.55 -4.22478 -6.31994 0
M  V30 12439 N 1240.13 1.55939 -0.228214 0
M  V30 12440 C 1241.35 2.0287 0.406348 0
M  V30 12441 C 1241.77 1.1079 1.52876 0
M  V30 12442 O 1241.13 0.118747 1.82113 0
M  V30 12443 C 1241.18 3.49286 0.931734 0
M  V30 12444 O 1240.9 4.37857 -0.145933 0
M  V30 12445 C 1242.4 4.11893 1.63887 0
M  V30 12446 H 1239.62 0.663696 0.0987358 0
M  V30 12447 H 1242.16 2.01541 -0.346616 0
M  V30 12448 H 1240.32 3.5121 1.63494 0
M  V30 12449 H 1240.73 5.23904 0.250005 0
M  V30 12450 H 1242.21 5.16091 1.95841 0
M  V30 12451 H 1242.68 3.57281 2.55435 0
M  V30 12452 H 1243.29 4.13839 0.980697 0
M  V30 12453 N 1241.6 -0.0451101 1.57535 0
M  V30 12454 C 1243.02 -0.59372 1.77008 0
M  V30 12455 C 1243.37 -1.76482 0.857233 0
M  V30 12456 O 1242.49 -2.16347 0.0479703 0
M  V30 12457 C 1243.09 -1.08383 3.20996 0
M  V30 12458 C 1241.65 -1.57808 3.41721 0
M  V30 12459 C 1240.79 -0.509067 2.72587 0
M  V30 12460 H 1243.74 0.181114 1.57663 0
M  V30 12461 H 1243.76 -1.95181 3.26626 0
M  V30 12462 H 1243.28 -0.231276 3.8741 0
M  V30 12463 H 1241.38 -2.45302 2.8046 0
M  V30 12464 H 1241.49 -1.63664 4.50279 0
M  V30 12465 H 1239.85 -0.960389 2.359 0
M  V30 12466 H 1240.64 0.333753 3.41674 0
M  V30 12467 N 1243.08 -1.54377 -0.317073 0
M  V30 12468 C 1244.03 -1.84948 -1.41057 0
M  V30 12469 C 1245.02 -0.721887 -1.53249 0
M  V30 12470 O 1246.23 -0.905648 -1.55557 0
M  V30 12471 H 1242.61 -0.586353 -0.470844 0
M  V30 12472 H 1244.58 -2.7638 -1.12501 0
M  V30 12473 C 1243.33 -2.09932 -2.77171 0
M  V30 12474 H 1242.65 -2.96162 -2.68566 0
M  V30 12475 H 1244.09 -2.35272 -3.52737 0
M  V30 12476 C 1242.55 -0.892855 -3.24853 0
M  V30 12477 O 1243.08 -0.105336 -4.01562 0
M  V30 12478 N 1241.28 -0.702685 -2.81976 0
M  V30 12479 H 1240.83 -1.34474 -2.19715 0
M  V30 12480 H 1240.79 0.103024 -3.14231 0
M  V30 12481 N 1244.56 0.579466 -1.4656 0
M  V30 12482 C 1245.49 1.69846 -1.60233 0
M  V30 12483 C 1246.47 1.6397 -0.452533 0
M  V30 12484 O 1247.66 1.81936 -0.679174 0
M  V30 12485 C 1244.79 3.08488 -1.59538 0
M  V30 12486 C 1243.74 3.29197 -2.7352 0
M  V30 12487 C 1243.07 4.684 -2.57887 0
M  V30 12488 C 1244.37 3.16718 -4.15315 0
M  V30 12489 H 1246.06 1.5866 -2.53904 0
M  V30 12490 H 1243.61 0.761873 -1.22194 0
M  V30 12491 H 1245.56 3.86595 -1.67696 0
M  V30 12492 H 1244.28 3.20581 -0.62413 0
M  V30 12493 H 1242.94 2.53491 -2.64836 0
M  V30 12494 H 1242.59 4.77262 -1.58839 0
M  V30 12495 H 1242.29 4.83208 -3.34341 0
M  V30 12496 H 1243.81 5.48671 -2.67942 0
M  V30 12497 H 1245.23 3.84666 -4.25094 0
M  V30 12498 H 1243.63 3.43047 -4.92381 0
M  V30 12499 H 1244.7 2.13755 -4.35244 0
M  V30 12500 N 1246.04 1.3432 0.824371 0
M  V30 12501 C 1247.45 1.23855 1.39703 0
M  V30 12502 C 1247.8 -0.136566 1.95724 0
M  V30 12503 O 1246.93 -1.03683 1.89944 0
M  V30 12504 C 1247.52 2.24249 2.53965 0
M  V30 12505 C 1246.08 2.17578 3.07143 0
M  V30 12506 C 1245.23 2.10933 1.80008 0
M  V30 12507 H 1248.18 1.45707 0.628891 0
M  V30 12508 H 1248.2 1.85864 3.32016 0
M  V30 12509 H 1247.71 3.24321 2.13161 0
M  V30 12510 H 1245.81 1.20858 3.52455 0
M  V30 12511 H 1245.92 3.08769 3.66331 0
M  V30 12512 H 1244.29 1.56631 2.00845 0
M  V30 12513 H 1245.07 3.12836 1.4138 0
M  V30 12514 N 1247.52 -1.0444 1.18026 0
M  V30 12515 C 1248.77 -1.7697 0.9677 0
M  V30 12516 C 1249.08 -1.88995 -0.503994 0
M  V30 12517 O 1250.28 -2.58342 -0.834968 0
M  V30 12518 C 1248.74 -3.1816 1.68232 0
M  V30 12519 C 1248.35 -3.14241 3.19307 0
M  V30 12520 C 1250.09 -3.95095 1.55244 0
M  V30 12521 C 1248 -4.50266 3.83425 0
M  V30 12522 H 1246.93 -0.663355 0.358436 0
M  V30 12523 H 1249.58 -1.17003 1.4136 0
M  V30 12524 H 1247.96 -3.78501 1.16418 0
M  V30 12525 H 1249.14 -2.63373 3.78115 0
M  V30 12526 H 1247.45 -2.50805 3.32394 0
M  V30 12527 H 1250.05 -4.95681 2.00511 0
M  V30 12528 H 1250.39 -4.13236 0.504125 0
M  V30 12529 H 1250.92 -3.4132 2.04317 0
M  V30 12530 H 1247.66 -4.37329 4.88286 0
M  V30 12531 H 1247.18 -5.01251 3.29404 0
M  V30 12532 H 1248.86 -5.1919 3.86071 0
M  V30 12533 N 1248.99 -0.981699 -1.2329 0
M  V30 12534 C 1249.96 -0.527992 -2.23036 0
M  V30 12535 C 1250.96 0.383083 -1.5617 0
M  V30 12536 O 1252.15 0.176595 -1.73303 0
M  V30 12537 C 1249.28 0.233501 -3.40099 0
M  V30 12538 H 1250.47 -1.40995 -2.64689 0
M  V30 12539 H 1248.03 -0.767724 -1.36146 0
M  V30 12540 H 1248.76 1.13194 -3.03904 0
M  V30 12541 H 1248.55 -0.420505 -3.89839 0
M  V30 12542 H 1250.04 0.539485 -4.14101 0
M  V30 12543 N 1250.47 1.3842 -0.753509 0
M  V30 12544 C 1251.72 1.99723 -0.309021 0
M  V30 12545 C 1252.04 1.60111 1.11308 0
M  V30 12546 O 1251.31 0.85792 1.76115 0
M  V30 12547 H 1249.89 0.738667 -0.111266 0
M  V30 12548 H 1252.55 1.69186 -0.967586 0
M  V30 12549 H 1251.65 3.09874 -0.372095 0
M  V30 12550 N 1251.95 0.502579 1.49372 0
M  V30 12551 C 1253.18 -0.0403087 2.07361 0
M  V30 12552 C 1253.6 -1.29918 1.36026 0
M  V30 12553 O 1252.96 -1.76428 0.417488 0
M  V30 12554 C 1253.01 -0.275362 3.59547 0
M  V30 12555 O 1252.11 -1.34975 3.89686 0
M  V30 12556 H 1251.45 0.0269268 0.663454 0
M  V30 12557 H 1253.98 0.702652 1.92156 0
M  V30 12558 H 1253.99 -0.506392 4.04845 0
M  V30 12559 H 1252.67 0.644382 4.10878 0
M  V30 12560 H 1251.24 -1.10355 3.56197 0
M  V30 12561 N 1253.43 -1.55816 0.23648 0
M  V30 12562 C 1254.66 -2.02789 -0.39501 0
M  V30 12563 C 1255.07 -1.1153 -1.52832 0
M  V30 12564 O 1254.41 -0.120084 -1.83307 0
M  V30 12565 C 1254.47 -3.46052 -0.974066 0
M  V30 12566 C 1254.14 -4.56993 0.0256825 0
M  V30 12567 C 1255.13 -5.13208 0.831477 0
M  V30 12568 C 1252.82 -5.0208 0.148759 0
M  V30 12569 C 1254.81 -6.12994 1.74691 0
M  V30 12570 C 1252.5 -6.017 1.0677 0
M  V30 12571 C 1253.5 -6.57035 1.86531 0
M  V30 12572 O 1253.18 -7.54714 2.76878 0
M  V30 12573 H 1252.92 -0.668672 -0.0992687 0
M  V30 12574 H 1255.47 -2.02312 0.354826 0
M  V30 12575 H 1253.7 -3.43645 -1.77327 0
M  V30 12576 H 1255.39 -3.76586 -1.51453 0
M  V30 12577 H 1256.16 -4.79214 0.746922 0
M  V30 12578 H 1252.03 -4.58679 -0.461976 0
M  V30 12579 H 1255.58 -6.56111 2.36989 0
M  V30 12580 H 1251.48 -6.35115 1.15322 0
M  V30 12581 H 1252.24 -7.72292 2.71122 0
M  V30 12582 N 1254.91 0.036755 -1.57557 0
M  V30 12583 C 1255.82 1.05687 -2.09446 0
M  V30 12584 C 1256.83 1.40137 -1.03139 0
M  V30 12585 O 1258.01 1.49611 -1.34828 0
M  V30 12586 C 1255.07 2.34114 -2.55717 0
M  V30 12587 C 1254.13 2.06316 -3.76473 0
M  V30 12588 C 1253.37 3.2862 -4.20529 0
M  V30 12589 O 1253.59 4.3902 -3.64167 0
M  V30 12590 O 1252.52 3.14772 -5.13033 0
M  V30 12591 H 1256.35 0.64593 -2.96751 0
M  V30 12592 H 1253.94 0.253235 -1.47238 0
M  V30 12593 H 1255.82 3.09631 -2.85844 0
M  V30 12594 H 1254.49 2.74519 -1.71526 0
M  V30 12595 H 1253.4 1.28392 -3.51378 0
M  V30 12596 H 1254.73 1.70772 -4.61625 0
M  V30 12597 N 1256.39 1.54543 0.308881 0
M  V30 12598 C 1257.63 1.73706 1.04661 0
M  V30 12599 C 1257.96 0.517111 1.87189 0
M  V30 12600 O 1257.24 -0.485856 1.88334 0
M  V30 12601 C 1257.52 3.02141 1.95916 0
M  V30 12602 C 1257.38 4.34419 1.1662 0
M  V30 12603 C 1258.69 3.26401 2.95213 0
M  V30 12604 H 1255.81 0.63203 0.379087 0
M  V30 12605 H 1258.46 1.87253 0.321947 0
M  V30 12606 H 1256.61 2.90723 2.57706 0
M  V30 12607 H 1258.28 4.57743 0.571772 0
M  V30 12608 H 1256.52 4.3126 0.468747 0
M  V30 12609 H 1257.19 5.20535 1.83704 0
M  V30 12610 H 1259.67 3.37377 2.43549 0
M  V30 12611 H 1258.54 4.17597 3.56235 0
M  V30 12612 H 1258.8 2.44322 3.68455 0
M  V30 12613 N 1257.86 -0.571685 1.46866 0
M  V30 12614 C 1259.09 -1.35327 1.56109 0
M  V30 12615 C 1259.5 -1.88086 0.20504 0
M  V30 12616 O 1258.84 -1.64896 -0.809626 0
M  V30 12617 C 1258.91 -2.56939 2.51441 0
M  V30 12618 C 1258.57 -2.2557 3.97451 0
M  V30 12619 C 1259.57 -1.83737 4.86351 0
M  V30 12620 C 1257.25 -2.37375 4.42672 0
M  V30 12621 C 1259.25 -1.54118 6.18487 0
M  V30 12622 C 1256.93 -2.07368 5.7484 0
M  V30 12623 C 1257.93 -1.65806 6.62569 0
M  V30 12624 O 1257.62 -1.36173 7.92283 0
M  V30 12625 H 1257.35 -0.419368 0.530194 0
M  V30 12626 H 1259.91 -0.700859 1.93073 0
M  V30 12627 H 1258.14 -3.25023 2.09517 0
M  V30 12628 H 1259.82 -3.19012 2.5097 0
M  V30 12629 H 1260.59 -1.74122 4.52666 0
M  V30 12630 H 1256.47 -2.68686 3.74605 0
M  V30 12631 H 1260.01 -1.21603 6.8692 0
M  V30 12632 H 1255.91 -2.16611 6.08071 0
M  V30 12633 H 1256.68 -1.49926 8.04652 0
M  V30 12634 N 1259.34 -1.34755 -0.817236 0
M  V30 12635 C 1260.27 -1.29452 -1.94331 0
M  V30 12636 C 1261.25 -0.170902 -1.69239 0
M  V30 12637 O 1262.44 -0.364173 -1.90755 0
M  V30 12638 C 1259.57 -1.05497 -3.30889 0
M  V30 12639 C 1258.52 -2.14386 -3.70436 0
M  V30 12640 C 1257.85 -1.75612 -5.05039 0
M  V30 12641 C 1259.15 -3.56265 -3.81933 0
M  V30 12642 H 1260.84 -2.23672 -1.99025 0
M  V30 12643 H 1258.39 -1.07674 -0.956159 0
M  V30 12644 H 1260.34 -1.0043 -4.09257 0
M  V30 12645 H 1259.06 -0.0772059 -3.26509 0
M  V30 12646 H 1257.72 -2.18532 -2.94345 0
M  V30 12647 H 1257.37 -0.764809 -4.97152 0
M  V30 12648 H 1257.07 -2.48495 -5.3247 0
M  V30 12649 H 1258.6 -1.72051 -5.85859 0
M  V30 12650 H 1260.01 -3.545 -4.50558 0
M  V30 12651 H 1258.41 -4.27818 -4.20822 0
M  V30 12652 H 1259.48 -3.93192 -2.83775 0
M  V30 12653 N 1260.82 1.03812 -1.18578 0
M  V30 12654 C 1261.75 2.11436 -0.858502 0
M  V30 12655 C 1262.73 1.61594 0.180604 0
M  V30 12656 O 1263.91 1.88408 0.058995 0
M  V30 12657 C 1261.04 3.37514 -0.283154 0
M  V30 12658 C 1260.09 4.0621 -1.29985 0
M  V30 12659 S 1260.92 4.52936 -2.85673 0
M  V30 12660 C 1262.08 5.82245 -2.29656 0
M  V30 12661 H 1262.31 2.38871 -1.76997 0
M  V30 12662 H 1259.84 1.16617 -1.01192 0
M  V30 12663 H 1261.8 4.10478 0.0422898 0
M  V30 12664 H 1260.46 3.08189 0.60647 0
M  V30 12665 H 1259.65 4.96845 -0.84621 0
M  V30 12666 H 1259.26 3.39374 -1.57166 0
M  V30 12667 H 1261.55 6.56321 -1.68074 0
M  V30 12668 H 1262.49 6.32375 -3.18602 0
M  V30 12669 H 1262.9 5.37472 -1.72581 0
M  V30 12670 N 1262.3 0.988223 1.22768 0
M  V30 12671 C 1263.54 0.672085 1.91975 0
M  V30 12672 C 1263.9 -0.786719 1.7558 0
M  V30 12673 O 1263.19 -1.561 1.111 0
M  V30 12674 C 1263.39 1.00744 3.42907 0
M  V30 12675 C 1263.21 2.4973 3.73985 0
M  V30 12676 C 1261.98 3.16058 3.94253 0
M  V30 12677 C 1264.18 3.47831 3.78838 0
M  V30 12678 N 1262.16 4.54568 4.12603 0
M  V30 12679 C 1263.54 4.7178 4.02273 0
M  V30 12680 C 1265.59 3.42203 3.61665 0
M  V30 12681 C 1264.29 5.90789 4.10318 0
M  V30 12682 C 1266.32 4.60584 3.70967 0
M  V30 12683 C 1265.68 5.83331 3.94847 0
M  V30 12684 H 1261.78 0.297129 0.723352 0
M  V30 12685 H 1264.36 1.26728 1.47811 0
M  V30 12686 H 1262.54 0.440869 3.8589 0
M  V30 12687 H 1264.27 0.647774 3.99482 0
M  V30 12688 H 1261.02 2.66536 3.91479 0
M  V30 12689 H 1261.45 5.26399 4.25715 0
M  V30 12690 H 1266.09 2.48323 3.42193 0
M  V30 12691 H 1263.81 6.85078 4.28596 0
M  V30 12692 H 1267.39 4.57813 3.59024 0
M  V30 12693 H 1266.27 6.73403 4.01868 0
M  V30 12694 N 1263.78 -1.38018 0.760839 0
M  V30 12695 C 1265.19 -1.82645 0.387022 0
M  V30 12696 C 1265.54 -1.63445 -1.08536 0
M  V30 12697 O 1264.66 -1.13958 -1.83963 0
M  V30 12698 C 1265.26 -3.3158 0.69569 0
M  V30 12699 C 1263.82 -3.74527 0.375063 0
M  V30 12700 C 1262.96 -2.60696 0.94515 0
M  V30 12701 H 1265.91 -1.26644 0.956396 0
M  V30 12702 H 1265.94 -3.80493 -0.0235511 0
M  V30 12703 H 1265.45 -3.45522 1.76737 0
M  V30 12704 H 1263.55 -3.6616 -0.689741 0
M  V30 12705 H 1263.66 -4.71029 0.875685 0
M  V30 12706 H 1262.03 -2.51997 0.370065 0
M  V30 12707 H 1262.81 -2.77434 2.02201 0
M  V30 12708 N 1265.25 -0.510493 -1.49103 0
M  V30 12709 C 1266.22 0.251915 -2.27811 0
M  V30 12710 C 1267.22 0.885432 -1.34226 0
M  V30 12711 O 1268.41 0.748494 -1.573 0
M  V30 12712 C 1265.54 1.3624 -3.12492 0
M  V30 12713 H 1266.73 -0.438872 -2.96671 0
M  V30 12714 H 1264.28 -0.265767 -1.54024 0
M  V30 12715 H 1265.02 2.08705 -2.48219 0
M  V30 12716 H 1264.8 0.913485 -3.81311 0
M  V30 12717 H 1266.29 1.89919 -3.71915 0
M  V30 12718 N 1266.73 1.55688 -0.24474 0
M  V30 12719 C 1267.68 2.17946 0.669596 0
M  V30 12720 C 1268.67 1.13468 1.14078 0
M  V30 12721 O 1269.86 1.39385 1.09091 0
M  V30 12722 C 1266.99 2.8808 1.86721 0
M  V30 12723 C 1266.07 3.99811 1.41463 0
M  V30 12724 N 1266.46 5.01261 0.676131 0
M  V30 12725 C 1264.76 4.12327 1.70008 0
M  V30 12726 C 1265.46 5.80017 0.442113 0
M  V30 12727 N 1264.44 5.34216 1.00569 0
M  V30 12728 H 1268.24 2.93739 0.0971953 0
M  V30 12729 H 1265.75 1.62332 -0.0469646 0
M  V30 12730 H 1267.75 3.31109 2.53322 0
M  V30 12731 H 1266.41 2.13789 2.44385 0
M  V30 12732 H 1267.42 5.1687 0.326459 0
M  V30 12733 H 1264.1 3.49206 2.28827 0
M  V30 12734 H 1265.49 6.71739 -0.14729 0
M  V30 12735 N 1268.21 -0.0283989 1.57574 0
M  V30 12736 C 1269.46 -0.719077 1.89303 0
M  V30 12737 C 1269.78 -1.75325 0.84211 0
M  V30 12738 O 1269.04 -1.95071 -0.15683 0
M  V30 12739 C 1269.34 -1.4247 3.27776 0
M  V30 12740 C 1269 -0.526442 4.47816 0
M  V30 12741 C 1267.67 -0.279038 4.8039 0
M  V30 12742 C 1270.02 0.0937038 5.21116 0
M  V30 12743 C 1267.35 0.597277 5.83652 0
M  V30 12744 C 1269.7 0.957725 6.25308 0
M  V30 12745 C 1268.36 1.21458 6.56357 0
M  V30 12746 H 1267.63 -0.263129 0.692708 0
M  V30 12747 H 1270.28 0.0210252 1.91488 0
M  V30 12748 H 1268.58 -2.23813 3.21582 0
M  V30 12749 H 1270.28 -1.96466 3.49574 0
M  V30 12750 H 1266.87 -0.729426 4.22347 0
M  V30 12751 H 1271.06 -0.084469 4.96228 0
M  V30 12752 H 1266.31 0.804582 6.06083 0
M  V30 12753 H 1270.49 1.44476 6.81249 0
M  V30 12754 H 1268.11 1.89534 7.36193 0
M  V30 12755 N 1269.69 -1.54705 -0.300681 0
M  V30 12756 C 1270.64 -1.86433 -1.39087 0
M  V30 12757 C 1271.63 -0.738101 -1.52474 0
M  V30 12758 O 1272.84 -0.922096 -1.54588 0
M  V30 12759 H 1269.21 -0.591314 -0.464599 0
M  V30 12760 H 1271.18 -2.77558 -1.09563 0
M  V30 12761 C 1269.93 -2.1286 -2.74929 0
M  V30 12762 H 1269.25 -2.98994 -2.6541 0
M  V30 12763 H 1270.69 -2.39 -3.50222 0
M  V30 12764 C 1269.15 -0.92726 -3.23888 0
M  V30 12765 O 1269.68 -0.147921 -4.01428 0
M  V30 12766 N 1267.89 -0.732553 -2.81215 0
M  V30 12767 H 1267.44 -1.36797 -2.18276 0
M  V30 12768 H 1267.39 0.0696902 -3.14323 0
M  V30 12769 N 1271.17 0.563888 -1.47167 0
M  V30 12770 C 1272.58 0.889156 -1.32537 0
M  V30 12771 C 1272.78 1.99088 -0.310854 0
M  V30 12772 O 1271.84 2.50943 0.27998 0
M  V30 12773 C 1273.15 1.28871 -2.71685 0
M  V30 12774 C 1274.7 1.40051 -2.79919 0
M  V30 12775 C 1275.17 1.83364 -4.19692 0
M  V30 12776 N 1276.67 1.90526 -4.22201 0
M  V30 12777 C 1277.4 2.25355 -5.2726 0
M  V30 12778 N 1276.9 2.58844 -6.42629 0
M  V30 12779 N 1278.69 2.26071 -5.14634 0
M  V30 12780 H 1270.84 -0.163581 -2.11769 0
M  V30 12781 H 1273.1 -0.0105151 -0.947942 0
M  V30 12782 H 1272.81 0.553057 -3.47324 0
M  V30 12783 H 1272.68 2.24629 -3.03021 0
M  V30 12784 H 1275.07 2.12698 -2.04557 0
M  V30 12785 H 1275.15 0.424971 -2.52245 0
M  V30 12786 H 1274.8 1.11289 -4.95557 0
M  V30 12787 H 1274.73 2.81909 -4.44786 0
M  V30 12788 H 1277.22 1.67059 -3.38968 0
M  V30 12789 H 1277.53 2.84427 -7.18555 0
M  V30 12790 H 1275.87 2.56439 -6.4596 0
M  V30 12791 H 1279.07 1.99343 -4.23533 0
M  V30 12792 H 1279.24 2.52885 -5.96618 0
M  V30 12793 N 1272.64 1.35187 0.810078 0
M  V30 12794 C 1273.55 1.29926 1.95337 0
M  V30 12795 C 1274.57 0.204748 1.72791 0
M  V30 12796 O 1275.75 0.433507 1.96679 0
M  V30 12797 C 1272.81 1.06736 3.29861 0
M  V30 12798 C 1271.87 2.25466 3.65326 0
M  V30 12799 C 1271.11 2.03373 4.93432 0
M  V30 12800 O 1271.33 0.998419 5.61594 0
M  V30 12801 O 1270.26 2.90648 5.27075 0
M  V30 12802 H 1274.09 2.26137 2.02721 0
M  V30 12803 H 1271.67 1.15523 0.947354 0
M  V30 12804 H 1273.56 0.956367 4.10404 0
M  V30 12805 H 1272.23 0.135735 3.23415 0
M  V30 12806 H 1271.14 2.42129 2.85175 0
M  V30 12807 H 1272.47 3.17063 3.76473 0
M  V30 12808 N 1274.12 -1.03182 1.19127 0
M  V30 12809 C 1275.4 -1.73586 0.901507 0
M  V30 12810 C 1275.78 -2.02585 -0.593521 0
M  V30 12811 O 1275.13 -1.67813 -1.55084 0
M  V30 12812 C 1275.34 -3.01472 1.75829 0
M  V30 12813 C 1276.69 -3.75037 1.99078 0
M  V30 12814 O 1277.71 -3.11392 1.72956 0
M  V30 12815 O 1276.57 -4.8945 2.43108 0
M  V30 12816 H 1273.66 -0.755797 0.335708 0
M  V30 12817 H 1276.21 -1.09167 1.29925 0
M  V30 12818 H 1274.98 -2.76247 2.77134 0
M  V30 12819 H 1274.6 -3.73631 1.35963 0
M  V30 12820 N 1275.6 -0.99472 -1.22242 0
M  V30 12821 C 1276.56 -0.551619 -2.22463 0
M  V30 12822 C 1277.56 0.366498 -1.56568 0
M  V30 12823 O 1278.75 0.158204 -1.7348 0
M  V30 12824 C 1275.89 0.197416 -3.40328 0
M  V30 12825 H 1277.08 -1.43795 -2.63179 0
M  V30 12826 H 1274.63 -0.782121 -1.35324 0
M  V30 12827 H 1275.37 1.09965 -3.05087 0
M  V30 12828 H 1275.15 -0.461829 -3.89371 0
M  V30 12829 H 1276.64 0.495534 -4.1465 0
M  V30 12830 N 1277.08 1.37613 -0.768148 0
M  V30 12831 C 1278.32 2.00075 -0.331331 0
M  V30 12832 C 1278.66 1.60839 1.08833 0
M  V30 12833 O 1277.93 0.852849 1.74805 0
M  V30 12834 C 1278.22 3.57009 -0.470789 0
M  V30 12835 C 1278.07 4.06166 -1.9326 0
M  V30 12836 C 1279.39 4.39916 0.127111 0
M  V30 12837 H 1276.51 0.726855 -0.121864 0
M  V30 12838 H 1279.15 1.63343 -0.970518 0
M  V30 12839 H 1277.3 3.88431 0.0733688 0
M  V30 12840 H 1278.97 3.85325 -2.53618 0
M  V30 12841 H 1277.21 3.58492 -2.44266 0
M  V30 12842 H 1277.88 5.15219 -1.98125 0
M  V30 12843 H 1280.36 4.14732 -0.337144 0
M  V30 12844 H 1279.24 5.489 -0.000624226 0
M  V30 12845 H 1279.5 4.25018 1.21704 0
M  V30 12846 N 1278.56 0.518393 1.4883 0
M  V30 12847 C 1279.49 -0.287642 2.27388 0
M  V30 12848 C 1280.5 -0.914974 1.34655 0
M  V30 12849 O 1281.69 -0.795373 1.598 0
M  V30 12850 C 1278.79 -1.42149 3.07647 0
M  V30 12851 C 1277.96 -0.898238 4.28078 0
M  V30 12852 C 1277.02 -1.91179 4.90242 0
M  V30 12853 O 1276.05 -1.47337 5.498 0
M  V30 12854 N 1277.25 -3.24331 4.81445 0
M  V30 12855 H 1280.02 0.386047 2.97203 0
M  V30 12856 H 1277.58 0.352002 1.58027 0
M  V30 12857 H 1279.57 -2.09745 3.46106 0
M  V30 12858 H 1278.14 -1.99903 2.40328 0
M  V30 12859 H 1277.36 -0.0466326 3.94172 0
M  V30 12860 H 1278.65 -0.527338 5.0606 0
M  V30 12861 H 1278.04 -3.62627 4.34187 0
M  V30 12862 H 1276.6 -3.87593 5.24037 0
M  V30 12863 N 1280.03 -1.55556 0.252993 0
M  V30 12864 C 1281.28 -1.99385 -0.370599 0
M  V30 12865 C 1281.61 -1.14101 -1.57145 0
M  V30 12866 O 1280.89 -0.205828 -1.93408 0
M  V30 12867 C 1281.17 -3.51672 -0.774503 0
M  V30 12868 C 1281.02 -4.47719 0.432159 0
M  V30 12869 C 1282.34 -4.0923 -1.61923 0
M  V30 12870 H 1279.46 -0.724858 -0.133231 0
M  V30 12871 H 1282.1 -1.86644 0.355522 0
M  V30 12872 H 1280.25 -3.62661 -1.39318 0
M  V30 12873 H 1281.93 -4.48704 1.07063 0
M  V30 12874 H 1280.17 -4.2029 1.07419 0
M  V30 12875 H 1280.84 -5.51898 0.106123 0
M  V30 12876 H 1283.32 -4.01381 -1.09693 0
M  V30 12877 H 1282.19 -5.16039 -1.87068 0
M  V30 12878 H 1282.45 -3.58067 -2.59307 0
M  V30 12879 N 1281.51 0.0200419 -1.57587 0
M  V30 12880 C 1282.79 0.744946 -1.80859 0
M  V30 12881 C 1283.17 1.93089 -0.853218 0
M  V30 12882 O 1282.52 2.28269 0.10261 0
M  V30 12883 C 1282.73 1.16952 -3.28821 0
M  V30 12884 C 1284.08 1.5817 -3.9404 0
M  V30 12885 O 1285.1 1.26385 -3.33024 0
M  V30 12886 O 1283.96 2.17197 -5.01486 0
M  V30 12887 H 1281.05 0.360995 -0.744051 0
M  V30 12888 H 1283.6 -0.00387374 -1.697 0
M  V30 12889 H 1282.37 0.323304 -3.89962 0
M  V30 12890 H 1281.99 1.97807 -3.44903 0
M  V30 12891 N 1282.99 1.54862 0.292472 0
M  V30 12892 C 1284.24 1.74807 1.02813 0
M  V30 12893 C 1284.57 0.536935 1.8663 0
M  V30 12894 O 1283.84 -0.465854 1.88839 0
M  V30 12895 C 1284.13 3.04202 1.927 0
M  V30 12896 C 1283.98 4.35631 1.12006 0
M  V30 12897 C 1285.3 3.29514 2.91734 0
M  V30 12898 H 1282.42 0.636015 0.372362 0
M  V30 12899 H 1285.06 1.87583 0.302069 0
M  V30 12900 H 1283.21 2.9344 2.54608 0
M  V30 12901 H 1284.88 4.58323 0.52319 0
M  V30 12902 H 1283.13 4.31733 0.42298 0
M  V30 12903 H 1283.8 5.22454 1.78172 0
M  V30 12904 H 1286.27 3.39941 2.39957 0
M  V30 12905 H 1285.15 4.21352 3.51786 0
M  V30 12906 H 1285.41 2.48216 3.65843 0
M  V30 12907 N 1284.47 -0.556076 1.47464 0
M  V30 12908 C 1285.72 -1.31061 1.53842 0
M  V30 12909 C 1286.04 -1.93943 0.202806 0
M  V30 12910 O 1285.31 -1.7999 -0.773338 0
M  V30 12911 H 1283.89 -0.486696 0.566689 0
M  V30 12912 H 1286.55 -0.64924 1.83769 0
M  V30 12913 H 1285.65 -2.10354 2.30559 0
M  V30 12914 N 1285.95 -1.35615 -0.802897 0
M  V30 12915 C 1286.9 -1.25378 -1.90432 0
M  V30 12916 C 1287.88 -0.148217 -1.60216 0
M  V30 12917 O 1289.07 -0.379783 -1.72878 0
M  V30 12918 C 1286.2 -1.03172 -3.2743 0
M  V30 12919 C 1285.29 -2.18135 -3.637 0
M  V30 12920 N 1285.68 -3.43382 -3.71379 0
M  V30 12921 C 1283.98 -2.09603 -3.93678 0
M  V30 12922 C 1284.68 -4.19004 -4.03498 0
M  V30 12923 N 1283.65 -3.47799 -4.17776 0
M  V30 12924 H 1287.46 -2.20267 -1.94576 0
M  V30 12925 H 1284.97 -1.2814 -0.997687 0
M  V30 12926 H 1286.97 -0.939264 -4.06182 0
M  V30 12927 H 1285.63 -0.0917091 -3.2457 0
M  V30 12928 H 1286.64 -3.77687 -3.54363 0
M  V30 12929 H 1283.32 -1.23479 -3.98822 0
M  V30 12930 H 1284.71 -5.27255 -4.16476 0
M  V30 12931 N 1287.43 1.02549 -1.19673 0
M  V30 12932 C 1288.39 2.09064 -0.939407 0
M  V30 12933 C 1289.39 1.60593 0.0814837 0
M  V30 12934 O 1290.58 1.73521 -0.153626 0
M  V30 12935 C 1287.71 3.38395 -0.412513 0
M  V30 12936 H 1288.9 2.33325 -1.88413 0
M  V30 12937 H 1286.46 1.19211 -1.01086 0
M  V30 12938 H 1287.19 3.19805 0.538094 0
M  V30 12939 H 1286.98 3.74898 -1.14863 0
M  V30 12940 H 1288.47 4.16841 -0.251678 0
M  V30 12941 N 1288.9 1.00119 1.21713 0
M  V30 12942 C 1290.13 0.700172 1.95224 0
M  V30 12943 C 1290.55 -0.730138 1.73351 0
M  V30 12944 O 1289.91 -1.50026 1.01794 0
M  V30 12945 C 1289.96 1.02202 3.45814 0
M  V30 12946 O 1289.06 0.125188 4.1221 0
M  V30 12947 H 1288.4 0.261238 0.610451 0
M  V30 12948 H 1290.93 1.34041 1.54578 0
M  V30 12949 H 1290.94 0.967293 3.96368 0
M  V30 12950 H 1289.62 2.06422 3.61058 0
M  V30 12951 H 1288.2 0.236114 3.72152 0
M  V30 12952 N 1290.38 -1.37203 0.775435 0
M  V30 12953 C 1291.63 -1.99207 0.340756 0
M  V30 12954 C 1291.95 -1.61861 -1.08747 0
M  V30 12955 O 1291.22 -0.88583 -1.74728 0
M  V30 12956 H 1289.8 -0.736803 0.123004 0
M  V30 12957 H 1292.46 -1.67625 0.994379 0
M  V30 12958 H 1291.56 -3.09243 0.421346 0
M  V30 12959 N 1291.86 -0.526279 -1.48553 0
M  V30 12960 C 1293.09 0.0052277 -2.06899 0
M  V30 12961 C 1293.5 1.2849 -1.38332 0
M  V30 12962 O 1292.86 1.76354 -0.469648 0
M  V30 12963 C 1292.91 0.236709 -3.60724 0
M  V30 12964 O 1292.63 -0.992256 -4.26715 0
M  V30 12965 C 1294.13 0.809014 -4.35855 0
M  V30 12966 H 1291.35 -0.0318426 -0.670244 0
M  V30 12967 H 1293.9 -0.730865 -1.90994 0
M  V30 12968 H 1292.05 0.922842 -3.76248 0
M  V30 12969 H 1292.47 -0.770697 -5.18807 0
M  V30 12970 H 1293.94 0.920428 -5.44272 0
M  V30 12971 H 1294.42 1.81302 -4.00033 0
M  V30 12972 H 1295.02 0.159564 -4.25001 0
M  V30 12973 N 1293.34 1.5542 -0.261239 0
M  V30 12974 C 1294.57 2.03687 0.363225 0
M  V30 12975 C 1294.98 1.14007 1.50492 0
M  V30 12976 O 1294.34 0.157349 1.8182 0
M  V30 12977 C 1294.39 3.51184 0.857435 0
M  V30 12978 O 1294.11 4.37449 -0.238776 0
M  V30 12979 C 1295.61 4.15277 1.55113 0
M  V30 12980 H 1292.83 0.665641 0.0846356 0
M  V30 12981 H 1295.37 2.00761 -0.389288 0
M  V30 12982 H 1293.53 3.54599 1.56008 0
M  V30 12983 H 1293.94 5.24316 0.138821 0
M  V30 12984 H 1295.42 5.20129 1.8485 0
M  V30 12985 H 1295.89 3.62619 2.47799 0
M  V30 12986 H 1296.5 4.15826 0.892695 0
M  V30 12987 N 1294.82 -0.0116844 1.57596 0
M  V30 12988 C 1296.23 -0.367602 1.55309 0
M  V30 12989 C 1296.43 -1.75524 0.98962 0
M  V30 12990 O 1295.49 -2.44813 0.618289 0
M  V30 12991 C 1296.8 -0.253532 2.99629 0
M  V30 12992 C 1298.35 -0.329335 3.11263 0
M  V30 12993 C 1298.82 -0.24452 4.57347 0
M  V30 12994 N 1300.31 -0.302782 4.62209 0
M  V30 12995 C 1301.05 -0.260315 5.72809 0
M  V30 12996 N 1300.55 -0.169124 6.92594 0
M  V30 12997 N 1302.34 -0.311323 5.61237 0
M  V30 12998 H 1294.49 0.896204 1.92567 0
M  V30 12999 H 1296.75 0.342445 0.883988 0
M  V30 13000 H 1296.46 0.70074 3.44648 0
M  V30 13001 H 1296.33 -1.04029 3.62571 0
M  V30 13002 H 1298.72 -1.27405 2.66181 0
M  V30 13003 H 1298.8 0.487084 2.5112 0
M  V30 13004 H 1298.44 0.696597 5.031 0
M  V30 13005 H 1298.37 -1.07927 5.15421 0
M  V30 13006 H 1300.87 -0.375067 3.76034 0
M  V30 13007 H 1301.18 -0.142296 7.72669 0
M  V30 13008 H 1299.52 -0.134919 6.94869 0
M  V30 13009 H 1302.71 -0.380678 4.6655 0
M  V30 13010 H 1302.89 -0.274761 6.47417 0
M  V30 13011 N 1296.29 -1.55015 -0.284256 0
M  V30 13012 C 1297.52 -1.79102 -1.03586 0
M  V30 13013 C 1297.94 -0.558733 -1.80343 0
M  V30 13014 O 1297.29 0.471925 -1.76293 0
M  V30 13015 C 1297.34 -3.00915 -2.0033 0
M  V30 13016 O 1297.07 -4.19384 -1.26685 0
M  V30 13017 C 1298.57 -3.3752 -2.87394 0
M  V30 13018 H 1295.79 -0.596912 -0.306491 0
M  V30 13019 H 1298.33 -2.02005 -0.31845 0
M  V30 13020 H 1296.49 -2.80171 -2.67549 0
M  V30 13021 H 1296.9 -4.88175 -1.91796 0
M  V30 13022 H 1298.37 -4.25953 -3.51095 0
M  V30 13023 H 1298.85 -2.56418 -3.56576 0
M  V30 13024 H 1299.46 -3.60483 -2.25682 0
M  V30 13025 N 1297.77 0.548248 -1.47757 0
M  V30 13026 C 1298.73 1.63666 -1.60456 0
M  V30 13027 C 1299.73 1.53499 -0.479028 0
M  V30 13028 O 1300.92 1.57497 -0.744342 0
M  V30 13029 C 1298.06 3.03239 -1.55754 0
M  V30 13030 H 1299.25 1.53752 -2.57488 0
M  V30 13031 H 1296.8 0.768881 -1.36081 0
M  V30 13032 H 1297.54 3.18677 -0.601303 0
M  V30 13033 H 1297.32 3.12027 -2.37448 0
M  V30 13034 H 1298.81 3.82406 -1.67797 0
M  V30 13035 N 1299.25 1.36039 0.795694 0
M  V30 13036 C 1300.5 1.30112 1.5556 0
M  V30 13037 C 1300.83 -0.121197 1.93821 0
M  V30 13038 O 1300.1 -1.07313 1.62216 0
M  V30 13039 C 1300.39 2.21792 2.8369 0
M  V30 13040 C 1300.24 3.72691 2.51836 0
M  V30 13041 C 1301.56 2.12365 3.85472 0
M  V30 13042 H 1298.68 0.473971 0.564376 0
M  V30 13043 H 1301.32 1.66536 0.91465 0
M  V30 13044 H 1299.47 1.9086 3.38386 0
M  V30 13045 H 1301.14 4.14115 2.0324 0
M  V30 13046 H 1299.38 3.92436 1.84869 0
M  V30 13047 H 1300.06 4.32242 3.43323 0
M  V30 13048 H 1302.53 2.3958 3.40207 0
M  V30 13049 H 1301.41 2.78695 4.72885 0
M  V30 13050 H 1301.67 1.10898 4.27965 0
M  V30 13051 N 1300.73 -1.01913 1.20215 0
M  V30 13052 C 1302.01 -1.7262 0.919867 0
M  V30 13053 C 1302.39 -2.03203 -0.572001 0
M  V30 13054 O 1301.73 -1.69448 -1.53296 0
M  V30 13055 C 1301.94 -2.9959 1.79016 0
M  V30 13056 C 1303.29 -3.72905 2.03045 0
M  V30 13057 O 1304.32 -3.0954 1.76249 0
M  V30 13058 O 1303.17 -4.86844 2.48285 0
M  V30 13059 H 1300.27 -0.752194 0.343705 0
M  V30 13060 H 1302.81 -1.07783 1.31076 0
M  V30 13061 H 1301.59 -2.73292 2.80048 0
M  V30 13062 H 1301.21 -3.72168 1.39918 0
M  V30 13063 N 1302.21 -1.00763 -1.2118 0
M  V30 13064 C 1303.14 -0.528468 -2.23024 0
M  V30 13065 C 1304.15 0.384348 -1.58198 0
M  V30 13066 O 1305.34 0.184127 -1.77548 0
M  V30 13067 C 1302.44 0.251693 -3.37964 0
M  V30 13068 C 1301.61 -0.660838 -4.32379 0
M  V30 13069 C 1300.67 0.0701723 -5.26153 0
M  V30 13070 O 1299.7 -0.549355 -5.66543 0
M  V30 13071 N 1300.9 1.34791 -5.64634 0
M  V30 13072 H 1303.67 -1.40428 -2.64764 0
M  V30 13073 H 1301.23 -0.884085 -1.3563 0
M  V30 13074 H 1303.22 0.749746 -3.97694 0
M  V30 13075 H 1301.79 1.02872 -2.95188 0
M  V30 13076 H 1301.01 -1.33934 -3.7075 0
M  V30 13077 H 1302.3 -1.28177 -4.9239 0
M  V30 13078 H 1301.69 1.87232 -5.33817 0
M  V30 13079 H 1300.25 1.79086 -6.26715 0
M  V30 13080 N 1303.68 1.3679 -0.7827 0
M  V30 13081 C 1305.1 1.52719 -0.463594 0
M  V30 13082 C 1305.3 1.73827 1.01914 0
M  V30 13083 O 1304.36 1.76591 1.80477 0
M  V30 13084 C 1305.67 2.71709 -1.2882 0
M  V30 13085 C 1307.22 2.85577 -1.2812 0
M  V30 13086 C 1307.69 4.07564 -2.0894 0
M  V30 13087 N 1309.18 4.14697 -2.0635 0
M  V30 13088 C 1309.92 5.08147 -2.65659 0
M  V30 13089 N 1309.41 6.07083 -3.33799 0
M  V30 13090 N 1311.21 5.00712 -2.55429 0
M  V30 13091 H 1303.36 1.21342 -1.74327 0
M  V30 13092 H 1305.62 0.591719 -0.740657 0
M  V30 13093 H 1305.33 2.62612 -2.3394 0
M  V30 13094 H 1305.2 3.65686 -0.924873 0
M  V30 13095 H 1307.59 2.94139 -0.237947 0
M  V30 13096 H 1307.67 1.92528 -1.68424 0
M  V30 13097 H 1307.31 3.99763 -3.13293 0
M  V30 13098 H 1307.24 4.99748 -1.66011 0
M  V30 13099 H 1309.73 3.43856 -1.56752 0
M  V30 13100 H 1310.05 6.74939 -3.764 0
M  V30 13101 H 1308.39 6.07329 -3.379 0
M  V30 13102 H 1311.58 4.22367 -2.01802 0
M  V30 13103 H 1311.76 5.73354 -3.01943 0
M  V30 13104 N 1305.16 0.53415 1.48272 0
M  V30 13105 C 1306.39 0.00368464 2.074 0
M  V30 13106 C 1306.81 -1.27003 1.38751 0
M  V30 13107 O 1306.17 -1.75502 0.454817 0
M  V30 13108 C 1306.22 -0.199034 3.6005 0
M  V30 13109 O 1305.32 -1.26679 3.92462 0
M  V30 13110 H 1304.66 0.0409936 0.662733 0
M  V30 13111 H 1307.19 0.743253 1.90622 0
M  V30 13112 H 1307.2 -0.420404 4.05828 0
M  V30 13113 H 1305.88 0.731391 4.09418 0
M  V30 13114 H 1304.46 -1.02775 3.58457 0
M  V30 13115 N 1306.64 -1.55279 0.269478 0
M  V30 13116 C 1307.89 -1.99077 -0.348224 0
M  V30 13117 C 1308.21 -1.15925 -1.568 0
M  V30 13118 O 1307.48 -0.247404 -1.94331 0
M  V30 13119 H 1306.06 -0.735307 -0.131653 0
M  V30 13120 H 1308.72 -1.91288 0.373506 0
M  V30 13121 H 1307.82 -3.05427 -0.641953 0
M  V30 13122 N 1308.12 0.00332656 -1.576 0
M  V30 13123 C 1309.37 0.687508 -1.90047 0
M  V30 13124 C 1309.69 1.74497 -0.870388 0
M  V30 13125 O 1308.96 1.95681 0.0926544 0
M  V30 13126 H 1307.54 0.256924 -0.701426 0
M  V30 13127 H 1310.2 -0.0368129 -1.94865 0
M  V30 13128 H 1309.3 1.16086 -2.89707 0
M  V30 13129 N 1309.6 1.55164 0.276031 0
M  V30 13130 C 1310.84 1.7528 1.00604 0
M  V30 13131 C 1311.17 0.555256 1.86928 0
M  V30 13132 O 1310.44 -0.429917 1.91124 0
M  V30 13133 H 1309.02 0.646377 0.374441 0
M  V30 13134 H 1311.68 1.92562 0.300992 0
M  V30 13135 H 1310.77 2.65245 1.64473 0
M  V30 13136 N 1311.07 -0.540404 1.48045 0
M  V30 13137 C 1312.32 -1.2987 1.55762 0
M  V30 13138 C 1312.65 -1.92877 0.226307 0
M  V30 13139 O 1311.93 -1.7875 -0.766727 0
M  V30 13140 C 1312.21 -2.39602 2.68817 0
M  V30 13141 C 1312.06 -1.81354 4.1162 0
M  V30 13142 C 1313.38 -3.41434 2.77688 0
M  V30 13143 H 1310.5 -0.47083 0.566999 0
M  V30 13144 H 1313.14 -0.603081 1.80175 0
M  V30 13145 H 1311.29 -2.98936 2.48132 0
M  V30 13146 H 1312.97 -1.26151 4.43716 0
M  V30 13147 H 1311.21 -1.1194 4.19108 0
M  V30 13148 H 1311.88 -2.60758 4.86528 0
M  V30 13149 H 1314.36 -2.92042 2.96396 0
M  V30 13150 H 1313.23 -4.15621 3.5854 0
M  V30 13151 H 1313.49 -4.01336 1.85422 0
M  V30 13152 N 1312.55 -1.36459 -0.788468 0
M  V30 13153 C 1313.8 -1.31942 -1.54799 0
M  V30 13154 C 1314.15 0.100282 -1.92138 0
M  V30 13155 O 1313.45 1.05505 -1.59935 0
M  V30 13156 C 1313.64 -2.17672 -2.83467 0
M  V30 13157 C 1313.47 -3.67836 -2.58702 0
M  V30 13158 C 1312.24 -4.37009 -2.53675 0
M  V30 13159 C 1314.44 -4.61081 -2.27835 0
M  V30 13160 N 1312.42 -5.72811 -2.20817 0
M  V30 13161 C 1313.79 -5.85137 -2.04973 0
M  V30 13162 C 1315.85 -4.49636 -2.13849 0
M  V30 13163 C 1314.55 -6.99034 -1.69541 0
M  V30 13164 C 1316.57 -5.63401 -1.79816 0
M  V30 13165 C 1315.94 -6.86497 -1.57803 0
M  V30 13166 H 1312.04 -0.538087 -0.567438 0
M  V30 13167 H 1314.62 -1.7152 -0.921358 0
M  V30 13168 H 1312.79 -1.80338 -3.43995 0
M  V30 13169 H 1314.52 -2.04539 -3.49208 0
M  V30 13170 H 1311.28 -3.89822 -2.68953 0
M  V30 13171 H 1311.7 -6.44535 -2.07132 0
M  V30 13172 H 1316.34 -3.55054 -2.29558 0
M  V30 13173 H 1314.06 -7.93567 -1.52571 0
M  V30 13174 H 1317.65 -5.56508 -1.69677 0
M  V30 13175 H 1316.53 -7.73036 -1.31855 0
M  V30 13176 N 1314.03 1.01274 -1.20754 0
M  V30 13177 C 1314.98 2.08285 -0.927426 0
M  V30 13178 C 1315.96 1.60494 0.114286 0
M  V30 13179 O 1317.16 1.76752 -0.0936086 0
M  V30 13180 C 1314.29 3.39849 -0.485546 0
M  V30 13181 C 1313.37 3.94331 -1.5609 0
M  V30 13182 N 1313.76 4.22274 -2.78421 0
M  V30 13183 C 1312.06 4.22522 -1.42797 0
M  V30 13184 C 1312.76 4.66262 -3.47813 0
M  V30 13185 N 1311.74 4.68771 -2.75235 0
M  V30 13186 H 1315.54 2.27804 -1.85695 0
M  V30 13187 H 1313.05 1.19278 -1.10211 0
M  V30 13188 H 1315.05 4.16049 -0.266263 0
M  V30 13189 H 1313.71 3.21742 0.437301 0
M  V30 13190 H 1314.72 4.11063 -3.15036 0
M  V30 13191 H 1311.4 4.13593 -0.569819 0
M  V30 13192 H 1312.79 4.9667 -4.52513 0
M  V30 13193 N 1315.51 1.01404 1.20644 0
M  V30 13194 C 1316.73 0.720839 1.9447 0
M  V30 13195 C 1317.16 -0.711711 1.74116 0
M  V30 13196 O 1316.52 -1.48938 1.03379 0
M  V30 13197 C 1316.57 1.05864 3.4471 0
M  V30 13198 O 1315.67 0.168901 4.12054 0
M  V30 13199 H 1315.01 0.267698 0.607646 0
M  V30 13200 H 1317.54 1.35672 1.53147 0
M  V30 13201 H 1317.55 1.00928 3.9532 0
M  V30 13202 H 1316.23 2.1024 3.58848 0
M  V30 13203 H 1314.8 0.275572 3.7188 0
M  V30 13204 N 1316.99 -1.36373 0.789944 0
M  V30 13205 C 1318.24 -1.98476 0.359165 0
M  V30 13206 C 1318.55 -1.634 -1.07517 0
M  V30 13207 O 1319.76 -2.18742 -1.60824 0
M  V30 13208 C 1318.21 -3.55011 0.591228 0
M  V30 13209 C 1317.82 -3.99011 2.03701 0
M  V30 13210 C 1319.56 -4.23903 0.224979 0
M  V30 13211 C 1317.47 -5.48325 2.2157 0
M  V30 13212 H 1316.4 -0.742612 0.130552 0
M  V30 13213 H 1319.05 -1.55664 0.971652 0
M  V30 13214 H 1317.43 -3.95895 -0.0909788 0
M  V30 13215 H 1318.61 -3.69324 2.75566 0
M  V30 13216 H 1316.92 -3.42957 2.36155 0
M  V30 13217 H 1319.52 -5.33638 0.336764 0
M  V30 13218 H 1319.86 -4.08004 -0.826964 0
M  V30 13219 H 1320.4 -3.88383 0.860443 0
M  V30 13220 H 1317.13 -5.69173 3.25149 0
M  V30 13221 H 1316.65 -5.79637 1.54211 0
M  V30 13222 H 1318.33 -6.14556 2.0231 0
M  V30 13223 N 1318.47 -0.542005 -1.47987 0
M  V30 13224 C 1319.71 -0.0122873 -2.02096 0
M  V30 13225 C 1320.03 1.3362 -1.42024 0
M  V30 13226 O 1319.3 1.86807 -0.589911 0
M  V30 13227 H 1317.88 -0.00155365 -0.746998 0
M  V30 13228 H 1320.55 -0.708566 -1.81564 0
M  V30 13229 H 1319.64 0.0871275 -3.11978 0
M  V30 13230 N 1319.94 1.55134 -0.277709 0
M  V30 13231 C 1321.17 2.04061 0.341601 0
M  V30 13232 C 1321.59 1.15597 1.49274 0
M  V30 13233 O 1320.94 0.176625 1.81643 0
M  V30 13234 C 1320.99 3.52074 0.820139 0
M  V30 13235 O 1320.72 4.37171 -0.28516 0
M  V30 13236 C 1322.22 4.16899 1.507 0
M  V30 13237 H 1319.44 0.666501 0.0775708 0
M  V30 13238 H 1321.98 2.00336 -0.410559 0
M  V30 13239 H 1320.14 3.56233 1.52238 0
M  V30 13240 H 1320.55 5.24434 0.0832022 0
M  V30 13241 H 1322.02 5.22061 1.79323 0
M  V30 13242 H 1322.5 3.65227 2.43939 0
M  V30 13243 H 1323.11 4.16749 0.848541 0
M  V30 13244 N 1321.42 0.00503138 1.57599 0
M  V30 13245 C 1322.65 -0.688609 1.94786 0
M  V30 13246 C 1323.06 -1.67558 0.878698 0
M  V30 13247 O 1322.4 -1.83083 -0.150486 0
M  V30 13248 C 1322.46 -1.47183 3.2799 0
M  V30 13249 C 1322.13 -0.64589 4.52413 0
M  V30 13250 C 1323.13 0.0685859 5.19855 0
M  V30 13251 C 1320.81 -0.590379 4.98818 0
M  V30 13252 C 1322.8 0.827505 6.32006 0
M  V30 13253 C 1320.49 0.172262 6.10857 0
M  V30 13254 C 1321.49 0.879932 6.77308 0
M  V30 13255 O 1321.18 1.63012 7.87199 0
M  V30 13256 H 1320.91 -0.196416 0.646836 0
M  V30 13257 H 1323.46 0.0537933 2.0533 0
M  V30 13258 H 1321.69 -2.25883 3.13869 0
M  V30 13259 H 1323.38 -2.05129 3.50253 0
M  V30 13260 H 1324.15 0.0348834 4.84987 0
M  V30 13261 H 1320.03 -1.13074 4.46918 0
M  V30 13262 H 1323.57 1.3804 6.83806 0
M  V30 13263 H 1319.47 0.207767 6.45166 0
M  V30 13264 H 1320.24 1.54736 8.03741 0
M  V30 13265 N 1322.9 -1.55308 -0.267798 0
M  V30 13266 C 1323.81 -1.91649 -1.35307 0
M  V30 13267 C 1324.83 -0.814349 -1.53767 0
M  V30 13268 O 1326 -1.11388 -1.67793 0
M  V30 13269 C 1323.07 -2.18553 -2.69138 0
M  V30 13270 C 1322.13 -3.42083 -2.5938 0
M  V30 13271 C 1321.36 -3.67695 -3.86828 0
M  V30 13272 O 1321.58 -2.95728 -4.87751 0
M  V30 13273 O 1320.52 -4.61229 -3.86718 0
M  V30 13274 H 1324.34 -2.84044 -1.07483 0
M  V30 13275 H 1321.93 -1.41921 -0.466772 0
M  V30 13276 H 1323.81 -2.3726 -3.48261 0
M  V30 13277 H 1322.49 -1.2934 -2.96737 0
M  V30 13278 H 1321.39 -3.28706 -1.78614 0
M  V30 13279 H 1322.73 -4.31532 -2.36729 0
M  V30 13280 N 1324.38 0.532545 -1.4833 0
M  V30 13281 C 1325.62 1.28851 -1.56217 0
M  V30 13282 C 1325.95 1.93076 -0.234967 0
M  V30 13283 O 1325.21 1.79722 0.774508 0
M  V30 13284 C 1325.51 2.40117 -2.64724 0
M  V30 13285 C 1325.17 1.93562 -4.0724 0
M  V30 13286 C 1323.83 1.80583 -4.46031 0
M  V30 13287 C 1326.19 1.58349 -4.96563 0
M  V30 13288 C 1323.51 1.30722 -5.71952 0
M  V30 13289 C 1325.87 1.09951 -6.22972 0
M  V30 13290 C 1324.53 0.955866 -6.60621 0
M  V30 13291 H 1323.8 0.4715 -0.571637 0
M  V30 13292 H 1326.45 0.594564 -1.82036 0
M  V30 13293 H 1324.75 3.15171 -2.32754 0
M  V30 13294 H 1326.45 2.98252 -2.68042 0
M  V30 13295 H 1323.04 2.04614 -3.76605 0
M  V30 13296 H 1327.22 1.67237 -4.67274 0
M  V30 13297 H 1322.48 1.18286 -5.99849 0
M  V30 13298 H 1326.65 0.817736 -6.91582 0
M  V30 13299 H 1324.28 0.567302 -7.5808 0
M  V30 13300 N 1325.86 1.36875 0.78122 0
M  V30 13301 C 1326.79 1.34559 1.9083 0
M  V30 13302 C 1327.77 0.215713 1.68727 0
M  V30 13303 O 1328.95 0.41462 1.89722 0
M  V30 13304 C 1326.08 1.14233 3.27976 0
M  V30 13305 C 1325.04 2.24132 3.64621 0
M  V30 13306 C 1324.36 1.8894 5.00206 0
M  V30 13307 C 1325.66 3.66266 3.72353 0
M  V30 13308 H 1327.36 2.28871 1.93025 0
M  V30 13309 H 1324.9 1.10171 0.927275 0
M  V30 13310 H 1326.85 1.11246 4.06451 0
M  V30 13311 H 1325.58 0.163747 3.26189 0
M  V30 13312 H 1324.24 2.26259 2.88448 0
M  V30 13313 H 1323.89 0.896351 4.94949 0
M  V30 13314 H 1323.59 2.62525 5.25694 0
M  V30 13315 H 1325.11 1.87523 5.81092 0
M  V30 13316 H 1326.52 3.66321 4.41001 0
M  V30 13317 H 1324.92 4.38825 4.09332 0
M  V30 13318 H 1325.99 4.00578 2.7325 0
M  V30 13319 N 1327.33 -1.00632 1.21289 0
M  V30 13320 C 1328.3 -2.07543 0.972548 0
M  V30 13321 C 1329.3 -1.60703 -0.0559244 0
M  V30 13322 O 1330.49 -1.73255 0.181213 0
M  V30 13323 C 1327.62 -3.37696 0.466297 0
M  V30 13324 H 1328.81 -2.30298 1.92101 0
M  V30 13325 H 1326.36 -1.17588 1.02969 0
M  V30 13326 H 1327.1 -3.2062 -0.487148 0
M  V30 13327 H 1326.88 -3.73024 1.20813 0
M  V30 13328 H 1328.37 -4.16388 0.317962 0
M  V30 13329 N 1328.81 -1.02043 -1.20104 0
M  V30 13330 C 1330.06 -0.710566 -1.89197 0
M  V30 13331 C 1330.38 0.762471 -1.79475 0
M  V30 13332 O 1329.65 1.54871 -1.19965 0
M  V30 13333 H 1328.23 -0.259839 -0.700352 0
M  V30 13334 H 1330.89 -1.29285 -1.45848 0
M  V30 13335 H 1329.99 -0.997363 -2.95735 0
M  V30 13336 N 1330.29 1.35952 -0.797165 0
M  V30 13337 C 1331.52 2.0381 -0.38421 0
M  V30 13338 C 1331.94 1.597 0.993854 0
M  V30 13339 O 1331.3 0.769148 1.64176 0
M  V30 13340 C 1331.35 3.57589 -0.465054 0
M  V30 13341 O 1330.45 4.09043 0.525095 0
M  V30 13342 H 1329.79 0.643957 -0.161912 0
M  V30 13343 H 1332.32 1.73746 -1.08043 0
M  V30 13344 H 1332.33 4.06651 -0.331448 0
M  V30 13345 H 1331.01 3.89045 -1.47027 0
M  V30 13346 H 1329.58 3.7123 0.352509 0
M  V30 13347 N 1331.77 0.549846 1.47697 0
M  V30 13348 C 1333.02 0.0230048 2.02087 0
M  V30 13349 C 1333.34 -1.32865 1.4273 0
M  V30 13350 O 1332.61 -1.86492 0.59981 0
M  V30 13351 H 1331.19 0.00551514 0.74698 0
M  V30 13352 H 1333.85 0.718185 1.81185 0
M  V30 13353 H 1332.95 -0.0705813 3.1202 0
M  V30 13354 N 1333.25 -1.54984 0.285932 0
M  V30 13355 C 1334.49 -1.99436 -0.32709 0
M  V30 13356 C 1334.82 -1.17582 -1.55562 0
M  V30 13357 O 1334.09 -0.268002 -1.94058 0
M  V30 13358 H 1332.67 -0.736662 -0.123846 0
M  V30 13359 H 1335.33 -1.90881 0.393774 0
M  V30 13360 H 1334.42 -3.0609 -0.609523 0
M  V30 13361 N 1334.72 -0.0133892 -1.57594 0
M  V30 13362 C 1335.95 0.682855 -1.95836 0
M  V30 13363 C 1336.37 1.65763 -0.889049 0
M  V30 13364 O 1335.73 1.80665 0.151585 0
M  V30 13365 C 1335.78 1.37931 -3.33178 0
M  V30 13366 O 1334.88 2.49416 -3.28429 0
M  V30 13367 H 1334.23 0.180629 -0.638959 0
M  V30 13368 H 1336.76 -0.0705644 -2.04478 0
M  V30 13369 H 1336.77 1.73969 -3.69051 0
M  V30 13370 H 1335.44 0.664675 -4.10554 0
M  V30 13371 H 1334.02 2.15606 -3.04251 0
M  V30 13372 N 1336.2 1.55448 0.259558 0
M  V30 13373 C 1337.45 1.76948 0.990816 0
M  V30 13374 C 1337.78 0.576401 1.85449 0
M  V30 13375 O 1337.06 -0.425693 1.89784 0
M  V30 13376 C 1337.34 3.08221 1.86204 0
M  V30 13377 C 1337.19 4.37909 1.0274 0
M  V30 13378 C 1338.51 3.35627 2.84679 0
M  V30 13379 H 1335.63 0.64377 0.358788 0
M  V30 13380 H 1338.27 1.88182 0.262211 0
M  V30 13381 H 1336.42 2.98775 2.48326 0
M  V30 13382 H 1338.09 4.5933 0.425855 0
M  V30 13383 H 1336.34 4.32533 0.331308 0
M  V30 13384 H 1337.01 5.26116 1.6705 0
M  V30 13385 H 1339.48 3.44954 2.32693 0
M  V30 13386 H 1338.36 4.28719 3.42769 0
M  V30 13387 H 1338.62 2.55921 3.60496 0
M  V30 13388 N 1337.68 -0.524672 1.4861 0
M  V30 13389 C 1338.91 -1.30482 1.60568 0
M  V30 13390 C 1339.32 -1.86889 0.267952 0
M  V30 13391 O 1338.68 -1.66669 -0.743488 0
M  V30 13392 C 1338.73 -2.45191 2.65638 0
M  V30 13393 O 1338.45 -1.91107 3.9422 0
M  V30 13394 C 1339.95 -3.36931 2.88084 0
M  V30 13395 H 1337.17 -0.396612 0.541239 0
M  V30 13396 H 1339.72 -0.632392 1.94476 0
M  V30 13397 H 1337.87 -3.08308 2.34574 0
M  V30 13398 H 1338.29 -2.66234 4.51907 0
M  V30 13399 H 1339.76 -4.13755 3.65391 0
M  V30 13400 H 1340.24 -3.92487 1.97106 0
M  V30 13401 H 1340.84 -2.79601 3.20473 0
M  V30 13402 N 1339.16 -1.37287 -0.77395 0
M  V30 13403 C 1340.41 -1.31698 -1.52769 0
M  V30 13404 C 1340.72 0.0968585 -1.9536 0
M  V30 13405 O 1341.93 0.275205 -2.70102 0
M  V30 13406 C 1340.38 -2.31154 -2.75854 0
M  V30 13407 C 1339.99 -3.78055 -2.40371 0
M  V30 13408 C 1341.73 -2.34572 -3.53803 0
M  V30 13409 C 1339.64 -4.69248 -3.59945 0
M  V30 13410 H 1338.57 -0.489456 -0.573541 0
M  V30 13411 H 1341.22 -1.62735 -0.84791 0
M  V30 13412 H 1339.6 -1.93132 -3.45711 0
M  V30 13413 H 1340.78 -4.24902 -1.78312 0
M  V30 13414 H 1339.09 -3.77562 -1.75602 0
M  V30 13415 H 1341.69 -2.99908 -4.42673 0
M  V30 13416 H 1342.03 -1.35868 -3.93504 0
M  V30 13417 H 1342.57 -2.7129 -2.90941 0
M  V30 13418 H 1339.31 -5.69072 -3.25327 0
M  V30 13419 H 1338.83 -4.27108 -4.21117 0
M  V30 13420 H 1340.5 -4.86275 -4.26785 0
M  V30 13421 N 1340.64 0.999871 -1.21821 0
M  V30 13422 C 1342.05 1.26228 -0.976664 0
M  V30 13423 C 1342.25 1.98714 0.333915 0
M  V30 13424 O 1341.31 2.29252 1.05829 0
M  V30 13425 C 1342.62 2.08089 -2.1707 0
M  V30 13426 C 1344.17 2.21298 -2.21351 0
M  V30 13427 C 1344.64 3.06544 -3.40287 0
M  V30 13428 N 1346.14 3.14131 -3.40405 0
M  V30 13429 C 1346.87 3.80362 -4.29083 0
M  V30 13430 N 1346.37 4.48577 -5.27968 0
M  V30 13431 N 1348.16 3.77053 -4.16878 0
M  V30 13432 H 1340.31 0.513704 -2.06094 0
M  V30 13433 H 1342.57 0.289447 -0.902732 0
M  V30 13434 H 1342.28 1.62183 -3.12073 0
M  V30 13435 H 1342.15 3.08843 -2.16554 0
M  V30 13436 H 1344.54 2.66422 -1.269 0
M  V30 13437 H 1344.62 1.19997 -2.25908 0
M  V30 13438 H 1344.27 2.62122 -4.35034 0
M  V30 13439 H 1344.2 4.0797 -3.32969 0
M  V30 13440 H 1346.69 2.65576 -2.68846 0
M  V30 13441 H 1347 4.96833 -5.91926 0
M  V30 13442 H 1345.34 4.47348 -5.31888 0
M  V30 13443 H 1348.54 3.22918 -3.38883 0
M  V30 13444 H 1348.71 4.2839 -4.86195 0
M  V30 13445 N 1342.11 1.02678 1.19562 0
M  V30 13446 C 1343.06 0.599259 2.24748 0
M  V30 13447 C 1344.06 -0.367079 1.65375 0
M  V30 13448 O 1345.26 -0.235887 1.78448 0
M  V30 13449 H 1341.64 0.175517 0.73123 0
M  V30 13450 H 1343.61 1.4971 2.58127 0
M  V30 13451 C 1342.36 -0.0362515 3.47681 0
M  V30 13452 H 1341.68 0.698343 3.93654 0
M  V30 13453 H 1343.12 -0.298361 4.22949 0
M  V30 13454 C 1341.58 -1.28218 3.11547 0
M  V30 13455 O 1342.11 -2.37446 3.24009 0
M  V30 13456 N 1340.32 -1.17014 2.66 0
M  V30 13457 H 1339.86 -0.28132 2.56059 0
M  V30 13458 H 1339.82 -2.00473 2.42194 0
M  V30 13459 N 1343.59 -1.35528 0.804364 0
M  V30 13460 C 1344.87 -1.93175 0.307049 0
M  V30 13461 C 1345.25 -1.73466 -1.20303 0
M  V30 13462 O 1344.6 -1.10235 -2.00151 0
M  V30 13463 C 1344.81 -3.41576 0.716018 0
M  V30 13464 C 1346.16 -4.18719 0.704242 0
M  V30 13465 O 1347.18 -3.50081 0.657423 0
M  V30 13466 O 1346.04 -5.41181 0.760601 0
M  V30 13467 H 1343.13 -0.823142 0.0797888 0
M  V30 13468 H 1345.68 -1.44617 0.887912 0
M  V30 13469 H 1344.45 -3.49642 1.75688 0
M  V30 13470 H 1344.07 -3.97448 0.109843 0
M  V30 13471 N 1345.07 -0.557671 -1.47404 0
M  V30 13472 C 1346.03 0.179311 -2.28498 0
M  V30 13473 C 1347.03 0.842281 -1.36975 0
M  V30 13474 O 1348.22 0.698072 -1.59601 0
M  V30 13475 C 1345.36 1.26229 -3.16668 0
M  V30 13476 H 1346.55 -0.533033 -2.95125 0
M  V30 13477 H 1344.1 -0.314634 -1.531 0
M  V30 13478 H 1344.84 2.00702 -2.54733 0
M  V30 13479 H 1344.62 0.791712 -3.84024 0
M  V30 13480 H 1346.11 1.77991 -3.77768 0
M  V30 13481 N 1346.55 1.54831 -0.294147 0
M  V30 13482 C 1347.48 2.26226 0.57827 0
M  V30 13483 C 1348.46 1.25928 1.14351 0
M  V30 13484 O 1349.65 1.54687 1.17412 0
M  V30 13485 C 1346.78 2.99783 1.75349 0
M  V30 13486 C 1345.73 4.07171 1.31892 0
M  V30 13487 C 1345.06 4.68406 2.57876 0
M  V30 13488 C 1346.36 5.20313 0.455167 0
M  V30 13489 H 1348.05 2.99395 -0.0171936 0
M  V30 13490 H 1345.6 1.43997 -0.00970944 0
M  V30 13491 H 1347.55 3.48448 2.36986 0
M  V30 13492 H 1346.27 2.24181 2.37509 0
M  V30 13493 H 1344.93 3.59346 0.725653 0
M  V30 13494 H 1344.58 3.89451 3.18335 0
M  V30 13495 H 1344.28 5.40927 2.29502 0
M  V30 13496 H 1345.8 5.1983 3.20327 0
M  V30 13497 H 1347.22 5.64913 0.977026 0
M  V30 13498 H 1345.61 5.99512 0.265501 0
M  V30 13499 H 1346.68 4.82088 -0.521434 0
M  V30 13500 N 1348.03 0.0217466 1.57585 0
M  V30 13501 C 1349.28 -0.657187 1.91116 0
M  V30 13502 C 1349.6 -1.7309 0.898039 0
M  V30 13503 O 1348.87 -1.95803 -0.0615116 0
M  V30 13504 H 1347.45 -0.245732 0.705425 0
M  V30 13505 H 1350.11 0.0678096 1.94782 0
M  V30 13506 H 1349.2 -1.11462 2.91518 0
M  V30 13507 N 1349.51 -1.55583 -0.251311 0
M  V30 13508 C 1350.73 -1.81597 -1.00186 0
M  V30 13509 C 1351.16 -0.598216 -1.78334 0
M  V30 13510 O 1350.51 0.452667 -1.75558 0
M  V30 13511 C 1350.56 -3.05301 -1.91895 0
M  V30 13512 O 1349.67 -2.81907 -3.01002 0
M  V30 13513 H 1349.01 -0.599578 -0.285311 0
M  V30 13514 H 1351.54 -2.02762 -0.273638 0
M  V30 13515 H 1351.55 -3.34616 -2.33444 0
M  V30 13516 H 1350.22 -3.93574 -1.34433 0
M  V30 13517 H 1348.8 -2.63747 -2.63613 0
M  V30 13518 N 1350.98 0.516783 -1.48886 0
M  V30 13519 C 1352.39 1.09856 -1.50959 0
M  V30 13520 C 1352.75 1.94092 -0.28681 0
M  V30 13521 O 1351.87 2.07774 0.604877 0
M  V30 13522 C 1352.47 1.999 -2.73542 0
M  V30 13523 C 1351.02 2.5327 -2.78444 0
M  V30 13524 C 1350.17 1.30526 -2.44659 0
M  V30 13525 H 1353.12 0.301415 -1.55811 0
M  V30 13526 H 1353.14 2.84373 -2.52809 0
M  V30 13527 H 1352.66 1.38564 -3.62521 0
M  V30 13528 H 1350.76 3.1829 -1.93707 0
M  V30 13529 H 1350.87 2.91502 -3.80215 0
M  V30 13530 H 1349.23 1.62536 -1.96097 0
M  V30 13531 H 1350.02 0.709223 -3.35894 0
M  V30 13532 N 1352.46 1.37696 0.766659 0
M  V30 13533 C 1353.74 1.23715 1.51506 0
M  V30 13534 C 1354.12 -0.167091 2.10438 0
M  V30 13535 O 1353.47 -1.17526 1.95959 0
M  V30 13536 C 1353.68 2.33715 2.59188 0
M  V30 13537 C 1355.02 2.71504 3.26451 0
M  V30 13538 O 1356.05 2.32929 2.69486 0
M  V30 13539 O 1354.91 3.37981 4.29454 0
M  V30 13540 H 1352 0.483046 0.671264 0
M  V30 13541 H 1354.55 1.49489 0.803188 0
M  V30 13542 H 1353.32 3.27729 2.13797 0
M  V30 13543 H 1352.94 2.09433 3.3797 0
M  V30 13544 N 1353.94 -0.993397 1.22349 0
M  V30 13545 C 1355.19 -1.72945 1.04568 0
M  V30 13546 C 1355.51 -1.90419 -0.420178 0
M  V30 13547 O 1354.78 -1.46348 -1.30227 0
M  V30 13548 H 1353.36 -0.640777 0.383945 0
M  V30 13549 H 1356.02 -1.19647 1.53853 0
M  V30 13550 H 1355.12 -2.72411 1.52311 0
M  V30 13551 N 1355.42 -1.03311 -1.19015 0
M  V30 13552 C 1356.65 -0.750712 -1.92478 0
M  V30 13553 C 1357.06 0.694964 -1.75974 0
M  V30 13554 O 1356.4 1.4847 -1.08177 0
M  V30 13555 C 1356.46 -1.02757 -3.44501 0
M  V30 13556 C 1356.12 -2.46565 -3.84779 0
M  V30 13557 C 1357.12 -3.44716 -3.89187 0
M  V30 13558 C 1354.81 -2.81076 -4.16295 0
M  V30 13559 C 1356.8 -4.75433 -4.24549 0
M  V30 13560 C 1354.49 -4.12002 -4.51329 0
M  V30 13561 C 1355.49 -5.08991 -4.55431 0
M  V30 13562 O 1355.17 -6.37571 -4.89652 0
M  V30 13563 H 1354.91 -0.273717 -0.618106 0
M  V30 13564 H 1357.46 -1.38176 -1.51975 0
M  V30 13565 H 1355.69 -0.339383 -3.85208 0
M  V30 13566 H 1357.38 -0.734175 -3.99205 0
M  V30 13567 H 1358.14 -3.19392 -3.64985 0
M  V30 13568 H 1354.02 -2.0626 -4.12284 0
M  V30 13569 H 1357.57 -5.51133 -4.27666 0
M  V30 13570 H 1353.46 -4.37098 -4.7499 0
M  V30 13571 H 1354.23 -6.42107 -5.07583 0
M  V30 13572 N 1356.9 1.35099 -0.81154 0
M  V30 13573 C 1358.14 1.9892 -0.394815 0
M  V30 13574 C 1358.47 1.6422 1.0366 0
M  V30 13575 O 1357.75 0.908031 1.72003 0
M  V30 13576 C 1358.03 3.55331 -0.58413 0
M  V30 13577 C 1357.89 3.99812 -2.06084 0
M  V30 13578 C 1359.2 4.40098 -0.0129096 0
M  V30 13579 H 1356.32 0.72261 -0.144926 0
M  V30 13580 H 1358.97 1.60173 -1.02199 0
M  V30 13581 H 1357.12 3.88468 -0.0502446 0
M  V30 13582 H 1358.79 3.77061 -2.65749 0
M  V30 13583 H 1357.03 3.50539 -2.55548 0
M  V30 13584 H 1357.7 5.08655 -2.14416 0
M  V30 13585 H 1360.18 4.13449 -0.468917 0
M  V30 13586 H 1359.05 5.4862 -0.175252 0
M  V30 13587 H 1359.31 4.28675 1.0812 0
M  V30 13588 N 1358.37 0.56548 1.47106 0
M  V30 13589 C 1359.62 0.0445914 2.02751 0
M  V30 13590 C 1359.95 -1.30517 1.43801 0
M  V30 13591 O 1359.23 -1.85123 0.596646 0
M  V30 13592 C 1359.51 -0.0396474 3.60078 0
M  V30 13593 C 1359.36 1.3378 4.29445 0
M  V30 13594 C 1360.68 -0.748954 4.3368 0
M  V30 13595 H 1357.8 0.0176787 0.736788 0
M  V30 13596 H 1360.44 0.729363 1.75443 0
M  V30 13597 H 1358.59 -0.622826 3.83475 0
M  V30 13598 H 1360.27 1.96482 4.17364 0
M  V30 13599 H 1358.51 1.91024 3.89477 0
M  V30 13600 H 1359.18 1.23149 5.38088 0
M  V30 13601 H 1361.66 -0.253707 4.15326 0
M  V30 13602 H 1360.53 -0.776877 5.43374 0
M  V30 13603 H 1360.79 -1.80679 4.03494 0
M  V30 13604 N 1359.85 -1.54672 0.302354 0
M  V30 13605 C 1360.82 -2.22246 -0.560283 0
M  V30 13606 C 1361.82 -1.20895 -1.06023 0
M  V30 13607 O 1363.01 -1.45621 -0.956047 0
M  V30 13608 C 1360.14 -2.9099 -1.77589 0
M  V30 13609 H 1361.33 -2.99885 0.0301274 0
M  V30 13610 H 1358.88 -1.56209 0.0532036 0
M  V30 13611 H 1359.62 -2.17433 -2.4061 0
M  V30 13612 H 1359.4 -3.65288 -1.42503 0
M  V30 13613 H 1360.89 -3.42535 -2.38871 0
M  V30 13614 N 1361.33 -0.0301034 -1.57571 0
M  V30 13615 C 1362.61 0.68703 -1.83137 0
M  V30 13616 C 1362.99 1.90277 -0.914216 0
M  V30 13617 O 1362.34 2.2848 0.0299358 0
M  V30 13618 C 1362.55 1.06431 -3.32375 0
M  V30 13619 C 1363.89 1.45554 -3.98873 0
M  V30 13620 O 1364.92 1.15727 -3.36877 0
M  V30 13621 O 1363.78 2.01133 -5.08142 0
M  V30 13622 H 1360.87 0.337141 -0.755159 0
M  V30 13623 H 1363.42 -0.0578604 -1.69601 0
M  V30 13624 H 1362.19 0.199077 -3.90793 0
M  V30 13625 H 1361.81 1.86734 -3.51022 0
M  V30 13626 N 1362.81 1.55714 0.243056 0
M  V30 13627 C 1363.77 1.89832 1.28438 0
M  V30 13628 C 1364.77 0.775083 1.40887 0
M  V30 13629 O 1365.96 1.04304 1.39521 0
M  V30 13630 C 1363.09 2.13016 2.66153 0
M  V30 13631 H 1364.29 2.82947 0.994022 0
M  V30 13632 H 1361.84 1.48665 0.482521 0
M  V30 13633 H 1362.57 1.22381 3.00322 0
M  V30 13634 H 1362.36 2.94824 2.58498 0
M  V30 13635 H 1363.85 2.40581 3.41336 0
M  V30 13636 N 1364.29 -0.50888 1.49158 0
M  V30 13637 C 1365.53 -1.26537 1.58481 0
M  V30 13638 C 1365.87 -1.92353 0.267168 0
M  V30 13639 O 1365.14 -1.80336 -0.728639 0
M  V30 13640 C 1365.42 -2.33846 2.73839 0
M  V30 13641 C 1365.28 -1.72582 4.15374 0
M  V30 13642 C 1366.6 -3.35467 2.84868 0
M  V30 13643 H 1363.71 -0.458697 0.576859 0
M  V30 13644 H 1366.36 -0.564728 1.81413 0
M  V30 13645 H 1364.51 -2.93605 2.54417 0
M  V30 13646 H 1366.18 -1.16711 4.46292 0
M  V30 13647 H 1364.42 -1.03025 4.21389 0
M  V30 13648 H 1365.09 -2.5038 4.91949 0
M  V30 13649 H 1367.57 -2.85689 3.02524 0
M  V30 13650 H 1366.44 -4.07922 3.67275 0
M  V30 13651 H 1366.71 -3.97313 1.93894 0
M  V30 13652 N 1365.76 -1.381 -0.759346 0
M  V30 13653 C 1366.71 -1.34866 -1.87296 0
M  V30 13654 C 1367.68 -0.212139 -1.6474 0
M  V30 13655 O 1368.87 -0.403464 -1.86485 0
M  V30 13656 C 1366.01 -1.17383 -3.24523 0
M  V30 13657 C 1365.12 -2.40372 -3.5895 0
M  V30 13658 C 1364.25 -2.15665 -4.8545 0
M  V30 13659 C 1363.29 -3.34455 -5.12646 0
M  V30 13660 N 1362.43 -3.0922 -6.30339 0
M  V30 13661 H 1367.27 -2.30072 -1.89396 0
M  V30 13662 H 1364.81 -1.14314 -0.925788 0
M  V30 13663 H 1366.77 -1.05264 -4.03702 0
M  V30 13664 H 1365.4 -0.258182 -3.21766 0
M  V30 13665 H 1364.45 -2.63185 -2.74659 0
M  V30 13666 H 1365.76 -3.28926 -3.74978 0
M  V30 13667 H 1364.91 -2.00649 -5.7256 0
M  V30 13668 H 1363.65 -1.24467 -4.7155 0
M  V30 13669 H 1362.66 -3.49997 -4.24007 0
M  V30 13670 H 1363.88 -4.26521 -5.28448 0
M  V30 13671 H 1361.83 -2.20664 -6.17773 0
M  V30 13672 H 1361.75 -3.91321 -6.46841 0
M  V30 13673 H 1363.01 -2.97847 -7.20352 0
M  V30 13674 N 1367.24 0.986894 -1.22875 0
M  V30 13675 C 1368.49 1.72729 -1.05693 0
M  V30 13676 C 1368.82 1.90191 0.407121 0
M  V30 13677 O 1368.07 1.44667 1.31796 0
M  V30 13678 C 1368.37 3.13283 -1.72012 0
M  V30 13679 C 1368.04 3.15719 -3.2192 0
M  V30 13680 C 1366.7 3.1609 -3.62823 0
M  V30 13681 C 1369.05 3.11539 -4.17843 0
M  V30 13682 C 1366.38 3.09991 -4.98119 0
M  V30 13683 C 1368.73 3.06982 -5.53123 0
M  V30 13684 C 1367.4 3.05672 -5.93397 0
M  V30 13685 H 1366.67 0.63206 -0.386758 0
M  V30 13686 H 1369.31 1.15538 -1.52719 0
M  V30 13687 H 1367.62 3.7382 -1.17327 0
M  V30 13688 H 1369.31 3.69326 -1.56203 0
M  V30 13689 H 1365.9 3.16183 -2.89355 0
M  V30 13690 H 1370.09 3.10397 -3.87256 0
M  V30 13691 H 1365.34 3.07326 -5.28546 0
M  V30 13692 H 1369.52 3.02705 -6.27171 0
M  V30 13693 H 1367.15 3.00701 -6.982 0
M  V30 13694 N 1368.72 1.0394 1.18466 0
M  V30 13695 C 1369.97 0.743141 1.88694 0
M  V30 13696 C 1370.3 -0.727211 1.8007 0
M  V30 13697 O 1369.57 -1.53058 1.20014 0
M  V30 13698 C 1369.86 1.20829 3.39223 0
M  V30 13699 C 1369.71 2.74064 3.56664 0
M  V30 13700 C 1371.03 0.797348 4.32817 0
M  V30 13701 H 1368.15 0.271437 0.685194 0
M  V30 13702 H 1370.79 1.29119 1.39386 0
M  V30 13703 H 1368.94 0.742033 3.81348 0
M  V30 13704 H 1370.61 3.28717 3.2364 0
M  V30 13705 H 1368.86 3.1395 2.99362 0
M  V30 13706 H 1369.53 3.01668 4.62277 0
M  V30 13707 H 1372 1.19854 3.98465 0
M  V30 13708 H 1370.88 1.15057 5.36706 0
M  V30 13709 H 1371.14 -0.299601 4.41084 0
M  V30 13710 N 1370.2 -1.34667 0.818693 0
M  V30 13711 C 1371.16 -2.27908 0.243037 0
M  V30 13712 C 1372.16 -1.50106 -0.576622 0
M  V30 13713 O 1373.35 -1.69701 -0.393342 0
M  V30 13714 C 1370.48 -3.34455 -0.659759 0
M  V30 13715 H 1371.68 -2.80332 1.06555 0
M  V30 13716 H 1369.23 -1.44727 0.590237 0
M  V30 13717 H 1369.96 -2.87238 -1.50549 0
M  V30 13718 H 1369.75 -3.92031 -0.073567 0
M  V30 13719 H 1371.24 -4.04016 -1.05646 0
M  V30 13720 N 1371.68 -0.573274 -1.46804 0
M  V30 13721 C 1372.92 -0.0553432 -2.02724 0
M  V30 13722 C 1373.26 1.29753 -1.44492 0
M  V30 13723 O 1372.53 1.84804 -0.606455 0
M  V30 13724 C 1372.81 0.0205511 -3.60094 0
M  V30 13725 C 1372.67 -1.36055 -4.2873 0
M  V30 13726 C 1373.99 0.725944 -4.34071 0
M  V30 13727 H 1371.1 -0.0215858 -0.736684 0
M  V30 13728 H 1373.75 -0.738657 -1.75054 0
M  V30 13729 H 1371.9 0.602481 -3.838 0
M  V30 13730 H 1373.57 -1.98692 -4.16316 0
M  V30 13731 H 1371.81 -1.93087 -3.88458 0
M  V30 13732 H 1372.48 -1.26001 -5.37427 0
M  V30 13733 H 1374.96 0.231677 -4.15455 0
M  V30 13734 H 1373.83 0.74805 -5.43779 0
M  V30 13735 H 1374.1 1.78536 -4.04447 0
M  V30 13736 N 1373.15 1.5451 -0.310553 0
M  V30 13737 C 1374.4 1.99931 0.29532 0
M  V30 13738 C 1374.72 1.20042 1.53672 0
M  V30 13739 O 1373.99 0.298841 1.93607 0
M  V30 13740 H 1372.57 0.738539 0.112111 0
M  V30 13741 H 1375.24 1.9023 -0.424092 0
M  V30 13742 H 1374.33 3.07021 0.560749 0
M  V30 13743 O 1374.67 0.177526 1.60521 0
M  V30 13744 H 1375.36 -0.411086 1.89288 0
M  V30 END ATOM
M  V30 BEGIN BOND
M  V30 END BOND
M  V30 END CTAB
M  END
$$$$
