drugbank_target|Q53H96 Pyrroline-5-carboxylate reductase 3 (DB00172)
 OpenBabel12092120563D

  0  0  0     0  0            999 V3000
M  V30 BEGIN CTAB
M  V30 COUNTS 4062 4094 0 0 0
M  V30 BEGIN ATOM
M  V30 1 H -0.908 1.98254 -0.117106 0
M  V30 2 N 0 1.576 0 0
M  V30 3 C 0.933 2.03868 1.02534 0
M  V30 4 C 1.911 0.928543 1.3348 0
M  V30 5 O 3.095 1.19667 1.45644 0
M  V30 6 C 0.222 2.43627 2.35294 0
M  V30 7 C -0.732 3.65373 2.2001 0
M  V30 8 S 0.101 5.13292 1.52614 0
M  V30 9 C 1.257 5.56322 2.86805 0
M  V30 10 H 1.49 2.90518 0.631377 0
M  V30 11 H -0.977 1.52953 0.210867 0
M  V30 12 H 0.981 2.67203 3.11629 0
M  V30 13 H -0.358 1.57376 2.7183 0
M  V30 14 H -1.165 3.90944 3.18086 0
M  V30 15 H -1.563 3.418 1.51819 0
M  V30 16 H 0.729 5.58782 3.83104 0
M  V30 17 H 1.672 6.56266 2.65933 0
M  V30 18 H 2.08 4.83886 2.90714 0
M  V30 19 N 1.4781 -0.272755 1.55222 0
M  V30 20 C 2.4411 -1.32041 1.87344 0
M  V30 21 C 3.4411 -1.42342 0.74803 0
M  V30 22 O 4.6311 -1.41488 1.0162 0
M  V30 23 C 1.7631 -2.70173 2.07893 0
M  V30 24 H 2.9561 -1.04789 2.80997 0
M  V30 25 H 0.5091 -0.51083 1.47717 0
M  V30 26 H 1.2441 -3.02605 1.16622 0
M  V30 27 H 1.0291 -2.64082 2.89833 0
M  V30 28 H 2.5191 -3.45869 2.34017 0
M  V30 29 N 2.9562 -1.48159 -0.537278 0
M  V30 30 C 3.9192 -1.61665 -1.62472 0
M  V30 31 C 4.9192 -0.490395 -1.5314 0
M  V30 32 O 6.1092 -0.755998 -1.5694 0
M  V30 33 C 3.2412 -1.57997 -3.02076 0
M  V30 34 H 4.4342 -2.58621 -1.51839 0
M  V30 35 H 1.9872 -1.36647 -0.758771 0
M  V30 36 H 2.7222 -0.624913 -3.18222 0
M  V30 37 H 2.5072 -2.39755 -3.10258 0
M  V30 38 H 3.9972 -1.70627 -3.81151 0
M  V30 39 N 4.4343 0.785586 -1.36625 0
M  V30 40 C 5.3973 1.87999 -1.31107 0
M  V30 41 C 6.3973 1.59316 -0.217959 0
M  V30 42 O 7.5873 1.67656 -0.472977 0
M  V30 43 C 4.7193 3.24861 -1.03334 0
M  V30 44 H 5.9123 1.94307 -2.2844 0
M  V30 45 H 3.4653 0.983813 -1.21453 0
M  V30 46 H 4.2003 3.24235 -0.0647432 0
M  V30 47 H 3.9853 3.4707 -1.82441 0
M  V30 48 H 5.4753 4.04929 -1.02088 0
M  V30 49 N 5.9124 1.20967 1.01018 0
M  V30 50 C 6.8224 0.980157 2.13143 0
M  V30 51 C 7.8384 -0.0660665 1.73875 0
M  V30 52 O 9.0144 0.122821 2.01025 0
M  V30 53 C 6.0794 0.54216 3.42435 0
M  V30 54 C 5.1404 1.65999 3.95908 0
M  V30 55 C 4.3734 1.2428 5.19028 0
M  V30 56 O 4.5964 0.114196 5.70286 0
M  V30 57 O 3.5304 2.05271 5.65816 0
M  V30 58 H 7.3564 1.91913 2.35379 0
M  V30 59 H 4.9414 0.994099 1.11526 0
M  V30 60 H 6.8234 0.30744 4.20277 0
M  V30 61 H 5.4984 -0.36815 3.216 0
M  V30 62 H 4.4054 1.94906 3.19316 0
M  V30 63 H 5.7384 2.54753 4.21143 0
M  V30 64 N 7.3905 -1.2043 1.01659 0
M  V30 65 C 8.8015 -1.71517 0.737482 0
M  V30 66 C 9.1525 -1.81547 -0.743973 0
M  V30 67 O 8.2775 -1.47803 -1.58061 0
M  V30 68 C 8.8725 -3.11515 1.33206 0
M  V30 69 C 7.4315 -3.59912 1.10183 0
M  V30 70 C 6.5785 -2.37116 1.43776 0
M  V30 71 H 9.5295 -1.05444 1.18606 0
M  V30 72 H 9.5505 -3.73575 0.722636 0
M  V30 73 H 9.0625 -3.04182 2.41028 0
M  V30 74 H 7.1635 -3.72577 0.0412756 0
M  V30 75 H 7.2765 -4.44731 1.78188 0
M  V30 76 H 5.6405 -2.39857 0.856778 0
M  V30 77 H 6.4235 -2.32424 2.52654 0
M  V30 78 N 8.8686 -0.792821 -1.36206 0
M  V30 79 C 10.0936 -0.377701 -2.03932 0
M  V30 80 C 10.5186 0.998947 -1.59382 0
M  V30 81 O 9.8766 1.64421 -0.763903 0
M  V30 82 C 9.9246 -0.453635 -3.57735 0
M  V30 83 O 9.0286 0.538151 -4.08874 0
M  V30 84 H 8.3696 -0.159855 -0.644471 0
M  V30 85 H 10.8996 -1.07488 -1.7409 0
M  V30 86 H 10.9096 -0.318464 -4.06755 0
M  V30 87 H 9.5846 -1.45784 -3.89512 0
M  V30 88 H 8.1616 0.364359 -3.71116 0
M  V30 89 N 10.3467 1.47872 -0.545128 0
M  V30 90 C 11.7577 1.86384 -0.108581 0
M  V30 91 C 12.1087 1.45309 1.31832 0
M  V30 92 O 11.2337 0.850641 1.9898 0
M  V30 93 C 11.8287 3.38265 -0.190274 0
M  V30 94 C 10.3877 3.75914 0.191164 0
M  V30 95 C 9.5347 2.71926 -0.543273 0
M  V30 96 H 12.4857 1.39561 -0.755537 0
M  V30 97 H 12.5067 3.75831 0.594217 0
M  V30 98 H 12.0187 3.6813 -1.2289 0
M  V30 99 H 10.1197 3.51665 1.23136 0
M  V30 100 H 10.2327 4.78836 -0.158987 0
M  V30 101 H 8.5967 2.54697 0.0122495 0
M  V30 102 H 9.3797 3.04634 -1.58282 0
M  V30 103 N 11.8248 0.280983 1.55075 0
M  V30 104 C 13.2408 -0.0729964 1.59433 0
M  V30 105 C 13.4408 -1.5411 1.29817 0
M  V30 106 O 12.4968 -2.29086 1.06187 0
M  V30 107 C 13.8098 0.306921 2.9913 0
M  V30 108 C 15.3578 0.254023 3.11968 0
M  V30 109 C 15.8328 0.608467 4.5394 0
M  V30 110 N 17.3238 0.560241 4.59799 0
M  V30 111 C 18.0588 0.80722 5.6769 0
M  V30 112 N 17.5548 1.11912 6.83701 0
M  V30 113 N 19.3478 0.735623 5.57266 0
M  V30 114 H 11.4988 1.238 1.7259 0
M  V30 115 H 13.7618 0.500547 0.805082 0
M  V30 116 H 13.4678 1.32816 3.25657 0
M  V30 117 H 13.3418 -0.349363 3.75579 0
M  V30 118 H 15.7288 -0.75794 2.852 0
M  V30 119 H 15.8098 0.944649 2.37718 0
M  V30 120 H 15.4538 1.61814 4.81434 0
M  V30 121 H 15.3838 -0.104013 5.26497 0
M  V30 122 H 17.8748 0.329288 3.76463 0
M  V30 123 H 18.1878 1.29409 7.61888 0
M  V30 124 H 16.5328 1.15695 6.85303 0
M  V30 125 H 19.7238 0.491752 4.6551 0
M  V30 126 H 19.8968 0.931482 6.4127 0
M  V30 127 N 13.3029 -1.57598 0.00835791 0
M  V30 128 C 14.7189 -1.55764 -0.347822 0
M  V30 129 C 14.9189 -1.01186 -1.74252 0
M  V30 130 O 13.9749 -0.649371 -2.44007 0
M  V30 131 C 15.2879 -2.99927 -0.215407 0
M  V30 132 C 16.8359 -3.11656 -0.289725 0
M  V30 133 C 17.3109 -4.57621 -0.18634 0
M  V30 134 N 18.8019 -4.62557 -0.243978 0
M  V30 135 C 19.5369 -5.73094 -0.18745 0
M  V30 136 N 19.0329 -6.92753 -0.0810331 0
M  V30 137 N 20.8259 -5.61588 -0.239925 0
M  V30 138 H 12.9769 -1.91411 0.92062 0
M  V30 139 H 15.2399 -0.879562 0.353659 0
M  V30 140 H 14.9459 -3.43729 0.744512 0
M  V30 141 H 14.8199 -3.63865 -0.994097 0
M  V30 142 H 17.2069 -2.67779 -1.24009 0
M  V30 143 H 17.2879 -2.5048 0.51898 0
M  V30 144 H 16.9319 -5.02174 0.760519 0
M  V30 145 H 16.8619 -5.16752 -1.01364 0
M  V30 146 H 19.3529 -3.76481 -0.327217 0
M  V30 147 H 19.6659 -7.72787 -0.0440241 0
M  V30 148 H 18.0109 -6.94984 -0.0465419 0
M  V30 149 H 21.2019 -4.66996 -0.321317 0
M  V30 150 H 21.3749 -6.47714 -0.192407 0
M  V30 151 N 14.781 0.264519 -1.55364 0
M  V30 152 C 16.027 0.99646 -1.76631 0
M  V30 153 C 16.36 1.85632 -0.570478 0
M  V30 154 O 15.635 1.89647 0.43175 0
M  V30 155 C 15.918 1.87187 -3.07625 0
M  V30 156 C 15.771 1.04138 -4.37579 0
M  V30 157 C 17.09 2.85749 -3.34717 0
M  V30 158 H 14.209 0.360841 -0.642622 0
M  V30 159 H 16.851 0.268218 -1.88097 0
M  V30 160 H 15.001 2.49279 -2.9798 0
M  V30 161 H 16.673 0.440517 -4.59192 0
M  V30 162 H 14.916 0.345115 -4.32425 0
M  V30 163 H 15.587 1.68729 -5.2558 0
M  V30 164 H 18.063 2.33793 -3.4421 0
M  V30 165 H 16.939 3.44136 -4.27623 0
M  V30 166 H 17.2 3.61311 -2.54768 0
M  V30 167 N 16.2591 1.48442 0.529413 0
M  V30 168 C 17.5071 1.56179 1.28267 0
M  V30 169 C 17.8281 0.237721 1.93546 0
M  V30 170 O 17.0981 -0.740779 1.81354 0
M  V30 171 H 15.6781 0.575367 0.476405 0
M  V30 172 H 18.3401 1.84909 0.61602 0
M  V30 173 H 17.4361 2.34312 2.06165 0
M  V30 174 N 17.7372 -0.778329 1.37039 0
M  V30 175 C 18.9842 -1.53665 1.31884 0
M  V30 176 C 19.3122 -1.9425 -0.0986303 0
M  V30 177 O 18.5672 -1.63832 -1.07041 0
M  V30 178 C 18.8662 -2.81845 2.19768 0
M  V30 179 C 18.5322 -2.60345 3.68146 0
M  V30 180 C 17.1942 -2.5419 4.08584 0
M  V30 181 C 19.5462 -2.40923 4.62175 0
M  V30 182 C 16.8742 -2.26594 5.41177 0
M  V30 183 C 19.2262 -2.14852 5.94997 0
M  V30 184 C 17.8902 -2.07137 6.34547 0
M  V30 185 H 17.1602 -0.562299 0.482598 0
M  V30 186 H 19.8072 -0.897069 1.69189 0
M  V30 187 H 18.1122 -3.50328 1.75436 0
M  V30 188 H 19.8092 -3.39692 2.13097 0
M  V30 189 H 16.3992 -2.65996 3.36072 0
M  V30 190 H 20.5832 -2.44673 4.31797 0
M  V30 191 H 15.8392 -2.19111 5.70789 0
M  V30 192 H 20.0132 -1.98822 6.67415 0
M  V30 193 H 17.6402 -1.85518 7.37216 0
M  V30 194 N 19.2153 -1.21501 -1.00376 0
M  V30 195 C 20.4613 -1.03452 -1.74429 0
M  V30 196 C 20.7943 0.430764 -1.89362 0
M  V30 197 O 20.0693 1.31962 -1.42886 0
M  V30 198 C 20.3523 -1.73375 -3.15615 0
M  V30 199 C 20.2053 -3.27431 -3.08397 0
M  V30 200 C 21.5243 -1.47732 -4.14564 0
M  V30 201 H 18.6433 -0.377226 -0.633143 0
M  V30 202 H 21.2853 -1.49693 -1.17013 0
M  V30 203 H 19.4353 -1.34064 -3.64636 0
M  V30 204 H 21.1073 -3.76119 -2.67081 0
M  V30 205 H 19.3503 -3.5767 -2.45468 0
M  V30 206 H 20.0213 -3.71524 -4.08258 0
M  V30 207 H 22.4973 -1.8186 -3.74254 0
M  V30 208 H 21.3733 -1.99169 -5.11491 0
M  V30 209 H 21.6343 -0.407589 -4.40217 0
M  V30 210 N 20.6934 1.19889 -1.02296 0
M  V30 211 C 21.9414 1.89046 -0.714558 0
M  V30 212 C 22.2624 1.79636 0.758681 0
M  V30 213 O 21.5324 1.20292 1.54618 0
M  V30 214 H 20.1124 0.699802 -0.261317 0
M  V30 215 H 22.7744 1.45574 -1.29592 0
M  V30 216 H 21.8704 2.95524 -1.0036 0
M  V30 217 N 22.1715 0.800033 1.35784 0
M  V30 218 C 23.1345 0.211565 2.28221 0
M  V30 219 C 24.1345 -0.59728 1.49296 0
M  V30 220 O 25.3245 -0.416721 1.69142 0
M  V30 221 C 22.4565 -0.705846 3.33513 0
M  V30 222 H 23.6495 1.02677 2.81776 0
M  V30 223 H 21.2025 0.570211 1.45528 0
M  V30 224 H 21.9375 -1.54498 2.85133 0
M  V30 225 H 21.7225 -0.127655 3.91892 0
M  V30 226 H 23.2125 -1.11211 4.02519 0
M  V30 227 N 23.6496 -1.47581 0.552962 0
M  V30 228 C 24.8976 -2.02082 0.0272703 0
M  V30 229 C 25.2186 -1.4301 -1.32563 0
M  V30 230 O 24.4886 -0.603745 -1.86365 0
M  V30 231 H 23.0686 -0.746966 0.00709182 0
M  V30 232 H 25.7306 -1.81033 0.722008 0
M  V30 233 H 24.8266 -3.12034 -0.0639951 0
M  V30 234 N 25.1277 -0.289203 -1.54924 0
M  V30 235 C 26.5437 0.0645403 -1.59469 0
M  V30 236 C 26.7437 1.53419 -1.30632 0
M  V30 237 O 25.7997 2.2852 -1.074 0
M  V30 238 C 27.1127 -0.32278 -2.98963 0
M  V30 239 C 28.6607 -0.270564 -3.11828 0
M  V30 240 C 29.1357 -0.632532 -4.53611 0
M  V30 241 N 30.6267 -0.584617 -4.59496 0
M  V30 242 C 31.3617 -0.837314 -5.67254 0
M  V30 243 N 30.8577 -1.15536 -6.83098 0
M  V30 244 N 32.6507 -0.765166 -5.56868 0
M  V30 245 H 24.8017 -1.24714 -1.71931 0
M  V30 246 H 27.0647 -0.504809 -0.802416 0
M  V30 247 H 26.7707 -1.34541 -3.24948 0
M  V30 248 H 26.6447 0.32944 -3.75759 0
M  V30 249 H 29.0317 0.742805 -2.85598 0
M  V30 250 H 29.1127 -0.957242 -2.37214 0
M  V30 251 H 28.7567 -1.64365 -4.80569 0
M  V30 252 H 28.6867 0.07609 -5.26545 0
M  V30 253 H 31.1777 -0.349248 -3.76283 0
M  V30 254 H 31.4907 -1.33447 -7.61191 0
M  V30 255 H 29.8357 -1.19328 -6.84679 0
M  V30 256 H 33.0267 -0.516432 -4.65243 0
M  V30 257 H 33.1997 -0.965477 -6.40767 0
M  V30 258 N 26.6058 1.57591 -0.0167156 0
M  V30 259 C 27.5388 2.04944 1.00366 0
M  V30 260 C 28.5168 0.942648 1.32487 0
M  V30 261 O 29.7008 1.21205 1.44367 0
M  V30 262 C 26.8278 2.46109 2.32697 0
M  V30 263 C 25.8738 3.67686 2.16123 0
M  V30 264 S 26.7068 5.14882 1.47161 0
M  V30 265 C 27.8628 5.59332 2.80888 0
M  V30 266 H 28.0958 2.91172 0.600528 0
M  V30 267 H 25.6288 1.53168 0.194632 0
M  V30 268 H 27.5868 2.70493 3.08778 0
M  V30 269 H 26.2478 1.6025 2.70146 0
M  V30 270 H 25.4408 3.94296 3.13922 0
M  V30 271 H 25.0428 3.43391 1.48185 0
M  V30 272 H 27.3348 5.62814 3.77156 0
M  V30 273 H 28.2778 6.5905 2.58958 0
M  V30 274 H 28.6858 4.86942 2.85565 0
M  V30 275 N 28.0839 -0.256276 1.55502 0
M  V30 276 C 29.0469 -1.30047 1.88734 0
M  V30 277 C 30.0469 -1.4154 0.763086 0
M  V30 278 O 31.2369 -1.40403 1.03115 0
M  V30 279 C 28.3689 -2.67953 2.10747 0
M  V30 280 H 29.5619 -1.01802 2.82093 0
M  V30 281 H 27.1149 -0.495134 1.4825 0
M  V30 282 H 27.8499 -3.01351 1.19825 0
M  V30 283 H 27.6349 -2.60993 2.92617 0
M  V30 284 H 29.1249 -3.43368 2.37673 0
M  V30 285 N 29.562 -1.4872 -0.521534 0
M  V30 286 C 30.81 -1.56857 -1.27437 0
M  V30 287 C 31.131 -0.247982 -1.93417 0
M  V30 288 O 30.401 0.731151 -1.81744 0
M  V30 289 H 28.981 -0.577885 -0.473347 0
M  V30 290 H 31.643 -1.85233 -0.606205 0
M  V30 291 H 30.739 -2.35402 -2.0492 0
M  V30 292 N 31.0401 0.771051 -1.3745 0
M  V30 293 C 32.0031 1.86598 -1.33093 0
M  V30 294 C 33.0031 1.59076 -0.234845 0
M  V30 295 O 34.1931 1.67145 -0.490732 0
M  V30 296 C 31.3251 3.23747 -1.06773 0
M  V30 297 H 32.5181 1.91873 -2.30488 0
M  V30 298 H 30.0711 0.970876 -1.2249 0
M  V30 299 H 30.8061 3.24148 -0.099129 0
M  V30 300 H 30.5911 3.45115 -1.86112 0
M  V30 301 H 32.0811 4.03824 -1.06377 0
M  V30 302 N 32.5182 1.22032 0.997298 0
M  V30 303 C 33.7672 1.03637 1.73038 0
M  V30 304 C 34.0802 -0.429475 1.90827 0
M  V30 305 O 35.2862 -0.732995 2.61418 0
M  V30 306 C 33.7422 1.80582 3.11317 0
M  V30 307 C 33.3502 3.31387 3.01474 0
M  V30 308 C 35.0942 1.70621 3.88701 0
M  V30 309 C 33.0012 4.00791 4.3488 0
M  V30 310 H 31.9312 0.384179 0.648785 0
M  V30 311 H 34.5822 1.4584 1.11368 0
M  V30 312 H 32.9642 1.31175 3.73643 0
M  V30 313 H 34.1382 3.88155 2.4834 0
M  V30 314 H 32.4532 3.41976 2.37575 0
M  V30 315 H 35.0502 2.19799 4.87434 0
M  V30 316 H 35.3932 0.665823 4.10941 0
M  V30 317 H 35.9262 2.17547 3.33044 0
M  V30 318 H 32.6652 5.05064 4.1784 0
M  V30 319 H 32.1852 3.48811 4.87945 0
M  V30 320 H 33.8642 4.06139 5.03647 0
M  V30 321 N 33.9963 -1.19345 1.0293 0
M  V30 322 C 34.9593 -2.20793 0.615069 0
M  V30 323 C 35.9593 -1.57553 -0.321533 0
M  V30 324 O 37.1493 -1.73862 -0.108483 0
M  V30 325 C 34.2813 -3.40754 -0.0999222 0
M  V30 326 H 35.4743 -2.58955 1.51269 0
M  V30 327 H 33.0273 -1.3303 0.820534 0
M  V30 328 H 33.7623 -3.0811 -1.01187 0
M  V30 329 H 33.5473 -3.87889 0.57309 0
M  V30 330 H 35.0373 -4.15898 -0.376645 0
M  V30 331 N 35.4744 -0.807222 -1.35358 0
M  V30 332 C 36.4064 -0.175717 -2.28525 0
M  V30 333 C 37.4194 0.625354 -1.5031 0
M  V30 334 O 38.6084 0.457611 -1.72535 0
M  V30 335 C 35.7084 0.773471 -3.29956 0
M  V30 336 C 34.8814 0.0186296 -4.37396 0
M  V30 337 C 33.9404 0.886395 -5.18681 0
M  V30 338 O 32.9664 0.337106 -5.68201 0
M  V30 339 N 34.1684 2.20839 -5.36852 0
M  V30 340 H 36.9334 -0.976091 -2.83359 0
M  V30 341 H 34.4944 -0.662737 -1.47714 0
M  V30 342 H 36.4864 1.35824 -3.81227 0
M  V30 343 H 35.0564 1.47465 -2.75632 0
M  V30 344 H 34.2764 -0.747349 -3.87051 0
M  V30 345 H 35.5644 -0.501577 -5.06322 0
M  V30 346 H 34.9624 2.67858 -4.98265 0
M  V30 347 H 33.5194 2.74237 -5.91301 0
M  V30 348 N 36.9525 1.47285 -0.560781 0
M  V30 349 C 38.2005 2.02064 -0.0379868 0
M  V30 350 C 38.5215 1.43711 1.31803 0
M  V30 351 O 37.7915 0.61362 1.86042 0
M  V30 352 H 36.3715 0.746918 -0.0110531 0
M  V30 353 H 39.0335 1.80648 -0.731598 0
M  V30 354 H 38.1295 3.12064 0.0474463 0
M  V30 355 N 38.4306 0.297415 1.54768 0
M  V30 356 C 39.3606 -0.573494 2.26348 0
M  V30 357 C 40.3416 -1.14085 1.26169 0
M  V30 358 O 41.5266 -1.17086 1.54934 0
M  V30 359 C 38.6566 -1.74716 3.00153 0
M  V30 360 C 37.6106 -1.31032 4.07449 0
M  V30 361 C 36.9366 -2.56887 4.68949 0
M  V30 362 C 38.2366 -0.444183 5.20408 0
M  V30 363 H 39.9306 0.0235131 2.99391 0
M  V30 364 H 37.4766 0.0127488 1.43994 0
M  V30 365 H 39.4296 -2.3625 3.48947 0
M  V30 366 H 38.1536 -2.37035 2.24682 0
M  V30 367 H 36.8126 -0.718066 3.59499 0
M  V30 368 H 36.4606 -3.17512 3.90122 0
M  V30 369 H 36.1606 -2.2836 5.41411 0
M  V30 370 H 37.6846 -3.19229 5.20505 0
M  V30 371 H 39.0986 -0.9651 5.65118 0
M  V30 372 H 37.4956 -0.252846 5.99567 0
M  V30 373 H 38.5656 0.531609 4.81977 0
M  V30 374 N 39.9087 -1.5758 0.0250728 0
M  V30 375 C 41.1577 -1.90811 -0.653767 0
M  V30 376 C 41.4707 -0.90273 -1.73523 0
M  V30 377 O 42.6767 -1.12614 -2.47043 0
M  V30 378 C 41.1327 -3.38804 -1.21409 0
M  V30 379 C 40.7407 -4.47692 -0.166126 0
M  V30 380 C 42.4847 -3.81108 -1.86967 0
M  V30 381 C 40.3917 -5.86779 -0.737856 0
M  V30 382 H 39.3217 -0.712063 -0.247956 0
M  V30 383 H 41.9727 -1.83281 0.0897137 0
M  V30 384 H 40.3547 -3.41252 -2.00905 0
M  V30 385 H 41.5287 -4.56797 0.606079 0
M  V30 386 H 39.8437 -4.14565 0.390466 0
M  V30 387 H 42.4407 -4.82375 -2.30692 0
M  V30 388 H 42.7837 -3.15953 -2.71071 0
M  V30 389 H 43.3167 -3.81065 -1.14167 0
M  V30 390 H 40.0557 -6.55468 0.0649577 0
M  V30 391 H 39.5757 -5.81288 -1.47864 0
M  V30 392 H 41.2547 -6.35223 -1.22884 0
M  V30 393 N 41.3868 0.248026 -1.55636 0
M  V30 394 C 42.8028 0.596483 -1.48035 0
M  V30 395 C 43.0028 1.88386 -0.715039 0
M  V30 396 O 42.0588 2.51319 -0.243944 0
M  V30 397 C 43.3718 0.700258 -2.92433 0
M  V30 398 C 44.9198 0.792659 -3.02797 0
M  V30 399 C 45.3948 0.928005 -4.485 0
M  V30 400 N 46.8858 0.992903 -4.52433 0
M  V30 401 C 47.6208 1.11687 -5.62418 0
M  V30 402 N 47.1168 1.20645 -6.82214 0
M  V30 403 N 48.9098 1.14994 -5.50212 0
M  V30 404 H 41.0608 -0.597109 -2.03834 0
M  V30 405 H 43.3238 -0.205925 -0.925364 0
M  V30 406 H 43.0298 -0.175658 -3.51261 0
M  V30 407 H 42.9038 1.57255 -3.42857 0
M  V30 408 H 45.2908 1.65903 -2.4405 0
M  V30 409 H 45.3718 -0.104762 -2.55585 0
M  V30 410 H 45.0158 0.0661971 -5.07857 0
M  V30 411 H 44.9458 1.84045 -4.93391 0
M  V30 412 H 47.4368 0.935064 -3.66149 0
M  V30 413 H 47.7498 1.30008 -7.61786 0
M  V30 414 H 46.0948 1.17605 -6.84977 0
M  V30 415 H 49.2858 1.07643 -4.55555 0
M  V30 416 H 49.4588 1.24311 -6.35965 0
M  V30 417 N 42.8649 1.48995 0.513639 0
M  V30 418 C 43.8279 1.64229 1.59879 0
M  V30 419 C 44.8279 0.514696 1.5234 0
M  V30 420 O 46.0179 0.78087 1.55718 0
M  V30 421 C 43.1499 1.62783 2.99524 0
M  V30 422 H 44.3429 2.61004 1.47705 0
M  V30 423 H 41.8959 1.37837 0.736936 0
M  V30 424 H 42.6309 0.675461 3.17188 0
M  V30 425 H 42.4159 2.4466 3.06404 0
M  V30 426 H 43.9059 1.76669 3.78388 0
M  V30 427 N 44.343 -0.763751 1.37857 0
M  V30 428 C 45.591 -1.51957 1.33243 0
M  V30 429 C 45.912 -1.94835 -0.0801709 0
M  V30 430 O 45.182 -1.66894 -1.02582 0
M  V30 431 H 43.762 -0.563626 0.49024 0
M  V30 432 H 46.424 -0.908504 1.7243 0
M  V30 433 H 45.52 -2.41523 1.97669 0
M  V30 434 N 45.8211 -1.22559 -0.990812 0
M  V30 435 C 46.7681 -0.997519 -2.0813 0
M  V30 436 C 47.7381 0.0814702 -1.659 0
M  V30 437 O 48.9231 -0.0685424 -1.90677 0
M  V30 438 C 46.0631 -0.583615 -3.40129 0
M  V30 439 C 45.1761 -1.7336 -3.9569 0
M  V30 440 C 44.3111 -1.26748 -5.15857 0
M  V30 441 C 43.3501 -2.38888 -5.63559 0
M  V30 442 N 42.4871 -1.93308 -6.74964 0
M  V30 443 H 47.3271 -1.93099 -2.26973 0
M  V30 444 H 44.8641 -0.962114 -1.11273 0
M  V30 445 H 46.8221 -0.324801 -4.15934 0
M  V30 446 H 45.4521 0.312845 -3.2128 0
M  V30 447 H 44.5041 -2.10669 -3.16738 0
M  V30 448 H 45.8161 -2.57704 -4.27071 0
M  V30 449 H 44.9701 -0.966173 -5.98957 0
M  V30 450 H 43.7091 -0.394272 -4.86104 0
M  V30 451 H 42.7141 -2.69805 -4.79046 0
M  V30 452 H 43.9391 -3.26728 -5.95336 0
M  V30 453 H 41.8851 -1.08352 -6.4699 0
M  V30 454 H 41.8021 -2.71217 -7.05675 0
M  V30 455 H 43.0701 -1.66252 -7.61564 0
M  V30 456 N 47.2992 1.18797 -1.03562 0
M  V30 457 C 48.5452 1.8893 -0.737113 0
M  V30 458 C 48.8782 1.79837 0.732956 0
M  V30 459 O 48.1532 1.19525 1.5344 0
M  V30 460 C 48.4362 3.39607 -1.19745 0
M  V30 461 C 48.2892 3.57537 -2.72924 0
M  V30 462 C 49.6082 4.33069 -0.783526 0
M  V30 463 H 46.7272 0.686057 -0.269249 0
M  V30 464 H 49.3692 1.39797 -1.28673 0
M  V30 465 H 47.5192 3.81583 -0.729855 0
M  V30 466 H 49.1912 3.24688 -3.27682 0
M  V30 467 H 47.4342 3.00363 -3.12993 0
M  V30 468 H 48.1052 4.63238 -3.00191 0
M  V30 469 H 50.5812 3.98846 -1.18581 0
M  V30 470 H 49.4572 5.3707 -1.13343 0
M  V30 471 H 49.7182 4.40986 0.313681 0
M  V30 472 N 48.7773 0.814389 1.34928 0
M  V30 473 C 49.6873 0.231978 2.3345 0
M  V30 474 C 50.7033 -0.629139 1.62228 0
M  V30 475 O 51.8793 -0.539052 1.94052 0
M  V30 476 C 48.9443 -0.603482 3.41407 0
M  V30 477 C 48.0053 0.279037 4.28392 0
M  V30 478 C 47.2383 -0.516643 5.31193 0
M  V30 479 O 47.4613 -1.75068 5.4287 0
M  V30 480 O 46.3953 0.0965652 6.01823 0
M  V30 481 H 50.2213 1.04721 2.85074 0
M  V30 482 H 47.8063 0.576343 1.37836 0
M  V30 483 H 49.6883 -1.07908 4.0735 0
M  V30 484 H 48.3633 -1.39618 2.92042 0
M  V30 485 H 47.2703 0.801948 3.65403 0
M  V30 486 H 48.6033 1.03588 4.81176 0
M  V30 487 N 50.2554 -1.46986 0.568584 0
M  V30 488 C 51.2184 -2.28624 -0.162366 0
M  V30 489 C 52.2184 -1.37596 -0.832103 0
M  V30 490 O 53.4084 -1.60115 -0.68622 0
M  V30 491 C 50.5404 -3.17596 -1.23878 0
M  V30 492 H 51.7334 -2.94722 0.554899 0
M  V30 493 H 49.2864 -1.52863 0.325976 0
M  V30 494 H 50.0214 -2.56214 -1.98808 0
M  V30 495 H 49.8064 -3.846 -0.763219 0
M  V30 496 H 51.2964 -3.79078 -1.75185 0
M  V30 497 N 51.7335 -0.305618 -1.54608 0
M  V30 498 C 52.6655 0.602161 -2.21149 0
M  V30 499 C 53.6785 1.09394 -1.20569 0
M  V30 500 O 54.8675 1.0106 -1.47136 0
M  V30 501 C 51.9675 1.83692 -2.84799 0
M  V30 502 C 51.1405 1.48686 -4.11353 0
M  V30 503 C 50.1995 2.57725 -4.58764 0
M  V30 504 O 49.2255 2.22623 -5.23858 0
M  V30 505 N 50.4275 3.88346 -4.31471 0
M  V30 506 H 53.1925 0.0324966 -2.99682 0
M  V30 507 H 50.7535 -0.128021 -1.61393 0
M  V30 508 H 52.7455 2.55994 -3.13448 0
M  V30 509 H 51.3155 2.31486 -2.10078 0
M  V30 510 H 50.5355 0.596269 -3.89664 0
M  V30 511 H 51.8235 1.22842 -4.93748 0
M  V30 512 H 51.2215 4.19671 -3.79331 0
M  V30 513 H 49.7785 4.56932 -4.64818 0
M  V30 514 N 53.2116 1.57565 -0.0334293 0
M  V30 515 C 54.1616 2.06978 0.956237 0
M  V30 516 C 55.1456 0.971193 1.28283 0
M  V30 517 O 56.3376 1.23471 1.26822 0
M  V30 518 C 53.4666 2.60393 2.23719 0
M  V30 519 C 52.5526 3.7719 1.93877 0
M  V30 520 N 52.9436 4.87639 1.34321 0
M  V30 521 C 51.2416 3.85758 2.23845 0
M  V30 522 C 51.9426 5.68825 1.21709 0
M  V30 523 N 50.9186 5.1587 1.71404 0
M  V30 524 H 54.7206 2.89773 0.490815 0
M  V30 525 H 52.2346 1.61492 0.171478 0
M  V30 526 H 54.2316 2.94088 2.95496 0
M  V30 527 H 52.8916 1.79031 2.70884 0
M  V30 528 H 53.9026 5.07803 1.01767 0
M  V30 529 H 50.5796 3.1531 2.73653 0
M  V30 530 H 51.9696 6.67631 0.75621 0
M  V30 531 N 54.6897 -0.239769 1.55765 0
M  V30 532 C 55.9387 -0.964754 1.77131 0
M  V30 533 C 56.2517 -1.86213 0.59868 0
M  V30 534 O 57.4577 -2.6244 0.695522 0
M  V30 535 C 55.9137 -1.76552 3.1362 0
M  V30 536 C 55.5217 -0.915185 4.38553 0
M  V30 537 C 57.2657 -2.48281 3.44321 0
M  V30 538 C 55.1727 -1.71225 5.66071 0
M  V30 539 H 54.1027 -0.363953 0.660344 0
M  V30 540 H 56.7537 -0.219181 1.82186 0
M  V30 541 H 55.1357 -2.55331 3.02691 0
M  V30 542 H 56.3097 -0.169217 4.60489 0
M  V30 543 H 54.6247 -0.310889 4.15238 0
M  V30 544 H 57.2217 -3.08382 4.36812 0
M  V30 545 H 57.5647 -3.20256 2.65973 0
M  V30 546 H 58.0977 -1.76507 3.56497 0
M  V30 547 H 54.8367 -1.03612 6.4726 0
M  V30 548 H 54.3567 -2.43331 5.48224 0
M  V30 549 H 56.0357 -2.27758 6.05587 0
M  V30 550 N 56.1678 -1.49265 -0.50573 0
M  V30 551 C 57.0978 -1.68495 -1.61653 0
M  V30 552 C 58.0788 -0.53366 -1.61512 0
M  V30 553 O 59.2638 -0.76897 -1.78327 0
M  V30 554 C 56.3938 -1.74709 -3.00157 0
M  V30 555 C 55.3478 -2.89581 -3.15162 0
M  V30 556 C 54.6738 -2.80903 -4.5497 0
M  V30 557 C 55.9738 -4.30578 -2.95634 0
M  V30 558 H 57.6678 -2.61493 -1.45814 0
M  V30 559 H 55.2138 -1.25838 -0.70005 0
M  V30 560 H 57.1668 -1.86748 -3.77761 0
M  V30 561 H 55.8908 -0.783067 -3.17074 0
M  V30 562 H 54.5498 -2.77136 -2.39982 0
M  V30 563 H 54.1978 -1.82419 -4.68756 0
M  V30 564 H 53.8978 -3.57999 -4.65951 0
M  V30 565 H 55.4218 -2.94944 -5.34641 0
M  V30 566 H 56.8358 -4.4373 -3.63011 0
M  V30 567 H 55.2328 -5.0886 -3.18091 0
M  V30 568 H 56.3028 -4.45352 -1.91806 0
M  V30 569 N 57.6459 0.756429 -1.3826 0
M  V30 570 C 58.6089 1.85176 -1.35065 0
M  V30 571 C 59.6089 1.58818 -0.251703 0
M  V30 572 O 60.7989 1.66615 -0.508433 0
M  V30 573 C 57.9309 3.22596 -1.10201 0
M  V30 574 H 59.1239 1.89417 -2.3251 0
M  V30 575 H 56.6769 0.95783 -1.23512 0
M  V30 576 H 57.4119 3.24025 -0.133504 0
M  V30 577 H 57.1969 3.43122 -1.89762 0
M  V30 578 H 58.6869 4.02673 -1.10654 0
M  V30 579 N 59.124 1.23083 0.984299 0
M  V30 580 C 60.349 1.088 1.76571 0
M  V30 581 C 60.774 -0.356657 1.84688 0
M  V30 582 O 60.132 -1.25788 1.30565 0
M  V30 583 C 60.18 1.71371 3.17277 0
M  V30 584 O 59.284 0.973213 4.00752 0
M  V30 585 H 58.625 0.381599 0.543395 0
M  V30 586 H 61.155 1.63057 1.23587 0
M  V30 587 H 61.165 1.76449 3.67872 0
M  V30 588 H 59.84 2.76493 3.10684 0
M  V30 589 H 58.417 0.999078 3.59267 0
M  V30 590 N 60.6021 -1.18246 1.0419 0
M  V30 591 C 61.5651 -2.20128 0.638452 0
M  V30 592 C 62.5651 -1.57885 -0.304805 0
M  V30 593 O 63.7551 -1.73967 -0.0900369 0
M  V30 594 C 60.8871 -3.4084 -0.0637751 0
M  V30 595 H 62.0801 -2.57336 1.54007 0
M  V30 596 H 59.6331 -1.32152 0.834598 0
M  V30 597 H 60.3681 -3.09166 -0.979136 0
M  V30 598 H 60.1531 -3.8726 0.614198 0
M  V30 599 H 61.6431 -4.16274 -0.332512 0
M  V30 600 N 62.0802 -0.821533 -1.34494 0
M  V30 601 C 63.4912 -0.467956 -1.8074 0
M  V30 602 C 63.8422 1.01151 -1.68116 0
M  V30 603 O 62.9672 1.78707 -1.22036 0
M  V30 604 C 63.5622 -0.842627 -3.28154 0
M  V30 605 C 62.1212 -0.541439 -3.72485 0
M  V30 606 C 61.2682 -1.06028 -2.56229 0
M  V30 607 H 64.2192 -1.01183 -1.22261 0
M  V30 608 H 64.2402 -0.145876 -3.8022 0
M  V30 609 H 63.7522 -1.91945 -3.37311 0
M  V30 610 H 61.8532 0.526034 -3.68868 0
M  V30 611 H 61.9662 -1.08453 -4.66663 0
M  V30 612 H 60.3302 -0.481892 -2.501 0
M  V30 613 H 61.1132 -2.14352 -2.68157 0
M  V30 614 N 63.5583 1.46682 -0.576371 0
M  V30 615 C 64.7863 2.06798 -0.0649635 0
M  V30 616 C 65.2013 1.42612 1.23723 0
M  V30 617 O 64.5583 0.529203 1.74659 0
M  V30 618 C 64.6093 3.6132 0.114202 0
M  V30 619 O 64.3303 4.23104 -1.13644 0
M  V30 620 C 65.8313 4.38349 0.66069 0
M  V30 621 H 63.0513 0.668778 -0.0545616 0
M  V30 622 H 65.5953 1.88404 -0.795237 0
M  V30 623 H 63.7503 3.79162 0.794673 0
M  V30 624 H 64.1643 5.15894 -0.946253 0
M  V30 625 H 65.6383 5.47081 0.73526 0
M  V30 626 H 66.1153 4.05953 1.67627 0
M  V30 627 H 66.7213 4.25297 0.0152951 0
M  V30 628 N 65.0364 0.313813 1.54444 0
M  V30 629 C 66.3134 -0.345447 1.92525 0
M  V30 630 C 66.6934 -1.70667 1.24242 0
M  V30 631 O 66.0414 -2.25273 0.382654 0
M  V30 632 C 66.2514 -0.44737 3.46121 0
M  V30 633 C 67.5994 -0.712238 4.18584 0
M  V30 634 O 68.6234 -0.530678 3.52225 0
M  V30 635 O 67.4824 -1.06183 5.36085 0
M  V30 636 H 64.5764 -0.195407 0.803583 0
M  V30 637 H 67.1224 0.362813 1.65776 0
M  V30 638 H 65.8944 0.509043 3.87975 0
M  V30 639 H 65.5174 -1.20359 3.78945 0
M  V30 640 N 66.5145 -1.57545 0.0417849 0
M  V30 641 C 67.9305 -1.56467 -0.314704 0
M  V30 642 C 68.1305 -1.04859 -1.72066 0
M  V30 643 O 67.1865 -0.700983 -2.42575 0
M  V30 644 C 68.4995 -3.00317 -0.15174 0
M  V30 645 C 70.0475 -3.12201 -0.223553 0
M  V30 646 C 70.5225 -4.57913 -0.0892295 0
M  V30 647 N 72.0135 -4.6297 -0.145808 0
M  V30 648 C 72.7485 -5.73362 -0.0658459 0
M  V30 649 N 72.2445 -6.92769 0.0659282 0
M  V30 650 N 74.0375 -5.6197 -0.12075 0
M  V30 651 H 66.1885 -1.89416 0.961014 0
M  V30 652 H 68.4515 -0.871862 0.372237 0
M  V30 653 H 68.1575 -3.42073 0.817254 0
M  V30 654 H 68.0315 -3.65892 -0.916692 0
M  V30 655 H 70.4185 -2.70349 -1.18301 0
M  V30 656 H 70.4995 -2.49323 0.571994 0
M  V30 657 H 70.1435 -5.00448 0.866867 0
M  V30 658 H 70.0735 -5.18786 -0.903802 0
M  V30 659 H 72.5645 -3.7709 -0.247286 0
M  V30 660 H 72.8775 -7.72707 0.119905 0
M  V30 661 H 71.2225 -6.94927 0.100885 0
M  V30 662 H 74.4135 -4.67572 -0.222187 0
M  V30 663 H 74.5865 -6.47977 -0.0549735 0
M  V30 664 N 67.9926 0.231505 -1.5589 0
M  V30 665 C 68.9406 1.30649 -1.92441 0
M  V30 666 C 69.9346 1.49037 -0.805254 0
M  V30 667 O 71.1406 1.50329 -0.990007 0
M  V30 668 H 67.5156 0.437812 -0.611412 0
M  V30 669 H 69.4866 0.970973 -2.82161 0
M  V30 670 C 68.2356 2.65179 -2.24889 0
M  V30 671 H 67.5586 2.51835 -3.10514 0
M  V30 672 H 68.9986 3.39234 -2.54355 0
M  V30 673 C 67.4576 3.19439 -1.07054 0
M  V30 674 O 67.9876 4.00371 -0.326499 0
M  V30 675 N 66.1936 2.77675 -0.85703 0
M  V30 676 H 65.7406 2.11969 -1.46379 0
M  V30 677 H 65.6986 3.14321 -0.0703223 0
M  V30 678 N 69.4707 1.49531 0.497807 0
M  V30 679 C 70.4007 1.6935 1.60757 0
M  V30 680 C 71.3817 0.542218 1.61227 0
M  V30 681 O 72.5667 0.778417 1.77917 0
M  V30 682 C 69.6967 1.76298 2.99226 0
M  V30 683 C 68.6507 2.91248 3.13622 0
M  V30 684 C 67.9767 2.83312 4.53474 0
M  V30 685 C 69.2767 4.3214 2.93346 0
M  V30 686 H 70.9707 2.62263 1.44425 0
M  V30 687 H 68.5167 1.26208 0.693367 0
M  V30 688 H 70.4697 1.88749 3.76765 0
M  V30 689 H 69.1937 0.799871 3.16654 0
M  V30 690 H 67.8527 2.78404 2.38509 0
M  V30 691 H 67.5007 1.84902 4.67782 0
M  V30 692 H 67.2007 3.60465 4.64046 0
M  V30 693 H 68.7247 2.97775 5.33069 0
M  V30 694 H 70.1387 4.45649 3.60652 0
M  V30 695 H 68.5357 5.1054 3.15387 0
M  V30 696 H 69.6057 4.46363 1.89441 0
M  V30 697 N 70.9488 -0.749086 1.3866 0
M  V30 698 C 72.1888 -1.52112 1.36534 0
M  V30 699 C 72.5528 -1.91951 -0.0432316 0
M  V30 700 O 73.7538 -2.68132 -0.189396 0
M  V30 701 C 72.0248 -2.73704 2.29828 0
M  V30 702 S 73.5838 -3.63519 2.45763 0
M  V30 703 H 70.4018 -0.520482 0.484375 0
M  V30 704 H 73.0038 -0.878963 1.74627 0
M  V30 705 H 71.7078 -2.42552 3.31054 0
M  V30 706 H 71.2388 -3.4286 1.929 0
M  V30 707 H 73.2538 -4.66712 1.68505 0
M  V30 708 N 72.4269 -1.23603 -0.977757 0
M  V30 709 C 73.3769 -0.986664 -2.05545 0
M  V30 710 C 74.3609 0.0683009 -1.60755 0
M  V30 711 O 75.5529 -0.144162 -1.76412 0
M  V30 712 C 72.6819 -0.582623 -3.3832 0
M  V30 713 C 71.7679 -1.67313 -3.89701 0
M  V30 714 N 72.1589 -2.90394 -4.14132 0
M  V30 715 C 70.4569 -1.54832 -4.18262 0
M  V30 716 C 71.1579 -3.61017 -4.56116 0
M  V30 717 N 70.1339 -2.8854 -4.60701 0
M  V30 718 H 73.9359 -1.92139 -2.22396 0
M  V30 719 H 71.4499 -1.1358 -1.16074 0
M  V30 720 H 73.4469 -0.38524 -4.15116 0
M  V30 721 H 72.1069 0.34503 -3.22862 0
M  V30 722 H 73.1179 -3.26673 -4.01877 0
M  V30 723 H 69.7949 -0.687969 -4.11793 0
M  V30 724 H 71.1849 -4.66544 -4.83514 0
M  V30 725 N 73.905 1.17692 -1.04816 0
M  V30 726 C 75.152 1.87859 -0.75599 0
M  V30 727 C 75.48 1.80812 0.716752 0
M  V30 728 O 74.735 1.20819 1.53952 0
M  V30 729 C 75.034 3.37462 -1.17703 0
M  V30 730 C 74.7 3.64713 -2.65133 0
M  V30 731 C 73.362 3.71859 -3.05408 0
M  V30 732 C 75.714 3.76492 -3.60421 0
M  V30 733 C 73.042 3.88271 -4.39843 0
M  V30 734 C 75.394 3.94421 -4.94585 0
M  V30 735 C 74.058 3.99806 -5.3452 0
M  V30 736 H 73.328 0.687425 -0.276636 0
M  V30 737 H 75.975 1.39255 -1.31455 0
M  V30 738 H 74.28 3.88097 -0.537395 0
M  V30 739 H 75.977 3.90109 -0.928218 0
M  V30 740 H 72.567 3.59772 -2.32942 0
M  V30 741 H 76.751 3.70295 -3.30447 0
M  V30 742 H 72.007 3.90687 -4.70291 0
M  V30 743 H 76.181 4.02477 -5.68318 0
M  V30 744 H 73.808 4.12276 -6.38696 0
M  V30 745 N 75.3831 0.828654 1.34056 0
M  V30 746 C 76.3151 0.212052 2.28217 0
M  V30 747 C 77.3281 -0.601362 1.51286 0
M  V30 748 O 78.5171 -0.430104 1.73241 0
M  V30 749 C 75.6171 -0.72088 3.31144 0
M  V30 750 C 74.7901 0.0509587 4.3737 0
M  V30 751 C 73.8491 -0.803766 5.20025 0
M  V30 752 O 72.8751 -0.246667 5.68665 0
M  V30 753 N 74.0771 -2.1227 5.40298 0
M  V30 754 H 76.8421 1.02105 2.81771 0
M  V30 755 H 74.4031 0.686153 1.46641 0
M  V30 756 H 76.3951 -1.29742 3.8334 0
M  V30 757 H 74.9651 -1.43061 2.77943 0
M  V30 758 H 74.1851 0.808831 3.85813 0
M  V30 759 H 75.4731 0.582065 5.0546 0
M  V30 760 H 74.8711 -2.59898 5.02464 0
M  V30 761 H 73.4281 -2.64796 5.95589 0
M  V30 762 N 76.8612 -1.46375 0.584142 0
M  V30 763 C 77.8242 -2.28784 -0.138108 0
M  V30 764 C 78.8242 -1.38471 -0.817462 0
M  V30 765 O 80.0142 -1.60833 -0.669199 0
M  V30 766 C 77.1462 -3.18892 -1.20503 0
M  V30 767 H 78.3392 -2.94117 0.586127 0
M  V30 768 H 75.8922 -1.52509 0.342171 0
M  V30 769 H 76.6272 -2.58309 -1.96079 0
M  V30 770 H 76.4122 -3.85388 -0.722384 0
M  V30 771 H 77.9022 -3.80914 -1.71155 0
M  V30 772 N 78.3393 -0.321999 -1.54275 0
M  V30 773 C 79.2693 0.537411 -2.27231 0
M  V30 774 C 80.2503 1.12064 -1.27968 0
M  V30 775 O 81.4353 1.14606 -1.56777 0
M  V30 776 C 78.5653 1.69919 -3.02894 0
M  V30 777 C 77.5193 1.24534 -4.09482 0
M  V30 778 C 76.8453 2.49394 -4.72977 0
M  V30 779 C 78.1453 0.361335 -5.21049 0
M  V30 780 H 79.8393 -0.0711406 -2.99315 0
M  V30 781 H 77.3853 -0.0356555 -1.43956 0
M  V30 782 H 79.3383 2.30668 -3.52662 0
M  V30 783 H 78.0623 2.33431 -2.28424 0
M  V30 784 H 76.7213 0.660782 -3.60596 0
M  V30 785 H 76.3693 3.11265 -3.95124 0
M  V30 786 H 76.0693 2.19718 -5.44975 0
M  V30 787 H 77.5933 3.10908 -5.25517 0
M  V30 788 H 79.0073 0.875072 -5.66582 0
M  V30 789 H 77.4043 0.157428 -5.99893 0
M  V30 790 H 78.4743 -0.60822 -4.8107 0
M  V30 791 N 79.8174 1.5752 -0.0501392 0
M  V30 792 C 81.0654 1.9227 0.622642 0
M  V30 793 C 81.3864 0.929083 1.71444 0
M  V30 794 O 80.6564 -0.0262186 1.95882 0
M  V30 795 H 79.2364 0.709739 0.232981 0
M  V30 796 H 81.8984 1.94628 -0.102898 0
M  V30 797 H 80.9944 2.93479 1.06191 0
M  V30 798 N 81.2955 -0.223234 1.56011 0
M  V30 799 C 82.5355 -0.954962 1.8072 0
M  V30 800 C 82.8995 -1.81598 0.623384 0
M  V30 801 O 84.1005 -2.58132 0.749745 0
M  V30 802 C 82.3715 -1.77313 3.10314 0
M  V30 803 S 83.9305 -2.56073 3.56332 0
M  V30 804 H 80.7485 -0.320812 0.634508 0
M  V30 805 H 83.3505 -0.220686 1.9425 0
M  V30 806 H 82.0545 -1.13071 3.94516 0
M  V30 807 H 81.5855 -2.54974 2.99586 0
M  V30 808 H 83.6005 -3.79619 3.19536 0
M  V30 809 N 82.7736 -1.49793 -0.48987 0
M  V30 810 C 84.1896 -1.36803 -0.822022 0
M  V30 811 C 84.3896 -0.409652 -1.97292 0
M  V30 812 O 83.4456 0.154614 -2.52026 0
M  V30 813 C 84.7586 -2.77768 -1.15175 0
M  V30 814 C 86.3066 -2.86549 -1.25931 0
M  V30 815 C 86.7816 -4.28306 -1.62228 0
M  V30 816 N 88.2726 -4.31169 -1.69256 0
M  V30 817 C 89.0076 -5.37832 -1.98807 0
M  V30 818 N 88.5036 -6.54726 -2.26507 0
M  V30 819 N 90.2966 -5.25258 -2.00152 0
M  V30 820 H 82.4476 -2.10691 0.268881 0
M  V30 821 H 84.7106 -0.946241 0.057728 0
M  V30 822 H 84.4166 -3.49648 -0.379335 0
M  V30 823 H 84.2906 -3.13836 -2.09253 0
M  V30 824 H 86.6776 -2.14899 -2.02243 0
M  V30 825 H 86.7586 -2.54049 -0.298776 0
M  V30 826 H 86.4026 -5.00486 -0.864622 0
M  V30 827 H 86.3326 -4.58279 -2.594 0
M  V30 828 H 88.8236 -3.4687 -1.49965 0
M  V30 829 H 89.1366 -7.31833 -2.48276 0
M  V30 830 H 87.4816 -6.57933 -2.23939 0
M  V30 831 H 90.6726 -4.32938 -1.77996 0
M  V30 832 H 90.8456 -6.08476 -2.22848 0
M  V30 833 N 84.2517 0.741722 -1.39055 0
M  V30 834 C 85.4797 1.53098 -1.39171 0
M  V30 835 C 85.8947 1.88794 0.0155099 0
M  V30 836 O 85.2517 1.53626 0.985159 0
M  V30 837 C 85.3027 2.82274 -2.2584 0
M  V30 838 O 85.0237 2.48097 -3.61081 0
M  V30 839 C 86.5247 3.76343 -2.34266 0
M  V30 840 H 83.7447 0.473335 -0.4756 0
M  V30 841 H 86.2887 0.917045 -1.82785 0
M  V30 842 H 84.4437 3.40015 -1.85656 0
M  V30 843 H 84.8577 3.31029 -4.06842 0
M  V30 844 H 86.3317 4.63898 -2.9917 0
M  V30 845 H 86.8087 4.17619 -1.35982 0
M  V30 846 H 87.4147 3.24523 -2.74891 0
M  V30 847 N 85.7298 1.2412 0.971189 0
M  V30 848 C 86.9578 1.10575 1.74874 0
M  V30 849 C 87.3728 -0.342017 1.85676 0
M  V30 850 O 86.7298 -1.23617 1.34258 0
M  V30 851 C 86.7808 1.73579 3.171 0
M  V30 852 O 86.5018 3.12695 3.06844 0
M  V30 853 C 88.0028 1.65598 4.11208 0
M  V30 854 H 85.2228 0.386504 0.548503 0
M  V30 855 H 87.7668 1.64156 1.21955 0
M  V30 856 H 85.9218 1.24009 3.67016 0
M  V30 857 H 86.3358 3.43412 3.96445 0
M  V30 858 H 87.8098 2.1437 5.08674 0
M  V30 859 H 88.2868 0.616532 4.34851 0
M  V30 860 H 88.8928 2.14578 3.67201 0
M  V30 861 N 87.2079 -1.17134 1.05439 0
M  V30 862 C 88.1579 -2.1919 0.627675 0
M  V30 863 C 89.1419 -1.57328 -0.337147 0
M  V30 864 O 90.3339 -1.76329 -0.153976 0
M  V30 865 C 87.4629 -3.43299 0.00651435 0
M  V30 866 C 86.5489 -4.12255 0.995312 0
M  V30 867 N 86.9399 -4.56997 2.16765 0
M  V30 868 C 85.2379 -4.38316 0.824336 0
M  V30 869 C 85.9389 -5.10239 2.7934 0
M  V30 870 N 84.9149 -5.02595 2.07122 0
M  V30 871 H 88.7169 -2.5149 1.52086 0
M  V30 872 H 86.2309 -1.33491 0.924868 0
M  V30 873 H 88.2279 -4.15693 -0.316965 0
M  V30 874 H 86.8879 -3.1249 -0.882033 0
M  V30 875 H 87.8989 -4.51006 2.54587 0
M  V30 876 H 84.5759 -4.17498 -0.0129526 0
M  V30 877 H 85.9659 -5.54961 3.78772 0
M  V30 878 N 88.686 -0.835752 -1.33615 0
M  V30 879 C 89.911 -0.442389 -2.02627 0
M  V30 880 C 90.336 0.947735 -1.62479 0
M  V30 881 O 89.694 1.61907 -0.815826 0
M  V30 882 C 89.742 -0.567216 -3.56111 0
M  V30 883 O 88.846 0.407799 -4.10379 0
M  V30 884 H 88.187 -0.180278 -0.639059 0
M  V30 885 H 90.717 -1.12972 -1.70583 0
M  V30 886 H 90.727 -0.447708 -4.05536 0
M  V30 887 H 89.402 -1.58103 -3.84677 0
M  V30 888 H 87.979 0.246107 -3.72087 0
M  V30 889 N 90.1641 1.46063 -0.591896 0
M  V30 890 C 91.1121 2.32124 0.148739 0
M  V30 891 C 92.1061 1.45035 0.875286 0
M  V30 892 O 93.3121 1.61609 0.792632 0
M  V30 893 H 89.6871 0.749024 0.066832 0
M  V30 894 H 91.6581 2.92392 -0.595783 0
M  V30 895 C 90.4071 3.28373 1.1431 0
M  V30 896 H 89.7301 3.95371 0.59346 0
M  V30 897 H 91.1701 3.91352 1.63155 0
M  V30 898 C 89.6291 2.54393 2.20875 0
M  V30 899 O 90.1591 2.31373 3.28374 0
M  V30 900 N 88.3651 2.14797 1.95731 0
M  V30 901 H 87.9121 2.33719 1.08319 0
M  V30 902 H 87.8701 1.65619 2.67241 0
M  V30 903 N 91.6422 0.330177 1.54103 0
M  V30 904 C 92.5742 -0.566902 2.22079 0
M  V30 905 C 93.5872 -1.07462 1.22294 0
M  V30 906 O 94.7762 -0.987065 1.48726 0
M  V30 907 C 91.8762 -1.79138 2.87685 0
M  V30 908 C 91.0492 -1.42123 4.13666 0
M  V30 909 C 90.1082 -2.50394 4.62806 0
M  V30 910 O 89.1342 -2.14261 5.27334 0
M  V30 911 N 90.3362 -3.81433 4.37595 0
M  V30 912 H 93.1012 0.0151844 2.99696 0
M  V30 913 H 90.6622 0.153681 1.61169 0
M  V30 914 H 92.6542 -2.50975 3.1748 0
M  V30 915 H 91.2242 -2.28115 2.13734 0
M  V30 916 H 90.4442 -0.534201 3.90564 0
M  V30 917 H 91.7322 -1.14971 4.9564 0
M  V30 918 H 91.1302 -4.13584 3.8596 0
M  V30 919 H 89.6872 -4.4948 4.72029 0
M  V30 920 N 93.1203 -1.57491 0.0584922 0
M  V30 921 C 94.0303 -2.15448 -0.928414 0
M  V30 922 C 95.0463 -1.11416 -1.3365 0
M  V30 923 O 96.2223 -1.4362 -1.41193 0
M  V30 924 C 93.2873 -2.69393 -2.18239 0
M  V30 925 C 92.3483 -3.88249 -1.83196 0
M  V30 926 C 91.5813 -4.39613 -3.02616 0
M  V30 927 O 91.8043 -3.90023 -4.16219 0
M  V30 928 O 90.7383 -5.31111 -2.83204 0
M  V30 929 H 94.5643 -3.00112 -0.465483 0
M  V30 930 H 92.1493 -1.48499 -0.163826 0
M  V30 931 H 94.0313 -3.04026 -2.91798 0
M  V30 932 H 92.7063 -1.87796 -2.63656 0
M  V30 933 H 91.6133 -3.58492 -1.06931 0
M  V30 934 H 92.9463 -4.71098 -1.42573 0
M  V30 935 N 94.5984 0.214957 -1.56127 0
M  V30 936 C 95.8444 0.939762 -1.79712 0
M  V30 937 C 96.1774 1.83723 -0.629247 0
M  V30 938 O 95.4524 1.90925 0.371197 0
M  V30 939 C 95.7354 1.77306 -3.13424 0
M  V30 940 C 95.5884 0.90164 -4.40671 0
M  V30 941 C 96.9074 2.74956 -3.43638 0
M  V30 942 H 94.0264 0.340214 -0.653776 0
M  V30 943 H 96.6684 0.20824 -1.88855 0
M  V30 944 H 94.8184 2.39673 -3.0576 0
M  V30 945 H 96.4904 0.294206 -4.60361 0
M  V30 946 H 94.7334 0.207368 -4.33304 0
M  V30 947 H 95.4044 1.51923 -5.30682 0
M  V30 948 H 97.8804 2.22724 -3.51473 0
M  V30 949 H 96.7564 3.30358 -4.38355 0
M  V30 950 H 97.0174 3.53023 -2.66134 0
M  V30 951 N 96.0765 1.50051 0.48192 0
M  V30 952 C 97.0065 1.71046 1.58951 0
M  V30 953 C 97.9875 0.559288 1.60642 0
M  V30 954 O 99.1725 0.797243 1.77081 0
M  V30 955 C 96.3025 1.79462 2.97339 0
M  V30 956 C 95.2565 2.94558 3.10515 0
M  V30 957 C 94.5825 2.88105 4.50444 0
M  V30 958 C 95.8825 4.35227 2.88747 0
M  V30 959 H 97.5765 2.6378 1.41635 0
M  V30 960 H 95.1225 1.26936 0.679942 0
M  V30 961 H 97.0755 1.92734 3.74742 0
M  V30 962 H 95.7995 0.833412 3.15788 0
M  V30 963 H 94.4585 2.80918 2.35543 0
M  V30 964 H 94.1065 1.89853 4.65795 0
M  V30 965 H 93.8065 3.65366 4.60197 0
M  V30 966 H 95.3305 3.03412 5.29881 0
M  V30 967 H 96.7445 4.49449 3.55905 0
M  V30 968 H 95.1415 5.13856 3.09955 0
M  V30 969 H 96.2115 4.48347 1.84696 0
M  V30 970 N 97.5546 -0.734337 1.39446 0
M  V30 971 C 98.4866 -1.85861 1.34121 0
M  V30 972 C 99.4996 -1.60871 0.249864 0
M  V30 973 O 100.689 -1.71093 0.508865 0
M  V30 974 C 97.7886 -3.21899 1.05991 0
M  V30 975 C 96.9616 -3.74239 2.26415 0
M  V30 976 C 96.0206 -4.88841 1.94733 0
M  V30 977 O 95.0466 -5.02468 2.67422 0
M  V30 978 N 96.2486 -5.73261 0.913884 0
M  V30 979 H 99.0136 -1.90934 2.31007 0
M  V30 980 H 96.5746 -0.915102 1.33557 0
M  V30 981 H 98.5666 -3.96136 0.828147 0
M  V30 982 H 97.1366 -3.12091 0.178361 0
M  V30 983 H 96.3566 -2.91347 2.65539 0
M  V30 984 H 97.6446 -4.05942 3.06738 0
M  V30 985 H 97.0426 -5.64842 0.311476 0
M  V30 986 H 95.5996 -6.47563 0.742015 0
M  V30 987 N 99.0327 -1.24633 -0.964593 0
M  V30 988 C 100.258 -1.11596 -1.74818 0
M  V30 989 C 100.683 0.32723 -1.85232 0
M  V30 990 O 100.041 1.23695 -1.32549 0
M  V30 991 C 100.089 -1.76397 -3.1451 0
M  V30 992 O 99.1927 -1.03685 -3.99153 0
M  V30 993 H 98.5337 -0.390196 -0.537255 0
M  V30 994 H 101.064 -1.65002 -1.20977 0
M  V30 995 H 101.074 -1.8228 -3.65018 0
M  V30 996 H 99.7487 -2.81401 -3.06246 0
M  V30 997 H 98.3257 -1.05611 -3.57632 0
M  V30 998 N 100.511 1.16574 -1.06058 0
M  V30 999 C 101.751 1.88723 -0.78504 0
M  V30 1000 C 102.115 1.79706 0.676006 0
M  V30 1001 O 103.316 2.46757 1.06603 0
M  V30 1002 C 101.587 3.34338 -1.26304 0
M  V30 1003 S 103.146 4.24366 -1.1162 0
M  V30 1004 H 99.9638 0.651448 -0.284846 0
M  V30 1005 H 102.566 1.40732 -1.35701 0
M  V30 1006 H 101.27 3.38439 -2.32136 0
M  V30 1007 H 100.801 3.87378 -0.685719 0
M  V30 1008 H 102.816 4.96179 -0.0456539 0
M  V30 1009 N 101.989 0.842826 1.3317 0
M  V30 1010 C 102.919 0.294028 2.31641 0
M  V30 1011 C 103.9 -0.600401 1.59151 0
M  V30 1012 O 105.085 -0.523124 1.87022 0
M  V30 1013 C 102.215 -0.528416 3.43257 0
M  V30 1014 C 101.169 0.27056 4.27144 0
M  V30 1015 C 100.495 -0.675881 5.30411 0
M  V30 1016 C 101.795 1.48981 5.00602 0
M  V30 1017 H 103.489 1.11681 2.77791 0
M  V30 1018 H 101.035 0.538478 1.33553 0
M  V30 1019 H 102.988 -0.922674 4.11175 0
M  V30 1020 H 101.712 -1.38445 2.95805 0
M  V30 1021 H 100.371 0.646427 3.60856 0
M  V30 1022 H 100.019 -1.52842 4.79216 0
M  V30 1023 H 99.7189 -0.145374 5.8742 0
M  V30 1024 H 101.243 -1.06757 6.01195 0
M  V30 1025 H 102.657 1.16849 5.61266 0
M  V30 1026 H 101.054 1.95739 5.6728 0
M  V30 1027 H 102.124 2.25746 4.29147 0
M  V30 1028 N 103.467 -1.45747 0.599634 0
M  V30 1029 C 104.397 -2.33235 -0.111306 0
M  V30 1030 C 105.378 -1.46359 -0.866781 0
M  V30 1031 O 106.563 -1.75146 -0.838904 0
M  V30 1032 C 103.693 -3.28932 -1.11451 0
M  V30 1033 C 102.647 -4.25381 -0.472772 0
M  V30 1034 C 101.973 -5.1071 -1.58365 0
M  V30 1035 C 103.273 -5.18831 0.600948 0
M  V30 1036 H 104.967 -2.92927 0.61919 0
M  V30 1037 H 102.513 -1.40857 0.299215 0
M  V30 1038 H 104.466 -3.89002 -1.62036 0
M  V30 1039 H 103.19 -2.67381 -1.8755 0
M  V30 1040 H 101.849 -3.66598 0.0121472 0
M  V30 1041 H 101.497 -4.45533 -2.33473 0
M  V30 1042 H 101.197 -5.7604 -1.15982 0
M  V30 1043 H 102.721 -5.73647 -2.09194 0
M  V30 1044 H 104.135 -5.73019 0.179491 0
M  V30 1045 H 102.532 -5.92595 0.946076 0
M  V30 1046 H 103.602 -4.6174 1.48068 0
M  V30 1047 N 104.945 -0.338344 -1.53925 0
M  V30 1048 C 106.191 0.260143 -2.01125 0
M  V30 1049 C 106.524 1.50617 -1.22589 0
M  V30 1050 O 105.799 1.91979 -0.312113 0
M  V30 1051 C 106.082 0.579499 -3.55407 0
M  V30 1052 C 105.935 -0.678264 -4.44657 0
M  V30 1053 C 107.254 1.39122 -4.17532 0
M  V30 1054 H 104.373 0.0930772 -0.731099 0
M  V30 1055 H 107.015 -0.457852 -1.84401 0
M  V30 1056 H 105.165 1.19118 -3.69788 0
M  V30 1057 H 106.837 -1.31631 -4.42121 0
M  V30 1058 H 105.08 -1.3042 -4.13731 0
M  V30 1059 H 105.751 -0.410143 -5.50474 0
M  V30 1060 H 108.227 0.874035 -4.06817 0
M  V30 1061 H 107.103 1.58342 -5.25565 0
M  V30 1062 H 107.364 2.39178 -3.71815 0
M  V30 1063 N 106.423 1.57458 -0.0668435 0
M  V30 1064 C 107.672 1.92477 0.602947 0
M  V30 1065 C 107.985 0.948419 1.71068 0
M  V30 1066 O 109.191 1.19124 2.43971 0
M  V30 1067 C 107.647 3.41903 1.12383 0
M  V30 1068 C 107.255 4.47975 0.04737 0
M  V30 1069 C 108.999 3.85931 1.76797 0
M  V30 1070 C 106.906 5.88529 0.582022 0
M  V30 1071 H 105.836 0.718387 0.22899 0
M  V30 1072 H 108.487 1.82978 -0.138276 0
M  V30 1073 H 106.869 3.46459 1.91787 0
M  V30 1074 H 108.043 4.55029 -0.726978 0
M  V30 1075 H 106.358 4.13384 -0.500243 0
M  V30 1076 H 108.955 4.88322 2.17821 0
M  V30 1077 H 109.298 3.23029 2.62599 0
M  V30 1078 H 109.831 3.83958 1.04024 0
M  V30 1079 H 106.57 6.55065 -0.238721 0
M  V30 1080 H 106.09 5.85004 1.324 0
M  V30 1081 H 107.769 6.38258 1.05999 0
M  V30 1082 N 107.901 -0.206675 1.56239 0
M  V30 1083 C 109.148 -0.928842 1.79941 0
M  V30 1084 C 109.476 -1.83734 0.638131 0
M  V30 1085 O 108.731 -1.92039 -0.376746 0
M  V30 1086 C 109.03 -1.78675 3.09532 0
M  V30 1087 C 108.696 -1.03022 4.38973 0
M  V30 1088 C 107.358 -0.821302 4.74139 0
M  V30 1089 C 109.71 -0.497081 5.18824 0
M  V30 1090 C 107.038 -0.0675719 5.86661 0
M  V30 1091 C 109.39 0.24338 6.32132 0
M  V30 1092 C 108.054 0.463422 6.65889 0
M  V30 1093 H 107.324 -0.339887 0.658451 0
M  V30 1094 H 109.971 -0.195977 1.90495 0
M  V30 1095 H 108.276 -2.58794 2.94165 0
M  V30 1096 H 109.973 -2.34792 3.25075 0
M  V30 1097 H 106.563 -1.20306 4.11369 0
M  V30 1098 H 110.747 -0.645921 4.92079 0
M  V30 1099 H 106.003 0.112995 6.11296 0
M  V30 1100 H 110.177 0.66393 6.93228 0
M  V30 1101 H 107.804 1.04938 7.52922 0
M  V30 1102 N 109.379 -1.50304 -0.473955 0
M  V30 1103 C 110.342 -1.6841 -1.55469 0
M  V30 1104 C 111.342 -0.554905 -1.50922 0
M  V30 1105 O 112.532 -0.821882 -1.53593 0
M  V30 1106 C 109.664 -1.70667 -2.95102 0
M  V30 1107 H 110.857 -2.64828 -1.40733 0
M  V30 1108 H 108.41 -1.39742 -0.700132 0
M  V30 1109 H 109.145 -0.75932 -3.15285 0
M  V30 1110 H 108.93 -2.52698 -2.9981 0
M  V30 1111 H 110.42 -1.8664 -3.73571 0
M  V30 1112 N 110.857 0.726932 -1.39834 0
M  V30 1113 C 112.085 1.51613 -1.40787 0
M  V30 1114 C 112.5 1.88799 -0.00451505 0
M  V30 1115 O 111.857 1.54662 0.968809 0
M  V30 1116 C 111.908 2.79863 -2.28821 0
M  V30 1117 O 111.629 2.44253 -3.63692 0
M  V30 1118 C 113.13 3.73837 -2.38245 0
M  V30 1119 H 110.35 0.468264 -0.480593 0
M  V30 1120 H 112.894 0.897607 -1.83748 0
M  V30 1121 H 111.049 3.38027 -1.89252 0
M  V30 1122 H 111.463 3.26695 -4.1033 0
M  V30 1123 H 112.937 4.60699 -3.04073 0
M  V30 1124 H 113.414 4.16153 -1.40403 0
M  V30 1125 H 114.02 3.21589 -2.78317 0
M  V30 1126 N 112.336 1.25143 0.95797 0
M  V30 1127 C 113.283 1.05235 2.05412 0
M  V30 1128 C 114.253 -0.0374561 1.66058 0
M  V30 1129 O 115.438 0.119073 1.90428 0
M  V30 1130 C 112.578 0.673589 3.38462 0
M  V30 1131 C 111.691 1.8379 3.90954 0
M  V30 1132 C 110.826 1.40381 5.12315 0
M  V30 1133 C 109.865 2.53746 5.57027 0
M  V30 1134 N 109.002 2.11136 6.69601 0
M  V30 1135 H 113.842 1.99048 2.21774 0
M  V30 1136 H 111.379 0.991277 1.08683 0
M  V30 1137 H 113.337 0.434964 4.14926 0
M  V30 1138 H 111.967 -0.227554 3.21997 0
M  V30 1139 H 111.019 2.18992 3.11041 0
M  V30 1140 H 112.331 2.68937 4.20089 0
M  V30 1141 H 111.485 1.12464 5.96185 0
M  V30 1142 H 110.224 0.523015 4.84887 0
M  V30 1143 H 109.229 2.82412 4.71724 0
M  V30 1144 H 110.454 3.42398 5.86464 0
M  V30 1145 H 108.4 1.25468 6.4389 0
M  V30 1146 H 108.317 2.89832 6.98236 0
M  V30 1147 H 109.585 1.86385 7.56889 0
M  V30 1148 N 113.814 -1.1601 1.06675 0
M  V30 1149 C 115.225 -1.68235 0.809565 0
M  V30 1150 C 115.576 -1.8454 -0.666303 0
M  V30 1151 O 114.701 -1.54374 -1.5165 0
M  V30 1152 C 115.296 -3.05585 1.46299 0
M  V30 1153 C 113.855 -3.54915 1.25349 0
M  V30 1154 C 113.002 -2.30804 1.53703 0
M  V30 1155 H 115.953 -1.00318 1.22971 0
M  V30 1156 H 115.974 -3.70174 0.880431 0
M  V30 1157 H 115.486 -2.93686 2.53713 0
M  V30 1158 H 113.587 -3.72067 0.199261 0
M  V30 1159 H 113.7 -4.36774 1.9689 0
M  V30 1160 H 112.064 -2.36007 0.957739 0
M  V30 1161 H 112.847 -2.21499 2.62284 0
M  V30 1162 N 115.292 -0.849877 -1.32721 0
M  V30 1163 C 116.242 -0.262892 -2.26479 0
M  V30 1164 C 117.226 0.588493 -1.49752 0
M  V30 1165 O 118.418 0.438659 -1.71478 0
M  V30 1166 C 115.547 0.551818 -3.38836 0
M  V30 1167 C 114.633 -0.311689 -4.22953 0
M  V30 1168 N 115.024 -1.39567 -4.86163 0
M  V30 1169 C 113.322 -0.100611 -4.45887 0
M  V30 1170 C 114.023 -1.92651 -5.48872 0
M  V30 1171 N 112.999 -1.22637 -5.29586 0
M  V30 1172 H 116.801 -1.09166 -2.72873 0
M  V30 1173 H 114.315 -0.695486 -1.46754 0
M  V30 1174 H 116.312 0.988713 -4.05006 0
M  V30 1175 H 114.972 1.37844 -2.93988 0
M  V30 1176 H 115.983 -1.77859 -4.86402 0
M  V30 1177 H 112.66 0.691681 -4.11731 0
M  V30 1178 H 114.05 -2.83487 -6.09167 0
M  V30 1179 N 116.77 1.45427 -0.607355 0
M  V30 1180 C 118.016 2.0254 -0.102607 0
M  V30 1181 C 118.349 1.47478 1.26348 0
M  V30 1182 O 117.624 0.64939 1.83339 0
M  V30 1183 C 117.907 3.60044 -0.0634347 0
M  V30 1184 C 117.76 4.2544 -1.46017 0
M  V30 1185 C 119.079 4.35646 0.624514 0
M  V30 1186 H 116.198 0.73598 -0.0387607 0
M  V30 1187 H 118.84 1.73284 -0.779282 0
M  V30 1188 H 116.99 3.85101 0.512808 0
M  V30 1189 H 118.662 4.11569 -2.08347 0
M  V30 1190 H 116.905 3.83849 -2.02094 0
M  V30 1191 H 117.576 5.34342 -1.385 0
M  V30 1192 H 120.052 4.15882 0.134723 0
M  V30 1193 H 118.928 5.45376 0.621028 0
M  V30 1194 H 119.189 4.08501 1.69055 0
M  V30 1195 N 118.248 0.346503 1.53744 0
M  V30 1196 C 119.178 -0.501193 2.28058 0
M  V30 1197 C 120.159 -1.10014 1.29734 0
M  V30 1198 O 121.344 -1.12097 1.58581 0
M  V30 1199 C 118.474 -1.65078 3.05559 0
M  V30 1200 C 117.428 -1.18003 4.11411 0
M  V30 1201 C 116.754 -2.41837 4.76884 0
M  V30 1202 C 118.054 -0.278394 5.21558 0
M  V30 1203 H 119.748 0.11875 2.99164 0
M  V30 1204 H 117.294 0.0585531 1.43881 0
M  V30 1205 H 119.247 -2.25028 3.56287 0
M  V30 1206 H 117.971 -2.29767 2.32109 0
M  V30 1207 H 116.63 -0.603331 3.61601 0
M  V30 1208 H 116.278 -3.0494 4.00026 0
M  V30 1209 H 115.978 -2.1102 5.48402 0
M  V30 1210 H 117.502 -3.02508 5.30397 0
M  V30 1211 H 118.916 -0.784823 5.67903 0
M  V30 1212 H 117.313 -0.0619707 6.00068 0
M  V30 1213 H 118.383 0.684677 4.80042 0
M  V30 1214 N 119.726 -1.57421 0.075193 0
M  V30 1215 C 121.137 -1.81021 -0.456964 0
M  V30 1216 C 121.488 -0.98936 -1.69429 0
M  V30 1217 O 120.613 -0.212865 -2.15351 0
M  V30 1218 C 121.208 -3.28329 -0.83581 0
M  V30 1219 C 119.767 -3.52764 -1.31281 0
M  V30 1220 C 118.914 -2.75676 -0.299648 0
M  V30 1221 H 121.865 -1.55822 0.300856 0
M  V30 1222 H 121.886 -3.40564 -1.69696 0
M  V30 1223 H 121.398 -3.88046 0.0649238 0
M  V30 1224 H 119.499 -2.98355 -2.23193 0
M  V30 1225 H 119.612 -4.61451 -1.28839 0
M  V30 1226 H 117.976 -2.42538 -0.777641 0
M  V30 1227 H 118.759 -3.38132 0.593417 0
M  V30 1228 N 121.204 0.198386 -1.56346 0
M  V30 1229 C 122.167 1.22952 -1.93431 0
M  V30 1230 C 123.167 1.38611 -0.815092 0
M  V30 1231 O 124.357 1.36479 -1.08255 0
M  V30 1232 C 121.489 2.59946 -2.20546 0
M  V30 1233 H 122.682 0.912626 -2.85677 0
M  V30 1234 H 120.235 0.43977 -1.49986 0
M  V30 1235 H 120.97 2.96696 -1.30927 0
M  V30 1236 H 120.755 2.49953 -3.02102 0
M  V30 1237 H 122.245 3.3431 -2.50253 0
M  V30 1238 N 122.682 1.50554 0.465978 0
M  V30 1239 C 123.928 1.62038 1.21949 0
M  V30 1240 C 124.261 0.322116 1.9151 0
M  V30 1241 O 123.536 -0.676723 1.82348 0
M  V30 1242 C 123.819 2.80421 2.25912 0
M  V30 1243 C 123.672 4.20144 1.60622 0
M  V30 1244 C 124.991 2.94354 3.27176 0
M  V30 1245 H 122.11 0.589752 0.441998 0
M  V30 1246 H 124.752 1.82956 0.51257 0
M  V30 1247 H 122.902 2.62717 2.86203 0
M  V30 1248 H 124.574 4.49449 1.03889 0
M  V30 1249 H 122.817 4.24165 0.909211 0
M  V30 1250 H 123.488 4.98914 2.36196 0
M  V30 1251 H 125.964 3.10578 2.76913 0
M  V30 1252 H 124.84 3.788 3.97242 0
M  V30 1253 H 125.101 2.05186 3.916 0
M  V30 1254 N 124.16 -0.719506 1.40217 0
M  V30 1255 C 125.09 -1.8465 1.42922 0
M  V30 1256 C 126.071 -1.67599 0.29062 0
M  V30 1257 O 127.256 -1.87688 0.498677 0
M  V30 1258 C 124.386 -3.22565 1.28722 0
M  V30 1259 C 123.34 -3.54281 2.40144 0
M  V30 1260 C 122.666 -4.91298 2.11023 0
M  V30 1261 C 123.966 -3.55676 3.82481 0
M  V30 1262 H 125.66 -1.82644 2.37237 0
M  V30 1263 H 123.206 -0.877305 1.1419 0
M  V30 1264 H 125.159 -4.01095 1.29232 0
M  V30 1265 H 123.883 -3.25137 0.308811 0
M  V30 1266 H 122.542 -2.78088 2.38877 0
M  V30 1267 H 122.19 -4.90468 1.11582 0
M  V30 1268 H 121.89 -5.13485 2.8567 0
M  V30 1269 H 123.414 -5.72166 2.13209 0
M  V30 1270 H 124.828 -4.24254 3.85592 0
M  V30 1271 H 123.225 -3.89388 4.56614 0
M  V30 1272 H 124.295 -2.55144 4.12346 0
M  V30 1273 N 125.638 -1.25649 -0.95132 0
M  V30 1274 C 126.601 -1.06399 -2.03007 0
M  V30 1275 C 127.601 -0.0156794 -1.60792 0
M  V30 1276 O 128.791 -0.25817 -1.72276 0
M  V30 1277 C 125.923 -0.616184 -3.35285 0
M  V30 1278 H 127.116 -2.02164 -2.21517 0
M  V30 1279 H 124.669 -1.08103 -1.12887 0
M  V30 1280 H 125.404 0.343917 -3.22471 0
M  V30 1281 H 125.189 -1.37301 -3.67275 0
M  V30 1282 H 126.679 -0.503032 -4.14559 0
M  V30 1283 N 127.117 1.15442 -1.07289 0
M  V30 1284 C 128.027 2.23786 -0.704057 0
M  V30 1285 C 129.043 1.7166 0.284413 0
M  V30 1286 O 130.219 2.00972 0.131205 0
M  V30 1287 C 127.284 3.46535 -0.106792 0
M  V30 1288 C 126.345 4.13654 -1.14842 0
M  V30 1289 C 125.578 5.30544 -0.57956 0
M  V30 1290 O 125.801 5.67187 0.604585 0
M  V30 1291 O 124.735 5.87154 -1.32414 0
M  V30 1292 H 128.561 2.57664 -1.60757 0
M  V30 1293 H 126.146 1.23152 -0.845803 0
M  V30 1294 H 128.028 4.20804 0.224048 0
M  V30 1295 H 126.703 3.14407 0.770049 0
M  V30 1296 H 125.61 3.4131 -1.5316 0
M  V30 1297 H 126.943 4.49861 -1.99714 0
M  V30 1298 N 128.595 0.856903 1.32268 0
M  V30 1299 C 129.841 0.462069 1.97466 0
M  V30 1300 C 130.174 -0.980298 1.67642 0
M  V30 1301 O 129.449 -1.68824 0.965858 0
M  V30 1302 C 129.732 0.704336 3.53145 0
M  V30 1303 C 129.585 2.19529 3.9259 0
M  V30 1304 C 130.904 0.1622 4.39801 0
M  V30 1305 H 128.023 0.169357 0.717278 0
M  V30 1306 H 130.665 1.07574 1.56614 0
M  V30 1307 H 128.815 0.181999 3.88073 0
M  V30 1308 H 130.487 2.78387 3.67829 0
M  V30 1309 H 128.73 2.67292 3.41668 0
M  V30 1310 H 129.401 2.31549 5.01088 0
M  V30 1311 H 131.877 0.608905 4.11621 0
M  V30 1312 H 130.753 0.361265 5.4771 0
M  V30 1313 H 131.014 -0.935158 4.32096 0
M  V30 1314 N 130.073 -1.45103 0.615059 0
M  V30 1315 C 131.036 -2.29025 -0.0895485 0
M  V30 1316 C 132.036 -1.40174 -0.787906 0
M  V30 1317 O 133.226 -1.62217 -0.634933 0
M  V30 1318 C 130.358 -3.21376 -1.13711 0
M  V30 1319 H 131.551 -2.92807 0.648382 0
M  V30 1320 H 129.104 -1.51749 0.374444 0
M  V30 1321 H 129.839 -2.6241 -1.90556 0
M  V30 1322 H 129.624 -3.86834 -0.640475 0
M  V30 1323 H 131.114 -3.84459 -1.63036 0
M  V30 1324 N 131.551 -0.354651 -1.53558 0
M  V30 1325 C 132.962 0.126902 -1.86268 0
M  V30 1326 C 133.313 1.49075 -1.27558 0
M  V30 1327 O 132.438 2.08105 -0.5934 0
M  V30 1328 C 133.033 0.237046 -3.3797 0
M  V30 1329 C 131.592 0.662842 -3.70518 0
M  V30 1330 C 130.739 -0.196652 -2.76602 0
M  V30 1331 H 133.69 -0.573849 -1.47962 0
M  V30 1332 H 133.711 1.06259 -3.65362 0
M  V30 1333 H 133.223 -0.755725 -3.80671 0
M  V30 1334 H 131.324 1.66424 -3.33367 0
M  V30 1335 H 131.437 0.445034 -4.77029 0
M  V30 1336 H 129.801 0.332763 -2.52517 0
M  V30 1337 H 130.584 -1.18676 -3.22135 0
M  V30 1338 N 133.029 1.57378 -0.0835403 0
M  V30 1339 C 134.275 1.94217 0.583733 0
M  V30 1340 C 134.608 0.964653 1.68547 0
M  V30 1341 O 133.883 -0.00422258 1.945 0
M  V30 1342 C 134.166 3.41253 1.14972 0
M  V30 1343 C 134.019 4.49768 0.0538277 0
M  V30 1344 C 135.338 3.89352 2.05166 0
M  V30 1345 H 132.457 0.706233 0.210724 0
M  V30 1346 H 135.099 1.89392 -0.1519 0
M  V30 1347 H 133.249 3.45496 1.77665 0
M  V30 1348 H 134.921 4.57641 -0.579851 0
M  V30 1349 H 133.164 4.29432 -0.614068 0
M  V30 1350 H 133.835 5.49817 0.490452 0
M  V30 1351 H 136.311 3.87189 1.52393 0
M  V30 1352 H 135.187 4.92822 2.41698 0
M  V30 1353 H 135.448 3.27973 2.96456 0
M  V30 1354 N 134.507 -0.190092 1.56449 0
M  V30 1355 C 135.753 -0.911052 1.81184 0
M  V30 1356 C 136.086 -1.82699 0.658396 0
M  V30 1357 O 135.361 -1.91491 -0.340775 0
M  V30 1358 C 135.644 -1.72297 3.16205 0
M  V30 1359 C 135.497 -0.831419 4.42049 0
M  V30 1360 C 136.816 -2.69454 3.47969 0
M  V30 1361 H 133.935 -0.32977 0.659106 0
M  V30 1362 H 136.577 -0.178169 1.89163 0
M  V30 1363 H 134.727 -2.34778 3.09534 0
M  V30 1364 H 136.399 -0.220929 4.60771 0
M  V30 1365 H 134.642 -0.138406 4.33579 0
M  V30 1366 H 135.313 -1.43461 5.33032 0
M  V30 1367 H 137.789 -2.17104 3.54972 0
M  V30 1368 H 136.665 -3.23342 4.43555 0
M  V30 1369 H 136.926 -3.48744 2.71717 0
M  V30 1370 N 135.985 -1.50799 -0.457987 0
M  V30 1371 C 137.213 -1.66218 -1.23203 0
M  V30 1372 C 137.628 -0.350894 -1.85511 0
M  V30 1373 O 136.985 0.668546 -1.69814 0
M  V30 1374 C 137.036 -2.76291 -2.33121 0
M  V30 1375 O 136.757 -4.02338 -1.73366 0
M  V30 1376 C 138.258 -3.028 -3.2377 0
M  V30 1377 H 135.478 -0.558361 -0.372121 0
M  V30 1378 H 138.022 -1.97099 -0.545179 0
M  V30 1379 H 136.177 -2.48068 -2.97558 0
M  V30 1380 H 136.591 -4.63312 -2.4585 0
M  V30 1381 H 138.065 -3.8345 -3.97077 0
M  V30 1382 H 138.542 -2.14385 -3.83322 0
M  V30 1383 H 139.148 -3.32604 -2.65056 0
M  V30 1384 N 137.463 0.71206 -1.40597 0
M  V30 1385 C 138.691 1.50111 -1.42388 0
M  V30 1386 C 139.106 1.88784 -0.0245395 0
M  V30 1387 O 138.463 1.55681 0.952351 0
M  V30 1388 C 138.514 2.7742 -2.31776 0
M  V30 1389 O 138.235 2.40382 -3.66262 0
M  V30 1390 C 139.736 3.7129 -2.42196 0
M  V30 1391 H 136.956 0.46314 -0.485533 0
M  V30 1392 H 139.5 0.878068 -1.8469 0
M  V30 1393 H 137.655 3.36001 -1.92827 0
M  V30 1394 H 138.069 3.22324 -4.13772 0
M  V30 1395 H 139.543 4.57448 -3.08943 0
M  V30 1396 H 140.02 4.14641 -1.44809 0
M  V30 1397 H 140.626 3.18619 -2.81712 0
M  V30 1398 N 138.941 1.26152 0.944643 0
M  V30 1399 C 139.851 1.09176 2.07648 0
M  V30 1400 C 140.867 0.0261935 1.7398 0
M  V30 1401 O 142.043 0.229208 2.00091 0
M  V30 1402 C 139.108 0.722915 3.39079 0
M  V30 1403 C 138.169 1.86752 3.86552 0
M  V30 1404 C 137.402 1.51617 5.11711 0
M  V30 1405 O 137.625 0.416331 5.68879 0
M  V30 1406 O 136.559 2.34975 5.54139 0
M  V30 1407 H 140.385 2.0412 2.24875 0
M  V30 1408 H 137.97 1.05182 1.061 0
M  V30 1409 H 139.852 0.529787 4.18056 0
M  V30 1410 H 138.527 -0.197159 3.23099 0
M  V30 1411 H 137.434 2.11558 3.08535 0
M  V30 1412 H 138.767 2.76719 4.07047 0
M  V30 1413 N 140.419 -1.14872 1.07899 0
M  V30 1414 C 141.369 -2.17809 0.674027 0
M  V30 1415 C 142.353 -1.58008 -0.303699 0
M  V30 1416 O 143.545 -1.76616 -0.11654 0
M  V30 1417 C 140.674 -3.43208 0.0793318 0
M  V30 1418 C 139.76 -4.10051 1.08253 0
M  V30 1419 N 140.151 -4.52296 2.2641 0
M  V30 1420 C 138.449 -4.36469 0.917124 0
M  V30 1421 C 139.15 -5.04199 2.901 0
M  V30 1422 N 138.126 -4.98088 2.17736 0
M  V30 1423 H 141.928 -2.48207 1.57386 0
M  V30 1424 H 139.442 -1.315 0.952976 0
M  V30 1425 H 141.439 -4.16272 -0.228719 0
M  V30 1426 H 140.099 -3.14291 -0.815551 0
M  V30 1427 H 141.11 -4.45504 2.64096 0
M  V30 1428 H 137.787 -4.17432 0.0756078 0
M  V30 1429 H 139.177 -5.46802 3.90458 0
M  V30 1430 N 141.898 -0.863906 -1.31812 0
M  V30 1431 C 143.147 -0.46801 -1.96195 0
M  V30 1432 C 143.46 0.983474 -1.69077 0
M  V30 1433 O 144.666 1.48523 -2.27273 0
M  V30 1434 C 143.122 -0.785995 -3.51212 0
M  V30 1435 C 142.73 -2.25383 -3.87178 0
M  V30 1436 C 144.474 -0.458274 -4.22019 0
M  V30 1437 C 142.381 -2.51455 -5.3528 0
M  V30 1438 H 141.311 -0.171283 -0.734287 0
M  V30 1439 H 143.962 -1.05597 -1.50072 0
M  V30 1440 H 142.344 -0.127359 -3.95795 0
M  V30 1441 H 143.518 -2.95502 -3.53575 0
M  V30 1442 H 141.833 -2.54698 -3.2942 0
M  V30 1443 H 144.43 -0.630369 -5.30971 0
M  V30 1444 H 144.773 0.600834 -4.11941 0
M  V30 1445 H 145.306 -1.07319 -3.8305 0
M  V30 1446 H 142.045 -3.56025 -5.50387 0
M  V30 1447 H 141.565 -1.85923 -5.70257 0
M  V30 1448 H 143.244 -2.35874 -6.02472 0
M  V30 1449 N 143.376 1.44774 -0.622745 0
M  V30 1450 C 144.306 2.33382 0.0741861 0
M  V30 1451 C 145.287 1.47719 0.843387 0
M  V30 1452 O 146.472 1.76458 0.810934 0
M  V30 1453 C 143.602 3.30663 1.06204 0
M  V30 1454 C 142.556 4.26079 0.405037 0
M  V30 1455 C 141.882 5.13165 1.5022 0
M  V30 1456 C 143.182 5.1781 -0.683414 0
M  V30 1457 H 144.876 2.91905 -0.665713 0
M  V30 1458 H 142.422 1.40363 -0.321587 0
M  V30 1459 H 144.375 3.9153 1.55827 0
M  V30 1460 H 143.099 2.70331 1.83272 0
M  V30 1461 H 141.758 3.66532 -0.0704683 0
M  V30 1462 H 141.406 4.49191 2.26355 0
M  V30 1463 H 141.106 5.77812 1.06803 0
M  V30 1464 H 142.63 5.76902 2.00041 0
M  V30 1465 H 144.044 5.72661 -0.270631 0
M  V30 1466 H 142.441 5.91015 -1.04023 0
M  V30 1467 H 143.511 4.59326 -1.55395 0
M  V30 1468 N 144.854 0.36279 1.53368 0
M  V30 1469 C 146.1 -0.228113 2.01513 0
M  V30 1470 C 146.433 -1.48648 1.2497 0
M  V30 1471 O 145.708 -1.91459 0.342616 0
M  V30 1472 C 145.991 -0.522884 3.56284 0
M  V30 1473 C 145.844 0.74892 4.43521 0
M  V30 1474 C 147.163 -1.32461 4.19693 0
M  V30 1475 H 144.282 -0.0814343 0.732487 0
M  V30 1476 H 146.924 0.48713 1.83649 0
M  V30 1477 H 145.074 -1.1322 3.71636 0
M  V30 1478 H 146.746 1.38648 4.39971 0
M  V30 1479 H 144.989 1.36986 4.11603 0
M  V30 1480 H 145.66 0.497667 5.49752 0
M  V30 1481 H 148.136 -0.809203 4.08156 0
M  V30 1482 H 147.012 -1.49961 5.28018 0
M  V30 1483 H 147.273 -2.33232 3.75573 0
M  V30 1484 N 146.332 -1.57332 0.0918853 0
M  V30 1485 C 147.557 -1.98995 -0.584442 0
M  V30 1486 C 147.982 -0.970528 -1.61128 0
M  V30 1487 O 147.34 0.0613904 -1.81196 0
M  V30 1488 C 147.388 -3.39636 -1.21161 0
M  V30 1489 O 146.492 -3.40447 -2.32744 0
M  V30 1490 H 145.833 -0.647165 -0.148572 0
M  V30 1491 H 148.363 -2.03873 0.172347 0
M  V30 1492 H 148.373 -3.7726 -1.55367 0
M  V30 1493 H 147.048 -4.13356 -0.459313 0
M  V30 1494 H 145.625 -3.14614 -2.0018 0
M  V30 1495 N 147.81 0.181792 -1.56548 0
M  V30 1496 C 149.056 0.901431 -1.81665 0
M  V30 1497 C 149.389 1.82347 -0.668075 0
M  V30 1498 O 148.664 1.91669 0.330615 0
M  V30 1499 C 148.947 1.70618 -3.17115 0
M  V30 1500 C 148.8 0.807964 -4.42484 0
M  V30 1501 C 150.119 2.67605 -3.49393 0
M  V30 1502 H 147.238 0.32627 -0.660846 0
M  V30 1503 H 149.88 0.168134 -1.89255 0
M  V30 1504 H 148.03 2.33133 -3.10775 0
M  V30 1505 H 149.702 0.19649 -4.60881 0
M  V30 1506 H 147.945 0.115411 -4.33646 0
M  V30 1507 H 148.616 1.40632 -5.33785 0
M  V30 1508 H 151.092 2.15218 -3.56118 0
M  V30 1509 H 149.968 3.20985 -4.45264 0
M  V30 1510 H 150.229 3.47298 -2.73563 0
M  V30 1511 N 149.288 1.51039 0.449983 0
M  V30 1512 C 150.251 1.70863 1.5277 0
M  V30 1513 C 151.251 0.578846 1.5002 0
M  V30 1514 O 152.441 0.846213 1.52266 0
M  V30 1515 C 149.573 1.75341 2.9235 0
M  V30 1516 H 150.766 2.67034 1.36502 0
M  V30 1517 H 148.319 1.40838 0.677812 0
M  V30 1518 H 149.054 0.809383 3.14037 0
M  V30 1519 H 148.839 2.57436 2.95752 0
M  V30 1520 H 150.329 1.92559 3.70555 0
M  V30 1521 N 150.766 -0.704594 1.40972 0
M  V30 1522 C 151.729 -1.80035 1.41845 0
M  V30 1523 C 152.729 -1.57774 0.310474 0
M  V30 1524 O 153.919 -1.64613 0.56992 0
M  V30 1525 C 151.051 -3.18284 1.22098 0
M  V30 1526 H 152.244 -1.80658 2.3938 0
M  V30 1527 H 149.797 -0.911329 1.26982 0
M  V30 1528 H 150.532 -3.23306 0.253672 0
M  V30 1529 H 150.317 -3.35843 2.02366 0
M  V30 1530 H 151.807 -3.98289 1.25522 0
M  V30 1531 N 152.244 -1.26651 -0.937939 0
M  V30 1532 C 153.492 -1.12165 -1.68118 0
M  V30 1533 C 153.813 0.334983 -1.92101 0
M  V30 1534 O 153.083 1.23583 -1.52 0
M  V30 1535 H 151.663 -0.412093 -0.623048 0
M  V30 1536 H 154.325 -1.59027 -1.12678 0
M  V30 1537 H 153.421 -1.64289 -2.6536 0
M  V30 1538 N 153.722 1.14298 -1.08507 0
M  V30 1539 C 154.968 1.85633 -0.816581 0
M  V30 1540 C 155.301 1.82784 0.656021 0
M  V30 1541 O 154.576 1.25926 1.48233 0
M  V30 1542 C 154.859 3.34223 -1.34041 0
M  V30 1543 C 154.712 3.45639 -2.87843 0
M  V30 1544 C 156.031 4.29356 -0.9665 0
M  V30 1545 H 153.15 0.67402 -0.298104 0
M  V30 1546 H 155.792 1.34214 -1.34487 0
M  V30 1547 H 153.942 3.78144 -0.89104 0
M  V30 1548 H 155.614 3.10498 -3.41158 0
M  V30 1549 H 153.857 2.86817 -3.25451 0
M  V30 1550 H 154.528 4.50089 -3.19569 0
M  V30 1551 H 157.004 3.93457 -1.35391 0
M  V30 1552 H 155.88 5.3178 -1.3602 0
M  V30 1553 H 156.141 4.41919 0.126362 0
M  V30 1554 N 155.201 0.870884 1.31352 0
M  V30 1555 C 156.426 0.495957 2.01383 0
M  V30 1556 C 156.851 -0.904324 1.64935 0
M  V30 1557 O 156.209 -1.59687 0.858466 0
M  V30 1558 C 156.257 0.661433 3.54482 0
M  V30 1559 O 155.361 -0.298851 4.11316 0
M  V30 1560 H 154.702 0.197158 0.634054 0
M  V30 1561 H 157.232 1.17455 1.67527 0
M  V30 1562 H 157.242 0.555072 4.04207 0
M  V30 1563 H 155.917 1.68246 3.8035 0
M  V30 1564 H 154.494 -0.147368 3.72609 0
M  V30 1565 N 156.679 -1.44442 0.630414 0
M  V30 1566 C 157.609 -2.33418 -0.0618083 0
M  V30 1567 C 158.59 -1.48165 -0.835541 0
M  V30 1568 O 159.775 -1.76886 -0.801564 0
M  V30 1569 C 156.905 -3.31222 -1.04449 0
M  V30 1570 C 155.859 -4.26288 -0.382436 0
M  V30 1571 C 155.185 -5.13954 -1.47497 0
M  V30 1572 C 156.485 -5.1744 0.710865 0
M  V30 1573 H 158.179 -2.91548 0.681184 0
M  V30 1574 H 155.725 -1.40191 0.329026 0
M  V30 1575 H 157.678 -3.92351 -1.53748 0
M  V30 1576 H 156.402 -2.71299 -1.81836 0
M  V30 1577 H 155.061 -3.6649 0.0899054 0
M  V30 1578 H 154.709 -4.50385 -2.2397 0
M  V30 1579 H 154.409 -5.7837 -1.03737 0
M  V30 1580 H 155.933 -5.77955 -1.96979 0
M  V30 1581 H 157.347 -5.72509 0.300996 0
M  V30 1582 H 155.744 -5.90455 1.07156 0
M  V30 1583 H 156.814 -4.58496 1.57829 0
M  V30 1584 N 158.157 -0.370918 -1.53173 0
M  V30 1585 C 159.382 0.220293 -2.06227 0
M  V30 1586 C 159.807 1.41243 -1.24225 0
M  V30 1587 O 159.165 1.79387 -0.262645 0
M  V30 1588 C 159.213 0.586663 -3.55796 0
M  V30 1589 O 158.317 1.68317 -3.76488 0
M  V30 1590 H 157.658 0.0308099 -0.663285 0
M  V30 1591 H 160.188 -0.533068 -1.97534 0
M  V30 1592 H 160.198 0.85617 -3.98916 0
M  V30 1593 H 158.873 -0.285013 -4.14922 0
M  V30 1594 H 157.45 1.40881 -3.45264 0
M  V30 1595 N 159.635 1.57281 -0.100228 0
M  V30 1596 C 160.863 1.98879 0.570509 0
M  V30 1597 C 161.278 0.979476 1.61405 0
M  V30 1598 O 160.635 -0.0302288 1.82475 0
M  V30 1599 C 160.686 3.4052 1.2136 0
M  V30 1600 O 160.407 4.37588 0.211786 0
M  V30 1601 C 161.908 3.97149 1.96945 0
M  V30 1602 H 159.128 0.653428 0.152555 0
M  V30 1603 H 161.672 2.03697 -0.18103 0
M  V30 1604 H 159.827 3.367 1.91603 0
M  V30 1605 H 160.241 5.20118 0.676607 0
M  V30 1606 H 161.715 4.98393 2.37294 0
M  V30 1607 H 162.192 3.3525 2.83733 0
M  V30 1608 H 162.798 4.04458 1.31506 0
M  V30 1609 N 161.113 -0.173488 1.56642 0
M  V30 1610 C 162.043 -1.2171 1.99271 0
M  V30 1611 C 163.024 -1.46289 0.867959 0
M  V30 1612 O 164.209 -1.5766 1.13388 0
M  V30 1613 C 161.339 -2.55651 2.35074 0
M  V30 1614 C 160.293 -2.45645 3.50489 0
M  V30 1615 C 159.619 -3.84056 3.72028 0
M  V30 1616 C 160.919 -1.96302 4.84007 0
M  V30 1617 H 162.613 -0.86275 2.867 0
M  V30 1618 H 160.159 -0.413571 1.37933 0
M  V30 1619 H 162.112 -3.2886 2.63494 0
M  V30 1620 H 160.836 -2.92869 1.44552 0
M  V30 1621 H 159.495 -1.7489 3.22194 0
M  V30 1622 H 159.143 -4.18664 2.788 0
M  V30 1623 H 158.843 -3.7823 4.49684 0
M  V30 1624 H 160.367 -4.58854 4.02846 0
M  V30 1625 H 161.781 -2.59284 5.11317 0
M  V30 1626 H 160.178 -2.01429 5.65284 0
M  V30 1627 H 161.248 -0.917226 4.76146 0
M  V30 1628 N 162.591 -1.51276 -0.441967 0
M  V30 1629 C 163.501 -1.75092 -1.56141 0
M  V30 1630 C 164.517 -0.634963 -1.62001 0
M  V30 1631 O 165.693 -0.916686 -1.79329 0
M  V30 1632 C 162.758 -1.86666 -2.92158 0
M  V30 1633 C 161.819 -3.10506 -2.96453 0
M  V30 1634 C 161.052 -3.21519 -4.25982 0
M  V30 1635 O 161.275 -2.38586 -5.18105 0
M  V30 1636 O 160.209 -4.14465 -4.36466 0
M  V30 1637 H 164.035 -2.70044 -1.38961 0
M  V30 1638 H 161.62 -1.35722 -0.624499 0
M  V30 1639 H 163.502 -1.96292 -3.72891 0
M  V30 1640 H 162.177 -0.949014 -3.09476 0
M  V30 1641 H 161.084 -3.06363 -2.14692 0
M  V30 1642 H 162.417 -4.01945 -2.84079 0
M  V30 1643 N 164.069 0.697108 -1.41344 0
M  V30 1644 C 164.979 1.84088 -1.45427 0
M  V30 1645 C 165.995 1.70545 -0.34501 0
M  V30 1646 O 167.171 1.92488 -0.592492 0
M  V30 1647 C 164.236 3.20056 -1.33286 0
M  V30 1648 C 163.297 3.45718 -2.54514 0
M  V30 1649 C 162.53 4.75199 -2.42944 0
M  V30 1650 O 162.753 5.51579 -1.45318 0
M  V30 1651 O 161.687 5.0161 -3.32672 0
M  V30 1652 H 165.513 1.836 -2.41919 0
M  V30 1653 H 163.098 0.849966 -1.22866 0
M  V30 1654 H 164.98 4.01236 -1.28794 0
M  V30 1655 H 163.655 3.2123 -0.39909 0
M  V30 1656 H 162.562 2.64474 -2.64583 0
M  V30 1657 H 163.895 3.49356 -3.46715 0
M  V30 1658 N 165.547 1.27147 0.931209 0
M  V30 1659 C 166.477 1.12081 2.04842 0
M  V30 1660 C 167.458 0.0232364 1.70084 0
M  V30 1661 O 168.643 0.197085 1.93197 0
M  V30 1662 C 165.773 0.76354 3.38803 0
M  V30 1663 C 164.727 1.81396 3.87659 0
M  V30 1664 C 164.053 1.31075 5.18385 0
M  V30 1665 C 165.353 3.21739 4.11438 0
M  V30 1666 H 167.047 2.05537 2.17703 0
M  V30 1667 H 164.593 0.989603 1.04608 0
M  V30 1668 H 166.546 0.644982 4.16435 0
M  V30 1669 H 165.27 -0.206727 3.25945 0
M  V30 1670 H 163.929 1.92136 3.12217 0
M  V30 1671 H 163.577 0.330037 5.01916 0
M  V30 1672 H 163.277 2.013 5.52044 0
M  V30 1673 H 164.801 1.20506 5.98591 0
M  V30 1674 H 166.215 3.14019 4.79651 0
M  V30 1675 H 164.612 3.89644 4.56397 0
M  V30 1676 H 165.682 3.67054 3.16859 0
M  V30 1677 N 167.025 -1.13721 1.09112 0
M  V30 1678 C 167.955 -2.21148 0.749385 0
M  V30 1679 C 168.936 -1.6792 -0.271475 0
M  V30 1680 O 170.121 -1.93693 -0.140251 0
M  V30 1681 C 167.251 -3.46905 0.165659 0
M  V30 1682 C 166.205 -4.13203 1.11567 0
M  V30 1683 C 165.531 -5.33248 0.393809 0
M  V30 1684 C 166.831 -4.60912 2.45678 0
M  V30 1685 H 168.525 -2.4999 1.64758 0
M  V30 1686 H 166.071 -1.20156 0.793626 0
M  V30 1687 H 168.024 -4.21313 -0.085466 0
M  V30 1688 H 166.748 -3.17449 -0.767714 0
M  V30 1689 H 165.407 -3.40758 1.35202 0
M  V30 1690 H 165.055 -5.00054 -0.543599 0
M  V30 1691 H 164.755 -5.78552 1.02721 0
M  V30 1692 H 166.279 -6.10413 0.150908 0
M  V30 1693 H 167.693 -5.26759 2.26269 0
M  V30 1694 H 166.09 -5.16944 3.04776 0
M  V30 1695 H 167.16 -3.75603 3.06677 0
M  V30 1696 N 168.503 -0.877838 -1.30888 0
M  V30 1697 C 169.914 -0.544193 -1.78593 0
M  V30 1698 C 170.265 0.939301 -1.72254 0
M  V30 1699 O 169.39 1.7337 -1.29505 0
M  V30 1700 C 169.985 -0.98105 -3.24285 0
M  V30 1701 C 168.544 -0.698935 -3.69854 0
M  V30 1702 C 167.691 -1.168 -2.51502 0
M  V30 1703 H 170.642 -1.06278 -1.17859 0
M  V30 1704 H 170.663 -0.307009 -3.79259 0
M  V30 1705 H 170.175 -2.06079 -3.28866 0
M  V30 1706 H 168.276 0.369112 -3.70767 0
M  V30 1707 H 168.389 -1.28148 -4.61644 0
M  V30 1708 H 166.753 -0.587535 -2.47831 0
M  V30 1709 H 167.536 -2.25533 -2.58824 0
M  V30 1710 N 169.982 1.44106 -0.638065 0
M  V30 1711 C 171.393 1.85316 -0.226894 0
M  V30 1712 C 171.744 1.53399 1.22324 0
M  V30 1713 O 170.869 0.975463 1.93167 0
M  V30 1714 C 171.464 3.3637 -0.405013 0
M  V30 1715 C 170.023 3.76369 -0.0482902 0
M  V30 1716 C 169.17 2.67921 -0.715108 0
M  V30 1717 H 172.121 1.34474 -0.842764 0
M  V30 1718 H 172.142 3.7885 0.354 0
M  V30 1719 H 171.654 3.59569 -1.46053 0
M  V30 1720 H 169.755 3.58784 1.00522 0
M  V30 1721 H 169.868 4.76856 -0.463187 0
M  V30 1722 H 168.232 2.54259 -0.149753 0
M  V30 1723 H 169.015 2.93951 -1.77335 0
M  V30 1724 N 171.46 0.379036 1.52974 0
M  V30 1725 C 172.408 -0.476033 2.27677 0
M  V30 1726 C 173.402 -1.0719 1.31174 0
M  V30 1727 O 174.608 -1.01355 1.48752 0
M  V30 1728 H 170.983 -0.172255 0.732006 0
M  V30 1729 H 172.954 0.175615 2.97883 0
M  V30 1730 C 171.703 -1.5967 3.0887 0
M  V30 1731 H 171.026 -1.1475 3.82978 0
M  V30 1732 H 172.466 -2.16943 3.64296 0
M  V30 1733 C 170.925 -2.54682 2.20542 0
M  V30 1734 O 171.455 -3.57836 1.82527 0
M  V30 1735 N 169.661 -2.24183 1.84907 0
M  V30 1736 H 169.208 -1.40333 2.1602 0
M  V30 1737 H 169.166 -2.88006 1.26096 0
M  V30 1738 N 172.938 -1.57226 0.108567 0
M  V30 1739 C 174.166 -1.99179 -0.559954 0
M  V30 1740 C 174.581 -0.988022 -1.60884 0
M  V30 1741 O 173.938 0.0205512 -1.82488 0
M  V30 1742 C 173.989 -3.41159 -1.19552 0
M  V30 1743 O 173.71 -4.37694 -0.188577 0
M  V30 1744 C 175.211 -3.98188 -1.94837 0
M  V30 1745 H 172.431 -0.654228 -0.149088 0
M  V30 1746 H 174.975 -2.03598 0.19183 0
M  V30 1747 H 173.13 -3.37711 -1.89815 0
M  V30 1748 H 173.544 -5.20469 -0.649014 0
M  V30 1749 H 175.018 -4.99644 -2.34648 0
M  V30 1750 H 175.495 -3.3675 -2.81951 0
M  V30 1751 H 176.101 -4.0515 -1.2936 0
M  V30 1752 N 174.416 0.165178 -1.56732 0
M  V30 1753 C 175.832 0.517174 -1.50988 0
M  V30 1754 C 176.032 1.84331 -0.813894 0
M  V30 1755 O 175.088 2.49672 -0.37682 0
M  V30 1756 C 176.401 0.544261 -2.95733 0
M  V30 1757 C 177.949 0.631039 -3.06573 0
M  V30 1758 C 178.424 0.68896 -4.52788 0
M  V30 1759 N 179.915 0.751683 -4.5706 0
M  V30 1760 C 180.65 0.817177 -5.67547 0
M  V30 1761 N 180.146 0.843129 -6.8765 0
M  V30 1762 N 181.939 0.856668 -5.55534 0
M  V30 1763 H 174.09 -0.704318 -2.00382 0
M  V30 1764 H 176.353 -0.254687 -0.913148 0
M  V30 1765 H 176.059 -0.361607 -3.49836 0
M  V30 1766 H 175.933 1.3886 -3.5071 0
M  V30 1767 H 178.32 1.52733 -2.52501 0
M  V30 1768 H 178.401 -0.240095 -2.54671 0
M  V30 1769 H 178.045 -0.2031 -5.07494 0
M  V30 1770 H 177.975 1.57633 -5.02454 0
M  V30 1771 H 180.466 0.739661 -3.70591 0
M  V30 1772 H 180.779 0.894448 -7.67606 0
M  V30 1773 H 179.124 0.811304 -6.90248 0
M  V30 1774 H 182.315 0.833437 -4.60621 0
M  V30 1775 H 182.488 0.904247 -6.4166 0
M  V30 1776 N 175.894 1.51508 0.433938 0
M  V30 1777 C 177.14 1.64588 1.18484 0
M  V30 1778 C 177.473 0.362666 1.90784 0
M  V30 1779 O 176.748 -0.637892 1.83742 0
M  V30 1780 C 177.031 2.85149 2.19913 0
M  V30 1781 C 176.884 4.23456 1.51674 0
M  V30 1782 C 178.203 3.01227 3.20858 0
M  V30 1783 H 175.322 0.598994 0.429389 0
M  V30 1784 H 177.964 1.84002 0.473647 0
M  V30 1785 H 176.114 2.68729 2.80566 0
M  V30 1786 H 177.786 4.51552 0.943322 0
M  V30 1787 H 176.029 4.25998 0.819035 0
M  V30 1788 H 176.7 5.03812 2.2556 0
M  V30 1789 H 179.176 3.16382 2.70263 0
M  V30 1790 H 178.052 3.87141 3.89118 0
M  V30 1791 H 178.313 2.13447 3.8716 0
M  V30 1792 N 177.372 -0.689602 1.41712 0
M  V30 1793 C 178.302 -1.81577 1.46806 0
M  V30 1794 C 179.283 -1.66945 0.326105 0
M  V30 1795 O 180.468 -1.86588 0.538377 0
M  V30 1796 C 177.598 -3.19762 1.35535 0
M  V30 1797 C 176.552 -3.49107 2.47605 0
M  V30 1798 C 175.878 -4.86711 2.21397 0
M  V30 1799 C 177.178 -3.47483 3.89939 0
M  V30 1800 H 178.872 -1.7757 2.41058 0
M  V30 1801 H 176.418 -0.852887 1.16025 0
M  V30 1802 H 178.371 -3.98263 1.3771 0
M  V30 1803 H 177.095 -3.24409 0.377708 0
M  V30 1804 H 175.754 -2.72959 2.44722 0
M  V30 1805 H 175.402 -4.8799 1.21961 0
M  V30 1806 H 175.102 -5.0731 2.96497 0
M  V30 1807 H 176.626 -5.67515 2.25297 0
M  V30 1808 H 178.04 -4.1598 3.94505 0
M  V30 1809 H 176.437 -3.79615 4.64771 0
M  V30 1810 H 177.507 -2.46341 4.17665 0
M  V30 1811 N 178.85 -1.27639 -0.924453 0
M  V30 1812 C 180.266 -1.05113 -1.20097 0
M  V30 1813 C 180.466 0.213262 -2.00368 0
M  V30 1814 O 179.522 0.91787 -2.35226 0
M  V30 1815 C 180.835 -2.29244 -1.94596 0
M  V30 1816 C 182.383 -2.34315 -2.07522 0
M  V30 1817 C 182.858 -3.58183 -2.85427 0
M  V30 1818 N 184.349 -3.5876 -2.92994 0
M  V30 1819 C 185.084 -4.51277 -3.53746 0
M  V30 1820 N 184.58 -5.54102 -4.15863 0
M  V30 1821 N 186.373 -4.38894 -3.51181 0
M  V30 1822 H 178.524 -2.08821 -0.388264 0
M  V30 1823 H 180.787 -0.918568 -0.234385 0
M  V30 1824 H 180.493 -3.21301 -1.43034 0
M  V30 1825 H 180.367 -2.34816 -2.95197 0
M  V30 1826 H 182.754 -1.42762 -2.58269 0
M  V30 1827 H 182.835 -2.32744 -1.06131 0
M  V30 1828 H 182.479 -4.50074 -2.35363 0
M  V30 1829 H 182.409 -3.57006 -3.8711 0
M  V30 1830 H 184.9 -2.84398 -2.4885 0
M  V30 1831 H 185.213 -6.20859 -4.60168 0
M  V30 1832 H 183.558 -5.57941 -4.144 0
M  V30 1833 H 186.749 -3.57772 -3.01856 0
M  V30 1834 H 186.922 -5.11186 -3.98237 0
M  V30 1835 N 180.328 1.1314 -1.09713 0
M  V30 1836 C 181.574 1.84757 -0.836224 0
M  V30 1837 C 181.907 1.8347 0.636598 0
M  V30 1838 O 181.182 1.27491 1.46889 0
M  V30 1839 C 181.465 3.32782 -1.37578 0
M  V30 1840 C 181.318 3.42567 -2.91493 0
M  V30 1841 C 182.637 4.28307 -1.01198 0
M  V30 1842 H 179.756 0.67082 -0.305236 0
M  V30 1843 H 182.398 1.3278 -1.35903 0
M  V30 1844 H 180.548 3.77177 -0.931097 0
M  V30 1845 H 182.22 3.06862 -3.44432 0
M  V30 1846 H 180.463 2.83349 -3.28475 0
M  V30 1847 H 181.134 4.46674 -3.24324 0
M  V30 1848 H 183.61 3.91999 -1.39556 0
M  V30 1849 H 182.486 5.30307 -1.41653 0
M  V30 1850 H 182.747 4.42029 0.0794833 0
M  V30 1851 N 181.806 0.884767 1.30421 0
M  V30 1852 C 182.736 0.367574 2.30589 0
M  V30 1853 C 183.717 -0.549464 1.60981 0
M  V30 1854 O 184.902 -0.46336 1.88591 0
M  V30 1855 C 182.032 -0.418944 3.44764 0
M  V30 1856 C 180.986 0.406316 4.26067 0
M  V30 1857 C 180.312 -0.506793 5.32293 0
M  V30 1858 C 181.612 1.64832 4.95608 0
M  V30 1859 H 183.306 1.20462 2.74097 0
M  V30 1860 H 180.852 0.580695 1.31772 0
M  V30 1861 H 182.805 -0.791395 4.13902 0
M  V30 1862 H 181.529 -1.28964 3.0006 0
M  V30 1863 H 180.188 0.760903 3.58617 0
M  V30 1864 H 179.836 -1.37519 4.83836 0
M  V30 1865 H 179.536 0.0415828 5.87585 0
M  V30 1866 H 181.06 -0.875764 6.04287 0
M  V30 1867 H 182.474 1.34646 5.57264 0
M  V30 1868 H 180.871 2.13688 5.60765 0
M  V30 1869 H 181.941 2.39284 4.21748 0
M  V30 1870 N 183.284 -1.43765 0.645699 0
M  V30 1871 C 184.695 -1.85193 0.236719 0
M  V30 1872 C 185.046 -1.54045 -1.21509 0
M  V30 1873 O 184.171 -0.985694 -1.92647 0
M  V30 1874 C 184.766 -3.36151 0.422845 0
M  V30 1875 C 183.325 -3.76338 0.0682492 0
M  V30 1876 C 182.472 -2.67538 0.729306 0
M  V30 1877 H 185.423 -1.34025 0.849883 0
M  V30 1878 H 185.444 -3.79032 -0.333904 0
M  V30 1879 H 184.956 -3.5879 1.47958 0
M  V30 1880 H 183.057 -3.59312 -0.986179 0
M  V30 1881 H 183.17 -4.76603 0.488469 0
M  V30 1882 H 181.534 -2.54176 0.163235 0
M  V30 1883 H 182.317 -2.93006 1.78892 0
M  V30 1884 N 184.763 -0.387143 -1.52771 0
M  V30 1885 C 185.711 0.463953 -2.27926 0
M  V30 1886 C 186.705 1.06493 -1.31741 0
M  V30 1887 O 187.911 1.00565 -1.49287 0
M  V30 1888 H 184.286 0.16837 -0.732909 0
M  V30 1889 H 186.257 -0.19141 -2.97785 0
M  V30 1890 C 185.006 1.5803 -3.09713 0
M  V30 1891 H 184.329 1.12718 -3.83581 0
M  V30 1892 H 185.769 2.15008 -3.65442 0
M  V30 1893 C 184.228 2.53509 -2.2189 0
M  V30 1894 O 184.758 3.56863 -1.84422 0
M  V30 1895 N 182.964 2.23199 -1.86093 0
M  V30 1896 H 182.511 1.39185 -2.16761 0
M  V30 1897 H 182.469 2.87333 -1.27621 0
M  V30 1898 N 186.241 1.57166 -0.116904 0
M  V30 1899 C 187.171 2.18222 0.830759 0
M  V30 1900 C 188.152 1.12167 1.27877 0
M  V30 1901 O 189.337 1.40394 1.34176 0
M  V30 1902 C 186.467 2.77996 2.08172 0
M  V30 1903 C 185.421 3.89614 1.77157 0
M  V30 1904 C 184.747 4.36187 3.09265 0
M  V30 1905 C 186.047 5.1181 1.04151 0
M  V30 1906 H 187.741 2.97664 0.321992 0
M  V30 1907 H 185.287 1.4318 0.153434 0
M  V30 1908 H 187.24 3.19366 2.74924 0
M  V30 1909 H 185.964 1.9584 2.6137 0
M  V30 1910 H 184.623 3.48816 1.12796 0
M  V30 1911 H 184.271 3.50893 3.60393 0
M  V30 1912 H 183.971 5.11455 2.89288 0
M  V30 1913 H 185.495 4.80207 3.77139 0
M  V30 1914 H 186.909 5.50214 1.61052 0
M  V30 1915 H 185.306 5.92648 0.942762 0
M  V30 1916 H 186.376 4.84892 0.0279022 0
M  V30 1917 N 187.719 -0.156864 1.56817 0
M  V30 1918 C 189.13 -0.717916 1.72345 0
M  V30 1919 C 189.481 -1.82124 0.729747 0
M  V30 1920 O 188.606 -2.16141 -0.105781 0
M  V30 1921 C 189.201 -1.30904 3.12489 0
M  V30 1922 C 187.76 -1.81676 3.29653 0
M  V30 1923 C 186.907 -0.701349 2.68284 0
M  V30 1924 H 189.858 0.0686989 1.58551 0
M  V30 1925 H 189.879 -2.17882 3.11942 0
M  V30 1926 H 189.391 -0.505796 3.8479 0
M  V30 1927 H 187.492 -2.64598 2.62333 0
M  V30 1928 H 187.605 -1.95226 4.3752 0
M  V30 1929 H 185.969 -1.12548 2.28484 0
M  V30 1930 H 186.752 0.0902846 3.43181 0
M  V30 1931 N 189.197 -1.51736 -0.425897 0
M  V30 1932 C 190.437 -1.66636 -1.18371 0
M  V30 1933 C 190.801 -0.379854 -1.88205 0
M  V30 1934 O 192.002 -0.404758 -2.65735 0
M  V30 1935 C 190.273 -2.84382 -2.16476 0
M  V30 1936 S 191.832 -3.19673 -3.0059 0
M  V30 1937 H 188.65 -0.586957 -0.40125 0
M  V30 1938 H 191.252 -1.89679 -0.473518 0
M  V30 1939 H 189.956 -3.76281 -1.63831 0
M  V30 1940 H 189.487 -2.63562 -2.92059 0
M  V30 1941 H 191.502 -2.66994 -4.18245 0
M  V30 1942 N 190.675 0.682077 -1.42076 0
M  V30 1943 C 191.921 1.44428 -1.42367 0
M  V30 1944 C 192.254 1.94164 -0.0373056 0
M  V30 1945 O 191.529 1.70429 0.937239 0
M  V30 1946 C 191.812 2.64654 -2.44194 0
M  V30 1947 C 191.665 2.20596 -3.91991 0
M  V30 1948 C 192.984 3.66865 -2.431 0
M  V30 1949 H 190.103 0.523834 -0.518428 0
M  V30 1950 H 192.745 0.77576 -1.73442 0
M  V30 1951 H 190.895 3.2169 -2.17826 0
M  V30 1952 H 192.567 1.68783 -4.29313 0
M  V30 1953 H 190.81 1.52242 -4.06208 0
M  V30 1954 H 191.481 3.06921 -4.58807 0
M  V30 1955 H 193.957 3.19531 -2.66532 0
M  V30 1956 H 192.833 4.48577 -3.16339 0
M  V30 1957 H 193.094 4.17493 -1.45437 0
M  V30 1958 N 192.153 1.28127 0.917671 0
M  V30 1959 C 193.399 1.15223 1.66888 0
M  V30 1960 C 193.732 -0.299293 1.9188 0
M  V30 1961 O 193.007 -1.21805 1.51637 0
M  V30 1962 C 193.29 1.94706 3.02922 0
M  V30 1963 C 193.143 3.47898 2.85109 0
M  V30 1964 C 194.462 1.75939 4.03402 0
M  V30 1965 H 191.581 0.419946 0.605652 0
M  V30 1966 H 194.223 1.57398 1.06423 0
M  V30 1967 H 192.373 1.58864 3.54534 0
M  V30 1968 H 194.045 3.93624 2.40537 0
M  V30 1969 H 192.288 3.7373 2.20246 0
M  V30 1970 H 192.959 3.98765 3.81694 0
M  V30 1971 H 195.435 2.07209 3.60837 0
M  V30 1972 H 194.311 2.33931 4.96556 0
M  V30 1973 H 194.572 0.709877 4.36364 0
M  V30 1974 N 193.631 -1.12557 1.10312 0
M  V30 1975 C 194.563 -2.17971 0.708625 0
M  V30 1976 C 195.576 -1.60806 -0.254027 0
M  V30 1977 O 196.765 -1.78458 -0.0386891 0
M  V30 1978 C 193.865 -3.38891 0.0248198 0
M  V30 1979 C 193.038 -4.25548 1.01132 0
M  V30 1980 C 192.097 -5.24972 0.35924 0
M  V30 1981 O 191.123 -5.60174 1.00965 0
M  V30 1982 N 192.325 -5.73747 -0.882847 0
M  V30 1983 H 195.09 -2.52427 1.61557 0
M  V30 1984 H 192.651 -1.27967 0.991771 0
M  V30 1985 H 194.643 -4.02485 -0.422852 0
M  V30 1986 H 193.213 -3.02596 -0.784514 0
M  V30 1987 H 192.433 -3.58589 1.6373 0
M  V30 1988 H 193.721 -4.80294 1.67914 0
M  V30 1989 H 193.119 -5.4731 -1.43065 0
M  V30 1990 H 191.676 -6.39234 -1.27369 0
M  V30 1991 N 195.109 -0.891671 -1.2995 0
M  V30 1992 C 196.019 -0.367691 -2.31701 0
M  V30 1993 C 197.035 0.533486 -1.6562 0
M  V30 1994 O 198.211 0.424997 -1.96865 0
M  V30 1995 C 195.276 0.403406 -3.44345 0
M  V30 1996 C 194.337 -0.528328 -4.26037 0
M  V30 1997 C 193.57 0.206063 -5.33302 0
M  V30 1998 O 193.793 1.43119 -5.52153 0
M  V30 1999 O 192.727 -0.447281 -6.00236 0
M  V30 2000 H 196.553 -1.21163 -2.78484 0
M  V30 2001 H 194.138 -0.655725 -1.34241 0
M  V30 2002 H 196.02 0.839753 -4.12948 0
M  V30 2003 H 194.695 1.22354 -2.99685 0
M  V30 2004 H 193.602 -1.01362 -3.60106 0
M  V30 2005 H 194.935 -1.31465 -4.74318 0
M  V30 2006 N 196.587 1.43421 -0.653314 0
M  V30 2007 C 197.835 2.01414 -0.166415 0
M  V30 2008 C 198.156 1.51803 1.22397 0
M  V30 2009 O 197.426 0.730693 1.81763 0
M  V30 2010 H 196.006 0.744703 -0.0585319 0
M  V30 2011 H 198.668 1.75629 -0.845003 0
M  V30 2012 H 197.764 3.11734 -0.151111 0
M  V30 2013 N 198.065 0.39524 1.52563 0
M  V30 2014 C 199.028 -0.425001 2.25225 0
M  V30 2015 C 200.028 -0.985266 1.27079 0
M  V30 2016 O 201.218 -0.866332 1.5113 0
M  V30 2017 C 198.35 -1.59686 3.01186 0
M  V30 2018 H 199.543 0.211233 2.99155 0
M  V30 2019 H 197.096 0.147472 1.55603 0
M  V30 2020 H 197.831 -2.27035 2.31572 0
M  V30 2021 H 197.616 -1.20176 3.73229 0
M  V30 2022 H 199.106 -2.17743 3.5634 0
M  V30 2023 N 199.544 -1.57102 0.125237 0
M  V30 2024 C 200.793 -1.94582 -0.531095 0
M  V30 2025 C 201.106 -1.01126 -1.6743 0
M  V30 2026 O 202.312 -1.28097 -2.39381 0
M  V30 2027 C 200.768 -3.45839 -0.996164 0
M  V30 2028 C 200.376 -4.47842 0.118926 0
M  V30 2029 C 202.12 -3.92227 -1.62352 0
M  V30 2030 C 200.027 -5.90284 -0.363192 0
M  V30 2031 H 198.957 -0.726391 -0.20217 0
M  V30 2032 H 201.608 -1.82339 0.206092 0
M  V30 2033 H 199.99 -3.53338 -1.78796 0
M  V30 2034 H 201.164 -4.52018 0.895358 0
M  V30 2035 H 199.479 -4.11243 0.653324 0
M  V30 2036 H 202.076 -4.96069 -1.99548 0
M  V30 2037 H 202.419 -3.32552 -2.50429 0
M  V30 2038 H 202.952 -3.87554 -0.897019 0
M  V30 2039 H 199.691 -6.53728 0.481679 0
M  V30 2040 H 199.211 -5.89515 -1.10597 0
M  V30 2041 H 200.89 -6.41752 -0.822377 0
M  V30 2042 N 201.022 0.148545 -1.56898 0
M  V30 2043 C 202.268 0.862694 -1.83536 0
M  V30 2044 C 202.601 1.80889 -0.706604 0
M  V30 2045 O 201.876 1.92328 0.289885 0
M  V30 2046 C 202.159 1.63853 -3.20662 0
M  V30 2047 C 202.012 0.713925 -4.44098 0
M  V30 2048 C 203.331 2.60133 -3.54991 0
M  V30 2049 H 200.45 0.312179 -0.667618 0
M  V30 2050 H 203.092 0.127953 -1.89569 0
M  V30 2051 H 201.242 2.26489 -3.1565 0
M  V30 2052 H 202.914 0.098686 -4.61194 0
M  V30 2053 H 201.157 0.0234019 -4.33794 0
M  V30 2054 H 201.828 1.29278 -5.36648 0
M  V30 2055 H 204.304 2.07616 -3.60603 0
M  V30 2056 H 203.18 3.11468 -4.51972 0
M  V30 2057 H 203.441 3.41417 -2.80868 0
M  V30 2058 N 202.5 1.5196 0.417844 0
M  V30 2059 C 203.433 1.69387 1.52916 0
M  V30 2060 C 204.411 0.541419 1.53321 0
M  V30 2061 O 205.595 0.767695 1.72159 0
M  V30 2062 C 202.722 1.72525 2.91467 0
M  V30 2063 C 201.768 2.93967 3.09008 0
M  V30 2064 S 202.601 4.54461 2.83242 0
M  V30 2065 C 203.757 4.60372 4.24038 0
M  V30 2066 H 203.99 2.63382 1.37903 0
M  V30 2067 H 201.523 1.41889 0.608845 0
M  V30 2068 H 203.481 1.75018 3.7132 0
M  V30 2069 H 202.142 0.796733 3.03827 0
M  V30 2070 H 201.335 2.92619 4.10353 0
M  V30 2071 H 200.937 2.89316 2.37007 0
M  V30 2072 H 203.229 4.37213 5.17544 0
M  V30 2073 H 204.172 5.62273 4.30412 0
M  V30 2074 H 204.58 3.89492 4.08602 0
M  V30 2075 N 203.978 -0.674533 1.42435 0
M  V30 2076 C 204.941 -1.76986 1.45632 0
M  V30 2077 C 205.941 -1.5708 0.343871 0
M  V30 2078 O 207.131 -1.63367 0.604709 0
M  V30 2079 C 204.263 -3.15623 1.28822 0
M  V30 2080 H 205.456 -1.75539 2.43158 0
M  V30 2081 H 203.009 -0.884189 1.28887 0
M  V30 2082 H 203.744 -3.22696 0.322193 0
M  V30 2083 H 203.529 -3.31475 2.09444 0
M  V30 2084 H 205.019 -3.95537 1.33942 0
M  V30 2085 N 205.456 -1.28612 -0.910864 0
M  V30 2086 C 206.872 -1.06381 -1.18976 0
M  V30 2087 C 207.072 0.191998 -2.00583 0
M  V30 2088 O 206.128 0.892869 -2.36187 0
M  V30 2089 C 207.441 -2.31295 -1.92154 0
M  V30 2090 C 208.989 -2.36503 -2.05025 0
M  V30 2091 C 209.464 -3.61191 -2.81612 0
M  V30 2092 N 210.955 -3.61847 -2.89172 0
M  V30 2093 C 211.69 -4.55004 -3.4894 0
M  V30 2094 N 211.186 -5.58482 -4.09963 0
M  V30 2095 N 212.979 -4.42594 -3.46506 0
M  V30 2096 H 205.13 -2.09221 -0.366094 0
M  V30 2097 H 207.393 -0.921003 -0.224629 0
M  V30 2098 H 207.099 -3.228 -1.39618 0
M  V30 2099 H 206.973 -2.37934 -2.9269 0
M  V30 2100 H 209.36 -1.45494 -2.5674 0
M  V30 2101 H 209.441 -2.33857 -1.03657 0
M  V30 2102 H 209.085 -4.52545 -2.30576 0
M  V30 2103 H 209.015 -3.61092 -3.83302 0
M  V30 2104 H 211.506 -2.87022 -2.45819 0
M  V30 2105 H 211.819 -6.25704 -4.53557 0
M  V30 2106 H 210.164 -5.62305 -4.08459 0
M  V30 2107 H 213.355 -3.60953 -2.98045 0
M  V30 2108 H 213.528 -5.15381 -3.92793 0
M  V30 2109 N 206.934 1.1197 -1.10907 0
M  V30 2110 C 208.182 1.83225 -0.852819 0
M  V30 2111 C 208.503 1.84769 0.623341 0
M  V30 2112 O 207.773 1.3143 1.45269 0
M  V30 2113 H 206.353 0.67849 -0.312507 0
M  V30 2114 H 209.015 1.3556 -1.40033 0
M  V30 2115 H 208.111 2.87265 -1.22005 0
M  V30 2116 N 208.412 0.89855 1.29475 0
M  V30 2117 C 209.828 0.594483 1.48115 0
M  V30 2118 C 210.028 -0.86431 1.82022 0
M  V30 2119 O 209.084 -1.64457 1.91599 0
M  V30 2120 C 210.397 1.51932 2.59494 0
M  V30 2121 C 211.945 1.5244 2.7337 0
M  V30 2122 C 212.42 2.43548 3.87877 0
M  V30 2123 N 213.911 2.41589 3.95208 0
M  V30 2124 C 214.646 3.08789 4.83153 0
M  V30 2125 N 214.142 3.85265 5.75798 0
M  V30 2126 N 215.935 2.97952 4.76635 0
M  V30 2127 H 208.086 1.84207 1.05742 0
M  V30 2128 H 210.349 0.789251 0.525154 0
M  V30 2129 H 210.055 2.55865 2.41301 0
M  V30 2130 H 209.929 1.23899 3.56271 0
M  V30 2131 H 212.316 0.492518 2.90961 0
M  V30 2132 H 212.397 1.8451 1.77172 0
M  V30 2133 H 212.041 3.46829 3.71041 0
M  V30 2134 H 211.971 2.08788 4.83441 0
M  V30 2135 H 214.462 1.86025 3.28943 0
M  V30 2136 H 214.775 4.33598 6.39697 0
M  V30 2137 H 213.12 3.89371 5.75687 0
M  V30 2138 H 216.311 2.37723 4.03244 0
M  V30 2139 H 216.484 3.50599 5.44962 0
M  V30 2140 N 209.89 -1.43072 0.660911 0
M  V30 2141 C 210.84 -2.27948 -0.04847 0
M  V30 2142 C 211.824 -1.40325 -0.787246 0
M  V30 2143 O 213.016 -1.63893 -0.668446 0
M  V30 2144 C 210.145 -3.28143 -1.00881 0
M  V30 2145 C 209.231 -4.23252 -0.268108 0
M  V30 2146 N 209.622 -5.00656 0.719528 0
M  V30 2147 C 207.92 -4.43092 -0.508493 0
M  V30 2148 C 208.621 -5.70019 1.15988 0
M  V30 2149 N 207.597 -5.41364 0.492584 0
M  V30 2150 H 211.399 -2.85213 0.709279 0
M  V30 2151 H 208.913 -1.54869 0.488822 0
M  V30 2152 H 210.91 -3.87736 -1.53188 0
M  V30 2153 H 209.57 -2.7244 -1.76654 0
M  V30 2154 H 210.581 -5.06115 1.09855 0
M  V30 2155 H 207.258 -3.98449 -1.24679 0
M  V30 2156 H 208.648 -6.4214 1.97751 0
M  V30 2157 N 211.368 -0.403325 -1.52352 0
M  V30 2158 C 212.614 0.174605 -2.02047 0
M  V30 2159 C 212.947 1.45282 -1.28867 0
M  V30 2160 O 212.222 1.90483 -0.393257 0
M  V30 2161 C 212.505 0.428238 -3.57545 0
M  V30 2162 C 212.358 -0.866248 -4.4138 0
M  V30 2163 C 213.677 1.21287 -4.23057 0
M  V30 2164 H 210.796 0.0619851 -0.734389 0
M  V30 2165 H 213.438 -0.53565 -1.82293 0
M  V30 2166 H 211.588 1.03327 -3.74507 0
M  V30 2167 H 213.26 -1.50265 -4.3614 0
M  V30 2168 H 211.503 -1.47851 -4.07827 0
M  V30 2169 H 212.174 -0.643249 -5.48239 0
M  V30 2170 H 214.65 0.700703 -4.10158 0
M  V30 2171 H 213.526 1.35909 -5.31808 0
M  V30 2172 H 213.787 2.23193 -3.81625 0
M  V30 2173 N 212.846 1.57033 -0.133567 0
M  V30 2174 C 214.094 1.953 0.519848 0
M  V30 2175 C 214.415 1.01866 1.66278 0
M  V30 2176 O 213.685 0.0776513 1.95746 0
M  V30 2177 H 212.265 0.721091 0.195032 0
M  V30 2178 H 214.927 1.93809 -0.205921 0
M  V30 2179 H 214.023 2.98695 0.904854 0
M  V30 2180 N 214.325 -0.140222 1.56975 0
M  V30 2181 C 215.55 -0.870414 1.88251 0
M  V30 2182 C 215.975 -1.73637 0.723312 0
M  V30 2183 O 215.333 -1.78329 -0.32689 0
M  V30 2184 C 215.381 -1.69737 3.18154 0
M  V30 2185 O 214.485 -2.80229 3.02565 0
M  V30 2186 H 213.826 -0.242025 0.61832 0
M  V30 2187 H 216.356 -0.128999 2.04193 0
M  V30 2188 H 216.366 -2.09099 3.50345 0
M  V30 2189 H 215.041 -1.06152 4.02125 0
M  V30 2190 H 213.618 -2.44224 2.81796 0
M  V30 2191 N 215.803 -1.52179 -0.40978 0
M  V30 2192 C 217.028 -1.70347 -1.18308 0
M  V30 2193 C 217.453 -0.411887 -1.83535 0
M  V30 2194 O 216.811 0.630587 -1.6998 0
M  V30 2195 C 216.859 -2.83977 -2.22238 0
M  V30 2196 O 215.963 -2.495 -3.28365 0
M  V30 2197 H 215.304 -0.567103 -0.345384 0
M  V30 2198 H 217.834 -1.98879 -0.480445 0
M  V30 2199 H 217.844 -3.0887 -2.66577 0
M  V30 2200 H 216.519 -3.77685 -1.74146 0
M  V30 2201 H 215.096 -2.35277 -2.89308 0
M  V30 2202 N 217.281 0.66697 -1.42791 0
M  V30 2203 C 218.191 1.80962 -1.49299 0
M  V30 2204 C 219.207 1.69775 -0.381108 0
M  V30 2205 O 220.383 1.91188 -0.633188 0
M  V30 2206 C 217.448 3.17156 -1.40045 0
M  V30 2207 C 216.509 3.40242 -2.6179 0
M  V30 2208 C 215.742 4.69939 -2.52969 0
M  V30 2209 O 215.965 5.48372 -1.56985 0
M  V30 2210 O 214.899 4.94441 -3.43237 0
M  V30 2211 H 218.725 1.78427 -2.45759 0
M  V30 2212 H 216.31 0.823713 -1.24641 0
M  V30 2213 H 218.192 3.98413 -1.37276 0
M  V30 2214 H 216.867 3.20312 -0.467138 0
M  V30 2215 H 215.774 2.58802 -2.70134 0
M  V30 2216 H 217.107 3.41923 -3.54047 0
M  V30 2217 N 218.759 1.29093 0.90403 0
M  V30 2218 C 219.987 1.19689 1.68766 0
M  V30 2219 C 220.402 -0.243113 1.87228 0
M  V30 2220 O 219.759 -1.16326 1.40621 0
M  V30 2221 C 219.81 1.90144 3.07453 0
M  V30 2222 O 219.531 3.2852 2.89838 0
M  V30 2223 C 221.032 1.87162 4.01852 0
M  V30 2224 H 218.252 0.415035 0.527244 0
M  V30 2225 H 220.796 1.7039 1.13082 0
M  V30 2226 H 218.951 1.43289 3.59926 0
M  V30 2227 H 219.365 3.63944 3.77684 0
M  V30 2228 H 220.839 2.41032 4.96596 0
M  V30 2229 H 221.316 0.84617 4.30972 0
M  V30 2230 H 221.922 2.33741 3.5531 0
M  V30 2231 N 220.237 -1.11381 1.11499 0
M  V30 2232 C 221.184 -2.17439 0.773887 0
M  V30 2233 C 222.154 -1.64132 -0.254899 0
M  V30 2234 O 223.339 -1.90345 -0.13168 0
M  V30 2235 C 220.479 -3.44373 0.223917 0
M  V30 2236 C 219.592 -4.1168 1.30934 0
M  V30 2237 C 218.727 -5.263 0.71984 0
M  V30 2238 C 217.766 -5.85493 1.78507 0
M  V30 2239 N 216.903 -6.91507 1.21502 0
M  V30 2240 H 221.743 -2.45962 1.68246 0
M  V30 2241 H 219.28 -1.20744 0.840191 0
M  V30 2242 H 221.238 -4.17047 -0.112921 0
M  V30 2243 H 219.868 -3.16232 -0.647851 0
M  V30 2244 H 218.92 -3.37073 1.76312 0
M  V30 2245 H 220.232 -4.51729 2.11524 0
M  V30 2246 H 219.386 -6.05785 0.333094 0
M  V30 2247 H 218.125 -4.87559 -0.117377 0
M  V30 2248 H 217.13 -5.04686 2.18111 0
M  V30 2249 H 218.355 -6.26301 2.62533 0
M  V30 2250 H 216.301 -6.54783 0.399455 0
M  V30 2251 H 216.218 -7.30214 1.95763 0
M  V30 2252 H 217.486 -7.74795 0.855181 0
M  V30 2253 N 221.715 -0.905404 -1.28997 0
M  V30 2254 C 222.645 -0.404212 -2.29975 0
M  V30 2255 C 223.626 0.523784 -1.61835 0
M  V30 2256 O 224.811 0.433298 -1.89304 0
M  V30 2257 C 221.941 0.364042 -3.45387 0
M  V30 2258 C 220.895 -0.474048 -4.25367 0
M  V30 2259 C 220.221 0.422045 -5.33032 0
M  V30 2260 C 221.521 -1.72696 -4.92923 0
M  V30 2261 H 223.215 -1.24807 -2.72146 0
M  V30 2262 H 220.761 -0.601585 -1.30832 0
M  V30 2263 H 222.714 0.725447 -4.15109 0
M  V30 2264 H 221.438 1.24174 -3.02074 0
M  V30 2265 H 220.097 -0.81786 -3.57361 0
M  V30 2266 H 219.745 1.29804 -4.85963 0
M  V30 2267 H 219.445 -0.135057 -5.87445 0
M  V30 2268 H 220.969 0.779517 -6.05604 0
M  V30 2269 H 222.383 -1.43495 -5.55051 0
M  V30 2270 H 220.78 -2.22582 -5.57295 0
M  V30 2271 H 221.85 -2.45964 -4.17887 0
M  V30 2272 N 223.193 1.4272 -0.668489 0
M  V30 2273 C 224.123 2.335 -0.000100175 0
M  V30 2274 C 225.104 1.50328 0.795964 0
M  V30 2275 O 226.289 1.78949 0.754385 0
M  V30 2276 C 223.419 3.33874 0.956302 0
M  V30 2277 C 222.373 4.27152 0.269278 0
M  V30 2278 C 221.699 5.17684 1.33818 0
M  V30 2279 C 222.999 5.15373 -0.847805 0
M  V30 2280 H 224.693 2.89639 -0.758244 0
M  V30 2281 H 222.239 1.39269 -0.366079 0
M  V30 2282 H 224.192 3.9629 1.43292 0
M  V30 2283 H 222.916 2.76025 1.74579 0
M  V30 2284 H 221.575 3.66123 -0.187042 0
M  V30 2285 H 221.223 4.56165 2.1195 0
M  V30 2286 H 220.923 5.80918 0.883659 0
M  V30 2287 H 222.447 5.82974 1.81586 0
M  V30 2288 H 223.861 5.7151 -0.452681 0
M  V30 2289 H 222.258 5.87407 -1.22773 0
M  V30 2290 H 223.328 4.5415 -1.69929 0
M  V30 2291 N 224.671 0.411399 1.52136 0
M  V30 2292 C 225.603 -0.448386 2.24771 0
M  V30 2293 C 226.616 -1.00828 1.27818 0
M  V30 2294 O 227.805 -0.906841 1.53749 0
M  V30 2295 C 224.905 -1.63636 2.96777 0
M  V30 2296 C 224.078 -1.19995 4.20618 0
M  V30 2297 C 223.137 -2.25509 4.75428 0
M  V30 2298 O 222.163 -1.86007 5.3795 0
M  V30 2299 N 223.365 -3.577 4.57199 0
M  V30 2300 H 226.13 0.174025 2.99194 0
M  V30 2301 H 223.691 0.238897 1.60128 0
M  V30 2302 H 225.683 -2.33793 3.30338 0
M  V30 2303 H 224.253 -2.16465 2.25526 0
M  V30 2304 H 223.473 -0.326421 3.92846 0
M  V30 2305 H 224.761 -0.885365 5.01038 0
M  V30 2306 H 224.159 -3.92543 4.07341 0
M  V30 2307 H 222.716 -4.23827 4.95191 0
M  V30 2308 N 226.149 -1.5696 0.141893 0
M  V30 2309 C 227.099 -2.13074 -0.811383 0
M  V30 2310 C 228.083 -1.05726 -1.21288 0
M  V30 2311 O 229.275 -1.31914 -1.18015 0
M  V30 2312 C 226.404 -2.75186 -2.0525 0
M  V30 2313 C 225.49 -3.8965 -1.67432 0
M  V30 2314 N 225.881 -4.95733 -1.0041 0
M  V30 2315 C 224.179 -4.00262 -1.96739 0
M  V30 2316 C 224.88 -5.75858 -0.822345 0
M  V30 2317 N 223.856 -5.26452 -1.3546 0
M  V30 2318 H 227.658 -2.92465 -0.290031 0
M  V30 2319 H 225.172 -1.6229 -0.0598218 0
M  V30 2320 H 227.169 -3.13745 -2.74535 0
M  V30 2321 H 225.829 -1.97266 -2.57907 0
M  V30 2322 H 226.84 -5.13607 -0.665441 0
M  V30 2323 H 223.517 -3.33412 -2.51282 0
M  V30 2324 H 224.907 -6.71254 -0.294496 0
M  V30 2325 N 227.627 0.131896 -1.57047 0
M  V30 2326 C 228.557 1.16384 -2.02428 0
M  V30 2327 C 229.538 1.43936 -0.90644 0
M  V30 2328 O 230.723 1.54599 -1.17528 0
M  V30 2329 C 227.853 2.49328 -2.4177 0
M  V30 2330 C 226.807 2.36266 -3.56879 0
M  V30 2331 C 226.133 3.74057 -3.8208 0
M  V30 2332 C 227.433 1.834 -4.89042 0
M  V30 2333 H 229.127 0.786433 -2.88887 0
M  V30 2334 H 226.673 0.376855 -1.38981 0
M  V30 2335 H 228.626 3.21759 -2.7212 0
M  V30 2336 H 227.35 2.88934 -1.52266 0
M  V30 2337 H 226.009 1.66286 -3.26718 0
M  V30 2338 H 225.657 4.11125 -2.89803 0
M  V30 2339 H 225.357 3.66174 -4.59554 0
M  V30 2340 H 226.881 4.48012 -4.1487 0
M  V30 2341 H 228.295 2.45636 -5.18011 0
M  V30 2342 H 226.692 1.8637 -5.70426 0
M  V30 2343 H 227.762 0.790662 -4.7841 0
M  V30 2344 N 229.106 1.52395 0.401703 0
M  V30 2345 C 230.036 1.79231 1.49661 0
M  V30 2346 C 231.017 0.643654 1.57452 0
M  V30 2347 O 232.202 0.889989 1.72606 0
M  V30 2348 C 229.332 1.94971 2.87409 0
M  V30 2349 C 228.286 3.10604 2.94465 0
M  V30 2350 C 227.612 3.11577 4.34538 0
M  V30 2351 C 228.912 4.49921 2.6527 0
M  V30 2352 H 230.606 2.70917 1.27454 0
M  V30 2353 H 228.152 1.30362 0.6117 0
M  V30 2354 H 230.105 2.12328 3.63999 0
M  V30 2355 H 228.829 0.999632 3.10926 0
M  V30 2356 H 227.488 2.93009 2.20321 0
M  V30 2357 H 227.136 2.14277 4.55076 0
M  V30 2358 H 226.836 3.89247 4.40183 0
M  V30 2359 H 228.36 3.31073 5.13053 0
M  V30 2360 H 229.774 4.67683 3.31581 0
M  V30 2361 H 228.171 5.29564 2.82281 0
M  V30 2362 H 229.241 4.57507 1.60671 0
M  V30 2363 N 230.584 -0.659388 1.43143 0
M  V30 2364 C 231.494 -1.80167 1.50256 0
M  V30 2365 C 232.51 -1.69571 0.390106 0
M  V30 2366 O 233.686 -1.90849 0.643319 0
M  V30 2367 C 230.751 -3.16409 1.41725 0
M  V30 2368 C 229.812 -3.38848 2.63591 0
M  V30 2369 C 229.045 -4.68591 2.55458 0
M  V30 2370 O 229.268 -5.47532 1.59891 0
M  V30 2371 O 228.202 -4.92614 3.45854 0
M  V30 2372 H 232.028 -1.77121 2.46702 0
M  V30 2373 H 229.613 -0.817092 1.25076 0
M  V30 2374 H 231.495 -3.9768 1.39387 0
M  V30 2375 H 230.17 -3.20059 0.484118 0
M  V30 2376 H 229.077 -2.57366 2.71502 0
M  V30 2377 H 230.41 -3.4004 3.55856 0
M  V30 2378 N 232.062 -1.29571 -0.897171 0
M  V30 2379 C 233.025 -1.14913 -1.98312 0
M  V30 2380 C 234.025 -0.0838629 -1.60581 0
M  V30 2381 O 235.215 -0.331006 -1.71026 0
M  V30 2382 C 232.347 -0.757835 -3.3237 0
M  V30 2383 H 233.54 -2.11377 -2.12743 0
M  V30 2384 H 231.093 -1.12793 -1.08201 0
M  V30 2385 H 231.828 0.206837 -3.2364 0
M  V30 2386 H 231.613 -1.52755 -3.61121 0
M  V30 2387 H 233.103 -0.678408 -4.12053 0
M  V30 2388 N 233.54 1.10788 -1.12088 0
M  V30 2389 C 234.78 1.84297 -0.883974 0
M  V30 2390 C 235.144 1.83036 0.579797 0
M  V30 2391 O 236.345 2.52061 0.933734 0
M  V30 2392 C 234.616 3.27173 -1.43849 0
M  V30 2393 S 236.175 4.17853 -1.33957 0
M  V30 2394 H 232.993 0.635433 -0.318977 0
M  V30 2395 H 235.595 1.33341 -1.4297 0
M  V30 2396 H 234.299 3.25658 -2.49749 0
M  V30 2397 H 233.83 3.83198 -0.890096 0
M  V30 2398 H 235.845 4.95239 -0.308603 0
M  V30 2399 N 235.018 0.912232 1.28515 0
M  V30 2400 C 236.266 0.543523 1.94654 0
M  V30 2401 C 236.587 -0.9155 1.72173 0
M  V30 2402 O 235.857 -1.64708 1.06058 0
M  V30 2403 H 234.437 0.198017 0.720277 0
M  V30 2404 H 237.099 1.16126 1.56527 0
M  V30 2405 H 236.195 0.736684 3.03281 0
M  V30 2406 N 236.496 -1.42363 0.676048 0
M  V30 2407 C 237.912 -1.55811 0.345718 0
M  V30 2408 C 238.112 -1.65544 -1.14879 0
M  V30 2409 O 237.168 -1.62306 -1.93424 0
M  V30 2410 C 238.481 -2.80746 1.07713 0
M  V30 2411 C 240.029 -2.9452 1.05958 0
M  V30 2412 C 240.504 -4.22318 1.77233 0
M  V30 2413 N 241.995 -4.29233 1.74108 0
M  V30 2414 C 242.73 -5.26935 2.26113 0
M  V30 2415 N 242.226 -6.30783 2.86505 0
M  V30 2416 N 244.019 -5.18741 2.1648 0
M  V30 2417 H 236.17 -1.34289 1.6456 0
M  V30 2418 H 238.433 -0.646506 0.69335 0
M  V30 2419 H 238.139 -2.79696 2.13221 0
M  V30 2420 H 238.013 -3.71676 0.64316 0
M  V30 2421 H 240.4 -2.95097 0.0128255 0
M  V30 2422 H 240.481 -2.04817 1.53244 0
M  V30 2423 H 240.125 -4.22502 2.81877 0
M  V30 2424 H 240.055 -5.10958 1.27396 0
M  V30 2425 H 242.546 -3.54814 1.30059 0
M  V30 2426 H 242.859 -7.01691 3.23805 0
M  V30 2427 H 241.204 -6.31341 2.90575 0
M  V30 2428 H 244.395 -4.36533 1.68987 0
M  V30 2429 H 244.568 -5.94721 2.57316 0
M  V30 2430 N 237.974 -0.419461 -1.51915 0
M  V30 2431 C 239.214 0.152336 -2.03832 0
M  V30 2432 C 239.578 1.41501 -1.29775 0
M  V30 2433 O 240.779 2.06591 -1.7197 0
M  V30 2434 C 239.05 0.383812 -3.55333 0
M  V30 2435 S 240.609 0.921577 -4.29013 0
M  V30 2436 H 237.427 0.0402193 -0.709862 0
M  V30 2437 H 240.029 -0.574758 -1.8686 0
M  V30 2438 H 238.733 -0.541794 -4.06808 0
M  V30 2439 H 238.264 1.13849 -3.76566 0
M  V30 2440 H 240.279 2.20108 -4.4471 0
M  V30 2441 N 239.452 1.56882 -0.150215 0
M  V30 2442 C 240.362 2.20494 0.801222 0
M  V30 2443 C 241.378 1.19019 1.26927 0
M  V30 2444 O 242.554 1.51607 1.32579 0
M  V30 2445 C 239.619 2.81659 2.02161 0
M  V30 2446 C 238.68 3.9827 1.60249 0
M  V30 2447 C 237.913 4.56508 2.7647 0
M  V30 2448 O 238.136 4.13627 3.92771 0
M  V30 2449 O 237.07 5.46719 2.51757 0
M  V30 2450 H 240.896 3.02315 0.289717 0
M  V30 2451 H 238.481 1.49202 0.0769684 0
M  V30 2452 H 240.363 3.20522 2.73576 0
M  V30 2453 H 239.038 2.02849 2.52258 0
M  V30 2454 H 237.945 3.64117 0.858477 0
M  V30 2455 H 239.278 4.78609 1.14864 0
M  V30 2456 N 240.93 -0.123565 1.57115 0
M  V30 2457 C 241.84 -1.17074 2.033 0
M  V30 2458 C 242.856 -1.4561 0.952559 0
M  V30 2459 O 244.032 -1.56817 1.26374 0
M  V30 2460 C 241.097 -2.47857 2.42421 0
M  V30 2461 C 240.158 -2.26758 3.64526 0
M  V30 2462 C 239.391 -3.51305 4.01771 0
M  V30 2463 O 239.614 -4.5843 3.39409 0
M  V30 2464 O 238.548 -3.42578 4.94898 0
M  V30 2465 H 242.374 -0.808555 2.92739 0
M  V30 2466 H 239.959 -0.334027 1.45618 0
M  V30 2467 H 241.841 -3.2492 2.68338 0
M  V30 2468 H 240.516 -2.83558 1.5613 0
M  V30 2469 H 239.423 -1.47569 3.43765 0
M  V30 2470 H 240.756 -1.95963 4.51508 0
M  V30 2471 N 242.408 -1.52605 -0.393616 0
M  V30 2472 C 243.654 -1.67672 -1.14079 0
M  V30 2473 C 243.987 -0.413121 -1.89755 0
M  V30 2474 O 243.262 0.588952 -1.85369 0
M  V30 2475 C 243.545 -2.9088 -2.12276 0
M  V30 2476 C 243.398 -4.27329 -1.40394 0
M  V30 2477 C 244.717 -3.09628 -3.12759 0
M  V30 2478 H 241.836 -0.610168 -0.413356 0
M  V30 2479 H 244.478 -1.85193 -0.424696 0
M  V30 2480 H 242.628 -2.76073 -2.73342 0
M  V30 2481 H 244.3 -4.53894 -0.82327 0
M  V30 2482 H 242.543 -4.2802 -0.705801 0
M  V30 2483 H 243.214 -5.09615 -2.12123 0
M  V30 2484 H 245.69 -3.23436 -2.61779 0
M  V30 2485 H 244.566 -3.97322 -3.78717 0
M  V30 2486 H 244.827 -2.23637 -3.81365 0
M  V30 2487 N 243.887 0.651787 -1.4349 0
M  V30 2488 C 245.298 1.233 -1.40193 0
M  V30 2489 C 245.649 1.9591 -0.106727 0
M  V30 2490 O 244.774 2.01316 0.793773 0
M  V30 2491 C 245.369 2.24257 -2.53957 0
M  V30 2492 C 243.928 2.77852 -2.5392 0
M  V30 2493 C 243.075 1.52517 -2.3159 0
M  V30 2494 H 246.026 0.443717 -1.52371 0
M  V30 2495 H 246.047 3.0646 -2.25528 0
M  V30 2496 H 245.559 1.71382 -3.4821 0
M  V30 2497 H 243.66 3.34786 -1.63551 0
M  V30 2498 H 243.773 3.25299 -3.51735 0
M  V30 2499 H 242.137 1.79915 -1.80285 0
M  V30 2500 H 242.92 1.01574 -3.27929 0
M  V30 2501 N 245.365 1.30045 0.890287 0
M  V30 2502 C 246.275 1.17885 2.02831 0
M  V30 2503 C 247.291 0.0999609 1.73713 0
M  V30 2504 O 248.467 0.313867 1.98939 0
M  V30 2505 C 245.532 0.866079 3.35708 0
M  V30 2506 C 244.593 2.02979 3.78283 0
M  V30 2507 C 243.826 1.73184 5.0482 0
M  V30 2508 O 244.049 0.657237 5.66601 0
M  V30 2509 O 242.983 2.58267 5.43674 0
M  V30 2510 H 246.809 2.13474 2.16015 0
M  V30 2511 H 244.394 1.09587 1.01543 0
M  V30 2512 H 246.276 0.706623 4.15433 0
M  V30 2513 H 244.951 -0.0599443 3.23644 0
M  V30 2514 H 243.858 2.24454 2.99285 0
M  V30 2515 H 245.191 2.93734 3.94944 0
M  V30 2516 N 246.843 -1.10192 1.12674 0
M  V30 2517 C 247.806 -2.14786 0.799979 0
M  V30 2518 C 248.806 -1.59711 -0.18685 0
M  V30 2519 O 249.996 -1.74156 0.0392558 0
M  V30 2520 C 247.128 -3.40374 0.189228 0
M  V30 2521 H 248.321 -2.45203 1.72671 0
M  V30 2522 H 245.874 -1.25597 0.930326 0
M  V30 2523 H 246.609 -3.15577 -0.747107 0
M  V30 2524 H 246.394 -3.81637 0.899766 0
M  V30 2525 H 247.884 -4.17594 -0.0228143 0
M  V30 2526 N 248.321 -0.919034 -1.28029 0
M  V30 2527 C 249.551 -0.570143 -1.98577 0
M  V30 2528 C 249.959 0.854172 -1.68821 0
M  V30 2529 O 249.302 1.57807 -0.940351 0
M  V30 2530 C 249.364 -0.705734 -3.52505 0
M  V30 2531 C 249.028 -2.10057 -4.05863 0
M  V30 2532 C 250.025 -3.07385 -4.19298 0
M  V30 2533 C 247.71 -2.41517 -4.40426 0
M  V30 2534 C 249.704 -4.34287 -4.66555 0
M  V30 2535 C 247.391 -3.68657 -4.87376 0
M  V30 2536 C 248.389 -4.64856 -5.00398 0
M  V30 2537 O 248.077 -5.89735 -5.46322 0
M  V30 2538 H 247.809 -0.215592 -0.6407 0
M  V30 2539 H 250.363 -1.23583 -1.64062 0
M  V30 2540 H 248.593 0.0170414 -3.86696 0
M  V30 2541 H 250.282 -0.363172 -4.04272 0
M  V30 2542 H 251.048 -2.84398 -3.92865 0
M  V30 2543 H 246.927 -1.67389 -4.29537 0
M  V30 2544 H 250.471 -5.09377 -4.76635 0
M  V30 2545 H 246.368 -3.91466 -5.13249 0
M  V30 2546 H 247.136 -5.92599 -5.64596 0
M  V30 2547 N 249.799 1.42003 -0.683588 0
M  V30 2548 C 251.045 2.01712 -0.209825 0
M  V30 2549 C 251.378 1.53968 1.18353 0
M  V30 2550 O 250.653 0.745661 1.79639 0
M  V30 2551 C 250.936 3.59202 -0.254197 0
M  V30 2552 C 250.789 4.17102 -1.68363 0
M  V30 2553 C 252.108 4.38344 0.392709 0
M  V30 2554 H 249.227 0.732891 -0.0777189 0
M  V30 2555 H 251.869 1.68909 -0.87004 0
M  V30 2556 H 250.019 3.87278 0.307954 0
M  V30 2557 H 251.691 3.99946 -2.29871 0
M  V30 2558 H 249.934 3.72597 -2.22157 0
M  V30 2559 H 250.605 5.26249 -1.6663 0
M  V30 2560 H 253.081 4.16011 -0.0859162 0
M  V30 2561 H 251.957 5.47901 0.331063 0
M  V30 2562 H 252.218 4.16887 1.47164 0
M  V30 2563 N 251.277 0.427512 1.51691 0
M  V30 2564 C 252.554 -0.201684 1.94557 0
M  V30 2565 C 252.934 -1.60981 1.36559 0
M  V30 2566 O 252.282 -2.21814 0.548702 0
M  V30 2567 C 252.492 -0.189394 3.48486 0
M  V30 2568 C 253.84 -0.39978 4.22714 0
M  V30 2569 O 254.864 -0.267945 3.55191 0
M  V30 2570 O 253.723 -0.661249 5.42485 0
M  V30 2571 H 250.817 -0.135261 0.815864 0
M  V30 2572 H 253.363 0.484782 1.62628 0
M  V30 2573 H 252.135 0.795431 3.8313 0
M  V30 2574 H 251.758 -0.919187 3.86829 0
M  V30 2575 N 252.755 -1.56801 0.158532 0
M  V30 2576 C 254.004 -1.95665 -0.489702 0
M  V30 2577 C 254.317 -1.04654 -1.65248 0
M  V30 2578 O 255.523 -1.33146 -2.3661 0
M  V30 2579 C 253.979 -3.47874 -0.922582 0
M  V30 2580 C 253.587 -4.47489 0.213893 0
M  V30 2581 C 255.331 -3.95583 -1.53996 0
M  V30 2582 C 253.238 -5.90921 -0.237903 0
M  V30 2583 H 252.168 -0.730516 -0.186716 0
M  V30 2584 H 254.819 -1.81861 0.244722 0
M  V30 2585 H 253.201 -3.57051 -1.71261 0
M  V30 2586 H 254.375 -4.50017 0.991036 0
M  V30 2587 H 252.69 -4.09764 0.740407 0
M  V30 2588 H 255.287 -5.0019 -1.8898 0
M  V30 2589 H 255.63 -3.37789 -2.43319 0
M  V30 2590 H 256.163 -3.8937 -0.814611 0
M  V30 2591 H 252.902 -6.52559 0.620236 0
M  V30 2592 H 252.422 -5.91729 -0.980676 0
M  V30 2593 H 254.101 -6.43352 -0.686067 0
M  V30 2594 N 254.233 0.115231 -1.57178 0
M  V30 2595 C 255.183 1.14707 -1.97044 0
M  V30 2596 C 256.167 1.36866 -0.845957 0
M  V30 2597 O 257.359 1.37895 -1.10968 0
M  V30 2598 C 254.488 2.47266 -2.38148 0
M  V30 2599 C 253.574 2.28566 -3.57237 0
M  V30 2600 N 253.965 1.79685 -4.72807 0
M  V30 2601 C 252.263 2.59208 -3.62943 0
M  V30 2602 C 252.964 1.74781 -5.54821 0
M  V30 2603 N 251.94 2.19264 -4.97417 0
M  V30 2604 H 255.742 0.761754 -2.83857 0
M  V30 2605 H 253.256 0.322928 -1.59157 0
M  V30 2606 H 255.253 3.219 -2.64927 0
M  V30 2607 H 253.913 2.86552 -1.52702 0
M  V30 2608 H 254.924 1.49177 -4.9595 0
M  V30 2609 H 251.601 3.02154 -2.88113 0
M  V30 2610 H 252.991 1.38212 -6.57531 0
M  V30 2611 N 255.711 1.52812 0.385517 0
M  V30 2612 C 256.939 1.71907 1.15133 0
M  V30 2613 C 257.354 0.439004 1.83625 0
M  V30 2614 O 256.711 -0.586765 1.7281 0
M  V30 2615 C 256.762 2.87099 2.19673 0
M  V30 2616 O 256.483 4.10151 1.53973 0
M  V30 2617 C 257.984 3.17902 3.08955 0
M  V30 2618 H 255.204 0.575479 0.345057 0
M  V30 2619 H 257.748 1.99476 0.45052 0
M  V30 2620 H 255.903 2.61982 2.85384 0
M  V30 2621 H 256.317 4.74514 2.23465 0
M  V30 2622 H 257.791 4.01959 3.7833 0
M  V30 2623 H 258.268 2.3243 3.72657 0
M  V30 2624 H 258.874 3.44871 2.48885 0
M  V30 2625 N 257.189 -0.644168 1.43834 0
M  V30 2626 C 258.437 -1.40117 1.45642 0
M  V30 2627 C 258.758 -1.94814 0.0852413 0
M  V30 2628 O 258.028 -1.74988 -0.880688 0
M  V30 2629 H 256.608 -0.52005 0.536243 0
M  V30 2630 H 259.27 -0.7591 1.7951 0
M  V30 2631 H 258.366 -2.23902 2.17427 0
M  V30 2632 N 258.668 -1.30515 -0.883378 0
M  V30 2633 C 259.598 -1.19607 -2.00541 0
M  V30 2634 C 260.579 -0.086346 -1.69881 0
M  V30 2635 O 261.764 -0.268654 -1.92333 0
M  V30 2636 C 258.894 -0.888758 -3.35736 0
M  V30 2637 C 257.848 -1.95659 -3.8066 0
M  V30 2638 C 257.174 -1.50224 -5.13164 0
M  V30 2639 C 258.474 -3.36788 -3.99213 0
M  V30 2640 H 260.168 -2.13476 -2.09925 0
M  V30 2641 H 257.714 -1.02775 -1.00863 0
M  V30 2642 H 259.667 -0.799094 -4.13754 0
M  V30 2643 H 258.391 0.0856125 -3.26488 0
M  V30 2644 H 257.05 -2.03591 -3.04871 0
M  V30 2645 H 256.698 -0.516092 -5.00345 0
M  V30 2646 H 256.398 -2.2165 -5.44192 0
M  V30 2647 H 257.922 -1.42639 -5.93706 0
M  V30 2648 H 259.336 -3.31605 -4.67665 0
M  V30 2649 H 257.733 -4.06314 -4.41621 0
M  V30 2650 H 258.803 -3.78561 -3.03017 0
M  V30 2651 N 260.146 1.09593 -1.13257 0
M  V30 2652 C 261.371 1.8604 -0.916732 0
M  V30 2653 C 261.796 1.80504 0.529146 0
M  V30 2654 O 261.154 1.18127 1.37534 0
M  V30 2655 C 261.202 3.32017 -1.40703 0
M  V30 2656 O 260.306 4.08141 -0.591153 0
M  V30 2657 H 259.647 0.576943 -0.328683 0
M  V30 2658 H 262.177 1.38405 -1.50682 0
M  V30 2659 H 262.187 3.82865 -1.4099 0
M  V30 2660 H 260.862 3.35361 -2.45979 0
M  V30 2661 H 259.439 3.67084 -0.656005 0
M  V30 2662 N 261.624 0.925811 1.2754 0
M  V30 2663 C 262.872 0.564138 1.94067 0
M  V30 2664 C 263.193 -0.897188 1.73134 0
M  V30 2665 O 262.463 -1.63573 1.07799 0
M  V30 2666 H 261.043 0.205645 0.718136 0
M  V30 2667 H 263.705 1.1778 1.55287 0
M  V30 2668 H 262.801 0.76881 3.02483 0
M  V30 2669 N 263.102 -1.41638 0.69111 0
M  V30 2670 C 264.327 -2.06148 0.227583 0
M  V30 2671 C 264.752 -1.51652 -1.11281 0
M  V30 2672 O 264.11 -0.64164 -1.69566 0
M  V30 2673 C 264.158 -3.60095 0.190858 0
M  V30 2674 O 263.262 -4.03845 -0.835664 0
M  V30 2675 H 262.603 -0.654434 0.112306 0
M  V30 2676 H 265.133 -1.81484 0.944714 0
M  V30 2677 H 265.143 -4.07995 0.020207 0
M  V30 2678 H 263.818 -3.99129 1.16915 0
M  V30 2679 H 262.395 -3.67458 -0.63473 0
M  V30 2680 N 264.58 -0.43555 -1.51462 0
M  V30 2681 C 265.828 0.131254 -2.01673 0
M  V30 2682 C 266.149 1.43368 -1.32177 0
M  V30 2683 O 265.419 1.90524 -0.455769 0
M  V30 2684 H 263.999 0.0514954 -0.745223 0
M  V30 2685 H 266.661 -0.577847 -1.86137 0
M  V30 2686 H 265.757 0.308446 -3.10572 0
M  V30 2687 N 266.058 1.56714 -0.166846 0
M  V30 2688 C 267.304 1.97039 0.479962 0
M  V30 2689 C 267.637 1.05264 1.63197 0
M  V30 2690 O 266.912 0.0988833 1.94248 0
M  V30 2691 C 267.195 3.46867 0.967212 0
M  V30 2692 C 267.048 4.49421 -0.18466 0
M  V30 2693 C 268.367 3.9968 1.84238 0
M  V30 2694 H 265.486 0.71641 0.172992 0
M  V30 2695 H 268.128 1.8832 -0.252079 0
M  V30 2696 H 266.278 3.54428 1.59101 0
M  V30 2697 H 267.95 4.53924 -0.821621 0
M  V30 2698 H 266.193 4.25573 -0.840837 0
M  V30 2699 H 266.864 5.51644 0.198317 0
M  V30 2700 H 269.34 3.94723 1.31655 0
M  V30 2701 H 268.216 5.04941 2.15234 0
M  V30 2702 H 268.477 3.43226 2.78654 0
M  V30 2703 N 267.536 -0.106894 1.57237 0
M  V30 2704 C 268.499 -1.11466 2.0027 0
M  V30 2705 C 269.499 -1.33623 0.894519 0
M  V30 2706 O 270.689 -1.29935 1.16028 0
M  V30 2707 C 267.821 -2.46646 2.35327 0
M  V30 2708 H 269.014 -0.744516 2.90512 0
M  V30 2709 H 266.567 -0.351576 1.52295 0
M  V30 2710 H 267.302 -2.88558 1.48003 0
M  V30 2711 H 267.087 -2.31915 3.16161 0
M  V30 2712 H 268.577 -3.19151 2.69318 0
M  V30 2713 N 269.014 -1.53014 -0.377408 0
M  V30 2714 C 270.261 -1.68623 -1.12128 0
M  V30 2715 C 270.589 -0.431997 -1.89642 0
M  V30 2716 O 269.844 0.585855 -1.86725 0
M  V30 2717 C 270.143 -2.87982 -2.11663 0
M  V30 2718 C 269.809 -4.24964 -1.50719 0
M  V30 2719 C 268.471 -4.62217 -1.33825 0
M  V30 2720 C 270.823 -5.10199 -1.06519 0
M  V30 2721 C 268.151 -5.82352 -0.712963 0
M  V30 2722 C 270.503 -6.30969 -0.453955 0
M  V30 2723 C 269.167 -6.66944 -0.272411 0
M  V30 2724 H 268.437 -0.617034 -0.410305 0
M  V30 2725 H 271.084 -1.8718 -0.404484 0
M  V30 2726 H 269.389 -2.63889 -2.89603 0
M  V30 2727 H 271.086 -2.97253 -2.6915 0
M  V30 2728 H 267.676 -3.95626 -1.64858 0
M  V30 2729 H 271.86 -4.81978 -1.18368 0
M  V30 2730 H 267.116 -6.08824 -0.560611 0
M  V30 2731 H 271.29 -6.96324 -0.103217 0
M  V30 2732 H 268.917 -7.59898 0.214181 0
M  V30 2733 N 270.492 0.636531 -1.44174 0
M  V30 2734 C 271.738 1.39826 -1.4689 0
M  V30 2735 C 272.071 1.93947 -0.0990585 0
M  V30 2736 O 271.346 1.73325 0.882544 0
M  V30 2737 C 271.629 2.56751 -2.5249 0
M  V30 2738 C 271.482 2.08014 -3.98811 0
M  V30 2739 C 272.801 3.58946 -2.54649 0
M  V30 2740 H 269.92 0.507075 -0.53483 0
M  V30 2741 H 272.562 0.720188 -1.75822 0
M  V30 2742 H 270.712 3.14597 -2.2795 0
M  V30 2743 H 272.384 1.5504 -4.34466 0
M  V30 2744 H 270.627 1.39242 -4.10846 0
M  V30 2745 H 271.298 2.92169 -4.68339 0
M  V30 2746 H 273.774 3.1089 -2.76563 0
M  V30 2747 H 272.65 4.38286 -3.3045 0
M  V30 2748 H 272.911 4.12655 -1.58646 0
M  V30 2749 N 271.97 1.30982 0.876444 0
M  V30 2750 C 273.21 1.21589 1.64303 0
M  V30 2751 C 273.574 -0.223962 1.90689 0
M  V30 2752 O 274.775 -0.44128 2.65153 0
M  V30 2753 C 273.046 2.03007 2.94148 0
M  V30 2754 S 274.605 2.10405 3.85065 0
M  V30 2755 H 271.423 0.433161 0.563819 0
M  V30 2756 H 274.025 1.65565 1.03964 0
M  V30 2757 H 272.729 3.06719 2.72675 0
M  V30 2758 H 272.26 1.59725 3.59515 0
M  V30 2759 H 274.275 1.23765 4.80517 0
M  V30 2760 N 273.449 -1.08991 1.13837 0
M  V30 2761 C 274.412 -2.13925 0.822715 0
M  V30 2762 C 275.412 -1.599 -0.1699 0
M  V30 2763 O 276.602 -1.74104 0.0577251 0
M  V30 2764 C 273.734 -3.40155 0.225318 0
M  V30 2765 H 274.927 -2.43358 1.75262 0
M  V30 2766 H 272.48 -1.24603 0.943594 0
M  V30 2767 H 273.215 -3.16352 -0.713594 0
M  V30 2768 H 273 -3.80661 0.940193 0
M  V30 2769 H 274.49 -4.17594 0.0214784 0
M  V30 2770 N 274.927 -0.932562 -1.27047 0
M  V30 2771 C 276.174 -0.575559 -1.94148 0
M  V30 2772 C 276.502 0.883984 -1.73251 0
M  V30 2773 O 275.757 1.64655 -1.0577 0
M  V30 2774 C 276.056 -0.853713 -3.47054 0
M  V30 2775 C 275.722 -2.29577 -3.88079 0
M  V30 2776 C 274.384 -2.68999 -3.9899 0
M  V30 2777 C 276.736 -3.23331 -4.08787 0
M  V30 2778 C 274.064 -4.01289 -4.28 0
M  V30 2779 C 276.416 -4.55207 -4.39282 0
M  V30 2780 C 275.08 -4.94457 -4.48407 0
M  V30 2781 H 274.35 -0.210612 -0.710439 0
M  V30 2782 H 276.997 -1.17744 -1.51025 0
M  V30 2783 H 275.302 -0.169204 -3.91434 0
M  V30 2784 H 276.999 -0.55639 -3.97121 0
M  V30 2785 H 273.589 -1.97994 -3.80127 0
M  V30 2786 H 277.773 -2.94074 -3.99793 0
M  V30 2787 H 273.029 -4.31374 -4.33275 0
M  V30 2788 H 277.203 -5.27852 -4.54252 0
M  V30 2789 H 274.83 -5.96994 -4.7064 0
M  V30 2790 N 276.405 1.4127 -0.698611 0
M  V30 2791 C 277.63 2.06024 -0.238512 0
M  V30 2792 C 278.055 1.5224 1.10475 0
M  V30 2793 O 277.413 0.650623 1.69223 0
M  V30 2794 C 277.461 3.59988 -0.209952 0
M  V30 2795 O 276.565 4.04282 0.814235 0
M  V30 2796 H 275.906 0.653829 -0.115775 0
M  V30 2797 H 278.436 1.8098 -0.954326 0
M  V30 2798 H 278.446 4.07979 -0.0418436 0
M  V30 2799 H 277.121 3.98503 -1.1903 0
M  V30 2800 H 275.698 3.6779 0.615234 0
M  V30 2801 N 277.883 0.443576 1.51229 0
M  V30 2802 C 278.793 -0.370721 2.31652 0
M  V30 2803 C 279.809 -1.02186 1.40833 0
M  V30 2804 O 280.985 -1.01586 1.73903 0
M  V30 2805 C 278.05 -1.45376 3.14749 0
M  V30 2806 C 277.111 -0.822099 4.21355 0
M  V30 2807 C 276.344 -1.85353 5.0048 0
M  V30 2808 O 276.567 -3.07656 4.80316 0
M  V30 2809 O 275.501 -1.4406 5.84406 0
M  V30 2810 H 279.327 0.286002 3.0235 0
M  V30 2811 H 276.912 0.20598 1.47973 0
M  V30 2812 H 278.794 -2.08173 3.66391 0
M  V30 2813 H 277.469 -2.09445 2.46809 0
M  V30 2814 H 276.376 -0.155909 3.73775 0
M  V30 2815 H 277.709 -0.224797 4.91686 0
M  V30 2816 N 279.361 -1.56624 0.175154 0
M  V30 2817 C 280.324 -2.16934 -0.739738 0
M  V30 2818 C 281.324 -1.11842 -1.15533 0
M  V30 2819 O 282.514 -1.37335 -1.07167 0
M  V30 2820 C 279.646 -2.75531 -2.00738 0
M  V30 2821 H 280.839 -2.99131 -0.214639 0
M  V30 2822 H 278.392 -1.56123 -0.0744197 0
M  V30 2823 H 279.127 -1.97078 -2.57548 0
M  V30 2824 H 278.912 -3.52444 -1.71831 0
M  V30 2825 H 280.402 -3.21904 -2.66021 0
M  V30 2826 N 280.839 0.0985539 -1.57292 0
M  V30 2827 C 281.769 1.12064 -2.04851 0
M  V30 2828 C 282.75 1.41981 -0.936767 0
M  V30 2829 O 283.935 1.52071 -1.20781 0
M  V30 2830 C 281.065 2.44144 -2.47004 0
M  V30 2831 C 280.019 2.28643 -3.6181 0
M  V30 2832 C 279.345 3.65869 -3.89929 0
M  V30 2833 C 280.645 1.72986 -4.92822 0
M  V30 2834 H 282.339 0.724979 -2.9049 0
M  V30 2835 H 279.885 0.34729 -1.39749 0
M  V30 2836 H 281.838 3.15914 -2.78884 0
M  V30 2837 H 280.562 2.85639 -1.5836 0
M  V30 2838 H 279.221 1.59318 -3.30172 0
M  V30 2839 H 278.869 4.04885 -2.98458 0
M  V30 2840 H 278.569 3.56344 -4.67218 0
M  V30 2841 H 280.093 4.39112 -4.2428 0
M  V30 2842 H 281.507 2.34593 -5.23105 0
M  V30 2843 H 279.904 1.74229 -5.74251 0
M  V30 2844 H 280.974 0.689007 -4.7998 0
M  V30 2845 N 282.317 1.53212 0.369288 0
M  V30 2846 C 283.28 1.7872 1.43498 0
M  V30 2847 C 284.28 0.657554 1.46741 0
M  V30 2848 O 285.47 0.925736 1.47566 0
M  V30 2849 C 282.602 1.90591 2.82645 0
M  V30 2850 H 283.795 2.73894 1.22156 0
M  V30 2851 H 281.348 1.44233 0.602203 0
M  V30 2852 H 282.083 0.974709 3.09306 0
M  V30 2853 H 281.868 2.72751 2.8169 0
M  V30 2854 H 283.358 2.11931 3.59826 0
M  V30 2855 N 283.795 -0.628877 1.44509 0
M  V30 2856 C 284.705 -1.7694 1.54044 0
M  V30 2857 C 285.721 -1.68705 0.425987 0
M  V30 2858 O 286.897 -1.89442 0.683656 0
M  V30 2859 C 283.962 -3.13332 1.48405 0
M  V30 2860 C 283.023 -3.33181 2.70719 0
M  V30 2861 C 282.256 -4.63067 2.6534 0
M  V30 2862 O 282.479 -5.44017 1.71469 0
M  V30 2863 O 281.413 -4.85167 3.56226 0
M  V30 2864 H 285.239 -1.71848 2.50403 0
M  V30 2865 H 282.824 -0.790378 1.26781 0
M  V30 2866 H 284.706 -3.94634 1.47791 0
M  V30 2867 H 283.381 -3.1896 0.551898 0
M  V30 2868 H 282.288 -2.51549 2.769 0
M  V30 2869 H 283.621 -3.32416 3.62988 0
M  V30 2870 N 285.273 -1.31445 -0.869486 0
M  V30 2871 C 286.521 -1.20918 -1.61936 0
M  V30 2872 C 286.842 0.232683 -1.93607 0
M  V30 2873 O 286.112 1.15352 -1.58338 0
M  V30 2874 H 284.692 -0.44454 -0.600328 0
M  V30 2875 H 287.354 -1.64776 -1.0409 0
M  V30 2876 H 286.45 -1.78124 -2.56278 0
M  V30 2877 N 286.751 1.08385 -1.14413 0
M  V30 2878 C 287.714 2.13486 -0.834048 0
M  V30 2879 C 288.714 1.59988 0.161418 0
M  V30 2880 O 289.904 1.74071 -0.0669575 0
M  V30 2881 C 287.036 3.4003 -0.243354 0
M  V30 2882 H 288.229 2.42425 -1.7655 0
M  V30 2883 H 285.782 1.24101 -0.950189 0
M  V30 2884 H 286.517 3.16726 0.696807 0
M  V30 2885 H 286.302 3.80157 -0.960367 0
M  V30 2886 H 287.792 4.17577 -0.0436242 0
M  V30 2887 N 288.23 0.939286 1.26551 0
M  V30 2888 C 289.476 0.586715 1.94128 0
M  V30 2889 C 289.809 -0.8717 1.73537 0
M  V30 2890 O 289.084 -1.62339 1.07127 0
M  V30 2891 C 289.367 0.927497 3.4795 0
M  V30 2892 C 289.22 2.44052 3.77834 0
M  V30 2893 C 290.539 0.441569 4.37879 0
M  V30 2894 H 287.658 0.21463 0.705055 0
M  V30 2895 H 290.3 1.17316 1.49455 0
M  V30 2896 H 288.45 0.428431 3.8613 0
M  V30 2897 H 290.122 3.01216 3.4938 0
M  V30 2898 H 288.365 2.8848 3.23978 0
M  V30 2899 H 289.036 2.62947 4.85348 0
M  V30 2900 H 291.512 0.869448 4.06915 0
M  V30 2901 H 290.388 0.708856 5.44304 0
M  V30 2902 H 290.649 -0.658467 4.37169 0
M  V30 2903 N 289.708 -1.40897 0.706093 0
M  V30 2904 C 290.655 -2.30751 0.0474474 0
M  V30 2905 C 291.625 -1.47678 -0.76029 0
M  V30 2906 O 292.81 -1.76441 -0.726177 0
M  V30 2907 C 289.95 -3.33815 -0.875309 0
M  V30 2908 C 289.063 -4.31961 -0.0580623 0
M  V30 2909 C 288.198 -5.22093 -0.979425 0
M  V30 2910 C 287.237 -6.11902 -0.155706 0
M  V30 2911 N 286.374 -6.94482 -1.03144 0
M  V30 2912 H 291.214 -2.86513 0.819413 0
M  V30 2913 H 288.751 -1.41102 0.415783 0
M  V30 2914 H 290.709 -3.92129 -1.42446 0
M  V30 2915 H 289.339 -2.79579 -1.61356 0
M  V30 2916 H 288.391 -3.75507 0.608147 0
M  V30 2917 H 289.703 -4.95415 0.580082 0
M  V30 2918 H 288.857 -5.85292 -1.59744 0
M  V30 2919 H 287.596 -4.5889 -1.65141 0
M  V30 2920 H 286.601 -5.47742 0.475309 0
M  V30 2921 H 287.826 -6.77162 0.512635 0
M  V30 2922 H 285.772 -6.33877 -1.68924 0
M  V30 2923 H 285.689 -7.54665 -0.449108 0
M  V30 2924 H 286.957 -7.6214 -1.63593 0
M  V30 2925 N 291.186 -0.45159 -1.50991 0
M  V30 2926 C 292.119 0.398179 -2.24699 0
M  V30 2927 C 293.097 1.01276 -1.27208 0
M  V30 2928 O 294.281 1.05247 -1.56382 0
M  V30 2929 C 291.408 1.55618 -3.00833 0
M  V30 2930 C 290.454 1.0609 -4.13095 0
M  V30 2931 S 291.287 -0.00865136 -5.35499 0
M  V30 2932 C 292.443 1.15369 -6.15175 0
M  V30 2933 H 292.676 -0.227555 -2.96428 0
M  V30 2934 H 290.209 -0.236251 -1.52582 0
M  V30 2935 H 292.167 2.21997 -3.45293 0
M  V30 2936 H 290.828 2.15337 -2.28667 0
M  V30 2937 H 290.021 1.92726 -4.65696 0
M  V30 2938 H 289.623 0.47513 -3.7097 0
M  V30 2939 H 291.915 2.06925 -6.45126 0
M  V30 2940 H 292.858 0.667344 -7.04948 0
M  V30 2941 H 293.266 1.3987 -5.46897 0
M  V30 2942 N 292.664 1.56529 -0.183458 0
M  V30 2943 C 293.912 1.96855 0.457452 0
M  V30 2944 C 294.233 1.07104 1.62953 0
M  V30 2945 O 293.503 0.139887 1.954 0
M  V30 2946 H 292.083 0.72693 0.171992 0
M  V30 2947 H 294.745 1.93056 -0.267476 0
M  V30 2948 H 293.841 3.01423 0.809368 0
M  V30 2949 N 294.142 -0.090211 1.57342 0
M  V30 2950 C 295.075 -1.14035 1.97664 0
M  V30 2951 C 296.053 -1.38576 0.850616 0
M  V30 2952 O 297.237 -1.52255 1.11134 0
M  V30 2953 C 294.364 -2.48854 2.2976 0
M  V30 2954 C 293.41 -2.40564 3.52181 0
M  V30 2955 S 294.243 -1.81745 5.03715 0
M  V30 2956 C 295.399 -3.18178 5.38993 0
M  V30 2957 H 295.632 -0.796636 2.86428 0
M  V30 2958 H 293.165 -0.298072 1.51496 0
M  V30 2959 H 295.123 -3.26413 2.48927 0
M  V30 2960 H 293.784 -2.80393 1.41558 0
M  V30 2961 H 292.977 -3.39942 3.72096 0
M  V30 2962 H 292.579 -1.71135 3.32549 0
M  V30 2963 H 294.871 -4.14461 5.35937 0
M  V30 2964 H 295.814 -3.03062 6.39968 0
M  V30 2965 H 296.222 -3.17935 4.66452 0
M  V30 2966 N 295.62 -1.53406 -0.361157 0
M  V30 2967 C 297.031 -1.61442 -0.937728 0
M  V30 2968 C 297.382 -0.48461 -1.90121 0
M  V30 2969 O 296.507 0.388312 -2.12888 0
M  V30 2970 C 297.102 -2.92624 -1.70753 0
M  V30 2971 C 295.661 -3.02981 -2.23337 0
M  V30 2972 C 294.808 -2.5677 -1.04712 0
M  V30 2973 H 297.759 -1.58083 -0.139816 0
M  V30 2974 H 297.78 -2.80675 -2.56908 0
M  V30 2975 H 297.292 -3.74834 -1.00604 0
M  V30 2976 H 295.393 -2.25368 -2.96715 0
M  V30 2977 H 295.506 -4.0814 -2.50916 0
M  V30 2978 H 293.87 -2.11752 -1.41539 0
M  V30 2979 H 294.653 -3.41402 -0.360539 0
M  V30 2980 N 297.098 0.621204 -1.44841 0
M  V30 2981 C 298.323 1.41244 -1.51871 0
M  V30 2982 C 298.748 1.87519 -0.147764 0
M  V30 2983 O 298.106 1.59334 0.865 0
M  V30 2984 C 298.154 2.60221 -2.49634 0
M  V30 2985 O 297.258 3.60395 -2.00473 0
M  V30 2986 H 296.599 0.42223 -0.512463 0
M  V30 2987 H 299.129 0.757305 -1.90069 0
M  V30 2988 H 299.139 3.0764 -2.67996 0
M  V30 2989 H 297.814 2.25887 -3.4921 0
M  V30 2990 H 296.391 3.19717 -1.91925 0
M  V30 2991 N 298.576 1.31904 0.862503 0
M  V30 2992 C 299.801 1.25135 1.65397 0
M  V30 2993 C 300.226 -0.179 1.87246 0
M  V30 2994 O 299.584 -1.1277 1.4196 0
M  V30 2995 C 299.632 2.00832 2.99498 0
M  V30 2996 O 298.736 1.35075 3.89652 0
M  V30 2997 H 298.077 0.431655 0.504549 0
M  V30 2998 H 300.607 1.74094 1.07483 0
M  V30 2999 H 300.617 2.10709 3.49379 0
M  V30 3000 H 299.292 3.04847 2.82916 0
M  V30 3001 H 297.869 1.33696 3.48109 0
M  V30 3002 N 300.054 -1.07777 1.14986 0
M  V30 3003 C 300.984 -2.16865 0.865557 0
M  V30 3004 C 301.965 -1.69123 -0.182083 0
M  V30 3005 O 303.15 -1.94164 -0.0373815 0
M  V30 3006 C 300.28 -3.45539 0.349313 0
M  V30 3007 C 299.234 -4.06708 1.33313 0
M  V30 3008 C 298.56 -5.30411 0.675918 0
M  V30 3009 C 299.86 -4.47241 2.69764 0
M  V30 3010 H 301.554 -2.40905 1.77778 0
M  V30 3011 H 299.1 -1.15781 0.856203 0
M  V30 3012 H 301.053 -4.21174 0.137983 0
M  V30 3013 H 299.777 -3.21072 -0.598362 0
M  V30 3014 H 298.436 -3.33112 1.53075 0
M  V30 3015 H 298.084 -5.02232 -0.277767 0
M  V30 3016 H 297.784 -5.72293 1.33244 0
M  V30 3017 H 299.308 -6.08755 0.474262 0
M  V30 3018 H 300.722 -5.14025 2.53873 0
M  V30 3019 H 299.119 -5.00062 3.3175 0
M  V30 3020 H 300.189 -3.58818 3.26156 0
M  V30 3021 N 301.532 -0.945985 -1.26051 0
M  V30 3022 C 302.495 -0.463897 -2.24456 0
M  V30 3023 C 303.495 0.427655 -1.55009 0
M  V30 3024 O 304.685 0.226157 -1.72726 0
M  V30 3025 C 301.817 0.330812 -3.39291 0
M  V30 3026 H 303.01 -1.33357 -2.68619 0
M  V30 3027 H 300.563 -0.728416 -1.38289 0
M  V30 3028 H 301.298 1.21852 -3.00537 0
M  V30 3029 H 301.083 -0.308679 -3.90883 0
M  V30 3030 H 302.573 0.657865 -4.12386 0
M  V30 3031 N 303.011 1.40521 -0.713556 0
M  V30 3032 C 303.961 2.27971 -0.036165 0
M  V30 3033 C 304.945 1.43151 0.734623 0
M  V30 3034 O 306.137 1.66261 0.607158 0
M  V30 3035 C 303.266 3.31661 0.886331 0
M  V30 3036 C 302.352 4.23955 0.110836 0
M  V30 3037 N 302.743 4.97641 -0.904847 0
M  V30 3038 C 301.041 4.44674 0.343692 0
M  V30 3039 C 301.742 5.65322 -1.37064 0
M  V30 3040 N 300.718 5.39162 -0.693168 0
M  V30 3041 H 304.52 2.82384 -0.814645 0
M  V30 3042 H 302.034 1.52948 -0.545963 0
M  V30 3043 H 304.031 3.93154 1.38692 0
M  V30 3044 H 302.691 2.78808 1.66421 0
M  V30 3045 H 303.702 5.01689 -1.28563 0
M  V30 3046 H 300.379 4.02801 1.09805 0
M  V30 3047 H 301.769 6.34359 -2.21447 0
M  V30 3048 N 304.489 0.459591 1.5075 0
M  V30 3049 C 305.905 0.113092 1.59199 0
M  V30 3050 C 306.105 -1.37951 1.46874 0
M  V30 3051 O 305.161 -2.15168 1.32132 0
M  V30 3052 C 306.474 0.653043 2.93523 0
M  V30 3053 C 308.022 0.615449 3.0689 0
M  V30 3054 C 308.497 1.13275 4.43771 0
M  V30 3055 N 309.988 1.09167 4.50152 0
M  V30 3056 C 310.723 1.46256 5.54434 0
M  V30 3057 N 310.219 1.90739 6.66026 0
M  V30 3058 N 312.012 1.37932 5.44914 0
M  V30 3059 H 304.163 1.43049 1.57005 0
M  V30 3060 H 306.426 0.590861 0.741341 0
M  V30 3061 H 306.132 1.69822 3.07983 0
M  V30 3062 H 306.006 0.0902132 3.77092 0
M  V30 3063 H 308.393 -0.420793 2.92084 0
M  V30 3064 H 308.474 1.21495 2.25106 0
M  V30 3065 H 308.118 2.16757 4.59324 0
M  V30 3066 H 308.048 0.509576 5.24129 0
M  V30 3067 H 310.539 0.76528 3.7007 0
M  V30 3068 H 310.852 2.17218 7.41644 0
M  V30 3069 H 309.197 1.94683 6.67176 0
M  V30 3070 H 312.388 1.0303 4.56621 0
M  V30 3071 H 312.561 1.67164 6.26067 0
M  V30 3072 N 305.967 -1.56429 0.191757 0
M  V30 3073 C 307.216 -1.9666 -0.448088 0
M  V30 3074 C 307.529 -1.08136 -1.62991 0
M  V30 3075 O 308.735 -1.38135 -2.33733 0
M  V30 3076 C 307.191 -3.49753 -0.848585 0
M  V30 3077 C 306.799 -4.46935 0.308764 0
M  V30 3078 C 308.543 -3.9876 -1.4557 0
M  V30 3079 C 306.45 -5.91293 -0.112506 0
M  V30 3080 H 305.38 -0.734312 -0.171179 0
M  V30 3081 H 308.031 -1.81301 0.283242 0
M  V30 3082 H 306.413 -3.60604 -1.63649 0
M  V30 3083 H 307.587 -4.47813 1.08627 0
M  V30 3084 H 305.902 -4.08102 0.827158 0
M  V30 3085 H 308.499 -5.04086 -1.78328 0
M  V30 3086 H 308.842 -3.42875 -2.36099 0
M  V30 3087 H 309.375 -3.9101 -0.731836 0
M  V30 3088 H 306.114 -6.51097 0.758514 0
M  V30 3089 H 305.634 -5.93676 -0.854941 0
M  V30 3090 H 307.313 -6.44663 -0.549448 0
M  V30 3091 N 307.445 0.0818655 -1.57387 0
M  V30 3092 C 308.408 1.08265 -2.02018 0
M  V30 3093 C 309.408 1.32183 -0.915664 0
M  V30 3094 O 310.598 1.28073 -1.18081 0
M  V30 3095 C 307.73 2.42871 -2.39221 0
M  V30 3096 H 308.923 0.698204 -2.91659 0
M  V30 3097 H 306.476 0.327303 -1.52835 0
M  V30 3098 H 307.211 2.86167 -1.52575 0
M  V30 3099 H 306.996 2.26855 -3.19811 0
M  V30 3100 H 308.486 3.14826 -2.74362 0
M  V30 3101 N 308.923 1.53595 0.353017 0
M  V30 3102 C 309.886 1.80232 1.41594 0
M  V30 3103 C 310.886 0.673081 1.46035 0
M  V30 3104 O 312.076 0.941335 1.46576 0
M  V30 3105 C 309.208 1.93578 2.80607 0
M  V30 3106 H 310.401 2.75174 1.19244 0
M  V30 3107 H 307.954 1.44864 0.586872 0
M  V30 3108 H 308.689 1.00746 3.08254 0
M  V30 3109 H 308.474 2.75724 2.78781 0
M  V30 3110 H 309.964 2.15735 3.57558 0
M  V30 3111 N 310.401 -0.613514 1.45168 0
M  V30 3112 C 311.333 -1.73825 1.4939 0
M  V30 3113 C 312.346 -1.58175 0.385304 0
M  V30 3114 O 313.535 -1.66165 0.652036 0
M  V30 3115 C 310.635 -3.11758 1.32891 0
M  V30 3116 C 309.808 -3.53704 2.57317 0
M  V30 3117 C 308.867 -4.70579 2.35462 0
M  V30 3118 O 307.893 -4.77996 3.09044 0
M  V30 3119 N 309.095 -5.63454 1.39644 0
M  V30 3120 H 311.86 -1.70669 2.46358 0
M  V30 3121 H 309.421 -0.79862 1.40832 0
M  V30 3122 H 311.413 -3.87692 1.1609 0
M  V30 3123 H 309.983 -3.09456 0.442218 0
M  V30 3124 H 309.203 -2.67794 2.89275 0
M  V30 3125 H 310.491 -3.78486 3.40038 0
M  V30 3126 H 309.889 -5.6017 0.789062 0
M  V30 3127 H 308.446 -6.38944 1.28816 0
M  V30 3128 N 311.879 -1.3236 -0.855495 0
M  V30 3129 C 313.107 -1.2587 -1.64208 0
M  V30 3130 C 313.522 0.173457 -1.88002 0
M  V30 3131 O 312.879 1.11027 -1.44842 0
M  V30 3132 C 312.93 -2.01424 -3.00184 0
M  V30 3133 O 312.651 -3.39051 -2.77445 0
M  V30 3134 C 314.152 -2.01948 -3.94629 0
M  V30 3135 H 311.372 -0.434318 -0.511477 0
M  V30 3136 H 313.916 -1.74469 -1.0668 0
M  V30 3137 H 312.071 -1.56549 -3.5436 0
M  V30 3138 H 312.485 -3.77711 -3.63916 0
M  V30 3139 H 313.959 -2.59297 -4.87308 0
M  V30 3140 H 314.436 -1.00554 -4.27534 0
M  V30 3141 H 315.042 -2.46767 -3.4639 0
M  V30 3142 N 313.357 1.07166 -1.15556 0
M  V30 3143 C 314.287 2.16403 -0.877046 0
M  V30 3144 C 315.268 1.69217 0.173111 0
M  V30 3145 O 316.453 1.94181 0.027084 0
M  V30 3146 C 313.583 3.45349 -0.367632 0
M  V30 3147 C 312.537 4.05995 -1.35468 0
M  V30 3148 C 311.863 5.30045 -0.704038 0
M  V30 3149 C 313.163 4.45804 -2.72132 0
M  V30 3150 H 314.857 2.39959 -1.79053 0
M  V30 3151 H 312.403 1.15325 -0.862331 0
M  V30 3152 H 314.356 4.21095 -0.160317 0
M  V30 3153 H 313.08 3.21385 0.581326 0
M  V30 3154 H 311.739 3.32296 -1.54839 0
M  V30 3155 H 311.387 5.02373 0.251128 0
M  V30 3156 H 311.087 5.71579 -1.36277 0
M  V30 3157 H 312.611 6.08495 -0.50654 0
M  V30 3158 H 314.025 5.12671 -2.56595 0
M  V30 3159 H 312.422 4.98296 -3.34397 0
M  V30 3160 H 313.492 3.57083 -3.28054 0
M  V30 3161 N 314.835 0.952656 1.25548 0
M  V30 3162 C 315.765 0.489287 2.28316 0
M  V30 3163 C 316.746 -0.463359 1.63667 0
M  V30 3164 O 317.931 -0.36274 1.90782 0
M  V30 3165 C 315.061 -0.235603 3.465 0
M  V30 3166 C 314.015 0.631593 4.23314 0
M  V30 3167 C 313.341 -0.223923 5.34231 0
M  V30 3168 C 314.641 1.90871 4.86174 0
M  V30 3169 H 316.335 1.34822 2.67326 0
M  V30 3170 H 313.881 0.649728 1.28509 0
M  V30 3171 H 315.834 -0.570882 4.17515 0
M  V30 3172 H 314.558 -1.12877 3.06474 0
M  V30 3173 H 313.217 0.949929 3.54079 0
M  V30 3174 H 312.865 -1.11678 4.90446 0
M  V30 3175 H 312.565 0.35299 5.86539 0
M  V30 3176 H 314.089 -0.554214 6.0808 0
M  V30 3177 H 315.503 1.63997 5.49343 0
M  V30 3178 H 313.9 2.43112 5.4865 0
M  V30 3179 H 314.97 2.61304 4.08471 0
M  V30 3180 N 316.313 -1.40141 0.720998 0
M  V30 3181 C 317.561 -2.0039 0.262323 0
M  V30 3182 C 317.882 -1.57469 -1.15015 0
M  V30 3183 O 317.152 -0.816582 -1.78069 0
M  V30 3184 H 315.732 -0.741063 0.093996 0
M  V30 3185 H 318.394 -1.71398 0.927835 0
M  V30 3186 H 317.49 -3.10658 0.299671 0
M  V30 3187 N 317.792 -0.46758 -1.50504 0
M  V30 3188 C 319.02 0.0864133 -2.06719 0
M  V30 3189 C 319.435 1.33819 -1.33184 0
M  V30 3190 O 318.792 1.78061 -0.400083 0
M  V30 3191 C 318.843 0.378079 -3.59517 0
M  V30 3192 O 318.564 -0.824044 -4.3028 0
M  V30 3193 C 320.065 0.979426 -4.32345 0
M  V30 3194 H 317.285 -0.00551697 -0.670977 0
M  V30 3195 H 319.829 -0.655354 -1.93715 0
M  V30 3196 H 317.984 1.06977 -3.72337 0
M  V30 3197 H 318.398 -0.566518 -5.21432 0
M  V30 3198 H 319.872 1.1333 -5.40241 0
M  V30 3199 H 320.349 1.9686 -3.9261 0
M  V30 3200 H 320.955 0.326216 -4.24047 0
M  V30 3201 N 319.27 1.56325 -0.20005 0
M  V30 3202 C 320.233 2.18084 0.705132 0
M  V30 3203 C 321.233 1.13666 1.1374 0
M  V30 3204 O 322.423 1.39023 1.04968 0
M  V30 3205 C 319.555 2.78689 1.96329 0
M  V30 3206 H 320.748 2.99435 0.167023 0
M  V30 3207 H 318.301 1.56221 0.0495725 0
M  V30 3208 H 319.036 2.0115 2.5438 0
M  V30 3209 H 318.821 3.55133 1.66202 0
M  V30 3210 H 320.311 3.26096 2.60866 0
M  V30 3211 N 320.748 -0.0735177 1.57428 0
M  V30 3212 C 321.695 -1.08756 2.0357 0
M  V30 3213 C 322.665 -1.38559 0.916 0
M  V30 3214 O 323.85 -1.49656 1.18354 0
M  V30 3215 C 320.99 -2.39657 2.48311 0
M  V30 3216 C 320.103 -2.16399 3.73892 0
M  V30 3217 C 319.238 -3.40852 4.07423 0
M  V30 3218 C 318.277 -3.1295 5.2605 0
M  V30 3219 N 317.414 -4.29729 5.55228 0
M  V30 3220 H 322.254 -0.687104 2.8997 0
M  V30 3221 H 319.791 -0.327709 1.43403 0
M  V30 3222 H 321.749 -3.16081 2.72303 0
M  V30 3223 H 320.379 -2.77508 1.64891 0
M  V30 3224 H 319.431 -1.30676 3.57251 0
M  V30 3225 H 320.743 -1.91788 4.60455 0
M  V30 3226 H 319.897 -4.25671 4.32306 0
M  V30 3227 H 318.636 -3.68537 3.19425 0
M  V30 3228 H 317.641 -2.26526 5.00965 0
M  V30 3229 H 318.866 -2.86589 6.15665 0
M  V30 3230 H 316.812 -4.57448 4.70188 0
M  V30 3231 H 316.729 -4.08385 6.36206 0
M  V30 3232 H 317.997 -5.1555 5.84661 0
M  V30 3233 N 322.226 -1.5378 -0.344866 0
M  V30 3234 C 323.159 -1.7649 -1.4466 0
M  V30 3235 C 324.137 -0.613954 -1.50563 0
M  V30 3236 O 325.321 -0.84896 -1.683 0
M  V30 3237 C 322.448 -1.86235 -2.82903 0
M  V30 3238 C 321.494 -3.08375 -2.94631 0
M  V30 3239 S 322.327 -4.67457 -2.61236 0
M  V30 3240 C 323.483 -4.80079 -4.0159 0
M  V30 3241 H 323.716 -2.69661 -1.2518 0
M  V30 3242 H 321.249 -1.44632 -0.540455 0
M  V30 3243 H 323.207 -1.92535 -3.62547 0
M  V30 3244 H 321.868 -0.940786 -2.9968 0
M  V30 3245 H 321.061 -3.11865 -3.95925 0
M  V30 3246 H 320.663 -3.00294 -2.22934 0
M  V30 3247 H 322.955 -4.61407 -4.96094 0
M  V30 3248 H 323.898 -5.82168 -4.03095 0
M  V30 3249 H 324.306 -4.08544 -3.89554 0
M  V30 3250 N 323.704 0.605807 -1.45491 0
M  V30 3251 C 324.634 1.72709 -1.57143 0
M  V30 3252 C 325.615 1.6476 -0.422884 0
M  V30 3253 O 326.8 1.83132 -0.646247 0
M  V30 3254 C 323.93 3.11316 -1.53948 0
M  V30 3255 C 322.884 3.34077 -2.67537 0
M  V30 3256 C 322.21 4.72975 -2.49397 0
M  V30 3257 C 323.51 3.24158 -4.09535 0
M  V30 3258 H 325.204 1.63214 -2.51001 0
M  V30 3259 H 322.75 0.78379 -1.208 0
M  V30 3260 H 324.703 3.89557 -1.60696 0
M  V30 3261 H 323.427 3.21655 -0.566205 0
M  V30 3262 H 322.086 2.58227 -2.6022 0
M  V30 3263 H 321.734 4.8005 -1.50205 0
M  V30 3264 H 321.434 4.8916 -3.25571 0
M  V30 3265 H 322.958 5.53414 -2.58002 0
M  V30 3266 H 324.372 3.92271 -4.18086 0
M  V30 3267 H 322.769 3.51872 -4.86113 0
M  V30 3268 H 323.839 2.2157 -4.31317 0
M  V30 3269 N 325.182 1.32811 0.848464 0
M  V30 3270 C 326.112 1.24882 1.97299 0
M  V30 3271 C 327.093 0.131357 1.69592 0
M  V30 3272 O 328.278 0.319553 1.91553 0
M  V30 3273 C 325.408 0.97746 3.33261 0
M  V30 3274 C 324.362 2.05682 3.75338 0
M  V30 3275 C 323.688 1.63777 5.09 0
M  V30 3276 C 324.988 3.47254 3.90144 0
M  V30 3277 H 326.682 2.18966 2.04191 0
M  V30 3278 H 324.228 1.05413 0.981029 0
M  V30 3279 H 326.181 0.908513 4.1149 0
M  V30 3280 H 324.905 0.000980011 3.266 0
M  V30 3281 H 323.564 2.11603 2.99366 0
M  V30 3282 H 323.212 0.648569 4.98801 0
M  V30 3283 H 322.912 2.36 5.38124 0
M  V30 3284 H 324.436 1.5833 5.89715 0
M  V30 3285 H 325.85 3.43888 4.58709 0
M  V30 3286 H 324.247 4.1788 4.30693 0
M  V30 3287 H 325.317 3.86462 2.92874 0
M  V30 3288 N 326.66 -1.06551 1.16123 0
M  V30 3289 C 327.61 -2.12209 0.833736 0
M  V30 3290 C 328.594 -1.59825 -0.185656 0
M  V30 3291 O 329.786 -1.76994 0.0147906 0
M  V30 3292 C 326.915 -3.41674 0.333697 0
M  V30 3293 C 326.001 -4.00892 1.38372 0
M  V30 3294 N 326.392 -4.34256 2.59337 0
M  V30 3295 C 324.69 -4.28463 1.23836 0
M  V30 3296 C 325.391 -4.81291 3.26701 0
M  V30 3297 N 324.367 -4.80565 2.54083 0
M  V30 3298 H 328.169 -2.35849 1.75364 0
M  V30 3299 H 325.683 -1.24068 1.04789 0
M  V30 3300 H 327.68 -4.16822 0.0806918 0
M  V30 3301 H 326.34 -3.19475 -0.58017 0
M  V30 3302 H 327.351 -4.24687 2.96415 0
M  V30 3303 H 324.028 -4.15721 0.38504 0
M  V30 3304 H 325.418 -5.16332 4.29943 0
M  V30 3305 N 328.138 -0.959301 -1.25041 0
M  V30 3306 C 329.048 -0.489994 -2.29426 0
M  V30 3307 C 330.064 0.444944 -1.68215 0
M  V30 3308 O 331.24 0.320046 -1.98841 0
M  V30 3309 C 328.305 0.220309 -3.45999 0
M  V30 3310 C 327.366 -0.753418 -4.22637 0
M  V30 3311 C 326.599 -0.076918 -5.33645 0
M  V30 3312 O 326.822 1.13649 -5.58963 0
M  V30 3313 O 325.756 -0.764824 -5.97021 0
M  V30 3314 H 329.582 -1.35755 -2.71669 0
M  V30 3315 H 327.167 -0.725961 -1.30576 0
M  V30 3316 H 329.049 0.619677 -4.16819 0
M  V30 3317 H 327.724 1.06296 -3.0575 0
M  V30 3318 H 326.631 -1.20308 -3.54227 0
M  V30 3319 H 327.964 -1.56423 -4.66683 0
M  V30 3320 N 329.616 1.39756 -0.72842 0
M  V30 3321 C 330.864 2.00248 -0.272946 0
M  V30 3322 C 331.185 1.58077 1.14178 0
M  V30 3323 O 330.455 0.826014 1.77634 0
M  V30 3324 H 329.035 0.740554 -0.0979247 0
M  V30 3325 H 331.697 1.70903 -0.936912 0
M  V30 3326 H 330.793 3.10495 -0.316142 0
M  V30 3327 N 331.094 0.475555 1.50254 0
M  V30 3328 C 332.026 -0.352649 2.26471 0
M  V30 3329 C 333.039 -0.953165 1.3198 0
M  V30 3330 O 334.228 -0.840815 1.57457 0
M  V30 3331 C 331.328 -1.50902 3.0345 0
M  V30 3332 C 330.501 -1.02047 4.25329 0
M  V30 3333 C 329.56 -2.05142 4.84565 0
M  V30 3334 O 328.586 -1.63023 5.45355 0
M  V30 3335 N 329.788 -3.37987 4.71959 0
M  V30 3336 H 332.553 0.300767 2.98187 0
M  V30 3337 H 330.114 0.306598 1.5897 0
M  V30 3338 H 332.106 -2.19572 3.39956 0
M  V30 3339 H 330.676 -2.06705 2.34504 0
M  V30 3340 H 329.896 -0.159507 3.93877 0
M  V30 3341 H 331.184 -0.672061 5.04342 0
M  V30 3342 H 330.582 -3.74913 4.23623 0
M  V30 3343 H 329.139 -4.02443 5.12721 0
M  V30 3344 N 332.573 -1.56217 0.208337 0
M  V30 3345 C 333.523 -2.16324 -0.720281 0
M  V30 3346 C 334.507 -1.10775 -1.16695 0
M  V30 3347 O 335.699 -1.36801 -1.12314 0
M  V30 3348 C 332.828 -2.83644 -1.93393 0
M  V30 3349 C 331.914 -3.96401 -1.50755 0
M  V30 3350 N 332.305 -4.99546 -0.792937 0
M  V30 3351 C 330.603 -4.08246 -1.79585 0
M  V30 3352 C 331.304 -5.78828 -0.577364 0
M  V30 3353 N 330.28 -5.31723 -1.1301 0
M  V30 3354 H 334.082 -2.93432 -0.165725 0
M  V30 3355 H 331.596 -1.62397 0.00906463 0
M  V30 3356 H 333.593 -3.25107 -2.60981 0
M  V30 3357 H 332.253 -2.08027 -2.49308 0
M  V30 3358 H 333.264 -5.15967 -0.447004 0
M  V30 3359 H 329.941 -3.4377 -2.36915 0
M  V30 3360 H 331.331 -6.71899 -0.00952956 0
M  V30 3361 N 334.051 0.0651679 -1.57465 0
M  V30 3362 C 335.462 0.616213 -1.76238 0
M  V30 3363 C 335.813 1.7756 -0.834689 0
M  V30 3364 O 334.938 2.1639 -0.0204156 0
M  V30 3365 C 335.533 1.12462 -3.1959 0
M  V30 3366 C 334.092 1.62147 -3.39684 0
M  V30 3367 C 333.239 0.543739 -2.71917 0
M  V30 3368 H 336.19 -0.161022 -1.57881 0
M  V30 3369 H 336.211 1.99324 -3.24114 0
M  V30 3370 H 335.723 0.280592 -3.87084 0
M  V30 3371 H 333.824 2.48854 -2.77313 0
M  V30 3372 H 333.937 1.69385 -4.48158 0
M  V30 3373 H 332.301 0.990352 -2.34657 0
M  V30 3374 H 333.084 -0.290216 -3.42071 0
M  V30 3375 N 335.529 1.53961 0.336706 0
M  V30 3376 C 336.492 1.81724 1.39675 0
M  V30 3377 C 337.492 0.688532 1.45313 0
M  V30 3378 O 338.682 0.956829 1.45569 0
M  V30 3379 C 335.814 1.96543 2.78538 0
M  V30 3380 H 337.007 2.76424 1.16318 0
M  V30 3381 H 334.56 1.45478 0.571474 0
M  V30 3382 H 335.295 1.0401 3.07168 0
M  V30 3383 H 335.08 2.78665 2.75841 0
M  V30 3384 H 336.57 2.19516 3.5525 0
M  V30 3385 N 337.007 -0.598083 1.45811 0
M  V30 3386 C 337.939 -1.72231 1.51225 0
M  V30 3387 C 338.952 -1.57757 0.402059 0
M  V30 3388 O 340.141 -1.65464 0.669624 0
M  V30 3389 C 337.241 -3.10331 1.3619 0
M  V30 3390 C 336.414 -3.50955 2.61054 0
M  V30 3391 C 335.473 -4.68055 2.40439 0
M  V30 3392 O 334.499 -4.74691 3.14097 0
M  V30 3393 N 335.701 -5.61941 1.45612 0
M  V30 3394 H 338.466 -1.68046 2.48154 0
M  V30 3395 H 336.027 -0.783637 1.41671 0
M  V30 3396 H 338.019 -3.86439 1.20195 0
M  V30 3397 H 336.589 -3.0897 0.475015 0
M  V30 3398 H 335.809 -2.64711 2.92099 0
M  V30 3399 H 337.097 -3.74858 3.44034 0
M  V30 3400 H 336.495 -5.59301 0.848431 0
M  V30 3401 H 335.052 -6.37542 1.35585 0
M  V30 3402 N 338.485 -1.33259 -0.841409 0
M  V30 3403 C 339.415 -1.25926 -1.96634 0
M  V30 3404 C 340.396 -0.140349 -1.6952 0
M  V30 3405 O 341.581 -0.329707 -1.91381 0
M  V30 3406 C 338.711 -0.99512 -3.32738 0
M  V30 3407 C 337.665 -2.0767 -3.74242 0
M  V30 3408 C 336.991 -1.66474 -5.08125 0
M  V30 3409 C 338.291 -3.49318 -3.88297 0
M  V30 3410 H 339.985 -2.20046 -2.03027 0
M  V30 3411 H 337.531 -1.05931 -0.975425 0
M  V30 3412 H 339.484 -0.930323 -4.11002 0
M  V30 3413 H 338.208 -0.0183004 -3.26595 0
M  V30 3414 H 336.867 -2.13187 -2.98239 0
M  V30 3415 H 336.515 -0.675012 -4.9845 0
M  V30 3416 H 336.215 -2.3885 -5.36865 0
M  V30 3417 H 337.739 -1.61455 -5.88867 0
M  V30 3418 H 339.153 -3.46316 -4.56879 0
M  V30 3419 H 337.55 -4.20158 -4.28471 0
M  V30 3420 H 338.62 -3.8801 -2.9082 0
M  V30 3421 N 339.963 1.05934 -1.16686 0
M  V30 3422 C 341.379 1.30938 -0.912542 0
M  V30 3423 C 341.579 1.96803 0.432533 0
M  V30 3424 O 340.635 2.23693 1.17123 0
M  V30 3425 C 341.948 2.18649 -2.06429 0
M  V30 3426 C 343.496 2.32055 -2.10047 0
M  V30 3427 C 343.971 3.23122 -3.24586 0
M  V30 3428 N 345.462 3.30706 -3.24327 0
M  V30 3429 C 346.197 4.01273 -4.09594 0
M  V30 3430 N 345.693 4.74332 -5.04956 0
M  V30 3431 N 347.486 3.97361 -3.97569 0
M  V30 3432 H 339.637 0.615777 -2.03278 0
M  V30 3433 H 341.9 0.334077 -0.887185 0
M  V30 3434 H 341.606 1.77534 -3.03603 0
M  V30 3435 H 341.48 3.19252 -2.00894 0
M  V30 3436 H 343.867 2.72415 -1.13464 0
M  V30 3437 H 343.948 1.31107 -2.19647 0
M  V30 3438 H 343.592 2.83477 -4.2143 0
M  V30 3439 H 343.522 4.24057 -3.12223 0
M  V30 3440 H 346.013 2.78644 -2.55276 0
M  V30 3441 H 346.326 5.25716 -5.6643 0
M  V30 3442 H 344.671 4.733 -5.08933 0
M  V30 3443 H 347.862 3.39405 -3.22369 0
M  V30 3444 H 348.035 4.52089 -4.64241 0
M  V30 3445 N 341.441 0.965919 1.2453 0
M  V30 3446 C 342.666 0.643971 1.97149 0
M  V30 3447 C 343.091 -0.779487 1.71189 0
M  V30 3448 O 342.449 -1.5288 0.974553 0
M  V30 3449 C 342.497 0.922557 3.48599 0
M  V30 3450 O 341.601 0.00707672 4.12399 0
M  V30 3451 H 340.942 0.243647 0.617683 0
M  V30 3452 H 343.472 1.29558 1.58353 0
M  V30 3453 H 343.482 0.853373 3.98976 0
M  V30 3454 H 342.157 1.95996 3.66822 0
M  V30 3455 H 340.734 0.12943 3.72675 0
M  V30 3456 N 342.919 -1.39368 0.735821 0
M  V30 3457 C 344.196 -1.94465 0.210395 0
M  V30 3458 C 344.576 -1.67254 -1.28799 0
M  V30 3459 O 343.924 -1.00123 -2.05396 0
M  V30 3460 C 344.134 -3.4472 0.544897 0
M  V30 3461 C 345.482 -4.21708 0.494689 0
M  V30 3462 O 346.506 -3.52922 0.482136 0
M  V30 3463 O 345.365 -5.44299 0.489947 0
M  V30 3464 H 342.459 -0.826096 0.0386666 0
M  V30 3465 H 345.005 -1.48863 0.814735 0
M  V30 3466 H 343.777 -3.57963 1.58045 0
M  V30 3467 H 343.4 -3.97502 -0.08837 0
M  V30 3468 N 344.397 -0.483516 -1.5 0
M  V30 3469 C 345.643 0.0672592 -2.02688 0
M  V30 3470 C 345.976 1.38247 -1.36387 0
M  V30 3471 O 345.251 1.88131 -0.493675 0
M  V30 3472 C 345.534 0.238109 -3.59312 0
M  V30 3473 C 345.387 -1.099 -4.36168 0
M  V30 3474 C 346.706 0.986916 -4.28892 0
M  V30 3475 H 343.825 0.0229696 -0.736642 0
M  V30 3476 H 346.467 -0.631527 -1.79197 0
M  V30 3477 H 344.617 0.8333 -3.79458 0
M  V30 3478 H 346.289 -1.73172 -4.27562 0
M  V30 3479 H 344.532 -1.69261 -3.99416 0
M  V30 3480 H 345.203 -0.932954 -5.44059 0
M  V30 3481 H 347.679 0.482302 -4.13295 0
M  V30 3482 H 346.555 1.07527 -5.38265 0
M  V30 3483 H 346.816 2.0265 -3.92919 0
M  V30 3484 N 345.875 1.56104 -0.216619 0
M  V30 3485 C 347.115 2.00074 0.418322 0
M  V30 3486 C 347.479 1.10098 1.57297 0
M  V30 3487 O 348.68 1.43393 2.27359 0
M  V30 3488 C 346.951 3.47231 0.846477 0
M  V30 3489 S 348.51 4.13223 1.47622 0
M  V30 3490 H 345.328 0.698457 0.132962 0
M  V30 3491 H 347.93 1.92784 -0.324748 0
M  V30 3492 H 346.634 4.104 -0.0036319 0
M  V30 3493 H 346.165 3.58384 1.62248 0
M  V30 3494 H 348.18 4.12005 2.76526 0
M  V30 3495 N 347.353 -0.0568162 1.57498 0
M  V30 3496 C 348.581 -0.765626 1.92213 0
M  V30 3497 C 348.996 -1.70353 0.813961 0
M  V30 3498 O 348.353 -1.81268 -0.211701 0
M  V30 3499 C 348.404 -1.5465 3.2675 0
M  V30 3500 O 348.125 -0.646278 4.33307 0
M  V30 3501 C 349.626 -2.35497 3.75574 0
M  V30 3502 H 346.846 -0.216835 0.634999 0
M  V30 3503 H 349.39 -0.0226146 2.04487 0
M  V30 3504 H 347.545 -2.24165 3.15957 0
M  V30 3505 H 347.959 -1.19093 5.108 0
M  V30 3506 H 349.433 -2.85722 4.72299 0
M  V30 3507 H 349.91 -3.15692 3.05344 0
M  V30 3508 H 350.516 -1.7111 3.8936 0
M  V30 3509 N 348.832 -1.54138 -0.328536 0
M  V30 3510 C 350.243 -1.63395 -0.903272 0
M  V30 3511 C 350.594 -0.524828 -1.8905 0
M  V30 3512 O 349.719 0.343068 -2.13663 0
M  V30 3513 C 350.314 -2.9618 -1.64507 0
M  V30 3514 C 348.873 -3.0765 -2.1686 0
M  V30 3515 C 348.02 -2.58933 -0.992416 0
M  V30 3516 H 350.971 -1.58344 -0.106253 0
M  V30 3517 H 350.992 -2.86061 -2.50897 0
M  V30 3518 H 350.504 -3.76884 -0.926302 0
M  V30 3519 H 348.605 -2.31611 -2.91868 0
M  V30 3520 H 348.718 -4.1337 -2.42202 0
M  V30 3521 H 347.082 -2.14706 -1.37016 0
M  V30 3522 H 347.865 -3.42089 -0.288041 0
M  V30 3523 N 350.31 0.590341 -1.46126 0
M  V30 3524 C 351.558 1.34616 -1.50742 0
M  V30 3525 C 351.879 1.94363 -0.157486 0
M  V30 3526 O 351.149 1.78136 0.815136 0
M  V30 3527 H 349.729 0.499789 -0.555175 0
M  V30 3528 H 352.391 0.691953 -1.82203 0
M  V30 3529 H 351.487 2.15678 -2.25587 0
M  V30 3530 N 351.788 1.33704 0.83433 0
M  V30 3531 C 353.036 1.25169 1.58673 0
M  V30 3532 C 353.357 -0.18127 1.94156 0
M  V30 3533 O 352.627 -1.11113 1.6134 0
M  V30 3534 H 351.207 0.4603 0.58833 0
M  V30 3535 H 353.869 1.67478 0.996847 0
M  V30 3536 H 352.965 1.84856 2.51465 0
M  V30 3537 N 353.266 -1.05314 1.17247 0
M  V30 3538 C 354.494 -1.81971 0.984593 0
M  V30 3539 C 354.909 -1.82929 -0.467166 0
M  V30 3540 O 354.266 -1.25564 -1.32438 0
M  V30 3541 C 354.317 -3.28143 1.51672 0
M  V30 3542 O 354.038 -3.27347 2.91163 0
M  V30 3543 C 355.539 -4.21493 1.37326 0
M  V30 3544 H 352.759 -0.573455 0.348411 0
M  V30 3545 H 355.303 -1.32808 1.55506 0
M  V30 3546 H 353.458 -3.74582 0.988302 0
M  V30 3547 H 353.872 -4.18824 3.15732 0
M  V30 3548 H 355.346 -5.22043 1.79375 0
M  V30 3549 H 355.823 -4.38031 0.320169 0
M  V30 3550 H 356.429 -3.80909 1.89178 0
M  V30 3551 N 354.744 -0.972509 -1.24016 0
M  V30 3552 C 355.972 -0.654803 -1.96265 0
M  V30 3553 C 356.387 0.776708 -1.72083 0
M  V30 3554 O 355.744 1.52171 -1.00748 0
M  V30 3555 C 355.795 -0.92592 -3.49441 0
M  V30 3556 O 355.516 -2.30116 -3.72798 0
M  V30 3557 C 357.017 -0.623068 -4.38899 0
M  V30 3558 H 354.237 -0.243907 -0.6251 0
M  V30 3559 H 356.781 -1.30175 -1.57717 0
M  V30 3560 H 354.936 -0.325108 -3.86033 0
M  V30 3561 H 355.35 -2.38483 -4.67147 0
M  V30 3562 H 356.824 -0.863189 -5.45209 0
M  V30 3563 H 357.301 0.442754 -4.36963 0
M  V30 3564 H 357.907 -1.204 -4.07902 0
M  V30 3565 N 356.222 1.38976 -0.743202 0
M  V30 3566 C 357.471 1.99581 -0.291592 0
M  V30 3567 C 357.784 1.59656 1.13001 0
M  V30 3568 O 358.99 2.13157 1.68156 0
M  V30 3569 C 357.446 3.56813 -0.470391 0
M  V30 3570 C 357.054 4.05695 -1.90041 0
M  V30 3571 C 358.798 4.24423 -0.0809709 0
M  V30 3572 C 356.705 5.5553 -2.02832 0
M  V30 3573 H 355.635 0.746615 -0.105272 0
M  V30 3574 H 358.286 1.58872 -0.918258 0
M  V30 3575 H 356.668 3.95359 0.225299 0
M  V30 3576 H 357.842 3.78464 -2.62872 0
M  V30 3577 H 356.157 3.50775 -2.24379 0
M  V30 3578 H 358.754 5.34474 -0.155445 0
M  V30 3579 H 359.097 4.04962 0.96497 0
M  V30 3580 H 359.63 3.9108 -0.728124 0
M  V30 3581 H 356.369 5.79881 -3.05643 0
M  V30 3582 H 355.889 5.84537 -1.34448 0
M  V30 3583 H 357.568 6.21069 -1.81335 0
M  V30 3584 N 357.7 0.491464 1.49741 0
M  V30 3585 C 358.93 -0.0534375 2.06531 0
M  V30 3586 C 359.338 -1.32233 1.35318 0
M  V30 3587 O 358.681 -1.78781 0.422243 0
M  V30 3588 C 358.743 -0.387034 3.57411 0
M  V30 3589 C 358.407 0.782764 4.50246 0
M  V30 3590 C 359.404 1.67059 4.92329 0
M  V30 3591 C 357.089 0.978866 4.9267 0
M  V30 3592 C 359.083 2.73874 5.75562 0
M  V30 3593 C 356.77 2.05022 5.75682 0
M  V30 3594 C 357.768 2.92851 6.17031 0
M  V30 3595 O 357.456 3.98138 6.98385 0
M  V30 3596 H 357.188 0.0129324 0.675876 0
M  V30 3597 H 359.742 0.685238 1.93633 0
M  V30 3598 H 357.972 -1.17918 3.68283 0
M  V30 3599 H 359.661 -0.869419 3.96479 0
M  V30 3600 H 360.427 1.53086 4.60206 0
M  V30 3601 H 356.306 0.304646 4.59992 0
M  V30 3602 H 359.85 3.42458 6.07757 0
M  V30 3603 H 355.747 2.18993 6.07217 0
M  V30 3604 H 356.515 3.95374 7.16674 0
M  V30 3605 N 359.178 -1.55987 0.224894 0
M  V30 3606 C 360.426 -1.97998 -0.405099 0
M  V30 3607 C 360.747 -1.11387 -1.60056 0
M  V30 3608 O 360.017 -0.191645 -1.9496 0
M  V30 3609 H 358.597 -0.731235 -0.152658 0
M  V30 3610 H 361.259 -1.92279 0.318567 0
M  V30 3611 H 360.355 -3.03463 -0.729167 0
M  V30 3612 N 360.656 0.0484629 -1.57525 0
M  V30 3613 C 361.586 1.0549 -2.08313 0
M  V30 3614 C 362.567 1.38929 -0.981463 0
M  V30 3615 O 363.752 1.48151 -1.25558 0
M  V30 3616 C 360.882 2.36162 -2.54646 0
M  V30 3617 C 359.836 2.17016 -3.68901 0
M  V30 3618 C 359.162 3.53278 -4.01371 0
M  V30 3619 C 360.462 1.57219 -4.98076 0
M  V30 3620 H 362.156 0.632195 -2.92649 0
M  V30 3621 H 359.702 0.302654 -1.40784 0
M  V30 3622 H 361.655 3.06882 -2.88793 0
M  V30 3623 H 360.379 2.80456 -1.67368 0
M  V30 3624 H 359.038 1.48733 -3.35073 0
M  V30 3625 H 358.686 3.95185 -3.11188 0
M  V30 3626 H 358.386 3.41299 -4.78318 0
M  V30 3627 H 359.91 4.25391 -4.38035 0
M  V30 3628 H 361.324 2.17832 -5.30304 0
M  V30 3629 H 359.721 1.55871 -5.79503 0
M  V30 3630 H 360.791 0.535956 -4.81929 0
M  V30 3631 N 362.134 1.5431 0.320358 0
M  V30 3632 C 363.084 1.803 1.39556 0
M  V30 3633 C 364.068 0.659166 1.46778 0
M  V30 3634 O 365.26 0.91926 1.51257 0
M  V30 3635 C 362.389 2.03665 2.76361 0
M  V30 3636 C 361.475 3.24178 2.73439 0
M  V30 3637 N 361.866 4.4516 2.40137 0
M  V30 3638 C 360.164 3.25816 3.04565 0
M  V30 3639 C 360.865 5.27109 2.4603 0
M  V30 3640 N 359.841 4.64368 2.82601 0
M  V30 3641 H 363.643 2.71416 1.12742 0
M  V30 3642 H 361.157 1.53548 0.528856 0
M  V30 3643 H 363.154 2.20425 3.53862 0
M  V30 3644 H 361.814 1.13805 3.04103 0
M  V30 3645 H 362.825 4.72104 2.12927 0
M  V30 3646 H 359.502 2.46001 3.37328 0
M  V30 3647 H 360.892 6.33728 2.23246 0
M  V30 3648 N 363.613 -0.582584 1.46437 0
M  V30 3649 C 364.576 -1.67366 1.56592 0
M  V30 3650 C 365.576 -1.54575 0.443072 0
M  V30 3651 O 366.766 -1.59191 0.707381 0
M  V30 3652 C 363.898 -3.06791 1.48634 0
M  V30 3653 H 365.091 -1.5972 2.5383 0
M  V30 3654 H 362.644 -0.800432 1.34249 0
M  V30 3655 H 363.379 -3.19993 0.526763 0
M  V30 3656 H 363.164 -3.17484 2.30101 0
M  V30 3657 H 364.654 -3.86218 1.58826 0
M  V30 3658 N 365.091 -1.34144 -0.827227 0
M  V30 3659 C 366.021 -1.28005 -1.95287 0
M  V30 3660 C 367.002 -0.158321 -1.69362 0
M  V30 3661 O 368.187 -0.349987 -1.9102 0
M  V30 3662 C 365.317 -1.03036 -3.31664 0
M  V30 3663 C 364.271 -2.11628 -3.72019 0
M  V30 3664 C 363.597 -1.71854 -5.0633 0
M  V30 3665 C 364.897 -3.53417 -3.8457 0
M  V30 3666 H 366.591 -2.22187 -2.00682 0
M  V30 3667 H 364.137 -1.0696 -0.964135 0
M  V30 3668 H 366.09 -0.973863 -4.09993 0
M  V30 3669 H 364.814 -0.0529391 -3.26557 0
M  V30 3670 H 363.473 -2.16339 -2.95961 0
M  V30 3671 H 363.121 -0.727841 -4.97706 0
M  V30 3672 H 362.821 -2.44531 -5.34302 0
M  V30 3673 H 364.345 -1.67692 -5.87122 0
M  V30 3674 H 365.759 -3.51142 -4.5318 0
M  V30 3675 H 364.156 -4.24679 -4.2399 0
M  V30 3676 H 365.226 -3.91072 -2.86689 0
M  V30 3677 N 366.569 1.04691 -1.17803 0
M  V30 3678 C 367.479 2.16057 -0.914151 0
M  V30 3679 C 368.495 1.73589 0.119503 0
M  V30 3680 O 369.671 2.01308 -0.0609468 0
M  V30 3681 C 366.736 3.4394 -0.436603 0
M  V30 3682 C 365.797 4.00825 -1.53746 0
M  V30 3683 C 365.03 5.22604 -1.0826 0
M  V30 3684 O 365.253 5.70367 0.0612244 0
M  V30 3685 O 364.187 5.7186 -1.87775 0
M  V30 3686 H 368.013 2.41169 -1.84584 0
M  V30 3687 H 365.598 1.1453 -0.959334 0
M  V30 3688 H 367.48 4.21024 -0.178057 0
M  V30 3689 H 366.155 3.20316 0.466869 0
M  V30 3690 H 365.062 3.25158 -1.84995 0
M  V30 3691 H 366.395 4.28778 -2.41683 0
M  V30 3692 N 368.047 0.979072 1.23499 0
M  V30 3693 C 368.979 0.476271 2.24197 0
M  V30 3694 C 369.992 -0.421166 1.57258 0
M  V30 3695 O 371.181 -0.225515 1.7707 0
M  V30 3696 C 368.281 -0.330503 3.37285 0
M  V30 3697 C 367.454 0.559744 4.33804 0
M  V30 3698 C 366.513 -0.192954 5.25846 0
M  V30 3699 O 365.539 0.416978 5.67671 0
M  V30 3700 N 366.741 -1.47932 5.61334 0
M  V30 3701 H 369.506 1.34211 2.67969 0
M  V30 3702 H 367.067 0.852189 1.37657 0
M  V30 3703 H 369.059 -0.842361 3.95836 0
M  V30 3704 H 367.629 -1.09734 2.92707 0
M  V30 3705 H 366.849 1.25245 3.73775 0
M  V30 3706 H 368.137 1.1665 4.95248 0
M  V30 3707 H 367.535 -1.9964 5.29302 0
M  V30 3708 H 366.092 -1.93664 6.22364 0
M  V30 3709 N 369.525 -1.3858 0.750561 0
M  V30 3710 C 370.773 -1.99789 0.30477 0
M  V30 3711 C 371.094 -1.59874 -1.11649 0
M  V30 3712 O 370.364 -0.85417 -1.76297 0
M  V30 3713 H 368.944 -0.738902 0.109694 0
M  V30 3714 H 371.606 -1.69391 0.963983 0
M  V30 3715 H 370.702 -3.09952 0.365499 0
M  V30 3716 N 371.003 -0.499398 -1.49478 0
M  V30 3717 C 372.251 0.0455996 -2.02049 0
M  V30 3718 C 372.572 1.37633 -1.38138 0
M  V30 3719 O 371.842 1.8842 -0.536166 0
M  V30 3720 H 370.422 0.0198416 -0.746736 0
M  V30 3721 H 373.084 -0.656274 -1.83519 0
M  V30 3722 H 372.18 0.176445 -3.11601 0
M  V30 3723 N 372.481 1.55866 -0.233164 0
M  V30 3724 C 373.411 2.23783 0.666599 0
M  V30 3725 C 374.392 1.21343 1.19205 0
M  V30 3726 O 375.577 1.4996 1.23392 0
M  V30 3727 C 372.707 2.92671 1.86978 0
M  V30 3728 C 371.661 4.01682 1.47768 0
M  V30 3729 C 370.987 4.57926 2.76058 0
M  V30 3730 C 372.287 5.18126 0.658993 0
M  V30 3731 H 373.981 2.99232 0.100306 0
M  V30 3732 H 371.527 1.43924 0.046804 0
M  V30 3733 H 373.48 3.3888 2.50476 0
M  V30 3734 H 372.204 2.14688 2.46123 0
M  V30 3735 H 370.863 3.56222 0.866106 0
M  V30 3736 H 370.511 3.76659 3.33372 0
M  V30 3737 H 370.211 5.31505 2.50552 0
M  V30 3738 H 371.735 5.06859 3.40479 0
M  V30 3739 H 373.149 5.60644 1.19795 0
M  V30 3740 H 371.546 5.98009 0.500552 0
M  V30 3741 H 372.616 4.83763 -0.331856 0
M  V30 3742 N 373.959 -0.0401083 1.57549 0
M  V30 3743 C 375.375 -0.395556 1.54621 0
M  V30 3744 C 375.575 -1.77281 0.957799 0
M  V30 3745 O 374.631 -2.45888 0.574031 0
M  V30 3746 C 375.944 -0.307535 2.99123 0
M  V30 3747 C 377.492 -0.385425 3.10618 0
M  V30 3748 C 377.967 -0.326973 4.56831 0
M  V30 3749 N 379.458 -0.386102 4.61588 0
M  V30 3750 C 380.193 -0.363591 5.72246 0
M  V30 3751 N 379.689 -0.29402 6.92176 0
M  V30 3752 N 381.482 -0.412503 5.60584 0
M  V30 3753 H 373.633 0.861325 1.94152 0
M  V30 3754 H 375.896 0.326445 0.890021 0
M  V30 3755 H 375.602 0.638461 3.45856 0
M  V30 3756 H 375.476 -1.10552 3.60636 0
M  V30 3757 H 377.863 -1.32185 2.63839 0
M  V30 3758 H 377.944 0.44171 2.51957 0
M  V30 3759 H 377.588 0.605738 5.04275 0
M  V30 3760 H 377.518 -1.17207 5.13391 0
M  V30 3761 H 380.009 -0.442832 3.75296 0
M  V30 3762 H 380.322 -0.28164 7.72287 0
M  V30 3763 H 378.667 -0.260232 6.94513 0
M  V30 3764 H 381.858 -0.464769 4.65787 0
M  V30 3765 H 382.031 -0.391492 6.46816 0
M  V30 3766 N 375.437 -1.54477 -0.31217 0
M  V30 3767 C 376.4 -1.83923 -1.36766 0
M  V30 3768 C 377.4 -0.711563 -1.44199 0
M  V30 3769 O 378.59 -0.979866 -1.44029 0
M  V30 3770 C 375.722 -2.0095 -2.75376 0
M  V30 3771 H 376.915 -2.78239 -1.11906 0
M  V30 3772 H 374.468 -1.46369 -0.548257 0
M  V30 3773 H 375.203 -1.08883 -3.05475 0
M  V30 3774 H 374.988 -2.83018 -2.71373 0
M  V30 3775 H 376.478 -2.2514 -3.51713 0
M  V30 3776 N 376.915 0.57481 -1.46744 0
M  V30 3777 C 377.878 1.66533 -1.57478 0
M  V30 3778 C 378.878 1.54338 -0.451263 0
M  V30 3779 O 380.068 1.58814 -0.715813 0
M  V30 3780 C 377.2 3.05999 -1.50259 0
M  V30 3781 H 378.393 1.58372 -2.54673 0
M  V30 3782 H 375.946 0.793301 -1.34672 0
M  V30 3783 H 376.681 3.19709 -0.543725 0
M  V30 3784 H 376.466 3.16259 -2.31781 0
M  V30 3785 H 377.956 3.8537 -1.60872 0
M  V30 3786 N 378.394 1.34581 0.820102 0
M  V30 3787 C 379.622 1.3018 1.60813 0
M  V30 3788 C 380.037 -0.123551 1.88395 0
M  V30 3789 O 379.394 -1.07148 1.47735 0
M  V30 3790 C 379.445 2.09312 2.94739 0
M  V30 3791 O 379.166 3.46288 2.68358 0
M  V30 3792 C 380.667 2.1234 3.89136 0
M  V30 3793 H 377.887 0.447726 0.499782 0
M  V30 3794 H 380.431 1.77237 1.02017 0
M  V30 3795 H 378.586 1.65889 3.50085 0
M  V30 3796 H 379 3.87227 3.53774 0
M  V30 3797 H 380.474 2.72126 4.80262 0
M  V30 3798 H 380.951 1.11854 4.24718 0
M  V30 3799 H 381.557 2.55864 3.39726 0
M  V30 3800 N 379.872 -1.04064 1.18357 0
M  V30 3801 C 380.805 -2.11618 0.854 0
M  V30 3802 C 381.783 -1.61555 -0.184043 0
M  V30 3803 O 382.967 -1.88395 -0.0630048 0
M  V30 3804 C 380.094 -3.37574 0.27597 0
M  V30 3805 C 379.14 -4.06485 1.2912 0
M  V30 3806 S 379.973 -4.53543 2.84709 0
M  V30 3807 C 381.129 -5.82732 2.28417 0
M  V30 3808 H 381.362 -2.39247 1.76488 0
M  V30 3809 H 378.895 -1.16832 1.00944 0
M  V30 3810 H 380.853 -4.10468 -0.051026 0
M  V30 3811 H 379.514 -3.0806 -0.613028 0
M  V30 3812 H 378.707 -4.97024 0.835633 0
M  V30 3813 H 378.309 -3.39708 1.56443 0
M  V30 3814 H 380.601 -6.56677 1.66677 0
M  V30 3815 H 381.544 -6.33052 3.17256 0
M  V30 3816 H 381.952 -5.37838 1.71436 0
M  V30 3817 N 381.35 -0.985608 -1.22978 0
M  V30 3818 C 382.575 -0.675254 -1.961 0
M  V30 3819 C 383 0.752154 -1.72407 0
M  V30 3820 O 382.358 1.5131 -0.998751 0
M  V30 3821 C 382.406 -0.977899 -3.47087 0
M  V30 3822 O 381.51 -0.072685 -4.12336 0
M  V30 3823 H 380.851 -0.253443 -0.613728 0
M  V30 3824 H 383.381 -1.32061 -1.56272 0
M  V30 3825 H 383.391 -0.916739 -3.97567 0
M  V30 3826 H 382.066 -2.01807 -3.63657 0
M  V30 3827 H 380.643 -0.188703 -3.72422 0
M  V30 3828 N 382.828 1.3818 -0.7579 0
M  V30 3829 C 383.791 2.28764 -0.141286 0
M  V30 3830 C 384.791 1.47388 0.642907 0
M  V30 3831 O 385.981 1.67781 0.468536 0
M  V30 3832 C 383.113 3.31184 0.808069 0
M  V30 3833 H 384.306 2.848 -0.939633 0
M  V30 3834 H 381.859 1.47212 -0.525191 0
M  V30 3835 H 382.594 2.80247 1.63193 0
M  V30 3836 H 382.379 3.91314 0.248104 0
M  V30 3837 H 383.869 3.98909 1.23536 0
M  V30 3838 N 384.306 0.507319 1.49211 0
M  V30 3839 C 385.552 -0.0350047 2.0277 0
M  V30 3840 C 385.885 -1.3606 1.38569 0
M  V30 3841 O 385.16 -1.87321 0.523542 0
M  V30 3842 C 385.443 -0.180916 3.59645 0
M  V30 3843 C 385.296 1.16825 4.34364 0
M  V30 3844 C 386.615 -0.918558 4.30407 0
M  V30 3845 H 383.734 -0.0112473 0.736914 0
M  V30 3846 H 386.376 0.659956 1.7817 0
M  V30 3847 H 384.526 -0.772826 3.80736 0
M  V30 3848 H 386.198 1.79952 4.24753 0
M  V30 3849 H 384.441 1.75594 3.96673 0
M  V30 3850 H 385.112 1.01939 5.42506 0
M  V30 3851 H 387.588 -0.41649 4.1401 0
M  V30 3852 H 386.464 -0.989505 5.39907 0
M  V30 3853 H 386.725 -1.96373 3.96093 0
M  V30 3854 N 385.784 -1.5574 0.241426 0
M  V30 3855 C 386.694 -2.2479 -0.671305 0
M  V30 3856 C 387.71 -1.26217 -1.19772 0
M  V30 3857 O 388.886 -1.59079 -1.23514 0
M  V30 3858 C 385.951 -2.92966 -1.85396 0
M  V30 3859 C 385.012 -4.06935 -1.36756 0
M  V30 3860 C 384.245 -4.71851 -2.49384 0
M  V30 3861 O 384.468 -4.35823 -3.67987 0
M  V30 3862 O 383.402 -5.60467 -2.19454 0
M  V30 3863 H 387.228 -3.0349 -0.112966 0
M  V30 3864 H 384.813 -1.49397 0.0101513 0
M  V30 3865 H 386.695 -3.35927 -2.54423 0
M  V30 3866 H 385.37 -2.17211 -2.40002 0
M  V30 3867 H 384.277 -3.68503 -0.644726 0
M  V30 3868 H 385.61 -4.84492 -0.867647 0
M  V30 3869 N 387.262 0.0317525 -1.57568 0
M  V30 3870 C 388.225 1.01783 -2.0536 0
M  V30 3871 C 389.225 1.29203 -0.957253 0
M  V30 3872 O 390.415 1.24251 -1.22095 0
M  V30 3873 C 387.547 2.35137 -2.46827 0
M  V30 3874 H 388.74 0.605062 -2.93733 0
M  V30 3875 H 386.293 0.278514 -1.53799 0
M  V30 3876 H 387.028 2.81168 -1.61602 0
M  V30 3877 H 386.813 2.16566 -3.26866 0
M  V30 3878 H 388.303 3.05938 -2.84239 0
M  V30 3879 N 388.74 1.54641 0.303973 0
M  V30 3880 C 389.703 1.84646 1.35789 0
M  V30 3881 C 390.703 0.7192 1.4382 0
M  V30 3882 O 391.893 0.987491 1.43507 0
M  V30 3883 C 389.025 2.02407 2.74307 0
M  V30 3884 H 390.218 2.78829 1.10429 0
M  V30 3885 H 387.771 1.46658 0.540487 0
M  V30 3886 H 388.506 1.10502 3.04893 0
M  V30 3887 H 388.291 2.84453 2.69868 0
M  V30 3888 H 389.781 2.27002 3.50514 0
M  V30 3889 N 390.218 -0.567019 1.47046 0
M  V30 3890 C 391.446 -1.35027 1.56765 0
M  V30 3891 C 391.861 -1.8758 0.214316 0
M  V30 3892 O 391.218 -1.64471 -0.790919 0
M  V30 3893 C 391.269 -2.52698 2.58507 0
M  V30 3894 O 390.99 -2.0232 3.88585 0
M  V30 3895 C 392.491 -3.45043 2.78316 0
M  V30 3896 H 389.711 -0.41195 0.529658 0
M  V30 3897 H 392.255 -0.687832 1.92585 0
M  V30 3898 H 390.41 -3.149 2.25648 0
M  V30 3899 H 390.824 -2.79068 4.44096 0
M  V30 3900 H 392.298 -4.2405 3.53391 0
M  V30 3901 H 392.775 -3.97971 1.85784 0
M  V30 3902 H 393.381 -2.88665 3.12334 0
M  V30 3903 N 391.696 -1.35014 -0.812953 0
M  V30 3904 C 392.936 -1.29289 -1.58315 0
M  V30 3905 C 393.3 0.132727 -1.91541 0
M  V30 3906 O 394.501 0.314269 -2.66957 0
M  V30 3907 C 392.772 -2.1681 -2.84127 0
M  V30 3908 S 394.331 -2.28538 -3.74588 0
M  V30 3909 H 391.149 -0.459569 -0.542511 0
M  V30 3910 H 393.751 -1.70336 -0.959467 0
M  V30 3911 H 392.455 -3.19379 -2.57731 0
M  V30 3912 H 391.986 -1.76697 -3.51485 0
M  V30 3913 H 394.001 -1.4655 -4.74065 0
M  V30 3914 N 393.175 1.03435 -1.18907 0
M  V30 3915 C 394.591 1.28973 -0.940111 0
M  V30 3916 C 394.791 1.97676 0.390691 0
M  V30 3917 O 393.847 2.26127 1.12352 0
M  V30 3918 C 395.16 2.14221 -2.11021 0
M  V30 3919 C 396.708 2.27547 -2.14922 0
M  V30 3920 C 397.183 3.16164 -3.31367 0
M  V30 3921 N 398.674 3.23752 -3.31269 0
M  V30 3922 C 399.409 3.92495 -4.18014 0
M  V30 3923 N 398.905 4.63515 -5.14904 0
M  V30 3924 N 400.698 3.88838 -4.05908 0
M  V30 3925 H 392.849 0.57252 -2.04538 0
M  V30 3926 H 395.112 0.315184 -0.894071 0
M  V30 3927 H 394.818 1.71054 -3.073 0
M  V30 3928 H 394.692 3.14919 -2.0762 0
M  V30 3929 H 397.079 2.69947 -1.19217 0
M  V30 3930 H 397.16 1.26418 -2.22378 0
M  V30 3931 H 396.804 2.74474 -4.27348 0
M  V30 3932 H 396.734 4.17339 -3.21148 0
M  V30 3933 H 399.225 2.73167 -2.61129 0
M  V30 3934 H 399.538 5.13583 -5.77453 0
M  V30 3935 H 397.883 4.62398 -5.18857 0
M  V30 3936 H 401.074 3.32491 -3.29495 0
M  V30 3937 H 401.247 4.4214 -4.73726 0
M  V30 3938 N 394.653 0.992116 1.22453 0
M  V30 3939 C 395.616 0.546883 2.2258 0
M  V30 3940 C 396.616 -0.369829 1.56489 0
M  V30 3941 O 397.806 -0.161896 1.73446 0
M  V30 3942 C 394.938 -0.204659 3.40285 0
M  V30 3943 H 396.131 1.43234 2.63484 0
M  V30 3944 H 393.684 0.779239 1.3549 0
M  V30 3945 H 394.419 -1.10614 3.04853 0
M  V30 3946 H 394.204 0.45354 3.89468 0
M  V30 3947 H 395.694 -0.504358 4.14543 0
M  V30 3948 N 396.131 -1.37776 0.765217 0
M  V30 3949 C 397.078 -2.30342 0.145274 0
M  V30 3950 C 398.048 -1.5077 -0.696971 0
M  V30 3951 O 399.233 -1.79362 -0.650689 0
M  V30 3952 C 396.373 -3.37227 -0.732939 0
M  V30 3953 C 395.486 -4.31819 0.125199 0
M  V30 3954 C 394.621 -5.25777 -0.757107 0
M  V30 3955 C 393.66 -6.12012 0.103963 0
M  V30 3956 N 392.797 -6.98232 -0.735953 0
M  V30 3957 H 397.637 -2.8278 0.940195 0
M  V30 3958 H 395.174 -1.39211 0.475255 0
M  V30 3959 H 397.132 -3.97818 -1.25686 0
M  V30 3960 H 395.762 -2.86171 -1.49353 0
M  V30 3961 H 394.814 -3.7259 0.766865 0
M  V30 3962 H 396.126 -4.92509 0.789683 0
M  V30 3963 H 395.28 -5.91541 -1.34776 0
M  V30 3964 H 394.019 -4.65481 -1.45529 0
M  V30 3965 H 393.024 -5.45233 0.707197 0
M  V30 3966 H 394.249 -6.74379 0.799381 0
M  V30 3967 H 392.195 -6.40472 -1.41887 0
M  V30 3968 H 392.112 -7.55891 -0.128624 0
M  V30 3969 H 393.38 -7.68393 -1.31121 0
M  V30 3970 N 397.609 -0.515225 -1.4894 0
M  V30 3971 C 398.519 0.259774 -2.33157 0
M  V30 3972 C 399.535 0.953501 -1.45548 0
M  V30 3973 O 400.711 0.931735 -1.78552 0
M  V30 3974 C 397.776 1.30193 -3.21326 0
M  V30 3975 C 396.837 0.620129 -4.24797 0
M  V30 3976 C 396.07 1.61263 -5.08753 0
M  V30 3977 O 396.293 2.84389 -4.94448 0
M  V30 3978 O 395.227 1.16013 -5.90614 0
M  V30 3979 H 399.053 -0.429932 -3.00641 0
M  V30 3980 H 396.638 -0.276346 -1.46822 0
M  V30 3981 H 398.52 1.90455 -3.75905 0
M  V30 3982 H 397.195 1.97431 -2.56521 0
M  V30 3983 H 396.102 -0.0226019 -3.74093 0
M  V30 3984 H 397.435 -0.0100493 -4.92199 0
M  V30 3985 N 399.087 1.5561 -0.249682 0
M  V30 3986 C 400.017 2.24477 0.642826 0
M  V30 3987 C 400.998 1.22601 1.17911 0
M  V30 3988 O 402.183 1.5126 1.21795 0
M  V30 3989 C 399.313 2.94638 1.83863 0
M  V30 3990 C 398.267 4.03227 1.435 0
M  V30 3991 C 397.593 4.60828 2.71186 0
M  V30 3992 C 398.893 5.18796 0.604002 0
M  V30 3993 H 400.587 2.99321 0.0685625 0
M  V30 3994 H 398.133 1.43965 0.0315363 0
M  V30 3995 H 400.086 3.41517 2.46868 0
M  V30 3996 H 398.81 2.17287 2.43832 0
M  V30 3997 H 397.469 3.57121 0.828275 0
M  V30 3998 H 397.117 3.80174 3.29358 0
M  V30 3999 H 396.817 5.34132 2.44901 0
M  V30 4000 H 398.341 5.10442 3.35084 0
M  V30 4001 H 399.755 5.61883 1.13842 0
M  V30 4002 H 398.152 5.98506 0.437097 0
M  V30 4003 H 399.222 4.83384 -0.383147 0
M  V30 4004 N 400.565 -0.0233959 1.57583 0
M  V30 4005 C 401.79 -0.728376 1.94189 0
M  V30 4006 C 402.215 -1.67793 0.850119 0
M  V30 4007 O 401.573 -1.80262 -0.19371 0
M  V30 4008 C 401.621 -1.45669 3.29868 0
M  V30 4009 O 400.725 -2.57013 3.22518 0
M  V30 4010 H 400.066 -0.195493 0.63457 0
M  V30 4011 H 402.596 0.0228214 2.04587 0
M  V30 4012 H 402.606 -1.82535 3.6489 0
M  V30 4013 H 401.281 -0.760314 4.08891 0
M  V30 4014 H 399.858 -2.22648 2.99136 0
M  V30 4015 N 402.043 -1.548 -0.295768 0
M  V30 4016 C 403.459 -1.4613 -0.641722 0
M  V30 4017 C 403.659 -0.656771 -1.90496 0
M  V30 4018 O 402.715 -0.166547 -2.5195 0
M  V30 4019 C 404.028 -2.90141 -0.789852 0
M  V30 4020 C 405.576 -3.00216 -0.885396 0
M  V30 4021 C 406.051 -4.45434 -1.06548 0
M  V30 4022 N 407.542 -4.49166 -1.13156 0
M  V30 4023 C 408.277 -5.58717 -1.28929 0
M  V30 4024 N 407.773 -6.78182 -1.41567 0
M  V30 4025 N 409.566 -5.46415 -1.31859 0
M  V30 4026 H 401.717 -2.05574 0.534147 0
M  V30 4027 H 403.98 -0.931259 0.177372 0
M  V30 4028 H 403.686 -3.51635 0.0675598 0
M  V30 4029 H 403.56 -3.37859 -1.67724 0
M  V30 4030 H 405.947 -2.38833 -1.73329 0
M  V30 4031 H 406.028 -2.55787 0.0261185 0
M  V30 4032 H 405.672 -5.07413 -0.222335 0
M  V30 4033 H 405.602 -4.87499 -1.9913 0
M  V30 4034 H 408.093 -3.631 -1.04721 0
M  V30 4035 H 408.406 -7.57428 -1.53372 0
M  V30 4036 H 406.751 -6.81037 -1.38613 0
M  V30 4037 H 409.942 -4.5203 -1.21601 0
M  V30 4038 H 410.115 -6.31841 -1.43808 0
M  V30 4039 N 403.521 0.559213 -1.47345 0
M  V30 4040 C 404.468 1.66645 -1.59682 0
M  V30 4041 C 405.438 1.60168 -0.43994 0
M  V30 4042 O 406.623 1.79031 -0.659736 0
M  V30 4043 C 403.763 3.04969 -1.61518 0
M  V30 4044 C 402.876 3.21897 -2.88108 0
M  V30 4045 C 402.011 4.50608 -2.81294 0
M  V30 4046 C 401.05 4.60961 -4.02717 0
M  V30 4047 N 400.187 5.81024 -3.94151 0
M  V30 4048 H 405.027 1.55439 -2.54249 0
M  V30 4049 H 402.564 0.757219 -1.26113 0
M  V30 4050 H 404.522 3.85064 -1.60566 0
M  V30 4051 H 403.152 3.15015 -0.704645 0
M  V30 4052 H 402.204 2.35248 -2.98936 0
M  V30 4053 H 403.516 3.25412 -3.78032 0
M  V30 4054 H 402.67 5.3896 -2.7858 0
M  V30 4055 H 401.409 4.49568 -1.89049 0
M  V30 4056 H 400.414 3.71021 -4.05738 0
M  V30 4057 H 401.639 4.63761 -4.96087 0
M  V30 4058 H 399.585 5.80938 -3.04708 0
M  V30 4059 H 399.502 5.85909 -4.77752 0
M  V30 4060 H 400.77 6.71744 -3.9545 0
M  V30 4061 O 405.038 1.45356 0.703831 0
M  V30 4062 H 405.729 1.38392 1.35526 0
M  V30 END ATOM
M  V30 BEGIN BOND
M  V30 END BOND
M  V30 END CTAB
M  END
$$$$
