drugbank_target|Q9X108 6-phospho-beta-glucosidase BglT (DB02007)
 OpenBabel12092119533D

  0  0  0     0  0            999 V3000
M  V30 BEGIN CTAB
M  V30 COUNTS 6763 6830 0 0 0
M  V30 BEGIN ATOM
M  V30 1 H -0.908 1.98254 -0.117106 0
M  V30 2 N 0 1.576 0 0
M  V30 3 C 0.933 2.03868 1.02534 0
M  V30 4 C 1.911 0.928543 1.3348 0
M  V30 5 O 3.095 1.19667 1.45644 0
M  V30 6 C 0.222 2.43627 2.35294 0
M  V30 7 C -0.732 3.65373 2.2001 0
M  V30 8 S 0.101 5.13292 1.52614 0
M  V30 9 C 1.257 5.56322 2.86805 0
M  V30 10 H 1.49 2.90518 0.631377 0
M  V30 11 H -0.977 1.52953 0.210867 0
M  V30 12 H 0.981 2.67203 3.11629 0
M  V30 13 H -0.358 1.57376 2.7183 0
M  V30 14 H -1.165 3.90944 3.18086 0
M  V30 15 H -1.563 3.418 1.51819 0
M  V30 16 H 0.729 5.58782 3.83104 0
M  V30 17 H 1.672 6.56266 2.65933 0
M  V30 18 H 2.08 4.83886 2.90714 0
M  V30 19 N 1.4781 -0.272755 1.55222 0
M  V30 20 C 2.8941 -0.619959 1.47067 0
M  V30 21 C 3.0941 -1.895 0.684978 0
M  V30 22 O 2.1501 -2.51675 0.203931 0
M  V30 23 C 3.4631 -0.746693 2.91282 0
M  V30 24 C 5.0111 -0.840731 3.01497 0
M  V30 25 C 5.4861 -0.99924 4.46967 0
M  V30 26 N 6.9771 -1.06476 4.50796 0
M  V30 27 C 7.7121 -1.20621 5.6057 0
M  V30 28 N 7.2081 -1.31483 6.80209 0
M  V30 29 N 9.0011 -1.23733 5.48312 0
M  V30 30 H 1.1521 0.564606 2.04758 0
M  V30 31 H 3.4151 0.191177 0.928523 0
M  V30 32 H 3.1211 0.119753 3.51496 0
M  V30 33 H 2.9951 -1.6269 3.40311 0
M  V30 34 H 5.3821 -1.69764 2.41379 0
M  V30 35 H 5.4631 0.0640874 2.5572 0
M  V30 36 H 5.1071 -0.146984 5.07687 0
M  V30 37 H 5.0371 -1.91871 4.90401 0
M  V30 38 H 7.5281 -0.993196 3.64615 0
M  V30 39 H 7.8411 -1.42111 7.59621 0
M  V30 40 H 6.1861 -1.28487 6.8302 0
M  V30 41 H 9.3771 -1.14877 4.53785 0
M  V30 42 H 9.5501 -1.34412 6.33906 0
M  V30 43 N 2.9562 -1.48159 -0.537278 0
M  V30 44 C 4.2052 -1.5506 -1.28993 0
M  V30 45 C 4.5182 -0.226211 -1.94288 0
M  V30 46 O 5.7242 -0.173395 -2.70946 0
M  V30 47 C 4.1802 -2.73429 -2.34018 0
M  V30 48 C 3.7882 -4.1248 -1.74825 0
M  V30 49 C 5.5322 -2.89638 -3.10339 0
M  V30 50 C 3.4392 -5.22121 -2.77747 0
M  V30 51 H 2.3692 -0.577231 -0.485098 0
M  V30 52 H 5.0202 -1.74478 -0.568317 0
M  V30 53 H 3.4022 -2.47431 -3.09182 0
M  V30 54 H 4.5762 -4.48466 -1.05899 0
M  V30 55 H 2.8912 -4.01327 -1.11022 0
M  V30 56 H 5.4882 -3.68718 -3.87235 0
M  V30 57 H 5.8312 -1.9882 -3.65754 0
M  V30 58 H 6.3642 -3.15502 -2.42288 0
M  V30 59 H 3.1032 -6.1488 -2.27161 0
M  V30 60 H 2.6232 -4.90631 -3.45024 0
M  V30 61 H 4.3022 -5.49924 -3.4087 0
M  V30 62 N 4.4343 0.785586 -1.36625 0
M  V30 63 C 5.3973 1.87999 -1.31107 0
M  V30 64 C 6.3973 1.59316 -0.217959 0
M  V30 65 O 7.5873 1.67656 -0.472977 0
M  V30 66 C 4.7193 3.24861 -1.03334 0
M  V30 67 H 5.9123 1.94307 -2.2844 0
M  V30 68 H 3.4653 0.983813 -1.21453 0
M  V30 69 H 4.2003 3.24235 -0.0647432 0
M  V30 70 H 3.9853 3.4707 -1.82441 0
M  V30 71 H 5.4753 4.04929 -1.02088 0
M  V30 72 N 5.9124 1.20967 1.01018 0
M  V30 73 C 7.1584 1.02526 1.74975 0
M  V30 74 C 7.4914 -0.4408 1.89131 0
M  V30 75 O 6.7664 -1.32718 1.42184 0
M  V30 76 C 7.0494 1.71699 3.1653 0
M  V30 77 C 6.9024 3.25791 3.10129 0
M  V30 78 C 8.2214 1.45531 4.15342 0
M  V30 79 H 5.3404 0.373863 0.635134 0
M  V30 80 H 7.9824 1.49071 1.17805 0
M  V30 81 H 6.1324 1.32128 3.65341 0
M  V30 82 H 7.8044 3.74697 2.69072 0
M  V30 83 H 6.0474 3.56363 2.47362 0
M  V30 84 H 6.7184 3.69353 4.10222 0
M  V30 85 H 9.1944 1.79872 3.75213 0
M  V30 86 H 8.0704 1.96453 5.1254 0
M  V30 87 H 8.3314 0.384237 4.40427 0
M  V30 88 N 7.3905 -1.2043 1.01659 0
M  V30 89 C 8.6395 -1.89118 0.701237 0
M  V30 90 C 8.9525 -1.79705 -0.772358 0
M  V30 91 O 10.1585 -2.43528 -1.20026 0
M  V30 92 C 8.6145 -3.39168 1.20388 0
M  V30 93 C 8.2225 -3.57166 2.70438 0
M  V30 94 C 9.9665 -4.1341 0.963953 0
M  V30 95 C 7.8735 -5.01042 3.14183 0
M  V30 96 H 6.8035 -0.708267 0.2586 0
M  V30 97 H 9.4545 -1.36239 1.22927 0
M  V30 98 H 7.8365 -3.91369 0.603824 0
M  V30 99 H 9.0105 -3.15351 3.35992 0
M  V30 100 H 7.3255 -2.96294 2.92572 0
M  V30 101 H 9.9225 -5.19491 1.26621 0
M  V30 102 H 10.2655 -4.16181 -0.099578 0
M  V30 103 H 10.7985 -3.67309 1.52738 0
M  V30 104 H 7.5375 -5.03426 4.19812 0
M  V30 105 H 7.0575 -5.43668 2.53348 0
M  V30 106 H 8.7365 -5.69623 3.0682 0
M  V30 107 N 8.8686 -0.792821 -1.36206 0
M  V30 108 C 10.1166 -0.366062 -1.98757 0
M  V30 109 C 10.4376 1.0668 -1.63231 0
M  V30 110 O 9.7076 1.73587 -0.907978 0
M  V30 111 H 8.2876 -0.132364 -0.735179 0
M  V30 112 H 10.9496 -1.01562 -1.66347 0
M  V30 113 H 10.0456 -0.460638 -3.08682 0
M  V30 114 N 10.3467 1.47872 -0.545128 0
M  V30 115 C 11.5947 2.02093 -0.016553 0
M  V30 116 C 11.9157 1.42305 1.3332 0
M  V30 117 O 11.1857 0.593853 1.86682 0
M  V30 118 H 9.7657 0.746993 -0.00313038 0
M  V30 119 H 12.4277 1.81414 -0.712397 0
M  V30 120 H 11.5237 3.11996 0.0805422 0
M  V30 121 N 11.8248 0.280983 1.55075 0
M  V30 122 C 13.0728 -0.333455 1.9933 0
M  V30 123 C 13.3938 -1.55937 1.17085 0
M  V30 124 O 12.6638 -1.94143 0.261805 0
M  V30 125 H 11.2438 -0.126197 0.736263 0
M  V30 126 H 13.9058 0.387678 1.91005 0
M  V30 127 H 13.0018 -0.619292 3.05894 0
M  V30 128 N 13.3029 -1.57598 0.00835791 0
M  V30 129 C 14.5279 -1.95617 -0.689103 0
M  V30 130 C 14.9529 -0.883753 -1.66046 0
M  V30 131 O 14.3109 0.157352 -1.80616 0
M  V30 132 C 14.3589 -3.32736 -1.38994 0
M  V30 133 O 13.4629 -3.27631 -2.50463 0
M  V30 134 H 12.8039 -0.638379 -0.182668 0
M  V30 135 H 15.3339 -2.045 0.064036 0
M  V30 136 H 15.3439 -3.68494 -1.75147 0
M  V30 137 H 14.0189 -4.1034 -0.677778 0
M  V30 138 H 12.5959 -3.03561 -2.16576 0
M  V30 139 N 14.781 0.264519 -1.55364 0
M  V30 140 C 16.006 1.01726 -1.80739 0
M  V30 141 C 16.431 1.78836 -0.583044 0
M  V30 142 O 15.789 1.75167 0.467566 0
M  V30 143 C 15.837 1.94482 -3.03659 0
M  V30 144 O 14.941 3.03386 -2.7934 0
M  V30 145 H 14.282 0.290395 -0.597132 0
M  V30 146 H 16.812 0.290854 -2.02522 0
M  V30 147 H 16.822 2.36278 -3.32621 0
M  V30 148 H 15.497 1.37772 -3.92418 0
M  V30 149 H 14.074 2.65844 -2.61498 0
M  V30 150 N 16.2591 1.48442 0.529413 0
M  V30 151 C 17.4891 1.59919 1.30804 0
M  V30 152 C 17.8971 0.258792 1.87422 0
M  V30 153 O 17.2401 -0.762096 1.67146 0
M  V30 154 C 17.3021 2.58693 2.49636 0
M  V30 155 C 16.9661 4.03745 2.14101 0
M  V30 156 C 17.9631 4.9141 1.6974 0
M  V30 157 C 15.6481 4.49285 2.24607 0
M  V30 158 C 17.6421 6.22645 1.36351 0
M  V30 159 C 15.3291 5.8054 1.9083 0
M  V30 160 C 16.3271 6.67043 1.46773 0
M  V30 161 O 16.0151 7.95856 1.1344 0
M  V30 162 H 15.7471 0.541981 0.404021 0
M  V30 163 H 18.3011 1.95 0.645309 0
M  V30 164 H 16.5311 2.18734 3.18892 0
M  V30 165 H 18.2201 2.59999 3.11698 0
M  V30 166 H 18.9861 4.57465 1.61094 0
M  V30 167 H 14.8651 3.82142 2.57854 0
M  V30 168 H 18.4091 6.90119 1.01891 0
M  V30 169 H 14.3061 6.14022 1.99117 0
M  V30 170 H 15.0741 8.08613 1.26832 0
M  V30 171 N 17.7372 -0.778329 1.37039 0
M  V30 172 C 18.9652 -1.56734 1.35063 0
M  V30 173 C 19.3802 -1.88686 -0.0655597 0
M  V30 174 O 18.7372 -1.5096 -1.02554 0
M  V30 175 C 18.7882 -2.88163 2.18276 0
M  V30 176 O 18.5092 -2.57583 3.54376 0
M  V30 177 C 20.0102 -3.82422 2.24206 0
M  V30 178 H 17.2302 -0.485778 0.462883 0
M  V30 179 H 19.7742 -0.965185 1.8029 0
M  V30 180 H 17.9292 -3.44818 1.76576 0
M  V30 181 H 18.3432 -3.41699 3.97922 0
M  V30 182 H 19.8172 -4.71667 2.86765 0
M  V30 183 H 20.2942 -4.21078 1.24861 0
M  V30 184 H 20.9002 -3.31697 2.6619 0
M  V30 185 N 19.2153 -1.21501 -1.00376 0
M  V30 186 C 20.6263 -1.03146 -1.55621 0
M  V30 187 C 20.9773 0.408375 -1.91903 0
M  V30 188 O 20.1023 1.29177 -1.73616 0
M  V30 189 C 20.6973 -1.86612 -2.82775 0
M  V30 190 C 19.2563 -1.72586 -3.34501 0
M  V30 191 C 18.4033 -1.83747 -2.07683 0
M  V30 192 H 21.3543 -1.35505 -0.826081 0
M  V30 193 H 21.3753 -1.3771 -3.54706 0
M  V30 194 H 20.8873 -2.91399 -2.56336 0
M  V30 195 H 18.9883 -0.704877 -3.65872 0
M  V30 196 H 19.1013 -2.54623 -4.05837 0
M  V30 197 H 17.4653 -1.27069 -2.20739 0
M  V30 198 H 18.2483 -2.90044 -1.83655 0
M  V30 199 N 20.6934 1.19889 -1.02296 0
M  V30 200 C 21.6034 2.26571 -0.608508 0
M  V30 201 C 22.6194 1.70299 0.356964 0
M  V30 202 O 23.7954 2.00235 0.216326 0
M  V30 203 C 20.8604 3.46677 0.0402814 0
M  V30 204 C 19.9214 4.18153 -0.97194 0
M  V30 205 C 19.1544 5.32525 -0.354016 0
M  V30 206 O 19.3774 5.64112 0.844604 0
M  V30 207 O 18.3114 5.92242 -1.07391 0
M  V30 208 H 22.1374 2.64251 -1.49684 0
M  V30 209 H 19.7224 1.26629 -0.792809 0
M  V30 210 H 21.6044 4.19475 0.402324 0
M  V30 211 H 20.2794 3.10858 0.902707 0
M  V30 212 H 19.1864 3.47499 -1.38546 0
M  V30 213 H 20.5194 4.57927 -1.80454 0
M  V30 214 N 22.1715 0.800033 1.35784 0
M  V30 215 C 23.1015 0.220184 2.3246 0
M  V30 216 C 24.0825 -0.65073 1.57161 0
M  V30 217 O 25.2675 -0.582359 1.85263 0
M  V30 218 C 22.3975 -0.637353 3.41402 0
M  V30 219 C 21.3515 0.134531 4.27789 0
M  V30 220 C 20.6775 -0.844285 5.27992 0
M  V30 221 C 21.9775 1.32979 5.05088 0
M  V30 222 H 23.6715 1.02787 2.81203 0
M  V30 223 H 21.2175 0.495717 1.35199 0
M  V30 224 H 23.1705 -1.05302 4.08031 0
M  V30 225 H 21.8945 -1.47785 2.91251 0
M  V30 226 H 20.5535 0.531296 3.6273 0
M  V30 227 H 20.2015 -1.68011 4.74111 0
M  V30 228 H 19.9015 -0.332184 5.8666 0
M  V30 229 H 21.4255 -1.2583 5.97494 0
M  V30 230 H 22.8395 0.98934 5.64699 0
M  V30 231 H 21.2365 1.77593 5.7322 0
M  V30 232 H 22.3065 2.11978 4.36111 0
M  V30 233 N 23.6496 -1.47581 0.552962 0
M  V30 234 C 24.8956 -2.02782 0.0273648 0
M  V30 235 C 25.2286 -1.42687 -1.31734 0
M  V30 236 O 24.5036 -0.580897 -1.85623 0
M  V30 237 C 24.7866 -3.60031 -0.0702371 0
M  V30 238 C 24.6396 -4.30566 1.30126 0
M  V30 239 C 25.9586 -4.33028 -0.785771 0
M  V30 240 H 23.0776 -0.736912 0.0114185 0
M  V30 241 H 25.7196 -1.76056 0.714432 0
M  V30 242 H 23.8696 -3.82932 -0.655382 0
M  V30 243 H 25.5416 -4.19018 1.92929 0
M  V30 244 H 23.7846 -3.91086 1.87709 0
M  V30 245 H 24.4556 -5.39114 1.18573 0
M  V30 246 H 26.9316 -4.15095 -0.288982 0
M  V30 247 H 25.8076 -5.42695 -0.823013 0
M  V30 248 H 26.0686 -4.01945 -1.841 0
M  V30 249 N 25.1277 -0.289203 -1.54924 0
M  V30 250 C 26.0747 0.592115 -2.23075 0
M  V30 251 C 27.0447 1.13881 -1.20915 0
M  V30 252 O 28.2297 1.18551 -1.495 0
M  V30 253 C 25.3697 1.76376 -2.96623 0
M  V30 254 C 24.4827 1.24959 -4.13533 0
M  V30 255 C 23.6177 2.38416 -4.74691 0
M  V30 256 C 22.6567 1.84072 -5.83767 0
M  V30 257 N 21.7937 2.91057 -6.38929 0
M  V30 258 H 26.6337 0.00432038 -2.98 0
M  V30 259 H 24.1707 -0.00963529 -1.47097 0
M  V30 260 H 26.1287 2.45268 -3.3749 0
M  V30 261 H 24.7587 2.32337 -2.24097 0
M  V30 262 H 23.8107 0.453307 -3.77689 0
M  V30 263 H 25.1227 0.811662 -4.92152 0
M  V30 264 H 24.2767 3.15276 -5.18349 0
M  V30 265 H 23.0157 2.8553 -3.95378 0
M  V30 266 H 22.0207 1.05697 -5.39545 0
M  V30 267 H 23.2457 1.37877 -6.64956 0
M  V30 268 H 21.1917 3.37526 -5.62505 0
M  V30 269 H 21.1087 2.51724 -7.12861 0
M  V30 270 H 22.3767 3.6785 -6.87246 0
M  V30 271 N 26.6058 1.57591 -0.0167156 0
M  V30 272 C 27.8538 1.90906 0.663285 0
M  V30 273 C 28.1748 0.892509 1.73376 0
M  V30 274 O 27.4448 -0.0677623 1.95783 0
M  V30 275 H 26.0248 0.704637 0.247983 0
M  V30 276 H 28.6868 1.94803 -0.0615909 0
M  V30 277 H 27.7828 2.9116 1.12393 0
M  V30 278 N 28.0839 -0.256276 1.55502 0
M  V30 279 C 29.0139 -1.32102 1.92539 0
M  V30 280 C 29.9949 -1.50684 0.789194 0
M  V30 281 O 31.1799 -1.63449 1.04872 0
M  V30 282 C 28.3099 -2.67752 2.21192 0
M  V30 283 C 27.2639 -2.63878 3.36975 0
M  V30 284 C 26.5899 -4.03236 3.51147 0
M  V30 285 C 27.8899 -2.21682 4.72921 0
M  V30 286 H 29.5839 -1.01351 2.81724 0
M  V30 287 H 27.1299 -0.486105 1.35547 0
M  V30 288 H 29.0829 -3.42365 2.45691 0
M  V30 289 H 27.8069 -3.0012 1.28824 0
M  V30 290 H 26.4659 -1.91722 3.12471 0
M  V30 291 H 26.1139 -4.32854 2.56216 0
M  V30 292 H 25.8139 -4.01535 4.29003 0
M  V30 293 H 27.3379 -4.79563 3.77957 0
M  V30 294 H 28.7519 -2.86023 4.96854 0
M  V30 295 H 27.1489 -2.3111 5.53812 0
M  V30 296 H 28.2189 -1.16833 4.70615 0
M  V30 297 N 29.562 -1.4872 -0.521534 0
M  V30 298 C 30.492 -1.66771 -1.63431 0
M  V30 299 C 31.473 -0.516499 -1.62069 0
M  V30 300 O 32.658 -0.750013 -1.79132 0
M  V30 301 C 29.788 -1.71515 -3.01993 0
M  V30 302 C 28.742 -2.86222 -3.18216 0
M  V30 303 C 28.068 -2.76061 -4.57924 0
M  V30 304 C 29.368 -4.27419 -3.00184 0
M  V30 305 H 31.062 -2.59932 -1.48579 0
M  V30 306 H 28.608 -1.25089 -0.713358 0
M  V30 307 H 30.561 -1.82731 -3.7972 0
M  V30 308 H 29.285 -0.749393 -3.17886 0
M  V30 309 H 27.944 -2.74575 -2.42908 0
M  V30 310 H 27.592 -1.77437 -4.70665 0
M  V30 311 H 27.292 -3.53037 -4.69722 0
M  V30 312 H 28.816 -2.89256 -5.37739 0
M  V30 313 H 30.23 -4.39855 -3.67697 0
M  V30 314 H 28.627 -5.05458 -3.2347 0
M  V30 315 H 29.697 -4.43293 -1.96518 0
M  V30 316 N 31.0401 0.771051 -1.3745 0
M  V30 317 C 32.3171 1.519 -1.23231 0
M  V30 318 C 32.6971 2.10383 0.173809 0
M  V30 319 O 32.0451 1.95583 1.18151 0
M  V30 320 C 32.2551 2.59933 -2.32886 0
M  V30 321 C 33.6031 3.27316 -2.70461 0
M  V30 322 O 34.6271 2.70228 -2.32068 0
M  V30 323 O 33.4861 4.30531 -3.36608 0
M  V30 324 H 30.5801 0.672803 -0.480901 0
M  V30 325 H 33.1261 0.807957 -1.49232 0
M  V30 326 H 31.8981 2.14842 -3.27045 0
M  V30 327 H 31.5211 3.38637 -2.08353 0
M  V30 328 N 32.5182 1.22032 0.997298 0
M  V30 329 C 33.7672 1.03637 1.73038 0
M  V30 330 C 34.0802 -0.429475 1.90827 0
M  V30 331 O 35.2862 -0.732995 2.61418 0
M  V30 332 C 33.7422 1.80582 3.11317 0
M  V30 333 C 33.3502 3.31387 3.01474 0
M  V30 334 C 35.0942 1.70621 3.88701 0
M  V30 335 C 33.0012 4.00791 4.3488 0
M  V30 336 H 31.9312 0.384179 0.648785 0
M  V30 337 H 34.5822 1.4584 1.11368 0
M  V30 338 H 32.9642 1.31175 3.73643 0
M  V30 339 H 34.1382 3.88155 2.4834 0
M  V30 340 H 32.4532 3.41976 2.37575 0
M  V30 341 H 35.0502 2.19799 4.87434 0
M  V30 342 H 35.3932 0.665823 4.10941 0
M  V30 343 H 35.9262 2.17547 3.33044 0
M  V30 344 H 32.6652 5.05064 4.1784 0
M  V30 345 H 32.1852 3.48811 4.87945 0
M  V30 346 H 33.8642 4.06139 5.03647 0
M  V30 347 N 33.9963 -1.19345 1.0293 0
M  V30 348 C 35.2213 -1.93538 0.745511 0
M  V30 349 C 35.6463 -1.75007 -0.689511 0
M  V30 350 O 35.0043 -1.05265 -1.47611 0
M  V30 351 C 35.0523 -3.43336 1.10239 0
M  V30 352 O 34.1563 -4.11806 0.221289 0
M  V30 353 H 33.4973 -0.604193 0.275404 0
M  V30 354 H 36.0273 -1.5141 1.37609 0
M  V30 355 H 36.0373 -3.94004 1.05947 0
M  V30 356 H 34.7123 -3.56146 2.14786 0
M  V30 357 H 33.2893 -3.715 0.322842 0
M  V30 358 N 35.4744 -0.807222 -1.35358 0
M  V30 359 C 36.3844 -0.219594 -2.3357 0
M  V30 360 C 37.4004 0.637734 -1.61892 0
M  V30 361 O 38.5764 0.549336 -1.93763 0
M  V30 362 C 35.6414 0.62158 -3.41083 0
M  V30 363 C 34.7024 -0.256315 -4.28534 0
M  V30 364 C 33.9354 0.544807 -5.30912 0
M  V30 365 O 34.1584 1.77944 -5.41934 0
M  V30 366 O 33.0924 -0.0646478 -6.01865 0
M  V30 367 H 36.9184 -1.03208 -2.85625 0
M  V30 368 H 34.5034 -0.569025 -1.38139 0
M  V30 369 H 36.3854 1.10067 -4.06772 0
M  V30 370 H 35.0604 1.41165 -2.91297 0
M  V30 371 H 33.9674 -0.782559 -3.65823 0
M  V30 372 H 35.3004 -1.01034 -4.81719 0
M  V30 373 N 36.9525 1.47285 -0.560781 0
M  V30 374 C 38.2295 1.9558 0.0277798 0
M  V30 375 C 38.6095 1.5034 1.48192 0
M  V30 376 O 37.9575 0.743882 2.16052 0
M  V30 377 C 38.1675 3.48789 -0.121418 0
M  V30 378 C 39.5155 4.24594 0.0220912 0
M  V30 379 O 40.5395 3.56166 -0.0491439 0
M  V30 380 O 39.3985 5.46217 0.175958 0
M  V30 381 H 36.4925 0.824663 0.0621342 0
M  V30 382 H 39.0385 1.5767 -0.627556 0
M  V30 383 H 37.8105 3.74533 -1.13316 0
M  V30 384 H 37.4335 3.93473 0.571366 0
M  V30 385 N 38.4306 0.297415 1.54768 0
M  V30 386 C 39.6766 -0.313376 2.00364 0
M  V30 387 C 40.0096 -1.53815 1.18553 0
M  V30 388 O 39.2846 -1.92739 0.261103 0
M  V30 389 C 39.5676 -0.673525 3.53745 0
M  V30 390 C 39.4206 0.560133 4.46299 0
M  V30 391 C 40.7396 -1.50143 4.13697 0
M  V30 392 H 37.8586 -0.112428 0.728374 0
M  V30 393 H 40.5006 0.4088 1.8555 0
M  V30 394 H 38.6506 -1.28881 3.665 0
M  V30 395 H 40.3226 1.19863 4.45455 0
M  V30 396 H 38.5656 1.19405 4.17043 0
M  V30 397 H 39.2366 0.26405 5.51368 0
M  V30 398 H 41.7126 -0.981588 4.04356 0
M  V30 399 H 40.5886 -1.72221 5.21182 0
M  V30 400 H 40.8496 -2.48952 3.65343 0
M  V30 401 N 39.9087 -1.5758 0.0250728 0
M  V30 402 C 41.3247 -1.56124 -0.331282 0
M  V30 403 C 41.5247 -1.03029 -1.73169 0
M  V30 404 O 40.5807 -0.675215 -2.43305 0
M  V30 405 C 41.8937 -3.00139 -0.183584 0
M  V30 406 C 43.4417 -3.11946 -0.256654 0
M  V30 407 C 43.9167 -4.57793 -0.137792 0
M  V30 408 N 45.4077 -4.6279 -0.194904 0
M  V30 409 C 46.1427 -5.7326 -0.126655 0
M  V30 410 N 45.6387 -6.928 -0.00755288 0
M  V30 411 N 47.4317 -5.61811 -0.180348 0
M  V30 412 H 39.5827 -1.90424 0.94087 0
M  V30 413 H 41.8457 -0.875761 0.362968 0
M  V30 414 H 41.5517 -3.4292 0.780927 0
M  V30 415 H 41.4257 -3.64899 -0.955448 0
M  V30 416 H 43.8127 -2.69079 -1.21162 0
M  V30 417 H 43.8937 -2.49915 0.545517 0
M  V30 418 H 43.5377 -5.01339 0.813739 0
M  V30 419 H 43.4677 -5.17798 -0.958775 0
M  V30 420 H 45.9587 -3.76807 -0.287267 0
M  V30 421 H 46.2717 -7.72791 0.0379428 0
M  V30 422 H 44.6167 -6.94995 0.0271731 0
M  V30 423 H 47.8077 -4.6731 -0.271767 0
M  V30 424 H 47.9807 -6.47882 -0.123697 0
M  V30 425 N 41.3868 0.248026 -1.55636 0
M  V30 426 C 42.6358 0.974134 -1.76617 0
M  V30 427 C 42.9488 1.86528 -0.588796 0
M  V30 428 O 44.1548 2.62805 -0.681594 0
M  V30 429 C 42.6108 1.78213 -3.12679 0
M  V30 430 C 42.2188 0.93843 -4.38061 0
M  V30 431 C 43.9628 2.50104 -3.42999 0
M  V30 432 C 41.8698 1.74225 -5.65155 0
M  V30 433 H 40.7998 0.36745 -0.658405 0
M  V30 434 H 43.4508 0.22884 -1.82067 0
M  V30 435 H 41.8328 2.56933 -3.01333 0
M  V30 436 H 43.0068 0.193635 -4.60393 0
M  V30 437 H 41.3218 0.332905 -4.15067 0
M  V30 438 H 43.9188 3.10694 -4.3517 0
M  V30 439 H 44.2618 3.21662 -2.64271 0
M  V30 440 H 44.7948 1.78395 -3.55556 0
M  V30 441 H 41.5338 1.07043 -6.46701 0
M  V30 442 H 41.0538 2.46235 -5.46926 0
M  V30 443 H 42.7328 2.30967 -6.0437 0
M  V30 444 N 42.8649 1.48995 0.513639 0
M  V30 445 C 44.1419 1.48338 1.27495 0
M  V30 446 C 44.5219 0.204065 2.10111 0
M  V30 447 O 43.8699 -0.813881 2.13514 0
M  V30 448 C 44.0799 2.75498 2.14247 0
M  V30 449 C 45.4279 3.24484 2.73852 0
M  V30 450 O 46.4519 2.76528 2.24523 0
M  V30 451 O 45.3109 4.07974 3.6362 0
M  V30 452 H 42.4049 0.593149 0.576284 0
M  V30 453 H 44.9509 1.61246 0.528948 0
M  V30 454 H 43.7229 3.60109 1.53092 0
M  V30 455 H 43.3459 2.6539 2.96064 0
M  V30 456 N 44.343 -0.763751 1.37857 0
M  V30 457 C 45.253 -1.90817 1.36478 0
M  V30 458 C 46.269 -1.71997 0.263248 0
M  V30 459 O 47.445 -1.95095 0.499979 0
M  V30 460 C 44.51 -3.2605 1.17864 0
M  V30 461 C 43.571 -3.57467 2.3773 0
M  V30 462 C 42.804 -4.86249 2.19995 0
M  V30 463 O 43.027 -5.57884 1.18836 0
M  V30 464 O 41.961 -5.16911 3.08361 0
M  V30 465 H 45.787 -1.94933 2.32884 0
M  V30 466 H 43.372 -0.907619 1.1867 0
M  V30 467 H 45.254 -4.06924 1.09504 0
M  V30 468 H 43.929 -3.22769 0.245372 0
M  V30 469 H 42.836 -2.76796 2.51664 0
M  V30 470 H 44.169 -3.655 3.29652 0
M  V30 471 N 45.8211 -1.22559 -0.990812 0
M  V30 472 C 47.0671 -1.05297 -1.73322 0
M  V30 473 C 47.4001 0.410655 -1.89808 0
M  V30 474 O 46.6751 1.30439 -1.44277 0
M  V30 475 C 46.9581 -1.76713 -3.13759 0
M  V30 476 C 46.8111 -3.30684 -3.04907 0
M  V30 477 C 48.1301 -1.52121 -4.12974 0
M  V30 478 H 45.2491 -0.38392 -0.629106 0
M  V30 479 H 47.8911 -1.50926 -1.15418 0
M  V30 480 H 46.0411 -1.37924 -3.63193 0
M  V30 481 H 47.7131 -3.7893 -2.63077 0
M  V30 482 H 45.9561 -3.60253 -2.41661 0
M  V30 483 H 46.6271 -3.75833 -4.04294 0
M  V30 484 H 49.1031 -1.85819 -3.72304 0
M  V30 485 H 47.9791 -2.04582 -5.0935 0
M  V30 486 H 48.2401 -0.454257 -4.3976 0
M  V30 487 N 47.2992 1.18797 -1.03562 0
M  V30 488 C 48.5482 1.87978 -0.731235 0
M  V30 489 C 48.8612 1.80911 0.743671 0
M  V30 490 O 50.0672 2.45407 1.16137 0
M  V30 491 C 48.5232 3.3721 -1.25768 0
M  V30 492 C 48.1312 3.52818 -2.76085 0
M  V30 493 C 49.8752 4.11825 -1.0296 0
M  V30 494 C 47.7822 4.9598 -3.22114 0
M  V30 495 H 46.7122 0.704063 -0.269835 0
M  V30 496 H 49.3632 1.34266 -1.25079 0
M  V30 497 H 47.7452 3.90359 -0.666011 0
M  V30 498 H 48.9192 3.09965 -3.40966 0
M  V30 499 H 47.2342 2.91602 -2.97249 0
M  V30 500 H 49.8312 5.17411 -1.34869 0
M  V30 501 H 50.1742 4.16287 0.0333546 0
M  V30 502 H 50.7072 3.64833 -1.58562 0
M  V30 503 H 47.4462 4.96684 -4.27768 0
M  V30 504 H 46.9662 5.39569 -2.61965 0
M  V30 505 H 48.6452 5.6467 -3.15844 0
M  V30 506 N 48.7773 0.814389 1.34928 0
M  V30 507 C 50.0243 0.398423 1.98542 0
M  V30 508 C 50.3523 -1.03638 1.64589 0
M  V30 509 O 49.6073 -1.73509 0.90516 0
M  V30 510 C 49.9063 0.537781 3.53331 0
M  V30 511 C 49.5723 1.93704 4.07172 0
M  V30 512 C 48.2343 2.31984 4.21589 0
M  V30 513 C 50.5863 2.85213 4.36237 0
M  V30 514 C 47.9143 3.61125 4.62391 0
M  V30 515 C 50.2663 4.13809 4.78482 0
M  V30 516 C 48.9303 4.52077 4.91104 0
M  V30 517 H 48.2003 0.145793 0.726516 0
M  V30 518 H 50.8473 1.03669 1.61012 0
M  V30 519 H 49.1523 -0.183906 3.91368 0
M  V30 520 H 50.8493 0.196588 4.00518 0
M  V30 521 H 47.4393 1.62966 3.96409 0
M  V30 522 H 51.6233 2.56885 4.24645 0
M  V30 523 H 46.8793 3.90612 4.70353 0
M  V30 524 H 51.0533 4.84811 4.99932 0
M  V30 525 H 48.6803 5.52196 5.22478 0
M  V30 526 N 50.2554 -1.46986 0.568584 0
M  V30 527 C 51.4854 -2.0653 0.0539173 0
M  V30 528 C 51.8934 -1.42004 -1.25026 0
M  V30 529 O 51.2364 -0.514541 -1.76347 0
M  V30 530 C 51.2984 -3.58938 -0.200854 0
M  V30 531 C 50.9624 -4.45572 1.01559 0
M  V30 532 C 51.9594 -4.82986 1.92407 0
M  V30 533 C 49.6444 -4.8692 1.23346 0
M  V30 534 C 51.6384 -5.60559 3.03402 0
M  V30 535 C 49.3254 -5.64255 2.34649 0
M  V30 536 C 50.3234 -6.00986 3.24507 0
M  V30 537 O 50.0114 -6.76761 4.33878 0
M  V30 538 H 49.7434 -0.674292 0.0480234 0
M  V30 539 H 52.2974 -1.89812 0.784896 0
M  V30 540 H 50.5274 -3.73911 -0.986279 0
M  V30 541 H 52.2164 -4.0046 -0.662294 0
M  V30 542 H 52.9824 -4.51633 1.76785 0
M  V30 543 H 48.8614 -4.57789 0.543178 0
M  V30 544 H 52.4054 -5.89147 3.73565 0
M  V30 545 H 48.3024 -5.95021 2.5024 0
M  V30 546 H 49.0704 -6.95168 4.32068 0
M  V30 547 N 51.7335 -0.305618 -1.54608 0
M  V30 548 C 53.0105 0.355652 -1.92339 0
M  V30 549 C 53.3905 1.71324 -1.23335 0
M  V30 550 O 52.7385 2.25473 -0.370702 0
M  V30 551 C 52.9485 0.46572 -3.45879 0
M  V30 552 C 54.2965 0.734426 -4.182 0
M  V30 553 O 55.3205 0.54935 -3.51938 0
M  V30 554 O 54.1795 1.09024 -5.35515 0
M  V30 555 H 51.2735 0.199666 -0.802535 0
M  V30 556 H 53.8195 -0.354017 -1.65966 0
M  V30 557 H 52.5915 -0.488461 -3.88239 0
M  V30 558 H 52.2145 1.22367 -3.78301 0
M  V30 559 N 53.2116 1.57565 -0.0334293 0
M  V30 560 C 54.4606 1.91155 0.643639 0
M  V30 561 C 54.7736 0.91192 1.73042 0
M  V30 562 O 55.9796 1.13923 2.46442 0
M  V30 563 C 54.4356 3.39443 1.1961 0
M  V30 564 C 54.0436 4.47774 0.142381 0
M  V30 565 C 55.7876 3.82094 1.84944 0
M  V30 566 C 53.6946 5.87162 0.706727 0
M  V30 567 H 52.6246 0.713368 0.244176 0
M  V30 568 H 55.2756 1.8323 -0.0994323 0
M  V30 569 H 53.6576 3.42313 1.99092 0
M  V30 570 H 54.8316 4.56469 -0.630296 0
M  V30 571 H 53.1466 4.14352 -0.412446 0
M  V30 572 H 55.7436 4.83591 2.2813 0
M  V30 573 H 56.0866 3.17386 2.69392 0
M  V30 574 H 56.6196 3.81665 1.12145 0
M  V30 575 H 53.3586 6.55424 -0.0997178 0
M  V30 576 H 52.8786 5.82064 1.44779 0
M  V30 577 H 54.5576 6.35866 1.19514 0
M  V30 578 N 54.6897 -0.239769 1.55765 0
M  V30 579 C 55.9667 -0.990056 1.68693 0
M  V30 580 C 56.3467 -2.03107 0.5754 0
M  V30 581 O 55.6947 -2.24604 -0.42017 0
M  V30 582 C 55.9047 -1.61696 3.09282 0
M  V30 583 C 57.2527 -2.11613 3.6811 0
M  V30 584 O 58.2767 -1.71624 3.12127 0
M  V30 585 O 57.1357 -2.85057 4.66267 0
M  V30 586 H 54.2297 -0.461299 0.686391 0
M  V30 587 H 56.7757 -0.232991 1.68093 0
M  V30 588 H 55.5477 -0.864357 3.81634 0
M  V30 589 H 55.1707 -2.44005 3.13923 0
M  V30 590 N 56.1678 -1.49265 -0.50573 0
M  V30 591 C 57.0778 -1.68312 -1.63427 0
M  V30 592 C 58.0938 -0.565682 -1.64548 0
M  V30 593 O 59.2698 -0.839801 -1.83055 0
M  V30 594 C 56.3348 -1.74107 -2.99813 0
M  V30 595 C 55.3958 -2.97653 -3.09356 0
M  V30 596 C 54.6288 -3.03163 -4.39236 0
M  V30 597 O 54.8518 -2.16396 -5.27758 0
M  V30 598 O 53.7858 -3.9558 -4.53652 0
M  V30 599 H 57.6118 -2.63907 -1.50289 0
M  V30 600 H 55.1968 -1.32951 -0.681502 0
M  V30 601 H 57.0788 -1.803 -3.80881 0
M  V30 602 H 55.7538 -0.816901 -3.13223 0
M  V30 603 H 54.6608 -2.96981 -2.27493 0
M  V30 604 H 55.9938 -3.89535 -3.00871 0
M  V30 605 N 57.6459 0.756429 -1.3826 0
M  V30 606 C 58.5559 1.9009 -1.37488 0
M  V30 607 C 59.5719 1.71855 -0.272366 0
M  V30 608 O 60.7479 1.94827 -0.510318 0
M  V30 609 C 57.8129 3.25421 -1.19592 0
M  V30 610 C 56.8739 3.56202 -2.39622 0
M  V30 611 C 56.1069 4.85075 -2.2257 0
M  V30 612 O 56.3299 5.57246 -1.21793 0
M  V30 613 O 55.2639 5.15269 -3.11098 0
M  V30 614 H 59.0899 1.93695 -2.33914 0
M  V30 615 H 56.6749 0.901313 -1.1915 0
M  V30 616 H 58.5569 4.06337 -1.11661 0
M  V30 617 H 57.2319 3.22634 -0.262486 0
M  V30 618 H 56.1389 2.75458 -2.53128 0
M  V30 619 H 57.4719 3.63747 -3.31586 0
M  V30 620 N 59.124 1.23083 0.984299 0
M  V30 621 C 60.071 1.00854 2.07598 0
M  V30 622 C 61.041 -0.0726709 1.65941 0
M  V30 623 O 62.226 0.0786535 1.90638 0
M  V30 624 C 59.366 0.601645 3.39815 0
M  V30 625 C 58.479 1.75456 3.94765 0
M  V30 626 C 57.614 1.29482 5.15177 0
M  V30 627 C 56.653 2.41873 5.62284 0
M  V30 628 N 55.79 1.96885 6.73929 0
M  V30 629 H 60.63 1.943 2.25946 0
M  V30 630 H 58.167 0.968001 1.10762 0
M  V30 631 H 60.125 0.346854 4.15756 0
M  V30 632 H 58.755 -0.295803 3.21442 0
M  V30 633 H 57.807 2.12346 3.15616 0
M  V30 634 H 59.119 2.59965 4.25699 0
M  V30 635 H 58.273 0.997923 5.98437 0
M  V30 636 H 57.012 0.420046 4.85888 0
M  V30 637 H 56.017 2.72342 4.77608 0
M  V30 638 H 57.242 3.29881 5.93595 0
M  V30 639 H 55.188 1.11782 6.46406 0
M  V30 640 H 55.105 2.74956 7.04227 0
M  V30 641 H 56.373 1.70289 7.60672 0
M  V30 642 N 60.6021 -1.18246 1.0419 0
M  V30 643 C 61.5341 -2.2142 0.592088 0
M  V30 644 C 62.5471 -1.59233 -0.338909 0
M  V30 645 O 63.7361 -1.78002 -0.133231 0
M  V30 646 C 60.8361 -3.38546 -0.154854 0
M  V30 647 C 60.0091 -4.3031 0.784328 0
M  V30 648 C 59.0681 -5.26138 0.0804583 0
M  V30 649 O 58.0941 -5.64738 0.711292 0
M  V30 650 N 59.2961 -5.68261 -1.18574 0
M  V30 651 H 62.0611 -2.60636 1.47949 0
M  V30 652 H 59.6221 -1.33044 0.922544 0
M  V30 653 H 61.6141 -3.99678 -0.635606 0
M  V30 654 H 60.1841 -2.98012 -0.943811 0
M  V30 655 H 59.4041 -3.66764 1.44491 0
M  V30 656 H 60.6921 -4.8852 1.42218 0
M  V30 657 H 60.0901 -5.38957 -1.71876 0
M  V30 658 H 58.6471 -6.31584 -1.61074 0
M  V30 659 N 62.0802 -0.821533 -1.34494 0
M  V30 660 C 63.0272 -0.240397 -2.29545 0
M  V30 661 C 63.9972 0.634031 -1.53523 0
M  V30 662 O 65.1822 0.575966 -1.81899 0
M  V30 663 C 62.3222 0.592869 -3.39969 0
M  V30 664 C 61.4352 -0.30365 -4.30932 0
M  V30 665 C 60.5702 0.539049 -5.28458 0
M  V30 666 C 59.6092 -0.356942 -6.11058 0
M  V30 667 N 58.7462 0.446603 -7.00678 0
M  V30 668 H 63.5862 -1.05632 -2.7865 0
M  V30 669 H 61.1232 -0.532413 -1.37127 0
M  V30 670 H 63.0812 1.09129 -4.02675 0
M  V30 671 H 61.7112 1.37392 -2.92102 0
M  V30 672 H 60.7632 -0.920276 -3.691 0
M  V30 673 H 62.0752 -0.992661 -4.88823 0
M  V30 674 H 61.2292 1.102 -5.96608 0
M  V30 675 H 59.9682 1.26157 -4.71101 0
M  V30 676 H 58.9732 -0.932047 -5.41842 0
M  V30 677 H 60.1982 -1.07755 -6.70497 0
M  V30 678 H 58.1442 1.15282 -6.45791 0
M  V30 679 H 58.0612 -0.184048 -7.55776 0
M  V30 680 H 59.3292 0.992352 -7.73158 0
M  V30 681 N 63.5583 1.46682 -0.576371 0
M  V30 682 C 64.8073 2.01619 -0.0572825 0
M  V30 683 C 65.1203 1.45417 1.30818 0
M  V30 684 O 66.3263 1.92133 1.91825 0
M  V30 685 C 64.7823 3.59863 -0.0518371 0
M  V30 686 C 64.3903 4.25059 -1.41523 0
M  V30 687 C 66.1343 4.2248 0.413639 0
M  V30 688 C 64.0413 5.75364 -1.36785 0
M  V30 689 H 62.9713 0.753794 -0.0176448 0
M  V30 690 H 65.6223 1.68481 -0.727076 0
M  V30 691 H 64.0043 3.90048 0.683994 0
M  V30 692 H 65.1783 4.06491 -2.17029 0
M  V30 693 H 63.4933 3.7451 -1.8202 0
M  V30 694 H 66.0903 5.3265 0.467779 0
M  V30 695 H 66.4333 3.90976 1.42982 0
M  V30 696 H 66.9663 3.96897 -0.267929 0
M  V30 697 H 63.7053 6.11518 -2.36063 0
M  V30 698 H 63.2253 5.96214 -0.654895 0
M  V30 699 H 64.9043 6.37955 -1.07805 0
M  V30 700 N 65.0364 0.313813 1.54444 0
M  V30 701 C 66.2824 -0.292108 2.00685 0
M  V30 702 C 66.6154 -1.52548 1.20177 0
M  V30 703 O 65.8904 -1.92452 0.281531 0
M  V30 704 C 66.1734 -0.635968 3.5444 0
M  V30 705 C 66.0264 0.607437 4.4568 0
M  V30 706 C 67.3454 -1.45747 4.15266 0
M  V30 707 H 64.4644 -0.104697 0.729526 0
M  V30 708 H 67.1064 0.428457 1.85106 0
M  V30 709 H 65.2564 -1.24986 3.67846 0
M  V30 710 H 66.9284 1.24581 4.44159 0
M  V30 711 H 65.1714 1.23822 4.15753 0
M  V30 712 H 65.8424 0.322515 5.51057 0
M  V30 713 H 68.3184 -0.938645 4.05375 0
M  V30 714 H 67.1944 -1.66683 5.2298 0
M  V30 715 H 67.4554 -2.45063 3.67963 0
M  V30 716 N 66.5145 -1.57545 0.0417849 0
M  V30 717 C 67.7605 -1.92601 -0.635021 0
M  V30 718 C 68.0935 -0.919627 -1.71045 0
M  V30 719 O 67.3685 0.0557892 -1.9442 0
M  V30 720 C 67.6515 -3.38085 -1.23979 0
M  V30 721 C 67.5045 -4.49467 -0.173057 0
M  V30 722 C 68.8235 -3.83776 -2.15416 0
M  V30 723 H 65.9425 -0.700397 -0.229374 0
M  V30 724 H 68.5845 -1.89728 0.101633 0
M  V30 725 H 66.7345 -3.40664 -1.86762 0
M  V30 726 H 68.4065 -4.59018 0.458312 0
M  V30 727 H 66.6495 -4.30909 0.499996 0
M  V30 728 H 67.3205 -5.48323 -0.636054 0
M  V30 729 H 69.7965 -3.83013 -1.62605 0
M  V30 730 H 68.6725 -4.8624 -2.54679 0
M  V30 731 H 68.9335 -3.19998 -3.05047 0
M  V30 732 N 67.9926 0.231505 -1.5589 0
M  V30 733 C 69.2696 0.981096 -1.69215 0
M  V30 734 C 69.6496 2.02799 -0.586164 0
M  V30 735 O 68.9976 2.24823 0.408253 0
M  V30 736 C 69.2076 1.60054 -3.10135 0
M  V30 737 C 70.5556 2.09658 -3.69227 0
M  V30 738 O 71.5796 1.69967 -3.13033 0
M  V30 739 O 70.4386 2.8258 -4.67772 0
M  V30 740 H 67.5326 0.457653 -0.688827 0
M  V30 741 H 70.0786 0.224073 -1.68214 0
M  V30 742 H 68.8506 0.844105 -3.82087 0
M  V30 743 H 68.4736 2.42336 -3.15212 0
M  V30 744 N 69.4707 1.49531 0.497807 0
M  V30 745 C 70.7177 1.59179 1.25173 0
M  V30 746 C 71.0457 0.279932 1.92475 0
M  V30 747 O 70.3007 -0.732383 1.81479 0
M  V30 748 C 70.5997 2.70252 2.33878 0
M  V30 749 C 70.2657 4.11644 1.84012 0
M  V30 750 C 68.9277 4.50121 1.70132 0
M  V30 751 C 71.2797 5.00121 1.46725 0
M  V30 752 C 68.6077 5.74845 1.17348 0
M  V30 753 C 70.9597 6.25366 0.95392 0
M  V30 754 C 69.6237 6.6267 0.801538 0
M  V30 755 H 68.8937 0.582478 0.45804 0
M  V30 756 H 71.5407 1.83373 0.551948 0
M  V30 757 H 69.8457 2.40041 3.09657 0
M  V30 758 H 71.5427 2.74925 2.9192 0
M  V30 759 H 68.1327 3.81274 1.95775 0
M  V30 760 H 72.3167 4.71048 1.56294 0
M  V30 761 H 67.5727 6.02444 1.04264 0
M  V30 762 H 71.7467 6.93301 0.656225 0
M  V30 763 H 69.3737 7.59197 0.390351 0
M  V30 764 N 70.9488 -0.749086 1.3866 0
M  V30 765 C 72.1948 -1.51056 1.35314 0
M  V30 766 C 72.5278 -1.94121 -0.0553751 0
M  V30 767 O 71.8028 -1.65763 -1.01749 0
M  V30 768 C 72.0858 -2.76003 2.31288 0
M  V30 769 C 71.9388 -2.39047 3.8102 0
M  V30 770 C 73.2578 -3.78046 2.2532 0
M  V30 771 H 70.3768 -0.547972 0.492844 0
M  V30 772 H 73.0188 -0.857628 1.69543 0
M  V30 773 H 71.1688 -3.31716 2.02229 0
M  V30 774 H 72.8408 -1.89074 4.20771 0
M  V30 775 H 71.0838 -1.71449 3.98482 0
M  V30 776 H 71.7548 -3.28462 4.4364 0
M  V30 777 H 74.2308 -3.31884 2.50983 0
M  V30 778 H 73.1068 -4.63159 2.94576 0
M  V30 779 H 73.3678 -4.23957 1.25352 0
M  V30 780 N 72.4269 -1.23603 -0.977757 0
M  V30 781 C 73.3739 -1.01954 -2.07061 0
M  V30 782 C 74.3439 0.0638697 -1.65977 0
M  V30 783 O 75.5289 -0.0887624 -1.90593 0
M  V30 784 C 72.6689 -0.619658 -3.39491 0
M  V30 785 C 71.7819 -1.77547 -3.93829 0
M  V30 786 C 70.9169 -1.32212 -5.14484 0
M  V30 787 C 69.9559 -2.44852 -5.60994 0
M  V30 788 N 69.0929 -2.00456 -6.72876 0
M  V30 789 H 73.9329 -1.95495 -2.24913 0
M  V30 790 H 71.4699 -0.973861 -1.10247 0
M  V30 791 H 73.4279 -0.368898 -4.15566 0
M  V30 792 H 72.0579 0.278752 -3.21594 0
M  V30 793 H 71.1099 -2.14016 -3.14486 0
M  V30 794 H 72.4219 -2.62219 -4.24314 0
M  V30 795 H 71.5759 -1.02965 -5.97899 0
M  V30 796 H 70.3149 -0.445808 -4.85658 0
M  V30 797 H 69.3199 -2.74871 -4.76157 0
M  V30 798 H 70.5449 -3.33024 -5.91837 0
M  V30 799 H 68.4909 -1.15208 -6.45804 0
M  V30 800 H 68.4079 -2.78687 -7.02759 0
M  V30 801 H 69.6759 -1.7432 -7.59758 0
M  V30 802 N 73.905 1.17692 -1.04816 0
M  V30 803 C 75.321 1.39863 -0.768794 0
M  V30 804 C 75.521 1.91118 0.638451 0
M  V30 805 O 74.577 2.10036 1.40146 0
M  V30 806 C 75.89 2.39274 -1.82122 0
M  V30 807 C 77.438 2.52987 -1.843 0
M  V30 808 C 77.913 3.55669 -2.88555 0
M  V30 809 N 79.404 3.63183 -2.87493 0
M  V30 810 C 80.139 4.42381 -3.64811 0
M  V30 811 N 79.635 5.25125 -4.51903 0
M  V30 812 N 81.428 4.37217 -3.53267 0
M  V30 813 H 73.579 0.82752 -1.95617 0
M  V30 814 H 75.842 0.426123 -0.846831 0
M  V30 815 H 75.548 2.08678 -2.83102 0
M  V30 816 H 75.422 3.38725 -1.65967 0
M  V30 817 H 77.809 2.82896 -0.839869 0
M  V30 818 H 77.89 1.53623 -2.04532 0
M  V30 819 H 77.534 3.26499 -3.89051 0
M  V30 820 H 77.464 4.54728 -2.65575 0
M  V30 821 H 79.955 3.04103 -2.24343 0
M  V30 822 H 80.268 5.82728 -5.07591 0
M  V30 823 H 78.613 5.24519 -4.55966 0
M  V30 824 H 81.804 3.71626 -2.84625 0
M  V30 825 H 81.977 4.98696 -4.13771 0
M  V30 826 N 75.3831 0.828654 1.34056 0
M  V30 827 C 76.3131 0.269443 2.3194 0
M  V30 828 C 77.2941 -0.617247 1.58506 0
M  V30 829 O 78.4791 -0.542931 1.86456 0
M  V30 830 C 75.6091 -0.564793 3.42677 0
M  V30 831 C 74.5631 0.225241 4.27407 0
M  V30 832 C 73.8891 -0.7321 5.29664 0
M  V30 833 C 75.1891 1.43663 5.02154 0
M  V30 834 H 76.8831 1.08728 2.7896 0
M  V30 835 H 74.4291 0.524283 1.34117 0
M  V30 836 H 76.3821 -0.966233 4.10173 0
M  V30 837 H 75.1061 -1.41574 2.9432 0
M  V30 838 H 73.7651 0.608117 3.61521 0
M  V30 839 H 73.4131 -1.57916 4.77568 0
M  V30 840 H 73.1131 -0.20767 5.87233 0
M  V30 841 H 74.6371 -1.13128 6.00029 0
M  V30 842 H 76.0511 1.1089 5.62473 0
M  V30 843 H 74.4481 1.89711 5.69324 0
M  V30 844 H 75.5181 2.21181 4.31517 0
M  V30 845 N 76.8612 -1.46375 0.584142 0
M  V30 846 C 78.1072 -2.02678 0.0703716 0
M  V30 847 C 78.4402 -1.4545 -1.28678 0
M  V30 848 O 77.7152 -0.62014 -1.84349 0
M  V30 849 C 77.9982 -3.60099 0.00614674 0
M  V30 850 C 77.8512 -4.27709 1.3923 0
M  V30 851 C 79.1702 -4.34598 -0.693742 0
M  V30 852 H 76.2892 -0.736504 0.027047 0
M  V30 853 H 78.9312 -1.74501 0.751615 0
M  V30 854 H 77.0812 -3.84236 -0.574009 0
M  V30 855 H 78.7532 -4.14832 2.01773 0
M  V30 856 H 76.9962 -3.87016 1.95962 0
M  V30 857 H 77.6672 -5.36478 1.29982 0
M  V30 858 H 80.1432 -4.15615 -0.200869 0
M  V30 859 H 79.0192 -5.44318 -0.707714 0
M  V30 860 H 79.2802 -4.05759 -1.75533 0
M  V30 861 N 78.3393 -0.321999 -1.54275 0
M  V30 862 C 79.2863 0.544664 -2.24281 0
M  V30 863 C 80.2563 1.1129 -1.23303 0
M  V30 864 O 81.4413 1.15354 -1.51981 0
M  V30 865 C 78.5813 1.70045 -3.00298 0
M  V30 866 C 77.6943 1.16159 -4.1609 0
M  V30 867 C 76.8293 2.28293 -4.79641 0
M  V30 868 C 75.8683 1.71648 -5.8754 0
M  V30 869 N 75.0053 2.77438 -6.44959 0
M  V30 870 H 79.8453 -0.0588907 -2.97942 0
M  V30 871 H 77.3823 -0.0408345 -1.47043 0
M  V30 872 H 79.3403 2.38054 -3.42616 0
M  V30 873 H 77.9703 2.27531 -2.28975 0
M  V30 874 H 77.0223 0.373092 -3.78566 0
M  V30 875 H 78.3343 0.707087 -4.93763 0
M  V30 876 H 77.4883 3.0421 -5.2492 0
M  V30 877 H 76.2273 2.77079 -4.01346 0
M  V30 878 H 75.2323 0.942282 -5.41665 0
M  V30 879 H 76.4573 1.23741 -6.67731 0
M  V30 880 H 74.4033 3.25519 -5.69538 0
M  V30 881 H 74.3203 2.36547 -7.1804 0
M  V30 882 H 75.5883 3.53189 -6.94894 0
M  V30 883 N 79.8174 1.5752 -0.0501392 0
M  V30 884 C 81.0944 1.83996 0.663685 0
M  V30 885 C 81.4744 0.938339 1.89099 0
M  V30 886 O 80.8224 -0.00087759 2.285 0
M  V30 887 C 81.0324 3.33702 1.02196 0
M  V30 888 C 82.3804 4.00691 1.40469 0
M  V30 889 O 83.4044 3.38321 1.11433 0
M  V30 890 O 82.2634 5.10658 1.94654 0
M  V30 891 H 79.3574 0.759385 0.32751 0
M  V30 892 H 81.9034 1.69514 -0.0794238 0
M  V30 893 H 80.6754 3.91015 0.149364 0
M  V30 894 H 80.2984 3.53368 1.82255 0
M  V30 895 N 81.2955 -0.223234 1.56011 0
M  V30 896 C 82.7115 -0.572856 1.48965 0
M  V30 897 C 82.9115 -1.87225 0.74492 0
M  V30 898 O 81.9675 -2.50899 0.283896 0
M  V30 899 C 83.2805 -0.653646 2.9351 0
M  V30 900 C 84.8285 -0.744386 3.0402 0
M  V30 901 C 85.3035 -0.856535 4.49919 0
M  V30 902 N 86.7945 -0.9208 4.53955 0
M  V30 903 C 87.5295 -1.02726 5.64123 0
M  V30 904 N 87.0255 -1.09777 6.84047 0
M  V30 905 N 88.8185 -1.06226 5.51971 0
M  V30 906 H 80.9695 0.629462 2.02858 0
M  V30 907 H 83.2325 0.220621 0.921971 0
M  V30 908 H 82.9385 0.231518 3.50937 0
M  V30 909 H 82.8125 -1.51781 3.45315 0
M  V30 910 H 85.1995 -1.61999 2.46658 0
M  V30 911 H 85.2805 0.14541 2.55386 0
M  V30 912 H 84.9245 0.0146069 5.07898 0
M  V30 913 H 84.8545 -1.76172 4.96257 0
M  V30 914 H 87.3455 -0.876694 3.6759 0
M  V30 915 H 87.6585 -1.17872 7.63758 0
M  V30 916 H 86.0035 -1.06693 6.86762 0
M  V30 917 H 89.1945 -1.00382 4.5721 0
M  V30 918 H 89.3675 -1.14177 6.37862 0
M  V30 919 N 82.7736 -1.49793 -0.48987 0
M  V30 920 C 84.0206 -1.59841 -1.24327 0
M  V30 921 C 84.3486 -0.290135 -1.92324 0
M  V30 922 O 83.6036 0.722749 -1.81865 0
M  V30 923 C 83.9026 -2.71488 -2.32441 0
M  V30 924 C 83.5686 -4.12614 -1.81826 0
M  V30 925 C 82.2306 -4.51017 -1.67742 0
M  V30 926 C 84.5826 -5.00892 -1.4407 0
M  V30 927 C 81.9106 -5.75459 -1.14297 0
M  V30 928 C 84.2626 -6.25863 -0.920742 0
M  V30 929 C 82.9266 -6.63086 -0.766383 0
M  V30 930 H 82.1966 -0.584899 -0.454944 0
M  V30 931 H 84.8436 -1.83663 -0.542215 0
M  V30 932 H 83.1486 -2.4168 -3.0838 0
M  V30 933 H 84.8456 -2.76469 -2.90458 0
M  V30 934 H 81.4356 -3.82307 -1.93751 0
M  V30 935 H 85.6196 -4.7187 -1.53794 0
M  V30 936 H 80.8756 -6.02989 -1.01068 0
M  V30 937 H 85.0496 -6.9364 -0.619448 0
M  V30 938 H 82.6766 -7.59393 -0.350083 0
M  V30 939 N 84.2517 0.741722 -1.39055 0
M  V30 940 C 85.1987 1.85566 -1.37237 0
M  V30 941 C 86.1687 1.64457 -0.233072 0
M  V30 942 O 87.3537 1.85957 -0.427147 0
M  V30 943 C 84.4937 3.23004 -1.215 0
M  V30 944 C 83.6067 3.55864 -2.44918 0
M  V30 945 C 82.7417 4.82669 -2.21821 0
M  V30 946 C 81.7807 5.08351 -3.40948 0
M  V30 947 N 80.9177 6.26356 -3.17211 0
M  V30 948 H 85.7577 1.86455 -2.32462 0
M  V30 949 H 83.2947 0.911176 -1.15482 0
M  V30 950 H 85.2527 4.02331 -1.10389 0
M  V30 951 H 83.8827 3.21411 -0.29908 0
M  V30 952 H 82.9347 2.7129 -2.66657 0
M  V30 953 H 84.2467 3.70765 -3.33668 0
M  V30 954 H 83.4007 5.69962 -2.07914 0
M  V30 955 H 82.1397 4.69929 -1.30454 0
M  V30 956 H 81.1447 4.19522 -3.55361 0
M  V30 957 H 82.3697 5.22981 -4.33207 0
M  V30 958 H 80.3157 6.14917 -2.28502 0
M  V30 959 H 80.2327 6.41813 -3.99515 0
M  V30 960 H 81.5007 7.16506 -3.06984 0
M  V30 961 N 85.7298 1.2412 0.971189 0
M  V30 962 C 86.9758 1.08041 1.71625 0
M  V30 963 C 87.3088 -0.380407 1.90438 0
M  V30 964 O 86.5838 -1.28127 1.46334 0
M  V30 965 C 86.8668 1.81682 3.10908 0
M  V30 966 C 86.7198 3.35493 2.99608 0
M  V30 967 C 88.0388 1.58671 4.10501 0
M  V30 968 H 85.1578 0.39388 0.622919 0
M  V30 969 H 87.7998 1.52743 1.13003 0
M  V30 970 H 85.9498 1.43684 3.60953 0
M  V30 971 H 87.6218 3.83068 2.57015 0
M  V30 972 H 85.8648 3.64052 2.35899 0
M  V30 973 H 86.5358 3.82217 3.98264 0
M  V30 974 H 89.0118 1.91719 3.69301 0
M  V30 975 H 87.8878 2.1266 5.06031 0
M  V30 976 H 88.1488 0.524161 4.38982 0
M  V30 977 N 87.2079 -1.17134 1.05439 0
M  V30 978 C 88.1379 -2.2342 0.678649 0
M  V30 979 C 89.1189 -1.66971 -0.32476 0
M  V30 980 O 90.3039 -1.93149 -0.201802 0
M  V30 981 C 87.4339 -3.47256 0.0552099 0
M  V30 982 C 86.3879 -4.16543 0.98365 0
M  V30 983 C 85.7139 -5.34231 0.223961 0
M  V30 984 C 87.0139 -4.68495 2.3089 0
M  V30 985 H 88.7079 -2.55105 1.56722 0
M  V30 986 H 86.2539 -1.2262 0.754998 0
M  V30 987 H 88.2069 -4.20828 -0.21946 0
M  V30 988 H 86.9309 -3.14846 -0.868319 0
M  V30 989 H 85.5899 -3.44887 1.24293 0
M  V30 990 H 85.2379 -4.98071 -0.702412 0
M  V30 991 H 84.9379 -5.81527 0.842627 0
M  V30 992 H 86.4619 -6.10585 -0.0433671 0
M  V30 993 H 87.8759 -5.33691 2.09396 0
M  V30 994 H 86.2729 -5.26379 2.88176 0
M  V30 995 H 87.3429 -3.85169 2.94572 0
M  V30 996 N 88.686 -0.835752 -1.33615 0
M  V30 997 C 89.935 -0.426289 -1.97144 0
M  V30 998 C 90.248 1.01912 -1.66953 0
M  V30 999 O 91.454 1.53311 -2.24072 0
M  V30 1000 C 89.91 -0.711321 -3.52801 0
M  V30 1001 C 89.518 -2.1712 -3.91871 0
M  V30 1002 C 91.262 -0.368654 -4.22896 0
M  V30 1003 C 89.169 -2.40044 -5.40493 0
M  V30 1004 H 88.099 -0.15567 -0.737755 0
M  V30 1005 H 90.75 -1.0239 -1.52278 0
M  V30 1006 H 89.132 -0.0433766 -3.95976 0
M  V30 1007 H 90.306 -2.87936 -3.59763 0
M  V30 1008 H 88.621 -2.47654 -3.34749 0
M  V30 1009 H 91.218 -0.517601 -5.32189 0
M  V30 1010 H 91.561 0.688078 -4.10574 0
M  V30 1011 H 92.094 -0.991702 -3.8524 0
M  V30 1012 H 88.833 -3.44271 -5.57815 0
M  V30 1013 H 88.353 -1.73785 -5.74072 0
M  V30 1014 H 90.032 -2.23042 -6.0734 0
M  V30 1015 N 90.1641 1.46063 -0.591896 0
M  V30 1016 C 91.3891 2.07226 -0.0850314 0
M  V30 1017 C 91.8141 1.43625 1.21463 0
M  V30 1018 O 91.1721 0.523305 1.73583 0
M  V30 1019 C 91.2201 3.60554 0.0576567 0
M  V30 1020 O 90.3241 3.97128 1.11188 0
M  V30 1021 H 89.6651 0.660615 -0.0669568 0
M  V30 1022 H 92.1951 1.8756 -0.81745 0
M  V30 1023 H 92.2051 4.07165 0.2609 0
M  V30 1024 H 90.8801 4.06235 -0.891416 0
M  V30 1025 H 89.4571 3.62213 0.886356 0
M  V30 1026 N 91.6422 0.330177 1.54103 0
M  V30 1027 C 92.9192 -0.325007 1.92881 0
M  V30 1028 C 93.2992 -1.6934 1.26045 0
M  V30 1029 O 92.6472 -2.24855 0.406526 0
M  V30 1030 C 92.8572 -0.410634 3.46576 0
M  V30 1031 C 94.2052 -0.667801 4.19316 0
M  V30 1032 O 95.2292 -0.49329 3.52768 0
M  V30 1033 O 94.0882 -1.00491 5.37181 0
M  V30 1034 H 91.1822 -0.186873 0.80561 0
M  V30 1035 H 93.7282 0.380376 1.65382 0
M  V30 1036 H 92.5002 0.550164 3.87413 0
M  V30 1037 H 92.1232 -1.16333 3.802 0
M  V30 1038 N 93.1203 -1.57491 0.0584922 0
M  V30 1039 C 94.3483 -1.97296 -0.623037 0
M  V30 1040 C 94.7633 -0.936338 -1.63946 0
M  V30 1041 O 94.1203 0.0785981 -1.82331 0
M  V30 1042 C 94.1713 -3.37183 -1.30345 0
M  V30 1043 O 93.8923 -4.36872 -0.32773 0
M  V30 1044 C 95.3933 -3.91788 -2.07406 0
M  V30 1045 H 92.6133 -0.649153 -0.169826 0
M  V30 1046 H 95.1573 -2.04106 0.12696 0
M  V30 1047 H 93.3123 -3.31502 -2.00463 0
M  V30 1048 H 93.7263 -5.18141 -0.814269 0
M  V30 1049 H 95.2003 -4.91926 -2.50425 0
M  V30 1050 H 95.6773 -3.27609 -2.92521 0
M  V30 1051 H 96.2833 -4.00829 -1.42184 0
M  V30 1052 N 94.5984 0.214957 -1.56127 0
M  V30 1053 C 95.8454 0.938372 -1.79446 0
M  V30 1054 C 96.1734 1.8407 -0.628378 0
M  V30 1055 O 95.4284 1.91837 0.386925 0
M  V30 1056 C 95.7274 1.80314 -3.0858 0
M  V30 1057 C 95.3934 1.05349 -4.3842 0
M  V30 1058 C 94.0554 0.846435 -4.73697 0
M  V30 1059 C 96.4074 0.524588 -5.18553 0
M  V30 1060 C 93.7354 0.098683 -5.86617 0
M  V30 1061 C 96.0874 -0.209853 -6.32252 0
M  V30 1062 C 94.7514 -0.428102 -6.66126 0
M  V30 1063 H 94.0214 0.343375 -0.656639 0
M  V30 1064 H 96.6684 0.206077 -1.90388 0
M  V30 1065 H 94.9734 2.6035 -2.92789 0
M  V30 1066 H 96.6704 2.36513 -3.23825 0
M  V30 1067 H 93.2604 1.22486 -4.10725 0
M  V30 1068 H 97.4444 0.672008 -4.91729 0
M  V30 1069 H 92.7004 -0.0805753 -6.11347 0
M  V30 1070 H 96.8744 -0.627157 -6.9357 0
M  V30 1071 H 94.5014 -1.00944 -7.53468 0
M  V30 1072 N 96.0765 1.50051 0.48192 0
M  V30 1073 C 96.9865 1.7089 1.60728 0
M  V30 1074 C 98.0025 0.591788 1.63627 0
M  V30 1075 O 99.1785 0.868817 1.81696 0
M  V30 1076 C 96.2435 1.78855 2.97005 0
M  V30 1077 C 95.3045 3.02537 3.04581 0
M  V30 1078 C 94.5375 3.10112 4.34357 0
M  V30 1079 O 94.7605 2.24765 5.24249 0
M  V30 1080 O 93.6945 4.02747 4.47301 0
M  V30 1081 H 97.5205 2.66264 1.46072 0
M  V30 1082 H 95.1055 1.34018 0.660264 0
M  V30 1083 H 96.9875 1.86336 3.77964 0
M  V30 1084 H 95.6625 0.866628 3.11883 0
M  V30 1085 H 94.5695 3.00563 2.22739 0
M  V30 1086 H 95.9025 3.94272 2.94636 0
M  V30 1087 N 97.5546 -0.734337 1.39446 0
M  V30 1088 C 98.8026 -1.49096 1.36436 0
M  V30 1089 C 99.1236 -1.94961 -0.0388255 0
M  V30 1090 O 98.3936 -1.69033 -0.990191 0
M  V30 1091 H 96.9736 -0.5531 0.502085 0
M  V30 1092 H 99.6356 -0.871725 1.74319 0
M  V30 1093 H 98.7316 -2.37276 2.02747 0
M  V30 1094 N 99.0327 -1.24633 -0.964593 0
M  V30 1095 C 99.9957 -1.0424 -2.04124 0
M  V30 1096 C 100.996 0.00137563 -1.608 0
M  V30 1097 O 102.186 -0.239883 -1.7254 0
M  V30 1098 C 99.3177 -0.580588 -3.3592 0
M  V30 1099 H 100.511 -1.99803 -2.23649 0
M  V30 1100 H 98.0637 -1.06899 -1.14027 0
M  V30 1101 H 98.7987 0.3781 -3.22088 0
M  V30 1102 H 98.5837 -1.33398 -3.6871 0
M  V30 1103 H 100.074 -0.459034 -4.15069 0
M  V30 1104 N 100.511 1.16574 -1.06058 0
M  V30 1105 C 101.757 1.87324 -0.777022 0
M  V30 1106 C 102.09 1.81351 0.694645 0
M  V30 1107 O 101.365 1.22753 1.50871 0
M  V30 1108 C 101.648 3.36991 -1.26922 0
M  V30 1109 C 101.501 3.51667 -2.80447 0
M  V30 1110 C 102.82 4.3131 -0.87521 0
M  V30 1111 H 99.9388 0.680191 -0.28374 0
M  V30 1112 H 102.581 1.37036 -1.3161 0
M  V30 1113 H 100.731 3.79949 -0.81063 0
M  V30 1114 H 102.403 3.17664 -3.34495 0
M  V30 1115 H 100.646 2.93656 -3.19294 0
M  V30 1116 H 101.317 4.56766 -3.0995 0
M  V30 1117 H 103.793 3.9624 -1.27014 0
M  V30 1118 H 102.669 5.34545 -1.2471 0
M  V30 1119 H 102.93 4.41552 0.220071 0
M  V30 1120 N 101.989 0.842826 1.3317 0
M  V30 1121 C 103.235 0.441099 1.97945 0
M  V30 1122 C 103.568 -0.998024 1.66593 0
M  V30 1123 O 102.843 -1.69839 0.947898 0
M  V30 1124 C 103.126 0.666841 3.53872 0
M  V30 1125 C 102.979 2.15352 3.94897 0
M  V30 1126 C 104.298 0.115544 4.39948 0
M  V30 1127 H 101.417 0.161739 0.719034 0
M  V30 1128 H 104.059 1.05907 1.57746 0
M  V30 1129 H 102.209 0.140828 3.88245 0
M  V30 1130 H 103.881 2.7447 3.70761 0
M  V30 1131 H 102.124 2.63653 3.44484 0
M  V30 1132 H 102.795 2.26221 5.03516 0
M  V30 1133 H 105.271 0.565213 4.12243 0
M  V30 1134 H 104.147 0.303152 5.48062 0
M  V30 1135 H 104.408 -0.980935 4.3108 0
M  V30 1136 N 103.467 -1.45747 0.599634 0
M  V30 1137 C 104.744 -1.95585 0.0240846 0
M  V30 1138 C 105.124 -1.54217 -1.44154 0
M  V30 1139 O 104.472 -0.800903 -2.14004 0
M  V30 1140 C 104.682 -3.48344 0.21385 0
M  V30 1141 C 106.03 -4.24504 0.0904902 0
M  V30 1142 O 107.054 -3.55911 0.143558 0
M  V30 1143 O 105.913 -5.46491 -0.0310766 0
M  V30 1144 H 103.007 -0.82602 -0.0402478 0
M  V30 1145 H 105.553 -1.55951 0.669139 0
M  V30 1146 H 104.325 -3.71397 1.23206 0
M  V30 1147 H 103.948 -3.9485 -0.466842 0
M  V30 1148 N 104.945 -0.338344 -1.53925 0
M  V30 1149 C 105.908 0.508299 -2.23493 0
M  V30 1150 C 106.908 1.03175 -1.23335 0
M  V30 1151 O 108.098 0.921826 -1.47811 0
M  V30 1152 C 105.23 1.70754 -2.95052 0
M  V30 1153 H 106.423 -0.100058 -2.99733 0
M  V30 1154 H 103.976 -0.0896198 -1.56043 0
M  V30 1155 H 104.711 2.35474 -2.22986 0
M  V30 1156 H 104.496 1.33946 -3.68512 0
M  V30 1157 H 105.986 2.30818 -3.48013 0
M  V30 1158 N 106.423 1.57458 -0.0668435 0
M  V30 1159 C 107.37 2.12439 0.902122 0
M  V30 1160 C 108.34 1.03565 1.2986 0
M  V30 1161 O 109.525 1.312 1.38532 0
M  V30 1162 C 106.665 2.6865 2.16614 0
M  V30 1163 C 105.778 3.91663 1.82274 0
M  V30 1164 C 104.913 4.36134 3.0325 0
M  V30 1165 C 103.952 5.51808 2.64904 0
M  V30 1166 N 103.089 5.9126 3.78624 0
M  V30 1167 H 107.929 2.94934 0.426382 0
M  V30 1168 H 105.466 1.4575 0.198819 0
M  V30 1169 H 107.424 2.99346 2.90599 0
M  V30 1170 H 106.054 1.88928 2.61737 0
M  V30 1171 H 105.106 3.6746 0.983719 0
M  V30 1172 H 106.418 4.75693 1.50059 0
M  V30 1173 H 105.572 4.68465 3.85519 0
M  V30 1174 H 104.311 3.50948 3.38655 0
M  V30 1175 H 103.316 5.19133 1.81055 0
M  V30 1176 H 104.541 6.38722 2.30675 0
M  V30 1177 H 102.487 5.09024 4.138 0
M  V30 1178 H 102.404 6.70018 3.5016 0
M  V30 1179 H 103.672 6.28212 4.61486 0
M  V30 1180 N 107.901 -0.206675 1.56239 0
M  V30 1181 C 109.131 -0.943975 1.83773 0
M  V30 1182 C 109.539 -1.77841 0.645703 0
M  V30 1183 O 108.882 -1.79403 -0.395008 0
M  V30 1184 C 108.944 -1.899 3.05251 0
M  V30 1185 C 108.608 -1.24764 4.39639 0
M  V30 1186 C 109.605 -0.630216 5.16066 0
M  V30 1187 C 107.29 -1.25496 4.8637 0
M  V30 1188 C 109.284 -0.0287946 6.37393 0
M  V30 1189 C 106.971 -0.649698 6.07637 0
M  V30 1190 C 107.969 -0.0376845 6.8299 0
M  V30 1191 O 107.657 0.55812 8.0196 0
M  V30 1192 H 107.389 -0.281508 0.614597 0
M  V30 1193 H 109.943 -0.222458 2.04192 0
M  V30 1194 H 108.173 -2.6599 2.80689 0
M  V30 1195 H 109.862 -2.5031 3.1953 0
M  V30 1196 H 110.628 -0.616785 4.81062 0
M  V30 1197 H 106.507 -1.72072 4.27683 0
M  V30 1198 H 110.051 0.449518 6.9615 0
M  V30 1199 H 105.948 -0.660592 6.42111 0
M  V30 1200 H 106.716 0.453891 8.17241 0
M  V30 1201 N 109.379 -1.50304 -0.473955 0
M  V30 1202 C 110.625 -1.61389 -1.22806 0
M  V30 1203 C 110.958 -0.311955 -1.91678 0
M  V30 1204 O 110.233 0.686384 -1.81986 0
M  V30 1205 C 110.516 -2.79219 -2.27396 0
M  V30 1206 C 110.369 -4.19286 -1.62848 0
M  V30 1207 C 111.688 -2.92614 -3.28732 0
M  V30 1208 H 108.807 -0.587399 -0.445119 0
M  V30 1209 H 111.449 -1.82681 -0.522265 0
M  V30 1210 H 109.599 -2.61195 -2.87592 0
M  V30 1211 H 111.271 -4.48892 -1.06271 0
M  V30 1212 H 109.514 -4.23677 -0.931693 0
M  V30 1213 H 110.185 -4.97655 -2.38838 0
M  V30 1214 H 112.661 -3.09105 -2.78556 0
M  V30 1215 H 111.537 -3.76688 -3.99246 0
M  V30 1216 H 111.798 -2.03107 -3.92683 0
M  V30 1217 N 110.857 0.726932 -1.39834 0
M  V30 1218 C 112.106 1.48214 -1.36805 0
M  V30 1219 C 112.419 1.95576 0.0305291 0
M  V30 1220 O 113.625 2.7088 0.183417 0
M  V30 1221 C 112.081 2.67854 -2.40379 0
M  V30 1222 C 111.689 2.27408 -3.85992 0
M  V30 1223 C 113.433 3.45641 -2.46439 0
M  V30 1224 C 111.34 3.43819 -4.81189 0
M  V30 1225 H 110.27 0.556606 -0.508631 0
M  V30 1226 H 112.921 0.792216 -1.65518 0
M  V30 1227 H 111.303 3.3896 -2.04749 0
M  V30 1228 H 112.477 1.63795 -4.30706 0
M  V30 1229 H 110.792 1.62692 -3.83302 0
M  V30 1230 H 113.389 4.32244 -3.14753 0
M  V30 1231 H 113.732 3.88669 -1.49139 0
M  V30 1232 H 114.265 2.8157 -2.81004 0
M  V30 1233 H 111.004 3.05834 -5.79781 0
M  V30 1234 H 110.524 4.06385 -4.41148 0
M  V30 1235 H 112.203 4.10043 -5.00474 0
M  V30 1236 N 112.336 1.25143 0.95797 0
M  V30 1237 C 113.583 1.09692 1.70217 0
M  V30 1238 C 113.911 -0.362654 1.91089 0
M  V30 1239 O 113.166 -1.28386 1.47701 0
M  V30 1240 C 113.465 1.79272 3.09187 0
M  V30 1241 C 113.131 3.29196 3.08125 0
M  V30 1242 C 111.793 3.70096 3.07543 0
M  V30 1243 C 114.145 4.24995 3.0171 0
M  V30 1244 C 111.473 5.05213 2.9829 0
M  V30 1245 C 113.825 5.60132 2.93999 0
M  V30 1246 C 112.489 6.00365 2.9175 0
M  V30 1247 H 111.759 0.401393 0.622868 0
M  V30 1248 H 114.406 1.55372 1.11945 0
M  V30 1249 H 112.711 1.26014 3.70982 0
M  V30 1250 H 114.408 1.64773 3.65583 0
M  V30 1251 H 110.998 2.96651 3.09348 0
M  V30 1252 H 115.182 3.9439 3.01281 0
M  V30 1253 H 110.438 5.35569 2.94916 0
M  V30 1254 H 114.612 6.3406 2.87996 0
M  V30 1255 H 112.239 7.05023 2.84336 0
M  V30 1256 N 113.814 -1.1601 1.06675 0
M  V30 1257 C 114.746 -2.20115 0.638921 0
M  V30 1258 C 115.759 -1.59916 -0.305057 0
M  V30 1259 O 116.948 -1.78245 -0.0954446 0
M  V30 1260 C 114.048 -3.38798 -0.0830083 0
M  V30 1261 C 113.221 -4.2855 0.875426 0
M  V30 1262 C 112.28 -5.25849 0.192042 0
M  V30 1263 O 111.306 -5.63102 0.830921 0
M  V30 1264 N 112.508 -5.70648 -1.06493 0
M  V30 1265 H 115.273 -2.57439 1.53444 0
M  V30 1266 H 112.834 -1.31057 0.950557 0
M  V30 1267 H 114.826 -4.00936 -0.550685 0
M  V30 1268 H 113.396 -2.99947 -0.880386 0
M  V30 1269 H 112.616 -3.63617 1.52238 0
M  V30 1270 H 113.904 -4.85393 1.52548 0
M  V30 1271 H 113.302 -5.42482 -1.60405 0
M  V30 1272 H 111.859 -6.34859 -1.47641 0
M  V30 1273 N 115.292 -0.849877 -1.32721 0
M  V30 1274 C 116.539 -0.450923 -1.97416 0
M  V30 1275 C 116.867 0.992376 -1.67279 0
M  V30 1276 O 116.122 1.71048 -0.950845 0
M  V30 1277 C 116.421 -0.631272 -3.51781 0
M  V30 1278 C 116.087 -2.04432 -4.01894 0
M  V30 1279 C 114.749 -2.4308 -4.1529 0
M  V30 1280 C 117.101 -2.96679 -4.28522 0
M  V30 1281 C 114.429 -3.73257 -4.52654 0
M  V30 1282 C 116.781 -4.26349 -4.67343 0
M  V30 1283 C 115.445 -4.64939 -4.78945 0
M  V30 1284 H 114.715 -0.165004 -0.722395 0
M  V30 1285 H 117.362 -1.07901 -1.58207 0
M  V30 1286 H 115.667 0.0800767 -3.91718 0
M  V30 1287 H 117.364 -0.302709 -3.99856 0
M  V30 1288 H 113.954 -1.73419 -3.91949 0
M  V30 1289 H 118.138 -2.68054 -4.17685 0
M  V30 1290 H 113.394 -4.02946 -4.59831 0
M  V30 1291 H 117.568 -4.97895 -4.86902 0
M  V30 1292 H 115.195 -5.65855 -5.07654 0
M  V30 1293 N 116.77 1.45427 -0.607355 0
M  V30 1294 C 118.186 1.57283 -0.270985 0
M  V30 1295 C 118.386 1.59875 1.22647 0
M  V30 1296 O 117.442 1.52893 2.00948 0
M  V30 1297 C 118.755 2.85566 -0.941952 0
M  V30 1298 C 120.303 2.9924 -0.917849 0
M  V30 1299 C 120.778 4.30293 -1.56882 0
M  V30 1300 N 122.269 4.37051 -1.5343 0
M  V30 1301 C 123.004 5.37123 -2.00715 0
M  V30 1302 N 122.5 6.43734 -2.56084 0
M  V30 1303 N 124.293 5.28479 -1.91484 0
M  V30 1304 H 116.444 1.41988 -1.57966 0
M  V30 1305 H 118.707 0.67885 -0.661715 0
M  V30 1306 H 118.413 2.8955 -1.99633 0
M  V30 1307 H 118.287 3.74322 -0.465096 0
M  V30 1308 H 120.674 2.94822 0.127984 0
M  V30 1309 H 120.755 2.11895 -1.43297 0
M  V30 1310 H 120.399 4.35469 -2.61398 0
M  V30 1311 H 120.329 5.16454 -1.02873 0
M  V30 1312 H 122.82 3.60615 -1.12982 0
M  V30 1313 H 123.133 7.16341 -2.89958 0
M  V30 1314 H 121.478 6.44485 -2.60122 0
M  V30 1315 H 124.669 4.44098 -1.47967 0
M  V30 1316 H 124.842 6.0632 -2.28648 0
M  V30 1317 N 118.248 0.346503 1.53744 0
M  V30 1318 C 119.659 -0.136779 1.86198 0
M  V30 1319 C 120.01 -1.49749 1.26766 0
M  V30 1320 O 119.135 -2.08417 0.582355 0
M  V30 1321 C 119.73 -0.254966 3.37839 0
M  V30 1322 C 118.289 -0.682482 3.70161 0
M  V30 1323 C 117.436 0.181981 2.76702 0
M  V30 1324 H 120.387 0.565994 1.48264 0
M  V30 1325 H 120.408 -1.08195 3.64793 0
M  V30 1326 H 119.92 0.735526 3.81066 0
M  V30 1327 H 118.021 -1.68189 3.3248 0
M  V30 1328 H 118.134 -0.470326 4.76786 0
M  V30 1329 H 116.498 -0.34615 2.52337 0
M  V30 1330 H 117.281 1.16966 3.2276 0
M  V30 1331 N 119.726 -1.57421 0.075193 0
M  V30 1332 C 120.974 -1.93236 -0.591974 0
M  V30 1333 C 121.295 -0.956241 -1.69944 0
M  V30 1334 O 120.565 -0.00494792 -1.95899 0
M  V30 1335 H 119.145 -0.713355 -0.22166 0
M  V30 1336 H 121.807 -1.9444 0.133848 0
M  V30 1337 H 120.903 -2.95131 -1.01509 0
M  V30 1338 N 121.204 0.198386 -1.56346 0
M  V30 1339 C 122.452 0.91747 -1.80075 0
M  V30 1340 C 122.773 1.83929 -0.647692 0
M  V30 1341 O 122.043 1.93029 0.334166 0
M  V30 1342 H 120.623 0.341774 -0.664228 0
M  V30 1343 H 123.285 0.204684 -1.93822 0
M  V30 1344 H 122.381 1.51055 -2.7311 0
M  V30 1345 N 122.682 1.50554 0.465978 0
M  V30 1346 C 123.612 1.72722 1.57128 0
M  V30 1347 C 124.593 0.576294 1.6004 0
M  V30 1348 O 125.778 0.81598 1.76225 0
M  V30 1349 C 122.908 1.82605 2.95419 0
M  V30 1350 C 121.862 2.97835 3.07373 0
M  V30 1351 C 121.188 2.92867 4.47363 0
M  V30 1352 C 122.488 4.38265 2.84114 0
M  V30 1353 H 124.182 2.65267 1.38829 0
M  V30 1354 H 121.728 1.2765 0.666441 0
M  V30 1355 H 123.681 1.96698 3.72677 0
M  V30 1356 H 122.405 0.866858 3.14886 0
M  V30 1357 H 121.064 2.83401 2.3255 0
M  V30 1358 H 120.712 1.94783 4.63755 0
M  V30 1359 H 120.412 3.70227 4.56296 0
M  V30 1360 H 121.936 3.09015 5.26633 0
M  V30 1361 H 123.35 4.53198 3.51118 0
M  V30 1362 H 121.747 5.17115 3.04487 0
M  V30 1363 H 122.817 4.50281 1.7993 0
M  V30 1364 N 124.16 -0.719506 1.40217 0
M  V30 1365 C 125.107 -1.83359 1.40172 0
M  V30 1366 C 126.077 -1.64065 0.259206 0
M  V30 1367 O 127.262 -1.85254 0.456677 0
M  V30 1368 C 124.402 -3.2103 1.26624 0
M  V30 1369 C 123.515 -3.51923 2.50548 0
M  V30 1370 C 122.65 -4.79079 2.29471 0
M  V30 1371 C 121.689 -5.02863 3.48992 0
M  V30 1372 N 120.826 -6.2123 3.27135 0
M  V30 1373 H 125.666 -1.82733 2.35399 0
M  V30 1374 H 123.203 -0.892688 1.16917 0
M  V30 1375 H 125.161 -4.00524 1.16776 0
M  V30 1376 H 123.791 -3.20895 0.350176 0
M  V30 1377 H 122.843 -2.67014 2.70939 0
M  V30 1378 H 124.155 -3.6541 3.39525 0
M  V30 1379 H 123.309 -5.66582 2.16955 0
M  V30 1380 H 122.048 -4.67794 1.37913 0
M  V30 1381 H 121.053 -4.13816 3.6199 0
M  V30 1382 H 122.278 -5.16023 4.41472 0
M  V30 1383 H 120.224 -6.11204 2.38256 0
M  V30 1384 H 120.141 -6.35375 4.09675 0
M  V30 1385 H 121.409 -7.11532 3.18344 0
M  V30 1386 N 125.638 -1.25649 -0.95132 0
M  V30 1387 C 126.886 -1.10375 -1.69298 0
M  V30 1388 C 127.207 0.355339 -1.91735 0
M  V30 1389 O 126.477 1.25188 -1.50681 0
M  V30 1390 H 125.057 -0.405461 -0.627384 0
M  V30 1391 H 127.719 -1.57823 -1.14358 0
M  V30 1392 H 126.815 -1.61465 -2.67087 0
M  V30 1393 N 127.117 1.15442 -1.07289 0
M  V30 1394 C 128.533 1.38201 -0.798288 0
M  V30 1395 C 128.733 1.92429 0.597769 0
M  V30 1396 O 127.789 2.12962 1.3566 0
M  V30 1397 C 129.102 2.35357 -1.87156 0
M  V30 1398 C 130.65 2.49021 -1.89624 0
M  V30 1399 C 131.125 3.49468 -2.96034 0
M  V30 1400 N 132.616 3.57003 -2.95132 0
M  V30 1401 C 133.351 4.34543 -3.74112 0
M  V30 1402 N 132.847 5.15421 -4.6294 0
M  V30 1403 N 134.64 4.29625 -3.62462 0
M  V30 1404 H 126.791 0.78584 -1.97328 0
M  V30 1405 H 129.054 0.408065 -0.855679 0
M  V30 1406 H 128.76 2.02626 -2.87464 0
M  V30 1407 H 128.634 3.35129 -1.73114 0
M  V30 1408 H 131.021 2.81051 -0.899687 0
M  V30 1409 H 131.102 1.4925 -2.07745 0
M  V30 1410 H 130.746 3.18173 -3.95889 0
M  V30 1411 H 130.676 4.48992 -2.75161 0
M  V30 1412 H 133.167 2.99276 -2.30743 0
M  V30 1413 H 133.48 5.7183 -5.19837 0
M  V30 1414 H 131.825 5.14729 -4.66989 0
M  V30 1415 H 135.016 3.65505 -2.92444 0
M  V30 1416 H 135.189 4.89807 -4.24256 0
M  V30 1417 N 128.595 0.856903 1.32268 0
M  V30 1418 C 129.505 0.306131 2.32594 0
M  V30 1419 C 130.521 -0.577209 1.64147 0
M  V30 1420 O 131.697 -0.477043 1.95669 0
M  V30 1421 C 128.762 -0.494561 3.43154 0
M  V30 1422 C 127.823 0.415186 4.27288 0
M  V30 1423 C 127.056 -0.347387 5.32568 0
M  V30 1424 O 127.279 -1.57708 5.48165 0
M  V30 1425 O 126.213 0.287982 6.01211 0
M  V30 1426 H 130.039 1.13737 2.81598 0
M  V30 1427 H 127.624 0.619902 1.35932 0
M  V30 1428 H 129.506 -0.948944 4.10576 0
M  V30 1429 H 128.181 -1.30257 2.96336 0
M  V30 1430 H 127.088 0.917793 3.62667 0
M  V30 1431 H 128.421 1.18844 4.77637 0
M  V30 1432 N 130.073 -1.45103 0.615059 0
M  V30 1433 C 131.021 -2.32331 -0.111791 0
M  V30 1434 C 132.015 -1.46409 -0.852102 0
M  V30 1435 O 133.221 -1.62849 -0.766821 0
M  V30 1436 H 129.596 -0.749993 -0.0549072 0
M  V30 1437 H 131.567 -2.91407 0.642225 0
M  V30 1438 C 130.316 -3.3015 -1.09071 0
M  V30 1439 H 129.639 -3.96265 -0.530485 0
M  V30 1440 H 131.079 -3.93898 -1.56908 0
M  V30 1441 C 129.538 -2.57875 -2.168 0
M  V30 1442 O 130.068 -2.36567 -3.24652 0
M  V30 1443 N 128.274 -2.17884 -1.92289 0
M  V30 1444 H 127.821 -2.35413 -1.04587 0
M  V30 1445 H 127.779 -1.6985 -2.64572 0
M  V30 1446 N 131.551 -0.354651 -1.53558 0
M  V30 1447 C 132.828 0.294281 -1.93374 0
M  V30 1448 C 133.208 1.67313 -1.28723 0
M  V30 1449 O 132.556 2.24179 -0.442247 0
M  V30 1450 C 132.766 0.355445 -3.47185 0
M  V30 1451 C 134.114 0.601007 -4.20325 0
M  V30 1452 O 135.138 0.437106 -3.53508 0
M  V30 1453 O 133.997 0.919322 -5.38712 0
M  V30 1454 H 131.091 0.174033 -0.808481 0
M  V30 1455 H 133.637 -0.406638 -1.64756 0
M  V30 1456 H 132.409 -0.611729 -3.86489 0
M  V30 1457 H 132.032 1.1027 -3.82003 0
M  V30 1458 N 133.029 1.57378 -0.0835403 0
M  V30 1459 C 133.939 2.16897 0.894021 0
M  V30 1460 C 134.955 1.13528 1.31861 0
M  V30 1461 O 136.131 1.45848 1.3889 0
M  V30 1462 C 133.196 2.72831 2.13925 0
M  V30 1463 C 132.257 3.91115 1.76997 0
M  V30 1464 C 131.49 4.44371 2.95584 0
M  V30 1465 O 131.713 3.96596 4.09961 0
M  V30 1466 O 130.647 5.35549 2.74719 0
M  V30 1467 H 134.473 3.00814 0.417679 0
M  V30 1468 H 132.058 1.48741 0.140181 0
M  V30 1469 H 133.94 3.0863 2.86924 0
M  V30 1470 H 132.615 1.91967 2.60635 0
M  V30 1471 H 131.522 3.60148 1.01214 0
M  V30 1472 H 132.855 4.73307 1.3506 0
M  V30 1473 N 134.507 -0.190092 1.56449 0
M  V30 1474 C 135.755 -0.907908 1.80559 0
M  V30 1475 C 136.076 -1.83583 0.657438 0
M  V30 1476 O 135.346 -1.93203 -0.323924 0
M  V30 1477 H 133.926 -0.338247 0.666032 0
M  V30 1478 H 136.588 -0.194403 1.93928 0
M  V30 1479 H 135.684 -1.49604 2.73907 0
M  V30 1480 N 135.985 -1.50799 -0.457987 0
M  V30 1481 C 137.234 -1.6168 -1.20593 0
M  V30 1482 C 137.547 -0.32888 -1.92815 0
M  V30 1483 O 138.753 -0.316773 -2.69646 0
M  V30 1484 C 137.209 -2.8545 -2.19195 0
M  V30 1485 C 136.817 -4.21168 -1.52715 0
M  V30 1486 C 138.561 -3.05681 -2.94549 0
M  V30 1487 C 136.468 -5.3611 -2.4968 0
M  V30 1488 H 135.398 -0.602134 -0.453818 0
M  V30 1489 H 138.049 -1.77245 -0.475031 0
M  V30 1490 H 136.431 -2.63472 -2.95632 0
M  V30 1491 H 137.605 -4.53449 -0.819775 0
M  V30 1492 H 135.92 -4.06648 -0.895922 0
M  V30 1493 H 138.517 -3.88727 -3.67145 0
M  V30 1494 H 138.86 -2.17929 -3.54701 0
M  V30 1495 H 139.393 -3.27901 -2.25223 0
M  V30 1496 H 136.132 -6.26057 -1.94249 0
M  V30 1497 H 135.652 -5.0823 -3.18532 0
M  V30 1498 H 137.331 -5.6722 -3.11241 0
M  V30 1499 N 137.463 0.71206 -1.40597 0
M  V30 1500 C 138.874 1.29135 -1.34837 0
M  V30 1501 C 139.225 1.96186 -0.0235395 0
M  V30 1502 O 138.35 1.97768 0.878444 0
M  V30 1503 C 138.945 2.34827 -2.44217 0
M  V30 1504 C 137.504 2.88371 -2.41907 0
M  V30 1505 C 136.651 1.62202 -2.24913 0
M  V30 1506 H 139.602 0.507944 -1.50352 0
M  V30 1507 H 139.623 3.15749 -2.12327 0
M  V30 1508 H 139.135 1.85996 -3.40627 0
M  V30 1509 H 137.236 3.41422 -1.49204 0
M  V30 1510 H 137.349 3.39925 -3.37621 0
M  V30 1511 H 135.713 1.874 -1.72492 0
M  V30 1512 H 136.496 1.15391 -3.23326 0
M  V30 1513 N 138.941 1.26152 0.944643 0
M  V30 1514 C 139.871 1.09902 2.06019 0
M  V30 1515 C 140.852 0.00519538 1.70099 0
M  V30 1516 O 142.037 0.176583 1.93396 0
M  V30 1517 C 139.167 0.727562 3.39594 0
M  V30 1518 C 138.121 1.77274 3.89561 0
M  V30 1519 C 137.447 1.25569 5.19747 0
M  V30 1520 C 138.747 3.17357 4.14827 0
M  V30 1521 H 140.441 2.03217 2.19871 0
M  V30 1522 H 137.987 0.978452 1.05652 0
M  V30 1523 H 139.94 0.600777 4.17095 0
M  V30 1524 H 138.664 -0.241287 3.25707 0
M  V30 1525 H 137.323 1.88814 3.14237 0
M  V30 1526 H 136.971 0.276783 5.02238 0
M  V30 1527 H 136.671 1.95433 5.54148 0
M  V30 1528 H 138.195 1.1415 5.99835 0
M  V30 1529 H 139.609 3.08914 4.82954 0
M  V30 1530 H 138.006 3.84781 4.60504 0
M  V30 1531 H 139.076 3.63673 3.20734 0
M  V30 1532 N 140.419 -1.14872 1.07899 0
M  V30 1533 C 141.366 -2.19791 0.704319 0
M  V30 1534 C 142.336 -1.63238 -0.306987 0
M  V30 1535 O 143.521 -1.8983 -0.192171 0
M  V30 1536 C 140.661 -3.44911 0.114244 0
M  V30 1537 C 139.774 -4.15637 1.1777 0
M  V30 1538 C 138.909 -5.28324 0.552037 0
M  V30 1539 C 137.948 -5.90875 1.59789 0
M  V30 1540 N 137.085 -6.95022 0.994404 0
M  V30 1541 H 141.925 -2.5119 1.60336 0
M  V30 1542 H 139.462 -1.23356 0.801352 0
M  V30 1543 H 141.42 -4.16477 -0.245544 0
M  V30 1544 H 140.05 -3.14011 -0.74813 0
M  V30 1545 H 139.102 -3.42512 1.65499 0
M  V30 1546 H 140.414 -4.5823 1.97046 0
M  V30 1547 H 139.568 -6.06538 0.1402 0
M  V30 1548 H 138.307 -4.86939 -0.272431 0
M  V30 1549 H 137.312 -5.11369 2.01945 0
M  V30 1550 H 138.537 -6.34337 2.42474 0
M  V30 1551 H 136.483 -6.55722 0.190939 0
M  V30 1552 H 136.4 -7.36073 1.72432 0
M  V30 1553 H 137.668 -7.77123 0.608253 0
M  V30 1554 N 141.898 -0.863906 -1.31812 0
M  V30 1555 C 143.128 -0.485406 -2.00817 0
M  V30 1556 C 143.536 0.925007 -1.65046 0
M  V30 1557 O 142.879 1.61653 -0.872574 0
M  V30 1558 C 142.941 -0.555589 -3.55181 0
M  V30 1559 C 142.605 -1.92654 -4.14407 0
M  V30 1560 C 143.602 -2.89324 -4.31958 0
M  V30 1561 C 141.287 -2.2262 -4.50273 0
M  V30 1562 C 143.281 -4.14108 -4.84555 0
M  V30 1563 C 140.968 -3.47654 -5.02573 0
M  V30 1564 C 141.966 -4.43214 -5.19664 0
M  V30 1565 O 141.654 -5.66033 -5.70843 0
M  V30 1566 H 141.386 -0.188224 -0.649267 0
M  V30 1567 H 143.94 -1.16514 -1.69156 0
M  V30 1568 H 142.17 0.181037 -3.86276 0
M  V30 1569 H 143.859 -0.19138 -4.05449 0
M  V30 1570 H 144.625 -2.6748 -4.04573 0
M  V30 1571 H 140.504 -1.4902 -4.3625 0
M  V30 1572 H 144.048 -4.88703 -4.9781 0
M  V30 1573 H 139.945 -3.69345 -5.29391 0
M  V30 1574 H 140.713 -5.6812 -5.89222 0
M  V30 1575 N 143.376 1.44774 -0.622745 0
M  V30 1576 C 144.624 2.01721 -0.123655 0
M  V30 1577 C 144.945 1.49172 1.25589 0
M  V30 1578 O 144.215 0.691974 1.83272 0
M  V30 1579 H 142.795 0.745777 -0.0427225 0
M  V30 1580 H 145.457 1.77382 -0.807559 0
M  V30 1581 H 144.553 3.11984 -0.0849534 0
M  V30 1582 N 144.854 0.36279 1.53368 0
M  V30 1583 C 145.784 -0.476976 2.28576 0
M  V30 1584 C 146.765 -1.08631 1.30894 0
M  V30 1585 O 147.95 -1.10409 1.59761 0
M  V30 1586 C 145.08 -1.61828 3.07293 0
M  V30 1587 C 144.034 -1.13633 4.1264 0
M  V30 1588 C 143.36 -2.36766 4.79423 0
M  V30 1589 C 144.66 -0.223061 5.21823 0
M  V30 1590 H 146.354 0.150474 2.99022 0
M  V30 1591 H 143.9 0.0738103 1.43811 0
M  V30 1592 H 145.853 -2.21237 3.58653 0
M  V30 1593 H 144.577 -2.27292 2.34533 0
M  V30 1594 H 143.236 -0.564945 3.62221 0
M  V30 1595 H 142.884 -3.0068 4.03238 0
M  V30 1596 H 142.584 -2.05192 5.50609 0
M  V30 1597 H 144.108 -2.96865 5.33576 0
M  V30 1598 H 145.522 -0.724545 5.68703 0
M  V30 1599 H 143.919 0.001678 6.001 0
M  V30 1600 H 144.989 0.735553 4.79289 0
M  V30 1601 N 146.332 -1.57332 0.0918853 0
M  V30 1602 C 147.581 -1.93412 -0.572249 0
M  V30 1603 C 147.894 -0.975515 -1.69538 0
M  V30 1604 O 149.1 -1.22991 -2.42045 0
M  V30 1605 C 147.556 -3.43648 -1.0693 0
M  V30 1606 C 147.164 -4.47994 0.0239049 0
M  V30 1607 C 148.908 -3.88695 -1.70635 0
M  V30 1608 C 146.815 -5.89381 -0.488319 0
M  V30 1609 H 145.745 -0.721939 -0.217532 0
M  V30 1610 H 148.396 -1.82735 0.167369 0
M  V30 1611 H 146.778 -3.49466 -1.8625 0
M  V30 1612 H 147.952 -4.53815 0.799277 0
M  V30 1613 H 146.267 -4.12536 0.565946 0
M  V30 1614 H 148.864 -4.91725 -2.10025 0
M  V30 1615 H 149.207 -3.27166 -2.57426 0
M  V30 1616 H 149.74 -3.85564 -0.979023 0
M  V30 1617 H 146.479 -6.54602 0.342906 0
M  V30 1618 H 145.999 -5.87037 -1.23077 0
M  V30 1619 H 147.678 -6.39863 -0.958317 0
M  V30 1620 N 147.81 0.181792 -1.56548 0
M  V30 1621 C 149.058 0.89832 -1.81038 0
M  V30 1622 C 149.379 1.83232 -0.667164 0
M  V30 1623 O 148.649 1.93372 0.313673 0
M  V30 1624 H 147.229 0.33471 -0.667816 0
M  V30 1625 H 149.891 0.184116 -1.94028 0
M  V30 1626 H 148.987 1.4815 -2.74696 0
M  V30 1627 N 149.288 1.51039 0.449983 0
M  V30 1628 C 150.22 1.67617 1.56324 0
M  V30 1629 C 151.233 0.557083 1.52972 0
M  V30 1630 O 152.422 0.830989 1.57977 0
M  V30 1631 C 149.522 1.66402 2.95235 0
M  V30 1632 C 148.695 2.9469 3.23229 0
M  V30 1633 C 147.754 2.85832 4.41799 0
M  V30 1634 O 146.78 3.59785 4.41071 0
M  V30 1635 N 147.982 2.00821 5.44657 0
M  V30 1636 H 150.747 2.63648 1.42512 0
M  V30 1637 H 148.308 1.48767 0.638737 0
M  V30 1638 H 150.3 1.58062 3.72557 0
M  V30 1639 H 148.87 0.780182 3.02708 0
M  V30 1640 H 148.09 3.16996 2.34323 0
M  V30 1641 H 149.378 3.79636 3.38754 0
M  V30 1642 H 148.776 1.40091 5.48079 0
M  V30 1643 H 147.333 1.98368 6.20881 0
M  V30 1644 N 150.766 -0.704594 1.40972 0
M  V30 1645 C 151.676 -1.84856 1.44448 0
M  V30 1646 C 152.692 -1.70726 0.335961 0
M  V30 1647 O 153.868 -1.92799 0.582276 0
M  V30 1648 C 150.933 -3.20758 1.31587 0
M  V30 1649 C 149.994 -3.47063 2.52677 0
M  V30 1650 C 149.227 -4.76481 2.4042 0
M  V30 1651 O 149.45 -5.52341 1.42391 0
M  V30 1652 O 148.384 -5.03367 3.30007 0
M  V30 1653 H 152.21 -1.8488 2.40942 0
M  V30 1654 H 149.795 -0.85647 1.22413 0
M  V30 1655 H 151.677 -4.01913 1.26665 0
M  V30 1656 H 150.352 -3.21438 0.382049 0
M  V30 1657 H 149.259 -2.65873 2.63177 0
M  V30 1658 H 150.592 -3.5119 3.44858 0
M  V30 1659 N 152.244 -1.26651 -0.937939 0
M  V30 1660 C 153.472 -1.15173 -1.7188 0
M  V30 1661 C 153.887 0.292668 -1.86518 0
M  V30 1662 O 153.244 1.20014 -1.37488 0
M  V30 1663 C 153.295 -1.81925 -3.12387 0
M  V30 1664 O 153.016 -3.2072 -2.98446 0
M  V30 1665 C 154.517 -1.76442 -4.06673 0
M  V30 1666 H 151.737 -0.400911 -0.538063 0
M  V30 1667 H 154.281 -1.67332 -1.1756 0
M  V30 1668 H 152.436 -1.33696 -3.63599 0
M  V30 1669 H 152.85 -3.53802 -3.872 0
M  V30 1670 H 154.324 -2.27781 -5.02812 0
M  V30 1671 H 154.801 -0.731608 -4.33064 0
M  V30 1672 H 155.407 -2.24238 -3.61382 0
M  V30 1673 N 153.722 1.14298 -1.08507 0
M  V30 1674 C 154.95 1.89219 -0.836876 0
M  V30 1675 C 155.365 1.78638 0.611054 0
M  V30 1676 O 154.722 1.14643 1.41998 0
M  V30 1677 C 154.773 3.39158 -1.25116 0
M  V30 1678 O 154.494 3.49449 -2.64229 0
M  V30 1679 C 155.995 4.31073 -1.03398 0
M  V30 1680 H 153.215 0.599328 -0.301739 0
M  V30 1681 H 155.759 1.44746 -1.44461 0
M  V30 1682 H 153.914 3.81251 -0.687514 0
M  V30 1683 H 154.328 4.42589 -2.81452 0
M  V30 1684 H 155.802 5.34646 -1.37323 0
M  V30 1685 H 156.279 4.3919 0.0289259 0
M  V30 1686 H 156.885 3.94738 -1.58311 0
M  V30 1687 N 155.201 0.870884 1.31352 0
M  V30 1688 C 156.449 0.48132 1.96285 0
M  V30 1689 C 156.77 -0.969813 1.69173 0
M  V30 1690 O 156.04 -1.67998 1.00764 0
M  V30 1691 H 154.62 0.175002 0.726212 0
M  V30 1692 H 157.282 1.11087 1.60143 0
M  V30 1693 H 156.378 0.639825 3.05471 0
M  V30 1694 N 156.679 -1.44442 0.630414 0
M  V30 1695 C 157.925 -2.02351 0.134816 0
M  V30 1696 C 158.258 -1.4947 -1.23986 0
M  V30 1697 O 157.533 -0.678475 -1.82283 0
M  V30 1698 C 157.816 -3.59898 0.120707 0
M  V30 1699 C 157.669 -4.23063 1.52767 0
M  V30 1700 C 158.988 -4.36585 -0.555127 0
M  V30 1701 H 156.107 -0.73527 0.0504646 0
M  V30 1702 H 158.749 -1.72022 0.806751 0
M  V30 1703 H 156.899 -3.85868 -0.451477 0
M  V30 1704 H 158.571 -4.08202 2.14869 0
M  V30 1705 H 156.814 -3.80586 2.08175 0
M  V30 1706 H 157.485 -5.32071 1.46984 0
M  V30 1707 H 159.961 -4.16044 -0.0685429 0
M  V30 1708 H 158.837 -5.46294 -0.534185 0
M  V30 1709 H 159.098 -4.11138 -1.62535 0
M  V30 1710 N 158.157 -0.370918 -1.53173 0
M  V30 1711 C 159.405 0.216673 -2.00935 0
M  V30 1712 C 159.726 1.48845 -1.25977 0
M  V30 1713 O 158.996 1.92286 -0.374551 0
M  V30 1714 H 157.576 0.0830565 -0.742368 0
M  V30 1715 H 160.238 -0.49838 -1.8842 0
M  V30 1716 H 159.334 0.439893 -3.08984 0
M  V30 1717 N 159.635 1.57281 -0.100228 0
M  V30 1718 C 160.883 1.94153 0.561157 0
M  V30 1719 C 161.204 0.983157 1.68401 0
M  V30 1720 O 160.474 0.0361132 1.95867 0
M  V30 1721 H 159.054 0.716791 0.210283 0
M  V30 1722 H 161.716 1.94202 -0.164765 0
M  V30 1723 H 160.812 2.96709 0.968008 0
M  V30 1724 N 161.113 -0.173488 1.56642 0
M  V30 1725 C 162.36 -0.890465 1.81871 0
M  V30 1726 C 162.688 -1.82339 0.67696 0
M  V30 1727 O 161.943 -1.92795 -0.335926 0
M  V30 1728 C 162.242 -1.72069 3.13252 0
M  V30 1729 C 161.908 -0.936878 4.41059 0
M  V30 1730 C 160.57 -0.720545 4.75775 0
M  V30 1731 C 162.922 -0.386919 5.19762 0
M  V30 1732 C 160.25 0.0568829 5.86672 0
M  V30 1733 C 162.602 0.37741 6.31473 0
M  V30 1734 C 161.266 0.604563 6.64757 0
M  V30 1735 H 160.536 -0.325844 0.665512 0
M  V30 1736 H 163.183 -0.155527 1.90867 0
M  V30 1737 H 161.488 -2.52496 2.99588 0
M  V30 1738 H 163.185 -2.27844 3.29982 0
M  V30 1739 H 159.775 -1.11553 4.13828 0
M  V30 1740 H 163.959 -0.541398 4.93338 0
M  V30 1741 H 159.215 0.242635 6.10918 0
M  V30 1742 H 163.389 0.810825 6.91664 0
M  V30 1743 H 161.016 1.20885 7.50527 0
M  V30 1744 N 162.591 -1.51276 -0.441967 0
M  V30 1745 C 163.816 -1.67799 -1.21895 0
M  V30 1746 C 164.241 -0.372864 -1.84367 0
M  V30 1747 O 163.599 0.666501 -1.68604 0
M  V30 1748 C 163.647 -2.79199 -2.28211 0
M  V30 1749 O 162.751 -2.42479 -3.33583 0
M  V30 1750 H 162.092 -0.559649 -0.357336 0
M  V30 1751 H 164.622 -1.97815 -0.522522 0
M  V30 1752 H 164.632 -3.03146 -2.73069 0
M  V30 1753 H 163.307 -3.73906 -1.82118 0
M  V30 1754 H 161.884 -2.29087 -2.94234 0
M  V30 1755 N 164.069 0.697108 -1.41344 0
M  V30 1756 C 165.032 1.79281 -1.42797 0
M  V30 1757 C 166.032 1.57607 -0.318837 0
M  V30 1758 O 167.222 1.64309 -0.578642 0
M  V30 1759 C 164.354 3.17632 -1.23785 0
M  V30 1760 H 165.547 1.79385 -2.40335 0
M  V30 1761 H 163.1 0.904582 -1.27464 0
M  V30 1762 H 163.835 3.23167 -0.270814 0
M  V30 1763 H 163.62 3.34765 -2.04144 0
M  V30 1764 H 165.11 3.97617 -1.27633 0
M  V30 1765 N 165.547 1.27147 0.931209 0
M  V30 1766 C 166.51 1.09615 2.01289 0
M  V30 1767 C 167.51 0.0412581 1.60747 0
M  V30 1768 O 168.7 0.285545 1.71844 0
M  V30 1769 C 165.832 0.669447 3.34262 0
M  V30 1770 H 167.025 2.05662 2.18273 0
M  V30 1771 H 164.578 1.09885 1.11153 0
M  V30 1772 H 165.313 -0.292572 3.22978 0
M  V30 1773 H 165.098 1.43127 3.65044 0
M  V30 1774 H 166.588 0.568921 4.13706 0
M  V30 1775 N 167.025 -1.13721 1.09112 0
M  V30 1776 C 167.955 -2.21148 0.749385 0
M  V30 1777 C 168.936 -1.6792 -0.271475 0
M  V30 1778 O 170.121 -1.93693 -0.140251 0
M  V30 1779 C 167.251 -3.46905 0.165659 0
M  V30 1780 C 166.205 -4.13203 1.11567 0
M  V30 1781 C 165.531 -5.33248 0.393809 0
M  V30 1782 C 166.831 -4.60912 2.45678 0
M  V30 1783 H 168.525 -2.4999 1.64758 0
M  V30 1784 H 166.071 -1.20156 0.793626 0
M  V30 1785 H 168.024 -4.21313 -0.085466 0
M  V30 1786 H 166.748 -3.17449 -0.767714 0
M  V30 1787 H 165.407 -3.40758 1.35202 0
M  V30 1788 H 165.055 -5.00054 -0.543599 0
M  V30 1789 H 164.755 -5.78552 1.02721 0
M  V30 1790 H 166.279 -6.10413 0.150908 0
M  V30 1791 H 167.693 -5.26759 2.26269 0
M  V30 1792 H 166.09 -5.16944 3.04776 0
M  V30 1793 H 167.16 -3.75603 3.06677 0
M  V30 1794 N 168.503 -0.877838 -1.30888 0
M  V30 1795 C 169.919 -0.570844 -1.49042 0
M  V30 1796 C 170.119 0.893159 -1.80624 0
M  V30 1797 O 169.175 1.67485 -1.88958 0
M  V30 1798 C 170.488 -1.47784 -2.61878 0
M  V30 1799 C 172.036 -1.48071 -2.75761 0
M  V30 1800 C 172.511 -2.37347 -3.91702 0
M  V30 1801 N 174.002 -2.35271 -3.99001 0
M  V30 1802 C 174.737 -3.01063 -4.88004 0
M  V30 1803 N 174.233 -3.76055 -5.81854 0
M  V30 1804 N 176.026 -2.90332 -4.81315 0
M  V30 1805 H 168.177 -1.82502 -1.0866 0
M  V30 1806 H 170.44 -0.780797 -0.537644 0
M  V30 1807 H 170.146 -2.51993 -2.45341 0
M  V30 1808 H 170.02 -1.18215 -3.58197 0
M  V30 1809 H 172.407 -0.446166 -2.91708 0
M  V30 1810 H 172.488 -1.81668 -1.80085 0
M  V30 1811 H 172.132 -3.40883 -3.76512 0
M  V30 1812 H 172.062 -2.01071 -4.86701 0
M  V30 1813 H 174.553 -1.80768 -3.3186 0
M  V30 1814 H 174.866 -4.23366 -6.46514 0
M  V30 1815 H 173.211 -3.80163 -5.81808 0
M  V30 1816 H 176.402 -2.31278 -4.06974 0
M  V30 1817 H 176.575 -3.41885 -5.50471 0
M  V30 1818 N 169.982 1.44106 -0.638065 0
M  V30 1819 C 170.945 2.29138 0.0531013 0
M  V30 1820 C 171.945 1.41409 0.765506 0
M  V30 1821 O 173.135 1.63206 0.609046 0
M  V30 1822 C 170.267 3.23144 1.08584 0
M  V30 1823 H 171.46 2.91739 -0.694883 0
M  V30 1824 H 169.013 1.51134 -0.398538 0
M  V30 1825 H 169.748 2.65408 1.86357 0
M  V30 1826 H 169.533 3.87804 0.578852 0
M  V30 1827 H 171.023 3.87004 1.56899 0
M  V30 1828 N 171.46 0.379036 1.52974 0
M  V30 1829 C 172.707 -0.206421 2.01445 0
M  V30 1830 C 173.035 -1.47668 1.26587 0
M  V30 1831 O 172.29 -1.92514 0.351675 0
M  V30 1832 C 172.589 -0.53096 3.53434 0
M  V30 1833 C 172.255 0.646546 4.46241 0
M  V30 1834 C 170.917 0.969604 4.7133 0
M  V30 1835 C 173.269 1.43479 5.01062 0
M  V30 1836 C 170.597 2.08263 5.48492 0
M  V30 1837 C 172.949 2.53834 5.7944 0
M  V30 1838 C 171.613 2.86659 6.02812 0
M  V30 1839 H 170.883 -0.0755349 0.73714 0
M  V30 1840 H 173.53 0.514271 1.84465 0
M  V30 1841 H 171.835 -1.33285 3.68432 0
M  V30 1842 H 173.532 -0.996417 3.88423 0
M  V30 1843 H 170.122 0.384734 4.2687 0
M  V30 1844 H 174.306 1.19844 4.81613 0
M  V30 1845 H 169.562 2.34078 5.64816 0
M  V30 1846 H 173.736 3.15319 6.20924 0
M  V30 1847 H 171.363 3.73026 6.62387 0
M  V30 1848 N 172.938 -1.57226 0.108567 0
M  V30 1849 C 174.349 -1.8195 -0.418464 0
M  V30 1850 C 174.7 -1.02508 -1.67292 0
M  V30 1851 O 173.825 -0.258496 -2.14851 0
M  V30 1852 C 174.42 -3.30028 -0.765979 0
M  V30 1853 C 172.979 -3.55469 -1.23769 0
M  V30 1854 C 172.126 -2.7625 -0.241106 0
M  V30 1855 H 175.077 -1.55149 0.33384 0
M  V30 1856 H 175.098 -3.44086 -1.62434 0
M  V30 1857 H 174.61 -3.87821 0.147219 0
M  V30 1858 H 172.711 -3.03022 -2.16814 0
M  V30 1859 H 172.824 -4.6408 -1.19022 0
M  V30 1860 H 171.188 -2.44133 -0.72602 0
M  V30 1861 H 171.971 -3.36797 0.665007 0
M  V30 1862 N 174.416 0.165178 -1.56732 0
M  V30 1863 C 175.665 0.879143 -1.81532 0
M  V30 1864 C 175.978 1.83144 -0.686842 0
M  V30 1865 O 177.184 2.58823 -0.819944 0
M  V30 1866 C 175.64 1.61388 -3.21686 0
M  V30 1867 C 175.248 0.704904 -4.4242 0
M  V30 1868 C 176.992 2.3157 -3.55774 0
M  V30 1869 C 174.899 1.44022 -5.73595 0
M  V30 1870 H 173.829 0.332033 -0.676957 0
M  V30 1871 H 176.48 0.132008 -1.83025 0
M  V30 1872 H 174.862 2.40599 -3.14529 0
M  V30 1873 H 176.036 -0.0506815 -4.60772 0
M  V30 1874 H 174.351 0.112419 -4.16248 0
M  V30 1875 H 176.948 2.8719 -4.51028 0
M  V30 1876 H 177.291 3.07201 -2.8095 0
M  V30 1877 H 177.824 1.59297 -3.64513 0
M  V30 1878 H 174.563 0.72612 -6.51466 0
M  V30 1879 H 174.083 2.16898 -5.5921 0
M  V30 1880 H 175.762 1.98606 -6.15764 0
M  V30 1881 N 175.894 1.51508 0.433938 0
M  V30 1882 C 177.14 1.64588 1.18484 0
M  V30 1883 C 177.473 0.362666 1.90784 0
M  V30 1884 O 176.748 -0.637892 1.83742 0
M  V30 1885 C 177.031 2.85149 2.19913 0
M  V30 1886 C 176.884 4.23456 1.51674 0
M  V30 1887 C 178.203 3.01227 3.20858 0
M  V30 1888 H 175.322 0.598994 0.429389 0
M  V30 1889 H 177.964 1.84002 0.473647 0
M  V30 1890 H 176.114 2.68729 2.80566 0
M  V30 1891 H 177.786 4.51552 0.943322 0
M  V30 1892 H 176.029 4.25998 0.819035 0
M  V30 1893 H 176.7 5.03812 2.2556 0
M  V30 1894 H 179.176 3.16382 2.70263 0
M  V30 1895 H 178.052 3.87141 3.89118 0
M  V30 1896 H 178.313 2.13447 3.8716 0
M  V30 1897 N 177.372 -0.689602 1.41712 0
M  V30 1898 C 178.282 -1.83314 1.46401 0
M  V30 1899 C 179.298 -1.7036 0.35405 0
M  V30 1900 O 180.474 -1.92171 0.602692 0
M  V30 1901 C 177.539 -3.19344 1.34982 0
M  V30 1902 C 176.6 -3.44363 2.56344 0
M  V30 1903 C 175.833 -4.73904 2.45461 0
M  V30 1904 O 176.056 -5.508 1.48241 0
M  V30 1905 O 174.99 -4.99839 3.35328 0
M  V30 1906 H 178.816 -1.82314 2.42889 0
M  V30 1907 H 176.401 -0.843438 1.23315 0
M  V30 1908 H 178.283 -4.00547 1.3092 0
M  V30 1909 H 176.958 -3.21014 0.41612 0
M  V30 1910 H 175.865 -2.63067 2.65982 0
M  V30 1911 H 177.198 -3.47512 3.48563 0
M  V30 1912 N 178.85 -1.27639 -0.924453 0
M  V30 1913 C 179.76 -1.12466 -2.05885 0
M  V30 1914 C 180.776 -0.053869 -1.73917 0
M  V30 1915 O 181.952 -0.261012 -1.99702 0
M  V30 1916 C 179.017 -0.776768 -3.37886 0
M  V30 1917 C 178.078 -1.92878 -3.83532 0
M  V30 1918 C 177.311 -1.59739 -5.09234 0
M  V30 1919 O 177.534 -0.506782 -5.68144 0
M  V30 1920 O 176.468 -2.43761 -5.50331 0
M  V30 1921 H 180.294 -2.07671 -2.21599 0
M  V30 1922 H 177.879 -1.06857 -1.04413 0
M  V30 1923 H 179.761 -0.596229 -4.17161 0
M  V30 1924 H 178.436 0.145732 -3.23372 0
M  V30 1925 H 177.343 -2.1644 -3.0513 0
M  V30 1926 H 178.676 -2.8316 -4.02593 0
M  V30 1927 N 180.328 1.1314 -1.09713 0
M  V30 1928 C 181.558 1.88048 -0.855656 0
M  V30 1929 C 181.966 1.79537 0.596919 0
M  V30 1930 O 181.309 1.16196 1.42282 0
M  V30 1931 C 181.371 3.38314 -1.21589 0
M  V30 1932 C 181.035 3.70605 -2.67397 0
M  V30 1933 C 182.032 3.69596 -3.65643 0
M  V30 1934 C 179.717 4.0017 -3.03593 0
M  V30 1935 C 181.711 3.977 -4.9811 0
M  V30 1936 C 179.398 4.27935 -4.36251 0
M  V30 1937 C 180.396 4.26685 -5.33318 0
M  V30 1938 O 180.084 4.53767 -6.63589 0
M  V30 1939 H 179.816 0.60208 -0.307368 0
M  V30 1940 H 182.37 1.44128 -1.46343 0
M  V30 1941 H 180.6 3.82752 -0.551177 0
M  V30 1942 H 182.289 3.94552 -0.953083 0
M  V30 1943 H 183.055 3.46826 -3.39023 0
M  V30 1944 H 178.934 4.00289 -2.2867 0
M  V30 1945 H 182.478 3.9664 -5.73866 0
M  V30 1946 H 178.375 4.50178 -4.62613 0
M  V30 1947 H 179.143 4.71422 -6.69107 0
M  V30 1948 N 181.806 0.884767 1.30421 0
M  V30 1949 C 183.052 0.503851 1.96441 0
M  V30 1950 C 183.385 -0.944518 1.69684 0
M  V30 1951 O 182.66 -1.66737 1.00145 0
M  V30 1952 C 182.943 0.779085 3.51571 0
M  V30 1953 C 182.796 2.27807 3.87846 0
M  V30 1954 C 184.115 0.255452 4.39358 0
M  V30 1955 H 181.234 0.184533 0.713524 0
M  V30 1956 H 183.876 1.10872 1.54297 0
M  V30 1957 H 182.026 0.264274 3.876 0
M  V30 1958 H 183.698 2.86127 3.61841 0
M  V30 1959 H 181.941 2.74479 3.35922 0
M  V30 1960 H 182.612 2.42125 4.96064 0
M  V30 1961 H 185.088 0.696079 4.10236 0
M  V30 1962 H 183.964 0.477361 5.4682 0
M  V30 1963 H 184.225 -0.843293 4.33983 0
M  V30 1964 N 183.284 -1.43765 0.645699 0
M  V30 1965 C 184.561 -1.9541 0.0862963 0
M  V30 1966 C 184.941 -1.58725 -1.39175 0
M  V30 1967 O 184.289 -0.868581 -2.11348 0
M  V30 1968 C 184.499 -3.47488 0.324565 0
M  V30 1969 C 185.847 -4.24001 0.225497 0
M  V30 1970 O 186.871 -3.55274 0.256715 0
M  V30 1971 O 185.73 -5.46313 0.142801 0
M  V30 1972 H 182.824 -0.826882 -0.0139483 0
M  V30 1973 H 185.37 -1.53743 0.718415 0
M  V30 1974 H 184.142 -3.67289 1.3496 0
M  V30 1975 H 183.765 -3.96135 -0.340987 0
M  V30 1976 N 184.763 -0.387143 -1.52771 0
M  V30 1977 C 185.991 0.195869 -2.05971 0
M  V30 1978 C 186.406 1.40691 -1.25903 0
M  V30 1979 O 185.763 1.79931 -0.305134 0
M  V30 1980 C 185.814 0.56812 -3.57008 0
M  V30 1981 O 185.535 -0.594803 -4.34043 0
M  V30 1982 C 187.036 1.20723 -4.26545 0
M  V30 1983 H 184.256 0.0300578 -0.670326 0
M  V30 1984 H 186.8 -0.551749 -1.96916 0
M  V30 1985 H 184.955 1.26564 -3.66143 0
M  V30 1986 H 185.369 -0.289322 -5.23701 0
M  V30 1987 H 186.843 1.41807 -5.33474 0
M  V30 1988 H 187.32 2.17395 -3.81623 0
M  V30 1989 H 187.926 0.550535 -4.21722 0
M  V30 1990 N 186.241 1.57166 -0.116904 0
M  V30 1991 C 187.487 1.95412 0.542405 0
M  V30 1992 C 187.82 1.00019 1.66463 0
M  V30 1993 O 187.095 0.0370346 1.94465 0
M  V30 1994 C 187.378 3.43615 1.07708 0
M  V30 1995 C 187.231 4.49781 -0.0415868 0
M  V30 1996 C 188.55 3.93616 1.96861 0
M  V30 1997 H 185.669 0.710543 0.195696 0
M  V30 1998 H 188.311 1.89027 -0.192038 0
M  V30 1999 H 186.461 3.49187 1.70296 0
M  V30 2000 H 188.133 4.56308 -0.676793 0
M  V30 2001 H 186.376 4.28033 -0.705019 0
M  V30 2002 H 187.047 5.50733 0.373717 0
M  V30 2003 H 189.523 3.90335 1.44146 0
M  V30 2004 H 188.399 4.97838 2.3119 0
M  V30 2005 H 188.66 3.34188 2.89432 0
M  V30 2006 N 187.719 -0.156864 1.56817 0
M  V30 2007 C 189.135 -0.50916 1.5126 0
M  V30 2008 C 189.335 -1.83897 0.823658 0
M  V30 2009 O 188.391 -2.49469 0.390055 0
M  V30 2010 C 189.704 -0.52857 2.96018 0
M  V30 2011 C 191.252 -0.614771 3.06903 0
M  V30 2012 C 191.727 -0.664938 4.53147 0
M  V30 2013 N 193.218 -0.727433 4.57452 0
M  V30 2014 C 193.953 -0.787067 5.67973 0
M  V30 2015 N 193.449 -0.806649 6.88088 0
M  V30 2016 N 195.242 -0.827195 5.5598 0
M  V30 2017 H 187.393 0.714935 2.00006 0
M  V30 2018 H 189.656 0.259526 0.911784 0
M  V30 2019 H 189.362 0.380154 3.49639 0
M  V30 2020 H 189.236 -1.36998 3.51442 0
M  V30 2021 H 191.623 -1.51392 2.53307 0
M  V30 2022 H 191.704 0.253597 2.5454 0
M  V30 2023 H 191.348 0.230011 5.07379 0
M  V30 2024 H 191.278 -1.54966 5.03282 0
M  V30 2025 H 193.769 -0.719998 3.70978 0
M  V30 2026 H 194.082 -0.853727 7.6807 0
M  V30 2027 H 192.427 -0.774687 6.90669 0
M  V30 2028 H 195.618 -0.808998 4.61056 0
M  V30 2029 H 195.791 -0.870206 6.4213 0
M  V30 2030 N 189.197 -1.51736 -0.425897 0
M  V30 2031 C 190.144 -1.73875 -1.51776 0
M  V30 2032 C 191.114 -0.580702 -1.55618 0
M  V30 2033 O 192.299 -0.81641 -1.72451 0
M  V30 2034 C 189.439 -1.88012 -2.89388 0
M  V30 2035 C 188.552 -3.15606 -2.94986 0
M  V30 2036 C 187.687 -3.20271 -4.23793 0
M  V30 2037 C 186.726 -4.42134 -4.23302 0
M  V30 2038 N 185.863 -4.44284 -5.43651 0
M  V30 2039 H 190.703 -2.67071 -1.32201 0
M  V30 2040 H 188.24 -1.32351 -0.642008 0
M  V30 2041 H 190.198 -1.9419 -3.69251 0
M  V30 2042 H 188.828 -0.98213 -3.07496 0
M  V30 2043 H 187.88 -3.18681 -2.07717 0
M  V30 2044 H 189.192 -4.05486 -2.90486 0
M  V30 2045 H 188.346 -3.25428 -5.12036 0
M  V30 2046 H 187.085 -2.28299 -4.30965 0
M  V30 2047 H 186.09 -4.3714 -3.3345 0
M  V30 2048 H 187.315 -5.35382 -4.17783 0
M  V30 2049 H 185.261 -3.55188 -5.51523 0
M  V30 2050 H 185.178 -5.27988 -5.41078 0
M  V30 2051 H 186.446 -4.53649 -6.33895 0
M  V30 2052 N 190.675 0.682077 -1.42076 0
M  V30 2053 C 191.903 1.47057 -1.4554 0
M  V30 2054 C 192.318 1.8869 -0.0645779 0
M  V30 2055 O 191.675 1.57666 0.919115 0
M  V30 2056 C 191.726 2.72442 -2.37609 0
M  V30 2057 O 191.447 2.32559 -3.71279 0
M  V30 2058 C 192.948 3.66069 -2.50017 0
M  V30 2059 H 190.168 0.452737 -0.495248 0
M  V30 2060 H 192.712 0.838695 -1.8651 0
M  V30 2061 H 190.867 3.31835 -1.9991 0
M  V30 2062 H 191.281 3.13475 -4.20516 0
M  V30 2063 H 192.755 4.50792 -3.18576 0
M  V30 2064 H 193.232 4.11476 -1.53572 0
M  V30 2065 H 193.838 3.12572 -2.88407 0
M  V30 2066 N 192.153 1.28127 0.917671 0
M  V30 2067 C 193.378 1.18007 1.70555 0
M  V30 2068 C 193.803 -0.258257 1.86319 0
M  V30 2069 O 193.161 -1.1869 1.37049 0
M  V30 2070 C 193.209 1.87948 3.07746 0
M  V30 2071 O 192.313 1.18427 3.9503 0
M  V30 2072 H 191.654 0.409867 0.522403 0
M  V30 2073 H 194.184 1.69379 1.1477 0
M  V30 2074 H 194.194 1.95701 3.58001 0
M  V30 2075 H 192.869 2.92573 2.95591 0
M  V30 2076 H 191.446 1.18811 3.53466 0
M  V30 2077 N 193.631 -1.12557 1.10312 0
M  V30 2078 C 194.579 -2.20325 0.745629 0
M  V30 2079 C 195.573 -1.67429 -0.25763 0
M  V30 2080 O 196.779 -1.79612 -0.118132 0
M  V30 2081 H 193.154 -0.718118 0.223182 0
M  V30 2082 H 195.125 -2.47733 1.66346 0
M  V30 2083 C 193.874 -3.47168 0.192262 0
M  V30 2084 H 193.197 -3.88215 0.955475 0
M  V30 2085 H 194.637 -4.23995 -0.0198274 0
M  V30 2086 C 193.096 -3.19298 -1.07472 0
M  V30 2087 O 193.626 -3.3891 -2.15645 0
M  V30 2088 N 191.832 -2.73113 -0.992847 0
M  V30 2089 H 191.379 -2.57354 -0.112474 0
M  V30 2090 H 191.337 -2.54842 -1.84127 0
M  V30 2091 N 195.109 -0.891671 -1.2995 0
M  V30 2092 C 196.072 -0.36828 -2.26222 0
M  V30 2093 C 197.072 0.493014 -1.53056 0
M  V30 2094 O 198.262 0.299213 -1.71611 0
M  V30 2095 C 195.394 0.47442 -3.37583 0
M  V30 2096 H 196.587 -1.21844 -2.74033 0
M  V30 2097 H 194.14 -0.669107 -1.41254 0
M  V30 2098 H 194.875 1.34489 -2.95099 0
M  V30 2099 H 194.66 -0.142615 -3.91841 0
M  V30 2100 H 196.15 0.83218 -4.09224 0
M  V30 2101 N 196.587 1.43421 -0.653314 0
M  V30 2102 C 197.815 2.06163 -0.174491 0
M  V30 2103 C 198.23 1.48969 1.1599 0
M  V30 2104 O 197.587 0.621042 1.71608 0
M  V30 2105 C 197.638 3.61417 -0.0774865 0
M  V30 2106 O 197.359 4.16485 -1.35912 0
M  V30 2107 C 198.86 4.41235 0.427402 0
M  V30 2108 H 196.08 0.664946 -0.0899353 0
M  V30 2109 H 198.624 1.83924 -0.893988 0
M  V30 2110 H 196.779 3.82841 0.59257 0
M  V30 2111 H 197.193 5.10153 -1.21839 0
M  V30 2112 H 198.667 5.5021 0.44423 0
M  V30 2113 H 199.144 4.14268 1.45873 0
M  V30 2114 H 199.75 4.2478 -0.210167 0
M  V30 2115 N 198.065 0.39524 1.52563 0
M  V30 2116 C 199.314 -0.186321 2.00838 0
M  V30 2117 C 199.627 -1.47402 1.28577 0
M  V30 2118 O 200.833 -2.13599 1.67593 0
M  V30 2119 C 199.289 -0.382595 3.57861 0
M  V30 2120 C 198.897 0.892202 4.39026 0
M  V30 2121 C 200.641 -0.9202 4.14406 0
M  V30 2122 C 198.548 0.66388 5.87662 0
M  V30 2123 H 197.478 -0.0734041 0.750418 0
M  V30 2124 H 200.129 0.518552 1.76021 0
M  V30 2125 H 198.511 -1.14946 3.7895 0
M  V30 2126 H 199.685 1.66414 4.29701 0
M  V30 2127 H 198 1.35519 3.9373 0
M  V30 2128 H 200.597 -1.10683 5.23119 0
M  V30 2129 H 200.94 -1.89096 3.70875 0
M  V30 2130 H 201.473 -0.212751 3.97231 0
M  V30 2131 H 198.212 1.6058 6.35527 0
M  V30 2132 H 197.732 -0.0690193 5.9976 0
M  V30 2133 H 199.411 0.300699 6.46301 0
M  V30 2134 N 199.544 -1.57102 0.125237 0
M  V30 2135 C 200.79 -1.95697 -0.532035 0
M  V30 2136 C 201.123 -1.009 -1.6593 0
M  V30 2137 O 200.398 -0.047347 -1.94442 0
M  V30 2138 C 200.681 -3.44181 -1.05884 0
M  V30 2139 C 200.534 -4.49752 0.0654392 0
M  V30 2140 C 201.853 -3.94655 -1.9477 0
M  V30 2141 H 198.972 -0.711571 -0.191925 0
M  V30 2142 H 201.614 -1.88923 0.20206 0
M  V30 2143 H 199.764 -3.50085 -1.68442 0
M  V30 2144 H 201.436 -4.55943 0.700982 0
M  V30 2145 H 199.679 -4.27653 0.727709 0
M  V30 2146 H 200.35 -5.50924 -0.344505 0
M  V30 2147 H 202.826 -3.91094 -1.42074 0
M  V30 2148 H 201.702 -4.99057 -2.28546 0
M  V30 2149 H 201.963 -3.35718 -2.87656 0
M  V30 2150 N 201.022 0.148545 -1.56898 0
M  V30 2151 C 201.97 1.20265 -1.99096 0
M  V30 2152 C 202.964 1.44559 -0.883123 0
M  V30 2153 O 204.17 1.4487 -1.0683 0
M  V30 2154 H 200.545 0.404786 -0.63376 0
M  V30 2155 H 202.516 0.82004 -2.86911 0
M  V30 2156 C 201.265 2.52886 -2.3863 0
M  V30 2157 H 200.588 2.35021 -3.23427 0
M  V30 2158 H 202.028 3.25274 -2.7198 0
M  V30 2159 C 200.487 3.13315 -1.23837 0
M  V30 2160 O 201.017 3.98077 -0.538268 0
M  V30 2161 N 199.223 2.72742 -1.00301 0
M  V30 2162 H 198.77 2.03912 -1.5741 0
M  V30 2163 H 198.728 3.13507 -0.236838 0
M  V30 2164 N 202.5 1.5196 0.417844 0
M  V30 2165 C 203.747 1.65591 1.16559 0
M  V30 2166 C 204.075 0.381565 1.90721 0
M  V30 2167 O 203.33 -0.635156 1.85106 0
M  V30 2168 C 203.629 2.82269 2.19223 0
M  V30 2169 C 203.295 4.20819 1.61933 0
M  V30 2170 C 201.957 4.58506 1.46033 0
M  V30 2171 C 204.309 5.07196 1.20008 0
M  V30 2172 C 201.637 5.80257 0.867113 0
M  V30 2173 C 203.989 6.29544 0.621086 0
M  V30 2174 C 202.653 6.65987 0.449144 0
M  V30 2175 H 201.923 0.605939 0.42652 0
M  V30 2176 H 204.57 1.86041 0.45397 0
M  V30 2177 H 202.875 2.56118 2.96498 0
M  V30 2178 H 204.572 2.90012 2.76936 0
M  V30 2179 H 201.162 3.91116 1.7529 0
M  V30 2180 H 205.346 4.7867 1.31105 0
M  V30 2181 H 200.602 6.07124 0.721833 0
M  V30 2182 H 204.776 6.95805 0.287798 0
M  V30 2183 H 202.403 7.60199 -0.012632 0
M  V30 2184 N 203.978 -0.674533 1.42435 0
M  V30 2185 C 205.206 -1.46283 1.46317 0
M  V30 2186 C 205.621 -1.88653 0.0745836 0
M  V30 2187 O 204.978 -1.58151 -0.91074 0
M  V30 2188 C 205.029 -2.71178 2.3905 0
M  V30 2189 O 204.75 -2.30586 3.72507 0
M  V30 2190 C 206.251 -3.64738 2.51955 0
M  V30 2191 H 203.471 -0.450104 0.497642 0
M  V30 2192 H 206.015 -0.828792 1.86953 0
M  V30 2193 H 204.17 -3.3077 2.01667 0
M  V30 2194 H 204.584 -3.11241 4.22172 0
M  V30 2195 H 206.058 -4.49096 3.20962 0
M  V30 2196 H 206.535 -4.10656 1.55752 0
M  V30 2197 H 207.141 -3.11038 2.90061 0
M  V30 2198 N 205.456 -1.28612 -0.910864 0
M  V30 2199 C 206.404 -1.1265 -2.03501 0
M  V30 2200 C 207.398 -0.0450054 -1.6934 0
M  V30 2201 O 208.604 -0.203988 -1.7884 0
M  V30 2202 H 204.979 -0.347639 -0.666822 0
M  V30 2203 H 206.95 -2.07849 -2.14106 0
M  V30 2204 C 205.699 -0.808143 -3.38178 0
M  V30 2205 H 205.022 -1.63231 -3.6496 0
M  V30 2206 H 206.462 -0.736426 -4.17556 0
M  V30 2207 C 204.921 0.488226 -3.33344 0
M  V30 2208 O 205.451 1.51766 -3.71927 0
M  V30 2209 N 203.657 0.490009 -2.86439 0
M  V30 2210 H 203.204 -0.348161 -2.55236 0
M  V30 2211 H 203.162 1.35741 -2.83587 0
M  V30 2212 N 206.934 1.1197 -1.10907 0
M  V30 2213 C 208.345 1.65114 -0.871446 0
M  V30 2214 C 208.696 1.86885 0.597353 0
M  V30 2215 O 207.821 1.59896 1.45816 0
M  V30 2216 C 208.416 2.99944 -1.5754 0
M  V30 2217 C 206.975 3.50018 -1.38435 0
M  V30 2218 C 206.122 2.24941 -1.62164 0
M  V30 2219 H 209.073 0.956851 -1.2661 0
M  V30 2220 H 209.094 3.66651 -1.01721 0
M  V30 2221 H 208.606 2.84067 -2.64438 0
M  V30 2222 H 206.707 3.71071 -0.337214 0
M  V30 2223 H 206.82 4.29165 -2.12965 0
M  V30 2224 H 205.184 2.3229 -1.04467 0
M  V30 2225 H 205.967 2.11612 -2.70324 0
M  V30 2226 N 208.412 0.89855 1.29475 0
M  V30 2227 C 209.637 0.538561 2.00285 0
M  V30 2228 C 210.062 -0.869135 1.66816 0
M  V30 2229 O 209.42 -1.57831 0.892145 0
M  V30 2230 C 209.468 0.736475 3.52999 0
M  V30 2231 O 208.572 -0.211537 4.11857 0
M  V30 2232 H 207.913 0.210563 0.62973 0
M  V30 2233 H 210.443 1.20982 1.64998 0
M  V30 2234 H 210.453 0.640685 4.02938 0
M  V30 2235 H 209.128 1.76276 3.76696 0
M  V30 2236 H 207.705 -0.0682991 3.72837 0
M  V30 2237 N 209.89 -1.43072 0.660911 0
M  V30 2238 C 211.138 -2.01323 0.177094 0
M  V30 2239 C 211.459 -1.5245 -1.2159 0
M  V30 2240 O 210.729 -0.740322 -1.81373 0
M  V30 2241 H 209.309 -0.744382 0.0624804 0
M  V30 2242 H 211.971 -1.75179 0.854305 0
M  V30 2243 H 211.067 -3.11649 0.167641 0
M  V30 2244 N 211.368 -0.403325 -1.52352 0
M  V30 2245 C 212.318 0.442244 -2.2367 0
M  V30 2246 C 213.302 1.01823 -1.24583 0
M  V30 2247 O 214.494 0.942005 -1.49851 0
M  V30 2248 C 211.623 1.5615 -3.05732 0
M  V30 2249 C 210.709 0.996575 -4.12225 0
M  V30 2250 N 211.1 0.157804 -5.05554 0
M  V30 2251 C 209.398 1.26767 -4.27605 0
M  V30 2252 C 210.099 -0.155853 -5.81491 0
M  V30 2253 N 209.075 0.451775 -5.41719 0
M  V30 2254 H 212.877 -0.204964 -2.93184 0
M  V30 2255 H 210.391 -0.213418 -1.60992 0
M  V30 2256 H 212.388 2.17981 -3.55373 0
M  V30 2257 H 211.048 2.21139 -2.37755 0
M  V30 2258 H 212.059 -0.206049 -5.1749 0
M  V30 2259 H 208.736 1.91757 -3.70858 0
M  V30 2260 H 210.126 -0.836329 -6.66675 0
M  V30 2261 N 212.846 1.57033 -0.133567 0
M  V30 2262 C 214.095 1.94861 0.520768 0
M  V30 2263 C 214.408 1.02012 1.66892 0
M  V30 2264 O 215.614 1.29365 2.38699 0
M  V30 2265 C 214.07 3.46362 0.977809 0
M  V30 2266 C 213.678 4.47773 -0.142674 0
M  V30 2267 C 215.422 3.93083 1.60269 0
M  V30 2268 C 213.329 5.90468 0.331883 0
M  V30 2269 H 212.259 0.727453 0.198315 0
M  V30 2270 H 214.91 1.82227 -0.215759 0
M  V30 2271 H 213.292 3.54282 1.7692 0
M  V30 2272 H 214.466 4.51536 -0.919317 0
M  V30 2273 H 212.781 4.10891 -0.675124 0
M  V30 2274 H 215.378 4.97121 1.96914 0
M  V30 2275 H 215.721 3.33876 2.48662 0
M  V30 2276 H 216.254 3.88025 0.876453 0
M  V30 2277 H 212.993 6.53463 -0.516341 0
M  V30 2278 H 212.513 5.90094 1.07469 0
M  V30 2279 H 214.192 6.42179 0.788332 0
M  V30 2280 N 214.325 -0.140222 1.56975 0
M  V30 2281 C 215.553 -0.866437 1.87884 0
M  V30 2282 C 215.968 -1.74428 0.722517 0
M  V30 2283 O 215.325 -1.79891 -0.30749 0
M  V30 2284 C 215.376 -1.71753 3.18093 0
M  V30 2285 O 215.097 -0.875056 4.29272 0
M  V30 2286 C 216.598 -2.55074 3.62563 0
M  V30 2287 H 213.818 -0.25019 0.622612 0
M  V30 2288 H 216.362 -0.130977 2.0408 0
M  V30 2289 H 214.517 -2.40598 3.03631 0
M  V30 2290 H 214.931 -1.46002 5.03769 0
M  V30 2291 H 216.405 -3.10356 4.5649 0
M  V30 2292 H 216.882 -3.31434 2.88181 0
M  V30 2293 H 217.488 -1.91509 3.79743 0
M  V30 2294 N 215.803 -1.52179 -0.40978 0
M  V30 2295 C 216.713 -1.78364 -1.52392 0
M  V30 2296 C 217.729 -0.669183 -1.60617 0
M  V30 2297 O 218.905 -0.954518 -1.77344 0
M  V30 2298 C 215.97 -1.92822 -2.88133 0
M  V30 2299 C 215.031 -3.16725 -2.898 0
M  V30 2300 C 214.264 -3.30483 -4.19067 0
M  V30 2301 O 214.487 -2.49522 -5.12928 0
M  V30 2302 O 213.421 -4.2363 -4.27576 0
M  V30 2303 H 217.247 -2.72931 -1.33201 0
M  V30 2304 H 214.832 -1.37016 -0.59557 0
M  V30 2305 H 216.714 -2.04157 -3.68643 0
M  V30 2306 H 215.389 -1.01444 -3.07393 0
M  V30 2307 H 214.296 -3.10848 -2.08146 0
M  V30 2308 H 215.629 -4.07881 -2.75489 0
M  V30 2309 N 217.281 0.66697 -1.42791 0
M  V30 2310 C 218.528 1.42699 -1.43678 0
M  V30 2311 C 218.856 1.94419 -0.0560425 0
M  V30 2312 O 218.111 1.7182 0.936831 0
M  V30 2313 C 218.41 2.6349 -2.4147 0
M  V30 2314 C 218.076 2.30267 -3.8767 0
M  V30 2315 C 216.738 2.20918 -4.27491 0
M  V30 2316 C 219.09 2.03435 -4.79858 0
M  V30 2317 C 216.418 1.82873 -5.57471 0
M  V30 2318 C 218.77 1.66892 -6.10188 0
M  V30 2319 C 217.434 1.56058 -6.49001 0
M  V30 2320 H 216.704 0.522171 -0.525755 0
M  V30 2321 H 219.351 0.759785 -1.75783 0
M  V30 2322 H 217.656 3.35279 -2.0272 0
M  V30 2323 H 219.353 3.21684 -2.39417 0
M  V30 2324 H 215.943 2.38449 -3.56146 0
M  V30 2325 H 220.127 2.09586 -4.49875 0
M  V30 2326 H 215.383 1.7306 -5.86396 0
M  V30 2327 H 219.557 1.45157 -6.81104 0
M  V30 2328 H 217.184 1.26348 -7.49627 0
M  V30 2329 N 218.759 1.29093 0.90403 0
M  V30 2330 C 220.005 1.16986 1.65656 0
M  V30 2331 C 220.338 -0.278925 1.92186 0
M  V30 2332 O 219.613 -1.2019 1.5292 0
M  V30 2333 C 219.896 1.97908 3.0084 0
M  V30 2334 C 219.749 3.50903 2.81403 0
M  V30 2335 C 221.068 1.80208 4.01513 0
M  V30 2336 H 218.187 0.426346 0.601164 0
M  V30 2337 H 220.829 1.58518 1.04747 0
M  V30 2338 H 218.979 1.62616 3.52829 0
M  V30 2339 H 220.651 3.96153 2.36348 0
M  V30 2340 H 218.894 3.76045 2.1627 0
M  V30 2341 H 219.565 4.02791 3.77443 0
M  V30 2342 H 222.041 2.11025 3.58619 0
M  V30 2343 H 220.917 2.39184 4.94047 0
M  V30 2344 H 221.178 0.756119 4.35586 0
M  V30 2345 N 220.237 -1.11381 1.11499 0
M  V30 2346 C 221.653 -1.35143 0.849031 0
M  V30 2347 C 221.853 -1.94515 -0.525938 0
M  V30 2348 O 220.909 -2.1785 -1.27662 0
M  V30 2349 C 222.222 -2.28249 1.95762 0
M  V30 2350 C 223.77 -2.41812 1.98736 0
M  V30 2351 C 224.245 -3.3824 3.088 0
M  V30 2352 N 225.736 -3.45803 3.08179 0
M  V30 2353 C 226.471 -4.20358 3.89982 0
M  V30 2354 N 225.967 -4.97884 4.8175 0
M  V30 2355 N 227.76 -4.15877 3.78157 0
M  V30 2356 H 219.911 -0.712062 2.00109 0
M  V30 2357 H 222.174 -0.376025 0.870235 0
M  V30 2358 H 221.88 -1.91817 2.94787 0
M  V30 2359 H 221.754 -3.28473 1.85433 0
M  V30 2360 H 224.141 -2.77518 1.00338 0
M  V30 2361 H 224.222 -1.41437 2.13141 0
M  V30 2362 H 223.866 -3.03261 4.07425 0
M  V30 2363 H 223.796 -4.38471 2.91635 0
M  V30 2364 H 226.287 -2.90506 2.41691 0
M  V30 2365 H 226.6 -5.52142 5.40702 0
M  V30 2366 H 224.945 -4.97043 4.85771 0
M  V30 2367 H 228.136 -3.544 3.05808 0
M  V30 2368 H 228.309 -4.73723 4.42143 0
M  V30 2369 N 221.715 -0.905404 -1.28997 0
M  V30 2370 C 222.663 -0.377431 -2.29517 0
M  V30 2371 C 223.657 0.526461 -1.61012 0
M  V30 2372 O 224.863 0.40863 -1.753 0
M  V30 2373 H 221.238 -0.103437 -0.744852 0
M  V30 2374 H 223.209 -1.23848 -2.71485 0
M  V30 2375 C 221.958 0.374833 -3.45674 0
M  V30 2376 H 221.281 -0.311474 -3.98585 0
M  V30 2377 H 222.721 0.70903 -4.1803 0
M  V30 2378 C 221.18 1.57963 -2.97572 0
M  V30 2379 O 221.71 2.67886 -2.99333 0
M  V30 2380 N 219.916 1.42375 -2.53333 0
M  V30 2381 H 219.463 0.529466 -2.521 0
M  V30 2382 H 219.421 2.23117 -2.21509 0
M  V30 2383 N 223.193 1.4272 -0.668489 0
M  V30 2384 C 224.423 2.05668 -0.196063 0
M  V30 2385 C 224.831 1.5028 1.14946 0
M  V30 2386 O 224.174 0.6348 1.72383 0
M  V30 2387 C 224.236 3.59469 -0.0468879 0
M  V30 2388 C 223.9 4.37518 -1.32012 0
M  V30 2389 C 224.897 4.68584 -2.25222 0
M  V30 2390 C 222.582 4.77266 -1.56596 0
M  V30 2391 C 224.576 5.38326 -3.41297 0
M  V30 2392 C 222.263 5.4675 -2.72962 0
M  V30 2393 C 223.261 5.77204 -3.65137 0
M  V30 2394 O 222.949 6.45264 -4.79468 0
M  V30 2395 H 222.681 0.669382 -0.0943599 0
M  V30 2396 H 225.235 1.83954 -0.913788 0
M  V30 2397 H 223.465 3.79817 0.726357 0
M  V30 2398 H 225.154 4.04071 0.384852 0
M  V30 2399 H 225.92 4.38382 -2.07477 0
M  V30 2400 H 221.799 4.52959 -0.857249 0
M  V30 2401 H 225.343 5.62014 -4.13263 0
M  V30 2402 H 221.24 5.76369 -2.90635 0
M  V30 2403 H 222.008 6.63753 -4.78931 0
M  V30 2404 N 224.671 0.411399 1.52136 0
M  V30 2405 C 225.601 -0.404015 2.29978 0
M  V30 2406 C 226.582 -1.04412 1.34284 0
M  V30 2407 O 227.767 -1.0527 1.63192 0
M  V30 2408 C 224.897 -1.5197 3.12286 0
M  V30 2409 C 223.851 -1.00448 4.16046 0
M  V30 2410 C 223.177 -2.21393 4.86712 0
M  V30 2411 C 224.477 -0.0569336 5.22269 0
M  V30 2412 H 226.171 0.245529 2.98392 0
M  V30 2413 H 223.717 0.119525 1.43503 0
M  V30 2414 H 225.67 -2.09715 3.6551 0
M  V30 2415 H 224.394 -2.19716 2.41646 0
M  V30 2416 H 223.053 -0.449421 3.63835 0
M  V30 2417 H 222.701 -2.87699 4.12599 0
M  V30 2418 H 222.401 -1.87571 5.56858 0
M  V30 2419 H 223.925 -2.7974 5.4275 0
M  V30 2420 H 225.339 -0.54325 5.7072 0
M  V30 2421 H 223.736 0.192594 5.99791 0
M  V30 2422 H 224.806 0.887663 4.76706 0
M  V30 2423 N 226.149 -1.5696 0.141893 0
M  V30 2424 C 227.059 -2.20066 -0.812905 0
M  V30 2425 C 228.075 -1.18344 -1.27557 0
M  V30 2426 O 229.251 -1.50902 -1.33381 0
M  V30 2427 C 226.316 -2.80583 -2.03652 0
M  V30 2428 C 225.377 -3.97414 -1.62359 0
M  V30 2429 C 224.61 -4.55036 -2.78887 0
M  V30 2430 O 224.833 -4.11538 -3.94959 0
M  V30 2431 O 223.767 -5.45376 -2.54653 0
M  V30 2432 H 227.593 -3.02157 -0.305746 0
M  V30 2433 H 225.178 -1.49159 -0.0848799 0
M  V30 2434 H 227.06 -3.19067 -2.75272 0
M  V30 2435 H 225.735 -2.01508 -2.5333 0
M  V30 2436 H 224.642 -3.63656 -0.877775 0
M  V30 2437 H 225.975 -4.77994 -1.17401 0
M  V30 2438 N 227.627 0.131896 -1.57047 0
M  V30 2439 C 228.857 0.855219 -1.88068 0
M  V30 2440 C 229.265 1.74557 -0.729817 0
M  V30 2441 O 228.608 1.81083 0.308962 0
M  V30 2442 C 228.67 1.75119 -3.13964 0
M  V30 2443 C 228.334 1.03646 -4.45091 0
M  V30 2444 C 229.331 0.383276 -5.18485 0
M  V30 2445 C 227.016 1.02148 -4.91804 0
M  V30 2446 C 229.01 -0.275347 -6.36805 0
M  V30 2447 C 226.697 0.359047 -6.10044 0
M  V30 2448 C 227.695 -0.288222 -6.82392 0
M  V30 2449 O 227.383 -0.94011 -7.98384 0
M  V30 2450 H 227.115 0.251864 -0.627328 0
M  V30 2451 H 229.669 0.124782 -2.05021 0
M  V30 2452 H 227.899 2.52295 -2.9306 0
M  V30 2453 H 229.588 2.3478 -3.31109 0
M  V30 2454 H 230.354 0.386562 -4.83457 0
M  V30 2455 H 226.233 1.5147 -4.35405 0
M  V30 2456 H 229.777 -0.781148 -6.93213 0
M  V30 2457 H 225.674 0.35348 -6.44531 0
M  V30 2458 H 226.442 -0.84329 -8.14144 0
M  V30 2459 N 229.106 1.52395 0.401703 0
M  V30 2460 C 230.016 1.7917 1.51444 0
M  V30 2461 C 231.032 0.677691 1.6026 0
M  V30 2462 O 232.208 0.963909 1.76835 0
M  V30 2463 C 229.273 1.94347 2.87107 0
M  V30 2464 C 228.334 3.18257 2.88116 0
M  V30 2465 C 227.567 3.32701 4.17308 0
M  V30 2466 O 227.79 2.52238 5.11598 0
M  V30 2467 O 226.724 4.25891 4.25324 0
M  V30 2468 H 230.55 2.73633 1.31752 0
M  V30 2469 H 228.135 1.3733 0.588296 0
M  V30 2470 H 230.017 2.06109 3.67555 0
M  V30 2471 H 228.692 1.03073 3.06851 0
M  V30 2472 H 227.599 3.11947 2.06494 0
M  V30 2473 H 228.932 4.09336 2.73322 0
M  V30 2474 N 230.584 -0.659388 1.43143 0
M  V30 2475 C 231.531 -1.77249 1.47822 0
M  V30 2476 C 232.501 -1.62818 0.328558 0
M  V30 2477 O 233.686 -1.83151 0.534838 0
M  V30 2478 C 230.826 -3.15371 1.40126 0
M  V30 2479 C 229.939 -3.4098 2.65249 0
M  V30 2480 C 229.074 -4.68915 2.49584 0
M  V30 2481 C 228.113 -4.87608 3.70006 0
M  V30 2482 N 227.25 -6.06796 3.53189 0
M  V30 2483 H 232.09 -1.72584 2.42938 0
M  V30 2484 H 229.627 -0.842297 1.20598 0
M  V30 2485 H 231.585 -3.9521 1.33659 0
M  V30 2486 H 230.215 -3.19121 0.485964 0
M  V30 2487 H 229.267 -2.55282 2.8202 0
M  V30 2488 H 230.579 -3.50681 3.54717 0
M  V30 2489 H 229.733 -5.56871 2.4079 0
M  V30 2490 H 228.472 -4.61524 1.5763 0
M  V30 2491 H 227.477 -3.9809 3.79215 0
M  V30 2492 H 228.702 -4.96834 4.62961 0
M  V30 2493 H 226.648 -6.00549 2.63965 0
M  V30 2494 H 226.565 -6.17428 4.36255 0
M  V30 2495 H 227.833 -6.9739 3.48236 0
M  V30 2496 N 232.062 -1.29571 -0.897171 0
M  V30 2497 C 233.309 -1.17689 -1.6479 0
M  V30 2498 C 233.637 0.27107 -1.92602 0
M  V30 2499 O 232.892 1.21193 -1.53658 0
M  V30 2500 C 233.191 -1.9382 -3.00281 0
M  V30 2501 C 232.857 -3.43522 -2.92068 0
M  V30 2502 C 231.519 -3.84348 -2.89535 0
M  V30 2503 C 233.871 -4.38906 -2.81089 0
M  V30 2504 C 231.199 -5.18869 -2.73846 0
M  V30 2505 C 233.551 -5.73521 -2.66939 0
M  V30 2506 C 232.215 -6.13601 -2.62774 0
M  V30 2507 H 231.485 -0.430654 -0.603008 0
M  V30 2508 H 234.132 -1.60536 -1.04404 0
M  V30 2509 H 232.437 -1.4357 -3.64547 0
M  V30 2510 H 234.134 -1.82028 -3.57305 0
M  V30 2511 H 230.724 -3.11072 -2.94842 0
M  V30 2512 H 234.908 -4.08315 -2.82121 0
M  V30 2513 H 230.164 -5.4903 -2.69027 0
M  V30 2514 H 234.338 -6.47078 -2.57416 0
M  V30 2515 H 231.965 -7.17786 -2.50375 0
M  V30 2516 N 233.54 1.10788 -1.12088 0
M  V30 2517 C 234.789 1.82036 -0.868659 0
M  V30 2518 C 235.102 1.85929 0.607426 0
M  V30 2519 O 236.308 2.53346 0.97613 0
M  V30 2520 C 234.764 3.26951 -1.50435 0
M  V30 2521 C 234.372 3.31367 -3.01496 0
M  V30 2522 C 236.116 4.03053 -1.33225 0
M  V30 2523 C 234.023 4.7072 -3.58017 0
M  V30 2524 H 232.953 0.682108 -0.321318 0
M  V30 2525 H 235.604 1.24618 -1.34694 0
M  V30 2526 H 233.986 3.84343 -0.953735 0
M  V30 2527 H 235.16 2.83819 -3.6302 0
M  V30 2528 H 233.475 2.6875 -3.18061 0
M  V30 2529 H 236.072 5.05981 -1.72878 0
M  V30 2530 H 236.415 4.15387 -0.275529 0
M  V30 2531 H 236.948 3.52066 -1.85188 0
M  V30 2532 H 233.687 4.63585 -4.63432 0
M  V30 2533 H 233.207 5.1865 -3.01268 0
M  V30 2534 H 234.886 5.39685 -3.56859 0
M  V30 2535 N 235.018 0.912232 1.28515 0
M  V30 2536 C 236.266 0.543523 1.94654 0
M  V30 2537 C 236.587 -0.9155 1.72173 0
M  V30 2538 O 235.857 -1.64708 1.06058 0
M  V30 2539 H 234.437 0.198017 0.720277 0
M  V30 2540 H 237.099 1.16126 1.56527 0
M  V30 2541 H 236.195 0.736684 3.03281 0
M  V30 2542 N 236.496 -1.42363 0.676048 0
M  V30 2543 C 237.426 -2.33497 0.0124832 0
M  V30 2544 C 238.407 -1.50748 -0.787981 0
M  V30 2545 O 239.592 -1.79346 -0.744884 0
M  V30 2546 C 236.722 -3.34377 -0.938582 0
M  V30 2547 C 235.676 -4.27289 -0.246622 0
M  V30 2548 C 235.002 -5.18386 -1.31071 0
M  V30 2549 C 236.302 -5.14916 0.875125 0
M  V30 2550 H 237.996 -2.89233 0.773593 0
M  V30 2551 H 235.542 -1.39073 0.37346 0
M  V30 2552 H 237.495 -3.97044 -1.41188 0
M  V30 2553 H 236.219 -2.76947 -1.73113 0
M  V30 2554 H 234.878 -3.66018 0.206456 0
M  V30 2555 H 234.526 -4.57282 -2.09528 0
M  V30 2556 H 234.226 -5.81378 -0.852839 0
M  V30 2557 H 235.75 -5.83929 -1.78492 0
M  V30 2558 H 237.164 -5.71262 0.482983 0
M  V30 2559 H 235.561 -5.86747 1.25887 0
M  V30 2560 H 236.631 -4.53242 1.72335 0
M  V30 2561 N 237.974 -0.419461 -1.51915 0
M  V30 2562 C 239.214 0.152336 -2.03832 0
M  V30 2563 C 239.578 1.41501 -1.29775 0
M  V30 2564 O 240.779 2.06591 -1.7197 0
M  V30 2565 C 239.05 0.383812 -3.55333 0
M  V30 2566 S 240.609 0.921577 -4.29013 0
M  V30 2567 H 237.427 0.0402193 -0.709862 0
M  V30 2568 H 240.029 -0.574758 -1.8686 0
M  V30 2569 H 238.733 -0.541794 -4.06808 0
M  V30 2570 H 238.264 1.13849 -3.76566 0
M  V30 2571 H 240.279 2.20108 -4.4471 0
M  V30 2572 N 239.452 1.56882 -0.150215 0
M  V30 2573 C 240.4 2.18214 0.805313 0
M  V30 2574 C 241.394 1.14006 1.25296 0
M  V30 2575 O 242.6 1.3225 1.22107 0
M  V30 2576 H 238.975 0.698762 0.277913 0
M  V30 2577 H 240.946 2.97231 0.263862 0
M  V30 2578 C 239.695 2.82065 2.03309 0
M  V30 2579 H 239.018 3.61968 1.69763 0
M  V30 2580 H 240.458 3.28477 2.68103 0
M  V30 2581 C 238.917 1.80739 2.84315 0
M  V30 2582 O 239.447 1.27983 3.80767 0
M  V30 2583 N 237.653 1.4997 2.48913 0
M  V30 2584 H 237.2 1.93062 1.70542 0
M  V30 2585 H 237.158 0.824217 3.03404 0
M  V30 2586 N 240.93 -0.123565 1.57115 0
M  V30 2587 C 242.176 -0.833386 1.84885 0
M  V30 2588 C 242.509 -1.79742 0.735292 0
M  V30 2589 O 241.784 -1.92764 -0.25925 0
M  V30 2590 C 242.067 -1.5873 3.23228 0
M  V30 2591 C 241.92 -0.643183 4.45178 0
M  V30 2592 C 243.239 -2.54453 3.59085 0
M  V30 2593 H 240.358 -0.301518 0.6725 0
M  V30 2594 H 243 -0.097778 1.89748 0
M  V30 2595 H 241.15 -2.21438 3.19214 0
M  V30 2596 H 242.822 -0.0253015 4.61293 0
M  V30 2597 H 241.065 0.0456139 4.33776 0
M  V30 2598 H 241.736 -1.20724 5.38637 0
M  V30 2599 H 244.212 -2.01853 3.63861 0
M  V30 2600 H 243.088 -3.04238 4.5687 0
M  V30 2601 H 243.349 -3.36906 2.86264 0
M  V30 2602 N 242.408 -1.52605 -0.393616 0
M  V30 2603 C 243.819 -1.59417 -0.971761 0
M  V30 2604 C 244.17 -0.444173 -1.91106 0
M  V30 2605 O 243.295 0.433382 -2.12016 0
M  V30 2606 C 243.89 -2.88936 -1.76921 0
M  V30 2607 C 242.449 -2.98175 -2.29714 0
M  V30 2608 C 241.596 -2.54491 -1.10135 0
M  V30 2609 H 244.547 -1.57751 -0.173317 0
M  V30 2610 H 244.568 -2.75163 -2.62804 0
M  V30 2611 H 244.08 -3.72616 -1.08532 0
M  V30 2612 H 242.181 -2.19024 -3.01429 0
M  V30 2613 H 242.294 -4.02726 -2.59517 0
M  V30 2614 H 240.658 -2.08702 -1.45999 0
M  V30 2615 H 241.441 -3.4056 -0.432874 0
M  V30 2616 N 243.887 0.651787 -1.4349 0
M  V30 2617 C 245.136 1.40754 -1.44469 0
M  V30 2618 C 245.449 1.95463 -0.0731845 0
M  V30 2619 O 246.655 2.71471 0.0395721 0
M  V30 2620 C 245.111 2.54735 -2.5424 0
M  V30 2621 C 244.719 2.06628 -3.97504 0
M  V30 2622 C 246.463 3.32092 -2.64414 0
M  V30 2623 C 244.37 3.17829 -4.98737 0
M  V30 2624 H 243.3 0.528862 -0.53742 0
M  V30 2625 H 245.951 0.703365 -1.69485 0
M  V30 2626 H 244.333 3.2763 -2.22428 0
M  V30 2627 H 245.507 1.40734 -4.38783 0
M  V30 2628 H 243.822 1.42146 -3.91387 0
M  V30 2629 H 246.419 4.14952 -3.37223 0
M  V30 2630 H 246.762 3.80217 -1.69532 0
M  V30 2631 H 247.295 2.66279 -2.95534 0
M  V30 2632 H 244.034 2.74671 -5.95177 0
M  V30 2633 H 243.554 3.82429 -4.62069 0
M  V30 2634 H 245.233 3.82937 -5.21505 0
M  V30 2635 N 245.365 1.30045 0.890287 0
M  V30 2636 C 246.313 1.15873 2.01683 0
M  V30 2637 C 247.307 0.0719403 1.69247 0
M  V30 2638 O 248.513 0.232414 1.78493 0
M  V30 2639 H 244.888 0.358203 0.661207 0
M  V30 2640 H 246.859 2.11229 2.10772 0
M  V30 2641 C 245.608 0.861842 3.36849 0
M  V30 2642 H 244.931 1.69016 3.62317 0
M  V30 2643 H 246.371 0.802762 4.16331 0
M  V30 2644 C 244.83 -0.435132 3.34078 0
M  V30 2645 O 245.36 -1.4583 3.74295 0
M  V30 2646 N 243.566 -0.444377 2.87182 0
M  V30 2647 H 243.113 0.388723 2.5465 0
M  V30 2648 H 243.071 -1.31213 2.85711 0
M  V30 2649 N 246.843 -1.10192 1.12674 0
M  V30 2650 C 248.09 -1.82205 0.883606 0
M  V30 2651 C 248.418 -1.8532 -0.590492 0
M  V30 2652 O 247.673 -1.31137 -1.45264 0
M  V30 2653 C 247.972 -3.28552 1.4067 0
M  V30 2654 C 247.638 -3.45582 2.89627 0
M  V30 2655 C 246.3 -3.49937 3.30299 0
M  V30 2656 C 248.652 -3.50768 3.85501 0
M  V30 2657 C 245.98 -3.57049 4.65546 0
M  V30 2658 C 248.332 -3.59414 5.20581 0
M  V30 2659 C 246.996 -3.62034 5.60792 0
M  V30 2660 H 246.266 -0.666735 0.323334 0
M  V30 2661 H 248.913 -1.29868 1.40736 0
M  V30 2662 H 247.218 -3.83473 0.80347 0
M  V30 2663 H 248.915 -3.82788 1.19475 0
M  V30 2664 H 245.505 -3.42871 2.57172 0
M  V30 2665 H 249.689 -3.46651 3.55171 0
M  V30 2666 H 244.945 -3.57361 4.96088 0
M  V30 2667 H 249.119 -3.62371 5.94693 0
M  V30 2668 H 246.746 -3.67298 6.6558 0
M  V30 2669 N 248.321 -0.919034 -1.28029 0
M  V30 2670 C 249.57 -0.550802 -1.94034 0
M  V30 2671 C 249.883 0.910877 -1.73096 0
M  V30 2672 O 251.089 1.3875 -2.33368 0
M  V30 2673 C 249.545 -0.934249 -3.47563 0
M  V30 2674 C 249.153 -2.41602 -3.7727 0
M  V30 2675 C 250.897 -0.636854 -4.19696 0
M  V30 2676 C 248.804 -2.73932 -5.24133 0
M  V30 2677 H 247.734 -0.202273 -0.726362 0
M  V30 2678 H 250.385 -1.11867 -1.45458 0
M  V30 2679 H 248.767 -0.295115 -3.94899 0
M  V30 2680 H 249.941 -3.10233 -3.40723 0
M  V30 2681 H 248.256 -2.68441 -3.18321 0
M  V30 2682 H 250.853 -0.855005 -5.2782 0
M  V30 2683 H 251.196 0.425575 -4.14119 0
M  V30 2684 H 251.729 -1.23469 -3.78154 0
M  V30 2685 H 248.468 -3.79049 -5.34792 0
M  V30 2686 H 247.988 -2.09942 -5.61858 0
M  V30 2687 H 249.667 -2.61215 -5.91925 0
M  V30 2688 N 249.799 1.42003 -0.683588 0
M  V30 2689 C 251.215 1.55625 -0.353976 0
M  V30 2690 C 251.415 1.66151 1.14 0
M  V30 2691 O 250.471 1.63329 1.92561 0
M  V30 2692 C 251.784 2.80171 -1.092 0
M  V30 2693 C 253.332 2.93954 -1.07518 0
M  V30 2694 C 253.807 4.21372 -1.79471 0
M  V30 2695 N 255.298 4.28303 -1.76381 0
M  V30 2696 C 256.033 5.25729 -2.28904 0
M  V30 2697 N 255.529 6.29254 -2.89846 0
M  V30 2698 N 257.322 5.17586 -2.19228 0
M  V30 2699 H 249.473 1.33415 -1.6527 0
M  V30 2700 H 251.736 0.64282 -0.696769 0
M  V30 2701 H 251.442 2.78561 -2.14701 0
M  V30 2702 H 251.316 3.7133 -0.662862 0
M  V30 2703 H 253.703 2.95086 -0.028475 0
M  V30 2704 H 253.784 2.04002 -1.54328 0
M  V30 2705 H 253.428 4.21001 -2.84114 0
M  V30 2706 H 253.358 5.10275 -1.30104 0
M  V30 2707 H 255.849 3.54119 -1.31939 0
M  V30 2708 H 256.162 6.99964 -3.27522 0
M  V30 2709 H 254.507 6.29791 -2.93919 0
M  V30 2710 H 257.698 4.35631 -1.71299 0
M  V30 2711 H 257.871 5.93348 -2.60466 0
M  V30 2712 N 251.277 0.427512 1.51691 0
M  V30 2713 C 252.187 -0.39527 2.31246 0
M  V30 2714 C 253.203 -1.03674 1.39742 0
M  V30 2715 O 254.379 -1.03425 1.72816 0
M  V30 2716 C 251.444 -1.48706 3.13189 0
M  V30 2717 C 250.505 -0.866743 4.20459 0
M  V30 2718 C 249.738 -1.90651 4.98486 0
M  V30 2719 O 249.961 -3.12733 4.77026 0
M  V30 2720 O 248.895 -1.5025 5.82845 0
M  V30 2721 H 252.721 0.253918 3.02637 0
M  V30 2722 H 250.306 0.190274 1.48183 0
M  V30 2723 H 252.188 -2.12047 3.64162 0
M  V30 2724 H 250.863 -2.12051 2.44573 0
M  V30 2725 H 249.77 -0.195544 3.73589 0
M  V30 2726 H 251.103 -0.276934 4.9142 0
M  V30 2727 N 252.755 -1.56801 0.158532 0
M  V30 2728 C 254.004 -1.95665 -0.489702 0
M  V30 2729 C 254.317 -1.04654 -1.65248 0
M  V30 2730 O 255.523 -1.33146 -2.3661 0
M  V30 2731 C 253.979 -3.47874 -0.922582 0
M  V30 2732 C 253.587 -4.47489 0.213893 0
M  V30 2733 C 255.331 -3.95583 -1.53996 0
M  V30 2734 C 253.238 -5.90921 -0.237903 0
M  V30 2735 H 252.168 -0.730516 -0.186716 0
M  V30 2736 H 254.819 -1.81861 0.244722 0
M  V30 2737 H 253.201 -3.57051 -1.71261 0
M  V30 2738 H 254.375 -4.50017 0.991036 0
M  V30 2739 H 252.69 -4.09764 0.740407 0
M  V30 2740 H 255.287 -5.0019 -1.8898 0
M  V30 2741 H 255.63 -3.37789 -2.43319 0
M  V30 2742 H 256.163 -3.8937 -0.814611 0
M  V30 2743 H 252.902 -6.52559 0.620236 0
M  V30 2744 H 252.422 -5.91729 -0.980676 0
M  V30 2745 H 254.101 -6.43352 -0.686067 0
M  V30 2746 N 254.233 0.115231 -1.57178 0
M  V30 2747 C 255.196 1.12526 -1.99676 0
M  V30 2748 C 256.196 1.34095 -0.88742 0
M  V30 2749 O 257.386 1.30548 -1.15337 0
M  V30 2750 C 254.518 2.4789 -2.34015 0
M  V30 2751 H 255.711 0.759912 -2.90113 0
M  V30 2752 H 253.264 0.359648 -1.52106 0
M  V30 2753 H 253.999 2.89339 -1.4647 0
M  V30 2754 H 253.784 2.33588 -3.14927 0
M  V30 2755 H 255.274 3.20575 -2.67622 0
M  V30 2756 N 255.711 1.52812 0.385517 0
M  V30 2757 C 256.621 1.80766 1.49535 0
M  V30 2758 C 257.637 0.694651 1.59532 0
M  V30 2759 O 258.813 0.982611 1.75803 0
M  V30 2760 C 255.878 1.97381 2.85029 0
M  V30 2761 C 254.939 3.21295 2.84724 0
M  V30 2762 C 254.172 3.37108 4.13756 0
M  V30 2763 O 254.395 2.5765 5.08893 0
M  V30 2764 O 253.329 4.30378 4.20783 0
M  V30 2765 H 257.155 2.75015 1.28842 0
M  V30 2766 H 254.74 1.37946 0.573697 0
M  V30 2767 H 256.622 2.09996 3.65349 0
M  V30 2768 H 255.297 1.06322 3.05741 0
M  V30 2769 H 254.204 3.1412 2.03174 0
M  V30 2770 H 255.537 4.12212 2.68965 0
M  V30 2771 N 257.189 -0.644168 1.43834 0
M  V30 2772 C 258.122 -1.76906 1.44151 0
M  V30 2773 C 259.1 -1.59774 0.301857 0
M  V30 2774 O 260.284 -1.81834 0.496841 0
M  V30 2775 C 257.411 -3.14321 1.26174 0
M  V30 2776 C 256.457 -3.50134 2.43533 0
M  V30 2777 S 257.29 -3.49085 4.06079 0
M  V30 2778 C 258.446 -4.89142 3.90501 0
M  V30 2779 H 258.679 -1.76368 2.39336 0
M  V30 2780 H 256.212 -0.817624 1.30974 0
M  V30 2781 H 258.17 -3.93625 1.16489 0
M  V30 2782 H 256.831 -3.12412 0.325224 0
M  V30 2783 H 256.024 -4.50095 2.26783 0
M  V30 2784 H 255.626 -2.78264 2.4989 0
M  V30 2785 H 257.918 -5.78036 3.53385 0
M  V30 2786 H 258.861 -5.10945 4.90246 0
M  V30 2787 H 259.269 -4.63102 3.22795 0
M  V30 2788 N 258.668 -1.30515 -0.883378 0
M  V30 2789 C 259.915 -1.1943 -1.63532 0
M  V30 2790 C 260.243 0.250627 -1.92878 0
M  V30 2791 O 259.498 1.19556 -1.54935 0
M  V30 2792 C 259.797 -1.96994 -2.98209 0
M  V30 2793 C 259.463 -3.466 -2.88408 0
M  V30 2794 C 258.125 -3.87397 -2.85442 0
M  V30 2795 C 260.477 -4.41863 -2.76418 0
M  V30 2796 C 257.805 -5.21745 -2.68327 0
M  V30 2797 C 260.157 -5.7632 -2.60841 0
M  V30 2798 C 258.821 -6.16354 -2.56251 0
M  V30 2799 H 258.091 -0.437025 -0.598406 0
M  V30 2800 H 260.738 -1.61635 -1.02696 0
M  V30 2801 H 259.043 -1.47429 -3.63004 0
M  V30 2802 H 260.74 -1.85808 -3.55354 0
M  V30 2803 H 257.33 -3.14182 -2.91527 0
M  V30 2804 H 261.514 -4.11285 -2.77775 0
M  V30 2805 H 256.77 -5.51853 -2.63189 0
M  V30 2806 H 260.944 -6.49772 -2.50538 0
M  V30 2807 H 258.571 -7.20401 -2.42748 0
M  V30 2808 N 260.146 1.09593 -1.13257 0
M  V30 2809 C 261.371 1.8604 -0.916732 0
M  V30 2810 C 261.796 1.80504 0.529146 0
M  V30 2811 O 261.154 1.18127 1.37534 0
M  V30 2812 C 261.202 3.32017 -1.40703 0
M  V30 2813 O 260.306 4.08141 -0.591153 0
M  V30 2814 H 259.647 0.576943 -0.328683 0
M  V30 2815 H 262.177 1.38405 -1.50682 0
M  V30 2816 H 262.187 3.82865 -1.4099 0
M  V30 2817 H 260.862 3.35361 -2.45979 0
M  V30 2818 H 259.439 3.67084 -0.656005 0
M  V30 2819 N 261.624 0.925811 1.2754 0
M  V30 2820 C 262.587 0.428129 2.25166 0
M  V30 2821 C 263.587 -0.452261 1.54309 0
M  V30 2822 O 264.777 -0.253608 1.72344 0
M  V30 2823 C 261.909 -0.384749 3.38722 0
M  V30 2824 H 263.102 1.29066 2.70706 0
M  V30 2825 H 260.655 0.706323 1.3943 0
M  V30 2826 H 261.39 -1.26618 2.98561 0
M  V30 2827 H 261.175 0.246454 3.91325 0
M  V30 2828 H 262.665 -0.723389 4.11287 0
M  V30 2829 N 263.102 -1.41638 0.69111 0
M  V30 2830 C 264.518 -1.55435 0.362224 0
M  V30 2831 C 264.718 -1.66754 -1.13117 0
M  V30 2832 O 263.774 -1.64348 -1.91692 0
M  V30 2833 C 265.087 -2.79588 1.10684 0
M  V30 2834 C 266.635 -2.9338 1.09075 0
M  V30 2835 C 267.11 -4.20414 1.81703 0
M  V30 2836 N 268.601 -4.27362 1.7865 0
M  V30 2837 C 269.336 -5.24507 2.31689 0
M  V30 2838 N 268.832 -6.27708 2.93179 0
M  V30 2839 N 270.625 -5.16416 2.2197 0
M  V30 2840 H 262.776 -1.32536 1.65976 0
M  V30 2841 H 265.039 -0.639115 0.700168 0
M  V30 2842 H 264.745 -2.77419 2.16175 0
M  V30 2843 H 264.619 -3.70973 0.682545 0
M  V30 2844 H 267.006 -2.95067 0.0441238 0
M  V30 2845 H 267.087 -2.0318 1.55407 0
M  V30 2846 H 266.731 -4.19488 2.86343 0
M  V30 2847 H 266.661 -5.09578 1.32808 0
M  V30 2848 H 269.152 -3.53415 1.33815 0
M  V30 2849 H 269.465 -6.98217 3.31229 0
M  V30 2850 H 267.81 -6.28223 2.97255 0
M  V30 2851 H 271.001 -4.34716 1.73607 0
M  V30 2852 H 271.174 -5.91958 2.63609 0
M  V30 2853 N 264.58 -0.43555 -1.51462 0
M  V30 2854 C 265.51 0.367376 -2.30592 0
M  V30 2855 C 266.491 1.02263 -1.35928 0
M  V30 2856 O 267.676 1.02661 -1.64847 0
M  V30 2857 C 264.806 1.46983 -3.14664 0
M  V30 2858 C 263.76 0.938161 -4.17591 0
M  V30 2859 C 263.086 2.13622 -4.90173 0
M  V30 2860 C 264.386 -0.0261621 -5.22293 0
M  V30 2861 H 266.08 -0.292969 -2.97963 0
M  V30 2862 H 263.626 -0.14234 -1.43295 0
M  V30 2863 H 265.579 2.03873 -3.688 0
M  V30 2864 H 264.303 2.15843 -2.4511 0
M  V30 2865 H 262.962 0.391481 -3.64504 0
M  V30 2866 H 262.61 2.81098 -4.17124 0
M  V30 2867 H 262.31 1.78688 -5.59772 0
M  V30 2868 H 263.834 2.7107 -5.47132 0
M  V30 2869 H 265.248 0.452384 -5.71512 0
M  V30 2870 H 263.645 -0.287992 -5.99409 0
M  V30 2871 H 264.715 -0.963391 -4.75233 0
M  V30 2872 N 266.058 1.56714 -0.166846 0
M  V30 2873 C 266.968 2.21331 0.777791 0
M  V30 2874 C 267.984 1.20358 1.25658 0
M  V30 2875 O 269.16 1.53005 1.30964 0
M  V30 2876 C 266.225 2.83787 1.99163 0
M  V30 2877 C 265.286 3.99947 1.56016 0
M  V30 2878 C 264.519 4.59415 2.71613 0
M  V30 2879 O 264.742 4.17769 3.88362 0
M  V30 2880 O 263.676 5.49359 2.45945 0
M  V30 2881 H 267.502 3.02605 0.257636 0
M  V30 2882 H 265.087 1.49275 0.0611393 0
M  V30 2883 H 266.969 3.23405 2.70161 0
M  V30 2884 H 265.644 2.05513 2.50092 0
M  V30 2885 H 264.551 3.65007 0.819809 0
M  V30 2886 H 265.884 4.79801 1.09782 0
M  V30 2887 N 267.536 -0.106894 1.57237 0
M  V30 2888 C 268.813 -0.843526 1.76477 0
M  V30 2889 C 269.193 -1.97499 0.745464 0
M  V30 2890 O 268.541 -2.27357 -0.228306 0
M  V30 2891 C 268.751 -1.34903 3.21873 0
M  V30 2892 C 270.099 -1.79654 3.8472 0
M  V30 2893 O 271.123 -1.44554 3.2555 0
M  V30 2894 O 269.982 -2.44515 4.88748 0
M  V30 2895 H 267.076 -0.401468 0.723016 0
M  V30 2896 H 269.622 -0.0896927 1.69463 0
M  V30 2897 H 268.394 -0.53781 3.87586 0
M  V30 2898 H 268.017 -2.16522 3.33473 0
M  V30 2899 N 269.014 -1.53014 -0.377408 0
M  V30 2900 C 270.26 -1.68872 -1.12294 0
M  V30 2901 C 270.593 -0.433224 -1.89306 0
M  V30 2902 O 269.868 0.569258 -1.85983 0
M  V30 2903 C 270.151 -2.93115 -2.09179 0
M  V30 2904 C 270.004 -4.28794 -1.35853 0
M  V30 2905 C 271.323 -3.12928 -3.09458 0
M  V30 2906 H 268.442 -0.614518 -0.406862 0
M  V30 2907 H 271.084 -1.85633 -0.40503 0
M  V30 2908 H 269.234 -2.78956 -2.70399 0
M  V30 2909 H 270.906 -4.54742 -0.775082 0
M  V30 2910 H 269.149 -4.28744 -0.660364 0
M  V30 2911 H 269.82 -5.11837 -2.06706 0
M  V30 2912 H 272.296 -3.26194 -2.58334 0
M  V30 2913 H 271.172 -4.01316 -3.74482 0
M  V30 2914 H 271.433 -2.27669 -3.78971 0
M  V30 2915 N 270.492 0.636531 -1.44174 0
M  V30 2916 C 271.739 1.39619 -1.46672 0
M  V30 2917 C 272.067 1.94257 -0.0972691 0
M  V30 2918 O 271.322 1.73768 0.900175 0
M  V30 2919 C 271.621 2.58309 -2.47005 0
M  V30 2920 C 271.287 2.21992 -3.92467 0
M  V30 2921 C 269.949 2.118 -4.32081 0
M  V30 2922 C 272.301 1.9321 -4.84065 0
M  V30 2923 C 269.629 1.71007 -5.61225 0
M  V30 2924 C 271.981 1.53911 -6.13591 0
M  V30 2925 C 270.645 1.42257 -6.52165 0
M  V30 2926 H 269.915 0.510902 -0.536712 0
M  V30 2927 H 272.562 0.722328 -1.77355 0
M  V30 2928 H 270.867 3.30903 -2.09786 0
M  V30 2929 H 272.564 3.16533 -2.46186 0
M  V30 2930 H 269.154 2.30841 -3.61124 0
M  V30 2931 H 273.338 1.99997 -4.54219 0
M  V30 2932 H 268.594 1.60583 -5.89935 0
M  V30 2933 H 272.768 1.30677 -6.8403 0
M  V30 2934 H 270.395 1.10419 -7.52138 0
M  V30 2935 N 271.97 1.30982 0.876444 0
M  V30 2936 C 272.9 1.20668 1.99903 0
M  V30 2937 C 273.881 0.095354 1.69833 0
M  V30 2938 O 275.066 0.27885 1.92188 0
M  V30 2939 C 272.196 0.90655 3.3526 0
M  V30 2940 C 271.15 1.97675 3.79617 0
M  V30 2941 C 270.476 1.52943 5.1236 0
M  V30 2942 C 271.776 3.389 3.97422 0
M  V30 2943 H 273.47 2.14586 2.0879 0
M  V30 2944 H 271.016 1.03308 1.00317 0
M  V30 2945 H 272.969 0.821025 4.13324 0
M  V30 2946 H 271.693 -0.0682969 3.26529 0
M  V30 2947 H 270.352 2.05205 3.03787 0
M  V30 2948 H 270 0.54262 5.00065 0
M  V30 2949 H 269.7 2.24532 5.43009 0
M  V30 2950 H 271.224 1.45786 5.92941 0
M  V30 2951 H 272.638 3.34081 4.659 0
M  V30 2952 H 271.035 4.0865 4.3946 0
M  V30 2953 H 272.105 3.80163 3.01006 0
M  V30 2954 N 273.449 -1.08991 1.13837 0
M  V30 2955 C 274.396 -2.15748 0.819835 0
M  V30 2956 C 275.366 -1.64636 -0.220026 0
M  V30 2957 O 276.551 -1.90582 -0.0912757 0
M  V30 2958 C 273.691 -3.4382 0.296913 0
M  V30 2959 C 272.804 -4.0881 1.39636 0
M  V30 2960 C 271.939 -5.24655 0.831314 0
M  V30 2961 C 270.978 -5.81575 1.90886 0
M  V30 2962 N 270.115 -6.88774 1.36142 0
M  V30 2963 H 274.955 -2.42338 1.73426 0
M  V30 2964 H 272.492 -1.18935 0.865613 0
M  V30 2965 H 274.45 -4.17193 -0.0244339 0
M  V30 2966 H 273.08 -3.17535 -0.580628 0
M  V30 2967 H 272.132 -3.33258 1.83422 0
M  V30 2968 H 273.444 -4.47141 2.21058 0
M  V30 2969 H 272.598 -6.04942 0.461515 0
M  V30 2970 H 271.337 -4.87698 -0.013932 0
M  V30 2971 H 270.342 -4.99946 2.28767 0
M  V30 2972 H 271.567 -6.20592 2.75758 0
M  V30 2973 H 269.513 -6.53788 0.538254 0
M  V30 2974 H 269.43 -7.25898 2.11208 0
M  V30 2975 H 270.698 -7.72806 1.01933 0
M  V30 2976 N 274.927 -0.932562 -1.27047 0
M  V30 2977 C 276.157 -0.591173 -1.97961 0
M  V30 2978 C 276.565 0.836219 -1.69717 0
M  V30 2979 O 275.908 1.56801 -0.957036 0
M  V30 2980 C 275.97 -0.743082 -3.51736 0
M  V30 2981 C 275.634 -2.1435 -4.03613 0
M  V30 2982 C 276.631 -3.11815 -4.16014 0
M  V30 2983 C 274.316 -2.46175 -4.37839 0
M  V30 2984 C 276.31 -4.39211 -4.61923 0
M  V30 2985 C 273.997 -3.73806 -4.83438 0
M  V30 2986 C 274.995 -4.70137 -4.95439 0
M  V30 2987 O 274.683 -5.95496 -5.40037 0
M  V30 2988 H 274.415 -0.222375 -0.638377 0
M  V30 2989 H 276.969 -1.25317 -1.62742 0
M  V30 2990 H 275.199 -0.0239739 -3.86693 0
M  V30 2991 H 276.888 -0.40603 -4.03864 0
M  V30 2992 H 277.654 -2.88549 -3.89826 0
M  V30 2993 H 273.533 -1.71936 -4.27737 0
M  V30 2994 H 277.077 -5.14404 -4.71205 0
M  V30 2995 H 272.974 -3.96888 -5.09068 0
M  V30 2996 H 273.742 -5.98554 -5.58279 0
M  V30 2997 N 276.405 1.4127 -0.698611 0
M  V30 2998 C 277.635 2.05205 -0.239644 0
M  V30 2999 C 278.043 1.52684 1.11733 0
M  V30 3000 O 277.386 0.671222 1.70998 0
M  V30 3001 C 277.448 3.59289 -0.123126 0
M  V30 3002 C 277.112 4.34619 -1.41263 0
M  V30 3003 C 278.109 4.63701 -2.35111 0
M  V30 3004 C 275.794 4.73837 -1.66684 0
M  V30 3005 C 277.788 5.30966 -3.52639 0
M  V30 3006 C 275.475 5.40837 -2.84498 0
M  V30 3007 C 276.473 5.69329 -3.77298 0
M  V30 3008 O 276.161 6.34949 -4.93047 0
M  V30 3009 H 275.893 0.66723 -0.108537 0
M  V30 3010 H 278.447 1.81974 -0.952602 0
M  V30 3011 H 276.677 3.81272 0.645628 0
M  V30 3012 H 278.366 4.04797 0.299056 0
M  V30 3013 H 279.132 4.33882 -2.16729 0
M  V30 3014 H 275.011 4.51039 -0.953135 0
M  V30 3015 H 278.555 5.53121 -4.25091 0
M  V30 3016 H 274.452 5.70075 -3.02795 0
M  V30 3017 H 275.22 6.53445 -4.92902 0
M  V30 3018 N 277.883 0.443576 1.51229 0
M  V30 3019 C 279.131 -0.120557 2.0174 0
M  V30 3020 C 279.452 -1.42665 1.32935 0
M  V30 3021 O 278.722 -1.9028 0.465866 0
M  V30 3022 H 277.302 -0.0475426 0.745486 0
M  V30 3023 H 279.964 0.587711 1.85828 0
M  V30 3024 H 279.06 -0.291972 3.10731 0
M  V30 3025 N 279.361 -1.56624 0.175154 0
M  V30 3026 C 280.291 -2.21155 -0.749195 0
M  V30 3027 C 281.272 -1.16836 -1.23626 0
M  V30 3028 O 282.457 -1.45277 -1.28873 0
M  V30 3029 C 279.587 -2.8553 -1.97711 0
M  V30 3030 C 278.541 -3.95921 -1.62575 0
M  V30 3031 C 277.867 -4.47365 -2.92864 0
M  V30 3032 C 279.167 -5.15323 -0.850838 0
M  V30 3033 H 280.861 -2.98653 -0.211295 0
M  V30 3034 H 278.407 -1.43651 -0.100188 0
M  V30 3035 H 280.36 -3.2935 -2.62881 0
M  V30 3036 H 279.084 -2.05406 -2.53921 0
M  V30 3037 H 277.743 -3.52762 -0.997719 0
M  V30 3038 H 277.391 -3.64027 -3.47122 0
M  V30 3039 H 277.091 -5.21839 -2.70106 0
M  V30 3040 H 278.615 -4.93873 -3.59056 0
M  V30 3041 H 280.029 -5.55812 -1.40521 0
M  V30 3042 H 278.426 -5.95739 -0.722154 0
M  V30 3043 H 279.496 -4.84661 0.152082 0
M  V30 3044 N 280.839 0.0985539 -1.57292 0
M  V30 3045 C 281.787 1.1387 -2.02821 0
M  V30 3046 C 282.781 1.41676 -0.928666 0
M  V30 3047 O 283.987 1.41398 -1.11385 0
M  V30 3048 H 280.362 0.384419 -0.646317 0
M  V30 3049 H 282.333 0.728347 -2.89375 0
M  V30 3050 C 281.082 2.45166 -2.46554 0
M  V30 3051 H 280.405 2.24613 -3.3074 0
M  V30 3052 H 281.845 3.16456 -2.8219 0
M  V30 3053 C 280.304 3.09216 -1.33742 0
M  V30 3054 O 280.834 3.96163 -0.66464 0
M  V30 3055 N 279.04 2.69413 -1.08928 0
M  V30 3056 H 278.587 1.98801 -1.63817 0
M  V30 3057 H 278.545 3.12594 -0.336458 0
M  V30 3058 N 282.317 1.53212 0.369288 0
M  V30 3059 C 283.267 1.75769 1.45222 0
M  V30 3060 C 284.251 0.612136 1.48801 0
M  V30 3061 O 285.443 0.870674 1.54105 0
M  V30 3062 C 282.572 1.94769 2.82701 0
M  V30 3063 C 281.658 3.15315 2.83615 0
M  V30 3064 N 282.049 4.37295 2.54178 0
M  V30 3065 C 280.347 3.15962 3.14776 0
M  V30 3066 C 281.048 5.19015 2.62675 0
M  V30 3067 N 280.024 4.55142 2.97232 0
M  V30 3068 H 283.826 2.67691 1.2132 0
M  V30 3069 H 281.34 1.51787 0.577438 0
M  V30 3070 H 283.337 2.09056 3.60696 0
M  V30 3071 H 281.997 1.04073 3.07569 0
M  V30 3072 H 283.008 4.65091 2.27839 0
M  V30 3073 H 279.685 2.35144 3.44983 0
M  V30 3074 H 281.075 6.26305 2.43294 0
M  V30 3075 N 283.795 -0.628877 1.44509 0
M  V30 3076 C 284.725 -1.75187 1.54376 0
M  V30 3077 C 285.706 -1.65411 0.396618 0
M  V30 3078 O 286.891 -1.84137 0.617031 0
M  V30 3079 C 284.021 -3.13725 1.48976 0
M  V30 3080 C 282.975 -3.38291 2.62189 0
M  V30 3081 C 282.301 -4.76883 2.41841 0
M  V30 3082 C 283.601 -3.30632 4.04326 0
M  V30 3083 H 285.295 -1.67187 2.48373 0
M  V30 3084 H 282.841 -0.802909 1.19538 0
M  V30 3085 H 284.794 -3.92064 1.54478 0
M  V30 3086 H 283.518 -3.22515 0.514961 0
M  V30 3087 H 282.177 -2.62334 2.56079 0
M  V30 3088 H 281.825 -4.82378 1.42548 0
M  V30 3089 H 281.525 -4.94278 3.17747 0
M  V30 3090 H 283.049 -5.57449 2.49165 0
M  V30 3091 H 284.463 -3.98873 4.11793 0
M  V30 3092 H 282.86 -3.59561 4.80454 0
M  V30 3093 H 283.93 -2.28404 4.27738 0
M  V30 3094 N 285.273 -1.31445 -0.869486 0
M  V30 3095 C 286.498 -1.24256 -1.66058 0
M  V30 3096 C 286.923 0.188928 -1.87149 0
M  V30 3097 O 286.281 1.13522 -1.4136 0
M  V30 3098 C 286.329 -1.9924 -3.00559 0
M  V30 3099 O 285.433 -1.33007 -3.90362 0
M  V30 3100 H 284.774 -0.428973 -0.506831 0
M  V30 3101 H 287.304 -1.73521 -1.08404 0
M  V30 3102 H 287.314 -2.08854 -3.50491 0
M  V30 3103 H 285.989 -3.03342 -2.84528 0
M  V30 3104 H 284.566 -1.31848 -3.48813 0
M  V30 3105 N 286.751 1.08385 -1.14413 0
M  V30 3106 C 287.998 1.80776 -0.912482 0
M  V30 3107 C 288.326 1.86236 0.560934 0
M  V30 3108 O 287.581 1.33431 1.43159 0
M  V30 3109 C 287.88 3.26273 -1.45879 0
M  V30 3110 C 287.546 3.4093 -2.95089 0
M  V30 3111 C 286.208 3.44638 -3.35824 0
M  V30 3112 C 288.56 3.44591 -3.91033 0
M  V30 3113 C 285.888 3.49597 -4.71167 0
M  V30 3114 C 288.24 3.51086 -5.26233 0
M  V30 3115 C 286.904 3.53067 -5.6648 0
M  V30 3116 H 286.174 0.661507 -0.333901 0
M  V30 3117 H 288.821 1.27613 -1.42784 0
M  V30 3118 H 287.126 3.82146 -0.864376 0
M  V30 3119 H 288.823 3.80839 -1.2555 0
M  V30 3120 H 285.413 3.38736 -2.62594 0
M  V30 3121 H 289.597 3.40957 -3.60641 0
M  V30 3122 H 284.853 3.49424 -5.0171 0
M  V30 3123 H 289.027 3.52864 -6.00383 0
M  V30 3124 H 286.654 3.56662 -6.71339 0
M  V30 3125 N 288.23 0.939286 1.26551 0
M  V30 3126 C 289.479 0.581601 1.93133 0
M  V30 3127 C 289.792 -0.883224 1.74524 0
M  V30 3128 O 290.998 -1.3502 2.35546 0
M  V30 3129 C 289.454 0.989425 3.46032 0
M  V30 3130 C 289.062 2.47573 3.73379 0
M  V30 3131 C 290.806 0.703544 4.18629 0
M  V30 3132 C 288.713 2.82235 5.19709 0
M  V30 3133 H 287.643 0.213803 0.723052 0
M  V30 3134 H 290.294 1.14167 1.4366 0
M  V30 3135 H 288.676 0.357902 3.94379 0
M  V30 3136 H 289.85 3.15614 3.35744 0
M  V30 3137 H 288.165 2.73471 3.1401 0
M  V30 3138 H 290.762 0.938869 5.26393 0
M  V30 3139 H 291.105 -0.359639 4.14744 0
M  V30 3140 H 291.638 1.2947 3.76141 0
M  V30 3141 H 288.377 3.87509 5.28694 0
M  V30 3142 H 287.897 2.18854 5.58447 0
M  V30 3143 H 289.576 2.70599 5.87695 0
M  V30 3144 N 289.708 -1.40897 0.706093 0
M  V30 3145 C 290.618 -2.3455 0.0482286 0
M  V30 3146 C 291.634 -1.56796 -0.754396 0
M  V30 3147 O 292.81 -1.89228 -0.689538 0
M  V30 3148 C 289.875 -3.35625 -0.869303 0
M  V30 3149 C 288.936 -4.29261 -0.0576994 0
M  V30 3150 C 288.169 -5.25508 -0.931531 0
M  V30 3151 O 288.392 -5.27472 -2.17092 0
M  V30 3152 O 287.326 -6.00727 -0.375587 0
M  V30 3153 H 291.152 -2.92407 0.820476 0
M  V30 3154 H 288.737 -1.4193 0.4665 0
M  V30 3155 H 290.619 -3.97635 -1.39514 0
M  V30 3156 H 289.294 -2.80196 -1.62086 0
M  V30 3157 H 288.201 -3.70566 0.512988 0
M  V30 3158 H 289.534 -4.87817 0.655426 0
M  V30 3159 N 291.186 -0.45159 -1.50991 0
M  V30 3160 C 292.133 0.352625 -2.2809 0
M  V30 3161 C 293.103 1.0044 -1.32291 0
M  V30 3162 O 294.288 1.02058 -1.6121 0
M  V30 3163 C 291.428 1.43983 -3.13629 0
M  V30 3164 C 290.541 0.804772 -4.24438 0
M  V30 3165 C 289.676 1.86822 -4.97263 0
M  V30 3166 C 288.715 1.21236 -5.99973 0
M  V30 3167 N 287.852 2.2178 -6.66152 0
M  V30 3168 H 292.692 -0.311186 -2.96371 0
M  V30 3169 H 290.229 -0.165308 -1.46168 0
M  V30 3170 H 292.187 2.08161 -3.61559 0
M  V30 3171 H 290.817 2.07307 -2.47434 0
M  V30 3172 H 289.869 0.0509129 -3.80366 0
M  V30 3173 H 291.181 0.286076 -4.97979 0
M  V30 3174 H 290.335 2.58628 -5.48813 0
M  V30 3175 H 289.074 2.42068 -4.23385 0
M  V30 3176 H 288.079 0.479828 -5.47702 0
M  V30 3177 H 289.304 0.667051 -6.75816 0
M  V30 3178 H 287.25 2.76079 -5.95077 0
M  V30 3179 H 287.167 1.74841 -7.35504 0
M  V30 3180 H 288.435 2.93026 -7.22327 0
M  V30 3181 N 292.664 1.56529 -0.183458 0
M  V30 3182 C 293.91 1.97537 0.459036 0
M  V30 3183 C 294.243 1.06989 1.62071 0
M  V30 3184 O 293.518 0.11948 1.94133 0
M  V30 3185 C 293.801 3.47874 0.930368 0
M  V30 3186 C 293.654 4.492 -0.232317 0
M  V30 3187 C 294.973 4.01612 1.79989 0
M  V30 3188 H 292.092 0.718204 0.165383 0
M  V30 3189 H 294.734 1.88042 -0.272038 0
M  V30 3190 H 292.884 3.56095 1.55333 0
M  V30 3191 H 294.556 4.53027 -0.86972 0
M  V30 3192 H 292.799 4.24657 -0.885928 0
M  V30 3193 H 293.47 5.51823 0.139796 0
M  V30 3194 H 295.946 3.96097 1.27461 0
M  V30 3195 H 294.822 5.07195 2.09867 0
M  V30 3196 H 295.083 3.46163 2.74998 0
M  V30 3197 N 294.142 -0.090211 1.57342 0
M  V30 3198 C 295.389 -0.792807 1.86335 0
M  V30 3199 C 295.717 -1.78494 0.772662 0
M  V30 3200 O 294.972 -1.94305 -0.233258 0
M  V30 3201 C 295.271 -1.55222 3.21933 0
M  V30 3202 C 294.937 -0.701765 4.45406 0
M  V30 3203 C 293.599 -0.467334 4.78925 0
M  V30 3204 C 295.951 -0.11086 5.21082 0
M  V30 3205 C 293.279 0.367785 5.85546 0
M  V30 3206 C 295.631 0.711609 6.28585 0
M  V30 3207 C 294.295 0.956086 6.60617 0
M  V30 3208 H 293.565 -0.290109 0.681849 0
M  V30 3209 H 296.212 -0.0541332 1.91423 0
M  V30 3210 H 294.517 -2.3626 3.12551 0
M  V30 3211 H 296.214 -2.10032 3.41595 0
M  V30 3212 H 292.804 -0.894598 4.1916 0
M  V30 3213 H 296.988 -0.279129 4.95514 0
M  V30 3214 H 292.244 0.566128 6.08773 0
M  V30 3215 H 296.418 1.17632 6.86393 0
M  V30 3216 H 294.045 1.60499 7.43064 0
M  V30 3217 N 295.62 -1.53406 -0.361157 0
M  V30 3218 C 296.866 -1.70054 -1.10496 0
M  V30 3219 C 297.199 -0.453278 -1.88836 0
M  V30 3220 O 296.474 0.5495 -1.86576 0
M  V30 3221 C 296.757 -2.95317 -2.06058 0
M  V30 3222 C 296.61 -4.3021 -1.31298 0
M  V30 3223 C 297.929 -3.16193 -3.06121 0
M  V30 3224 H 295.048 -0.618799 -0.400321 0
M  V30 3225 H 297.69 -1.86052 -0.385318 0
M  V30 3226 H 295.84 -2.81809 -2.67425 0
M  V30 3227 H 297.512 -4.55538 -0.726807 0
M  V30 3228 H 295.755 -4.29421 -0.614853 0
M  V30 3229 H 296.426 -5.14 -2.01265 0
M  V30 3230 H 298.902 -3.28916 -2.5486 0
M  V30 3231 H 297.778 -4.05266 -3.70204 0
M  V30 3232 H 298.039 -2.31676 -3.76535 0
M  V30 3233 N 297.098 0.621204 -1.44841 0
M  V30 3234 C 298.045 1.73267 -1.5247 0
M  V30 3235 C 299.015 1.6189 -0.371611 0
M  V30 3236 O 300.2 1.81668 -0.58321 0
M  V30 3237 C 297.34 3.11545 -1.48438 0
M  V30 3238 C 296.453 3.33827 -2.74196 0
M  V30 3239 C 295.588 4.62133 -2.61929 0
M  V30 3240 C 294.627 4.77627 -3.82804 0
M  V30 3241 N 293.764 5.97219 -3.69153 0
M  V30 3242 H 298.604 1.66082 -2.47428 0
M  V30 3243 H 296.141 0.810026 -1.22788 0
M  V30 3244 H 298.099 3.91528 -1.4409 0
M  V30 3245 H 296.729 3.1772 -0.570402 0
M  V30 3246 H 295.781 2.47715 -2.88689 0
M  V30 3247 H 297.093 3.41153 -3.6389 0
M  V30 3248 H 296.247 5.50291 -2.5547 0
M  V30 3249 H 294.986 4.57182 -1.69811 0
M  V30 3250 H 293.991 3.87896 -3.89637 0
M  V30 3251 H 295.216 4.84385 -4.75971 0
M  V30 3252 H 293.162 5.93339 -2.79794 0
M  V30 3253 H 293.079 6.05644 -4.52472 0
M  V30 3254 H 294.347 6.87912 -3.66603 0
M  V30 3255 N 298.576 1.31904 0.862503 0
M  V30 3256 C 299.824 1.21776 1.61292 0
M  V30 3257 C 300.145 -0.222413 1.93727 0
M  V30 3258 O 299.415 -1.1451 1.58947 0
M  V30 3259 H 297.995 0.447717 0.597962 0
M  V30 3260 H 300.657 1.65326 1.03215 0
M  V30 3261 H 299.753 1.7948 2.5533 0
M  V30 3262 N 300.054 -1.07777 1.14986 0
M  V30 3263 C 300.964 -2.18404 0.856546 0
M  V30 3264 C 301.98 -1.73211 -0.165485 0
M  V30 3265 O 303.156 -2.01399 0.00755219 0
M  V30 3266 C 300.221 -3.44977 0.34526 0
M  V30 3267 C 299.282 -4.0476 1.43065 0
M  V30 3268 C 298.515 -5.25291 0.943663 0
M  V30 3269 O 298.738 -5.70004 -0.212426 0
M  V30 3270 O 297.672 -5.76638 1.72547 0
M  V30 3271 H 301.498 -2.45978 1.78125 0
M  V30 3272 H 299.083 -1.17033 0.928631 0
M  V30 3273 H 300.965 -4.21348 0.0663671 0
M  V30 3274 H 299.64 -3.18965 -0.551631 0
M  V30 3275 H 298.547 -3.29949 1.76309 0
M  V30 3276 H 299.88 -4.35035 2.30229 0
M  V30 3277 N 301.532 -0.945985 -1.26051 0
M  V30 3278 C 302.809 -0.513816 -1.88731 0
M  V30 3279 C 303.189 1.00872 -1.8544 0
M  V30 3280 O 302.537 1.8708 -1.312 0
M  V30 3281 C 302.747 -1.08062 -3.31849 0
M  V30 3282 C 304.095 -1.1522 -4.08668 0
M  V30 3283 O 305.119 -1.03155 -3.40936 0
M  V30 3284 O 303.978 -1.34044 -5.29806 0
M  V30 3285 H 301.072 -0.168193 -0.809716 0
M  V30 3286 H 303.618 -1.03886 -1.34186 0
M  V30 3287 H 302.39 -2.1241 -3.2863 0
M  V30 3288 H 302.013 -0.538307 -3.93939 0
M  V30 3289 N 303.011 1.40521 -0.713556 0
M  V30 3290 C 304.257 2.01221 -0.252564 0
M  V30 3291 C 304.59 1.56444 1.1506 0
M  V30 3292 O 303.865 0.783597 1.78017 0
M  V30 3293 C 304.148 3.58582 -0.330332 0
M  V30 3294 C 304.001 4.13437 -1.77173 0
M  V30 3295 C 305.32 4.39079 0.299641 0
M  V30 3296 H 302.439 0.731077 -0.0932471 0
M  V30 3297 H 305.081 1.67026 -0.905673 0
M  V30 3298 H 303.231 3.87844 0.225737 0
M  V30 3299 H 304.903 3.9498 -2.38303 0
M  V30 3300 H 303.146 3.67801 -2.3001 0
M  V30 3301 H 303.817 5.22597 -1.77755 0
M  V30 3302 H 306.293 4.15735 -0.174139 0
M  V30 3303 H 305.169 5.4848 0.214771 0
M  V30 3304 H 305.43 4.19915 1.38288 0
M  V30 3305 N 304.489 0.459591 1.5075 0
M  V30 3306 C 305.717 -0.0973749 2.06671 0
M  V30 3307 C 306.132 -1.34524 1.32472 0
M  V30 3308 O 305.489 -1.7827 0.390634 0
M  V30 3309 C 305.54 -0.39714 3.59312 0
M  V30 3310 O 305.261 0.801214 4.30711 0
M  V30 3311 C 306.762 -1.00234 4.31819 0
M  V30 3312 H 303.982 0.00195854 0.670997 0
M  V30 3313 H 306.526 0.645072 1.94059 0
M  V30 3314 H 304.681 -1.08951 3.71764 0
M  V30 3315 H 305.095 0.538857 5.21725 0
M  V30 3316 H 306.569 -1.16193 5.39632 0
M  V30 3317 H 307.046 -1.98939 3.91561 0
M  V30 3318 H 307.652 -0.348699 4.23868 0
M  V30 3319 N 305.967 -1.56429 0.191757 0
M  V30 3320 C 306.877 -2.22541 -0.742481 0
M  V30 3321 C 307.893 -1.22342 -1.23727 0
M  V30 3322 O 309.069 -1.55069 -1.28513 0
M  V30 3323 C 306.134 -2.8692 -1.94623 0
M  V30 3324 C 305.195 -4.02378 -1.49633 0
M  V30 3325 C 304.428 -4.63678 -2.6427 0
M  V30 3326 O 304.651 -4.23895 -3.81666 0
M  V30 3327 O 303.585 -5.53202 -2.37174 0
M  V30 3328 H 307.411 -3.02977 -0.209462 0
M  V30 3329 H 304.996 -1.49353 -0.0373832 0
M  V30 3330 H 306.878 -3.27663 -2.64982 0
M  V30 3331 H 305.553 -2.09466 -2.46791 0
M  V30 3332 H 304.46 -3.66265 -0.761636 0
M  V30 3333 H 305.793 -4.81487 -1.02134 0
M  V30 3334 N 307.445 0.0818655 -1.57387 0
M  V30 3335 C 308.392 1.09834 -2.0299 0
M  V30 3336 C 309.362 1.39043 -0.908639 0
M  V30 3337 O 310.547 1.50282 -1.17559 0
M  V30 3338 C 307.687 2.40971 -2.47037 0
M  V30 3339 C 306.8 2.18379 -3.7274 0
M  V30 3340 C 305.935 3.43008 -4.0561 0
M  V30 3341 C 304.974 3.15736 -5.24383 0
M  V30 3342 N 304.111 4.32667 -5.52941 0
M  V30 3343 H 308.951 0.702472 -2.89602 0
M  V30 3344 H 306.488 0.33531 -1.43227 0
M  V30 3345 H 308.446 3.1752 -2.70623 0
M  V30 3346 H 307.076 2.78379 -1.63417 0
M  V30 3347 H 306.128 1.32569 -3.56552 0
M  V30 3348 H 307.44 1.94227 -4.59431 0
M  V30 3349 H 306.594 4.27958 -4.30043 0
M  V30 3350 H 305.333 3.70225 -3.17466 0
M  V30 3351 H 304.338 2.2918 -4.99757 0
M  V30 3352 H 305.563 2.8985 -6.14136 0
M  V30 3353 H 303.509 4.59935 -4.67756 0
M  V30 3354 H 303.426 4.11753 -6.34031 0
M  V30 3355 H 304.694 5.18644 -5.81918 0
M  V30 3356 N 308.923 1.53595 0.353017 0
M  V30 3357 C 310.169 1.70638 1.09593 0
M  V30 3358 C 310.502 0.463286 1.88593 0
M  V30 3359 O 309.777 -0.539597 1.86865 0
M  V30 3360 C 310.06 2.96406 2.04489 0
M  V30 3361 C 309.913 4.30901 1.29014 0
M  V30 3362 C 311.232 3.17812 3.0444 0
M  V30 3363 H 308.351 0.620913 0.397034 0
M  V30 3364 H 310.993 1.86254 0.375446 0
M  V30 3365 H 309.143 2.83223 2.65927 0
M  V30 3366 H 310.815 4.55917 0.702638 0
M  V30 3367 H 309.058 4.29741 0.592071 0
M  V30 3368 H 309.729 5.1506 1.98537 0
M  V30 3369 H 312.205 3.30263 2.53112 0
M  V30 3370 H 311.081 4.07223 3.6805 0
M  V30 3371 H 311.342 2.33669 3.75301 0
M  V30 3372 N 310.401 -0.613514 1.45168 0
M  V30 3373 C 311.648 -1.37268 1.48875 0
M  V30 3374 C 311.976 -1.94077 0.128161 0
M  V30 3375 O 311.231 -1.75178 -0.872416 0
M  V30 3376 C 311.53 -2.54347 2.51083 0
M  V30 3377 C 311.196 -2.1572 3.95949 0
M  V30 3378 C 309.858 -2.04899 4.35396 0
M  V30 3379 C 312.21 -1.85485 4.87078 0
M  V30 3380 C 309.538 -1.62057 5.63875 0
M  V30 3381 C 311.89 -1.4413 6.15962 0
M  V30 3382 C 310.554 -1.31863 6.54346 0
M  V30 3383 H 309.824 -0.502299 0.544773 0
M  V30 3384 H 312.471 -0.694021 1.78481 0
M  V30 3385 H 310.776 -3.27524 2.15024 0
M  V30 3386 H 312.473 -3.12577 2.51191 0
M  V30 3387 H 309.063 -2.25066 3.64751 0
M  V30 3388 H 313.247 -1.92745 4.57343 0
M  V30 3389 H 308.503 -1.51177 5.92415 0
M  V30 3390 H 312.677 -1.19778 6.86022 0
M  V30 3391 H 310.304 -0.984392 7.538 0
M  V30 3392 N 311.879 -1.3236 -0.855495 0
M  V30 3393 C 312.789 -1.23221 -1.99634 0
M  V30 3394 C 313.805 -0.145983 -1.73387 0
M  V30 3395 O 314.981 -0.366502 -1.98037 0
M  V30 3396 C 312.046 -0.954782 -3.33294 0
M  V30 3397 C 311.107 -2.12937 -3.72769 0
M  V30 3398 C 310.34 -1.86508 -5.00051 0
M  V30 3399 O 310.563 -0.807231 -5.64659 0
M  V30 3400 O 309.497 -2.72591 -5.36636 0
M  V30 3401 H 313.323 -2.19126 -2.1028 0
M  V30 3402 H 310.908 -1.12241 -0.986018 0
M  V30 3403 H 312.79 -0.816519 -4.13414 0
M  V30 3404 H 311.465 -0.0258854 -3.2369 0
M  V30 3405 H 310.372 -2.3231 -2.93228 0
M  V30 3406 H 311.705 -3.04102 -3.87018 0
M  V30 3407 N 313.357 1.07166 -1.15556 0
M  V30 3408 C 314.305 2.16517 -0.8499 0
M  V30 3409 C 315.299 1.68468 0.177454 0
M  V30 3410 O 316.505 1.79971 0.0323026 0
M  V30 3411 H 312.88 0.706652 -0.25719 0
M  V30 3412 H 314.851 2.39514 -1.77976 0
M  V30 3413 C 313.6 3.45855 -0.357682 0
M  V30 3414 H 312.923 3.83214 -1.13961 0
M  V30 3415 H 314.363 4.23607 -0.182489 0
M  V30 3416 C 312.822 3.24062 0.921152 0
M  V30 3417 O 313.352 3.48813 1.9923 0
M  V30 3418 N 311.558 2.77539 0.86141 0
M  V30 3419 H 311.105 2.57598 -0.0104408 0
M  V30 3420 H 311.063 2.63337 1.71758 0
M  V30 3421 N 314.835 0.952656 1.25548 0
M  V30 3422 C 315.765 0.489287 2.28316 0
M  V30 3423 C 316.746 -0.463359 1.63667 0
M  V30 3424 O 317.931 -0.36274 1.90782 0
M  V30 3425 C 315.061 -0.235603 3.465 0
M  V30 3426 C 314.015 0.631593 4.23314 0
M  V30 3427 C 313.341 -0.223923 5.34231 0
M  V30 3428 C 314.641 1.90871 4.86174 0
M  V30 3429 H 316.335 1.34822 2.67326 0
M  V30 3430 H 313.881 0.649728 1.28509 0
M  V30 3431 H 315.834 -0.570882 4.17515 0
M  V30 3432 H 314.558 -1.12877 3.06474 0
M  V30 3433 H 313.217 0.949929 3.54079 0
M  V30 3434 H 312.865 -1.11678 4.90446 0
M  V30 3435 H 312.565 0.35299 5.86539 0
M  V30 3436 H 314.089 -0.554214 6.0808 0
M  V30 3437 H 315.503 1.63997 5.49343 0
M  V30 3438 H 313.9 2.43112 5.4865 0
M  V30 3439 H 314.97 2.61304 4.08471 0
M  V30 3440 N 316.313 -1.40141 0.720998 0
M  V30 3441 C 317.26 -2.30688 0.071919 0
M  V30 3442 C 318.23 -1.48476 -0.744584 0
M  V30 3443 O 319.415 -1.77201 -0.707423 0
M  V30 3444 C 316.555 -3.34724 -0.839855 0
M  V30 3445 C 315.668 -4.31998 -0.0122438 0
M  V30 3446 C 314.803 -5.23102 -0.923995 0
M  V30 3447 C 313.842 -6.12033 -0.0907969 0
M  V30 3448 N 312.979 -6.95537 -0.957718 0
M  V30 3449 H 317.819 -2.85628 0.849755 0
M  V30 3450 H 315.356 -1.40653 0.430726 0
M  V30 3451 H 317.314 -3.93618 -1.38279 0
M  V30 3452 H 315.944 -2.81274 -1.58381 0
M  V30 3453 H 314.996 -3.74841 0.64794 0
M  V30 3454 H 316.308 -4.94772 0.632595 0
M  V30 3455 H 315.462 -5.86953 -1.53527 0
M  V30 3456 H 314.201 -4.60615 -1.60264 0
M  V30 3457 H 313.206 -5.47207 0.533377 0
M  V30 3458 H 314.431 -6.76581 0.584428 0
M  V30 3459 H 312.377 -6.35633 -1.62192 0
M  V30 3460 H 312.294 -7.55099 -0.36904 0
M  V30 3461 H 313.562 -7.63832 -1.555 0
M  V30 3462 N 317.792 -0.46758 -1.50504 0
M  V30 3463 C 318.722 0.318381 -2.31319 0
M  V30 3464 C 319.703 0.993564 -1.38066 0
M  V30 3465 O 320.888 0.991411 -1.66987 0
M  V30 3466 C 318.018 1.40275 -3.17711 0
M  V30 3467 C 316.972 0.849373 -4.19487 0
M  V30 3468 C 316.298 2.03177 -4.94594 0
M  V30 3469 C 317.598 -0.136942 -5.2212 0
M  V30 3470 H 319.292 -0.356106 -2.97275 0
M  V30 3471 H 316.838 -0.172703 -1.42961 0
M  V30 3472 H 318.791 1.96004 -3.73042 0
M  V30 3473 H 317.515 2.10596 -2.49634 0
M  V30 3474 H 316.174 0.314076 -3.65252 0
M  V30 3475 H 315.822 2.72187 -4.22993 0
M  V30 3476 H 315.522 1.66774 -5.63436 0
M  V30 3477 H 317.046 2.59403 -5.52759 0
M  V30 3478 H 318.46 0.331056 -5.72343 0
M  V30 3479 H 316.857 -0.41507 -5.98663 0
M  V30 3480 H 317.927 -1.06398 -4.73083 0
M  V30 3481 N 319.27 1.56325 -0.20005 0
M  V30 3482 C 320.217 2.1932 0.718833 0
M  V30 3483 C 321.187 1.14198 1.20615 0
M  V30 3484 O 322.372 1.42469 1.26914 0
M  V30 3485 C 319.512 2.86041 1.93066 0
M  V30 3486 C 318.625 4.05702 1.48425 0
M  V30 3487 C 317.76 4.60266 2.65196 0
M  V30 3488 C 316.799 5.72273 2.17185 0
M  V30 3489 N 315.936 6.21221 3.27152 0
M  V30 3490 H 320.776 2.97486 0.17489 0
M  V30 3491 H 318.313 1.46911 0.0745794 0
M  V30 3492 H 320.271 3.22897 2.64184 0
M  V30 3493 H 318.901 2.1043 2.44783 0
M  V30 3494 H 317.953 3.74475 0.668755 0
M  V30 3495 H 319.265 4.86699 1.09204 0
M  V30 3496 H 318.419 4.99453 3.4443 0
M  V30 3497 H 317.158 3.78386 3.07693 0
M  V30 3498 H 316.163 5.3261 1.36407 0
M  V30 3499 H 317.388 6.55974 1.75713 0
M  V30 3500 H 315.334 5.42263 3.69171 0
M  V30 3501 H 315.251 6.97284 2.92116 0
M  V30 3502 H 316.519 6.65063 4.06585 0
M  V30 3503 N 320.748 -0.0735177 1.57428 0
M  V30 3504 C 321.678 -1.0879 2.06608 0
M  V30 3505 C 322.659 -1.40473 0.959237 0
M  V30 3506 O 323.844 -1.5013 1.23185 0
M  V30 3507 C 320.974 -2.40183 2.50857 0
M  V30 3508 C 319.928 -2.22858 3.65402 0
M  V30 3509 C 319.254 -3.59619 3.957 0
M  V30 3510 C 320.554 -1.65123 4.95511 0
M  V30 3511 H 322.248 -0.678673 2.91607 0
M  V30 3512 H 319.794 -0.325013 1.40284 0
M  V30 3513 H 321.747 -3.11437 2.83874 0
M  V30 3514 H 320.471 -2.83083 1.62885 0
M  V30 3515 H 319.13 -1.54045 3.32664 0
M  V30 3516 H 318.778 -4.00086 3.04861 0
M  V30 3517 H 318.478 -3.48866 4.72828 0
M  V30 3518 H 320.002 -4.32306 4.31212 0
M  V30 3519 H 321.416 -2.26241 5.26771 0
M  V30 3520 H 319.813 -1.65071 5.7695 0
M  V30 3521 H 320.883 -0.612559 4.81015 0
M  V30 3522 N 322.226 -1.5378 -0.344866 0
M  V30 3523 C 323.451 -1.75211 -1.10977 0
M  V30 3524 C 323.876 -0.48936 -1.81623 0
M  V30 3525 O 323.234 0.557925 -1.72502 0
M  V30 3526 C 323.282 -2.93147 -2.09993 0
M  V30 3527 O 322.386 -2.63203 -3.17487 0
M  V30 3528 H 321.727 -0.581241 -0.321021 0
M  V30 3529 H 324.257 -2.00738 -0.395661 0
M  V30 3530 H 324.267 -3.19898 -2.53237 0
M  V30 3531 H 322.942 -3.84731 -1.5797 0
M  V30 3532 H 321.519 -2.47336 -2.79069 0
M  V30 3533 N 323.704 0.605807 -1.45491 0
M  V30 3534 C 324.652 1.73754 -1.54636 0
M  V30 3535 C 325.646 1.64207 -0.416219 0
M  V30 3536 O 326.852 1.69979 -0.592199 0
M  V30 3537 H 323.227 0.574073 -0.485741 0
M  V30 3538 H 325.198 1.63169 -2.49837 0
M  V30 3539 C 323.947 3.12135 -1.53189 0
M  V30 3540 H 323.27 3.20141 -2.39478 0
M  V30 3541 H 324.71 3.91147 -1.63645 0
M  V30 3542 C 323.169 3.35921 -0.256616 0
M  V30 3543 O 323.699 3.96194 0.662798 0
M  V30 3544 N 321.905 2.90204 -0.151751 0
M  V30 3545 H 321.452 2.41336 -0.90081 0
M  V30 3546 H 321.41 3.06492 0.700699 0
M  V30 3547 N 325.182 1.32811 0.848464 0
M  V30 3548 C 326.431 1.23075 1.59798 0
M  V30 3549 C 326.744 -0.204419 1.94529 0
M  V30 3550 O 327.95 -0.423701 2.68173 0
M  V30 3551 C 326.406 2.15594 2.88179 0
M  V30 3552 C 326.014 3.64228 2.60849 0
M  V30 3553 C 327.758 2.14709 3.66197 0
M  V30 3554 C 325.665 4.48689 3.85269 0
M  V30 3555 H 324.595 0.457091 0.599653 0
M  V30 3556 H 327.246 1.57813 0.936342 0
M  V30 3557 H 325.628 1.73778 3.55833 0
M  V30 3558 H 326.802 4.14424 2.01467 0
M  V30 3559 H 325.117 3.67306 1.96151 0
M  V30 3560 H 327.714 2.75046 4.58534 0
M  V30 3561 H 328.057 1.13966 4.00397 0
M  V30 3562 H 328.59 2.54837 3.05455 0
M  V30 3563 H 325.329 5.5027 3.56207 0
M  V30 3564 H 324.849 4.03241 4.44024 0
M  V30 3565 H 326.528 4.62006 4.52946 0
M  V30 3566 N 326.66 -1.06551 1.16123 0
M  V30 3567 C 328.071 -1.60768 0.949232 0
M  V30 3568 C 328.422 -1.89523 -0.507508 0
M  V30 3569 O 327.547 -1.66671 -1.38021 0
M  V30 3570 C 328.142 -2.92086 1.71671 0
M  V30 3571 C 326.701 -3.43015 1.54977 0
M  V30 3572 C 325.848 -2.16947 1.72711 0
M  V30 3573 H 328.799 -0.895354 1.31031 0
M  V30 3574 H 328.82 -3.6138 1.19099 0
M  V30 3575 H 328.332 -2.71127 2.7769 0
M  V30 3576 H 326.433 -3.69039 0.513873 0
M  V30 3577 H 326.546 -4.18516 2.33198 0
M  V30 3578 H 324.91 -2.27041 1.15431 0
M  V30 3579 H 325.693 -1.98473 2.80113 0
M  V30 3580 N 328.138 -0.959301 -1.25041 0
M  V30 3581 C 329.415 -0.533805 -1.88175 0
M  V30 3582 C 329.795 0.988994 -1.865 0
M  V30 3583 O 329.143 1.85677 -1.33177 0
M  V30 3584 C 329.353 -1.11575 -3.30684 0
M  V30 3585 C 330.701 -1.19548 -4.07423 0
M  V30 3586 O 331.725 -1.06765 -3.39823 0
M  V30 3587 O 330.584 -1.39656 -5.28354 0
M  V30 3588 H 327.678 -0.176772 -0.807887 0
M  V30 3589 H 330.224 -1.05303 -1.33076 0
M  V30 3590 H 328.996 -2.15884 -3.26358 0
M  V30 3591 H 328.619 -0.580059 -3.93346 0
M  V30 3592 N 329.616 1.39756 -0.72842 0
M  V30 3593 C 330.526 2.34444 -0.0855374 0
M  V30 3594 C 331.542 1.57976 0.729356 0
M  V30 3595 O 332.718 1.90301 0.659346 0
M  V30 3596 C 329.783 3.36965 0.815798 0
M  V30 3597 C 328.844 4.29299 -0.0105996 0
M  V30 3598 C 328.077 5.26923 0.84781 0
M  V30 3599 O 328.3 5.30859 2.08673 0
M  V30 3600 O 327.234 6.01249 0.279969 0
M  V30 3601 H 331.06 2.91065 -0.866892 0
M  V30 3602 H 328.645 1.4117 -0.48902 0
M  V30 3603 H 330.527 3.99804 1.33171 0
M  V30 3604 H 329.202 2.82739 1.57608 0
M  V30 3605 H 328.109 3.69703 -0.571877 0
M  V30 3606 H 329.442 4.86712 -0.73295 0
M  V30 3607 N 331.094 0.475555 1.50254 0
M  V30 3608 C 332.371 -0.139685 1.95101 0
M  V30 3609 C 332.751 -1.56555 1.41611 0
M  V30 3610 O 332.099 -2.19956 0.618993 0
M  V30 3611 C 332.309 -0.0784298 3.48912 0
M  V30 3612 C 333.657 -0.265095 4.23772 0
M  V30 3613 O 334.681 -0.154808 3.55863 0
M  V30 3614 O 333.54 -0.488327 5.44314 0
M  V30 3615 H 330.634 -0.109236 0.819754 0
M  V30 3616 H 333.18 0.536276 1.61004 0
M  V30 3617 H 331.952 0.916918 3.80405 0
M  V30 3618 H 331.575 -0.795655 3.89558 0
M  V30 3619 N 332.573 -1.56217 0.208337 0
M  V30 3620 C 333.82 -1.97949 -0.42692 0
M  V30 3621 C 334.148 -1.09562 -1.60706 0
M  V30 3622 O 333.403 -0.137616 -1.95216 0
M  V30 3623 C 333.702 -3.45441 -0.916797 0
M  V30 3624 C 333.368 -4.50646 0.151391 0
M  V30 3625 C 332.03 -4.79139 0.444867 0
M  V30 3626 C 334.382 -5.13811 0.874492 0
M  V30 3627 C 331.71 -5.68084 1.46619 0
M  V30 3628 C 334.062 -6.03861 1.88506 0
M  V30 3629 C 332.726 -6.30704 2.18559 0
M  V30 3630 H 331.996 -0.724345 -0.156221 0
M  V30 3631 H 334.643 -1.89006 0.308084 0
M  V30 3632 H 332.948 -3.51521 -1.73032 0
M  V30 3633 H 334.645 -3.75094 -1.41794 0
M  V30 3634 H 331.235 -4.28511 -0.0875068 0
M  V30 3635 H 335.419 -4.91879 0.660996 0
M  V30 3636 H 330.675 -5.87151 1.7048 0
M  V30 3637 H 334.849 -6.51861 2.45051 0
M  V30 3638 H 332.476 -6.99424 2.97843 0
M  V30 3639 N 334.051 0.0651679 -1.57465 0
M  V30 3640 C 335.462 0.616213 -1.76238 0
M  V30 3641 C 335.813 1.7756 -0.834689 0
M  V30 3642 O 334.938 2.1639 -0.0204156 0
M  V30 3643 C 335.533 1.12462 -3.1959 0
M  V30 3644 C 334.092 1.62147 -3.39684 0
M  V30 3645 C 333.239 0.543739 -2.71917 0
M  V30 3646 H 336.19 -0.161022 -1.57881 0
M  V30 3647 H 336.211 1.99324 -3.24114 0
M  V30 3648 H 335.723 0.280592 -3.87084 0
M  V30 3649 H 333.824 2.48854 -2.77313 0
M  V30 3650 H 333.937 1.69385 -4.48158 0
M  V30 3651 H 332.301 0.990352 -2.34657 0
M  V30 3652 H 333.084 -0.290216 -3.42071 0
M  V30 3653 N 335.529 1.53961 0.336706 0
M  V30 3654 C 336.757 1.75483 1.09605 0
M  V30 3655 C 337.172 0.4972 1.82136 0
M  V30 3656 O 336.529 -0.53149 1.74589 0
M  V30 3657 C 336.58 2.93943 2.10428 0
M  V30 3658 O 336.301 4.14842 1.40846 0
M  V30 3659 C 337.802 3.27571 2.98684 0
M  V30 3660 H 335.022 0.586166 0.326574 0
M  V30 3661 H 337.566 2.00808 0.38683 0
M  V30 3662 H 335.721 2.70929 2.76905 0
M  V30 3663 H 336.135 4.81383 2.08255 0
M  V30 3664 H 337.609 4.13791 3.6535 0
M  V30 3665 H 338.086 2.44168 3.65074 0
M  V30 3666 H 338.692 3.52615 2.37787 0
M  V30 3667 N 337.007 -0.598083 1.45811 0
M  V30 3668 C 338.253 -1.35679 1.51535 0
M  V30 3669 C 338.608 -1.91745 0.15864 0
M  V30 3670 O 337.901 -1.72654 -0.830724 0
M  V30 3671 C 338.095 -2.51669 2.53766 0
M  V30 3672 C 337.924 -2.06963 3.99245 0
M  V30 3673 C 336.694 -1.92693 4.67116 0
M  V30 3674 C 338.892 -1.63855 4.875 0
M  V30 3675 N 336.874 -1.41897 5.97276 0
M  V30 3676 C 338.245 -1.24541 6.07363 0
M  V30 3677 C 340.3 -1.51533 4.74281 0
M  V30 3678 C 339.003 -0.741354 7.15469 0
M  V30 3679 C 341.029 -1.0253 5.82444 0
M  V30 3680 C 340.391 -0.641869 7.01469 0
M  V30 3681 H 336.49 -0.490042 0.609412 0
M  V30 3682 H 339.074 -0.682687 1.82339 0
M  V30 3683 H 337.245 -3.16663 2.24898 0
M  V30 3684 H 338.977 -3.18578 2.4958 0
M  V30 3685 H 335.732 -2.1417 4.22408 0
M  V30 3686 H 336.156 -1.18704 6.66512 0
M  V30 3687 H 340.798 -1.798 3.82664 0
M  V30 3688 H 338.516 -0.446243 8.06867 0
M  V30 3689 H 342.102 -0.934088 5.74253 0
M  V30 3690 H 340.982 -0.268531 7.8374 0
M  V30 3691 N 338.485 -1.33259 -0.841409 0
M  V30 3692 C 339.732 -1.24572 -1.5965 0
M  V30 3693 C 340.06 0.189137 -1.93578 0
M  V30 3694 O 339.315 1.14566 -1.5866 0
M  V30 3695 C 339.614 -2.06381 -2.9179 0
M  V30 3696 C 339.28 -3.556 -2.77235 0
M  V30 3697 C 337.942 -3.96282 -2.72973 0
M  V30 3698 C 340.294 -4.50433 -2.62221 0
M  V30 3699 C 337.622 -5.30017 -2.51592 0
M  V30 3700 C 339.974 -5.84327 -2.42374 0
M  V30 3701 C 338.638 -6.24194 -2.36512 0
M  V30 3702 H 337.908 -0.455842 -0.5842 0
M  V30 3703 H 340.555 -1.6482 -0.975016 0
M  V30 3704 H 338.86 -1.58903 -3.5813 0
M  V30 3705 H 340.557 -1.97019 -3.49263 0
M  V30 3706 H 337.147 -3.23298 -2.81384 0
M  V30 3707 H 341.331 -4.19914 -2.64549 0
M  V30 3708 H 336.587 -5.59947 -2.45499 0
M  V30 3709 H 340.761 -6.57414 -2.29739 0
M  V30 3710 H 338.388 -7.27759 -2.19706 0
M  V30 3711 N 339.963 1.05934 -1.16686 0
M  V30 3712 C 341.193 1.82226 -0.973515 0
M  V30 3713 C 341.601 1.8297 0.481532 0
M  V30 3714 O 340.944 1.25009 1.34604 0
M  V30 3715 C 341.006 3.29897 -1.42858 0
M  V30 3716 C 340.67 3.52849 -2.90425 0
M  V30 3717 C 341.667 3.45595 -3.88407 0
M  V30 3718 C 339.352 3.80053 -3.28428 0
M  V30 3719 C 341.346 3.65217 -5.22394 0
M  V30 3720 C 339.033 3.99325 -4.62583 0
M  V30 3721 C 340.031 3.91905 -5.59374 0
M  V30 3722 O 339.719 4.10647 -6.91104 0
M  V30 3723 H 339.451 0.581314 -0.345036 0
M  V30 3724 H 342.005 1.3453 -1.55212 0
M  V30 3725 H 340.235 3.78472 -0.793477 0
M  V30 3726 H 341.924 3.87692 -1.20207 0
M  V30 3727 H 342.69 3.24564 -3.60393 0
M  V30 3728 H 338.569 3.84936 -2.53664 0
M  V30 3729 H 342.113 3.59341 -5.9793 0
M  V30 3730 H 338.01 4.19846 -4.90306 0
M  V30 3731 H 338.778 4.27915 -6.97733 0
M  V30 3732 N 341.441 0.965919 1.2453 0
M  V30 3733 C 342.718 0.543777 1.87889 0
M  V30 3734 C 343.098 -0.97909 1.87021 0
M  V30 3735 O 342.446 -1.84969 1.3416 0
M  V30 3736 C 342.656 1.13327 3.30088 0
M  V30 3737 C 344.004 1.21707 4.06783 0
M  V30 3738 O 345.028 1.08566 3.39252 0
M  V30 3739 O 343.887 1.42456 5.27606 0
M  V30 3740 H 340.981 0.181054 0.806938 0
M  V30 3741 H 343.527 1.06007 1.32516 0
M  V30 3742 H 342.299 2.17612 3.25209 0
M  V30 3743 H 341.922 0.600911 3.93033 0
M  V30 3744 N 342.919 -1.39368 0.735821 0
M  V30 3745 C 344.144 -2.05319 0.293052 0
M  V30 3746 C 344.569 -1.55115 -1.064 0
M  V30 3747 O 343.927 -0.695261 -1.67439 0
M  V30 3748 C 343.975 -3.59305 0.305323 0
M  V30 3749 O 343.079 -4.06299 -0.706761 0
M  V30 3750 H 342.42 -0.650529 0.13307 0
M  V30 3751 H 344.95 -1.78386 1.00197 0
M  V30 3752 H 344.96 -4.07724 0.149997 0
M  V30 3753 H 343.635 -3.95207 1.29553 0
M  V30 3754 H 342.212 -3.69292 -0.517504 0
M  V30 3755 N 344.397 -0.483516 -1.5 0
M  V30 3756 C 345.643 0.0672592 -2.02688 0
M  V30 3757 C 345.976 1.38247 -1.36387 0
M  V30 3758 O 345.251 1.88131 -0.493675 0
M  V30 3759 C 345.534 0.238109 -3.59312 0
M  V30 3760 C 345.387 -1.099 -4.36168 0
M  V30 3761 C 346.706 0.986916 -4.28892 0
M  V30 3762 H 343.825 0.0229696 -0.736642 0
M  V30 3763 H 346.467 -0.631527 -1.79197 0
M  V30 3764 H 344.617 0.8333 -3.79458 0
M  V30 3765 H 346.289 -1.73172 -4.27562 0
M  V30 3766 H 344.532 -1.69261 -3.99416 0
M  V30 3767 H 345.203 -0.932954 -5.44059 0
M  V30 3768 H 347.679 0.482302 -4.13295 0
M  V30 3769 H 346.555 1.07527 -5.38265 0
M  V30 3770 H 346.816 2.0265 -3.92919 0
M  V30 3771 N 345.875 1.56104 -0.216619 0
M  V30 3772 C 347.291 1.58995 0.13886 0
M  V30 3773 C 347.491 1.23333 1.59346 0
M  V30 3774 O 346.547 0.966234 2.33281 0
M  V30 3775 C 347.86 3.00143 -0.182968 0
M  V30 3776 C 349.408 3.12751 -0.124807 0
M  V30 3777 C 349.883 4.56068 -0.420241 0
M  V30 3778 N 351.374 4.61723 -0.369634 0
M  V30 3779 C 352.109 5.70542 -0.571789 0
M  V30 3780 N 351.605 6.87744 -0.835453 0
M  V30 3781 N 353.398 5.59831 -0.504563 0
M  V30 3782 H 345.549 1.77562 -1.16557 0
M  V30 3783 H 347.812 0.825091 -0.466828 0
M  V30 3784 H 347.518 3.30871 -1.19237 0
M  V30 3785 H 347.392 3.73813 0.504367 0
M  V30 3786 H 349.779 2.81822 0.875223 0
M  V30 3787 H 349.86 2.41421 -0.845544 0
M  V30 3788 H 349.504 4.87713 -1.41769 0
M  V30 3789 H 349.434 5.25617 0.321631 0
M  V30 3790 H 351.925 3.77502 -0.173338 0
M  V30 3791 H 352.238 7.66587 -0.977938 0
M  V30 3792 H 350.583 6.895 -0.872592 0
M  V30 3793 H 353.774 4.67145 -0.298842 0
M  V30 3794 H 353.947 6.44573 -0.665519 0
M  V30 3795 N 347.353 -0.0568162 1.57498 0
M  V30 3796 C 348.283 -1.06593 2.0775 0
M  V30 3797 C 349.264 -1.39448 0.974082 0
M  V30 3798 O 350.449 -1.48815 1.24771 0
M  V30 3799 C 347.579 -2.37509 2.5339 0
M  V30 3800 C 346.533 -2.1897 3.67745 0
M  V30 3801 C 345.859 -3.55402 3.99492 0
M  V30 3802 C 347.159 -1.59859 4.97235 0
M  V30 3803 H 348.853 -0.647706 2.9231 0
M  V30 3804 H 346.399 -0.310116 1.40621 0
M  V30 3805 H 348.352 -3.08409 2.87162 0
M  V30 3806 H 347.076 -2.8134 1.65878 0
M  V30 3807 H 345.735 -1.50508 3.3428 0
M  V30 3808 H 345.383 -3.9683 3.09088 0
M  V30 3809 H 345.083 -3.43831 4.76502 0
M  V30 3810 H 346.607 -4.27708 4.35773 0
M  V30 3811 H 348.021 -2.20642 5.29141 0
M  V30 3812 H 346.418 -1.58942 5.78669 0
M  V30 3813 H 347.488 -0.561506 4.81638 0
M  V30 3814 N 348.832 -1.54138 -0.328536 0
M  V30 3815 C 350.081 -1.71318 -1.06456 0
M  V30 3816 C 350.394 -0.491109 -1.89334 0
M  V30 3817 O 351.6 -0.54416 -2.65991 0
M  V30 3818 C 350.056 -3.03 -1.94214 0
M  V30 3819 C 349.664 -4.32595 -1.16471 0
M  V30 3820 C 351.408 -3.29544 -2.67583 0
M  V30 3821 C 349.315 -5.55341 -2.03347 0
M  V30 3822 H 348.245 -0.638429 -0.401155 0
M  V30 3823 H 350.896 -1.80633 -0.323106 0
M  V30 3824 H 349.278 -2.87579 -2.72239 0
M  V30 3825 H 350.452 -4.58766 -0.432525 0
M  V30 3826 H 348.767 -4.12777 -0.548063 0
M  V30 3827 H 351.364 -4.18444 -3.3288 0
M  V30 3828 H 351.707 -2.47206 -3.34955 0
M  V30 3829 H 352.24 -3.45809 -1.96623 0
M  V30 3830 H 348.979 -6.40268 -1.40491 0
M  V30 3831 H 348.499 -5.33397 -2.74313 0
M  V30 3832 H 350.178 -5.91557 -2.62049 0
M  V30 3833 N 350.31 0.590341 -1.46126 0
M  V30 3834 C 351.556 1.35082 -1.51264 0
M  V30 3835 C 351.889 1.93534 -0.160711 0
M  V30 3836 O 351.164 1.76045 0.826956 0
M  V30 3837 C 351.447 2.48588 -2.6053 0
M  V30 3838 C 351.3 1.95221 -4.05227 0
M  V30 3839 C 352.619 3.50662 -2.6594 0
M  V30 3840 H 349.738 0.489803 -0.550692 0
M  V30 3841 H 352.38 0.663887 -1.78024 0
M  V30 3842 H 350.53 3.07186 -2.37843 0
M  V30 3843 H 352.202 1.41139 -4.39178 0
M  V30 3844 H 350.445 1.26101 -4.15068 0
M  V30 3845 H 351.116 2.77121 -4.77397 0
M  V30 3846 H 353.592 3.01934 -2.86313 0
M  V30 3847 H 352.468 4.27551 -3.44226 0
M  V30 3848 H 352.729 4.07399 -1.71694 0
M  V30 3849 N 351.788 1.33704 0.83433 0
M  V30 3850 C 352.736 1.24323 1.96587 0
M  V30 3851 C 353.73 0.143659 1.6879 0
M  V30 3852 O 354.936 0.30791 1.77347 0
M  V30 3853 H 351.311 0.385925 0.645419 0
M  V30 3854 H 353.282 2.19978 2.01624 0
M  V30 3855 C 352.031 1.00394 3.32891 0
M  V30 3856 H 351.354 1.84231 3.54822 0
M  V30 3857 H 352.794 0.97862 4.12552 0
M  V30 3858 C 351.253 -0.293047 3.35623 0
M  V30 3859 O 351.783 -1.29823 3.80143 0
M  V30 3860 N 349.989 -0.322174 2.88809 0
M  V30 3861 H 349.536 0.496379 2.52772 0
M  V30 3862 H 349.494 -1.18977 2.91019 0
M  V30 3863 N 353.266 -1.05314 1.17247 0
M  V30 3864 C 354.677 -1.59753 0.96623 0
M  V30 3865 C 355.028 -1.9005 -0.487378 0
M  V30 3866 O 354.153 -1.68126 -1.36245 0
M  V30 3867 C 354.748 -2.90249 1.74759 0
M  V30 3868 C 353.307 -3.41352 1.58606 0
M  V30 3869 C 352.454 -2.15103 1.75002 0
M  V30 3870 H 355.405 -0.881406 1.31973 0
M  V30 3871 H 355.426 -3.60097 1.22925 0
M  V30 3872 H 354.938 -2.68166 2.8055 0
M  V30 3873 H 353.039 -3.68474 0.552985 0
M  V30 3874 H 353.152 -4.16019 2.37624 0
M  V30 3875 H 351.516 -2.25804 1.17833 0
M  V30 3876 H 352.299 -1.95491 2.82202 0
M  V30 3877 N 354.744 -0.972509 -1.24016 0
M  V30 3878 C 355.974 -0.653853 -1.9598 0
M  V30 3879 C 356.382 0.781801 -1.72292 0
M  V30 3880 O 355.725 1.53677 -1.00644 0
M  V30 3881 C 355.787 -0.854608 -3.49194 0
M  V30 3882 C 355.451 -2.27082 -3.96589 0
M  V30 3883 C 356.448 -3.24892 -4.05883 0
M  V30 3884 C 354.133 -2.5998 -4.29786 0
M  V30 3885 C 356.127 -4.53684 -4.47716 0
M  V30 3886 C 353.814 -3.88997 -4.71301 0
M  V30 3887 C 354.812 -4.85661 -4.80232 0
M  V30 3888 O 354.5 -6.12376 -5.20818 0
M  V30 3889 H 354.232 -0.242572 -0.630979 0
M  V30 3890 H 356.786 -1.30431 -1.58673 0
M  V30 3891 H 355.016 -0.146985 -3.86421 0
M  V30 3892 H 356.705 -0.534311 -4.02368 0
M  V30 3893 H 357.471 -3.00805 -3.80449 0
M  V30 3894 H 353.35 -1.85457 -4.22051 0
M  V30 3895 H 356.894 -5.29135 -4.54601 0
M  V30 3896 H 352.791 -4.12882 -4.96184 0
M  V30 3897 H 353.559 -6.16013 -5.38953 0
M  V30 3898 N 356.222 1.38976 -0.743202 0
M  V30 3899 C 357.152 2.33171 -0.123873 0
M  V30 3900 C 358.133 1.54336 0.71516 0
M  V30 3901 O 359.318 1.82696 0.658467 0
M  V30 3902 C 356.448 3.38474 0.777978 0
M  V30 3903 C 355.402 4.27979 0.0424758 0
M  V30 3904 C 354.728 5.2405 1.06189 0
M  V30 3905 C 356.028 5.10155 -1.1198 0
M  V30 3906 H 357.722 2.85213 -0.910709 0
M  V30 3907 H 355.268 1.37133 -0.439388 0
M  V30 3908 H 357.221 4.03328 1.22084 0
M  V30 3909 H 355.945 2.84891 1.59702 0
M  V30 3910 H 354.604 3.64616 -0.380853 0
M  V30 3911 H 354.252 4.66758 1.87472 0
M  V30 3912 H 353.952 5.84785 0.574485 0
M  V30 3913 H 355.476 5.9178 1.50428 0
M  V30 3914 H 356.89 5.68307 -0.75499 0
M  V30 3915 H 355.287 5.80073 -1.53738 0
M  V30 3916 H 356.357 4.44504 -1.93764 0
M  V30 3917 N 357.7 0.491464 1.49741 0
M  V30 3918 C 359.116 0.146835 1.58923 0
M  V30 3919 C 359.316 -1.34804 1.49767 0
M  V30 3920 O 358.372 -2.12317 1.36667 0
M  V30 3921 C 359.685 0.715157 2.92072 0
M  V30 3922 C 361.233 0.680407 3.05515 0
M  V30 3923 C 361.708 1.22663 4.41269 0
M  V30 3924 N 363.199 1.18691 4.47735 0
M  V30 3925 C 363.934 1.57984 5.51207 0
M  V30 3926 N 363.43 2.04824 6.6183 0
M  V30 3927 N 365.223 1.49459 5.41866 0
M  V30 3928 H 357.374 1.46347 1.53936 0
M  V30 3929 H 359.637 0.606453 0.728642 0
M  V30 3930 H 359.343 1.76317 3.04311 0
M  V30 3931 H 359.217 0.17018 3.76816 0
M  V30 3932 H 361.604 -0.358743 2.92911 0
M  V30 3933 H 361.685 1.26242 2.22478 0
M  V30 3934 H 361.329 2.26451 4.54623 0
M  V30 3935 H 361.259 0.620637 5.2293 0
M  V30 3936 H 363.75 0.843605 3.68364 0
M  V30 3937 H 364.063 2.32901 7.3687 0
M  V30 3938 H 362.408 2.08791 6.62896 0
M  V30 3939 H 365.599 1.12692 4.54333 0
M  V30 3940 H 365.772 1.80406 6.22381 0
M  V30 3941 N 359.178 -1.55987 0.224894 0
M  V30 3942 C 360.408 -2.02489 -0.41007 0
M  V30 3943 C 360.816 -1.10391 -1.53657 0
M  V30 3944 O 360.159 -0.106458 -1.83391 0
M  V30 3945 C 360.221 -3.45319 -0.999757 0
M  V30 3946 C 359.885 -4.56999 -0.00827976 0
M  V30 3947 C 360.882 -5.13812 0.793314 0
M  V30 3948 C 358.567 -5.02176 0.111442 0
M  V30 3949 C 360.561 -6.14276 1.7013 0
M  V30 3950 C 358.248 -6.02477 1.02296 0
M  V30 3951 C 359.246 -6.58403 1.81643 0
M  V30 3952 O 358.934 -7.56751 2.71262 0
M  V30 3953 H 358.666 -0.667915 -0.104235 0
M  V30 3954 H 361.22 -2.0257 0.339782 0
M  V30 3955 H 359.45 -3.42318 -1.79876 0
M  V30 3956 H 361.139 -3.7545 -1.54248 0
M  V30 3957 H 361.905 -4.79756 0.711288 0
M  V30 3958 H 357.784 -4.58323 -0.49605 0
M  V30 3959 H 361.328 -6.57854 2.32107 0
M  V30 3960 H 357.225 -6.35954 1.10599 0
M  V30 3961 H 357.993 -7.74286 2.65375 0
M  V30 3962 N 360.656 0.0484629 -1.57525 0
M  V30 3963 C 361.886 0.754326 -1.92337 0
M  V30 3964 C 362.294 1.70443 -0.82132 0
M  V30 3965 O 361.637 1.82466 0.21254 0
M  V30 3966 C 361.699 1.58231 -3.22805 0
M  V30 3967 C 361.363 0.799074 -4.4996 0
M  V30 3968 C 362.36 0.1079 -5.19788 0
M  V30 3969 C 360.045 0.759345 -4.96527 0
M  V30 3970 C 362.039 -0.612516 -6.3445 0
M  V30 3971 C 359.726 0.0351713 -6.1109 0
M  V30 3972 C 360.724 -0.649537 -6.79904 0
M  V30 3973 O 360.412 -1.36199 -7.92278 0
M  V30 3974 H 360.144 0.218257 -0.639797 0
M  V30 3975 H 362.698 0.0159295 -2.05394 0
M  V30 3976 H 360.928 2.36406 -3.06021 0
M  V30 3977 H 362.617 2.16898 -3.43089 0
M  V30 3978 H 363.383 0.129748 -4.84826 0
M  V30 3979 H 359.262 1.28177 -4.42822 0
M  V30 3980 H 362.806 -1.14751 -6.88097 0
M  V30 3981 H 358.703 0.0113314 -6.45499 0
M  V30 3982 H 359.471 -1.27366 -8.0853 0
M  V30 3983 N 362.134 1.5431 0.320358 0
M  V30 3984 C 363.064 1.86912 1.3995 0
M  V30 3985 C 364.045 0.726211 1.53819 0
M  V30 3986 O 365.23 0.980233 1.67646 0
M  V30 3987 C 362.36 2.09932 2.7667 0
M  V30 3988 C 361.314 3.25776 2.77586 0
M  V30 3989 C 360.64 3.34173 4.17412 0
M  V30 3990 C 361.94 4.6335 2.41048 0
M  V30 3991 H 363.634 2.77292 1.12914 0
M  V30 3992 H 361.18 1.33421 0.541738 0
M  V30 3993 H 363.133 2.31324 3.52232 0
M  V30 3994 H 361.857 1.16304 3.0519 0
M  V30 3995 H 360.516 3.04276 2.04479 0
M  V30 3996 H 360.164 2.38098 4.43078 0
M  V30 3997 H 359.864 4.12033 4.18931 0
M  V30 3998 H 361.388 3.57803 4.94782 0
M  V30 3999 H 362.802 4.84602 3.06324 0
M  V30 4000 H 361.199 5.43782 2.53813 0
M  V30 4001 H 362.269 4.65381 1.36193 0
M  V30 4002 N 363.613 -0.582584 1.46437 0
M  V30 4003 C 364.546 -1.70633 1.51524 0
M  V30 4004 C 365.524 -1.58349 0.369351 0
M  V30 4005 O 366.708 -1.79563 0.573516 0
M  V30 4006 C 363.835 -3.08687 1.39392 0
M  V30 4007 C 362.881 -3.3949 2.58164 0
M  V30 4008 S 363.714 -3.31548 4.20519 0
M  V30 4009 C 364.87 -4.72139 4.10896 0
M  V30 4010 H 365.103 -1.66058 2.46601 0
M  V30 4011 H 362.636 -0.761337 1.34324 0
M  V30 4012 H 364.594 -3.8833 1.33079 0
M  V30 4013 H 363.255 -3.10751 0.457436 0
M  V30 4014 H 362.448 -4.40071 2.45669 0
M  V30 4015 H 362.05 -2.67415 2.61468 0
M  V30 4016 H 364.342 -5.62527 3.77584 0
M  V30 4017 H 365.285 -4.89692 5.11476 0
M  V30 4018 H 365.693 -4.48995 3.42146 0
M  V30 4019 N 365.091 -1.34144 -0.827227 0
M  V30 4020 C 366.001 -1.27428 -1.96975 0
M  V30 4021 C 367.017 -0.182728 -1.73038 0
M  V30 4022 O 368.193 -0.408426 -1.97215 0
M  V30 4023 C 365.258 -1.02526 -3.31194 0
M  V30 4024 C 364.319 -2.20796 -3.68168 0
M  V30 4025 C 363.552 -1.97073 -4.95982 0
M  V30 4026 O 363.775 -0.926822 -5.6282 0
M  V30 4027 O 362.709 -2.83912 -5.30733 0
M  V30 4028 H 366.535 -2.23537 -2.05584 0
M  V30 4029 H 364.12 -1.14307 -0.961989 0
M  V30 4030 H 366.002 -0.904026 -4.11589 0
M  V30 4031 H 364.677 -0.0945389 -3.23562 0
M  V30 4032 H 363.584 -2.38477 -2.88235 0
M  V30 4033 H 364.917 -3.12243 -3.8048 0
M  V30 4034 N 366.569 1.04691 -1.17803 0
M  V30 4035 C 367.516 2.12557 -0.899343 0
M  V30 4036 C 368.486 1.65339 0.158771 0
M  V30 4037 O 369.671 1.90789 0.0204797 0
M  V30 4038 C 366.811 3.42481 -0.424315 0
M  V30 4039 C 365.924 4.03346 -1.54713 0
M  V30 4040 C 365.059 5.21208 -1.02546 0
M  V30 4041 C 364.098 5.74089 -2.12339 0
M  V30 4042 N 363.235 6.83247 -1.61612 0
M  V30 4043 H 368.075 2.35734 -1.823 0
M  V30 4044 H 365.612 1.1564 -0.909159 0
M  V30 4045 H 367.57 4.16996 -0.130421 0
M  V30 4046 H 366.2 3.19471 0.462377 0
M  V30 4047 H 365.252 3.2622 -1.95664 0
M  V30 4048 H 366.564 4.38628 -2.37501 0
M  V30 4049 H 365.718 6.02812 -0.685718 0
M  V30 4050 H 364.457 4.87414 -0.167084 0
M  V30 4051 H 363.462 4.91111 -2.47165 0
M  V30 4052 H 364.687 6.0993 -2.98601 0
M  V30 4053 H 362.633 6.5134 -0.780533 0
M  V30 4054 H 362.55 7.17559 -2.38003 0
M  V30 4055 H 363.818 7.68491 -1.30545 0
M  V30 4056 N 368.047 0.979072 1.23499 0
M  V30 4057 C 368.994 0.517904 2.24914 0
M  V30 4058 C 369.964 -0.442525 1.60097 0
M  V30 4059 O 371.149 -0.350365 1.87556 0
M  V30 4060 C 368.289 -0.174813 3.44657 0
M  V30 4061 C 367.402 0.825721 4.24035 0
M  V30 4062 C 366.537 0.107946 5.3109 0
M  V30 4063 C 365.576 1.09778 6.02175 0
M  V30 4064 N 364.713 0.40925 7.00906 0
M  V30 4065 H 369.553 1.38751 2.63727 0
M  V30 4066 H 367.09 0.695303 1.2963 0
M  V30 4067 H 369.048 -0.593233 4.12961 0
M  V30 4068 H 367.678 -1.0083 3.06648 0
M  V30 4069 H 366.73 1.36253 3.55161 0
M  V30 4070 H 368.042 1.58005 4.73113 0
M  V30 4071 H 367.196 -0.367904 6.05583 0
M  V30 4072 H 365.935 -0.678994 4.8295 0
M  V30 4073 H 364.94 1.5844 5.26476 0
M  V30 4074 H 366.165 1.88536 6.52404 0
M  V30 4075 H 364.111 -0.358506 6.5502 0
M  V30 4076 H 364.028 1.10226 7.47921 0
M  V30 4077 H 365.296 -0.0442557 7.79487 0
M  V30 4078 N 369.525 -1.3858 0.750561 0
M  V30 4079 C 370.458 -2.28095 0.0693139 0
M  V30 4080 C 371.436 -1.45217 -0.731491 0
M  V30 4081 O 372.62 -1.74587 -0.71076 0
M  V30 4082 C 369.747 -3.26282 -0.90871 0
M  V30 4083 C 368.793 -4.26056 -0.194507 0
M  V30 4084 S 369.626 -5.24026 1.10257 0
M  V30 4085 C 370.782 -6.2577 0.127542 0
M  V30 4086 H 371.015 -2.85526 0.8284 0
M  V30 4087 H 368.548 -1.44536 0.543014 0
M  V30 4088 H 370.506 -3.83367 -1.46766 0
M  V30 4089 H 369.167 -2.6784 -1.64075 0
M  V30 4090 H 368.36 -4.95249 -0.93512 0
M  V30 4091 H 367.962 -3.72852 0.292837 0
M  V30 4092 H 370.254 -6.73796 -0.707516 0
M  V30 4093 H 371.197 -7.03712 0.787044 0
M  V30 4094 H 371.605 -5.63938 -0.251803 0
M  V30 4095 N 371.003 -0.499398 -1.49478 0
M  V30 4096 C 372.25 0.0456899 -2.02448 0
M  V30 4097 C 372.578 1.37142 -1.37921 0
M  V30 4098 O 371.833 1.89111 -0.503544 0
M  V30 4099 C 372.132 0.248424 -3.56536 0
M  V30 4100 C 371.798 -0.999107 -4.39692 0
M  V30 4101 C 370.46 -1.34108 -4.62135 0
M  V30 4102 C 372.812 -1.82842 -4.88076 0
M  V30 4103 C 370.14 -2.51191 -5.30208 0
M  V30 4104 C 372.492 -2.99076 -5.57437 0
M  V30 4105 C 371.156 -3.33655 -5.78127 0
M  V30 4106 H 370.426 0.0167191 -0.740811 0
M  V30 4107 H 373.073 -0.65923 -1.79795 0
M  V30 4108 H 371.378 1.03586 -3.77859 0
M  V30 4109 H 373.075 0.684605 -3.95113 0
M  V30 4110 H 369.665 -0.722729 -4.22463 0
M  V30 4111 H 373.849 -1.57737 -4.70566 0
M  V30 4112 H 369.105 -2.78221 -5.44429 0
M  V30 4113 H 373.279 -3.63664 -5.93904 0
M  V30 4114 H 370.906 -4.24483 -6.30649 0
M  V30 4115 N 372.481 1.55866 -0.233164 0
M  V30 4116 C 373.428 2.20796 0.67215 0
M  V30 4117 C 374.398 1.16731 1.18166 0
M  V30 4118 O 375.583 1.45129 1.23864 0
M  V30 4119 C 372.723 2.90072 1.86955 0
M  V30 4120 C 371.836 4.08759 1.39786 0
M  V30 4121 C 370.971 4.65787 2.55374 0
M  V30 4122 C 370.01 5.76752 2.04998 0
M  V30 4123 N 369.147 6.28021 3.13901 0
M  V30 4124 H 373.987 2.9779 0.111749 0
M  V30 4125 H 371.524 1.47036 0.0434007 0
M  V30 4126 H 373.482 3.28428 2.57276 0
M  V30 4127 H 372.112 2.15575 2.40265 0
M  V30 4128 H 371.164 3.7581 0.589173 0
M  V30 4129 H 372.476 4.88906 0.98856 0
M  V30 4130 H 371.63 5.06646 3.33758 0
M  V30 4131 H 370.369 3.84828 2.99598 0
M  V30 4132 H 369.374 5.35383 1.25079 0
M  V30 4133 H 370.599 6.59553 1.61759 0
M  V30 4134 H 368.545 5.49971 3.57586 0
M  V30 4135 H 368.462 7.03323 2.7726 0
M  V30 4136 H 369.73 6.73538 3.92386 0
M  V30 4137 N 373.959 -0.0401083 1.57549 0
M  V30 4138 C 374.906 -1.04413 2.05831 0
M  V30 4139 C 375.876 -1.36585 0.945184 0
M  V30 4140 O 377.061 -1.47112 1.21502 0
M  V30 4141 C 374.201 -2.34336 2.53339 0
M  V30 4142 C 373.314 -2.08419 3.78398 0
M  V30 4143 C 372.449 -3.32133 4.14561 0
M  V30 4144 C 371.488 -3.01721 5.3257 0
M  V30 4145 N 370.625 -4.17855 5.64218 0
M  V30 4146 H 375.465 -0.625442 2.91363 0
M  V30 4147 H 373.002 -0.297218 1.44066 0
M  V30 4148 H 374.96 -3.10234 2.78946 0
M  V30 4149 H 373.59 -2.73948 1.7074 0
M  V30 4150 H 372.642 -1.23069 3.59942 0
M  V30 4151 H 373.954 -1.81978 4.64419 0
M  V30 4152 H 373.108 -4.16406 4.41238 0
M  V30 4153 H 371.847 -3.61678 3.2717 0
M  V30 4154 H 370.852 -2.15849 5.05657 0
M  V30 4155 H 372.077 -2.73466 6.21605 0
M  V30 4156 H 370.023 -4.47372 4.79786 0
M  V30 4157 H 369.94 -3.94798 6.44725 0
M  V30 4158 H 371.208 -5.03033 5.95465 0
M  V30 4159 N 375.437 -1.54477 -0.31217 0
M  V30 4160 C 376.686 -1.72438 -1.04633 0
M  V30 4161 C 376.999 -0.511163 -1.88803 0
M  V30 4162 O 378.205 -0.572341 -2.65399 0
M  V30 4163 C 376.661 -3.05043 -1.9099 0
M  V30 4164 C 376.269 -4.33806 -1.11877 0
M  V30 4165 C 378.013 -3.32364 -2.64073 0
M  V30 4166 C 375.92 -5.57467 -1.97445 0
M  V30 4167 H 374.85 -0.642647 -0.394361 0
M  V30 4168 H 377.501 -1.80966 -0.303929 0
M  V30 4169 H 375.883 -2.90451 -2.69173 0
M  V30 4170 H 377.057 -4.59199 -0.383843 0
M  V30 4171 H 375.372 -4.13336 -0.504252 0
M  V30 4172 H 377.969 -4.21951 -3.28423 0
M  V30 4173 H 378.312 -2.50745 -3.32314 0
M  V30 4174 H 378.845 -3.47875 -1.92944 0
M  V30 4175 H 375.584 -6.41722 -1.33692 0
M  V30 4176 H 375.104 -5.36277 -2.6864 0
M  V30 4177 H 376.783 -5.94303 -2.5576 0
M  V30 4178 N 376.915 0.57481 -1.46744 0
M  V30 4179 C 378.14 1.36341 -1.56288 0
M  V30 4180 C 378.565 1.86954 -0.207347 0
M  V30 4181 O 377.923 1.62006 0.813871 0
M  V30 4182 C 377.971 2.52147 -2.57787 0
M  V30 4183 O 377.075 3.53834 -2.11838 0
M  V30 4184 H 376.416 0.405713 -0.525636 0
M  V30 4185 H 378.946 0.696453 -1.92382 0
M  V30 4186 H 378.956 2.98958 -2.77648 0
M  V30 4187 H 377.631 2.14663 -3.5622 0
M  V30 4188 H 376.208 3.1345 -2.01999 0
M  V30 4189 N 378.394 1.34581 0.820102 0
M  V30 4190 C 379.622 1.3018 1.60813 0
M  V30 4191 C 380.037 -0.123551 1.88395 0
M  V30 4192 O 379.394 -1.07148 1.47735 0
M  V30 4193 C 379.445 2.09312 2.94739 0
M  V30 4194 O 379.166 3.46288 2.68358 0
M  V30 4195 C 380.667 2.1234 3.89136 0
M  V30 4196 H 377.887 0.447726 0.499782 0
M  V30 4197 H 380.431 1.77237 1.02017 0
M  V30 4198 H 378.586 1.65889 3.50085 0
M  V30 4199 H 379 3.87227 3.53774 0
M  V30 4200 H 380.474 2.72126 4.80262 0
M  V30 4201 H 380.951 1.11854 4.24718 0
M  V30 4202 H 381.557 2.55864 3.39726 0
M  V30 4203 N 379.872 -1.04064 1.18357 0
M  V30 4204 C 380.822 -2.10393 0.878561 0
M  V30 4205 C 381.806 -1.60183 -0.151713 0
M  V30 4206 O 382.998 -1.76923 0.0523303 0
M  V30 4207 C 380.127 -3.4089 0.406096 0
M  V30 4208 C 379.213 -3.97866 1.46844 0
M  V30 4209 N 379.604 -4.28657 2.68489 0
M  V30 4210 C 377.902 -4.2574 1.32896 0
M  V30 4211 C 378.603 -4.74253 3.36836 0
M  V30 4212 N 377.579 -4.75068 2.64219 0
M  V30 4213 H 381.381 -2.32076 1.80327 0
M  V30 4214 H 378.895 -1.21818 1.07397 0
M  V30 4215 H 380.892 -4.16557 0.169088 0
M  V30 4216 H 379.552 -3.20633 -0.512275 0
M  V30 4217 H 380.563 -4.18304 3.05356 0
M  V30 4218 H 377.24 -4.1481 0.473134 0
M  V30 4219 H 378.63 -5.07096 4.40798 0
M  V30 4220 N 381.35 -0.985608 -1.22978 0
M  V30 4221 C 382.26 -0.538548 -2.28335 0
M  V30 4222 C 383.276 0.409163 -1.69121 0
M  V30 4223 O 384.452 0.277797 -1.99475 0
M  V30 4224 C 381.517 0.146867 -3.46389 0
M  V30 4225 C 380.578 -0.842896 -4.20944 0
M  V30 4226 C 379.811 -0.190095 -5.33361 0
M  V30 4227 O 380.034 1.01767 -5.61248 0
M  V30 4228 O 378.968 -0.891289 -5.95264 0
M  V30 4229 H 382.794 -1.41487 -2.68729 0
M  V30 4230 H 380.379 -0.753495 -1.29007 0
M  V30 4231 H 382.261 0.531125 -4.1804 0
M  V30 4232 H 380.936 0.997871 -3.07935 0
M  V30 4233 H 379.843 -1.27795 -3.51595 0
M  V30 4234 H 381.176 -1.66287 -4.6326 0
M  V30 4235 N 382.828 1.3818 -0.7579 0
M  V30 4236 C 383.758 2.33027 -0.148597 0
M  V30 4237 C 384.739 1.55085 0.69875 0
M  V30 4238 O 385.924 1.83384 0.639053 0
M  V30 4239 C 383.054 3.3928 0.742034 0
M  V30 4240 C 382.008 4.28 -0.00291946 0
M  V30 4241 C 381.334 5.25146 1.00625 0
M  V30 4242 C 382.634 5.08938 -1.17385 0
M  V30 4243 H 384.328 2.84231 -0.940909 0
M  V30 4244 H 381.874 1.36659 -0.453908 0
M  V30 4245 H 383.827 4.046 1.17799 0
M  V30 4246 H 382.551 2.86569 1.56671 0
M  V30 4247 H 381.21 3.64192 -0.419504 0
M  V30 4248 H 380.858 4.68721 1.8251 0
M  V30 4249 H 380.558 5.85361 0.512428 0
M  V30 4250 H 382.082 5.93342 1.44143 0
M  V30 4251 H 383.496 5.67474 -0.815224 0
M  V30 4252 H 381.893 5.7841 -1.59882 0
M  V30 4253 H 382.963 4.42424 -1.98468 0
M  V30 4254 N 384.306 0.507319 1.49211 0
M  V30 4255 C 385.722 0.163682 1.58758 0
M  V30 4256 C 385.922 -1.33208 1.51188 0
M  V30 4257 O 384.978 -2.10855 1.38911 0
M  V30 4258 C 386.291 0.746095 2.91297 0
M  V30 4259 C 387.839 0.712773 3.04776 0
M  V30 4260 C 388.314 1.27336 4.39943 0
M  V30 4261 N 389.805 1.23433 4.46451 0
M  V30 4262 C 390.54 1.63821 5.495 0
M  V30 4263 N 390.036 2.11832 6.5962 0
M  V30 4264 N 391.829 1.55198 5.4025 0
M  V30 4265 H 383.98 1.47972 1.52375 0
M  V30 4266 H 386.243 0.614147 0.722168 0
M  V30 4267 H 385.949 1.79534 3.02424 0
M  V30 4268 H 385.823 0.210137 3.76614 0
M  V30 4269 H 388.21 -0.327656 2.93275 0
M  V30 4270 H 388.291 1.28595 2.21127 0
M  V30 4271 H 387.935 2.3126 4.52196 0
M  V30 4272 H 387.865 0.676066 5.22242 0
M  V30 4273 H 390.356 0.882627 3.67448 0
M  V30 4274 H 390.669 2.40703 7.34358 0
M  V30 4275 H 389.014 2.1581 6.60644 0
M  V30 4276 H 392.205 1.17505 4.53112 0
M  V30 4277 H 392.378 1.86997 6.20432 0
M  V30 4278 N 385.784 -1.5574 0.241426 0
M  V30 4279 C 386.747 -2.19877 -0.647063 0
M  V30 4280 C 387.747 -1.16642 -1.10686 0
M  V30 4281 O 388.937 -1.41757 -1.01245 0
M  V30 4282 C 386.069 -2.83797 -1.88871 0
M  V30 4283 H 387.262 -2.99772 -0.087574 0
M  V30 4284 H 384.815 -1.56298 -0.00813574 0
M  V30 4285 H 385.55 -2.07824 -2.48957 0
M  V30 4286 H 385.335 -3.59414 -1.56728 0
M  V30 4287 H 386.825 -3.32898 -2.52129 0
M  V30 4288 N 387.262 0.0317525 -1.57568 0
M  V30 4289 C 388.678 0.38735 -1.54828 0
M  V30 4290 C 388.878 1.7677 -0.967187 0
M  V30 4291 O 387.934 2.45581 -0.587063 0
M  V30 4292 C 389.247 0.291667 -2.99282 0
M  V30 4293 C 390.795 0.368946 -3.10818 0
M  V30 4294 C 391.27 0.302741 -4.56998 0
M  V30 4295 N 392.761 0.361617 -4.61786 0
M  V30 4296 C 393.496 0.333238 -5.72431 0
M  V30 4297 N 392.992 0.257308 -6.92322 0
M  V30 4298 N 394.785 0.382769 -5.60795 0
M  V30 4299 H 386.936 -0.871609 -1.93692 0
M  V30 4300 H 389.199 -0.331161 -0.888277 0
M  V30 4301 H 388.905 -0.656794 -3.45513 0
M  V30 4302 H 388.779 1.08638 -3.61217 0
M  V30 4303 H 391.166 1.30784 -2.64536 0
M  V30 4304 H 391.247 -0.455066 -2.5172 0
M  V30 4305 H 390.891 -0.632473 -5.03947 0
M  V30 4306 H 390.821 1.14482 -5.14005 0
M  V30 4307 H 393.312 0.422923 -3.75526 0
M  V30 4308 H 393.625 0.24068 -7.72425 0
M  V30 4309 H 391.97 0.223396 -6.94641 0
M  V30 4310 H 395.161 0.44006 -4.66027 0
M  V30 4311 H 395.334 0.357184 -6.47015 0
M  V30 4312 N 388.74 1.54641 0.303973 0
M  V30 4313 C 389.65 1.88439 1.39743 0
M  V30 4314 C 390.666 0.778239 1.55626 0
M  V30 4315 O 391.842 1.07442 1.70347 0
M  V30 4316 C 388.907 2.12212 2.74166 0
M  V30 4317 C 387.968 3.35936 2.67293 0
M  V30 4318 C 387.201 3.58566 3.95305 0
M  V30 4319 O 387.424 2.84263 4.9452 0
M  V30 4320 O 386.358 4.52078 3.97378 0
M  V30 4321 H 390.184 2.81458 1.14083 0
M  V30 4322 H 387.769 1.40793 0.499768 0
M  V30 4323 H 389.651 2.29067 3.53704 0
M  V30 4324 H 388.326 1.22379 2.99675 0
M  V30 4325 H 387.233 3.24448 1.86237 0
M  V30 4326 H 388.566 4.2589 2.46736 0
M  V30 4327 N 390.218 -0.567019 1.47046 0
M  V30 4328 C 391.464 -1.32658 1.53394 0
M  V30 4329 C 391.797 -1.93254 0.19148 0
M  V30 4330 O 391.072 -1.77338 -0.798844 0
M  V30 4331 C 391.355 -2.44412 2.64452 0
M  V30 4332 C 391.208 -1.88749 4.08282 0
M  V30 4333 C 392.527 -3.46387 2.71485 0
M  V30 4334 H 389.646 -0.48098 0.558415 0
M  V30 4335 H 392.288 -0.635481 1.79058 0
M  V30 4336 H 390.438 -3.03363 2.427 0
M  V30 4337 H 392.11 -1.34134 4.41368 0
M  V30 4338 H 390.353 -1.19481 4.17021 0
M  V30 4339 H 391.024 -2.69491 4.81745 0
M  V30 4340 H 393.5 -2.9734 2.91081 0
M  V30 4341 H 392.376 -4.2202 3.50985 0
M  V30 4342 H 392.637 -4.04616 1.78153 0
M  V30 4343 N 391.696 -1.35014 -0.812953 0
M  V30 4344 C 392.629 -1.21761 -1.93001 0
M  V30 4345 C 393.607 -0.10694 -1.62248 0
M  V30 4346 O 394.791 -0.273891 -1.865 0
M  V30 4347 C 391.918 -0.873404 -3.27245 0
M  V30 4348 C 390.964 -1.99523 -3.76952 0
M  V30 4349 S 391.797 -3.61009 -3.95516 0
M  V30 4350 C 392.953 -3.28651 -5.32672 0
M  V30 4351 H 393.186 -2.16315 -2.03948 0
M  V30 4352 H 390.719 -1.20156 -0.969631 0
M  V30 4353 H 392.677 -0.68161 -4.04802 0
M  V30 4354 H 391.338 0.053971 -3.14054 0
M  V30 4355 H 390.531 -1.70838 -4.74163 0
M  V30 4356 H 390.133 -2.14503 -3.06373 0
M  V30 4357 H 392.425 -2.81085 -6.1644 0
M  V30 4358 H 393.368 -4.25039 -5.66346 0
M  V30 4359 H 393.776 -2.6458 -4.98656 0
M  V30 4360 N 393.175 1.03435 -1.18907 0
M  V30 4361 C 394.122 2.11591 -0.921837 0
M  V30 4362 C 395.092 1.65499 0.141226 0
M  V30 4363 O 396.277 1.908 0.000242829 0
M  V30 4364 C 393.417 3.42012 -0.460616 0
M  V30 4365 C 392.53 4.01682 -1.58982 0
M  V30 4366 C 391.665 5.20091 -1.08069 0
M  V30 4367 C 390.704 5.71805 -2.18416 0
M  V30 4368 N 389.841 6.81494 -1.68849 0
M  V30 4369 H 394.681 2.33787 -1.8479 0
M  V30 4370 H 392.218 1.1467 -0.921373 0
M  V30 4371 H 394.176 4.16834 -0.174642 0
M  V30 4372 H 392.806 3.19944 0.428467 0
M  V30 4373 H 391.858 3.24127 -1.99113 0
M  V30 4374 H 393.17 4.36084 -2.4214 0
M  V30 4375 H 392.324 6.02051 -0.749615 0
M  V30 4376 H 391.063 4.87209 -0.218771 0
M  V30 4377 H 390.068 4.88461 -2.5236 0
M  V30 4378 H 391.293 6.06728 -3.05054 0
M  V30 4379 H 389.239 6.50475 -0.849572 0
M  V30 4380 H 389.156 7.14994 -2.45601 0
M  V30 4381 H 390.424 7.67063 -1.38689 0
M  V30 4382 N 394.653 0.992116 1.22453 0
M  V30 4383 C 395.902 0.662992 1.90492 0
M  V30 4384 C 396.215 -0.808407 1.78113 0
M  V30 4385 O 397.421 -1.24908 2.41061 0
M  V30 4386 C 395.877 1.1353 3.41524 0
M  V30 4387 C 395.485 2.63187 3.62542 0
M  V30 4388 C 397.229 0.880465 4.15269 0
M  V30 4389 C 395.136 3.04024 5.0727 0
M  V30 4390 H 394.066 0.244278 0.713333 0
M  V30 4391 H 396.717 1.20157 1.38688 0
M  V30 4392 H 395.099 0.52485 3.92506 0
M  V30 4393 H 396.273 3.2957 3.22056 0
M  V30 4394 H 394.588 2.86543 3.02129 0
M  V30 4395 H 397.185 1.16128 5.21937 0
M  V30 4396 H 397.528 -0.183408 4.15896 0
M  V30 4397 H 398.061 1.45307 3.70312 0
M  V30 4398 H 394.8 4.09584 5.11782 0
M  V30 4399 H 394.32 2.42343 5.48662 0
M  V30 4400 H 395.999 2.95282 5.75689 0
M  V30 4401 N 396.131 -1.37776 0.765217 0
M  V30 4402 C 397.041 -2.34135 0.147666 0
M  V30 4403 C 398.057 -1.59854 -0.687215 0
M  V30 4404 O 399.233 -1.91983 -0.608659 0
M  V30 4405 C 396.298 -3.3901 -0.72617 0
M  V30 4406 C 395.359 -4.2912 0.124417 0
M  V30 4407 C 394.592 -5.28986 -0.707807 0
M  V30 4408 O 394.815 -5.36205 -1.94525 0
M  V30 4409 O 393.749 -6.01779 -0.12046 0
M  V30 4410 H 397.575 -2.88664 0.943758 0
M  V30 4411 H 395.16 -1.39824 0.526277 0
M  V30 4412 H 397.042 -4.03195 -1.22524 0
M  V30 4413 H 395.717 -2.86819 -1.50056 0
M  V30 4414 H 394.624 -3.68057 0.669696 0
M  V30 4415 H 395.957 -4.84598 0.861736 0
M  V30 4416 N 397.609 -0.515225 -1.4894 0
M  V30 4417 C 398.556 0.255567 -2.29381 0
M  V30 4418 C 399.526 0.947387 -1.36432 0
M  V30 4419 O 400.711 0.951288 -1.65394 0
M  V30 4420 C 397.851 1.30551 -3.19453 0
M  V30 4421 C 396.964 0.624029 -4.27469 0
M  V30 4422 C 396.099 1.65563 -5.0474 0
M  V30 4423 C 395.138 0.956802 -6.04576 0
M  V30 4424 N 394.275 1.93326 -6.74959 0
M  V30 4425 H 399.115 -0.436607 -2.94784 0
M  V30 4426 H 396.652 -0.227154 -1.45336 0
M  V30 4427 H 398.61 1.92639 -3.70062 0
M  V30 4428 H 397.24 1.96626 -2.56004 0
M  V30 4429 H 396.292 -0.110459 -3.8024 0
M  V30 4430 H 397.604 0.0746092 -4.98744 0
M  V30 4431 H 396.758 2.35119 -5.59289 0
M  V30 4432 H 395.497 2.23893 -4.3327 0
M  V30 4433 H 394.502 0.247097 -5.49244 0
M  V30 4434 H 395.727 0.379814 -6.78037 0
M  V30 4435 H 393.673 2.50591 -6.06251 0
M  V30 4436 H 393.59 1.43489 -7.42258 0
M  V30 4437 H 394.858 2.62126 -7.34105 0
M  V30 4438 N 399.087 1.5561 -0.249682 0
M  V30 4439 C 399.997 2.25143 0.659375 0
M  V30 4440 C 401.013 1.2685 1.19101 0
M  V30 4441 O 402.189 1.59732 1.22669 0
M  V30 4442 C 399.254 2.93945 1.8384 0
M  V30 4443 C 398.315 4.07655 1.34596 0
M  V30 4444 C 397.548 4.73167 2.46878 0
M  V30 4445 O 397.771 4.37768 3.65671 0
M  V30 4446 O 396.705 5.61623 2.16478 0
M  V30 4447 H 400.531 3.03545 0.0968698 0
M  V30 4448 H 398.116 1.49389 -0.018074 0
M  V30 4449 H 399.998 3.37271 2.52638 0
M  V30 4450 H 398.673 2.18481 2.38847 0
M  V30 4451 H 397.58 3.68839 0.625174 0
M  V30 4452 H 398.913 4.84946 0.841941 0
M  V30 4453 N 400.565 -0.0233959 1.57583 0
M  V30 4454 C 401.495 -1.02162 2.09965 0
M  V30 4455 C 402.476 -1.3735 1.00344 0
M  V30 4456 O 403.661 -1.46135 1.27899 0
M  V30 4457 C 400.791 -2.32081 2.58371 0
M  V30 4458 C 399.745 -2.1112 3.72307 0
M  V30 4459 C 399.071 -3.46848 4.06941 0
M  V30 4460 C 400.371 -1.49276 5.00514 0
M  V30 4461 H 402.065 -0.585557 2.93618 0
M  V30 4462 H 399.611 -0.280218 1.41247 0
M  V30 4463 H 401.564 -3.02249 2.93639 0
M  V30 4464 H 400.288 -2.77758 1.71808 0
M  V30 4465 H 398.947 -1.43384 3.37397 0
M  V30 4466 H 398.595 -3.90184 3.17436 0
M  V30 4467 H 398.295 -3.33646 4.83688 0
M  V30 4468 H 399.819 -4.18369 4.44747 0
M  V30 4469 H 401.233 -2.09368 5.33702 0
M  V30 4470 H 399.63 -1.46632 5.8191 0
M  V30 4471 H 400.7 -0.459217 4.82721 0
M  V30 4472 N 402.043 -1.548 -0.295768 0
M  V30 4473 C 403.29 -1.74329 -1.03032 0
M  V30 4474 C 403.618 -0.531915 -1.87085 0
M  V30 4475 O 402.873 0.486052 -1.89568 0
M  V30 4476 C 403.172 -2.98797 -1.961 0
M  V30 4477 C 402.838 -4.32356 -1.2798 0
M  V30 4478 C 401.5 -4.68661 -1.09135 0
M  V30 4479 C 403.852 -5.15128 -0.793243 0
M  V30 4480 C 401.18 -5.85312 -0.403269 0
M  V30 4481 C 403.532 -6.32488 -0.118854 0
M  V30 4482 C 402.196 -6.6745 0.0815043 0
M  V30 4483 H 401.466 -0.637916 -0.37702 0
M  V30 4484 H 404.113 -1.8906 -0.304696 0
M  V30 4485 H 402.418 -2.78869 -2.75207 0
M  V30 4486 H 404.115 -3.11102 -2.53015 0
M  V30 4487 H 400.705 -4.03808 -1.43655 0
M  V30 4488 H 404.889 -4.87575 -0.92653 0
M  V30 4489 H 400.145 -6.1094 -0.237098 0
M  V30 4490 H 404.319 -6.95892 0.266035 0
M  V30 4491 H 401.946 -7.57695 0.616685 0
M  V30 4492 N 403.521 0.559213 -1.47345 0
M  V30 4493 C 404.431 1.69388 -1.62311 0
M  V30 4494 C 405.447 1.6648 -0.505993 0
M  V30 4495 O 406.623 1.85964 -0.773262 0
M  V30 4496 C 403.688 3.05894 -1.63185 0
M  V30 4497 C 402.749 3.19885 -2.86307 0
M  V30 4498 C 401.982 4.49879 -2.87131 0
M  V30 4499 O 402.205 5.35217 -1.97229 0
M  V30 4500 O 401.139 4.67618 -3.78968 0
M  V30 4501 H 404.965 1.59706 -2.58317 0
M  V30 4502 H 402.55 0.728989 -1.30407 0
M  V30 4503 H 404.432 3.87133 -1.66451 0
M  V30 4504 H 403.107 3.15964 -0.70345 0
M  V30 4505 H 402.014 2.38052 -2.88587 0
M  V30 4506 H 403.347 3.14718 -3.78435 0
M  V30 4507 N 404.999 1.35443 0.805782 0
M  V30 4508 C 405.946 1.28431 1.91766 0
M  V30 4509 C 406.916 0.156102 1.65365 0
M  V30 4510 O 408.101 0.339936 1.87747 0
M  V30 4511 C 405.241 1.06301 3.2832 0
M  V30 4512 C 404.354 2.2805 3.66902 0
M  V30 4513 C 403.489 1.99064 4.92491 0
M  V30 4514 C 402.528 3.16863 5.23703 0
M  V30 4515 N 401.665 2.87647 6.40471 0
M  V30 4516 H 406.505 2.23511 1.97096 0
M  V30 4517 H 404.042 1.11105 0.964054 0
M  V30 4518 H 406 0.915012 4.07042 0
M  V30 4519 H 404.63 0.148822 3.22457 0
M  V30 4520 H 403.682 2.53711 2.83434 0
M  V30 4521 H 404.994 3.1601 3.85927 0
M  V30 4522 H 404.148 1.81099 5.7904 0
M  V30 4523 H 402.887 1.0839 4.75503 0
M  V30 4524 H 401.892 3.35404 4.35642 0
M  V30 4525 H 403.117 4.08339 5.4262 0
M  V30 4526 H 401.063 1.99568 6.24907 0
M  V30 4527 H 400.98 3.69141 6.59751 0
M  V30 4528 H 402.248 2.73226 7.30047 0
M  V30 4529 N 406.477 -1.02803 1.19454 0
M  V30 4530 C 407.707 -1.79581 1.02149 0
M  V30 4531 C 408.115 -1.84182 -0.432851 0
M  V30 4532 O 407.458 -1.28534 -1.31243 0
M  V30 4533 C 407.52 -3.25993 1.51554 0
M  V30 4534 C 407.184 -3.45025 2.99678 0
M  V30 4535 C 408.181 -3.35175 3.97434 0
M  V30 4536 C 405.866 -3.71212 3.38389 0
M  V30 4537 C 407.86 -3.51238 5.31893 0
M  V30 4538 C 405.547 -3.8692 4.73008 0
M  V30 4539 C 406.545 -3.76936 5.69569 0
M  V30 4540 O 406.233 -3.92179 7.01748 0
M  V30 4541 H 405.965 -0.571962 0.360327 0
M  V30 4542 H 408.519 -1.30367 1.58725 0
M  V30 4543 H 406.749 -3.76235 0.893543 0
M  V30 4544 H 408.438 -3.84368 1.30444 0
M  V30 4545 H 409.204 -3.14895 3.68872 0
M  V30 4546 H 405.083 -3.78075 2.6378 0
M  V30 4547 H 408.627 -3.43362 6.07247 0
M  V30 4548 H 404.524 -4.06699 5.01265 0
M  V30 4549 H 405.292 -4.09265 7.08833 0
M  V30 4550 N 407.956 -0.998596 -1.21925 0
M  V30 4551 C 409.372 -0.710303 -1.42923 0
M  V30 4552 C 409.572 0.716933 -1.88314 0
M  V30 4553 O 408.628 1.48712 -2.04062 0
M  V30 4554 C 409.941 -1.72072 -2.466 0
M  V30 4555 C 411.489 -1.73681 -2.60392 0
M  V30 4556 C 411.964 -2.73601 -3.67296 0
M  V30 4557 N 413.455 -2.7223 -3.7476 0
M  V30 4558 C 414.19 -3.46206 -4.57087 0
M  V30 4559 N 413.686 -4.29802 -5.43362 0
M  V30 4560 N 415.479 -3.34886 -4.51451 0
M  V30 4561 H 407.63 -1.92028 -0.9077 0
M  V30 4562 H 409.893 -0.828487 -0.460775 0
M  V30 4563 H 409.599 -2.74231 -2.20206 0
M  V30 4564 H 409.473 -1.51818 -3.45299 0
M  V30 4565 H 411.86 -0.722173 -2.86127 0
M  V30 4566 H 411.941 -1.98005 -1.61949 0
M  V30 4567 H 411.585 -3.75217 -3.42307 0
M  V30 4568 H 411.515 -2.46545 -4.65321 0
M  V30 4569 H 414.006 -2.11576 -3.1312 0
M  V30 4570 H 414.319 -4.83061 -6.03218 0
M  V30 4571 H 412.664 -4.33887 -5.42925 0
M  V30 4572 H 415.855 -2.69015 -3.83078 0
M  V30 4573 H 416.028 -3.92796 -5.15379 0
M  V30 4574 N 409.434 1.37368 -0.772513 0
M  V30 4575 C 410.662 2.03942 -0.348588 0
M  V30 4576 C 411.077 1.58264 1.02947 0
M  V30 4577 O 410.434 0.764246 1.65727 0
M  V30 4578 C 410.485 3.5946 -0.38351 0
M  V30 4579 O 410.206 4.03468 -1.70721 0
M  V30 4580 C 411.707 4.4327 0.0519152 0
M  V30 4581 H 408.927 0.654931 -0.145966 0
M  V30 4582 H 411.471 1.75686 -1.04665 0
M  V30 4583 H 409.626 3.86486 0.265978 0
M  V30 4584 H 410.04 4.97991 -1.64636 0
M  V30 4585 H 411.514 5.51995 -0.0236733 0
M  V30 4586 H 411.991 4.2514 1.10238 0
M  V30 4587 H 412.597 4.21471 -0.569415 0
M  V30 4588 N 410.912 0.523116 1.48665 0
M  V30 4589 C 411.875 -0.232592 2.28017 0
M  V30 4590 C 412.875 -0.874021 1.34972 0
M  V30 4591 O 414.065 -0.735132 1.57929 0
M  V30 4592 C 411.197 -1.33586 3.13636 0
M  V30 4593 H 412.39 0.464008 2.96289 0
M  V30 4594 H 409.943 0.278816 1.53793 0
M  V30 4595 H 410.678 -2.06593 2.4998 0
M  V30 4596 H 410.463 -0.881125 3.82071 0
M  V30 4597 H 411.953 -1.86759 3.73511 0
M  V30 4598 N 412.39 -1.55475 0.257931 0
M  V30 4599 C 413.636 -1.99502 -0.364266 0
M  V30 4600 C 413.969 -1.146 -1.56782 0
M  V30 4601 O 413.244 -0.211968 -1.93342 0
M  V30 4602 C 413.527 -3.51917 -0.763333 0
M  V30 4603 C 413.38 -4.4758 0.446371 0
M  V30 4604 C 414.699 -4.09742 -1.60623 0
M  V30 4605 H 411.818 -0.725277 -0.130929 0
M  V30 4606 H 414.46 -1.8653 0.361446 0
M  V30 4607 H 412.61 -3.63101 -1.38166 0
M  V30 4608 H 414.282 -4.48362 1.08487 0
M  V30 4609 H 412.525 -4.19947 1.08753 0
M  V30 4610 H 413.196 -5.51862 0.123645 0
M  V30 4611 H 415.672 -4.01727 -1.08418 0
M  V30 4612 H 414.548 -5.16631 -1.85429 0
M  V30 4613 H 414.809 -3.58889 -2.58169 0
M  V30 4614 N 413.868 0.0150385 -1.57593 0
M  V30 4615 C 414.778 1.02791 -2.10882 0
M  V30 4616 C 415.794 1.38702 -1.0506 0
M  V30 4617 O 416.97 1.47739 -1.36877 0
M  V30 4618 C 414.035 2.30568 -2.58919 0
M  V30 4619 C 413.096 2.01108 -3.79281 0
M  V30 4620 C 412.329 3.22794 -4.25018 0
M  V30 4621 O 412.552 4.33959 -3.70183 0
M  V30 4622 O 411.486 3.07672 -5.17322 0
M  V30 4623 H 415.312 0.604973 -2.97613 0
M  V30 4624 H 412.897 0.23292 -1.47573 0
M  V30 4625 H 414.779 3.05662 -2.90084 0
M  V30 4626 H 413.454 2.72129 -1.75293 0
M  V30 4627 H 412.361 1.23537 -3.53114 0
M  V30 4628 H 413.694 1.64394 -4.63935 0
M  V30 4629 N 415.346 1.54954 0.287554 0
M  V30 4630 C 416.595 1.74081 1.01877 0
M  V30 4631 C 416.908 0.541135 1.87966 0
M  V30 4632 O 418.114 0.614491 2.64455 0
M  V30 4633 C 416.57 3.08042 1.86113 0
M  V30 4634 C 416.178 4.35531 1.04961 0
M  V30 4635 C 417.922 3.36523 2.58752 0
M  V30 4636 C 415.829 5.60538 1.88551 0
M  V30 4637 H 414.759 0.64884 0.384087 0
M  V30 4638 H 417.41 1.81426 0.275101 0
M  V30 4639 H 415.792 2.94696 2.64519 0
M  V30 4640 H 416.966 4.59751 0.31074 0
M  V30 4641 H 415.281 4.14085 0.43843 0
M  V30 4642 H 417.878 4.27122 3.21668 0
M  V30 4643 H 418.221 2.56 3.28283 0
M  V30 4644 H 418.754 3.50901 1.87386 0
M  V30 4645 H 415.493 6.43767 1.23466 0
M  V30 4646 H 415.013 5.40483 2.60074 0
M  V30 4647 H 416.692 5.98297 2.46273 0
M  V30 4648 N 416.824 -0.551391 1.4764 0
M  V30 4649 C 418.235 -1.13349 1.48354 0
M  V30 4650 C 418.586 -1.94709 0.241432 0
M  V30 4651 O 417.711 -2.06306 -0.653205 0
M  V30 4652 C 418.306 -2.0623 2.68802 0
M  V30 4653 C 416.865 -2.597 2.72457 0
M  V30 4654 C 416.012 -1.36201 2.41546 0
M  V30 4655 H 418.963 -0.337698 1.55065 0
M  V30 4656 H 418.984 -2.90196 2.46103 0
M  V30 4657 H 418.496 -1.46987 3.59188 0
M  V30 4658 H 416.597 -3.22724 1.86225 0
M  V30 4659 H 416.71 -3.00296 3.73308 0
M  V30 4660 H 415.074 -1.67068 1.9225 0
M  V30 4661 H 415.857 -0.787425 3.34147 0
M  V30 4662 N 418.302 -1.35869 -0.798587 0
M  V30 4663 C 419.212 -1.31578 -1.94228 0
M  V30 4664 C 420.228 -0.21939 -1.72611 0
M  V30 4665 O 421.404 -0.450167 -1.96305 0
M  V30 4666 C 418.469 -1.09528 -3.28944 0
M  V30 4667 C 417.53 -2.28556 -3.63402 0
M  V30 4668 C 416.763 -2.07549 -4.9169 0
M  V30 4669 O 416.986 -1.046 -5.60727 0
M  V30 4670 O 415.92 -2.95106 -5.24591 0
M  V30 4671 H 419.746 -2.27847 -2.00796 0
M  V30 4672 H 417.331 -1.16322 -0.937526 0
M  V30 4673 H 419.213 -0.991127 -4.09579 0
M  V30 4674 H 417.888 -0.16315 -3.23289 0
M  V30 4675 H 416.795 -2.44538 -2.83112 0
M  V30 4676 H 418.128 -3.20244 -3.73771 0
M  V30 4677 N 419.78 1.02168 -1.19998 0
M  V30 4678 C 420.69 2.14069 -0.959774 0
M  V30 4679 C 421.706 1.73804 0.082655 0
M  V30 4680 O 422.882 2.01133 -0.103633 0
M  V30 4681 C 419.947 3.42936 -0.509459 0
M  V30 4682 C 419.008 3.97474 -1.62213 0
M  V30 4683 C 418.241 5.2019 -1.19321 0
M  V30 4684 O 418.464 5.70369 -0.0597726 0
M  V30 4685 O 417.398 5.67749 -1.99863 0
M  V30 4686 H 421.224 2.37199 -1.89658 0
M  V30 4687 H 418.809 1.12469 -0.983411 0
M  V30 4688 H 420.691 4.20551 -0.267322 0
M  V30 4689 H 419.366 3.21234 0.398821 0
M  V30 4690 H 418.273 3.21161 -1.9185 0
M  V30 4691 H 419.606 4.23555 -2.50723 0
M  V30 4692 N 421.258 1.00505 1.21394 0
M  V30 4693 C 422.188 0.585684 2.26035 0
M  V30 4694 C 423.169 -0.393525 1.65485 0
M  V30 4695 O 424.354 -0.281497 1.92149 0
M  V30 4696 C 421.484 -0.0884283 3.47187 0
M  V30 4697 C 420.438 0.810567 4.20254 0
M  V30 4698 C 419.764 0.00286382 5.347 0
M  V30 4699 C 421.064 2.1132 4.77641 0
M  V30 4700 H 422.758 1.46039 2.61368 0
M  V30 4701 H 420.304 0.703648 1.25638 0
M  V30 4702 H 422.257 -0.393286 4.19561 0
M  V30 4703 H 420.981 -0.997766 3.10986 0
M  V30 4704 H 419.64 1.09925 3.49731 0
M  V30 4705 H 419.288 -0.907765 4.94741 0
M  V30 4706 H 418.988 0.601444 5.84514 0
M  V30 4707 H 420.512 -0.295808 6.09883 0
M  V30 4708 H 421.926 1.87148 5.41893 0
M  V30 4709 H 420.323 2.66164 5.37845 0
M  V30 4710 H 421.393 2.78393 3.9702 0
M  V30 4711 N 422.737 -1.36956 0.779787 0
M  V30 4712 C 423.965 -2.03755 0.359398 0
M  V30 4713 C 424.38 -1.58807 -1.02106 0
M  V30 4714 O 423.737 -0.773024 -1.6532 0
M  V30 4715 C 423.788 -3.59251 0.402568 0
M  V30 4716 O 423.509 -4.02557 1.72858 0
M  V30 4717 C 425.01 -4.43291 -0.0284068 0
M  V30 4718 H 422.23 -0.654148 0.149437 0
M  V30 4719 H 424.774 -1.75128 1.05595 0
M  V30 4720 H 422.929 -3.86621 -0.245478 0
M  V30 4721 H 423.343 -4.97111 1.67275 0
M  V30 4722 H 424.817 -5.51975 0.0529466 0
M  V30 4723 H 425.294 -4.25719 -1.07982 0
M  V30 4724 H 425.9 -4.21163 0.591758 0
M  V30 4725 N 424.215 -0.530993 -1.48385 0
M  V30 4726 C 425.162 0.231223 -2.29639 0
M  V30 4727 C 426.132 0.932864 -1.37429 0
M  V30 4728 O 427.317 0.933692 -1.66394 0
M  V30 4729 C 424.457 1.27155 -3.2082 0
M  V30 4730 C 423.57 0.578655 -4.28107 0
M  V30 4731 C 422.705 1.602 -5.06467 0
M  V30 4732 C 421.744 0.892625 -6.05556 0
M  V30 4733 N 420.881 1.86157 -6.76971 0
M  V30 4734 H 425.721 -0.467848 -2.94305 0
M  V30 4735 H 423.258 -0.242556 -1.45086 0
M  V30 4736 H 425.216 1.88703 -3.72085 0
M  V30 4737 H 423.846 1.939 -2.58075 0
M  V30 4738 H 422.898 -0.150782 -3.80101 0
M  V30 4739 H 424.21 0.0217065 -4.98795 0
M  V30 4740 H 423.364 2.29173 -5.61751 0
M  V30 4741 H 422.103 2.19285 -4.35621 0
M  V30 4742 H 421.108 0.188829 -5.49476 0
M  V30 4743 H 422.333 0.307878 -6.78402 0
M  V30 4744 H 420.279 2.44147 -6.08875 0
M  V30 4745 H 420.196 1.35608 -7.43738 0
M  V30 4746 H 421.464 2.54325 -7.36844 0
M  V30 4747 N 425.693 1.55336 -0.266172 0
M  V30 4748 C 427.109 1.59356 0.0882065 0
M  V30 4749 C 427.309 1.2834 1.55342 0
M  V30 4750 O 426.365 1.03996 2.30089 0
M  V30 4751 C 427.678 2.99409 -0.278364 0
M  V30 4752 C 429.226 3.12196 -0.224243 0
M  V30 4753 C 429.701 4.545 -0.565123 0
M  V30 4754 N 431.192 4.60313 -0.51634 0
M  V30 4755 C 431.927 5.68434 -0.753013 0
M  V30 4756 N 431.423 6.84738 -1.05383 0
M  V30 4757 N 433.216 5.57942 -0.682414 0
M  V30 4758 H 425.367 1.73764 -1.22147 0
M  V30 4759 H 427.63 0.809822 -0.492841 0
M  V30 4760 H 427.336 3.2691 -1.29703 0
M  V30 4761 H 427.21 3.75228 0.385186 0
M  V30 4762 H 429.597 2.84464 0.78512 0
M  V30 4763 H 429.678 2.38609 -0.921922 0
M  V30 4764 H 429.322 4.82956 -1.57213 0
M  V30 4765 H 429.252 5.26374 0.154248 0
M  V30 4766 H 431.743 3.7676 -0.29335 0
M  V30 4767 H 432.056 7.63088 -1.22133 0
M  V30 4768 H 430.401 6.86375 -1.09151 0
M  V30 4769 H 433.592 4.65958 -0.44731 0
M  V30 4770 H 433.765 6.4213 -0.870248 0
M  V30 4771 N 427.171 -0.0066808 1.57599 0
M  V30 4772 C 428.419 -0.691552 1.899 0
M  V30 4773 C 428.74 -1.74682 0.866672 0
M  V30 4774 O 428.01 -1.95661 -0.0968189 0
M  V30 4775 H 426.59 -0.258416 0.700878 0
M  V30 4776 H 429.252 0.0326655 1.94873 0
M  V30 4777 H 428.348 -1.16702 2.8946 0
M  V30 4778 N 428.649 -1.55105 -0.279332 0
M  V30 4779 C 429.897 -1.75066 -1.00977 0
M  V30 4780 C 430.218 -0.551276 -1.87045 0
M  V30 4781 O 429.488 0.433984 -1.91032 0
M  V30 4782 H 428.068 -0.645578 -0.375816 0
M  V30 4783 H 430.73 -1.92497 -0.305089 0
M  V30 4784 H 429.826 -2.64894 -1.65038 0
M  V30 4785 N 430.127 0.543554 -1.4793 0
M  V30 4786 C 431.352 1.32995 -1.59145 0
M  V30 4787 C 431.777 1.86472 -0.246956 0
M  V30 4788 O 431.135 1.63696 0.779324 0
M  V30 4789 C 431.183 2.46623 -2.63077 0
M  V30 4790 O 430.287 3.49261 -2.19295 0
M  V30 4791 H 429.628 0.394472 -0.534124 0
M  V30 4792 H 432.158 0.655489 -1.93816 0
M  V30 4793 H 432.168 2.93001 -2.83926 0
M  V30 4794 H 430.843 2.07059 -3.60693 0
M  V30 4795 H 429.42 3.09094 -2.08603 0
M  V30 4796 N 431.605 1.3629 0.791371 0
M  V30 4797 C 432.538 1.24816 1.9104 0
M  V30 4798 C 433.516 0.132739 1.62057 0
M  V30 4799 O 434.7 0.303527 1.8604 0
M  V30 4800 C 431.827 0.925355 3.25814 0
M  V30 4801 C 430.873 2.05495 3.7373 0
M  V30 4802 S 431.706 3.67255 3.89723 0
M  V30 4803 C 432.862 3.37084 5.27376 0
M  V30 4804 H 433.095 2.19533 2.00481 0
M  V30 4805 H 430.628 1.21684 0.950393 0
M  V30 4806 H 432.586 0.745924 4.03666 0
M  V30 4807 H 431.247 -0.00400098 3.141 0
M  V30 4808 H 430.44 1.7836 4.71385 0
M  V30 4809 H 430.042 2.1935 3.02922 0
M  V30 4810 H 432.334 2.90856 6.1189 0
M  V30 4811 H 433.277 4.33995 5.59512 0
M  V30 4812 H 433.685 2.7248 4.94383 0
M  V30 4813 N 433.083 -1.0153 1.20538 0
M  V30 4814 C 434.313 -1.78487 1.04048 0
M  V30 4815 C 434.721 -1.84631 -0.413292 0
M  V30 4816 O 434.064 -1.29919 -1.29872 0
M  V30 4817 C 434.126 -3.24367 1.55003 0
M  V30 4818 C 433.79 -3.41827 3.0332 0
M  V30 4819 C 434.787 -3.30941 4.00966 0
M  V30 4820 C 432.472 -3.67602 3.42307 0
M  V30 4821 C 434.466 -3.45577 5.35589 0
M  V30 4822 C 432.153 -3.81881 4.77085 0
M  V30 4823 C 433.151 -3.70874 5.73534 0
M  V30 4824 O 432.839 -3.84714 7.05868 0
M  V30 4825 H 432.571 -0.568108 0.366373 0
M  V30 4826 H 435.125 -1.28677 1.60098 0
M  V30 4827 H 433.355 -3.75266 0.933397 0
M  V30 4828 H 435.044 -3.82963 1.34514 0
M  V30 4829 H 435.81 -3.10964 3.72191 0
M  V30 4830 H 431.689 -3.75256 2.67776 0
M  V30 4831 H 435.233 -3.36902 6.10854 0
M  V30 4832 H 431.13 -4.01359 5.0555 0
M  V30 4833 H 431.898 -4.01724 7.13134 0
M  V30 4834 N 434.561 -1.01147 -1.20859 0
M  V30 4835 C 435.786 -0.716698 -1.94623 0
M  V30 4836 C 436.211 0.715415 -1.73964 0
M  V30 4837 O 435.569 1.49157 -1.03062 0
M  V30 4838 C 435.617 -1.0513 -3.44935 0
M  V30 4839 O 434.721 -0.160131 -4.12089 0
M  V30 4840 H 434.062 -0.266404 -0.608214 0
M  V30 4841 H 436.592 -1.35346 -1.53436 0
M  V30 4842 H 436.602 -1.00086 -3.95533 0
M  V30 4843 H 435.277 -2.09475 -3.59295 0
M  V30 4844 H 433.854 -0.267657 -3.71938 0
M  V30 4845 N 436.039 1.36541 -0.78704 0
M  V30 4846 C 437.267 2.03561 -0.370199 0
M  V30 4847 C 437.682 1.59347 1.01263 0
M  V30 4848 O 437.039 0.781781 1.64907 0
M  V30 4849 C 437.09 3.59033 -0.421614 0
M  V30 4850 O 436.811 4.01634 -1.7499 0
M  V30 4851 C 438.312 4.433 0.00489763 0
M  V30 4852 H 435.532 0.653346 -0.152904 0
M  V30 4853 H 438.076 1.74566 -1.06522 0
M  V30 4854 H 436.231 3.86746 0.224971 0
M  V30 4855 H 436.645 4.96217 -1.69909 0
M  V30 4856 H 438.119 5.51939 -0.0822184 0
M  V30 4857 H 438.596 4.26285 1.05723 0
M  V30 4858 H 439.202 4.20843 -0.614085 0
M  V30 4859 N 437.518 0.538854 1.48102 0
M  V30 4860 C 438.481 -0.208395 2.28251 0
M  V30 4861 C 439.481 -0.859656 1.35892 0
M  V30 4862 O 440.671 -0.71834 1.58699 0
M  V30 4863 C 437.803 -1.30252 3.15035 0
M  V30 4864 H 438.996 0.495407 2.9578 0
M  V30 4865 H 436.549 0.295112 1.53489 0
M  V30 4866 H 437.284 -2.0393 2.52157 0
M  V30 4867 H 437.069 -0.840551 3.82985 0
M  V30 4868 H 438.559 -1.82787 3.75471 0
M  V30 4869 N 438.996 -1.55193 0.274407 0
M  V30 4870 C 439.959 -2.212 -0.600279 0
M  V30 4871 C 440.959 -1.18963 -1.08187 0
M  V30 4872 O 442.149 -1.43873 -0.982158 0
M  V30 4873 C 439.281 -2.87739 -1.82809 0
M  V30 4874 H 440.474 -2.9989 -0.0239682 0
M  V30 4875 H 438.027 -1.5628 0.0250192 0
M  V30 4876 H 438.762 -2.13058 -2.44493 0
M  V30 4877 H 438.547 -3.62658 -1.49069 0
M  V30 4878 H 440.037 -3.38171 -2.45011 0
M  V30 4879 N 440.474 -0.00167713 -1.576 0
M  V30 4880 C 441.437 0.974046 -2.07473 0
M  V30 4881 C 442.437 1.27143 -0.984444 0
M  V30 4882 O 443.627 1.21633 -1.24703 0
M  V30 4883 C 440.759 2.29849 -2.51759 0
M  V30 4884 H 441.952 0.54262 -2.9495 0
M  V30 4885 H 439.505 0.245829 -1.54355 0
M  V30 4886 H 440.24 2.77677 -1.67529 0
M  V30 4887 H 440.025 2.09584 -3.31386 0
M  V30 4888 H 441.515 2.9984 -2.90664 0
M  V30 4889 N 441.952 1.55251 0.271103 0
M  V30 4890 C 442.902 1.84649 1.33749 0
M  V30 4891 C 443.886 0.705529 1.44607 0
M  V30 4892 O 445.078 0.966916 1.48256 0
M  V30 4893 C 442.207 2.12354 2.69742 0
M  V30 4894 C 441.293 3.32714 2.62988 0
M  V30 4895 N 441.684 4.52575 2.25853 0
M  V30 4896 C 439.982 3.35341 2.94045 0
M  V30 4897 C 440.683 5.34669 2.29136 0
M  V30 4898 N 439.659 4.73123 2.67685 0
M  V30 4899 H 443.461 2.74865 1.0405 0
M  V30 4900 H 440.975 1.55152 0.479738 0
M  V30 4901 H 442.972 2.31572 3.4667 0
M  V30 4902 H 441.632 1.23422 3.00328 0
M  V30 4903 H 442.643 4.78639 1.978 0
M  V30 4904 H 439.32 2.56608 3.2933 0
M  V30 4905 H 440.71 6.40509 2.02971 0
M  V30 4906 N 443.43 -0.535701 1.48216 0
M  V30 4907 C 444.36 -1.65014 1.65204 0
M  V30 4908 C 445.341 -1.62554 0.501011 0
M  V30 4909 O 446.526 -1.7984 0.732886 0
M  V30 4910 C 443.656 -3.03616 1.68626 0
M  V30 4911 C 442.61 -3.20932 2.83172 0
M  V30 4912 C 441.936 -4.60537 2.71679 0
M  V30 4913 C 443.236 -3.04249 4.24535 0
M  V30 4914 H 444.93 -1.51053 2.58502 0
M  V30 4915 H 442.476 -0.725262 1.24402 0
M  V30 4916 H 444.429 -3.81446 1.79099 0
M  V30 4917 H 443.153 -3.18587 0.719026 0
M  V30 4918 H 441.812 -2.45517 2.72244 0
M  V30 4919 H 441.46 -4.72336 1.72937 0
M  V30 4920 H 441.16 -4.73069 3.48538 0
M  V30 4921 H 442.684 -5.40475 2.84112 0
M  V30 4922 H 444.098 -3.71877 4.36326 0
M  V30 4923 H 442.495 -3.28278 5.02348 0
M  V30 4924 H 443.565 -2.00739 4.41397 0
M  V30 4925 N 444.908 -1.36708 -0.784132 0
M  V30 4926 C 446.157 -1.30559 -1.53744 0
M  V30 4927 C 446.47 0.111374 -1.95283 0
M  V30 4928 O 447.676 0.29527 -2.6989 0
M  V30 4929 C 446.132 -2.29098 -2.77565 0
M  V30 4930 C 445.74 -3.76258 -2.43174 0
M  V30 4931 C 447.484 -2.31936 -3.55536 0
M  V30 4932 C 445.391 -4.6656 -3.63422 0
M  V30 4933 H 444.321 -0.48518 -0.577162 0
M  V30 4934 H 446.972 -1.62101 -0.859981 0
M  V30 4935 H 445.354 -1.90557 -3.47137 0
M  V30 4936 H 446.528 -4.23565 -1.81465 0
M  V30 4937 H 444.843 -3.76246 -1.78403 0
M  V30 4938 H 447.44 -2.9661 -4.44889 0
M  V30 4939 H 447.783 -1.3294 -3.94503 0
M  V30 4940 H 448.316 -2.6912 -2.92949 0
M  V30 4941 H 445.055 -5.66638 -3.29547 0
M  V30 4942 H 444.575 -4.23966 -4.24279 0
M  V30 4943 H 446.254 -4.8309 -4.30387 0
M  V30 4944 N 446.386 1.0089 -1.21074 0
M  V30 4945 C 447.802 1.2695 -0.967257 0
M  V30 4946 C 448.002 1.9846 0.348673 0
M  V30 4947 O 447.058 2.28459 1.0753 0
M  V30 4948 C 448.371 2.09697 -2.15517 0
M  V30 4949 C 449.919 2.22937 -2.197 0
M  V30 4950 C 450.394 3.09064 -3.37999 0
M  V30 4951 N 451.885 3.16653 -3.38061 0
M  V30 4952 C 452.62 3.8354 -4.26245 0
M  V30 4953 N 452.116 4.52488 -5.2462 0
M  V30 4954 N 453.909 3.80141 -4.14064 0
M  V30 4955 H 446.06 0.529005 -2.05707 0
M  V30 4956 H 448.323 0.296148 -0.900556 0
M  V30 4957 H 448.029 1.64497 -3.10859 0
M  V30 4958 H 447.903 3.10444 -2.14253 0
M  V30 4959 H 450.29 2.67357 -1.24916 0
M  V30 4960 H 450.371 1.21673 -2.2501 0
M  V30 4961 H 450.015 2.65347 -4.33074 0
M  V30 4962 H 449.945 4.10433 -3.29928 0
M  V30 4963 H 452.436 2.67566 -2.66865 0
M  V30 4964 H 452.749 5.01219 -5.88217 0
M  V30 4965 H 451.094 4.51288 -5.28549 0
M  V30 4966 H 454.285 3.25427 -3.36474 0
M  V30 4967 H 454.458 4.31992 -4.82998 0
M  V30 4968 N 447.864 1.01787 1.20321 0
M  V30 4969 C 449.141 0.622978 1.85414 0
M  V30 4970 C 449.521 -0.898887 1.91006 0
M  V30 4971 O 448.869 -1.79112 1.41884 0
M  V30 4972 C 449.079 1.27226 3.24984 0
M  V30 4973 C 450.427 1.3885 4.01255 0
M  V30 4974 O 451.451 1.22857 3.34342 0
M  V30 4975 O 450.31 1.64705 5.2109 0
M  V30 4976 H 447.404 0.215116 0.798533 0
M  V30 4977 H 449.95 1.11533 1.27901 0
M  V30 4978 H 448.722 2.31209 3.15687 0
M  V30 4979 H 448.345 0.767069 3.90131 0
M  V30 4980 N 449.342 -1.36122 0.79427 0
M  V30 4981 C 450.272 -2.32551 0.210328 0
M  V30 4982 C 451.253 -1.56884 -0.657386 0
M  V30 4983 O 452.438 -1.85014 -0.590207 0
M  V30 4984 C 449.568 -3.41128 -0.651819 0
M  V30 4985 C 448.522 -4.27842 0.116395 0
M  V30 4986 C 447.848 -5.2763 -0.86666 0
M  V30 4987 C 449.148 -5.05647 1.30837 0
M  V30 4988 H 450.842 -2.81636 1.01594 0
M  V30 4989 H 448.388 -1.35407 0.489981 0
M  V30 4990 H 450.341 -4.07581 -1.07031 0
M  V30 4991 H 449.065 -2.90622 -1.49019 0
M  V30 4992 H 447.724 -3.62952 0.515915 0
M  V30 4993 H 447.372 -4.73395 -1.70019 0
M  V30 4994 H 447.072 -5.86514 -0.35705 0
M  V30 4995 H 448.596 -5.96955 -1.28361 0
M  V30 4996 H 450.01 -5.65113 0.965393 0
M  V30 4997 H 448.407 -5.73967 1.75161 0
M  V30 4998 H 449.477 -4.37006 2.10128 0
M  V30 4999 N 450.82 -0.546701 -1.47814 0
M  V30 5000 C 451.73 0.21026 -2.33656 0
M  V30 5001 C 452.746 0.922413 -1.47538 0
M  V30 5002 O 453.922 0.893652 -1.80488 0
M  V30 5003 C 450.987 1.23348 -3.24016 0
M  V30 5004 C 450.048 0.529883 -4.26017 0
M  V30 5005 C 449.281 1.50435 -5.12059 0
M  V30 5006 O 449.504 2.73837 -5.00369 0
M  V30 5007 O 448.438 1.03459 -5.92942 0
M  V30 5008 H 452.264 -0.493605 -2.99662 0
M  V30 5009 H 449.849 -0.307427 -1.46203 0
M  V30 5010 H 451.731 1.82438 -3.79861 0
M  V30 5011 H 450.406 1.91945 -2.60651 0
M  V30 5012 H 449.313 -0.101948 -3.73961 0
M  V30 5013 H 450.646 -0.11445 -4.92067 0
M  V30 5014 N 452.299 1.55045 -0.282633 0
M  V30 5015 C 453.527 2.04168 0.33512 0
M  V30 5016 C 453.942 1.16071 1.48906 0
M  V30 5017 O 453.299 0.182391 1.81586 0
M  V30 5018 C 453.35 3.52332 0.808957 0
M  V30 5019 O 453.071 4.37078 -0.299038 0
M  V30 5020 C 454.572 4.17375 1.49375 0
M  V30 5021 H 451.792 0.666744 0.0754543 0
M  V30 5022 H 454.336 2.00205 -0.416918 0
M  V30 5023 H 452.491 3.56715 1.51106 0
M  V30 5024 H 452.905 5.24458 0.0665514 0
M  V30 5025 H 454.379 5.22627 1.77664 0
M  V30 5026 H 454.856 3.65999 2.42778 0
M  V30 5027 H 455.462 4.17016 0.835305 0
M  V30 5028 N 453.777 0.010035 1.57597 0
M  V30 5029 C 455.054 -0.710296 1.82248 0
M  V30 5030 C 455.434 -1.91426 0.889911 0
M  V30 5031 O 454.782 -2.28424 -0.0590292 0
M  V30 5032 C 454.992 -1.10655 3.30993 0
M  V30 5033 C 456.34 -1.50621 3.96987 0
M  V30 5034 O 457.364 -1.20007 3.35375 0
M  V30 5035 O 456.223 -2.07587 5.05539 0
M  V30 5036 H 453.317 -0.34673 0.750804 0
M  V30 5037 H 455.863 0.0362578 1.69661 0
M  V30 5038 H 454.635 -0.248826 3.90508 0
M  V30 5039 H 454.258 -1.91189 3.48615 0
M  V30 5040 N 455.255 -1.55392 -0.262866 0
M  V30 5041 C 456.165 -1.92077 -1.34698 0
M  V30 5042 C 457.181 -0.819227 -1.53508 0
M  V30 5043 O 458.357 -1.11921 -1.67439 0
M  V30 5044 C 455.422 -2.19407 -2.68443 0
M  V30 5045 C 454.483 -3.42905 -2.58292 0
M  V30 5046 C 453.716 -3.68921 -3.85659 0
M  V30 5047 O 453.939 -2.97275 -4.8681 0
M  V30 5048 O 452.873 -4.62455 -3.85252 0
M  V30 5049 H 456.699 -2.84384 -1.06581 0
M  V30 5050 H 454.284 -1.42069 -0.462264 0
M  V30 5051 H 456.166 -2.38365 -3.47506 0
M  V30 5052 H 454.841 -1.30282 -2.96325 0
M  V30 5053 H 453.748 -3.29272 -1.7757 0
M  V30 5054 H 455.081 -4.32282 -2.35358 0
M  V30 5055 N 456.733 0.527833 -1.48498 0
M  V30 5056 C 457.981 1.28101 -1.56316 0
M  V30 5057 C 458.302 1.9352 -0.239781 0
M  V30 5058 O 457.572 1.81433 0.738849 0
M  V30 5059 H 456.152 0.475793 -0.575873 0
M  V30 5060 H 458.814 0.614052 -1.84974 0
M  V30 5061 H 457.91 2.05916 -2.34532 0
M  V30 5062 N 458.211 1.37122 0.776871 0
M  V30 5063 C 459.158 1.3247 1.88998 0
M  V30 5064 C 460.128 0.191143 1.64997 0
M  V30 5065 O 461.313 0.379683 1.86984 0
M  V30 5066 C 458.453 1.13241 3.25992 0
M  V30 5067 C 457.566 2.35782 3.61982 0
M  V30 5068 C 456.701 2.09465 4.88158 0
M  V30 5069 C 455.74 3.279 5.16864 0
M  V30 5070 N 454.877 3.01167 6.34226 0
M  V30 5071 H 459.717 2.27642 1.9231 0
M  V30 5072 H 457.254 1.13125 0.94027 0
M  V30 5073 H 459.212 1.00115 4.0501 0
M  V30 5074 H 457.842 0.217186 3.22069 0
M  V30 5075 H 456.894 2.59666 2.77989 0
M  V30 5076 H 458.206 3.24125 3.79137 0
M  V30 5077 H 457.36 1.93341 5.75069 0
M  V30 5078 H 456.099 1.18452 4.73097 0
M  V30 5079 H 455.104 3.44569 4.2843 0
M  V30 5080 H 456.329 4.19757 5.33836 0
M  V30 5081 H 454.275 2.12779 6.20533 0
M  V30 5082 H 454.192 3.83052 6.51772 0
M  V30 5083 H 455.46 2.88649 7.24087 0
M  V30 5084 N 459.689 -1.00246 1.21608 0
M  V30 5085 C 460.938 -1.73476 1.02902 0
M  V30 5086 C 461.251 -1.90643 -0.437561 0
M  V30 5087 O 462.457 -2.61105 -0.74407 0
M  V30 5088 C 460.913 -3.12079 1.79261 0
M  V30 5089 C 460.521 -3.02877 3.30106 0
M  V30 5090 C 462.265 -3.89421 1.68972 0
M  V30 5091 C 460.172 -4.36575 3.98944 0
M  V30 5092 H 459.102 -0.650408 0.381425 0
M  V30 5093 H 461.753 -1.11985 1.45367 0
M  V30 5094 H 460.135 -3.74196 1.2959 0
M  V30 5095 H 461.309 -2.49983 3.87098 0
M  V30 5096 H 459.624 -2.39022 3.40965 0
M  V30 5097 H 462.221 -4.88362 2.17731 0
M  V30 5098 H 462.564 -4.1122 0.648397 0
M  V30 5099 H 463.097 -3.33963 2.16133 0
M  V30 5100 H 459.836 -4.19978 5.03288 0
M  V30 5101 H 459.356 -4.8942 3.4674 0
M  V30 5102 H 461.035 -5.05364 4.04 0
M  V30 5103 N 461.167 -1.02423 -1.1978 0
M  V30 5104 C 462.117 -0.571689 -2.20716 0
M  V30 5105 C 463.101 0.377077 -1.56419 0
M  V30 5106 O 464.293 0.198801 -1.7588 0
M  V30 5107 C 461.422 0.0808555 -3.43205 0
M  V30 5108 C 460.508 -0.890073 -4.14655 0
M  V30 5109 N 460.899 -2.05065 -4.62366 0
M  V30 5110 C 459.197 -0.71252 -4.40272 0
M  V30 5111 C 459.898 -2.66264 -5.17183 0
M  V30 5112 N 458.874 -1.94264 -5.07703 0
M  V30 5113 H 462.676 -1.45636 -2.55279 0
M  V30 5114 H 460.19 -0.890596 -1.35802 0
M  V30 5115 H 462.187 0.422654 -4.14752 0
M  V30 5116 H 460.847 0.961274 -3.10144 0
M  V30 5117 H 461.858 -2.43026 -4.57339 0
M  V30 5118 H 458.535 0.119199 -4.1733 0
M  V30 5119 H 459.925 -3.64526 -5.64421 0
M  V30 5120 N 462.645 1.35699 -0.801477 0
M  V30 5121 C 463.894 1.98165 -0.375979 0
M  V30 5122 C 464.207 1.64306 1.06127 0
M  V30 5123 O 465.413 2.20097 1.58964 0
M  V30 5124 C 463.869 3.54497 -0.621305 0
M  V30 5125 C 463.477 3.9727 -2.07076 0
M  V30 5126 C 465.221 4.23697 -0.26091 0
M  V30 5127 C 463.128 5.46427 -2.26211 0
M  V30 5128 H 462.058 0.741478 -0.136844 0
M  V30 5129 H 464.709 1.54834 -0.984814 0
M  V30 5130 H 463.091 3.95958 0.0574112 0
M  V30 5131 H 464.265 3.66974 -2.78687 0
M  V30 5132 H 462.58 3.40943 -2.39054 0
M  V30 5133 H 465.177 5.33334 -0.381994 0
M  V30 5134 H 465.52 4.0869 0.792344 0
M  V30 5135 H 466.053 3.87639 -0.893339 0
M  V30 5136 H 462.792 5.66396 -3.29963 0
M  V30 5137 H 462.312 5.78309 -1.59119 0
M  V30 5138 H 463.991 6.12819 -2.07513 0
M  V30 5139 N 464.123 0.554532 1.47522 0
M  V30 5140 C 465.369 0.0295227 2.02779 0
M  V30 5141 C 465.702 -1.31582 1.42828 0
M  V30 5142 O 464.977 -1.85561 0.582872 0
M  V30 5143 C 465.26 -0.0664057 3.60039 0
M  V30 5144 C 465.113 1.30585 4.30427 0
M  V30 5145 C 466.432 -0.781162 4.33112 0
M  V30 5146 H 463.551 0.0122027 0.736899 0
M  V30 5147 H 466.193 0.716305 1.7598 0
M  V30 5148 H 464.343 -0.651307 3.83002 0
M  V30 5149 H 466.015 1.93374 4.18813 0
M  V30 5150 H 464.258 1.88125 3.90886 0
M  V30 5151 H 464.929 1.19147 5.38988 0
M  V30 5152 H 467.405 -0.284565 4.15126 0
M  V30 5153 H 466.281 -0.817237 5.42782 0
M  V30 5154 H 466.542 -1.83672 4.0214 0
M  V30 5155 N 465.601 -1.54893 0.290851 0
M  V30 5156 C 466.549 -2.24579 -0.605576 0
M  V30 5157 C 467.543 -1.24824 -1.14522 0
M  V30 5158 O 468.749 -1.42706 -1.09704 0
M  V30 5159 H 465.124 -0.720946 -0.213872 0
M  V30 5160 H 467.095 -2.984 0.0048173 0
M  V30 5161 C 465.844 -2.99224 -1.77088 0
M  V30 5162 H 465.167 -3.75782 -1.36484 0
M  V30 5163 H 466.607 -3.51281 -2.3744 0
M  V30 5164 C 465.066 -2.05602 -2.66888 0
M  V30 5165 O 465.596 -1.61745 -3.67698 0
M  V30 5166 N 463.802 -1.71771 -2.34399 0
M  V30 5167 H 463.349 -2.07633 -1.52468 0
M  V30 5168 H 463.307 -1.09403 -2.94751 0
M  V30 5169 N 467.08 -0.0183926 -1.57589 0
M  V30 5170 C 468.308 0.673046 -1.95647 0
M  V30 5171 C 468.723 1.66275 -0.894312 0
M  V30 5172 O 468.08 1.82072 0.124975 0
M  V30 5173 C 468.131 1.38884 -3.33756 0
M  V30 5174 O 467.852 0.438806 -4.35897 0
M  V30 5175 C 469.353 2.1731 -3.86383 0
M  V30 5176 H 466.573 0.186292 -0.644621 0
M  V30 5177 H 469.117 -0.0749748 -2.04363 0
M  V30 5178 H 467.272 2.08835 -3.26293 0
M  V30 5179 H 467.686 0.945869 -5.15901 0
M  V30 5180 H 469.16 2.62863 -4.85394 0
M  V30 5181 H 469.637 3.00764 -3.20059 0
M  V30 5182 H 470.243 1.52339 -3.97081 0
M  V30 5183 N 468.558 1.5553 0.254621 0
M  V30 5184 C 469.974 1.4778 0.602753 0
M  V30 5185 C 470.174 0.707047 1.88688 0
M  V30 5186 O 469.23 0.233288 2.5142 0
M  V30 5187 C 470.543 2.92133 0.712648 0
M  V30 5188 C 472.091 3.02458 0.805488 0
M  V30 5189 C 472.566 4.48102 0.947009 0
M  V30 5190 N 474.057 4.52008 1.01207 0
M  V30 5191 C 474.792 5.61939 1.1407 0
M  V30 5192 N 474.288 6.81697 1.23536 0
M  V30 5193 N 476.081 5.49719 1.17325 0
M  V30 5194 H 468.232 2.04085 -0.588463 0
M  V30 5195 H 470.495 0.926229 -0.202001 0
M  V30 5196 H 470.201 3.51332 -0.160766 0
M  V30 5197 H 470.075 3.42187 1.58707 0
M  V30 5198 H 472.462 2.43344 1.66936 0
M  V30 5199 H 472.543 2.55627 -0.0939266 0
M  V30 5200 H 472.187 5.07824 0.087725 0
M  V30 5201 H 472.117 4.92607 1.86135 0
M  V30 5202 H 474.608 3.65749 0.950577 0
M  V30 5203 H 474.921 7.61228 1.33236 0
M  V30 5204 H 473.266 6.84473 1.20508 0
M  V30 5205 H 476.457 4.55095 1.09573 0
M  V30 5206 H 476.63 6.35432 1.27005 0
M  V30 5207 N 470.036 -0.519951 1.48776 0
M  V30 5208 C 470.984 -1.64443 1.64503 0
M  V30 5209 C 471.978 -1.61501 0.511248 0
M  V30 5210 O 473.184 -1.66238 0.690294 0
M  V30 5211 H 469.559 -0.544776 0.518385 0
M  V30 5212 H 471.53 -1.48325 2.58925 0
M  V30 5213 C 470.279 -3.02673 1.71127 0
M  V30 5214 H 469.602 -3.05635 2.57735 0
M  V30 5215 H 471.042 -3.80941 1.86172 0
M  V30 5216 C 469.501 -3.33854 0.452032 0
M  V30 5217 O 470.031 -3.99385 -0.430678 0
M  V30 5218 N 468.237 -2.88825 0.32069 0
M  V30 5219 H 467.784 -2.35674 1.03998 0
M  V30 5220 H 467.742 -3.10056 -0.520814 0
M  V30 5221 N 471.514 -1.37532 -0.769588 0
M  V30 5222 C 472.462 -1.33561 -1.90432 0
M  V30 5223 C 473.456 -0.224027 -1.67912 0
M  V30 5224 O 474.662 -0.392174 -1.75676 0
M  V30 5225 H 471.037 -0.416279 -0.626271 0
M  V30 5226 H 473.008 -2.29348 -1.90899 0
M  V30 5227 C 471.757 -1.16162 -3.27722 0
M  V30 5228 H 471.08 -2.00951 -3.45628 0
M  V30 5229 H 472.52 -1.17434 -4.07413 0
M  V30 5230 C 470.979 0.132583 -3.36639 0
M  V30 5231 O 471.509 1.11539 -3.85904 0
M  V30 5232 N 469.715 0.184013 -2.90017 0
M  V30 5233 H 469.262 -0.616415 -2.50116 0
M  V30 5234 H 469.22 1.04956 -2.96364 0
M  V30 5235 N 472.992 0.995999 -1.22138 0
M  V30 5236 C 474.24 1.73167 -1.042 0
M  V30 5237 C 474.561 1.90329 0.42423 0
M  V30 5238 O 473.831 1.4607 1.30539 0
M  V30 5239 H 472.411 0.641593 -0.38258 0
M  V30 5240 H 475.073 1.19974 -1.53598 0
M  V30 5241 H 474.169 2.72734 -1.51731 0
M  V30 5242 N 474.47 1.03057 1.19235 0
M  V30 5243 C 475.695 0.74757 1.93458 0
M  V30 5244 C 476.12 -0.687648 1.7508 0
M  V30 5245 O 475.478 -1.47499 1.05422 0
M  V30 5246 C 475.526 1.10604 3.43219 0
M  V30 5247 O 474.63 0.225671 4.11782 0
M  V30 5248 H 473.971 0.276047 0.603899 0
M  V30 5249 H 476.501 1.3777 1.51263 0
M  V30 5250 H 476.511 1.06366 3.93891 0
M  V30 5251 H 475.186 2.15165 3.55917 0
M  V30 5252 H 473.763 0.326795 3.71465 0
M  V30 5253 N 475.948 -1.35272 0.808662 0
M  V30 5254 C 477.197 -1.97963 0.386483 0
M  V30 5255 C 477.51 -1.64866 -1.05255 0
M  V30 5256 O 478.716 -2.20937 -1.57794 0
M  V30 5257 C 477.172 -3.54162 0.640096 0
M  V30 5258 C 476.78 -3.96166 2.0918 0
M  V30 5259 C 478.524 -4.23553 0.283376 0
M  V30 5260 C 476.431 -5.4522 2.29106 0
M  V30 5261 H 475.361 -0.740742 0.140774 0
M  V30 5262 H 478.012 -1.5431 0.993012 0
M  V30 5263 H 476.394 -3.95983 -0.0364117 0
M  V30 5264 H 477.568 -3.65491 2.80629 0
M  V30 5265 H 475.883 -3.3967 2.40859 0
M  V30 5266 H 478.48 -5.33124 0.410273 0
M  V30 5267 H 478.823 -4.09105 -0.770659 0
M  V30 5268 H 479.356 -3.8716 0.913884 0
M  V30 5269 H 476.095 -5.64638 3.32962 0
M  V30 5270 H 475.615 -5.77457 1.62184 0
M  V30 5271 H 477.294 -6.1171 2.1076 0
M  V30 5272 N 477.426 -0.562348 -1.47226 0
M  V30 5273 C 478.336 0.185466 -2.33866 0
M  V30 5274 C 479.352 0.906713 -1.48508 0
M  V30 5275 O 480.528 0.874458 -1.81425 0
M  V30 5276 C 477.593 1.19904 -3.25306 0
M  V30 5277 C 476.654 0.484669 -4.26555 0
M  V30 5278 C 475.887 1.44996 -5.13626 0
M  V30 5279 O 476.11 2.68515 -5.03245 0
M  V30 5280 O 475.044 0.971642 -5.94006 0
M  V30 5281 H 478.87 -0.525361 -2.99121 0
M  V30 5282 H 476.455 -0.322916 -1.45868 0
M  V30 5283 H 478.337 1.78399 -3.81774 0
M  V30 5284 H 477.012 1.8917 -2.62672 0
M  V30 5285 H 475.919 -0.141605 -3.73832 0
M  V30 5286 H 477.252 -0.166634 -4.91918 0
M  V30 5287 N 478.904 1.54736 -0.299062 0
M  V30 5288 C 479.852 2.24897 0.593658 0
M  V30 5289 C 480.846 1.25429 1.13859 0
M  V30 5290 O 482.052 1.43286 1.08945 0
M  V30 5291 H 478.427 0.72207 0.210046 0
M  V30 5292 H 480.398 2.98393 -0.0206421 0
M  V30 5293 C 479.147 3.00159 1.75499 0
M  V30 5294 H 478.47 3.76501 1.34489 0
M  V30 5295 H 479.91 3.52535 2.35574 0
M  V30 5296 C 478.369 2.07015 2.65794 0
M  V30 5297 O 478.899 1.63692 3.66835 0
M  V30 5298 N 477.105 1.73012 2.33485 0
M  V30 5299 H 476.652 2.08439 1.51364 0
M  V30 5300 H 476.61 1.10965 2.94167 0
M  V30 5301 N 480.382 0.0267497 1.57577 0
M  V30 5302 C 481.312 -0.954308 2.13108 0
M  V30 5303 C 482.293 -1.34088 1.04663 0
M  V30 5304 O 483.478 -1.41992 1.32484 0
M  V30 5305 C 480.608 -2.23744 2.65624 0
M  V30 5306 C 479.562 -1.99168 3.78835 0
M  V30 5307 C 478.888 -3.33726 4.17769 0
M  V30 5308 C 480.188 -1.33277 5.0501 0
M  V30 5309 H 481.882 -0.491848 2.95332 0
M  V30 5310 H 479.428 -0.23514 1.42067 0
M  V30 5311 H 481.381 -2.92754 3.03106 0
M  V30 5312 H 480.105 -2.72151 1.80558 0
M  V30 5313 H 478.764 -1.32577 3.41788 0
M  V30 5314 H 478.412 -3.79888 3.29688 0
M  V30 5315 H 478.112 -3.18089 4.94058 0
M  V30 5316 H 479.636 -4.04008 4.57832 0
M  V30 5317 H 481.05 -1.92283 5.40093 0
M  V30 5318 H 479.447 -1.28045 5.8628 0
M  V30 5319 H 480.517 -0.305411 4.83937 0
M  V30 5320 N 481.861 -1.55662 -0.24637 0
M  V30 5321 C 483.272 -1.67953 -0.81539 0
M  V30 5322 C 483.623 -0.624302 -1.86002 0
M  V30 5323 O 482.748 0.229328 -2.15181 0
M  V30 5324 C 483.343 -3.04484 -1.48576 0
M  V30 5325 C 481.902 -3.18713 -2.00248 0
M  V30 5326 C 481.049 -2.6383 -0.853766 0
M  V30 5327 H 484 -1.58685 -0.0221692 0
M  V30 5328 H 484.021 -2.98959 -2.3538 0
M  V30 5329 H 483.533 -3.81264 -0.725222 0
M  V30 5330 H 481.634 -2.46757 -2.79181 0
M  V30 5331 H 481.747 -4.25628 -2.1995 0
M  V30 5332 H 480.111 -2.21667 -1.25442 0
M  V30 5333 H 480.894 -3.43135 -0.106302 0
M  V30 5334 N 483.339 0.512053 -1.4905 0
M  V30 5335 C 484.616 1.27337 -1.48474 0
M  V30 5336 C 484.996 2.1009 -0.206301 0
M  V30 5337 O 484.344 2.136 0.811609 0
M  V30 5338 C 484.554 2.13954 -2.75726 0
M  V30 5339 C 485.902 2.73507 -3.24776 0
M  V30 5340 O 486.926 2.24229 -2.76767 0
M  V30 5341 O 485.785 3.63186 -4.08361 0
M  V30 5342 H 482.879 0.575652 -0.593762 0
M  V30 5343 H 485.425 0.527232 -1.61302 0
M  V30 5344 H 484.197 1.52709 -3.60272 0
M  V30 5345 H 483.82 2.95782 -2.65705 0
M  V30 5346 N 484.817 1.37938 0.762283 0
M  V30 5347 C 486.094 1.24196 1.51112 0
M  V30 5348 C 486.474 -0.160409 2.1049 0
M  V30 5349 O 485.822 -1.16904 1.96331 0
M  V30 5350 C 486.032 2.34537 2.58445 0
M  V30 5351 C 487.38 2.7254 3.25588 0
M  V30 5352 O 488.404 2.33783 2.68745 0
M  V30 5353 O 487.263 3.39343 4.28379 0
M  V30 5354 H 484.357 0.485175 0.669727 0
M  V30 5355 H 486.903 1.49743 0.798438 0
M  V30 5356 H 485.675 3.28406 2.12756 0
M  V30 5357 H 485.298 2.10505 3.37303 0
M  V30 5358 N 486.295 -0.989507 1.22664 0
M  V30 5359 C 487.525 -1.7624 1.0781 0
M  V30 5360 C 487.933 -1.85466 -0.374036 0
M  V30 5361 O 487.276 -1.32645 -1.27087 0
M  V30 5362 C 487.338 -3.21007 1.61849 0
M  V30 5363 C 487.002 -3.35316 3.10503 0
M  V30 5364 C 487.999 -3.22362 4.07896 0
M  V30 5365 C 485.684 -3.60258 3.50028 0
M  V30 5366 C 487.678 -3.34139 5.42798 0
M  V30 5367 C 485.365 -3.71676 4.85078 0
M  V30 5368 C 486.363 -3.58625 5.81272 0
M  V30 5369 O 486.051 -3.69655 7.1387 0
M  V30 5370 H 485.783 -0.560209 0.378341 0
M  V30 5371 H 488.337 -1.25252 1.62792 0
M  V30 5372 H 486.567 -3.73202 1.01279 0
M  V30 5373 H 488.256 -3.80024 1.42606 0
M  V30 5374 H 489.022 -3.03 3.78703 0
M  V30 5375 H 484.901 -3.69492 2.75675 0
M  V30 5376 H 488.445 -3.23869 6.17863 0
M  V30 5377 H 484.342 -3.90545 5.1395 0
M  V30 5378 H 485.11 -3.86507 7.21495 0
M  V30 5379 N 487.773 -1.03688 -1.18687 0
M  V30 5380 C 489.019 -0.739123 -1.88851 0
M  V30 5381 C 489.352 0.731042 -1.79915 0
M  V30 5382 O 488.627 1.53313 -1.19688 0
M  V30 5383 C 488.91 -1.20106 -3.3948 0
M  V30 5384 C 488.763 -2.73304 -3.57246 0
M  V30 5385 C 490.082 -0.788134 -4.32986 0
M  V30 5386 H 487.201 -0.269978 -0.68577 0
M  V30 5387 H 489.843 -1.28822 -1.3966 0
M  V30 5388 H 487.993 -0.733915 -3.81505 0
M  V30 5389 H 489.665 -3.28027 -3.24339 0
M  V30 5390 H 487.908 -3.13313 -3.00029 0
M  V30 5391 H 488.579 -3.00684 -4.62918 0
M  V30 5392 H 491.055 -1.19005 -3.98719 0
M  V30 5393 H 489.931 -1.13915 -5.36949 0
M  V30 5394 H 490.192 0.308988 -4.41019 0
M  V30 5395 N 489.251 1.34841 -0.815825 0
M  V30 5396 C 490.181 2.32187 -0.247298 0
M  V30 5397 C 491.162 1.5791 0.632344 0
M  V30 5398 O 492.347 1.8593 0.560698 0
M  V30 5399 C 489.477 3.42122 0.597466 0
M  V30 5400 C 488.431 4.27602 -0.184446 0
M  V30 5401 C 487.757 5.28942 0.782609 0
M  V30 5402 C 489.057 5.03502 -1.38865 0
M  V30 5403 H 490.751 2.79985 -1.06061 0
M  V30 5404 H 488.297 1.34611 -0.511461 0
M  V30 5405 H 490.25 4.09232 1.00533 0
M  V30 5406 H 488.974 2.92956 1.44376 0
M  V30 5407 H 487.633 3.62085 -0.573592 0
M  V30 5408 H 487.281 4.7604 1.62466 0
M  V30 5409 H 486.981 5.87008 0.263695 0
M  V30 5410 H 488.505 5.98922 1.18848 0
M  V30 5411 H 489.919 5.63506 -1.05518 0
M  V30 5412 H 488.316 5.71108 -1.8427 0
M  V30 5413 H 489.386 4.33608 -2.17054 0
M  V30 5414 N 490.729 0.570148 1.46925 0
M  V30 5415 C 491.639 -0.173061 2.33961 0
M  V30 5416 C 492.655 -0.898825 1.48987 0
M  V30 5417 O 493.831 -0.864825 1.81887 0
M  V30 5418 C 490.896 -1.18177 3.25937 0
M  V30 5419 C 489.957 -0.462041 4.26806 0
M  V30 5420 C 489.19 -1.4227 5.14388 0
M  V30 5421 O 489.413 -2.65842 5.04662 0
M  V30 5422 O 488.347 -0.940127 5.94513 0
M  V30 5423 H 492.173 0.541216 2.98839 0
M  V30 5424 H 489.758 0.330647 1.45695 0
M  V30 5425 H 491.64 -1.76372 3.82715 0
M  V30 5426 H 490.315 -1.87774 2.63671 0
M  V30 5427 H 489.222 0.161429 3.73752 0
M  V30 5428 H 490.555 0.192719 4.91823 0
M  V30 5429 N 492.207 -1.54576 0.307264 0
M  V30 5430 C 493.456 -1.99442 -0.300976 0
M  V30 5431 C 493.769 -1.19928 -1.5452 0
M  V30 5432 O 494.975 -1.55092 -2.22842 0
M  V30 5433 C 493.431 -3.55084 -0.586809 0
M  V30 5434 C 493.039 -4.43413 0.639438 0
M  V30 5435 C 494.783 -4.0846 -1.1559 0
M  V30 5436 C 492.69 -5.90499 0.326411 0
M  V30 5437 H 491.62 -0.744986 -0.116238 0
M  V30 5438 H 494.271 -1.787 0.416947 0
M  V30 5439 H 492.653 -3.71749 -1.36449 0
M  V30 5440 H 493.827 -4.38522 1.41545 0
M  V30 5441 H 492.142 -4.00842 1.1276 0
M  V30 5442 H 494.739 -5.15926 -1.40445 0
M  V30 5443 H 495.082 -3.59443 -2.10015 0
M  V30 5444 H 495.615 -3.95362 -0.439778 0
M  V30 5445 H 492.354 -6.43676 1.23939 0
M  V30 5446 H 491.874 -5.98382 -0.412212 0
M  V30 5447 H 493.553 -6.46962 -0.0697393 0
M  V30 5448 N 493.685 -0.035106 -1.57561 0
M  V30 5449 C 495.096 0.502885 -1.798 0
M  V30 5450 C 495.447 1.71892 -0.945921 0
M  V30 5451 O 494.572 2.15822 -0.157991 0
M  V30 5452 C 495.167 0.919097 -3.26095 0
M  V30 5453 C 493.726 1.40216 -3.49308 0
M  V30 5454 C 492.873 0.369709 -2.74824 0
M  V30 5455 H 495.824 -0.261102 -1.56537 0
M  V30 5456 H 495.845 1.78308 -3.36135 0
M  V30 5457 H 495.357 0.0338526 -3.88085 0
M  V30 5458 H 493.458 2.30714 -2.92578 0
M  V30 5459 H 493.571 1.40541 -4.58023 0
M  V30 5460 H 491.935 0.839113 -2.40481 0
M  V30 5461 H 492.718 -0.507173 -3.39533 0
M  V30 5462 N 495.163 1.55791 0.238111 0
M  V30 5463 C 496.403 1.79801 0.972163 0
M  V30 5464 C 496.767 0.606027 1.82185 0
M  V30 5465 O 497.968 0.725079 2.58836 0
M  V30 5466 C 496.239 3.08608 1.80266 0
M  V30 5467 S 497.798 3.53872 2.59461 0
M  V30 5468 H 494.616 0.631418 0.326852 0
M  V30 5469 H 497.218 1.94031 0.239212 0
M  V30 5470 H 495.922 3.93419 1.1683 0
M  V30 5471 H 495.453 2.9714 2.57821 0
M  V30 5472 H 497.468 3.15899 3.82651 0
M  V30 5473 N 496.642 -0.504142 1.49319 0
M  V30 5474 C 497.872 -1.28071 1.62116 0
M  V30 5475 C 498.28 -1.86955 0.290566 0
M  V30 5476 O 497.623 -1.68415 -0.733616 0
M  V30 5477 C 497.685 -2.4521 2.62893 0
M  V30 5478 C 497.349 -2.07218 4.0732 0
M  V30 5479 C 498.346 -1.61375 4.94221 0
M  V30 5480 C 496.031 -2.16949 4.53033 0
M  V30 5481 C 498.025 -1.25763 6.2487 0
M  V30 5482 C 495.712 -1.80949 5.83696 0
M  V30 5483 C 496.71 -1.3543 6.69438 0
M  V30 5484 O 496.398 -0.99915 7.97667 0
M  V30 5485 H 496.13 -0.394763 0.54876 0
M  V30 5486 H 498.684 -0.612118 1.96067 0
M  V30 5487 H 496.914 -3.15134 2.24115 0
M  V30 5488 H 498.603 -3.0724 2.65252 0
M  V30 5489 H 499.369 -1.53306 4.60133 0
M  V30 5490 H 495.248 -2.5133 3.86463 0
M  V30 5491 H 498.792 -0.901631 6.91749 0
M  V30 5492 H 494.689 -1.88667 6.17313 0
M  V30 5493 H 495.457 -1.13089 8.1065 0
M  V30 5494 N 498.12 -1.38341 -0.754957 0
M  V30 5495 C 499.366 -1.34672 -1.51628 0
M  V30 5496 C 499.699 0.0636036 -1.94096 0
M  V30 5497 O 498.974 1.0245 -1.6533 0
M  V30 5498 C 499.257 -2.30116 -2.76981 0
M  V30 5499 C 499.11 -3.80003 -2.4066 0
M  V30 5500 C 500.429 -2.23715 -3.78998 0
M  V30 5501 H 497.548 -0.490517 -0.550056 0
M  V30 5502 H 500.19 -1.69178 -0.864807 0
M  V30 5503 H 498.34 -2.00821 -3.3257 0
M  V30 5504 H 500.012 -4.19966 -1.90856 0
M  V30 5505 H 498.255 -3.97751 -1.73137 0
M  V30 5506 H 498.926 -4.42244 -3.30339 0
M  V30 5507 H 501.402 -2.49574 -3.32945 0
M  V30 5508 H 500.278 -2.9261 -4.64403 0
M  V30 5509 H 500.539 -1.23554 -4.24484 0
M  V30 5510 N 499.598 0.982988 -1.23187 0
M  V30 5511 C 501.014 1.2487 -0.993967 0
M  V30 5512 C 501.214 1.99155 0.306498 0
M  V30 5513 O 500.27 2.30688 1.0266 0
M  V30 5514 C 501.583 2.05078 -2.19917 0
M  V30 5515 C 503.131 2.18227 -2.2438 0
M  V30 5516 C 503.606 3.01825 -3.44479 0
M  V30 5517 N 505.097 3.09411 -3.44702 0
M  V30 5518 C 505.832 3.74412 -4.34285 0
M  V30 5519 N 505.328 4.41259 -5.341 0
M  V30 5520 N 507.121 3.71273 -4.22035 0
M  V30 5521 H 499.272 0.485253 -2.06783 0
M  V30 5522 H 501.535 0.276979 -0.906635 0
M  V30 5523 H 501.241 1.57867 -3.14279 0
M  V30 5524 H 501.115 3.05829 -2.2079 0
M  V30 5525 H 503.502 2.64648 -1.30559 0
M  V30 5526 H 503.583 1.16873 -2.2754 0
M  V30 5527 H 503.227 2.56102 -4.38605 0
M  V30 5528 H 503.157 4.03342 -3.38559 0
M  V30 5529 H 505.648 2.61845 -2.7248 0
M  V30 5530 H 505.961 4.88629 -5.98717 0
M  V30 5531 H 504.306 4.39975 -5.38002 0
M  V30 5532 H 507.497 3.18217 -3.43301 0
M  V30 5533 H 507.67 4.21649 -4.92053 0
M  V30 5534 N 501.076 1.04316 1.18135 0
M  V30 5535 C 502.301 0.768047 1.92655 0
M  V30 5536 C 502.726 -0.66904 1.758 0
M  V30 5537 O 502.084 -1.46372 1.06981 0
M  V30 5538 C 502.132 1.14239 3.42026 0
M  V30 5539 O 501.236 0.269333 4.1152 0
M  V30 5540 H 500.577 0.282436 0.600937 0
M  V30 5541 H 503.107 1.39367 1.49793 0
M  V30 5542 H 503.117 1.10538 3.92741 0
M  V30 5543 H 501.792 2.18928 3.53615 0
M  V30 5544 H 500.369 0.366175 3.71098 0
M  V30 5545 N 502.554 -1.34406 0.822964 0
M  V30 5546 C 503.802 -1.97892 0.410245 0
M  V30 5547 C 504.123 -1.65567 -1.03017 0
M  V30 5548 O 503.393 -0.94642 -1.71522 0
M  V30 5549 H 501.973 -0.732049 0.148707 0
M  V30 5550 H 504.635 -1.64043 1.05242 0
M  V30 5551 H 503.731 -3.07579 0.529284 0
M  V30 5552 N 504.032 -0.577932 -1.46621 0
M  V30 5553 C 505.448 -0.239242 -1.57797 0
M  V30 5554 C 505.648 1.25843 -1.57371 0
M  V30 5555 O 504.704 2.03988 -1.48813 0
M  V30 5556 C 506.017 -0.884227 -2.87405 0
M  V30 5557 C 507.565 -0.857373 -3.01028 0
M  V30 5558 C 508.04 -1.48181 -4.33366 0
M  V30 5559 N 509.531 -1.44593 -4.40053 0
M  V30 5560 C 510.266 -1.89852 -5.41058 0
M  V30 5561 N 509.762 -2.43062 -6.48762 0
M  V30 5562 N 511.555 -1.80797 -5.3223 0
M  V30 5563 H 503.706 -1.55073 -1.45142 0
M  V30 5564 H 505.969 -0.647903 -0.692044 0
M  V30 5565 H 505.675 -1.93759 -2.93514 0
M  V30 5566 H 505.549 -0.389585 -3.75183 0
M  V30 5567 H 507.936 0.187357 -2.94505 0
M  V30 5568 H 508.017 -1.38999 -2.14739 0
M  V30 5569 H 507.661 -2.52572 -4.40647 0
M  V30 5570 H 507.591 -0.924464 -5.18422 0
M  V30 5571 H 510.082 -1.05694 -3.62819 0
M  V30 5572 H 510.395 -2.75466 -7.22038 0
M  V30 5573 H 508.74 -2.47085 -6.49595 0
M  V30 5574 H 511.931 -1.38989 -4.46989 0
M  V30 5575 H 512.104 -2.16385 -6.10804 0
M  V30 5576 N 505.51 1.54411 -0.315457 0
M  V30 5577 C 506.756 2.00716 0.289972 0
M  V30 5578 C 507.089 1.2034 1.5242 0
M  V30 5579 O 506.364 0.283579 1.92422 0
M  V30 5580 C 506.647 3.54507 0.632196 0
M  V30 5581 C 506.5 4.45615 -0.61218 0
M  V30 5582 C 507.819 4.15421 1.45305 0
M  V30 5583 H 504.938 0.729637 0.10392 0
M  V30 5584 H 507.58 1.8506 -0.430427 0
M  V30 5585 H 505.73 3.67979 1.24595 0
M  V30 5586 H 507.402 4.44026 -1.25053 0
M  V30 5587 H 505.645 4.15621 -1.24264 0
M  V30 5588 H 506.316 5.51022 -0.328379 0
M  V30 5589 H 508.792 4.05474 0.934331 0
M  V30 5590 H 507.668 5.23157 1.66127 0
M  V30 5591 H 507.929 3.68223 2.44671 0
M  V30 5592 N 506.988 0.0434614 1.5754 0
M  V30 5593 C 507.938 -0.943039 2.07583 0
M  V30 5594 C 508.922 -1.27662 0.979342 0
M  V30 5595 O 510.114 -1.26034 1.24276 0
M  V30 5596 C 507.243 -2.22056 2.61813 0
M  V30 5597 C 506.329 -1.91471 3.78417 0
M  V30 5598 N 506.72 -1.31214 4.88484 0
M  V30 5599 C 505.018 -2.21384 3.87176 0
M  V30 5600 C 505.719 -1.18084 5.69588 0
M  V30 5601 N 504.695 -1.68116 5.16951 0
M  V30 5602 H 508.497 -0.472354 2.90079 0
M  V30 5603 H 506.011 -0.161191 1.61598 0
M  V30 5604 H 508.008 -2.93618 2.95963 0
M  V30 5605 H 506.668 -2.69738 1.80752 0
M  V30 5606 H 507.679 -0.985318 5.08441 0
M  V30 5607 H 504.356 -2.7164 3.17046 0
M  V30 5608 H 505.746 -0.713684 6.68099 0
M  V30 5609 N 508.466 -1.55915 -0.229846 0
M  V30 5610 C 509.694 -1.82617 -0.972562 0
M  V30 5611 C 510.109 -0.621488 -1.78278 0
M  V30 5612 O 509.466 0.409956 -1.77836 0
M  V30 5613 C 509.517 -3.0774 -1.89679 0
M  V30 5614 O 509.238 -4.23559 -1.11934 0
M  V30 5615 C 510.739 -3.47368 -2.75409 0
M  V30 5616 H 507.959 -0.60727 -0.285419 0
M  V30 5617 H 510.503 -2.02996 -0.247579 0
M  V30 5618 H 508.658 -2.89361 -2.57583 0
M  V30 5619 H 509.072 -4.94586 -1.74599 0
M  V30 5620 H 510.546 -4.37977 -3.35977 0
M  V30 5621 H 511.023 -2.68737 -3.47386 0
M  V30 5622 H 511.629 -3.68158 -2.12931 0
M  V30 5623 N 509.944 0.496216 -1.49584 0
M  V30 5624 C 510.874 1.60576 -1.69521 0
M  V30 5625 C 511.855 1.61169 -0.543933 0
M  V30 5626 O 513.04 1.77834 -0.78031 0
M  V30 5627 C 510.17 2.99038 -1.76616 0
M  V30 5628 C 509.124 3.13312 -2.91581 0
M  V30 5629 C 508.45 4.53172 -2.83794 0
M  V30 5630 C 509.75 2.92886 -4.32452 0
M  V30 5631 H 511.444 1.44146 -2.62416 0
M  V30 5632 H 508.99 0.692024 -1.26282 0
M  V30 5633 H 510.943 3.76564 -1.8915 0
M  V30 5634 H 509.667 3.16568 -0.80324 0
M  V30 5635 H 508.326 2.38213 -2.78658 0
M  V30 5636 H 507.974 4.67585 -1.854 0
M  V30 5637 H 507.674 4.63662 -3.60958 0
M  V30 5638 H 509.198 5.32752 -2.98342 0
M  V30 5639 H 510.612 3.60178 -4.46032 0
M  V30 5640 H 509.009 3.14844 -5.10875 0
M  V30 5641 H 510.079 1.88966 -4.46565 0
M  V30 5642 N 511.423 1.38739 0.74761 0
M  V30 5643 C 512.648 1.38702 1.54197 0
M  V30 5644 C 513.073 -0.019664 1.8809 0
M  V30 5645 O 512.431 -1.00333 1.51006 0
M  V30 5646 C 512.479 2.25492 2.814 0
M  V30 5647 O 511.583 1.67613 3.76802 0
M  V30 5648 H 510.924 0.472863 0.466151 0
M  V30 5649 H 513.454 1.82577 0.923413 0
M  V30 5650 H 513.464 2.39561 3.30264 0
M  V30 5651 H 512.139 3.27727 2.56062 0
M  V30 5652 H 510.716 1.62718 3.35526 0
M  V30 5653 N 512.901 -0.976442 1.23707 0
M  V30 5654 C 513.833 -2.07212 0.979574 0
M  V30 5655 C 514.846 -1.6273 -0.0478528 0
M  V30 5656 O 516.035 -1.77506 0.18815 0
M  V30 5657 C 513.135 -3.35835 0.45479 0
M  V30 5658 C 512.308 -4.09268 1.54331 0
M  V30 5659 C 511.367 -5.16166 1.02271 0
M  V30 5660 O 510.393 -5.42827 1.71254 0
M  V30 5661 N 511.595 -5.80313 -0.147419 0
M  V30 5662 H 514.36 -2.29878 1.92292 0
M  V30 5663 H 511.921 -1.14343 1.14618 0
M  V30 5664 H 513.913 -4.04597 0.0914631 0
M  V30 5665 H 512.483 -3.10106 -0.394068 0
M  V30 5666 H 511.703 -3.34906 2.07923 0
M  V30 5667 H 512.991 -4.55095 2.27522 0
M  V30 5668 H 512.389 -5.61043 -0.724353 0
M  V30 5669 H 510.946 -6.50231 -0.451972 0
M  V30 5670 N 514.379 -1.04941 -1.1758 0
M  V30 5671 C 515.627 -0.756492 -1.87408 0
M  V30 5672 C 515.948 0.718478 -1.81281 0
M  V30 5673 O 515.218 1.519 -1.23706 0
M  V30 5674 H 513.798 -0.276841 -0.693807 0
M  V30 5675 H 516.46 -1.32803 -1.42652 0
M  V30 5676 H 515.556 -1.06918 -2.93215 0
M  V30 5677 N 515.857 1.33968 -0.830081 0
M  V30 5678 C 516.804 2.29387 -0.255008 0
M  V30 5679 C 517.774 1.53923 0.624243 0
M  V30 5680 O 518.959 1.82262 0.564372 0
M  V30 5681 C 516.099 3.4034 0.571209 0
M  V30 5682 C 515.212 4.30729 -0.331083 0
M  V30 5683 C 514.347 5.2879 0.505389 0
M  V30 5684 C 513.386 6.10819 -0.395843 0
M  V30 5685 N 512.523 7.00948 0.401979 0
M  V30 5686 H 517.363 2.77972 -1.07404 0
M  V30 5687 H 514.9 1.36785 -0.541133 0
M  V30 5688 H 516.858 4.03361 1.06562 0
M  V30 5689 H 515.488 2.9297 1.35529 0
M  V30 5690 H 514.54 3.68507 -0.943759 0
M  V30 5691 H 515.852 4.88181 -1.02377 0
M  V30 5692 H 515.006 5.97297 1.06399 0
M  V30 5693 H 513.745 4.71894 1.23155 0
M  V30 5694 H 512.75 5.41238 -0.966529 0
M  V30 5695 H 513.975 6.69797 -1.12023 0
M  V30 5696 H 511.921 6.46512 1.11168 0
M  V30 5697 H 511.838 7.55643 -0.232167 0
M  V30 5698 H 513.106 7.73774 0.943102 0
M  V30 5699 N 517.335 0.585699 1.46312 0
M  V30 5700 C 518.583 0.072278 2.01971 0
M  V30 5701 C 518.904 -1.29345 1.45928 0
M  V30 5702 O 518.174 -1.84973 0.645109 0
M  V30 5703 H 516.754 0.023729 0.746623 0
M  V30 5704 H 519.416 0.762155 1.7938 0
M  V30 5705 H 518.512 0.00552767 3.121 0
M  V30 5706 N 518.813 -1.54241 0.323641 0
M  V30 5707 C 520.09 -1.92741 -0.333181 0
M  V30 5708 C 520.47 -1.25326 -1.69872 0
M  V30 5709 O 519.818 -0.396991 -2.25025 0
M  V30 5710 C 520.028 -3.46399 -0.425322 0
M  V30 5711 C 521.376 -4.19029 -0.68557 0
M  V30 5712 O 522.4 -3.52555 -0.50824 0
M  V30 5713 O 521.259 -5.36751 -1.02767 0
M  V30 5714 H 518.353 -0.804811 -0.190286 0
M  V30 5715 H 520.899 -1.65542 0.373361 0
M  V30 5716 H 519.671 -3.87643 0.533737 0
M  V30 5717 H 519.294 -3.79704 -1.17944 0
M  V30 5718 N 520.291 -0.0518155 -1.57515 0
M  V30 5719 C 521.241 0.932017 -2.0808 0
M  V30 5720 C 522.225 1.27141 -0.986098 0
M  V30 5721 O 523.417 1.25373 -1.24943 0
M  V30 5722 C 520.546 2.20665 -2.62986 0
M  V30 5723 C 519.632 1.89462 -3.79427 0
M  V30 5724 N 520.023 1.28621 -4.89173 0
M  V30 5725 C 518.321 2.19327 -3.88345 0
M  V30 5726 C 519.022 1.15062 -5.70207 0
M  V30 5727 N 517.998 1.65372 -5.17835 0
M  V30 5728 H 521.8 0.456964 -2.90326 0
M  V30 5729 H 519.314 0.152619 -1.61681 0
M  V30 5730 H 521.311 2.92044 -2.97516 0
M  V30 5731 H 519.971 2.68776 -1.8218 0
M  V30 5732 H 520.982 0.958341 -5.08956 0
M  V30 5733 H 517.659 2.69955 -3.18482 0
M  V30 5734 H 519.049 0.678243 -6.68468 0
M  V30 5735 N 521.769 1.56035 0.221574 0
M  V30 5736 C 523.016 1.79047 0.94597 0
M  V30 5737 C 523.344 0.62057 1.84334 0
M  V30 5738 O 522.599 -0.395053 1.91671 0
M  V30 5739 C 522.898 3.07813 1.8162 0
M  V30 5740 C 522.564 4.3797 1.07206 0
M  V30 5741 C 521.226 4.73334 0.866508 0
M  V30 5742 C 523.578 5.18326 0.546565 0
M  V30 5743 C 520.906 5.8657 0.123549 0
M  V30 5744 C 523.258 6.32335 -0.18305 0
M  V30 5745 C 521.922 6.66301 -0.399861 0
M  V30 5746 H 521.192 0.655178 0.346155 0
M  V30 5747 H 523.839 1.90299 0.214146 0
M  V30 5748 H 522.144 2.91682 2.61589 0
M  V30 5749 H 523.841 3.2282 2.37884 0
M  V30 5750 H 520.431 4.10202 1.24226 0
M  V30 5751 H 524.615 4.9144 0.692847 0
M  V30 5752 H 519.871 6.11376 -0.0546591 0
M  V30 5753 H 524.045 6.9383 -0.59775 0
M  V30 5754 H 521.672 7.53889 -0.977489 0
M  V30 5755 N 523.247 -0.488276 1.49845 0
M  V30 5756 C 524.21 -1.57069 1.66919 0
M  V30 5757 C 525.21 -1.51445 0.540479 0
M  V30 5758 O 526.4 -1.5437 0.807188 0
M  V30 5759 C 523.532 -2.96718 1.67844 0
M  V30 5760 H 524.725 -1.43254 2.63474 0
M  V30 5761 H 522.278 -0.713435 1.39068 0
M  V30 5762 H 523.013 -3.15996 0.7292 0
M  V30 5763 H 522.798 -3.02208 2.49826 0
M  V30 5764 H 524.288 -3.75335 1.83066 0
M  V30 5765 N 524.725 -1.39134 -0.740242 0
M  V30 5766 C 525.655 -1.40165 -1.86751 0
M  V30 5767 C 526.636 -0.265708 -1.68012 0
M  V30 5768 O 527.821 -0.47076 -1.88408 0
M  V30 5769 C 524.951 -1.2392 -3.2444 0
M  V30 5770 C 523.905 -2.34858 -3.57807 0
M  V30 5771 C 523.231 -2.03707 -4.94376 0
M  V30 5772 C 524.531 -3.77159 -3.61315 0
M  V30 5773 H 526.225 -2.345 -1.86145 0
M  V30 5774 H 523.771 -1.12875 -0.89416 0
M  V30 5775 H 525.724 -1.23263 -4.02969 0
M  V30 5776 H 524.448 -0.26051 -3.25559 0
M  V30 5777 H 523.107 -2.34723 -2.81604 0
M  V30 5778 H 522.755 -1.04289 -4.9207 0
M  V30 5779 H 522.455 -2.78016 -5.17669 0
M  V30 5780 H 523.979 -2.04691 -5.75268 0
M  V30 5781 H 525.393 -3.79252 -4.29931 0
M  V30 5782 H 523.79 -4.50784 -3.96124 0
M  V30 5783 H 524.86 -4.08513 -2.61238 0
M  V30 5784 N 526.204 0.969867 -1.24223 0
M  V30 5785 C 527.429 1.75289 -1.10853 0
M  V30 5786 C 527.854 1.85091 0.335079 0
M  V30 5787 O 527.212 1.32024 1.24255 0
M  V30 5788 C 527.26 3.15255 -1.75062 0
M  V30 5789 O 526.364 3.99589 -1.01992 0
M  V30 5790 H 525.705 0.538904 -0.387915 0
M  V30 5791 H 528.235 1.21675 -1.64488 0
M  V30 5792 H 528.245 3.65787 -1.80731 0
M  V30 5793 H 526.92 3.07436 -2.801 0
M  V30 5794 H 525.497 3.58077 -1.04094 0
M  V30 5795 N 527.682 1.05563 1.17022 0
M  V30 5796 C 528.929 0.767937 1.87374 0
M  V30 5797 C 529.257 -0.705224 1.81265 0
M  V30 5798 O 528.512 -1.5318 1.21796 0
M  V30 5799 C 528.811 1.19849 3.36706 0
M  V30 5800 C 528.477 2.6745 3.63017 0
M  V30 5801 C 527.139 3.0777 3.69907 0
M  V30 5802 C 529.491 3.62811 3.74189 0
M  V30 5803 C 526.819 4.42307 3.85463 0
M  V30 5804 C 529.171 4.97087 3.91264 0
M  V30 5805 C 527.835 5.37055 3.96394 0
M  V30 5806 H 527.105 0.281008 0.68565 0
M  V30 5807 H 529.752 1.32339 1.38415 0
M  V30 5808 H 528.057 0.562096 3.87747 0
M  V30 5809 H 529.754 0.953038 3.8951 0
M  V30 5810 H 526.344 2.35228 3.58282 0
M  V30 5811 H 530.528 3.32798 3.68183 0
M  V30 5812 H 525.784 4.72769 3.87684 0
M  V30 5813 H 529.958 5.70869 3.9885 0
M  V30 5814 H 527.585 6.41308 4.082 0
M  V30 5815 N 529.16 -1.33526 0.837174 0
M  V30 5816 C 530.409 -1.97098 0.428387 0
M  V30 5817 C 530.722 -1.67062 -1.01734 0
M  V30 5818 O 531.928 -2.24235 -1.53072 0
M  V30 5819 C 530.384 -3.52725 0.715075 0
M  V30 5820 C 529.992 -3.9164 2.17537 0
M  V30 5821 C 531.736 -4.22857 0.373154 0
M  V30 5822 C 529.643 -5.40237 2.40619 0
M  V30 5823 H 528.573 -0.737589 0.156455 0
M  V30 5824 H 531.224 -1.52169 1.02552 0
M  V30 5825 H 529.606 -3.95971 0.0475904 0
M  V30 5826 H 530.78 -3.59456 2.88319 0
M  V30 5827 H 529.095 -3.34485 2.4801 0
M  V30 5828 H 531.692 -5.32133 0.523264 0
M  V30 5829 H 532.035 -4.10647 -0.683708 0
M  V30 5830 H 532.568 -3.85135 0.995801 0
M  V30 5831 H 529.307 -5.57449 3.44864 0
M  V30 5832 H 528.827 -5.73887 1.74396 0
M  V30 5833 H 530.506 -6.07102 2.23688 0
M  V30 5834 N 530.638 -0.59345 -1.46 0
M  V30 5835 C 531.588 0.154751 -2.27474 0
M  V30 5836 C 532.572 0.851849 -1.365 0
M  V30 5837 O 533.764 0.744171 -1.60596 0
M  V30 5838 C 530.893 1.16079 -3.2308 0
M  V30 5839 C 529.979 0.465256 -4.2154 0
M  V30 5840 N 530.37 -0.485197 -5.03467 0
M  V30 5841 C 528.668 0.714634 -4.40237 0
M  V30 5842 C 529.369 -0.892709 -5.74809 0
M  V30 5843 N 528.345 -0.239511 -5.43072 0
M  V30 5844 H 532.147 -0.57546 -2.88211 0
M  V30 5845 H 529.661 -0.416046 -1.5698 0
M  V30 5846 H 531.658 1.71108 -3.80168 0
M  V30 5847 H 530.318 1.89171 -2.63903 0
M  V30 5848 H 531.329 -0.861258 -5.10689 0
M  V30 5849 H 528.006 1.43131 -3.92199 0
M  V30 5850 H 529.396 -1.67581 -6.50666 0
M  V30 5851 N 532.116 1.54067 -0.331816 0
M  V30 5852 C 533.079 2.23275 0.517768 0
M  V30 5853 C 534.079 1.22897 1.03697 0
M  V30 5854 O 535.269 1.47419 0.928084 0
M  V30 5855 C 532.401 2.94326 1.72004 0
M  V30 5856 H 533.594 2.99773 -0.0873507 0
M  V30 5857 H 531.147 1.56079 -0.0830042 0
M  V30 5858 H 531.882 2.21986 2.36417 0
M  V30 5859 H 531.667 3.67941 1.35507 0
M  V30 5860 H 533.157 3.47031 2.32291 0
M  V30 5861 N 533.594 0.0601682 1.57485 0
M  V30 5862 C 534.84 -0.612501 1.93329 0
M  V30 5863 C 535.173 -1.6996 0.939526 0
M  V30 5864 O 534.448 -1.94472 -0.0330957 0
M  V30 5865 C 534.731 -1.20025 3.39508 0
M  V30 5866 C 534.584 -0.12059 4.49638 0
M  V30 5867 C 535.903 -2.10923 3.86264 0
M  V30 5868 H 533.022 -0.221185 0.703027 0
M  V30 5869 H 535.664 0.123768 1.89596 0
M  V30 5870 H 533.814 -1.82774 3.42821 0
M  V30 5871 H 535.486 0.51185 4.58452 0
M  V30 5872 H 533.729 0.550251 4.30296 0
M  V30 5873 H 534.4 -0.572019 5.49028 0
M  V30 5874 H 536.876 -1.58124 3.84884 0
M  V30 5875 H 535.752 -2.48987 4.8918 0
M  V30 5876 H 536.013 -3.01292 3.23536 0
M  V30 5877 N 535.072 -1.5615 -0.213296 0
M  V30 5878 C 536.019 -1.93086 -1.26437 0
M  V30 5879 C 536.989 -0.789086 -1.4616 0
M  V30 5880 O 538.174 -1.04569 -1.59593 0
M  V30 5881 C 535.314 -2.26003 -2.608 0
M  V30 5882 C 534.427 -3.53156 -2.48807 0
M  V30 5883 C 533.562 -3.7548 -3.7575 0
M  V30 5884 C 532.601 -4.96119 -3.58514 0
M  V30 5885 N 531.738 -5.14791 -4.77425 0
M  V30 5886 H 536.578 -2.82707 -0.942376 0
M  V30 5887 H 534.115 -1.39919 -0.454001 0
M  V30 5888 H 536.073 -2.431 -3.39055 0
M  V30 5889 H 534.703 -1.39546 -2.91079 0
M  V30 5890 H 533.755 -3.44207 -1.61944 0
M  V30 5891 H 535.067 -4.41565 -2.31996 0
M  V30 5892 H 534.221 -3.92718 -4.62447 0
M  V30 5893 H 532.96 -2.85368 -3.95495 0
M  V30 5894 H 531.965 -4.78823 -2.70201 0
M  V30 5895 H 533.19 -5.87724 -3.40231 0
M  V30 5896 H 531.136 -4.27623 -4.97468 0
M  V30 5897 H 531.053 -5.97347 -4.63371 0
M  V30 5898 H 532.321 -5.36471 -5.65525 0
M  V30 5899 N 536.55 0.480323 -1.50102 0
M  V30 5900 C 537.483 1.59789 -1.62919 0
M  V30 5901 C 538.461 1.55429 -0.477557 0
M  V30 5902 O 539.645 1.75186 -0.695851 0
M  V30 5903 C 536.772 2.98351 -1.60325 0
M  V30 5904 C 535.818 3.20899 -2.80938 0
M  V30 5905 S 536.651 3.01791 -4.4236 0
M  V30 5906 C 537.807 4.42712 -4.42444 0
M  V30 5907 H 538.04 1.48676 -2.57454 0
M  V30 5908 H 535.573 0.666996 -1.3925 0
M  V30 5909 H 537.531 3.7824 -1.59514 0
M  V30 5910 H 536.192 3.06862 -0.670419 0
M  V30 5911 H 535.385 4.22102 -2.75401 0
M  V30 5912 H 534.987 2.48768 -2.79268 0
M  V30 5913 H 537.279 5.3518 -4.15438 0
M  V30 5914 H 538.222 4.53294 -5.43995 0
M  V30 5915 H 538.63 4.24359 -3.72263 0
M  V30 5916 N 538.028 1.39524 0.732853 0
M  V30 5917 C 539.258 1.3994 1.51988 0
M  V30 5918 C 539.666 -0.00727973 1.89199 0
M  V30 5919 O 539.009 -0.989521 1.54771 0
M  V30 5920 C 539.071 2.21026 2.83527 0
M  V30 5921 C 538.735 3.69633 2.68738 0
M  V30 5922 C 539.732 4.62665 2.37143 0
M  V30 5923 C 537.417 4.13244 2.85542 0
M  V30 5924 C 539.411 5.97291 2.22536 0
M  V30 5925 C 537.098 5.47945 2.70554 0
M  V30 5926 C 538.096 6.39783 2.39097 0
M  V30 5927 O 537.784 7.72002 2.24204 0
M  V30 5928 H 537.516 0.479795 0.476206 0
M  V30 5929 H 540.07 1.8399 0.913054 0
M  V30 5930 H 538.3 1.71728 3.46477 0
M  V30 5931 H 539.989 2.13594 3.45156 0
M  V30 5932 H 540.755 4.30272 2.2381 0
M  V30 5933 H 536.634 3.42094 3.09019 0
M  V30 5934 H 540.178 6.68939 1.97905 0
M  V30 5935 H 536.075 5.79928 2.83466 0
M  V30 5936 H 536.843 7.8275 2.39258 0
M  V30 5937 N 539.506 -0.963266 1.24736 0
M  V30 5938 C 540.416 -2.09246 1.06082 0
M  V30 5939 C 541.432 -1.74 0.000363101 0
M  V30 5940 O 542.608 -2.0041 0.199479 0
M  V30 5941 C 539.673 -3.40115 0.672498 0
M  V30 5942 C 538.734 -3.89282 1.80993 0
M  V30 5943 C 537.967 -5.13905 1.44004 0
M  V30 5944 O 538.19 -5.69434 0.331835 0
M  V30 5945 O 537.124 -5.57566 2.26723 0
M  V30 5946 H 540.95 -2.27881 2.00759 0
M  V30 5947 H 538.535 -1.07649 1.03595 0
M  V30 5948 H 540.417 -4.18797 0.467668 0
M  V30 5949 H 539.092 -3.22771 -0.245102 0
M  V30 5950 H 537.999 -3.11642 2.06955 0
M  V30 5951 H 539.332 -4.1111 2.70646 0
M  V30 5952 N 540.985 -1.06182 -1.16461 0
M  V30 5953 C 542.401 -0.785065 -1.38956 0
M  V30 5954 C 542.601 0.616103 -1.9185 0
M  V30 5955 O 541.657 1.37686 -2.11657 0
M  V30 5956 C 542.97 -1.84902 -2.37132 0
M  V30 5957 C 544.518 -1.8724 -2.50819 0
M  V30 5958 C 544.993 -2.92686 -3.52277 0
M  V30 5959 N 546.484 -2.91712 -3.59803 0
M  V30 5960 C 547.219 -3.69949 -4.38093 0
M  V30 5961 N 546.715 -4.58 -5.19815 0
M  V30 5962 N 548.508 -3.58346 -4.33064 0
M  V30 5963 H 540.659 -1.96569 -0.804634 0
M  V30 5964 H 542.922 -0.851747 -0.416211 0
M  V30 5965 H 542.628 -2.85518 -2.0536 0
M  V30 5966 H 542.502 -1.69908 -3.36766 0
M  V30 5967 H 544.889 -0.872827 -2.81897 0
M  V30 5968 H 544.97 -2.06311 -1.51226 0
M  V30 5969 H 544.614 -3.92835 -3.21937 0
M  V30 5970 H 544.544 -2.70864 -4.51598 0
M  V30 5971 H 547.035 -2.27876 -3.01464 0
M  V30 5972 H 547.348 -5.14357 -5.76764 0
M  V30 5973 H 545.693 -4.62056 -5.19162 0
M  V30 5974 H 548.884 -2.88943 -3.68279 0
M  V30 5975 H 549.057 -4.19563 -4.93833 0
M  V30 5976 N 542.463 1.3308 -0.844243 0
M  V30 5977 C 543.393 2.3161 -0.296493 0
M  V30 5978 C 544.374 1.59215 0.598707 0
M  V30 5979 O 545.559 1.87077 0.521134 0
M  V30 5980 C 542.689 3.43313 0.524762 0
M  V30 5981 C 541.643 4.27115 -0.275106 0
M  V30 5982 C 540.969 5.30483 0.670236 0
M  V30 5983 C 542.269 5.00443 -1.49514 0
M  V30 5984 H 543.963 2.77672 -1.11976 0
M  V30 5985 H 541.509 1.33496 -0.539899 0
M  V30 5986 H 543.462 4.11273 0.918298 0
M  V30 5987 H 542.186 2.95952 1.3813 0
M  V30 5988 H 540.845 3.60787 -0.650267 0
M  V30 5989 H 540.493 4.79379 1.52332 0
M  V30 5990 H 540.193 5.87435 0.139123 0
M  V30 5991 H 541.717 6.01308 1.06117 0
M  V30 5992 H 543.131 5.61141 -1.17447 0
M  V30 5993 H 541.528 5.67071 -1.96343 0
M  V30 5994 H 542.598 4.28906 -2.26202 0
M  V30 5995 N 543.941 0.601185 1.45683 0
M  V30 5996 C 545.169 0.100054 2.06658 0
M  V30 5997 C 545.584 -1.21285 1.44691 0
M  V30 5998 O 544.941 -1.73735 0.558772 0
M  V30 5999 C 544.992 -0.0528579 3.61461 0
M  V30 6000 O 544.713 1.20809 4.21114 0
M  V30 6001 C 546.214 -0.586193 4.39407 0
M  V30 6002 H 543.434 0.065905 0.667756 0
M  V30 6003 H 545.978 0.827101 1.87028 0
M  V30 6004 H 544.133 -0.730203 3.80456 0
M  V30 6005 H 544.547 1.03368 5.14213 0
M  V30 6006 H 546.021 -0.642297 5.4825 0
M  V30 6007 H 546.498 -1.60713 4.0874 0
M  V30 6008 H 547.104 0.0568935 4.25262 0
M  V30 6009 N 545.419 -1.53889 0.339982 0
M  V30 6010 C 546.668 -2.00035 -0.258604 0
M  V30 6011 C 546.981 -1.23179 -1.51942 0
M  V30 6012 O 548.187 -1.59784 -2.19503 0
M  V30 6013 C 546.643 -3.56249 -0.511359 0
M  V30 6014 C 546.251 -4.41957 0.733349 0
M  V30 6015 C 547.995 -4.1082 -1.069 0
M  V30 6016 C 545.902 -5.89673 0.451591 0
M  V30 6017 H 544.832 -0.747284 -0.10041 0
M  V30 6018 H 547.483 -1.77776 0.454758 0
M  V30 6019 H 545.865 -3.7456 -1.28533 0
M  V30 6020 H 547.039 -4.35421 1.50815 0
M  V30 6021 H 545.354 -3.9836 1.21237 0
M  V30 6022 H 547.951 -5.18789 -1.2947 0
M  V30 6023 H 548.294 -3.63817 -2.02343 0
M  V30 6024 H 548.827 -3.96205 -0.355817 0
M  V30 6025 H 545.566 -6.40903 1.37565 0
M  V30 6026 H 545.086 -5.99122 -0.285193 0
M  V30 6027 H 546.765 -6.46965 0.0675067 0
M  V30 6028 N 546.897 -0.0685191 -1.57451 0
M  V30 6029 C 547.807 0.914677 -2.16034 0
M  V30 6030 C 548.823 1.32938 -1.12265 0
M  V30 6031 O 549.999 1.40275 -1.44516 0
M  V30 6032 C 547.064 2.16519 -2.70777 0
M  V30 6033 C 546.125 1.80721 -3.89408 0
M  V30 6034 C 545.358 2.9981 -4.41531 0
M  V30 6035 O 545.581 4.13727 -3.92666 0
M  V30 6036 O 544.515 2.79817 -5.32903 0
M  V30 6037 H 548.341 0.446364 -3.00402 0
M  V30 6038 H 545.926 0.154367 -1.486 0
M  V30 6039 H 547.808 2.89856 -3.05878 0
M  V30 6040 H 546.483 2.62454 -1.89471 0
M  V30 6041 H 545.39 1.04646 -3.59166 0
M  V30 6042 H 546.723 1.39571 -4.71997 0
M  V30 6043 N 548.375 1.56261 0.205012 0
M  V30 6044 C 549.338 1.92908 1.23771 0
M  V30 6045 C 550.338 0.809208 1.38955 0
M  V30 6046 O 551.528 1.07676 1.36936 0
M  V30 6047 C 548.66 2.19442 2.60879 0
M  V30 6048 H 549.853 2.85287 0.924728 0
M  V30 6049 H 547.406 1.49798 0.446125 0
M  V30 6050 H 548.141 1.29668 2.97248 0
M  V30 6051 H 547.926 3.0104 2.51232 0
M  V30 6052 H 549.416 2.48833 3.35368 0
M  V30 6053 N 549.853 -0.472356 1.50355 0
M  V30 6054 C 551.083 -1.24603 1.64796 0
M  V30 6055 C 551.491 -1.86297 0.330156 0
M  V30 6056 O 550.834 -1.69934 -0.697728 0
M  V30 6057 C 550.896 -2.39578 2.68035 0
M  V30 6058 C 550.56 -1.98531 4.11624 0
M  V30 6059 C 551.557 -1.50856 4.97532 0
M  V30 6060 C 549.242 -2.0729 4.57532 0
M  V30 6061 C 551.236 -1.12481 6.27397 0
M  V30 6062 C 548.923 -1.68527 5.87403 0
M  V30 6063 C 549.921 -1.212 6.7216 0
M  V30 6064 O 549.609 -0.829728 7.99607 0
M  V30 6065 H 549.341 -0.383035 0.55701 0
M  V30 6066 H 551.895 -0.570392 1.97321 0
M  V30 6067 H 550.125 -3.10309 2.30749 0
M  V30 6068 H 551.814 -3.01544 2.71709 0
M  V30 6069 H 552.58 -1.43511 4.63281 0
M  V30 6070 H 548.459 -2.43076 3.91708 0
M  V30 6071 H 552.003 -0.754698 6.93506 0
M  V30 6072 H 547.9 -1.7553 6.21176 0
M  V30 6073 H 548.668 -0.958689 8.12866 0
M  V30 6074 N 551.331 -1.39911 -0.725443 0
M  V30 6075 C 552.261 -1.42138 -1.85254 0
M  V30 6076 C 553.242 -0.283513 -1.67721 0
M  V30 6077 O 554.427 -0.490717 -1.87898 0
M  V30 6078 C 551.557 -1.27354 -3.23107 0
M  V30 6079 C 550.511 -2.3864 -3.55296 0
M  V30 6080 C 549.837 -2.08939 -4.92188 0
M  V30 6081 C 551.137 -3.8097 -3.57295 0
M  V30 6082 H 552.831 -2.36461 -1.83648 0
M  V30 6083 H 550.377 -1.13817 -0.882138 0
M  V30 6084 H 552.33 -1.2753 -4.01639 0
M  V30 6085 H 551.054 -0.295025 -3.25265 0
M  V30 6086 H 549.713 -2.37696 -2.79099 0
M  V30 6087 H 549.361 -1.09502 -4.90936 0
M  V30 6088 H 549.061 -2.83491 -5.14691 0
M  V30 6089 H 550.585 -2.10781 -5.73065 0
M  V30 6090 H 551.999 -3.8379 -4.25885 0
M  V30 6091 H 550.396 -4.5496 -3.9132 0
M  V30 6092 H 551.466 -4.11261 -2.5689 0
M  V30 6093 N 552.809 0.956637 -1.25245 0
M  V30 6094 C 553.756 2.053 -1.05454 0
M  V30 6095 C 554.726 1.66062 0.0356889 0
M  V30 6096 O 555.911 1.90415 -0.121099 0
M  V30 6097 C 553.051 3.38391 -0.677191 0
M  V30 6098 C 552.164 3.90758 -1.84206 0
M  V30 6099 C 551.299 5.12165 -1.40926 0
M  V30 6100 C 550.338 5.56757 -2.54338 0
M  V30 6101 N 549.475 6.69376 -2.11848 0
M  V30 6102 H 554.315 2.21562 -1.99284 0
M  V30 6103 H 551.852 1.08578 -0.992434 0
M  V30 6104 H 553.81 4.1488 -0.43938 0
M  V30 6105 H 552.44 3.22021 0.224127 0
M  V30 6106 H 551.492 3.10808 -2.19323 0
M  V30 6107 H 552.804 4.19802 -2.69383 0
M  V30 6108 H 551.958 5.96065 -1.13098 0
M  V30 6109 H 550.697 4.84832 -0.528175 0
M  V30 6110 H 549.702 4.71423 -2.82913 0
M  V30 6111 H 550.927 5.861 -3.43022 0
M  V30 6112 H 548.873 6.43756 -1.26153 0
M  V30 6113 H 548.79 6.97927 -2.90574 0
M  V30 6114 H 550.058 7.5669 -1.87191 0
M  V30 6115 N 554.287 1.06798 1.15896 0
M  V30 6116 C 555.703 0.792423 1.38538 0
M  V30 6117 C 555.903 -0.60592 1.92174 0
M  V30 6118 O 554.959 -1.36561 2.12385 0
M  V30 6119 C 556.272 1.86157 2.36149 0
M  V30 6120 C 557.82 1.88567 2.49823 0
M  V30 6121 C 558.295 2.9455 3.5072 0
M  V30 6122 N 559.786 2.93616 3.58251 0
M  V30 6123 C 560.521 3.72267 4.36125 0
M  V30 6124 N 560.017 4.60751 5.17379 0
M  V30 6125 N 561.81 3.60637 4.31158 0
M  V30 6126 H 553.961 1.96993 0.794198 0
M  V30 6127 H 556.224 0.853942 0.411688 0
M  V30 6128 H 555.93 2.86603 2.03843 0
M  V30 6129 H 555.804 1.71692 3.3586 0
M  V30 6130 H 558.191 0.887765 2.8143 0
M  V30 6131 H 558.272 2.0711 1.5013 0
M  V30 6132 H 557.916 3.94537 3.19849 0
M  V30 6133 H 557.846 2.73255 4.50155 0
M  V30 6134 H 560.337 2.29472 3.00252 0
M  V30 6135 H 560.65 5.17408 5.74028 0
M  V30 6136 H 558.995 4.64803 5.16704 0
M  V30 6137 H 562.186 2.90892 3.66742 0
M  V30 6138 H 562.359 4.22176 4.91601 0
M  V30 6139 N 555.766 -1.3263 0.851289 0
M  V30 6140 C 556.991 -2.02097 0.466006 0
M  V30 6141 C 557.416 -1.63574 -0.928709 0
M  V30 6142 O 556.774 -0.834665 -1.60944 0
M  V30 6143 C 556.822 -3.55425 0.608737 0
M  V30 6144 O 555.926 -4.10827 -0.359878 0
M  V30 6145 H 555.267 -0.636911 0.187724 0
M  V30 6146 H 557.797 -1.69253 1.14955 0
M  V30 6147 H 557.807 -4.04986 0.495006 0
M  V30 6148 H 556.482 -3.82806 1.62581 0
M  V30 6149 H 555.059 -3.72349 -0.202666 0
M  V30 6150 N 557.244 -0.608902 -1.45362 0
M  V30 6151 C 558.191 0.109172 -2.30542 0
M  V30 6152 C 559.161 0.858704 -1.42181 0
M  V30 6153 O 560.346 0.844178 -1.71109 0
M  V30 6154 C 557.486 1.09971 -3.27109 0
M  V30 6155 C 556.599 0.350911 -4.30572 0
M  V30 6156 C 555.734 1.33129 -5.14247 0
M  V30 6157 C 554.773 0.570377 -6.09437 0
M  V30 6158 N 553.91 1.5001 -6.85887 0
M  V30 6159 H 558.75 -0.623195 -2.91411 0
M  V30 6160 H 556.287 -0.319122 -1.43597 0
M  V30 6161 H 558.245 1.68714 -3.81564 0
M  V30 6162 H 556.875 1.79947 -2.67991 0
M  V30 6163 H 555.927 -0.352054 -3.78767 0
M  V30 6164 H 557.239 -0.242725 -4.98209 0
M  V30 6165 H 556.393 1.99074 -5.73109 0
M  V30 6166 H 555.132 1.95885 -4.46632 0
M  V30 6167 H 554.137 -0.102702 -5.49704 0
M  V30 6168 H 555.362 -0.0521607 -6.7908 0
M  V30 6169 H 553.308 2.11529 -6.2096 0
M  V30 6170 H 553.225 0.959934 -7.49881 0
M  V30 6171 H 554.493 2.14909 -7.49289 0
M  V30 6172 N 558.722 1.53707 -0.348139 0
M  V30 6173 C 559.669 2.25173 0.506518 0
M  V30 6174 C 560.639 1.25174 1.09182 0
M  V30 6175 O 561.824 1.53917 1.12757 0
M  V30 6176 C 558.964 3.03141 1.64923 0
M  V30 6177 C 558.077 4.18002 1.0908 0
M  V30 6178 C 557.212 4.83447 2.20119 0
M  V30 6179 C 556.251 5.90369 1.61651 0
M  V30 6180 N 555.388 6.49575 2.66451 0
M  V30 6181 H 560.228 2.97799 -0.109452 0
M  V30 6182 H 557.765 1.46953 -0.0657866 0
M  V30 6183 H 559.723 3.46607 2.32205 0
M  V30 6184 H 558.353 2.32803 2.23612 0
M  V30 6185 H 557.405 3.79145 0.308783 0
M  V30 6186 H 558.717 4.94892 0.623178 0
M  V30 6187 H 557.871 5.30008 2.95257 0
M  V30 6188 H 556.61 4.05991 2.70227 0
M  V30 6189 H 555.615 5.43186 0.850209 0
M  V30 6190 H 556.84 6.69735 1.1239 0
M  V30 6191 H 554.786 5.74981 3.15805 0
M  V30 6192 H 554.703 7.21952 2.24325 0
M  V30 6193 H 555.971 7.00789 3.41344 0
M  V30 6194 N 560.2 0.0768682 1.57412 0
M  V30 6195 C 561.13 -0.886026 2.16037 0
M  V30 6196 C 562.111 -1.30691 1.08876 0
M  V30 6197 O 563.296 -1.37705 1.36934 0
M  V30 6198 C 560.426 -2.1518 2.72608 0
M  V30 6199 C 559.38 -1.87015 3.8498 0
M  V30 6200 C 558.706 -3.20266 4.28175 0
M  V30 6201 C 560.006 -1.17143 5.08994 0
M  V30 6202 H 561.7 -0.397642 2.96748 0
M  V30 6203 H 559.246 -0.189823 1.42743 0
M  V30 6204 H 561.199 -2.82962 3.12266 0
M  V30 6205 H 559.923 -2.66269 1.89125 0
M  V30 6206 H 558.582 -1.21636 3.45833 0
M  V30 6207 H 558.23 -3.69207 3.41607 0
M  V30 6208 H 557.93 -3.0221 5.03927 0
M  V30 6209 H 559.454 -3.89237 4.70454 0
M  V30 6210 H 560.868 -1.75003 5.45937 0
M  V30 6211 H 559.265 -1.09328 5.90057 0
M  V30 6212 H 560.335 -0.151295 4.84664 0
M  V30 6213 N 561.678 -1.56367 -0.196722 0
M  V30 6214 C 562.641 -1.93561 -1.22746 0
M  V30 6215 C 563.641 -0.816566 -1.38524 0
M  V30 6216 O 564.831 -1.084 -1.36363 0
M  V30 6217 C 561.963 -2.20823 -2.59712 0
M  V30 6218 H 563.156 -2.85774 -0.909586 0
M  V30 6219 H 560.709 -1.50032 -0.438174 0
M  V30 6220 H 561.444 -1.31243 -2.96557 0
M  V30 6221 H 561.229 -3.02368 -2.49632 0
M  V30 6222 H 562.719 -2.50608 -3.34044 0
M  V30 6223 N 563.156 0.464375 -1.50603 0
M  V30 6224 C 564.086 1.56944 -1.72889 0
M  V30 6225 C 565.067 1.59979 -0.577997 0
M  V30 6226 O 566.252 1.76138 -0.817855 0
M  V30 6227 C 563.382 2.95225 -1.8292 0
M  V30 6228 C 562.336 3.07056 -2.98162 0
M  V30 6229 C 561.662 4.47051 -2.93343 0
M  V30 6230 C 562.962 2.83648 -4.38567 0
M  V30 6231 H 564.656 1.38547 -2.65415 0
M  V30 6232 H 562.202 0.665082 -1.27721 0
M  V30 6233 H 564.155 3.72467 -1.97095 0
M  V30 6234 H 562.879 3.14793 -0.870209 0
M  V30 6235 H 561.538 2.32248 -2.83648 0
M  V30 6236 H 561.186 4.63547 -1.95276 0
M  V30 6237 H 560.886 4.55902 -3.70712 0
M  V30 6238 H 562.41 5.26304 -3.09575 0
M  V30 6239 H 563.824 3.50636 -4.53572 0
M  V30 6240 H 562.221 3.03937 -5.17438 0
M  V30 6241 H 563.291 1.79451 -4.50472 0
M  V30 6242 N 564.634 1.40294 0.718013 0
M  V30 6243 C 565.581 1.40367 1.8321 0
M  V30 6244 C 566.551 0.260952 1.64037 0
M  V30 6245 O 567.736 0.458648 1.85205 0
M  V30 6246 C 564.876 1.26965 3.20895 0
M  V30 6247 C 563.989 2.50922 3.51656 0
M  V30 6248 C 563.124 2.29981 4.78834 0
M  V30 6249 C 562.163 3.49527 5.02491 0
M  V30 6250 N 561.3 3.27796 6.20882 0
M  V30 6251 H 566.14 2.35593 1.82482 0
M  V30 6252 H 563.677 1.17012 0.891444 0
M  V30 6253 H 565.635 1.17202 4.00399 0
M  V30 6254 H 564.265 0.353591 3.20858 0
M  V30 6255 H 563.317 2.71223 2.66725 0
M  V30 6256 H 564.629 3.39913 3.65048 0
M  V30 6257 H 563.783 2.17558 5.66351 0
M  V30 6258 H 562.522 1.38411 4.67647 0
M  V30 6259 H 561.527 3.6243 4.1343 0
M  V30 6260 H 562.752 4.42021 5.15553 0
M  V30 6261 H 560.698 2.38906 6.1095 0
M  V30 6262 H 560.615 4.10351 6.34939 0
M  V30 6263 H 561.883 3.19101 7.11193 0
M  V30 6264 N 566.112 -0.949982 1.2575 0
M  V30 6265 C 567.075 -2.02894 1.06615 0
M  V30 6266 C 568.075 -1.60791 0.0173905 0
M  V30 6267 O 569.265 -1.72249 0.260003 0
M  V30 6268 C 566.397 -3.35219 0.619751 0
M  V30 6269 H 567.59 -2.21302 2.02399 0
M  V30 6270 H 565.143 -1.12772 1.08223 0
M  V30 6271 H 565.878 -3.22508 -0.340486 0
M  V30 6272 H 565.663 -3.67129 1.37692 0
M  V30 6273 H 567.153 -4.14505 0.507443 0
M  V30 6274 N 567.59 -1.07411 -1.15328 0
M  V30 6275 C 568.52 -0.716472 -2.22236 0
M  V30 6276 C 569.501 0.296373 -1.67498 0
M  V30 6277 O 570.686 0.168989 -1.93463 0
M  V30 6278 C 567.816 -0.114142 -3.47112 0
M  V30 6279 C 566.77 -1.05421 -4.14814 0
M  V30 6280 C 566.096 -0.314604 -5.33774 0
M  V30 6281 C 567.396 -2.38808 -4.64508 0
M  V30 6282 H 569.09 -1.61029 -2.52408 0
M  V30 6283 H 566.636 -0.775702 -1.21321 0
M  V30 6284 H 568.589 0.148001 -4.2114 0
M  V30 6285 H 567.313 0.814755 -3.16274 0
M  V30 6286 H 565.972 -1.30128 -3.42728 0
M  V30 6287 H 565.62 0.617772 -4.99192 0
M  V30 6288 H 565.32 -0.941209 -5.80013 0
M  V30 6289 H 566.844 -0.0602747 -6.1057 0
M  V30 6290 H 568.258 -2.18424 -5.3006 0
M  V30 6291 H 566.655 -2.97069 -5.21412 0
M  V30 6292 H 567.725 -3.01067 -3.80114 0
M  V30 6293 N 569.068 1.32177 -0.85831 0
M  V30 6294 C 569.998 2.31282 -0.321041 0
M  V30 6295 C 570.979 1.59841 0.581786 0
M  V30 6296 O 572.164 1.87619 0.501262 0
M  V30 6297 C 569.294 3.4385 0.48832 0
M  V30 6298 C 568.248 4.26799 -0.320391 0
M  V30 6299 C 567.574 5.31164 0.613934 0
M  V30 6300 C 568.874 4.98829 -1.54813 0
M  V30 6301 H 570.568 2.76469 -1.14915 0
M  V30 6302 H 568.114 1.32916 -0.554028 0
M  V30 6303 H 570.067 4.12224 0.874626 0
M  V30 6304 H 568.791 2.97401 1.34983 0
M  V30 6305 H 567.45 3.60077 -0.688497 0
M  V30 6306 H 567.098 4.80967 1.47239 0
M  V30 6307 H 566.798 5.8755 0.0768097 0
M  V30 6308 H 568.322 6.024 0.997336 0
M  V30 6309 H 569.736 5.59864 -1.23392 0
M  V30 6310 H 568.133 5.64957 -2.02346 0
M  V30 6311 H 569.203 4.26483 -2.30739 0
M  V30 6312 N 570.547 0.616602 1.45037 0
M  V30 6313 C 571.772 0.120192 2.07051 0
M  V30 6314 C 572.197 -1.19008 1.45666 0
M  V30 6315 O 571.555 -1.7267 0.552692 0
M  V30 6316 C 571.603 0.00354901 3.606 0
M  V30 6317 O 570.707 -1.04431 3.98958 0
M  V30 6318 H 570.048 0.0781599 0.659384 0
M  V30 6319 H 572.578 0.849167 1.86146 0
M  V30 6320 H 572.588 -0.191754 4.07549 0
M  V30 6321 H 571.263 0.960239 4.04663 0
M  V30 6322 H 569.84 -0.824749 3.63665 0
M  V30 6323 N 572.025 -1.5352 0.356285 0
M  V30 6324 C 572.975 -2.22204 -0.510815 0
M  V30 6325 C 573.959 -1.21393 -1.05605 0
M  V30 6326 O 575.151 -1.46883 -0.987639 0
M  V30 6327 C 572.28 -3.00786 -1.65478 0
M  V30 6328 C 571.366 -4.08965 -1.12287 0
M  V30 6329 N 571.757 -5.04829 -0.313191 0
M  V30 6330 C 570.055 -4.23505 -1.39856 0
M  V30 6331 C 570.756 -5.81695 -0.0230322 0
M  V30 6332 N 569.732 -5.40074 -0.618144 0
M  V30 6333 H 573.534 -2.93676 0.114711 0
M  V30 6334 H 571.048 -1.61572 0.163811 0
M  V30 6335 H 573.045 -3.48502 -2.28806 0
M  V30 6336 H 571.705 -2.30843 -2.28345 0
M  V30 6337 H 572.716 -5.17879 0.0468202 0
M  V30 6338 H 569.393 -3.64786 -2.0307 0
M  V30 6339 H 570.783 -6.68931 0.630927 0
M  V30 6340 N 573.503 -0.0852151 -1.57369 0
M  V30 6341 C 574.914 0.445428 -1.81309 0
M  V30 6342 C 575.265 1.68795 -1.00013 0
M  V30 6343 O 574.39 2.15211 -0.226573 0
M  V30 6344 C 574.985 0.814887 -3.28854 0
M  V30 6345 C 573.544 1.29032 -3.53592 0
M  V30 6346 C 572.691 0.282089 -2.75861 0
M  V30 6347 H 575.642 -0.310771 -1.55627 0
M  V30 6348 H 575.663 1.67524 -3.41637 0
M  V30 6349 H 575.175 -0.0896309 -3.87996 0
M  V30 6350 H 573.276 2.21289 -2.9977 0
M  V30 6351 H 573.389 1.25898 -4.62262 0
M  V30 6352 H 571.753 0.762182 -2.43029 0
M  V30 6353 H 572.536 -0.614936 -3.37748 0
M  V30 6354 N 574.981 1.5647 0.188427 0
M  V30 6355 C 575.911 1.98101 1.23606 0
M  V30 6356 C 576.892 0.853961 1.47111 0
M  V30 6357 O 578.077 1.11879 1.58735 0
M  V30 6358 C 575.207 2.32624 2.57882 0
M  V30 6359 C 574.161 3.48129 2.48978 0
M  V30 6360 C 573.487 3.68347 3.87588 0
M  V30 6361 C 574.787 4.82112 2.00911 0
M  V30 6362 H 576.481 2.85864 0.890068 0
M  V30 6363 H 574.027 1.37532 0.426714 0
M  V30 6364 H 575.98 2.60343 3.3136 0
M  V30 6365 H 574.704 1.41751 2.94235 0
M  V30 6366 H 573.363 3.20511 1.77956 0
M  V30 6367 H 573.011 2.74793 4.21305 0
M  V30 6368 H 572.711 4.46055 3.82503 0
M  V30 6369 H 574.235 3.98449 4.62678 0
M  V30 6370 H 575.649 5.08819 2.64151 0
M  V30 6371 H 574.046 5.63337 2.06814 0
M  V30 6372 H 575.116 4.75249 0.96262 0
M  V30 6373 N 576.459 -0.456382 1.50847 0
M  V30 6374 C 577.707 -1.20497 1.62249 0
M  V30 6375 C 578.028 -1.92156 0.331839 0
M  V30 6376 O 577.298 -1.84751 -0.651443 0
M  V30 6377 H 575.878 -0.447775 0.597918 0
M  V30 6378 H 578.54 -0.525099 1.87693 0
M  V30 6379 H 577.636 -1.94492 2.44089 0
M  V30 6380 N 577.937 -1.40673 -0.710563 0
M  V30 6381 C 579.348 -1.34975 -1.28991 0
M  V30 6382 C 579.699 -0.0256272 -1.96183 0
M  V30 6383 O 578.824 0.876339 -1.97862 0
M  V30 6384 C 579.419 -2.44467 -2.34567 0
M  V30 6385 C 577.978 -2.42213 -2.88114 0
M  V30 6386 C 577.125 -2.25085 -1.61963 0
M  V30 6387 H 580.076 -1.50406 -0.506343 0
M  V30 6388 H 580.097 -2.12663 -3.15523 0
M  V30 6389 H 579.609 -3.40825 -1.85634 0
M  V30 6390 H 577.71 -1.49568 -3.41263 0
M  V30 6391 H 577.823 -3.37983 -3.39565 0
M  V30 6392 H 576.187 -1.72691 -1.87216 0
M  V30 6393 H 576.97 -3.23449 -1.15047 0
M  V30 6394 N 579.415 0.9433 -1.26252 0
M  V30 6395 C 580.692 1.66639 -1.02424 0
M  V30 6396 C 581.072 2.06335 0.446006 0
M  V30 6397 O 580.42 1.78551 1.42589 0
M  V30 6398 C 580.63 2.88019 -1.97094 0
M  V30 6399 C 581.978 3.59718 -2.25584 0
M  V30 6400 O 583.002 2.9812 -1.94943 0
M  V30 6401 O 581.861 4.7066 -2.77743 0
M  V30 6402 H 578.955 0.729643 -0.389294 0
M  V30 6403 H 581.501 0.995218 -1.37454 0
M  V30 6404 H 580.273 2.5556 -2.96319 0
M  V30 6405 H 579.896 3.62863 -1.62532 0
M  V30 6406 N 580.893 1.08022 1.14757 0
M  V30 6407 C 582.139 0.808705 1.85978 0
M  V30 6408 C 582.472 -0.663764 1.82504 0
M  V30 6409 O 581.747 -1.48765 1.25296 0
M  V30 6410 C 582.03 1.32623 3.34788 0
M  V30 6411 C 581.883 2.86375 3.46856 0
M  V30 6412 C 583.202 0.948291 4.29762 0
M  V30 6413 H 580.321 0.295244 0.675278 0
M  V30 6414 H 582.963 1.33917 1.34783 0
M  V30 6415 H 581.113 0.875002 3.78518 0
M  V30 6416 H 582.785 3.39839 3.11941 0
M  V30 6417 H 581.028 3.24232 2.88194 0
M  V30 6418 H 581.699 3.17658 4.51439 0
M  V30 6419 H 584.175 1.33722 3.94028 0
M  V30 6420 H 583.051 1.33765 5.32352 0
M  V30 6421 H 583.312 -0.145094 4.41862 0
M  V30 6422 N 582.371 -1.3172 0.865308 0
M  V30 6423 C 583.281 -2.32394 0.320935 0
M  V30 6424 C 584.297 -1.64511 -0.566746 0
M  V30 6425 O 585.473 -1.95969 -0.464575 0
M  V30 6426 C 582.538 -3.43462 -0.472701 0
M  V30 6427 C 581.599 -4.27015 0.442385 0
M  V30 6428 C 580.832 -5.32779 -0.313469 0
M  V30 6429 O 581.055 -5.49158 -1.54214 0
M  V30 6430 O 579.989 -6.01015 0.326257 0
M  V30 6431 H 583.815 -2.80868 1.15528 0
M  V30 6432 H 581.4 -1.35535 0.628545 0
M  V30 6433 H 583.282 -4.11172 -0.922781 0
M  V30 6434 H 581.957 -2.97159 -1.28367 0
M  V30 6435 H 580.864 -3.62075 0.940866 0
M  V30 6436 H 582.197 -4.76871 1.21882 0
M  V30 6437 N 583.85 -0.624285 -1.44708 0
M  V30 6438 C 585.127 -0.0572781 -1.95516 0
M  V30 6439 C 585.507 1.41516 -1.56641 0
M  V30 6440 O 584.855 2.12614 -0.837111 0
M  V30 6441 C 585.065 -0.272944 -3.47931 0
M  V30 6442 C 586.413 -0.162529 -4.24289 0
M  V30 6443 O 587.437 -0.203946 -3.55616 0
M  V30 6444 O 586.296 -0.0616847 -5.46465 0
M  V30 6445 H 583.389 0.0262219 -0.826584 0
M  V30 6446 H 585.936 -0.695512 -1.54793 0
M  V30 6447 H 584.707 -1.29492 -3.69253 0
M  V30 6448 H 584.331 0.399756 -3.95585 0
M  V30 6449 N 585.328 1.53329 -0.364422 0
M  V30 6450 C 586.291 2.24323 0.470292 0
M  V30 6451 C 587.291 1.25068 1.01067 0
M  V30 6452 O 588.481 1.49354 0.896605 0
M  V30 6453 C 585.613 2.97908 1.65722 0
M  V30 6454 H 586.806 2.9952 -0.150917 0
M  V30 6455 H 584.359 1.55868 -0.116092 0
M  V30 6456 H 585.094 2.2695 2.31655 0
M  V30 6457 H 584.879 3.70732 1.27671 0
M  V30 6458 H 586.369 3.5188 2.24878 0
M  V30 6459 N 586.806 0.0935595 1.57322 0
M  V30 6460 C 587.753 -0.865935 2.1394 0
M  V30 6461 C 588.723 -1.28083 1.05754 0
M  V30 6462 O 589.908 -1.36285 1.33533 0
M  V30 6463 C 587.048 -2.12023 2.72287 0
M  V30 6464 C 586.161 -1.756 3.94701 0
M  V30 6465 C 585.296 -2.95804 4.41218 0
M  V30 6466 C 584.335 -2.555 5.56225 0
M  V30 6467 N 583.472 -3.68534 5.97601 0
M  V30 6468 H 588.312 -0.376261 2.95615 0
M  V30 6469 H 585.849 -0.174052 1.46067 0
M  V30 6470 H 587.807 -2.85477 3.04235 0
M  V30 6471 H 586.437 -2.58492 1.93343 0
M  V30 6472 H 585.489 -0.921208 3.69077 0
M  V30 6473 H 586.801 -1.41964 4.78171 0
M  V30 6474 H 585.955 -3.77513 4.74941 0
M  V30 6475 H 584.694 -3.32649 3.56645 0
M  V30 6476 H 583.699 -1.72218 5.22131 0
M  V30 6477 H 584.924 -2.19801 6.42545 0
M  V30 6478 H 582.87 -4.051 5.15974 0
M  V30 6479 H 582.787 -3.38737 6.75865 0
M  V30 6480 H 584.055 -4.50757 6.35955 0
M  V30 6481 N 588.284 -1.56567 -0.180126 0
M  V30 6482 C 589.561 -1.7235 -0.924931 0
M  V30 6483 C 589.941 -0.652523 -2.00762 0
M  V30 6484 O 589.289 0.334115 -2.26044 0
M  V30 6485 C 589.499 -3.1523 -1.49771 0
M  V30 6486 C 590.847 -3.75921 -1.97405 0
M  V30 6487 O 591.871 -3.18452 -1.59583 0
M  V30 6488 O 590.73 -4.7681 -2.67048 0
M  V30 6489 H 587.824 -0.703502 -0.434758 0
M  V30 6490 H 590.37 -1.6886 -0.168647 0
M  V30 6491 H 589.142 -3.84656 -0.718027 0
M  V30 6492 H 588.765 -3.23009 -2.31842 0
M  V30 6493 N 589.762 0.448376 -1.51087 0
M  V30 6494 C 590.692 1.55102 -1.74544 0
M  V30 6495 C 591.673 1.59357 -0.594932 0
M  V30 6496 O 592.858 1.75261 -0.836491 0
M  V30 6497 C 589.988 2.93268 -1.86041 0
M  V30 6498 C 588.942 3.03877 -3.01402 0
M  V30 6499 C 588.268 4.43914 -2.98068 0
M  V30 6500 C 589.568 2.7898 -4.41551 0
M  V30 6501 H 591.262 1.35724 -2.66869 0
M  V30 6502 H 588.808 0.651498 -1.28419 0
M  V30 6503 H 590.761 3.70356 -2.01034 0
M  V30 6504 H 589.485 3.13853 -0.903548 0
M  V30 6505 H 588.144 2.29227 -2.86096 0
M  V30 6506 H 587.792 4.6145 -2.00182 0
M  V30 6507 H 587.492 4.51944 -3.75527 0
M  V30 6508 H 589.016 5.22991 -3.1514 0
M  V30 6509 H 590.43 3.45805 -4.57265 0
M  V30 6510 H 588.827 2.98431 -5.20633 0
M  V30 6511 H 589.897 1.74663 -4.5235 0
M  V30 6512 N 591.24 1.41047 0.703093 0
M  V30 6513 C 592.17 1.45067 1.82969 0
M  V30 6514 C 593.151 0.31016 1.67248 0
M  V30 6515 O 594.336 0.520548 1.87093 0
M  V30 6516 C 591.466 1.32478 3.2104 0
M  V30 6517 C 590.42 2.44262 3.51454 0
M  V30 6518 C 589.746 2.16742 4.88801 0
M  V30 6519 C 591.046 3.86606 3.51189 0
M  V30 6520 H 592.74 2.39353 1.79863 0
M  V30 6521 H 590.286 1.15206 0.863919 0
M  V30 6522 H 592.239 1.33904 3.99559 0
M  V30 6523 H 590.963 0.346735 3.24754 0
M  V30 6524 H 589.622 2.42107 2.75282 0
M  V30 6525 H 589.27 1.17299 4.89132 0
M  V30 6526 H 588.97 2.91643 5.10116 0
M  V30 6527 H 590.494 2.19872 5.69639 0
M  V30 6528 H 591.908 3.90517 4.19725 0
M  V30 6529 H 590.305 4.61128 3.84033 0
M  V30 6530 H 591.375 4.15296 2.50315 0
M  V30 6531 N 592.718 -0.936591 1.26751 0
M  V30 6532 C 593.628 -2.06949 1.10496 0
M  V30 6533 C 594.644 -1.7396 0.037271 0
M  V30 6534 O 595.82 -1.99941 0.241944 0
M  V30 6535 C 592.885 -3.38612 0.744491 0
M  V30 6536 C 591.946 -3.85355 1.89209 0
M  V30 6537 C 591.179 -5.10735 1.54873 0
M  V30 6538 O 591.402 -5.68602 0.452546 0
M  V30 6539 O 590.336 -5.52632 2.38499 0
M  V30 6540 H 594.162 -2.23571 2.05547 0
M  V30 6541 H 591.747 -1.05428 1.05855 0
M  V30 6542 H 593.629 -4.17711 0.556396 0
M  V30 6543 H 592.304 -3.23218 -0.176582 0
M  V30 6544 H 591.211 -3.07182 2.13518 0
M  V30 6545 H 592.544 -4.05277 2.79305 0
M  V30 6546 N 594.196 -1.08629 -1.14182 0
M  V30 6547 C 595.106 -0.730126 -2.22949 0
M  V30 6548 C 596.122 0.26436 -1.7198 0
M  V30 6549 O 597.298 0.107742 -2.01112 0
M  V30 6550 C 594.363 -0.147227 -3.46387 0
M  V30 6551 C 593.424 -1.19662 -4.12286 0
M  V30 6552 C 592.657 -0.641437 -5.29831 0
M  V30 6553 O 592.88 0.538351 -5.67854 0
M  V30 6554 O 591.814 -1.39257 -5.85569 0
M  V30 6555 H 595.64 -1.63753 -2.55771 0
M  V30 6556 H 593.225 -0.860118 -1.22157 0
M  V30 6557 H 595.107 0.174923 -4.21037 0
M  V30 6558 H 593.782 0.733304 -3.15285 0
M  V30 6559 H 592.689 -1.57133 -3.395 0
M  V30 6560 H 594.022 -2.0495 -4.475 0
M  V30 6561 N 595.674 1.31259 -0.872281 0
M  V30 6562 C 596.923 1.95893 -0.480493 0
M  V30 6563 C 597.236 1.697 0.972688 0
M  V30 6564 O 598.442 2.28214 1.47073 0
M  V30 6565 C 596.898 3.50705 -0.808342 0
M  V30 6566 C 596.506 3.85735 -2.27844 0
M  V30 6567 C 598.25 4.21719 -0.485136 0
M  V30 6568 C 596.157 5.33668 -2.54858 0
M  V30 6569 H 595.087 0.733182 -0.175955 0
M  V30 6570 H 597.738 1.49396 -1.0655 0
M  V30 6571 H 596.12 3.95706 -0.152558 0
M  V30 6572 H 597.294 3.51686 -2.97748 0
M  V30 6573 H 595.609 3.27792 -2.56791 0
M  V30 6574 H 598.206 5.30559 -0.664166 0
M  V30 6575 H 598.549 4.12316 0.574592 0
M  V30 6576 H 599.082 3.82359 -1.09756 0
M  V30 6577 H 595.821 5.48109 -3.59523 0
M  V30 6578 H 595.341 5.69061 -1.8955 0
M  V30 6579 H 597.02 6.00958 -2.39706 0
M  V30 6580 N 597.152 0.631951 1.44375 0
M  V30 6581 C 598.082 -0.0593243 2.33425 0
M  V30 6582 C 599.063 -0.833964 1.48253 0
M  V30 6583 O 600.248 -0.799682 1.76971 0
M  V30 6584 C 597.378 -1.04096 3.31333 0
M  V30 6585 C 596.332 -0.377899 4.26328 0
M  V30 6586 C 595.658 -1.4695 5.14111 0
M  V30 6587 C 596.958 0.716371 5.17364 0
M  V30 6588 H 598.652 0.684287 2.91475 0
M  V30 6589 H 596.198 0.330518 1.40156 0
M  V30 6590 H 598.151 -1.53331 3.92514 0
M  V30 6591 H 596.875 -1.81547 2.71493 0
M  V30 6592 H 595.534 0.0938054 3.6648 0
M  V30 6593 H 595.182 -2.2349 4.50623 0
M  V30 6594 H 594.882 -1.03121 5.78481 0
M  V30 6595 H 596.406 -1.96363 5.78164 0
M  V30 6596 H 597.82 0.307089 5.72477 0
M  V30 6597 H 596.217 1.07784 5.90341 0
M  V30 6598 H 597.287 1.58316 4.58327 0
M  V30 6599 N 598.631 -1.53133 0.372548 0
M  V30 6600 C 599.541 -2.29671 -0.478379 0
M  V30 6601 C 600.557 -1.35913 -1.08644 0
M  V30 6602 O 601.733 -1.68975 -1.09588 0
M  V30 6603 C 598.798 -3.07625 -1.599 0
M  V30 6604 C 597.859 -4.17061 -1.01776 0
M  V30 6605 C 597.092 -4.91289 -2.08497 0
M  V30 6606 O 597.315 -4.65442 -3.29727 0
M  V30 6607 O 596.249 -5.7705 -1.71164 0
M  V30 6608 H 600.075 -3.03355 0.144649 0
M  V30 6609 H 597.66 -1.48773 0.136729 0
M  V30 6610 H 599.542 -3.56281 -2.25038 0
M  V30 6611 H 598.217 -2.3677 -2.2073 0
M  V30 6612 H 597.124 -3.72641 -0.330098 0
M  V30 6613 H 598.457 -4.90102 -0.453915 0
M  V30 6614 N 600.109 -0.101901 -1.5727 0
M  V30 6615 C 601.072 0.840129 -2.13247 0
M  V30 6616 C 602.072 1.20625 -1.06331 0
M  V30 6617 O 603.262 1.13456 -1.32186 0
M  V30 6618 C 600.394 2.13372 -2.65867 0
M  V30 6619 H 601.587 0.353945 -2.97804 0
M  V30 6620 H 599.14 0.147167 -1.55606 0
M  V30 6621 H 599.875 2.66461 -1.84849 0
M  V30 6622 H 599.66 1.88085 -3.44044 0
M  V30 6623 H 601.15 2.80748 -3.09145 0
M  V30 6624 N 601.587 1.56661 0.17182 0
M  V30 6625 C 602.535 1.97289 1.23207 0
M  V30 6626 C 603.529 0.861566 1.45854 0
M  V30 6627 O 604.735 1.04668 1.4644 0
M  V30 6628 H 601.11 0.627681 0.41415 0
M  V30 6629 H 603.081 2.85662 0.862542 0
M  V30 6630 C 601.83 2.34849 2.564 0
M  V30 6631 H 601.153 3.19903 2.39797 0
M  V30 6632 H 602.593 2.67121 3.29276 0
M  V30 6633 C 601.052 1.19172 3.15119 0
M  V30 6634 O 601.582 0.479113 3.98833 0
M  V30 6635 N 599.788 0.962415 2.74201 0
M  V30 6636 H 599.335 1.54365 2.06226 0
M  V30 6637 H 599.293 0.190272 3.13824 0
M  V30 6638 N 603.065 -0.440357 1.51323 0
M  V30 6639 C 604.481 -0.7766 1.39431 0
M  V30 6640 C 604.681 -1.95838 0.474296 0
M  V30 6641 O 603.737 -2.52398 -0.0716692 0
M  V30 6642 C 605.05 -1.05981 2.81405 0
M  V30 6643 C 606.598 -1.16442 2.90534 0
M  V30 6644 C 607.073 -1.48058 4.33408 0
M  V30 6645 N 608.564 -1.54988 4.36501 0
M  V30 6646 C 609.299 -1.81017 5.44078 0
M  V30 6647 N 608.795 -2.04858 6.61819 0
M  V30 6648 N 610.588 -1.82774 5.31554 0
M  V30 6649 H 602.739 0.338006 2.09693 0
M  V30 6650 H 605.002 0.0888072 0.943831 0
M  V30 6651 H 604.708 -0.264173 3.50706 0
M  V30 6652 H 604.582 -1.98822 3.20546 0
M  V30 6653 H 606.969 -1.95068 2.21432 0
M  V30 6654 H 607.05 -0.215088 2.54894 0
M  V30 6655 H 606.694 -0.699605 5.03059 0
M  V30 6656 H 606.624 -2.44192 4.66559 0
M  V30 6657 H 609.115 -1.38479 3.51613 0
M  V30 6658 H 609.428 -2.2408 7.396 0
M  V30 6659 H 607.773 -2.02187 6.6494 0
M  V30 6660 H 610.964 -1.63665 4.38556 0
M  V30 6661 H 611.137 -2.02722 6.15474 0
M  V30 6662 N 604.543 -1.41418 -0.695603 0
M  V30 6663 C 605.453 -1.45622 -1.83933 0
M  V30 6664 C 606.469 -0.346825 -1.70508 0
M  V30 6665 O 607.645 -0.59454 -1.92424 0
M  V30 6666 C 604.71 -1.33627 -3.19914 0
M  V30 6667 C 603.771 -2.54882 -3.45447 0
M  V30 6668 C 603.004 -2.43449 -4.7494 0
M  V30 6669 O 603.227 -1.45905 -5.51424 0
M  V30 6670 O 602.161 -3.33206 -5.01256 0
M  V30 6671 H 605.987 -2.42114 -1.83342 0
M  V30 6672 H 603.572 -1.22956 -0.848658 0
M  V30 6673 H 605.454 -1.29221 -4.01098 0
M  V30 6674 H 604.129 -0.402508 -3.21188 0
M  V30 6675 H 603.036 -2.64865 -2.64192 0
M  V30 6676 H 604.369 -3.47087 -3.48987 0
M  V30 6677 N 606.021 0.929856 -1.27246 0
M  V30 6678 C 607.251 1.70895 -1.16096 0
M  V30 6679 C 607.659 1.87039 0.285122 0
M  V30 6680 O 607.002 1.38557 1.20614 0
M  V30 6681 C 607.064 3.12919 -1.7698 0
M  V30 6682 C 606.728 3.2012 -3.26148 0
M  V30 6683 C 607.725 3.02533 -4.22812 0
M  V30 6684 C 605.41 3.43148 -3.66817 0
M  V30 6685 C 607.404 3.07861 -5.58122 0
M  V30 6686 C 605.091 3.48109 -5.02258 0
M  V30 6687 C 606.089 3.30483 -5.97721 0
M  V30 6688 O 605.777 3.35175 -7.30694 0
M  V30 6689 H 605.509 0.54152 -0.404639 0
M  V30 6690 H 608.063 1.17342 -1.68582 0
M  V30 6691 H 606.293 3.67945 -1.18969 0
M  V30 6692 H 607.982 3.72787 -1.60576 0
M  V30 6693 H 608.748 2.84586 -3.92728 0
M  V30 6694 H 604.627 3.55918 -2.9299 0
M  V30 6695 H 608.171 2.94021 -6.32612 0
M  V30 6696 H 604.068 3.65579 -5.31998 0
M  V30 6697 H 604.836 3.51644 -7.39114 0
M  V30 6698 N 607.499 1.09233 1.13605 0
M  V30 6699 C 608.745 0.828385 1.8511 0
M  V30 6700 C 609.078 -0.64437 1.83198 0
M  V30 6701 O 608.353 -1.47428 1.26867 0
M  V30 6702 C 608.636 1.36167 3.33363 0
M  V30 6703 C 608.489 2.90038 3.438 0
M  V30 6704 C 609.808 0.993819 4.28732 0
M  V30 6705 H 606.927 0.30239 0.672108 0
M  V30 6706 H 609.569 1.35339 1.33355 0
M  V30 6707 H 607.719 0.9151 3.77569 0
M  V30 6708 H 609.391 3.43128 3.08319 0
M  V30 6709 H 607.634 3.27271 2.84739 0
M  V30 6710 H 608.305 3.22428 4.48045 0
M  V30 6711 H 610.781 1.37893 3.92587 0
M  V30 6712 H 609.657 1.39403 5.30903 0
M  V30 6713 H 609.918 -0.0982206 4.41991 0
M  V30 6714 N 608.977 -1.30795 0.87923 0
M  V30 6715 C 609.924 -2.28282 0.339968 0
M  V30 6716 C 610.894 -1.56134 -0.566685 0
M  V30 6717 O 612.079 -1.84231 -0.496338 0
M  V30 6718 C 609.219 -3.42225 -0.444501 0
M  V30 6719 C 608.332 -4.29204 0.490717 0
M  V30 6720 C 607.467 -5.30302 -0.308784 0
M  V30 6721 C 606.506 -6.08929 0.622272 0
M  V30 6722 N 605.643 -7.01957 -0.14155 0
M  V30 6723 H 610.483 -2.73794 1.17647 0
M  V30 6724 H 608.02 -1.34682 0.591527 0
M  V30 6725 H 609.978 -4.07038 -0.915186 0
M  V30 6726 H 608.608 -2.97799 -1.24562 0
M  V30 6727 H 607.66 -3.6475 1.07988 0
M  V30 6728 H 608.972 -4.84045 1.20425 0
M  V30 6729 H 608.126 -6.00835 -0.841575 0
M  V30 6730 H 606.865 -4.7614 -1.05556 0
M  V30 6731 H 605.87 -5.37278 1.16674 0
M  V30 6732 H 607.095 -6.65178 1.36804 0
M  V30 6733 H 605.041 -6.50192 -0.870966 0
M  V30 6734 H 604.958 -7.54261 0.51246 0
M  V30 6735 H 606.226 -7.76741 -0.655271 0
M  V30 6736 N 610.455 -0.639598 -1.44038 0
M  V30 6737 C 611.385 0.0469443 -2.33453 0
M  V30 6738 C 612.366 0.82609 -1.48694 0
M  V30 6739 O 613.551 0.790285 -1.77393 0
M  V30 6740 C 610.681 1.02338 -3.3188 0
M  V30 6741 C 609.635 0.355284 -4.26523 0
M  V30 6742 C 608.961 1.44221 -5.14883 0
M  V30 6743 C 610.261 -0.743798 -5.16977 0
M  V30 6744 H 611.955 -0.699735 -2.91108 0
M  V30 6745 H 609.501 -0.337946 -1.39978 0
M  V30 6746 H 611.454 1.51247 -3.93322 0
M  V30 6747 H 610.178 1.80105 -2.72451 0
M  V30 6748 H 608.837 -0.113239 -3.66425 0
M  V30 6749 H 608.485 2.21097 -4.51802 0
M  V30 6750 H 608.185 1.00052 -5.79019 0
M  V30 6751 H 609.709 1.93295 -5.79197 0
M  V30 6752 H 611.123 -0.337444 -5.72306 0
M  V30 6753 H 609.52 -1.10914 -5.89761 0
M  V30 6754 H 610.59 -1.60745 -4.57481 0
M  V30 6755 N 611.933 1.52934 -0.380664 0
M  V30 6756 C 613.181 2.01069 0.203874 0
M  V30 6757 C 613.502 1.26922 1.4804 0
M  V30 6758 O 612.772 0.386787 1.92044 0
M  V30 6759 H 611.352 0.742882 0.0783279 0
M  V30 6760 H 614.014 1.88099 -0.510368 0
M  V30 6761 H 613.11 3.09258 0.42021 0
M  V30 6762 O 613.45 0.250515 1.59545 0
M  V30 6763 H 614.141 -0.324371 1.90965 0
M  V30 END ATOM
M  V30 BEGIN BOND
M  V30 END BOND
M  V30 END CTAB
M  END
$$$$
