drugbank_target|P13661 Beta-lactamase OXA-1 (DB03801)
 OpenBabel12092119593D

  0  0  0     0  0            999 V3000
M  V30 BEGIN CTAB
M  V30 COUNTS 4349 4393 0 0 0
M  V30 BEGIN ATOM
M  V30 1 H -0.908 1.98254 -0.117106 0
M  V30 2 N 0 1.576 0 0
M  V30 3 C 0.933 2.03868 1.02534 0
M  V30 4 C 1.911 0.928543 1.3348 0
M  V30 5 O 3.095 1.19667 1.45644 0
M  V30 6 C 0.222 2.43627 2.35294 0
M  V30 7 C -0.732 3.65373 2.2001 0
M  V30 8 S 0.101 5.13292 1.52614 0
M  V30 9 C 1.257 5.56322 2.86805 0
M  V30 10 H 1.49 2.90518 0.631377 0
M  V30 11 H -0.977 1.52953 0.210867 0
M  V30 12 H 0.981 2.67203 3.11629 0
M  V30 13 H -0.358 1.57376 2.7183 0
M  V30 14 H -1.165 3.90944 3.18086 0
M  V30 15 H -1.563 3.418 1.51819 0
M  V30 16 H 0.729 5.58782 3.83104 0
M  V30 17 H 1.672 6.56266 2.65933 0
M  V30 18 H 2.08 4.83886 2.90714 0
M  V30 19 N 1.4781 -0.272755 1.55222 0
M  V30 20 C 2.4251 -1.33716 1.88119 0
M  V30 21 C 3.3951 -1.49066 0.73271 0
M  V30 22 O 4.5801 -1.63469 0.984002 0
M  V30 23 C 1.7201 -2.69238 2.15882 0
M  V30 24 C 0.8331 -2.62108 3.43399 0
M  V30 25 C -0.0319 -3.89811 3.60861 0
M  V30 26 C -0.9929 -3.77193 4.8207 0
M  V30 27 N -1.8559 -4.9673 4.96189 0
M  V30 28 H 2.9841 -1.04962 2.78903 0
M  V30 29 H 0.5211 -0.507088 1.38083 0
M  V30 30 H 2.4791 -3.48089 2.29978 0
M  V30 31 H 1.1091 -2.96194 1.28331 0
M  V30 32 H 0.1611 -1.74967 3.37773 0
M  V30 33 H 1.4731 -2.48685 4.32386 0
M  V30 34 H 0.6271 -4.77103 3.74777 0
M  V30 35 H -0.6339 -4.06102 2.7006 0
M  V30 36 H -1.6289 -2.88284 4.68159 0
M  V30 37 H -0.4039 -3.62421 5.74307 0
M  V30 38 H -2.4579 -5.13431 4.08319 0
M  V30 39 H -2.5409 -4.85839 5.79221 0
M  V30 40 H -1.2729 -5.85594 5.1449 0
M  V30 41 N 2.9562 -1.48159 -0.537278 0
M  V30 42 C 3.9042 -1.62573 -1.66352 0
M  V30 43 C 4.8982 -0.492366 -1.62087 0
M  V30 44 O 6.1042 -0.670847 -1.67032 0
M  V30 45 H 2.4792 -0.511992 -0.550789 0
M  V30 46 H 4.4502 -2.57176 -1.51337 0
M  V30 47 C 3.1992 -1.67583 -3.04649 0
M  V30 48 H 2.5222 -2.54151 -3.08622 0
M  V30 49 H 3.9622 -1.81713 -3.83088 0
M  V30 50 C 2.4212 -0.413039 -3.34358 0
M  V30 51 O 2.9512 0.477259 -3.98855 0
M  V30 52 N 1.1572 -0.286961 -2.8918 0
M  V30 53 H 0.7042 -1.01241 -2.36871 0
M  V30 54 H 0.6622 0.556963 -3.09427 0
M  V30 55 N 4.4343 0.785586 -1.36625 0
M  V30 56 C 5.6623 1.57448 -1.3423 0
M  V30 57 C 6.0773 1.88649 0.0755653 0
M  V30 58 O 5.4343 1.50414 1.03354 0
M  V30 59 C 5.4853 2.89316 -2.16745 0
M  V30 60 O 5.2063 2.59459 -3.53005 0
M  V30 61 C 6.7073 3.83606 -2.22174 0
M  V30 62 H 3.9273 0.488226 -0.4603 0
M  V30 63 H 6.4713 0.974733 -1.79775 0
M  V30 64 H 4.6263 3.4575 -1.74745 0
M  V30 65 H 5.0403 3.43804 -3.96105 0
M  V30 66 H 6.5143 4.73181 -2.8426 0
M  V30 67 H 6.9913 4.21734 -1.22627 0
M  V30 68 H 7.5973 3.33104 -2.64427 0
M  V30 69 N 5.9124 1.20967 1.01018 0
M  V30 70 C 7.1614 1.01796 1.74128 0
M  V30 71 C 7.4744 -0.449691 1.90361 0
M  V30 72 O 8.6804 -0.76068 2.60626 0
M  V30 73 C 7.1364 1.7727 3.13215 0
M  V30 74 C 6.7444 3.28171 3.04972 0
M  V30 75 C 8.4884 1.66489 3.90489 0
M  V30 76 C 6.3954 3.96156 4.39107 0
M  V30 77 H 5.3254 0.377276 0.652824 0
M  V30 78 H 7.9764 1.44651 1.12909 0
M  V30 79 H 6.3584 1.27205 3.75013 0
M  V30 80 H 7.5324 3.85499 2.52443 0
M  V30 81 H 5.8474 3.39437 2.41188 0
M  V30 82 H 8.4444 2.14617 4.89738 0
M  V30 83 H 8.7874 0.6222 4.11624 0
M  V30 84 H 9.3204 2.14003 3.35332 0
M  V30 85 H 6.0594 5.00604 4.23174 0
M  V30 86 H 5.5794 3.43617 4.91617 0
M  V30 87 H 7.2584 4.00774 5.07926 0
M  V30 88 N 7.3905 -1.2043 1.01659 0
M  V30 89 C 8.3405 -2.21076 0.557623 0
M  V30 90 C 9.3245 -1.56176 -0.387029 0
M  V30 91 O 10.5165 -1.7575 -0.209996 0
M  V30 92 C 7.6455 -3.43146 -0.102707 0
M  V30 93 C 6.7315 -4.15213 0.863652 0
M  V30 94 N 7.1225 -4.63662 2.02117 0
M  V30 95 C 5.4205 -4.40716 0.684472 0
M  V30 96 C 6.1215 -5.18868 2.62966 0
M  V30 97 N 5.0975 -5.0893 1.91027 0
M  V30 98 H 8.8995 -2.56201 1.44008 0
M  V30 99 H 6.4135 -1.36366 0.881931 0
M  V30 100 H 8.4105 -4.14475 -0.449054 0
M  V30 101 H 7.0705 -3.09526 -0.981003 0
M  V30 102 H 8.0815 -4.58877 2.40109 0
M  V30 103 H 4.7585 -4.17245 -0.14577 0
M  V30 104 H 6.1485 -5.6673 3.60924 0
M  V30 105 N 8.8686 -0.792821 -1.36206 0
M  V30 106 C 10.1176 -0.363353 -1.984 0
M  V30 107 C 10.4306 1.07172 -1.63626 0
M  V30 108 O 11.6366 1.60362 -2.19081 0
M  V30 109 C 10.0926 -0.59872 -3.54885 0
M  V30 110 C 9.7006 -2.04543 -3.9858 0
M  V30 111 C 11.4446 -0.233926 -4.23855 0
M  V30 112 C 9.3516 -2.22727 -5.47856 0
M  V30 113 H 8.2816 -0.13212 -0.742334 0
M  V30 114 H 10.9326 -0.974935 -1.55458 0
M  V30 115 H 9.3146 0.0826222 -3.95914 0
M  V30 116 H 10.4886 -2.76345 -3.68741 0
M  V30 117 H 8.8036 -2.36879 -3.42458 0
M  V30 118 H 11.4006 -0.348027 -5.33566 0
M  V30 119 H 11.7436 0.818351 -4.08177 0
M  V30 120 H 12.2766 -0.868639 -3.882 0
M  V30 121 H 9.0156 -3.2635 -5.68486 0
M  V30 122 H 8.5356 -1.55434 -5.7931 0
M  V30 123 H 10.2146 -2.03607 -6.14128 0
M  V30 124 N 10.3467 1.47872 -0.545128 0
M  V30 125 C 11.2947 2.31533 0.222512 0
M  V30 126 C 12.2887 1.42177 0.920985 0
M  V30 127 O 13.4947 1.59005 0.843645 0
M  V30 128 H 9.8697 0.746519 0.0906278 0
M  V30 129 H 11.8407 2.94139 -0.50246 0
M  V30 130 C 10.5897 3.2457 1.24699 0
M  V30 131 H 9.9127 3.93283 0.718944 0
M  V30 132 H 11.3527 3.85963 1.75523 0
M  V30 133 C 9.8117 2.47237 2.28856 0
M  V30 134 O 10.3417 2.20808 3.35569 0
M  V30 135 N 8.5477 2.08461 2.02466 0
M  V30 136 H 8.0947 2.30155 1.157 0
M  V30 137 H 8.0527 1.57033 2.72375 0
M  V30 138 N 11.8248 0.280983 1.55075 0
M  V30 139 C 13.0718 -0.334115 1.99725 0
M  V30 140 C 13.3998 -1.5542 1.1694 0
M  V30 141 O 12.6548 -1.94361 0.228531 0
M  V30 142 C 12.9538 -0.754656 3.49342 0
M  V30 143 C 12.6198 0.361445 4.49449 0
M  V30 144 C 11.2818 0.667893 4.76542 0
M  V30 145 C 13.6338 1.11322 5.09173 0
M  V30 146 C 10.9618 1.7296 5.60626 0
M  V30 147 C 13.3138 2.1647 5.9441 0
M  V30 148 C 11.9778 2.47742 6.19822 0
M  V30 149 H 11.2478 -0.122261 0.730844 0
M  V30 150 H 13.8948 0.395917 1.87363 0
M  V30 151 H 12.1998 -1.56446 3.5921 0
M  V30 152 H 13.8968 -1.24142 3.813 0
M  V30 153 H 10.4868 0.112481 4.28452 0
M  V30 154 H 14.6708 0.88973 4.8826 0
M  V30 155 H 9.9268 1.97684 5.78559 0
M  V30 156 H 14.1008 2.75193 6.3972 0
M  V30 157 H 11.7278 3.30145 6.84769 0
M  V30 158 N 13.3029 -1.57598 0.00835791 0
M  V30 159 C 14.2659 -2.07884 -0.965242 0
M  V30 160 C 15.2659 -0.989825 -1.26725 0
M  V30 161 O 16.4559 -1.25218 -1.21104 0
M  V30 162 C 13.5879 -2.52731 -2.28779 0
M  V30 163 H 14.7809 -2.95178 -0.530112 0
M  V30 164 H 12.3339 -1.54458 -0.239283 0
M  V30 165 H 13.0689 -1.68705 -2.76964 0
M  V30 166 H 12.8539 -3.32272 -2.08177 0
M  V30 167 H 14.3439 -2.91933 -2.98605 0
M  V30 168 N 14.781 0.264519 -1.55364 0
M  V30 169 C 16.03 0.992812 -1.75574 0
M  V30 170 C 16.343 1.87142 -0.568979 0
M  V30 171 O 17.549 2.63513 -0.653682 0
M  V30 172 C 16.005 1.81519 -3.10771 0
M  V30 173 C 15.613 0.984839 -4.37041 0
M  V30 174 C 17.357 2.53727 -3.40327 0
M  V30 175 C 15.264 1.80209 -5.63275 0
M  V30 176 H 14.194 0.374412 -0.65447 0
M  V30 177 H 16.845 0.248138 -1.81815 0
M  V30 178 H 15.227 2.60115 -2.98591 0
M  V30 179 H 16.401 0.242455 -4.60162 0
M  V30 180 H 14.716 0.37691 -4.14691 0
M  V30 181 H 17.313 3.15292 -4.3185 0
M  V30 182 H 17.656 3.24447 -2.60845 0
M  V30 183 H 18.189 1.82156 -3.53644 0
M  V30 184 H 14.928 1.13896 -6.45529 0
M  V30 185 H 14.448 2.52022 -5.44284 0
M  V30 186 H 16.127 2.37364 -6.01887 0
M  V30 187 N 16.2591 1.48442 0.529413 0
M  V30 188 C 17.5061 1.56488 1.28521 0
M  V30 189 C 17.8341 0.239042 1.93025 0
M  V30 190 O 17.0891 -0.770713 1.79885 0
M  V30 191 C 17.3881 2.6523 2.39558 0
M  V30 192 C 17.0541 4.07648 1.92702 0
M  V30 193 C 15.7161 4.46411 1.79641 0
M  V30 194 C 18.0681 4.96896 1.573 0
M  V30 195 C 15.3961 5.72226 1.29514 0
M  V30 196 C 17.7481 6.23202 1.08636 0
M  V30 197 C 16.4121 6.60821 0.941919 0
M  V30 198 H 15.6821 0.572631 0.470292 0
M  V30 199 H 18.3291 1.82161 0.59072 0
M  V30 200 H 16.6341 2.33419 3.14679 0
M  V30 201 H 18.3311 2.68671 2.97686 0
M  V30 202 H 14.9211 3.77036 2.03819 0
M  V30 203 H 19.1051 4.67626 1.66251 0
M  V30 204 H 14.3611 6.00097 1.17019 0
M  V30 205 H 18.5351 6.91753 0.803136 0
M  V30 206 H 16.1621 7.58198 0.5513 0
M  V30 207 N 17.7372 -0.778329 1.37039 0
M  V30 208 C 18.6672 -1.90546 1.34962 0
M  V30 209 C 19.6482 -1.68681 0.219274 0
M  V30 210 O 20.8332 -1.89634 0.418624 0
M  V30 211 C 17.9632 -3.27734 1.14925 0
M  V30 212 C 16.9172 -3.64147 2.24902 0
M  V30 213 C 16.2432 -4.99806 1.89996 0
M  V30 214 C 17.5432 -3.71579 3.67051 0
M  V30 215 H 19.2372 -1.92541 2.29277 0
M  V30 216 H 16.7832 -0.924948 1.10366 0
M  V30 217 H 18.7362 -4.06215 1.12104 0
M  V30 218 H 17.4602 -3.26154 0.170631 0
M  V30 219 H 16.1192 -2.8797 2.26868 0
M  V30 220 H 15.7672 -4.94759 0.906796 0
M  V30 221 H 15.4672 -5.25139 2.63634 0
M  V30 222 H 16.9912 -5.80694 1.88749 0
M  V30 223 H 18.4052 -4.40227 3.67251 0
M  V30 224 H 16.8022 -4.08405 4.39688 0
M  V30 225 H 17.8722 -2.72404 4.01154 0
M  V30 226 N 19.2153 -1.21501 -1.00376 0
M  V30 227 C 20.4643 -1.02718 -1.73586 0
M  V30 228 C 20.7773 0.439589 -1.90596 0
M  V30 229 O 21.9833 0.746848 -2.61026 0
M  V30 230 C 20.4393 -1.78929 -3.1227 0
M  V30 231 C 20.0473 -3.29783 -3.03228 0
M  V30 232 C 21.7913 -1.68557 -3.89601 0
M  V30 233 C 19.6983 -3.98479 -4.36999 0
M  V30 234 H 18.6283 -0.380733 -0.650814 0
M  V30 235 H 21.2793 -1.45248 -1.1214 0
M  V30 236 H 19.6613 -1.29192 -3.74333 0
M  V30 237 H 20.8353 -3.86832 -2.50395 0
M  V30 238 H 19.1503 -3.40711 -2.39385 0
M  V30 239 H 21.7473 -2.17211 -4.88593 0
M  V30 240 H 22.0903 -0.644021 -4.11288 0
M  V30 241 H 22.6233 -2.15778 -3.34193 0
M  V30 242 H 19.3623 -5.02841 -4.20513 0
M  V30 243 H 18.8823 -3.46219 -4.89788 0
M  V30 244 H 20.5613 -4.03462 -5.05794 0
M  V30 245 N 20.6934 1.19889 -1.02296 0
M  V30 246 C 21.9424 1.88743 -0.711257 0
M  V30 247 C 22.2554 1.80112 0.762817 0
M  V30 248 O 23.4614 2.44161 1.18733 0
M  V30 249 C 21.9174 3.38525 -1.22185 0
M  V30 250 C 21.5254 3.55727 -2.72328 0
M  V30 251 C 23.2694 4.12893 -0.985864 0
M  V30 252 C 21.1764 4.99369 -3.16835 0
M  V30 253 H 20.1064 0.706885 -0.262353 0
M  V30 254 H 22.7574 1.35586 -1.23648 0
M  V30 255 H 21.1394 3.91044 -0.624571 0
M  V30 256 H 22.3134 3.13564 -3.3766 0
M  V30 257 H 20.6284 2.94739 -2.9414 0
M  V30 258 H 23.2254 5.18813 -1.29374 0
M  V30 259 H 23.5684 4.16228 0.0775055 0
M  V30 260 H 24.1014 3.66494 -1.54684 0
M  V30 261 H 20.8404 5.01193 -4.22476 0
M  V30 262 H 20.3604 5.42317 -2.56228 0
M  V30 263 H 22.0394 5.67988 -3.09837 0
M  V30 264 N 22.1715 0.800033 1.35784 0
M  V30 265 C 23.1345 0.211565 2.28221 0
M  V30 266 C 24.1345 -0.59728 1.49296 0
M  V30 267 O 25.3245 -0.416721 1.69142 0
M  V30 268 C 22.4565 -0.705846 3.33513 0
M  V30 269 H 23.6495 1.02677 2.81776 0
M  V30 270 H 21.2025 0.570211 1.45528 0
M  V30 271 H 21.9375 -1.54498 2.85133 0
M  V30 272 H 21.7225 -0.127655 3.91892 0
M  V30 273 H 23.2125 -1.11211 4.02519 0
M  V30 274 N 23.6496 -1.47581 0.552962 0
M  V30 275 C 24.5976 -2.31648 -0.21023 0
M  V30 276 C 25.5916 -1.42663 -0.913432 0
M  V30 277 O 26.7976 -1.5945 -0.835201 0
M  V30 278 H 23.1726 -0.746989 -0.0866676 0
M  V30 279 H 25.1436 -2.93869 0.518051 0
M  V30 280 C 23.8926 -3.25226 -1.22976 0
M  V30 281 H 23.2156 -3.93658 -0.698077 0
M  V30 282 H 24.6556 -3.86889 -1.73473 0
M  V30 283 C 23.1146 -2.48448 -2.27542 0
M  V30 284 O 23.6446 -2.22585 -3.34393 0
M  V30 285 N 21.8506 -2.09532 -2.01357 0
M  V30 286 H 21.3976 -2.30765 -1.14478 0
M  V30 287 H 21.3556 -1.58476 -2.71538 0
M  V30 288 N 25.1277 -0.289203 -1.54924 0
M  V30 289 C 26.3767 0.324231 -1.99077 0
M  V30 290 C 26.6897 1.5591 -1.18117 0
M  V30 291 O 27.8957 2.24637 -1.52481 0
M  V30 292 C 26.3517 0.628209 -3.54375 0
M  V30 293 C 25.9597 -0.587647 -4.44129 0
M  V30 294 C 27.7037 1.20349 -4.07083 0
M  V30 295 C 25.6107 -0.257475 -5.90839 0
M  V30 296 H 24.5407 0.124924 -0.743579 0
M  V30 297 H 27.1917 -0.396063 -1.79175 0
M  V30 298 H 25.5737 1.40778 -3.70132 0
M  V30 299 H 26.7477 -1.36418 -4.40144 0
M  V30 300 H 25.0627 -1.08074 -4.0213 0
M  V30 301 H 27.6597 1.46456 -5.14252 0
M  V30 302 H 28.0027 2.14195 -3.56968 0
M  V30 303 H 28.5357 0.485889 -3.94821 0
M  V30 304 H 25.2747 -1.16419 -6.45079 0
M  V30 305 H 24.7947 0.482018 -5.9786 0
M  V30 306 H 26.4737 0.145238 -6.46837 0
M  V30 307 N 26.6058 1.57591 -0.0167156 0
M  V30 308 C 27.8548 1.90461 0.663877 0
M  V30 309 C 28.1678 0.893515 1.73999 0
M  V30 310 O 29.3738 1.11302 2.47637 0
M  V30 311 C 27.8298 3.38155 1.23204 0
M  V30 312 C 27.4378 4.47597 0.189866 0
M  V30 313 C 29.1818 3.80111 1.88986 0
M  V30 314 C 27.0888 5.86379 0.768964 0
M  V30 315 H 26.0188 0.710738 0.251729 0
M  V30 316 H 28.6698 1.83326 -0.0799926 0
M  V30 317 H 27.0518 3.40182 2.02712 0
M  V30 318 H 28.2258 4.57112 -0.581846 0
M  V30 319 H 26.5408 4.14766 -0.368475 0
M  V30 320 H 29.1378 4.81145 2.33247 0
M  V30 321 H 29.4808 3.14511 2.72743 0
M  V30 322 H 30.0138 3.80454 1.16187 0
M  V30 323 H 26.7528 6.55493 -0.0301957 0
M  V30 324 H 26.2728 5.80496 1.50945 0
M  V30 325 H 27.9518 6.34563 1.26251 0
M  V30 326 N 28.0839 -0.256276 1.55502 0
M  V30 327 C 29.3139 -1.00196 1.80677 0
M  V30 328 C 29.7219 -1.79805 0.588797 0
M  V30 329 O 29.0649 -1.78055 -0.451883 0
M  V30 330 C 29.1269 -1.99515 2.99055 0
M  V30 331 C 28.7909 -1.38688 4.35448 0
M  V30 332 C 29.7879 -0.794079 5.138 0
M  V30 333 C 27.4729 -1.40906 4.82132 0
M  V30 334 C 29.4669 -0.231562 6.36979 0
M  V30 335 C 27.1539 -0.842684 6.05262 0
M  V30 336 C 28.1519 -0.254953 6.82524 0
M  V30 337 O 27.8399 0.3027 8.0333 0
M  V30 338 H 27.5719 -0.300919 0.60533 0
M  V30 339 H 30.1259 -0.287307 2.03381 0
M  V30 340 H 28.3559 -2.74785 2.72084 0
M  V30 341 H 30.0449 -2.60349 3.11405 0
M  V30 342 H 30.8109 -0.769519 4.78856 0
M  V30 343 H 26.6899 -1.85591 4.21992 0
M  V30 344 H 30.2339 0.227816 6.97228 0
M  V30 345 H 26.1309 -0.86454 6.39684 0
M  V30 346 H 26.8989 0.193662 8.18271 0
M  V30 347 N 29.562 -1.4872 -0.521534 0
M  V30 348 C 30.787 -1.61101 -1.30618 0
M  V30 349 C 31.212 -0.274611 -1.86085 0
M  V30 350 O 30.57 0.754937 -1.64834 0
M  V30 351 C 30.618 -2.66709 -2.4269 0
M  V30 352 O 29.722 -2.24456 -3.45967 0
M  V30 353 H 29.063 -0.539921 -0.386499 0
M  V30 354 H 31.593 -1.94767 -0.626645 0
M  V30 355 H 31.603 -2.88245 -2.88754 0
M  V30 356 H 30.278 -3.63727 -2.01682 0
M  V30 357 H 28.855 -2.13168 -3.05964 0
M  V30 358 N 31.0401 0.771051 -1.3745 0
M  V30 359 C 32.2651 1.56529 -1.36065 0
M  V30 360 C 32.6901 1.88029 0.0515859 0
M  V30 361 O 32.0481 1.49282 1.02882 0
M  V30 362 C 32.0961 2.85187 -2.20683 0
M  V30 363 O 31.2001 3.79593 -1.61193 0
M  V30 364 H 30.5411 0.47411 -0.464883 0
M  V30 365 H 33.0711 0.954269 -1.80983 0
M  V30 366 H 33.0811 3.34283 -2.33921 0
M  V30 367 H 31.7561 2.61588 -3.23334 0
M  V30 368 H 30.3331 3.38239 -1.56999 0
M  V30 369 N 32.5182 1.22032 0.997298 0
M  V30 370 C 33.4812 0.987909 2.06816 0
M  V30 371 C 34.4812 -0.0440084 1.6074 0
M  V30 372 O 35.6712 0.194053 1.73116 0
M  V30 373 C 32.8032 0.49132 3.37341 0
M  V30 374 H 33.9962 1.93803 2.28868 0
M  V30 375 H 31.5492 1.03838 1.16822 0
M  V30 376 H 32.2842 -0.463364 3.20973 0
M  V30 377 H 32.0692 1.23575 3.72118 0
M  V30 378 H 33.5592 0.348824 4.16141 0
M  V30 379 N 33.9963 -1.19345 1.0293 0
M  V30 380 C 35.2213 -1.93538 0.745511 0
M  V30 381 C 35.6463 -1.75007 -0.689511 0
M  V30 382 O 35.0043 -1.05265 -1.47611 0
M  V30 383 C 35.0523 -3.43336 1.10239 0
M  V30 384 O 34.1563 -4.11806 0.221289 0
M  V30 385 H 33.4973 -0.604193 0.275404 0
M  V30 386 H 36.0273 -1.5141 1.37609 0
M  V30 387 H 36.0373 -3.94004 1.05947 0
M  V30 388 H 34.7123 -3.56146 2.14786 0
M  V30 389 H 33.2893 -3.715 0.322842 0
M  V30 390 N 35.4744 -0.807222 -1.35358 0
M  V30 391 C 36.4374 -0.223665 -2.28106 0
M  V30 392 C 37.4374 0.589354 -1.4961 0
M  V30 393 O 38.6274 0.407745 -1.69361 0
M  V30 394 C 35.7594 0.688149 -3.33882 0
M  V30 395 H 36.9524 -1.04169 -2.81227 0
M  V30 396 H 34.5054 -0.577921 -1.45223 0
M  V30 397 H 35.2404 1.52984 -2.85948 0
M  V30 398 H 35.0254 0.10687 -3.91954 0
M  V30 399 H 36.5154 1.09075 -4.03104 0
M  V30 400 N 36.9525 1.47285 -0.560781 0
M  V30 401 C 38.1775 2.07359 -0.0410566 0
M  V30 402 C 38.6025 1.41017 1.24483 0
M  V30 403 O 37.9605 0.486368 1.74654 0
M  V30 404 C 38.0085 3.6035 0.134123 0
M  V30 405 O 37.1125 3.94681 1.19587 0
M  V30 406 H 36.4535 0.661887 -0.0529291 0
M  V30 407 H 38.9835 1.89252 -0.777482 0
M  V30 408 H 38.9935 4.0652 0.347207 0
M  V30 409 H 37.6685 4.08034 -0.805047 0
M  V30 410 H 36.2455 3.60251 0.962987 0
M  V30 411 N 38.4306 0.297415 1.54768 0
M  V30 412 C 39.6586 -0.315623 2.04478 0
M  V30 413 C 40.0736 -1.47792 1.17486 0
M  V30 414 O 39.4306 -1.81404 0.19971 0
M  V30 415 C 39.4816 -0.7753 3.53088 0
M  V30 416 O 39.2026 0.340732 4.36773 0
M  V30 417 C 40.7036 -1.45386 4.18781 0
M  V30 418 H 37.9236 -0.0690887 0.667434 0
M  V30 419 H 40.4676 0.436003 1.99798 0
M  V30 420 H 38.6226 -1.47696 3.58141 0
M  V30 421 H 39.0366 -0.0165035 5.24497 0
M  V30 422 H 40.5106 -1.72669 5.24299 0
M  V30 423 H 40.9876 -2.39275 3.68299 0
M  V30 424 H 41.5936 -0.795475 4.17795 0
M  V30 425 N 39.9087 -1.5758 0.0250728 0
M  V30 426 C 41.1857 -1.82917 -0.692873 0
M  V30 427 C 41.5657 -0.908137 -1.90568 0
M  V30 428 O 40.9137 0.0372298 -2.2847 0
M  V30 429 C 41.1237 -3.32034 -1.07492 0
M  V30 430 C 42.4717 -3.98406 -1.46826 0
M  V30 431 O 43.4957 -3.36505 -1.16801 0
M  V30 432 O 42.3547 -5.07497 -2.02754 0
M  V30 433 H 39.4487 -0.754079 -0.33955 0
M  V30 434 H 41.9947 -1.69619 0.0524456 0
M  V30 435 H 40.7667 -3.90728 -0.211552 0
M  V30 436 H 40.3897 -3.50424 -1.87854 0
M  V30 437 N 41.3868 0.248026 -1.55636 0
M  V30 438 C 42.6358 0.974134 -1.76617 0
M  V30 439 C 42.9488 1.86528 -0.588796 0
M  V30 440 O 44.1548 2.62805 -0.681594 0
M  V30 441 C 42.6108 1.78213 -3.12679 0
M  V30 442 C 42.2188 0.93843 -4.38061 0
M  V30 443 C 43.9628 2.50104 -3.42999 0
M  V30 444 C 41.8698 1.74225 -5.65155 0
M  V30 445 H 40.7998 0.36745 -0.658405 0
M  V30 446 H 43.4508 0.22884 -1.82067 0
M  V30 447 H 41.8328 2.56933 -3.01333 0
M  V30 448 H 43.0068 0.193635 -4.60393 0
M  V30 449 H 41.3218 0.332905 -4.15067 0
M  V30 450 H 43.9188 3.10694 -4.3517 0
M  V30 451 H 44.2618 3.21662 -2.64271 0
M  V30 452 H 44.7948 1.78395 -3.55556 0
M  V30 453 H 41.5338 1.07043 -6.46701 0
M  V30 454 H 41.0538 2.46235 -5.46926 0
M  V30 455 H 42.7328 2.30967 -6.0437 0
M  V30 456 N 42.8649 1.48995 0.513639 0
M  V30 457 C 44.0899 1.61792 1.29762 0
M  V30 458 C 44.5149 0.284475 1.85936 0
M  V30 459 O 43.8729 -0.746185 1.65232 0
M  V30 460 C 43.9209 2.67993 2.41272 0
M  V30 461 O 43.0249 2.26287 3.44772 0
M  V30 462 H 42.3659 0.541963 0.38363 0
M  V30 463 H 44.8959 1.95097 0.616307 0
M  V30 464 H 44.9059 2.89772 2.87221 0
M  V30 465 H 43.5809 3.64791 1.9975 0
M  V30 466 H 42.1579 2.14788 3.04829 0
M  V30 467 N 44.343 -0.763751 1.37857 0
M  V30 468 C 45.571 -1.55293 1.36718 0
M  V30 469 C 45.986 -1.88745 -0.0455434 0
M  V30 470 O 45.343 -1.52039 -1.00947 0
M  V30 471 C 45.394 -2.85831 2.2132 0
M  V30 472 O 45.115 -2.5381 3.57089 0
M  V30 473 C 46.616 -3.80023 2.28249 0
M  V30 474 H 43.836 -0.480841 0.468009 0
M  V30 475 H 46.38 -0.946009 1.81303 0
M  V30 476 H 44.535 -3.42926 1.80223 0
M  V30 477 H 44.949 -3.37459 4.01524 0
M  V30 478 H 46.423 -4.68599 2.91752 0
M  V30 479 H 46.9 -4.1973 1.2932 0
M  V30 480 H 47.506 -3.28855 2.69693 0
M  V30 481 N 45.8211 -1.22559 -0.990812 0
M  V30 482 C 47.0671 -1.05297 -1.73322 0
M  V30 483 C 47.4001 0.410655 -1.89808 0
M  V30 484 O 46.6751 1.30439 -1.44277 0
M  V30 485 C 46.9581 -1.76713 -3.13759 0
M  V30 486 C 46.8111 -3.30684 -3.04907 0
M  V30 487 C 48.1301 -1.52121 -4.12974 0
M  V30 488 H 45.2491 -0.38392 -0.629106 0
M  V30 489 H 47.8911 -1.50926 -1.15418 0
M  V30 490 H 46.0411 -1.37924 -3.63193 0
M  V30 491 H 47.7131 -3.7893 -2.63077 0
M  V30 492 H 45.9561 -3.60253 -2.41661 0
M  V30 493 H 46.6271 -3.75833 -4.04294 0
M  V30 494 H 49.1031 -1.85819 -3.72304 0
M  V30 495 H 47.9791 -2.04582 -5.0935 0
M  V30 496 H 48.2401 -0.454257 -4.3976 0
M  V30 497 N 47.2992 1.18797 -1.03562 0
M  V30 498 C 48.2622 2.20464 -0.626769 0
M  V30 499 C 49.2622 1.57721 0.313173 0
M  V30 500 O 50.4522 1.73917 0.0992615 0
M  V30 501 C 47.5842 3.40802 0.0818498 0
M  V30 502 H 48.7772 2.58149 -1.5264 0
M  V30 503 H 46.3302 1.32593 -0.827578 0
M  V30 504 H 47.0652 3.08642 0.995518 0
M  V30 505 H 46.8502 3.8758 -0.593652 0
M  V30 506 H 48.3402 4.16092 0.354584 0
M  V30 507 N 48.7773 0.814389 1.34928 0
M  V30 508 C 50.0023 0.410097 2.03305 0
M  V30 509 C 50.4273 -0.973464 1.60951 0
M  V30 510 O 49.7853 -1.63185 0.789964 0
M  V30 511 C 49.8333 0.51049 3.56968 0
M  V30 512 O 48.9373 -0.473035 4.09678 0
M  V30 513 H 48.2783 0.170088 0.641846 0
M  V30 514 H 50.8083 1.10244 1.72358 0
M  V30 515 H 50.8183 0.383135 4.06197 0
M  V30 516 H 49.4933 1.51963 3.87144 0
M  V30 517 H 48.0703 -0.305272 3.71648 0
M  V30 518 N 50.2554 -1.46986 0.568584 0
M  V30 519 C 51.6664 -1.86188 0.138219 0
M  V30 520 C 52.0174 -1.47388 -1.29504 0
M  V30 521 O 51.1424 -0.88219 -1.97602 0
M  V30 522 C 51.7374 -3.3792 0.244065 0
M  V30 523 C 50.2964 -3.76171 -0.131335 0
M  V30 524 C 49.4434 -2.71027 0.586465 0
M  V30 525 H 52.3944 -1.38342 0.777645 0
M  V30 526 H 52.4154 -3.76729 -0.534351 0
M  V30 527 H 51.9274 -3.66128 1.28731 0
M  V30 528 H 50.0284 -3.5358 -1.17526 0
M  V30 529 H 50.1414 -4.78523 0.235146 0
M  V30 530 H 48.5054 -2.54684 0.0282722 0
M  V30 531 H 49.2884 -3.02077 1.63109 0
M  V30 532 N 51.7335 -0.305618 -1.54608 0
M  V30 533 C 52.6635 0.561482 -2.26649 0
M  V30 534 C 53.6445 1.13415 -1.26772 0
M  V30 535 O 54.8295 1.16262 -1.55553 0
M  V30 536 C 51.9595 1.73122 -3.01075 0
M  V30 537 C 50.9135 1.2887 -4.08138 0
M  V30 538 C 50.2395 2.54396 -4.70305 0
M  V30 539 C 51.5395 0.416578 -5.20636 0
M  V30 540 H 53.2335 -0.0393902 -2.99374 0
M  V30 541 H 50.7795 -0.020385 -1.43986 0
M  V30 542 H 52.7325 2.34396 -3.50195 0
M  V30 543 H 51.4565 2.3584 -2.25936 0
M  V30 544 H 50.1155 0.698991 -3.59875 0
M  V30 545 H 49.7635 3.15439 -3.918 0
M  V30 546 H 49.4635 2.25486 -5.42614 0
M  V30 547 H 50.9875 3.16464 -5.2219 0
M  V30 548 H 52.4015 0.935116 -5.65622 0
M  V30 549 H 50.7985 0.221046 -5.99693 0
M  V30 550 H 51.8685 -0.557162 -4.81688 0
M  V30 551 N 53.2116 1.57565 -0.0334293 0
M  V30 552 C 54.4586 1.91978 0.644272 0
M  V30 553 C 54.7866 0.910231 1.71887 0
M  V30 554 O 54.0416 -0.0801961 1.95536 0
M  V30 555 C 54.3406 3.33112 1.29504 0
M  V30 556 C 54.0066 4.49537 0.350388 0
M  V30 557 C 52.6686 4.81115 0.0903974 0
M  V30 558 C 55.0206 5.20347 -0.298032 0
M  V30 559 C 52.3486 5.8086 -0.825746 0
M  V30 560 C 54.7006 6.2107 -1.20226 0
M  V30 561 C 53.3646 6.51088 -1.4711 0
M  V30 562 H 52.6346 0.702496 0.235756 0
M  V30 563 H 55.2816 1.91259 -0.0961176 0
M  V30 564 H 53.5866 3.30113 2.11028 0
M  V30 565 H 55.2836 3.57011 1.82603 0
M  V30 566 H 51.8736 4.24883 0.563205 0
M  V30 567 H 56.0576 4.96178 -0.110234 0
M  V30 568 H 51.3136 6.02461 -1.04169 0
M  V30 569 H 55.4876 6.75057 -1.71086 0
M  V30 570 H 53.1146 7.28193 -2.18264 0
M  V30 571 N 54.6897 -0.239769 1.55765 0
M  V30 572 C 55.5997 -1.31831 1.94056 0
M  V30 573 C 56.6157 -1.52275 0.841925 0
M  V30 574 O 57.7917 -1.65759 1.14394 0
M  V30 575 C 54.8567 -2.65156 2.23368 0
M  V30 576 C 53.9177 -2.53173 3.46701 0
M  V30 577 C 53.1507 -3.8014 3.74606 0
M  V30 578 O 53.3737 -4.82343 3.04469 0
M  V30 579 O 52.3077 -3.78344 4.68123 0
M  V30 580 H 56.1337 -1.02347 2.85935 0
M  V30 581 H 53.7187 -0.441123 1.42739 0
M  V30 582 H 55.6007 -3.43929 2.43497 0
M  V30 583 H 54.2757 -2.94358 1.34666 0
M  V30 584 H 53.1827 -1.72662 3.31871 0
M  V30 585 H 54.5157 -2.28915 4.35728 0
M  V30 586 N 56.1678 -1.49265 -0.50573 0
M  V30 587 C 57.4158 -1.582 -1.25766 0
M  V30 588 C 57.7368 -0.268482 -1.93143 0
M  V30 589 O 57.0068 0.711833 -1.8251 0
M  V30 590 H 55.5868 -0.582873 -0.467191 0
M  V30 591 H 58.2488 -1.85865 -0.586525 0
M  V30 592 H 57.3448 -2.37563 -2.02412 0
M  V30 593 N 57.6459 0.756429 -1.3826 0
M  V30 594 C 58.8739 1.54565 -1.3754 0
M  V30 595 C 59.2889 1.88767 0.0355331 0
M  V30 596 O 58.6459 1.52572 1.0014 0
M  V30 597 C 58.6969 2.84654 -2.22833 0
M  V30 598 O 58.4179 2.51912 -3.5843 0
M  V30 599 C 59.9189 3.78807 -2.30261 0
M  V30 600 H 57.1389 0.478353 -0.470553 0
M  V30 601 H 59.6829 0.936381 -1.81803 0
M  V30 602 H 57.8379 3.41965 -1.8204 0
M  V30 603 H 58.2519 3.35325 -4.03308 0
M  V30 604 H 59.7259 4.67045 -2.94233 0
M  V30 605 H 60.2029 4.19038 -1.31545 0
M  V30 606 H 60.8089 3.2742 -2.71433 0
M  V30 607 N 59.124 1.23083 0.984299 0
M  V30 608 C 60.034 1.02515 2.11016 0
M  V30 609 C 61.05 -0.0291702 1.73976 0
M  V30 610 O 62.226 0.165434 2.00719 0
M  V30 611 C 59.291 0.614673 3.41208 0
M  V30 612 C 58.352 1.74359 3.92297 0
M  V30 613 C 57.585 1.35261 5.16275 0
M  V30 614 O 57.808 0.235136 5.69915 0
M  V30 615 O 56.742 2.17227 5.61334 0
M  V30 616 H 60.568 1.96862 2.31255 0
M  V30 617 H 58.153 1.01753 1.09392 0
M  V30 618 H 60.035 0.396518 4.1953 0
M  V30 619 H 58.71 -0.299851 3.22308 0
M  V30 620 H 57.617 2.01635 3.1511 0
M  V30 621 H 58.95 2.63629 4.15645 0
M  V30 622 N 60.6021 -1.18246 1.0419 0
M  V30 623 C 61.8501 -1.87886 0.744543 0
M  V30 624 C 62.1711 -1.8082 -0.730006 0
M  V30 625 O 61.4411 -1.22736 -1.52685 0
M  V30 626 H 60.0211 -0.695556 0.272417 0
M  V30 627 H 62.6831 -1.43494 1.31892 0
M  V30 628 H 61.7791 -2.9389 1.05049 0
M  V30 629 N 62.0802 -0.821533 -1.34494 0
M  V30 630 C 63.3202 -0.414785 -2.00147 0
M  V30 631 C 63.6842 1.00299 -1.6372 0
M  V30 632 O 64.8852 1.51255 -2.22206 0
M  V30 633 C 63.1562 -0.609403 -3.52166 0
M  V30 634 S 64.7152 -0.295297 -4.37805 0
M  V30 635 H 61.5332 -0.15679 -0.693497 0
M  V30 636 H 64.1352 -1.06705 -1.63812 0
M  V30 637 H 62.8392 -1.64096 -3.76166 0
M  V30 638 H 62.3702 0.0576414 -3.93358 0
M  V30 639 H 64.3852 0.891531 -4.88125 0
M  V30 640 N 63.5583 1.46682 -0.576371 0
M  V30 641 C 64.8053 2.02412 -0.0595339 0
M  V30 642 C 65.1333 1.44859 1.29793 0
M  V30 643 O 64.3883 0.601099 1.8624 0
M  V30 644 C 64.6873 3.57345 0.062886 0
M  V30 645 C 64.3533 4.33908 -1.22616 0
M  V30 646 C 63.0153 4.54544 -1.57933 0
M  V30 647 C 65.3673 4.77919 -2.07948 0
M  V30 648 C 62.6953 5.16444 -2.78393 0
M  V30 649 C 65.0473 5.41149 -3.27629 0
M  V30 650 C 63.7113 5.60014 -3.63236 0
M  V30 651 H 62.9813 0.74068 -0.021785 0
M  V30 652 H 65.6283 1.76128 -0.751735 0
M  V30 653 H 63.9333 3.82729 0.838178 0
M  V30 654 H 65.6303 3.98136 0.478439 0
M  V30 655 H 62.2203 4.18138 -0.941202 0
M  V30 656 H 66.4043 4.61738 -1.81967 0
M  V30 657 H 61.6603 5.29242 -3.06126 0
M  V30 658 H 65.8343 5.74211 -3.94023 0
M  V30 659 H 63.4613 6.07748 -4.56669 0
M  V30 660 N 65.0364 0.313813 1.54444 0
M  V30 661 C 65.9664 -0.549454 2.26943 0
M  V30 662 C 66.9474 -1.12741 1.27372 0
M  V30 663 O 68.1324 -1.15436 1.56167 0
M  V30 664 C 65.2624 -1.71523 3.01989 0
M  V30 665 C 64.2164 -1.26703 4.08816 0
M  V30 666 C 63.5424 -2.51898 4.71647 0
M  V30 667 C 64.8424 -0.388962 5.2085 0
M  V30 668 H 66.5364 0.0552661 2.99349 0
M  V30 669 H 64.0824 0.0280207 1.43973 0
M  V30 670 H 66.0354 -2.32535 3.51433 0
M  V30 671 H 64.7594 -2.34639 2.27183 0
M  V30 672 H 63.4184 -0.679896 3.6024 0
M  V30 673 H 63.0664 -3.13356 3.93468 0
M  V30 674 H 62.7664 -2.22605 5.43802 0
M  V30 675 H 64.2904 -3.1369 5.23861 0
M  V30 676 H 65.7044 -0.905107 5.6611 0
M  V30 677 H 64.1014 -0.18924 5.99802 0
M  V30 678 H 65.1714 0.582699 4.81386 0
M  V30 679 N 66.5145 -1.57545 0.0417849 0
M  V30 680 C 67.4445 -2.14009 -0.933929 0
M  V30 681 C 68.4255 -1.05938 -1.33083 0
M  V30 682 O 69.6105 -1.33833 -1.40721 0
M  V30 683 C 66.7405 -2.67747 -2.21199 0
M  V30 684 C 65.6945 -3.80718 -1.95544 0
M  V30 685 C 65.0205 -4.20935 -3.29724 0
M  V30 686 C 66.3205 -5.06258 -1.28452 0
M  V30 687 H 68.0145 -2.95788 -0.463645 0
M  V30 688 H 65.5605 -1.42285 -0.221573 0
M  V30 689 H 67.5135 -3.05886 -2.89848 0
M  V30 690 H 66.2375 -1.83147 -2.70416 0
M  V30 691 H 64.8965 -3.43037 -1.2931 0
M  V30 692 H 64.5445 -3.33298 -3.76724 0
M  V30 693 H 64.2445 -4.9707 -3.13361 0
M  V30 694 H 65.7685 -4.61666 -3.9962 0
M  V30 695 H 67.1825 -5.41903 -1.8712 0
M  V30 696 H 65.5795 -5.87475 -1.22445 0
M  V30 697 H 66.6495 -4.84207 -0.259219 0
M  V30 698 N 67.9926 0.231505 -1.5589 0
M  V30 699 C 69.2226 0.973092 -1.82248 0
M  V30 700 C 69.6306 1.78845 -0.617328 0
M  V30 701 O 68.9736 1.78752 0.423499 0
M  V30 702 C 69.0356 1.94732 -3.02192 0
M  V30 703 C 68.6996 1.31743 -4.37599 0
M  V30 704 C 69.6966 0.712238 -5.14998 0
M  V30 705 C 67.3816 1.33218 -4.84312 0
M  V30 706 C 69.3756 0.130195 -6.37267 0
M  V30 707 C 67.0626 0.746286 -6.06526 0
M  V30 708 C 68.0606 0.146337 -6.82843 0
M  V30 709 O 67.7486 -0.430465 -8.02747 0
M  V30 710 H 67.4806 0.29125 -0.61004 0
M  V30 711 H 70.0346 0.254915 -2.03812 0
M  V30 712 H 68.2646 2.70422 -2.76422 0
M  V30 713 H 69.9536 2.55362 -3.15508 0
M  V30 714 H 70.7196 0.69324 -4.8002 0
M  V30 715 H 66.5986 1.78854 -4.24891 0
M  V30 716 H 70.1426 -0.33871 -6.96777 0
M  V30 717 H 66.0396 0.762663 -6.40979 0
M  V30 718 H 66.8076 -0.323818 -8.17859 0
M  V30 719 N 69.4707 1.49531 0.497807 0
M  V30 720 C 70.7477 1.49682 1.25915 0
M  V30 721 C 71.1277 0.226339 2.09883 0
M  V30 722 O 70.4757 -0.791189 2.14365 0
M  V30 723 C 70.6857 2.77755 2.11313 0
M  V30 724 C 72.0337 3.27371 2.70395 0
M  V30 725 O 73.0577 2.78894 2.21578 0
M  V30 726 O 71.9167 4.11808 3.59272 0
M  V30 727 H 69.0107 0.599228 0.56996 0
M  V30 728 H 71.5567 1.61798 0.511816 0
M  V30 729 H 70.3287 3.61713 1.49264 0
M  V30 730 H 69.9517 2.68515 2.93233 0
M  V30 731 N 70.9488 -0.749086 1.3866 0
M  V30 732 C 71.9118 -1.84457 1.36045 0
M  V30 733 C 72.9118 -1.58682 0.260122 0
M  V30 734 O 74.1018 -1.66343 0.517261 0
M  V30 735 C 71.2338 -3.22008 1.11911 0
M  V30 736 H 72.4268 -1.88182 2.33512 0
M  V30 737 H 69.9798 -0.951266 1.24019 0
M  V30 738 H 70.7148 -3.2395 0.150686 0
M  V30 739 H 70.4998 -3.42111 1.91579 0
M  V30 740 H 71.9898 -4.0208 1.12788 0
M  V30 741 N 72.4269 -1.23603 -0.977757 0
M  V30 742 C 73.6519 -1.09735 -1.75991 0
M  V30 743 C 74.0769 0.346858 -1.84874 0
M  V30 744 O 73.4349 1.25093 -1.3123 0
M  V30 745 C 73.4829 -1.73051 -3.16363 0
M  V30 746 O 72.5869 -0.994452 -4.0023 0
M  V30 747 H 71.9279 -0.384476 -0.541364 0
M  V30 748 H 74.4579 -1.6371 -1.2272 0
M  V30 749 H 74.4679 -1.78398 -3.66931 0
M  V30 750 H 73.1429 -2.78137 -3.09213 0
M  V30 751 H 71.7199 -1.01812 -3.58732 0
M  V30 752 N 73.905 1.17692 -1.04816 0
M  V30 753 C 75.133 1.91786 -0.776254 0
M  V30 754 C 75.548 1.76604 0.667577 0
M  V30 755 O 74.905 1.10067 1.45573 0
M  V30 756 C 74.956 3.42967 -1.14263 0
M  V30 757 O 74.677 3.57678 -2.52978 0
M  V30 758 C 76.178 4.34144 -0.896311 0
M  V30 759 H 73.398 0.608624 -0.282519 0
M  V30 760 H 75.942 1.49268 -1.39783 0
M  V30 761 H 74.097 3.83245 -0.565874 0
M  V30 762 H 74.511 4.51319 -2.67229 0
M  V30 763 H 75.985 5.38744 -1.20244 0
M  V30 764 H 76.462 4.38876 0.168636 0
M  V30 765 H 77.068 3.99574 -1.45672 0
M  V30 766 N 75.3831 0.828654 1.34056 0
M  V30 767 C 76.3311 0.242973 2.31327 0
M  V30 768 C 77.3251 -0.61944 1.57668 0
M  V30 769 O 78.5311 -0.51014 1.7262 0
M  V30 770 H 74.9061 0.059834 0.749616 0
M  V30 771 H 76.8771 1.07809 2.78244 0
M  V30 772 C 75.6261 -0.575733 3.429 0
M  V30 773 H 74.9491 0.0785582 3.99723 0
M  V30 774 H 76.3891 -0.951547 4.13185 0
M  V30 775 C 74.8481 -1.75044 2.87856 0
M  V30 776 O 75.3781 -2.84882 2.83205 0
M  V30 777 N 73.5841 -1.56903 2.44602 0
M  V30 778 H 73.1311 -0.675547 2.48584 0
M  V30 779 H 73.0891 -2.35652 2.08124 0
M  V30 780 N 76.8612 -1.46375 0.584142 0
M  V30 781 C 77.8242 -2.28784 -0.138108 0
M  V30 782 C 78.8242 -1.38471 -0.817462 0
M  V30 783 O 80.0142 -1.60833 -0.669199 0
M  V30 784 C 77.1462 -3.18892 -1.20503 0
M  V30 785 H 78.3392 -2.94117 0.586127 0
M  V30 786 H 75.8922 -1.52509 0.342171 0
M  V30 787 H 76.6272 -2.58309 -1.96079 0
M  V30 788 H 76.4122 -3.85388 -0.722384 0
M  V30 789 H 77.9022 -3.80914 -1.71155 0
M  V30 790 N 78.3393 -0.321999 -1.54275 0
M  V30 791 C 79.2493 0.553631 -2.27974 0
M  V30 792 C 80.2653 1.13054 -1.32268 0
M  V30 793 O 81.4413 1.15084 -1.6528 0
M  V30 794 C 78.5063 1.69927 -3.02201 0
M  V30 795 C 77.5673 1.15433 -4.1349 0
M  V30 796 C 76.8003 2.24537 -4.84168 0
M  V30 797 O 77.0233 3.44852 -4.5435 0
M  V30 798 O 75.9573 1.90044 -5.7111 0
M  V30 799 H 79.7833 -0.0448345 -3.03667 0
M  V30 800 H 77.3683 -0.0877418 -1.49142 0
M  V30 801 H 79.2503 2.3663 -3.48689 0
M  V30 802 H 77.9253 2.28395 -2.29385 0
M  V30 803 H 76.8323 0.452436 -3.71354 0
M  V30 804 H 78.1653 0.614805 -4.88345 0
M  V30 805 N 79.8174 1.5752 -0.0501392 0
M  V30 806 C 81.0664 1.91827 0.623328 0
M  V30 807 C 81.3794 0.930222 1.72065 0
M  V30 808 O 82.5854 1.1653 2.4522 0
M  V30 809 C 81.0414 3.40692 1.16003 0
M  V30 810 C 80.6494 4.479 0.0948811 0
M  V30 811 C 82.3934 3.84034 1.80881 0
M  V30 812 C 80.3004 5.87879 0.644411 0
M  V30 813 H 79.2304 0.715918 0.236596 0
M  V30 814 H 81.8814 1.83115 -0.118861 0
M  V30 815 H 80.2634 3.44405 1.9545 0
M  V30 816 H 81.4374 4.55775 -0.678675 0
M  V30 817 H 79.7524 4.13892 -0.45637 0
M  V30 818 H 82.3494 4.85984 2.22988 0
M  V30 819 H 82.6924 3.20225 2.6601 0
M  V30 820 H 83.2254 3.82833 1.0809 0
M  V30 821 H 79.9644 6.55282 -0.169229 0
M  V30 822 H 79.4844 5.83567 1.38598 0
M  V30 823 H 81.1634 6.37098 1.12763 0
M  V30 824 N 81.2955 -0.223234 1.56011 0
M  V30 825 C 82.2585 -1.26014 1.9145 0
M  V30 826 C 83.2585 -1.3989 0.792937 0
M  V30 827 O 84.4485 -1.38184 1.0607 0
M  V30 828 C 81.5805 -2.63422 2.16383 0
M  V30 829 H 82.7735 -0.95796 2.84189 0
M  V30 830 H 80.3265 -0.463576 1.49267 0
M  V30 831 H 81.0615 -2.98741 1.2619 0
M  V30 832 H 80.8465 -2.54728 2.98088 0
M  V30 833 H 82.3365 -3.38249 2.44903 0
M  V30 834 N 82.7736 -1.49793 -0.48987 0
M  V30 835 C 83.7056 -1.63413 -1.60713 0
M  V30 836 C 84.7186 -0.516329 -1.54395 0
M  V30 837 O 85.9076 -0.788812 -1.60125 0
M  V30 838 C 83.0076 -1.58516 -2.99543 0
M  V30 839 C 82.1806 -2.86016 -3.30928 0
M  V30 840 C 81.2396 -2.74018 -4.49222 0
M  V30 841 O 80.2656 -3.47964 -4.50455 0
M  V30 842 N 81.4676 -1.86309 -5.4979 0
M  V30 843 H 84.2326 -2.59777 -1.49452 0
M  V30 844 H 81.7936 -1.47022 -0.677955 0
M  V30 845 H 83.7856 -1.48128 -3.76617 0
M  V30 846 H 82.3556 -0.69965 -3.0467 0
M  V30 847 H 81.5756 -3.10672 -2.42645 0
M  V30 848 H 82.8636 -3.70521 -3.487 0
M  V30 849 H 82.2616 -1.2551 -5.51601 0
M  V30 850 H 80.8186 -1.81837 -6.25922 0
M  V30 851 N 84.2517 0.741722 -1.39055 0
M  V30 852 C 85.4987 1.50114 -1.35912 0
M  V30 853 C 85.8267 1.94443 0.0470937 0
M  V30 854 O 85.0817 1.66612 1.02659 0
M  V30 855 C 85.3807 2.7592 -2.27163 0
M  V30 856 C 85.0467 2.50493 -3.74919 0
M  V30 857 C 83.7087 2.43267 -4.1518 0
M  V30 858 C 86.0607 2.28585 -4.684 0
M  V30 859 C 83.3887 2.12166 -5.46994 0
M  V30 860 C 85.7407 1.99002 -6.00484 0
M  V30 861 C 84.4047 1.90241 -6.39816 0
M  V30 862 H 83.6747 0.549306 -0.497336 0
M  V30 863 H 86.3217 0.851896 -1.71508 0
M  V30 864 H 84.6267 3.45553 -1.84663 0
M  V30 865 H 86.3237 3.33923 -2.22028 0
M  V30 866 H 82.9137 2.56992 -3.43006 0
M  V30 867 H 87.0977 2.33139 -4.38132 0
M  V30 868 H 82.3537 2.03901 -5.76398 0
M  V30 869 H 86.5277 1.81057 -6.72452 0
M  V30 870 H 84.1547 1.65907 -7.41875 0
M  V30 871 N 85.7298 1.2412 0.971189 0
M  V30 872 C 86.6778 1.02812 2.08644 0
M  V30 873 C 87.6718 -0.0358403 1.69362 0
M  V30 874 O 88.8778 0.118429 1.7961 0
M  V30 875 H 85.2528 0.315428 0.682649 0
M  V30 876 H 87.2238 1.97397 2.23779 0
M  V30 877 C 85.9728 0.645874 3.41649 0
M  V30 878 H 85.2958 1.45632 3.72332 0
M  V30 879 H 86.7358 0.536366 4.20594 0
M  V30 880 C 85.1948 -0.646713 3.30635 0
M  V30 881 O 85.7248 -1.69338 3.64263 0
M  V30 882 N 83.9308 -0.626115 2.83775 0
M  V30 883 H 83.4778 0.225988 2.56607 0
M  V30 884 H 83.4358 -1.49117 2.76788 0
M  V30 885 N 87.2079 -1.17134 1.05439 0
M  V30 886 C 88.1549 -2.21235 0.657539 0
M  V30 887 C 89.1249 -1.62551 -0.341543 0
M  V30 888 O 90.3099 -1.89379 -0.232393 0
M  V30 889 C 87.4499 -3.45076 0.0410575 0
M  V30 890 C 86.5629 -4.18042 1.08927 0
M  V30 891 C 85.6979 -5.29376 0.439848 0
M  V30 892 C 84.7369 -5.94132 1.4722 0
M  V30 893 N 83.8739 -6.96975 0.846756 0
M  V30 894 H 88.7139 -2.54534 1.54972 0
M  V30 895 H 86.2509 -1.25028 0.775006 0
M  V30 896 H 88.2089 -4.15862 -0.33383 0
M  V30 897 H 86.8389 -3.12353 -0.814568 0
M  V30 898 H 85.8909 -3.45945 1.58196 0
M  V30 899 H 87.2029 -4.62306 1.87282 0
M  V30 900 H 86.3569 -6.06699 0.0115125 0
M  V30 901 H 85.0959 -4.86251 -0.375656 0
M  V30 902 H 84.1009 -5.15538 1.91052 0
M  V30 903 H 85.3259 -6.39337 2.28965 0
M  V30 904 H 83.2719 -6.5598 0.0518075 0
M  V30 905 H 83.1889 -7.39565 1.5678 0
M  V30 906 H 84.4569 -7.78239 0.443277 0
M  V30 907 N 88.686 -0.835752 -1.33615 0
M  V30 908 C 89.649 -0.272 -2.2758 0
M  V30 909 C 90.649 0.557487 -1.50827 0
M  V30 910 O 91.839 0.37173 -1.70188 0
M  V30 911 C 88.971 0.617173 -3.35267 0
M  V30 912 H 90.164 -1.10111 -2.78954 0
M  V30 913 H 87.717 -0.608594 -1.43965 0
M  V30 914 H 88.452 1.46884 -2.89129 0
M  V30 915 H 88.237 0.0237066 -3.92093 0
M  V30 916 H 89.727 1.005 -4.05326 0
M  V30 917 N 90.1641 1.46063 -0.591896 0
M  V30 918 C 91.1111 2.30399 0.136069 0
M  V30 919 C 92.0811 1.41169 0.875238 0
M  V30 920 O 93.2661 1.70112 0.86409 0
M  V30 921 C 90.4061 3.25804 1.13781 0
M  V30 922 C 89.5191 4.30134 0.401137 0
M  V30 923 C 88.6541 5.12659 1.39121 0
M  V30 924 C 87.6931 6.0873 0.641462 0
M  V30 925 N 86.8301 6.8409 1.58004 0
M  V30 926 H 91.6701 2.92118 -0.589144 0
M  V30 927 H 89.2071 1.43959 -0.302342 0
M  V30 928 H 91.1651 3.79569 1.73156 0
M  V30 929 H 89.7951 2.65872 1.83062 0
M  V30 930 H 88.8471 3.79152 -0.307826 0
M  V30 931 H 90.1591 4.98458 -0.184565 0
M  V30 932 H 89.3131 5.70747 2.05749 0
M  V30 933 H 88.0521 4.44316 2.01084 0
M  V30 934 H 87.0571 5.49786 -0.0385419 0
M  V30 935 H 88.2821 6.79095 0.0270945 0
M  V30 936 H 86.2281 6.18449 2.18761 0
M  V30 937 H 86.1451 7.48709 1.04738 0
M  V30 938 H 87.4131 7.4673 2.23639 0
M  V30 939 N 91.6422 0.330177 1.54103 0
M  V30 940 C 92.8822 -0.270916 2.02597 0
M  V30 941 C 93.2462 -1.48826 1.21304 0
M  V30 942 O 94.4472 -2.16266 1.59633 0
M  V30 943 C 92.7182 -0.590328 3.52491 0
M  V30 944 S 94.2772 -1.17014 4.2291 0
M  V30 945 H 91.0952 -0.0815379 0.706309 0
M  V30 946 H 93.6972 0.464835 1.89893 0
M  V30 947 H 92.4012 0.303691 4.09275 0
M  V30 948 H 91.9322 -1.3561 3.69288 0
M  V30 949 H 93.9472 -2.45662 4.3112 0
M  V30 950 N 93.1203 -1.57491 0.0584922 0
M  V30 951 C 94.0833 -2.1085 -0.898617 0
M  V30 952 C 95.0833 -1.02964 -1.23511 0
M  V30 953 O 96.2733 -1.29007 -1.17059 0
M  V30 954 C 93.4053 -2.59881 -2.20623 0
M  V30 955 H 94.5983 -2.96715 -0.435936 0
M  V30 956 H 92.1513 -1.55141 -0.190023 0
M  V30 957 H 92.8863 -1.77431 -2.71457 0
M  V30 958 H 92.6713 -3.38727 -1.97501 0
M  V30 959 H 94.1613 -3.01285 -2.89166 0
M  V30 960 N 94.5984 0.214957 -1.56127 0
M  V30 961 C 95.8264 0.955092 -1.83536 0
M  V30 962 C 96.2414 1.77677 -0.638472 0
M  V30 963 O 95.5984 1.78219 0.392968 0
M  V30 964 C 95.6494 1.86734 -3.09536 0
M  V30 965 O 95.3704 1.07887 -4.24608 0
M  V30 966 C 96.8714 2.72082 -3.4998 0
M  V30 967 H 94.0914 0.279611 -0.609966 0
M  V30 968 H 96.6354 0.228197 -2.03223 0
M  V30 969 H 94.7904 2.5481 -2.91806 0
M  V30 970 H 95.2044 1.69872 -4.9623 0
M  V30 971 H 96.6784 3.31782 -4.41163 0
M  V30 972 H 97.1554 3.44806 -2.7204 0
M  V30 973 H 97.7614 2.09409 -3.70173 0
M  V30 974 N 96.0765 1.50051 0.48192 0
M  V30 975 C 97.0085 1.64263 1.59844 0
M  V30 976 C 98.0215 0.52451 1.54119 0
M  V30 977 O 99.2105 0.797293 1.59704 0
M  V30 978 C 96.3105 1.60102 2.98698 0
M  V30 979 C 95.4835 2.87767 3.29407 0
M  V30 980 C 94.5425 2.76397 4.47762 0
M  V30 981 O 93.5685 3.50348 4.48603 0
M  V30 982 N 94.7705 1.89222 5.48794 0
M  V30 983 H 97.5355 2.60566 1.48073 0
M  V30 984 H 95.0965 1.47379 0.670149 0
M  V30 985 H 97.0885 1.50123 3.75826 0
M  V30 986 H 95.6585 0.715798 3.04294 0
M  V30 987 H 94.8785 3.11954 2.40994 0
M  V30 988 H 96.1665 3.72365 3.4673 0
M  V30 989 H 95.5645 1.28434 5.50928 0
M  V30 990 H 94.1215 1.85154 6.24949 0
M  V30 991 N 97.5546 -0.734337 1.39446 0
M  V30 992 C 98.4876 -1.85715 1.32609 0
M  V30 993 C 99.4656 -1.6137 0.199636 0
M  V30 994 O 100.65 -1.84626 0.380195 0
M  V30 995 C 97.7766 -3.21709 1.05929 0
M  V30 996 C 96.8226 -3.64913 2.20773 0
M  V30 997 S 97.6556 -3.74203 3.83056 0
M  V30 998 C 98.8116 -5.12986 3.58603 0
M  V30 999 H 99.0446 -1.91232 2.27635 0
M  V30 1000 H 96.5776 -0.899263 1.25509 0
M  V30 1001 H 98.5356 -4.00236 0.912203 0
M  V30 1002 H 97.1966 -3.13848 0.125883 0
M  V30 1003 H 96.3896 -4.63606 1.97699 0
M  V30 1004 H 95.9916 -2.93593 2.31688 0
M  V30 1005 H 98.2836 -5.99339 3.15909 0
M  V30 1006 H 99.2266 -5.41088 4.5676 0
M  V30 1007 H 99.6346 -4.82694 2.9269 0
M  V30 1008 N 99.0327 -1.24633 -0.964593 0
M  V30 1009 C 99.9957 -1.0424 -2.04124 0
M  V30 1010 C 100.996 0.00137563 -1.608 0
M  V30 1011 O 102.186 -0.239883 -1.7254 0
M  V30 1012 C 99.3177 -0.580588 -3.3592 0
M  V30 1013 H 100.511 -1.99803 -2.23649 0
M  V30 1014 H 98.0637 -1.06899 -1.14027 0
M  V30 1015 H 98.7987 0.3781 -3.22088 0
M  V30 1016 H 98.5837 -1.33398 -3.6871 0
M  V30 1017 H 100.074 -0.459034 -4.15069 0
M  V30 1018 N 100.511 1.16574 -1.06058 0
M  V30 1019 C 101.922 1.68662 -0.800632 0
M  V30 1020 C 102.273 1.84184 0.67608 0
M  V30 1021 O 101.398 1.53568 1.52466 0
M  V30 1022 C 101.993 3.06356 -1.44676 0
M  V30 1023 C 100.552 3.55575 -1.23465 0
M  V30 1024 C 99.6988 2.31616 -1.52477 0
M  V30 1025 H 102.65 1.00969 -1.22438 0
M  V30 1026 H 102.671 3.70636 -0.860788 0
M  V30 1027 H 102.183 2.95027 -2.52152 0
M  V30 1028 H 100.284 3.72167 -0.179527 0
M  V30 1029 H 100.397 4.37812 -1.94571 0
M  V30 1030 H 98.7608 2.36512 -0.945209 0
M  V30 1031 H 99.5438 2.22887 -2.61106 0
M  V30 1032 N 101.989 0.842826 1.3317 0
M  V30 1033 C 103.266 0.362216 1.92217 0
M  V30 1034 C 103.646 -1.15289 1.76838 0
M  V30 1035 O 102.994 -1.96914 1.15919 0
M  V30 1036 C 103.204 0.813495 3.39387 0
M  V30 1037 C 104.552 0.823804 4.16532 0
M  V30 1038 O 105.576 0.757358 3.48055 0
M  V30 1039 O 104.435 0.915193 5.38782 0
M  V30 1040 H 101.529 0.103317 0.820521 0
M  V30 1041 H 104.075 0.928942 1.42017 0
M  V30 1042 H 102.847 1.85624 3.4447 0
M  V30 1043 H 102.47 0.223561 3.96971 0
M  V30 1044 N 103.467 -1.45747 0.599634 0
M  V30 1045 C 104.692 -2.07178 0.0960198 0
M  V30 1046 C 105.117 -1.44268 -1.207 0
M  V30 1047 O 104.475 -0.532503 -1.73303 0
M  V30 1048 C 104.523 -3.60579 -0.0385348 0
M  V30 1049 O 103.627 -3.97713 -1.0908 0
M  V30 1050 H 102.968 -0.660251 0.0704593 0
M  V30 1051 H 105.498 -1.87124 0.827385 0
M  V30 1052 H 105.508 -4.07298 -0.239304 0
M  V30 1053 H 104.183 -4.05756 0.912947 0
M  V30 1054 H 102.76 -3.62678 -0.867135 0
M  V30 1055 N 104.945 -0.338344 -1.53925 0
M  V30 1056 C 106.173 0.261298 -2.05243 0
M  V30 1057 C 106.588 1.44625 -1.21363 0
M  V30 1058 O 105.945 1.80811 -0.247736 0
M  V30 1059 C 105.996 0.681412 -3.5502 0
M  V30 1060 O 105.717 -0.456414 -4.35716 0
M  V30 1061 C 107.218 1.34232 -4.22489 0
M  V30 1062 H 104.438 0.0513685 -0.669031 0
M  V30 1063 H 106.982 -0.488822 -1.98572 0
M  V30 1064 H 105.137 1.38148 -3.61931 0
M  V30 1065 H 105.551 -0.122564 -5.24357 0
M  V30 1066 H 107.025 1.58708 -5.28693 0
M  V30 1067 H 107.502 2.29426 -3.74514 0
M  V30 1068 H 108.108 0.684424 -4.19757 0
M  V30 1069 N 106.423 1.57458 -0.0668435 0
M  V30 1070 C 107.67 1.93301 0.603406 0
M  V30 1071 C 107.998 0.946486 1.69917 0
M  V30 1072 O 107.253 -0.0387021 1.95662 0
M  V30 1073 C 107.552 3.35784 1.22409 0
M  V30 1074 C 107.218 4.50179 0.254955 0
M  V30 1075 C 105.88 4.81199 -0.0116746 0
M  V30 1076 C 108.232 5.19598 -0.408338 0
M  V30 1077 C 105.56 5.78978 -0.94877 0
M  V30 1078 C 107.912 6.18381 -1.33372 0
M  V30 1079 C 106.576 6.47821 -1.60887 0
M  V30 1080 H 105.846 0.707338 0.220802 0
M  V30 1081 H 108.493 1.91012 -0.136665 0
M  V30 1082 H 106.798 3.34515 2.03978 0
M  V30 1083 H 108.495 3.60804 1.74989 0
M  V30 1084 H 105.085 4.25983 0.472954 0
M  V30 1085 H 109.269 4.95832 -0.215456 0
M  V30 1086 H 104.525 6.00115 -1.16925 0
M  V30 1087 H 108.699 6.71277 -1.85367 0
M  V30 1088 H 106.326 7.23399 -2.33661 0
M  V30 1089 N 107.901 -0.206675 1.56239 0
M  V30 1090 C 108.848 -1.25617 1.93621 0
M  V30 1091 C 109.818 -1.45824 0.795274 0
M  V30 1092 O 111.003 -1.59148 1.05245 0
M  V30 1093 C 108.143 -2.59839 2.27107 0
M  V30 1094 C 107.256 -2.47308 3.54207 0
M  V30 1095 C 106.391 -3.74155 3.7707 0
M  V30 1096 C 105.43 -3.56407 4.97635 0
M  V30 1097 N 104.567 -4.75238 5.1681 0
M  V30 1098 H 109.407 -0.930383 2.83104 0
M  V30 1099 H 106.944 -0.448065 1.4011 0
M  V30 1100 H 108.902 -3.38021 2.44535 0
M  V30 1101 H 107.532 -2.90485 1.40778 0
M  V30 1102 H 106.584 -1.60483 3.4489 0
M  V30 1103 H 107.896 -2.30122 4.42544 0
M  V30 1104 H 107.05 -4.60778 3.94675 0
M  V30 1105 H 105.789 -3.94282 2.87042 0
M  V30 1106 H 104.794 -2.68168 4.79964 0
M  V30 1107 H 106.019 -3.37736 5.89161 0
M  V30 1108 H 103.965 -4.95651 4.29728 0
M  V30 1109 H 103.882 -4.60835 5.99306 0
M  V30 1110 H 105.15 -5.63246 5.38864 0
M  V30 1111 N 109.379 -1.50304 -0.473955 0
M  V30 1112 C 110.628 -1.60392 -1.22301 0
M  V30 1113 C 110.941 -0.308411 -1.93153 0
M  V30 1114 O 112.147 -0.288156 -2.69966 0
M  V30 1115 C 110.603 -2.83109 -2.2221 0
M  V30 1116 C 110.211 -4.19524 -1.57173 0
M  V30 1117 C 111.955 -3.0254 -2.97775 0
M  V30 1118 C 109.862 -5.33431 -2.55353 0
M  V30 1119 H 108.792 -0.597286 -0.460179 0
M  V30 1120 H 111.443 -1.76731 -0.493803 0
M  V30 1121 H 109.825 -2.60322 -2.9841 0
M  V30 1122 H 110.999 -4.52554 -0.867824 0
M  V30 1123 H 109.314 -4.05674 -0.939002 0
M  V30 1124 H 111.911 -3.84811 -3.71248 0
M  V30 1125 H 112.254 -2.14154 -3.56992 0
M  V30 1126 H 112.787 -3.25494 -2.28688 0
M  V30 1127 H 109.526 -6.23962 -2.00878 0
M  V30 1128 H 109.046 -5.04823 -3.23904 0
M  V30 1129 H 110.725 -5.63887 -3.17239 0
M  V30 1130 N 110.857 0.726932 -1.39834 0
M  V30 1131 C 111.82 1.82269 -1.38962 0
M  V30 1132 C 112.82 1.58248 -0.285334 0
M  V30 1133 O 114.01 1.65499 -0.54366 0
M  V30 1134 C 111.142 3.20186 -1.17019 0
M  V30 1135 H 112.335 1.84443 -2.36476 0
M  V30 1136 H 109.888 0.931416 -1.25516 0
M  V30 1137 H 110.623 3.23669 -0.202204 0
M  V30 1138 H 110.408 3.3902 -1.96998 0
M  V30 1139 H 111.898 4.00235 -1.1917 0
M  V30 1140 N 112.336 1.25143 0.95797 0
M  V30 1141 C 113.266 1.07711 2.07173 0
M  V30 1142 C 114.247 -0.0128462 1.70095 0
M  V30 1143 O 115.432 0.156061 1.93572 0
M  V30 1144 C 112.562 0.691503 3.40346 0
M  V30 1145 C 111.516 1.73132 3.9142 0
M  V30 1146 C 110.842 1.20049 5.21049 0
M  V30 1147 C 112.142 3.1294 4.1817 0
M  V30 1148 H 113.836 2.00873 2.22014 0
M  V30 1149 H 111.382 0.967191 1.06684 0
M  V30 1150 H 113.335 0.556505 4.17709 0
M  V30 1151 H 112.059 -0.275819 3.25433 0
M  V30 1152 H 110.718 1.8547 3.16222 0
M  V30 1153 H 110.366 0.223499 5.02503 0
M  V30 1154 H 110.066 1.89545 5.56189 0
M  V30 1155 H 111.59 1.07782 6.01012 0
M  V30 1156 H 113.004 3.03775 4.86203 0
M  V30 1157 H 111.401 3.79875 4.64559 0
M  V30 1158 H 112.471 3.6025 3.24573 0
M  V30 1159 N 113.814 -1.1601 1.06675 0
M  V30 1160 C 115.039 -1.91068 0.806706 0
M  V30 1161 C 115.464 -1.77112 -0.633485 0
M  V30 1162 O 114.822 -1.09908 -1.44187 0
M  V30 1163 C 114.87 -3.39655 1.21106 0
M  V30 1164 O 113.974 -4.10893 0.352189 0
M  V30 1165 H 113.315 -0.595125 0.294486 0
M  V30 1166 H 115.845 -1.46955 1.42356 0
M  V30 1167 H 115.855 -3.90434 1.18428 0
M  V30 1168 H 114.53 -3.49132 2.26008 0
M  V30 1169 H 113.107 -3.70285 0.440868 0
M  V30 1170 N 115.292 -0.849877 -1.32721 0
M  V30 1171 C 116.222 -0.306308 -2.31482 0
M  V30 1172 C 117.203 0.591952 -1.59468 0
M  V30 1173 O 118.388 0.513199 -1.87296 0
M  V30 1174 C 115.518 0.510204 -3.43532 0
M  V30 1175 C 114.472 -0.293209 -4.26994 0
M  V30 1176 C 113.798 0.647743 -5.30762 0
M  V30 1177 C 115.098 -1.51634 -4.99804 0
M  V30 1178 H 116.792 -1.13153 -2.77195 0
M  V30 1179 H 114.338 -0.545553 -1.33266 0
M  V30 1180 H 116.291 0.900856 -4.11658 0
M  V30 1181 H 115.015 1.36874 -2.96535 0
M  V30 1182 H 113.674 -0.665555 -3.60508 0
M  V30 1183 H 113.322 1.50299 -4.8002 0
M  V30 1184 H 113.022 0.11422 -5.87489 0
M  V30 1185 H 114.546 1.03567 -6.01753 0
M  V30 1186 H 115.96 -1.19824 -5.60638 0
M  V30 1187 H 114.357 -1.98745 -5.66234 0
M  V30 1188 H 115.427 -2.28018 -4.27943 0
M  V30 1189 N 116.77 1.45427 -0.607355 0
M  V30 1190 C 117.703 2.27635 0.160482 0
M  V30 1191 C 118.681 1.37122 0.873857 0
M  V30 1192 O 119.865 1.66551 0.882775 0
M  V30 1193 C 116.992 3.15486 1.23231 0
M  V30 1194 C 116.038 4.21939 0.622097 0
M  V30 1195 S 116.871 5.32459 -0.569852 0
M  V30 1196 C 118.027 6.23879 0.502577 0
M  V30 1197 H 118.26 2.9241 -0.536983 0
M  V30 1198 H 115.793 1.49265 -0.394868 0
M  V30 1199 H 117.751 3.66659 1.84585 0
M  V30 1200 H 116.412 2.49977 1.90185 0
M  V30 1201 H 115.605 4.8333 1.42856 0
M  V30 1202 H 115.207 3.73906 0.0837063 0
M  V30 1203 H 117.499 6.63261 1.38171 0
M  V30 1204 H 118.442 7.0806 -0.0751759 0
M  V30 1205 H 118.85 5.58545 0.8178 0
M  V30 1206 N 118.248 0.346503 1.53744 0
M  V30 1207 C 119.211 -0.496439 2.23759 0
M  V30 1208 C 120.211 -1.0252 1.2388 0
M  V30 1209 O 121.401 -0.913974 1.48297 0
M  V30 1210 C 118.533 -1.69187 2.95954 0
M  V30 1211 H 119.726 0.115952 2.99676 0
M  V30 1212 H 117.279 0.0978939 1.55993 0
M  V30 1213 H 118.014 -2.34288 2.24231 0
M  V30 1214 H 117.799 -1.31989 3.69217 0
M  V30 1215 H 119.289 -2.28969 3.49232 0
M  V30 1216 N 119.726 -1.57421 0.075193 0
M  V30 1217 C 120.973 -1.93618 -0.593146 0
M  V30 1218 C 121.301 -0.955484 -1.69413 0
M  V30 1219 O 120.556 0.0283251 -1.9568 0
M  V30 1220 C 120.855 -3.36428 -1.20626 0
M  V30 1221 C 120.521 -4.50307 -0.231078 0
M  V30 1222 C 119.183 -4.81186 0.0371936 0
M  V30 1223 C 121.535 -5.19374 0.435888 0
M  V30 1224 C 118.863 -5.78466 0.979461 0
M  V30 1225 C 121.215 -6.17665 1.3665 0
M  V30 1226 C 119.879 -6.46958 1.6432 0
M  V30 1227 H 119.149 -0.708499 -0.217047 0
M  V30 1228 H 121.796 -1.90937 0.146793 0
M  V30 1229 H 120.101 -3.35592 -2.02201 0
M  V30 1230 H 121.798 -3.61727 -1.73073 0
M  V30 1231 H 118.388 -4.26227 -0.450357 0
M  V30 1232 H 122.572 -4.95711 0.241748 0
M  V30 1233 H 117.828 -5.99487 1.20106 0
M  V30 1234 H 122.002 -6.70284 1.88924 0
M  V30 1235 H 119.629 -7.2215 2.37494 0
M  V30 1236 N 121.204 0.198386 -1.56346 0
M  V30 1237 C 122.481 0.944982 -1.71258 0
M  V30 1238 C 122.861 2.0151 -0.629048 0
M  V30 1239 O 122.209 2.25639 0.360473 0
M  V30 1240 C 122.419 1.5344 -3.1346 0
M  V30 1241 C 123.767 2.01778 -3.73591 0
M  V30 1242 O 124.791 1.63288 -3.16568 0
M  V30 1243 O 123.65 2.72594 -4.73661 0
M  V30 1244 H 120.744 0.442939 -0.69838 0
M  V30 1245 H 123.29 0.188342 -1.68652 0
M  V30 1246 H 122.062 0.762869 -3.83792 0
M  V30 1247 H 121.685 2.35596 -3.20282 0
M  V30 1248 N 122.682 1.50554 0.465978 0
M  V30 1249 C 123.645 1.69233 1.54574 0
M  V30 1250 C 124.645 0.562901 1.50626 0
M  V30 1251 O 125.835 0.830016 1.53155 0
M  V30 1252 C 122.967 1.7223 2.94193 0
M  V30 1253 H 124.16 2.65571 1.39327 0
M  V30 1254 H 121.713 1.40111 0.692711 0
M  V30 1255 H 122.448 0.77603 3.14878 0
M  V30 1256 H 122.233 2.54285 2.98466 0
M  V30 1257 H 123.723 1.88618 3.72576 0
M  V30 1258 N 124.16 -0.719506 1.40217 0
M  V30 1259 C 125.07 -1.86378 1.42479 0
M  V30 1260 C 126.086 -1.71073 0.317834 0
M  V30 1261 O 127.262 -1.93406 0.561794 0
M  V30 1262 C 124.327 -3.22136 1.28178 0
M  V30 1263 C 123.388 -3.49723 2.48982 0
M  V30 1264 C 122.621 -4.79004 2.35353 0
M  V30 1265 O 122.844 -5.53821 1.36524 0
M  V30 1266 O 121.778 -5.06839 3.2465 0
M  V30 1267 H 125.604 -1.87425 2.38968 0
M  V30 1268 H 123.189 -0.869405 1.21498 0
M  V30 1269 H 125.071 -4.03234 1.22395 0
M  V30 1270 H 123.746 -3.21825 0.347934 0
M  V30 1271 H 122.653 -2.6865 2.60342 0
M  V30 1272 H 123.986 -3.54828 3.41113 0
M  V30 1273 N 125.638 -1.25649 -0.95132 0
M  V30 1274 C 126.887 -1.09988 -1.69073 0
M  V30 1275 C 127.2 0.358355 -1.92289 0
M  V30 1276 O 128.406 0.635466 -2.63958 0
M  V30 1277 C 126.862 -1.92012 -3.044 0
M  V30 1278 C 126.47 -3.42347 -2.88968 0
M  V30 1279 C 128.214 -1.8493 -3.82101 0
M  V30 1280 C 126.121 -4.16655 -4.19705 0
M  V30 1281 H 125.051 -0.407993 -0.63408 0
M  V30 1282 H 127.702 -1.49873 -1.05879 0
M  V30 1283 H 126.084 -1.44952 -3.68517 0
M  V30 1284 H 127.258 -3.97104 -2.33762 0
M  V30 1285 H 125.573 -3.50557 -2.24719 0
M  V30 1286 H 128.17 -2.37739 -4.78941 0
M  V30 1287 H 128.513 -0.817883 -4.08187 0
M  V30 1288 H 129.046 -2.29758 -3.2474 0
M  V30 1289 H 125.785 -5.20224 -3.98807 0
M  V30 1290 H 125.305 -3.66681 -4.74663 0
M  V30 1291 H 126.984 -4.24551 -4.88227 0
M  V30 1292 N 127.117 1.15442 -1.07289 0
M  V30 1293 C 128.366 1.85557 -0.790669 0
M  V30 1294 C 128.679 1.83186 0.685739 0
M  V30 1295 O 129.885 2.48977 1.0827 0
M  V30 1296 C 128.341 3.33038 -1.36433 0
M  V30 1297 C 127.949 3.43856 -2.8717 0
M  V30 1298 C 129.693 4.0834 -1.1601 0
M  V30 1299 C 127.6 4.85482 -3.3773 0
M  V30 1300 H 126.53 0.695122 -0.292098 0
M  V30 1301 H 129.181 1.30219 -1.29287 0
M  V30 1302 H 127.563 3.88043 -0.789864 0
M  V30 1303 H 128.737 2.98961 -3.50655 0
M  V30 1304 H 127.052 2.81998 -3.06376 0
M  V30 1305 H 129.649 5.12859 -1.51262 0
M  V30 1306 H 129.992 4.16182 -0.0991007 0
M  V30 1307 H 130.525 3.59603 -1.70089 0
M  V30 1308 H 127.264 4.82823 -4.43353 0
M  V30 1309 H 126.784 5.30961 -2.78999 0
M  V30 1310 H 128.463 5.54335 -3.33648 0
M  V30 1311 N 128.595 0.856903 1.32268 0
M  V30 1312 C 129.872 0.382583 1.91822 0
M  V30 1313 C 130.252 -1.13407 1.78051 0
M  V30 1314 O 129.6 -1.95673 1.18001 0
M  V30 1315 C 129.81 0.849446 3.38505 0
M  V30 1316 C 131.158 0.867936 4.15634 0
M  V30 1317 O 132.182 0.794232 3.47232 0
M  V30 1318 O 131.041 0.972286 5.37781 0
M  V30 1319 H 128.135 0.112014 0.819379 0
M  V30 1320 H 130.681 0.943952 1.41024 0
M  V30 1321 H 129.453 1.89267 3.42482 0
M  V30 1322 H 129.076 0.265652 3.96712 0
M  V30 1323 N 130.073 -1.45103 0.615059 0
M  V30 1324 C 131.005 -2.28786 -0.13762 0
M  V30 1325 C 132.018 -1.40376 -0.824525 0
M  V30 1326 O 133.207 -1.64681 -0.688662 0
M  V30 1327 C 130.307 -3.16322 -1.21628 0
M  V30 1328 C 129.48 -4.33054 -0.615039 0
M  V30 1329 C 128.539 -5.01743 -1.58556 0
M  V30 1330 O 127.565 -5.58293 -1.10895 0
M  V30 1331 N 128.767 -5.01714 -2.91998 0
M  V30 1332 H 131.532 -2.94025 0.580483 0
M  V30 1333 H 129.093 -1.55373 0.45507 0
M  V30 1334 H 131.085 -3.59139 -1.86552 0
M  V30 1335 H 129.655 -2.52943 -1.83681 0
M  V30 1336 H 128.875 -3.93627 0.21245 0
M  V30 1337 H 130.163 -5.08431 -0.193704 0
M  V30 1338 H 129.561 -4.57075 -3.33316 0
M  V30 1339 H 128.118 -5.48371 -3.52325 0
M  V30 1340 N 131.551 -0.354651 -1.53558 0
M  V30 1341 C 132.498 0.496968 -2.25386 0
M  V30 1342 C 133.468 1.0865 -1.25636 0
M  V30 1343 O 134.653 1.12104 -1.54394 0
M  V30 1344 C 131.793 1.63637 -3.03837 0
M  V30 1345 C 130.906 1.07307 -4.18461 0
M  V30 1346 C 130.041 2.18068 -4.84376 0
M  V30 1347 C 129.08 1.59147 -5.91049 0
M  V30 1348 N 128.217 2.63695 -6.50699 0
M  V30 1349 H 133.057 -0.122075 -2.9775 0
M  V30 1350 H 130.594 -0.0720154 -1.46924 0
M  V30 1351 H 132.552 2.30734 -3.47589 0
M  V30 1352 H 131.182 2.22623 -2.33749 0
M  V30 1353 H 130.234 0.292708 -3.79272 0
M  V30 1354 H 131.546 0.602193 -4.95152 0
M  V30 1355 H 130.7 2.93007 -5.31255 0
M  V30 1356 H 129.439 2.68504 -4.07133 0
M  V30 1357 H 128.444 0.827175 -5.43542 0
M  V30 1358 H 129.669 1.09549 -6.70206 0
M  V30 1359 H 127.615 3.13365 -5.76315 0
M  V30 1360 H 127.532 2.21263 -7.22896 0
M  V30 1361 H 128.8 3.3837 -7.02229 0
M  V30 1362 N 133.029 1.57378 -0.0835403 0
M  V30 1363 C 134.257 1.98263 0.59157 0
M  V30 1364 C 134.672 0.962302 1.62435 0
M  V30 1365 O 134.029 -0.049581 1.82433 0
M  V30 1366 C 134.08 3.39214 1.24965 0
M  V30 1367 O 133.801 4.37339 0.258186 0
M  V30 1368 C 135.302 3.95038 2.01147 0
M  V30 1369 H 132.522 0.651773 0.159477 0
M  V30 1370 H 135.066 2.03878 -0.159415 0
M  V30 1371 H 133.221 3.34649 1.95164 0
M  V30 1372 H 133.635 5.19371 0.731734 0
M  V30 1373 H 135.109 4.95848 2.42567 0
M  V30 1374 H 135.586 3.32222 2.87272 0
M  V30 1375 H 136.192 4.0304 1.35789 0
M  V30 1376 N 134.507 -0.190092 1.56449 0
M  V30 1377 C 135.756 -0.907912 1.80111 0
M  V30 1378 C 136.069 -1.84214 0.657619 0
M  V30 1379 O 137.275 -2.60094 0.778663 0
M  V30 1380 C 135.731 -1.66485 3.19078 0
M  V30 1381 C 135.339 -0.7752 4.41242 0
M  V30 1382 C 137.083 -2.37201 3.52045 0
M  V30 1383 C 134.99 -1.53129 5.71231 0
M  V30 1384 H 133.92 -0.34276 0.671589 0
M  V30 1385 H 136.571 -0.161109 1.82791 0
M  V30 1386 H 134.953 -2.45572 3.10661 0
M  V30 1387 H 136.127 -0.0226298 4.60794 0
M  V30 1388 H 134.442 -0.178627 4.16017 0
M  V30 1389 H 137.039 -2.94329 4.46402 0
M  V30 1390 H 137.382 -3.11632 2.76028 0
M  V30 1391 H 137.915 -1.65075 3.61932 0
M  V30 1392 H 134.654 -0.82967 6.50228 0
M  V30 1393 H 134.174 -2.25767 5.55688 0
M  V30 1394 H 135.853 -2.08377 6.12526 0
M  V30 1395 N 135.985 -1.50799 -0.457987 0
M  V30 1396 C 137.232 -1.62442 -1.20908 0
M  V30 1397 C 137.56 -0.330865 -1.91665 0
M  V30 1398 O 136.815 0.68401 -1.83357 0
M  V30 1399 C 137.114 -2.76358 -2.2663 0
M  V30 1400 C 136.78 -4.16378 -1.73033 0
M  V30 1401 C 135.442 -4.54473 -1.58138 0
M  V30 1402 C 137.794 -5.03836 -1.33413 0
M  V30 1403 C 135.122 -5.77754 -1.02065 0
M  V30 1404 C 137.474 -6.27676 -0.78778 0
M  V30 1405 C 136.138 -6.64562 -0.625561 0
M  V30 1406 H 135.408 -0.594417 -0.442435 0
M  V30 1407 H 138.055 -1.84772 -0.503136 0
M  V30 1408 H 136.36 -2.48167 -3.03184 0
M  V30 1409 H 138.057 -2.82568 -2.84528 0
M  V30 1410 H 134.647 -3.86331 -1.85598 0
M  V30 1411 H 138.831 -4.75026 -1.4375 0
M  V30 1412 H 134.087 -6.04997 -0.882547 0
M  V30 1413 H 138.261 -6.94797 -0.472177 0
M  V30 1414 H 135.888 -7.59965 -0.188926 0
M  V30 1415 N 137.463 0.71206 -1.40597 0
M  V30 1416 C 138.41 1.82613 -1.41142 0
M  V30 1417 C 139.38 1.63925 -0.267903 0
M  V30 1418 O 140.565 1.85009 -0.466495 0
M  V30 1419 C 137.705 3.20354 -1.28324 0
M  V30 1420 C 136.818 3.50589 -2.52411 0
M  V30 1421 C 135.953 4.77855 -2.32009 0
M  V30 1422 C 134.992 5.01005 -3.51654 0
M  V30 1423 N 134.129 6.19487 -3.30425 0
M  V30 1424 H 138.969 1.81482 -2.36365 0
M  V30 1425 H 136.506 0.886475 -1.17388 0
M  V30 1426 H 138.464 3.99899 -1.18899 0
M  V30 1427 H 137.094 3.20705 -0.367189 0
M  V30 1428 H 136.146 2.65573 -2.72351 0
M  V30 1429 H 137.458 3.63604 -3.41458 0
M  V30 1430 H 136.612 5.65424 -2.19956 0
M  V30 1431 H 135.351 4.67056 -1.40392 0
M  V30 1432 H 134.356 4.1189 -3.64179 0
M  V30 1433 H 135.581 5.13674 -4.44202 0
M  V30 1434 H 133.527 6.09932 -2.41494 0
M  V30 1435 H 133.444 6.33194 -4.13039 0
M  V30 1436 H 134.712 7.09834 -3.22113 0
M  V30 1437 N 138.941 1.26152 0.944643 0
M  V30 1438 C 140.187 1.12665 1.69346 0
M  V30 1439 C 140.542 -0.3273 1.89596 0
M  V30 1440 O 139.835 -1.23717 1.46303 0
M  V30 1441 C 140.029 1.82541 3.07268 0
M  V30 1442 C 139.858 3.34582 3.00475 0
M  V30 1443 C 138.628 4.03863 3.03681 0
M  V30 1444 C 140.826 4.30828 2.80877 0
M  V30 1445 N 138.808 5.42603 2.87151 0
M  V30 1446 C 140.179 5.5672 2.7288 0
M  V30 1447 C 142.234 4.21122 2.65633 0
M  V30 1448 C 140.937 6.74013 2.51196 0
M  V30 1449 C 142.963 5.38118 2.45323 0
M  V30 1450 C 142.325 6.62955 2.38055 0
M  V30 1451 H 138.424 0.467041 0.627214 0
M  V30 1452 H 141.008 1.59391 1.11815 0
M  V30 1453 H 139.179 1.38296 3.62945 0
M  V30 1454 H 140.911 1.61708 3.70989 0
M  V30 1455 H 137.666 3.55198 3.1326 0
M  V30 1456 H 138.09 6.15443 2.82063 0
M  V30 1457 H 142.732 3.25344 2.70021 0
M  V30 1458 H 140.45 7.6989 2.4555 0
M  V30 1459 H 144.036 5.32475 2.34439 0
M  V30 1460 H 142.916 7.51959 2.22546 0
M  V30 1461 N 140.419 -1.14872 1.07899 0
M  V30 1462 C 141.696 -1.81928 0.71845 0
M  V30 1463 C 142.076 -1.95417 -0.798455 0
M  V30 1464 O 141.424 -1.50997 -1.715 0
M  V30 1465 C 141.634 -3.17937 1.43935 0
M  V30 1466 C 142.982 -3.93501 1.59506 0
M  V30 1467 O 144.006 -3.27509 1.40058 0
M  V30 1468 O 142.865 -5.1183 1.91551 0
M  V30 1469 H 139.959 -0.78628 0.256305 0
M  V30 1470 H 142.505 -1.21934 1.18026 0
M  V30 1471 H 141.277 -3.0325 2.47295 0
M  V30 1472 H 140.9 -3.85619 0.968687 0
M  V30 1473 N 141.898 -0.863906 -1.31812 0
M  V30 1474 C 142.845 -0.313303 -2.28664 0
M  V30 1475 C 143.815 0.584868 -1.55462 0
M  V30 1476 O 145 0.517805 -1.83639 0
M  V30 1477 C 142.14 0.48441 -3.41683 0
M  V30 1478 C 141.253 -0.440594 -4.29747 0
M  V30 1479 C 140.388 0.370652 -5.29905 0
M  V30 1480 C 139.427 -0.551164 -6.09613 0
M  V30 1481 N 138.564 0.223462 -7.01744 0
M  V30 1482 H 143.404 -1.14444 -2.75148 0
M  V30 1483 H 140.941 -0.575769 -1.35364 0
M  V30 1484 H 142.899 0.962627 -4.05943 0
M  V30 1485 H 141.529 1.28029 -2.96325 0
M  V30 1486 H 140.581 -1.03724 -3.65986 0
M  V30 1487 H 141.893 -1.14767 -4.85417 0
M  V30 1488 H 141.047 0.911638 -5.99812 0
M  V30 1489 H 139.786 1.11105 -4.74876 0
M  V30 1490 H 138.791 -1.10396 -5.38603 0
M  V30 1491 H 140.016 -1.29032 -6.66729 0
M  V30 1492 H 137.962 0.946787 -6.49132 0
M  V30 1493 H 137.879 -0.424399 -7.54808 0
M  V30 1494 H 139.147 0.745876 -7.75923 0
M  V30 1495 N 143.376 1.44774 -0.622745 0
M  V30 1496 C 144.604 2.06487 -0.130722 0
M  V30 1497 C 145.019 1.46476 1.19123 0
M  V30 1498 O 144.376 0.584502 1.72887 0
M  V30 1499 C 144.427 3.615 -0.000807207 0
M  V30 1500 O 144.148 4.19274 -1.27048 0
M  V30 1501 C 145.649 4.40229 0.520898 0
M  V30 1502 H 142.869 0.666704 -0.0758106 0
M  V30 1503 H 145.413 1.85779 -0.854774 0
M  V30 1504 H 143.568 3.81498 0.673643 0
M  V30 1505 H 143.982 5.12622 -1.1099 0
M  V30 1506 H 145.456 5.49144 0.560838 0
M  V30 1507 H 145.933 4.1108 1.54627 0
M  V30 1508 H 146.539 4.25131 -0.120018 0
M  V30 1509 N 144.854 0.36279 1.53368 0
M  V30 1510 C 146.265 -0.117022 1.86333 0
M  V30 1511 C 146.616 -1.48397 1.28347 0
M  V30 1512 O 145.741 -2.07787 0.604428 0
M  V30 1513 C 146.336 -0.21912 3.38091 0
M  V30 1514 C 144.895 -0.643184 3.70864 0
M  V30 1515 C 144.042 0.211318 2.76494 0
M  V30 1516 H 146.993 0.581687 1.47655 0
M  V30 1517 H 147.014 -1.04319 3.6592 0
M  V30 1518 H 146.526 0.775902 3.80265 0
M  V30 1519 H 144.627 -1.64654 3.34245 0
M  V30 1520 H 144.74 -0.41973 4.77258 0
M  V30 1521 H 143.104 -0.319367 2.5269 0
M  V30 1522 H 143.887 1.20383 3.21501 0
M  V30 1523 N 146.332 -1.57332 0.0918853 0
M  V30 1524 C 147.279 -2.13847 -0.868211 0
M  V30 1525 C 148.249 -1.05618 -1.28196 0
M  V30 1526 O 149.434 -1.33387 -1.36427 0
M  V30 1527 C 146.574 -2.72062 -2.12312 0
M  V30 1528 C 145.687 -3.94514 -1.7602 0
M  V30 1529 C 144.822 -4.40903 -2.96273 0
M  V30 1530 C 143.861 -5.55953 -2.56092 0
M  V30 1531 N 142.998 -5.97209 -3.69169 0
M  V30 1532 H 147.838 -2.95575 -0.379406 0
M  V30 1533 H 145.375 -1.46048 -0.175606 0
M  V30 1534 H 147.333 -3.03931 -2.858 0
M  V30 1535 H 145.963 -1.93068 -2.58698 0
M  V30 1536 H 145.015 -3.68979 -0.925135 0
M  V30 1537 H 146.327 -4.7802 -1.42472 0
M  V30 1538 H 145.481 -4.74539 -3.78018 0
M  V30 1539 H 144.22 -3.56291 -3.33029 0
M  V30 1540 H 143.225 -5.21948 -1.72773 0
M  V30 1541 H 144.45 -6.42311 -2.20484 0
M  V30 1542 H 142.396 -5.15543 -4.05649 0
M  V30 1543 H 142.313 -6.75504 -3.39456 0
M  V30 1544 H 143.581 -6.35475 -4.51434 0
M  V30 1545 N 147.81 0.181792 -1.56548 0
M  V30 1546 C 149.058 0.89832 -1.81038 0
M  V30 1547 C 149.379 1.83232 -0.667164 0
M  V30 1548 O 148.649 1.93372 0.313673 0
M  V30 1549 H 147.229 0.33471 -0.667816 0
M  V30 1550 H 149.891 0.184116 -1.94028 0
M  V30 1551 H 148.987 1.4815 -2.74696 0
M  V30 1552 N 149.288 1.51039 0.449983 0
M  V30 1553 C 150.221 1.66105 1.56474 0
M  V30 1554 C 151.199 0.508776 1.54435 0
M  V30 1555 O 152.383 0.731005 1.73749 0
M  V30 1556 C 149.51 1.66304 2.9506 0
M  V30 1557 C 148.556 2.87346 3.15174 0
M  V30 1558 S 149.389 4.4835 2.92818 0
M  V30 1559 C 150.545 4.51274 4.33708 0
M  V30 1560 H 150.778 2.60397 1.43459 0
M  V30 1561 H 148.311 1.40565 0.638805 0
M  V30 1562 H 150.269 1.67103 3.74949 0
M  V30 1563 H 148.93 0.732108 3.05449 0
M  V30 1564 H 148.123 2.83849 4.16468 0
M  V30 1565 H 147.725 2.84223 2.43091 0
M  V30 1566 H 150.017 4.26136 5.26701 0
M  V30 1567 H 150.96 5.53017 4.42242 0
M  V30 1568 H 151.368 3.80738 4.16772 0
M  V30 1569 N 150.766 -0.704594 1.40972 0
M  V30 1570 C 151.676 -1.84856 1.44448 0
M  V30 1571 C 152.692 -1.70726 0.335961 0
M  V30 1572 O 153.868 -1.92799 0.582276 0
M  V30 1573 C 150.933 -3.20758 1.31587 0
M  V30 1574 C 149.994 -3.47063 2.52677 0
M  V30 1575 C 149.227 -4.76481 2.4042 0
M  V30 1576 O 149.45 -5.52341 1.42391 0
M  V30 1577 O 148.384 -5.03367 3.30007 0
M  V30 1578 H 152.21 -1.8488 2.40942 0
M  V30 1579 H 149.795 -0.85647 1.22413 0
M  V30 1580 H 151.677 -4.01913 1.26665 0
M  V30 1581 H 150.352 -3.21438 0.382049 0
M  V30 1582 H 149.259 -2.65873 2.63177 0
M  V30 1583 H 150.592 -3.5119 3.44858 0
M  V30 1584 N 152.244 -1.26651 -0.937939 0
M  V30 1585 C 153.493 -1.11775 -1.67897 0
M  V30 1586 C 153.806 0.33794 -1.92659 0
M  V30 1587 O 155.012 0.607434 -2.64618 0
M  V30 1588 C 153.468 -1.9523 -3.02346 0
M  V30 1589 C 153.076 -3.45393 -2.8532 0
M  V30 1590 C 154.82 -1.88972 -3.80118 0
M  V30 1591 C 152.727 -4.21083 -4.15263 0
M  V30 1592 H 151.657 -0.414696 -0.629717 0
M  V30 1593 H 154.308 -1.50988 -1.04283 0
M  V30 1594 H 152.69 -1.48853 -3.66959 0
M  V30 1595 H 153.864 -3.99561 -2.29537 0
M  V30 1596 H 152.179 -3.52921 -2.20988 0
M  V30 1597 H 154.776 -2.42805 -4.76392 0
M  V30 1598 H 155.119 -0.86113 -4.07296 0
M  V30 1599 H 155.652 -2.33189 -3.22285 0
M  V30 1600 H 152.391 -5.24425 -3.93267 0
M  V30 1601 H 151.911 -3.71695 -4.70747 0
M  V30 1602 H 153.59 -4.29706 -4.83696 0
M  V30 1603 N 153.722 1.14298 -1.08507 0
M  V30 1604 C 154.968 1.85854 -0.826438 0
M  V30 1605 C 155.323 1.81413 0.640878 0
M  V30 1606 O 154.616 1.23463 1.46518 0
M  V30 1607 C 154.81 3.33547 -1.28379 0
M  V30 1608 C 154.639 3.52369 -2.79403 0
M  V30 1609 C 153.409 3.67159 -3.47164 0
M  V30 1610 C 155.607 3.49203 -3.77573 0
M  V30 1611 N 153.589 3.74149 -4.86709 0
M  V30 1612 C 154.96 3.6245 -5.03021 0
M  V30 1613 C 157.015 3.32547 -3.70563 0
M  V30 1614 C 155.718 3.60761 -6.2229 0
M  V30 1615 C 157.744 3.32162 -4.89308 0
M  V30 1616 C 157.106 3.45949 -6.13595 0
M  V30 1617 H 153.205 0.696705 -0.355143 0
M  V30 1618 H 155.789 1.36981 -1.38362 0
M  V30 1619 H 153.96 3.81008 -0.754166 0
M  V30 1620 H 155.692 3.92867 -0.971469 0
M  V30 1621 H 152.447 3.68433 -2.9758 0
M  V30 1622 H 152.871 3.81359 -5.5937 0
M  V30 1623 H 157.513 3.20797 -2.75407 0
M  V30 1624 H 155.231 3.71286 -7.17755 0
M  V30 1625 H 158.817 3.20485 -4.85573 0
M  V30 1626 H 157.697 3.456 -7.03939 0
M  V30 1627 N 155.201 0.870884 1.31352 0
M  V30 1628 C 156.149 0.316445 2.30437 0
M  V30 1629 C 157.143 -0.568965 1.59559 0
M  V30 1630 O 158.349 -0.454964 1.74155 0
M  V30 1631 H 154.724 0.0836521 0.747333 0
M  V30 1632 H 156.695 1.16606 2.74673 0
M  V30 1633 C 155.444 -0.46635 3.44558 0
M  V30 1634 H 154.767 0.205687 3.99271 0
M  V30 1635 H 156.207 -0.819614 4.16003 0
M  V30 1636 C 154.666 -1.65797 2.9328 0
M  V30 1637 O 155.196 -2.75728 2.92125 0
M  V30 1638 N 153.402 -1.49041 2.4947 0
M  V30 1639 H 152.949 -0.59612 2.50608 0
M  V30 1640 H 152.907 -2.28911 2.15516 0
M  V30 1641 N 156.679 -1.44442 0.630414 0
M  V30 1642 C 157.904 -2.06927 0.139944 0
M  V30 1643 C 158.329 -1.46795 -1.17613 0
M  V30 1644 O 157.687 -0.569144 -1.72135 0
M  V30 1645 C 157.735 -3.6058 0.0379581 0
M  V30 1646 O 156.839 -3.99937 -1.0062 0
M  V30 1647 H 156.18 -0.658608 0.0844483 0
M  V30 1648 H 158.71 -1.85327 0.866891 0
M  V30 1649 H 158.72 -4.07714 -0.152856 0
M  V30 1650 H 157.395 -4.03728 0.998809 0
M  V30 1651 H 155.972 -3.64436 -0.79001 0
M  V30 1652 N 158.157 -0.370918 -1.53173 0
M  V30 1653 C 159.105 0.488101 -2.27421 0
M  V30 1654 C 160.099 1.07884 -1.30604 0
M  V30 1655 O 161.305 1.02143 -1.48212 0
M  V30 1656 H 157.68 0.176134 -0.731082 0
M  V30 1657 H 159.651 -0.159815 -2.97972 0
M  V30 1658 C 158.4 1.61306 -3.08019 0
M  V30 1659 H 157.723 1.1678 -3.82364 0
M  V30 1660 H 159.163 2.18872 -3.63141 0
M  V30 1661 C 157.622 2.55848 -2.19188 0
M  V30 1662 O 158.152 3.58799 -1.80626 0
M  V30 1663 N 156.358 2.2516 -1.83715 0
M  V30 1664 H 155.905 1.41476 -2.15273 0
M  V30 1665 H 155.863 2.8867 -1.24567 0
M  V30 1666 N 159.635 1.57281 -0.100228 0
M  V30 1667 C 160.585 2.10848 0.86759 0
M  V30 1668 C 161.569 1.02473 1.24049 0
M  V30 1669 O 162.761 1.28739 1.21471 0
M  V30 1670 C 159.89 2.69648 2.12474 0
M  V30 1671 C 158.976 3.85074 1.77704 0
M  V30 1672 N 159.367 4.92897 1.13518 0
M  V30 1673 C 157.665 3.94905 2.07282 0
M  V30 1674 C 158.366 5.73475 0.974735 0
M  V30 1675 N 157.342 5.22675 1.4937 0
M  V30 1676 H 161.144 2.91594 0.367471 0
M  V30 1677 H 158.658 1.62074 0.102829 0
M  V30 1678 H 160.655 3.06356 2.82757 0
M  V30 1679 H 159.315 1.90359 2.63047 0
M  V30 1680 H 160.326 5.11662 0.801381 0
M  V30 1681 H 157.003 3.26633 2.60033 0
M  V30 1682 H 158.393 6.70238 0.472364 0
M  V30 1683 N 161.113 -0.173488 1.56642 0
M  V30 1684 C 162.341 -0.906095 1.86004 0
M  V30 1685 C 162.756 -1.75921 0.685355 0
M  V30 1686 O 162.113 -1.79198 -0.345578 0
M  V30 1687 C 162.164 -1.78462 3.14378 0
M  V30 1688 O 161.885 -0.965914 4.27319 0
M  V30 1689 C 163.386 -2.62707 3.57071 0
M  V30 1690 H 160.606 -0.263341 0.617165 0
M  V30 1691 H 163.15 -0.174236 2.03756 0
M  V30 1692 H 161.305 -2.46984 2.98459 0
M  V30 1693 H 161.719 -1.56655 5.00559 0
M  V30 1694 H 163.193 -3.19969 4.49804 0
M  V30 1695 H 163.67 -3.37472 2.81086 0
M  V30 1696 H 164.276 -1.99521 3.75595 0
M  V30 1697 N 162.591 -1.51276 -0.441967 0
M  V30 1698 C 164.002 -1.56244 -1.02199 0
M  V30 1699 C 164.353 -0.383149 -1.92422 0
M  V30 1700 O 163.478 0.500613 -2.1053 0
M  V30 1701 C 164.073 -2.83162 -1.86024 0
M  V30 1702 C 162.632 -2.90716 -2.39084 0
M  V30 1703 C 161.779 -2.50858 -1.18175 0
M  V30 1704 H 164.73 -1.5712 -0.223416 0
M  V30 1705 H 164.751 -2.66663 -2.71425 0
M  V30 1706 H 164.263 -3.68974 -1.20331 0
M  V30 1707 H 162.364 -2.09323 -3.08244 0
M  V30 1708 H 162.477 -3.94266 -2.72198 0
M  V30 1709 H 160.841 -2.03951 -1.52565 0
M  V30 1710 H 161.624 -3.3901 -0.541001 0
M  V30 1711 N 164.069 0.697108 -1.41344 0
M  V30 1712 C 165.016 1.81106 -1.43071 0
M  V30 1713 C 165.986 1.63632 -0.285275 0
M  V30 1714 O 167.171 1.84504 -0.486091 0
M  V30 1715 C 164.311 3.18975 -1.31715 0
M  V30 1716 C 163.424 3.47892 -2.56115 0
M  V30 1717 C 162.559 4.75367 -2.37064 0
M  V30 1718 C 161.598 4.97247 -3.56948 0
M  V30 1719 N 160.735 6.15947 -3.36977 0
M  V30 1720 H 165.575 1.78965 -2.38276 0
M  V30 1721 H 163.112 0.873975 -1.18322 0
M  V30 1722 H 165.07 3.98615 -1.23133 0
M  V30 1723 H 163.7 3.20297 -0.401183 0
M  V30 1724 H 162.752 2.62669 -2.75153 0
M  V30 1725 H 164.064 3.59962 -3.45295 0
M  V30 1726 H 163.218 5.63059 -2.25941 0
M  V30 1727 H 161.957 4.65541 -1.45338 0
M  V30 1728 H 160.962 4.08004 -3.68527 0
M  V30 1729 H 162.187 5.08934 -4.49626 0
M  V30 1730 H 160.133 6.07336 -2.47949 0
M  V30 1731 H 160.05 6.28777 -4.19732 0
M  V30 1732 H 161.318 7.06377 -3.29623 0
M  V30 1733 N 165.547 1.27147 0.931209 0
M  V30 1734 C 166.775 1.16082 1.71267 0
M  V30 1735 C 167.19 -0.282772 1.8667 0
M  V30 1736 O 166.547 -1.19283 1.38122 0
M  V30 1737 C 166.598 1.8358 3.11417 0
M  V30 1738 O 166.319 3.22299 2.96741 0
M  V30 1739 C 167.82 1.78597 4.05732 0
M  V30 1740 H 165.04 0.403758 0.535929 0
M  V30 1741 H 167.584 1.67953 1.16671 0
M  V30 1742 H 165.739 1.35623 3.62885 0
M  V30 1743 H 166.153 3.55851 3.85319 0
M  V30 1744 H 167.627 2.30444 5.01597 0
M  V30 1745 H 168.104 0.754564 4.3267 0
M  V30 1746 H 168.71 2.26152 3.60188 0
M  V30 1747 N 167.025 -1.13721 1.09112 0
M  V30 1748 C 168.271 -1.85413 0.836283 0
M  V30 1749 C 168.626 -1.8175 -0.631249 0
M  V30 1750 O 167.919 -1.24238 -1.45861 0
M  V30 1751 C 168.113 -3.32861 1.30146 0
M  V30 1752 C 167.942 -3.50882 2.81268 0
M  V30 1753 C 166.712 -3.65312 3.49106 0
M  V30 1754 C 168.91 -3.47196 3.7942 0
M  V30 1755 N 166.892 -3.71563 4.88686 0
M  V30 1756 C 168.263 -3.59777 5.04936 0
M  V30 1757 C 170.318 -3.30577 3.72321 0
M  V30 1758 C 169.021 -3.57455 6.24194 0
M  V30 1759 C 171.047 -3.29562 4.91063 0
M  V30 1760 C 170.409 -3.42691 6.15421 0
M  V30 1761 H 166.508 -0.694812 0.358832 0
M  V30 1762 H 169.092 -1.36246 1.39087 0
M  V30 1763 H 167.263 -3.80602 0.774361 0
M  V30 1764 H 168.995 -3.92346 0.99229 0
M  V30 1765 H 165.75 -3.6685 2.9953 0
M  V30 1766 H 166.174 -3.78387 5.61384 0
M  V30 1767 H 170.816 -3.19332 2.77105 0
M  V30 1768 H 168.534 -3.67475 7.19714 0
M  V30 1769 H 172.12 -3.17905 4.87266 0
M  V30 1770 H 171 -3.41862 7.05762 0
M  V30 1771 N 168.503 -0.877838 -1.30888 0
M  V30 1772 C 169.436 -0.283995 -2.26426 0
M  V30 1773 C 170.414 0.591361 -1.51465 0
M  V30 1774 O 171.598 0.54304 -1.80509 0
M  V30 1775 C 168.725 0.597129 -3.33395 0
M  V30 1776 C 167.771 -0.207937 -4.25993 0
M  V30 1777 S 168.604 -1.59158 -5.11301 0
M  V30 1778 C 169.76 -0.716791 -6.21782 0
M  V30 1779 H 169.993 -1.09383 -2.76446 0
M  V30 1780 H 167.526 -0.676828 -1.38775 0
M  V30 1781 H 169.484 1.09978 -3.95493 0
M  V30 1782 H 168.145 1.38099 -2.82113 0
M  V30 1783 H 167.338 0.464163 -5.01858 0
M  V30 1784 H 166.94 -0.642963 -3.68432 0
M  V30 1785 H 169.232 0.0692833 -6.77465 0
M  V30 1786 H 170.175 -1.44682 -6.93161 0
M  V30 1787 H 170.583 -0.280855 -5.63801 0
M  V30 1788 N 169.982 1.44106 -0.638065 0
M  V30 1789 C 170.914 2.28976 0.101205 0
M  V30 1790 C 171.927 1.4167 0.802088 0
M  V30 1791 O 173.116 1.65755 0.662375 0
M  V30 1792 C 170.216 3.18217 1.16581 0
M  V30 1793 C 169.389 4.33978 0.546066 0
M  V30 1794 C 168.448 5.04202 1.50554 0
M  V30 1795 O 167.474 5.59986 1.01999 0
M  V30 1796 N 168.676 5.06296 2.8398 0
M  V30 1797 H 171.441 2.93064 -0.627186 0
M  V30 1798 H 169.002 1.54629 -0.479731 0
M  V30 1799 H 170.994 3.62061 1.80815 0
M  V30 1800 H 169.564 2.55833 1.79634 0
M  V30 1801 H 168.784 3.93239 -0.275046 0
M  V30 1802 H 170.072 5.08675 0.112793 0
M  V30 1803 H 169.47 4.62319 3.26002 0
M  V30 1804 H 168.027 5.53907 3.43556 0
M  V30 1805 N 171.46 0.379036 1.52974 0
M  V30 1806 C 172.707 -0.206421 2.01445 0
M  V30 1807 C 173.035 -1.47668 1.26587 0
M  V30 1808 O 172.29 -1.92514 0.351675 0
M  V30 1809 C 172.589 -0.53096 3.53434 0
M  V30 1810 C 172.255 0.646546 4.46241 0
M  V30 1811 C 170.917 0.969604 4.7133 0
M  V30 1812 C 173.269 1.43479 5.01062 0
M  V30 1813 C 170.597 2.08263 5.48492 0
M  V30 1814 C 172.949 2.53834 5.7944 0
M  V30 1815 C 171.613 2.86659 6.02812 0
M  V30 1816 H 170.883 -0.0755349 0.73714 0
M  V30 1817 H 173.53 0.514271 1.84465 0
M  V30 1818 H 171.835 -1.33285 3.68432 0
M  V30 1819 H 173.532 -0.996417 3.88423 0
M  V30 1820 H 170.122 0.384734 4.2687 0
M  V30 1821 H 174.306 1.19844 4.81613 0
M  V30 1822 H 169.562 2.34078 5.64816 0
M  V30 1823 H 173.736 3.15319 6.20924 0
M  V30 1824 H 171.363 3.73026 6.62387 0
M  V30 1825 N 172.938 -1.57226 0.108567 0
M  V30 1826 C 174.163 -1.99604 -0.563303 0
M  V30 1827 C 174.588 -0.987563 -1.6009 0
M  V30 1828 O 173.946 0.0421687 -1.81251 0
M  V30 1829 C 173.994 -3.40902 -1.17552 0
M  V30 1830 O 173.098 -3.42896 -2.2912 0
M  V30 1831 H 172.439 -0.648704 -0.1417 0
M  V30 1832 H 174.969 -2.03679 0.193961 0
M  V30 1833 H 174.979 -3.78886 -1.51357 0
M  V30 1834 H 173.654 -4.1382 -0.415445 0
M  V30 1835 H 172.231 -3.1672 -1.96832 0
M  V30 1836 N 174.416 0.165178 -1.56732 0
M  V30 1837 C 175.662 0.882112 -1.82611 0
M  V30 1838 C 175.995 1.81628 -0.687378 0
M  V30 1839 O 175.27 1.92009 0.310267 0
M  V30 1840 C 175.553 1.67245 -3.18906 0
M  V30 1841 C 175.406 0.760987 -4.43316 0
M  V30 1842 C 176.725 2.63884 -3.52212 0
M  V30 1843 H 173.844 0.319242 -0.664269 0
M  V30 1844 H 176.486 0.148052 -1.89422 0
M  V30 1845 H 174.636 2.29824 -3.1323 0
M  V30 1846 H 176.308 0.147596 -4.61064 0
M  V30 1847 H 174.551 0.0694102 -4.33744 0
M  V30 1848 H 175.222 1.34962 -5.35247 0
M  V30 1849 H 177.698 2.11429 -3.58381 0
M  V30 1850 H 176.574 3.16245 -4.48643 0
M  V30 1851 H 176.835 3.44377 -2.77231 0
M  V30 1852 N 175.894 1.51508 0.433938 0
M  V30 1853 C 177.14 1.64588 1.18484 0
M  V30 1854 C 177.473 0.362666 1.90784 0
M  V30 1855 O 176.748 -0.637892 1.83742 0
M  V30 1856 C 177.031 2.85149 2.19913 0
M  V30 1857 C 176.884 4.23456 1.51674 0
M  V30 1858 C 178.203 3.01227 3.20858 0
M  V30 1859 H 175.322 0.598994 0.429389 0
M  V30 1860 H 177.964 1.84002 0.473647 0
M  V30 1861 H 176.114 2.68729 2.80566 0
M  V30 1862 H 177.786 4.51552 0.943322 0
M  V30 1863 H 176.029 4.25998 0.819035 0
M  V30 1864 H 176.7 5.03812 2.2556 0
M  V30 1865 H 179.176 3.16382 2.70263 0
M  V30 1866 H 178.052 3.87141 3.89118 0
M  V30 1867 H 178.313 2.13447 3.8716 0
M  V30 1868 N 177.372 -0.689602 1.41712 0
M  V30 1869 C 178.618 -1.45041 1.42599 0
M  V30 1870 C 178.973 -1.92366 0.0363764 0
M  V30 1871 O 178.266 -1.67022 -0.938844 0
M  V30 1872 C 178.46 -2.67298 2.37247 0
M  V30 1873 C 178.289 -2.31935 3.85274 0
M  V30 1874 C 177.059 -2.2201 4.53916 0
M  V30 1875 C 179.257 -1.94526 4.76093 0
M  V30 1876 N 177.239 -1.79594 5.87043 0
M  V30 1877 C 178.61 -1.62915 5.98213 0
M  V30 1878 C 180.665 -1.81388 4.63684 0
M  V30 1879 C 179.368 -1.19486 7.09306 0
M  V30 1880 C 181.394 -1.39364 5.74745 0
M  V30 1881 C 180.756 -1.08668 6.95967 0
M  V30 1882 H 176.855 -0.527806 0.577014 0
M  V30 1883 H 179.439 -0.797266 1.77628 0
M  V30 1884 H 177.61 -3.30325 2.04304 0
M  V30 1885 H 179.342 -3.33806 2.28814 0
M  V30 1886 H 176.097 -2.406 4.07932 0
M  V30 1887 H 176.521 -1.60851 6.57614 0
M  V30 1888 H 181.163 -2.03772 3.70455 0
M  V30 1889 H 178.881 -0.958477 8.02396 0
M  V30 1890 H 182.467 -1.2974 5.6715 0
M  V30 1891 H 181.347 -0.766417 7.80446 0
M  V30 1892 N 178.85 -1.27639 -0.924453 0
M  V30 1893 C 180.096 -1.14336 -1.67497 0
M  V30 1894 C 180.429 0.309465 -1.91718 0
M  V30 1895 O 179.704 1.22608 -1.50989 0
M  V30 1896 C 179.987 -1.93096 -3.0395 0
M  V30 1897 C 179.84 -3.46381 -2.8695 0
M  V30 1898 C 181.159 -1.73798 -4.0433 0
M  V30 1899 H 178.278 -0.416728 -0.607871 0
M  V30 1900 H 180.92 -1.56832 -1.07256 0
M  V30 1901 H 179.07 -1.56982 -3.55372 0
M  V30 1902 H 180.742 -3.92343 -2.42621 0
M  V30 1903 H 178.985 -3.72557 -2.22225 0
M  V30 1904 H 179.656 -3.96735 -3.83804 0
M  V30 1905 H 182.132 -2.05293 -3.61931 0
M  V30 1906 H 181.008 -2.31294 -4.97789 0
M  V30 1907 H 181.269 -0.686725 -4.36734 0
M  V30 1908 N 180.328 1.1314 -1.09713 0
M  V30 1909 C 181.553 1.88862 -0.857081 0
M  V30 1910 C 181.978 1.78729 0.586304 0
M  V30 1911 O 181.336 1.13692 1.41222 0
M  V30 1912 C 181.384 3.36325 -1.30069 0
M  V30 1913 O 180.488 4.09815 -0.461007 0
M  V30 1914 H 179.829 0.587108 -0.310162 0
M  V30 1915 H 182.359 1.43129 -1.46203 0
M  V30 1916 H 182.369 3.87157 -1.28738 0
M  V30 1917 H 181.044 3.43017 -2.35185 0
M  V30 1918 H 179.621 3.68986 -0.538888 0
M  V30 1919 N 181.806 0.884767 1.30421 0
M  V30 1920 C 182.738 0.308655 2.27112 0
M  V30 1921 C 183.751 -0.536655 1.53701 0
M  V30 1922 O 184.94 -0.35624 1.74909 0
M  V30 1923 C 182.04 -0.579782 3.33904 0
M  V30 1924 C 181.213 0.236417 4.36761 0
M  V30 1925 C 180.272 -0.582482 5.22966 0
M  V30 1926 O 179.298 -0.00525502 5.692 0
M  V30 1927 N 180.5 -1.89163 5.48815 0
M  V30 1928 H 183.265 1.13964 2.77186 0
M  V30 1929 H 180.826 0.747731 1.43599 0
M  V30 1930 H 182.818 -1.13366 3.88497 0
M  V30 1931 H 181.388 -1.31144 2.83761 0
M  V30 1932 H 180.608 0.97174 3.82035 0
M  V30 1933 H 181.896 0.795924 5.02536 0
M  V30 1934 H 181.294 -2.38352 5.13035 0
M  V30 1935 H 179.851 -2.39296 6.06284 0
M  V30 1936 N 183.284 -1.43765 0.645699 0
M  V30 1937 C 184.194 -2.34544 -0.0512957 0
M  V30 1938 C 185.21 -1.53455 -0.82022 0
M  V30 1939 O 186.386 -1.86133 -0.769176 0
M  V30 1940 C 183.451 -3.31636 -1.01087 0
M  V30 1941 C 182.512 -4.2863 -0.239712 0
M  V30 1942 C 181.745 -5.21084 -1.15358 0
M  V30 1943 O 181.968 -5.1779 -2.39269 0
M  V30 1944 O 180.902 -5.98593 -0.630038 0
M  V30 1945 H 184.728 -2.95624 0.695718 0
M  V30 1946 H 182.313 -1.43781 0.405882 0
M  V30 1947 H 184.195 -3.9136 -1.56254 0
M  V30 1948 H 182.87 -2.73069 -1.73824 0
M  V30 1949 H 181.777 -3.72408 0.355356 0
M  V30 1950 H 183.11 -4.90157 0.447936 0
M  V30 1951 N 184.763 -0.387143 -1.52771 0
M  V30 1952 C 186.012 0.19697 -2.00736 0
M  V30 1953 C 186.325 1.48082 -1.27793 0
M  V30 1954 O 187.531 2.14485 -1.66458 0
M  V30 1955 C 185.987 0.401568 -3.57653 0
M  V30 1956 C 185.595 -0.868907 -4.39493 0
M  V30 1957 C 187.339 0.942164 -4.13912 0
M  V30 1958 C 185.246 -0.632705 -5.88006 0
M  V30 1959 H 184.176 0.0773827 -0.750019 0
M  V30 1960 H 186.827 -0.50921 -1.76293 0
M  V30 1961 H 185.209 1.16954 -3.78335 0
M  V30 1962 H 186.383 -1.64133 -4.30577 0
M  V30 1963 H 184.698 -1.33429 -3.94443 0
M  V30 1964 H 187.295 1.13455 -5.22525 0
M  V30 1965 H 187.638 1.9106 -3.69867 0
M  V30 1966 H 188.171 0.233814 -3.97112 0
M  V30 1967 H 184.91 -1.57208 -6.36369 0
M  V30 1968 H 184.43 0.100825 -5.99715 0
M  V30 1969 H 186.109 -0.26642 -6.46451 0
M  V30 1970 N 186.241 1.57166 -0.116904 0
M  V30 1971 C 187.469 1.99473 0.549383 0
M  V30 1972 C 187.884 0.996541 1.60357 0
M  V30 1973 O 187.241 -0.0108731 1.82497 0
M  V30 1974 C 187.292 3.41788 1.17741 0
M  V30 1975 O 187.013 4.37788 0.165362 0
M  V30 1976 C 188.514 3.99216 1.92722 0
M  V30 1977 H 185.734 0.655009 0.145616 0
M  V30 1978 H 188.278 2.03494 -0.202625 0
M  V30 1979 H 186.433 3.38713 1.88021 0
M  V30 1980 H 186.847 5.20806 0.621403 0
M  V30 1981 H 188.321 5.00882 2.31995 0
M  V30 1982 H 188.798 3.3824 2.80161 0
M  V30 1983 H 189.404 4.0583 1.27209 0
M  V30 1984 N 187.719 -0.156864 1.56817 0
M  V30 1985 C 188.651 -1.21883 1.94106 0
M  V30 1986 C 189.664 -1.3971 0.835754 0
M  V30 1987 O 190.853 -1.39457 1.11418 0
M  V30 1988 C 187.953 -2.58527 2.19127 0
M  V30 1989 C 187.126 -2.61809 3.50393 0
M  V30 1990 C 186.185 -3.7992 3.64071 0
M  V30 1991 O 185.211 -3.65249 4.36557 0
M  V30 1992 N 186.413 -4.96973 2.99997 0
M  V30 1993 H 189.178 -0.901974 2.85805 0
M  V30 1994 H 186.739 -0.346513 1.58148 0
M  V30 1995 H 188.731 -3.36034 2.25529 0
M  V30 1996 H 187.301 -2.82545 1.33742 0
M  V30 1997 H 186.521 -1.7029 3.5552 0
M  V30 1998 H 187.809 -2.61024 4.36742 0
M  V30 1999 H 187.207 -5.11794 2.41004 0
M  V30 2000 H 185.764 -5.7229 3.11974 0
M  V30 2001 N 189.197 -1.51736 -0.425897 0
M  V30 2002 C 190.144 -1.73875 -1.51776 0
M  V30 2003 C 191.114 -0.580702 -1.55618 0
M  V30 2004 O 192.299 -0.81641 -1.72451 0
M  V30 2005 C 189.439 -1.88012 -2.89388 0
M  V30 2006 C 188.552 -3.15606 -2.94986 0
M  V30 2007 C 187.687 -3.20271 -4.23793 0
M  V30 2008 C 186.726 -4.42134 -4.23302 0
M  V30 2009 N 185.863 -4.44284 -5.43651 0
M  V30 2010 H 190.703 -2.67071 -1.32201 0
M  V30 2011 H 188.24 -1.32351 -0.642008 0
M  V30 2012 H 190.198 -1.9419 -3.69251 0
M  V30 2013 H 188.828 -0.98213 -3.07496 0
M  V30 2014 H 187.88 -3.18681 -2.07717 0
M  V30 2015 H 189.192 -4.05486 -2.90486 0
M  V30 2016 H 188.346 -3.25428 -5.12036 0
M  V30 2017 H 187.085 -2.28299 -4.30965 0
M  V30 2018 H 186.09 -4.3714 -3.3345 0
M  V30 2019 H 187.315 -5.35382 -4.17783 0
M  V30 2020 H 185.261 -3.55188 -5.51523 0
M  V30 2021 H 185.178 -5.27988 -5.41078 0
M  V30 2022 H 186.446 -4.53649 -6.33895 0
M  V30 2023 N 190.675 0.682077 -1.42076 0
M  V30 2024 C 191.924 1.43786 -1.41451 0
M  V30 2025 C 192.237 1.95574 -0.0317074 0
M  V30 2026 O 193.443 2.71326 0.0971462 0
M  V30 2027 C 191.899 2.60071 -2.48779 0
M  V30 2028 C 191.507 2.15013 -3.93031 0
M  V30 2029 C 193.251 3.37626 -2.57311 0
M  V30 2030 C 191.158 3.28336 -4.91883 0
M  V30 2031 H 190.088 0.540143 -0.526082 0
M  V30 2032 H 192.739 0.739157 -1.67955 0
M  V30 2033 H 191.121 3.32275 -2.15429 0
M  V30 2034 H 192.295 1.5001 -4.35699 0
M  V30 2035 H 190.61 1.50416 -3.88284 0
M  V30 2036 H 193.207 4.22012 -3.28345 0
M  V30 2037 H 193.55 3.83727 -1.61429 0
M  V30 2038 H 194.083 2.72488 -2.89819 0
M  V30 2039 H 190.822 2.87234 -5.89217 0
M  V30 2040 H 190.342 3.92145 -4.53853 0
M  V30 2041 H 192.021 3.93913 -5.13265 0
M  V30 2042 N 192.153 1.28127 0.917671 0
M  V30 2043 C 193.401 1.14825 1.66312 0
M  V30 2044 C 193.722 -0.304379 1.9261 0
M  V30 2045 O 192.992 -1.21149 1.53947 0
M  V30 2046 H 191.572 0.421953 0.616413 0
M  V30 2047 H 194.234 1.608 1.10134 0
M  V30 2048 H 193.33 1.68489 2.62712 0
M  V30 2049 N 193.631 -1.12557 1.10312 0
M  V30 2050 C 194.561 -2.20341 0.772798 0
M  V30 2051 C 195.542 -1.68198 -0.25365 0
M  V30 2052 O 196.727 -1.93831 -0.119699 0
M  V30 2053 C 193.857 -3.46709 0.202443 0
M  V30 2054 C 192.811 -4.11996 1.15943 0
M  V30 2055 C 192.137 -5.328 0.450345 0
M  V30 2056 C 193.437 -4.5828 2.50552 0
M  V30 2057 H 195.131 -2.48229 1.674 0
M  V30 2058 H 192.677 -1.19308 0.806326 0
M  V30 2059 H 194.63 -4.2138 -0.0407752 0
M  V30 2060 H 193.354 -3.18245 -0.734001 0
M  V30 2061 H 192.013 -3.39305 1.38808 0
M  V30 2062 H 191.661 -5.00602 -0.490531 0
M  V30 2063 H 191.361 -5.7743 1.08851 0
M  V30 2064 H 192.885 -6.10219 0.215642 0
M  V30 2065 H 194.299 -5.2433 2.31843 0
M  V30 2066 H 192.696 -5.13683 3.10242 0
M  V30 2067 H 193.766 -3.72329 3.10643 0
M  V30 2068 N 195.109 -0.891671 -1.2995 0
M  V30 2069 C 196.057 -0.353066 -2.29905 0
M  V30 2070 C 197.051 0.543509 -1.60444 0
M  V30 2071 O 198.257 0.4272 -1.74857 0
M  V30 2072 H 194.632 -0.095531 -0.745907 0
M  V30 2073 H 196.603 -1.20961 -2.72784 0
M  V30 2074 C 195.352 0.411475 -3.45257 0
M  V30 2075 H 194.675 -0.269182 -3.98893 0
M  V30 2076 H 196.115 0.753328 -4.17254 0
M  V30 2077 C 194.574 1.6111 -2.9588 0
M  V30 2078 O 195.104 2.71045 -2.96475 0
M  V30 2079 N 193.31 1.45054 -2.51809 0
M  V30 2080 H 192.857 0.556175 -2.51524 0
M  V30 2081 H 192.815 2.25453 -2.1913 0
M  V30 2082 N 196.587 1.43421 -0.653314 0
M  V30 2083 C 197.534 2.30768 0.0382271 0
M  V30 2084 C 198.504 1.44755 0.814576 0
M  V30 2085 O 199.689 1.73624 0.791162 0
M  V30 2086 C 196.829 3.30336 0.998599 0
M  V30 2087 C 195.942 4.31448 0.218342 0
M  V30 2088 C 195.077 5.18098 1.17252 0
M  V30 2089 C 194.116 6.10902 0.382702 0
M  V30 2090 N 193.253 6.90176 1.28848 0
M  V30 2091 H 198.093 2.89357 -0.712511 0
M  V30 2092 H 195.63 1.42548 -0.363128 0
M  V30 2093 H 197.588 3.86572 1.56901 0
M  V30 2094 H 196.218 2.73397 1.71621 0
M  V30 2095 H 195.27 3.77506 -0.46836 0
M  V30 2096 H 196.582 4.97227 -0.395812 0
M  V30 2097 H 195.736 5.7896 1.81356 0
M  V30 2098 H 194.475 4.52444 1.82058 0
M  V30 2099 H 193.48 5.49128 -0.27169 0
M  V30 2100 H 194.705 6.78598 -0.260957 0
M  V30 2101 H 192.651 6.27171 1.92334 0
M  V30 2102 H 192.568 7.52478 0.728887 0
M  V30 2103 H 193.836 7.55543 1.91766 0
M  V30 2104 N 198.065 0.39524 1.52563 0
M  V30 2105 C 199.314 -0.186321 2.00838 0
M  V30 2106 C 199.627 -1.47402 1.28577 0
M  V30 2107 O 200.833 -2.13599 1.67593 0
M  V30 2108 C 199.289 -0.382595 3.57861 0
M  V30 2109 C 198.897 0.892202 4.39026 0
M  V30 2110 C 200.641 -0.9202 4.14406 0
M  V30 2111 C 198.548 0.66388 5.87662 0
M  V30 2112 H 197.478 -0.0734041 0.750418 0
M  V30 2113 H 200.129 0.518552 1.76021 0
M  V30 2114 H 198.511 -1.14946 3.7895 0
M  V30 2115 H 199.685 1.66414 4.29701 0
M  V30 2116 H 198 1.35519 3.9373 0
M  V30 2117 H 200.597 -1.10683 5.23119 0
M  V30 2118 H 200.94 -1.89096 3.70875 0
M  V30 2119 H 201.473 -0.212751 3.97231 0
M  V30 2120 H 198.212 1.6058 6.35527 0
M  V30 2121 H 197.732 -0.0690193 5.9976 0
M  V30 2122 H 199.411 0.300699 6.46301 0
M  V30 2123 N 199.544 -1.57102 0.125237 0
M  V30 2124 C 200.491 -2.15641 -0.822655 0
M  V30 2125 C 201.461 -1.08313 -1.25927 0
M  V30 2126 O 202.646 -1.36251 -1.33567 0
M  V30 2127 C 199.786 -2.76504 -2.06494 0
M  V30 2128 C 198.899 -3.98158 -1.67612 0
M  V30 2129 C 198.034 -4.47088 -2.86854 0
M  V30 2130 C 197.073 -5.6126 -2.44242 0
M  V30 2131 N 196.21 -6.04905 -3.56419 0
M  V30 2132 H 201.05 -2.96313 -0.316625 0
M  V30 2133 H 198.587 -1.46388 -0.144588 0
M  V30 2134 H 200.545 -3.09925 -2.79289 0
M  V30 2135 H 199.175 -1.98512 -2.54545 0
M  V30 2136 H 198.227 -3.70858 -0.846661 0
M  V30 2137 H 199.539 -4.80934 -1.32301 0
M  V30 2138 H 198.693 -4.82451 -3.67867 0
M  V30 2139 H 197.432 -3.63275 -3.25396 0
M  V30 2140 H 196.437 -5.25495 -1.61663 0
M  V30 2141 H 197.662 -6.46843 -2.0681 0
M  V30 2142 H 195.608 -5.24032 -3.94623 0
M  V30 2143 H 195.525 -6.82552 -3.25051 0
M  V30 2144 H 196.793 -6.44907 -4.37853 0
M  V30 2145 N 201.022 0.148545 -1.56898 0
M  V30 2146 C 201.97 1.20265 -1.99096 0
M  V30 2147 C 202.964 1.44559 -0.883123 0
M  V30 2148 O 204.17 1.4487 -1.0683 0
M  V30 2149 H 200.545 0.404786 -0.63376 0
M  V30 2150 H 202.516 0.82004 -2.86911 0
M  V30 2151 C 201.265 2.52886 -2.3863 0
M  V30 2152 H 200.588 2.35021 -3.23427 0
M  V30 2153 H 202.028 3.25274 -2.7198 0
M  V30 2154 C 200.487 3.13315 -1.23837 0
M  V30 2155 O 201.017 3.98077 -0.538268 0
M  V30 2156 N 199.223 2.72742 -1.00301 0
M  V30 2157 H 198.77 2.03912 -1.5741 0
M  V30 2158 H 198.728 3.13507 -0.236838 0
M  V30 2159 N 202.5 1.5196 0.417844 0
M  V30 2160 C 203.73 1.69181 1.18581 0
M  V30 2161 C 204.138 0.397104 1.84986 0
M  V30 2162 O 203.481 -0.636011 1.72339 0
M  V30 2163 C 203.543 2.76497 2.29759 0
M  V30 2164 C 203.207 4.18514 1.83563 0
M  V30 2165 C 204.204 5.02648 1.32821 0
M  V30 2166 C 201.889 4.64708 1.90661 0
M  V30 2167 C 203.883 6.31044 0.897894 0
M  V30 2168 C 201.57 5.93096 1.47241 0
M  V30 2169 C 202.568 6.76093 0.968891 0
M  V30 2170 O 202.256 8.02078 0.540924 0
M  V30 2171 H 201.988 0.570457 0.362705 0
M  V30 2172 H 204.542 1.99249 0.498885 0
M  V30 2173 H 202.772 2.41786 3.01789 0
M  V30 2174 H 204.461 2.82403 2.91553 0
M  V30 2175 H 205.227 4.68154 1.26716 0
M  V30 2176 H 201.106 4.00216 2.28797 0
M  V30 2177 H 204.65 6.95776 0.504192 0
M  V30 2178 H 200.547 6.271 1.53022 0
M  V30 2179 H 201.315 8.15794 0.66502 0
M  V30 2180 N 203.978 -0.674533 1.42435 0
M  V30 2181 C 204.908 -1.80009 1.48724 0
M  V30 2182 C 205.889 -1.6659 0.343793 0
M  V30 2183 O 207.074 -1.86007 0.558137 0
M  V30 2184 C 204.204 -3.18306 1.38919 0
M  V30 2185 C 203.158 -3.46461 2.51294 0
M  V30 2186 C 202.484 -4.84335 2.26547 0
M  V30 2187 C 203.784 -3.43328 3.93603 0
M  V30 2188 H 205.478 -1.75004 2.42928 0
M  V30 2189 H 203.024 -0.840533 1.16923 0
M  V30 2190 H 204.977 -3.9678 1.41927 0
M  V30 2191 H 203.701 -3.2399 0.412094 0
M  V30 2192 H 202.36 -2.70348 2.47604 0
M  V30 2193 H 202.008 -4.86669 1.2713 0
M  V30 2194 H 201.708 -5.04136 3.01861 0
M  V30 2195 H 203.232 -5.65094 2.31304 0
M  V30 2196 H 204.646 -4.11772 3.98894 0
M  V30 2197 H 203.043 -3.74664 4.68771 0
M  V30 2198 H 204.113 -2.41897 4.20255 0
M  V30 2199 N 205.456 -1.28612 -0.910864 0
M  V30 2200 C 206.403 -1.12786 -2.01365 0
M  V30 2201 C 207.373 -0.024201 -1.66082 0
M  V30 2202 O 208.558 -0.189667 -1.89855 0
M  V30 2203 C 205.698 -0.798743 -3.35729 0
M  V30 2204 C 204.811 -1.98173 -3.83864 0
M  V30 2205 C 203.946 -1.59298 -5.06752 0
M  V30 2206 C 202.985 -2.74245 -5.47226 0
M  V30 2207 N 202.122 -2.35842 -6.61304 0
M  V30 2208 H 206.962 -2.07142 -2.14234 0
M  V30 2209 H 204.499 -1.03093 -1.0493 0
M  V30 2210 H 206.457 -0.588662 -4.13026 0
M  V30 2211 H 205.087 0.10789 -3.2262 0
M  V30 2212 H 204.139 -2.30386 -3.02699 0
M  V30 2213 H 205.451 -2.84343 -4.09818 0
M  V30 2214 H 204.605 -1.34513 -5.916 0
M  V30 2215 H 203.344 -0.702618 -4.82612 0
M  V30 2216 H 202.349 -2.99725 -4.60918 0
M  V30 2217 H 203.574 -3.63928 -5.73353 0
M  V30 2218 H 201.52 -1.49279 -6.38789 0
M  V30 2219 H 201.437 -3.15546 -6.86998 0
M  V30 2220 H 202.705 -2.14348 -7.4945 0
M  V30 2221 N 206.934 1.1197 -1.10907 0
M  V30 2222 C 208.211 1.79959 -0.766432 0
M  V30 2223 C 208.591 1.97466 0.746363 0
M  V30 2224 O 207.939 1.55491 1.67436 0
M  V30 2225 C 208.149 3.14009 -1.52314 0
M  V30 2226 C 209.497 3.89134 -1.69883 0
M  V30 2227 O 210.521 3.2368 -1.48692 0
M  V30 2228 O 209.38 5.06572 -2.05054 0
M  V30 2229 H 206.474 0.779208 -0.277062 0
M  V30 2230 H 209.02 1.18762 -1.21217 0
M  V30 2231 H 207.792 2.96587 -2.55249 0
M  V30 2232 H 207.415 3.82915 -1.07059 0
M  V30 2233 N 208.412 0.89855 1.29475 0
M  V30 2234 C 209.659 0.523882 1.95606 0
M  V30 2235 C 209.987 -0.929608 1.70847 0
M  V30 2236 O 209.242 -1.67401 1.01367 0
M  V30 2237 C 209.541 0.761398 3.49195 0
M  V30 2238 C 209.207 2.19207 3.94029 0
M  V30 2239 C 207.869 2.58326 4.05982 0
M  V30 2240 C 210.221 3.12379 4.17216 0
M  V30 2241 C 207.549 3.898 4.38489 0
M  V30 2242 C 209.901 4.43401 4.51197 0
M  V30 2243 C 208.565 4.82394 4.61359 0
M  V30 2244 H 207.835 0.191702 0.715773 0
M  V30 2245 H 210.482 1.13699 1.54094 0
M  V30 2246 H 208.787 0.0653622 3.91745 0
M  V30 2247 H 210.484 0.450904 3.98457 0
M  V30 2248 H 207.074 1.87846 3.85242 0
M  V30 2249 H 211.258 2.83371 4.07449 0
M  V30 2250 H 206.514 4.19734 4.44559 0
M  V30 2251 H 210.688 5.15623 4.68087 0
M  V30 2252 H 208.315 5.84306 4.86303 0
M  V30 2253 N 209.89 -1.43072 0.660911 0
M  V30 2254 C 211.167 -1.95307 0.107017 0
M  V30 2255 C 211.547 -1.60192 -1.37484 0
M  V30 2256 O 210.895 -0.890949 -2.10415 0
M  V30 2257 C 211.105 -3.47124 0.361402 0
M  V30 2258 C 212.453 -4.23738 0.270455 0
M  V30 2259 O 213.477 -3.54981 0.294382 0
M  V30 2260 O 212.336 -5.46131 0.200737 0
M  V30 2261 H 209.43 -0.826984 -0.00517729 0
M  V30 2262 H 211.976 -1.52972 0.734681 0
M  V30 2263 H 210.748 -3.65837 1.38848 0
M  V30 2264 H 210.371 -3.96475 -0.298953 0
M  V30 2265 N 211.368 -0.403325 -1.52352 0
M  V30 2266 C 212.598 0.17376 -2.05868 0
M  V30 2267 C 213.006 1.39898 -1.27378 0
M  V30 2268 O 212.349 1.80939 -0.31729 0
M  V30 2269 C 212.411 0.594756 -3.54546 0
M  V30 2270 C 212.075 -0.518926 -4.54044 0
M  V30 2271 C 213.072 -1.3807 -5.01231 0
M  V30 2272 C 210.757 -0.689961 -4.97539 0
M  V30 2273 C 212.751 -2.39852 -5.90551 0
M  V30 2274 C 210.438 -1.71109 -5.86656 0
M  V30 2275 C 211.436 -2.56378 -6.33056 0
M  V30 2276 O 211.124 -3.56743 -7.20409 0
M  V30 2277 H 210.856 0.0264951 -0.675481 0
M  V30 2278 H 213.41 -0.571179 -1.97299 0
M  V30 2279 H 211.64 1.39189 -3.60782 0
M  V30 2280 H 213.329 1.0991 -3.90736 0
M  V30 2281 H 214.095 -1.25994 -4.68349 0
M  V30 2282 H 209.974 -0.035939 -4.60986 0
M  V30 2283 H 213.518 -3.06441 -6.26689 0
M  V30 2284 H 209.415 -1.83218 -6.18952 0
M  V30 2285 H 210.183 -3.52918 -7.38506 0
M  V30 2286 N 212.846 1.57033 -0.133567 0
M  V30 2287 C 214.094 1.953 0.519848 0
M  V30 2288 C 214.415 1.01866 1.66278 0
M  V30 2289 O 213.685 0.0776513 1.95746 0
M  V30 2290 H 212.265 0.721091 0.195032 0
M  V30 2291 H 214.927 1.93809 -0.205921 0
M  V30 2292 H 214.023 2.98695 0.904854 0
M  V30 2293 N 214.325 -0.140222 1.56975 0
M  V30 2294 C 215.273 -1.19207 1.99731 0
M  V30 2295 C 216.267 -1.44089 0.890777 0
M  V30 2296 O 217.473 -1.44301 1.07597 0
M  V30 2297 H 213.848 -0.40142 0.635898 0
M  V30 2298 H 215.819 -0.804813 2.87342 0
M  V30 2299 C 214.568 -2.51617 2.39967 0
M  V30 2300 H 213.891 -2.33303 3.24669 0
M  V30 2301 H 215.331 -3.23827 2.73701 0
M  V30 2302 C 213.79 -3.12654 1.25496 0
M  V30 2303 O 214.32 -3.97786 0.559371 0
M  V30 2304 N 212.526 -2.72206 1.01746 0
M  V30 2305 H 212.073 -2.03074 1.58489 0
M  V30 2306 H 212.031 -3.13377 0.253461 0
M  V30 2307 N 215.803 -1.52179 -0.40978 0
M  V30 2308 C 216.735 -1.71703 -1.51825 0
M  V30 2309 C 217.748 -0.597445 -1.51441 0
M  V30 2310 O 218.937 -0.872582 -1.55719 0
M  V30 2311 C 216.037 -1.74171 -2.90719 0
M  V30 2312 C 215.21 -3.03156 -3.15302 0
M  V30 2313 C 214.269 -2.97445 -4.34065 0
M  V30 2314 O 213.295 -3.71352 -4.31377 0
M  V30 2315 N 214.497 -2.15191 -5.39141 0
M  V30 2316 H 217.262 -2.67334 -1.35472 0
M  V30 2317 H 214.823 -1.50409 -0.599069 0
M  V30 2318 H 216.815 -1.67884 -3.68235 0
M  V30 2319 H 215.385 -0.860166 -3.00533 0
M  V30 2320 H 214.605 -3.23097 -2.25836 0
M  V30 2321 H 215.893 -3.88484 -3.28569 0
M  V30 2322 H 215.291 -1.54573 -5.44173 0
M  V30 2323 H 213.848 -2.1476 -6.15403 0
M  V30 2324 N 217.281 0.66697 -1.42791 0
M  V30 2325 C 218.558 1.4234 -1.34159 0
M  V30 2326 C 218.938 2.11093 0.0172729 0
M  V30 2327 O 218.286 2.03808 1.03318 0
M  V30 2328 C 218.496 2.41942 -2.51526 0
M  V30 2329 C 219.844 3.06353 -2.93995 0
M  V30 2330 O 220.868 2.52269 -2.51473 0
M  V30 2331 O 219.727 4.04376 -3.67617 0
M  V30 2332 H 216.821 0.635277 -0.529483 0
M  V30 2333 H 219.367 0.695034 -1.54814 0
M  V30 2334 H 218.139 1.89991 -3.42081 0
M  V30 2335 H 217.762 3.22249 -2.32898 0
M  V30 2336 N 218.759 1.29093 0.90403 0
M  V30 2337 C 220.006 1.16813 1.65411 0
M  V30 2338 C 220.334 -0.28128 1.92455 0
M  V30 2339 O 219.589 -1.22006 1.53013 0
M  V30 2340 C 219.888 1.92224 3.01305 0
M  V30 2341 C 219.554 3.41968 2.93885 0
M  V30 2342 C 218.216 3.82807 2.91569 0
M  V30 2343 C 220.568 4.37409 2.83413 0
M  V30 2344 C 217.896 5.1741 2.76594 0
M  V30 2345 C 220.248 5.72097 2.69977 0
M  V30 2346 C 218.912 6.12199 2.66024 0
M  V30 2347 H 218.182 0.42745 0.605283 0
M  V30 2348 H 220.829 1.59981 1.05254 0
M  V30 2349 H 219.134 1.41635 3.65304 0
M  V30 2350 H 220.831 1.80131 3.58265 0
M  V30 2351 H 217.421 3.09504 2.96488 0
M  V30 2352 H 221.605 4.06813 2.84283 0
M  V30 2353 H 216.861 5.47596 2.71935 0
M  V30 2354 H 221.035 6.45704 2.60844 0
M  V30 2355 H 218.662 7.16448 2.54178 0
M  V30 2356 N 220.237 -1.11381 1.11499 0
M  V30 2357 C 221.462 -1.87475 0.887019 0
M  V30 2358 C 221.887 -1.79639 -0.557796 0
M  V30 2359 O 221.245 -1.15924 -1.39396 0
M  V30 2360 C 221.293 -3.34213 1.35403 0
M  V30 2361 O 220.397 -4.0903 0.526146 0
M  V30 2362 H 219.738 -0.582099 0.319463 0
M  V30 2363 H 222.268 -1.40785 1.48461 0
M  V30 2364 H 222.278 -3.8506 1.34881 0
M  V30 2365 H 220.953 -3.39232 2.40612 0
M  V30 2366 H 219.53 -3.68082 0.597522 0
M  V30 2367 N 221.715 -0.905404 -1.28997 0
M  V30 2368 C 222.963 -0.533192 -1.9494 0
M  V30 2369 C 223.284 0.924618 -1.71685 0
M  V30 2370 O 222.554 1.65268 -1.05183 0
M  V30 2371 H 221.134 -0.194194 -0.721317 0
M  V30 2372 H 223.796 -1.15294 -1.57141 0
M  V30 2373 H 222.892 -0.72059 -3.03667 0
M  V30 2374 N 223.193 1.4272 -0.668489 0
M  V30 2375 C 224.47 1.95248 -0.117373 0
M  V30 2376 C 224.85 1.60919 1.36632 0
M  V30 2377 O 224.198 0.902095 2.09939 0
M  V30 2378 C 224.408 3.46927 -0.379806 0
M  V30 2379 C 225.756 4.23588 -0.292923 0
M  V30 2380 O 226.78 3.5482 -0.313204 0
M  V30 2381 O 225.639 5.46017 -0.229697 0
M  V30 2382 H 222.733 0.827 0.00079152 0
M  V30 2383 H 225.279 1.52581 -0.742783 0
M  V30 2384 H 224.051 3.65096 -1.40786 0
M  V30 2385 H 223.674 3.96627 0.277923 0
M  V30 2386 N 224.671 0.411399 1.52136 0
M  V30 2387 C 225.618 -0.412975 2.27075 0
M  V30 2388 C 226.588 -1.03912 1.29582 0
M  V30 2389 O 227.773 -1.06296 1.58448 0
M  V30 2390 C 224.913 -1.52247 3.09701 0
M  V30 2391 C 224.026 -0.917021 4.22155 0
M  V30 2392 C 223.161 -1.9994 4.92135 0
M  V30 2393 C 222.2 -1.37101 5.96548 0
M  V30 2394 N 221.337 -2.39364 6.60038 0
M  V30 2395 H 226.177 0.232499 2.97092 0
M  V30 2396 H 223.714 0.126496 1.46555 0
M  V30 2397 H 225.672 -2.17674 3.55913 0
M  V30 2398 H 224.302 -2.13794 2.41851 0
M  V30 2399 H 223.354 -0.151742 3.80097 0
M  V30 2400 H 224.666 -0.418006 4.97045 0
M  V30 2401 H 223.82 -2.73088 5.41763 0
M  V30 2402 H 222.559 -2.53208 4.16818 0
M  V30 2403 H 221.564 -0.624873 5.46237 0
M  V30 2404 H 222.789 -0.845998 6.7381 0
M  V30 2405 H 220.735 -2.91759 5.87548 0
M  V30 2406 H 220.652 -1.9428 7.3061 0
M  V30 2407 H 221.92 -3.12074 7.14304 0
M  V30 2408 N 226.149 -1.5696 0.141893 0
M  V30 2409 C 227.059 -2.20066 -0.812905 0
M  V30 2410 C 228.075 -1.18344 -1.27557 0
M  V30 2411 O 229.251 -1.50902 -1.33381 0
M  V30 2412 C 226.316 -2.80583 -2.03652 0
M  V30 2413 C 225.377 -3.97414 -1.62359 0
M  V30 2414 C 224.61 -4.55036 -2.78887 0
M  V30 2415 O 224.833 -4.11538 -3.94959 0
M  V30 2416 O 223.767 -5.45376 -2.54653 0
M  V30 2417 H 227.593 -3.02157 -0.305746 0
M  V30 2418 H 225.178 -1.49159 -0.0848799 0
M  V30 2419 H 227.06 -3.19067 -2.75272 0
M  V30 2420 H 225.735 -2.01508 -2.5333 0
M  V30 2421 H 224.642 -3.63656 -0.877775 0
M  V30 2422 H 225.975 -4.77994 -1.17401 0
M  V30 2423 N 227.627 0.131896 -1.57047 0
M  V30 2424 C 229.043 0.485031 -1.52051 0
M  V30 2425 C 229.243 1.82563 -0.85281 0
M  V30 2426 O 228.299 2.48817 -0.429694 0
M  V30 2427 C 229.612 0.481409 -2.96821 0
M  V30 2428 C 231.16 0.565868 -3.07842 0
M  V30 2429 C 231.635 0.592762 -4.54148 0
M  V30 2430 N 233.126 0.654564 -4.58552 0
M  V30 2431 C 233.861 0.696608 -5.69153 0
M  V30 2432 N 233.357 0.697078 -6.89284 0
M  V30 2433 N 235.15 0.738639 -5.57226 0
M  V30 2434 H 227.301 -0.746664 -1.98843 0
M  V30 2435 H 229.564 -0.273999 -0.90754 0
M  V30 2436 H 229.27 -0.435731 -3.4899 0
M  V30 2437 H 229.144 1.3139 -3.53577 0
M  V30 2438 H 231.531 1.47343 -2.55684 0
M  V30 2439 H 231.612 -0.29406 -2.54104 0
M  V30 2440 H 231.256 -0.310701 -5.06949 0
M  V30 2441 H 231.186 1.46939 -5.05684 0
M  V30 2442 H 233.677 0.660887 -3.72076 0
M  V30 2443 H 233.99 0.731426 -7.69331 0
M  V30 2444 H 232.335 0.66471 -6.91814 0
M  V30 2445 H 235.526 0.735545 -4.62285 0
M  V30 2446 H 235.699 0.767938 -6.43434 0
M  V30 2447 N 229.106 1.52395 0.401703 0
M  V30 2448 C 230.054 1.7689 1.51039 0
M  V30 2449 C 231.048 0.636298 1.56996 0
M  V30 2450 O 232.254 0.818507 1.60314 0
M  V30 2451 H 228.629 0.559502 0.502456 0
M  V30 2452 H 230.6 2.69757 1.27568 0
M  V30 2453 C 229.349 1.94331 2.88324 0
M  V30 2454 H 228.672 2.80905 2.84486 0
M  V30 2455 H 230.112 2.15466 3.65172 0
M  V30 2456 C 228.571 0.712396 3.29282 0
M  V30 2457 O 229.101 -0.116218 4.01532 0
M  V30 2458 N 227.307 0.546154 2.85422 0
M  V30 2459 H 226.854 1.22156 2.26794 0
M  V30 2460 H 226.812 -0.276113 3.13185 0
M  V30 2461 N 230.584 -0.659388 1.43143 0
M  V30 2462 C 231.532 -1.79374 1.4808 0
M  V30 2463 C 232.526 -1.65639 0.354988 0
M  V30 2464 O 233.732 -1.7206 0.528704 0
M  V30 2465 H 230.107 -0.591705 0.4641 0
M  V30 2466 H 232.078 -1.72329 2.43609 0
M  V30 2467 C 230.827 -3.17606 1.41499 0
M  V30 2468 H 230.15 -3.28809 2.27431 0
M  V30 2469 H 231.59 -3.96951 1.49015 0
M  V30 2470 C 230.049 -3.36642 0.131765 0
M  V30 2471 O 230.579 -3.93461 -0.809386 0
M  V30 2472 N 228.785 -2.90567 0.0439396 0
M  V30 2473 H 228.332 -2.44513 0.810619 0
M  V30 2474 H 228.29 -3.03681 -0.813969 0
M  V30 2475 N 232.062 -1.29571 -0.897171 0
M  V30 2476 C 233.31 -1.17456 -1.64464 0
M  V30 2477 C 233.631 0.273698 -1.9307 0
M  V30 2478 O 232.901 1.18684 -1.55855 0
M  V30 2479 H 231.481 -0.431706 -0.609622 0
M  V30 2480 H 234.143 -1.62531 -1.07562 0
M  V30 2481 H 233.239 -1.72648 -2.59998 0
M  V30 2482 N 233.54 1.10788 -1.12088 0
M  V30 2483 C 234.47 2.19083 -0.807755 0
M  V30 2484 C 235.451 1.6858 0.226859 0
M  V30 2485 O 236.636 1.93997 0.0888475 0
M  V30 2486 C 233.766 3.46344 -0.257576 0
M  V30 2487 C 232.72 4.101 -1.22483 0
M  V30 2488 C 232.046 5.32016 -0.535052 0
M  V30 2489 C 233.346 4.54236 -2.57811 0
M  V30 2490 H 235.04 2.45534 -1.71328 0
M  V30 2491 H 232.586 1.1801 -0.825205 0
M  V30 2492 H 234.539 4.21392 -0.0262679 0
M  V30 2493 H 233.263 3.19373 0.683278 0
M  V30 2494 H 231.922 3.37054 -1.44189 0
M  V30 2495 H 231.57 5.01319 0.410827 0
M  V30 2496 H 231.27 5.75625 -1.18024 0
M  V30 2497 H 232.794 6.09799 -0.312695 0
M  V30 2498 H 234.208 5.20575 -2.40155 0
M  V30 2499 H 232.605 5.08682 -3.18375 0
M  V30 2500 H 233.675 3.6734 -3.16528 0
M  V30 2501 N 235.018 0.912232 1.28515 0
M  V30 2502 C 236.246 0.560416 1.99166 0
M  V30 2503 C 236.661 -0.857927 1.68182 0
M  V30 2504 O 236.018 -1.56805 0.933733 0
M  V30 2505 C 236.069 0.758142 3.53461 0
M  V30 2506 O 235.79 2.12067 3.83352 0
M  V30 2507 C 237.291 0.412954 4.41372 0
M  V30 2508 H 234.511 0.213805 0.636026 0
M  V30 2509 H 237.055 1.22502 1.63749 0
M  V30 2510 H 235.21 0.140556 3.87145 0
M  V30 2511 H 235.624 2.15923 4.77993 0
M  V30 2512 H 237.098 0.60208 5.48707 0
M  V30 2513 H 237.575 -0.65073 4.34353 0
M  V30 2514 H 238.181 1.00802 4.13182 0
M  V30 2515 N 236.496 -1.42363 0.676048 0
M  V30 2516 C 237.406 -2.346 -0.00153389 0
M  V30 2517 C 238.422 -1.5516 -0.787485 0
M  V30 2518 O 239.598 -1.87723 -0.729521 0
M  V30 2519 C 236.663 -3.33705 -0.940298 0
M  V30 2520 C 235.724 -4.29042 -0.148739 0
M  V30 2521 C 234.957 -5.23413 -1.04279 0
M  V30 2522 O 235.18 -5.22749 -2.28232 0
M  V30 2523 O 234.114 -5.99795 -0.502925 0
M  V30 2524 H 237.94 -2.94082 0.758268 0
M  V30 2525 H 235.525 -1.42888 0.436289 0
M  V30 2526 H 237.407 -3.94586 -1.47917 0
M  V30 2527 H 236.082 -2.76695 -1.67993 0
M  V30 2528 H 234.989 -3.71571 0.43427 0
M  V30 2529 H 236.322 -4.89097 0.551805 0
M  V30 2530 N 237.974 -0.419461 -1.51915 0
M  V30 2531 C 238.937 0.389116 -2.25873 0
M  V30 2532 C 239.937 0.964924 -1.28631 0
M  V30 2533 O 241.127 0.842179 -1.52489 0
M  V30 2534 C 238.259 1.54874 -3.03689 0
M  V30 2535 H 239.452 -0.258799 -2.98781 0
M  V30 2536 H 237.005 -0.172209 -1.55348 0
M  V30 2537 H 237.74 2.23323 -2.35154 0
M  V30 2538 H 237.525 1.14223 -3.75094 0
M  V30 2539 H 239.015 2.12046 -3.59759 0
M  V30 2540 N 239.452 1.56882 -0.150215 0
M  V30 2541 C 240.698 1.97299 0.494427 0
M  V30 2542 C 241.053 1.0338 1.62266 0
M  V30 2543 O 240.346 0.0694497 1.91474 0
M  V30 2544 C 240.54 3.41801 1.04437 0
M  V30 2545 C 240.369 4.49691 -0.0290451 0
M  V30 2546 C 239.139 5.03095 -0.47156 0
M  V30 2547 C 241.337 5.07693 -0.821703 0
M  V30 2548 N 239.319 5.94593 -1.52749 0
M  V30 2549 C 240.69 5.95431 -1.72805 0
M  V30 2550 C 242.745 4.90256 -0.869134 0
M  V30 2551 C 241.448 6.67599 -2.67777 0
M  V30 2552 C 243.474 5.63127 -1.8067 0
M  V30 2553 C 242.836 6.50576 -2.70057 0
M  V30 2554 H 238.935 0.76755 0.149639 0
M  V30 2555 H 241.519 1.93145 -0.24556 0
M  V30 2556 H 239.69 3.46541 1.75396 0
M  V30 2557 H 241.422 3.69272 1.6559 0
M  V30 2558 H 238.177 4.73543 -0.0732101 0
M  V30 2559 H 238.601 6.45047 -2.05531 0
M  V30 2560 H 243.243 4.22363 -0.192134 0
M  V30 2561 H 240.961 7.34717 -3.36476 0
M  V30 2562 H 244.547 5.51629 -1.84924 0
M  V30 2563 H 243.427 7.05974 -3.41424 0
M  V30 2564 N 240.93 -0.123565 1.57115 0
M  V30 2565 C 241.86 -1.15309 2.03042 0
M  V30 2566 C 242.841 -1.43454 0.914061 0
M  V30 2567 O 244.026 -1.53973 1.18347 0
M  V30 2568 C 241.156 -2.48043 2.43089 0
M  V30 2569 C 240.11 -2.3437 3.58127 0
M  V30 2570 C 239.436 -3.72026 3.84059 0
M  V30 2571 C 240.736 -1.80804 4.90007 0
M  V30 2572 H 242.43 -0.771102 2.893 0
M  V30 2573 H 239.976 -0.369479 1.39179 0
M  V30 2574 H 241.929 -3.20311 2.73823 0
M  V30 2575 H 240.653 -2.88122 1.53796 0
M  V30 2576 H 239.312 -1.64551 3.27595 0
M  V30 2577 H 238.96 -4.09582 2.91979 0
M  V30 2578 H 238.66 -3.63732 4.6149 0
M  V30 2579 H 240.184 -4.45806 4.1724 0
M  V30 2580 H 241.598 -2.42886 5.19307 0
M  V30 2581 H 239.995 -1.83343 5.71407 0
M  V30 2582 H 241.065 -0.76528 4.78823 0
M  V30 2583 N 242.408 -1.52605 -0.393616 0
M  V30 2584 C 243.318 -1.79971 -1.50492 0
M  V30 2585 C 244.334 -0.686181 -1.59899 0
M  V30 2586 O 245.51 -0.973274 -1.76322 0
M  V30 2587 C 242.575 -1.95867 -2.86072 0
M  V30 2588 C 241.636 -3.19781 -2.86424 0
M  V30 2589 C 240.869 -3.34909 -4.15538 0
M  V30 2590 O 241.092 -2.54948 -5.10253 0
M  V30 2591 O 240.026 -4.28141 -4.23059 0
M  V30 2592 H 243.852 -2.74328 -1.30299 0
M  V30 2593 H 241.437 -1.3764 -0.581005 0
M  V30 2594 H 243.319 -2.08056 -3.66457 0
M  V30 2595 H 241.994 -1.04699 -3.063 0
M  V30 2596 H 240.901 -3.13038 -2.04837 0
M  V30 2597 H 242.234 -4.1078 -2.71147 0
M  V30 2598 N 243.887 0.651787 -1.4349 0
M  V30 2599 C 245.112 1.44434 -1.48841 0
M  V30 2600 C 245.537 1.8779 -0.107955 0
M  V30 2601 O 244.895 1.57464 0.898602 0
M  V30 2602 C 244.943 2.65458 -2.44059 0
M  V30 2603 O 244.047 3.64566 -1.92784 0
M  V30 2604 H 243.388 0.433005 -0.503391 0
M  V30 2605 H 245.918 0.797451 -1.88419 0
M  V30 2606 H 245.928 3.13255 -2.6141 0
M  V30 2607 H 244.603 2.33244 -3.4434 0
M  V30 2608 H 243.18 3.23716 -1.851 0
M  V30 2609 N 245.365 1.30045 0.890287 0
M  V30 2610 C 246.59 1.21598 1.68014 0
M  V30 2611 C 247.015 -0.218678 1.86825 0
M  V30 2612 O 246.373 -1.15756 1.39536 0
M  V30 2613 C 246.421 1.94434 3.03691 0
M  V30 2614 O 245.525 1.2678 3.92429 0
M  V30 2615 H 244.866 0.420856 0.513592 0
M  V30 2616 H 247.396 1.71775 1.11151 0
M  V30 2617 H 247.406 2.03251 3.5377 0
M  V30 2618 H 246.081 2.98777 2.89318 0
M  V30 2619 H 244.658 1.26282 3.50866 0
M  V30 2620 N 246.843 -1.10192 1.12674 0
M  V30 2621 C 247.773 -2.18652 0.819362 0
M  V30 2622 C 248.754 -1.68698 -0.217915 0
M  V30 2623 O 249.939 -1.94041 -0.0785581 0
M  V30 2624 C 247.069 -3.46202 0.27594 0
M  V30 2625 C 246.023 -4.09444 1.24656 0
M  V30 2626 C 245.349 -5.31725 0.563258 0
M  V30 2627 C 246.649 -4.52863 2.60217 0
M  V30 2628 H 248.343 -2.44622 1.72628 0
M  V30 2629 H 245.889 -1.17571 0.831451 0
M  V30 2630 H 247.842 -4.21372 0.0486149 0
M  V30 2631 H 246.566 -3.1973 -0.666331 0
M  V30 2632 H 245.225 -3.36284 1.45974 0
M  V30 2633 H 244.873 -5.0153 -0.384235 0
M  V30 2634 H 244.573 -5.74991 1.21075 0
M  V30 2635 H 246.097 -6.09624 0.34503 0
M  V30 2636 H 247.511 -5.19294 2.42913 0
M  V30 2637 H 245.908 -5.06986 3.21068 0
M  V30 2638 H 246.978 -3.65656 3.18471 0
M  V30 2639 N 248.321 -0.919034 -1.28029 0
M  V30 2640 C 249.268 -0.410005 -2.27129 0
M  V30 2641 C 250.238 0.518405 -1.57803 0
M  V30 2642 O 251.423 0.439451 -1.8567 0
M  V30 2643 C 248.563 0.339054 -3.4343 0
M  V30 2644 C 247.676 -0.622468 -4.27492 0
M  V30 2645 C 246.811 0.145567 -5.31001 0
M  V30 2646 C 245.85 -0.809226 -6.06727 0
M  V30 2647 N 244.987 -0.0743728 -7.02061 0
M  V30 2648 H 249.827 -1.26011 -2.70047 0
M  V30 2649 H 247.364 -0.632663 -1.328 0
M  V30 2650 H 249.322 0.789586 -4.0966 0
M  V30 2651 H 247.952 1.15346 -3.01488 0
M  V30 2652 H 247.004 -1.19153 -3.61257 0
M  V30 2653 H 248.316 -1.35252 -4.80113 0
M  V30 2654 H 247.47 0.656417 -6.03139 0
M  V30 2655 H 246.209 0.908643 -4.79161 0
M  V30 2656 H 245.214 -1.3314 -5.33436 0
M  V30 2657 H 246.439 -1.57194 -6.60656 0
M  V30 2658 H 244.385 0.670616 -6.52563 0
M  V30 2659 H 244.302 -0.744157 -7.52329 0
M  V30 2660 H 245.57 0.416109 -7.78389 0
M  V30 2661 N 249.799 1.42003 -0.683588 0
M  V30 2662 C 251.048 2.00638 -0.206681 0
M  V30 2663 C 251.361 1.5472 1.19671 0
M  V30 2664 O 252.567 2.05833 1.77045 0
M  V30 2665 C 251.023 3.58487 -0.318632 0
M  V30 2666 C 250.631 4.1339 -1.72663 0
M  V30 2667 C 252.375 4.24384 0.0991141 0
M  V30 2668 C 250.282 5.63633 -1.79087 0
M  V30 2669 H 249.212 0.750408 -0.0735107 0
M  V30 2670 H 251.863 1.62624 -0.850048 0
M  V30 2671 H 250.245 3.94047 0.392781 0
M  V30 2672 H 251.419 3.89273 -2.46583 0
M  V30 2673 H 249.734 3.59976 -2.09299 0
M  V30 2674 H 252.331 5.34652 0.0713833 0
M  V30 2675 H 252.674 4.00505 1.13586 0
M  V30 2676 H 253.207 3.93816 -0.561599 0
M  V30 2677 H 249.946 5.92323 -2.80774 0
M  V30 2678 H 249.466 5.89714 -1.09535 0
M  V30 2679 H 251.145 6.28201 -1.5483 0
M  V30 2680 N 251.277 0.427512 1.51691 0
M  V30 2681 C 252.502 -0.143601 2.06902 0
M  V30 2682 C 252.927 -1.36536 1.29382 0
M  V30 2683 O 252.285 -1.78289 0.329043 0
M  V30 2684 C 252.333 -0.454207 3.57728 0
M  V30 2685 O 251.437 -1.54228 3.82475 0
M  V30 2686 H 250.778 -0.00617128 0.663971 0
M  V30 2687 H 253.308 0.606014 1.95419 0
M  V30 2688 H 253.318 -0.707525 4.01818 0
M  V30 2689 H 251.993 0.438812 4.13579 0
M  V30 2690 H 250.57 -1.2797 3.50254 0
M  V30 2691 N 252.755 -1.56801 0.158532 0
M  V30 2692 C 254.166 -1.83189 -0.360366 0
M  V30 2693 C 254.517 -1.07778 -1.63946 0
M  V30 2694 O 253.642 -0.326718 -2.13919 0
M  V30 2695 C 254.237 -3.32297 -0.660595 0
M  V30 2696 C 252.796 -3.59227 -1.12398 0
M  V30 2697 C 251.943 -2.76877 -0.153097 0
M  V30 2698 H 254.894 -1.54008 0.383031 0
M  V30 2699 H 254.915 -3.4908 -1.51405 0
M  V30 2700 H 254.427 -3.87156 0.270527 0
M  V30 2701 H 252.528 -3.09766 -2.07064 0
M  V30 2702 H 252.641 -4.67632 -1.04197 0
M  V30 2703 H 251.005 -2.46319 -0.647983 0
M  V30 2704 H 251.788 -3.34511 0.77182 0
M  V30 2705 N 254.233 0.115231 -1.57178 0
M  V30 2706 C 255.143 1.15994 -2.03918 0
M  V30 2707 C 256.159 1.45103 -0.960268 0
M  V30 2708 O 257.335 1.56144 -1.27204 0
M  V30 2709 C 254.4 2.46568 -2.43732 0
M  V30 2710 C 253.461 2.24822 -3.65723 0
M  V30 2711 C 252.694 3.4917 -4.03629 0
M  V30 2712 O 252.917 4.56623 -3.41835 0
M  V30 2713 O 251.851 3.39949 -4.96708 0
M  V30 2714 H 255.677 0.793019 -2.93164 0
M  V30 2715 H 253.262 0.3263 -1.45793 0
M  V30 2716 H 255.144 3.23492 -2.70057 0
M  V30 2717 H 253.819 2.82726 -1.57631 0
M  V30 2718 H 252.726 1.45744 -3.44542 0
M  V30 2719 H 254.059 1.93566 -4.52541 0
M  V30 2720 N 255.711 1.52812 0.385517 0
M  V30 2721 C 256.621 1.80766 1.49535 0
M  V30 2722 C 257.637 0.694651 1.59532 0
M  V30 2723 O 258.813 0.982611 1.75803 0
M  V30 2724 C 255.878 1.97381 2.85029 0
M  V30 2725 C 254.939 3.21295 2.84724 0
M  V30 2726 C 254.172 3.37108 4.13756 0
M  V30 2727 O 254.395 2.5765 5.08893 0
M  V30 2728 O 253.329 4.30378 4.20783 0
M  V30 2729 H 257.155 2.75015 1.28842 0
M  V30 2730 H 254.74 1.37946 0.573697 0
M  V30 2731 H 256.622 2.09996 3.65349 0
M  V30 2732 H 255.297 1.06322 3.05741 0
M  V30 2733 H 254.204 3.1412 2.03174 0
M  V30 2734 H 255.537 4.12212 2.68965 0
M  V30 2735 N 257.189 -0.644168 1.43834 0
M  V30 2736 C 258.121 -1.76955 1.45669 0
M  V30 2737 C 259.134 -1.58956 0.351666 0
M  V30 2738 O 260.323 -1.6751 0.616644 0
M  V30 2739 C 257.423 -3.14507 1.26248 0
M  V30 2740 C 256.596 -3.59083 2.49757 0
M  V30 2741 C 255.655 -4.75467 2.25427 0
M  V30 2742 O 254.681 -4.84444 2.98836 0
M  V30 2743 N 255.883 -5.66289 1.27661 0
M  V30 2744 H 258.648 -1.75856 2.42682 0
M  V30 2745 H 256.209 -0.828312 1.39106 0
M  V30 2746 H 258.201 -3.90067 1.0784 0
M  V30 2747 H 256.771 -3.10325 0.376478 0
M  V30 2748 H 255.991 -2.7387 2.8353 0
M  V30 2749 H 257.279 -3.85613 3.31934 0
M  V30 2750 H 256.677 -5.61718 0.670064 0
M  V30 2751 H 255.234 -6.41533 1.15234 0
M  V30 2752 N 258.668 -1.30515 -0.883378 0
M  V30 2753 C 259.917 -1.18795 -1.63005 0
M  V30 2754 C 260.23 0.255923 -1.93919 0
M  V30 2755 O 261.436 0.494654 -2.66956 0
M  V30 2756 C 259.892 -2.07878 -2.93794 0
M  V30 2757 C 259.5 -3.57184 -2.70414 0
M  V30 2758 C 261.244 -2.04924 -3.71761 0
M  V30 2759 C 259.151 -4.38317 -3.97029 0
M  V30 2760 H 258.081 -0.441031 -0.611562 0
M  V30 2761 H 260.732 -1.55275 -0.977854 0
M  V30 2762 H 259.114 -1.64283 -3.60315 0
M  V30 2763 H 260.288 -4.08937 -2.12384 0
M  V30 2764 H 258.603 -3.61976 -2.0582 0
M  V30 2765 H 261.2 -2.62792 -4.65665 0
M  V30 2766 H 261.543 -1.0331 -4.03277 0
M  V30 2767 H 262.076 -2.46649 -3.12104 0
M  V30 2768 H 258.815 -5.40632 -3.70671 0
M  V30 2769 H 258.335 -3.91326 -4.54559 0
M  V30 2770 H 260.014 -4.49834 -4.65036 0
M  V30 2771 N 260.146 1.09593 -1.13257 0
M  V30 2772 C 261.078 2.16015 -0.766167 0
M  V30 2773 C 262.091 1.61423 0.211303 0
M  V30 2774 O 263.28 1.78498 -0.00863946 0
M  V30 2775 C 260.38 3.38706 -0.114662 0
M  V30 2776 C 259.553 4.22717 -1.12379 0
M  V30 2777 C 258.612 5.23835 -0.498301 0
M  V30 2778 O 257.638 5.573 -1.15781 0
M  V30 2779 N 258.84 5.75886 0.730417 0
M  V30 2780 H 261.605 2.48055 -1.68193 0
M  V30 2781 H 259.166 1.25292 -1.02535 0
M  V30 2782 H 261.158 4.03464 0.315991 0
M  V30 2783 H 259.728 3.04569 0.704011 0
M  V30 2784 H 258.948 3.54122 -1.73179 0
M  V30 2785 H 260.236 4.75673 -1.80589 0
M  V30 2786 H 259.634 5.50911 1.28504 0
M  V30 2787 H 258.191 6.42387 1.10376 0
M  V30 2788 N 261.624 0.925811 1.2754 0
M  V30 2789 C 262.871 0.565255 1.94451 0
M  V30 2790 C 263.199 -0.89316 1.7278 0
M  V30 2791 O 262.454 -1.65213 1.04895 0
M  V30 2792 C 262.753 0.835296 3.47502 0
M  V30 2793 C 262.419 2.27515 3.89291 0
M  V30 2794 C 261.081 2.66879 4.00411 0
M  V30 2795 C 263.433 3.21158 4.10496 0
M  V30 2796 C 260.761 3.99014 4.30122 0
M  V30 2797 C 263.113 4.52871 4.4169 0
M  V30 2798 C 261.777 4.92072 4.51023 0
M  V30 2799 H 261.047 0.206841 0.711546 0
M  V30 2800 H 263.694 1.16942 1.51647 0
M  V30 2801 H 261.999 0.148442 3.91519 0
M  V30 2802 H 263.696 0.535322 3.97411 0
M  V30 2803 H 260.286 1.95976 3.81171 0
M  V30 2804 H 264.47 2.9195 4.01346 0
M  V30 2805 H 259.726 4.2907 4.35556 0
M  V30 2806 H 263.9 5.25436 4.57045 0
M  V30 2807 H 261.527 5.9449 4.738 0
M  V30 2808 N 263.102 -1.41638 0.69111 0
M  V30 2809 C 264.032 -2.3347 0.037248 0
M  V30 2810 C 265.013 -1.51575 -0.771947 0
M  V30 2811 O 266.198 -1.80126 -0.72582 0
M  V30 2812 C 263.328 -3.35354 -0.903064 0
M  V30 2813 C 262.282 -4.27526 -0.201288 0
M  V30 2814 C 261.608 -5.19747 -1.25565 0
M  V30 2815 C 262.908 -5.13959 0.929689 0
M  V30 2816 H 264.602 -2.88397 0.804227 0
M  V30 2817 H 262.148 -1.38669 0.388189 0
M  V30 2818 H 264.101 -3.98519 -1.36969 0
M  V30 2819 H 262.825 -2.78767 -1.70166 0
M  V30 2820 H 261.484 -3.65779 0.245265 0
M  V30 2821 H 261.132 -4.59479 -2.04666 0
M  V30 2822 H 260.832 -5.8225 -0.791128 0
M  V30 2823 H 262.356 -5.85789 -1.72288 0
M  V30 2824 H 263.77 -5.70718 0.543546 0
M  V30 2825 H 262.167 -5.85379 1.32103 0
M  V30 2826 H 263.237 -4.51389 1.77133 0
M  V30 2827 N 264.58 -0.43555 -1.51462 0
M  V30 2828 C 265.996 -0.0877501 -1.59359 0
M  V30 2829 C 266.196 1.4027 -1.4466 0
M  V30 2830 O 265.252 2.17243 -1.28693 0
M  V30 2831 C 266.565 -0.606264 -2.94525 0
M  V30 2832 C 268.113 -0.566548 -3.0783 0
M  V30 2833 C 268.588 -1.06201 -4.45517 0
M  V30 2834 N 270.079 -1.01992 -4.51832 0
M  V30 2835 C 270.814 -1.37417 -5.5669 0
M  V30 2836 N 270.31 -1.80119 -6.68976 0
M  V30 2837 N 272.103 -1.29245 -5.47039 0
M  V30 2838 H 264.254 -1.40533 -1.59261 0
M  V30 2839 H 266.517 -0.578992 -0.750648 0
M  V30 2840 H 266.223 -1.64901 -3.10645 0
M  V30 2841 H 266.097 -0.0302097 -3.77188 0
M  V30 2842 H 268.484 0.467208 -2.91378 0
M  V30 2843 H 268.565 -1.17898 -2.2701 0
M  V30 2844 H 268.209 -2.09422 -4.62715 0
M  V30 2845 H 268.139 -0.426127 -5.24873 0
M  V30 2846 H 270.63 -0.706308 -3.71241 0
M  V30 2847 H 270.943 -2.05392 -7.45006 0
M  V30 2848 H 269.288 -1.84044 -6.70189 0
M  V30 2849 H 272.479 -0.957522 -4.58202 0
M  V30 2850 H 272.652 -1.57182 -6.28648 0
M  V30 2851 N 266.058 1.56714 -0.166846 0
M  V30 2852 C 267.005 2.17746 0.765193 0
M  V30 2853 C 267.975 1.11614 1.23011 0
M  V30 2854 O 269.16 1.39745 1.29908 0
M  V30 2855 C 266.3 2.81882 1.9909 0
M  V30 2856 C 265.413 4.02462 1.56997 0
M  V30 2857 C 264.548 4.54537 2.749 0
M  V30 2858 C 263.587 5.67538 2.29275 0
M  V30 2859 N 262.724 6.14142 3.40255 0
M  V30 2860 H 267.564 2.97048 0.237952 0
M  V30 2861 H 265.101 1.4672 0.105725 0
M  V30 2862 H 267.059 3.17221 2.70974 0
M  V30 2863 H 265.689 2.05191 2.49192 0
M  V30 2864 H 264.741 3.72973 0.748037 0
M  V30 2865 H 266.053 4.84273 1.19503 0
M  V30 2866 H 265.207 4.92035 3.54946 0
M  V30 2867 H 263.946 3.71774 3.1565 0
M  V30 2868 H 262.951 5.29597 1.47674 0
M  V30 2869 H 264.176 6.52099 1.89588 0
M  V30 2870 H 262.122 5.3431 3.8059 0
M  V30 2871 H 262.039 6.9093 3.06841 0
M  V30 2872 H 263.307 6.56289 4.206 0
M  V30 2873 N 267.536 -0.106894 1.57237 0
M  V30 2874 C 268.785 -0.811163 1.8467 0
M  V30 2875 C 269.098 -1.80469 0.754342 0
M  V30 2876 O 270.304 -2.55601 0.915439 0
M  V30 2877 C 268.76 -1.49337 3.27454 0
M  V30 2878 C 268.368 -0.540217 4.44731 0
M  V30 2879 C 270.112 -2.18206 3.64124 0
M  V30 2880 C 268.019 -1.22634 5.78545 0
M  V30 2881 H 266.949 -0.306679 0.688813 0
M  V30 2882 H 269.6 -0.0639887 1.83388 0
M  V30 2883 H 267.982 -2.2876 3.23241 0
M  V30 2884 H 269.156 0.221659 4.60267 0
M  V30 2885 H 267.471 0.042146 4.16379 0
M  V30 2886 H 270.068 -2.70253 4.61376 0
M  V30 2887 H 270.411 -2.96562 2.92158 0
M  V30 2888 H 270.944 -1.45658 3.70174 0
M  V30 2889 H 267.683 -0.483832 6.53712 0
M  V30 2890 H 267.203 -1.95993 5.66874 0
M  V30 2891 H 268.882 -1.75615 6.2271 0
M  V30 2892 N 269.014 -1.53014 -0.377408 0
M  V30 2893 C 270.263 -1.67845 -1.11853 0
M  V30 2894 C 270.576 -0.430625 -1.90801 0
M  V30 2895 O 271.782 -0.459261 -2.67587 0
M  V30 2896 C 270.238 -2.96668 -2.03756 0
M  V30 2897 C 269.846 -4.28671 -1.30175 0
M  V30 2898 C 271.59 -3.20865 -2.77932 0
M  V30 2899 C 269.497 -5.48591 -2.20911 0
M  V30 2900 H 268.427 -0.625343 -0.421263 0
M  V30 2901 H 271.078 -1.79514 -0.380409 0
M  V30 2902 H 269.46 -2.78773 -2.8125 0
M  V30 2903 H 270.634 -4.57157 -0.578259 0
M  V30 2904 H 268.949 -4.10825 -0.679108 0
M  V30 2905 H 271.546 -4.07642 -3.46024 0
M  V30 2906 H 271.889 -2.36424 -3.4265 0
M  V30 2907 H 272.422 -3.39379 -2.07525 0
M  V30 2908 H 269.161 -6.35474 -1.6079 0
M  V30 2909 H 268.681 -5.244 -2.91144 0
M  V30 2910 H 270.36 -5.8292 -2.80736 0
M  V30 2911 N 270.492 0.636531 -1.44174 0
M  V30 2912 C 271.44 1.76995 -1.50915 0
M  V30 2913 C 272.434 1.65053 -0.381295 0
M  V30 2914 O 273.64 1.71197 -0.55601 0
M  V30 2915 H 270.015 0.584247 -0.473455 0
M  V30 2916 H 271.986 1.68432 -2.4632 0
M  V30 2917 C 270.735 3.15314 -1.46534 0
M  V30 2918 H 270.058 3.25149 -2.32633 0
M  V30 2919 H 271.498 3.9453 -1.55312 0
M  V30 2920 C 269.957 3.3639 -0.185305 0
M  V30 2921 O 270.487 3.94699 0.746688 0
M  V30 2922 N 268.693 2.9046 -0.0901606 0
M  V30 2923 H 268.24 2.43193 -0.849416 0
M  V30 2924 H 268.198 3.04937 0.765553 0
M  V30 2925 N 271.97 1.30982 0.876444 0
M  V30 2926 C 272.92 1.14688 1.97055 0
M  V30 2927 C 273.904 0.0596593 1.60789 0
M  V30 2928 O 275.096 0.283892 1.74708 0
M  V30 2929 C 272.225 0.849627 3.3262 0
M  V30 2930 C 271.311 1.97752 3.75173 0
M  V30 2931 N 271.702 3.22384 3.89746 0
M  V30 2932 C 270 1.8758 4.04635 0
M  V30 2933 C 270.701 3.96121 4.25985 0
M  V30 2934 N 269.677 3.24237 4.36315 0
M  V30 2935 H 273.479 2.09204 2.06424 0
M  V30 2936 H 270.993 1.22445 1.06682 0
M  V30 2937 H 272.99 0.713895 4.10742 0
M  V30 2938 H 271.65 -0.087376 3.24582 0
M  V30 2939 H 272.661 3.57575 3.74647 0
M  V30 2940 H 269.338 1.01303 4.05024 0
M  V30 2941 H 270.728 5.03491 4.44911 0
M  V30 2942 N 273.449 -1.08991 1.13837 0
M  V30 2943 C 274.397 -2.17841 0.815347 0
M  V30 2944 C 275.391 -1.68164 -0.204233 0
M  V30 2945 O 276.597 -1.79897 -0.0609304 0
M  V30 2946 H 272.972 -0.710654 0.245915 0
M  V30 2947 H 274.943 -2.42315 1.74143 0
M  V30 2948 C 273.692 -3.46381 0.302614 0
M  V30 2949 H 273.015 -3.84979 1.0785 0
M  V30 2950 H 274.455 -4.23844 0.115074 0
M  V30 2951 C 272.914 -3.22556 -0.972591 0
M  V30 2952 O 273.444 -3.45599 -2.04754 0
M  V30 2953 N 271.65 -2.76134 -0.905455 0
M  V30 2954 H 271.197 -2.57582 -0.0305421 0
M  V30 2955 H 271.155 -2.60571 -1.75926 0
M  V30 2956 N 274.927 -0.932562 -1.27047 0
M  V30 2957 C 275.857 -0.452902 -2.29066 0
M  V30 2958 C 276.838 0.489338 -1.62909 0
M  V30 2959 O 278.023 0.393046 -1.90181 0
M  V30 2960 C 275.153 0.290698 -3.46081 0
M  V30 2961 C 274.107 -0.564168 -4.24265 0
M  V30 2962 C 273.433 0.308886 -5.33807 0
M  V30 2963 C 274.733 -1.83112 -4.89149 0
M  V30 2964 H 276.427 -1.30552 -2.69437 0
M  V30 2965 H 273.973 -0.629201 -1.29526 0
M  V30 2966 H 275.926 0.637233 -4.16554 0
M  V30 2967 H 274.65 1.17738 -3.0464 0
M  V30 2968 H 273.309 -0.893477 -3.55545 0
M  V30 2969 H 272.957 1.19467 -4.88607 0
M  V30 2970 H 272.657 -0.259633 -5.87026 0
M  V30 2971 H 274.181 0.650884 -6.07121 0
M  V30 2972 H 275.595 -1.55236 -5.51883 0
M  V30 2973 H 273.992 -2.34353 -5.52448 0
M  V30 2974 H 275.062 -2.54772 -4.12576 0
M  V30 2975 N 276.405 1.4127 -0.698611 0
M  V30 2976 C 277.816 1.84187 -0.305289 0
M  V30 2977 C 278.167 1.58449 1.15708 0
M  V30 2978 O 277.292 1.05651 1.88856 0
M  V30 2979 C 277.887 3.3435 -0.547314 0
M  V30 2980 C 276.446 3.75826 -0.207878 0
M  V30 2981 C 275.593 2.64647 -0.828099 0
M  V30 2982 H 278.544 1.30778 -0.89904 0
M  V30 2983 H 278.565 3.8001 0.192998 0
M  V30 2984 H 278.077 3.53051 -1.61172 0
M  V30 2985 H 276.178 3.62725 0.852143 0
M  V30 2986 H 276.291 4.74462 -0.665021 0
M  V30 2987 H 274.655 2.53395 -0.257458 0
M  V30 2988 H 275.438 2.86165 -1.89643 0
M  V30 2989 N 277.883 0.443576 1.51229 0
M  V30 2990 C 279.129 -0.120975 2.02439 0
M  V30 2991 C 279.462 -1.41815 1.32674 0
M  V30 2992 O 278.737 -1.89373 0.443622 0
M  V30 2993 C 279.02 -0.333291 3.58554 0
M  V30 2994 C 278.873 0.982968 4.38928 0
M  V30 2995 C 280.192 -1.10028 4.26124 0
M  V30 2996 H 277.311 -0.0424923 0.735774 0
M  V30 2997 H 279.953 0.583794 1.80809 0
M  V30 2998 H 278.103 -0.933614 3.77115 0
M  V30 2999 H 279.775 1.61775 4.32003 0
M  V30 3000 H 278.018 1.58611 4.03763 0
M  V30 3001 H 278.689 0.788379 5.46341 0
M  V30 3002 H 281.165 -0.591711 4.11871 0
M  V30 3003 H 280.041 -1.21761 5.35225 0
M  V30 3004 H 280.302 -2.12996 3.87408 0
M  V30 3005 N 279.361 -1.56624 0.175154 0
M  V30 3006 C 280.308 -2.18149 -0.753634 0
M  V30 3007 C 281.278 -1.12265 -1.22417 0
M  V30 3008 O 282.463 -1.40432 -1.29165 0
M  V30 3009 C 279.603 -2.82933 -1.97592 0
M  V30 3010 C 278.716 -4.03289 -1.5486 0
M  V30 3011 C 277.851 -4.55988 -2.72485 0
M  V30 3012 C 276.89 -5.68746 -2.26262 0
M  V30 3013 N 276.027 -6.15938 -3.36994 0
M  V30 3014 H 280.867 -2.9717 -0.222195 0
M  V30 3015 H 278.404 -1.46774 -0.0979422 0
M  V30 3016 H 280.362 -3.18653 -2.69288 0
M  V30 3017 H 278.992 -2.06509 -2.481 0
M  V30 3018 H 278.044 -3.73364 -0.728246 0
M  V30 3019 H 279.356 -4.849 -1.16933 0
M  V30 3020 H 278.51 -4.9391 -3.52332 0
M  V30 3021 H 277.249 -3.73443 -3.13674 0
M  V30 3022 H 276.254 -5.30372 -1.44863 0
M  V30 3023 H 277.479 -6.53095 -1.86127 0
M  V30 3024 H 275.425 -5.36321 -3.77751 0
M  V30 3025 H 275.342 -6.92548 -3.03172 0
M  V30 3026 H 276.61 -6.58511 -4.17114 0
M  V30 3027 N 280.839 0.0985539 -1.57292 0
M  V30 3028 C 281.787 1.1387 -2.02821 0
M  V30 3029 C 282.781 1.41676 -0.928666 0
M  V30 3030 O 283.987 1.41398 -1.11385 0
M  V30 3031 H 280.362 0.384419 -0.646317 0
M  V30 3032 H 282.333 0.728347 -2.89375 0
M  V30 3033 C 281.082 2.45166 -2.46554 0
M  V30 3034 H 280.405 2.24613 -3.3074 0
M  V30 3035 H 281.845 3.16456 -2.8219 0
M  V30 3036 C 280.304 3.09216 -1.33742 0
M  V30 3037 O 280.834 3.96163 -0.66464 0
M  V30 3038 N 279.04 2.69413 -1.08928 0
M  V30 3039 H 278.587 1.98801 -1.63817 0
M  V30 3040 H 278.545 3.12594 -0.336458 0
M  V30 3041 N 282.317 1.53212 0.369288 0
M  V30 3042 C 283.542 1.73423 1.1375 0
M  V30 3043 C 283.967 0.460404 1.82378 0
M  V30 3044 O 283.325 -0.585298 1.71592 0
M  V30 3045 C 283.373 2.89769 2.1463 0
M  V30 3046 O 282.477 2.58119 3.21634 0
M  V30 3047 H 281.818 0.576061 0.330227 0
M  V30 3048 H 284.348 2.00083 0.427547 0
M  V30 3049 H 284.358 3.15829 2.58294 0
M  V30 3050 H 283.033 3.8217 1.64071 0
M  V30 3051 H 281.61 2.42864 2.82969 0
M  V30 3052 N 283.795 -0.628877 1.44509 0
M  V30 3053 C 284.758 -1.72263 1.51188 0
M  V30 3054 C 285.758 -1.55907 0.39367 0
M  V30 3055 O 286.948 -1.61361 0.656377 0
M  V30 3056 C 284.08 -3.11365 1.38798 0
M  V30 3057 H 285.273 -1.67714 2.4862 0
M  V30 3058 H 282.826 -0.842737 1.31634 0
M  V30 3059 H 283.561 -3.21507 0.424693 0
M  V30 3060 H 283.346 -3.24644 2.19884 0
M  V30 3061 H 284.836 -3.91075 1.46458 0
M  V30 3062 N 285.273 -1.31445 -0.869486 0
M  V30 3063 C 286.522 -1.20517 -1.61736 0
M  V30 3064 C 286.835 0.235341 -1.94179 0
M  V30 3065 O 288.041 0.466312 -2.67465 0
M  V30 3066 C 286.497 -2.10982 -2.91573 0
M  V30 3067 C 286.105 -3.60032 -2.66611 0
M  V30 3068 C 287.849 -2.08856 -3.69567 0
M  V30 3069 C 285.756 -4.42503 -3.92358 0
M  V30 3070 H 284.686 -0.447493 -0.606849 0
M  V30 3071 H 287.337 -1.56303 -0.96133 0
M  V30 3072 H 285.719 -1.68095 -3.58553 0
M  V30 3073 H 286.893 -4.11167 -2.08035 0
M  V30 3074 H 285.208 -3.64139 -2.0197 0
M  V30 3075 H 287.805 -2.67716 -4.62852 0
M  V30 3076 H 288.148 -1.07582 -4.02159 0
M  V30 3077 H 288.681 -2.49945 -3.09471 0
M  V30 3078 H 285.42 -5.44533 -3.64916 0
M  V30 3079 H 284.94 -3.96125 -4.50383 0
M  V30 3080 H 286.619 -4.54741 -4.60238 0
M  V30 3081 N 286.751 1.08385 -1.14413 0
M  V30 3082 C 287.661 2.18856 -0.844951 0
M  V30 3083 C 288.677 1.73121 0.174668 0
M  V30 3084 O 289.853 2.014 0.00312857 0
M  V30 3085 C 286.918 3.45155 -0.32696 0
M  V30 3086 C 285.979 4.05513 -1.40916 0
M  V30 3087 C 285.212 5.25784 -0.915793 0
M  V30 3088 O 285.435 5.69884 0.242651 0
M  V30 3089 O 284.369 5.77545 -1.69487 0
M  V30 3090 H 288.195 2.46919 -1.76818 0
M  V30 3091 H 285.78 1.17524 -0.922411 0
M  V30 3092 H 287.662 4.21377 -0.0440211 0
M  V30 3093 H 286.337 3.18668 0.568539 0
M  V30 3094 H 285.244 3.30879 -1.74556 0
M  V30 3095 H 286.577 4.3625 -2.27919 0
M  V30 3096 N 288.23 0.939286 1.26551 0
M  V30 3097 C 289.178 0.43815 2.28436 0
M  V30 3098 C 290.172 -0.483587 1.62351 0
M  V30 3099 O 291.378 -0.362009 1.76322 0
M  V30 3100 H 287.753 0.123149 0.741848 0
M  V30 3101 H 289.724 1.31002 2.68106 0
M  V30 3102 C 288.473 -0.283052 3.46546 0
M  V30 3103 H 287.796 0.417043 3.97619 0
M  V30 3104 H 289.236 -0.597948 4.19763 0
M  V30 3105 C 287.695 -1.50018 3.01656 0
M  V30 3106 O 288.225 -2.59855 3.0633 0
M  V30 3107 N 286.431 -1.35608 2.57019 0
M  V30 3108 H 285.978 -0.46244 2.53415 0
M  V30 3109 H 285.936 -2.17165 2.27347 0
M  V30 3110 N 289.708 -1.40897 0.706093 0
M  V30 3111 C 290.936 -2.05373 0.250887 0
M  V30 3112 C 291.351 -1.53172 -1.10381 0
M  V30 3113 O 290.708 -0.684305 -1.69185 0
M  V30 3114 C 290.759 -3.6088 0.211571 0
M  V30 3115 O 290.48 -4.11153 1.51276 0
M  V30 3116 C 291.981 -4.42517 -0.263346 0
M  V30 3117 H 289.201 -0.66115 0.114552 0
M  V30 3118 H 291.745 -1.80479 0.961635 0
M  V30 3119 H 289.9 -3.84777 -0.450073 0
M  V30 3120 H 290.314 -5.05279 1.40689 0
M  V30 3121 H 291.788 -5.51479 -0.239718 0
M  V30 3122 H 292.265 -4.19396 -1.30397 0
M  V30 3123 H 292.871 -4.23708 0.367677 0
M  V30 3124 N 291.186 -0.45159 -1.50991 0
M  V30 3125 C 292.435 0.111653 -2.01391 0
M  V30 3126 C 292.748 1.42529 -1.33959 0
M  V30 3127 O 293.954 2.07232 -1.75405 0
M  V30 3128 C 292.41 0.249514 -3.59034 0
M  V30 3129 C 292.018 -1.05453 -4.35412 0
M  V30 3130 C 293.762 0.765762 -4.17536 0
M  V30 3131 C 291.669 -0.881529 -5.84793 0
M  V30 3132 H 290.599 0.0455022 -0.752626 0
M  V30 3133 H 293.25 -0.583524 -1.73975 0
M  V30 3134 H 291.632 1.00803 -3.82955 0
M  V30 3135 H 292.806 -1.82248 -4.23229 0
M  V30 3136 H 291.121 -1.50039 -3.88429 0
M  V30 3137 H 293.718 0.911913 -5.26866 0
M  V30 3138 H 294.061 1.75201 -3.77638 0
M  V30 3139 H 294.594 0.0651744 -3.97747 0
M  V30 3140 H 291.333 -1.84057 -6.29129 0
M  V30 3141 H 290.853 -0.153625 -5.99603 0
M  V30 3142 H 292.532 -0.540363 -6.4474 0
M  V30 3143 N 292.664 1.56529 -0.183458 0
M  V30 3144 C 293.574 2.22144 0.754272 0
M  V30 3145 C 294.59 1.21684 1.24374 0
M  V30 3146 O 295.766 1.54385 1.29333 0
M  V30 3147 C 292.831 2.85884 1.96141 0
M  V30 3148 C 291.892 4.01579 1.51765 0
M  V30 3149 C 291.125 4.6227 2.66725 0
M  V30 3150 O 291.348 4.21865 3.83909 0
M  V30 3151 O 290.282 5.51936 2.40104 0
M  V30 3152 H 294.108 3.02861 0.225527 0
M  V30 3153 H 291.693 1.49331 0.0453032 0
M  V30 3154 H 293.575 3.26253 2.66715 0
M  V30 3155 H 292.25 2.08154 2.47899 0
M  V30 3156 H 291.157 3.65856 0.781049 0
M  V30 3157 H 292.49 4.80938 1.04686 0
M  V30 3158 N 294.142 -0.090211 1.57342 0
M  V30 3159 C 295.09 -1.12792 2.03422 0
M  V30 3160 C 296.084 -1.41182 0.936166 0
M  V30 3161 O 297.29 -1.40805 1.12133 0
M  V30 3162 H 293.665 -0.380986 0.648347 0
M  V30 3163 H 295.636 -0.71299 2.89757 0
M  V30 3164 C 294.385 -2.43855 2.47851 0
M  V30 3165 H 293.708 -2.22855 3.31927 0
M  V30 3166 H 295.148 -3.14955 2.83865 0
M  V30 3167 C 293.607 -3.08503 1.3538 0
M  V30 3168 O 294.137 -3.95805 0.685641 0
M  V30 3169 N 292.343 -2.68831 1.10355 0
M  V30 3170 H 291.89 -1.97929 1.64869 0
M  V30 3171 H 291.848 -3.12412 0.353031 0
M  V30 3172 N 295.62 -1.53406 -0.361157 0
M  V30 3173 C 296.553 -1.74946 -1.46524 0
M  V30 3174 C 297.531 -0.59795 -1.51206 0
M  V30 3175 O 298.715 -0.831062 -1.69191 0
M  V30 3176 C 295.842 -1.83224 -2.84863 0
M  V30 3177 C 294.888 -3.05233 -2.97885 0
M  V30 3178 S 295.721 -4.6466 -2.66179 0
M  V30 3179 C 296.877 -4.75793 -4.06659 0
M  V30 3180 H 297.11 -2.68319 -1.28033 0
M  V30 3181 H 294.643 -1.44051 -0.555764 0
M  V30 3182 H 296.601 -1.88679 -3.64569 0
M  V30 3183 H 295.262 -0.908948 -3.00661 0
M  V30 3184 H 294.455 -3.07648 -3.9921 0
M  V30 3185 H 294.057 -2.97913 -2.26106 0
M  V30 3186 H 296.349 -4.5612 -5.0096 0
M  V30 3187 H 297.292 -5.7786 -4.09247 0
M  V30 3188 H 297.7 -4.04389 -3.93865 0
M  V30 3189 N 297.098 0.621204 -1.44841 0
M  V30 3190 C 298.328 1.40548 -1.51426 0
M  V30 3191 C 298.736 1.88673 -0.141083 0
M  V30 3192 O 298.079 1.62053 0.865128 0
M  V30 3193 C 298.141 2.65325 -2.42576 0
M  V30 3194 C 297.805 2.3893 -3.89566 0
M  V30 3195 C 298.802 2.00138 -4.79834 0
M  V30 3196 C 296.487 2.52263 -4.3436 0
M  V30 3197 C 298.481 1.75021 -6.129 0
M  V30 3198 C 296.168 2.2676 -5.67471 0
M  V30 3199 C 297.166 1.88199 -6.56559 0
M  V30 3200 O 296.854 1.62986 -7.87204 0
M  V30 3201 H 296.586 0.437122 -0.515655 0
M  V30 3202 H 299.14 0.765987 -1.90583 0
M  V30 3203 H 297.37 3.31947 -1.98364 0
M  V30 3204 H 299.059 3.27347 -2.39998 0
M  V30 3205 H 299.825 1.89386 -4.46495 0
M  V30 3206 H 295.704 2.81246 -3.65269 0
M  V30 3207 H 299.248 1.44848 -6.82396 0
M  V30 3208 H 295.145 2.37125 -6.00368 0
M  V30 3209 H 295.913 1.7715 -7.991 0
M  V30 3210 N 298.576 1.31904 0.862503 0
M  V30 3211 C 299.506 1.22782 1.98612 0
M  V30 3212 C 300.487 0.113362 1.69722 0
M  V30 3213 O 301.672 0.299218 1.91881 0
M  V30 3214 C 298.802 0.942058 3.34279 0
M  V30 3215 C 297.756 2.0169 3.77499 0
M  V30 3216 C 297.082 1.58369 5.10709 0
M  V30 3217 C 298.382 3.43096 3.93805 0
M  V30 3218 H 300.076 2.16788 2.06502 0
M  V30 3219 H 297.622 1.04366 0.992154 0
M  V30 3220 H 299.575 0.864818 4.1243 0
M  V30 3221 H 298.299 -0.0336603 3.26583 0
M  V30 3222 H 296.958 2.08416 3.01593 0
M  V30 3223 H 296.606 0.595628 4.99461 0
M  V30 3224 H 296.306 2.30279 5.40597 0
M  V30 3225 H 297.83 1.52067 5.91361 0
M  V30 3226 H 299.244 3.39003 4.62331 0
M  V30 3227 H 297.641 4.13288 4.35101 0
M  V30 3228 H 298.711 3.83334 2.96957 0
M  V30 3229 N 300.054 -1.07777 1.14986 0
M  V30 3230 C 300.986 -2.14769 0.800436 0
M  V30 3231 C 301.999 -1.61739 -0.185595 0
M  V30 3232 O 303.188 -1.78462 0.0370358 0
M  V30 3233 C 300.288 -3.38481 0.168533 0
M  V30 3234 C 299.461 -4.20876 1.1909 0
M  V30 3235 C 298.52 -5.22976 0.581575 0
M  V30 3236 O 297.546 -5.55388 1.24633 0
M  V30 3237 N 298.748 -5.76976 -0.638706 0
M  V30 3238 H 301.513 -2.45348 1.72118 0
M  V30 3239 H 299.074 -1.23645 1.04515 0
M  V30 3240 H 301.066 -4.03916 -0.251764 0
M  V30 3241 H 299.636 -3.05651 -0.655467 0
M  V30 3242 H 298.856 -3.51322 1.78791 0
M  V30 3243 H 300.144 -4.7274 1.88133 0
M  V30 3244 H 299.542 -5.52886 -1.19723 0
M  V30 3245 H 298.099 -6.44061 -1.00142 0
M  V30 3246 N 301.532 -0.945985 -1.26051 0
M  V30 3247 C 302.809 -0.513816 -1.88731 0
M  V30 3248 C 303.189 1.00872 -1.8544 0
M  V30 3249 O 302.537 1.8708 -1.312 0
M  V30 3250 C 302.747 -1.08062 -3.31849 0
M  V30 3251 C 304.095 -1.1522 -4.08668 0
M  V30 3252 O 305.119 -1.03155 -3.40936 0
M  V30 3253 O 303.978 -1.34044 -5.29806 0
M  V30 3254 H 301.072 -0.168193 -0.809716 0
M  V30 3255 H 303.618 -1.03886 -1.34186 0
M  V30 3256 H 302.39 -2.1241 -3.2863 0
M  V30 3257 H 302.013 -0.538307 -3.93939 0
M  V30 3258 N 303.011 1.40521 -0.713556 0
M  V30 3259 C 303.941 2.33381 -0.0743864 0
M  V30 3260 C 304.922 1.52784 0.747735 0
M  V30 3261 O 306.107 1.81258 0.697071 0
M  V30 3262 C 303.237 3.36748 0.849598 0
M  V30 3263 C 302.191 4.27793 0.133247 0
M  V30 3264 C 301.517 5.21679 1.17281 0
M  V30 3265 C 302.817 5.12415 -1.01134 0
M  V30 3266 H 304.511 2.87081 -0.850007 0
M  V30 3267 H 302.057 1.38034 -0.410201 0
M  V30 3268 H 304.01 4.00648 1.30612 0
M  V30 3269 H 302.734 2.81439 1.65709 0
M  V30 3270 H 301.393 3.65342 -0.303426 0
M  V30 3271 H 301.041 4.62677 1.9733 0
M  V30 3272 H 300.741 5.83435 0.698397 0
M  V30 3273 H 302.265 5.88456 1.62947 0
M  V30 3274 H 303.679 5.69781 -0.634274 0
M  V30 3275 H 302.076 5.83203 -1.41399 0
M  V30 3276 H 303.146 4.48514 -1.84292 0
M  V30 3277 N 304.489 0.459591 1.5075 0
M  V30 3278 C 305.766 -0.160371 1.94941 0
M  V30 3279 C 306.146 -1.58048 1.39943 0
M  V30 3280 O 305.494 -2.206 0.595629 0
M  V30 3281 C 305.704 -0.115432 3.48809 0
M  V30 3282 C 307.052 -0.310026 4.23467 0
M  V30 3283 O 308.076 -0.192543 3.55679 0
M  V30 3284 O 306.935 -0.546031 5.43765 0
M  V30 3285 H 304.029 -0.117925 0.818549 0
M  V30 3286 H 306.575 0.519169 1.61563 0
M  V30 3287 H 305.347 0.87652 3.81357 0
M  V30 3288 H 304.97 -0.836928 3.88692 0
M  V30 3289 N 305.967 -1.56429 0.191757 0
M  V30 3290 C 306.915 -2.20273 -0.747174 0
M  V30 3291 C 307.909 -1.17288 -1.22229 0
M  V30 3292 O 309.115 -1.35441 -1.18557 0
M  V30 3293 H 305.49 -0.705885 -0.259289 0
M  V30 3294 H 307.461 -2.97826 -0.184963 0
M  V30 3295 C 306.21 -2.87356 -1.95759 0
M  V30 3296 H 305.533 -3.66341 -1.60106 0
M  V30 3297 H 306.973 -3.3547 -2.59299 0
M  V30 3298 C 305.432 -1.88213 -2.79423 0
M  V30 3299 O 305.962 -1.38033 -3.7724 0
M  V30 3300 N 304.168 -1.56516 -2.44849 0
M  V30 3301 H 303.715 -1.97516 -1.65364 0
M  V30 3302 H 303.673 -0.904369 -3.01112 0
M  V30 3303 N 307.445 0.0818655 -1.57387 0
M  V30 3304 C 308.67 0.799946 -1.91352 0
M  V30 3305 C 309.095 1.70833 -0.787258 0
M  V30 3306 O 308.453 1.79419 0.26048 0
M  V30 3307 C 308.501 1.57812 -3.24234 0
M  V30 3308 O 307.605 2.68806 -3.12757 0
M  V30 3309 H 306.946 0.21891 -0.626877 0
M  V30 3310 H 309.476 0.0531256 -2.04531 0
M  V30 3311 H 309.486 1.95952 -3.57864 0
M  V30 3312 H 308.161 0.911548 -4.05788 0
M  V30 3313 H 306.738 2.33597 -2.90666 0
M  V30 3314 N 308.923 1.53595 0.353017 0
M  V30 3315 C 310.151 1.74311 1.1146 0
M  V30 3316 C 310.566 0.477854 1.82653 0
M  V30 3317 O 309.923 -0.549977 1.74016 0
M  V30 3318 C 309.974 2.91694 2.13534 0
M  V30 3319 O 309.695 4.13325 1.45238 0
M  V30 3320 C 311.196 3.24384 3.02142 0
M  V30 3321 H 308.416 0.582669 0.332773 0
M  V30 3322 H 310.96 2.00386 0.408107 0
M  V30 3323 H 309.115 2.67977 2.79763 0
M  V30 3324 H 309.529 4.79148 2.13349 0
M  V30 3325 H 311.003 4.09893 3.69718 0
M  V30 3326 H 311.48 2.40282 3.67643 0
M  V30 3327 H 312.086 3.50073 2.41514 0
M  V30 3328 N 310.401 -0.613514 1.45168 0
M  V30 3329 C 311.348 -1.72456 1.53387 0
M  V30 3330 C 312.318 -1.6169 0.380191 0
M  V30 3331 O 313.503 -1.81356 0.592836 0
M  V30 3332 C 310.643 -3.10753 1.50088 0
M  V30 3333 C 309.756 -3.32368 2.75963 0
M  V30 3334 C 308.891 -4.60737 2.64376 0
M  V30 3335 C 307.93 -4.7559 3.85332 0
M  V30 3336 N 307.067 -5.95253 3.72315 0
M  V30 3337 H 311.907 -1.64768 2.48305 0
M  V30 3338 H 309.444 -0.803503 1.23216 0
M  V30 3339 H 311.402 -3.90758 1.46164 0
M  V30 3340 H 310.032 -3.17413 0.587243 0
M  V30 3341 H 309.084 -2.4618 2.89999 0
M  V30 3342 H 310.396 -3.39218 3.65695 0
M  V30 3343 H 309.55 -5.48928 2.58385 0
M  V30 3344 H 308.289 -4.56275 1.72233 0
M  V30 3345 H 307.294 -3.85824 3.91688 0
M  V30 3346 H 308.519 -4.81854 4.78533 0
M  V30 3347 H 306.465 -5.91847 2.82937 0
M  V30 3348 H 306.382 -6.03236 4.55677 0
M  V30 3349 H 307.65 -6.85958 3.70246 0
M  V30 3350 N 311.879 -1.3236 -0.855495 0
M  V30 3351 C 312.809 -1.23833 -1.97958 0
M  V30 3352 C 313.79 -0.122361 -1.69659 0
M  V30 3353 O 314.975 -0.30939 -1.9172 0
M  V30 3354 C 312.105 -0.959772 -3.33775 0
M  V30 3355 C 311.059 -2.03689 -3.76424 0
M  V30 3356 C 310.385 -1.61075 -5.09862 0
M  V30 3357 C 311.685 -3.4518 -3.9198 0
M  V30 3358 H 313.379 -2.1788 -2.0535 0
M  V30 3359 H 310.925 -1.04891 -0.986605 0
M  V30 3360 H 312.878 -0.886678 -4.11966 0
M  V30 3361 H 311.602 0.0163404 -3.26596 0
M  V30 3362 H 310.261 -2.10012 -3.00484 0
M  V30 3363 H 309.909 -0.622107 -4.99138 0
M  V30 3364 H 309.609 -2.33143 -5.39368 0
M  V30 3365 H 311.133 -1.55201 -5.90546 0
M  V30 3366 H 312.547 -3.4145 -4.60526 0
M  V30 3367 H 310.944 -4.1559 -4.32903 0
M  V30 3368 H 312.014 -3.84903 -2.94919 0
M  V30 3369 N 313.357 1.07166 -1.15556 0
M  V30 3370 C 314.587 1.83248 -0.954133 0
M  V30 3371 C 314.995 1.82449 0.500911 0
M  V30 3372 O 314.338 1.23575 1.35923 0
M  V30 3373 C 314.4 3.31393 -1.39351 0
M  V30 3374 C 314.064 3.5591 -2.86666 0
M  V30 3375 C 315.061 3.49695 -3.8472 0
M  V30 3376 C 312.746 3.83515 -3.24379 0
M  V30 3377 C 314.74 3.70737 -5.18491 0
M  V30 3378 C 312.427 4.04209 -4.58321 0
M  V30 3379 C 313.425 3.97815 -5.55186 0
M  V30 3380 O 313.113 4.17954 -6.86709 0
M  V30 3381 H 312.845 0.584941 -0.338851 0
M  V30 3382 H 315.399 1.36169 -1.53777 0
M  V30 3383 H 313.629 3.79292 -0.75329 0
M  V30 3384 H 315.318 3.88945 -1.16089 0
M  V30 3385 H 316.084 3.28368 -3.56931 0
M  V30 3386 H 311.963 3.87605 -2.49567 0
M  V30 3387 H 315.507 3.65663 -5.94085 0
M  V30 3388 H 311.404 4.25023 -4.85825 0
M  V30 3389 H 312.172 4.35291 -6.93155 0
M  V30 3390 N 314.835 0.952656 1.25548 0
M  V30 3391 C 316.083 0.605176 1.92826 0
M  V30 3392 C 316.404 -0.860261 1.74999 0
M  V30 3393 O 315.674 -1.6125 1.11244 0
M  V30 3394 H 314.254 0.220832 0.713612 0
M  V30 3395 H 316.916 1.21047 1.52754 0
M  V30 3396 H 316.012 0.832798 3.00784 0
M  V30 3397 N 316.313 -1.40141 0.720998 0
M  V30 3398 C 317.26 -2.30688 0.071919 0
M  V30 3399 C 318.23 -1.48476 -0.744584 0
M  V30 3400 O 319.415 -1.77201 -0.707423 0
M  V30 3401 C 316.555 -3.34724 -0.839855 0
M  V30 3402 C 315.668 -4.31998 -0.0122438 0
M  V30 3403 C 314.803 -5.23102 -0.923995 0
M  V30 3404 C 313.842 -6.12033 -0.0907969 0
M  V30 3405 N 312.979 -6.95537 -0.957718 0
M  V30 3406 H 317.819 -2.85628 0.849755 0
M  V30 3407 H 315.356 -1.40653 0.430726 0
M  V30 3408 H 317.314 -3.93618 -1.38279 0
M  V30 3409 H 315.944 -2.81274 -1.58381 0
M  V30 3410 H 314.996 -3.74841 0.64794 0
M  V30 3411 H 316.308 -4.94772 0.632595 0
M  V30 3412 H 315.462 -5.86953 -1.53527 0
M  V30 3413 H 314.201 -4.60615 -1.60264 0
M  V30 3414 H 313.206 -5.47207 0.533377 0
M  V30 3415 H 314.431 -6.76581 0.584428 0
M  V30 3416 H 312.377 -6.35633 -1.62192 0
M  V30 3417 H 312.294 -7.55099 -0.36904 0
M  V30 3418 H 313.562 -7.63832 -1.555 0
M  V30 3419 N 317.792 -0.46758 -1.50504 0
M  V30 3420 C 319.02 0.0864133 -2.06719 0
M  V30 3421 C 319.435 1.33819 -1.33184 0
M  V30 3422 O 318.792 1.78061 -0.400083 0
M  V30 3423 C 318.843 0.378079 -3.59517 0
M  V30 3424 O 318.564 -0.824044 -4.3028 0
M  V30 3425 C 320.065 0.979426 -4.32345 0
M  V30 3426 H 317.285 -0.00551697 -0.670977 0
M  V30 3427 H 319.829 -0.655354 -1.93715 0
M  V30 3428 H 317.984 1.06977 -3.72337 0
M  V30 3429 H 318.398 -0.566518 -5.21432 0
M  V30 3430 H 319.872 1.1333 -5.40241 0
M  V30 3431 H 320.349 1.9686 -3.9261 0
M  V30 3432 H 320.955 0.326216 -4.24047 0
M  V30 3433 N 319.27 1.56325 -0.20005 0
M  V30 3434 C 320.518 1.97329 0.436547 0
M  V30 3435 C 320.839 1.08826 1.61808 0
M  V30 3436 O 320.109 0.160604 1.95241 0
M  V30 3437 H 318.689 0.728714 0.164272 0
M  V30 3438 H 321.351 1.92761 -0.287937 0
M  V30 3439 H 320.447 3.02264 0.777353 0
M  V30 3440 N 320.748 -0.0735177 1.57428 0
M  V30 3441 C 321.711 -1.07192 2.02589 0
M  V30 3442 C 322.711 -1.31695 0.922661 0
M  V30 3443 O 323.901 -1.27445 1.18758 0
M  V30 3444 C 321.033 -2.41599 2.40506 0
M  V30 3445 H 322.226 -0.682727 2.92025 0
M  V30 3446 H 319.779 -0.319193 1.53006 0
M  V30 3447 H 320.514 -2.85354 1.5409 0
M  V30 3448 H 320.299 -2.25156 3.21009 0
M  V30 3449 H 321.789 -3.13367 2.76027 0
M  V30 3450 N 322.226 -1.5378 -0.344866 0
M  V30 3451 C 323.474 -1.70625 -1.08311 0
M  V30 3452 C 323.795 -0.471447 -1.89215 0
M  V30 3453 O 323.065 0.514616 -1.8902 0
M  V30 3454 H 321.645 -0.629058 -0.402859 0
M  V30 3455 H 324.307 -1.9103 -0.386459 0
M  V30 3456 H 323.403 -2.57656 -1.76124 0
M  V30 3457 N 323.704 0.605807 -1.45491 0
M  V30 3458 C 324.951 1.36476 -1.49601 0
M  V30 3459 C 325.279 1.94007 -0.138452 0
M  V30 3460 O 324.534 1.75638 0.863114 0
M  V30 3461 C 324.833 2.53012 -2.52428 0
M  V30 3462 C 324.499 2.13617 -3.97087 0
M  V30 3463 C 323.161 2.02587 -4.36477 0
M  V30 3464 C 325.513 1.82899 -4.88055 0
M  V30 3465 C 322.841 1.59064 -5.64726 0
M  V30 3466 C 325.193 1.40861 -6.16718 0
M  V30 3467 C 323.857 1.28391 -6.55036 0
M  V30 3468 H 323.127 0.499402 -0.547429 0
M  V30 3469 H 325.774 0.684546 -1.78847 0
M  V30 3470 H 324.079 3.26379 -2.16758 0
M  V30 3471 H 325.776 3.1124 -2.52845 0
M  V30 3472 H 322.366 2.23129 -3.65939 0
M  V30 3473 H 326.55 1.90317 -4.58359 0
M  V30 3474 H 321.806 1.48034 -5.93208 0
M  V30 3475 H 325.98 1.16138 -6.86648 0
M  V30 3476 H 323.607 0.944403 -7.54311 0
M  V30 3477 N 325.182 1.32811 0.848464 0
M  V30 3478 C 326.41 1.26739 1.63538 0
M  V30 3479 C 326.825 -0.163484 1.88091 0
M  V30 3480 O 326.182 -1.10258 1.45429 0
M  V30 3481 C 326.233 2.03013 2.99112 0
M  V30 3482 O 325.954 3.40518 2.75643 0
M  V30 3483 C 327.455 2.04038 3.93552 0
M  V30 3484 H 324.675 0.437024 0.509167 0
M  V30 3485 H 327.219 1.75033 1.05753 0
M  V30 3486 H 325.374 1.58426 3.53525 0
M  V30 3487 H 325.788 3.79635 3.61908 0
M  V30 3488 H 327.262 2.61877 4.85926 0
M  V30 3489 H 327.739 1.0282 4.26995 0
M  V30 3490 H 328.345 2.486 3.45077 0
M  V30 3491 N 326.66 -1.06551 1.16123 0
M  V30 3492 C 327.623 -2.12132 0.867906 0
M  V30 3493 C 328.623 -1.60224 -0.135944 0
M  V30 3494 O 329.813 -1.73943 0.0946422 0
M  V30 3495 C 326.945 -3.396 0.297419 0
M  V30 3496 H 328.138 -2.39586 1.80385 0
M  V30 3497 H 325.691 -1.22574 0.969812 0
M  V30 3498 H 326.426 -3.17794 -0.64633 0
M  V30 3499 H 326.211 -3.78581 1.02073 0
M  V30 3500 H 327.701 -4.17455 0.110052 0
M  V30 3501 N 328.138 -0.959301 -1.25041 0
M  V30 3502 C 329.086 -0.474437 -2.2771 0
M  V30 3503 C 330.08 0.457697 -1.631 0
M  V30 3504 O 331.286 0.333912 -1.76876 0
M  V30 3505 H 327.661 -0.134936 -0.739795 0
M  V30 3506 H 329.632 -1.35251 -2.65988 0
M  V30 3507 C 328.381 0.227884 -3.46952 0
M  V30 3508 H 327.704 -0.480248 -3.96905 0
M  V30 3509 H 329.144 0.531091 -4.20661 0
M  V30 3510 C 327.603 1.452 -3.04004 0
M  V30 3511 O 328.133 2.54949 -3.10426 0
M  V30 3512 N 326.339 1.31502 -2.59144 0
M  V30 3513 H 325.886 0.422065 -2.54119 0
M  V30 3514 H 325.844 2.13521 -2.30773 0
M  V30 3515 N 329.616 1.39756 -0.72842 0
M  V30 3516 C 331.032 1.5442 -0.403308 0
M  V30 3517 C 331.232 1.69694 1.08656 0
M  V30 3518 O 330.288 1.69373 1.87267 0
M  V30 3519 C 331.601 2.76555 -1.18058 0
M  V30 3520 C 333.149 2.90384 -1.16815 0
M  V30 3521 C 333.624 4.15449 -1.92785 0
M  V30 3522 N 335.115 4.22475 -1.89918 0
M  V30 3523 C 335.85 5.1818 -2.45514 0
M  V30 3524 N 335.346 6.19714 -3.09719 0
M  V30 3525 N 337.139 5.1035 -2.35584 0
M  V30 3526 H 329.29 1.28089 -1.69431 0
M  V30 3527 H 331.553 0.620327 -0.716867 0
M  V30 3528 H 331.259 2.7159 -2.23455 0
M  V30 3529 H 331.133 3.69033 -0.780662 0
M  V30 3530 H 333.52 2.94846 -0.12234 0
M  V30 3531 H 333.601 1.98988 -1.6074 0
M  V30 3532 H 333.245 4.11749 -2.97364 0
M  V30 3533 H 333.175 5.05877 -1.46272 0
M  V30 3534 H 335.666 3.49743 -1.43138 0
M  V30 3535 H 335.979 6.8919 -3.49625 0
M  V30 3536 H 334.324 6.20121 -3.13807 0
M  V30 3537 H 337.515 4.2996 -1.85072 0
M  V30 3538 H 337.688 5.84761 -2.79211 0
M  V30 3539 N 331.094 0.475555 1.50254 0
M  V30 3540 C 332.322 -0.0754493 2.06762 0
M  V30 3541 C 332.737 -1.33111 1.33891 0
M  V30 3542 O 332.094 -1.77846 0.40952 0
M  V30 3543 C 332.145 -0.359008 3.59713 0
M  V30 3544 O 331.866 0.846851 4.29837 0
M  V30 3545 C 333.367 -0.956484 4.32858 0
M  V30 3546 H 330.587 0.00907525 0.670939 0
M  V30 3547 H 333.131 0.665618 1.93364 0
M  V30 3548 H 331.286 -1.05001 3.72899 0
M  V30 3549 H 331.7 0.594162 5.21124 0
M  V30 3550 H 333.174 -1.10463 5.40834 0
M  V30 3551 H 333.651 -1.94775 3.93649 0
M  V30 3552 H 334.257 -0.303723 4.24214 0
M  V30 3553 N 332.573 -1.56217 0.208337 0
M  V30 3554 C 333.503 -2.22694 -0.702116 0
M  V30 3555 C 334.484 -1.19432 -1.2112 0
M  V30 3556 O 335.669 -1.47978 -1.25762 0
M  V30 3557 C 332.799 -2.8966 -1.9161 0
M  V30 3558 C 331.753 -3.9928 -1.5414 0
M  V30 3559 C 331.079 -4.53476 -2.83308 0
M  V30 3560 C 332.379 -5.17012 -0.741339 0
M  V30 3561 H 334.073 -2.99034 -0.147898 0
M  V30 3562 H 331.619 -1.43831 -0.0696951 0
M  V30 3563 H 333.572 -3.34852 -2.55836 0
M  V30 3564 H 332.296 -2.10746 -2.49507 0
M  V30 3565 H 330.955 -3.54799 -0.922668 0
M  V30 3566 H 330.603 -3.71308 -3.39322 0
M  V30 3567 H 330.303 -5.27451 -2.58976 0
M  V30 3568 H 331.827 -5.01378 -3.485 0
M  V30 3569 H 333.241 -5.58667 -1.28699 0
M  V30 3570 H 331.638 -5.97137 -0.595627 0
M  V30 3571 H 332.708 -4.8423 0.254851 0
M  V30 3572 N 334.051 0.0651679 -1.57465 0
M  V30 3573 C 334.983 1.10359 -2.00882 0
M  V30 3574 C 335.996 1.346 -0.915788 0
M  V30 3575 O 337.185 1.32723 -1.1936 0
M  V30 3576 C 334.285 2.45312 -2.33828 0
M  V30 3577 C 333.458 2.40934 -3.65061 0
M  V30 3578 C 332.517 3.58047 -3.85602 0
M  V30 3579 O 331.543 3.39175 -4.57109 0
M  V30 3580 N 332.745 4.78637 -3.28462 0
M  V30 3581 H 335.51 0.733807 -2.90578 0
M  V30 3582 H 333.071 0.253719 -1.599 0
M  V30 3583 H 335.063 3.22314 -2.44737 0
M  V30 3584 H 333.633 2.74267 -1.49988 0
M  V30 3585 H 332.853 1.49273 -3.64844 0
M  V30 3586 H 334.141 2.35117 -4.51218 0
M  V30 3587 H 333.539 4.96872 -2.70433 0
M  V30 3588 H 332.096 5.53127 -3.44809 0
M  V30 3589 N 335.529 1.53961 0.336706 0
M  V30 3590 C 336.477 1.83136 1.43401 0
M  V30 3591 C 337.471 0.702313 1.54156 0
M  V30 3592 O 338.677 0.885765 1.56698 0
M  V30 3593 H 335.052 0.580309 0.478273 0
M  V30 3594 H 337.023 2.74925 1.16012 0
M  V30 3595 C 335.772 2.06385 2.79822 0
M  V30 3596 H 335.095 2.92718 2.72316 0
M  V30 3597 H 336.535 2.30761 3.55704 0
M  V30 3598 C 334.994 0.851414 3.25964 0
M  V30 3599 O 335.524 0.0541904 4.01663 0
M  V30 3600 N 333.73 0.66672 2.82848 0
M  V30 3601 H 333.277 1.31665 2.21409 0
M  V30 3602 H 333.235 -0.143032 3.14074 0
M  V30 3603 N 337.007 -0.598083 1.45811 0
M  V30 3604 C 338.255 -1.35413 1.50026 0
M  V30 3605 C 338.576 -1.94444 0.147177 0
M  V30 3606 O 337.846 -1.77701 -0.824571 0
M  V30 3607 H 336.426 -0.502727 0.552517 0
M  V30 3608 H 339.088 -0.701606 1.81834 0
M  V30 3609 H 338.184 -2.16871 2.2444 0
M  V30 3610 N 338.485 -1.33259 -0.841409 0
M  V30 3611 C 339.731 -1.25766 -1.59857 0
M  V30 3612 C 340.086 0.175602 -1.91597 0
M  V30 3613 O 339.379 1.117 -1.55672 0
M  V30 3614 C 339.573 -2.06381 -2.9179 0
M  V30 3615 C 339.402 -3.57401 -2.72937 0
M  V30 3616 C 338.172 -4.26718 -2.70628 0
M  V30 3617 C 340.37 -4.51786 -2.45753 0
M  V30 3618 N 338.352 -5.63705 -2.43125 0
M  V30 3619 C 339.723 -5.76643 -2.27777 0
M  V30 3620 C 341.778 -4.40898 -2.31329 0
M  V30 3621 C 340.481 -6.91842 -1.96841 0
M  V30 3622 C 342.507 -5.55911 -2.01786 0
M  V30 3623 C 341.869 -6.79776 -1.8462 0
M  V30 3624 H 337.968 -0.515406 -0.588117 0
M  V30 3625 H 340.552 -1.67772 -0.987955 0
M  V30 3626 H 338.723 -1.667 -3.50807 0
M  V30 3627 H 340.455 -1.90678 -3.56965 0
M  V30 3628 H 337.21 -3.78968 -2.84043 0
M  V30 3629 H 337.634 -6.35911 -2.32265 0
M  V30 3630 H 342.276 -3.45772 -2.43314 0
M  V30 3631 H 339.994 -7.86968 -1.83594 0
M  V30 3632 H 343.58 -5.49421 -1.91384 0
M  V30 3633 H 342.46 -7.67266 -1.62088 0
M  V30 3634 N 339.963 1.05934 -1.16686 0
M  V30 3635 C 341.21 1.788 -0.950622 0
M  V30 3636 C 341.538 1.87384 0.521305 0
M  V30 3637 O 340.793 1.36438 1.40297 0
M  V30 3638 C 341.092 3.23105 -1.52767 0
M  V30 3639 C 340.758 3.34594 -3.02254 0
M  V30 3640 C 339.42 3.37437 -3.43059 0
M  V30 3641 C 341.772 3.36219 -3.98254 0
M  V30 3642 C 339.1 3.39525 -4.78477 0
M  V30 3643 C 341.452 3.39845 -5.33562 0
M  V30 3644 C 340.116 3.40971 -5.73842 0
M  V30 3645 H 339.386 0.654275 -0.347857 0
M  V30 3646 H 342.033 1.24555 -1.45459 0
M  V30 3647 H 340.338 3.80227 -0.94524 0
M  V30 3648 H 342.035 3.7809 -1.336 0
M  V30 3649 H 338.625 3.3309 -2.6972 0
M  V30 3650 H 342.809 3.33231 -3.67792 0
M  V30 3651 H 338.065 3.38703 -5.09009 0
M  V30 3652 H 342.239 3.4005 -6.07733 0
M  V30 3653 H 339.866 3.42342 -6.78753 0
M  V30 3654 N 341.441 0.965919 1.2453 0
M  V30 3655 C 342.351 0.502154 2.29163 0
M  V30 3656 C 343.367 -0.436017 1.68448 0
M  V30 3657 O 344.543 -0.309497 1.99008 0
M  V30 3658 C 341.608 -0.201956 3.46111 0
M  V30 3659 C 340.669 0.775821 4.22232 0
M  V30 3660 C 339.902 0.105217 5.33596 0
M  V30 3661 O 340.125 -1.10683 5.59558 0
M  V30 3662 O 339.059 0.796475 5.96607 0
M  V30 3663 H 342.885 1.37194 2.70946 0
M  V30 3664 H 340.47 0.732875 1.30189 0
M  V30 3665 H 342.352 -0.597564 4.17142 0
M  V30 3666 H 341.027 -1.04673 3.06309 0
M  V30 3667 H 339.934 1.22185 3.53584 0
M  V30 3668 H 341.267 1.58896 4.65846 0
M  V30 3669 N 342.919 -1.39368 0.735821 0
M  V30 3670 C 344.167 -2.00101 0.283562 0
M  V30 3671 C 344.488 -1.5868 -1.13338 0
M  V30 3672 O 343.758 -0.835423 -1.77193 0
M  V30 3673 H 342.338 -0.740024 0.101851 0
M  V30 3674 H 345 -1.70404 0.945962 0
M  V30 3675 H 344.096 -3.10323 0.332604 0
M  V30 3676 N 344.397 -0.483516 -1.5 0
M  V30 3677 C 345.644 0.0671597 -2.02389 0
M  V30 3678 C 345.972 1.38597 -1.36459 0
M  V30 3679 O 345.227 1.89634 -0.483458 0
M  V30 3680 C 345.526 0.286226 -3.56252 0
M  V30 3681 C 345.192 -0.952416 -4.40726 0
M  V30 3682 C 343.854 -1.29199 -4.63531 0
M  V30 3683 C 346.206 -1.77655 -4.89988 0
M  V30 3684 C 343.534 -2.45553 -5.32842 0
M  V30 3685 C 345.886 -2.93147 -5.60578 0
M  V30 3686 C 344.55 -3.27505 -5.81633 0
M  V30 3687 H 343.82 0.0245755 -0.740592 0
M  V30 3688 H 346.467 -0.640124 -1.80485 0
M  V30 3689 H 344.772 1.07587 -3.76739 0
M  V30 3690 H 346.469 0.726473 -3.94365 0
M  V30 3691 H 343.059 -0.677881 -4.23205 0
M  V30 3692 H 347.243 -1.52737 -4.72213 0
M  V30 3693 H 342.499 -2.72431 -5.47349 0
M  V30 3694 H 346.673 -3.57344 -5.97727 0
M  V30 3695 H 344.3 -4.1777 -6.35116 0
M  V30 3696 N 345.875 1.56104 -0.216619 0
M  V30 3697 C 347.124 1.97348 0.416744 0
M  V30 3698 C 347.437 1.10715 1.6125 0
M  V30 3699 O 348.643 1.41836 2.31506 0
M  V30 3700 C 347.099 3.51059 0.792835 0
M  V30 3701 C 346.707 4.46387 -0.379828 0
M  V30 3702 C 348.451 4.01026 1.39208 0
M  V30 3703 C 346.358 5.91397 0.0184223 0
M  V30 3704 H 345.288 0.736942 0.159475 0
M  V30 3705 H 347.939 1.80827 -0.31205 0
M  V30 3706 H 346.321 3.63162 1.57891 0
M  V30 3707 H 347.495 4.46029 -1.15737 0
M  V30 3708 H 345.81 4.06734 -0.891979 0
M  V30 3709 H 348.407 5.0686 1.70286 0
M  V30 3710 H 348.75 3.46587 2.30614 0
M  V30 3711 H 349.283 3.92125 0.669537 0
M  V30 3712 H 346.022 6.49807 -0.862002 0
M  V30 3713 H 345.542 5.94961 0.760384 0
M  V30 3714 H 347.221 6.45455 0.446818 0
M  V30 3715 N 347.353 -0.0568162 1.57498 0
M  V30 3716 C 348.602 -0.752001 1.87157 0
M  V30 3717 C 348.915 -1.77978 0.811375 0
M  V30 3718 O 350.121 -2.52559 0.996293 0
M  V30 3719 C 348.577 -1.38844 3.3204 0
M  V30 3720 C 348.185 -0.398456 4.46225 0
M  V30 3721 C 349.929 -2.06512 3.70882 0
M  V30 3722 C 347.836 -1.04166 5.82154 0
M  V30 3723 H 346.766 -0.28461 0.698222 0
M  V30 3724 H 349.417 -0.00561272 1.83499 0
M  V30 3725 H 347.799 -2.1836 3.30356 0
M  V30 3726 H 348.973 0.367977 4.59328 0
M  V30 3727 H 347.288 0.174592 4.16034 0
M  V30 3728 H 349.885 -2.55437 4.6974 0
M  V30 3729 H 350.228 -2.87117 3.01445 0
M  V30 3730 H 350.761 -1.33808 3.7462 0
M  V30 3731 H 347.5 -0.275614 6.5492 0
M  V30 3732 H 347.02 -1.7786 5.72823 0
M  V30 3733 H 348.699 -1.55715 6.27982 0
M  V30 3734 N 348.832 -1.54138 -0.328536 0
M  V30 3735 C 350.057 -1.76378 -1.09112 0
M  V30 3736 C 350.482 -0.508596 -1.81094 0
M  V30 3737 O 349.84 0.539598 -1.73084 0
M  V30 3738 C 349.888 -2.95358 -2.06872 0
M  V30 3739 O 348.992 -2.66556 -3.14677 0
M  V30 3740 H 348.333 -0.584614 -0.314838 0
M  V30 3741 H 350.863 -2.01146 -0.374348 0
M  V30 3742 H 350.873 -3.22566 -2.4983 0
M  V30 3743 H 349.548 -3.86385 -1.5388 0
M  V30 3744 H 348.125 -2.50282 -2.7643 0
M  V30 3745 N 350.31 0.590341 -1.46126 0
M  V30 3746 C 351.257 1.69994 -1.56111 0
M  V30 3747 C 352.227 1.61065 -0.405867 0
M  V30 3748 O 353.412 1.8039 -0.621613 0
M  V30 3749 C 350.552 3.08326 -1.55013 0
M  V30 3750 C 349.665 3.27936 -2.81215 0
M  V30 3751 C 348.8 4.56473 -2.71673 0
M  V30 3752 C 347.839 4.694 -3.92849 0
M  V30 3753 N 346.976 5.89254 -3.81738 0
M  V30 3754 H 351.816 1.60797 -2.50895 0
M  V30 3755 H 349.353 0.783799 -1.24479 0
M  V30 3756 H 351.311 3.88383 -1.52362 0
M  V30 3757 H 349.941 3.16439 -0.637667 0
M  V30 3758 H 348.993 2.41536 -2.93879 0
M  V30 3759 H 350.305 3.33357 -3.71045 0
M  V30 3760 H 349.459 5.44748 -2.67085 0
M  V30 3761 H 348.198 4.53477 -1.7947 0
M  V30 3762 H 347.203 3.79544 -3.97777 0
M  V30 3763 H 348.428 4.7418 -4.86138 0
M  V30 3764 H 346.374 5.87271 -2.92317 0
M  V30 3765 H 346.291 5.95911 -4.65217 0
M  V30 3766 H 347.559 6.79981 -3.81112 0
M  V30 3767 N 351.788 1.33704 0.83433 0
M  V30 3768 C 353.013 1.28615 1.62705 0
M  V30 3769 C 353.438 -0.139242 1.87584 0
M  V30 3770 O 352.796 -1.09734 1.4432 0
M  V30 3771 C 352.844 2.07139 2.95171 0
M  V30 3772 O 351.948 1.4331 3.86699 0
M  V30 3773 H 351.289 0.44226 0.49528 0
M  V30 3774 H 353.819 1.76335 1.03766 0
M  V30 3775 H 353.829 2.18073 3.44831 0
M  V30 3776 H 352.504 3.10779 2.76386 0
M  V30 3777 H 351.081 1.4105 3.45195 0
M  V30 3778 N 353.266 -1.05314 1.17247 0
M  V30 3779 C 354.514 -1.77941 0.958194 0
M  V30 3780 C 354.835 -1.88089 -0.514556 0
M  V30 3781 O 354.105 -1.39676 -1.37359 0
M  V30 3782 H 352.685 -0.659116 0.351533 0
M  V30 3783 H 355.347 -1.27166 1.47699 0
M  V30 3784 H 354.443 -2.79663 1.38546 0
M  V30 3785 N 354.744 -0.972509 -1.24016 0
M  V30 3786 C 355.694 -0.477561 -2.22942 0
M  V30 3787 C 356.678 0.44308 -1.54679 0
M  V30 3788 O 357.87 0.273219 -1.74879 0
M  V30 3789 C 354.999 0.226348 -3.42553 0
M  V30 3790 C 354.085 -0.713403 -4.18057 0
M  V30 3791 N 354.476 -1.8527 -4.70647 0
M  V30 3792 C 352.774 -0.525145 -4.42898 0
M  V30 3793 C 353.475 -2.44089 -5.28011 0
M  V30 3794 N 352.451 -1.72556 -5.15486 0
M  V30 3795 H 356.253 -1.34678 -2.61226 0
M  V30 3796 H 353.767 -0.832196 -1.39457 0
M  V30 3797 H 355.764 0.598184 -4.12586 0
M  V30 3798 H 354.424 1.09195 -3.05788 0
M  V30 3799 H 355.435 -2.2341 -4.67235 0
M  V30 3800 H 352.112 0.296096 -4.16449 0
M  V30 3801 H 353.502 -3.40259 -5.79374 0
M  V30 3802 N 356.222 1.38976 -0.743202 0
M  V30 3803 C 357.169 2.30544 -0.10861 0
M  V30 3804 C 358.139 1.49642 0.720869 0
M  V30 3805 O 359.324 1.78304 0.679142 0
M  V30 3806 C 356.464 3.36018 0.786496 0
M  V30 3807 C 355.577 4.31963 -0.0564849 0
M  V30 3808 C 354.712 5.24506 0.840657 0
M  V30 3809 C 353.751 6.121 -0.00658363 0
M  V30 3810 N 352.888 6.96973 0.846943 0
M  V30 3811 H 357.728 2.8424 -0.895088 0
M  V30 3812 H 355.265 1.3995 -0.453048 0
M  V30 3813 H 357.223 3.95768 1.31999 0
M  V30 3814 H 355.853 2.83758 1.53887 0
M  V30 3815 H 354.905 3.73763 -0.707492 0
M  V30 3816 H 356.217 4.93703 -0.711229 0
M  V30 3817 H 355.371 5.89322 1.4417 0
M  V30 3818 H 354.11 4.63107 1.52916 0
M  V30 3819 H 353.115 5.46289 -0.620366 0
M  V30 3820 H 354.34 6.75565 -0.691992 0
M  V30 3821 H 352.286 6.38133 1.52059 0
M  V30 3822 H 352.203 7.5559 0.248864 0
M  V30 3823 H 353.471 7.6621 1.43328 0
M  V30 3824 N 357.7 0.491464 1.49741 0
M  V30 3825 C 358.93 -0.0534375 2.06531 0
M  V30 3826 C 359.338 -1.32233 1.35318 0
M  V30 3827 O 358.681 -1.78781 0.422243 0
M  V30 3828 C 358.743 -0.387034 3.57411 0
M  V30 3829 C 358.407 0.782764 4.50246 0
M  V30 3830 C 359.404 1.67059 4.92329 0
M  V30 3831 C 357.089 0.978866 4.9267 0
M  V30 3832 C 359.083 2.73874 5.75562 0
M  V30 3833 C 356.77 2.05022 5.75682 0
M  V30 3834 C 357.768 2.92851 6.17031 0
M  V30 3835 O 357.456 3.98138 6.98385 0
M  V30 3836 H 357.188 0.0129324 0.675876 0
M  V30 3837 H 359.742 0.685238 1.93633 0
M  V30 3838 H 357.972 -1.17918 3.68283 0
M  V30 3839 H 359.661 -0.869419 3.96479 0
M  V30 3840 H 360.427 1.53086 4.60206 0
M  V30 3841 H 356.306 0.304646 4.59992 0
M  V30 3842 H 359.85 3.42458 6.07757 0
M  V30 3843 H 355.747 2.18993 6.07217 0
M  V30 3844 H 356.515 3.95374 7.16674 0
M  V30 3845 N 359.178 -1.55987 0.224894 0
M  V30 3846 C 360.424 -1.98684 -0.406502 0
M  V30 3847 C 360.757 -1.11248 -1.59177 0
M  V30 3848 O 360.032 -0.170909 -1.93748 0
M  V30 3849 C 360.315 -3.50218 -0.837808 0
M  V30 3850 C 360.168 -4.48426 0.351332 0
M  V30 3851 C 361.487 -4.06243 -1.69278 0
M  V30 3852 H 358.606 -0.722337 -0.146283 0
M  V30 3853 H 361.248 -1.87255 0.321799 0
M  V30 3854 H 359.398 -3.60089 -1.45837 0
M  V30 3855 H 361.07 -4.50562 0.989526 0
M  V30 3856 H 359.313 -4.22159 0.998207 0
M  V30 3857 H 359.984 -5.52 0.00655905 0
M  V30 3858 H 362.46 -3.99337 -1.16914 0
M  V30 3859 H 361.336 -5.12581 -1.96346 0
M  V30 3860 H 361.597 -3.53332 -2.65723 0
M  V30 3861 N 360.656 0.0484629 -1.57525 0
M  V30 3862 C 361.903 0.743125 -1.88372 0
M  V30 3863 C 362.231 1.76383 -0.819715 0
M  V30 3864 O 361.486 1.94855 0.181659 0
M  V30 3865 C 361.785 1.46632 -3.25935 0
M  V30 3866 C 361.451 0.583427 -4.4711 0
M  V30 3867 C 360.113 0.340191 -4.79996 0
M  V30 3868 C 362.465 -0.0273345 -5.21193 0
M  V30 3869 C 359.793 -0.522903 -5.84365 0
M  V30 3870 C 362.145 -0.878017 -6.26477 0
M  V30 3871 C 360.809 -1.1309 -6.5785 0
M  V30 3872 H 360.079 0.271929 -0.689301 0
M  V30 3873 H 362.726 0.00336166 -1.915 0
M  V30 3874 H 361.031 2.2789 -3.18706 0
M  V30 3875 H 362.728 2.00902 -3.47044 0
M  V30 3876 H 359.318 0.783151 -4.21384 0
M  V30 3877 H 363.502 0.147654 -4.9608 0
M  V30 3878 H 358.758 -0.727335 -6.07058 0
M  V30 3879 H 362.932 -1.35789 -6.83033 0
M  V30 3880 H 360.559 -1.80144 -7.38547 0
M  V30 3881 N 362.134 1.5431 0.320358 0
M  V30 3882 C 363.38 1.72924 1.05949 0
M  V30 3883 C 363.713 0.503185 1.87568 0
M  V30 3884 O 362.988 -0.499839 1.87968 0
M  V30 3885 C 363.271 3.00676 1.98156 0
M  V30 3886 C 363.124 4.3354 1.19845 0
M  V30 3887 C 364.443 3.24198 2.9763 0
M  V30 3888 H 361.562 0.629195 0.383774 0
M  V30 3889 H 364.204 1.87008 0.335854 0
M  V30 3890 H 362.354 2.888 2.59859 0
M  V30 3891 H 364.026 4.57305 0.605773 0
M  V30 3892 H 362.269 4.309 0.500784 0
M  V30 3893 H 362.94 5.19156 1.87567 0
M  V30 3894 H 365.416 3.35557 2.4605 0
M  V30 3895 H 364.292 4.14938 3.59329 0
M  V30 3896 H 364.553 2.41577 3.7026 0
M  V30 3897 N 363.613 -0.582584 1.46437 0
M  V30 3898 C 364.838 -1.37168 1.55563 0
M  V30 3899 C 365.263 -1.87061 0.19743 0
M  V30 3900 O 364.621 -1.61572 -0.822451 0
M  V30 3901 C 364.669 -2.53511 2.56446 0
M  V30 3902 O 363.773 -3.54953 2.09958 0
M  V30 3903 H 363.114 -0.408494 0.523477 0
M  V30 3904 H 365.644 -0.706646 1.9201 0
M  V30 3905 H 365.654 -3.00426 2.76058 0
M  V30 3906 H 364.329 -2.16549 3.55076 0
M  V30 3907 H 362.906 -3.14516 2.00334 0
M  V30 3908 N 365.091 -1.34144 -0.827227 0
M  V30 3909 C 366.054 -1.25264 -1.91942 0
M  V30 3910 C 367.054 -0.168866 -1.59911 0
M  V30 3911 O 368.244 -0.421198 -1.69031 0
M  V30 3912 C 365.376 -0.932952 -3.27885 0
M  V30 3913 H 366.569 -2.22357 -2.0124 0
M  V30 3914 H 364.122 -1.1837 -1.0207 0
M  V30 3915 H 364.857 0.0349917 -3.24281 0
M  V30 3916 H 364.642 -1.71682 -3.52516 0
M  V30 3917 H 366.132 -0.895874 -4.07877 0
M  V30 3918 N 366.569 1.04691 -1.17803 0
M  V30 3919 C 367.499 2.14494 -0.92275 0
M  V30 3920 C 368.48 1.69546 0.137179 0
M  V30 3921 O 369.665 1.94195 -0.0141108 0
M  V30 3922 C 366.795 3.44491 -0.440803 0
M  V30 3923 C 365.749 4.03031 -1.4405 0
M  V30 3924 C 365.075 5.28432 -0.81631 0
M  V30 3925 C 366.375 4.39932 -2.81527 0
M  V30 3926 H 368.069 2.36107 -1.84103 0
M  V30 3927 H 365.615 1.1347 -0.886599 0
M  V30 3928 H 367.568 4.2066 -0.249602 0
M  V30 3929 H 366.292 3.22546 0.513025 0
M  V30 3930 H 364.951 3.28937 -1.61853 0
M  V30 3931 H 364.599 5.02792 0.144511 0
M  V30 3932 H 364.299 5.68559 -1.48371 0
M  V30 3933 H 365.823 6.07284 -0.635496 0
M  V30 3934 H 367.237 5.07113 -2.67412 0
M  V30 3935 H 365.634 4.9109 -3.44892 0
M  V30 3936 H 366.704 3.50045 -3.35554 0
M  V30 3937 N 368.047 0.979072 1.23499 0
M  V30 3938 C 369.275 0.665202 1.95915 0
M  V30 3939 C 369.69 -0.767571 1.72493 0
M  V30 3940 O 369.047 -1.51635 1.01554 0
M  V30 3941 C 369.098 0.944438 3.48945 0
M  V30 3942 O 368.819 2.3209 3.71572 0
M  V30 3943 C 370.32 0.646336 4.38563 0
M  V30 3944 H 367.54 0.247218 0.623798 0
M  V30 3945 H 370.084 1.31009 1.57025 0
M  V30 3946 H 368.239 0.345575 3.85856 0
M  V30 3947 H 368.653 2.40957 4.65876 0
M  V30 3948 H 370.127 0.892091 5.44744 0
M  V30 3949 H 370.604 -0.419575 4.37191 0
M  V30 3950 H 371.21 1.22562 4.07258 0
M  V30 3951 N 369.525 -1.3858 0.750561 0
M  V30 3952 C 370.773 -1.99789 0.30477 0
M  V30 3953 C 371.094 -1.59874 -1.11649 0
M  V30 3954 O 370.364 -0.85417 -1.76297 0
M  V30 3955 H 368.944 -0.738902 0.109694 0
M  V30 3956 H 371.606 -1.69391 0.963983 0
M  V30 3957 H 370.702 -3.09952 0.365499 0
M  V30 3958 N 371.003 -0.499398 -1.49478 0
M  V30 3959 C 371.951 0.293604 -2.3074 0
M  V30 3960 C 372.945 0.96427 -1.39277 0
M  V30 3961 O 374.151 0.892141 -1.56336 0
M  V30 3962 H 370.526 0.113541 -0.743379 0
M  V30 3963 H 372.497 -0.411772 -2.95545 0
M  V30 3964 C 371.246 1.3462 -3.20582 0
M  V30 3965 H 370.569 0.83954 -3.90886 0
M  V30 3966 H 372.009 1.87308 -3.80384 0
M  V30 3967 C 370.468 2.36351 -2.40083 0
M  V30 3968 O 370.998 3.422 -2.10385 0
M  V30 3969 N 369.204 2.0878 -2.02137 0
M  V30 3970 H 368.751 1.22723 -2.26488 0
M  V30 3971 H 368.709 2.77075 -1.48583 0
M  V30 3972 N 372.481 1.55866 -0.233164 0
M  V30 3973 C 373.411 2.23783 0.666599 0
M  V30 3974 C 374.392 1.21343 1.19205 0
M  V30 3975 O 375.577 1.4996 1.23392 0
M  V30 3976 C 372.707 2.92671 1.86978 0
M  V30 3977 C 371.661 4.01682 1.47768 0
M  V30 3978 C 370.987 4.57926 2.76058 0
M  V30 3979 C 372.287 5.18126 0.658993 0
M  V30 3980 H 373.981 2.99232 0.100306 0
M  V30 3981 H 371.527 1.43924 0.046804 0
M  V30 3982 H 373.48 3.3888 2.50476 0
M  V30 3983 H 372.204 2.14688 2.46123 0
M  V30 3984 H 370.863 3.56222 0.866106 0
M  V30 3985 H 370.511 3.76659 3.33372 0
M  V30 3986 H 370.211 5.31505 2.50552 0
M  V30 3987 H 371.735 5.06859 3.40479 0
M  V30 3988 H 373.149 5.60644 1.19795 0
M  V30 3989 H 371.546 5.98009 0.500552 0
M  V30 3990 H 372.616 4.83763 -0.331856 0
M  V30 3991 N 373.959 -0.0401083 1.57549 0
M  V30 3992 C 375.207 -0.731677 1.8839 0
M  V30 3993 C 375.528 -1.76481 0.829425 0
M  V30 3994 O 374.798 -1.95411 -0.1383 0
M  V30 3995 H 373.378 -0.273225 0.695239 0
M  V30 3996 H 376.04 -0.00867725 1.94898 0
M  V30 3997 H 375.136 -1.22816 2.86919 0
M  V30 3998 N 375.437 -1.54477 -0.31217 0
M  V30 3999 C 376.662 -1.77526 -1.07235 0
M  V30 4000 C 377.087 -0.527775 -1.80544 0
M  V30 4001 O 376.445 0.52121 -1.73646 0
M  V30 4002 C 376.493 -2.97535 -2.03728 0
M  V30 4003 O 375.597 -2.69878 -3.11833 0
M  V30 4004 H 374.938 -0.58792 -0.30862 0
M  V30 4005 H 377.468 -2.01532 -0.352993 0
M  V30 4006 H 377.478 -3.25198 -2.46395 0
M  V30 4007 H 376.153 -3.87996 -1.49774 0
M  V30 4008 H 374.73 -2.53199 -2.7376 0
M  V30 4009 N 376.915 0.57481 -1.46744 0
M  V30 4010 C 377.863 1.70435 -1.58286 0
M  V30 4011 C 378.857 1.63287 -0.450956 0
M  V30 4012 O 380.063 1.68685 -0.628121 0
M  V30 4013 H 376.438 0.56364 -0.497809 0
M  V30 4014 H 378.409 1.57833 -2.53242 0
M  V30 4015 C 377.158 3.08815 -1.59776 0
M  V30 4016 H 376.481 3.1499 -2.46214 0
M  V30 4017 H 377.921 3.87588 -1.71905 0
M  V30 4018 C 376.38 3.35301 -0.327812 0
M  V30 4019 O 376.91 3.97511 0.57861 0
M  V30 4020 N 375.116 2.89816 -0.213274 0
M  V30 4021 H 374.663 2.39371 -0.951798 0
M  V30 4022 H 374.621 3.0791 0.63553 0
M  V30 4023 N 378.394 1.34581 0.820102 0
M  V30 4024 C 379.324 1.29038 1.94606 0
M  V30 4025 C 380.305 0.1673 1.69275 0
M  V30 4026 O 381.49 0.360112 1.90832 0
M  V30 4027 C 378.62 1.04793 3.31113 0
M  V30 4028 C 377.574 2.13597 3.70891 0
M  V30 4029 C 376.9 1.74537 5.05412 0
M  V30 4030 C 378.2 3.55451 3.8269 0
M  V30 4031 H 379.894 2.23248 1.99501 0
M  V30 4032 H 377.44 1.0747 0.958449 0
M  V30 4033 H 379.393 0.995592 4.0947 0
M  V30 4034 H 378.117 0.0702565 3.26524 0
M  V30 4035 H 376.776 2.17905 2.9481 0
M  V30 4036 H 376.424 0.754226 4.97313 0
M  V30 4037 H 376.124 2.47361 5.32997 0
M  V30 4038 H 377.648 1.70803 5.86224 0
M  V30 4039 H 379.062 3.5354 4.51312 0
M  V30 4040 H 377.459 4.26922 4.21732 0
M  V30 4041 H 378.529 3.92587 2.84611 0
M  V30 4042 N 379.872 -1.04064 1.18357 0
M  V30 4043 C 381.1 -1.80916 1.00384 0
M  V30 4044 C 381.515 -1.83414 -0.447738 0
M  V30 4045 O 380.872 -1.26962 -1.31099 0
M  V30 4046 C 380.923 -3.26516 1.55144 0
M  V30 4047 O 380.644 -3.2424 2.94618 0
M  V30 4048 C 382.145 -4.20013 1.41789 0
M  V30 4049 H 379.365 -0.569728 0.354474 0
M  V30 4050 H 381.909 -1.31151 1.56906 0
M  V30 4051 H 380.064 -3.73512 1.02798 0
M  V30 4052 H 380.478 -4.15452 3.20156 0
M  V30 4053 H 381.952 -5.20111 1.84901 0
M  V30 4054 H 382.429 -4.37667 0.36661 0
M  V30 4055 H 383.035 -3.78881 1.93207 0
M  V30 4056 N 381.35 -0.985608 -1.22978 0
M  V30 4057 C 382.575 -0.675254 -1.961 0
M  V30 4058 C 383 0.752154 -1.72407 0
M  V30 4059 O 382.358 1.5131 -0.998751 0
M  V30 4060 C 382.406 -0.977899 -3.47087 0
M  V30 4061 O 381.51 -0.072685 -4.12336 0
M  V30 4062 H 380.851 -0.253443 -0.613728 0
M  V30 4063 H 383.381 -1.32061 -1.56272 0
M  V30 4064 H 383.391 -0.916739 -3.97567 0
M  V30 4065 H 382.066 -2.01807 -3.63657 0
M  V30 4066 H 380.643 -0.188703 -3.72422 0
M  V30 4067 N 382.828 1.3818 -0.7579 0
M  V30 4068 C 384.053 2.04827 -0.325679 0
M  V30 4069 C 384.478 1.56788 1.03919 0
M  V30 4070 O 383.836 0.721811 1.66312 0
M  V30 4071 C 383.884 3.58774 -0.362447 0
M  V30 4072 O 382.988 4.07372 0.642033 0
M  V30 4073 H 382.329 0.64833 -0.143402 0
M  V30 4074 H 384.859 1.7677 -1.03023 0
M  V30 4075 H 384.869 4.07434 -0.214844 0
M  V30 4076 H 383.544 3.93096 -1.35824 0
M  V30 4077 H 382.121 3.70068 0.458688 0
M  V30 4078 N 384.306 0.507319 1.49211 0
M  V30 4079 C 385.555 -0.0368315 2.01666 0
M  V30 4080 C 385.868 -1.37459 1.39156 0
M  V30 4081 O 387.074 -2.00579 1.82976 0
M  V30 4082 C 385.53 -0.116089 3.59713 0
M  V30 4083 C 385.138 1.2154 4.31198 0
M  V30 4084 C 386.882 -0.610268 4.2009 0
M  V30 4085 C 384.789 1.09796 5.81119 0
M  V30 4086 H 383.719 -0.0175376 0.753796 0
M  V30 4087 H 386.37 0.647691 1.71689 0
M  V30 4088 H 384.752 -0.8652 3.86433 0
M  V30 4089 H 385.926 1.9783 4.16173 0
M  V30 4090 H 384.241 1.64352 3.82593 0
M  V30 4091 H 386.838 -0.715742 5.29888 0
M  V30 4092 H 387.181 -1.61064 3.8388 0
M  V30 4093 H 387.714 0.0824916 3.97714 0
M  V30 4094 H 384.453 2.0728 6.21864 0
M  V30 4095 H 383.973 0.376058 5.9862 0
M  V30 4096 H 385.652 0.779281 6.4229 0
M  V30 4097 N 385.784 -1.5574 0.241426 0
M  V30 4098 C 386.731 -2.21149 -0.660432 0
M  V30 4099 C 387.701 -1.17356 -1.17545 0
M  V30 4100 O 388.886 -1.45784 -1.23093 0
M  V30 4101 C 386.026 -2.91059 -1.85414 0
M  V30 4102 C 385.139 -4.09495 -1.37616 0
M  V30 4103 C 384.274 -4.67135 -2.529 0
M  V30 4104 C 383.313 -5.77831 -2.01936 0
M  V30 4105 N 382.45 -6.29677 -3.10566 0
M  V30 4106 H 387.29 -2.97845 -0.095955 0
M  V30 4107 H 384.827 -1.47057 -0.0356024 0
M  V30 4108 H 386.785 -3.29788 -2.5553 0
M  V30 4109 H 385.415 -2.16846 -2.39118 0
M  V30 4110 H 384.467 -3.76117 -0.569235 0
M  V30 4111 H 385.779 -4.89423 -0.962618 0
M  V30 4112 H 384.933 -5.08409 -3.31067 0
M  V30 4113 H 383.672 -3.86411 -2.97553 0
M  V30 4114 H 382.677 -5.36039 -1.22238 0
M  V30 4115 H 383.902 -6.60402 -1.58259 0
M  V30 4116 H 381.848 -5.5186 -3.54664 0
M  V30 4117 H 381.765 -7.04783 -2.73526 0
M  V30 4118 H 383.033 -6.75609 -3.88809 0
M  V30 4119 N 387.262 0.0317525 -1.57568 0
M  V30 4120 C 388.225 1.01783 -2.0536 0
M  V30 4121 C 389.225 1.29203 -0.957253 0
M  V30 4122 O 390.415 1.24251 -1.22095 0
M  V30 4123 C 387.547 2.35137 -2.46827 0
M  V30 4124 H 388.74 0.605062 -2.93733 0
M  V30 4125 H 386.293 0.278514 -1.53799 0
M  V30 4126 H 387.028 2.81168 -1.61602 0
M  V30 4127 H 386.813 2.16566 -3.26866 0
M  V30 4128 H 388.303 3.05938 -2.84239 0
M  V30 4129 N 388.74 1.54641 0.303973 0
M  V30 4130 C 389.687 1.85386 1.37479 0
M  V30 4131 C 390.657 0.702528 1.50512 0
M  V30 4132 O 391.842 0.950867 1.65418 0
M  V30 4133 C 388.982 2.10413 2.73533 0
M  V30 4134 C 388.095 3.38049 2.68974 0
M  V30 4135 C 387.23 3.52934 3.97002 0
M  V30 4136 C 386.269 4.74373 3.86829 0
M  V30 4137 N 385.406 4.8608 5.06627 0
M  V30 4138 H 390.246 2.76732 1.1056 0
M  V30 4139 H 387.783 1.37034 0.534805 0
M  V30 4140 H 389.741 2.22919 3.52652 0
M  V30 4141 H 388.371 1.22338 2.98719 0
M  V30 4142 H 387.423 3.3418 1.81736 0
M  V30 4143 H 388.735 4.27288 2.57346 0
M  V30 4144 H 387.889 3.65088 4.84557 0
M  V30 4145 H 386.628 2.61824 4.1146 0
M  V30 4146 H 385.633 4.62255 2.97658 0
M  V30 4147 H 386.858 5.66888 3.73918 0
M  V30 4148 H 384.804 3.97891 5.21554 0
M  V30 4149 H 384.721 5.69315 4.9741 0
M  V30 4150 H 385.989 5.02587 5.95841 0
M  V30 4151 N 390.218 -0.567019 1.47046 0
M  V30 4152 C 391.165 -1.67489 1.58796 0
M  V30 4153 C 392.135 -1.60399 0.43144 0
M  V30 4154 O 393.32 -1.79378 0.650233 0
M  V30 4155 C 390.46 -3.05821 1.59899 0
M  V30 4156 C 389.573 -3.2342 2.86397 0
M  V30 4157 C 388.708 -4.52093 2.789 0
M  V30 4158 C 387.747 -4.6309 4.00267 0
M  V30 4159 N 386.884 -5.83106 3.91064 0
M  V30 4160 H 391.724 -1.56785 2.53422 0
M  V30 4161 H 389.261 -0.763896 1.2571 0
M  V30 4162 H 391.219 -3.8591 1.58522 0
M  V30 4163 H 389.849 -3.15384 0.687929 0
M  V30 4164 H 388.901 -2.3683 2.97684 0
M  V30 4165 H 390.213 -3.27412 3.76301 0
M  V30 4166 H 389.367 -5.4043 2.75718 0
M  V30 4167 H 388.106 -4.50565 1.86662 0
M  V30 4168 H 387.111 -3.73168 4.03765 0
M  V30 4169 H 388.336 -4.66386 4.93621 0
M  V30 4170 H 386.282 -5.82546 3.01623 0
M  V30 4171 H 386.199 -5.88434 4.74638 0
M  V30 4172 H 387.467 -6.73831 3.91882 0
M  V30 4173 N 391.696 -1.35014 -0.812953 0
M  V30 4174 C 392.644 -1.27435 -1.94585 0
M  V30 4175 C 393.638 -0.170494 -1.6854 0
M  V30 4176 O 394.844 -0.336085 -1.76835 0
M  V30 4177 H 391.219 -0.396144 -0.639198 0
M  V30 4178 H 393.19 -2.23158 -1.98098 0
M  V30 4179 C 391.939 -1.05677 -3.31252 0
M  V30 4180 H 391.262 -1.89853 -3.51846 0
M  V30 4181 H 392.702 -1.04413 -4.10943 0
M  V30 4182 C 391.161 0.239615 -3.36047 0
M  V30 4183 O 391.691 1.23759 -3.8216 0
M  V30 4184 N 389.897 0.276186 -2.89285 0
M  V30 4185 H 389.444 -0.53653 -2.51951 0
M  V30 4186 H 389.402 1.14332 -2.92875 0
M  V30 4187 N 393.175 1.03435 -1.18907 0
M  V30 4188 C 394.138 2.09756 -0.923844 0
M  V30 4189 C 395.138 1.60528 0.093416 0
M  V30 4190 O 396.328 1.73631 -0.140727 0
M  V30 4191 C 393.46 3.38692 -0.387354 0
M  V30 4192 H 394.653 2.34719 -1.86674 0
M  V30 4193 H 392.206 1.19959 -1.00197 0
M  V30 4194 H 392.941 3.19396 0.561845 0
M  V30 4195 H 392.726 3.75742 -1.12074 0
M  V30 4196 H 394.216 4.17016 -0.220694 0
M  V30 4197 N 394.653 0.992116 1.22453 0
M  V30 4198 C 395.902 0.662992 1.90492 0
M  V30 4199 C 396.215 -0.808407 1.78113 0
M  V30 4200 O 397.421 -1.24908 2.41061 0
M  V30 4201 C 395.877 1.1353 3.41524 0
M  V30 4202 C 395.485 2.63187 3.62542 0
M  V30 4203 C 397.229 0.880465 4.15269 0
M  V30 4204 C 395.136 3.04024 5.0727 0
M  V30 4205 H 394.066 0.244278 0.713333 0
M  V30 4206 H 396.717 1.20157 1.38688 0
M  V30 4207 H 395.099 0.52485 3.92506 0
M  V30 4208 H 396.273 3.2957 3.22056 0
M  V30 4209 H 394.588 2.86543 3.02129 0
M  V30 4210 H 397.185 1.16128 5.21937 0
M  V30 4211 H 397.528 -0.183408 4.15896 0
M  V30 4212 H 398.061 1.45307 3.70312 0
M  V30 4213 H 394.8 4.09584 5.11782 0
M  V30 4214 H 394.32 2.42343 5.48662 0
M  V30 4215 H 395.999 2.95282 5.75689 0
M  V30 4216 N 396.131 -1.37776 0.765217 0
M  V30 4217 C 397.359 -2.04124 0.337767 0
M  V30 4218 C 397.774 -1.57715 -1.03785 0
M  V30 4219 O 397.131 -0.755447 -1.6613 0
M  V30 4220 C 397.182 -3.59658 0.364442 0
M  V30 4221 O 396.903 -4.04367 1.68579 0
M  V30 4222 C 398.404 -4.43236 -0.0754221 0
M  V30 4223 H 395.624 -0.655696 0.142491 0
M  V30 4224 H 398.168 -1.76238 1.03732 0
M  V30 4225 H 396.323 -3.86339 -0.286471 0
M  V30 4226 H 396.737 -4.98857 1.61993 0
M  V30 4227 H 398.211 -5.52 -0.00560067 0
M  V30 4228 H 398.688 -4.2455 -1.12491 0
M  V30 4229 H 399.294 -4.21767 0.547055 0
M  V30 4230 N 397.609 -0.515225 -1.4894 0
M  V30 4231 C 398.858 0.0261361 -2.01683 0
M  V30 4232 C 399.171 1.36719 -1.39883 0
M  V30 4233 O 400.377 1.99606 -1.84037 0
M  V30 4234 C 398.833 0.0970111 -3.59769 0
M  V30 4235 C 398.441 -1.23825 -4.30548 0
M  V30 4236 C 400.185 0.587981 -4.20408 0
M  V30 4237 C 398.092 -1.12877 -5.80528 0
M  V30 4238 H 397.022 0.0135398 -0.753878 0
M  V30 4239 H 399.673 -0.656787 -1.71343 0
M  V30 4240 H 398.055 0.844694 -3.86886 0
M  V30 4241 H 399.229 -2.00034 -4.15118 0
M  V30 4242 H 397.544 -1.66379 -3.81716 0
M  V30 4243 H 400.141 0.68763 -5.3026 0
M  V30 4244 H 400.484 1.59026 -3.84729 0
M  V30 4245 H 401.017 -0.103582 -3.97665 0
M  V30 4246 H 397.756 -2.10575 -6.20756 0
M  V30 4247 H 397.276 -0.407799 -5.98412 0
M  V30 4248 H 398.955 -0.813332 -6.41868 0
M  V30 4249 N 399.087 1.5561 -0.249682 0
M  V30 4250 C 400.017 2.24477 0.642826 0
M  V30 4251 C 400.998 1.22601 1.17911 0
M  V30 4252 O 402.183 1.5126 1.21795 0
M  V30 4253 C 399.313 2.94638 1.83863 0
M  V30 4254 C 398.267 4.03227 1.435 0
M  V30 4255 C 397.593 4.60828 2.71186 0
M  V30 4256 C 398.893 5.18796 0.604002 0
M  V30 4257 H 400.587 2.99321 0.0685625 0
M  V30 4258 H 398.133 1.43965 0.0315363 0
M  V30 4259 H 400.086 3.41517 2.46868 0
M  V30 4260 H 398.81 2.17287 2.43832 0
M  V30 4261 H 397.469 3.57121 0.828275 0
M  V30 4262 H 397.117 3.80174 3.29358 0
M  V30 4263 H 396.817 5.34132 2.44901 0
M  V30 4264 H 398.341 5.10442 3.35084 0
M  V30 4265 H 399.755 5.61883 1.13842 0
M  V30 4266 H 398.152 5.98506 0.437097 0
M  V30 4267 H 399.222 4.83384 -0.383147 0
M  V30 4268 N 400.565 -0.0233959 1.57583 0
M  V30 4269 C 401.513 -1.04063 2.08023 0
M  V30 4270 C 402.507 -1.37084 0.995204 0
M  V30 4271 O 403.713 -1.35923 1.18004 0
M  V30 4272 H 400.088 -0.353144 0.663922 0
M  V30 4273 H 402.059 -0.589453 2.9252 0
M  V30 4274 C 400.808 -2.33123 2.57971 0
M  V30 4275 H 400.131 -2.08577 3.4108 0
M  V30 4276 H 401.571 -3.02632 2.96967 0
M  V30 4277 C 400.03 -3.02483 1.48342 0
M  V30 4278 O 400.56 -3.92541 0.852898 0
M  V30 4279 N 398.766 -2.63909 1.21658 0
M  V30 4280 H 398.313 -1.90758 1.73116 0
M  V30 4281 H 398.271 -3.10633 0.485218 0
M  V30 4282 N 402.043 -1.548 -0.295768 0
M  V30 4283 C 403.271 -1.78327 -1.04914 0
M  V30 4284 C 403.686 -0.545316 -1.80753 0
M  V30 4285 O 403.043 0.485013 -1.75937 0
M  V30 4286 C 403.094 -2.99418 -2.02561 0
M  V30 4287 O 402.815 -4.18431 -1.29798 0
M  V30 4288 C 404.316 -3.35375 -2.89895 0
M  V30 4289 H 401.536 -0.594618 -0.310918 0
M  V30 4290 H 404.08 -2.01763 -0.333454 0
M  V30 4291 H 402.235 -2.78175 -2.69624 0
M  V30 4292 H 402.649 -4.86736 -1.95419 0
M  V30 4293 H 404.123 -4.23332 -3.54251 0
M  V30 4294 H 404.6 -2.53761 -3.58472 0
M  V30 4295 H 405.206 -3.58796 -2.28355 0
M  V30 4296 N 403.521 0.559213 -1.47345 0
M  V30 4297 C 404.451 1.67622 -1.62558 0
M  V30 4298 C 405.432 1.63331 -0.475087 0
M  V30 4299 O 406.617 1.80983 -0.704182 0
M  V30 4300 C 403.747 3.0626 -1.63774 0
M  V30 4301 C 402.701 3.25397 -2.7803 0
M  V30 4302 C 402.027 4.64801 -2.64318 0
M  V30 4303 C 403.327 3.10965 -4.19641 0
M  V30 4304 H 405.021 1.55146 -2.56067 0
M  V30 4305 H 402.567 0.744961 -1.23233 0
M  V30 4306 H 404.52 3.84247 -1.73008 0
M  V30 4307 H 403.244 3.1969 -0.66825 0
M  V30 4308 H 401.903 2.49817 -2.68304 0
M  V30 4309 H 401.551 4.75028 -1.65401 0
M  V30 4310 H 401.251 4.78555 -3.40968 0
M  V30 4311 H 402.775 5.44926 -2.75478 0
M  V30 4312 H 404.189 3.78772 -4.30354 0
M  V30 4313 H 402.586 3.36229 -4.97062 0
M  V30 4314 H 403.656 2.07736 -4.38148 0
M  V30 4315 N 404.999 1.35443 0.805782 0
M  V30 4316 C 405.947 1.28465 1.93906 0
M  V30 4317 C 406.941 0.17943 1.68447 0
M  V30 4318 O 408.147 0.345459 1.76654 0
M  V30 4319 H 404.522 0.399528 0.637088 0
M  V30 4320 H 406.493 2.24206 1.96912 0
M  V30 4321 C 405.242 1.07432 3.30687 0
M  V30 4322 H 404.565 1.91716 3.50835 0
M  V30 4323 H 406.005 1.06591 4.10383 0
M  V30 4324 C 404.464 -0.22179 3.36169 0
M  V30 4325 O 404.994 -1.21731 3.82811 0
M  V30 4326 N 403.2 -0.260841 2.89427 0
M  V30 4327 H 402.747 0.549884 2.51663 0
M  V30 4328 H 402.705 -1.12777 2.93477 0
M  V30 4329 N 406.477 -1.02803 1.19454 0
M  V30 4330 C 407.407 -2.12999 0.956758 0
M  V30 4331 C 408.388 -1.69743 -0.110188 0
M  V30 4332 O 409.573 -1.94148 0.0450038 0
M  V30 4333 C 406.703 -3.43746 0.495553 0
M  V30 4334 C 405.657 -4.00688 1.50443 0
M  V30 4335 C 404.983 -5.27067 0.900275 0
M  V30 4336 C 406.283 -4.35397 2.8849 0
M  V30 4337 H 407.977 -2.33148 1.87836 0
M  V30 4338 H 405.523 -1.12045 0.904539 0
M  V30 4339 H 407.476 -4.2021 0.316493 0
M  V30 4340 H 406.2 -3.23321 -0.461646 0
M  V30 4341 H 404.859 -3.2632 1.67065 0
M  V30 4342 H 404.507 -5.02959 -0.064503 0
M  V30 4343 H 404.207 -5.66127 1.57397 0
M  V30 4344 H 405.731 -6.06196 0.73203 0
M  V30 4345 H 407.145 -5.02795 2.75446 0
M  V30 4346 H 405.542 -4.85541 3.52661 0
M  V30 4347 H 406.612 -3.44662 3.41081 0
M  V30 4348 O 407.994 -1.12654 -1.15721 0
M  V30 4349 H 408.685 -0.83899 -1.74587 0
M  V30 END ATOM
M  V30 BEGIN BOND
M  V30 END BOND
M  V30 END CTAB
M  END
$$$$
