drugbank_target|P06241 Tyrosine-protein kinase Fyn (DB01254; DB02078; DB12010)
 OpenBabel12092119413D

  0  0  0     0  0            999 V3000
M  V30 BEGIN CTAB
M  V30 COUNTS 8469 8571 0 0 0
M  V30 BEGIN ATOM
M  V30 1 H -0.908 1.98254 -0.117106 0
M  V30 2 N 0 1.576 0 0
M  V30 3 C 0.933 2.03868 1.02534 0
M  V30 4 C 1.911 0.928543 1.3348 0
M  V30 5 O 3.095 1.19667 1.45644 0
M  V30 6 C 0.222 2.43627 2.35294 0
M  V30 7 C -0.732 3.65373 2.2001 0
M  V30 8 S 0.101 5.13292 1.52614 0
M  V30 9 C 1.257 5.56322 2.86805 0
M  V30 10 H 1.49 2.90518 0.631377 0
M  V30 11 H -0.977 1.52953 0.210867 0
M  V30 12 H 0.981 2.67203 3.11629 0
M  V30 13 H -0.358 1.57376 2.7183 0
M  V30 14 H -1.165 3.90944 3.18086 0
M  V30 15 H -1.563 3.418 1.51819 0
M  V30 16 H 0.729 5.58782 3.83104 0
M  V30 17 H 1.672 6.56266 2.65933 0
M  V30 18 H 2.08 4.83886 2.90714 0
M  V30 19 N 1.4781 -0.272755 1.55222 0
M  V30 20 C 2.7261 -1.00234 1.75492 0
M  V30 21 C 3.0471 -1.8681 0.5592 0
M  V30 22 O 2.3171 -1.91215 -0.425882 0
M  V30 23 H 0.8971 -0.373076 0.647166 0
M  V30 24 H 3.5591 -0.296926 1.92625 0
M  V30 25 H 2.6551 -1.63913 2.65592 0
M  V30 26 N 2.9562 -1.48159 -0.537278 0
M  V30 27 C 4.1962 -1.57397 -1.30405 0
M  V30 28 C 4.5602 -0.239202 -1.90504 0
M  V30 29 O 5.7612 -0.206528 -2.68005 0
M  V30 30 C 4.0322 -2.6754 -2.36974 0
M  V30 31 S 5.5912 -2.96496 -3.23475 0
M  V30 32 H 2.4092 -0.555577 -0.443684 0
M  V30 33 H 5.0112 -1.85644 -0.612912 0
M  V30 34 H 3.7152 -3.63092 -1.91291 0
M  V30 35 H 3.2462 -2.41172 -3.10805 0
M  V30 36 H 5.2612 -2.35234 -4.36897 0
M  V30 37 N 4.4343 0.785586 -1.36625 0
M  V30 38 C 5.6803 1.54591 -1.31261 0
M  V30 39 C 6.0133 1.93906 0.106823 0
M  V30 40 O 5.2883 1.63007 1.06108 0
M  V30 41 C 5.5713 2.82038 -2.23889 0
M  V30 42 C 5.4243 2.49066 -3.74548 0
M  V30 43 C 6.7433 3.83887 -2.15217 0
M  V30 44 H 3.8623 0.560846 -0.478143 0
M  V30 45 H 6.5043 0.902278 -1.67209 0
M  V30 46 H 4.6543 3.36961 -1.93363 0
M  V30 47 H 6.3263 2.00164 -4.15611 0
M  V30 48 H 4.5693 1.81954 -3.93796 0
M  V30 49 H 5.2403 3.40109 -4.34776 0
M  V30 50 H 7.7163 3.38421 -2.42096 0
M  V30 51 H 6.5923 4.70806 -2.82193 0
M  V30 52 H 6.8533 4.27131 -1.14068 0
M  V30 53 N 5.9124 1.20967 1.01018 0
M  V30 54 C 6.8444 0.922059 2.09835 0
M  V30 55 C 7.8574 -0.0927106 1.62536 0
M  V30 56 O 9.0464 0.139127 1.77957 0
M  V30 57 C 6.1464 0.362004 3.36961 0
M  V30 58 C 5.3194 1.42986 4.13369 0
M  V30 59 C 4.3784 0.879976 5.1879 0
M  V30 60 O 3.4044 1.56219 5.47343 0
M  V30 61 N 4.6064 -0.307396 5.79686 0
M  V30 62 H 7.3714 1.8588 2.35093 0
M  V30 63 H 4.9324 1.11422 1.1746 0
M  V30 64 H 6.9244 -0.0201474 4.04695 0
M  V30 65 H 5.4944 -0.479437 3.08902 0
M  V30 66 H 4.7144 1.98608 3.40512 0
M  V30 67 H 6.0024 2.14885 4.61196 0
M  V30 68 H 5.4004 -0.878796 5.58832 0
M  V30 69 H 3.9574 -0.631115 6.48737 0
M  V30 70 N 7.3905 -1.2043 1.01659 0
M  V30 71 C 8.6305 -1.91507 0.714456 0
M  V30 72 C 8.9945 -1.77073 -0.742237 0
M  V30 73 O 10.1955 -2.42631 -1.15688 0
M  V30 74 C 8.4665 -3.38795 1.13809 0
M  V30 75 S 10.0255 -4.28216 0.957925 0
M  V30 76 H 6.8435 -0.661571 0.260471 0
M  V30 77 H 9.4455 -1.45671 1.30384 0
M  V30 78 H 8.1495 -3.46822 2.19415 0
M  V30 79 H 7.6805 -3.89656 0.541474 0
M  V30 80 H 9.6955 -4.96007 -0.138531 0
M  V30 81 N 8.8686 -0.792821 -1.36206 0
M  V30 82 C 9.8156 -0.191653 -2.30003 0
M  V30 83 C 10.7856 0.666453 -1.52143 0
M  V30 84 O 11.9706 0.61442 -1.80636 0
M  V30 85 C 9.1106 0.664848 -3.38635 0
M  V30 86 C 8.2236 -0.212175 -4.31479 0
M  V30 87 C 7.3586 0.651022 -5.27196 0
M  V30 88 C 6.3976 -0.227247 -6.11678 0
M  V30 89 N 5.5346 0.595127 -6.99573 0
M  V30 90 H 10.3746 -0.996978 -2.80828 0
M  V30 91 H 7.9116 -0.503206 -1.38225 0
M  V30 92 H 9.8696 1.17645 -4.00269 0
M  V30 93 H 8.4996 1.43557 -2.89122 0
M  V30 94 H 7.5516 -0.841777 -3.70969 0
M  V30 95 H 8.8636 -0.888751 -4.90818 0
M  V30 96 H 8.0176 1.2283 -5.94136 0
M  V30 97 H 6.7566 1.36121 -4.68319 0
M  V30 98 H 5.7616 -0.816904 -5.43697 0
M  V30 99 H 6.9866 -0.93509 -6.72631 0
M  V30 100 H 4.9326 1.28955 -6.432 0
M  V30 101 H 4.8496 -0.0236952 -7.55996 0
M  V30 102 H 6.1176 1.15613 -7.70879 0
M  V30 103 N 10.3467 1.47872 -0.545128 0
M  V30 104 C 11.6237 1.9554 0.0485222 0
M  V30 105 C 12.0037 1.4876 1.49779 0
M  V30 106 O 11.3517 0.720925 2.16829 0
M  V30 107 C 11.5617 3.48898 -0.084417 0
M  V30 108 C 12.9097 4.24547 0.0671239 0
M  V30 109 O 13.9337 3.56198 -0.0113649 0
M  V30 110 O 12.7927 5.45999 0.233882 0
M  V30 111 H 9.8867 0.823957 0.0708773 0
M  V30 112 H 12.4327 1.58327 -0.610798 0
M  V30 113 H 11.2047 3.75714 -1.09337 0
M  V30 114 H 10.8277 3.92845 0.613066 0
M  V30 115 N 11.8248 0.280983 1.55075 0
M  V30 116 C 12.7718 -0.603937 2.22758 0
M  V30 117 C 13.7418 -1.1452 1.20309 0
M  V30 118 O 14.9268 -1.19343 1.48869 0
M  V30 119 C 12.0668 -1.77947 2.95684 0
M  V30 120 C 11.1798 -1.2715 4.12864 0
M  V30 121 C 10.3148 -2.4093 4.7342 0
M  V30 122 C 9.3538 -1.87165 5.82783 0
M  V30 123 N 8.4908 -2.94441 6.37377 0
M  V30 124 H 13.3308 -0.020124 2.97993 0
M  V30 125 H 10.8678 0.00183425 1.471 0
M  V30 126 H 12.8258 -2.47055 3.36184 0
M  V30 127 H 11.4558 -2.33522 2.22861 0
M  V30 128 H 10.5078 -0.473331 3.77444 0
M  V30 129 H 11.8198 -0.837751 4.91715 0
M  V30 130 H 10.9738 -3.18021 5.1667 0
M  V30 131 H 9.7128 -2.87623 3.93859 0
M  V30 132 H 8.7178 -1.08556 5.38976 0
M  V30 133 H 9.9428 -1.41401 6.64216 0
M  V30 134 H 7.8888 -3.40505 5.60707 0
M  V30 135 H 7.8058 -2.55501 7.11516 0
M  V30 136 H 9.0738 -3.71489 6.85285 0
M  V30 137 N 13.3029 -1.57598 0.00835791 0
M  V30 138 C 14.2129 -2.12385 -0.996487 0
M  V30 139 C 15.2289 -1.07108 -1.37127 0
M  V30 140 O 16.4049 -1.39055 -1.4569 0
M  V30 141 C 13.4699 -2.62314 -2.26699 0
M  V30 142 C 12.5309 -3.82225 -1.95456 0
M  V30 143 C 11.7639 -4.29763 -3.16449 0
M  V30 144 O 11.9869 -3.76584 -4.28416 0
M  V30 145 O 10.9209 -5.21832 -2.99958 0
M  V30 146 H 14.7469 -2.98479 -0.560725 0
M  V30 147 H 12.3319 -1.47903 -0.210987 0
M  V30 148 H 14.2139 -2.94589 -3.01322 0
M  V30 149 H 12.8889 -1.79313 -2.69497 0
M  V30 150 H 11.7959 -3.54909 -1.18282 0
M  V30 151 H 13.1289 -4.66324 -1.57489 0
M  V30 152 N 14.781 0.264519 -1.55364 0
M  V30 153 C 15.744 1.31046 -1.88042 0
M  V30 154 C 16.744 1.41943 -0.755569 0
M  V30 155 O 17.934 1.40947 -1.02369 0
M  V30 156 C 15.066 2.69067 -2.09323 0
M  V30 157 H 16.259 1.03297 -2.81549 0
M  V30 158 H 13.812 0.502989 -1.47986 0
M  V30 159 H 14.547 3.01982 -1.18226 0
M  V30 160 H 14.332 2.62542 -2.91229 0
M  V30 161 H 15.822 3.44623 -2.35848 0
M  V30 162 N 16.2591 1.48442 0.529413 0
M  V30 163 C 17.4871 1.60151 1.30994 0
M  V30 164 C 17.9021 0.261985 1.86973 0
M  V30 165 O 17.2591 -0.748805 1.66431 0
M  V30 166 C 17.3101 2.64854 2.46038 0
M  V30 167 O 17.0311 3.93608 1.92365 0
M  V30 168 C 18.5321 2.87007 3.37849 0
M  V30 169 H 15.7521 0.539971 0.398338 0
M  V30 170 H 18.2961 1.94273 0.638597 0
M  V30 171 H 16.4511 2.33589 3.09055 0
M  V30 172 H 16.8651 4.51055 2.67675 0
M  V30 173 H 18.3391 3.64068 4.14919 0
M  V30 174 H 18.8161 1.95852 3.93114 0
M  V30 175 H 19.4221 3.19579 2.80623 0
M  V30 176 N 17.7372 -0.778329 1.37039 0
M  V30 177 C 18.6842 -1.89139 1.32269 0
M  V30 178 C 19.6542 -1.65017 0.189387 0
M  V30 179 O 20.8392 -1.87024 0.377693 0
M  V30 180 C 17.9792 -3.26112 1.12894 0
M  V30 181 C 17.0922 -3.62233 2.35396 0
M  V30 182 C 16.2272 -4.8838 2.08946 0
M  V30 183 C 15.2662 -5.17212 3.2735 0
M  V30 184 N 14.4032 -6.34546 3.00492 0
M  V30 185 H 19.2432 -1.92552 2.27437 0
M  V30 186 H 16.7802 -0.941473 1.13025 0
M  V30 187 H 18.7382 -4.05116 0.996835 0
M  V30 188 H 17.3682 -3.22091 0.213758 0
M  V30 189 H 16.4202 -2.78265 2.5937 0
M  V30 190 H 17.7322 -3.79481 3.23721 0
M  V30 191 H 16.8862 -5.75274 1.92729 0
M  V30 192 H 15.6252 -4.73222 1.17949 0
M  V30 193 H 14.6302 -4.28796 3.44113 0
M  V30 194 H 15.8552 -5.34283 4.19188 0
M  V30 195 H 13.8012 -6.20759 2.12118 0
M  V30 196 H 13.7182 -6.52179 3.82358 0
M  V30 197 H 14.9862 -7.24394 2.87879 0
M  V30 198 N 19.2153 -1.21501 -1.00376 0
M  V30 199 C 20.1453 -0.999478 -2.11028 0
M  V30 200 C 21.1263 0.0759671 -1.6993 0
M  V30 201 O 22.3113 -0.0841106 -1.94018 0
M  V30 202 C 19.4413 -0.564709 -3.42678 0
M  V30 203 C 18.3953 -1.58486 -3.97576 0
M  V30 204 C 17.7213 -1.00628 -5.25146 0
M  V30 205 C 19.0213 -2.97204 -4.29496 0
M  V30 206 H 20.7153 -1.92495 -2.29317 0
M  V30 207 H 18.2613 -0.92693 -1.102 0
M  V30 208 H 20.2143 -0.401091 -4.19487 0
M  V30 209 H 18.9383 0.396411 -3.24185 0
M  V30 210 H 17.5973 -1.73606 -3.22888 0
M  V30 211 H 17.2453 -0.0368439 -5.02987 0
M  V30 212 H 16.9453 -1.68771 -5.62841 0
M  V30 213 H 18.4693 -0.854015 -6.04598 0
M  V30 214 H 19.8833 -2.8552 -4.97143 0
M  V30 215 H 18.2803 -3.62372 -4.78338 0
M  V30 216 H 19.3503 -3.47956 -3.3772 0
M  V30 217 N 20.6934 1.19889 -1.02296 0
M  V30 218 C 21.9214 1.9339 -0.735399 0
M  V30 219 C 22.3364 1.75148 0.704887 0
M  V30 220 O 21.6934 1.06954 1.47875 0
M  V30 221 C 21.7444 3.45313 -1.06962 0
M  V30 222 O 21.4654 3.62964 -2.45334 0
M  V30 223 C 22.9664 4.35948 -0.804021 0
M  V30 224 H 20.1864 0.61448 -0.269546 0
M  V30 225 H 22.7304 1.522 -1.36585 0
M  V30 226 H 20.8854 3.84359 -0.484455 0
M  V30 227 H 21.2994 4.56886 -2.57595 0
M  V30 228 H 22.7734 5.41174 -1.0879 0
M  V30 229 H 23.2504 4.3842 0.261691 0
M  V30 230 H 23.8564 4.02574 -1.37164 0
M  V30 231 N 22.1715 0.800033 1.35784 0
M  V30 232 C 23.0815 0.207204 2.33683 0
M  V30 233 C 24.0975 -0.64631 1.61551 0
M  V30 234 O 25.2735 -0.559604 1.93469 0
M  V30 235 C 22.3385 -0.639659 3.40748 0
M  V30 236 C 21.3995 0.233585 4.28664 0
M  V30 237 C 20.6325 -0.572954 5.30616 0
M  V30 238 O 20.8555 -1.80816 5.40982 0
M  V30 239 O 19.7895 0.0327285 6.01891 0
M  V30 240 H 23.6155 1.01692 2.86169 0
M  V30 241 H 21.2005 0.561691 1.38439 0
M  V30 242 H 23.0825 -1.12223 4.06182 0
M  V30 243 H 21.7575 -1.42708 2.90544 0
M  V30 244 H 20.6645 0.763147 3.66233 0
M  V30 245 H 21.9975 0.984784 4.82248 0
M  V30 246 N 23.6496 -1.47581 0.552962 0
M  V30 247 C 24.5596 -2.33743 -0.200353 0
M  V30 248 C 25.5756 -1.47928 -0.916151 0
M  V30 249 O 26.7516 -1.80865 -0.885993 0
M  V30 250 C 23.8166 -3.24536 -1.21973 0
M  V30 251 C 22.8776 -4.26238 -0.511819 0
M  V30 252 C 22.1106 -5.12693 -1.48263 0
M  V30 253 O 22.3336 -5.01525 -2.71714 0
M  V30 254 O 21.2676 -5.93375 -1.00945 0
M  V30 255 H 25.0936 -2.9945 0.506304 0
M  V30 256 H 22.6786 -1.46071 0.313622 0
M  V30 257 H 24.5606 -3.80631 -1.80827 0
M  V30 258 H 23.2356 -2.61462 -1.90839 0
M  V30 259 H 22.1426 -3.73914 0.117799 0
M  V30 260 H 23.4756 -4.92014 0.135308 0
M  V30 261 N 25.1277 -0.289203 -1.54924 0
M  V30 262 C 26.5437 0.0645403 -1.59469 0
M  V30 263 C 26.7437 1.53419 -1.30632 0
M  V30 264 O 25.7997 2.2852 -1.074 0
M  V30 265 C 27.1127 -0.32278 -2.98963 0
M  V30 266 C 28.6607 -0.270564 -3.11828 0
M  V30 267 C 29.1357 -0.632532 -4.53611 0
M  V30 268 N 30.6267 -0.584617 -4.59496 0
M  V30 269 C 31.3617 -0.837314 -5.67254 0
M  V30 270 N 30.8577 -1.15536 -6.83098 0
M  V30 271 N 32.6507 -0.765166 -5.56868 0
M  V30 272 H 24.8017 -1.24714 -1.71931 0
M  V30 273 H 27.0647 -0.504809 -0.802416 0
M  V30 274 H 26.7707 -1.34541 -3.24948 0
M  V30 275 H 26.6447 0.32944 -3.75759 0
M  V30 276 H 29.0317 0.742805 -2.85598 0
M  V30 277 H 29.1127 -0.957242 -2.37214 0
M  V30 278 H 28.7567 -1.64365 -4.80569 0
M  V30 279 H 28.6867 0.07609 -5.26545 0
M  V30 280 H 31.1777 -0.349248 -3.76283 0
M  V30 281 H 31.4907 -1.33447 -7.61191 0
M  V30 282 H 29.8357 -1.19328 -6.84679 0
M  V30 283 H 33.0267 -0.516432 -4.65243 0
M  V30 284 H 33.1997 -0.965477 -6.40767 0
M  V30 285 N 26.6058 1.57591 -0.0167156 0
M  V30 286 C 27.8828 1.82547 0.702564 0
M  V30 287 C 28.2628 0.898018 1.91047 0
M  V30 288 O 27.6108 -0.0493456 2.28447 0
M  V30 289 C 27.8208 3.31459 1.09251 0
M  V30 290 C 29.1688 3.97622 1.48937 0
M  V30 291 O 30.1928 3.35881 1.18584 0
M  V30 292 O 29.0518 5.06415 2.05442 0
M  V30 293 H 26.1458 0.752268 0.343544 0
M  V30 294 H 28.6918 1.69644 -0.0434495 0
M  V30 295 H 27.4638 3.9061 0.23227 0
M  V30 296 H 27.0868 3.49422 1.89709 0
M  V30 297 N 28.0839 -0.256276 1.55502 0
M  V30 298 C 29.3319 -0.983672 1.76545 0
M  V30 299 C 29.6529 -1.86206 0.578982 0
M  V30 300 O 28.9229 -1.91656 -0.405577 0
M  V30 301 H 27.5029 -0.366191 0.651086 0
M  V30 302 H 30.1649 -0.276479 1.92929 0
M  V30 303 H 29.2609 -1.61087 2.67315 0
M  V30 304 N 29.562 -1.4872 -0.521534 0
M  V30 305 C 30.787 -1.61101 -1.30618 0
M  V30 306 C 31.212 -0.274611 -1.86085 0
M  V30 307 O 30.57 0.754937 -1.64834 0
M  V30 308 C 30.618 -2.66709 -2.4269 0
M  V30 309 O 29.722 -2.24456 -3.45967 0
M  V30 310 H 29.063 -0.539921 -0.386499 0
M  V30 311 H 31.593 -1.94767 -0.626645 0
M  V30 312 H 31.603 -2.88245 -2.88754 0
M  V30 313 H 30.278 -3.63727 -2.01682 0
M  V30 314 H 28.855 -2.13168 -3.05964 0
M  V30 315 N 31.0401 0.771051 -1.3745 0
M  V30 316 C 31.9701 1.89827 -1.3597 0
M  V30 317 C 32.9511 1.68562 -0.228216 0
M  V30 318 O 34.1361 1.8941 -0.428675 0
M  V30 319 C 31.2661 3.2712 -1.16662 0
M  V30 320 C 30.2201 3.6295 -2.2683 0
M  V30 321 C 29.5461 4.98791 -1.92644 0
M  V30 322 C 30.8461 3.69627 -3.69017 0
M  V30 323 H 32.5401 1.91323 -2.30295 0
M  V30 324 H 30.0861 0.919082 -1.10855 0
M  V30 325 H 32.0391 4.05615 -1.14256 0
M  V30 326 H 30.7631 3.26059 -0.187926 0
M  V30 327 H 29.4221 2.86763 -2.28392 0
M  V30 328 H 29.0701 4.94271 -0.933021 0
M  V30 329 H 28.7701 5.23733 -2.66416 0
M  V30 330 H 30.2941 5.79685 -1.91826 0
M  V30 331 H 31.7081 4.38273 -3.69581 0
M  V30 332 H 30.1051 4.06067 -4.41848 0
M  V30 333 H 31.1751 2.70273 -4.02592 0
M  V30 334 N 32.5182 1.22032 0.997298 0
M  V30 335 C 33.4662 0.983634 2.10778 0
M  V30 336 C 34.4602 -0.0717564 1.69248 0
M  V30 337 O 35.6662 0.080304 1.79821 0
M  V30 338 H 32.0412 0.300877 0.689186 0
M  V30 339 H 34.0122 1.92606 2.27916 0
M  V30 340 C 32.7612 0.57326 3.42942 0
M  V30 341 H 32.0842 1.37702 3.75338 0
M  V30 342 H 33.5242 0.447031 4.21637 0
M  V30 343 C 31.9832 -0.7167 3.29188 0
M  V30 344 O 32.5132 -1.77027 3.60589 0
M  V30 345 N 30.7192 -0.686167 2.82383 0
M  V30 346 H 30.2662 0.171507 2.57028 0
M  V30 347 H 30.2242 -1.54955 2.73562 0
M  V30 348 N 33.9963 -1.19345 1.0293 0
M  V30 349 C 34.9283 -2.22036 0.56857 0
M  V30 350 C 35.9413 -1.58865 -0.355779 0
M  V30 351 O 37.1303 -1.77851 -0.152103 0
M  V30 352 C 34.2303 -3.38363 -0.190752 0
M  V30 353 C 33.4033 -4.31118 0.738643 0
M  V30 354 C 32.4623 -5.26194 0.0246497 0
M  V30 355 O 31.4883 -5.65461 0.651354 0
M  V30 356 N 32.6903 -5.66971 -1.24594 0
M  V30 357 H 35.4553 -2.6219 1.45177 0
M  V30 358 H 33.0163 -1.34015 0.908381 0
M  V30 359 H 35.0083 -3.98981 -0.677961 0
M  V30 360 H 33.5783 -2.96994 -0.975366 0
M  V30 361 H 32.7983 -3.68276 1.40593 0
M  V30 362 H 34.0863 -4.90001 1.37029 0
M  V30 363 H 33.4843 -5.37104 -1.77583 0
M  V30 364 H 32.0413 -6.2984 -1.67764 0
M  V30 365 N 35.4744 -0.807222 -1.35358 0
M  V30 366 C 36.6994 -0.399309 -2.0352 0
M  V30 367 C 37.1244 0.981986 -1.60433 0
M  V30 368 O 36.4824 1.63601 -0.781299 0
M  V30 369 C 36.5304 -0.491552 -3.57234 0
M  V30 370 O 35.6344 0.494754 -4.09421 0
M  V30 371 H 34.9754 -0.166682 -0.642739 0
M  V30 372 H 37.5054 -1.09328 -1.72941 0
M  V30 373 H 37.5154 -0.361588 -4.06395 0
M  V30 374 H 36.1904 -1.49907 -3.87944 0
M  V30 375 H 34.7674 0.324977 -3.71481 0
M  V30 376 N 36.9525 1.47285 -0.560781 0
M  V30 377 C 38.1775 2.07359 -0.0410566 0
M  V30 378 C 38.6025 1.41017 1.24483 0
M  V30 379 O 37.9605 0.486368 1.74654 0
M  V30 380 C 38.0085 3.6035 0.134123 0
M  V30 381 O 37.1125 3.94681 1.19587 0
M  V30 382 H 36.4535 0.661887 -0.0529291 0
M  V30 383 H 38.9835 1.89252 -0.777482 0
M  V30 384 H 38.9935 4.0652 0.347207 0
M  V30 385 H 37.6685 4.08034 -0.805047 0
M  V30 386 H 36.2455 3.60251 0.962987 0
M  V30 387 N 38.4306 0.297415 1.54768 0
M  V30 388 C 39.6786 -0.312295 1.99673 0
M  V30 389 C 39.9996 -1.54686 1.18732 0
M  V30 390 O 39.2696 -1.93854 0.282382 0
M  V30 391 H 37.8496 -0.118381 0.73756 0
M  V30 392 H 40.5116 0.407915 1.90583 0
M  V30 393 H 39.6076 -0.586813 3.06534 0
M  V30 394 N 39.9087 -1.5758 0.0250728 0
M  V30 395 C 41.1387 -1.95646 -0.663783 0
M  V30 396 C 41.5467 -0.899935 -1.66427 0
M  V30 397 O 40.8897 0.127191 -1.83259 0
M  V30 398 C 40.9517 -3.29835 -1.43 0
M  V30 399 C 40.6157 -4.53197 -0.588305 0
M  V30 400 C 41.6127 -5.19726 0.13469 0
M  V30 401 C 39.2977 -4.99529 -0.526897 0
M  V30 402 C 41.2917 -6.30902 0.90781 0
M  V30 403 C 38.9787 -6.10589 0.24993 0
M  V30 404 C 39.9767 -6.76134 0.965994 0
M  V30 405 O 39.6647 -7.85062 1.7301 0
M  V30 406 H 39.3967 -0.649282 -0.188174 0
M  V30 407 H 41.9507 -2.05245 0.0799006 0
M  V30 408 H 40.1807 -3.16716 -2.21873 0
M  V30 409 H 41.8697 -3.52833 -2.00658 0
M  V30 410 H 42.6357 -4.84904 0.0965562 0
M  V30 411 H 38.5147 -4.48319 -1.07381 0
M  V30 412 H 42.0587 -6.81995 1.46724 0
M  V30 413 H 37.9557 -6.44849 0.289795 0
M  V30 414 H 38.7237 -8.01708 1.64944 0
M  V30 415 N 41.3868 0.248026 -1.55636 0
M  V30 416 C 42.8028 0.596483 -1.48035 0
M  V30 417 C 43.0028 1.88386 -0.715039 0
M  V30 418 O 42.0588 2.51319 -0.243944 0
M  V30 419 C 43.3718 0.700258 -2.92433 0
M  V30 420 C 44.9198 0.792659 -3.02797 0
M  V30 421 C 45.3948 0.928005 -4.485 0
M  V30 422 N 46.8858 0.992903 -4.52433 0
M  V30 423 C 47.6208 1.11687 -5.62418 0
M  V30 424 N 47.1168 1.20645 -6.82214 0
M  V30 425 N 48.9098 1.14994 -5.50212 0
M  V30 426 H 41.0608 -0.597109 -2.03834 0
M  V30 427 H 43.3238 -0.205925 -0.925364 0
M  V30 428 H 43.0298 -0.175658 -3.51261 0
M  V30 429 H 42.9038 1.57255 -3.42857 0
M  V30 430 H 45.2908 1.65903 -2.4405 0
M  V30 431 H 45.3718 -0.104762 -2.55585 0
M  V30 432 H 45.0158 0.0661971 -5.07857 0
M  V30 433 H 44.9458 1.84045 -4.93391 0
M  V30 434 H 47.4368 0.935064 -3.66149 0
M  V30 435 H 47.7498 1.30008 -7.61786 0
M  V30 436 H 46.0948 1.17605 -6.84977 0
M  V30 437 H 49.2858 1.07643 -4.55555 0
M  V30 438 H 49.4588 1.24311 -6.35965 0
M  V30 439 N 42.8649 1.48995 0.513639 0
M  V30 440 C 44.0949 1.61297 1.291 0
M  V30 441 C 44.5029 0.278656 1.87137 0
M  V30 442 O 43.8459 -0.744325 1.67945 0
M  V30 443 C 43.9079 2.61326 2.46879 0
M  V30 444 C 43.5719 4.05993 2.09807 0
M  V30 445 C 44.5689 4.93183 1.64519 0
M  V30 446 C 42.2539 4.51642 2.19829 0
M  V30 447 C 44.2479 6.24056 1.2974 0
M  V30 448 C 41.9349 5.82532 1.84662 0
M  V30 449 C 42.9329 6.68562 1.3969 0
M  V30 450 O 42.6209 7.97014 1.04992 0
M  V30 451 H 42.3529 0.546236 0.39825 0
M  V30 452 H 44.9069 1.95673 0.62459 0
M  V30 453 H 43.1369 2.22104 3.16554 0
M  V30 454 H 44.8259 2.6329 3.08923 0
M  V30 455 H 45.5919 4.59147 1.56233 0
M  V30 456 H 41.4709 3.84855 2.53786 0
M  V30 457 H 45.0149 6.91161 0.945659 0
M  V30 458 H 40.9119 6.16099 1.92594 0
M  V30 459 H 41.6799 8.09913 1.18249 0
M  V30 460 N 44.343 -0.763751 1.37857 0
M  V30 461 C 45.591 -1.51957 1.33243 0
M  V30 462 C 45.912 -1.94835 -0.0801709 0
M  V30 463 O 45.182 -1.66894 -1.02582 0
M  V30 464 H 43.762 -0.563626 0.49024 0
M  V30 465 H 46.424 -0.908504 1.7243 0
M  V30 466 H 45.52 -2.41523 1.97669 0
M  V30 467 N 45.8211 -1.22559 -0.990812 0
M  V30 468 C 47.0491 -1.07779 -1.76611 0
M  V30 469 C 47.4641 0.371513 -1.85109 0
M  V30 470 O 46.8211 1.25737 -1.32274 0
M  V30 471 C 46.8721 -1.68512 -3.19822 0
M  V30 472 O 46.5931 -3.07774 -3.1178 0
M  V30 473 C 48.0941 -1.59035 -4.13791 0
M  V30 474 H 45.3141 -0.377729 -0.554583 0
M  V30 475 H 47.8581 -1.62195 -1.24551 0
M  V30 476 H 46.0131 -1.18154 -3.68942 0
M  V30 477 H 46.4271 -3.37062 -4.01858 0
M  V30 478 H 47.9011 -2.0625 -5.1202 0
M  V30 479 H 48.3781 -0.547273 -4.35777 0
M  V30 480 H 48.9841 -2.08709 -3.70568 0
M  V30 481 N 47.2992 1.18797 -1.03562 0
M  V30 482 C 48.5762 1.84469 -0.650434 0
M  V30 483 C 48.9562 1.92319 0.870433 0
M  V30 484 O 48.3042 1.44528 1.76986 0
M  V30 485 C 48.5142 3.2306 -1.32036 0
M  V30 486 C 49.8622 3.9915 -1.44792 0
M  V30 487 O 50.8862 3.32481 -1.27806 0
M  V30 488 O 49.7452 5.18587 -1.72423 0
M  V30 489 H 46.8392 0.795251 -0.226946 0
M  V30 490 H 49.3852 1.26231 -1.13419 0
M  V30 491 H 48.1572 3.1222 -2.3587 0
M  V30 492 H 47.7802 3.88949 -0.8249 0
M  V30 493 N 48.7773 0.814389 1.34928 0
M  V30 494 C 50.1883 0.458364 1.80986 0
M  V30 495 C 50.5393 -1.02042 1.67577 0
M  V30 496 O 49.6643 -1.79352 1.21086 0
M  V30 497 C 50.2593 0.825212 3.28597 0
M  V30 498 C 48.8183 0.521677 3.72767 0
M  V30 499 C 47.9653 1.04668 2.56788 0
M  V30 500 H 50.9163 1.00533 1.22795 0
M  V30 501 H 50.9373 0.12571 3.80292 0
M  V30 502 H 50.4493 1.90154 3.38324 0
M  V30 503 H 48.5503 -0.545589 3.68584 0
M  V30 504 H 48.6633 1.05977 4.67232 0
M  V30 505 H 47.0273 0.468622 2.50352 0
M  V30 506 H 47.8103 2.12927 2.6929 0
M  V30 507 N 50.2554 -1.46986 0.568584 0
M  V30 508 C 51.4834 -2.0683 0.0539956 0
M  V30 509 C 51.8984 -1.41953 -1.24478 0
M  V30 510 O 51.2554 -0.519933 -1.74937 0
M  V30 511 C 51.3064 -3.61254 -0.133362 0
M  V30 512 O 51.0274 -4.237 1.11399 0
M  V30 513 C 52.5284 -4.37992 -0.683927 0
M  V30 514 H 49.7484 -0.669058 0.0510141 0
M  V30 515 H 52.2924 -1.88824 0.785234 0
M  V30 516 H 50.4474 -3.78735 -0.81477 0
M  V30 517 H 50.8614 -5.16388 0.91888 0
M  V30 518 H 52.3354 -5.46684 -0.764263 0
M  V30 519 H 52.8124 -4.05058 -1.69778 0
M  V30 520 H 53.4184 -4.25283 -0.0378494 0
M  V30 521 N 51.7335 -0.305618 -1.54608 0
M  V30 522 C 53.1445 0.186098 -1.8577 0
M  V30 523 C 53.4955 1.53058 -1.22751 0
M  V30 524 O 52.6205 2.09888 -0.526893 0
M  V30 525 C 53.2155 0.344449 -3.37044 0
M  V30 526 C 51.7745 0.780384 -3.68221 0
M  V30 527 C 50.9215 -0.108554 -2.77087 0
M  V30 528 H 53.8725 -0.526485 -1.49712 0
M  V30 529 H 53.8935 1.17828 -3.61796 0
M  V30 530 H 53.4055 -0.634235 -3.82883 0
M  V30 531 H 51.5065 1.76945 -3.27904 0
M  V30 532 H 51.6195 0.596572 -4.75371 0
M  V30 533 H 49.9835 0.412931 -2.5133 0
M  V30 534 H 50.7665 -1.08368 -3.25747 0
M  V30 535 N 53.2116 1.57565 -0.0334293 0
M  V30 536 C 54.1436 2.0739 0.975811 0
M  V30 537 C 55.1566 0.998166 1.2861 0
M  V30 538 O 56.3456 1.27426 1.25 0
M  V30 539 C 53.4456 2.4871 2.30209 0
M  V30 540 C 52.6186 3.79413 2.17634 0
M  V30 541 C 51.6776 4.07237 3.33233 0
M  V30 542 O 50.7036 4.77425 3.09927 0
M  V30 543 N 51.9056 3.5775 4.5716 0
M  V30 544 H 54.6706 2.94598 0.55066 0
M  V30 545 H 52.2316 1.61173 0.15323 0
M  V30 546 H 54.2236 2.64413 3.06378 0
M  V30 547 H 52.7936 1.66845 2.64351 0
M  V30 548 H 52.0136 3.73465 1.26165 0
M  V30 549 H 53.3016 4.65038 2.0644 0
M  V30 550 H 52.6996 3.00976 4.78989 0
M  V30 551 H 51.2566 3.78724 5.30482 0
M  V30 552 N 54.6897 -0.239769 1.55765 0
M  V30 553 C 55.6397 -1.30002 1.87306 0
M  V30 554 C 56.6237 -1.43156 0.73452 0
M  V30 555 O 57.8157 -1.46277 0.99659 0
M  V30 556 C 54.9447 -2.65409 2.17745 0
M  V30 557 C 54.0307 -2.56231 3.37945 0
M  V30 558 N 54.4217 -2.16689 4.57033 0
M  V30 559 C 52.7197 -2.87229 3.41197 0
M  V30 560 C 53.4207 -2.18318 5.39177 0
M  V30 561 N 52.3967 -2.58098 4.78421 0
M  V30 562 H 56.1987 -0.984912 2.76906 0
M  V30 563 H 53.7127 -0.448381 1.56087 0
M  V30 564 H 55.7097 -3.41934 2.38509 0
M  V30 565 H 54.3697 -2.97781 1.29448 0
M  V30 566 H 55.3807 -1.88116 4.82528 0
M  V30 567 H 52.0577 -3.24094 2.63191 0
M  V30 568 H 53.4477 -1.90025 6.44469 0
M  V30 569 N 56.1678 -1.49265 -0.50573 0
M  V30 570 C 57.3978 -1.61979 -1.28243 0
M  V30 571 C 57.8058 -0.288576 -1.86986 0
M  V30 572 O 57.1488 0.735408 -1.68337 0
M  V30 573 C 57.2108 -2.62632 -2.45489 0
M  V30 574 C 56.8748 -4.071 -2.07651 0
M  V30 575 C 57.8718 -4.94049 -1.61901 0
M  V30 576 C 55.5568 -4.52801 -2.17431 0
M  V30 577 C 57.5508 -6.24736 -1.26428 0
M  V30 578 C 55.2378 -5.83503 -1.8157 0
M  V30 579 C 56.2358 -6.69294 -1.36142 0
M  V30 580 O 55.9238 -7.9756 -1.00764 0
M  V30 581 H 55.6558 -0.54834 -0.395347 0
M  V30 582 H 58.2098 -1.96002 -0.614204 0
M  V30 583 H 56.4398 -2.2378 -3.15372 0
M  V30 584 H 58.1288 -2.64925 -3.07522 0
M  V30 585 H 58.8948 -4.5997 -1.53795 0
M  V30 586 H 54.7738 -3.86196 -2.51742 0
M  V30 587 H 58.3178 -6.91652 -0.908992 0
M  V30 588 H 54.2148 -6.17112 -1.89324 0
M  V30 589 H 54.9828 -8.10529 -1.13952 0
M  V30 590 N 57.6459 0.756429 -1.3826 0
M  V30 591 C 59.0569 1.33359 -1.30661 0
M  V30 592 C 59.4079 1.96161 0.0388875 0
M  V30 593 O 58.5329 1.94874 0.940918 0
M  V30 594 C 59.1279 2.42477 -2.36622 0
M  V30 595 C 57.6869 2.95922 -2.3261 0
M  V30 596 C 56.8339 1.69275 -2.19639 0
M  V30 597 H 59.7849 0.55552 -1.4866 0
M  V30 598 H 59.8059 3.22345 -2.02174 0
M  V30 599 H 59.3179 1.96739 -3.34538 0
M  V30 600 H 57.4189 3.45996 -1.38267 0
M  V30 601 H 57.5319 3.50494 -3.26636 0
M  V30 602 H 55.8959 1.92793 -1.66442 0
M  V30 603 H 56.6789 1.25619 -3.19491 0
M  V30 604 N 59.124 1.23083 0.984299 0
M  V30 605 C 60.349 1.088 1.76571 0
M  V30 606 C 60.774 -0.356657 1.84688 0
M  V30 607 O 60.132 -1.25788 1.30565 0
M  V30 608 C 60.18 1.71371 3.17277 0
M  V30 609 O 59.284 0.973213 4.00752 0
M  V30 610 H 58.625 0.381599 0.543395 0
M  V30 611 H 61.155 1.63057 1.23587 0
M  V30 612 H 61.165 1.76449 3.67872 0
M  V30 613 H 59.84 2.76493 3.10684 0
M  V30 614 H 58.417 0.999078 3.59267 0
M  V30 615 N 60.6021 -1.18246 1.0419 0
M  V30 616 C 61.8491 -1.88257 0.746017 0
M  V30 617 C 62.1771 -1.80429 -0.726331 0
M  V30 618 O 61.4321 -1.2 -1.54591 0
M  V30 619 C 61.7311 -3.38082 1.15911 0
M  V30 620 C 61.3971 -3.66114 2.63195 0
M  V30 621 C 60.0591 -3.73474 3.03432 0
M  V30 622 C 62.4111 -3.78398 3.5842 0
M  V30 623 C 59.7391 -3.90599 4.37778 0
M  V30 624 C 62.0911 -3.97039 4.92487 0
M  V30 625 C 60.7551 -4.02635 5.32392 0
M  V30 626 H 60.0251 -0.688883 0.272987 0
M  V30 627 H 62.6721 -1.3995 1.30715 0
M  V30 628 H 60.9771 -3.88377 0.516806 0
M  V30 629 H 62.6741 -3.90596 0.907516 0
M  V30 630 H 59.2641 -3.61003 2.3103 0
M  V30 631 H 63.4481 -3.72042 3.28479 0
M  V30 632 H 58.7041 -3.93175 4.68213 0
M  V30 633 H 62.8781 -4.05486 5.66175 0
M  V30 634 H 60.5051 -4.15657 6.36501 0
M  V30 635 N 62.0802 -0.821533 -1.34494 0
M  V30 636 C 63.3282 -0.408139 -1.97936 0
M  V30 637 C 63.6492 1.03193 -1.65457 0
M  V30 638 O 62.9192 1.71622 -0.944595 0
M  V30 639 H 61.4992 -0.147928 -0.732206 0
M  V30 640 H 64.1612 -1.05067 -1.64155 0
M  V30 641 H 63.2572 -0.52601 -3.07635 0
M  V30 642 N 63.5583 1.46682 -0.576371 0
M  V30 643 C 64.8043 2.02712 -0.0596221 0
M  V30 644 C 65.1373 1.44765 1.29448 0
M  V30 645 O 64.4123 0.610355 1.84675 0
M  V30 646 C 64.6953 3.60098 0.0129503 0
M  V30 647 C 64.5483 4.28441 -1.3696 0
M  V30 648 C 65.8673 4.34224 0.71678 0
M  V30 649 H 62.9863 0.736637 -0.0231407 0
M  V30 650 H 65.6283 1.74898 -0.742351 0
M  V30 651 H 63.7783 3.83926 0.594378 0
M  V30 652 H 65.4503 4.15896 -1.9957 0
M  V30 653 H 63.6933 3.8805 -1.93907 0
M  V30 654 H 64.3643 5.3716 -1.27135 0
M  V30 655 H 66.8403 4.15503 0.222908 0
M  V30 656 H 65.7163 5.43936 0.73657 0
M  V30 657 H 65.9773 4.04823 1.77682 0
M  V30 658 N 65.0364 0.313813 1.54444 0
M  V30 659 C 66.2644 -0.293918 2.04802 0
M  V30 660 C 66.6794 -1.46537 1.19047 0
M  V30 661 O 66.0364 -1.81182 0.218939 0
M  V30 662 C 66.0874 -0.737806 3.53891 0
M  V30 663 O 65.8084 0.387038 4.36387 0
M  V30 664 C 67.3094 -1.40936 4.203 0
M  V30 665 H 64.5294 -0.0620057 0.668129 0
M  V30 666 H 67.0734 0.457169 1.99324 0
M  V30 667 H 65.2284 -1.43889 3.59687 0
M  V30 668 H 65.6424 0.0391274 5.24485 0
M  V30 669 H 67.1164 -1.67099 5.26101 0
M  V30 670 H 67.5934 -2.35355 3.70816 0
M  V30 671 H 68.1994 -0.751117 4.18615 0
M  V30 672 N 66.5145 -1.57545 0.0417849 0
M  V30 673 C 67.7395 -1.97035 -0.647455 0
M  V30 674 C 68.1645 -0.918775 -1.64135 0
M  V30 675 O 67.5225 0.119006 -1.80909 0
M  V30 676 C 67.5705 -3.35609 -1.31905 0
M  V30 677 O 66.6745 -3.3287 -2.43457 0
M  V30 678 H 66.0155 -0.64211 -0.169086 0
M  V30 679 H 68.5455 -2.04318 0.107399 0
M  V30 680 H 68.5555 -3.72126 -1.67291 0
M  V30 681 H 67.2305 -4.11685 -0.590586 0
M  V30 682 H 65.8075 -3.08087 -2.10088 0
M  V30 683 N 67.9926 0.231505 -1.5589 0
M  V30 684 C 69.2416 0.955346 -1.7764 0
M  V30 685 C 69.5546 1.85893 -0.608546 0
M  V30 686 O 70.7606 2.62067 -0.70943 0
M  V30 687 C 69.2166 1.74886 -3.14552 0
M  V30 688 C 68.8246 0.891915 -4.39032 0
M  V30 689 C 70.5686 2.46452 -3.45633 0
M  V30 690 C 68.4756 1.68221 -5.66971 0
M  V30 691 H 67.4056 0.360446 -0.662265 0
M  V30 692 H 70.0566 0.209516 -1.823 0
M  V30 693 H 68.4386 2.53723 -3.04041 0
M  V30 694 H 69.6126 0.144793 -4.60572 0
M  V30 695 H 67.9276 0.288863 -4.15397 0
M  V30 696 H 70.5246 3.06061 -4.38441 0
M  V30 697 H 70.8676 3.18841 -2.67668 0
M  V30 698 H 71.4006 1.74613 -3.57428 0
M  V30 699 H 68.1396 1.00178 -6.478 0
M  V30 700 H 67.6596 2.4042 -5.49507 0
M  V30 701 H 69.3386 2.24544 -6.06786 0
M  V30 702 N 69.4707 1.49531 0.497807 0
M  V30 703 C 70.8817 1.52344 1.07927 0
M  V30 704 C 71.2327 0.311469 1.93712 0
M  V30 705 O 70.3577 -0.578405 2.08527 0
M  V30 706 C 70.9527 2.76062 1.96405 0
M  V30 707 C 69.5117 2.81643 2.49709 0
M  V30 708 C 68.6587 2.46299 1.27404 0
M  V30 709 H 71.6097 1.56182 0.281576 0
M  V30 710 H 71.6307 2.56405 2.81135 0
M  V30 711 H 71.1427 3.64254 1.33943 0
M  V30 712 H 69.2437 1.97739 3.15801 0
M  V30 713 H 69.3567 3.83891 2.86643 0
M  V30 714 H 67.7207 1.98148 1.60029 0
M  V30 715 H 68.5037 3.36769 0.66645 0
M  V30 716 N 70.9488 -0.749086 1.3866 0
M  V30 717 C 71.8968 -1.88428 1.36373 0
M  V30 718 C 72.8908 -1.67561 0.248929 0
M  V30 719 O 74.0968 -1.75074 0.41821 0
M  V30 720 H 70.4718 -0.620023 0.42553 0
M  V30 721 H 72.4428 -1.87473 2.32156 0
M  V30 722 C 71.1918 -3.25961 1.21014 0
M  V30 723 H 70.5148 -3.42607 2.06059 0
M  V30 724 H 71.9548 -4.05625 1.23469 0
M  V30 725 C 70.4138 -3.36799 -0.0825941 0
M  V30 726 O 70.9438 -3.87517 -1.05797 0
M  V30 727 N 69.1498 -2.90258 -0.140939 0
M  V30 728 H 68.6968 -2.49174 0.653477 0
M  V30 729 H 68.6548 -2.97889 -1.00545 0
M  V30 730 N 72.4269 -1.23603 -0.977757 0
M  V30 731 C 73.6569 -1.09487 -1.75203 0
M  V30 732 C 74.0649 0.356321 -1.85814 0
M  V30 733 O 73.4079 1.25816 -1.33851 0
M  V30 734 C 73.4699 -1.64905 -3.19447 0
M  V30 735 C 73.1339 -3.13688 -3.32338 0
M  V30 736 C 74.1309 -4.10953 -3.18455 0
M  V30 737 C 71.8159 -3.53449 -3.56902 0
M  V30 738 C 73.8099 -5.45962 -3.28944 0
M  V30 739 C 71.4969 -4.88602 -3.6703 0
M  V30 740 C 72.4949 -5.84668 -3.53062 0
M  V30 741 O 72.1829 -7.17365 -3.62826 0
M  V30 742 H 71.9149 -0.38367 -0.556573 0
M  V30 743 H 74.4689 -1.6398 -1.23693 0
M  V30 744 H 72.6989 -1.04835 -3.72218 0
M  V30 745 H 74.3879 -1.46226 -3.78646 0
M  V30 746 H 75.1539 -3.81577 -2.99372 0
M  V30 747 H 71.0329 -2.79188 -3.66844 0
M  V30 748 H 74.5769 -6.20925 -3.17958 0
M  V30 749 H 70.4739 -5.17653 -3.85623 0
M  V30 750 H 71.2419 -7.2515 -3.79605 0
M  V30 751 N 73.905 1.17692 -1.04816 0
M  V30 752 C 74.853 2.23632 -0.63966 0
M  V30 753 C 75.847 1.6601 0.337219 0
M  V30 754 O 77.053 1.78844 0.203693 0
M  V30 755 H 73.428 0.727949 -0.188665 0
M  V30 756 H 75.399 2.55387 -1.54337 0
M  V30 757 C 74.148 3.4769 -0.0264051 0
M  V30 758 H 73.471 3.92331 -0.769164 0
M  V30 759 H 74.911 4.23418 0.222098 0
M  V30 760 C 73.37 3.13807 1.22584 0
M  V30 761 O 73.9 3.28236 2.31569 0
M  V30 762 N 72.106 2.68065 1.12202 0
M  V30 763 H 71.653 2.56525 0.235133 0
M  V30 764 H 71.611 2.45767 1.96076 0
M  V30 765 N 75.3831 0.828654 1.34056 0
M  V30 766 C 76.3311 0.242973 2.31327 0
M  V30 767 C 77.3251 -0.61944 1.57668 0
M  V30 768 O 78.5311 -0.51014 1.7262 0
M  V30 769 H 74.9061 0.059834 0.749616 0
M  V30 770 H 76.8771 1.07809 2.78244 0
M  V30 771 C 75.6261 -0.575733 3.429 0
M  V30 772 H 74.9491 0.0785582 3.99723 0
M  V30 773 H 76.3891 -0.951547 4.13185 0
M  V30 774 C 74.8481 -1.75044 2.87856 0
M  V30 775 O 75.3781 -2.84882 2.83205 0
M  V30 776 N 73.5841 -1.56903 2.44602 0
M  V30 777 H 73.1311 -0.675547 2.48584 0
M  V30 778 H 73.0891 -2.35652 2.08124 0
M  V30 779 N 76.8612 -1.46375 0.584142 0
M  V30 780 C 78.1082 -2.02378 0.0702675 0
M  V30 781 C 78.4362 -1.45545 -1.29023 0
M  V30 782 O 77.6912 -0.610967 -1.85918 0
M  V30 783 C 77.9902 -3.57373 -0.0439342 0
M  V30 784 C 77.6562 -4.33252 1.24915 0
M  V30 785 C 76.3182 -4.53701 1.60341 0
M  V30 786 C 78.6702 -4.7681 2.1048 0
M  V30 787 C 75.9982 -5.1496 2.81128 0
M  V30 788 C 78.3502 -5.39404 3.30494 0
M  V30 789 C 77.0142 -5.5808 3.66201 0
M  V30 790 H 76.2842 -0.740554 0.0257127 0
M  V30 791 H 78.9312 -1.75727 0.761065 0
M  V30 792 H 77.2362 -3.83169 -0.817869 0
M  V30 793 H 78.9332 -3.98384 -0.457318 0
M  V30 794 H 75.5232 -4.17633 0.963364 0
M  V30 795 H 79.7072 -4.60766 1.84414 0
M  V30 796 H 74.9632 -5.27611 3.08928 0
M  V30 797 H 79.1372 -5.72114 3.97063 0
M  V30 798 H 76.7642 -6.05318 4.59885 0
M  V30 799 N 78.3393 -0.321999 -1.54275 0
M  V30 800 C 79.2893 0.560185 -2.21011 0
M  V30 801 C 80.2733 1.08283 -1.19011 0
M  V30 802 O 81.4653 1.02011 -1.44647 0
M  V30 803 C 78.5943 1.72137 -2.97025 0
M  V30 804 C 77.6803 1.21369 -4.06363 0
M  V30 805 N 78.0713 0.425566 -5.04007 0
M  V30 806 C 76.3693 1.49255 -4.20284 0
M  V30 807 C 77.0703 0.152601 -5.815 0
M  V30 808 N 76.0463 0.738294 -5.38563 0
M  V30 809 H 79.8483 -0.049265 -2.93859 0
M  V30 810 H 77.3623 -0.127779 -1.61897 0
M  V30 811 H 79.3593 2.36512 -3.43319 0
M  V30 812 H 78.0193 2.33431 -2.25699 0
M  V30 813 H 79.0303 0.068551 -5.17855 0
M  V30 814 H 75.7073 2.11145 -3.60172 0
M  V30 815 H 77.0973 -0.481764 -6.70171 0
M  V30 816 N 79.8174 1.5752 -0.0501392 0
M  V30 817 C 80.7804 2.1037 0.909786 0
M  V30 818 C 81.7804 1.02308 1.24056 0
M  V30 819 O 82.9704 1.28385 1.17741 0
M  V30 820 C 80.1024 2.58708 2.21998 0
M  V30 821 H 81.2954 2.96479 0.451665 0
M  V30 822 H 78.8484 1.55038 0.198248 0
M  V30 823 H 79.5834 1.75989 2.72394 0
M  V30 824 H 79.3684 3.37675 1.99295 0
M  V30 825 H 80.8584 2.99747 2.9076 0
M  V30 826 N 81.2955 -0.223234 1.56011 0
M  V30 827 C 82.2585 -1.26014 1.9145 0
M  V30 828 C 83.2585 -1.3989 0.792937 0
M  V30 829 O 84.4485 -1.38184 1.0607 0
M  V30 830 C 81.5805 -2.63422 2.16383 0
M  V30 831 H 82.7735 -0.95796 2.84189 0
M  V30 832 H 80.3265 -0.463576 1.49267 0
M  V30 833 H 81.0615 -2.98741 1.2619 0
M  V30 834 H 80.8465 -2.54728 2.98088 0
M  V30 835 H 82.3365 -3.38249 2.44903 0
M  V30 836 N 82.7736 -1.49793 -0.48987 0
M  V30 837 C 84.0216 -1.59525 -1.24081 0
M  V30 838 C 84.3426 -0.288953 -1.92847 0
M  V30 839 O 83.6126 0.692436 -1.83254 0
M  V30 840 H 82.1926 -0.587796 -0.460983 0
M  V30 841 H 84.8546 -1.86477 -0.566778 0
M  V30 842 H 83.9506 -2.39696 -1.99881 0
M  V30 843 N 84.2517 0.741722 -1.39055 0
M  V30 844 C 85.4997 1.49818 -1.35643 0
M  V30 845 C 85.8207 1.94938 0.0491642 0
M  V30 846 O 85.0907 1.68505 0.999141 0
M  V30 847 H 83.6707 0.555755 -0.499144 0
M  V30 848 H 86.3327 0.880957 -1.73854 0
M  V30 849 H 85.4287 2.38348 -2.01486 0
M  V30 850 N 85.7298 1.2412 0.971189 0
M  V30 851 C 86.6618 0.988349 2.06795 0
M  V30 852 C 87.6748 -0.0409541 1.62748 0
M  V30 853 O 88.8638 0.195673 1.77424 0
M  V30 854 C 85.9638 0.469023 3.35639 0
M  V30 855 C 85.1368 1.56065 4.08611 0
M  V30 856 C 84.1958 1.04458 5.15728 0
M  V30 857 O 83.2218 1.73553 5.42096 0
M  V30 858 N 84.4238 -0.122817 5.8037 0
M  V30 859 H 87.1888 1.93265 2.29061 0
M  V30 860 H 84.7498 1.15102 1.13856 0
M  V30 861 H 86.7418 0.108613 4.04554 0
M  V30 862 H 85.3118 -0.380919 3.1027 0
M  V30 863 H 84.5318 2.09341 3.34021 0
M  V30 864 H 85.8198 2.29449 4.54126 0
M  V30 865 H 85.2178 -0.700563 5.61345 0
M  V30 866 H 83.7748 -0.424404 6.50417 0
M  V30 867 N 87.2079 -1.17134 1.05439 0
M  V30 868 C 88.4559 -1.87085 0.764429 0
M  V30 869 C 88.7769 -1.81584 -0.710787 0
M  V30 870 O 88.0469 -1.24349 -1.51374 0
M  V30 871 H 86.6269 -0.692627 0.279779 0
M  V30 872 H 89.2889 -1.42087 1.33406 0
M  V30 873 H 88.3849 -2.92759 1.0816 0
M  V30 874 N 88.686 -0.835752 -1.33615 0
M  V30 875 C 89.616 -0.281739 -2.31794 0
M  V30 876 C 90.597 0.608833 -1.58831 0
M  V30 877 O 91.782 0.533035 -1.86741 0
M  V30 878 C 88.912 0.546612 -3.42971 0
M  V30 879 C 87.866 -0.247904 -4.27281 0
M  V30 880 C 87.192 0.704001 -5.30045 0
M  V30 881 C 88.492 -1.46324 -5.01385 0
M  V30 882 H 90.186 -1.10206 -2.78379 0
M  V30 883 H 87.732 -0.531388 -1.33837 0
M  V30 884 H 89.685 0.944467 -4.1068 0
M  V30 885 H 88.409 1.40011 -2.95067 0
M  V30 886 H 87.068 -0.627281 -3.61194 0
M  V30 887 H 86.716 1.55381 -4.78399 0
M  V30 888 H 86.416 0.176524 -5.87335 0
M  V30 889 H 87.94 1.09944 -6.0062 0
M  V30 890 H 89.354 -1.13871 -5.61877 0
M  V30 891 H 87.751 -1.92728 -5.6831 0
M  V30 892 H 88.821 -2.23467 -4.30338 0
M  V30 893 N 90.1641 1.46063 -0.591896 0
M  V30 894 C 91.3921 2.06717 -0.0868936 0
M  V30 895 C 91.8071 1.43916 1.22203 0
M  V30 896 O 91.1641 0.547698 1.74088 0
M  V30 897 C 91.2151 3.6142 0.0758725 0
M  V30 898 O 90.9361 4.21874 -1.18126 0
M  V30 899 C 92.4371 4.39025 0.61416 0
M  V30 900 H 89.6571 0.668162 -0.0616518 0
M  V30 901 H 92.2011 1.8755 -0.815175 0
M  V30 902 H 90.3561 3.79983 0.754413 0
M  V30 903 H 90.7701 5.14861 -1.00092 0
M  V30 904 H 92.2441 5.4783 0.677193 0
M  V30 905 H 92.7211 4.07708 1.63312 0
M  V30 906 H 93.3271 4.2529 -0.0298142 0
M  V30 907 N 91.6422 0.330177 1.54103 0
M  V30 908 C 92.8882 -0.270806 2.00984 0
M  V30 909 C 93.2212 -1.51265 1.21789 0
M  V30 910 O 92.4962 -1.92142 0.301927 0
M  V30 911 C 92.7792 -0.598339 3.55094 0
M  V30 912 C 92.6322 0.654674 4.4501 0
M  V30 913 C 93.9512 -1.41334 4.16789 0
M  V30 914 H 91.0702 -0.0969531 0.730595 0
M  V30 915 H 93.7122 0.448066 1.84641 0
M  V30 916 H 91.8622 -1.21078 3.69151 0
M  V30 917 H 93.5342 1.29285 4.42813 0
M  V30 918 H 91.7772 1.28224 4.14416 0
M  V30 919 H 92.4482 0.380944 5.50684 0
M  V30 920 H 94.9242 -0.895597 4.06347 0
M  V30 921 H 93.8002 -1.61127 5.24718 0
M  V30 922 H 94.0612 -2.41146 3.70541 0
M  V30 923 N 93.1203 -1.57491 0.0584922 0
M  V30 924 C 94.3673 -1.92978 -0.613648 0
M  V30 925 C 94.6953 -0.937461 -1.70417 0
M  V30 926 O 93.9503 0.049078 -1.95638 0
M  V30 927 C 94.2493 -3.3513 -1.24188 0
M  V30 928 C 93.9153 -4.50037 -0.278826 0
M  V30 929 C 92.5773 -4.81198 -0.0138447 0
M  V30 930 C 94.9293 -5.19807 0.380777 0
M  V30 931 C 92.2573 -5.79473 0.918052 0
M  V30 932 C 94.6093 -6.19079 1.30091 0
M  V30 933 C 93.2733 -6.48665 1.57449 0
M  V30 934 H 92.5433 -0.706157 -0.22455 0
M  V30 935 H 95.1903 -1.91082 0.126533 0
M  V30 936 H 93.4953 -3.33429 -2.05749 0
M  V30 937 H 95.1923 -3.59871 -1.769 0
M  V30 938 H 91.7823 -4.25726 -0.495539 0
M  V30 939 H 95.9663 -4.95939 0.189158 0
M  V30 940 H 91.2223 -6.00727 1.1374 0
M  V30 941 H 95.3963 -6.7225 1.81804 0
M  V30 942 H 93.0233 -7.24628 2.29822 0
M  V30 943 N 94.5984 0.214957 -1.56127 0
M  V30 944 C 95.8464 0.936518 -1.79091 0
M  V30 945 C 96.1674 1.84606 -0.628148 0
M  V30 946 O 95.4374 1.92664 0.35462 0
M  V30 947 H 94.0174 0.3488 -0.660566 0
M  V30 948 H 96.6794 0.22523 -1.93594 0
M  V30 949 H 95.7754 1.53943 -2.71492 0
M  V30 950 N 96.0765 1.50051 0.48192 0
M  V30 951 C 97.3245 1.60181 1.23234 0
M  V30 952 C 97.6455 0.299176 1.92691 0
M  V30 953 O 96.9155 -0.682708 1.83619 0
M  V30 954 H 95.4955 0.590232 0.457859 0
M  V30 955 H 98.1575 1.86775 0.556881 0
M  V30 956 H 97.2535 2.40753 1.98607 0
M  V30 957 N 97.5546 -0.734337 1.39446 0
M  V30 958 C 98.8006 -1.49613 1.36908 0
M  V30 959 C 99.1336 -1.94169 -0.0347829 0
M  V30 960 O 98.4086 -1.66833 -0.999847 0
M  V30 961 C 98.6916 -2.73534 2.34203 0
M  V30 962 C 98.5446 -2.34993 3.83534 0
M  V30 963 C 99.8636 -3.75635 2.29317 0
M  V30 964 H 96.9826 -0.542714 0.498629 0
M  V30 965 H 99.6246 -0.839597 1.70443 0
M  V30 966 H 97.7746 -3.29553 2.05736 0
M  V30 967 H 99.4466 -1.84601 4.22753 0
M  V30 968 H 97.6896 -1.67213 4.00278 0
M  V30 969 H 98.3606 -3.23738 4.47099 0
M  V30 970 H 100.837 -3.29203 2.54489 0
M  V30 971 H 99.7126 -4.60008 2.99472 0
M  V30 972 H 99.9736 -4.22603 1.29842 0
M  V30 973 N 99.0327 -1.24633 -0.964593 0
M  V30 974 C 99.9807 -1.03917 -2.08096 0
M  V30 975 C 100.975 0.0268581 -1.69379 0
M  V30 976 O 102.181 -0.127952 -1.79545 0
M  V30 977 H 98.5557 -0.319044 -0.680966 0
M  V30 978 H 100.527 -1.98581 -2.22729 0
M  V30 979 C 99.2757 -0.663983 -3.41301 0
M  V30 980 H 98.5987 -1.47605 -3.71555 0
M  V30 981 H 100.039 -0.558663 -4.20303 0
M  V30 982 C 98.4977 0.629169 -3.30973 0
M  V30 983 O 99.0277 1.67404 -3.65156 0
M  V30 984 N 97.2337 0.611057 -2.84103 0
M  V30 985 H 96.7807 -0.239593 -2.56483 0
M  V30 986 H 96.7387 1.47647 -2.77575 0
M  V30 987 N 100.511 1.16574 -1.06058 0
M  V30 988 C 101.736 1.91493 -0.796562 0
M  V30 989 C 102.161 1.76773 0.642868 0
M  V30 990 O 101.519 1.09142 1.44768 0
M  V30 991 C 101.567 3.40293 -1.19303 0
M  V30 992 O 100.671 4.11074 -0.330394 0
M  V30 993 H 100.012 0.596678 -0.291326 0
M  V30 994 H 102.542 1.47708 -1.41575 0
M  V30 995 H 102.552 3.91057 -1.16356 0
M  V30 996 H 101.227 3.50326 -2.24153 0
M  V30 997 H 99.8038 3.70513 -0.421225 0
M  V30 998 N 101.989 0.842826 1.3317 0
M  V30 999 C 103.214 0.453129 2.02389 0
M  V30 1000 C 103.639 -0.939105 1.6298 0
M  V30 1001 O 102.997 -1.61472 0.8244 0
M  V30 1002 C 103.045 0.586094 3.55805 0
M  V30 1003 O 102.149 -0.386029 4.10589 0
M  V30 1004 H 101.49 0.183664 0.638094 0
M  V30 1005 H 104.02 1.13875 1.69981 0
M  V30 1006 H 104.03 0.469209 4.05293 0
M  V30 1007 H 102.705 1.6014 3.83833 0
M  V30 1008 H 101.282 -0.226371 3.72212 0
M  V30 1009 N 103.467 -1.45747 0.599634 0
M  V30 1010 C 104.692 -2.07178 0.0960198 0
M  V30 1011 C 105.117 -1.44268 -1.207 0
M  V30 1012 O 104.475 -0.532503 -1.73303 0
M  V30 1013 C 104.523 -3.60579 -0.0385348 0
M  V30 1014 O 103.627 -3.97713 -1.0908 0
M  V30 1015 H 102.968 -0.660251 0.0704593 0
M  V30 1016 H 105.498 -1.87124 0.827385 0
M  V30 1017 H 105.508 -4.07298 -0.239304 0
M  V30 1018 H 104.183 -4.05756 0.912947 0
M  V30 1019 H 102.76 -3.62678 -0.867135 0
M  V30 1020 N 104.945 -0.338344 -1.53925 0
M  V30 1021 C 105.895 0.536712 -2.21593 0
M  V30 1022 C 106.879 1.07015 -1.20153 0
M  V30 1023 O 108.071 1.00471 -1.45721 0
M  V30 1024 C 105.2 1.68977 -2.98834 0
M  V30 1025 C 104.286 1.17052 -4.07627 0
M  V30 1026 N 104.677 0.372085 -5.0443 0
M  V30 1027 C 102.975 1.44789 -4.21844 0
M  V30 1028 C 103.676 0.0909171 -5.81629 0
M  V30 1029 N 102.652 0.681131 -5.39316 0
M  V30 1030 H 106.454 -0.0804298 -2.9379 0
M  V30 1031 H 103.968 -0.144943 -1.61752 0
M  V30 1032 H 105.965 2.32857 -3.45808 0
M  V30 1033 H 104.625 2.31024 -2.28162 0
M  V30 1034 H 105.636 0.0136217 -5.17898 0
M  V30 1035 H 102.313 2.07313 -3.62391 0
M  V30 1036 H 103.703 -0.552817 -6.69622 0
M  V30 1037 N 106.423 1.57458 -0.0668435 0
M  V30 1038 C 107.651 1.97624 0.612565 0
M  V30 1039 C 108.066 0.94502 1.63447 0
M  V30 1040 O 107.423 -0.0689276 1.8237 0
M  V30 1041 C 107.474 3.37869 1.28555 0
M  V30 1042 O 107.195 4.3704 0.304557 0
M  V30 1043 C 108.696 3.92882 2.05325 0
M  V30 1044 H 105.916 0.650045 0.166381 0
M  V30 1045 H 108.46 2.04035 -0.137782 0
M  V30 1046 H 106.615 3.3256 1.98702 0
M  V30 1047 H 107.029 5.18565 0.786779 0
M  V30 1048 H 108.503 4.93247 2.47812 0
M  V30 1049 H 108.98 3.29156 2.9078 0
M  V30 1050 H 109.586 4.01577 1.40056 0
M  V30 1051 N 107.901 -0.206675 1.56239 0
M  V30 1052 C 109.149 -0.927007 1.79586 0
M  V30 1053 C 109.47 -1.8427 0.637929 0
M  V30 1054 O 108.74 -1.92849 -0.344398 0
M  V30 1055 H 107.32 -0.345292 0.662407 0
M  V30 1056 H 109.982 -0.21496 1.93711 0
M  V30 1057 H 109.078 -1.52501 2.72305 0
M  V30 1058 N 109.379 -1.50304 -0.473955 0
M  V30 1059 C 110.607 -1.64902 -1.24959 0
M  V30 1060 C 111.022 -0.331198 -1.85872 0
M  V30 1061 O 110.379 0.68652 -1.69095 0
M  V30 1062 C 110.43 -2.73803 -2.36038 0
M  V30 1063 O 110.151 -4.00477 -1.77624 0
M  V30 1064 C 111.652 -2.99349 -3.26964 0
M  V30 1065 H 108.872 -0.554383 -0.378022 0
M  V30 1066 H 111.416 -1.9651 -0.566054 0
M  V30 1067 H 109.571 -2.44898 -3.00173 0
M  V30 1068 H 109.985 -4.60678 -2.5075 0
M  V30 1069 H 111.459 -3.79217 -4.01121 0
M  V30 1070 H 111.936 -2.10307 -3.85574 0
M  V30 1071 H 112.542 -3.29774 -2.68569 0
M  V30 1072 N 110.857 0.726932 -1.39834 0
M  V30 1073 C 111.787 1.85405 -1.41941 0
M  V30 1074 C 112.768 1.67751 -0.281728 0
M  V30 1075 O 113.953 1.8795 -0.488717 0
M  V30 1076 C 111.083 3.23243 -1.2701 0
M  V30 1077 C 110.037 3.55549 -2.38262 0
M  V30 1078 C 109.363 4.9241 -2.08415 0
M  V30 1079 C 110.663 3.577 -3.80589 0
M  V30 1080 H 112.357 1.83899 -2.36266 0
M  V30 1081 H 109.903 0.883349 -1.13723 0
M  V30 1082 H 111.856 4.01775 -1.27103 0
M  V30 1083 H 110.58 3.25296 -0.291564 0
M  V30 1084 H 109.239 2.79351 -2.37399 0
M  V30 1085 H 108.887 4.91052 -1.0898 0
M  V30 1086 H 108.587 5.14992 -2.82943 0
M  V30 1087 H 110.111 5.73289 -2.10171 0
M  V30 1088 H 111.525 4.26293 -3.83337 0
M  V30 1089 H 109.922 3.91804 -4.54543 0
M  V30 1090 H 110.992 2.57328 -4.10987 0
M  V30 1091 N 112.336 1.25143 0.95797 0
M  V30 1092 C 113.752 1.01892 1.22842 0
M  V30 1093 C 113.952 -0.266311 1.99732 0
M  V30 1094 O 113.008 -0.979913 2.3271 0
M  V30 1095 C 114.321 2.24004 2.00606 0
M  V30 1096 C 115.869 2.28731 2.13662 0
M  V30 1097 C 116.344 3.5049 2.94823 0
M  V30 1098 N 117.835 3.50866 3.02403 0
M  V30 1099 C 118.57 4.4174 3.65586 0
M  V30 1100 N 118.066 5.42882 4.30408 0
M  V30 1101 N 119.859 4.29429 3.62694 0
M  V30 1102 H 112.01 2.07718 0.443493 0
M  V30 1103 H 114.273 0.912031 0.258657 0
M  V30 1104 H 113.979 3.17395 1.51503 0
M  V30 1105 H 113.853 2.26907 3.01319 0
M  V30 1106 H 116.24 1.35865 2.61963 0
M  V30 1107 H 116.321 2.29848 1.12265 0
M  V30 1108 H 115.965 4.43676 2.47213 0
M  V30 1109 H 115.895 3.46617 3.96439 0
M  V30 1110 H 118.386 2.777 2.56302 0
M  V30 1111 H 118.699 6.0844 4.76467 0
M  V30 1112 H 117.044 5.46758 4.29047 0
M  V30 1113 H 120.235 3.49643 3.11236 0
M  V30 1114 H 120.408 5.00448 4.1165 0
M  V30 1115 N 113.814 -1.1601 1.06675 0
M  V30 1116 C 115.042 -1.90527 0.806667 0
M  V30 1117 C 115.457 -1.77643 -0.639396 0
M  V30 1118 O 114.814 -1.12369 -1.43803 0
M  V30 1119 C 114.865 -3.41106 1.19705 0
M  V30 1120 O 114.586 -3.53608 2.58636 0
M  V30 1121 C 116.087 -4.32663 0.965266 0
M  V30 1122 H 113.307 -0.604053 0.292166 0
M  V30 1123 H 115.851 -1.47026 1.4214 0
M  V30 1124 H 114.006 -3.82296 0.626774 0
M  V30 1125 H 114.42 -4.47011 2.74375 0
M  V30 1126 H 115.894 -5.36763 1.288 0
M  V30 1127 H 116.371 -4.39089 -0.0987936 0
M  V30 1128 H 116.977 -3.97206 1.52011 0
M  V30 1129 N 115.292 -0.849877 -1.32721 0
M  V30 1130 C 116.708 -0.539102 -1.50219 0
M  V30 1131 C 116.908 0.931271 -1.78689 0
M  V30 1132 O 115.964 1.71455 -1.85363 0
M  V30 1133 C 117.277 -1.42196 -2.64954 0
M  V30 1134 C 118.825 -1.42189 -2.78839 0
M  V30 1135 C 119.3 -2.28985 -3.96648 0
M  V30 1136 N 120.791 -2.26754 -4.03902 0
M  V30 1137 C 121.526 -2.90644 -4.94281 0
M  V30 1138 N 121.022 -3.63629 -5.897 0
M  V30 1139 N 122.815 -2.80057 -4.87365 0
M  V30 1140 H 114.966 -1.80156 -1.12506 0
M  V30 1141 H 117.229 -0.769217 -0.554085 0
M  V30 1142 H 116.935 -2.46733 -2.50631 0
M  V30 1143 H 116.809 -1.10591 -3.60624 0
M  V30 1144 H 119.196 -0.38419 -2.92588 0
M  V30 1145 H 119.277 -1.77807 -1.83898 0
M  V30 1146 H 118.921 -3.32819 -3.83658 0
M  V30 1147 H 118.851 -1.90702 -4.90857 0
M  V30 1148 H 121.342 -1.73688 -3.3562 0
M  V30 1149 H 121.655 -4.09558 -6.55349 0
M  V30 1150 H 120 -3.67737 -5.89741 0
M  V30 1151 H 123.191 -2.22593 -4.11789 0
M  V30 1152 H 123.364 -3.30132 -5.57599 0
M  V30 1153 N 116.77 1.45427 -0.607355 0
M  V30 1154 C 118.018 2.01841 -0.102253 0
M  V30 1155 C 118.339 1.47832 1.27164 0
M  V30 1156 O 117.609 0.672497 1.83995 0
M  V30 1157 H 116.189 0.746188 -0.0348101 0
M  V30 1158 H 118.851 1.78229 -0.7887 0
M  V30 1159 H 117.947 3.12057 -0.0518585 0
M  V30 1160 N 118.248 0.346503 1.53744 0
M  V30 1161 C 119.496 -0.248612 2.00565 0
M  V30 1162 C 119.817 -1.5083 1.23593 0
M  V30 1163 O 119.087 -1.92858 0.343912 0
M  V30 1164 H 117.667 -0.0948564 0.740953 0
M  V30 1165 H 120.329 0.468341 1.89189 0
M  V30 1166 H 119.425 -0.488994 3.08245 0
M  V30 1167 N 119.726 -1.57421 0.075193 0
M  V30 1168 C 120.954 -1.97946 -0.602076 0
M  V30 1169 C 121.369 -0.953674 -1.62943 0
M  V30 1170 O 120.726 0.0592551 -1.82404 0
M  V30 1171 C 120.777 -3.38546 -1.26762 0
M  V30 1172 O 120.498 -4.37195 -0.281376 0
M  V30 1173 C 121.999 -3.93966 -2.03239 0
M  V30 1174 H 119.219 -0.650918 -0.162931 0
M  V30 1175 H 121.763 -2.03959 0.148601 0
M  V30 1176 H 119.918 -3.33609 -1.96936 0
M  V30 1177 H 120.332 -5.18975 -0.759267 0
M  V30 1178 H 121.806 -4.94555 -2.45193 0
M  V30 1179 H 122.283 -3.30693 -2.8903 0
M  V30 1180 H 122.889 -4.02315 -1.37924 0
M  V30 1181 N 121.204 0.198386 -1.56346 0
M  V30 1182 C 122.452 0.91747 -1.80075 0
M  V30 1183 C 122.773 1.83929 -0.647692 0
M  V30 1184 O 122.043 1.93029 0.334166 0
M  V30 1185 H 120.623 0.341774 -0.664228 0
M  V30 1186 H 123.285 0.204684 -1.93822 0
M  V30 1187 H 122.381 1.51055 -2.7311 0
M  V30 1188 N 122.682 1.50554 0.465978 0
M  V30 1189 C 123.928 1.62038 1.21949 0
M  V30 1190 C 124.261 0.322116 1.9151 0
M  V30 1191 O 123.536 -0.676723 1.82348 0
M  V30 1192 C 123.819 2.80421 2.25912 0
M  V30 1193 C 123.672 4.20144 1.60622 0
M  V30 1194 C 124.991 2.94354 3.27176 0
M  V30 1195 H 122.11 0.589752 0.441998 0
M  V30 1196 H 124.752 1.82956 0.51257 0
M  V30 1197 H 122.902 2.62717 2.86203 0
M  V30 1198 H 124.574 4.49449 1.03889 0
M  V30 1199 H 122.817 4.24165 0.909211 0
M  V30 1200 H 123.488 4.98914 2.36196 0
M  V30 1201 H 125.964 3.10578 2.76913 0
M  V30 1202 H 124.84 3.788 3.97242 0
M  V30 1203 H 125.101 2.05186 3.916 0
M  V30 1204 N 124.16 -0.719506 1.40217 0
M  V30 1205 C 125.388 -1.50864 1.41589 0
M  V30 1206 C 125.803 -1.88794 0.0145275 0
M  V30 1207 O 125.16 -1.55174 -0.960594 0
M  V30 1208 C 125.211 -2.78646 2.30302 0
M  V30 1209 O 124.932 -2.42321 3.64983 0
M  V30 1210 C 126.433 -3.72569 2.40224 0
M  V30 1211 H 123.653 -0.465709 0.48307 0
M  V30 1212 H 126.197 -0.88785 1.84221 0
M  V30 1213 H 124.352 -3.37019 1.91042 0
M  V30 1214 H 124.766 -3.24514 4.12057 0
M  V30 1215 H 126.24 -4.5908 3.06512 0
M  V30 1216 H 126.717 -4.15403 1.42608 0
M  V30 1217 H 127.323 -3.20109 2.80019 0
M  V30 1218 N 125.638 -1.25649 -0.95132 0
M  V30 1219 C 126.568 -1.08808 -2.06599 0
M  V30 1220 C 127.549 0.00382547 -1.701 0
M  V30 1221 O 128.734 -0.166325 -1.93486 0
M  V30 1222 C 125.864 -0.709542 -3.39975 0
M  V30 1223 C 124.818 -1.75206 -3.90496 0
M  V30 1224 C 124.144 -1.22811 -5.20405 0
M  V30 1225 C 125.444 -3.15153 -4.16504 0
M  V30 1226 H 127.138 -2.02048 -2.20946 0
M  V30 1227 H 124.684 -0.972835 -1.06169 0
M  V30 1228 H 126.637 -0.578649 -4.17408 0
M  V30 1229 H 125.361 0.258556 -3.25575 0
M  V30 1230 H 124.02 -1.87145 -3.15234 0
M  V30 1231 H 123.668 -0.250145 -5.02378 0
M  V30 1232 H 123.368 -1.92492 -5.55176 0
M  V30 1233 H 124.892 -1.10968 -6.00432 0
M  V30 1234 H 126.306 -3.06349 -4.84586 0
M  V30 1235 H 124.703 -3.82333 -4.62538 0
M  V30 1236 H 125.773 -3.61966 -3.22658 0
M  V30 1237 N 127.117 1.15442 -1.07289 0
M  V30 1238 C 128.364 1.86213 -0.795668 0
M  V30 1239 C 128.692 1.82291 0.678238 0
M  V30 1240 O 127.947 1.24057 1.51355 0
M  V30 1241 C 128.246 3.3489 -1.24834 0
M  V30 1242 C 127.912 3.59007 -2.72809 0
M  V30 1243 C 126.574 3.65298 -3.13227 0
M  V30 1244 C 128.926 3.68762 -3.68326 0
M  V30 1245 C 126.254 3.78854 -4.4798 0
M  V30 1246 C 128.606 3.83842 -5.0284 0
M  V30 1247 C 127.27 3.88378 -5.4288 0
M  V30 1248 H 126.54 0.681403 -0.291155 0
M  V30 1249 H 129.187 1.36435 -1.34379 0
M  V30 1250 H 127.492 3.8687 -0.619595 0
M  V30 1251 H 129.189 3.88052 -1.01076 0
M  V30 1252 H 125.779 3.5475 -2.40521 0
M  V30 1253 H 129.963 3.63202 -3.38227 0
M  V30 1254 H 125.219 3.80623 -4.78472 0
M  V30 1255 H 129.393 3.90332 -5.76727 0
M  V30 1256 H 127.02 3.98635 -6.47298 0
M  V30 1257 N 128.595 0.856903 1.32268 0
M  V30 1258 C 129.841 0.462069 1.97466 0
M  V30 1259 C 130.174 -0.980298 1.67642 0
M  V30 1260 O 129.449 -1.68824 0.965858 0
M  V30 1261 C 129.732 0.704336 3.53145 0
M  V30 1262 C 129.585 2.19529 3.9259 0
M  V30 1263 C 130.904 0.1622 4.39801 0
M  V30 1264 H 128.023 0.169357 0.717278 0
M  V30 1265 H 130.665 1.07574 1.56614 0
M  V30 1266 H 128.815 0.181999 3.88073 0
M  V30 1267 H 130.487 2.78387 3.67829 0
M  V30 1268 H 128.73 2.67292 3.41668 0
M  V30 1269 H 129.401 2.31549 5.01088 0
M  V30 1270 H 131.877 0.608905 4.11621 0
M  V30 1271 H 130.753 0.361265 5.4771 0
M  V30 1272 H 131.014 -0.935158 4.32096 0
M  V30 1273 N 130.073 -1.45103 0.615059 0
M  V30 1274 C 131.036 -2.29025 -0.0895485 0
M  V30 1275 C 132.036 -1.40174 -0.787906 0
M  V30 1276 O 133.226 -1.62217 -0.634933 0
M  V30 1277 C 130.358 -3.21376 -1.13711 0
M  V30 1278 H 131.551 -2.92807 0.648382 0
M  V30 1279 H 129.104 -1.51749 0.374444 0
M  V30 1280 H 129.839 -2.6241 -1.90556 0
M  V30 1281 H 129.624 -3.86834 -0.640475 0
M  V30 1282 H 131.114 -3.84459 -1.63036 0
M  V30 1283 N 131.551 -0.354651 -1.53558 0
M  V30 1284 C 132.481 0.489091 -2.2832 0
M  V30 1285 C 133.462 1.09324 -1.30316 0
M  V30 1286 O 134.647 1.11255 -1.59173 0
M  V30 1287 C 131.777 1.63456 -3.0643 0
M  V30 1288 C 130.731 1.1582 -4.12031 0
M  V30 1289 C 130.057 2.39305 -4.7816 0
M  V30 1290 C 131.357 0.250731 -5.21698 0
M  V30 1291 H 133.051 -0.134614 -2.99097 0
M  V30 1292 H 130.597 -0.0661826 -1.43848 0
M  V30 1293 H 132.55 2.23136 -3.57475 0
M  V30 1294 H 131.274 2.28533 -2.33325 0
M  V30 1295 H 129.933 0.584146 -3.61916 0
M  V30 1296 H 129.581 3.02814 -4.01637 0
M  V30 1297 H 129.281 2.08109 -5.49513 0
M  V30 1298 H 130.805 2.99691 -5.31994 0
M  V30 1299 H 132.219 0.754695 -5.68311 0
M  V30 1300 H 130.616 0.0301468 -6.00092 0
M  V30 1301 H 131.686 -0.710125 -4.79672 0
M  V30 1302 N 133.029 1.57378 -0.0835403 0
M  V30 1303 C 134.259 1.97975 0.590713 0
M  V30 1304 C 134.667 0.961083 1.62972 0
M  V30 1305 O 134.01 -0.0590879 1.83605 0
M  V30 1306 C 134.072 3.34915 1.3066 0
M  V30 1307 C 133.736 4.55069 0.419698 0
M  V30 1308 C 134.733 5.18868 -0.32749 0
M  V30 1309 C 132.418 5.0114 0.341137 0
M  V30 1310 C 134.412 6.27098 -1.14134 0
M  V30 1311 C 132.099 6.0924 -0.476374 0
M  V30 1312 C 133.097 6.72083 -1.21627 0
M  V30 1313 O 132.785 7.781 -2.02028 0
M  V30 1314 H 132.517 0.655818 0.163947 0
M  V30 1315 H 135.071 2.04807 -0.156021 0
M  V30 1316 H 133.301 3.24733 2.09966 0
M  V30 1317 H 134.99 3.60037 1.87424 0
M  V30 1318 H 135.756 4.84211 -0.276459 0
M  V30 1319 H 131.635 4.51996 0.90668 0
M  V30 1320 H 135.179 6.7608 -1.71935 0
M  V30 1321 H 131.076 6.43329 -0.528927 0
M  V30 1322 H 131.844 7.95034 -1.94586 0
M  V30 1323 N 134.507 -0.190092 1.56449 0
M  V30 1324 C 135.784 -0.935886 1.71757 0
M  V30 1325 C 136.164 -2.01173 0.639726 0
M  V30 1326 O 135.512 -2.25827 -0.348502 0
M  V30 1327 C 135.722 -1.51775 3.1427 0
M  V30 1328 C 137.07 -1.99794 3.74656 0
M  V30 1329 O 138.094 -1.61607 3.1743 0
M  V30 1330 O 136.953 -2.70079 4.751 0
M  V30 1331 H 134.047 -0.439229 0.700719 0
M  V30 1332 H 136.593 -0.179395 1.68749 0
M  V30 1333 H 135.365 -0.742505 3.84191 0
M  V30 1334 H 134.988 -2.33894 3.21527 0
M  V30 1335 N 135.985 -1.50799 -0.457987 0
M  V30 1336 C 137.215 -1.65977 -1.23025 0
M  V30 1337 C 137.623 -0.347918 -1.85974 0
M  V30 1338 O 136.966 0.68148 -1.70592 0
M  V30 1339 C 137.028 -2.70309 -2.3701 0
M  V30 1340 C 136.692 -4.135 -1.94594 0
M  V30 1341 C 137.689 -4.98949 -1.46101 0
M  V30 1342 C 135.374 -4.5949 -2.02915 0
M  V30 1343 C 137.368 -6.28442 -1.06489 0
M  V30 1344 C 135.055 -5.88984 -1.62914 0
M  V30 1345 C 136.053 -6.73286 -1.1478 0
M  V30 1346 O 135.741 -8.00362 -0.75339 0
M  V30 1347 H 135.473 -0.56064 -0.377702 0
M  V30 1348 H 138.027 -1.97857 -0.551537 0
M  V30 1349 H 136.257 -2.337 -3.08093 0
M  V30 1350 H 137.946 -2.74574 -2.98938 0
M  V30 1351 H 138.712 -4.6463 -1.39084 0
M  V30 1352 H 134.591 -3.94009 -2.39328 0
M  V30 1353 H 138.135 -6.94194 -0.688488 0
M  V30 1354 H 134.032 -6.22822 -1.69595 0
M  V30 1355 H 134.8 -8.13744 -0.88108 0
M  V30 1356 N 137.463 0.71206 -1.40597 0
M  V30 1357 C 138.373 1.8562 -1.43466 0
M  V30 1358 C 139.389 1.70902 -0.326902 0
M  V30 1359 O 140.565 1.93105 -0.572043 0
M  V30 1360 C 137.63 3.21451 -1.29884 0
M  V30 1361 C 136.691 3.48398 -2.50833 0
M  V30 1362 C 135.924 4.77749 -2.3789 0
M  V30 1363 O 136.147 5.53089 -1.39459 0
M  V30 1364 O 135.081 5.05111 -3.27333 0
M  V30 1365 H 138.907 1.86155 -2.39958 0
M  V30 1366 H 136.492 0.86295 -1.21957 0
M  V30 1367 H 138.374 4.02579 -1.24531 0
M  V30 1368 H 137.049 3.21636 -0.364997 0
M  V30 1369 H 135.956 2.67265 -2.61763 0
M  V30 1370 H 137.289 3.53014 -3.4299 0
M  V30 1371 N 138.941 1.26152 0.944643 0
M  V30 1372 C 139.904 1.07474 2.0244 0
M  V30 1373 C 140.904 0.0242064 1.60782 0
M  V30 1374 O 142.094 0.267302 1.72137 0
M  V30 1375 C 139.226 0.633956 3.34953 0
M  V30 1376 H 140.419 2.03336 2.20442 0
M  V30 1377 H 137.972 1.087 1.12312 0
M  V30 1378 H 138.707 -0.326811 3.22649 0
M  V30 1379 H 138.492 1.39247 3.66542 0
M  V30 1380 H 139.982 0.52501 4.14287 0
M  V30 1381 N 140.419 -1.14872 1.07899 0
M  V30 1382 C 141.835 -1.37776 0.805606 0
M  V30 1383 C 142.035 -1.92743 -0.587555 0
M  V30 1384 O 141.091 -2.13678 -1.34528 0
M  V30 1385 C 142.404 -2.34361 1.88402 0
M  V30 1386 C 143.952 -2.48012 1.90942 0
M  V30 1387 C 144.427 -3.47893 2.97883 0
M  V30 1388 N 145.918 -3.55433 2.97021 0
M  V30 1389 C 146.653 -4.32553 3.76412 0
M  V30 1390 N 146.149 -5.12959 4.65666 0
M  V30 1391 N 147.942 -4.27697 3.64735 0
M  V30 1392 H 140.093 -0.775365 1.97742 0
M  V30 1393 H 142.356 -0.403521 0.857831 0
M  V30 1394 H 142.062 -2.01098 2.88535 0
M  V30 1395 H 141.936 -3.34206 1.74889 0
M  V30 1396 H 144.323 -2.8057 0.914579 0
M  V30 1397 H 144.404 -1.48147 2.08534 0
M  V30 1398 H 144.048 -3.16069 3.97571 0
M  V30 1399 H 143.978 -4.47527 2.77538 0
M  V30 1400 H 146.469 -2.98048 2.32326 0
M  V30 1401 H 146.782 -5.69065 5.22862 0
M  V30 1402 H 145.127 -5.12245 4.69712 0
M  V30 1403 H 148.318 -3.63949 2.94378 0
M  V30 1404 H 148.491 -4.8755 4.26848 0
M  V30 1405 N 141.898 -0.863906 -1.31812 0
M  V30 1406 C 143.126 -0.486111 -2.01108 0
M  V30 1407 C 143.541 0.919755 -1.64882 0
M  V30 1408 O 142.898 1.60162 -0.874893 0
M  V30 1409 C 142.949 -0.626435 -3.56031 0
M  V30 1410 O 142.67 -1.97693 -3.90959 0
M  V30 1411 C 144.171 -0.248857 -4.42601 0
M  V30 1412 H 141.391 -0.190052 -0.643523 0
M  V30 1413 H 143.935 -1.1634 -1.68182 0
M  V30 1414 H 142.09 0.00322717 -3.874 0
M  V30 1415 H 142.504 -1.98034 -4.85678 0
M  V30 1416 H 143.978 -0.398016 -5.50563 0
M  V30 1417 H 144.455 0.811489 -4.31638 0
M  V30 1418 H 145.061 -0.853971 -4.16638 0
M  V30 1419 N 143.376 1.44774 -0.622745 0
M  V30 1420 C 144.286 2.34433 0.0886031 0
M  V30 1421 C 145.302 1.52131 0.844529 0
M  V30 1422 O 146.478 1.84886 0.798691 0
M  V30 1423 C 143.543 3.29986 1.0635 0
M  V30 1424 C 142.604 4.28195 0.307873 0
M  V30 1425 C 141.837 5.19183 1.23633 0
M  V30 1426 O 142.06 5.13918 2.47476 0
M  V30 1427 O 140.994 5.97515 0.725189 0
M  V30 1428 H 144.82 2.96693 -0.648599 0
M  V30 1429 H 142.405 1.44408 -0.382957 0
M  V30 1430 H 144.287 3.88825 1.6246 0
M  V30 1431 H 142.962 2.70269 1.78146 0
M  V30 1432 H 141.869 3.72927 -0.296064 0
M  V30 1433 H 143.202 4.90808 -0.3699 0
M  V30 1434 N 144.854 0.36279 1.53368 0
M  V30 1435 C 146.131 -0.284021 1.93527 0
M  V30 1436 C 146.511 -1.66628 1.29608 0
M  V30 1437 O 145.859 -2.23942 0.45413 0
M  V30 1438 C 146.069 -0.337028 3.47369 0
M  V30 1439 C 147.417 -0.578708 4.20638 0
M  V30 1440 O 148.441 -0.418352 3.53735 0
M  V30 1441 O 147.3 -0.89074 5.39192 0
M  V30 1442 H 144.394 -0.169743 0.809393 0
M  V30 1443 H 146.94 0.41537 1.64538 0
M  V30 1444 H 145.712 0.632217 3.86159 0
M  V30 1445 H 145.335 -1.08243 3.82582 0
M  V30 1446 N 146.332 -1.57332 0.0918853 0
M  V30 1447 C 147.609 -1.85691 -0.614668 0
M  V30 1448 C 147.989 -0.988146 -1.86545 0
M  V30 1449 O 147.337 -0.0597055 -2.28422 0
M  V30 1450 C 147.547 -3.36294 -0.933126 0
M  V30 1451 C 148.895 -4.04275 -1.29796 0
M  V30 1452 O 149.919 -3.41157 -1.02424 0
M  V30 1453 O 148.778 -5.1564 -1.81047 0
M  V30 1454 H 145.872 -0.767802 -0.307261 0
M  V30 1455 H 148.418 -1.69244 0.12434 0
M  V30 1456 H 147.19 -3.91273 -0.0456404 0
M  V30 1457 H 146.813 -3.58076 -1.72822 0
M  V30 1458 N 147.81 0.181792 -1.56548 0
M  V30 1459 C 148.74 1.22765 -1.98623 0
M  V30 1460 C 149.721 1.46747 -0.860189 0
M  V30 1461 O 150.906 1.58259 -1.12551 0
M  V30 1462 C 148.036 2.56894 -2.33715 0
M  V30 1463 C 146.99 2.475 -3.49182 0
M  V30 1464 C 146.316 3.86023 -3.69986 0
M  V30 1465 C 147.616 1.98866 -4.82959 0
M  V30 1466 H 149.31 0.877942 -2.86239 0
M  V30 1467 H 146.856 0.42088 -1.37712 0
M  V30 1468 H 148.809 3.30253 -2.61746 0
M  V30 1469 H 147.533 2.93632 -1.42997 0
M  V30 1470 H 146.192 1.76596 -3.21262 0
M  V30 1471 H 145.84 4.20136 -2.76576 0
M  V30 1472 H 145.54 3.80609 -4.47672 0
M  V30 1473 H 147.064 4.60984 -4.00407 0
M  V30 1474 H 148.478 2.61992 -5.09934 0
M  V30 1475 H 146.875 2.04424 -5.64208 0
M  V30 1476 H 147.945 0.942465 -4.75653 0
M  V30 1477 N 149.288 1.51039 0.449983 0
M  V30 1478 C 150.513 1.6715 1.22783 0
M  V30 1479 C 150.938 0.363081 1.84563 0
M  V30 1480 O 150.296 -0.675433 1.68249 0
M  V30 1481 C 150.344 2.77985 2.29689 0
M  V30 1482 O 149.448 2.40707 3.34864 0
M  V30 1483 H 148.789 0.557746 0.360299 0
M  V30 1484 H 151.319 1.97535 0.533005 0
M  V30 1485 H 151.329 3.01693 2.74673 0
M  V30 1486 H 150.004 3.72935 1.84098 0
M  V30 1487 H 148.581 2.27523 2.95445 0
M  V30 1488 N 150.766 -0.704594 1.40972 0
M  V30 1489 C 152.013 -1.46458 1.39844 0
M  V30 1490 C 152.341 -1.94499 0.00447594 0
M  V30 1491 O 151.596 -1.69275 -0.982057 0
M  V30 1492 C 151.895 -2.698 2.34399 0
M  V30 1493 C 151.561 -2.40464 3.81429 0
M  V30 1494 C 150.223 -2.32174 4.21484 0
M  V30 1495 C 152.575 -2.16086 4.74296 0
M  V30 1496 C 149.903 -1.97589 5.52427 0
M  V30 1497 C 152.255 -1.83011 6.05549 0
M  V30 1498 C 150.919 -1.7321 6.44635 0
M  V30 1499 H 150.189 -0.535927 0.511725 0
M  V30 1500 H 152.836 -0.806124 1.73706 0
M  V30 1501 H 151.141 -3.40536 1.93759 0
M  V30 1502 H 152.838 -3.27919 2.30804 0
M  V30 1503 H 149.428 -2.47808 3.49699 0
M  V30 1504 H 153.612 -2.2144 4.4416 0
M  V30 1505 H 148.868 -1.88547 5.81601 0
M  V30 1506 H 153.042 -1.63164 6.77016 0
M  V30 1507 H 150.669 -1.46179 7.46013 0
M  V30 1508 N 152.244 -1.26651 -0.937939 0
M  V30 1509 C 153.194 -1.05156 -2.02302 0
M  V30 1510 C 154.178 0.0171233 -1.60891 0
M  V30 1511 O 155.37 -0.200213 -1.75864 0
M  V30 1512 C 152.499 -0.689962 -3.36295 0
M  V30 1513 C 151.585 -1.79626 -3.84181 0
M  V30 1514 N 151.976 -3.03422 -4.04684 0
M  V30 1515 C 150.274 -1.6806 -4.13124 0
M  V30 1516 C 150.975 -3.75345 -4.444 0
M  V30 1517 N 149.951 -3.03051 -4.51288 0
M  V30 1518 H 153.753 -1.99117 -2.1617 0
M  V30 1519 H 151.267 -1.17216 -1.12402 0
M  V30 1520 H 153.264 -0.517112 -4.13681 0
M  V30 1521 H 151.924 0.242139 -3.23796 0
M  V30 1522 H 152.935 -3.39293 -3.91281 0
M  V30 1523 H 149.612 -0.818629 -4.09396 0
M  V30 1524 H 151.002 -4.81691 -4.68427 0
M  V30 1525 N 153.722 1.14298 -1.08507 0
M  V30 1526 C 154.669 2.19414 -0.715965 0
M  V30 1527 C 155.639 1.63399 0.298326 0
M  V30 1528 O 156.824 1.89929 0.182101 0
M  V30 1529 C 153.964 3.44845 -0.132534 0
M  V30 1530 C 153.077 4.15007 -1.19973 0
M  V30 1531 C 152.212 5.28024 -0.580048 0
M  V30 1532 C 151.251 5.9002 -1.62921 0
M  V30 1533 N 150.388 6.94485 -1.03125 0
M  V30 1534 H 155.228 2.50336 -1.61666 0
M  V30 1535 H 152.765 1.2293 -0.807882 0
M  V30 1536 H 154.723 4.16601 0.223454 0
M  V30 1537 H 153.353 3.14403 0.731467 0
M  V30 1538 H 152.405 3.41629 -1.67313 0
M  V30 1539 H 153.717 4.57178 -1.99473 0
M  V30 1540 H 152.871 6.06455 -0.172364 0
M  V30 1541 H 151.61 4.87076 0.246603 0
M  V30 1542 H 150.615 5.10291 -2.04654 0
M  V30 1543 H 151.84 6.33042 -2.45835 0
M  V30 1544 H 149.786 6.55612 -0.225711 0
M  V30 1545 H 149.703 7.35148 -1.76334 0
M  V30 1546 H 150.971 7.7679 -0.649458 0
M  V30 1547 N 155.201 0.870884 1.31352 0
M  V30 1548 C 156.449 0.48132 1.96285 0
M  V30 1549 C 156.77 -0.969813 1.69173 0
M  V30 1550 O 156.04 -1.67998 1.00764 0
M  V30 1551 H 154.62 0.175002 0.726212 0
M  V30 1552 H 157.282 1.11087 1.60143 0
M  V30 1553 H 156.378 0.639825 3.05471 0
M  V30 1554 N 156.679 -1.44442 0.630414 0
M  V30 1555 C 157.589 -2.34476 -0.0761693 0
M  V30 1556 C 158.605 -1.52576 -0.836449 0
M  V30 1557 O 159.781 -1.85307 -0.788874 0
M  V30 1558 C 156.846 -3.30545 -1.04599 0
M  V30 1559 C 155.907 -4.28352 -0.28516 0
M  V30 1560 C 155.14 -5.19831 -1.20878 0
M  V30 1561 O 155.363 -5.15223 -2.44747 0
M  V30 1562 O 154.297 -5.97892 -0.693491 0
M  V30 1563 H 158.123 -2.96345 0.664324 0
M  V30 1564 H 155.708 -1.44203 0.39061 0
M  V30 1565 H 157.59 -3.89681 -1.60396 0
M  V30 1566 H 156.265 -2.7121 -1.76711 0
M  V30 1567 H 155.172 -3.72764 0.315837 0
M  V30 1568 H 156.505 -4.90605 0.395924 0
M  V30 1569 N 158.157 -0.370918 -1.53173 0
M  V30 1570 C 159.104 0.473035 -2.259 0
M  V30 1571 C 160.074 1.07311 -1.26781 0
M  V30 1572 O 161.259 1.1046 -1.55574 0
M  V30 1573 C 158.399 1.60405 -3.05556 0
M  V30 1574 C 157.512 1.02863 -4.19575 0
M  V30 1575 C 156.647 2.12918 -4.86661 0
M  V30 1576 C 155.686 1.52869 -5.92704 0
M  V30 1577 N 154.823 2.56779 -6.53459 0
M  V30 1578 H 159.663 -0.153649 -2.97604 0
M  V30 1579 H 157.2 -0.0875946 -1.46839 0
M  V30 1580 H 159.158 2.27034 -3.50016 0
M  V30 1581 H 157.788 2.20131 -2.36097 0
M  V30 1582 H 156.84 0.252465 -3.79561 0
M  V30 1583 H 158.152 0.549642 -4.95762 0
M  V30 1584 H 157.306 2.87356 -5.34333 0
M  V30 1585 H 156.045 2.6417 -4.09958 0
M  V30 1586 H 155.05 0.769479 -5.44389 0
M  V30 1587 H 156.275 1.02435 -6.7133 0
M  V30 1588 H 154.221 3.07235 -5.79606 0
M  V30 1589 H 154.138 2.13583 -7.25202 0
M  V30 1590 H 155.406 3.30903 -7.05779 0
M  V30 1591 N 159.635 1.57281 -0.100228 0
M  V30 1592 C 160.882 1.94537 0.562268 0
M  V30 1593 C 161.21 0.982315 1.67871 0
M  V30 1594 O 160.465 0.00280936 1.957 0
M  V30 1595 C 160.764 3.38305 1.15259 0
M  V30 1596 C 160.43 4.50618 0.159409 0
M  V30 1597 C 159.092 4.81066 -0.113741 0
M  V30 1598 C 161.444 5.18615 -0.518461 0
M  V30 1599 C 158.772 5.76835 -1.07137 0
M  V30 1600 C 161.124 6.15412 -1.46459 0
M  V30 1601 C 159.788 6.44262 -1.74592 0
M  V30 1602 H 159.058 0.711863 0.205748 0
M  V30 1603 H 161.705 1.90679 -0.17715 0
M  V30 1604 H 160.01 3.38766 1.96836 0
M  V30 1605 H 161.707 3.64435 1.67297 0
M  V30 1606 H 158.297 4.2689 0.382491 0
M  V30 1607 H 162.481 4.95264 -0.320581 0
M  V30 1608 H 157.737 5.975 -1.29628 0
M  V30 1609 H 161.911 6.67194 -1.99564 0
M  V30 1610 H 159.538 7.1828 -2.48953 0
M  V30 1611 N 161.113 -0.173488 1.56642 0
M  V30 1612 C 162.045 -1.23935 1.92802 0
M  V30 1613 C 163.058 -1.40589 0.820889 0
M  V30 1614 O 164.247 -1.40631 1.09933 0
M  V30 1615 C 161.347 -2.60837 2.16373 0
M  V30 1616 C 160.52 -2.6551 3.47596 0
M  V30 1617 C 159.579 -3.8376 3.60021 0
M  V30 1618 O 158.605 -3.69859 4.32658 0
M  V30 1619 N 159.807 -5.00127 2.94709 0
M  V30 1620 H 162.572 -0.932236 2.84832 0
M  V30 1621 H 160.133 -0.363268 1.57772 0
M  V30 1622 H 162.125 -3.38407 2.21952 0
M  V30 1623 H 160.695 -2.83948 1.30738 0
M  V30 1624 H 159.915 -1.74052 3.53694 0
M  V30 1625 H 161.203 -2.65641 4.33949 0
M  V30 1626 H 160.601 -5.14322 2.35563 0
M  V30 1627 H 159.158 -5.75567 3.05886 0
M  V30 1628 N 162.591 -1.51276 -0.441967 0
M  V30 1629 C 163.84 -1.6295 -1.18871 0
M  V30 1630 C 164.153 -0.349312 -1.92456 0
M  V30 1631 O 165.359 -0.345355 -2.69295 0
M  V30 1632 C 163.815 -2.87759 -2.16155 0
M  V30 1633 C 163.423 -4.22764 -1.48239 0
M  V30 1634 C 165.167 -3.08788 -2.91291 0
M  V30 1635 C 163.074 -5.38728 -2.4398 0
M  V30 1636 H 162.004 -0.606913 -0.447406 0
M  V30 1637 H 164.655 -1.77739 -0.456205 0
M  V30 1638 H 163.037 -2.66593 -2.92821 0
M  V30 1639 H 164.211 -4.54293 -0.771635 0
M  V30 1640 H 162.526 -4.07575 -0.852741 0
M  V30 1641 H 165.123 -3.92599 -3.63002 0
M  V30 1642 H 165.466 -2.21679 -3.5237 0
M  V30 1643 H 165.999 -3.30272 -2.21733 0
M  V30 1644 H 162.738 -6.28082 -1.87598 0
M  V30 1645 H 162.258 -5.1158 -3.13123 0
M  V30 1646 H 163.937 -5.70489 -3.05207 0
M  V30 1647 N 164.069 0.697108 -1.41344 0
M  V30 1648 C 164.999 1.82353 -1.45841 0
M  V30 1649 C 165.98 1.67115 -0.317247 0
M  V30 1650 O 167.165 1.86871 -0.528474 0
M  V30 1651 C 164.295 3.20476 -1.33838 0
M  V30 1652 C 163.249 3.50415 -2.4575 0
M  V30 1653 C 162.575 4.87878 -2.18813 0
M  V30 1654 C 163.875 3.49546 -3.88091 0
M  V30 1655 H 165.569 1.78846 -2.40113 0
M  V30 1656 H 163.115 0.859028 -1.15571 0
M  V30 1657 H 165.068 3.98988 -1.35596 0
M  V30 1658 H 163.792 3.24604 -0.360498 0
M  V30 1659 H 162.451 2.74253 -2.43271 0
M  V30 1660 H 162.099 4.8863 -1.19371 0
M  V30 1661 H 161.799 5.08875 -2.93803 0
M  V30 1662 H 163.323 5.68702 -2.22284 0
M  V30 1663 H 164.737 4.18066 -3.92293 0
M  V30 1664 H 163.134 3.82075 -4.62751 0
M  V30 1665 H 164.204 2.48552 -4.16353 0
M  V30 1666 N 165.547 1.27147 0.931209 0
M  V30 1667 C 166.495 1.09398 2.05268 0
M  V30 1668 C 167.489 0.0180591 1.6939 0
M  V30 1669 O 168.695 0.17551 1.79142 0
M  V30 1670 H 165.07 0.336986 0.672268 0
M  V30 1671 H 167.041 2.04416 2.17386 0
M  V30 1672 C 165.79 0.75424 3.39421 0
M  V30 1673 H 165.113 1.57404 3.67511 0
M  V30 1674 H 166.553 0.669903 4.18674 0
M  V30 1675 C 165.012 -0.541197 3.32525 0
M  V30 1676 O 165.542 -1.57664 3.69466 0
M  V30 1677 N 163.748 -0.535517 2.85623 0
M  V30 1678 H 163.295 0.307511 2.55758 0
M  V30 1679 H 163.253 -1.40236 2.81392 0
M  V30 1680 N 167.025 -1.13721 1.09112 0
M  V30 1681 C 168.25 -1.89314 0.847053 0
M  V30 1682 C 168.675 -1.78416 -0.595774 0
M  V30 1683 O 168.033 -1.12942 -1.41823 0
M  V30 1684 C 168.081 -3.3701 1.28284 0
M  V30 1685 O 167.185 -4.10054 0.439267 0
M  V30 1686 H 166.526 -0.588745 0.307044 0
M  V30 1687 H 169.056 -1.43902 1.45442 0
M  V30 1688 H 169.066 -3.87834 1.26683 0
M  V30 1689 H 167.741 -3.4426 2.33363 0
M  V30 1690 H 166.318 -3.69266 0.519312 0
M  V30 1691 N 168.503 -0.877838 -1.30888 0
M  V30 1692 C 169.728 -0.506629 -2.01117 0
M  V30 1693 C 170.153 0.895564 -1.65412 0
M  V30 1694 O 169.511 1.5923 -0.866922 0
M  V30 1695 C 169.559 -0.680223 -3.54126 0
M  V30 1696 O 168.663 0.277033 -4.11468 0
M  V30 1697 H 168.004 -0.200518 -0.633 0
M  V30 1698 H 170.534 -1.18342 -1.66902 0
M  V30 1699 H 170.544 -0.5765 -4.03907 0
M  V30 1700 H 169.219 -1.70261 -3.79452 0
M  V30 1701 H 167.796 0.127606 -3.72682 0
M  V30 1702 N 169.982 1.44106 -0.638065 0
M  V30 1703 C 170.892 2.34513 0.0637334 0
M  V30 1704 C 171.908 1.53018 0.828346 0
M  V30 1705 O 173.084 1.85723 0.779036 0
M  V30 1706 C 170.149 3.31095 1.02844 0
M  V30 1707 C 169.21 4.28497 0.26244 0
M  V30 1708 C 168.443 5.20465 1.1812 0
M  V30 1709 O 168.666 5.16514 2.42011 0
M  V30 1710 O 167.6 5.98251 0.661774 0
M  V30 1711 H 171.426 2.95989 -0.68003 0
M  V30 1712 H 169.011 1.43994 -0.398252 0
M  V30 1713 H 170.893 3.90526 1.58327 0
M  V30 1714 H 169.568 2.72144 1.7527 0
M  V30 1715 H 168.475 3.72592 -0.335602 0
M  V30 1716 H 169.808 4.90388 -0.421936 0
M  V30 1717 N 171.46 0.379036 1.52974 0
M  V30 1718 C 172.708 -0.206014 2.01047 0
M  V30 1719 C 173.029 -1.48175 1.26765 0
M  V30 1720 O 172.299 -1.92085 0.384743 0
M  V30 1721 H 170.879 -0.0791184 0.742798 0
M  V30 1722 H 173.541 0.508366 1.88153 0
M  V30 1723 H 172.637 -0.423501 3.09213 0
M  V30 1724 N 172.938 -1.57226 0.108567 0
M  V30 1725 C 174.215 -1.86333 -0.594939 0
M  V30 1726 C 174.595 -1.00788 -1.85486 0
M  V30 1727 O 173.943 -0.0839293 -2.28346 0
M  V30 1728 C 174.153 -3.37265 -0.897405 0
M  V30 1729 C 175.501 -4.05629 -1.25501 0
M  V30 1730 O 176.525 -3.42224 -0.987998 0
M  V30 1731 O 175.384 -5.17531 -1.75567 0
M  V30 1732 H 172.478 -0.771018 -0.2991 0
M  V30 1733 H 175.024 -1.69102 0.142283 0
M  V30 1734 H 173.796 -3.913 -0.00413806 0
M  V30 1735 H 173.419 -3.59889 -1.69014 0
M  V30 1736 N 174.416 0.165178 -1.56732 0
M  V30 1737 C 175.662 0.877389 -1.83503 0
M  V30 1738 C 176.017 1.79602 -0.689996 0
M  V30 1739 O 175.31 1.89023 0.313205 0
M  V30 1740 C 175.504 1.70405 -3.1416 0
M  V30 1741 C 175.333 0.866961 -4.41264 0
M  V30 1742 C 174.103 0.539646 -5.0241 0
M  V30 1743 C 176.301 0.205671 -5.13889 0
M  V30 1744 N 174.283 -0.312946 -6.13102 0
M  V30 1745 C 175.654 -0.507823 -6.17917 0
M  V30 1746 C 177.709 0.124468 -4.97744 0
M  V30 1747 C 176.412 -1.29483 -7.0755 0
M  V30 1748 C 178.438 -0.649222 -5.87826 0
M  V30 1749 C 177.8 -1.35106 -6.91322 0
M  V30 1750 H 173.899 0.299477 -0.722383 0
M  V30 1751 H 176.483 0.143949 -1.94167 0
M  V30 1752 H 174.654 2.40887 -3.04677 0
M  V30 1753 H 176.386 2.35804 -3.28905 0
M  V30 1754 H 173.141 0.871176 -4.65519 0
M  V30 1755 H 173.565 -0.729731 -6.73056 0
M  V30 1756 H 178.207 0.652724 -4.17731 0
M  V30 1757 H 175.925 -1.83441 -7.87004 0
M  V30 1758 H 179.511 -0.713804 -5.77405 0
M  V30 1759 H 178.391 -1.94013 -7.59821 0
M  V30 1760 N 175.894 1.51508 0.433938 0
M  V30 1761 C 177.14 1.65549 1.18173 0
M  V30 1762 C 177.495 0.368751 1.88833 0
M  V30 1763 O 176.788 -0.635616 1.8075 0
M  V30 1764 C 176.982 2.79928 2.22205 0
M  V30 1765 C 176.811 4.19601 1.61756 0
M  V30 1766 C 175.581 4.85489 1.40101 0
M  V30 1767 C 177.779 5.02574 1.09194 0
M  V30 1768 N 175.761 6.09266 0.752859 0
M  V30 1769 C 177.132 6.17381 0.569255 0
M  V30 1770 C 179.187 4.88079 0.984025 0
M  V30 1771 C 177.89 7.19282 -0.0507472 0
M  V30 1772 C 179.916 5.90191 0.377912 0
M  V30 1773 C 179.278 7.04272 -0.134216 0
M  V30 1774 H 175.377 0.659653 0.419979 0
M  V30 1775 H 177.961 1.88746 0.477818 0
M  V30 1776 H 176.132 2.5839 2.89982 0
M  V30 1777 H 177.864 2.83132 2.89168 0
M  V30 1778 H 174.619 4.43417 1.66369 0
M  V30 1779 H 175.043 6.75528 0.446123 0
M  V30 1780 H 179.685 4.00131 1.36583 0
M  V30 1781 H 177.403 8.06876 -0.444676 0
M  V30 1782 H 180.989 5.81045 0.296269 0
M  V30 1783 H 179.869 7.81933 -0.59585 0
M  V30 1784 N 177.372 -0.689602 1.41712 0
M  V30 1785 C 178.282 -1.83314 1.46401 0
M  V30 1786 C 179.298 -1.7036 0.35405 0
M  V30 1787 O 180.474 -1.92171 0.602692 0
M  V30 1788 C 177.539 -3.19344 1.34982 0
M  V30 1789 C 176.6 -3.44363 2.56344 0
M  V30 1790 C 175.833 -4.73904 2.45461 0
M  V30 1791 O 176.056 -5.508 1.48241 0
M  V30 1792 O 174.99 -4.99839 3.35328 0
M  V30 1793 H 178.816 -1.82314 2.42889 0
M  V30 1794 H 176.401 -0.843438 1.23315 0
M  V30 1795 H 178.283 -4.00547 1.3092 0
M  V30 1796 H 176.958 -3.21014 0.41612 0
M  V30 1797 H 175.865 -2.63067 2.65982 0
M  V30 1798 H 177.198 -3.47512 3.48563 0
M  V30 1799 N 178.85 -1.27639 -0.924453 0
M  V30 1800 C 179.813 -1.10681 -2.00705 0
M  V30 1801 C 180.813 -0.0497823 -1.60723 0
M  V30 1802 O 182.003 -0.294654 -1.7169 0
M  V30 1803 C 179.135 -0.687164 -3.33902 0
M  V30 1804 H 180.328 -2.06817 -2.17179 0
M  V30 1805 H 177.881 -1.10473 -1.10569 0
M  V30 1806 H 178.616 0.275439 -3.23128 0
M  V30 1807 H 178.401 -1.45061 -3.6428 0
M  V30 1808 H 179.891 -0.590853 -4.13399 0
M  V30 1809 N 180.328 1.1314 -1.09713 0
M  V30 1810 C 181.744 1.36477 -0.827423 0
M  V30 1811 C 181.944 1.93654 0.556817 0
M  V30 1812 O 181 2.15791 1.31112 0
M  V30 1813 C 182.313 2.31334 -1.92106 0
M  V30 1814 C 183.861 2.44943 -1.94864 0
M  V30 1815 C 184.336 3.4311 -3.0338 0
M  V30 1816 N 185.827 3.50662 -3.02639 0
M  V30 1817 C 186.562 4.2651 -3.83246 0
M  V30 1818 N 186.058 5.05485 -4.73768 0
M  V30 1819 N 187.851 4.2184 -3.71493 0
M  V30 1820 H 180.002 0.743807 -1.9895 0
M  V30 1821 H 182.265 0.389823 -0.864143 0
M  V30 1822 H 181.971 1.96483 -2.91698 0
M  V30 1823 H 181.845 3.31381 -1.80184 0
M  V30 1824 H 184.232 2.79079 -0.959099 0
M  V30 1825 H 184.313 1.4481 -2.10864 0
M  V30 1826 H 183.957 3.09704 -4.02549 0
M  V30 1827 H 183.887 4.43055 -2.84622 0
M  V30 1828 H 186.378 2.94315 -2.37039 0
M  V30 1829 H 186.691 5.60675 -5.3185 0
M  V30 1830 H 185.036 5.04708 -4.77802 0
M  V30 1831 H 188.227 3.5922 -3.00131 0
M  V30 1832 H 188.4 4.80697 -4.3455 0
M  V30 1833 N 181.806 0.884767 1.30421 0
M  V30 1834 C 183.031 0.517288 2.00845 0
M  V30 1835 C 183.456 -0.886779 1.65885 0
M  V30 1836 O 182.814 -1.58768 0.875354 0
M  V30 1837 C 182.862 0.698994 3.5376 0
M  V30 1838 O 181.966 -0.255208 4.1161 0
M  V30 1839 H 181.307 0.203872 0.631927 0
M  V30 1840 H 183.837 1.19225 1.66272 0
M  V30 1841 H 183.847 0.597912 4.03595 0
M  V30 1842 H 182.522 1.72271 3.78544 0
M  V30 1843 H 181.099 -0.10784 3.72744 0
M  V30 1844 N 183.284 -1.43765 0.645699 0
M  V30 1845 C 184.214 -2.33471 -0.0370477 0
M  V30 1846 C 185.195 -1.49042 -0.819779 0
M  V30 1847 O 186.38 -1.77726 -0.782758 0
M  V30 1848 C 183.51 -3.32311 -1.0093 0
M  V30 1849 C 182.464 -4.2667 -0.337201 0
M  V30 1850 C 181.79 -5.1549 -1.42037 0
M  V30 1851 C 183.09 -5.16657 0.765706 0
M  V30 1852 H 184.784 -2.90809 0.712069 0
M  V30 1853 H 182.33 -1.39834 0.343876 0
M  V30 1854 H 184.283 -3.9396 -1.49578 0
M  V30 1855 H 183.007 -2.73213 -1.78948 0
M  V30 1856 H 181.666 -3.66374 0.128771 0
M  V30 1857 H 181.314 -4.52735 -2.1918 0
M  V30 1858 H 181.014 -5.79438 -0.975966 0
M  V30 1859 H 182.538 -5.80012 -1.90838 0
M  V30 1860 H 183.952 -5.72158 0.361702 0
M  V30 1861 H 182.349 -5.89286 1.13413 0
M  V30 1862 H 183.419 -4.56796 1.62683 0
M  V30 1863 N 184.763 -0.387143 -1.52771 0
M  V30 1864 C 185.991 0.195869 -2.05971 0
M  V30 1865 C 186.406 1.40691 -1.25903 0
M  V30 1866 O 185.763 1.79931 -0.305134 0
M  V30 1867 C 185.814 0.56812 -3.57008 0
M  V30 1868 O 185.535 -0.594803 -4.34043 0
M  V30 1869 C 187.036 1.20723 -4.26545 0
M  V30 1870 H 184.256 0.0300578 -0.670326 0
M  V30 1871 H 186.8 -0.551749 -1.96916 0
M  V30 1872 H 184.955 1.26564 -3.66143 0
M  V30 1873 H 185.369 -0.289322 -5.23701 0
M  V30 1874 H 186.843 1.41807 -5.33474 0
M  V30 1875 H 187.32 2.17395 -3.81623 0
M  V30 1876 H 187.926 0.550535 -4.21722 0
M  V30 1877 N 186.241 1.57166 -0.116904 0
M  V30 1878 C 187.469 1.99473 0.549383 0
M  V30 1879 C 187.884 0.996541 1.60357 0
M  V30 1880 O 187.241 -0.0108731 1.82497 0
M  V30 1881 C 187.292 3.41788 1.17741 0
M  V30 1882 O 187.013 4.37788 0.165362 0
M  V30 1883 C 188.514 3.99216 1.92722 0
M  V30 1884 H 185.734 0.655009 0.145616 0
M  V30 1885 H 188.278 2.03494 -0.202625 0
M  V30 1886 H 186.433 3.38713 1.88021 0
M  V30 1887 H 186.847 5.20806 0.621403 0
M  V30 1888 H 188.321 5.00882 2.31995 0
M  V30 1889 H 188.798 3.3824 2.80161 0
M  V30 1890 H 189.404 4.0583 1.27209 0
M  V30 1891 N 187.719 -0.156864 1.56817 0
M  V30 1892 C 188.967 -0.869404 1.82444 0
M  V30 1893 C 189.288 -1.82147 0.69623 0
M  V30 1894 O 188.558 -1.93847 -0.28287 0
M  V30 1895 H 187.138 -0.324043 0.673056 0
M  V30 1896 H 189.8 -0.153224 1.94297 0
M  V30 1897 H 188.896 -1.43761 2.77019 0
M  V30 1898 N 189.197 -1.51736 -0.425897 0
M  V30 1899 C 190.107 -1.76738 -1.54275 0
M  V30 1900 C 191.123 -0.65211 -1.61318 0
M  V30 1901 O 192.299 -0.935654 -1.78346 0
M  V30 1902 C 189.364 -1.89755 -2.90162 0
M  V30 1903 C 188.425 -3.13633 -2.93143 0
M  V30 1904 C 187.658 -3.2602 -4.22548 0
M  V30 1905 O 187.881 -2.44067 -5.15546 0
M  V30 1906 O 186.815 -4.19071 -4.32046 0
M  V30 1907 H 190.641 -2.71502 -1.36089 0
M  V30 1908 H 188.226 -1.36376 -0.610069 0
M  V30 1909 H 190.108 -2.00236 -3.70788 0
M  V30 1910 H 188.783 -0.981785 -3.08452 0
M  V30 1911 H 187.69 -3.08622 -2.11431 0
M  V30 1912 H 189.023 -4.04936 -2.798 0
M  V30 1913 N 190.675 0.682077 -1.42076 0
M  V30 1914 C 191.903 1.47057 -1.4554 0
M  V30 1915 C 192.318 1.8869 -0.0645779 0
M  V30 1916 O 191.675 1.57666 0.919115 0
M  V30 1917 C 191.726 2.72442 -2.37609 0
M  V30 1918 O 191.447 2.32559 -3.71279 0
M  V30 1919 C 192.948 3.66069 -2.50017 0
M  V30 1920 H 190.168 0.452737 -0.495248 0
M  V30 1921 H 192.712 0.838695 -1.8651 0
M  V30 1922 H 190.867 3.31835 -1.9991 0
M  V30 1923 H 191.281 3.13475 -4.20516 0
M  V30 1924 H 192.755 4.50792 -3.18576 0
M  V30 1925 H 193.232 4.11476 -1.53572 0
M  V30 1926 H 193.838 3.12572 -2.88407 0
M  V30 1927 N 192.153 1.28127 0.917671 0
M  V30 1928 C 193.401 1.14825 1.66312 0
M  V30 1929 C 193.722 -0.304379 1.9261 0
M  V30 1930 O 192.992 -1.21149 1.53947 0
M  V30 1931 H 191.572 0.421953 0.616413 0
M  V30 1932 H 194.234 1.608 1.10134 0
M  V30 1933 H 193.33 1.68489 2.62712 0
M  V30 1934 N 193.631 -1.12557 1.10312 0
M  V30 1935 C 194.861 -1.87592 0.865617 0
M  V30 1936 C 195.269 -1.79851 -0.587389 0
M  V30 1937 O 194.612 -1.16949 -1.41664 0
M  V30 1938 C 194.674 -3.37665 1.23381 0
M  V30 1939 C 194.338 -3.69181 2.69359 0
M  V30 1940 C 195.335 -3.67652 3.67597 0
M  V30 1941 C 193.02 -3.98555 3.05711 0
M  V30 1942 C 195.014 -3.95053 5.00212 0
M  V30 1943 C 192.701 -4.25616 4.38514 0
M  V30 1944 C 193.699 -4.23851 5.35574 0
M  V30 1945 O 193.387 -4.50242 6.65986 0
M  V30 1946 H 193.119 -0.600442 0.310557 0
M  V30 1947 H 195.673 -1.4335 1.47105 0
M  V30 1948 H 193.903 -3.82454 0.571467 0
M  V30 1949 H 195.592 -3.94041 0.973994 0
M  V30 1950 H 196.358 -3.45024 3.40857 0
M  V30 1951 H 192.237 -3.99071 2.30789 0
M  V30 1952 H 195.781 -3.93591 5.75962 0
M  V30 1953 H 191.678 -4.47718 4.64994 0
M  V30 1954 H 192.446 -4.67867 6.71597 0
M  V30 1955 N 195.109 -0.891671 -1.2995 0
M  V30 1956 C 196.358 -0.509521 -1.95158 0
M  V30 1957 C 196.671 0.947388 -1.71125 0
M  V30 1958 O 197.877 1.43669 -2.30372 0
M  V30 1959 C 196.333 -0.860315 -3.49466 0
M  V30 1960 C 195.941 -2.33545 -3.8231 0
M  V30 1961 C 197.685 -0.547687 -4.20952 0
M  V30 1962 C 195.592 -2.62752 -5.29826 0
M  V30 1963 H 194.522 -0.18682 -0.730489 0
M  V30 1964 H 197.173 -1.08756 -1.47798 0
M  V30 1965 H 195.555 -0.211285 -3.95436 0
M  V30 1966 H 196.729 -3.02936 -3.47227 0
M  V30 1967 H 195.044 -2.61629 -3.23944 0
M  V30 1968 H 197.641 -0.742854 -5.29515 0
M  V30 1969 H 197.984 0.51332 -4.13123 0
M  V30 1970 H 198.517 -1.1542 -3.80688 0
M  V30 1971 H 195.256 -3.6762 -5.42712 0
M  V30 1972 H 194.776 -1.97977 -5.66185 0
M  V30 1973 H 196.455 -2.48601 -5.97333 0
M  V30 1974 N 196.587 1.43421 -0.653314 0
M  V30 1975 C 197.998 1.85065 -0.246537 0
M  V30 1976 C 198.349 1.54688 1.2069 0
M  V30 1977 O 197.474 0.995896 1.92122 0
M  V30 1978 C 198.069 3.35922 -0.440666 0
M  V30 1979 C 196.628 3.76297 -0.0882064 0
M  V30 1980 C 195.775 2.67147 -0.743484 0
M  V30 1981 H 198.726 1.33572 -0.856979 0
M  V30 1982 H 198.747 3.79204 0.313798 0
M  V30 1983 H 198.259 3.58 -1.49858 0
M  V30 1984 H 196.36 3.5983 0.96711 0
M  V30 1985 H 196.473 4.76338 -0.513738 0
M  V30 1986 H 194.837 2.54086 -0.176712 0
M  V30 1987 H 195.62 2.92053 -1.80443 0
M  V30 1988 N 198.065 0.39524 1.52563 0
M  V30 1989 C 199.29 -0.187456 2.06551 0
M  V30 1990 C 199.715 -1.39249 1.26457 0
M  V30 1991 O 199.073 -1.78947 0.291151 0
M  V30 1992 C 199.121 -0.529985 3.56684 0
M  V30 1993 O 198.225 -1.62307 3.79118 0
M  V30 1994 H 197.566 -0.0202537 0.663691 0
M  V30 1995 H 200.096 0.564426 1.96661 0
M  V30 1996 H 200.106 -0.792598 4.00227 0
M  V30 1997 H 198.781 0.350987 4.14416 0
M  V30 1998 H 197.358 -1.3537 3.47461 0
M  V30 1999 N 199.544 -1.57102 0.125237 0
M  V30 2000 C 200.492 -2.16905 -0.839927 0
M  V30 2001 C 201.486 -1.11998 -1.27094 0
M  V30 2002 O 202.692 -1.3029 -1.24195 0
M  V30 2003 H 199.067 -0.694252 -0.288995 0
M  V30 2004 H 201.038 -2.96774 -0.311115 0
M  V30 2005 C 199.787 -2.78795 -2.07771 0
M  V30 2006 H 199.11 -3.59221 -1.755 0
M  V30 2007 H 200.55 -3.2417 -2.73295 0
M  V30 2008 C 199.009 -1.76193 -2.87155 0
M  V30 2009 O 199.539 -1.21909 -3.82755 0
M  V30 2010 N 197.745 -1.45991 -2.51267 0
M  V30 2011 H 197.292 -1.90325 -1.73592 0
M  V30 2012 H 197.25 -0.775844 -3.04677 0
M  V30 2013 N 201.022 0.148545 -1.56898 0
M  V30 2014 C 202.252 0.875118 -1.8715 0
M  V30 2015 C 202.66 1.75322 -0.711262 0
M  V30 2016 O 202.003 1.80745 0.328151 0
M  V30 2017 C 202.065 1.7844 -3.12089 0
M  V30 2018 C 201.729 1.08361 -4.43967 0
M  V30 2019 C 202.726 0.438247 -5.1805 0
M  V30 2020 C 200.411 1.07358 -4.90693 0
M  V30 2021 C 202.405 -0.20779 -6.37061 0
M  V30 2022 C 200.092 0.42373 -6.09629 0
M  V30 2023 C 201.09 -0.215829 -6.82659 0
M  V30 2024 O 200.778 -0.855378 -7.99336 0
M  V30 2025 H 200.51 0.258504 -0.624621 0
M  V30 2026 H 203.064 0.14652 -2.04877 0
M  V30 2027 H 201.294 2.55389 -2.90367 0
M  V30 2028 H 202.983 2.38279 -3.286 0
M  V30 2029 H 203.749 0.437817 -4.8302 0
M  V30 2030 H 199.628 1.5608 -4.33774 0
M  V30 2031 H 203.172 -0.70758 -6.94002 0
M  V30 2032 H 199.069 0.421822 -6.4412 0
M  V30 2033 H 199.837 -0.756892 -8.14993 0
M  V30 2034 N 202.5 1.5196 0.417844 0
M  V30 2035 C 203.746 1.65836 1.16732 0
M  V30 2036 C 204.079 0.382881 1.90388 0
M  V30 2037 O 203.354 -0.618368 1.84408 0
M  V30 2038 C 203.637 2.87466 2.16876 0
M  V30 2039 C 203.49 4.25041 1.47174 0
M  V30 2040 C 204.809 3.04613 3.17646 0
M  V30 2041 H 201.928 0.603515 0.423011 0
M  V30 2042 H 204.57 1.84494 0.454105 0
M  V30 2043 H 202.72 2.71689 2.777 0
M  V30 2044 H 204.392 4.52527 0.895376 0
M  V30 2045 H 202.635 4.26843 0.773806 0
M  V30 2046 H 203.306 5.06176 2.20204 0
M  V30 2047 H 205.782 3.1923 2.66892 0
M  V30 2048 H 204.658 3.91247 3.8499 0
M  V30 2049 H 204.919 2.17541 3.84874 0
M  V30 2050 N 203.978 -0.674533 1.42435 0
M  V30 2051 C 204.941 -1.76986 1.45632 0
M  V30 2052 C 205.941 -1.5708 0.343871 0
M  V30 2053 O 207.131 -1.63367 0.604709 0
M  V30 2054 C 204.263 -3.15623 1.28822 0
M  V30 2055 H 205.456 -1.75539 2.43158 0
M  V30 2056 H 203.009 -0.884189 1.28887 0
M  V30 2057 H 203.744 -3.22696 0.322193 0
M  V30 2058 H 203.529 -3.31475 2.09444 0
M  V30 2059 H 205.019 -3.95537 1.33942 0
M  V30 2060 N 205.456 -1.28612 -0.910864 0
M  V30 2061 C 206.867 -1.14406 -1.47541 0
M  V30 2062 C 207.218 0.264901 -1.94403 0
M  V30 2063 O 206.343 1.15942 -1.82719 0
M  V30 2064 C 206.938 -2.07073 -2.68153 0
M  V30 2065 C 205.497 -1.96923 -3.20778 0
M  V30 2066 C 204.644 -1.98646 -1.93481 0
M  V30 2067 H 207.595 -1.41259 -0.723291 0
M  V30 2068 H 207.616 -1.63642 -3.43514 0
M  V30 2069 H 207.128 -3.09611 -2.34015 0
M  V30 2070 H 205.229 -0.97433 -3.59635 0
M  V30 2071 H 205.342 -2.84026 -3.85832 0
M  V30 2072 H 203.706 -1.43093 -2.10705 0
M  V30 2073 H 204.489 -3.02868 -1.61634 0
M  V30 2074 N 206.934 1.1197 -1.10907 0
M  V30 2075 C 208.18 1.8386 -0.855773 0
M  V30 2076 C 208.513 1.84134 0.617103 0
M  V30 2077 O 207.788 1.29041 1.45529 0
M  V30 2078 C 208.071 3.31305 -1.411 0
M  V30 2079 C 207.924 3.39456 -2.9511 0
M  V30 2080 C 209.243 4.2721 -1.05736 0
M  V30 2081 H 206.362 0.667545 -0.312334 0
M  V30 2082 H 209.004 1.31331 -1.37303 0
M  V30 2083 H 207.154 3.76169 -0.97105 0
M  V30 2084 H 208.826 3.03191 -3.47668 0
M  V30 2085 H 207.069 2.79849 -3.31462 0
M  V30 2086 H 207.74 4.43209 -3.29044 0
M  V30 2087 H 210.216 3.90497 -1.43706 0
M  V30 2088 H 209.092 5.28775 -1.47269 0
M  V30 2089 H 209.353 4.42088 0.0325958 0
M  V30 2090 N 208.412 0.89855 1.29475 0
M  V30 2091 C 209.689 0.443416 1.90508 0
M  V30 2092 C 210.069 -1.07685 1.81569 0
M  V30 2093 O 209.417 -1.9182 1.24166 0
M  V30 2094 C 209.627 0.956708 3.35631 0
M  V30 2095 C 210.975 0.999728 4.12663 0
M  V30 2096 O 211.999 0.904299 3.4453 0
M  V30 2097 O 210.858 1.14289 5.34416 0
M  V30 2098 H 207.952 0.138025 0.815401 0
M  V30 2099 H 210.498 0.98834 1.37949 0
M  V30 2100 H 209.27 2.00067 3.36287 0
M  V30 2101 H 208.893 0.391728 3.95666 0
M  V30 2102 N 209.89 -1.43072 0.660911 0
M  V30 2103 C 211.115 -2.06584 0.183805 0
M  V30 2104 C 211.54 -1.49257 -1.14472 0
M  V30 2105 O 210.898 -0.605528 -1.70889 0
M  V30 2106 C 210.946 -3.60418 0.114434 0
M  V30 2107 O 210.05 -4.01981 -0.921137 0
M  V30 2108 H 209.391 -0.656669 0.0983994 0
M  V30 2109 H 211.921 -1.83447 0.906006 0
M  V30 2110 H 211.931 -4.07946 -0.0663394 0
M  V30 2111 H 210.606 -4.01519 1.08422 0
M  V30 2112 H 209.183 -3.66029 -0.71253 0
M  V30 2113 N 211.368 -0.403325 -1.52352 0
M  V30 2114 C 212.617 0.175668 -2.00934 0
M  V30 2115 C 212.93 1.46718 -1.29356 0
M  V30 2116 O 214.136 2.12708 -1.68724 0
M  V30 2117 C 212.592 0.363612 -3.58058 0
M  V30 2118 C 212.2 -0.915472 -4.38547 0
M  V30 2119 C 213.944 0.89821 -4.14888 0
M  V30 2120 C 211.851 -0.695035 -5.87302 0
M  V30 2121 H 210.781 0.0694234 -0.750797 0
M  V30 2122 H 213.432 -0.527879 -1.75743 0
M  V30 2123 H 211.814 1.12935 -3.79555 0
M  V30 2124 H 212.988 -1.68691 -4.28812 0
M  V30 2125 H 211.303 -1.37606 -3.93006 0
M  V30 2126 H 213.9 1.07907 -5.23699 0
M  V30 2127 H 214.243 1.87126 -3.71873 0
M  V30 2128 H 214.776 0.191681 -3.97338 0
M  V30 2129 H 211.515 -1.63948 -6.34666 0
M  V30 2130 H 211.035 0.0372116 -5.99788 0
M  V30 2131 H 212.714 -0.33497 -6.46132 0
M  V30 2132 N 212.846 1.57033 -0.133567 0
M  V30 2133 C 213.778 2.13176 0.841944 0
M  V30 2134 C 214.791 1.07794 1.22001 0
M  V30 2135 O 215.98 1.35117 1.16643 0
M  V30 2136 C 213.08 2.62847 2.13926 0
M  V30 2137 C 212.253 3.92486 1.93064 0
M  V30 2138 C 211.312 4.27605 3.0666 0
M  V30 2139 O 210.338 4.96168 2.78937 0
M  V30 2140 N 211.54 3.861 4.33483 0
M  V30 2141 H 214.305 2.97503 0.362192 0
M  V30 2142 H 211.866 1.61821 0.05042 0
M  V30 2143 H 213.858 2.83363 2.88942 0
M  V30 2144 H 212.428 1.83319 2.53205 0
M  V30 2145 H 211.648 3.80732 1.02159 0
M  V30 2146 H 212.936 4.77225 1.76447 0
M  V30 2147 H 212.334 3.30828 4.58878 0
M  V30 2148 H 210.891 4.11694 5.05323 0
M  V30 2149 N 214.325 -0.140222 1.56975 0
M  V30 2150 C 215.288 -1.15689 1.97861 0
M  V30 2151 C 216.288 -1.3549 0.865974 0
M  V30 2152 O 217.478 -1.32367 1.13246 0
M  V30 2153 C 214.61 -2.51582 2.30042 0
M  V30 2154 H 215.803 -0.805971 2.88867 0
M  V30 2155 H 213.356 -0.383801 1.51515 0
M  V30 2156 H 214.091 -2.91632 1.41849 0
M  V30 2157 H 213.876 -2.38569 3.11171 0
M  V30 2158 H 215.366 -3.24792 2.62488 0
M  V30 2159 N 215.803 -1.52179 -0.40978 0
M  V30 2160 C 216.713 -1.78364 -1.52392 0
M  V30 2161 C 217.729 -0.669183 -1.60617 0
M  V30 2162 O 218.905 -0.954518 -1.77344 0
M  V30 2163 C 215.97 -1.92822 -2.88133 0
M  V30 2164 C 215.031 -3.16725 -2.898 0
M  V30 2165 C 214.264 -3.30483 -4.19067 0
M  V30 2166 O 214.487 -2.49522 -5.12928 0
M  V30 2167 O 213.421 -4.2363 -4.27576 0
M  V30 2168 H 217.247 -2.72931 -1.33201 0
M  V30 2169 H 214.832 -1.37016 -0.59557 0
M  V30 2170 H 216.714 -2.04157 -3.68643 0
M  V30 2171 H 215.389 -1.01444 -3.07393 0
M  V30 2172 H 214.296 -3.10848 -2.08146 0
M  V30 2173 H 215.629 -4.07881 -2.75489 0
M  V30 2174 N 217.281 0.66697 -1.42791 0
M  V30 2175 C 218.191 1.80962 -1.49299 0
M  V30 2176 C 219.207 1.69775 -0.381108 0
M  V30 2177 O 220.383 1.91188 -0.633188 0
M  V30 2178 C 217.448 3.17156 -1.40045 0
M  V30 2179 C 216.509 3.40242 -2.6179 0
M  V30 2180 C 215.742 4.69939 -2.52969 0
M  V30 2181 O 215.965 5.48372 -1.56985 0
M  V30 2182 O 214.899 4.94441 -3.43237 0
M  V30 2183 H 218.725 1.78427 -2.45759 0
M  V30 2184 H 216.31 0.823713 -1.24641 0
M  V30 2185 H 218.192 3.98413 -1.37276 0
M  V30 2186 H 216.867 3.20312 -0.467138 0
M  V30 2187 H 215.774 2.58802 -2.70134 0
M  V30 2188 H 217.107 3.41923 -3.54047 0
M  V30 2189 N 218.759 1.29093 0.90403 0
M  V30 2190 C 220.005 1.17996 1.65676 0
M  V30 2191 C 220.36 -0.266816 1.90541 0
M  V30 2192 O 219.653 -1.19 1.50165 0
M  V30 2193 C 219.847 1.92224 3.01305 0
M  V30 2194 C 219.676 3.43972 2.89678 0
M  V30 2195 C 218.446 4.1332 2.90679 0
M  V30 2196 C 220.644 4.39546 2.67028 0
M  V30 2197 N 218.626 5.51463 2.69743 0
M  V30 2198 C 219.997 5.65119 2.5503 0
M  V30 2199 C 222.052 4.29359 2.52101 0
M  V30 2200 C 220.755 6.81663 2.29626 0
M  V30 2201 C 222.781 5.4565 2.28079 0
M  V30 2202 C 222.143 6.70193 2.16843 0
M  V30 2203 H 218.242 0.486759 0.612037 0
M  V30 2204 H 220.826 1.62868 1.06688 0
M  V30 2205 H 218.997 1.49773 3.58361 0
M  V30 2206 H 220.729 1.73429 3.65656 0
M  V30 2207 H 217.484 3.64984 3.01801 0
M  V30 2208 H 217.908 6.24105 2.6234 0
M  V30 2209 H 222.55 3.33769 2.59534 0
M  V30 2210 H 220.268 7.77313 2.20932 0
M  V30 2211 H 223.854 5.39664 2.1738 0
M  V30 2212 H 222.734 7.58659 1.98511 0
M  V30 2213 N 220.237 -1.11381 1.11499 0
M  V30 2214 C 221.467 -1.86663 0.885464 0
M  V30 2215 C 221.875 -1.80464 -0.568281 0
M  V30 2216 O 221.218 -1.18445 -1.40415 0
M  V30 2217 C 221.28 -3.36337 1.26956 0
M  V30 2218 C 220.944 -3.66304 2.73259 0
M  V30 2219 C 221.941 -3.63733 3.71476 0
M  V30 2220 C 219.626 -3.9529 3.09921 0
M  V30 2221 C 221.62 -3.89725 5.04374 0
M  V30 2222 C 219.307 -4.20941 4.43004 0
M  V30 2223 C 220.305 -4.18147 5.40039 0
M  V30 2224 O 219.993 -4.43153 6.70724 0
M  V30 2225 H 219.725 -0.597114 0.316908 0
M  V30 2226 H 222.279 -1.41782 1.48617 0
M  V30 2227 H 220.509 -3.81826 0.611999 0
M  V30 2228 H 222.198 -3.92986 1.01573 0
M  V30 2229 H 222.964 -3.41389 3.44498 0
M  V30 2230 H 218.843 -3.966 2.35009 0
M  V30 2231 H 222.387 -3.8746 5.80104 0
M  V30 2232 H 218.284 -4.42761 4.69716 0
M  V30 2233 H 219.052 -4.60717 6.76522 0
M  V30 2234 N 221.715 -0.905404 -1.28997 0
M  V30 2235 C 222.962 -0.534248 -1.95325 0
M  V30 2236 C 223.29 0.920535 -1.71337 0
M  V30 2237 O 222.545 1.66861 -1.02254 0
M  V30 2238 C 222.844 -0.779906 -3.48787 0
M  V30 2239 C 222.51 -2.21293 -3.92861 0
M  V30 2240 C 221.172 -2.60475 -4.04606 0
M  V30 2241 C 223.524 -3.14587 -4.15553 0
M  V30 2242 C 220.852 -3.9212 -4.36416 0
M  V30 2243 C 223.204 -4.45787 -4.48839 0
M  V30 2244 C 221.868 -4.84834 -4.58794 0
M  V30 2245 H 221.138 -0.195495 -0.714747 0
M  V30 2246 H 223.785 -1.14514 -1.53488 0
M  V30 2247 H 222.09 -0.0861365 -3.91705 0
M  V30 2248 H 223.787 -0.472029 -3.98212 0
M  V30 2249 H 220.377 -1.89887 -3.84241 0
M  V30 2250 H 224.561 -2.85528 -4.0594 0
M  V30 2251 H 219.817 -4.22086 -4.42327 0
M  V30 2252 H 223.991 -5.18098 -4.65346 0
M  V30 2253 H 221.618 -5.86877 -4.83197 0
M  V30 2254 N 223.193 1.4272 -0.668489 0
M  V30 2255 C 224.441 2.01226 -0.187769 0
M  V30 2256 C 224.762 1.53092 1.2078 0
M  V30 2257 O 224.032 0.74993 1.80977 0
M  V30 2258 H 222.612 0.744041 -0.0664272 0
M  V30 2259 H 225.274 1.74723 -0.863583 0
M  V30 2260 H 224.37 3.11556 -0.184166 0
M  V30 2261 N 224.671 0.411399 1.52136 0
M  V30 2262 C 225.618 -0.412975 2.27075 0
M  V30 2263 C 226.588 -1.03912 1.29582 0
M  V30 2264 O 227.773 -1.06296 1.58448 0
M  V30 2265 C 224.913 -1.52247 3.09701 0
M  V30 2266 C 224.026 -0.917021 4.22155 0
M  V30 2267 C 223.161 -1.9994 4.92135 0
M  V30 2268 C 222.2 -1.37101 5.96548 0
M  V30 2269 N 221.337 -2.39364 6.60038 0
M  V30 2270 H 226.177 0.232499 2.97092 0
M  V30 2271 H 223.714 0.126496 1.46555 0
M  V30 2272 H 225.672 -2.17674 3.55913 0
M  V30 2273 H 224.302 -2.13794 2.41851 0
M  V30 2274 H 223.354 -0.151742 3.80097 0
M  V30 2275 H 224.666 -0.418006 4.97045 0
M  V30 2276 H 223.82 -2.73088 5.41763 0
M  V30 2277 H 222.559 -2.53208 4.16818 0
M  V30 2278 H 221.564 -0.624873 5.46237 0
M  V30 2279 H 222.789 -0.845998 6.7381 0
M  V30 2280 H 220.735 -2.91759 5.87548 0
M  V30 2281 H 220.652 -1.9428 7.3061 0
M  V30 2282 H 221.92 -3.12074 7.14304 0
M  V30 2283 N 226.149 -1.5696 0.141893 0
M  V30 2284 C 227.079 -2.19516 -0.795936 0
M  V30 2285 C 228.06 -1.14187 -1.26077 0
M  V30 2286 O 229.245 -1.42511 -1.31925 0
M  V30 2287 C 226.375 -2.81272 -2.03723 0
M  V30 2288 C 225.329 -3.92384 -1.70936 0
M  V30 2289 C 224.655 -4.41052 -3.02287 0
M  V30 2290 C 225.955 -5.13403 -0.959954 0
M  V30 2291 H 227.649 -2.98138 -0.274596 0
M  V30 2292 H 225.195 -1.43406 -0.130636 0
M  V30 2293 H 227.148 -3.237 -2.69808 0
M  V30 2294 H 225.872 -1.99973 -2.58221 0
M  V30 2295 H 224.531 -3.50566 -1.07232 0
M  V30 2296 H 224.179 -3.56582 -3.54765 0
M  V30 2297 H 223.879 -5.15993 -2.81114 0
M  V30 2298 H 225.403 -4.86146 -3.69451 0
M  V30 2299 H 226.817 -5.52706 -1.52279 0
M  V30 2300 H 225.214 -5.94073 -0.848357 0
M  V30 2301 H 226.284 -4.84875 0.0492434 0
M  V30 2302 N 227.627 0.131896 -1.57047 0
M  V30 2303 C 228.875 0.840269 -1.83804 0
M  V30 2304 C 229.196 1.81017 -0.72512 0
M  V30 2305 O 228.466 1.94272 0.251995 0
M  V30 2306 H 227.046 0.313294 -0.678127 0
M  V30 2307 H 229.708 0.122294 -1.94516 0
M  V30 2308 H 228.804 1.39335 -2.79271 0
M  V30 2309 N 229.106 1.52395 0.401703 0
M  V30 2310 C 230.522 1.41363 0.740864 0
M  V30 2311 C 230.722 0.523982 1.94568 0
M  V30 2312 O 229.778 -0.00741204 2.52499 0
M  V30 2313 C 231.091 2.84011 0.987847 0
M  V30 2314 C 232.639 2.93404 1.09011 0
M  V30 2315 C 233.114 4.37036 1.3698 0
M  V30 2316 N 234.605 4.40304 1.43829 0
M  V30 2317 C 235.34 5.48508 1.67112 0
M  V30 2318 N 234.836 6.66819 1.87949 0
M  V30 2319 N 236.629 5.36034 1.69187 0
M  V30 2320 H 228.78 2.08765 -0.391262 0
M  V30 2321 H 231.043 0.941265 -0.112798 0
M  V30 2322 H 230.749 3.51265 0.174835 0
M  V30 2323 H 230.623 3.25502 1.906 0
M  V30 2324 H 233.01 2.26325 1.8937 0
M  V30 2325 H 233.091 2.55359 0.15015 0
M  V30 2326 H 232.735 5.04676 0.571353 0
M  V30 2327 H 232.665 4.72623 2.3224 0
M  V30 2328 H 235.156 3.55024 1.29486 0
M  V30 2329 H 235.469 7.45063 2.05185 0
M  V30 2330 H 233.814 6.6987 1.85199 0
M  V30 2331 H 237.005 4.42579 1.52451 0
M  V30 2332 H 237.178 6.20434 1.86993 0
M  V30 2333 N 230.584 -0.659388 1.43143 0
M  V30 2334 C 231.531 -1.77249 1.47822 0
M  V30 2335 C 232.501 -1.62818 0.328558 0
M  V30 2336 O 233.686 -1.83151 0.534838 0
M  V30 2337 C 230.826 -3.15371 1.40126 0
M  V30 2338 C 229.939 -3.4098 2.65249 0
M  V30 2339 C 229.074 -4.68915 2.49584 0
M  V30 2340 C 228.113 -4.87608 3.70006 0
M  V30 2341 N 227.25 -6.06796 3.53189 0
M  V30 2342 H 232.09 -1.72584 2.42938 0
M  V30 2343 H 229.627 -0.842297 1.20598 0
M  V30 2344 H 231.585 -3.9521 1.33659 0
M  V30 2345 H 230.215 -3.19121 0.485964 0
M  V30 2346 H 229.267 -2.55282 2.8202 0
M  V30 2347 H 230.579 -3.50681 3.54717 0
M  V30 2348 H 229.733 -5.56871 2.4079 0
M  V30 2349 H 228.472 -4.61524 1.5763 0
M  V30 2350 H 227.477 -3.9809 3.79215 0
M  V30 2351 H 228.702 -4.96834 4.62961 0
M  V30 2352 H 226.648 -6.00549 2.63965 0
M  V30 2353 H 226.565 -6.17428 4.36255 0
M  V30 2354 H 227.833 -6.9739 3.48236 0
M  V30 2355 N 232.062 -1.29571 -0.897171 0
M  V30 2356 C 233.339 -1.08365 -1.62839 0
M  V30 2357 C 233.719 0.371331 -2.07808 0
M  V30 2358 O 233.067 1.3606 -1.83576 0
M  V30 2359 C 233.277 -2.0735 -2.80726 0
M  V30 2360 C 234.625 -2.38406 -3.51351 0
M  V30 2361 O 235.649 -2.05564 -2.90898 0
M  V30 2362 O 234.508 -2.9453 -4.60341 0
M  V30 2363 H 231.602 -0.415345 -0.715134 0
M  V30 2364 H 234.148 -1.40952 -0.945018 0
M  V30 2365 H 232.92 -3.05339 -2.44711 0
M  V30 2366 H 232.543 -1.75507 -3.56767 0
M  V30 2367 N 233.54 1.10788 -1.12088 0
M  V30 2368 C 234.503 2.15207 -0.788577 0
M  V30 2369 C 235.503 1.59609 0.195317 0
M  V30 2370 O 236.693 1.74174 -0.0300193 0
M  V30 2371 C 233.825 3.4047 -0.171174 0
M  V30 2372 H 235.018 2.46116 -1.71368 0
M  V30 2373 H 232.571 1.26089 -0.923652 0
M  V30 2374 H 233.306 3.15176 0.763832 0
M  V30 2375 H 233.091 3.82109 -0.879514 0
M  V30 2376 H 234.581 4.17576 0.04496 0
M  V30 2377 N 235.018 0.912232 1.28515 0
M  V30 2378 C 235.928 0.404506 2.31086 0
M  V30 2379 C 236.944 -0.50707 1.66448 0
M  V30 2380 O 238.12 -0.393624 1.97516 0
M  V30 2381 C 235.185 -0.348572 3.44943 0
M  V30 2382 C 234.246 0.59604 4.25142 0
M  V30 2383 C 233.479 -0.121194 5.33562 0
M  V30 2384 O 233.702 -1.34317 5.5436 0
M  V30 2385 O 232.636 0.542716 5.99448 0
M  V30 2386 H 236.462 1.25579 2.76521 0
M  V30 2387 H 234.047 0.676998 1.33181 0
M  V30 2388 H 235.929 -0.77395 4.14232 0
M  V30 2389 H 234.604 -1.17571 3.01594 0
M  V30 2390 H 233.511 1.07079 3.58448 0
M  V30 2391 H 234.844 1.38995 4.72167 0
M  V30 2392 N 236.496 -1.42363 0.676048 0
M  V30 2393 C 237.912 -1.55811 0.345718 0
M  V30 2394 C 238.112 -1.65544 -1.14879 0
M  V30 2395 O 237.168 -1.62306 -1.93424 0
M  V30 2396 C 238.481 -2.80746 1.07713 0
M  V30 2397 C 240.029 -2.9452 1.05958 0
M  V30 2398 C 240.504 -4.22318 1.77233 0
M  V30 2399 N 241.995 -4.29233 1.74108 0
M  V30 2400 C 242.73 -5.26935 2.26113 0
M  V30 2401 N 242.226 -6.30783 2.86505 0
M  V30 2402 N 244.019 -5.18741 2.1648 0
M  V30 2403 H 236.17 -1.34289 1.6456 0
M  V30 2404 H 238.433 -0.646506 0.69335 0
M  V30 2405 H 238.139 -2.79696 2.13221 0
M  V30 2406 H 238.013 -3.71676 0.64316 0
M  V30 2407 H 240.4 -2.95097 0.0128255 0
M  V30 2408 H 240.481 -2.04817 1.53244 0
M  V30 2409 H 240.125 -4.22502 2.81877 0
M  V30 2410 H 240.055 -5.10958 1.27396 0
M  V30 2411 H 242.546 -3.54814 1.30059 0
M  V30 2412 H 242.859 -7.01691 3.23805 0
M  V30 2413 H 241.204 -6.31341 2.90575 0
M  V30 2414 H 244.395 -4.36533 1.68987 0
M  V30 2415 H 244.568 -5.94721 2.57316 0
M  V30 2416 N 237.974 -0.419461 -1.51915 0
M  V30 2417 C 238.906 0.43646 -2.25006 0
M  V30 2418 C 239.919 1.00149 -1.28351 0
M  V30 2419 O 241.108 0.898674 -1.54227 0
M  V30 2420 C 238.208 1.6206 -2.9764 0
M  V30 2421 C 237.381 1.17763 -4.21249 0
M  V30 2422 C 236.44 2.22985 -4.76617 0
M  V30 2423 O 235.466 1.83151 -5.38929 0
M  V30 2424 N 236.668 3.55271 -4.59089 0
M  V30 2425 H 239.433 -0.18989 -2.99098 0
M  V30 2426 H 236.994 -0.247386 -1.59999 0
M  V30 2427 H 238.986 2.32038 -3.31573 0
M  V30 2428 H 237.556 2.15266 -2.2667 0
M  V30 2429 H 236.776 0.305582 -3.93014 0
M  V30 2430 H 238.064 0.858781 -5.015 0
M  V30 2431 H 237.462 3.90377 -4.09417 0
M  V30 2432 H 236.019 4.21195 -4.97432 0
M  V30 2433 N 239.452 1.56882 -0.150215 0
M  V30 2434 C 240.382 2.19935 0.784284 0
M  V30 2435 C 241.363 1.14854 1.25469 0
M  V30 2436 O 242.548 1.43209 1.31168 0
M  V30 2437 C 239.678 2.82349 2.02229 0
M  V30 2438 C 238.632 3.93285 1.68853 0
M  V30 2439 C 237.958 4.42649 2.99944 0
M  V30 2440 C 239.258 5.13904 0.932714 0
M  V30 2441 H 240.952 2.9828 0.258781 0
M  V30 2442 H 238.498 1.43473 0.123029 0
M  V30 2443 H 240.451 3.25126 2.68088 0
M  V30 2444 H 239.175 2.0134 2.57157 0
M  V30 2445 H 237.834 3.5113 1.05371 0
M  V30 2446 H 237.482 3.58458 3.52869 0
M  V30 2447 H 237.182 5.17476 2.78374 0
M  V30 2448 H 238.706 4.88099 3.66868 0
M  V30 2449 H 240.12 5.53506 1.49345 0
M  V30 2450 H 238.517 5.94515 0.81684 0
M  V30 2451 H 239.587 4.84842 -0.0749568 0
M  V30 2452 N 240.93 -0.123565 1.57115 0
M  V30 2453 C 241.86 -1.15309 2.03042 0
M  V30 2454 C 242.841 -1.43454 0.914061 0
M  V30 2455 O 244.026 -1.53973 1.18347 0
M  V30 2456 C 241.156 -2.48043 2.43089 0
M  V30 2457 C 240.11 -2.3437 3.58127 0
M  V30 2458 C 239.436 -3.72026 3.84059 0
M  V30 2459 C 240.736 -1.80804 4.90007 0
M  V30 2460 H 242.43 -0.771102 2.893 0
M  V30 2461 H 239.976 -0.369479 1.39179 0
M  V30 2462 H 241.929 -3.20311 2.73823 0
M  V30 2463 H 240.653 -2.88122 1.53796 0
M  V30 2464 H 239.312 -1.64551 3.27595 0
M  V30 2465 H 238.96 -4.09582 2.91979 0
M  V30 2466 H 238.66 -3.63732 4.6149 0
M  V30 2467 H 240.184 -4.45806 4.1724 0
M  V30 2468 H 241.598 -2.42886 5.19307 0
M  V30 2469 H 239.995 -1.83343 5.71407 0
M  V30 2470 H 241.065 -0.76528 4.78823 0
M  V30 2471 N 242.408 -1.52605 -0.393616 0
M  V30 2472 C 243.633 -1.71592 -1.16495 0
M  V30 2473 C 244.058 -0.43133 -1.83088 0
M  V30 2474 O 243.416 0.612523 -1.7064 0
M  V30 2475 C 243.464 -2.86318 -2.19213 0
M  V30 2476 O 242.568 -2.52969 -3.257 0
M  V30 2477 H 241.909 -0.570734 -0.33935 0
M  V30 2478 H 244.439 -1.99377 -0.459324 0
M  V30 2479 H 244.449 -3.1168 -2.63286 0
M  V30 2480 H 243.124 -3.79511 -1.7013 0
M  V30 2481 H 241.701 -2.38332 -2.86797 0
M  V30 2482 N 243.887 0.651787 -1.4349 0
M  V30 2483 C 245.134 1.41167 -1.45183 0
M  V30 2484 C 245.462 1.94349 -0.0766601 0
M  V30 2485 O 244.717 1.72804 0.918555 0
M  V30 2486 C 245.016 2.60914 -2.44251 0
M  V30 2487 C 244.682 2.26142 -3.9009 0
M  V30 2488 C 243.344 2.16371 -4.2981 0
M  V30 2489 C 245.696 1.98334 -4.81989 0
M  V30 2490 C 243.024 1.7695 -5.5938 0
M  V30 2491 C 245.376 1.6041 -6.11924 0
M  V30 2492 C 244.04 1.49166 -6.5062 0
M  V30 2493 H 243.31 0.516566 -0.531263 0
M  V30 2494 H 245.957 0.741099 -1.76579 0
M  V30 2495 H 244.262 3.3311 -2.06265 0
M  V30 2496 H 245.959 3.19127 -2.42815 0
M  V30 2497 H 242.549 2.34658 -3.58655 0
M  V30 2498 H 246.733 2.04803 -4.52072 0
M  V30 2499 H 241.989 1.66831 -5.88198 0
M  V30 2500 H 246.163 1.37925 -6.82605 0
M  V30 2501 H 243.79 1.1839 -7.50925 0
M  V30 2502 N 245.365 1.30045 0.890287 0
M  V30 2503 C 246.613 1.18327 1.63839 0
M  V30 2504 C 246.934 -0.263455 1.93212 0
M  V30 2505 O 246.204 -1.17856 1.56482 0
M  V30 2506 H 244.784 0.434933 0.607324 0
M  V30 2507 H 247.446 1.631 1.06698 0
M  V30 2508 H 246.542 1.74024 2.59079 0
M  V30 2509 N 246.843 -1.10192 1.12674 0
M  V30 2510 C 247.791 -2.18694 0.792196 0
M  V30 2511 C 248.785 -1.67938 -0.222058 0
M  V30 2512 O 249.991 -1.79822 -0.0800074 0
M  V30 2513 H 246.366 -0.713223 0.238364 0
M  V30 2514 H 248.337 -2.44149 1.71564 0
M  V30 2515 C 247.086 -3.46682 0.265859 0
M  V30 2516 H 246.409 -3.86101 1.03761 0
M  V30 2517 H 247.849 -4.23942 0.0701128 0
M  V30 2518 C 246.308 -3.21506 -1.00675 0
M  V30 2519 O 246.838 -3.43408 -2.08408 0
M  V30 2520 N 245.044 -2.75158 -0.934692 0
M  V30 2521 H 244.591 -2.57535 -0.0578604 0
M  V30 2522 H 244.549 -2.58691 -1.7868 0
M  V30 2523 N 248.321 -0.919034 -1.28029 0
M  V30 2524 C 249.732 -0.600735 -1.76771 0
M  V30 2525 C 250.083 0.884024 -1.75156 0
M  V30 2526 O 249.208 1.69163 -1.34956 0
M  V30 2527 C 249.803 -1.08372 -3.21 0
M  V30 2528 C 248.362 -0.816248 -3.67443 0
M  V30 2529 C 247.509 -1.24742 -2.47658 0
M  V30 2530 H 250.46 -1.09974 -1.14418 0
M  V30 2531 H 250.481 -0.427512 -3.78091 0
M  V30 2532 H 249.993 -2.16437 -3.22144 0
M  V30 2533 H 248.094 0.250968 -3.71754 0
M  V30 2534 H 248.207 -1.4277 -4.57333 0
M  V30 2535 H 246.571 -0.666083 -2.45836 0
M  V30 2536 H 247.354 -2.33653 -2.51518 0
M  V30 2537 N 249.799 1.42003 -0.683588 0
M  V30 2538 C 251.215 1.55625 -0.353976 0
M  V30 2539 C 251.415 1.66151 1.14 0
M  V30 2540 O 250.471 1.63329 1.92561 0
M  V30 2541 C 251.784 2.80171 -1.092 0
M  V30 2542 C 253.332 2.93954 -1.07518 0
M  V30 2543 C 253.807 4.21372 -1.79471 0
M  V30 2544 N 255.298 4.28303 -1.76381 0
M  V30 2545 C 256.033 5.25729 -2.28904 0
M  V30 2546 N 255.529 6.29254 -2.89846 0
M  V30 2547 N 257.322 5.17586 -2.19228 0
M  V30 2548 H 249.473 1.33415 -1.6527 0
M  V30 2549 H 251.736 0.64282 -0.696769 0
M  V30 2550 H 251.442 2.78561 -2.14701 0
M  V30 2551 H 251.316 3.7133 -0.662862 0
M  V30 2552 H 253.703 2.95086 -0.028475 0
M  V30 2553 H 253.784 2.04002 -1.54328 0
M  V30 2554 H 253.428 4.21001 -2.84114 0
M  V30 2555 H 253.358 5.10275 -1.30104 0
M  V30 2556 H 255.849 3.54119 -1.31939 0
M  V30 2557 H 256.162 6.99964 -3.27522 0
M  V30 2558 H 254.507 6.29791 -2.93919 0
M  V30 2559 H 257.698 4.35631 -1.71299 0
M  V30 2560 H 257.871 5.93348 -2.60466 0
M  V30 2561 N 251.277 0.427512 1.51691 0
M  V30 2562 C 252.525 -0.141948 2.01601 0
M  V30 2563 C 252.846 -1.44067 1.31414 0
M  V30 2564 O 252.116 -1.90763 0.445658 0
M  V30 2565 H 250.696 -0.0554468 0.744939 0
M  V30 2566 H 253.358 0.567968 1.86441 0
M  V30 2567 H 252.454 -0.324913 3.10404 0
M  V30 2568 N 252.755 -1.56801 0.158532 0
M  V30 2569 C 253.983 -2.00859 -0.496303 0
M  V30 2570 C 254.398 -1.03871 -1.57659 0
M  V30 2571 O 253.755 -0.0375165 -1.82461 0
M  V30 2572 C 253.806 -3.4479 -1.08638 0
M  V30 2573 O 253.527 -4.38072 -0.0492322 0
M  V30 2574 C 255.028 -4.04185 -1.8207 0
M  V30 2575 H 252.248 -0.65864 -0.128199 0
M  V30 2576 H 254.792 -2.02885 0.256506 0
M  V30 2577 H 252.947 -3.43579 -1.78975 0
M  V30 2578 H 253.361 -5.2227 -0.483102 0
M  V30 2579 H 254.835 -5.06857 -2.18633 0
M  V30 2580 H 255.312 -3.45549 -2.71095 0
M  V30 2581 H 255.918 -4.0906 -1.16405 0
M  V30 2582 N 254.233 0.115231 -1.57178 0
M  V30 2583 C 255.48 0.822351 -1.8505 0
M  V30 2584 C 255.808 1.79701 -0.744168 0
M  V30 2585 O 255.063 1.93909 0.26414 0
M  V30 2586 C 255.362 1.60324 -3.19423 0
M  V30 2587 C 255.028 0.772536 -4.44233 0
M  V30 2588 C 253.69 0.543468 -4.78121 0
M  V30 2589 C 256.042 0.193746 -5.2084 0
M  V30 2590 C 253.37 -0.274583 -5.86057 0
M  V30 2591 C 255.722 -0.611517 -6.29637 0
M  V30 2592 C 254.386 -0.850867 -6.62055 0
M  V30 2593 H 253.656 0.30092 -0.677147 0
M  V30 2594 H 256.303 0.0845802 -1.91313 0
M  V30 2595 H 254.608 2.41203 -3.08753 0
M  V30 2596 H 256.305 2.1544 -3.38211 0
M  V30 2597 H 252.895 0.96117 -4.17683 0
M  V30 2598 H 257.079 0.357926 -4.95008 0
M  V30 2599 H 252.335 -0.469206 -6.09597 0
M  V30 2600 H 256.509 -1.06697 -6.88178 0
M  V30 2601 H 254.136 -1.48657 -7.45523 0
M  V30 2602 N 255.711 1.52812 0.385517 0
M  V30 2603 C 256.641 1.80808 1.47752 0
M  V30 2604 C 257.622 0.660318 1.5676 0
M  V30 2605 O 258.807 0.908246 1.71652 0
M  V30 2606 C 255.937 1.98008 2.85324 0
M  V30 2607 C 254.891 3.13709 2.91154 0
M  V30 2608 C 254.217 3.16169 4.31209 0
M  V30 2609 C 255.517 4.52709 2.60483 0
M  V30 2610 H 257.211 2.72253 1.24573 0
M  V30 2611 H 254.757 1.31003 0.597839 0
M  V30 2612 H 256.71 2.16176 3.61726 0
M  V30 2613 H 255.434 1.03255 3.09848 0
M  V30 2614 H 254.093 2.95329 2.17201 0
M  V30 2615 H 253.741 2.19092 4.52778 0
M  V30 2616 H 253.441 3.93894 4.36029 0
M  V30 2617 H 254.965 3.36496 5.09512 0
M  V30 2618 H 256.379 4.71173 3.26602 0
M  V30 2619 H 254.776 5.32528 2.76648 0
M  V30 2620 H 255.846 4.59186 1.55809 0
M  V30 2621 N 257.189 -0.644168 1.43834 0
M  V30 2622 C 258.438 -1.39985 1.45214 0
M  V30 2623 C 258.751 -1.95421 0.0835494 0
M  V30 2624 O 259.957 -2.71488 -0.0251748 0
M  V30 2625 C 258.413 -2.53384 2.55587 0
M  V30 2626 C 258.021 -2.04517 3.98594 0
M  V30 2627 C 259.765 -3.30685 2.66172 0
M  V30 2628 C 257.672 -3.1518 5.00416 0
M  V30 2629 H 256.602 -0.526005 0.540218 0
M  V30 2630 H 259.253 -0.694367 1.69855 0
M  V30 2631 H 257.635 -3.26446 2.24163 0
M  V30 2632 H 258.809 -1.38405 4.39523 0
M  V30 2633 H 257.124 -1.40068 3.92135 0
M  V30 2634 H 259.721 -4.13158 3.39418 0
M  V30 2635 H 260.064 -3.79312 1.71546 0
M  V30 2636 H 260.597 -2.64708 2.96942 0
M  V30 2637 H 257.336 -2.71511 5.96625 0
M  V30 2638 H 256.856 -3.79974 4.64091 0
M  V30 2639 H 258.535 -3.80166 5.23529 0
M  V30 2640 N 258.668 -1.30515 -0.883378 0
M  V30 2641 C 260.084 -1.08881 -1.16692 0
M  V30 2642 C 260.284 0.149409 -2.00945 0
M  V30 2643 O 259.34 0.84257 -2.38027 0
M  V30 2644 C 260.653 -2.35319 -1.87204 0
M  V30 2645 C 262.201 -2.40799 -1.99962 0
M  V30 2646 C 262.676 -3.67083 -2.73887 0
M  V30 2647 N 264.167 -3.679 -2.81432 0
M  V30 2648 C 264.902 -4.62303 -3.3921 0
M  V30 2649 N 264.398 -5.67052 -3.98025 0
M  V30 2650 N 266.191 -4.49845 -3.3704 0
M  V30 2651 H 258.342 -2.09951 -0.321633 0
M  V30 2652 H 260.605 -0.92556 -0.205043 0
M  V30 2653 H 260.311 -3.25689 -1.3274 0
M  V30 2654 H 260.185 -2.44089 -2.87577 0
M  V30 2655 H 262.572 -1.50907 -2.53597 0
M  V30 2656 H 262.653 -2.36003 -0.98673 0
M  V30 2657 H 262.297 -4.57334 -2.20925 0
M  V30 2658 H 262.227 -3.69141 -3.75556 0
M  V30 2659 H 264.718 -2.92171 -2.39676 0
M  V30 2660 H 265.031 -6.35184 -4.40183 0
M  V30 2661 H 263.376 -5.70842 -3.96439 0
M  V30 2662 H 266.567 -3.67194 -2.90321 0
M  V30 2663 H 266.74 -5.23597 -3.81772 0
M  V30 2664 N 260.146 1.09593 -1.13257 0
M  V30 2665 C 261.056 2.19739 -0.821691 0
M  V30 2666 C 262.072 1.72926 0.19302 0
M  V30 2667 O 263.248 2.01385 0.0244895 0
M  V30 2668 C 260.313 3.45482 -0.290333 0
M  V30 2669 C 259.374 4.06985 -1.36607 0
M  V30 2670 C 258.607 5.26726 -0.859975 0
M  V30 2671 O 258.83 5.69594 0.303082 0
M  V30 2672 O 257.764 5.7931 -1.63351 0
M  V30 2673 H 261.59 2.48781 -1.74189 0
M  V30 2674 H 259.175 1.18496 -0.909894 0
M  V30 2675 H 261.057 4.214 0.000674022 0
M  V30 2676 H 259.732 3.18047 0.602306 0
M  V30 2677 H 258.639 3.32712 -1.71037 0
M  V30 2678 H 259.972 4.38643 -2.23279 0
M  V30 2679 N 261.624 0.925811 1.2754 0
M  V30 2680 C 262.849 0.580924 1.99098 0
M  V30 2681 C 263.274 -0.833555 1.68622 0
M  V30 2682 O 262.632 -1.55903 0.925422 0
M  V30 2683 C 262.68 0.811186 3.51358 0
M  V30 2684 O 261.784 -0.124129 4.12213 0
M  V30 2685 H 261.125 0.223873 0.625122 0
M  V30 2686 H 263.655 1.24455 1.62395 0
M  V30 2687 H 263.665 0.72601 4.01489 0
M  V30 2688 H 262.34 1.84227 3.72872 0
M  V30 2689 H 260.917 0.0108006 3.72898 0
M  V30 2690 N 263.102 -1.41638 0.69111 0
M  V30 2691 C 264.012 -2.34588 0.0233487 0
M  V30 2692 C 265.028 -1.55987 -0.770984 0
M  V30 2693 O 266.204 -1.88486 -0.709569 0
M  V30 2694 C 263.269 -3.34684 -0.904851 0
M  V30 2695 C 262.33 -4.29176 -0.103225 0
M  V30 2696 C 261.563 -5.2449 -0.987216 0
M  V30 2697 O 261.786 -5.2514 -2.22674 0
M  V30 2698 O 260.72 -6.00295 -0.439281 0
M  V30 2699 H 264.546 -2.93261 0.789416 0
M  V30 2700 H 262.131 -1.42417 0.45142 0
M  V30 2701 H 264.013 -3.96133 -1.43724 0
M  V30 2702 H 262.688 -2.78461 -1.65049 0
M  V30 2703 H 261.595 -3.71089 0.473655 0
M  V30 2704 H 262.928 -4.88484 0.60365 0
M  V30 2705 N 264.58 -0.43555 -1.51462 0
M  V30 2706 C 265.808 0.130242 -2.0649 0
M  V30 2707 C 266.223 1.36614 -1.30315 0
M  V30 2708 O 265.58 1.78869 -0.362223 0
M  V30 2709 C 265.631 0.454253 -3.58635 0
M  V30 2710 O 265.352 -0.73259 -4.31931 0
M  V30 2711 C 266.853 1.07091 -4.3017 0
M  V30 2712 H 264.073 0.00871669 -0.670943 0
M  V30 2713 H 266.617 -0.614117 -1.95061 0
M  V30 2714 H 264.772 1.14851 -3.69984 0
M  V30 2715 H 265.186 -0.455787 -5.22516 0
M  V30 2716 H 266.66 1.24764 -5.37716 0
M  V30 2717 H 267.137 2.05144 -3.88346 0
M  V30 2718 H 267.743 0.416089 -4.2326 0
M  V30 2719 N 266.058 1.56714 -0.166846 0
M  V30 2720 C 267.286 2.0112 0.485644 0
M  V30 2721 C 267.701 1.04705 1.57106 0
M  V30 2722 O 267.058 0.0471923 1.82439 0
M  V30 2723 C 267.109 3.45361 1.06808 0
M  V30 2724 O 266.83 4.38092 0.0259995 0
M  V30 2725 C 268.331 4.05145 1.79924 0
M  V30 2726 H 265.551 0.65931 0.124704 0
M  V30 2727 H 268.095 2.02746 -0.267262 0
M  V30 2728 H 266.25 3.44524 1.7715 0
M  V30 2729 H 266.664 5.22519 0.455398 0
M  V30 2730 H 268.138 5.08009 2.15942 0
M  V30 2731 H 268.615 3.46982 2.69258 0
M  V30 2732 H 269.221 4.09672 1.14234 0
M  V30 2733 N 267.536 -0.106894 1.57237 0
M  V30 2734 C 268.483 -1.13049 2.01217 0
M  V30 2735 C 269.453 -1.40471 0.886403 0
M  V30 2736 O 270.638 -1.52133 1.15153 0
M  V30 2737 C 267.778 -2.4487 2.43172 0
M  V30 2738 C 266.891 -2.24281 3.69218 0
M  V30 2739 C 266.026 -3.49417 4.00101 0
M  V30 2740 C 265.065 -3.24038 5.19294 0
M  V30 2741 N 264.202 -4.41409 5.45988 0
M  V30 2742 H 269.042 -0.748456 2.88448 0
M  V30 2743 H 266.579 -0.358054 1.42676 0
M  V30 2744 H 268.537 -3.21786 2.65537 0
M  V30 2745 H 267.167 -2.80944 1.58967 0
M  V30 2746 H 266.219 -1.38224 3.54398 0
M  V30 2747 H 267.531 -2.01512 4.56283 0
M  V30 2748 H 266.685 -4.34746 4.2318 0
M  V30 2749 H 265.424 -3.75229 3.11535 0
M  V30 2750 H 264.429 -2.37102 4.96047 0
M  V30 2751 H 265.654 -2.99584 6.09447 0
M  V30 2752 H 263.6 -4.67319 4.60379 0
M  V30 2753 H 263.517 -4.21788 6.274 0
M  V30 2754 H 264.785 -5.27836 5.73593 0
M  V30 2755 N 269.014 -1.53014 -0.377408 0
M  V30 2756 C 270.262 -1.6829 -1.11906 0
M  V30 2757 C 270.583 -0.431206 -1.90173 0
M  V30 2758 O 269.853 0.554595 -1.87886 0
M  V30 2759 H 268.433 -0.620371 -0.416112 0
M  V30 2760 H 271.095 -1.90167 -0.426893 0
M  V30 2761 H 270.191 -2.53862 -1.8155 0
M  V30 2762 N 270.492 0.636531 -1.44174 0
M  V30 2763 C 271.455 1.73063 -1.50273 0
M  V30 2764 C 272.455 1.56113 -0.385397 0
M  V30 2765 O 273.645 1.61707 -0.64781 0
M  V30 2766 C 270.777 3.12096 -1.37145 0
M  V30 2767 H 271.97 1.69031 -2.47727 0
M  V30 2768 H 269.523 0.849706 -1.31186 0
M  V30 2769 H 270.258 3.21728 -0.407636 0
M  V30 2770 H 270.043 3.25805 -2.18159 0
M  V30 2771 H 271.533 3.91846 -1.44382 0
M  V30 2772 N 271.97 1.30982 0.876444 0
M  V30 2773 C 273.2 1.23063 1.65949 0
M  V30 2774 C 273.608 -0.207537 1.88058 0
M  V30 2775 O 272.951 -1.14781 1.43426 0
M  V30 2776 C 273.013 1.89768 3.05333 0
M  V30 2777 C 272.677 3.39106 3.0636 0
M  V30 2778 C 273.674 4.3496 2.84791 0
M  V30 2779 C 271.359 3.80693 3.27686 0
M  V30 2780 C 273.353 5.70375 2.84519 0
M  V30 2781 C 271.04 5.16223 3.27043 0
M  V30 2782 C 272.038 6.10875 3.05485 0
M  V30 2783 O 271.726 7.43928 3.04674 0
M  V30 2784 H 271.458 0.426685 0.524324 0
M  V30 2785 H 274.012 1.7329 1.10271 0
M  V30 2786 H 272.242 1.34082 3.6271 0
M  V30 2787 H 273.931 1.75853 3.65829 0
M  V30 2788 H 274.697 4.0416 2.68103 0
M  V30 2789 H 270.576 3.07457 3.43499 0
M  V30 2790 H 274.12 6.44228 2.67611 0
M  V30 2791 H 270.017 5.4666 3.43269 0
M  V30 2792 H 270.785 7.53022 3.2078 0
M  V30 2793 N 273.449 -1.08991 1.13837 0
M  V30 2794 C 274.674 -1.85551 0.926585 0
M  V30 2795 C 275.099 -1.80782 -0.519566 0
M  V30 2796 O 274.457 -1.18855 -1.36906 0
M  V30 2797 C 274.505 -3.31266 1.42462 0
M  V30 2798 O 273.609 -4.07822 0.612789 0
M  V30 2799 H 272.95 -0.575192 0.331738 0
M  V30 2800 H 275.48 -1.37604 1.51414 0
M  V30 2801 H 275.49 -3.82112 1.43019 0
M  V30 2802 H 274.165 -3.34052 2.47754 0
M  V30 2803 H 272.742 -3.66731 0.675463 0
M  V30 2804 N 274.927 -0.932562 -1.27047 0
M  V30 2805 C 275.857 -0.452902 -2.29066 0
M  V30 2806 C 276.838 0.489338 -1.62909 0
M  V30 2807 O 278.023 0.393046 -1.90181 0
M  V30 2808 C 275.153 0.290698 -3.46081 0
M  V30 2809 C 274.107 -0.564168 -4.24265 0
M  V30 2810 C 273.433 0.308886 -5.33807 0
M  V30 2811 C 274.733 -1.83112 -4.89149 0
M  V30 2812 H 276.427 -1.30552 -2.69437 0
M  V30 2813 H 273.973 -0.629201 -1.29526 0
M  V30 2814 H 275.926 0.637233 -4.16554 0
M  V30 2815 H 274.65 1.17738 -3.0464 0
M  V30 2816 H 273.309 -0.893477 -3.55545 0
M  V30 2817 H 272.957 1.19467 -4.88607 0
M  V30 2818 H 272.657 -0.259633 -5.87026 0
M  V30 2819 H 274.181 0.650884 -6.07121 0
M  V30 2820 H 275.595 -1.55236 -5.51883 0
M  V30 2821 H 273.992 -2.34353 -5.52448 0
M  V30 2822 H 275.062 -2.54772 -4.12576 0
M  V30 2823 N 276.405 1.4127 -0.698611 0
M  V30 2824 C 277.63 2.06024 -0.238512 0
M  V30 2825 C 278.055 1.5224 1.10475 0
M  V30 2826 O 277.413 0.650623 1.69223 0
M  V30 2827 C 277.461 3.59988 -0.209952 0
M  V30 2828 O 276.565 4.04282 0.814235 0
M  V30 2829 H 275.906 0.653829 -0.115775 0
M  V30 2830 H 278.436 1.8098 -0.954326 0
M  V30 2831 H 278.446 4.07979 -0.0418436 0
M  V30 2832 H 277.121 3.98503 -1.1903 0
M  V30 2833 H 275.698 3.6779 0.615234 0
M  V30 2834 N 277.883 0.443576 1.51229 0
M  V30 2835 C 279.132 -0.122332 2.01329 0
M  V30 2836 C 279.445 -1.43237 1.33201 0
M  V30 2837 O 280.651 -2.0816 1.74304 0
M  V30 2838 C 279.107 -0.268551 3.58897 0
M  V30 2839 C 278.715 1.03142 4.35965 0
M  V30 2840 C 280.459 -0.787894 4.17124 0
M  V30 2841 C 278.366 0.850504 5.85252 0
M  V30 2842 H 277.296 -0.0494929 0.752374 0
M  V30 2843 H 279.947 0.574289 1.74282 0
M  V30 2844 H 278.329 -1.02832 3.82415 0
M  V30 2845 H 279.503 1.80001 4.24189 0
M  V30 2846 H 277.818 1.47977 3.89219 0
M  V30 2847 H 280.415 -0.939841 5.26375 0
M  V30 2848 H 280.758 -1.77201 3.76703 0
M  V30 2849 H 281.291 -0.0862669 3.97706 0
M  V30 2850 H 278.03 1.80718 6.30096 0
M  V30 2851 H 277.55 0.121825 5.99676 0
M  V30 2852 H 279.229 0.506163 6.45017 0
M  V30 2853 N 279.361 -1.56624 0.175154 0
M  V30 2854 C 280.777 -1.58571 -0.180966 0
M  V30 2855 C 280.977 -1.19065 -1.6256 0
M  V30 2856 O 280.033 -0.904044 -2.35761 0
M  V30 2857 C 281.346 -3.00522 0.103326 0
M  V30 2858 C 282.894 -3.12972 0.0418426 0
M  V30 2859 C 283.369 -4.57022 0.299175 0
M  V30 2860 N 284.86 -4.62541 0.247086 0
M  V30 2861 C 285.595 -5.71857 0.420318 0
M  V30 2862 N 285.091 -6.89717 0.652816 0
M  V30 2863 N 286.884 -5.60972 0.355957 0
M  V30 2864 H 279.035 -1.80589 1.11809 0
M  V30 2865 H 281.298 -0.837178 0.444788 0
M  V30 2866 H 281.004 -3.33916 1.10422 0
M  V30 2867 H 280.878 -3.72344 -0.603299 0
M  V30 2868 H 283.265 -2.79403 -0.949636 0
M  V30 2869 H 283.346 -2.43578 0.781238 0
M  V30 2870 H 282.99 -4.913 1.28788 0
M  V30 2871 H 282.92 -5.24579 -0.460876 0
M  V30 2872 H 285.411 -3.77829 0.0731895 0
M  V30 2873 H 285.724 -7.68911 0.774347 0
M  V30 2874 H 284.069 -6.91572 0.689476 0
M  V30 2875 H 287.26 -4.67773 0.174882 0
M  V30 2876 H 287.433 -6.46111 0.494388 0
M  V30 2877 N 280.839 0.0985539 -1.57292 0
M  V30 2878 C 282.116 0.834155 -1.76921 0
M  V30 2879 C 282.496 1.97101 -0.755928 0
M  V30 2880 O 281.844 2.27474 0.216245 0
M  V30 2881 C 282.054 1.33194 -3.22584 0
M  V30 2882 C 283.402 1.77611 -3.85668 0
M  V30 2883 O 284.426 1.42825 -3.26312 0
M  V30 2884 O 283.285 2.4192 -4.90038 0
M  V30 2885 H 280.379 0.397628 -0.725135 0
M  V30 2886 H 282.925 0.0807044 -1.69508 0
M  V30 2887 H 281.697 0.517248 -3.87866 0
M  V30 2888 H 281.32 2.1475 -3.34616 0
M  V30 2889 N 282.317 1.53212 0.369288 0
M  V30 2890 C 283.563 1.70413 1.11046 0
M  V30 2891 C 283.918 0.448509 1.87099 0
M  V30 2892 O 283.211 -0.558382 1.83283 0
M  V30 2893 C 283.405 2.89101 2.10132 0
M  V30 2894 C 283.234 4.26084 1.43814 0
M  V30 2895 C 282.004 4.90994 1.19384 0
M  V30 2896 C 284.202 5.06754 0.877802 0
M  V30 2897 N 282.184 6.11911 0.49377 0
M  V30 2898 C 283.555 6.1924 0.306891 0
M  V30 2899 C 285.61 4.91814 0.776129 0
M  V30 2900 C 284.313 7.1842 -0.355774 0
M  V30 2901 C 286.339 5.91263 0.127252 0
M  V30 2902 C 285.701 7.03069 -0.432801 0
M  V30 2903 H 281.8 0.676872 0.391623 0
M  V30 2904 H 284.384 1.90603 0.397334 0
M  V30 2905 H 282.555 2.70456 2.78761 0
M  V30 2906 H 284.287 2.95142 2.76899 0
M  V30 2907 H 281.042 4.50074 1.47413 0
M  V30 2908 H 281.466 6.76813 0.159207 0
M  V30 2909 H 286.108 4.05564 1.19489 0
M  V30 2910 H 283.826 8.04264 -0.786499 0
M  V30 2911 H 287.412 5.81779 0.0495613 0
M  V30 2912 H 286.292 7.78702 -0.926958 0
M  V30 2913 N 283.795 -0.628877 1.44509 0
M  V30 2914 C 285.072 -1.38733 1.37886 0
M  V30 2915 C 285.452 -2.11065 0.0387008 0
M  V30 2916 O 284.8 -2.06476 -0.97878 0
M  V30 2917 C 285.01 -2.35188 2.57852 0
M  V30 2918 C 286.358 -2.9845 3.02014 0
M  V30 2919 O 287.382 -2.45513 2.58073 0
M  V30 2920 O 286.241 -3.94487 3.78209 0
M  V30 2921 H 283.335 -0.621015 0.54614 0
M  V30 2922 H 285.881 -0.653744 1.56602 0
M  V30 2923 H 284.653 -1.80855 3.46998 0
M  V30 2924 H 284.276 -3.1596 2.4136 0
M  V30 2925 N 285.273 -1.31445 -0.869486 0
M  V30 2926 C 286.55 -1.11795 -1.60503 0
M  V30 2927 C 286.93 0.327168 -2.08549 0
M  V30 2928 O 286.278 1.32135 -1.8642 0
M  V30 2929 C 286.488 -2.13258 -2.76265 0
M  V30 2930 C 287.836 -2.45805 -3.46215 0
M  V30 2931 O 288.86 -2.11688 -2.86473 0
M  V30 2932 O 287.719 -3.04228 -4.5399 0
M  V30 2933 H 284.813 -0.430421 -0.706163 0
M  V30 2934 H 287.359 -1.42925 -0.914907 0
M  V30 2935 H 286.131 -3.10461 -2.3818 0
M  V30 2936 H 285.754 -1.83035 -3.52964 0
M  V30 2937 N 286.751 1.08385 -1.14413 0
M  V30 2938 C 287.684 2.14642 -0.774871 0
M  V30 2939 C 288.662 1.60761 0.243876 0
M  V30 2940 O 289.846 1.88031 0.132883 0
M  V30 2941 C 286.973 3.38366 -0.150491 0
M  V30 2942 C 286.019 4.10997 -1.13945 0
M  V30 2943 S 286.852 4.63797 -2.67679 0
M  V30 2944 C 288.008 5.90808 -2.06631 0
M  V30 2945 H 288.241 2.45633 -1.67487 0
M  V30 2946 H 285.774 1.20498 -0.96538 0
M  V30 2947 H 287.732 4.09996 0.203334 0
M  V30 2948 H 286.393 3.05572 0.72694 0
M  V30 2949 H 285.586 4.99783 -0.65059 0
M  V30 2950 H 285.188 3.4528 -1.43727 0
M  V30 2951 H 287.48 6.62411 -1.4219 0
M  V30 2952 H 288.423 6.4439 -2.93542 0
M  V30 2953 H 288.831 5.4383 -1.51357 0
M  V30 2954 N 288.23 0.939286 1.26551 0
M  V30 2955 C 289.177 0.446088 2.26448 0
M  V30 2956 C 290.147 -0.493234 1.58608 0
M  V30 2957 O 291.332 -0.409857 1.86346 0
M  V30 2958 C 288.472 -0.284375 3.43926 0
M  V30 2959 C 287.585 0.690399 4.26448 0
M  V30 2960 C 286.72 -0.0610712 5.31165 0
M  V30 2961 C 285.759 0.905649 6.05363 0
M  V30 2962 N 284.896 0.186055 7.01853 0
M  V30 2963 H 289.736 1.30291 2.68008 0
M  V30 2964 H 287.273 0.65371 1.31776 0
M  V30 2965 H 289.231 -0.724313 4.10864 0
M  V30 2966 H 287.861 -1.10535 3.03285 0
M  V30 2967 H 286.913 1.24885 3.59316 0
M  V30 2968 H 288.225 1.42873 4.779 0
M  V30 2969 H 287.379 -0.56038 6.04106 0
M  V30 2970 H 286.118 -0.832297 4.80546 0
M  V30 2971 H 285.123 1.4161 5.3125 0
M  V30 2972 H 286.348 1.67685 6.58072 0
M  V30 2973 H 284.294 -0.566714 6.53548 0
M  V30 2974 H 284.211 0.863752 7.51049 0
M  V30 2975 H 285.479 -0.292221 7.78952 0
M  V30 2976 N 289.708 -1.40897 0.706093 0
M  V30 2977 C 290.956 -2.00657 0.241054 0
M  V30 2978 C 291.277 -1.56241 -1.16678 0
M  V30 2979 O 290.547 -0.79765 -1.78926 0
M  V30 2980 H 289.127 -0.742018 0.0861308 0
M  V30 2981 H 291.789 -1.72372 0.909604 0
M  V30 2982 H 290.885 -3.10958 0.266705 0
M  V30 2983 N 291.186 -0.45159 -1.50991 0
M  V30 2984 C 292.463 0.170707 -1.94854 0
M  V30 2985 C 292.843 1.58788 -1.39103 0
M  V30 2986 O 292.191 2.20913 -0.583921 0
M  V30 2987 C 292.401 0.133929 -3.48743 0
M  V30 2988 C 293.749 0.33248 -4.23296 0
M  V30 2989 O 294.773 0.211403 -3.55572 0
M  V30 2990 O 293.632 0.57486 -5.43468 0
M  V30 2991 H 290.726 0.122264 -0.817912 0
M  V30 2992 H 293.272 -0.510594 -1.61836 0
M  V30 2993 H 292.044 -0.856283 -3.81816 0
M  V30 2994 H 291.667 0.857529 -3.88242 0
M  V30 2995 N 292.664 1.56529 -0.183458 0
M  V30 2996 C 293.614 2.1515 0.754605 0
M  V30 2997 C 294.598 1.08904 1.18443 0
M  V30 2998 O 295.79 1.34997 1.14476 0
M  V30 2999 C 292.919 2.80531 1.97881 0
M  V30 3000 C 292.005 3.93952 1.57043 0
M  V30 3001 N 292.396 4.98221 0.87231 0
M  V30 3002 C 290.694 4.05338 1.86057 0
M  V30 3003 C 291.395 5.77836 0.669377 0
M  V30 3004 N 290.371 5.29858 1.21454 0
M  V30 3005 H 294.173 2.93132 0.212387 0
M  V30 3006 H 291.687 1.62391 0.0167725 0
M  V30 3007 H 293.684 3.20914 2.6612 0
M  V30 3008 H 292.344 2.04035 2.52586 0
M  V30 3009 H 293.355 5.15191 0.529033 0
M  V30 3010 H 290.032 3.39957 2.42354 0
M  V30 3011 H 291.422 6.71799 0.116422 0
M  V30 3012 N 294.142 -0.090211 1.57342 0
M  V30 3013 C 295.388 -0.793982 1.86611 0
M  V30 3014 C 295.721 -1.78142 0.773252 0
M  V30 3015 O 294.996 -1.93271 -0.218304 0
M  V30 3016 C 295.279 -1.51839 3.26523 0
M  V30 3017 C 295.132 -0.548609 4.46442 0
M  V30 3018 C 296.451 -2.46779 3.64401 0
M  V30 3019 H 293.57 -0.287186 0.678744 0
M  V30 3020 H 296.212 -0.0575076 1.89913 0
M  V30 3021 H 294.362 -2.14617 3.23839 0
M  V30 3022 H 296.034 0.0725513 4.61243 0
M  V30 3023 H 294.277 0.137614 4.33582 0
M  V30 3024 H 294.948 -1.09271 5.41076 0
M  V30 3025 H 297.424 -1.94089 3.68061 0
M  V30 3026 H 296.3 -2.94479 4.63221 0
M  V30 3027 H 296.561 -3.30758 2.93346 0
M  V30 3028 N 295.62 -1.53406 -0.361157 0
M  V30 3029 C 296.567 -1.80156 -1.44265 0
M  V30 3030 C 297.537 -0.646183 -1.53015 0
M  V30 3031 O 298.722 -0.888818 -1.68833 0
M  V30 3032 C 295.862 -2.00116 -2.81154 0
M  V30 3033 C 294.975 -3.27833 -2.81335 0
M  V30 3034 C 294.11 -3.37957 -4.09828 0
M  V30 3035 C 293.149 -4.59689 -4.04168 0
M  V30 3036 N 292.286 -4.66942 -5.24318 0
M  V30 3037 H 297.126 -2.72438 -1.20754 0
M  V30 3038 H 294.663 -1.34954 -0.585296 0
M  V30 3039 H 296.621 -2.09677 -3.60682 0
M  V30 3040 H 295.251 -1.11167 -3.03054 0
M  V30 3041 H 294.303 -3.27204 -1.94014 0
M  V30 3042 H 295.615 -4.17442 -2.73027 0
M  V30 3043 H 294.769 -3.46853 -4.97773 0
M  V30 3044 H 293.508 -2.46372 -4.20894 0
M  V30 3045 H 292.513 -4.50889 -3.14609 0
M  V30 3046 H 293.738 -5.5262 -3.947 0
M  V30 3047 H 291.684 -3.7826 -5.35962 0
M  V30 3048 H 291.601 -5.50462 -5.18197 0
M  V30 3049 H 292.869 -4.80127 -6.14084 0
M  V30 3050 N 297.098 0.621204 -1.44841 0
M  V30 3051 C 298.048 1.72663 -1.48901 0
M  V30 3052 C 299.032 1.56964 -0.353702 0
M  V30 3053 O 300.224 1.66532 -0.599669 0
M  V30 3054 C 297.353 3.11381 -1.44557 0
M  V30 3055 C 296.439 3.32514 -2.6324 0
M  V30 3056 N 296.83 3.23969 -3.8843 0
M  V30 3057 C 295.128 3.63343 -2.58647 0
M  V30 3058 C 295.829 3.46062 -4.67564 0
M  V30 3059 N 294.805 3.69407 -3.98797 0
M  V30 3060 H 298.607 1.64529 -2.43531 0
M  V30 3061 H 296.121 0.82401 -1.39942 0
M  V30 3062 H 298.118 3.90667 -1.4555 0
M  V30 3063 H 296.778 3.20674 -0.509731 0
M  V30 3064 H 297.789 3.02669 -4.20252 0
M  V30 3065 H 294.466 3.79556 -1.73906 0
M  V30 3066 H 295.856 3.44963 -5.76585 0
M  V30 3067 N 298.576 1.31904 0.862503 0
M  V30 3068 C 299.806 1.24817 1.64634 0
M  V30 3069 C 300.214 -0.187579 1.88268 0
M  V30 3070 O 299.557 -1.13253 1.44635 0
M  V30 3071 C 299.619 1.92996 3.03303 0
M  V30 3072 C 299.283 3.42336 3.02746 0
M  V30 3073 C 300.28 4.37956 2.80162 0
M  V30 3074 C 297.965 3.84147 3.2363 0
M  V30 3075 C 299.959 5.73361 2.78453 0
M  V30 3076 C 297.646 5.19663 3.21549 0
M  V30 3077 C 298.644 6.14081 2.98988 0
M  V30 3078 O 298.332 7.47118 2.96766 0
M  V30 3079 H 298.064 0.432222 0.519769 0
M  V30 3080 H 300.618 1.7445 1.08427 0
M  V30 3081 H 298.848 1.37922 3.61268 0
M  V30 3082 H 300.537 1.79723 3.63943 0
M  V30 3083 H 301.303 4.06981 2.63802 0
M  V30 3084 H 297.182 3.11083 3.40218 0
M  V30 3085 H 300.726 6.4703 2.60763 0
M  V30 3086 H 296.623 5.5027 3.37451 0
M  V30 3087 H 297.391 7.56382 3.12775 0
M  V30 3088 N 300.054 -1.07777 1.14986 0
M  V30 3089 C 301.001 -2.14867 0.842672 0
M  V30 3090 C 301.971 -1.6486 -0.202552 0
M  V30 3091 O 303.156 -1.90668 -0.0710568 0
M  V30 3092 C 300.296 -3.43486 0.333363 0
M  V30 3093 C 299.409 -4.07306 1.43965 0
M  V30 3094 C 298.544 -5.23744 0.886914 0
M  V30 3095 C 297.583 -5.79517 1.97043 0
M  V30 3096 N 296.72 -6.87291 1.4344 0
M  V30 3097 H 301.56 -2.40485 1.75986 0
M  V30 3098 H 299.097 -1.1801 0.878179 0
M  V30 3099 H 301.055 -4.17195 0.0198163 0
M  V30 3100 H 299.685 -3.18133 -0.546916 0
M  V30 3101 H 298.737 -3.31293 1.86946 0
M  V30 3102 H 300.049 -4.44771 2.25788 0
M  V30 3103 H 299.203 -6.04419 0.525651 0
M  V30 3104 H 297.942 -4.87685 0.0377957 0
M  V30 3105 H 296.947 -4.97491 2.34057 0
M  V30 3106 H 298.172 -6.17632 2.82325 0
M  V30 3107 H 296.118 -6.5318 0.607567 0
M  V30 3108 H 296.035 -7.23617 2.18895 0
M  V30 3109 H 297.303 -7.71682 1.10124 0
M  V30 3110 N 301.532 -0.945985 -1.26051 0
M  V30 3111 C 302.781 -0.591836 -1.92822 0
M  V30 3112 C 303.094 0.873956 -1.7499 0
M  V30 3113 O 304.3 1.33769 -2.36259 0
M  V30 3114 C 302.756 -1.00776 -3.45503 0
M  V30 3115 C 302.364 -2.4955 -3.7206 0
M  V30 3116 C 304.108 -0.725735 -4.1825 0
M  V30 3117 C 302.015 -2.84988 -5.18205 0
M  V30 3118 H 300.945 -0.217635 -0.721908 0
M  V30 3119 H 303.596 -1.14927 -1.43052 0
M  V30 3120 H 301.978 -0.378812 -3.94184 0
M  V30 3121 H 303.152 -3.1739 -3.34066 0
M  V30 3122 H 301.467 -2.75133 -3.12555 0
M  V30 3123 H 304.064 -0.966771 -5.25887 0
M  V30 3124 H 304.407 0.337639 -4.14929 0
M  V30 3125 H 304.94 -1.31463 -3.7545 0
M  V30 3126 H 301.679 -3.90307 -5.26631 0
M  V30 3127 H 301.199 -2.21813 -5.57278 0
M  V30 3128 H 302.878 -2.73712 -5.86252 0
M  V30 3129 N 303.011 1.40521 -0.713556 0
M  V30 3130 C 304.427 1.54839 -0.386907 0
M  V30 3131 C 304.627 1.68532 1.1045 0
M  V30 3132 O 303.683 1.67377 1.89053 0
M  V30 3133 C 304.996 2.77792 -1.15118 0
M  V30 3134 C 306.544 2.91607 -1.13729 0
M  V30 3135 C 307.019 4.1747 -1.88368 0
M  V30 3136 N 308.51 4.24466 -1.85427 0
M  V30 3137 C 309.245 5.20755 -2.40004 0
M  V30 3138 N 308.741 6.22965 -3.03129 0
M  V30 3139 N 310.534 5.1282 -2.30158 0
M  V30 3140 H 302.685 1.29879 -1.68063 0
M  V30 3141 H 304.948 0.627896 -0.710247 0
M  V30 3142 H 304.654 2.73944 -2.20561 0
M  V30 3143 H 304.528 3.6984 -0.741477 0
M  V30 3144 H 306.915 2.94959 -0.0910608 0
M  V30 3145 H 306.996 2.00682 -1.5862 0
M  V30 3146 H 306.64 4.1488 -2.9298 0
M  V30 3147 H 306.57 5.074 -1.40898 0
M  V30 3148 H 309.061 3.51241 -1.3942 0
M  V30 3149 H 309.374 6.92859 -3.42295 0
M  V30 3150 H 307.719 6.23415 -3.07212 0
M  V30 3151 H 310.91 4.31899 -1.80501 0
M  V30 3152 H 311.083 5.87689 -2.72993 0
M  V30 3153 N 304.489 0.459591 1.5075 0
M  V30 3154 C 305.436 -0.340524 2.28274 0
M  V30 3155 C 306.406 -0.997371 1.32822 0
M  V30 3156 O 307.591 -1.01202 1.61749 0
M  V30 3157 C 304.731 -1.42317 3.14388 0
M  V30 3158 C 303.844 -0.782251 4.24859 0
M  V30 3159 C 302.979 -1.84182 4.98247 0
M  V30 3160 C 302.018 -1.18053 6.00608 0
M  V30 3161 N 301.155 -2.18244 6.67319 0
M  V30 3162 H 305.995 0.326899 2.96202 0
M  V30 3163 H 303.532 0.173057 1.46078 0
M  V30 3164 H 305.49 -2.06241 3.62658 0
M  V30 3165 H 304.12 -2.05992 2.4853 0
M  V30 3166 H 303.172 -0.0307404 3.80388 0
M  V30 3167 H 304.484 -0.259663 4.98124 0
M  V30 3168 H 303.638 -2.55714 5.50177 0
M  V30 3169 H 302.377 -2.39819 4.24662 0
M  V30 3170 H 301.382 -0.450776 5.47949 0
M  V30 3171 H 302.607 -0.631202 6.7616 0
M  V30 3172 H 300.553 -2.72919 5.96533 0
M  V30 3173 H 300.47 -1.70938 7.36421 0
M  V30 3174 H 301.738 -2.89191 7.23871 0
M  V30 3175 N 305.967 -1.56429 0.191757 0
M  V30 3176 C 306.897 -2.21937 -0.725696 0
M  V30 3177 C 307.878 -1.1814 -1.2238 0
M  V30 3178 O 309.063 -1.46636 -1.27325 0
M  V30 3179 C 306.193 -2.87611 -1.94672 0
M  V30 3180 C 305.147 -3.97623 -1.58366 0
M  V30 3181 C 304.473 -4.50446 -2.88102 0
M  V30 3182 C 305.773 -5.16197 -0.796133 0
M  V30 3183 H 307.467 -2.98861 -0.179606 0
M  V30 3184 H 305.013 -1.43749 -0.0849464 0
M  V30 3185 H 306.966 -3.3212 -2.59373 0
M  V30 3186 H 305.69 -2.08087 -2.51728 0
M  V30 3187 H 304.349 -3.53801 -0.960247 0
M  V30 3188 H 303.997 -3.67688 -3.43241 0
M  V30 3189 H 303.697 -5.24675 -2.64556 0
M  V30 3190 H 305.221 -4.97654 -3.53798 0
M  V30 3191 H 306.635 -5.57271 -1.34618 0
M  V30 3192 H 305.032 -5.96471 -0.658928 0
M  V30 3193 H 306.102 -4.84473 0.203478 0
M  V30 3194 N 307.445 0.0818655 -1.57387 0
M  V30 3195 C 308.722 0.815343 -1.77796 0
M  V30 3196 C 309.102 1.96289 -0.77679 0
M  V30 3197 O 308.45 2.27691 0.192106 0
M  V30 3198 C 308.66 1.29765 -3.23978 0
M  V30 3199 C 310.008 1.7351 -3.8753 0
M  V30 3200 O 311.032 1.39356 -3.27808 0
M  V30 3201 O 309.891 2.36708 -4.92576 0
M  V30 3202 H 306.985 0.389914 -0.729312 0
M  V30 3203 H 309.531 0.0627213 -1.69584 0
M  V30 3204 H 308.303 0.47608 -3.88393 0
M  V30 3205 H 307.926 2.11189 -3.36875 0
M  V30 3206 N 308.923 1.53595 0.353017 0
M  V30 3207 C 309.871 1.81605 1.45335 0
M  V30 3208 C 310.865 0.685923 1.54892 0
M  V30 3209 O 312.071 0.869095 1.57628 0
M  V30 3210 H 308.446 0.575204 0.484401 0
M  V30 3211 H 310.417 2.73679 1.18921 0
M  V30 3212 C 309.166 2.03406 2.81995 0
M  V30 3213 H 308.489 2.89814 2.75405 0
M  V30 3214 H 309.929 2.26975 3.58132 0
M  V30 3215 C 308.388 0.816794 3.26849 0
M  V30 3216 O 308.918 0.0115856 4.01698 0
M  V30 3217 N 307.124 0.636682 2.8354 0
M  V30 3218 H 306.671 1.2931 2.22793 0
M  V30 3219 H 306.629 -0.176336 3.13905 0
M  V30 3220 N 310.401 -0.613514 1.45168 0
M  V30 3221 C 311.649 -1.36997 1.48581 0
M  V30 3222 C 311.97 -1.94589 0.126545 0
M  V30 3223 O 311.24 -1.76816 -0.843372 0
M  V30 3224 H 309.82 -0.508558 0.547154 0
M  V30 3225 H 312.482 -0.720853 1.81079 0
M  V30 3226 H 311.578 -2.1924 2.22127 0
M  V30 3227 N 311.879 -1.3236 -0.855495 0
M  V30 3228 C 313.127 -1.22629 -1.60644 0
M  V30 3229 C 313.448 0.212136 -1.93843 0
M  V30 3230 O 312.718 1.13666 -1.59552 0
M  V30 3231 H 311.298 -0.450882 -0.595579 0
M  V30 3232 H 313.96 -1.65871 -1.02337 0
M  V30 3233 H 313.056 -1.80832 -2.54374 0
M  V30 3234 N 313.357 1.07166 -1.15556 0
M  V30 3235 C 314.587 1.83248 -0.954133 0
M  V30 3236 C 314.995 1.82449 0.500911 0
M  V30 3237 O 314.338 1.23575 1.35923 0
M  V30 3238 C 314.4 3.31393 -1.39351 0
M  V30 3239 C 314.064 3.5591 -2.86666 0
M  V30 3240 C 315.061 3.49695 -3.8472 0
M  V30 3241 C 312.746 3.83515 -3.24379 0
M  V30 3242 C 314.74 3.70737 -5.18491 0
M  V30 3243 C 312.427 4.04209 -4.58321 0
M  V30 3244 C 313.425 3.97815 -5.55186 0
M  V30 3245 O 313.113 4.17954 -6.86709 0
M  V30 3246 H 312.845 0.584941 -0.338851 0
M  V30 3247 H 315.399 1.36169 -1.53777 0
M  V30 3248 H 313.629 3.79292 -0.75329 0
M  V30 3249 H 315.318 3.88945 -1.16089 0
M  V30 3250 H 316.084 3.28368 -3.56931 0
M  V30 3251 H 311.963 3.87605 -2.49567 0
M  V30 3252 H 315.507 3.65663 -5.94085 0
M  V30 3253 H 311.404 4.25023 -4.85825 0
M  V30 3254 H 312.172 4.35291 -6.93155 0
M  V30 3255 N 314.835 0.952656 1.25548 0
M  V30 3256 C 316.065 0.622592 1.96996 0
M  V30 3257 C 316.473 -0.809112 1.71026 0
M  V30 3258 O 315.816 -1.55258 0.981861 0
M  V30 3259 C 315.878 0.798946 3.5051 0
M  V30 3260 C 315.542 2.20744 4.00151 0
M  V30 3261 C 316.539 3.18394 4.11001 0
M  V30 3262 C 314.224 2.5311 4.33867 0
M  V30 3263 C 316.218 4.46504 4.54877 0
M  V30 3264 C 313.905 3.8145 4.7743 0
M  V30 3265 C 314.903 4.77959 4.87897 0
M  V30 3266 O 314.591 6.04012 5.30494 0
M  V30 3267 H 314.323 0.232503 0.634758 0
M  V30 3268 H 316.877 1.2789 1.60728 0
M  V30 3269 H 315.107 0.0854903 3.86605 0
M  V30 3270 H 316.796 0.47023 4.03167 0
M  V30 3271 H 317.562 2.94715 3.85186 0
M  V30 3272 H 313.441 1.78719 4.24948 0
M  V30 3273 H 316.985 5.21835 4.62962 0
M  V30 3274 H 312.882 4.04936 5.0269 0
M  V30 3275 H 313.65 6.0736 5.48685 0
M  V30 3276 N 316.313 -1.40141 0.720998 0
M  V30 3277 C 317.562 -2.0002 0.259804 0
M  V30 3278 C 317.875 -1.57839 -1.15526 0
M  V30 3279 O 319.081 -2.10455 -1.71525 0
M  V30 3280 C 317.537 -3.57516 0.413566 0
M  V30 3281 C 317.145 -4.08667 1.83562 0
M  V30 3282 C 318.889 -4.24498 0.0134387 0
M  V30 3283 C 316.796 -5.58686 1.93968 0
M  V30 3284 H 315.726 -0.748195 0.0933806 0
M  V30 3285 H 318.377 -1.60313 0.892866 0
M  V30 3286 H 316.759 -3.9495 -0.288169 0
M  V30 3287 H 317.933 -3.82598 2.56817 0
M  V30 3288 H 316.248 -3.543 2.1877 0
M  V30 3289 H 318.845 -5.34654 0.0703954 0
M  V30 3290 H 319.188 -4.03375 -1.02927 0
M  V30 3291 H 319.721 -3.92188 0.665815 0
M  V30 3292 H 316.46 -5.8467 2.96379 0
M  V30 3293 H 315.98 -5.86602 1.25131 0
M  V30 3294 H 317.659 -6.23875 1.71431 0
M  V30 3295 N 317.792 -0.46758 -1.50504 0
M  V30 3296 C 319.02 0.0864133 -2.06719 0
M  V30 3297 C 319.435 1.33819 -1.33184 0
M  V30 3298 O 318.792 1.78061 -0.400083 0
M  V30 3299 C 318.843 0.378079 -3.59517 0
M  V30 3300 O 318.564 -0.824044 -4.3028 0
M  V30 3301 C 320.065 0.979426 -4.32345 0
M  V30 3302 H 317.285 -0.00551697 -0.670977 0
M  V30 3303 H 319.829 -0.655354 -1.93715 0
M  V30 3304 H 317.984 1.06977 -3.72337 0
M  V30 3305 H 318.398 -0.566518 -5.21432 0
M  V30 3306 H 319.872 1.1333 -5.40241 0
M  V30 3307 H 320.349 1.9686 -3.9261 0
M  V30 3308 H 320.955 0.326216 -4.24047 0
M  V30 3309 N 319.27 1.56325 -0.20005 0
M  V30 3310 C 320.498 2.02105 0.442874 0
M  V30 3311 C 320.913 1.08014 1.5485 0
M  V30 3312 O 320.27 0.0858797 1.82298 0
M  V30 3313 C 320.321 3.47549 0.994583 0
M  V30 3314 O 320.042 4.38049 -0.0669322 0
M  V30 3315 C 321.543 4.0887 1.7129 0
M  V30 3316 H 318.763 0.661807 0.110691 0
M  V30 3317 H 321.307 2.02134 -0.310207 0
M  V30 3318 H 319.462 3.48204 1.69803 0
M  V30 3319 H 319.876 5.23368 0.344462 0
M  V30 3320 H 321.35 5.12475 2.05118 0
M  V30 3321 H 321.827 3.52615 2.61838 0
M  V30 3322 H 322.433 4.12002 1.05518 0
M  V30 3323 N 320.748 -0.0735177 1.57428 0
M  V30 3324 C 322.164 -0.428264 1.53747 0
M  V30 3325 C 322.364 -1.79272 0.91998 0
M  V30 3326 O 321.42 -2.47051 0.521745 0
M  V30 3327 C 322.733 -0.370914 2.98404 0
M  V30 3328 C 324.281 -0.451224 3.0973 0
M  V30 3329 C 324.756 -0.4238 4.56035 0
M  V30 3330 N 326.247 -0.483925 4.60665 0
M  V30 3331 C 326.982 -0.484891 5.71346 0
M  V30 3332 N 326.478 -0.440775 6.91396 0
M  V30 3333 N 328.271 -0.531319 5.59583 0
M  V30 3334 H 320.422 0.819949 1.95935 0
M  V30 3335 H 322.685 0.307493 0.896745 0
M  V30 3336 H 322.391 0.564956 3.47133 0
M  V30 3337 H 322.265 -1.18176 3.5821 0
M  V30 3338 H 324.652 -1.37752 2.60976 0
M  V30 3339 H 324.733 0.388167 2.52838 0
M  V30 3340 H 324.377 0.498638 5.05446 0
M  V30 3341 H 324.307 -1.2807 5.10789 0
M  V30 3342 H 326.798 -0.522338 3.74273 0
M  V30 3343 H 327.111 -0.44539 7.71515 0
M  V30 3344 H 325.456 -0.40749 6.93804 0
M  V30 3345 H 328.647 -0.563464 4.64696 0
M  V30 3346 H 328.82 -0.528603 6.4584 0
M  V30 3347 N 322.226 -1.5378 -0.344866 0
M  V30 3348 C 323.189 -1.80981 -1.40637 0
M  V30 3349 C 324.189 -0.680816 -1.45676 0
M  V30 3350 O 325.379 -0.949095 -1.46075 0
M  V30 3351 C 322.511 -1.95063 -2.79577 0
M  V30 3352 H 323.704 -2.75803 -1.17783 0
M  V30 3353 H 321.257 -1.45173 -0.579181 0
M  V30 3354 H 321.992 -1.02379 -3.07716 0
M  V30 3355 H 321.777 -2.77198 -2.77315 0
M  V30 3356 H 323.267 -2.17629 -3.56409 0
M  V30 3357 N 323.704 0.605807 -1.45491 0
M  V30 3358 C 324.636 1.73031 -1.5031 0
M  V30 3359 C 325.649 1.57968 -0.393687 0
M  V30 3360 O 326.838 1.65817 -0.660839 0
M  V30 3361 C 323.938 3.11049 -1.34543 0
M  V30 3362 C 323.111 3.52334 -2.59189 0
M  V30 3363 C 322.17 4.69323 -2.37954 0
M  V30 3364 O 321.196 4.7635 -3.11575 0
M  V30 3365 N 322.398 5.62705 -1.4263 0
M  V30 3366 H 325.163 1.6936 -2.4726 0
M  V30 3367 H 322.724 0.79114 -1.41254 0
M  V30 3368 H 324.716 3.87071 -1.18144 0
M  V30 3369 H 323.286 3.09217 -0.458623 0
M  V30 3370 H 322.506 2.66256 -2.90691 0
M  V30 3371 H 323.794 3.76677 -3.42041 0
M  V30 3372 H 323.192 5.59744 -0.818758 0
M  V30 3373 H 321.749 6.38252 -1.32202 0
M  V30 3374 N 325.182 1.32811 0.848464 0
M  V30 3375 C 326.429 1.23724 1.60308 0
M  V30 3376 C 326.757 -0.1994 1.93475 0
M  V30 3377 O 326.012 -1.15406 1.5805 0
M  V30 3378 C 326.311 2.04831 2.92881 0
M  V30 3379 C 325.977 3.54125 2.79117 0
M  V30 3380 C 324.639 3.94829 2.7507 0
M  V30 3381 C 326.991 4.49036 2.64606 0
M  V30 3382 C 324.319 5.28675 2.544 0
M  V30 3383 C 326.671 5.83033 2.4547 0
M  V30 3384 C 325.335 6.22931 2.39819 0
M  V30 3385 H 324.605 0.452737 0.586609 0
M  V30 3386 H 327.252 1.64301 0.983743 0
M  V30 3387 H 325.557 1.57001 3.58968 0
M  V30 3388 H 327.254 1.95164 3.50303 0
M  V30 3389 H 323.844 3.21801 2.83094 0
M  V30 3390 H 328.028 4.18505 2.66772 0
M  V30 3391 H 323.284 5.58637 2.48465 0
M  V30 3392 H 327.458 6.56186 2.33222 0
M  V30 3393 H 325.085 7.26584 2.23562 0
M  V30 3394 N 326.66 -1.06551 1.16123 0
M  V30 3395 C 327.57 -2.17484 0.879662 0
M  V30 3396 C 328.586 -1.73377 -0.147104 0
M  V30 3397 O 329.762 -2.01379 0.0289128 0
M  V30 3398 C 326.827 -3.44591 0.381829 0
M  V30 3399 C 325.888 -4.0322 1.4735 0
M  V30 3400 C 325.121 -5.24261 0.999324 0
M  V30 3401 O 325.344 -5.70198 -0.151957 0
M  V30 3402 O 324.278 -5.74775 1.78653 0
M  V30 3403 H 328.104 -2.44075 1.80724 0
M  V30 3404 H 325.689 -1.16042 0.940992 0
M  V30 3405 H 327.571 -4.21254 0.111053 0
M  V30 3406 H 326.246 -3.19532 -0.51777 0
M  V30 3407 H 325.153 -3.2806 1.79798 0
M  V30 3408 H 326.486 -4.32568 2.34831 0
M  V30 3409 N 328.138 -0.959301 -1.25041 0
M  V30 3410 C 329.366 -0.633949 -1.96948 0
M  V30 3411 C 329.781 0.794916 -1.7125 0
M  V30 3412 O 329.138 1.53231 -0.991287 0
M  V30 3413 C 329.189 -0.888805 -3.50403 0
M  V30 3414 O 328.91 -2.26149 -3.75218 0
M  V30 3415 C 330.411 -0.576482 -4.39536 0
M  V30 3416 H 327.631 -0.237263 -0.627652 0
M  V30 3417 H 330.175 -1.28495 -1.59089 0
M  V30 3418 H 328.33 -0.284145 -3.86357 0
M  V30 3419 H 328.744 -2.33514 -4.6965 0
M  V30 3420 H 330.218 -0.805314 -5.46094 0
M  V30 3421 H 330.695 0.489075 -4.36468 0
M  V30 3422 H 331.301 -1.16067 -4.09156 0
M  V30 3423 N 329.616 1.39756 -0.72842 0
M  V30 3424 C 330.546 2.33289 -0.0991354 0
M  V30 3425 C 331.527 1.53568 0.731489 0
M  V30 3426 O 332.712 1.81987 0.677807 0
M  V30 3427 C 329.842 3.3763 0.813834 0
M  V30 3428 C 328.796 4.2791 0.0878663 0
M  V30 3429 C 328.122 5.22894 1.11741 0
M  V30 3430 C 329.422 5.11314 -1.06563 0
M  V30 3431 H 331.116 2.86163 -0.880408 0
M  V30 3432 H 328.662 1.37591 -0.424819 0
M  V30 3433 H 330.615 4.0201 1.26355 0
M  V30 3434 H 329.339 2.83181 1.62715 0
M  V30 3435 H 327.998 3.65 -0.342159 0
M  V30 3436 H 327.646 4.64744 1.92412 0
M  V30 3437 H 327.346 5.84143 0.636477 0
M  V30 3438 H 328.87 5.90151 1.56697 0
M  V30 3439 H 330.284 5.69076 -0.694671 0
M  V30 3440 H 328.681 5.81671 -1.47577 0
M  V30 3441 H 329.751 4.46534 -1.89038 0
M  V30 3442 N 331.094 0.475555 1.50254 0
M  V30 3443 C 332.026 -0.352649 2.26471 0
M  V30 3444 C 333.039 -0.953165 1.3198 0
M  V30 3445 O 334.228 -0.840815 1.57457 0
M  V30 3446 C 331.328 -1.50902 3.0345 0
M  V30 3447 C 330.501 -1.02047 4.25329 0
M  V30 3448 C 329.56 -2.05142 4.84565 0
M  V30 3449 O 328.586 -1.63023 5.45355 0
M  V30 3450 N 329.788 -3.37987 4.71959 0
M  V30 3451 H 332.553 0.300767 2.98187 0
M  V30 3452 H 330.114 0.306598 1.5897 0
M  V30 3453 H 332.106 -2.19572 3.39956 0
M  V30 3454 H 330.676 -2.06705 2.34504 0
M  V30 3455 H 329.896 -0.159507 3.93877 0
M  V30 3456 H 331.184 -0.672061 5.04342 0
M  V30 3457 H 330.582 -3.74913 4.23623 0
M  V30 3458 H 329.139 -4.02443 5.12721 0
M  V30 3459 N 332.573 -1.56217 0.208337 0
M  V30 3460 C 333.505 -2.1695 -0.739276 0
M  V30 3461 C 334.518 -1.13492 -1.1672 0
M  V30 3462 O 335.707 -1.40529 -1.10063 0
M  V30 3463 C 332.807 -2.72755 -2.01142 0
M  V30 3464 C 331.98 -4.0125 -1.74118 0
M  V30 3465 C 331.039 -4.41749 -2.85909 0
M  V30 3466 O 330.065 -5.08912 -2.54946 0
M  V30 3467 N 331.267 -4.06342 -4.14568 0
M  V30 3468 H 334.032 -2.98893 -0.219837 0
M  V30 3469 H 331.593 -1.61878 0.0268445 0
M  V30 3470 H 333.585 -2.96826 -2.75094 0
M  V30 3471 H 332.155 -1.95191 -2.4417 0
M  V30 3472 H 331.375 -3.85173 -0.838775 0
M  V30 3473 H 332.663 -4.851 -1.53477 0
M  V30 3474 H 332.061 -3.52345 -4.42571 0
M  V30 3475 H 330.618 -4.35335 -4.85105 0
M  V30 3476 N 334.051 0.0651679 -1.57465 0
M  V30 3477 C 334.981 1.07693 -2.07182 0
M  V30 3478 C 335.962 1.39962 -0.966673 0
M  V30 3479 O 337.147 1.49475 -1.2398 0
M  V30 3480 C 334.277 2.3885 -2.52127 0
M  V30 3481 C 333.231 2.20917 -3.66579 0
M  V30 3482 C 332.557 3.57515 -3.97601 0
M  V30 3483 C 333.857 1.62493 -4.9638 0
M  V30 3484 H 335.551 0.663199 -2.91962 0
M  V30 3485 H 333.097 0.317569 -1.40455 0
M  V30 3486 H 335.05 3.09928 -2.85522 0
M  V30 3487 H 333.774 2.82215 -1.64384 0
M  V30 3488 H 332.433 1.52279 -3.33477 0
M  V30 3489 H 332.081 3.98463 -3.06979 0
M  V30 3490 H 331.781 3.46353 -4.74672 0
M  V30 3491 H 333.305 4.30013 -4.33499 0
M  V30 3492 H 334.719 2.23445 -5.27963 0
M  V30 3493 H 333.116 1.62009 -5.77818 0
M  V30 3494 H 334.186 0.587041 -4.81333 0
M  V30 3495 N 335.529 1.53961 0.336706 0
M  V30 3496 C 336.775 1.7179 1.07777 0
M  V30 3497 C 337.108 0.483263 1.88091 0
M  V30 3498 O 336.383 -0.519747 1.87427 0
M  V30 3499 C 336.666 2.98558 2.01334 0
M  V30 3500 C 336.519 4.32245 1.24437 0
M  V30 3501 C 337.838 3.21023 3.01052 0
M  V30 3502 H 334.957 0.625089 0.390426 0
M  V30 3503 H 337.599 1.86641 0.35567 0
M  V30 3504 H 335.749 2.86028 2.62908 0
M  V30 3505 H 337.421 4.56637 0.654243 0
M  V30 3506 H 335.664 4.30344 0.546458 0
M  V30 3507 H 336.335 5.17137 1.93063 0
M  V30 3508 H 338.811 3.32929 2.49595 0
M  V30 3509 H 337.687 4.11104 3.6371 0
M  V30 3510 H 337.948 2.37637 3.72802 0
M  V30 3511 N 337.007 -0.598083 1.45811 0
M  V30 3512 C 337.939 -1.72231 1.51225 0
M  V30 3513 C 338.952 -1.57757 0.402059 0
M  V30 3514 O 340.141 -1.65464 0.669624 0
M  V30 3515 C 337.241 -3.10331 1.3619 0
M  V30 3516 C 336.414 -3.50955 2.61054 0
M  V30 3517 C 335.473 -4.68055 2.40439 0
M  V30 3518 O 334.499 -4.74691 3.14097 0
M  V30 3519 N 335.701 -5.61941 1.45612 0
M  V30 3520 H 338.466 -1.68046 2.48154 0
M  V30 3521 H 336.027 -0.783637 1.41671 0
M  V30 3522 H 338.019 -3.86439 1.20195 0
M  V30 3523 H 336.589 -3.0897 0.475015 0
M  V30 3524 H 335.809 -2.64711 2.92099 0
M  V30 3525 H 337.097 -3.74858 3.44034 0
M  V30 3526 H 336.495 -5.59301 0.848431 0
M  V30 3527 H 335.052 -6.37542 1.35585 0
M  V30 3528 N 338.485 -1.33259 -0.841409 0
M  V30 3529 C 339.435 -1.19872 -1.93945 0
M  V30 3530 C 340.419 -0.102269 -1.60575 0
M  V30 3531 O 341.611 -0.330114 -1.73894 0
M  V30 3532 C 338.74 -0.937517 -3.30251 0
M  V30 3533 C 337.826 -2.07629 -3.69799 0
M  V30 3534 N 338.217 -3.32604 -3.81062 0
M  V30 3535 C 336.515 -1.98242 -3.9952 0
M  V30 3536 C 337.216 -4.07275 -4.15333 0
M  V30 3537 N 336.192 -3.35691 -4.27566 0
M  V30 3538 H 339.994 -2.14604 -2.00805 0
M  V30 3539 H 337.508 -1.2523 -1.03398 0
M  V30 3540 H 339.505 -0.822545 -4.08705 0
M  V30 3541 H 338.165 0.00128798 -3.247 0
M  V30 3542 H 339.176 -3.67382 -3.65035 0
M  V30 3543 H 335.853 -1.12005 -4.02195 0
M  V30 3544 H 337.243 -5.1511 -4.31406 0
M  V30 3545 N 339.963 1.05934 -1.16686 0
M  V30 3546 C 341.193 1.82226 -0.973515 0
M  V30 3547 C 341.601 1.8297 0.481532 0
M  V30 3548 O 340.944 1.25009 1.34604 0
M  V30 3549 C 341.006 3.29897 -1.42858 0
M  V30 3550 C 340.67 3.52849 -2.90425 0
M  V30 3551 C 341.667 3.45595 -3.88407 0
M  V30 3552 C 339.352 3.80053 -3.28428 0
M  V30 3553 C 341.346 3.65217 -5.22394 0
M  V30 3554 C 339.033 3.99325 -4.62583 0
M  V30 3555 C 340.031 3.91905 -5.59374 0
M  V30 3556 O 339.719 4.10647 -6.91104 0
M  V30 3557 H 339.451 0.581314 -0.345036 0
M  V30 3558 H 342.005 1.3453 -1.55212 0
M  V30 3559 H 340.235 3.78472 -0.793477 0
M  V30 3560 H 341.924 3.87692 -1.20207 0
M  V30 3561 H 342.69 3.24564 -3.60393 0
M  V30 3562 H 338.569 3.84936 -2.53664 0
M  V30 3563 H 342.113 3.59341 -5.9793 0
M  V30 3564 H 338.01 4.19846 -4.90306 0
M  V30 3565 H 338.778 4.27915 -6.97733 0
M  V30 3566 N 341.441 0.965919 1.2453 0
M  V30 3567 C 342.666 0.643971 1.97149 0
M  V30 3568 C 343.091 -0.779487 1.71189 0
M  V30 3569 O 342.449 -1.5288 0.974553 0
M  V30 3570 C 342.497 0.922557 3.48599 0
M  V30 3571 O 341.601 0.00707672 4.12399 0
M  V30 3572 H 340.942 0.243647 0.617683 0
M  V30 3573 H 343.472 1.29558 1.58353 0
M  V30 3574 H 343.482 0.853373 3.98976 0
M  V30 3575 H 342.157 1.95996 3.66822 0
M  V30 3576 H 340.734 0.12943 3.72675 0
M  V30 3577 N 342.919 -1.39368 0.735821 0
M  V30 3578 C 343.829 -2.34395 0.0979693 0
M  V30 3579 C 344.845 -1.58361 -0.720968 0
M  V30 3580 O 346.021 -1.90648 -0.649245 0
M  V30 3581 C 343.086 -3.37393 -0.797916 0
M  V30 3582 C 342.147 -4.29287 0.0333662 0
M  V30 3583 C 341.38 -5.27365 -0.819854 0
M  V30 3584 O 341.603 -5.31959 -2.05855 0
M  V30 3585 O 340.537 -6.01389 -0.248079 0
M  V30 3586 H 344.363 -2.90601 0.882315 0
M  V30 3587 H 341.948 -1.40909 0.4965 0
M  V30 3588 H 343.83 -4.00505 -1.31048 0
M  V30 3589 H 342.505 -2.83571 -1.56106 0
M  V30 3590 H 341.412 -3.69395 0.591475 0
M  V30 3591 H 342.745 -4.86317 0.758752 0
M  V30 3592 N 344.397 -0.483516 -1.5 0
M  V30 3593 C 345.813 -0.138404 -1.58999 0
M  V30 3594 C 346.013 1.35597 -1.4905 0
M  V30 3595 O 345.069 2.13039 -1.35539 0
M  V30 3596 C 346.382 -0.699658 -2.92447 0
M  V30 3597 C 347.93 -0.664195 -3.05872 0
M  V30 3598 C 348.405 -1.20321 -4.41913 0
M  V30 3599 N 349.896 -1.16315 -4.48358 0
M  V30 3600 C 350.631 -1.55058 -5.52037 0
M  V30 3601 N 350.127 -2.01311 -6.62907 0
M  V30 3602 N 351.92 -1.46584 -5.42651 0
M  V30 3603 H 344.071 -1.45529 -1.5471 0
M  V30 3604 H 346.334 -0.60258 -0.731848 0
M  V30 3605 H 346.04 -1.747 -3.05242 0
M  V30 3606 H 345.914 -0.150194 -3.76901 0
M  V30 3607 H 348.301 0.374272 -2.92717 0
M  V30 3608 H 348.382 -1.25061 -2.23144 0
M  V30 3609 H 348.026 -2.24037 -4.55818 0
M  V30 3610 H 347.956 -0.592896 -5.23252 0
M  V30 3611 H 350.447 -0.824058 -3.68806 0
M  V30 3612 H 350.76 -2.2899 -7.38095 0
M  V30 3613 H 349.105 -2.05273 -6.63994 0
M  V30 3614 H 352.296 -1.10281 -4.54924 0
M  V30 3615 H 352.469 -1.77103 -6.23329 0
M  V30 3616 N 345.875 1.56104 -0.216619 0
M  V30 3617 C 346.838 2.18819 0.681962 0
M  V30 3618 C 347.838 1.14866 1.12528 0
M  V30 3619 O 349.028 1.40128 1.03488 0
M  V30 3620 C 346.16 2.80756 1.93362 0
M  V30 3621 H 347.353 2.99595 0.135254 0
M  V30 3622 H 344.906 1.56265 0.0330003 0
M  V30 3623 H 345.641 2.03837 2.52232 0
M  V30 3624 H 345.426 3.56876 1.62426 0
M  V30 3625 H 346.916 3.28844 2.57393 0
M  V30 3626 N 347.353 -0.0568162 1.57498 0
M  V30 3627 C 348.316 -1.05038 2.03715 0
M  V30 3628 C 349.316 -1.30709 0.936577 0
M  V30 3629 O 350.506 -1.26178 1.20103 0
M  V30 3630 C 347.638 -2.39034 2.43055 0
M  V30 3631 H 348.831 -0.651715 2.92733 0
M  V30 3632 H 346.384 -0.302947 1.53336 0
M  V30 3633 H 347.119 -2.83703 1.57108 0
M  V30 3634 H 346.904 -2.21739 3.2338 0
M  V30 3635 H 348.394 -3.10421 2.79336 0
M  V30 3636 N 348.832 -1.54138 -0.328536 0
M  V30 3637 C 350.08 -1.71765 -1.06496 0
M  V30 3638 C 350.401 -0.49149 -1.88704 0
M  V30 3639 O 349.671 0.494539 -1.89555 0
M  V30 3640 H 348.251 -0.633295 -0.396164 0
M  V30 3641 H 350.913 -1.91429 -0.366176 0
M  V30 3642 H 350.009 -2.5951 -1.73381 0
M  V30 3643 N 350.31 0.590341 -1.46126 0
M  V30 3644 C 351.24 1.71032 -1.58966 0
M  V30 3645 C 352.221 1.64302 -0.440335 0
M  V30 3646 O 353.406 1.82436 -0.665634 0
M  V30 3647 C 350.536 3.09665 -1.57241 0
M  V30 3648 C 349.49 3.31221 -2.71066 0
M  V30 3649 C 348.816 4.70303 -2.54399 0
M  V30 3650 C 350.116 3.19796 -4.1295 0
M  V30 3651 H 351.81 1.60543 -2.52718 0
M  V30 3652 H 349.356 0.770933 -1.21625 0
M  V30 3653 H 351.309 3.87831 -1.64819 0
M  V30 3654 H 350.033 3.21036 -0.600289 0
M  V30 3655 H 348.692 2.55452 -2.62944 0
M  V30 3656 H 348.34 4.78429 -1.55288 0
M  V30 3657 H 348.04 4.85679 -3.30741 0
M  V30 3658 H 349.564 5.50647 -2.63857 0
M  V30 3659 H 350.978 3.87815 -4.22223 0
M  V30 3660 H 349.375 3.46696 -4.89818 0
M  V30 3661 H 350.445 2.16983 -4.33643 0
M  V30 3662 N 351.788 1.33704 0.83433 0
M  V30 3663 C 353.028 1.26754 1.60352 0
M  V30 3664 C 353.392 -0.163182 1.91305 0
M  V30 3665 O 354.593 -0.3567 2.66423 0
M  V30 3666 C 352.864 2.12262 2.8754 0
M  V30 3667 S 354.423 2.22549 3.78176 0
M  V30 3668 H 351.241 0.450879 0.549753 0
M  V30 3669 H 353.843 1.68788 0.986444 0
M  V30 3670 H 352.547 3.15238 2.62779 0
M  V30 3671 H 352.078 1.71082 3.54252 0
M  V30 3672 H 354.093 1.3899 4.76336 0
M  V30 3673 N 353.266 -1.05314 1.17247 0
M  V30 3674 C 354.506 -1.79869 0.970898 0
M  V30 3675 C 354.87 -1.85594 -0.491808 0
M  V30 3676 O 356.071 -2.56229 -0.812409 0
M  V30 3677 C 354.342 -3.19937 1.59295 0
M  V30 3678 S 355.901 -4.10986 1.53741 0
M  V30 3679 H 352.719 -0.61949 0.348931 0
M  V30 3680 H 355.321 -1.26368 1.49169 0
M  V30 3681 H 354.025 -3.13372 2.65003 0
M  V30 3682 H 353.556 -3.78515 1.07191 0
M  V30 3683 H 355.571 -4.93203 0.544537 0
M  V30 3684 N 354.744 -0.972509 -1.24016 0
M  V30 3685 C 356.16 -0.679827 -1.44397 0
M  V30 3686 C 356.36 0.756716 -1.86751 0
M  V30 3687 O 355.416 1.53007 -2.00861 0
M  V30 3688 C 356.729 -1.66803 -2.50195 0
M  V30 3689 C 358.277 -1.68119 -2.64017 0
M  V30 3690 C 358.752 -2.65748 -3.73017 0
M  V30 3691 N 360.243 -2.64219 -3.8045 0
M  V30 3692 C 360.978 -3.36433 -4.64328 0
M  V30 3693 N 360.474 -4.1818 -5.52356 0
M  V30 3694 N 362.267 -3.25235 -4.58453 0
M  V30 3695 H 354.418 -1.90059 -0.948228 0
M  V30 3696 H 356.681 -0.818527 -0.478245 0
M  V30 3697 H 356.387 -2.69498 -2.25973 0
M  V30 3698 H 356.261 -1.4446 -3.48441 0
M  V30 3699 H 358.648 -0.661319 -2.87594 0
M  V30 3700 H 358.729 -1.94525 -1.66113 0
M  V30 3701 H 358.373 -3.67872 -3.50189 0
M  V30 3702 H 358.303 -2.36619 -4.70446 0
M  V30 3703 H 360.794 -2.04887 -3.17537 0
M  V30 3704 H 361.107 -4.70157 -6.13329 0
M  V30 3705 H 359.452 -4.22273 -5.52006 0
M  V30 3706 H 362.643 -2.60829 -3.88698 0
M  V30 3707 H 362.816 -3.81776 -5.23594 0
M  V30 3708 N 356.222 1.38976 -0.743202 0
M  V30 3709 C 357.152 2.33171 -0.123873 0
M  V30 3710 C 358.133 1.54336 0.71516 0
M  V30 3711 O 359.318 1.82696 0.658467 0
M  V30 3712 C 356.448 3.38474 0.777978 0
M  V30 3713 C 355.402 4.27979 0.0424758 0
M  V30 3714 C 354.728 5.2405 1.06189 0
M  V30 3715 C 356.028 5.10155 -1.1198 0
M  V30 3716 H 357.722 2.85213 -0.910709 0
M  V30 3717 H 355.268 1.37133 -0.439388 0
M  V30 3718 H 357.221 4.03328 1.22084 0
M  V30 3719 H 355.945 2.84891 1.59702 0
M  V30 3720 H 354.604 3.64616 -0.380853 0
M  V30 3721 H 354.252 4.66758 1.87472 0
M  V30 3722 H 353.952 5.84785 0.574485 0
M  V30 3723 H 355.476 5.9178 1.50428 0
M  V30 3724 H 356.89 5.68307 -0.75499 0
M  V30 3725 H 355.287 5.80073 -1.53738 0
M  V30 3726 H 356.357 4.44504 -1.93764 0
M  V30 3727 N 357.7 0.491464 1.49741 0
M  V30 3728 C 358.946 -0.0565092 2.02721 0
M  V30 3729 C 359.279 -1.37522 1.37118 0
M  V30 3730 O 358.554 -1.87866 0.503645 0
M  V30 3731 C 358.837 -0.219051 3.59433 0
M  V30 3732 C 358.69 1.12211 4.35579 0
M  V30 3733 C 360.009 -0.964157 4.29409 0
M  V30 3734 H 357.128 -0.0190627 0.736753 0
M  V30 3735 H 359.77 0.641021 1.7886 0
M  V30 3736 H 357.92 -0.813165 3.79895 0
M  V30 3737 H 359.592 1.75437 4.26637 0
M  V30 3738 H 357.835 1.71377 3.98513 0
M  V30 3739 H 358.506 0.961794 5.43556 0
M  V30 3740 H 360.982 -0.460378 4.13545 0
M  V30 3741 H 359.858 -1.04671 5.38828 0
M  V30 3742 H 360.119 -2.00563 3.93988 0
M  V30 3743 N 359.178 -1.55987 0.224894 0
M  V30 3744 C 360.424 -1.98684 -0.406502 0
M  V30 3745 C 360.757 -1.11248 -1.59177 0
M  V30 3746 O 360.032 -0.170909 -1.93748 0
M  V30 3747 C 360.315 -3.50218 -0.837808 0
M  V30 3748 C 360.168 -4.48426 0.351332 0
M  V30 3749 C 361.487 -4.06243 -1.69278 0
M  V30 3750 H 358.606 -0.722337 -0.146283 0
M  V30 3751 H 361.248 -1.87255 0.321799 0
M  V30 3752 H 359.398 -3.60089 -1.45837 0
M  V30 3753 H 361.07 -4.50562 0.989526 0
M  V30 3754 H 359.313 -4.22159 0.998207 0
M  V30 3755 H 359.984 -5.52 0.00655905 0
M  V30 3756 H 362.46 -3.99337 -1.16914 0
M  V30 3757 H 361.336 -5.12581 -1.96346 0
M  V30 3758 H 361.597 -3.53332 -2.65723 0
M  V30 3759 N 360.656 0.0484629 -1.57525 0
M  V30 3760 C 362.067 0.597486 -1.76881 0
M  V30 3761 C 362.418 1.76664 -0.853475 0
M  V30 3762 O 361.543 2.16357 -0.0433656 0
M  V30 3763 C 362.138 1.09066 -3.20765 0
M  V30 3764 C 360.697 1.58535 -3.41385 0
M  V30 3765 C 359.844 0.514868 -2.72478 0
M  V30 3766 H 362.795 -0.177758 -1.57701 0
M  V30 3767 H 362.816 1.95875 -3.2621 0
M  V30 3768 H 362.328 0.239521 -3.8736 0
M  V30 3769 H 360.429 2.45898 -2.79937 0
M  V30 3770 H 360.542 1.64622 -4.49929 0
M  V30 3771 H 358.906 0.965407 -2.35695 0
M  V30 3772 H 359.689 -0.32648 -3.41744 0
M  V30 3773 N 362.134 1.5431 0.320358 0
M  V30 3774 C 363.374 1.74395 1.0661 0
M  V30 3775 C 363.738 0.508602 1.85141 0
M  V30 3776 O 364.939 0.586856 2.62316 0
M  V30 3777 C 363.21 2.98619 1.96371 0
M  V30 3778 S 364.769 3.39621 2.77854 0
M  V30 3779 H 361.587 0.613204 0.359863 0
M  V30 3780 H 364.189 1.9249 0.341727 0
M  V30 3781 H 362.893 3.86673 1.3752 0
M  V30 3782 H 362.424 2.83055 2.73209 0
M  V30 3783 H 364.439 2.95172 3.98858 0
M  V30 3784 N 363.613 -0.582584 1.46437 0
M  V30 3785 C 364.563 -1.68654 1.53426 0
M  V30 3786 C 365.547 -1.55971 0.395194 0
M  V30 3787 O 366.739 -1.64884 0.643612 0
M  V30 3788 C 363.868 -3.07439 1.52762 0
M  V30 3789 C 362.954 -3.25418 2.71963 0
M  V30 3790 N 363.345 -3.13556 3.96883 0
M  V30 3791 C 361.643 -3.56357 2.68189 0
M  V30 3792 C 362.344 -3.33543 4.76575 0
M  V30 3793 N 361.32 -3.58704 4.08451 0
M  V30 3794 H 365.122 -1.58014 2.47808 0
M  V30 3795 H 362.636 -0.786617 1.42078 0
M  V30 3796 H 364.633 -3.86671 1.55857 0
M  V30 3797 H 363.293 -3.1921 0.594573 0
M  V30 3798 H 364.304 -2.9142 4.28129 0
M  V30 3799 H 360.981 -3.74812 1.83908 0
M  V30 3800 H 362.371 -3.29555 5.85528 0
M  V30 3801 N 365.091 -1.34144 -0.827227 0
M  V30 3802 C 366.038 -1.25364 -1.93785 0
M  V30 3803 C 367.008 -0.129774 -1.65592 0
M  V30 3804 O 368.193 -0.310024 -1.88264 0
M  V30 3805 C 365.333 -1.01064 -3.2997 0
M  V30 3806 C 364.446 -2.22185 -3.70484 0
M  V30 3807 C 363.581 -1.91203 -4.95595 0
M  V30 3808 C 362.62 -3.08491 -5.28677 0
M  V30 3809 N 361.757 -2.77421 -6.44967 0
M  V30 3810 H 366.597 -2.20347 -2.00627 0
M  V30 3811 H 364.134 -1.09558 -0.981608 0
M  V30 3812 H 366.092 -0.850139 -4.08446 0
M  V30 3813 H 364.722 -0.0975026 -3.22653 0
M  V30 3814 H 363.774 -2.4917 -2.87434 0
M  V30 3815 H 365.086 -3.0983 -3.90905 0
M  V30 3816 H 364.24 -1.71864 -5.81848 0
M  V30 3817 H 362.979 -1.00812 -4.77167 0
M  V30 3818 H 361.984 -3.28431 -4.40923 0
M  V30 3819 H 363.209 -3.99655 -5.49047 0
M  V30 3820 H 361.155 -1.89601 -6.28003 0
M  V30 3821 H 361.072 -3.58598 -6.6554 0
M  V30 3822 H 362.34 -2.61577 -7.34301 0
M  V30 3823 N 366.569 1.04691 -1.17803 0
M  V30 3824 C 367.817 1.7743 -0.967617 0
M  V30 3825 C 368.138 1.88359 0.504574 0
M  V30 3826 O 367.408 1.40402 1.36617 0
M  V30 3827 H 365.988 0.657242 -0.355024 0
M  V30 3828 H 368.65 1.2638 -1.48371 0
M  V30 3829 H 367.746 2.78924 -1.40027 0
M  V30 3830 N 368.047 0.979072 1.23499 0
M  V30 3831 C 368.98 0.463027 2.23453 0
M  V30 3832 C 369.958 -0.469128 1.55685 0
M  V30 3833 O 371.142 -0.397882 1.84253 0
M  V30 3834 C 368.269 -0.330308 3.37086 0
M  V30 3835 C 367.315 0.545795 4.22993 0
M  V30 3836 S 368.148 1.99285 4.97037 0
M  V30 3837 C 369.304 1.20862 6.1412 0
M  V30 3838 H 369.537 1.31005 2.6688 0
M  V30 3839 H 367.07 0.784965 1.32957 0
M  V30 3840 H 369.028 -0.782027 4.02982 0
M  V30 3841 H 367.689 -1.15244 2.92194 0
M  V30 3842 H 366.882 -0.0638928 5.03959 0
M  V30 3843 H 366.484 0.933705 3.62157 0
M  V30 3844 H 368.776 0.469284 6.75873 0
M  V30 3845 H 369.719 1.99307 6.79472 0
M  V30 3846 H 370.127 0.727992 5.59786 0
M  V30 3847 N 369.525 -1.3858 0.750561 0
M  V30 3848 C 370.936 -1.82927 0.373438 0
M  V30 3849 C 371.287 -1.62634 -1.09748 0
M  V30 3850 O 370.412 -1.12588 -1.84805 0
M  V30 3851 C 371.007 -3.32088 0.671029 0
M  V30 3852 C 369.566 -3.74795 0.34722 0
M  V30 3853 C 368.713 -2.61391 0.92575 0
M  V30 3854 H 371.664 -1.27351 0.946958 0
M  V30 3855 H 371.685 -3.80465 -0.0518269 0
M  V30 3856 H 371.197 -3.46826 1.74164 0
M  V30 3857 H 369.298 -3.65638 -0.716933 0
M  V30 3858 H 369.411 -4.71667 0.840656 0
M  V30 3859 H 367.775 -2.52265 0.351327 0
M  V30 3860 H 368.558 -2.78929 2.00133 0
M  V30 3861 N 371.003 -0.499398 -1.49478 0
M  V30 3862 C 372.419 -0.155261 -1.58843 0
M  V30 3863 C 372.619 1.34008 -1.50479 0
M  V30 3864 O 371.675 2.11589 -1.37791 0
M  V30 3865 C 372.988 -0.730636 -2.91689 0
M  V30 3866 C 374.536 -0.696599 -3.0515 0
M  V30 3867 C 375.011 -1.25001 -4.40612 0
M  V30 3868 N 376.502 -1.21064 -4.47099 0
M  V30 3869 C 377.237 -1.60905 -5.50361 0
M  V30 3870 N 376.733 -2.08331 -6.60735 0
M  V30 3871 N 378.526 -1.52331 -5.41065 0
M  V30 3872 H 370.677 -1.47162 -1.53158 0
M  V30 3873 H 372.94 -0.610309 -0.725415 0
M  V30 3874 H 372.646 -1.77928 -3.03372 0
M  V30 3875 H 372.52 -0.190161 -3.7672 0
M  V30 3876 H 374.907 0.343204 -2.93097 0
M  V30 3877 H 374.988 -1.2742 -2.21806 0
M  V30 3878 H 374.632 -2.28859 -4.53416 0
M  V30 3879 H 374.562 -0.64836 -5.22593 0
M  V30 3880 H 377.053 -0.863128 -3.67911 0
M  V30 3881 H 377.366 -2.36805 -7.35624 0
M  V30 3882 H 375.711 -2.12304 -6.6178 0
M  V30 3883 H 378.902 -1.151 -4.53729 0
M  V30 3884 H 379.075 -1.83704 -6.21415 0
M  V30 3885 N 372.481 1.55866 -0.233164 0
M  V30 3886 C 373.411 2.23783 0.666599 0
M  V30 3887 C 374.392 1.21343 1.19205 0
M  V30 3888 O 375.577 1.4996 1.23392 0
M  V30 3889 C 372.707 2.92671 1.86978 0
M  V30 3890 C 371.661 4.01682 1.47768 0
M  V30 3891 C 370.987 4.57926 2.76058 0
M  V30 3892 C 372.287 5.18126 0.658993 0
M  V30 3893 H 373.981 2.99232 0.100306 0
M  V30 3894 H 371.527 1.43924 0.046804 0
M  V30 3895 H 373.48 3.3888 2.50476 0
M  V30 3896 H 372.204 2.14688 2.46123 0
M  V30 3897 H 370.863 3.56222 0.866106 0
M  V30 3898 H 370.511 3.76659 3.33372 0
M  V30 3899 H 370.211 5.31505 2.50552 0
M  V30 3900 H 371.735 5.06859 3.40479 0
M  V30 3901 H 373.149 5.60644 1.19795 0
M  V30 3902 H 371.546 5.98009 0.500552 0
M  V30 3903 H 372.616 4.83763 -0.331856 0
M  V30 3904 N 373.959 -0.0401083 1.57549 0
M  V30 3905 C 375.187 -0.745196 1.93014 0
M  V30 3906 C 375.602 -1.6948 0.831984 0
M  V30 3907 O 374.959 -1.81482 -0.192463 0
M  V30 3908 C 375.01 -1.51176 3.28372 0
M  V30 3909 O 374.731 -0.600284 4.33968 0
M  V30 3910 C 376.232 -2.315 3.78051 0
M  V30 3911 H 373.452 -0.210088 0.637263 0
M  V30 3912 H 375.996 -0.000924689 2.045 0
M  V30 3913 H 374.151 -2.20801 3.18317 0
M  V30 3914 H 374.565 -1.13669 5.12035 0
M  V30 3915 H 376.039 -2.80697 4.75303 0
M  V30 3916 H 376.516 -3.12436 3.08675 0
M  V30 3917 H 377.122 -1.66971 3.91153 0
M  V30 3918 N 375.437 -1.54477 -0.31217 0
M  V30 3919 C 376.714 -1.63891 -1.06767 0
M  V30 3920 C 377.094 -0.480028 -2.0557 0
M  V30 3921 O 376.442 0.524487 -2.22399 0
M  V30 3922 C 376.652 -3.01402 -1.75948 0
M  V30 3923 C 378 -3.57838 -2.28554 0
M  V30 3924 O 379.024 -3.03782 -1.85998 0
M  V30 3925 O 377.883 -4.52462 -3.06497 0
M  V30 3926 H 374.977 -0.664125 -0.492816 0
M  V30 3927 H 377.523 -1.66823 -0.311149 0
M  V30 3928 H 376.295 -3.77187 -1.04144 0
M  V30 3929 H 375.918 -3.02199 -2.58383 0
M  V30 3930 N 376.915 0.57481 -1.46744 0
M  V30 3931 C 377.845 1.69337 -1.60771 0
M  V30 3932 C 378.826 1.63825 -0.457736 0
M  V30 3933 O 380.011 1.8172 -0.684947 0
M  V30 3934 C 377.141 3.0798 -1.60517 0
M  V30 3935 C 376.095 3.28327 -2.74564 0
M  V30 3936 C 375.421 4.67578 -2.59373 0
M  V30 3937 C 376.721 3.15398 -4.16319 0
M  V30 3938 H 378.415 1.57853 -2.54407 0
M  V30 3939 H 375.961 0.75799 -1.22436 0
M  V30 3940 H 377.914 3.86061 -1.68923 0
M  V30 3941 H 376.638 3.20381 -0.634305 0
M  V30 3942 H 375.297 2.52649 -2.65639 0
M  V30 3943 H 374.945 4.76755 -1.60353 0
M  V30 3944 H 374.645 4.82144 -3.35873 0
M  V30 3945 H 376.169 5.47817 -2.69682 0
M  V30 3946 H 377.583 3.83315 -4.26313 0
M  V30 3947 H 375.98 3.41482 -4.93468 0
M  V30 3948 H 377.05 2.12372 -4.3592 0
M  V30 3949 N 378.394 1.34581 0.820102 0
M  V30 3950 C 379.619 1.30333 1.61332 0
M  V30 3951 C 380.044 -0.119339 1.87721 0
M  V30 3952 O 379.402 -1.08197 1.45475 0
M  V30 3953 C 379.45 2.10258 2.92957 0
M  V30 3954 O 378.554 1.47404 3.85157 0
M  V30 3955 H 377.895 0.447488 0.490561 0
M  V30 3956 H 380.425 1.77425 1.01889 0
M  V30 3957 H 380.435 2.21718 3.42498 0
M  V30 3958 H 379.11 3.13693 2.73074 0
M  V30 3959 H 377.687 1.44703 3.43679 0
M  V30 3960 N 379.872 -1.04064 1.18357 0
M  V30 3961 C 381.118 -1.77528 0.980397 0
M  V30 3962 C 381.451 -1.87948 -0.48879 0
M  V30 3963 O 380.726 -1.3876 -1.36293 0
M  V30 3964 C 381.009 -3.20797 1.63588 0
M  V30 3965 C 380.862 -3.1832 3.17793 0
M  V30 3966 C 382.181 -4.18911 1.34914 0
M  V30 3967 H 379.3 -0.644443 0.357578 0
M  V30 3968 H 381.942 -1.2156 1.46024 0
M  V30 3969 H 380.092 -3.68586 1.22788 0
M  V30 3970 H 381.764 -2.78521 3.67728 0
M  V30 3971 H 380.007 -2.56351 3.49952 0
M  V30 3972 H 380.678 -4.19489 3.58794 0
M  V30 3973 H 383.154 -3.7967 1.70265 0
M  V30 3974 H 382.03 -5.17374 1.83346 0
M  V30 3975 H 382.291 -4.41262 0.272027 0
M  V30 3976 N 381.35 -0.985608 -1.22978 0
M  V30 3977 C 382.297 -0.529825 -2.24636 0
M  V30 3978 C 383.267 0.434028 -1.60329 0
M  V30 3979 O 384.452 0.340414 -1.87739 0
M  V30 3980 C 381.592 0.156533 -3.44745 0
M  V30 3981 C 380.705 -0.848197 -4.23591 0
M  V30 3982 C 379.84 -0.136109 -5.31026 0
M  V30 3983 C 378.879 -1.1297 -6.01585 0
M  V30 3984 N 378.016 -0.446415 -7.00679 0
M  V30 3985 H 382.856 -1.40148 -2.62988 0
M  V30 3986 H 380.393 -0.702168 -1.29259 0
M  V30 3987 H 382.351 0.571324 -4.1327 0
M  V30 3988 H 380.981 0.992025 -3.07179 0
M  V30 3989 H 380.033 -1.38135 -3.54433 0
M  V30 3990 H 381.345 -1.60512 -4.72268 0
M  V30 3991 H 380.499 0.335784 -6.0577 0
M  V30 3992 H 379.238 0.653373 -4.83304 0
M  V30 3993 H 378.243 -1.6123 -5.25628 0
M  V30 3994 H 379.468 -1.91993 -6.51395 0
M  V30 3995 H 377.414 0.323763 -6.55201 0
M  V30 3996 H 377.331 -1.1419 -7.47326 0
M  V30 3997 H 378.599 0.00291697 -7.795 0
M  V30 3998 N 382.828 1.3818 -0.7579 0
M  V30 3999 C 384.056 2.04301 -0.326937 0
M  V30 4000 C 384.471 1.57163 1.0462 0
M  V30 4001 O 383.828 0.746626 1.66529 0
M  V30 4002 C 383.879 3.59846 -0.345363 0
M  V30 4003 O 383.6 4.05256 -1.66432 0
M  V30 4004 C 385.101 4.4319 0.098927 0
M  V30 4005 H 382.321 0.656443 -0.139012 0
M  V30 4006 H 384.865 1.76786 -1.02796 0
M  V30 4007 H 383.02 3.86182 0.306955 0
M  V30 4008 H 383.434 4.99709 -1.59345 0
M  V30 4009 H 384.908 5.51989 0.0348745 0
M  V30 4010 H 385.385 4.23947 1.14741 0
M  V30 4011 H 385.991 4.22051 -0.52468 0
M  V30 4012 N 384.306 0.507319 1.49211 0
M  V30 4013 C 385.253 -0.267728 2.29242 0
M  V30 4014 C 386.223 -0.954609 1.35928 0
M  V30 4015 O 387.408 -0.960046 1.64887 0
M  V30 4016 C 384.548 -1.32243 3.18756 0
M  V30 4017 C 383.661 -0.64669 4.27132 0
M  V30 4018 C 382.796 -1.68238 5.03855 0
M  V30 4019 C 381.835 -0.98885 6.0406 0
M  V30 4020 N 380.972 -1.96903 6.73924 0
M  V30 4021 H 385.812 0.420968 2.95012 0
M  V30 4022 H 383.349 0.219443 1.45454 0
M  V30 4023 H 385.307 -1.94599 3.69036 0
M  V30 4024 H 383.937 -1.97981 2.54958 0
M  V30 4025 H 382.989 0.0902926 3.80293 0
M  V30 4026 H 384.301 -0.101058 4.98698 0
M  V30 4027 H 383.455 -2.38081 5.58034 0
M  V30 4028 H 382.194 -2.26187 4.32077 0
M  V30 4029 H 381.199 -0.276222 5.49106 0
M  V30 4030 H 382.424 -0.415767 6.77826 0
M  V30 4031 H 380.37 -2.53803 6.04913 0
M  V30 4032 H 380.287 -1.47423 7.41487 0
M  V30 4033 H 381.555 -2.66015 7.32705 0
M  V30 4034 N 385.784 -1.5574 0.241426 0
M  V30 4035 C 387.061 -1.90704 -0.434881 0
M  V30 4036 C 387.441 -1.16145 -1.76277 0
M  V30 4037 O 386.789 -0.277152 -2.26813 0
M  V30 4038 C 386.999 -3.43657 -0.608343 0
M  V30 4039 C 388.347 -4.14806 -0.906725 0
M  V30 4040 O 389.371 -3.49366 -0.694408 0
M  V30 4041 O 388.23 -5.30548 -1.31075 0
M  V30 4042 H 385.324 -0.793592 -0.23268 0
M  V30 4043 H 387.87 -1.67288 0.285086 0
M  V30 4044 H 386.642 -3.89927 0.327505 0
M  V30 4045 H 386.265 -3.72918 -1.37906 0
M  V30 4046 N 387.262 0.0317525 -1.57568 0
M  V30 4047 C 388.508 0.724175 -1.8943 0
M  V30 4048 C 388.841 1.75149 -0.838836 0
M  V30 4049 O 388.116 1.93948 0.146422 0
M  V30 4050 C 388.399 1.39615 -3.31933 0
M  V30 4051 C 388.252 0.382537 -4.4817 0
M  V30 4052 C 389.571 2.33084 -3.73309 0
M  V30 4053 H 386.69 0.261797 -0.688935 0
M  V30 4054 H 389.332 -0.013017 -1.89996 0
M  V30 4055 H 387.482 2.02451 -3.31581 0
M  V30 4056 H 389.154 -0.243689 -4.60656 0
M  V30 4057 H 387.397 -0.29844 -4.32772 0
M  V30 4058 H 388.068 0.891145 -5.44759 0
M  V30 4059 H 390.544 1.80295 -3.7501 0
M  V30 4060 H 389.42 2.77084 -4.73831 0
M  V30 4061 H 389.681 3.19643 -3.05419 0
M  V30 4062 N 388.74 1.54641 0.303973 0
M  V30 4063 C 389.986 1.74969 1.03718 0
M  V30 4064 C 390.341 0.527461 1.85029 0
M  V30 4065 O 389.634 -0.480143 1.85486 0
M  V30 4066 C 389.828 2.97753 1.97681 0
M  V30 4067 C 389.657 4.318 1.25613 0
M  V30 4068 C 388.427 4.95616 0.984518 0
M  V30 4069 C 390.625 5.10021 0.662081 0
M  V30 4070 N 388.607 6.13455 0.233794 0
M  V30 4071 C 389.978 6.19984 0.0439736 0
M  V30 4072 C 392.033 4.94663 0.566835 0
M  V30 4073 C 390.736 7.16264 -0.66016 0
M  V30 4074 C 392.762 5.91271 -0.123637 0
M  V30 4075 C 392.124 7.00601 -0.730608 0
M  V30 4076 H 388.223 0.692873 0.362562 0
M  V30 4077 H 390.807 1.92116 0.316135 0
M  V30 4078 H 388.978 2.82036 2.6704 0
M  V30 4079 H 390.71 3.06621 2.64132 0
M  V30 4080 H 387.465 4.55921 1.28191 0
M  V30 4081 H 387.889 6.76879 -0.127996 0
M  V30 4082 H 392.531 4.10267 1.02181 0
M  V30 4083 H 390.249 8.00204 -1.12691 0
M  V30 4084 H 393.835 5.81466 -0.197236 0
M  V30 4085 H 392.715 7.7407 -1.2564 0
M  V30 4086 N 390.218 -0.567019 1.47046 0
M  V30 4087 C 391.128 -1.70247 1.6141 0
M  V30 4088 C 392.144 -1.66746 0.497157 0
M  V30 4089 O 393.32 -1.86371 0.763389 0
M  V30 4090 C 390.385 -3.06756 1.61561 0
M  V30 4091 C 389.446 -3.21399 2.84607 0
M  V30 4092 C 388.679 -4.51396 2.84741 0
M  V30 4093 O 388.902 -5.36255 1.94388 0
M  V30 4094 O 387.836 -4.69621 3.76483 0
M  V30 4095 H 391.662 -1.61073 2.57467 0
M  V30 4096 H 389.247 -0.735894 1.30019 0
M  V30 4097 H 391.129 -3.8801 1.64396 0
M  V30 4098 H 389.804 -3.16333 0.686684 0
M  V30 4099 H 388.711 -2.39579 2.8732 0
M  V30 4100 H 390.044 -3.16721 3.76761 0
M  V30 4101 N 391.696 -1.35014 -0.812953 0
M  V30 4102 C 392.945 -1.27269 -1.56479 0
M  V30 4103 C 393.258 0.152771 -1.95002 0
M  V30 4104 O 394.464 0.352451 -2.69203 0
M  V30 4105 C 392.92 -2.23159 -2.82362 0
M  V30 4106 C 392.528 -3.71016 -2.511 0
M  V30 4107 C 394.272 -2.24342 -3.60376 0
M  V30 4108 C 392.179 -4.58746 -3.73237 0
M  V30 4109 H 391.109 -0.472829 -0.587324 0
M  V30 4110 H 393.76 -1.6024 -0.894171 0
M  V30 4111 H 392.142 -1.83151 -3.51101 0
M  V30 4112 H 393.316 -4.1962 -1.90409 0
M  V30 4113 H 391.631 -3.72378 -1.86343 0
M  V30 4114 H 394.228 -2.87107 -4.51081 0
M  V30 4115 H 394.571 -1.24542 -3.97234 0
M  V30 4116 H 395.104 -2.62846 -2.98591 0
M  V30 4117 H 391.843 -5.59521 -3.41492 0
M  V30 4118 H 391.363 -4.14871 -4.33176 0
M  V30 4119 H 393.042 -4.73852 -4.40537 0
M  V30 4120 N 393.175 1.03435 -1.18907 0
M  V30 4121 C 394.586 1.58195 -0.991523 0
M  V30 4122 C 394.937 1.90801 0.457081 0
M  V30 4123 O 394.062 1.70272 1.33553 0
M  V30 4124 C 394.657 2.87432 -1.79355 0
M  V30 4125 C 393.216 3.38785 -1.64017 0
M  V30 4126 C 392.363 2.12292 -1.78402 0
M  V30 4127 H 395.314 0.860299 -1.33359 0
M  V30 4128 H 395.335 3.58096 -1.28638 0
M  V30 4129 H 394.847 2.63669 -2.84781 0
M  V30 4130 H 392.948 3.67547 -0.611536 0
M  V30 4131 H 393.061 4.12186 -2.44212 0
M  V30 4132 H 391.425 2.23901 -1.2141 0
M  V30 4133 H 392.208 1.90977 -2.85277 0
M  V30 4134 N 394.653 0.992116 1.22453 0
M  V30 4135 C 396.069 0.702713 1.43297 0
M  V30 4136 C 396.269 -0.726909 1.87932 0
M  V30 4137 O 395.325 -1.49792 2.0327 0
M  V30 4138 C 396.638 1.70762 2.47509 0
M  V30 4139 C 398.186 1.72298 2.61309 0
M  V30 4140 C 398.661 2.71649 3.68742 0
M  V30 4141 N 400.152 2.70239 3.76199 0
M  V30 4142 C 400.887 3.43778 4.58917 0
M  V30 4143 N 400.383 4.26914 5.45633 0
M  V30 4144 N 402.176 3.32487 4.5322 0
M  V30 4145 H 394.327 1.91543 0.917871 0
M  V30 4146 H 396.59 0.826031 0.465162 0
M  V30 4147 H 396.296 2.73059 2.21657 0
M  V30 4148 H 396.17 1.49985 3.46099 0
M  V30 4149 H 398.557 0.706989 2.86506 0
M  V30 4150 H 398.638 1.97143 1.62997 0
M  V30 4151 H 398.282 3.73397 3.44292 0
M  V30 4152 H 398.212 2.44074 4.66622 0
M  V30 4153 H 400.703 2.09912 3.14237 0
M  V30 4154 H 401.016 4.79855 6.05771 0
M  V30 4155 H 399.361 4.31002 5.45218 0
M  V30 4156 H 402.552 2.6698 3.84499 0
M  V30 4157 H 402.725 3.90058 5.17454 0
M  V30 4158 N 396.131 -1.37776 0.765217 0
M  V30 4159 C 397.041 -2.34135 0.147666 0
M  V30 4160 C 398.057 -1.59854 -0.687215 0
M  V30 4161 O 399.233 -1.91983 -0.608659 0
M  V30 4162 C 396.298 -3.3901 -0.72617 0
M  V30 4163 C 395.359 -4.2912 0.124417 0
M  V30 4164 C 394.592 -5.28986 -0.707807 0
M  V30 4165 O 394.815 -5.36205 -1.94525 0
M  V30 4166 O 393.749 -6.01779 -0.12046 0
M  V30 4167 H 397.575 -2.88664 0.943758 0
M  V30 4168 H 395.16 -1.39824 0.526277 0
M  V30 4169 H 397.042 -4.03195 -1.22524 0
M  V30 4170 H 395.717 -2.86819 -1.50056 0
M  V30 4171 H 394.624 -3.68057 0.669696 0
M  V30 4172 H 395.957 -4.84598 0.861736 0
M  V30 4173 N 397.609 -0.515225 -1.4894 0
M  V30 4174 C 398.834 0.022727 -2.07388 0
M  V30 4175 C 399.259 1.2876 -1.37122 0
M  V30 4176 O 398.617 1.76067 -0.432431 0
M  V30 4177 C 398.665 0.244869 -3.59768 0
M  V30 4178 O 397.769 1.31667 -3.90817 0
M  V30 4179 H 397.11 -0.0325506 -0.663202 0
M  V30 4180 H 399.64 -0.718918 -1.91553 0
M  V30 4181 H 399.65 0.47205 -4.0526 0
M  V30 4182 H 398.325 -0.679194 -4.10317 0
M  V30 4183 H 396.902 1.07331 -3.5712 0
M  V30 4184 N 399.087 1.5561 -0.249682 0
M  V30 4185 C 400.017 2.24477 0.642826 0
M  V30 4186 C 400.998 1.22601 1.17911 0
M  V30 4187 O 402.183 1.5126 1.21795 0
M  V30 4188 C 399.313 2.94638 1.83863 0
M  V30 4189 C 398.267 4.03227 1.435 0
M  V30 4190 C 397.593 4.60828 2.71186 0
M  V30 4191 C 398.893 5.18796 0.604002 0
M  V30 4192 H 400.587 2.99321 0.0685625 0
M  V30 4193 H 398.133 1.43965 0.0315363 0
M  V30 4194 H 400.086 3.41517 2.46868 0
M  V30 4195 H 398.81 2.17287 2.43832 0
M  V30 4196 H 397.469 3.57121 0.828275 0
M  V30 4197 H 397.117 3.80174 3.29358 0
M  V30 4198 H 396.817 5.34132 2.44901 0
M  V30 4199 H 398.341 5.10442 3.35084 0
M  V30 4200 H 399.755 5.61883 1.13842 0
M  V30 4201 H 398.152 5.98506 0.437097 0
M  V30 4202 H 399.222 4.83384 -0.383147 0
M  V30 4203 N 400.565 -0.0233959 1.57583 0
M  V30 4204 C 401.497 -1.04994 2.03737 0
M  V30 4205 C 402.51 -1.32125 0.951152 0
M  V30 4206 O 403.699 -1.29512 1.22837 0
M  V30 4207 C 400.799 -2.39026 2.40249 0
M  V30 4208 C 399.972 -2.31171 3.7132 0
M  V30 4209 C 399.031 -3.47698 3.94959 0
M  V30 4210 O 398.057 -3.26937 4.65941 0
M  V30 4211 N 399.259 -4.6976 3.41037 0
M  V30 4212 H 402.024 -0.656507 2.92421 0
M  V30 4213 H 399.585 -0.211235 1.60516 0
M  V30 4214 H 401.577 -3.15712 2.53196 0
M  V30 4215 H 400.147 -2.70194 1.57207 0
M  V30 4216 H 399.367 -1.39547 3.68674 0
M  V30 4217 H 400.655 -2.23071 4.57293 0
M  V30 4218 H 400.053 -4.89528 2.83512 0
M  V30 4219 H 398.61 -5.43791 3.59353 0
M  V30 4220 N 402.043 -1.548 -0.295768 0
M  V30 4221 C 402.973 -1.89115 -1.36959 0
M  V30 4222 C 403.954 -0.75059 -1.52644 0
M  V30 4223 O 405.139 -1.00678 -1.66065 0
M  V30 4224 C 402.269 -2.14307 -2.73295 0
M  V30 4225 C 401.223 -3.30151 -2.72368 0
M  V30 4226 C 400.549 -3.40772 -4.12042 0
M  V30 4227 C 401.849 -4.67126 -2.33646 0
M  V30 4228 H 403.543 -2.79053 -1.08488 0
M  V30 4229 H 401.089 -1.34266 -0.520443 0
M  V30 4230 H 403.042 -2.36898 -3.48507 0
M  V30 4231 H 401.766 -1.21145 -3.03301 0
M  V30 4232 H 400.425 -3.0749 -1.99613 0
M  V30 4233 H 400.073 -2.45117 -4.39234 0
M  V30 4234 H 399.773 -4.18645 -4.12322 0
M  V30 4235 H 401.297 -3.6563 -4.89027 0
M  V30 4236 H 402.711 -4.89414 -2.98575 0
M  V30 4237 H 401.108 -5.47751 -2.45129 0
M  V30 4238 H 402.178 -4.67489 -1.28772 0
M  V30 4239 N 403.521 0.559213 -1.47345 0
M  V30 4240 C 404.77 1.31281 -1.53128 0
M  V30 4241 C 405.083 1.94602 -0.197344 0
M  V30 4242 O 406.289 2.71173 -0.133154 0
M  V30 4243 C 404.745 2.38051 -2.69925 0
M  V30 4244 C 404.353 1.8093 -4.0984 0
M  V30 4245 C 406.097 3.14604 -2.84999 0
M  V30 4246 C 404.004 2.85468 -5.1794 0
M  V30 4247 H 402.934 0.493614 -0.569966 0
M  V30 4248 H 405.585 0.594155 -1.73615 0
M  V30 4249 H 403.967 3.12822 -2.42814 0
M  V30 4250 H 405.141 1.12544 -4.46845 0
M  V30 4251 H 403.456 1.16967 -3.99634 0
M  V30 4252 H 406.053 3.92666 -3.62929 0
M  V30 4253 H 406.396 3.68665 -1.93369 0
M  V30 4254 H 406.929 2.46945 -3.1187 0
M  V30 4255 H 403.668 2.36264 -6.1144 0
M  V30 4256 H 403.188 3.52269 -4.85455 0
M  V30 4257 H 404.867 3.48996 -5.44803 0
M  V30 4258 N 404.999 1.35443 0.805782 0
M  V30 4259 C 405.946 1.28431 1.91766 0
M  V30 4260 C 406.916 0.156102 1.65365 0
M  V30 4261 O 408.101 0.339936 1.87747 0
M  V30 4262 C 405.241 1.06301 3.2832 0
M  V30 4263 C 404.354 2.2805 3.66902 0
M  V30 4264 C 403.489 1.99064 4.92491 0
M  V30 4265 C 402.528 3.16863 5.23703 0
M  V30 4266 N 401.665 2.87647 6.40471 0
M  V30 4267 H 406.505 2.23511 1.97096 0
M  V30 4268 H 404.042 1.11105 0.964054 0
M  V30 4269 H 406 0.915012 4.07042 0
M  V30 4270 H 404.63 0.148822 3.22457 0
M  V30 4271 H 403.682 2.53711 2.83434 0
M  V30 4272 H 404.994 3.1601 3.85927 0
M  V30 4273 H 404.148 1.81099 5.7904 0
M  V30 4274 H 402.887 1.0839 4.75503 0
M  V30 4275 H 401.892 3.35404 4.35642 0
M  V30 4276 H 403.117 4.08339 5.4262 0
M  V30 4277 H 401.063 1.99568 6.24907 0
M  V30 4278 H 400.98 3.69141 6.59751 0
M  V30 4279 H 402.248 2.73226 7.30047 0
M  V30 4280 N 406.477 -1.02803 1.19454 0
M  V30 4281 C 407.893 -1.28473 0.946937 0
M  V30 4282 C 408.093 -1.97881 -0.380202 0
M  V30 4283 O 407.149 -2.26719 -1.11151 0
M  V30 4284 C 408.462 -2.13099 2.12154 0
M  V30 4285 C 410.01 -2.26404 2.16126 0
M  V30 4286 C 410.485 -3.14402 3.33039 0
M  V30 4287 N 411.976 -3.21991 3.32981 0
M  V30 4288 C 412.711 -3.90272 4.20089 0
M  V30 4289 N 412.207 -4.60777 5.17355 0
M  V30 4290 N 414 -3.8668 4.07964 0
M  V30 4291 H 406.151 -0.561665 2.04839 0
M  V30 4292 H 408.414 -0.310438 0.89573 0
M  V30 4293 H 408.12 -1.69422 3.08203 0
M  V30 4294 H 407.994 -3.13813 2.09287 0
M  V30 4295 H 410.381 -2.69311 1.20647 0
M  V30 4296 H 410.462 -1.25237 2.23045 0
M  V30 4297 H 410.106 -2.72204 4.28798 0
M  V30 4298 H 410.036 -4.1563 3.23356 0
M  V30 4299 H 412.527 -2.71778 2.62574 0
M  V30 4300 H 412.84 -5.10513 5.80169 0
M  V30 4301 H 411.185 -4.5964 5.21302 0
M  V30 4302 H 414.376 -3.30739 3.31254 0
M  V30 4303 H 414.549 -4.39621 4.76064 0
M  V30 4304 N 407.956 -0.998596 -1.21925 0
M  V30 4305 C 408.886 -0.573688 -2.26343 0
M  V30 4306 C 409.867 0.402296 -1.65274 0
M  V30 4307 O 411.052 0.291683 -1.91997 0
M  V30 4308 C 408.182 0.106839 -3.47136 0
M  V30 4309 C 407.136 -0.788269 -4.20678 0
M  V30 4310 C 406.462 0.0254927 -5.34694 0
M  V30 4311 C 407.762 -2.08784 -4.78755 0
M  V30 4312 H 409.456 -1.44651 -2.62138 0
M  V30 4313 H 407.002 -0.696975 -1.26009 0
M  V30 4314 H 408.955 0.415531 -4.19346 0
M  V30 4315 H 407.679 1.01424 -3.10452 0
M  V30 4316 H 406.338 -1.08069 -3.50309 0
M  V30 4317 H 405.986 0.933989 -4.94253 0
M  V30 4318 H 405.686 -0.570437 -5.84825 0
M  V30 4319 H 407.21 0.328147 -6.09718 0
M  V30 4320 H 408.624 -1.84272 -5.42878 0
M  V30 4321 H 407.021 -2.63307 -5.39249 0
M  V30 4322 H 408.091 -2.76284 -3.98491 0
M  V30 4323 N 409.434 1.37368 -0.772513 0
M  V30 4324 C 410.682 1.99279 -0.336516 0
M  V30 4325 C 411.003 1.6163 1.09091 0
M  V30 4326 O 410.273 0.882109 1.74916 0
M  V30 4327 H 408.853 0.737063 -0.121435 0
M  V30 4328 H 411.515 1.67836 -0.990809 0
M  V30 4329 H 410.611 3.09332 -0.414763 0
M  V30 4330 N 410.912 0.523116 1.48665 0
M  V30 4331 C 411.86 -0.256859 2.31177 0
M  V30 4332 C 412.854 -0.94199 1.40794 0
M  V30 4333 O 414.06 -0.867157 1.57735 0
M  V30 4334 H 410.435 -0.1017 0.745091 0
M  V30 4335 H 412.406 0.458739 2.94853 0
M  V30 4336 C 411.155 -1.29503 3.22683 0
M  V30 4337 H 410.478 -0.777248 3.92172 0
M  V30 4338 H 411.918 -1.81233 3.83315 0
M  V30 4339 C 410.377 -2.32501 2.43813 0
M  V30 4340 O 410.907 -3.3881 2.15803 0
M  V30 4341 N 409.113 -2.05538 2.05432 0
M  V30 4342 H 408.66 -1.19104 2.28412 0
M  V30 4343 H 408.618 -2.74676 1.52973 0
M  V30 4344 N 412.39 -1.55475 0.257931 0
M  V30 4345 C 413.638 -1.98813 -0.363009 0
M  V30 4346 C 413.959 -1.14757 -1.57657 0
M  V30 4347 O 413.229 -0.232956 -1.9451 0
M  V30 4348 H 411.809 -0.734308 -0.137113 0
M  V30 4349 H 414.471 -1.9156 0.359281 0
M  V30 4350 H 413.567 -3.04941 -0.664634 0
M  V30 4351 N 413.868 0.0150385 -1.57593 0
M  V30 4352 C 414.8 1.03912 -2.04291 0
M  V30 4353 C 415.813 1.31618 -0.958146 0
M  V30 4354 O 417.002 1.28859 -1.23522 0
M  V30 4355 C 414.102 2.37749 -2.41514 0
M  V30 4356 C 413.275 2.29198 -3.72541 0
M  V30 4357 C 412.334 3.45598 -3.96797 0
M  V30 4358 O 411.36 3.24461 -4.67668 0
M  V30 4359 N 412.562 4.67945 -3.43523 0
M  V30 4360 H 415.327 0.64099 -2.92765 0
M  V30 4361 H 412.888 0.20272 -1.60626 0
M  V30 4362 H 414.88 3.14364 -2.54867 0
M  V30 4363 H 413.45 2.69357 -1.58637 0
M  V30 4364 H 412.67 1.3759 -3.69408 0
M  V30 4365 H 413.958 2.20642 -4.5847 0
M  V30 4366 H 413.356 4.88017 -2.86104 0
M  V30 4367 H 411.913 5.41878 -3.62232 0
M  V30 4368 N 415.346 1.54954 0.287554 0
M  V30 4369 C 416.593 1.74873 1.02106 0
M  V30 4370 C 416.921 0.541829 1.86801 0
M  V30 4371 O 416.176 -0.475992 1.89823 0
M  V30 4372 C 416.475 2.99833 1.94512 0
M  V30 4373 C 416.141 4.33029 1.25686 0
M  V30 4374 C 414.803 4.69233 1.06649 0
M  V30 4375 C 417.155 5.15542 0.765913 0
M  V30 4376 C 414.483 5.85518 0.372222 0
M  V30 4377 C 416.835 6.32542 0.0853101 0
M  V30 4378 C 415.499 6.67398 -0.1169 0
M  V30 4379 H 414.769 0.639906 0.373632 0
M  V30 4380 H 417.416 1.89219 0.294665 0
M  V30 4381 H 415.721 2.80325 2.73725 0
M  V30 4382 H 417.418 3.1244 2.51361 0
M  V30 4383 H 414.008 4.04564 1.41512 0
M  V30 4384 H 418.192 4.88059 0.90066 0
M  V30 4385 H 413.448 6.11057 0.204695 0
M  V30 4386 H 417.622 6.95741 -0.302936 0
M  V30 4387 H 415.249 7.57357 -0.656859 0
M  V30 4388 N 416.824 -0.551391 1.4764 0
M  V30 4389 C 418.072 -1.30572 1.54258 0
M  V30 4390 C 418.393 -1.93877 0.208963 0
M  V30 4391 O 417.663 -1.80234 -0.767619 0
M  V30 4392 H 416.243 -0.484894 0.568231 0
M  V30 4393 H 418.905 -0.643402 1.83974 0
M  V30 4394 H 418.001 -2.09621 2.31226 0
M  V30 4395 N 418.302 -1.35869 -0.798587 0
M  V30 4396 C 419.212 -1.31578 -1.94228 0
M  V30 4397 C 420.228 -0.21939 -1.72611 0
M  V30 4398 O 421.404 -0.450167 -1.96305 0
M  V30 4399 C 418.469 -1.09528 -3.28944 0
M  V30 4400 C 417.53 -2.28556 -3.63402 0
M  V30 4401 C 416.763 -2.07549 -4.9169 0
M  V30 4402 O 416.986 -1.046 -5.60727 0
M  V30 4403 O 415.92 -2.95106 -5.24591 0
M  V30 4404 H 419.746 -2.27847 -2.00796 0
M  V30 4405 H 417.331 -1.16322 -0.937526 0
M  V30 4406 H 419.213 -0.991127 -4.09579 0
M  V30 4407 H 417.888 -0.16315 -3.23289 0
M  V30 4408 H 416.795 -2.44538 -2.83112 0
M  V30 4409 H 418.128 -3.20244 -3.73771 0
M  V30 4410 N 419.78 1.02168 -1.19998 0
M  V30 4411 C 421.026 1.75945 -1.00852 0
M  V30 4412 C 421.359 1.88702 0.458828 0
M  V30 4413 O 420.634 1.40911 1.34069 0
M  V30 4414 C 420.917 3.18154 -1.68671 0
M  V30 4415 C 420.77 3.13224 -3.22817 0
M  V30 4416 C 422.089 4.16711 -1.41561 0
M  V30 4417 H 419.208 0.638673 -0.367785 0
M  V30 4418 H 421.85 1.19222 -1.4794 0
M  V30 4419 H 420 3.66586 -1.28636 0
M  V30 4420 H 421.672 2.72635 -3.72112 0
M  V30 4421 H 419.915 2.50751 -3.53986 0
M  V30 4422 H 420.586 4.13728 -3.65422 0
M  V30 4423 H 423.062 3.76913 -1.76284 0
M  V30 4424 H 421.938 5.14391 -1.91553 0
M  V30 4425 H 422.199 4.40774 -0.342193 0
M  V30 4426 N 421.258 1.00505 1.21394 0
M  V30 4427 C 422.504 0.698477 1.91031 0
M  V30 4428 C 422.859 -0.762448 1.76648 0
M  V30 4429 O 422.152 -1.54554 1.13241 0
M  V30 4430 C 422.346 1.0546 3.41486 0
M  V30 4431 C 422.175 2.5486 3.70508 0
M  V30 4432 C 420.945 3.21461 3.8986 0
M  V30 4433 C 423.143 3.53019 3.74008 0
M  V30 4434 N 421.125 4.60211 4.06299 0
M  V30 4435 C 422.496 4.77279 3.95733 0
M  V30 4436 C 424.551 3.47154 3.56915 0
M  V30 4437 C 423.254 5.96388 4.02137 0
M  V30 4438 C 425.28 4.65652 3.64585 0
M  V30 4439 C 424.642 5.88717 3.86771 0
M  V30 4440 H 420.741 0.30707 0.719189 0
M  V30 4441 H 423.325 1.28753 1.46051 0
M  V30 4442 H 421.496 0.494007 3.85246 0
M  V30 4443 H 423.228 0.702765 3.98552 0
M  V30 4444 H 419.983 2.71906 3.87768 0
M  V30 4445 H 420.407 5.32216 4.1842 0
M  V30 4446 H 425.049 2.53015 3.38738 0
M  V30 4447 H 422.767 6.90919 4.19114 0
M  V30 4448 H 426.353 4.62717 3.52681 0
M  V30 4449 H 425.233 6.78877 3.92549 0
M  V30 4450 N 422.737 -1.36956 0.779787 0
M  V30 4451 C 423.67 -2.27896 0.117681 0
M  V30 4452 C 424.648 -1.46736 -0.700523 0
M  V30 4453 O 425.832 -1.76055 -0.673568 0
M  V30 4454 C 422.959 -3.28136 -0.839296 0
M  V30 4455 C 422.005 -4.26373 -0.10409 0
M  V30 4456 S 422.838 -5.2157 1.21348 0
M  V30 4457 C 423.994 -6.25359 0.260249 0
M  V30 4458 H 424.227 -2.83704 0.888778 0
M  V30 4459 H 421.76 -1.43352 0.57355 0
M  V30 4460 H 423.718 -3.86394 -1.38601 0
M  V30 4461 H 422.379 -2.7126 -1.58356 0
M  V30 4462 H 421.572 -4.97121 -0.82986 0
M  V30 4463 H 421.174 -3.72147 0.371858 0
M  V30 4464 H 423.466 -6.75145 -0.564435 0
M  V30 4465 H 424.409 -7.01885 0.936135 0
M  V30 4466 H 424.817 -5.64345 -0.132127 0
M  V30 4467 N 424.215 -0.530993 -1.48385 0
M  V30 4468 C 425.463 0.00273189 -2.021 0
M  V30 4469 C 425.784 1.34672 -1.41027 0
M  V30 4470 O 425.054 1.8724 -0.576012 0
M  V30 4471 H 423.634 0.00399774 -0.746989 0
M  V30 4472 H 426.296 -0.695054 -1.82085 0
M  V30 4473 H 425.392 0.11031 -3.11905 0
M  V30 4474 N 425.693 1.55336 -0.266172 0
M  V30 4475 C 426.921 2.03801 0.356756 0
M  V30 4476 C 427.336 1.14485 1.50129 0
M  V30 4477 O 426.693 0.163121 1.8177 0
M  V30 4478 C 426.744 3.51455 0.846281 0
M  V30 4479 O 426.465 4.37371 -0.252663 0
M  V30 4480 C 427.966 4.15767 1.53794 0
M  V30 4481 H 425.186 0.665906 0.0825218 0
M  V30 4482 H 427.73 2.00636 -0.39566 0
M  V30 4483 H 425.885 3.55092 1.54881 0
M  V30 4484 H 426.299 5.24358 0.122173 0
M  V30 4485 H 427.773 5.20714 1.83198 0
M  V30 4486 H 428.25 3.63404 2.46646 0
M  V30 4487 H 428.856 4.16107 0.879488 0
M  V30 4488 N 427.171 -0.0066808 1.57599 0
M  V30 4489 C 428.417 -0.68835 1.91398 0
M  V30 4490 C 428.772 -1.7175 0.86716 0
M  V30 4491 O 428.065 -1.91215 -0.121475 0
M  V30 4492 C 428.259 -1.37939 3.29708 0
M  V30 4493 C 428.088 -0.418689 4.47747 0
M  V30 4494 C 426.858 -0.031526 5.0529 0
M  V30 4495 C 429.056 0.312301 5.13351 0
M  V30 4496 N 427.038 0.928088 6.06844 0
M  V30 4497 C 428.409 1.12682 6.09674 0
M  V30 4498 C 430.464 0.376853 4.96472 0
M  V30 4499 C 429.167 2 6.90936 0
M  V30 4500 C 431.193 1.23723 5.78314 0
M  V30 4501 C 430.555 2.03962 6.74225 0
M  V30 4502 H 426.654 -0.225292 0.748844 0
M  V30 4503 H 429.238 0.0520973 1.9463 0
M  V30 4504 H 427.409 -2.09017 3.27363 0
M  V30 4505 H 429.141 -2.01522 3.50957 0
M  V30 4506 H 425.896 -0.398485 4.71921 0
M  V30 4507 H 426.32 1.40307 6.62301 0
M  V30 4508 H 430.962 -0.22921 4.22178 0
M  V30 4509 H 428.68 2.61676 7.64559 0
M  V30 4510 H 432.266 1.291 5.67296 0
M  V30 4511 H 431.146 2.69461 7.36451 0
M  V30 4512 N 428.649 -1.55105 -0.279332 0
M  V30 4513 C 429.597 -1.88333 -1.36505 0
M  V30 4514 C 430.591 -0.759043 -1.51443 0
M  V30 4515 O 431.797 -0.943312 -1.53302 0
M  V30 4516 H 428.172 -0.59766 -0.456406 0
M  V30 4517 H 430.143 -2.79041 -1.05728 0
M  V30 4518 C 428.892 -2.16628 -2.7197 0
M  V30 4519 H 428.215 -3.02624 -2.61264 0
M  V30 4520 H 429.655 -2.43803 -3.46895 0
M  V30 4521 C 428.114 -0.971807 -3.22579 0
M  V30 4522 O 428.644 -0.203228 -4.01186 0
M  V30 4523 N 426.85 -0.771238 -2.80179 0
M  V30 4524 H 426.397 -1.39792 -2.1637 0
M  V30 4525 H 426.355 0.0263667 -3.14389 0
M  V30 4526 N 430.127 0.543554 -1.4793 0
M  V30 4527 C 431.375 1.29752 -1.54948 0
M  V30 4528 C 431.696 1.93764 -0.219242 0
M  V30 4529 O 430.966 1.80639 0.75805 0
M  V30 4530 H 429.546 0.481874 -0.570795 0
M  V30 4531 H 432.208 0.633636 -1.84312 0
M  V30 4532 H 431.304 2.08392 -2.32334 0
M  V30 4533 N 431.605 1.3629 0.791371 0
M  V30 4534 C 432.553 1.30514 1.92533 0
M  V30 4535 C 433.547 0.197285 1.68247 0
M  V30 4536 O 434.753 0.364176 1.76278 0
M  V30 4537 H 431.128 0.406263 0.632815 0
M  V30 4538 H 433.099 2.26282 1.94523 0
M  V30 4539 C 431.848 1.10933 3.29529 0
M  V30 4540 H 431.171 1.95427 3.48781 0
M  V30 4541 H 432.611 1.10937 4.0923 0
M  V30 4542 C 431.07 -0.186123 3.36385 0
M  V30 4543 O 431.6 -1.17664 3.84081 0
M  V30 4544 N 429.806 -0.230128 2.89687 0
M  V30 4545 H 429.353 0.576545 2.51065 0
M  V30 4546 H 429.311 -1.09658 2.94657 0
M  V30 4547 N 433.083 -1.0153 1.20538 0
M  V30 4548 C 434.311 -1.78746 1.04199 0
M  V30 4549 C 434.726 -1.84323 -0.408733 0
M  V30 4550 O 434.083 -1.29714 -1.28377 0
M  V30 4551 C 434.134 -3.23152 1.62035 0
M  V30 4552 O 433.855 -3.17918 3.0143 0
M  V30 4553 C 435.356 -4.16911 1.50666 0
M  V30 4554 H 432.576 -0.56208 0.366479 0
M  V30 4555 H 435.12 -1.27794 1.59653 0
M  V30 4556 H 433.275 -3.71248 1.10697 0
M  V30 4557 H 433.689 -4.08567 3.28897 0
M  V30 4558 H 435.163 -5.16072 1.95892 0
M  V30 4559 H 435.64 -4.36791 0.459363 0
M  V30 4560 H 436.246 -3.74698 2.01201 0
M  V30 4561 N 434.561 -1.01147 -1.20859 0
M  V30 4562 C 435.508 -0.577354 -2.23462 0
M  V30 4563 C 436.478 0.399922 -1.61214 0
M  V30 4564 O 437.663 0.300515 -1.88419 0
M  V30 4565 C 434.803 0.083372 -3.44999 0
M  V30 4566 C 433.916 -0.937856 -4.21697 0
M  V30 4567 C 433.051 -0.248717 -5.30617 0
M  V30 4568 C 432.09 -1.25705 -5.99053 0
M  V30 4569 N 431.227 -0.594939 -6.99575 0
M  V30 4570 H 436.067 -1.45695 -2.59956 0
M  V30 4571 H 433.604 -0.729428 -1.27741 0
M  V30 4572 H 435.562 0.483535 -4.14388 0
M  V30 4573 H 434.192 0.926645 -3.09214 0
M  V30 4574 H 433.244 -1.45622 -3.51423 0
M  V30 4575 H 434.556 -1.70493 -4.68757 0
M  V30 4576 H 433.71 0.207215 -6.06346 0
M  V30 4577 H 432.449 0.55071 -4.84581 0
M  V30 4578 H 431.454 -1.72343 -5.2209 0
M  V30 4579 H 432.679 -2.05767 -6.47176 0
M  V30 4580 H 430.625 0.184713 -6.5574 0
M  V30 4581 H 430.542 -1.30017 -7.44736 0
M  V30 4582 H 431.81 -0.162427 -7.79331 0
M  V30 4583 N 436.039 1.36541 -0.78704 0
M  V30 4584 C 437.285 1.99599 -0.358872 0
M  V30 4585 C 437.618 1.62323 1.06606 0
M  V30 4586 O 436.893 0.876858 1.73613 0
M  V30 4587 C 437.176 3.56327 -0.519944 0
M  V30 4588 C 437.029 4.03464 -1.98839 0
M  V30 4589 C 438.348 4.4005 0.0664737 0
M  V30 4590 H 435.467 0.725107 -0.131869 0
M  V30 4591 H 438.109 1.6199 -0.992936 0
M  V30 4592 H 436.259 3.88495 0.0198321 0
M  V30 4593 H 437.931 3.81793 -2.58905 0
M  V30 4594 H 436.174 3.55092 -2.49183 0
M  V30 4595 H 436.845 5.12439 -2.05207 0
M  V30 4596 H 439.321 4.14228 -0.394267 0
M  V30 4597 H 438.197 5.48847 -0.0762682 0
M  V30 4598 H 438.458 4.26655 1.15835 0
M  V30 4599 N 437.518 0.538854 1.48102 0
M  V30 4600 C 438.481 -0.208395 2.28251 0
M  V30 4601 C 439.481 -0.859656 1.35892 0
M  V30 4602 O 440.671 -0.71834 1.58699 0
M  V30 4603 C 437.803 -1.30252 3.15035 0
M  V30 4604 H 438.996 0.495407 2.9578 0
M  V30 4605 H 436.549 0.295112 1.53489 0
M  V30 4606 H 437.284 -2.0393 2.52157 0
M  V30 4607 H 437.069 -0.840551 3.82985 0
M  V30 4608 H 438.559 -1.82787 3.75471 0
M  V30 4609 N 438.996 -1.55193 0.274407 0
M  V30 4610 C 440.245 -1.98758 -0.343213 0
M  V30 4611 C 440.558 -1.16624 -1.5703 0
M  V30 4612 O 441.764 -1.5033 -2.26082 0
M  V30 4613 C 440.22 -3.53759 -0.661996 0
M  V30 4614 C 439.828 -4.4467 0.54524 0
M  V30 4615 C 441.572 -4.05916 -1.24228 0
M  V30 4616 C 439.479 -5.91058 0.201084 0
M  V30 4617 H 438.409 -0.742353 -0.132014 0
M  V30 4618 H 441.06 -1.79545 0.378948 0
M  V30 4619 H 439.442 -3.68772 -1.44304 0
M  V30 4620 H 440.616 -4.41426 1.32212 0
M  V30 4621 H 438.931 -4.03143 1.04232 0
M  V30 4622 H 441.528 -5.12831 -1.51357 0
M  V30 4623 H 441.871 -3.54908 -2.17592 0
M  V30 4624 H 442.404 -3.9434 -0.523542 0
M  V30 4625 H 439.143 -6.46161 1.10258 0
M  V30 4626 H 438.663 -5.97373 -0.539045 0
M  V30 4627 H 440.342 -6.46669 -0.206954 0
M  V30 4628 N 440.474 -0.00167713 -1.576 0
M  V30 4629 C 441.421 0.989195 -2.08527 0
M  V30 4630 C 442.391 1.34031 -0.981065 0
M  V30 4631 O 443.576 1.43839 -1.2536 0
M  V30 4632 C 440.716 2.27537 -2.59463 0
M  V30 4633 C 439.829 1.98314 -3.83791 0
M  V30 4634 C 438.964 3.21025 -4.23222 0
M  V30 4635 C 438.003 2.87495 -5.40382 0
M  V30 4636 N 437.14 4.02749 -5.75098 0
M  V30 4637 H 441.98 0.547973 -2.92919 0
M  V30 4638 H 439.517 0.258917 -1.44803 0
M  V30 4639 H 441.475 3.02729 -2.87073 0
M  V30 4640 H 440.105 2.69325 -1.77943 0
M  V30 4641 H 439.157 1.13482 -3.63078 0
M  V30 4642 H 440.469 1.69601 -4.69081 0
M  V30 4643 H 439.623 4.04561 -4.52123 0
M  V30 4644 H 438.362 3.52877 -3.36644 0
M  V30 4645 H 437.367 2.02367 -5.11202 0
M  V30 4646 H 438.592 2.56889 -6.28637 0
M  V30 4647 H 436.538 4.34494 -4.91478 0
M  V30 4648 H 436.455 3.77566 -6.54966 0
M  V30 4649 H 437.723 4.87068 -6.08592 0
M  V30 4650 N 441.952 1.55251 0.271103 0
M  V30 4651 C 443.18 1.79974 1.02064 0
M  V30 4652 C 443.595 0.574003 1.79863 0
M  V30 4653 O 442.952 -0.456962 1.76686 0
M  V30 4654 C 443.003 3.02603 1.97772 0
M  V30 4655 O 442.724 4.20443 1.23124 0
M  V30 4656 C 444.225 3.39944 2.84522 0
M  V30 4657 H 441.445 0.599489 0.301419 0
M  V30 4658 H 443.989 2.02268 0.301313 0
M  V30 4659 H 442.144 2.8243 2.65165 0
M  V30 4660 H 442.558 4.89783 1.87651 0
M  V30 4661 H 444.032 4.28915 3.47471 0
M  V30 4662 H 444.509 2.59432 3.54389 0
M  V30 4663 H 445.115 3.62383 2.22618 0
M  V30 4664 N 443.43 -0.535701 1.48216 0
M  V30 4665 C 444.36 -1.65014 1.65204 0
M  V30 4666 C 445.341 -1.62554 0.501011 0
M  V30 4667 O 446.526 -1.7984 0.732886 0
M  V30 4668 C 443.656 -3.03616 1.68626 0
M  V30 4669 C 442.61 -3.20932 2.83172 0
M  V30 4670 C 441.936 -4.60537 2.71679 0
M  V30 4671 C 443.236 -3.04249 4.24535 0
M  V30 4672 H 444.93 -1.51053 2.58502 0
M  V30 4673 H 442.476 -0.725262 1.24402 0
M  V30 4674 H 444.429 -3.81446 1.79099 0
M  V30 4675 H 443.153 -3.18587 0.719026 0
M  V30 4676 H 441.812 -2.45517 2.72244 0
M  V30 4677 H 441.46 -4.72336 1.72937 0
M  V30 4678 H 441.16 -4.73069 3.48538 0
M  V30 4679 H 442.684 -5.40475 2.84112 0
M  V30 4680 H 444.098 -3.71877 4.36326 0
M  V30 4681 H 442.495 -3.28278 5.02348 0
M  V30 4682 H 443.565 -2.00739 4.41397 0
M  V30 4683 N 444.908 -1.36708 -0.784132 0
M  V30 4684 C 445.855 -1.31466 -1.89698 0
M  V30 4685 C 446.825 -0.18239 -1.65096 0
M  V30 4686 O 448.01 -0.369762 -1.87183 0
M  V30 4687 C 445.15 -1.1151 -3.26588 0
M  V30 4688 C 444.263 -2.33859 -3.63227 0
M  V30 4689 C 443.398 -2.06873 -4.89262 0
M  V30 4690 C 442.437 -3.25154 -5.18595 0
M  V30 4691 N 441.574 -2.978 -6.35814 0
M  V30 4692 H 446.414 -2.26619 -1.93515 0
M  V30 4693 H 443.951 -1.12625 -0.946256 0
M  V30 4694 H 445.909 -0.979653 -4.05535 0
M  V30 4695 H 444.539 -0.200103 -3.22179 0
M  V30 4696 H 443.591 -2.58188 -2.79362 0
M  V30 4697 H 444.903 -3.22109 -3.8085 0
M  V30 4698 H 444.057 -1.90289 -5.76086 0
M  V30 4699 H 442.796 -1.15942 -4.73718 0
M  V30 4700 H 441.801 -3.42292 -4.30251 0
M  V30 4701 H 443.026 -4.1692 -5.36055 0
M  V30 4702 H 440.972 -2.09485 -6.21653 0
M  V30 4703 H 440.889 -3.7959 -6.53794 0
M  V30 4704 H 442.157 -2.84805 -7.25607 0
M  V30 4705 N 446.386 1.0089 -1.21074 0
M  V30 4706 C 447.797 1.56056 -1.02486 0
M  V30 4707 C 448.148 1.91728 0.416506 0
M  V30 4708 O 447.273 1.73066 1.29912 0
M  V30 4709 C 447.868 2.83563 -1.85411 0
M  V30 4710 C 446.427 3.3523 -1.71166 0
M  V30 4711 C 445.574 2.0846 -1.82865 0
M  V30 4712 H 448.525 0.831818 -1.35154 0
M  V30 4713 H 448.546 3.55286 -1.36205 0
M  V30 4714 H 448.058 2.57569 -2.9031 0
M  V30 4715 H 446.159 3.66167 -0.689361 0
M  V30 4716 H 446.272 4.06913 -2.52901 0
M  V30 4717 H 444.636 2.21275 -1.26132 0
M  V30 4718 H 445.419 1.84883 -2.89263 0
M  V30 4719 N 447.864 1.01787 1.20321 0
M  V30 4720 C 449.112 0.706538 1.89347 0
M  V30 4721 C 449.433 -0.766289 1.79313 0
M  V30 4722 O 448.703 -1.55126 1.19635 0
M  V30 4723 H 447.283 0.258348 0.700903 0
M  V30 4724 H 449.945 1.28974 1.46122 0
M  V30 4725 H 449.041 0.991066 2.95946 0
M  V30 4726 N 449.342 -1.36122 0.79427 0
M  V30 4727 C 450.57 -2.03362 0.380989 0
M  V30 4728 C 450.985 -1.59881 -1.00416 0
M  V30 4729 O 450.342 -0.790515 -1.6449 0
M  V30 4730 C 450.393 -3.58804 0.440649 0
M  V30 4731 O 450.114 -4.007 1.77118 0
M  V30 4732 C 451.615 -4.43296 0.0186117 0
M  V30 4733 H 448.835 -0.652526 0.156367 0
M  V30 4734 H 451.379 -1.73998 1.07447 0
M  V30 4735 H 449.534 -3.8686 -0.204458 0
M  V30 4736 H 449.948 -4.95309 1.72538 0
M  V30 4737 H 451.422 -5.51887 0.111488 0
M  V30 4738 H 451.899 -4.2684 -1.03461 0
M  V30 4739 H 452.505 -4.20512 0.636395 0
M  V30 4740 N 450.82 -0.546701 -1.47814 0
M  V30 4741 C 451.753 0.254472 -2.26777 0
M  V30 4742 C 452.731 0.929809 -1.33392 0
M  V30 4743 O 453.915 0.950889 -1.62759 0
M  V30 4744 C 451.042 1.36171 -3.10121 0
M  V30 4745 C 450.088 0.796038 -4.19005 0
M  V30 4746 S 450.921 -0.349191 -5.3436 0
M  V30 4747 C 452.077 0.760122 -6.21267 0
M  V30 4748 H 452.31 -0.415612 -2.94381 0
M  V30 4749 H 449.843 -0.332809 -1.5077 0
M  V30 4750 H 451.801 1.99588 -3.58713 0
M  V30 4751 H 450.462 2.00359 -2.41899 0
M  V30 4752 H 449.655 1.62719 -4.7701 0
M  V30 4753 H 449.257 0.238246 -3.7324 0
M  V30 4754 H 451.549 1.65479 -6.5698 0
M  V30 4755 H 452.492 0.217673 -7.07765 0
M  V30 4756 H 452.9 1.04806 -5.54685 0
M  V30 4757 N 452.299 1.55045 -0.282633 0
M  V30 4758 C 453.524 2.04628 0.337977 0
M  V30 4759 C 453.949 1.15937 1.48123 0
M  V30 4760 O 453.307 0.159532 1.80597 0
M  V30 4761 C 453.355 3.51854 0.78936 0
M  V30 4762 O 452.459 3.66236 1.89592 0
M  V30 4763 H 451.8 0.660434 0.0687261 0
M  V30 4764 H 454.33 2.00261 -0.419124 0
M  V30 4765 H 454.34 3.93361 1.08311 0
M  V30 4766 H 453.015 4.15873 -0.0470419 0
M  V30 4767 H 451.592 3.36633 1.60413 0
M  V30 4768 N 453.777 0.010035 1.57597 0
M  V30 4769 C 455.188 -0.531426 1.78977 0
M  V30 4770 C 455.539 -1.73375 0.918454 0
M  V30 4771 O 454.664 -2.16047 0.123635 0
M  V30 4772 C 455.259 -0.97086 3.24592 0
M  V30 4773 C 453.818 -1.45756 3.47033 0
M  V30 4774 C 452.965 -0.413384 2.74201 0
M  V30 4775 H 455.916 0.236166 1.56933 0
M  V30 4776 H 455.937 -1.83633 3.33255 0
M  V30 4777 H 455.449 -0.0955893 3.87982 0
M  V30 4778 H 453.55 -2.35339 2.88871 0
M  V30 4779 H 453.663 -1.4781 4.55729 0
M  V30 4780 H 452.027 -0.877266 2.39115 0
M  V30 4781 H 452.81 0.453092 3.40297 0
M  V30 4782 N 455.255 -1.55392 -0.262866 0
M  V30 4783 C 456.165 -1.92077 -1.34698 0
M  V30 4784 C 457.181 -0.819227 -1.53508 0
M  V30 4785 O 458.357 -1.11921 -1.67439 0
M  V30 4786 C 455.422 -2.19407 -2.68443 0
M  V30 4787 C 454.483 -3.42905 -2.58292 0
M  V30 4788 C 453.716 -3.68921 -3.85659 0
M  V30 4789 O 453.939 -2.97275 -4.8681 0
M  V30 4790 O 452.873 -4.62455 -3.85252 0
M  V30 4791 H 456.699 -2.84384 -1.06581 0
M  V30 4792 H 454.284 -1.42069 -0.462264 0
M  V30 4793 H 456.166 -2.38365 -3.47506 0
M  V30 4794 H 454.841 -1.30282 -2.96325 0
M  V30 4795 H 453.748 -3.29272 -1.7757 0
M  V30 4796 H 455.081 -4.32282 -2.35358 0
M  V30 4797 N 456.733 0.527833 -1.48498 0
M  V30 4798 C 457.958 1.313 -1.60546 0
M  V30 4799 C 458.383 1.86199 -0.26672 0
M  V30 4800 O 457.741 1.64513 0.761918 0
M  V30 4801 C 457.789 2.43818 -2.65678 0
M  V30 4802 O 456.893 3.46916 -2.22987 0
M  V30 4803 H 456.234 0.388784 -0.538277 0
M  V30 4804 H 458.764 0.634896 -1.945 0
M  V30 4805 H 458.774 2.89973 -2.87018 0
M  V30 4806 H 457.449 2.03222 -3.62869 0
M  V30 4807 H 456.026 3.06864 -2.11869 0
M  V30 4808 N 458.211 1.37122 0.776871 0
M  V30 4809 C 459.458 1.32047 1.53524 0
M  V30 4810 C 459.786 -0.0965631 1.9426 0
M  V30 4811 O 459.041 -1.06866 1.63945 0
M  V30 4812 C 459.34 2.20068 2.81611 0
M  V30 4813 C 459.006 3.68423 2.59953 0
M  V30 4814 C 457.668 4.08854 2.53755 0
M  V30 4815 C 460.02 4.62431 2.40431 0
M  V30 4816 C 457.348 5.41417 2.26018 0
M  V30 4817 C 459.7 5.95225 2.14219 0
M  V30 4818 C 458.364 6.34767 2.06462 0
M  V30 4819 H 457.634 0.483196 0.561785 0
M  V30 4820 H 460.281 1.69284 0.895268 0
M  V30 4821 H 458.586 1.75809 3.50141 0
M  V30 4822 H 460.283 2.13458 3.39465 0
M  V30 4823 H 456.873 3.36354 2.65638 0
M  V30 4824 H 461.057 4.32057 2.44213 0
M  V30 4825 H 456.313 5.71022 2.18504 0
M  V30 4826 H 460.487 6.67626 1.98112 0
M  V30 4827 H 458.114 7.37413 1.84733 0
M  V30 4828 N 459.689 -1.00246 1.21608 0
M  V30 4829 C 460.619 -2.10921 1.00172 0
M  V30 4830 C 461.6 -1.69938 -0.0741587 0
M  V30 4831 O 462.785 -1.94009 0.0861753 0
M  V30 4832 C 459.915 -3.42618 0.568355 0
M  V30 4833 C 458.869 -3.97407 1.58909 0
M  V30 4834 C 458.195 -5.25038 1.01187 0
M  V30 4835 C 459.495 -4.2918 2.97661 0
M  V30 4836 H 461.189 -2.29112 1.92739 0
M  V30 4837 H 458.735 -1.10101 0.928102 0
M  V30 4838 H 460.688 -4.19444 0.405555 0
M  V30 4839 H 459.412 -3.24227 -0.392961 0
M  V30 4840 H 458.071 -3.22703 1.73949 0
M  V30 4841 H 457.719 -5.02982 0.0421965 0
M  V30 4842 H 457.419 -5.62661 1.6937 0
M  V30 4843 H 458.943 -6.04507 0.860448 0
M  V30 4844 H 460.357 -4.96839 2.86049 0
M  V30 4845 H 458.754 -4.77952 3.6288 0
M  V30 4846 H 459.824 -3.3735 3.48315 0
M  V30 4847 N 461.167 -1.02423 -1.1978 0
M  V30 4848 C 462.077 -0.610919 -2.26506 0
M  V30 4849 C 463.093 0.355152 -1.70337 0
M  V30 4850 O 464.269 0.214195 -2.00258 0
M  V30 4851 C 461.334 0.0365921 -3.46681 0
M  V30 4852 C 460.395 -0.976389 -4.18049 0
M  V30 4853 C 459.628 -0.359683 -5.32487 0
M  V30 4854 O 459.851 0.838601 -5.64202 0
M  V30 4855 O 458.785 -1.08022 -5.92127 0
M  V30 4856 H 462.611 -1.49965 -2.64091 0
M  V30 4857 H 460.196 -0.794156 -1.26545 0
M  V30 4858 H 462.078 0.39786 -4.19518 0
M  V30 4859 H 460.753 0.899398 -3.10954 0
M  V30 4860 H 459.66 -1.38916 -3.47352 0
M  V30 4861 H 460.993 -1.80941 -4.57735 0
M  V30 4862 N 462.645 1.35699 -0.801477 0
M  V30 4863 C 463.555 2.33661 -0.209691 0
M  V30 4864 C 464.571 1.6162 0.644591 0
M  V30 4865 O 465.747 1.93529 0.557545 0
M  V30 4866 C 462.812 3.40816 0.636033 0
M  V30 4867 C 461.873 4.28639 -0.238147 0
M  V30 4868 C 461.106 5.30676 0.567307 0
M  V30 4869 O 461.329 5.41174 1.8024 0
M  V30 4870 O 460.263 6.01887 -0.0391336 0
M  V30 4871 H 464.089 2.8606 -1.01996 0
M  V30 4872 H 461.674 1.38379 -0.563164 0
M  V30 4873 H 463.556 4.06301 1.11791 0
M  V30 4874 H 462.231 2.90696 1.42399 0
M  V30 4875 H 461.138 3.66152 -0.767044 0
M  V30 4876 H 462.471 4.82143 -0.989915 0
M  V30 4877 N 464.123 0.554532 1.47522 0
M  V30 4878 C 465.086 -0.184174 2.28459 0
M  V30 4879 C 466.086 -0.845195 1.36796 0
M  V30 4880 O 467.276 -0.701467 1.59452 0
M  V30 4881 C 464.408 -1.26903 3.16399 0
M  V30 4882 H 465.601 0.526751 2.95238 0
M  V30 4883 H 463.154 0.311375 1.53167 0
M  V30 4884 H 463.889 -2.01244 2.54306 0
M  V30 4885 H 463.674 -0.799883 3.83854 0
M  V30 4886 H 465.164 -1.78794 3.77389 0
M  V30 4887 N 465.601 -1.54893 0.290851 0
M  V30 4888 C 466.533 -2.20564 -0.623236 0
M  V30 4889 C 467.546 -1.19519 -1.1054 0
M  V30 4890 O 468.735 -1.46165 -1.02459 0
M  V30 4891 C 465.835 -2.83033 -1.86401 0
M  V30 4892 C 465.008 -4.09916 -1.52604 0
M  V30 4893 C 464.067 -4.56284 -2.62091 0
M  V30 4894 O 463.093 -5.2171 -2.27612 0
M  V30 4895 N 464.295 -4.27746 -3.92446 0
M  V30 4896 H 467.06 -2.99638 -0.0610915 0
M  V30 4897 H 464.621 -1.61508 0.112615 0
M  V30 4898 H 466.613 -3.1099 -2.58973 0
M  V30 4899 H 465.183 -2.0786 -2.33481 0
M  V30 4900 H 464.403 -3.89078 -0.633424 0
M  V30 4901 H 465.691 -4.92554 -1.27547 0
M  V30 4902 H 465.089 -3.7531 -4.23272 0
M  V30 4903 H 463.646 -4.60437 -4.61347 0
M  V30 4904 N 467.08 -0.0183926 -1.57589 0
M  V30 4905 C 468.329 0.66185 -1.90532 0
M  V30 4906 C 468.642 1.73904 -0.895366 0
M  V30 4907 O 469.848 2.47518 -1.11566 0
M  V30 4908 C 468.304 1.22844 -3.38286 0
M  V30 4909 C 467.912 0.185103 -4.47617 0
M  V30 4910 C 469.656 1.88581 -3.80312 0
M  V30 4911 C 467.563 0.762723 -5.86461 0
M  V30 4912 H 466.493 0.250972 -0.711006 0
M  V30 4913 H 469.144 -0.0819435 -1.83317 0
M  V30 4914 H 467.526 2.0235 -3.40398 0
M  V30 4915 H 468.7 -0.58671 -4.5705 0
M  V30 4916 H 467.015 -0.372889 -4.14727 0
M  V30 4917 H 469.612 2.32735 -4.81392 0
M  V30 4918 H 469.955 2.72408 -3.14801 0
M  V30 4919 H 470.488 1.15782 -3.80578 0
M  V30 4920 H 467.227 -0.0371713 -6.55489 0
M  V30 4921 H 466.747 1.50327 -5.80656 0
M  V30 4922 H 468.426 1.25576 -6.34697 0
M  V30 4923 N 468.558 1.5553 0.254621 0
M  V30 4924 C 469.491 1.84624 1.34124 0
M  V30 4925 C 470.469 0.700693 1.46728 0
M  V30 4926 O 471.653 0.94564 1.63064 0
M  V30 4927 C 468.78 2.02412 2.71564 0
M  V30 4928 C 467.826 3.25028 2.7615 0
M  V30 4929 S 468.659 4.81893 2.33538 0
M  V30 4930 C 469.815 5.02677 3.72917 0
M  V30 4931 H 470.048 2.76501 1.09245 0
M  V30 4932 H 467.581 1.47537 0.455211 0
M  V30 4933 H 469.539 2.13345 3.50705 0
M  V30 4934 H 468.2 1.11391 2.93685 0
M  V30 4935 H 467.393 3.34418 3.77069 0
M  V30 4936 H 466.995 3.12781 2.05046 0
M  V30 4937 H 469.287 4.89546 4.68349 0
M  V30 4938 H 470.23 6.0468 3.68467 0
M  V30 4939 H 470.638 4.30561 3.65072 0
M  V30 4940 N 470.036 -0.519951 1.48776 0
M  V30 4941 C 470.983 -1.62352 1.64044 0
M  V30 4942 C 471.953 -1.58945 0.482251 0
M  V30 4943 O 473.138 -1.77219 0.706971 0
M  V30 4944 C 470.278 -3.00579 1.69547 0
M  V30 4945 C 469.391 -3.14145 2.96541 0
M  V30 4946 C 468.526 -4.42991 2.93142 0
M  V30 4947 C 467.565 -4.50122 4.14797 0
M  V30 4948 N 466.702 -5.7037 4.09418 0
M  V30 4949 H 471.542 -1.48643 2.58281 0
M  V30 4950 H 469.079 -0.723516 1.28077 0
M  V30 4951 H 471.037 -3.80671 1.70719 0
M  V30 4952 H 469.667 -3.13036 0.787918 0
M  V30 4953 H 468.719 -2.27239 3.05068 0
M  V30 4954 H 470.031 -3.15275 3.86527 0
M  V30 4955 H 469.185 -5.31385 2.92772 0
M  V30 4956 H 467.924 -4.44398 2.00902 0
M  V30 4957 H 466.929 -3.60133 4.15433 0
M  V30 4958 H 468.154 -4.50445 5.08208 0
M  V30 4959 H 466.1 -5.72655 3.20004 0
M  V30 4960 H 466.017 -5.73036 4.93119 0
M  V30 4961 H 467.285 -6.61023 4.13121 0
M  V30 4962 N 471.514 -1.37532 -0.769588 0
M  V30 4963 C 472.461 -1.3347 -1.88293 0
M  V30 4964 C 473.431 -0.199891 -1.64893 0
M  V30 4965 O 474.616 -0.389594 -1.8678 0
M  V30 4966 C 471.756 -1.14968 -3.25387 0
M  V30 4967 C 470.869 -2.37698 -3.60727 0
M  V30 4968 C 470.004 -2.12051 -4.8704 0
M  V30 4969 C 469.043 -3.30636 -5.15117 0
M  V30 4970 N 468.18 -3.04527 -6.3262 0
M  V30 4971 H 473.02 -2.28658 -1.911 0
M  V30 4972 H 470.557 -1.13622 -0.934257 0
M  V30 4973 H 472.515 -1.02261 -4.04473 0
M  V30 4974 H 471.145 -0.234263 -3.21949 0
M  V30 4975 H 470.197 -2.61137 -2.76608 0
M  V30 4976 H 471.509 -3.26131 -3.77413 0
M  V30 4977 H 470.663 -1.96388 -5.74035 0
M  V30 4978 H 469.402 -1.20959 -4.72462 0
M  V30 4979 H 468.407 -3.46836 -4.26597 0
M  V30 4980 H 469.632 -4.22582 -5.31603 0
M  V30 4981 H 467.578 -2.16067 -6.19396 0
M  V30 4982 H 467.495 -3.86503 -6.49732 0
M  V30 4983 H 468.763 -2.92485 -7.22546 0
M  V30 4984 N 472.992 0.995999 -1.22138 0
M  V30 4985 C 473.922 2.10387 -1.01289 0
M  V30 4986 C 474.903 1.69975 0.0651454 0
M  V30 4987 O 476.088 1.9396 -0.0964628 0
M  V30 4988 C 473.218 3.42312 -0.586517 0
M  V30 4989 C 472.172 3.96558 -1.61014 0
M  V30 4990 C 471.498 5.24494 -1.0397 0
M  V30 4991 C 472.798 4.27595 -2.99933 0
M  V30 4992 H 474.492 2.28086 -1.93951 0
M  V30 4993 H 472.038 1.09607 -0.933928 0
M  V30 4994 H 473.991 4.19223 -0.427793 0
M  V30 4995 H 472.715 3.24431 0.375761 0
M  V30 4996 H 471.374 3.21776 -1.75658 0
M  V30 4997 H 471.022 5.02953 -0.0688703 0
M  V30 4998 H 470.722 5.61755 -1.72352 0
M  V30 4999 H 472.246 6.04042 -0.892494 0
M  V30 5000 H 473.66 4.95315 -2.8868 0
M  V30 5001 H 472.057 4.76021 -3.6541 0
M  V30 5002 H 473.127 3.35498 -3.50099 0
M  V30 5003 N 474.47 1.03057 1.19235 0
M  V30 5004 C 475.417 0.612832 2.22515 0
M  V30 5005 C 476.387 -0.374224 1.61829 0
M  V30 5006 O 477.572 -0.270501 1.88873 0
M  V30 5007 C 474.712 -0.028475 3.45088 0
M  V30 5008 C 473.825 1.00483 4.20151 0
M  V30 5009 C 472.96 0.333102 5.30155 0
M  V30 5010 C 471.999 1.3522 5.96977 0
M  V30 5011 N 471.136 0.70616 6.9854 0
M  V30 5012 H 475.976 1.49812 2.57605 0
M  V30 5013 H 473.513 0.749658 1.26564 0
M  V30 5014 H 475.471 -0.417548 4.15105 0
M  V30 5015 H 474.101 -0.877334 3.10649 0
M  V30 5016 H 473.153 1.51194 3.49062 0
M  V30 5017 H 474.465 1.77929 4.65986 0
M  V30 5018 H 473.619 -0.110725 6.06599 0
M  V30 5019 H 472.358 -0.473547 4.85396 0
M  V30 5020 H 471.363 1.80627 5.19282 0
M  V30 5021 H 472.588 2.16037 6.4382 0
M  V30 5022 H 470.534 -0.0803667 6.55951 0
M  V30 5023 H 470.451 1.41848 7.42573 0
M  V30 5024 H 471.719 0.286391 7.78974 0
M  V30 5025 N 475.948 -1.35272 0.808662 0
M  V30 5026 C 476.898 -2.27181 0.193124 0
M  V30 5027 C 477.882 -1.47871 -0.634265 0
M  V30 5028 O 479.074 -1.70048 -0.491182 0
M  V30 5029 C 476.203 -3.36979 -0.655751 0
M  V30 5030 C 475.289 -4.23712 0.181481 0
M  V30 5031 N 475.68 -4.90225 1.24551 0
M  V30 5032 C 473.978 -4.45985 -0.0365493 0
M  V30 5033 C 474.679 -5.54537 1.75682 0
M  V30 5034 N 473.655 -5.33107 1.06294 0
M  V30 5035 H 477.457 -2.76101 1.00724 0
M  V30 5036 H 474.971 -1.48823 0.650029 0
M  V30 5037 H 476.968 -4.01774 -1.11279 0
M  V30 5038 H 475.628 -2.89611 -1.46819 0
M  V30 5039 H 476.639 -4.91641 1.62818 0
M  V30 5040 H 473.316 -4.09409 -0.817964 0
M  V30 5041 H 474.706 -6.17597 2.64621 0
M  V30 5042 N 477.426 -0.562348 -1.47226 0
M  V30 5043 C 478.703 0.0256985 -1.95583 0
M  V30 5044 C 479.083 1.48032 -1.50498 0
M  V30 5045 O 478.431 2.15973 -0.746181 0
M  V30 5046 C 478.641 -0.125129 -3.48776 0
M  V30 5047 C 479.989 0.0175728 -4.24596 0
M  V30 5048 O 481.013 -0.0529341 -3.56161 0
M  V30 5049 O 479.872 0.170145 -5.46235 0
M  V30 5050 H 476.966 0.0612565 -0.824728 0
M  V30 5051 H 479.512 -0.629233 -1.57603 0
M  V30 5052 H 478.284 -1.13715 -3.74412 0
M  V30 5053 H 477.907 0.567178 -3.93534 0
M  V30 5054 N 478.904 1.54736 -0.299062 0
M  V30 5055 C 479.851 2.23448 0.577899 0
M  V30 5056 C 480.821 1.21637 1.13109 0
M  V30 5057 O 482.006 1.50252 1.17597 0
M  V30 5058 C 479.146 2.9774 1.74484 0
M  V30 5059 C 478.259 4.1432 1.22323 0
M  V30 5060 C 477.394 4.76199 2.35388 0
M  V30 5061 C 476.433 5.84927 1.80351 0
M  V30 5062 N 475.57 6.4077 2.86982 0
M  V30 5063 H 480.41 2.97996 -0.0146545 0
M  V30 5064 H 477.947 1.47088 -0.0190013 0
M  V30 5065 H 479.905 3.39045 2.43114 0
M  V30 5066 H 478.535 2.25572 2.30905 0
M  V30 5067 H 477.587 3.7797 0.429249 0
M  V30 5068 H 478.899 4.92659 0.780309 0
M  V30 5069 H 478.053 5.20346 3.11969 0
M  V30 5070 H 476.792 3.97188 2.83006 0
M  V30 5071 H 475.797 5.40207 1.02259 0
M  V30 5072 H 477.022 6.65821 1.3364 0
M  V30 5073 H 474.968 5.64643 3.33938 0
M  V30 5074 H 474.885 7.1445 2.4718 0
M  V30 5075 H 476.153 6.89574 3.63466 0
M  V30 5076 N 480.382 0.0267497 1.57577 0
M  V30 5077 C 481.312 -0.954308 2.13108 0
M  V30 5078 C 482.293 -1.34088 1.04663 0
M  V30 5079 O 483.478 -1.41992 1.32484 0
M  V30 5080 C 480.608 -2.23744 2.65624 0
M  V30 5081 C 479.562 -1.99168 3.78835 0
M  V30 5082 C 478.888 -3.33726 4.17769 0
M  V30 5083 C 480.188 -1.33277 5.0501 0
M  V30 5084 H 481.882 -0.491848 2.95332 0
M  V30 5085 H 479.428 -0.23514 1.42067 0
M  V30 5086 H 481.381 -2.92754 3.03106 0
M  V30 5087 H 480.105 -2.72151 1.80558 0
M  V30 5088 H 478.764 -1.32577 3.41788 0
M  V30 5089 H 478.412 -3.79888 3.29688 0
M  V30 5090 H 478.112 -3.18089 4.94058 0
M  V30 5091 H 479.636 -4.04008 4.57832 0
M  V30 5092 H 481.05 -1.92283 5.40093 0
M  V30 5093 H 479.447 -1.28045 5.8628 0
M  V30 5094 H 480.517 -0.305411 4.83937 0
M  V30 5095 N 481.861 -1.55662 -0.24637 0
M  V30 5096 C 483.107 -1.77782 -0.975779 0
M  V30 5097 C 483.44 -0.592103 -1.84953 0
M  V30 5098 O 482.715 0.409588 -1.90138 0
M  V30 5099 C 482.998 -3.09788 -1.83584 0
M  V30 5100 C 482.851 -4.38764 -0.990241 0
M  V30 5101 C 484.17 -3.38029 -2.81823 0
M  V30 5102 H 481.289 -0.646789 -0.353317 0
M  V30 5103 H 483.931 -1.88398 -0.246248 0
M  V30 5104 H 482.081 -3.00869 -2.45784 0
M  V30 5105 H 483.753 -4.59675 -0.386897 0
M  V30 5106 H 481.996 -4.32798 -0.294626 0
M  V30 5107 H 482.667 -5.27514 -1.62584 0
M  V30 5108 H 485.143 -3.46915 -2.2976 0
M  V30 5109 H 484.019 -4.3161 -3.39122 0
M  V30 5110 H 484.28 -2.58968 -3.58313 0
M  V30 5111 N 483.339 0.512053 -1.4905 0
M  V30 5112 C 484.271 1.63121 -1.6101 0
M  V30 5113 C 485.284 1.55145 -0.493352 0
M  V30 5114 O 486.473 1.61278 -0.764955 0
M  V30 5115 C 483.573 3.01863 -1.54052 0
M  V30 5116 C 482.746 3.35138 -2.81072 0
M  V30 5117 C 481.805 4.5324 -2.67319 0
M  V30 5118 O 480.831 4.55571 -3.41238 0
M  V30 5119 N 482.033 5.52495 -1.78127 0
M  V30 5120 H 484.798 1.53292 -2.5753 0
M  V30 5121 H 482.359 0.699706 -1.45999 0
M  V30 5122 H 484.351 3.78774 -1.42521 0
M  V30 5123 H 482.921 3.05675 -0.654345 0
M  V30 5124 H 482.141 2.4723 -3.07036 0
M  V30 5125 H 483.429 3.54162 -3.65304 0
M  V30 5126 H 482.827 5.53403 -1.17308 0
M  V30 5127 H 481.384 6.28553 -1.72525 0
M  V30 5128 N 484.817 1.37938 0.762283 0
M  V30 5129 C 485.747 1.37176 1.88958 0
M  V30 5130 C 486.728 0.238945 1.68413 0
M  V30 5131 O 487.913 0.440726 1.89133 0
M  V30 5132 C 485.043 1.18742 3.2637 0
M  V30 5133 C 483.997 2.29136 3.61498 0
M  V30 5134 C 483.323 1.95816 4.97554 0
M  V30 5135 C 484.623 3.71363 3.6727 0
M  V30 5136 H 486.317 2.31509 1.89853 0
M  V30 5137 H 483.863 1.11438 0.912005 0
M  V30 5138 H 485.816 1.16837 4.04879 0
M  V30 5139 H 484.54 0.208683 3.25933 0
M  V30 5140 H 483.199 2.30213 2.85303 0
M  V30 5141 H 482.847 0.964475 4.93667 0
M  V30 5142 H 482.547 2.69745 5.22026 0
M  V30 5143 H 484.071 1.95513 5.78452 0
M  V30 5144 H 485.485 3.72364 4.35911 0
M  V30 5145 H 483.882 4.44425 4.03245 0
M  V30 5146 H 484.952 4.04305 2.67704 0
M  V30 5147 N 486.295 -0.989507 1.22664 0
M  V30 5148 C 487.525 -1.7624 1.0781 0
M  V30 5149 C 487.933 -1.85466 -0.374036 0
M  V30 5150 O 487.276 -1.32645 -1.27087 0
M  V30 5151 C 487.338 -3.21007 1.61849 0
M  V30 5152 C 487.002 -3.35316 3.10503 0
M  V30 5153 C 487.999 -3.22362 4.07896 0
M  V30 5154 C 485.684 -3.60258 3.50028 0
M  V30 5155 C 487.678 -3.34139 5.42798 0
M  V30 5156 C 485.365 -3.71676 4.85078 0
M  V30 5157 C 486.363 -3.58625 5.81272 0
M  V30 5158 O 486.051 -3.69655 7.1387 0
M  V30 5159 H 485.783 -0.560209 0.378341 0
M  V30 5160 H 488.337 -1.25252 1.62792 0
M  V30 5161 H 486.567 -3.73202 1.01279 0
M  V30 5162 H 488.256 -3.80024 1.42606 0
M  V30 5163 H 489.022 -3.03 3.78703 0
M  V30 5164 H 484.901 -3.69492 2.75675 0
M  V30 5165 H 488.445 -3.23869 6.17863 0
M  V30 5166 H 484.342 -3.90545 5.1395 0
M  V30 5167 H 485.11 -3.86507 7.21495 0
M  V30 5168 N 487.773 -1.03688 -1.18687 0
M  V30 5169 C 488.736 -0.629115 -2.20397 0
M  V30 5170 C 489.736 0.311495 -1.57754 0
M  V30 5171 O 490.926 0.0974107 -1.73927 0
M  V30 5172 C 488.058 0.0782231 -3.4081 0
M  V30 5173 H 489.251 -1.52915 -2.57987 0
M  V30 5174 H 486.804 -0.828988 -1.32505 0
M  V30 5175 H 487.539 0.992233 -3.08748 0
M  V30 5176 H 487.324 -0.597776 -3.87517 0
M  V30 5177 H 488.814 0.350156 -4.16129 0
M  V30 5178 N 489.251 1.34841 -0.815825 0
M  V30 5179 C 490.497 1.98793 -0.401129 0
M  V30 5180 C 490.83 1.64548 1.03139 0
M  V30 5181 O 490.105 0.913487 1.71714 0
M  V30 5182 C 490.388 3.55143 -0.595409 0
M  V30 5183 C 490.241 3.99155 -2.07352 0
M  V30 5184 C 491.56 4.40092 -0.0268823 0
M  V30 5185 H 488.679 0.722146 -0.14722 0
M  V30 5186 H 491.321 1.59847 -1.02707 0
M  V30 5187 H 489.471 3.8845 -0.0625779 0
M  V30 5188 H 491.143 3.76216 -2.66945 0
M  V30 5189 H 489.386 3.49726 -2.56659 0
M  V30 5190 H 490.057 5.07971 -2.1603 0
M  V30 5191 H 492.533 4.13298 -0.482042 0
M  V30 5192 H 491.409 5.48562 -0.19267 0
M  V30 5193 H 491.67 4.29016 1.06759 0
M  V30 5194 N 490.729 0.570148 1.46925 0
M  V30 5195 C 491.975 0.0510284 2.02736 0
M  V30 5196 C 492.308 -1.3006 1.44215 0
M  V30 5197 O 491.583 -1.84932 0.602521 0
M  V30 5198 C 491.866 -0.028215 3.60089 0
M  V30 5199 C 491.719 1.35142 4.29018 0
M  V30 5200 C 493.038 -0.735181 4.33916 0
M  V30 5201 H 490.157 0.0200178 0.736728 0
M  V30 5202 H 492.799 0.73493 1.75211 0
M  V30 5203 H 490.949 -0.610648 3.83671 0
M  V30 5204 H 492.621 1.97806 4.16738 0
M  V30 5205 H 490.864 1.9226 3.88868 0
M  V30 5206 H 491.535 1.24857 5.37694 0
M  V30 5207 H 494.011 -0.240519 4.15404 0
M  V30 5208 H 492.887 -0.759622 5.43618 0
M  V30 5209 H 493.148 -1.79397 4.04066 0
M  V30 5210 N 492.207 -1.54576 0.307264 0
M  V30 5211 C 493.432 -2.05139 -0.305379 0
M  V30 5212 C 493.857 -1.18278 -1.46259 0
M  V30 5213 O 493.215 -0.188243 -1.8032 0
M  V30 5214 C 493.263 -3.53066 -0.733283 0
M  V30 5215 O 492.367 -3.69206 -1.83741 0
M  V30 5216 H 491.708 -0.661444 -0.0582105 0
M  V30 5217 H 494.238 -1.99569 0.450931 0
M  V30 5218 H 494.248 -3.95034 -1.02039 0
M  V30 5219 H 492.923 -4.15746 0.113198 0
M  V30 5220 H 491.5 -3.39143 -1.55037 0
M  V30 5221 N 493.685 -0.035106 -1.57561 0
M  V30 5222 C 494.595 0.960295 -2.14046 0
M  V30 5223 C 495.611 1.3529 -1.0942 0
M  V30 5224 O 496.787 1.43309 -1.41508 0
M  V30 5225 C 493.852 2.22214 -2.66124 0
M  V30 5226 C 492.913 1.8894 -3.85487 0
M  V30 5227 C 492.146 3.09109 -4.35072 0
M  V30 5228 O 492.369 4.21963 -3.83802 0
M  V30 5229 O 491.303 2.91058 -5.26848 0
M  V30 5230 H 495.129 0.509983 -2.99387 0
M  V30 5231 H 492.714 0.185853 -1.48239 0
M  V30 5232 H 494.596 2.96279 -2.99661 0
M  V30 5233 H 493.271 2.66414 -1.83862 0
M  V30 5234 H 492.178 1.12241 -3.56865 0
M  V30 5235 H 493.511 1.49551 -4.6893 0
M  V30 5236 N 495.163 1.55791 0.238111 0
M  V30 5237 C 496.073 1.94196 1.31625 0
M  V30 5238 C 497.089 0.843545 1.52185 0
M  V30 5239 O 498.265 1.1457 1.65637 0
M  V30 5240 C 495.33 2.2365 2.64918 0
M  V30 5241 C 494.391 3.46971 2.52804 0
M  V30 5242 C 493.624 3.7501 3.79741 0
M  V30 5243 O 493.847 3.04982 4.82019 0
M  V30 5244 O 492.781 4.68525 3.77846 0
M  V30 5245 H 496.607 2.86044 1.02043 0
M  V30 5246 H 494.192 1.42786 0.439603 0
M  V30 5247 H 496.074 2.43863 3.4367 0
M  V30 5248 H 494.749 1.34979 2.94215 0
M  V30 5249 H 493.656 3.32055 1.72309 0
M  V30 5250 H 494.989 4.35971 2.28451 0
M  V30 5251 N 496.642 -0.504142 1.49319 0
M  V30 5252 C 498.053 -1.08572 1.51885 0
M  V30 5253 C 498.404 -1.93842 0.303255 0
M  V30 5254 O 497.529 -2.0828 -0.58724 0
M  V30 5255 C 498.124 -1.97574 2.75227 0
M  V30 5256 C 496.683 -2.509 2.80581 0
M  V30 5257 C 495.83 -1.28447 2.45757 0
M  V30 5258 H 498.781 -0.288194 1.56061 0
M  V30 5259 H 498.802 -2.82219 2.55211 0
M  V30 5260 H 498.314 -1.35486 3.63683 0
M  V30 5261 H 496.415 -3.16636 1.96398 0
M  V30 5262 H 496.528 -2.88268 3.82673 0
M  V30 5263 H 494.892 -1.60868 1.97468 0
M  V30 5264 H 495.675 -0.68072 3.36483 0
M  V30 5265 N 498.12 -1.38341 -0.754957 0
M  V30 5266 C 499.369 -1.33791 -1.5094 0
M  V30 5267 C 499.682 0.0699267 -1.95475 0
M  V30 5268 O 500.888 0.237956 -2.70455 0
M  V30 5269 C 499.344 -2.34934 -2.72643 0
M  V30 5270 C 498.952 -3.81332 -2.35138 0
M  V30 5271 C 500.696 -2.39425 -3.50536 0
M  V30 5272 C 498.603 -4.74164 -3.53444 0
M  V30 5273 H 497.533 -0.497314 -0.566741 0
M  V30 5274 H 500.184 -1.63888 -0.825403 0
M  V30 5275 H 498.566 -1.97878 -3.43017 0
M  V30 5276 H 499.74 -4.27319 -1.7244 0
M  V30 5277 H 498.055 -3.79946 -1.70382 0
M  V30 5278 H 500.652 -3.0598 -4.38498 0
M  V30 5279 H 500.995 -1.41278 -3.91594 0
M  V30 5280 H 501.528 -2.75274 -2.87174 0
M  V30 5281 H 498.267 -5.73501 -3.17453 0
M  V30 5282 H 497.787 -4.3287 -4.15191 0
M  V30 5283 H 499.466 -4.92111 -4.20043 0
M  V30 5284 N 499.598 0.982988 -1.23187 0
M  V30 5285 C 500.828 1.75666 -1.08743 0
M  V30 5286 C 501.236 1.85662 0.364195 0
M  V30 5287 O 500.579 1.33317 1.26382 0
M  V30 5288 C 500.641 3.20144 -1.63549 0
M  V30 5289 C 500.305 3.33665 -3.12277 0
M  V30 5290 C 501.302 3.20194 -4.096 0
M  V30 5291 C 498.987 3.58397 -3.51933 0
M  V30 5292 C 500.981 3.31256 -5.44563 0
M  V30 5293 C 498.668 3.69098 -4.87042 0
M  V30 5294 C 499.666 3.55537 -5.83166 0
M  V30 5295 O 499.354 3.65864 -7.1582 0
M  V30 5296 H 499.086 0.558194 -0.381307 0
M  V30 5297 H 501.64 1.24387 -1.63454 0
M  V30 5298 H 499.87 3.72659 -1.03256 0
M  V30 5299 H 501.559 3.79262 -1.4462 0
M  V30 5300 H 502.325 3.00987 -3.80305 0
M  V30 5301 H 498.204 3.68025 -2.77631 0
M  V30 5302 H 501.748 3.20588 -6.19572 0
M  V30 5303 H 497.645 3.87814 -5.16014 0
M  V30 5304 H 498.413 3.82675 -7.23534 0
M  V30 5305 N 501.076 1.04316 1.18135 0
M  V30 5306 C 502.325 0.74319 1.87509 0
M  V30 5307 C 502.638 -0.732136 1.81381 0
M  V30 5308 O 503.844 -1.14572 2.46141 0
M  V30 5309 C 502.3 1.27913 3.36402 0
M  V30 5310 C 501.908 2.78326 3.51053 0
M  V30 5311 C 503.652 1.0558 4.11161 0
M  V30 5312 C 501.559 3.25266 4.93919 0
M  V30 5313 H 500.489 0.274313 0.702331 0
M  V30 5314 H 503.14 1.25931 1.33467 0
M  V30 5315 H 501.522 0.690853 3.89927 0
M  V30 5316 H 502.696 3.42933 3.07788 0
M  V30 5317 H 501.011 2.991 2.89704 0
M  V30 5318 H 503.608 1.38161 5.16542 0
M  V30 5319 H 503.951 -0.00684729 4.16299 0
M  V30 5320 H 504.484 1.60882 3.63816 0
M  V30 5321 H 501.223 4.30922 4.9395 0
M  V30 5322 H 500.743 2.65396 5.3789 0
M  V30 5323 H 502.422 3.19433 5.62647 0
M  V30 5324 N 502.554 -1.34406 0.822964 0
M  V30 5325 C 503.8 -1.98578 0.411666 0
M  V30 5326 C 504.133 -1.65093 -1.02264 0
M  V30 5327 O 503.408 -0.92258 -1.71227 0
M  V30 5328 C 503.691 -3.54823 0.614235 0
M  V30 5329 C 503.544 -3.9805 2.09466 0
M  V30 5330 C 504.863 -4.40071 0.050221 0
M  V30 5331 H 501.982 -0.721355 0.151047 0
M  V30 5332 H 504.624 -1.59301 1.03554 0
M  V30 5333 H 502.774 -3.88411 0.0831774 0
M  V30 5334 H 504.446 -3.74795 2.68936 0
M  V30 5335 H 502.689 -3.4836 2.5851 0
M  V30 5336 H 503.36 -5.06819 2.18721 0
M  V30 5337 H 505.836 -4.13037 0.503953 0
M  V30 5338 H 504.712 -5.48452 0.221759 0
M  V30 5339 H 504.973 -4.29576 -1.04482 0
M  V30 5340 N 504.032 -0.577932 -1.46621 0
M  V30 5341 C 505.26 -0.0671642 -2.06791 0
M  V30 5342 C 505.675 1.23571 -1.42743 0
M  V30 5343 O 505.032 1.74602 -0.531062 0
M  V30 5344 C 505.083 0.110357 -3.61332 0
M  V30 5345 O 504.804 -1.14095 -4.22982 0
M  V30 5346 C 506.305 0.656025 -4.38419 0
M  V30 5347 H 503.525 -0.0552732 -0.66872 0
M  V30 5348 H 506.069 -0.797242 -1.8832 0
M  V30 5349 H 504.224 0.790637 -3.79246 0
M  V30 5350 H 504.638 -0.951742 -5.15793 0
M  V30 5351 H 506.112 0.729438 -5.47159 0
M  V30 5352 H 506.589 1.67195 -4.06131 0
M  V30 5353 H 507.195 0.0107692 -4.25299 0
M  V30 5354 N 505.51 1.54411 -0.315457 0
M  V30 5355 C 506.42 2.27737 0.56329 0
M  V30 5356 C 507.436 1.31787 1.13614 0
M  V30 5357 O 508.612 1.64791 1.15784 0
M  V30 5358 C 505.677 3.01478 1.71207 0
M  V30 5359 C 504.738 4.12997 1.17185 0
M  V30 5360 C 503.971 4.83212 2.26588 0
M  V30 5361 O 504.194 4.52884 3.46775 0
M  V30 5362 O 503.128 5.70299 1.92463 0
M  V30 5363 H 506.954 3.03683 -0.0319614 0
M  V30 5364 H 504.539 1.49178 -0.0814188 0
M  V30 5365 H 506.421 3.47683 2.38106 0
M  V30 5366 H 505.096 2.28414 2.29366 0
M  V30 5367 H 504.003 3.71159 0.468174 0
M  V30 5368 H 505.336 4.8808 0.635501 0
M  V30 5369 N 506.988 0.0434614 1.5754 0
M  V30 5370 C 508.218 -0.640905 1.96408 0
M  V30 5371 C 508.626 -1.65365 0.919297 0
M  V30 5372 O 507.969 -1.83395 -0.105795 0
M  V30 5373 C 508.031 -1.39141 3.31482 0
M  V30 5374 C 507.695 -0.535375 4.53853 0
M  V30 5375 C 508.692 0.195335 5.19533 0
M  V30 5376 C 506.377 -0.468564 5.0011 0
M  V30 5377 C 508.371 0.981377 6.298 0
M  V30 5378 C 506.058 0.321171 6.10255 0
M  V30 5379 C 507.056 1.04484 6.74961 0
M  V30 5380 O 506.744 1.8216 7.8299 0
M  V30 5381 H 506.476 -0.180584 0.651433 0
M  V30 5382 H 509.03 0.103848 2.05137 0
M  V30 5383 H 507.26 -2.18162 3.19284 0
M  V30 5384 H 508.949 -1.96526 3.55151 0
M  V30 5385 H 509.715 0.15314 4.84758 0
M  V30 5386 H 505.594 -1.02142 4.49542 0
M  V30 5387 H 509.138 1.54674 6.80237 0
M  V30 5388 H 505.035 0.365032 6.44467 0
M  V30 5389 H 505.803 1.74289 7.99728 0
M  V30 5390 N 508.466 -1.55915 -0.229846 0
M  V30 5391 C 509.399 -1.86734 -1.3117 0
M  V30 5392 C 510.377 -0.723947 -1.45595 0
M  V30 5393 O 511.561 -0.971462 -1.61539 0
M  V30 5394 C 508.688 -2.06707 -2.68309 0
M  V30 5395 C 507.734 -3.2938 -2.70944 0
M  V30 5396 S 508.567 -4.85547 -2.25842 0
M  V30 5397 C 509.723 -5.08546 -3.64873 0
M  V30 5398 H 509.956 -2.78204 -1.04832 0
M  V30 5399 H 507.489 -1.48243 -0.431681 0
M  V30 5400 H 509.447 -2.18898 -3.47267 0
M  V30 5401 H 508.108 -1.16049 -2.91876 0
M  V30 5402 H 507.301 -3.40374 -3.71701 0
M  V30 5403 H 506.903 -3.16004 -2.00044 0
M  V30 5404 H 509.195 -4.96935 -4.60502 0
M  V30 5405 H 510.138 -6.10465 -3.58801 0
M  V30 5406 H 510.546 -4.36314 -3.58176 0
M  V30 5407 N 509.944 0.496216 -1.49584 0
M  V30 5408 C 510.892 1.61805 -1.67098 0
M  V30 5409 C 511.886 1.60667 -0.536877 0
M  V30 5410 O 513.092 1.65118 -0.716654 0
M  V30 5411 H 509.467 0.53646 -0.526986 0
M  V30 5412 H 511.438 1.44187 -2.61252 0
M  V30 5413 C 510.187 2.99912 -1.75921 0
M  V30 5414 H 509.51 3.01496 -2.62565 0
M  V30 5415 H 510.95 3.77931 -1.92209 0
M  V30 5416 C 509.409 3.33092 -0.505088 0
M  V30 5417 O 509.939 4.00019 0.367085 0
M  V30 5418 N 508.145 2.88278 -0.366599 0
M  V30 5419 H 507.692 2.33989 -1.07735 0
M  V30 5420 H 507.65 3.10846 0.47142 0
M  V30 5421 N 511.423 1.38739 0.74761 0
M  V30 5422 C 512.37 1.36449 1.86146 0
M  V30 5423 C 513.34 0.226098 1.64554 0
M  V30 5424 O 514.525 0.41926 1.86137 0
M  V30 5425 C 511.665 1.2013 3.23516 0
M  V30 5426 C 510.778 2.43407 3.56899 0
M  V30 5427 C 509.913 2.19773 4.83605 0
M  V30 5428 C 508.952 3.3879 5.09792 0
M  V30 5429 N 508.089 3.14553 6.27695 0
M  V30 5430 H 512.929 2.3167 1.87438 0
M  V30 5431 H 510.466 1.15094 0.916063 0
M  V30 5432 H 512.424 1.08683 4.02795 0
M  V30 5433 H 511.054 0.285453 3.21535 0
M  V30 5434 H 510.106 2.65504 2.72418 0
M  V30 5435 H 511.418 3.32094 3.72176 0
M  V30 5436 H 510.572 2.05496 5.70838 0
M  V30 5437 H 509.311 1.28461 4.70478 0
M  V30 5438 H 508.316 3.53579 4.21025 0
M  V30 5439 H 509.541 4.30986 5.24812 0
M  V30 5440 H 507.487 2.25893 6.1588 0
M  V30 5441 H 507.404 3.96791 6.435 0
M  V30 5442 H 508.672 3.03943 7.17801 0
M  V30 5443 N 512.901 -0.976442 1.23707 0
M  V30 5444 C 514.149 -1.71487 1.06942 0
M  V30 5445 C 514.47 -1.9098 -0.393897 0
M  V30 5446 O 513.74 -1.48128 -1.28198 0
M  V30 5447 H 512.32 -0.635425 0.392739 0
M  V30 5448 H 514.982 -1.17515 1.55487 0
M  V30 5449 H 514.078 -2.70286 1.56051 0
M  V30 5450 N 514.379 -1.04941 -1.1758 0
M  V30 5451 C 515.604 -0.778253 -1.92245 0
M  V30 5452 C 516.029 0.659707 -1.76152 0
M  V30 5453 O 515.387 1.45803 -1.07755 0
M  V30 5454 C 515.435 -1.16051 -3.41416 0
M  V30 5455 O 514.539 -0.291153 -4.11371 0
M  V30 5456 H 513.88 -0.285619 -0.599431 0
M  V30 5457 H 516.41 -1.40159 -1.49052 0
M  V30 5458 H 516.42 -1.12619 -3.92149 0
M  V30 5459 H 515.095 -2.208 -3.52449 0
M  V30 5460 H 513.672 -0.385851 -3.70898 0
M  V30 5461 N 515.857 1.33968 -0.830081 0
M  V30 5462 C 516.787 2.31911 -0.271911 0
M  V30 5463 C 517.768 1.58571 0.61556 0
M  V30 5464 O 518.953 1.86514 0.540946 0
M  V30 5465 C 516.083 3.42737 0.561146 0
M  V30 5466 C 515.037 4.27383 -0.229789 0
M  V30 5467 C 514.363 5.29742 0.726463 0
M  V30 5468 C 515.663 5.02 -1.44197 0
M  V30 5469 H 517.357 2.78844 -1.09025 0
M  V30 5470 H 514.903 1.34061 -0.52571 0
M  V30 5471 H 516.856 4.10276 0.961867 0
M  V30 5472 H 515.58 2.94471 1.41261 0
M  V30 5473 H 514.239 3.61456 -0.611964 0
M  V30 5474 H 513.887 4.77736 1.57408 0
M  V30 5475 H 513.587 5.87255 0.20142 0
M  V30 5476 H 515.111 6.00149 1.12489 0
M  V30 5477 H 516.525 5.62355 -1.11488 0
M  V30 5478 H 514.922 5.69122 -1.90317 0
M  V30 5479 H 515.992 4.31281 -2.2164 0
M  V30 5480 N 517.335 0.585699 1.46312 0
M  V30 5481 C 518.265 -0.133556 2.33118 0
M  V30 5482 C 519.246 -0.880707 1.45525 0
M  V30 5483 O 520.431 -0.855579 1.74337 0
M  V30 5484 C 517.561 -1.14585 3.27853 0
M  V30 5485 C 516.515 -0.513341 4.2491 0
M  V30 5486 C 515.841 -1.63231 5.09175 0
M  V30 5487 C 517.141 0.551413 5.19381 0
M  V30 5488 H 518.835 0.59121 2.93505 0
M  V30 5489 H 516.381 0.285761 1.41136 0
M  V30 5490 H 518.334 -1.65741 3.87438 0
M  V30 5491 H 517.058 -1.90093 2.65579 0
M  V30 5492 H 515.717 -0.0228349 3.66593 0
M  V30 5493 H 515.365 -2.37713 4.43285 0
M  V30 5494 H 515.065 -1.21473 5.74907 0
M  V30 5495 H 516.589 -2.14658 5.71624 0
M  V30 5496 H 518.003 0.124804 5.73164 0
M  V30 5497 H 516.4 0.889486 5.93471 0
M  V30 5498 H 517.47 1.43655 4.63132 0
M  V30 5499 N 518.813 -1.54241 0.323641 0
M  V30 5500 C 520.09 -1.92741 -0.333181 0
M  V30 5501 C 520.47 -1.25326 -1.69872 0
M  V30 5502 O 519.818 -0.396991 -2.25025 0
M  V30 5503 C 520.028 -3.46399 -0.425322 0
M  V30 5504 C 521.376 -4.19029 -0.68557 0
M  V30 5505 O 522.4 -3.52555 -0.50824 0
M  V30 5506 O 521.259 -5.36751 -1.02767 0
M  V30 5507 H 518.353 -0.804811 -0.190286 0
M  V30 5508 H 520.899 -1.65542 0.373361 0
M  V30 5509 H 519.671 -3.87643 0.533737 0
M  V30 5510 H 519.294 -3.79704 -1.17944 0
M  V30 5511 N 520.291 -0.0518155 -1.57515 0
M  V30 5512 C 521.538 0.621823 -1.92716 0
M  V30 5513 C 521.866 1.70813 -0.930229 0
M  V30 5514 O 521.121 1.95616 0.0573708 0
M  V30 5515 C 521.42 1.25607 -3.34601 0
M  V30 5516 C 521.086 0.297901 -4.49915 0
M  V30 5517 C 519.748 0.034243 -4.81188 0
M  V30 5518 C 522.1 -0.358738 -5.19964 0
M  V30 5519 C 519.428 -0.893479 -5.79857 0
M  V30 5520 C 521.78 -1.27466 -6.19625 0
M  V30 5521 C 520.444 -1.54698 -6.49326 0
M  V30 5522 H 519.714 0.227541 -0.705199 0
M  V30 5523 H 522.361 -0.118432 -1.91133 0
M  V30 5524 H 520.666 2.07161 -3.32553 0
M  V30 5525 H 522.363 1.78424 -3.59118 0
M  V30 5526 H 518.953 0.513581 -4.25512 0
M  V30 5527 H 523.137 -0.168133 -4.96015 0
M  V30 5528 H 518.393 -1.11193 -6.01204 0
M  V30 5529 H 522.567 -1.78953 -6.73015 0
M  V30 5530 H 520.194 -2.26748 -7.25596 0
M  V30 5531 N 521.769 1.56035 0.221574 0
M  V30 5532 C 522.699 1.95434 1.2778 0
M  V30 5533 C 523.68 0.822564 1.48889 0
M  V30 5534 O 524.865 1.08486 1.61072 0
M  V30 5535 C 521.995 2.27102 2.62759 0
M  V30 5536 C 520.949 3.4277 2.56306 0
M  V30 5537 C 520.275 3.60043 3.95314 0
M  V30 5538 C 521.575 4.77742 2.11093 0
M  V30 5539 H 523.269 2.83912 0.950504 0
M  V30 5540 H 520.815 1.36596 0.455791 0
M  V30 5541 H 522.768 2.53256 3.36807 0
M  V30 5542 H 521.492 1.35478 2.97176 0
M  V30 5543 H 520.151 3.16664 1.84715 0
M  V30 5544 H 519.799 2.65794 4.27039 0
M  V30 5545 H 519.499 4.37841 3.91879 0
M  V30 5546 H 521.023 3.88545 4.71025 0
M  V30 5547 H 522.437 5.03102 2.74885 0
M  V30 5548 H 520.834 5.58823 2.18716 0
M  V30 5549 H 521.904 4.731 1.06321 0
M  V30 5550 N 523.247 -0.488276 1.49845 0
M  V30 5551 C 524.194 -1.58836 1.67451 0
M  V30 5552 C 525.164 -1.57886 0.515857 0
M  V30 5553 O 526.349 -1.75679 0.744403 0
M  V30 5554 C 523.489 -2.96915 1.75885 0
M  V30 5555 C 522.602 -3.07784 3.03138 0
M  V30 5556 C 521.737 -4.36673 3.02473 0
M  V30 5557 C 520.776 -4.41222 4.24252 0
M  V30 5558 N 519.913 -5.61557 4.21424 0
M  V30 5559 H 524.753 -1.43131 2.61376 0
M  V30 5560 H 522.29 -0.696186 1.29583 0
M  V30 5561 H 524.248 -3.76965 1.78755 0
M  V30 5562 H 522.878 -3.11295 0.85414 0
M  V30 5563 H 521.93 -2.20717 3.09819 0
M  V30 5564 H 523.242 -3.07005 3.93128 0
M  V30 5565 H 522.396 -5.25055 3.03977 0
M  V30 5566 H 521.135 -4.40037 2.10283 0
M  V30 5567 H 520.14 -3.5124 4.22978 0
M  V30 5568 H 521.365 -4.39564 5.17649 0
M  V30 5569 H 519.311 -5.65738 3.32078 0
M  V30 5570 H 519.228 -5.62447 5.05163 0
M  V30 5571 H 520.496 -6.52111 4.2705 0
M  V30 5572 N 524.725 -1.39134 -0.740242 0
M  V30 5573 C 526.002 -1.26584 -1.49117 0
M  V30 5574 C 526.382 0.126902 -2.10718 0
M  V30 5575 O 525.73 1.13765 -1.98166 0
M  V30 5576 C 525.94 -2.38619 -2.54681 0
M  V30 5577 C 527.288 -2.77685 -3.21211 0
M  V30 5578 O 528.312 -2.38029 -2.64991 0
M  V30 5579 O 527.171 -3.46115 -4.22926 0
M  V30 5580 H 524.265 -0.495769 -0.661923 0
M  V30 5581 H 526.811 -1.50995 -0.774514 0
M  V30 5582 H 525.583 -3.3175 -2.07504 0
M  V30 5583 H 525.206 -2.15845 -3.33911 0
M  V30 5584 N 526.204 0.969867 -1.24223 0
M  V30 5585 C 527.452 1.70918 -1.0785 0
M  V30 5586 C 527.773 1.91186 0.383763 0
M  V30 5587 O 527.043 1.48806 1.27411 0
M  V30 5588 H 525.623 0.633334 -0.396103 0
M  V30 5589 H 528.285 1.16689 -1.56108 0
M  V30 5590 H 527.381 2.69455 -1.57482 0
M  V30 5591 N 527.682 1.05563 1.17022 0
M  V30 5592 C 528.592 0.670758 2.24807 0
M  V30 5593 C 529.608 -0.309865 1.71219 0
M  V30 5594 O 530.784 -0.161025 2.00755 0
M  V30 5595 C 527.849 0.055337 3.46656 0
M  V30 5596 C 526.91 1.08688 4.15314 0
M  V30 5597 C 526.143 0.500736 5.31346 0
M  V30 5598 O 526.366 -0.688718 5.66227 0
M  V30 5599 O 525.3 1.23683 5.89055 0
M  V30 5600 H 529.126 1.56914 2.60023 0
M  V30 5601 H 526.711 0.827428 1.24395 0
M  V30 5602 H 528.593 -0.286492 4.20425 0
M  V30 5603 H 527.268 -0.816638 3.13229 0
M  V30 5604 H 526.175 1.48077 3.43546 0
M  V30 5605 H 527.508 1.93014 4.52777 0
M  V30 5606 N 529.16 -1.33526 0.837174 0
M  V30 5607 C 530.408 -1.97446 0.431211 0
M  V30 5608 C 530.729 -1.6665 -1.01255 0
M  V30 5609 O 529.999 -0.964559 -1.70508 0
M  V30 5610 H 528.579 -0.73043 0.156463 0
M  V30 5611 H 531.241 -1.62918 1.06976 0
M  V30 5612 H 530.337 -3.07001 0.561877 0
M  V30 5613 N 530.638 -0.59345 -1.46 0
M  V30 5614 C 532.054 -0.255965 -1.57534 0
M  V30 5615 C 532.254 1.24167 -1.58697 0
M  V30 5616 O 531.31 2.02398 -1.50968 0
M  V30 5617 C 532.623 -0.91466 -2.86451 0
M  V30 5618 C 534.171 -0.889253 -3.00102 0
M  V30 5619 C 534.646 -1.52769 -4.3177 0
M  V30 5620 N 536.137 -1.49253 -4.38495 0
M  V30 5621 C 536.872 -1.9558 -5.39014 0
M  V30 5622 N 536.368 -2.49929 -6.46148 0
M  V30 5623 N 538.161 -1.86432 -5.30282 0
M  V30 5624 H 530.312 -1.56604 -1.43489 0
M  V30 5625 H 532.575 -0.655207 -0.685133 0
M  V30 5626 H 532.281 -1.96861 -2.91442 0
M  V30 5627 H 532.155 -0.429356 -3.74748 0
M  V30 5628 H 534.542 0.156111 -2.94687 0
M  V30 5629 H 534.623 -1.41268 -2.13253 0
M  V30 5630 H 534.267 -2.57231 -4.37944 0
M  V30 5631 H 534.197 -0.979398 -5.17412 0
M  V30 5632 H 536.688 -1.09536 -3.61677 0
M  V30 5633 H 537.001 -2.83109 -7.19075 0
M  V30 5634 H 535.346 -2.53961 -6.46938 0
M  V30 5635 H 538.537 -1.43722 -4.4549 0
M  V30 5636 H 538.71 -2.22852 -6.08474 0
M  V30 5637 N 532.116 1.54067 -0.331816 0
M  V30 5638 C 533.079 2.23275 0.517768 0
M  V30 5639 C 534.079 1.22897 1.03697 0
M  V30 5640 O 535.269 1.47419 0.928084 0
M  V30 5641 C 532.401 2.94326 1.72004 0
M  V30 5642 H 533.594 2.99773 -0.0873507 0
M  V30 5643 H 531.147 1.56079 -0.0830042 0
M  V30 5644 H 531.882 2.21986 2.36417 0
M  V30 5645 H 531.667 3.67941 1.35507 0
M  V30 5646 H 533.157 3.47031 2.32291 0
M  V30 5647 N 533.594 0.0601682 1.57485 0
M  V30 5648 C 534.524 -0.90889 2.15085 0
M  V30 5649 C 535.505 -1.31838 1.07484 0
M  V30 5650 O 536.69 -1.3915 1.35466 0
M  V30 5651 C 533.82 -2.18059 2.7031 0
M  V30 5652 C 532.774 -1.91088 3.82974 0
M  V30 5653 C 532.1 -3.24789 4.24754 0
M  V30 5654 C 533.4 -1.22535 5.07723 0
M  V30 5655 H 535.094 -0.429093 2.96309 0
M  V30 5656 H 532.64 -0.204952 1.42534 0
M  V30 5657 H 534.593 -2.86258 3.09248 0
M  V30 5658 H 533.317 -2.6826 1.8629 0
M  V30 5659 H 531.976 -1.25297 3.44523 0
M  V30 5660 H 531.624 -3.72809 3.37672 0
M  V30 5661 H 531.324 -3.07538 5.00694 0
M  V30 5662 H 532.848 -3.94205 4.66299 0
M  V30 5663 H 534.262 -1.80783 5.4405 0
M  V30 5664 H 532.659 -1.1558 5.88864 0
M  V30 5665 H 533.729 -0.202692 4.84476 0
M  V30 5666 N 535.072 -1.5615 -0.213296 0
M  V30 5667 C 536.019 -1.93086 -1.26437 0
M  V30 5668 C 536.989 -0.789086 -1.4616 0
M  V30 5669 O 538.174 -1.04569 -1.59593 0
M  V30 5670 C 535.314 -2.26003 -2.608 0
M  V30 5671 C 534.427 -3.53156 -2.48807 0
M  V30 5672 C 533.562 -3.7548 -3.7575 0
M  V30 5673 C 532.601 -4.96119 -3.58514 0
M  V30 5674 N 531.738 -5.14791 -4.77425 0
M  V30 5675 H 536.578 -2.82707 -0.942376 0
M  V30 5676 H 534.115 -1.39919 -0.454001 0
M  V30 5677 H 536.073 -2.431 -3.39055 0
M  V30 5678 H 534.703 -1.39546 -2.91079 0
M  V30 5679 H 533.755 -3.44207 -1.61944 0
M  V30 5680 H 535.067 -4.41565 -2.31996 0
M  V30 5681 H 534.221 -3.92718 -4.62447 0
M  V30 5682 H 532.96 -2.85368 -3.95495 0
M  V30 5683 H 531.965 -4.78823 -2.70201 0
M  V30 5684 H 533.19 -5.87724 -3.40231 0
M  V30 5685 H 531.136 -4.27623 -4.97468 0
M  V30 5686 H 531.053 -5.97347 -4.63371 0
M  V30 5687 H 532.321 -5.36471 -5.65525 0
M  V30 5688 N 536.55 0.480323 -1.50102 0
M  V30 5689 C 537.48 1.58769 -1.71215 0
M  V30 5690 C 538.461 1.60583 -0.560997 0
M  V30 5691 O 539.646 1.76996 -0.799127 0
M  V30 5692 C 536.776 2.97148 -1.79778 0
M  V30 5693 C 535.73 3.10201 -2.94888 0
M  V30 5694 C 535.056 4.50137 -2.88584 0
M  V30 5695 C 536.356 2.88283 -4.35534 0
M  V30 5696 H 538.05 1.41354 -2.6393 0
M  V30 5697 H 535.596 0.678591 -1.27008 0
M  V30 5698 H 537.549 3.74536 -1.93133 0
M  V30 5699 H 536.273 3.15699 -0.836772 0
M  V30 5700 H 534.932 2.35244 -2.81169 0
M  V30 5701 H 534.58 4.65593 -1.90349 0
M  V30 5702 H 534.28 4.59808 -3.65856 0
M  V30 5703 H 535.804 5.29558 -3.03976 0
M  V30 5704 H 537.218 3.55427 -4.49827 0
M  V30 5705 H 535.615 3.09408 -5.14186 0
M  V30 5706 H 536.685 1.84219 -4.48544 0
M  V30 5707 N 538.028 1.39524 0.732853 0
M  V30 5708 C 539.439 1.32905 1.31122 0
M  V30 5709 C 539.79 -0.00558708 1.96199 0
M  V30 5710 O 538.915 -0.907706 1.96443 0
M  V30 5711 C 539.51 2.40704 2.38426 0
M  V30 5712 C 538.069 2.37599 2.91931 0
M  V30 5713 C 537.216 2.2248 1.65523 0
M  V30 5714 H 540.167 1.49581 0.530207 0
M  V30 5715 H 540.188 2.07616 3.18867 0
M  V30 5716 H 539.7 3.37829 1.91033 0
M  V30 5717 H 537.801 1.44119 3.43599 0
M  V30 5718 H 537.914 3.32538 3.44899 0
M  V30 5719 H 536.278 1.69691 1.8994 0
M  V30 5720 H 537.061 3.21577 1.20178 0
M  V30 5721 N 539.506 -0.963266 1.24736 0
M  V30 5722 C 540.454 -2.07985 1.04139 0
M  V30 5723 C 541.448 -1.69381 -0.0250556 0
M  V30 5724 O 542.654 -1.79531 0.129863 0
M  V30 5725 H 539.029 -0.680627 0.319768 0
M  V30 5726 H 541 -2.22517 1.98818 0
M  V30 5727 C 539.749 -3.4123 0.667615 0
M  V30 5728 H 539.072 -3.71397 1.48 0
M  V30 5729 H 540.512 -4.20244 0.563136 0
M  V30 5730 C 538.971 -3.3104 -0.625647 0
M  V30 5731 O 539.501 -3.65334 -1.67016 0
M  V30 5732 N 537.707 -2.84168 -0.608033 0
M  V30 5733 H 537.254 -2.56458 0.242323 0
M  V30 5734 H 537.212 -2.77732 -1.47352 0
M  V30 5735 N 540.985 -1.06182 -1.16461 0
M  V30 5736 C 541.915 -0.692861 -2.22984 0
M  V30 5737 C 542.896 0.314122 -1.67174 0
M  V30 5738 O 544.081 0.189499 -1.93273 0
M  V30 5739 C 541.211 -0.07732 -3.47214 0
M  V30 5740 C 540.165 -1.01015 -4.15909 0
M  V30 5741 C 539.491 -0.257973 -5.34077 0
M  V30 5742 C 540.791 -2.33868 -4.67015 0
M  V30 5743 H 542.485 -1.58343 -2.54102 0
M  V30 5744 H 540.031 -0.76279 -1.22137 0
M  V30 5745 H 541.984 0.19266 -4.20959 0
M  V30 5746 H 540.708 0.848254 -3.15392 0
M  V30 5747 H 539.367 -1.26486 -3.44088 0
M  V30 5748 H 539.015 0.670684 -4.98509 0
M  V30 5749 H 538.715 -0.879638 -5.80979 0
M  V30 5750 H 540.239 0.00448788 -6.106 0
M  V30 5751 H 541.653 -2.1279 -5.32347 0
M  V30 5752 H 540.05 -2.91522 -5.24533 0
M  V30 5753 H 541.12 -2.97019 -3.83286 0
M  V30 5754 N 542.463 1.3308 -0.844243 0
M  V30 5755 C 543.709 1.97898 -0.443206 0
M  V30 5756 C 544.042 1.66699 0.99625 0
M  V30 5757 O 543.317 0.949704 1.69738 0
M  V30 5758 C 543.6 3.53801 -0.670606 0
M  V30 5759 C 543.453 3.94667 -2.15772 0
M  V30 5760 C 544.772 4.39936 -0.120226 0
M  V30 5761 H 541.891 0.718861 -0.162504 0
M  V30 5762 H 544.533 1.57633 -1.06075 0
M  V30 5763 H 542.683 3.88229 -0.14496 0
M  V30 5764 H 544.355 3.70469 -2.74865 0
M  V30 5765 H 542.598 3.44203 -2.6402 0
M  V30 5766 H 543.269 5.03275 -2.26757 0
M  V30 5767 H 545.745 4.12183 -0.5696 0
M  V30 5768 H 544.621 5.4803 -0.308984 0
M  V30 5769 H 544.882 4.31184 0.976347 0
M  V30 5770 N 543.941 0.601185 1.45683 0
M  V30 5771 C 545.218 0.0261659 1.95582 0
M  V30 5772 C 545.598 -1.4399 1.5437 0
M  V30 5773 O 544.946 -2.13919 0.80318 0
M  V30 5774 C 545.156 0.217557 3.48321 0
M  V30 5775 C 546.504 0.0950076 4.24494 0
M  V30 5776 O 547.528 0.147345 3.55895 0
M  V30 5777 O 546.387 -0.025261 5.46494 0
M  V30 5778 H 543.481 -0.0393688 0.826062 0
M  V30 5779 H 546.027 0.670798 1.55879 0
M  V30 5780 H 544.799 1.23601 3.71266 0
M  V30 5781 H 544.422 -0.46264 3.94899 0
M  V30 5782 N 545.419 -1.53889 0.339982 0
M  V30 5783 C 546.352 -2.21187 -0.561405 0
M  V30 5784 C 547.33 -1.19463 -1.10306 0
M  V30 5785 O 548.514 -1.48268 -1.164 0
M  V30 5786 C 545.641 -2.8865 -1.77198 0
M  V30 5787 C 544.687 -4.04232 -1.3601 0
M  V30 5788 S 545.52 -5.34129 -0.382909 0
M  V30 5789 C 546.676 -6.05094 -1.60039 0
M  V30 5790 H 546.909 -2.97298 0.0102092 0
M  V30 5791 H 544.442 -1.53901 0.124056 0
M  V30 5792 H 546.4 -3.28138 -2.4665 0
M  V30 5793 H 545.061 -2.12311 -2.3148 0
M  V30 5794 H 544.254 -4.50358 -2.2626 0
M  V30 5795 H 543.856 -3.66503 -0.745098 0
M  V30 5796 H 546.148 -6.2827 -2.53541 0
M  V30 5797 H 547.091 -6.98182 -1.18099 0
M  V30 5798 H 547.499 -5.35207 -1.79483 0
M  V30 5799 N 546.897 -0.0685191 -1.57451 0
M  V30 5800 C 547.86 0.885173 -2.11417 0
M  V30 5801 C 548.86 1.22853 -1.03748 0
M  V30 5802 O 550.05 1.16235 -1.2975 0
M  V30 5803 C 547.182 2.18964 -2.61281 0
M  V30 5804 H 548.375 0.417034 -2.96986 0
M  V30 5805 H 545.928 0.18014 -1.55258 0
M  V30 5806 H 546.663 2.70321 -1.79156 0
M  V30 5807 H 546.448 1.9534 -3.39977 0
M  V30 5808 H 547.938 2.87242 -3.0312 0
M  V30 5809 N 548.375 1.56261 0.205012 0
M  V30 5810 C 549.338 1.92908 1.23771 0
M  V30 5811 C 550.338 0.809208 1.38955 0
M  V30 5812 O 551.528 1.07676 1.36936 0
M  V30 5813 C 548.66 2.19442 2.60879 0
M  V30 5814 H 549.853 2.85287 0.924728 0
M  V30 5815 H 547.406 1.49798 0.446125 0
M  V30 5816 H 548.141 1.29668 2.97248 0
M  V30 5817 H 547.926 3.0104 2.51232 0
M  V30 5818 H 549.416 2.48833 3.35368 0
M  V30 5819 N 549.853 -0.472356 1.50355 0
M  V30 5820 C 550.785 -1.58795 1.65278 0
M  V30 5821 C 551.798 -1.53782 0.534313 0
M  V30 5822 O 552.987 -1.59193 0.807446 0
M  V30 5823 C 550.087 -2.97672 1.62001 0
M  V30 5824 C 549.26 -3.27568 2.89859 0
M  V30 5825 C 548.319 -4.45993 2.79242 0
M  V30 5826 O 547.345 -4.46364 3.53197 0
M  V30 5827 N 548.547 -5.47578 1.92713 0
M  V30 5828 H 551.312 -1.46411 2.61503 0
M  V30 5829 H 548.873 -0.660751 1.47803 0
M  V30 5830 H 550.865 -3.74862 1.52513 0
M  V30 5831 H 549.435 -3.03832 0.735159 0
M  V30 5832 H 548.655 -2.39003 3.13483 0
M  V30 5833 H 549.943 -3.44352 3.74565 0
M  V30 5834 H 549.341 -5.50099 1.31939 0
M  V30 5835 H 547.898 -6.23757 1.8913 0
M  V30 5836 N 551.331 -1.39911 -0.725443 0
M  V30 5837 C 552.577 -1.37858 -1.48738 0
M  V30 5838 C 552.91 0.0224187 -1.94187 0
M  V30 5839 O 552.185 0.989204 -1.67466 0
M  V30 5840 C 552.468 -2.3594 -2.72038 0
M  V30 5841 C 552.321 -3.85023 -2.32546 0
M  V30 5842 C 553.64 -2.31704 -3.74167 0
M  V30 5843 H 550.759 -0.502074 -0.539528 0
M  V30 5844 H 553.401 -1.70974 -0.828728 0
M  V30 5845 H 551.551 -2.0783 -3.28236 0
M  V30 5846 H 553.223 -4.2392 -1.81905 0
M  V30 5847 H 551.466 -4.01334 -1.64661 0
M  V30 5848 H 552.137 -4.49152 -3.20884 0
M  V30 5849 H 554.613 -2.5658 -3.27576 0
M  V30 5850 H 553.489 -3.02395 -4.58092 0
M  V30 5851 H 553.75 -1.3253 -4.21768 0
M  V30 5852 N 552.809 0.956637 -1.25245 0
M  V30 5853 C 553.772 2.03457 -1.05537 0
M  V30 5854 C 554.772 1.60798 -0.00886317 0
M  V30 5855 O 555.962 1.72384 -0.250865 0
M  V30 5856 C 553.094 3.35543 -0.601965 0
M  V30 5857 H 554.287 2.22372 -2.01223 0
M  V30 5858 H 551.84 1.13344 -1.07623 0
M  V30 5859 H 552.575 3.22323 0.357584 0
M  V30 5860 H 552.36 3.67854 -1.35743 0
M  V30 5861 H 553.85 4.14769 -0.485454 0
M  V30 5862 N 554.287 1.06798 1.15896 0
M  V30 5863 C 555.25 0.687328 2.18651 0
M  V30 5864 C 556.25 -0.269559 1.58524 0
M  V30 5865 O 557.44 -0.0512627 1.74125 0
M  V30 5866 C 554.572 0.0121642 3.40898 0
M  V30 5867 H 555.765 1.59701 2.53842 0
M  V30 5868 H 553.318 0.863828 1.3026 0
M  V30 5869 H 554.053 -0.910025 3.1127 0
M  V30 5870 H 553.838 0.700309 3.85795 0
M  V30 5871 H 555.328 -0.239703 4.16911 0
M  V30 5872 N 555.766 -1.3263 0.851289 0
M  V30 5873 C 557.014 -1.96978 0.452128 0
M  V30 5874 C 557.335 -1.67715 -0.99482 0
M  V30 5875 O 556.605 -0.98259 -1.69476 0
M  V30 5876 H 555.185 -0.72873 0.164202 0
M  V30 5877 H 557.847 -1.61774 1.08698 0
M  V30 5878 H 556.943 -3.06387 0.594407 0
M  V30 5879 N 557.244 -0.608902 -1.45362 0
M  V30 5880 C 558.177 0.158059 -2.27652 0
M  V30 5881 C 559.155 0.872397 -1.37215 0
M  V30 5882 O 560.339 0.881002 -1.66645 0
M  V30 5883 C 557.466 1.22896 -3.15617 0
M  V30 5884 C 556.512 0.617607 -4.22005 0
M  V30 5885 S 557.345 -0.575518 -5.32398 0
M  V30 5886 C 558.501 0.495938 -6.23932 0
M  V30 5887 H 558.734 -0.540095 -2.92353 0
M  V30 5888 H 556.267 -0.396456 -1.49223 0
M  V30 5889 H 558.225 1.84195 -3.66855 0
M  V30 5890 H 556.886 1.89919 -2.50179 0
M  V30 5891 H 556.079 1.42341 -4.83482 0
M  V30 5892 H 555.681 0.0797273 -3.73915 0
M  V30 5893 H 557.973 1.37465 -6.63408 0
M  V30 5894 H 558.916 -0.0827108 -7.08052 0
M  V30 5895 H 559.324 0.811856 -5.58631 0
M  V30 5896 N 558.722 1.53707 -0.348139 0
M  V30 5897 C 559.685 2.23812 0.494058 0
M  V30 5898 C 560.685 1.23989 1.02388 0
M  V30 5899 O 561.875 1.48395 0.912396 0
M  V30 5900 C 559.007 2.96133 1.68872 0
M  V30 5901 H 560.2 2.99663 -0.119141 0
M  V30 5902 H 557.753 1.55983 -0.0995539 0
M  V30 5903 H 558.488 2.24481 2.34049 0
M  V30 5904 H 558.273 3.69357 1.31596 0
M  V30 5905 H 559.763 3.49475 2.28597 0
M  V30 5906 N 560.2 0.0768682 1.57412 0
M  V30 5907 C 561.43 -0.5991 1.97723 0
M  V30 5908 C 561.838 -1.63378 0.954166 0
M  V30 5909 O 561.181 -1.83578 -0.0668706 0
M  V30 5910 C 561.243 -1.32078 3.34358 0
M  V30 5911 C 560.907 -0.438985 4.54887 0
M  V30 5912 C 561.904 0.305492 5.19002 0
M  V30 5913 C 559.589 -0.362378 5.00991 0
M  V30 5914 C 561.583 1.11475 6.27576 0
M  V30 5915 C 559.27 0.450543 6.09437 0
M  V30 5916 C 560.268 1.18777 6.72593 0
M  V30 5917 O 559.956 1.98727 7.7895 0
M  V30 5918 H 559.688 -0.166725 0.655117 0
M  V30 5919 H 562.242 0.147337 2.04871 0
M  V30 5920 H 560.472 -2.1134 3.2384 0
M  V30 5921 H 562.161 -1.88949 3.5924 0
M  V30 5922 H 562.927 0.25593 4.84324 0
M  V30 5923 H 558.806 -0.925832 4.51608 0
M  V30 5924 H 562.35 1.69068 6.76803 0
M  V30 5925 H 558.247 0.501651 6.43548 0
M  V30 5926 H 559.015 1.91214 7.95851 0
M  V30 5927 N 561.678 -1.56367 -0.196722 0
M  V30 5928 C 562.927 -1.79724 -0.915539 0
M  V30 5929 C 563.24 -0.649804 -1.84491 0
M  V30 5930 O 564.446 -0.767631 -2.60422 0
M  V30 5931 C 562.902 -3.18369 -1.67836 0
M  V30 5932 C 562.51 -4.4091 -0.793897 0
M  V30 5933 C 564.254 -3.51037 -2.38691 0
M  V30 5934 C 562.161 -5.70577 -1.55549 0
M  V30 5935 H 561.091 -0.67013 -0.345604 0
M  V30 5936 H 563.742 -1.82721 -0.168856 0
M  V30 5937 H 562.124 -3.09617 -2.46887 0
M  V30 5938 H 563.298 -4.60781 -0.042163 0
M  V30 5939 H 561.613 -4.15937 -0.19626 0
M  V30 5940 H 564.21 -4.4515 -2.96219 0
M  V30 5941 H 564.553 -2.74704 -3.12799 0
M  V30 5942 H 565.086 -3.61229 -1.66608 0
M  V30 5943 H 561.825 -6.49871 -0.857226 0
M  V30 5944 H 561.345 -5.54726 -2.2812 0
M  V30 5945 H 563.024 -6.11637 -2.10971 0
M  V30 5946 N 563.156 0.464375 -1.50603 0
M  V30 5947 C 564.066 1.58723 -1.72754 0
M  V30 5948 C 565.082 1.62925 -0.610844 0
M  V30 5949 O 566.258 1.8067 -0.889963 0
M  V30 5950 C 563.323 2.94897 -1.82309 0
M  V30 5951 C 562.384 3.0103 -3.06071 0
M  V30 5952 C 561.617 4.30708 -3.1516 0
M  V30 5953 O 561.84 5.2159 -2.30868 0
M  V30 5954 O 560.774 4.42571 -4.0794 0
M  V30 5955 H 564.6 1.42954 -2.67951 0
M  V30 5956 H 562.185 0.644579 -1.3478 0
M  V30 5957 H 564.067 3.75764 -1.90735 0
M  V30 5958 H 562.742 3.10851 -0.902967 0
M  V30 5959 H 561.649 2.19217 -3.03142 0
M  V30 5960 H 562.982 2.90014 -3.97684 0
M  V30 5961 N 564.634 1.40294 0.718013 0
M  V30 5962 C 566.05 1.2227 1.02577 0
M  V30 5963 C 566.25 0.0961976 2.0127 0
M  V30 5964 O 565.306 -0.546695 2.46511 0
M  V30 5965 C 566.619 2.56348 1.57182 0
M  V30 5966 C 568.167 2.6334 1.69178 0
M  V30 5967 C 568.642 3.9768 2.27188 0
M  V30 5968 N 570.133 3.99409 2.34578 0
M  V30 5969 C 570.868 5.00141 2.8044 0
M  V30 5970 N 570.364 6.11268 3.26073 0
M  V30 5971 N 572.157 4.87511 2.79802 0
M  V30 5972 H 564.308 2.12304 0.0637899 0
M  V30 5973 H 566.571 0.943632 0.0909036 0
M  V30 5974 H 566.277 3.3942 0.921262 0
M  V30 5975 H 566.151 2.77266 2.55741 0
M  V30 5976 H 568.538 1.80641 2.33351 0
M  V30 5977 H 568.619 2.46255 0.692247 0
M  V30 5978 H 568.263 4.80817 1.63638 0
M  V30 5979 H 568.193 4.12093 3.27852 0
M  V30 5980 H 570.684 3.19162 2.02346 0
M  V30 5981 H 570.997 6.84023 3.59628 0
M  V30 5982 H 569.342 6.14837 3.24038 0
M  V30 5983 H 572.533 3.9979 2.43487 0
M  V30 5984 H 572.706 5.66158 3.15228 0
M  V30 5985 N 566.112 -0.949982 1.2575 0
M  V30 5986 C 567.045 -2.047 1.00862 0
M  V30 5987 C 568.023 -1.62475 -0.0636982 0
M  V30 5988 O 569.207 -1.88343 0.0769153 0
M  V30 5989 C 566.334 -3.34597 0.525613 0
M  V30 5990 C 565.38 -3.95788 1.58916 0
M  V30 5991 S 566.213 -4.31175 3.17567 0
M  V30 5992 C 567.369 -5.64183 2.71013 0
M  V30 5993 H 567.602 -2.25497 1.93749 0
M  V30 5994 H 565.135 -1.09022 1.09332 0
M  V30 5995 H 567.093 -4.09716 0.25359 0
M  V30 5996 H 565.754 -3.11758 -0.382828 0
M  V30 5997 H 564.947 -4.89457 1.20201 0
M  V30 5998 H 564.549 -3.27168 1.81211 0
M  V30 5999 H 566.841 -6.42504 2.14928 0
M  V30 6000 H 567.784 -6.07774 3.6334 0
M  V30 6001 H 568.192 -5.2364 2.1086 0
M  V30 6002 N 567.59 -1.07411 -1.15328 0
M  V30 6003 C 568.538 -0.689316 -2.22151 0
M  V30 6004 C 569.532 0.300156 -1.6672 0
M  V30 6005 O 570.738 0.163804 -1.79253 0
M  V30 6006 H 567.113 -0.204834 -0.723566 0
M  V30 6007 H 569.084 -1.59988 -2.51886 0
M  V30 6008 C 567.833 -0.103848 -3.47545 0
M  V30 6009 H 567.156 -0.856367 -3.90521 0
M  V30 6010 H 568.596 0.127725 -4.23808 0
M  V30 6011 C 567.055 1.15563 -3.1646 0
M  V30 6012 O 567.585 2.242 -3.33312 0
M  V30 6013 N 565.791 1.06203 -2.70498 0
M  V30 6014 H 565.338 0.177933 -2.56985 0
M  V30 6015 H 565.296 1.90553 -2.50074 0
M  V30 6016 N 569.068 1.32177 -0.85831 0
M  V30 6017 C 570.298 2.01021 -0.476889 0
M  V30 6018 C 570.706 1.64653 0.931995 0
M  V30 6019 O 570.049 0.865713 1.62022 0
M  V30 6020 C 570.111 3.55413 -0.540528 0
M  V30 6021 C 569.775 4.1522 -1.90895 0
M  V30 6022 C 570.772 4.3318 -2.87491 0
M  V30 6023 C 568.457 4.51212 -2.20709 0
M  V30 6024 C 570.451 4.86306 -4.1205 0
M  V30 6025 C 568.138 5.04042 -3.45521 0
M  V30 6026 C 569.136 5.21538 -4.41007 0
M  V30 6027 O 568.824 5.73238 -5.63608 0
M  V30 6028 H 568.556 0.650059 -0.18547 0
M  V30 6029 H 571.11 1.69648 -1.15796 0
M  V30 6030 H 569.34 3.86196 0.19741 0
M  V30 6031 H 571.029 4.05526 -0.174191 0
M  V30 6032 H 571.795 4.05704 -2.65762 0
M  V30 6033 H 567.674 4.36878 -1.4717 0
M  V30 6034 H 571.218 4.99877 -4.86589 0
M  V30 6035 H 567.115 5.30952 -3.67098 0
M  V30 6036 H 567.883 5.91625 -5.65617 0
M  V30 6037 N 570.547 0.616602 1.45037 0
M  V30 6038 C 571.796 0.112861 2.01384 0
M  V30 6039 C 572.109 -1.26758 1.48969 0
M  V30 6040 O 573.315 -1.86454 1.9735 0
M  V30 6041 C 571.771 0.151057 3.59583 0
M  V30 6042 C 571.379 1.53191 4.20995 0
M  V30 6043 C 573.123 -0.296974 4.2346 0
M  V30 6044 C 571.03 1.526 5.71373 0
M  V30 6045 H 569.96 0.0384254 0.75302 0
M  V30 6046 H 572.611 0.773262 1.66412 0
M  V30 6047 H 570.993 -0.57617 3.91786 0
M  V30 6048 H 572.167 2.28156 4.00352 0
M  V30 6049 H 570.482 1.92279 3.69348 0
M  V30 6050 H 573.079 -0.320712 5.33737 0
M  V30 6051 H 573.422 -1.32145 3.9477 0
M  V30 6052 H 573.955 0.377279 3.96007 0
M  V30 6053 H 570.694 2.52837 6.04776 0
M  V30 6054 H 570.214 0.819064 5.94181 0
M  V30 6055 H 571.893 1.25357 6.3474 0
M  V30 6056 N 572.025 -1.5352 0.356285 0
M  V30 6057 C 572.975 -2.22204 -0.510815 0
M  V30 6058 C 573.959 -1.21393 -1.05605 0
M  V30 6059 O 575.151 -1.46883 -0.987639 0
M  V30 6060 C 572.28 -3.00786 -1.65478 0
M  V30 6061 C 571.366 -4.08965 -1.12287 0
M  V30 6062 N 571.757 -5.04829 -0.313191 0
M  V30 6063 C 570.055 -4.23505 -1.39856 0
M  V30 6064 C 570.756 -5.81695 -0.0230322 0
M  V30 6065 N 569.732 -5.40074 -0.618144 0
M  V30 6066 H 573.534 -2.93676 0.114711 0
M  V30 6067 H 571.048 -1.61572 0.163811 0
M  V30 6068 H 573.045 -3.48502 -2.28806 0
M  V30 6069 H 571.705 -2.30843 -2.28345 0
M  V30 6070 H 572.716 -5.17879 0.0468202 0
M  V30 6071 H 569.393 -3.64786 -2.0307 0
M  V30 6072 H 570.783 -6.68931 0.630927 0
M  V30 6073 N 573.503 -0.0852151 -1.57369 0
M  V30 6074 C 574.919 0.271436 -1.57275 0
M  V30 6075 C 575.119 1.69109 -1.09565 0
M  V30 6076 O 574.175 2.40549 -0.767611 0
M  V30 6077 C 575.488 0.0688638 -3.00621 0
M  V30 6078 C 577.036 0.137373 -3.12698 0
M  V30 6079 C 577.511 -0.0370832 -4.57985 0
M  V30 6080 N 579.002 0.0180794 -4.63196 0
M  V30 6081 C 579.737 -0.0922953 -5.73326 0
M  V30 6082 N 579.233 -0.256948 -6.92323 0
M  V30 6083 N 581.026 -0.0342702 -5.6209 0
M  V30 6084 H 573.177 -1.01288 -1.86693 0
M  V30 6085 H 575.44 -0.396138 -0.861266 0
M  V30 6086 H 575.146 -0.911277 -3.39689 0
M  V30 6087 H 575.02 0.815442 -3.6828 0
M  V30 6088 H 577.407 1.10801 -2.73509 0
M  V30 6089 H 577.488 -0.640532 -2.47651 0
M  V30 6090 H 577.132 -1.00455 -4.97867 0
M  V30 6091 H 577.062 0.760392 -5.21081 0
M  V30 6092 H 579.553 0.143202 -3.77629 0
M  V30 6093 H 579.866 -0.332949 -7.72082 0
M  V30 6094 H 578.211 -0.292487 -6.94384 0
M  V30 6095 H 581.402 0.0931605 -4.68007 0
M  V30 6096 H 581.575 -0.12374 -6.47882 0
M  V30 6097 N 574.981 1.5647 0.188427 0
M  V30 6098 C 576.258 1.71857 0.934058 0
M  V30 6099 C 576.638 0.641867 2.01105 0
M  V30 6100 O 575.986 -0.346098 2.25864 0
M  V30 6101 C 576.196 3.14431 1.5144 0
M  V30 6102 C 577.544 3.74869 1.99396 0
M  V30 6103 O 578.568 3.17601 1.61269 0
M  V30 6104 O 577.427 4.75387 2.69573 0
M  V30 6105 H 574.521 0.701186 0.438483 0
M  V30 6106 H 577.067 1.68768 0.177599 0
M  V30 6107 H 575.839 3.8427 0.738416 0
M  V30 6108 H 575.462 3.21775 2.33552 0
M  V30 6109 N 576.459 -0.456382 1.50847 0
M  V30 6110 C 577.389 -1.56025 1.73719 0
M  V30 6111 C 578.37 -1.5967 0.586473 0
M  V30 6112 O 579.555 -1.75702 0.827185 0
M  V30 6113 C 576.685 -2.94251 1.84483 0
M  V30 6114 C 575.639 -3.05471 2.99786 0
M  V30 6115 C 574.965 -4.45489 2.95709 0
M  V30 6116 C 576.265 -2.81318 4.40065 0
M  V30 6117 H 577.959 -1.37138 2.66146 0
M  V30 6118 H 575.505 -0.658299 1.28072 0
M  V30 6119 H 577.458 -3.71417 1.99067 0
M  V30 6120 H 576.182 -3.14328 0.886891 0
M  V30 6121 H 574.841 -2.30741 2.84876 0
M  V30 6122 H 574.489 -4.62505 1.97732 0
M  V30 6123 H 574.189 -4.53929 3.73125 0
M  V30 6124 H 575.713 -5.24655 3.12362 0
M  V30 6125 H 577.127 -3.48226 4.55425 0
M  V30 6126 H 575.524 -3.01188 5.19043 0
M  V30 6127 H 576.594 -1.7706 4.51418 0
M  V30 6128 N 577.937 -1.40673 -0.710563 0
M  V30 6129 C 579.353 -1.22813 -1.01928 0
M  V30 6130 C 579.553 -0.10687 -2.01216 0
M  V30 6131 O 578.609 0.533614 -2.46797 0
M  V30 6132 C 579.922 -2.57178 -1.5582 0
M  V30 6133 C 581.47 -2.64233 -1.67779 0
M  V30 6134 C 581.945 -3.98879 -2.25076 0
M  V30 6135 N 583.436 -4.00647 -2.32456 0
M  V30 6136 C 584.171 -5.01621 -2.77784 0
M  V30 6137 N 583.667 -6.12989 -3.22826 0
M  V30 6138 N 585.46 -4.88988 -2.77213 0
M  V30 6139 H 577.611 -2.12335 -0.05253 0
M  V30 6140 H 579.874 -0.9441 -0.085898 0
M  V30 6141 H 579.58 -3.39903 -0.903249 0
M  V30 6142 H 579.454 -2.78618 -2.54267 0
M  V30 6143 H 581.841 -1.81876 -2.3239 0
M  V30 6144 H 581.922 -2.46619 -0.679178 0
M  V30 6145 H 581.566 -4.81678 -1.61086 0
M  V30 6146 H 581.496 -4.13826 -3.25661 0
M  V30 6147 H 583.987 -3.20231 -2.0065 0
M  V30 6148 H 584.3 -6.85921 -3.55995 0
M  V30 6149 H 582.645 -6.16547 -3.20773 0
M  V30 6150 H 585.836 -4.01075 -2.41363 0
M  V30 6151 H 586.009 -5.67822 -3.12221 0
M  V30 6152 N 579.415 0.9433 -1.26252 0
M  V30 6153 C 580.64 1.72898 -1.14547 0
M  V30 6154 C 581.065 1.85761 0.295743 0
M  V30 6155 O 580.423 1.3463 1.21427 0
M  V30 6156 C 580.471 3.11471 -1.8171 0
M  V30 6157 O 579.575 3.97336 -1.10445 0
M  V30 6158 H 578.916 0.530555 -0.399259 0
M  V30 6159 H 581.446 1.18159 -1.67032 0
M  V30 6160 H 581.456 3.61872 -1.88449 0
M  V30 6161 H 580.131 3.01425 -2.86558 0
M  V30 6162 H 578.708 3.55788 -1.11666 0
M  V30 6163 N 580.893 1.08022 1.14757 0
M  V30 6164 C 581.856 0.71048 2.1791 0
M  V30 6165 C 582.856 -0.252731 1.58801 0
M  V30 6166 O 584.046 -0.0327915 1.74169 0
M  V30 6167 C 581.178 0.0483203 3.40866 0
M  V30 6168 H 582.371 1.62384 2.52134 0
M  V30 6169 H 579.924 0.877595 1.29337 0
M  V30 6170 H 580.659 -0.876959 3.12218 0
M  V30 6171 H 580.444 0.741189 3.85031 0
M  V30 6172 H 581.934 -0.195471 4.17142 0
M  V30 6173 N 582.371 -1.3172 0.865308 0
M  V30 6174 C 583.319 -2.30569 0.306674 0
M  V30 6175 C 584.313 -1.59317 -0.575724 0
M  V30 6176 O 585.519 -1.73961 -0.462343 0
M  V30 6177 H 581.894 -0.747681 0.0804834 0
M  V30 6178 H 583.865 -2.75165 1.15441 0
M  V30 6179 C 582.614 -3.44358 -0.480952 0
M  V30 6180 H 581.937 -3.99354 0.18876 0
M  V30 6181 H 583.377 -4.15652 -0.837241 0
M  V30 6182 C 581.836 -2.92574 -1.67039 0
M  V30 6183 O 582.366 -2.90954 -2.76964 0
M  V30 6184 N 580.572 -2.48835 -1.50097 0
M  V30 6185 H 580.119 -2.50353 -0.606738 0
M  V30 6186 H 580.077 -2.14543 -2.29823 0
M  V30 6187 N 583.85 -0.624285 -1.44708 0
M  V30 6188 C 585.099 -0.123539 -2.01321 0
M  V30 6189 C 585.412 1.25966 -1.49639 0
M  V30 6190 O 586.618 1.85405 -1.98336 0
M  V30 6191 C 585.074 -0.170124 -3.59498 0
M  V30 6192 C 584.682 -1.55421 -4.20176 0
M  V30 6193 C 586.426 0.274513 -4.23611 0
M  V30 6194 C 584.332 -1.55628 -5.70556 0
M  V30 6195 H 583.263 -0.0424183 -0.752806 0
M  V30 6196 H 585.913 -0.782076 -1.65999 0
M  V30 6197 H 584.296 0.555385 -3.92086 0
M  V30 6198 H 585.47 -2.30276 -3.99136 0
M  V30 6199 H 583.784 -1.94235 -3.68323 0
M  V30 6200 H 586.382 0.292402 -5.339 0
M  V30 6201 H 586.725 1.3005 -3.95465 0
M  V30 6202 H 587.258 -0.398275 -3.95801 0
M  V30 6203 H 583.997 -2.56041 -6.03426 0
M  V30 6204 H 583.517 -0.850563 -5.93739 0
M  V30 6205 H 585.196 -1.28721 -6.34066 0
M  V30 6206 N 585.328 1.53329 -0.364422 0
M  V30 6207 C 586.258 2.28627 0.474543 0
M  V30 6208 C 587.239 1.31009 1.08492 0
M  V30 6209 O 588.424 1.59878 1.10239 0
M  V30 6210 C 585.554 3.07465 1.61501 0
M  V30 6211 C 584.508 4.1276 1.13194 0
M  V30 6212 C 583.834 4.79674 2.36255 0
M  V30 6213 C 585.134 5.21847 0.217507 0
M  V30 6214 H 586.828 2.99005 -0.153656 0
M  V30 6215 H 584.374 1.43803 -0.0753406 0
M  V30 6216 H 586.327 3.58889 2.20855 0
M  V30 6217 H 585.051 2.34775 2.27042 0
M  V30 6218 H 583.71 3.62281 0.56109 0
M  V30 6219 H 583.358 4.03557 3.00251 0
M  V30 6220 H 583.058 5.50827 2.04606 0
M  V30 6221 H 584.582 5.33892 2.96297 0
M  V30 6222 H 585.996 5.6878 0.718493 0
M  V30 6223 H 584.393 6.00099 -0.00806408 0
M  V30 6224 H 585.463 4.7921 -0.740653 0
M  V30 6225 N 586.806 0.0935595 1.57322 0
M  V30 6226 C 588.052 -0.571355 1.94585 0
M  V30 6227 C 588.385 -1.67929 0.975366 0
M  V30 6228 O 587.66 -1.94498 0.00816206 0
M  V30 6229 C 587.943 -1.12797 3.41978 0
M  V30 6230 C 587.796 -0.0251881 4.49793 0
M  V30 6231 C 589.115 -2.02682 3.90651 0
M  V30 6232 H 586.234 -0.206223 0.70756 0
M  V30 6233 H 588.876 0.163956 1.89291 0
M  V30 6234 H 587.026 -1.75461 3.4662 0
M  V30 6235 H 588.698 0.608979 4.57263 0
M  V30 6236 H 586.941 0.641399 4.29032 0
M  V30 6237 H 587.612 -0.455433 5.50118 0
M  V30 6238 H 590.088 -1.49925 3.88152 0
M  V30 6239 H 588.964 -2.38555 4.94351 0
M  V30 6240 H 589.225 -2.94362 3.29854 0
M  V30 6241 N 588.284 -1.56567 -0.180126 0
M  V30 6242 C 589.532 -1.81133 -0.896392 0
M  V30 6243 C 589.853 -0.669114 -1.83161 0
M  V30 6244 O 589.123 0.311616 -1.93406 0
M  V30 6245 H 587.703 -0.668172 -0.333999 0
M  V30 6246 H 590.365 -1.94048 -0.182051 0
M  V30 6247 H 589.461 -2.74854 -1.47857 0
M  V30 6248 N 589.762 0.448376 -1.51087 0
M  V30 6249 C 590.71 1.56407 -1.72161 0
M  V30 6250 C 591.704 1.58878 -0.587721 0
M  V30 6251 O 592.91 1.62755 -0.768822 0
M  V30 6252 H 589.285 0.519423 -0.543786 0
M  V30 6253 H 591.256 1.35803 -2.65707 0
M  V30 6254 C 590.005 2.94163 -1.85373 0
M  V30 6255 H 589.328 2.9299 -2.72024 0
M  V30 6256 H 590.768 3.71625 -2.04135 0
M  V30 6257 C 589.227 3.31317 -0.610803 0
M  V30 6258 O 589.757 4.00985 0.239636 0
M  V30 6259 N 587.963 2.86966 -0.458127 0
M  V30 6260 H 587.51 2.30443 -1.15124 0
M  V30 6261 H 587.468 3.12188 0.372289 0
M  V30 6262 N 591.24 1.41047 0.703093 0
M  V30 6263 C 592.488 1.39723 1.4602 0
M  V30 6264 C 592.809 0.00461257 1.94999 0
M  V30 6265 O 592.079 -0.952292 1.71196 0
M  V30 6266 H 590.659 0.514281 0.541779 0
M  V30 6267 H 593.321 1.76217 0.832678 0
M  V30 6268 H 592.417 2.07982 2.32701 0
M  V30 6269 N 592.718 -0.936591 1.26751 0
M  V30 6270 C 593.648 -2.05315 1.11212 0
M  V30 6271 C 594.629 -1.70092 0.0160262 0
M  V30 6272 O 595.814 -1.93279 0.188894 0
M  V30 6273 C 592.944 -3.39123 0.749171 0
M  V30 6274 C 591.898 -3.88425 1.79751 0
M  V30 6275 C 591.224 -5.18936 1.28876 0
M  V30 6276 C 592.524 -4.12798 3.19992 0
M  V30 6277 H 594.218 -2.18573 2.04613 0
M  V30 6278 H 591.764 -1.05027 0.985159 0
M  V30 6279 H 593.717 -4.16704 0.627323 0
M  V30 6280 H 592.441 -3.25855 -0.220543 0
M  V30 6281 H 591.1 -3.13028 1.90811 0
M  V30 6282 H 590.748 -5.02051 0.308757 0
M  V30 6283 H 590.448 -5.52892 1.98958 0
M  V30 6284 H 591.972 -5.99096 1.17967 0
M  V30 6285 H 593.386 -4.80977 3.11983 0
M  V30 6286 H 591.783 -4.58044 3.87705 0
M  V30 6287 H 592.853 -3.18412 3.65707 0
M  V30 6288 N 594.196 -1.08629 -1.14182 0
M  V30 6289 C 595.445 -0.812271 -1.84621 0
M  V30 6290 C 595.758 0.664313 -1.83973 0
M  V30 6291 O 596.964 1.05357 -2.50224 0
M  V30 6292 C 595.42 -1.4031 -3.31423 0
M  V30 6293 C 595.028 -2.91164 -3.40481 0
M  V30 6294 C 596.772 -1.20767 -4.06959 0
M  V30 6295 C 594.679 -3.43373 -4.81507 0
M  V30 6296 H 593.609 -0.30019 -0.691666 0
M  V30 6297 H 596.26 -1.30798 -1.28701 0
M  V30 6298 H 594.642 -0.835096 -3.87094 0
M  V30 6299 H 595.816 -3.5412 -2.94848 0
M  V30 6300 H 594.131 -3.09646 -2.78403 0
M  V30 6301 H 596.728 -1.57237 -5.11058 0
M  V30 6302 H 597.071 -0.147664 -4.16038 0
M  V30 6303 H 597.604 -1.74274 -3.57594 0
M  V30 6304 H 594.343 -4.48958 -4.77616 0
M  V30 6305 H 593.863 -2.85176 -5.27669 0
M  V30 6306 H 595.542 -3.40095 -5.50404 0
M  V30 6307 N 595.674 1.31259 -0.872281 0
M  V30 6308 C 596.914 1.98418 -0.490894 0
M  V30 6309 C 597.278 1.67429 0.939755 0
M  V30 6310 O 598.479 2.27818 1.42661 0
M  V30 6311 C 596.75 3.49583 -0.743408 0
M  V30 6312 S 598.309 4.36359 -0.462226 0
M  V30 6313 H 595.127 0.687005 -0.183151 0
M  V30 6314 H 597.729 1.59619 -1.12881 0
M  V30 6315 H 596.433 3.69627 -1.78338 0
M  V30 6316 H 595.964 3.93291 -0.0925758 0
M  V30 6317 H 597.979 4.91173 0.704525 0
M  V30 6318 N 597.152 0.631951 1.44375 0
M  V30 6319 C 598.099 -0.0724807 2.30686 0
M  V30 6320 C 599.069 -0.835975 1.43529 0
M  V30 6321 O 600.254 -0.816849 1.7243 0
M  V30 6322 C 597.394 -1.04753 3.28817 0
M  V30 6323 C 596.507 -0.282367 4.31076 0
M  V30 6324 C 595.642 -1.2493 5.163 0
M  V30 6325 C 594.681 -0.473349 6.10267 0
M  V30 6326 N 593.818 -1.39079 6.88187 0
M  V30 6327 H 598.658 0.669477 2.90383 0
M  V30 6328 H 596.195 0.341927 1.43071 0
M  V30 6329 H 598.153 -1.62623 3.842 0
M  V30 6330 H 596.783 -1.75661 2.70819 0
M  V30 6331 H 595.835 0.412268 3.78159 0
M  V30 6332 H 597.147 0.321955 4.9776 0
M  V30 6333 H 596.301 -1.89931 5.76204 0
M  V30 6334 H 595.04 -1.88755 4.49692 0
M  V30 6335 H 594.045 0.190142 5.49471 0
M  V30 6336 H 595.27 0.16019 6.78911 0
M  V30 6337 H 593.216 -2.01623 6.24247 0
M  V30 6338 H 593.133 -0.840513 7.51313 0
M  V30 6339 H 594.401 -2.02961 7.52613 0
M  V30 6340 N 598.631 -1.53133 0.372548 0
M  V30 6341 C 599.88 -2.00539 -0.216115 0
M  V30 6342 C 600.193 -1.26374 -1.49295 0
M  V30 6343 O 601.399 -1.64404 -2.16064 0
M  V30 6344 C 599.855 -3.57253 -0.435678 0
M  V30 6345 C 599.463 -4.40302 0.82693 0
M  V30 6346 C 601.207 -4.12995 -0.981618 0
M  V30 6347 C 599.114 -5.88583 0.576567 0
M  V30 6348 H 598.044 -0.749246 -0.084536 0
M  V30 6349 H 600.695 -1.76771 0.492364 0
M  V30 6350 H 599.077 -3.77202 -1.20559 0
M  V30 6351 H 600.251 -4.32124 1.60017 0
M  V30 6352 H 598.566 -3.95699 1.29659 0
M  V30 6353 H 601.163 -5.21418 -1.18436 0
M  V30 6354 H 601.506 -3.68027 -1.94581 0
M  V30 6355 H 602.039 -3.96871 -0.271696 0
M  V30 6356 H 598.778 -6.37841 1.51128 0
M  V30 6357 H 598.298 -5.99592 -0.158047 0
M  V30 6358 H 599.977 -6.46676 0.204722 0
M  V30 6359 N 600.109 -0.101901 -1.5727 0
M  V30 6360 C 601.072 0.840129 -2.13247 0
M  V30 6361 C 602.072 1.20625 -1.06331 0
M  V30 6362 O 603.262 1.13456 -1.32186 0
M  V30 6363 C 600.394 2.13372 -2.65867 0
M  V30 6364 H 601.587 0.353945 -2.97804 0
M  V30 6365 H 599.14 0.147167 -1.55606 0
M  V30 6366 H 599.875 2.66461 -1.84849 0
M  V30 6367 H 599.66 1.88085 -3.44044 0
M  V30 6368 H 601.15 2.80748 -3.09145 0
M  V30 6369 N 601.587 1.56661 0.17182 0
M  V30 6370 C 602.864 1.72838 0.915778 0
M  V30 6371 C 603.244 0.66316 2.00413 0
M  V30 6372 O 602.592 -0.322123 2.26218 0
M  V30 6373 C 602.802 3.16019 1.48097 0
M  V30 6374 C 604.15 3.76962 1.95408 0
M  V30 6375 O 605.174 3.19294 1.57892 0
M  V30 6376 O 604.033 4.78219 2.64516 0
M  V30 6377 H 601.127 0.705797 0.431021 0
M  V30 6378 H 603.673 1.68947 0.159689 0
M  V30 6379 H 602.445 3.85031 0.697618 0
M  V30 6380 H 602.068 3.24234 2.30126 0
M  V30 6381 N 603.065 -0.440357 1.51323 0
M  V30 6382 C 604.312 -1.19004 1.63842 0
M  V30 6383 C 604.64 -1.91266 0.35321 0
M  V30 6384 O 603.895 -1.84143 -0.662565 0
M  V30 6385 C 604.194 -2.2339 2.78984 0
M  V30 6386 C 603.86 -1.68162 4.18369 0
M  V30 6387 C 602.522 -1.52823 4.56288 0
M  V30 6388 C 604.874 -1.27524 5.05358 0
M  V30 6389 C 602.202 -0.953157 5.78906 0
M  V30 6390 C 604.554 -0.714474 6.28552 0
M  V30 6391 C 603.218 -0.547961 6.65247 0
M  V30 6392 H 602.488 -0.435468 0.59954 0
M  V30 6393 H 605.135 -0.481538 1.85347 0
M  V30 6394 H 603.44 -3.00267 2.51688 0
M  V30 6395 H 605.137 -2.81211 2.85869 0
M  V30 6396 H 601.727 -1.81077 3.8847 0
M  V30 6397 H 605.911 -1.38197 4.76671 0
M  V30 6398 H 601.167 -0.811882 6.05986 0
M  V30 6399 H 605.341 -0.391059 6.95301 0
M  V30 6400 H 602.968 -0.100222 7.60134 0
M  V30 6401 N 604.543 -1.41418 -0.695603 0
M  V30 6402 C 605.791 -1.40496 -1.45277 0
M  V30 6403 C 606.112 -0.0149538 -1.94994 0
M  V30 6404 O 605.382 0.9432 -1.71699 0
M  V30 6405 H 603.962 -0.517147 -0.539044 0
M  V30 6406 H 606.624 -1.76656 -0.823321 0
M  V30 6407 H 605.72 -2.09214 -2.31595 0
M  V30 6408 N 606.021 0.929856 -1.27246 0
M  V30 6409 C 606.951 2.04722 -1.12299 0
M  V30 6410 C 607.932 1.70082 -0.0250464 0
M  V30 6411 O 609.117 1.93176 -0.199141 0
M  V30 6412 C 606.247 3.38721 -0.767145 0
M  V30 6413 C 605.201 3.87466 -1.81808 0
M  V30 6414 C 604.527 5.18246 -1.31626 0
M  V30 6415 C 605.827 4.11095 -3.22177 0
M  V30 6416 H 607.521 2.17485 -2.05769 0
M  V30 6417 H 605.067 1.04503 -0.990715 0
M  V30 6418 H 607.02 4.16366 -0.649413 0
M  V30 6419 H 605.744 3.25967 0.203259 0
M  V30 6420 H 604.403 3.12012 -1.92468 0
M  V30 6421 H 604.051 5.01881 -0.335378 0
M  V30 6422 H 603.751 5.51829 -2.01887 0
M  V30 6423 H 605.275 5.98462 -1.21143 0
M  V30 6424 H 606.689 4.79316 -3.1453 0
M  V30 6425 H 605.086 4.55982 -3.90129 0
M  V30 6426 H 606.156 3.16468 -3.67391 0
M  V30 6427 N 607.499 1.09233 1.13605 0
M  V30 6428 C 608.462 0.733553 2.17144 0
M  V30 6429 C 609.462 -0.235873 1.59061 0
M  V30 6430 O 610.652 -0.0143167 1.74194 0
M  V30 6431 C 607.784 0.084471 3.40795 0
M  V30 6432 H 608.977 1.65049 2.50397 0
M  V30 6433 H 606.53 0.891264 1.28399 0
M  V30 6434 H 607.265 -0.843795 3.1313 0
M  V30 6435 H 607.05 0.781985 3.84223 0
M  V30 6436 H 608.54 -0.151216 4.17326 0
M  V30 6437 N 608.977 -1.30795 0.87923 0
M  V30 6438 C 610.393 -1.48981 0.57243 0
M  V30 6439 C 610.593 -1.80719 -0.891236 0
M  V30 6440 O 609.649 -1.89136 -1.67283 0
M  V30 6441 C 610.962 -2.61721 1.48063 0
M  V30 6442 C 612.51 -2.75603 1.48365 0
M  V30 6443 C 612.985 -3.91449 2.37763 0
M  V30 6444 N 614.476 -3.98751 2.35695 0
M  V30 6445 C 615.211 -4.87684 3.01583 0
M  V30 6446 N 614.707 -5.81454 3.76674 0
M  V30 6447 N 616.5 -4.81005 2.90844 0
M  V30 6448 H 608.651 -1.08465 1.82617 0
M  V30 6449 H 610.914 -0.536813 0.781368 0
M  V30 6450 H 610.62 -2.45073 2.52254 0
M  V30 6451 H 610.494 -3.58071 1.18596 0
M  V30 6452 H 612.881 -2.9166 0.44927 0
M  V30 6453 H 612.962 -1.79891 1.81859 0
M  V30 6454 H 612.606 -3.76149 3.41283 0
M  V30 6455 H 612.536 -4.86487 2.01589 0
M  V30 6456 H 615.027 -3.31668 1.81121 0
M  V30 6457 H 615.34 -6.46063 4.24054 0
M  V30 6458 H 613.685 -5.81403 3.80782 0
M  V30 6459 H 616.876 -4.06728 2.31711 0
M  V30 6460 H 617.049 -5.50107 3.42471 0
M  V30 6461 N 610.455 -0.639598 -1.44038 0
M  V30 6462 C 611.385 0.0469443 -2.33453 0
M  V30 6463 C 612.366 0.82609 -1.48694 0
M  V30 6464 O 613.551 0.790285 -1.77393 0
M  V30 6465 C 610.681 1.02338 -3.3188 0
M  V30 6466 C 609.635 0.355284 -4.26523 0
M  V30 6467 C 608.961 1.44221 -5.14883 0
M  V30 6468 C 610.261 -0.743798 -5.16977 0
M  V30 6469 H 611.955 -0.699735 -2.91108 0
M  V30 6470 H 609.501 -0.337946 -1.39978 0
M  V30 6471 H 611.454 1.51247 -3.93322 0
M  V30 6472 H 610.178 1.80105 -2.72451 0
M  V30 6473 H 608.837 -0.113239 -3.66425 0
M  V30 6474 H 608.485 2.21097 -4.51802 0
M  V30 6475 H 608.185 1.00052 -5.79019 0
M  V30 6476 H 609.709 1.93295 -5.79197 0
M  V30 6477 H 611.123 -0.337444 -5.72306 0
M  V30 6478 H 609.52 -1.10914 -5.89761 0
M  V30 6479 H 610.59 -1.60745 -4.57481 0
M  V30 6480 N 611.933 1.52934 -0.380664 0
M  V30 6481 C 613.182 2.00651 0.205477 0
M  V30 6482 C 613.495 1.27164 1.48623 0
M  V30 6483 O 614.701 1.65547 2.15189 0
M  V30 6484 C 613.157 3.57479 0.416726 0
M  V30 6485 C 612.765 4.39857 -0.850268 0
M  V30 6486 C 614.509 4.13509 0.959702 0
M  V30 6487 C 612.416 5.88269 -0.607773 0
M  V30 6488 H 611.346 0.749684 0.0805614 0
M  V30 6489 H 613.997 1.76508 -0.501732 0
M  V30 6490 H 612.379 3.77836 1.18557 0
M  V30 6491 H 613.553 4.31269 -1.62307 0
M  V30 6492 H 611.868 3.95005 -1.31756 0
M  V30 6493 H 614.465 5.22039 1.15669 0
M  V30 6494 H 614.808 3.69054 1.92626 0
M  V30 6495 H 615.341 3.9701 0.250645 0
M  V30 6496 H 612.08 6.3703 -1.54509 0
M  V30 6497 H 611.6 5.99667 0.126247 0
M  V30 6498 H 613.279 6.46558 -0.239014 0
M  V30 6499 N 613.412 0.11024 1.57214 0
M  V30 6500 C 614.322 -0.857077 2.18383 0
M  V30 6501 C 615.338 -1.29915 1.1575 0
M  V30 6502 O 616.514 -1.36394 1.48184 0
M  V30 6503 C 613.579 -2.09264 2.76423 0
M  V30 6504 C 612.64 -1.70333 3.94063 0
M  V30 6505 C 611.873 -2.87999 4.49324 0
M  V30 6506 O 612.096 -4.0317 4.03497 0
M  V30 6507 O 611.03 -2.6559 5.40135 0
M  V30 6508 H 614.856 -0.366561 3.0148 0
M  V30 6509 H 612.441 -0.114914 1.48957 0
M  V30 6510 H 614.323 -2.81644 3.13456 0
M  V30 6511 H 612.998 -2.57339 1.96363 0
M  V30 6512 H 611.905 -0.950864 3.61814 0
M  V30 6513 H 613.238 -1.27007 4.75531 0
M  V30 6514 N 614.89 -1.56749 -0.16351 0
M  V30 6515 C 616.167 -1.73321 -0.906599 0
M  V30 6516 C 616.547 -0.673779 -2.00059 0
M  V30 6517 O 615.895 0.310121 -2.26386 0
M  V30 6518 C 616.105 -3.168 -1.46419 0
M  V30 6519 C 617.453 -3.77993 -1.93407 0
M  V30 6520 O 618.477 -3.20127 -1.56196 0
M  V30 6521 O 617.336 -4.79615 -2.61976 0
M  V30 6522 H 614.43 -0.708073 -0.427272 0
M  V30 6523 H 616.976 -1.69029 -0.150727 0
M  V30 6524 H 615.748 -3.85396 -0.677189 0
M  V30 6525 H 615.371 -3.2545 -2.28403 0
M  V30 6526 N 616.368 0.432326 -1.51554 0
M  V30 6527 C 617.316 1.54572 -1.73811 0
M  V30 6528 C 618.31 1.58246 -0.604539 0
M  V30 6529 O 619.516 1.6193 -0.786041 0
M  V30 6530 H 615.891 0.513626 -0.549265 0
M  V30 6531 H 617.862 1.32977 -2.67132 0
M  V30 6532 C 616.611 2.92181 -1.88483 0
M  V30 6533 H 615.934 2.90088 -2.75116 0
M  V30 6534 H 617.374 3.69439 -2.08065 0
M  V30 6535 C 615.833 3.3065 -0.645909 0
M  V30 6536 O 616.363 4.01216 0.197093 0
M  V30 6537 N 614.569 2.86464 -0.488538 0
M  V30 6538 H 614.116 2.29209 -1.17562 0
M  V30 6539 H 614.074 3.12565 0.339156 0
M  V30 6540 N 617.846 1.41785 0.688094 0
M  V30 6541 C 618.756 1.46596 1.83158 0
M  V30 6542 C 619.772 0.355862 1.70322 0
M  V30 6543 O 620.948 0.604737 1.92106 0
M  V30 6544 C 618.013 1.35322 3.192 0
M  V30 6545 C 617.074 2.56711 3.4409 0
M  V30 6546 C 616.307 2.45965 4.73642 0
M  V30 6547 O 616.53 1.48827 5.50642 0
M  V30 6548 O 615.464 3.35859 4.99482 0
M  V30 6549 H 619.29 2.43083 1.82056 0
M  V30 6550 H 616.875 1.23404 0.842126 0
M  V30 6551 H 618.757 1.31347 4.00407 0
M  V30 6552 H 617.432 0.419536 3.2097 0
M  V30 6553 H 616.339 2.66262 2.62784 0
M  V30 6554 H 617.672 3.48933 3.47141 0
M  V30 6555 N 619.324 -0.923095 1.27737 0
M  V30 6556 C 620.554 -1.70277 1.17001 0
M  V30 6557 C 620.962 -1.87188 -0.275199 0
M  V30 6558 O 620.305 -1.39195 -1.19877 0
M  V30 6559 C 620.367 -3.11976 1.78637 0
M  V30 6560 C 620.031 -3.18386 3.27841 0
M  V30 6561 C 621.028 -3.00287 4.2441 0
M  V30 6562 C 618.713 -3.41198 3.68632 0
M  V30 6563 C 620.707 -3.04896 5.59747 0
M  V30 6564 C 618.394 -3.4544 5.04097 0
M  V30 6565 C 619.392 -3.27309 5.99465 0
M  V30 6566 O 619.08 -3.31295 7.32461 0
M  V30 6567 H 618.812 -0.539366 0.407505 0
M  V30 6568 H 621.366 -1.16446 1.69202 0
M  V30 6569 H 619.596 -3.67308 1.20919 0
M  V30 6570 H 621.285 -3.7193 1.6255 0
M  V30 6571 H 622.051 -2.825 3.94232 0
M  V30 6572 H 617.93 -3.54359 2.94873 0
M  V30 6573 H 621.474 -2.90662 6.34162 0
M  V30 6574 H 617.371 -3.62753 5.33929 0
M  V30 6575 H 618.139 -3.47719 7.40968 0
M  V30 6576 N 620.802 -1.09834 -1.13024 0
M  V30 6577 C 622.03 -0.858902 -1.8823 0
M  V30 6578 C 622.445 0.590164 -1.79339 0
M  V30 6579 O 621.802 1.4065 -1.16292 0
M  V30 6580 C 621.853 -1.29066 -3.37675 0
M  V30 6581 O 621.574 -2.6829 -3.46341 0
M  V30 6582 C 623.075 -1.08421 -4.29837 0
M  V30 6583 H 620.295 -0.308713 -0.595766 0
M  V30 6584 H 622.839 -1.4614 -1.4305 0
M  V30 6585 H 620.994 -0.731961 -3.80422 0
M  V30 6586 H 621.408 -2.86598 -4.39274 0
M  V30 6587 H 622.882 -1.43553 -5.33007 0
M  V30 6588 H 623.359 -0.0223315 -4.39194 0
M  V30 6589 H 623.965 -1.62907 -3.92863 0
M  V30 6590 N 622.28 1.30327 -0.886154 0
M  V30 6591 C 623.243 2.26376 -0.358687 0
M  V30 6592 C 624.243 1.52845 0.499498 0
M  V30 6593 O 625.433 1.71483 0.306485 0
M  V30 6594 C 622.565 3.37379 0.488726 0
M  V30 6595 H 623.758 2.74547 -1.20681 0
M  V30 6596 H 621.311 1.41536 -0.663113 0
M  V30 6597 H 622.046 2.94526 1.35739 0
M  V30 6598 H 621.831 3.91897 -0.126003 0
M  V30 6599 H 623.321 4.08868 0.84952 0
M  V30 6600 N 623.758 0.647228 1.43697 0
M  V30 6601 C 625.174 0.314256 1.56476 0
M  V30 6602 C 625.374 -1.18191 1.63196 0
M  V30 6603 O 624.43 -1.96655 1.58376 0
M  V30 6604 C 625.743 1.02034 2.82859 0
M  V30 6605 C 627.291 1.00002 2.96595 0
M  V30 6606 C 627.766 1.68689 4.25803 0
M  V30 6607 N 629.257 1.65424 4.32654 0
M  V30 6608 C 629.992 2.1545 5.31384 0
M  V30 6609 N 629.488 2.73738 6.36427 0
M  V30 6610 N 631.281 2.05985 5.22998 0
M  V30 6611 H 623.432 1.61821 1.37578 0
M  V30 6612 H 625.695 0.680184 0.660344 0
M  V30 6613 H 625.401 2.07542 2.83935 0
M  V30 6614 H 625.275 0.568146 3.72897 0
M  V30 6615 H 627.662 -0.0466319 2.95063 0
M  V30 6616 H 627.743 1.49086 2.07863 0
M  V30 6617 H 627.387 2.73308 4.28095 0
M  V30 6618 H 627.317 1.17076 5.13421 0
M  V30 6619 H 629.808 1.22884 3.57363 0
M  V30 6620 H 630.121 3.09602 7.08072 0
M  V30 6621 H 628.466 2.77796 6.37067 0
M  V30 6622 H 631.657 1.60157 4.39849 0
M  V30 6623 H 631.83 2.45281 5.99784 0
M  V30 6624 N 625.236 -1.5273 0.388769 0
M  V30 6625 C 626.168 -2.24081 -0.481704 0
M  V30 6626 C 627.181 -1.26307 -1.02715 0
M  V30 6627 O 628.37 -1.52386 -0.929565 0
M  V30 6628 C 625.47 -2.94315 -1.68024 0
M  V30 6629 C 624.643 -4.18791 -1.26226 0
M  V30 6630 C 623.702 -4.72028 -2.32542 0
M  V30 6631 O 622.728 -5.35129 -1.93972 0
M  V30 6632 N 623.93 -4.51838 -3.64448 0
M  V30 6633 H 626.695 -2.9942 0.129591 0
M  V30 6634 H 624.256 -1.60465 0.2151 0
M  V30 6635 H 626.248 -3.26831 -2.38671 0
M  V30 6636 H 624.818 -2.22287 -2.19789 0
M  V30 6637 H 624.038 -3.92318 -0.384703 0
M  V30 6638 H 625.326 -4.99668 -0.959647 0
M  V30 6639 H 624.724 -4.01468 -3.98547 0
M  V30 6640 H 623.281 -4.88845 -4.31131 0
M  V30 6641 N 626.714 -0.118576 -1.57153 0
M  V30 6642 C 627.962 0.538461 -1.94795 0
M  V30 6643 C 628.283 1.67243 -1.00274 0
M  V30 6644 O 627.553 1.95811 -0.0589692 0
M  V30 6645 H 626.133 0.201904 -0.719197 0
M  V30 6646 H 628.795 -0.187418 -1.93997 0
M  V30 6647 H 627.891 0.933315 -2.97818 0
M  V30 6648 N 628.193 1.56834 0.155195 0
M  V30 6649 C 629.156 1.96748 1.17571 0
M  V30 6650 C 630.156 0.853006 1.3631 0
M  V30 6651 O 631.346 1.11978 1.33441 0
M  V30 6652 C 628.478 2.27631 2.53765 0
M  V30 6653 H 629.671 2.88085 0.833498 0
M  V30 6654 H 627.224 1.51141 0.398242 0
M  V30 6655 H 627.959 1.39059 2.92973 0
M  V30 6656 H 627.744 3.0888 2.41527 0
M  V30 6657 H 629.234 2.59377 3.27282 0
M  V30 6658 N 629.671 -0.424282 1.51781 0
M  V30 6659 C 630.618 -1.51591 1.74037 0
M  V30 6660 C 631.588 -1.55556 0.582358 0
M  V30 6661 O 632.773 -1.72364 0.818245 0
M  V30 6662 C 629.913 -2.89188 1.8832 0
M  V30 6663 C 629.026 -2.9465 3.1592 0
M  V30 6664 C 628.161 -4.23452 3.20721 0
M  V30 6665 C 627.2 -4.22831 4.42584 0
M  V30 6666 N 626.337 -5.43178 4.44862 0
M  V30 6667 H 631.177 -1.31917 2.67212 0
M  V30 6668 H 628.714 -0.640599 1.32419 0
M  V30 6669 H 630.672 -3.69044 1.94583 0
M  V30 6670 H 629.302 -3.07392 0.985402 0
M  V30 6671 H 628.354 -2.07378 3.18902 0
M  V30 6672 H 629.666 -2.90055 4.05795 0
M  V30 6673 H 628.82 -5.1169 3.25973 0
M  V30 6674 H 627.559 -4.30722 2.28757 0
M  V30 6675 H 626.564 -3.32984 4.37495 0
M  V30 6676 H 627.789 -4.17213 5.35826 0
M  V30 6677 H 625.735 -5.51145 3.55775 0
M  V30 6678 H 625.652 -5.40515 5.28563 0
M  V30 6679 H 626.92 -6.33412 4.54324 0
M  V30 6680 N 631.149 -1.42148 -0.680565 0
M  V30 6681 C 632.396 -1.4231 -1.44063 0
M  V30 6682 C 632.724 -0.037488 -1.94464 0
M  V30 6683 O 631.979 0.953184 -1.70918 0
M  V30 6684 C 632.278 -2.38945 -2.65782 0
M  V30 6685 C 631.944 -3.85455 -2.33956 0
M  V30 6686 C 630.606 -4.25364 -2.24987 0
M  V30 6687 C 632.958 -4.77895 -2.08004 0
M  V30 6688 C 630.286 -5.55701 -1.88184 0
M  V30 6689 C 632.638 -6.08568 -1.72706 0
M  V30 6690 C 631.302 -6.47482 -1.62244 0
M  V30 6691 H 630.572 -0.520748 -0.527164 0
M  V30 6692 H 633.219 -1.7505 -0.776524 0
M  V30 6693 H 631.524 -1.99511 -3.37198 0
M  V30 6694 H 633.221 -2.36336 -3.23954 0
M  V30 6695 H 629.811 -3.53855 -2.41836 0
M  V30 6696 H 633.995 -4.47854 -2.1387 0
M  V30 6697 H 629.251 -5.84718 -1.78648 0
M  V30 6698 H 633.425 -6.79688 -1.5165 0
M  V30 6699 H 631.052 -7.48387 -1.33496 0
M  V30 6700 N 632.627 0.916307 -1.28225 0
M  V30 6701 C 634.038 1.48024 -1.13779 0
M  V30 6702 C 634.389 1.94289 0.273139 0
M  V30 6703 O 633.514 1.82226 1.16716 0
M  V30 6704 C 634.109 2.69029 -2.05935 0
M  V30 6705 C 632.668 3.2161 -1.95561 0
M  V30 6706 C 631.815 1.94321 -1.97825 0
M  V30 6707 H 634.766 0.729272 -1.40951 0
M  V30 6708 H 634.787 3.44204 -1.62184 0
M  V30 6709 H 634.299 2.35325 -3.08616 0
M  V30 6710 H 632.4 3.60045 -0.959076 0
M  V30 6711 H 632.513 3.87032 -2.82388 0
M  V30 6712 H 630.877 2.1131 -1.42198 0
M  V30 6713 H 631.66 1.62917 -3.0218 0
M  V30 6714 N 634.105 1.10431 1.1244 0
M  V30 6715 C 635.354 0.841539 1.83306 0
M  V30 6716 C 635.667 -0.634961 1.85007 0
M  V30 6717 O 636.873 -1.01363 2.51869 0
M  V30 6718 C 635.329 1.45565 3.29149 0
M  V30 6719 C 634.937 2.96544 3.35806 0
M  V30 6720 C 636.681 1.27227 4.04986 0
M  V30 6721 C 634.588 3.5099 4.75983 0
M  V30 6722 H 633.518 0.311156 0.686803 0
M  V30 6723 H 636.169 1.32829 1.26604 0
M  V30 6724 H 634.551 0.896574 3.85717 0
M  V30 6725 H 635.725 3.58766 2.89177 0
M  V30 6726 H 634.04 3.14036 2.73442 0
M  V30 6727 H 636.637 1.65348 5.08492 0
M  V30 6728 H 636.98 0.213834 4.1575 0
M  V30 6729 H 637.513 1.79941 3.54776 0
M  V30 6730 H 634.252 4.56499 4.70413 0
M  V30 6731 H 633.772 2.93535 5.23065 0
M  V30 6732 H 635.451 3.48808 5.44924 0
M  V30 6733 N 635.583 -1.29855 0.893053 0
M  V30 6734 C 636.53 -2.27909 0.364161 0
M  V30 6735 C 637.5 -1.56726 -0.550093 0
M  V30 6736 O 638.685 -1.84747 -0.47677 0
M  V30 6737 C 635.825 -3.42678 -0.408178 0
M  V30 6738 C 634.938 -4.28659 0.536212 0
M  V30 6739 C 634.073 -5.30599 -0.252521 0
M  V30 6740 C 633.112 -6.08234 0.686822 0
M  V30 6741 N 632.249 -7.02068 -0.0670902 0
M  V30 6742 H 637.089 -2.72531 1.20544 0
M  V30 6743 H 634.626 -1.34047 0.605779 0
M  V30 6744 H 636.584 -4.07986 -0.871962 0
M  V30 6745 H 635.214 -2.99103 -1.21397 0
M  V30 6746 H 634.266 -3.63584 1.1185 0
M  V30 6747 H 635.578 -4.8274 1.25552 0
M  V30 6748 H 634.732 -6.01694 -0.777801 0
M  V30 6749 H 633.471 -4.77233 -1.005 0
M  V30 6750 H 632.476 -5.3601 1.22366 0
M  V30 6751 H 633.701 -6.63689 1.43852 0
M  V30 6752 H 631.647 -6.5108 -0.801955 0
M  V30 6753 H 631.564 -7.53675 0.59243 0
M  V30 6754 H 632.832 -7.77392 -0.572851 0
M  V30 6755 N 637.061 -0.65484 -1.43351 0
M  V30 6756 C 638.307 -0.177749 -2.02622 0
M  V30 6757 C 638.662 1.19553 -1.50748 0
M  V30 6758 O 637.955 1.78683 -0.691599 0
M  V30 6759 C 638.149 -0.130424 -3.57162 0
M  V30 6760 C 637.978 -1.49757 -4.24032 0
M  V30 6761 C 636.748 -2.09036 -4.60035 0
M  V30 6762 C 638.946 -2.4363 -4.52934 0
M  V30 6763 N 636.928 -3.3874 -5.11985 0
M  V30 6764 C 638.299 -3.57968 -5.0622 0
M  V30 6765 C 640.354 -2.42412 -4.34903 0
M  V30 6766 C 639.057 -4.71314 -5.43374 0
M  V30 6767 C 641.083 -3.5484 -4.7312 0
M  V30 6768 C 640.445 -4.67903 -5.26541 0
M  V30 6769 H 636.544 -0.10951 -0.774294 0
M  V30 6770 H 639.128 -0.863495 -1.74505 0
M  V30 6771 H 637.299 0.524671 -3.8484 0
M  V30 6772 H 639.031 0.35769 -4.03116 0
M  V30 6773 H 635.786 -1.61729 -4.4513 0
M  V30 6774 H 636.21 -4.05116 -5.42412 0
M  V30 6775 H 640.852 -1.56236 -3.92874 0
M  V30 6776 H 638.57 -5.5818 -5.84346 0
M  V30 6777 H 642.156 -3.55101 -4.60863 0
M  V30 6778 H 641.036 -5.5346 -5.55564 0
M  V30 6779 N 638.539 1.52521 -0.396863 0
M  V30 6780 C 639.767 2.06091 0.18275 0
M  V30 6781 C 640.182 1.26796 1.39886 0
M  V30 6782 O 639.539 0.316585 1.79733 0
M  V30 6783 C 639.59 3.57362 0.545377 0
M  V30 6784 O 639.311 4.33656 -0.622428 0
M  V30 6785 C 640.812 4.27305 1.18004 0
M  V30 6786 H 638.032 0.670504 0.025789 0
M  V30 6787 H 640.576 1.96561 -0.564276 0
M  V30 6788 H 638.731 3.66941 1.2423 0
M  V30 6789 H 639.145 5.23507 -0.322662 0
M  V30 6790 H 640.619 5.34366 1.38408 0
M  V30 6791 H 641.096 3.83 2.1496 0
M  V30 6792 H 641.702 4.22064 0.523671 0
M  V30 6793 N 640.017 0.126909 1.57088 0
M  V30 6794 C 640.98 -0.806097 2.14557 0
M  V30 6795 C 641.98 -1.18918 1.08236 0
M  V30 6796 O 643.17 -1.11339 1.33975 0
M  V30 6797 C 640.302 -2.09116 2.69227 0
M  V30 6798 H 641.495 -0.306522 2.98329 0
M  V30 6799 H 639.048 -0.122393 1.5582 0
M  V30 6800 H 639.783 -2.63486 1.89065 0
M  V30 6801 H 639.568 -1.82588 3.46993 0
M  V30 6802 H 641.058 -2.75794 3.13572 0
M  V30 6803 N 641.495 -1.56914 -0.146875 0
M  V30 6804 C 642.906 -1.72799 -0.706928 0
M  V30 6805 C 643.257 -0.741329 -1.81656 0
M  V30 6806 O 642.382 0.0920162 -2.16204 0
M  V30 6807 C 642.977 -3.13317 -1.28911 0
M  V30 6808 C 641.536 -3.30803 -1.79573 0
M  V30 6809 C 640.683 -2.68725 -0.684252 0
M  V30 6810 H 643.634 -1.58504 0.0787931 0
M  V30 6811 H 643.655 -3.13323 -2.15891 0
M  V30 6812 H 643.167 -3.85104 -0.481284 0
M  V30 6813 H 641.268 -2.64012 -2.62923 0
M  V30 6814 H 641.381 -4.38754 -1.92436 0
M  V30 6815 H 639.745 -2.29196 -1.11091 0
M  V30 6816 H 640.528 -3.43117 0.112134 0
M  V30 6817 N 642.974 0.416227 -1.52004 0
M  V30 6818 C 643.884 1.53147 -1.77717 0
M  V30 6819 C 644.9 1.609 -0.662368 0
M  V30 6820 O 646.076 1.77747 -0.946991 0
M  V30 6821 C 643.141 2.88948 -1.91598 0
M  V30 6822 C 642.202 2.9114 -3.15493 0
M  V30 6823 C 641.435 4.20464 -3.28703 0
M  V30 6824 O 641.658 5.13981 -2.47345 0
M  V30 6825 O 640.592 4.29368 -4.21813 0
M  V30 6826 H 644.418 1.34357 -2.72363 0
M  V30 6827 H 642.003 0.601373 -1.36762 0
M  V30 6828 H 643.885 3.69505 -2.02593 0
M  V30 6829 H 642.56 3.07821 -1.00141 0
M  V30 6830 H 641.467 2.09461 -3.09962 0
M  V30 6831 H 642.8 2.77216 -4.06709 0
M  V30 6832 N 644.452 1.42507 0.673017 0
M  V30 6833 C 645.415 1.4582 1.76831 0
M  V30 6834 C 646.415 0.345542 1.57043 0
M  V30 6835 O 647.605 0.606447 1.63303 0
M  V30 6836 C 644.737 1.29158 3.15485 0
M  V30 6837 H 645.93 2.43345 1.7528 0
M  V30 6838 H 643.483 1.28981 0.882817 0
M  V30 6839 H 644.218 0.325626 3.22661 0
M  V30 6840 H 644.003 2.09797 3.31252 0
M  V30 6841 H 645.493 1.34363 3.95394 0
M  V30 6842 N 645.93 -0.909495 1.28709 0
M  V30 6843 C 646.893 -1.99399 1.13016 0
M  V30 6844 C 647.893 -1.60654 0.068536 0
M  V30 6845 O 649.083 -1.71334 0.314671 0
M  V30 6846 C 646.215 -3.33078 0.726085 0
M  V30 6847 H 647.408 -2.14751 2.09338 0
M  V30 6848 H 644.961 -1.09272 1.11756 0
M  V30 6849 H 645.696 -3.23428 -0.23771 0
M  V30 6850 H 645.481 -3.62562 1.49302 0
M  V30 6851 H 646.971 -4.12681 0.639058 0
M  V30 6852 N 647.408 -1.11026 -1.11852 0
M  V30 6853 C 648.338 -0.786812 -2.19844 0
M  V30 6854 C 649.319 0.242935 -1.68356 0
M  V30 6855 O 650.504 0.107355 -1.93903 0
M  V30 6856 C 647.634 -0.224516 -3.46574 0
M  V30 6857 C 646.588 -1.18564 -4.1125 0
M  V30 6858 C 645.914 -0.484261 -5.32503 0
M  V30 6859 C 647.214 -2.53465 -4.56676 0
M  V30 6860 H 648.908 -1.68978 -2.47158 0
M  V30 6861 H 646.454 -0.813906 -1.18792 0
M  V30 6862 H 648.407 0.0139435 -4.21398 0
M  V30 6863 H 647.131 0.713722 -3.18706 0
M  V30 6864 H 645.79 -1.40966 -3.38414 0
M  V30 6865 H 645.438 0.458646 -5.00905 0
M  V30 6866 H 645.138 -1.12526 -5.76725 0
M  V30 6867 H 646.662 -0.254492 -6.10069 0
M  V30 6868 H 648.076 -2.35177 -5.22843 0
M  V30 6869 H 646.473 -3.13507 -5.11697 0
M  V30 6870 H 647.543 -3.13008 -3.70343 0
M  V30 6871 N 648.886 1.2938 -0.899927 0
M  V30 6872 C 650.116 1.99402 -0.540601 0
M  V30 6873 C 650.524 1.67534 0.87914 0
M  V30 6874 O 649.867 0.916821 1.59186 0
M  V30 6875 C 649.929 3.53514 -0.653326 0
M  V30 6876 C 649.593 4.08937 -2.04009 0
M  V30 6877 C 650.59 4.23815 -3.01126 0
M  V30 6878 C 648.275 4.43962 -2.34953 0
M  V30 6879 C 650.269 4.72951 -4.27313 0
M  V30 6880 C 647.956 4.92795 -3.61382 0
M  V30 6881 C 648.954 5.07244 -4.57376 0
M  V30 6882 O 648.642 5.55017 -5.8156 0
M  V30 6883 H 648.374 0.64383 -0.206057 0
M  V30 6884 H 650.928 1.65878 -1.21134 0
M  V30 6885 H 649.158 3.86628 0.0744449 0
M  V30 6886 H 650.847 4.04767 -0.303118 0
M  V30 6887 H 651.613 3.97043 -2.78535 0
M  V30 6888 H 647.492 4.31974 -1.60994 0
M  V30 6889 H 651.036 4.84144 -5.02245 0
M  V30 6890 H 646.933 5.19004 -3.83804 0
M  V30 6891 H 647.701 5.73331 -5.84153 0
M  V30 6892 N 650.364 0.662433 1.43002 0
M  V30 6893 C 651.612 0.179237 2.01304 0
M  V30 6894 C 651.933 -1.21428 1.52579 0
M  V30 6895 O 651.203 -1.81294 0.742252 0
M  V30 6896 H 649.783 0.0632725 0.744316 0
M  V30 6897 H 652.445 0.856169 1.75088 0
M  V30 6898 H 651.541 0.170957 3.11631 0
M  V30 6899 N 651.842 -1.52309 0.404946 0
M  V30 6900 C 653.258 -1.59503 0.0556255 0
M  V30 6901 C 653.458 -1.41805 -1.43156 0
M  V30 6902 O 652.514 -1.2429 -2.19792 0
M  V30 6903 C 653.827 -2.95687 0.546801 0
M  V30 6904 C 655.375 -3.08909 0.504413 0
M  V30 6905 C 655.85 -4.47566 0.97203 0
M  V30 6906 N 657.341 -4.53795 0.928679 0
M  V30 6907 C 658.076 -5.59346 1.26174 0
M  V30 6908 N 657.572 -6.72469 1.66604 0
M  V30 6909 N 659.365 -5.49532 1.18198 0
M  V30 6910 H 651.516 -1.6206 1.37296 0
M  V30 6911 H 653.779 -0.762161 0.563751 0
M  V30 6912 H 653.485 -3.13905 1.58609 0
M  V30 6913 H 653.359 -3.77172 -0.0457905 0
M  V30 6914 H 655.746 -2.90378 -0.525819 0
M  V30 6915 H 655.827 -2.2934 1.13301 0
M  V30 6916 H 655.471 -4.6684 2.00057 0
M  V30 6917 H 655.401 -5.25625 0.320292 0
M  V30 6918 H 657.892 -3.72588 0.631369 0
M  V30 6919 H 658.205 -7.48993 1.9034 0
M  V30 6920 H 656.55 -6.73761 1.70504 0
M  V30 6921 H 659.741 -4.60038 0.865011 0
M  V30 6922 H 659.914 -6.31687 1.44485 0
M  V30 6923 N 653.32 -0.135238 -1.57019 0
M  V30 6924 C 654.567 0.518794 -1.95742 0
M  V30 6925 C 654.895 1.65642 -1.01947 0
M  V30 6926 O 654.15 1.95645 -0.0464016 0
M  V30 6927 C 654.449 1.07694 -3.40788 0
M  V30 6928 C 654.115 0.058992 -4.50861 0
M  V30 6929 C 652.777 -0.220872 -4.80693 0
M  V30 6930 C 655.129 -0.633856 -5.17331 0
M  V30 6931 C 652.457 -1.19959 -5.74305 0
M  V30 6932 C 654.809 -1.60131 -6.11997 0
M  V30 6933 C 653.473 -1.889 -6.40213 0
M  V30 6934 H 652.743 0.18984 -0.716269 0
M  V30 6935 H 655.39 -0.219581 -1.90237 0
M  V30 6936 H 653.695 1.89241 -3.43067 0
M  V30 6937 H 655.392 1.59137 -3.68071 0
M  V30 6938 H 651.982 0.287304 -4.27636 0
M  V30 6939 H 656.166 -0.430823 -4.94427 0
M  V30 6940 H 651.422 -1.42905 -5.94465 0
M  V30 6941 H 655.596 -2.14376 -6.62583 0
M  V30 6942 H 653.223 -2.64891 -7.12556 0
M  V30 6943 N 654.798 1.5699 0.138552 0
M  V30 6944 C 656.026 1.87976 0.864437 0
M  V30 6945 C 656.441 0.724372 1.74351 0
M  V30 6946 O 655.798 -0.305575 1.79924 0
M  V30 6947 C 655.849 3.18276 1.71414 0
M  V30 6948 O 655.57 4.29365 0.870487 0
M  V30 6949 C 657.071 3.62834 2.54688 0
M  V30 6950 H 654.291 0.622878 0.249528 0
M  V30 6951 H 656.835 2.04094 0.128805 0
M  V30 6952 H 654.99 3.03886 2.40274 0
M  V30 6953 H 655.404 5.03924 1.45466 0
M  V30 6954 H 656.878 4.5682 3.0987 0
M  V30 6955 H 657.355 2.88533 3.31127 0
M  V30 6956 H 657.961 3.79946 1.91105 0
M  V30 6957 N 656.276 -0.40816 1.52223 0
M  V30 6958 C 657.525 -1.15212 1.65557 0
M  V30 6959 C 657.838 -1.9163 0.392096 0
M  V30 6960 O 659.044 -2.68458 0.405256 0
M  V30 6961 C 657.5 -2.09691 2.92502 0
M  V30 6962 C 657.108 -1.38785 4.25961 0
M  V30 6963 C 658.852 -2.8434 3.152 0
M  V30 6964 C 656.759 -2.31919 5.44029 0
M  V30 6965 H 655.689 -0.433776 0.616729 0
M  V30 6966 H 658.34 -0.4165 1.78711 0
M  V30 6967 H 656.722 -2.8681 2.7305 0
M  V30 6968 H 657.896 -0.670248 4.55899 0
M  V30 6969 H 656.211 -0.761741 4.09373 0
M  V30 6970 H 658.808 -3.54166 4.00587 0
M  V30 6971 H 659.151 -3.47344 2.29473 0
M  V30 6972 H 659.684 -2.14321 3.35129 0
M  V30 6973 H 656.423 -1.7356 6.32105 0
M  V30 6974 H 655.943 -3.0165 5.18428 0
M  V30 6975 H 657.622 -2.92424 5.77146 0
M  V30 6976 N 657.755 -1.42862 -0.66545 0
M  V30 6977 C 658.702 -1.4707 -1.77874 0
M  V30 6978 C 659.672 -0.321654 -1.62956 0
M  V30 6979 O 660.857 -0.52707 -1.83376 0
M  V30 6980 C 657.997 -1.38788 -3.15962 0
M  V30 6981 C 657.11 -2.63801 -3.42101 0
M  V30 6982 C 656.245 -2.47594 -4.69969 0
M  V30 6983 C 655.284 -3.67936 -4.89172 0
M  V30 6984 N 654.421 -3.50614 -6.08288 0
M  V30 6985 H 659.261 -2.42204 -1.73613 0
M  V30 6986 H 656.798 -1.20239 -0.847401 0
M  V30 6987 H 658.756 -1.31982 -3.95773 0
M  V30 6988 H 657.386 -0.472431 -3.19324 0
M  V30 6989 H 656.438 -2.80935 -2.56475 0
M  V30 6990 H 657.75 -3.53228 -3.52181 0
M  V30 6991 H 656.904 -2.38427 -5.57886 0
M  V30 6992 H 655.643 -1.55672 -4.62188 0
M  V30 6993 H 654.648 -3.77525 -3.99694 0
M  V30 6994 H 655.873 -4.60851 -4.98792 0
M  V30 6995 H 653.819 -2.61417 -6.01662 0
M  V30 6996 H 653.736 -4.33634 -6.19272 0
M  V30 6997 H 655.004 -3.45276 -6.98859 0
M  V30 6998 N 659.233 0.902656 -1.29189 0
M  V30 6999 C 660.458 1.69167 -1.19989 0
M  V30 7000 C 660.883 1.86607 0.236495 0
M  V30 7001 O 660.241 1.38425 1.17082 0
M  V30 7002 C 660.289 3.05532 -1.91527 0
M  V30 7003 O 659.393 3.93621 -1.2303 0
M  V30 7004 H 658.734 0.517584 -0.415936 0
M  V30 7005 H 661.264 1.12785 -1.70706 0
M  V30 7006 H 661.274 3.55693 -1.99866 0
M  V30 7007 H 659.949 2.92156 -2.96003 0
M  V30 7008 H 658.526 3.52055 -1.22928 0
M  V30 7009 N 660.711 1.11618 1.11262 0
M  V30 7010 C 661.988 0.777876 1.79467 0
M  V30 7011 C 662.368 -0.733774 1.97937 0
M  V30 7012 O 661.716 -1.66443 1.56554 0
M  V30 7013 C 661.926 1.5431 3.13032 0
M  V30 7014 C 663.274 1.72357 3.88044 0
M  V30 7015 O 664.298 1.5075 3.22727 0
M  V30 7016 O 663.157 2.08276 5.05256 0
M  V30 7017 H 660.251 0.282018 0.777428 0
M  V30 7018 H 662.797 1.21971 1.17988 0
M  V30 7019 H 661.569 2.57132 2.94956 0
M  V30 7020 H 661.192 1.09495 3.82226 0
M  V30 7021 N 662.189 -1.289 0.906776 0
M  V30 7022 C 663.435 -1.95558 0.53712 0
M  V30 7023 C 663.768 -1.71262 -0.915582 0
M  V30 7024 O 663.043 -1.02961 -1.65013 0
M  V30 7025 C 663.326 -3.50198 0.838645 0
M  V30 7026 C 663.179 -3.83923 2.34357 0
M  V30 7027 C 664.498 -4.38861 0.329988 0
M  V30 7028 H 661.617 -0.710289 0.196617 0
M  V30 7029 H 664.259 -1.52392 1.13475 0
M  V30 7030 H 662.409 -3.87096 0.330024 0
M  V30 7031 H 664.081 -3.56933 2.92227 0
M  V30 7032 H 662.324 -3.31215 2.80141 0
M  V30 7033 H 662.995 -4.91883 2.5051 0
M  V30 7034 H 665.471 -4.08996 0.765609 0
M  V30 7035 H 664.347 -5.45931 0.570105 0
M  V30 7036 H 664.608 -4.35352 -0.769511 0
M  V30 7037 N 663.667 -0.670007 -1.42649 0
M  V30 7038 C 664.913 -0.19923 -2.02422 0
M  V30 7039 C 665.268 1.17947 -1.52007 0
M  V30 7040 O 664.561 1.77939 -0.710512 0
M  V30 7041 C 664.755 -0.168298 -3.57004 0
M  V30 7042 C 664.584 -1.54246 -4.22419 0
M  V30 7043 C 663.354 -2.13904 -4.57792 0
M  V30 7044 C 665.552 -2.4842 -4.50324 0
M  V30 7045 N 663.534 -3.44151 -5.08364 0
M  V30 7046 C 664.905 -3.63317 -5.02395 0
M  V30 7047 C 666.96 -2.47011 -4.32308 0
M  V30 7048 C 665.663 -4.77051 -5.38345 0
M  V30 7049 C 667.689 -3.59838 -4.6933 0
M  V30 7050 C 667.051 -4.73462 -5.21549 0
M  V30 7051 H 663.15 -0.117717 -0.773089 0
M  V30 7052 H 665.734 -0.881955 -1.73579 0
M  V30 7053 H 663.905 0.483824 -3.85375 0
M  V30 7054 H 665.637 0.314914 -4.03473 0
M  V30 7055 H 662.392 -1.66441 -4.4339 0
M  V30 7056 H 662.816 -4.10846 -5.38084 0
M  V30 7057 H 667.458 -1.60394 -3.91195 0
M  V30 7058 H 665.176 -5.64347 -5.78393 0
M  V30 7059 H 668.762 -3.59969 -4.57071 0
M  V30 7060 H 667.642 -5.59321 -5.49663 0
M  V30 7061 N 665.145 1.52092 -0.413018 0
M  V30 7062 C 666.37 2.06756 0.163338 0
M  V30 7063 C 666.795 1.28073 1.37764 0
M  V30 7064 O 666.153 0.312015 1.78595 0
M  V30 7065 C 666.201 3.57278 0.488322 0
M  V30 7066 O 665.305 3.80986 1.57871 0
M  V30 7067 H 664.646 0.663882 0.0125068 0
M  V30 7068 H 667.176 1.95988 -0.587339 0
M  V30 7069 H 667.186 4.01125 0.745836 0
M  V30 7070 H 665.861 4.13978 -0.399327 0
M  V30 7071 H 664.438 3.49017 1.31306 0
M  V30 7072 N 666.623 0.143563 1.56945 0
M  V30 7073 C 667.87 -0.508407 1.96014 0
M  V30 7074 C 668.198 -1.65099 1.02824 0
M  V30 7075 O 667.453 -1.95618 0.0567764 0
M  V30 7076 C 667.752 -1.05885 3.41355 0
M  V30 7077 C 667.418 -0.0350809 4.50886 0
M  V30 7078 C 666.08 0.246362 4.80569 0
M  V30 7079 C 668.432 0.661282 5.16988 0
M  V30 7080 C 665.76 1.23003 5.73661 0
M  V30 7081 C 668.112 1.63375 6.11139 0
M  V30 7082 C 666.776 1.92292 6.39203 0
M  V30 7083 H 666.046 -0.186039 0.717266 0
M  V30 7084 H 668.693 0.229667 1.90118 0
M  V30 7085 H 666.998 -1.87419 3.44066 0
M  V30 7086 H 668.695 -1.57183 3.6891 0
M  V30 7087 H 665.285 -0.264622 4.27782 0
M  V30 7088 H 669.469 0.457038 4.94191 0
M  V30 7089 H 664.725 1.46056 5.93698 0
M  V30 7090 H 668.899 2.17887 6.61436 0
M  V30 7091 H 666.526 2.68666 7.11142 0
M  V30 7092 N 668.101 -1.57061 -0.130224 0
M  V30 7093 C 669.349 -1.83893 -0.838313 0
M  V30 7094 C 669.67 -0.727046 -1.80939 0
M  V30 7095 O 668.94 0.249927 -1.94299 0
M  V30 7096 H 667.52 -0.67846 -0.312573 0
M  V30 7097 H 670.182 -1.94529 -0.120224 0
M  V30 7098 H 669.278 -2.79419 -1.39038 0
M  V30 7099 N 669.579 0.400081 -1.52437 0
M  V30 7100 C 670.828 1.14332 -1.66166 0
M  V30 7101 C 671.141 1.91419 -0.402253 0
M  V30 7102 O 672.347 2.6824 -0.419487 0
M  V30 7103 C 670.803 2.08137 -2.9361 0
M  V30 7104 C 670.411 1.36524 -4.26691 0
M  V30 7105 C 672.155 2.82664 -3.16703 0
M  V30 7106 C 670.062 2.29031 -5.45251 0
M  V30 7107 H 668.992 0.430499 -0.61902 0
M  V30 7108 H 671.643 0.407017 -1.78929 0
M  V30 7109 H 670.025 2.85358 -2.74567 0
M  V30 7110 H 671.199 0.646061 -4.56249 0
M  V30 7111 H 669.514 0.74002 -4.09771 0
M  V30 7112 H 672.111 3.52037 -4.0246 0
M  V30 7113 H 672.454 3.46122 -2.31312 0
M  V30 7114 H 672.987 2.12541 -3.36261 0
M  V30 7115 H 669.726 1.70206 -6.33017 0
M  V30 7116 H 669.246 2.98896 -5.2002 0
M  V30 7117 H 670.925 2.89359 -5.78689 0
M  V30 7118 N 671.057 1.43213 0.657864 0
M  V30 7119 C 671.987 1.50815 1.78262 0
M  V30 7120 C 672.968 0.363211 1.66177 0
M  V30 7121 O 674.153 0.579806 1.85343 0
M  V30 7122 C 671.283 1.42625 3.16663 0
M  V30 7123 C 670.237 2.5532 3.43505 0
M  V30 7124 C 669.563 2.32184 4.81658 0
M  V30 7125 C 670.863 3.97583 3.38711 0
M  V30 7126 H 672.557 2.44954 1.72157 0
M  V30 7127 H 670.103 1.17896 0.82683 0
M  V30 7128 H 672.056 1.46548 3.95097 0
M  V30 7129 H 670.78 0.449877 3.23487 0
M  V30 7130 H 669.439 2.50742 2.6744 0
M  V30 7131 H 669.087 1.32801 4.85153 0
M  V30 7132 H 668.787 3.07724 5.00579 0
M  V30 7133 H 670.311 2.37883 5.62356 0
M  V30 7134 H 671.725 4.03673 4.07089 0
M  V30 7135 H 670.122 4.73112 3.69168 0
M  V30 7136 H 671.192 4.23049 2.36976 0
M  V30 7137 N 672.536 -0.895792 1.29666 0
M  V30 7138 C 673.466 -2.01673 1.17688 0
M  V30 7139 C 674.447 -1.69955 0.0701317 0
M  V30 7140 O 675.632 -1.9258 0.250289 0
M  V30 7141 C 672.762 -3.36568 0.856681 0
M  V30 7142 C 671.716 -3.82509 1.92017 0
M  V30 7143 C 671.042 -5.14574 1.4532 0
M  V30 7144 C 672.342 -4.02409 3.32963 0
M  V30 7145 H 674.036 -2.11953 2.11463 0
M  V30 7146 H 671.582 -1.01839 1.01807 0
M  V30 7147 H 673.535 -4.14498 0.759577 0
M  V30 7148 H 672.259 -3.26391 -0.116763 0
M  V30 7149 H 670.918 -3.068 2.00673 0
M  V30 7150 H 670.566 -5.00815 0.468325 0
M  V30 7151 H 670.266 -5.46283 2.16447 0
M  V30 7152 H 671.79 -5.9504 1.36968 0
M  V30 7153 H 673.204 -4.70808 3.27127 0
M  V30 7154 H 671.601 -4.45478 4.02082 0
M  V30 7155 H 672.671 -3.06616 3.75652 0
M  V30 7156 N 674.014 -1.12206 -1.10668 0
M  V30 7157 C 675.242 -0.898635 -1.86366 0
M  V30 7158 C 675.657 0.551991 -1.80551 0
M  V30 7159 O 675.014 1.38152 -1.19249 0
M  V30 7160 C 675.065 -1.36199 -3.34861 0
M  V30 7161 O 674.786 -2.75576 -3.40573 0
M  V30 7162 C 676.287 -1.17515 -4.2744 0
M  V30 7163 H 673.507 -0.321281 -0.589084 0
M  V30 7164 H 676.051 -1.49142 -1.39918 0
M  V30 7165 H 674.206 -0.81249 -3.78784 0
M  V30 7166 H 674.62 -2.95851 -4.33096 0
M  V30 7167 H 676.094 -1.54827 -5.29842 0
M  V30 7168 H 676.571 -0.115486 -4.39048 0
M  V30 7169 H 677.177 -1.71203 -3.89319 0
M  V30 7170 N 675.492 1.28418 -0.913599 0
M  V30 7171 C 676.402 2.31043 -0.406965 0
M  V30 7172 C 677.418 1.66501 0.505298 0
M  V30 7173 O 678.594 1.97558 0.391522 0
M  V30 7174 C 675.659 3.4498 0.344901 0
M  V30 7175 C 674.72 4.25078 -0.600563 0
M  V30 7176 C 673.953 5.33575 0.115516 0
M  V30 7177 O 674.176 5.54503 1.33727 0
M  V30 7178 O 673.11 5.9939 -0.549095 0
M  V30 7179 H 676.936 2.76387 -1.25873 0
M  V30 7180 H 674.521 1.33109 -0.678415 0
M  V30 7181 H 676.403 4.14314 0.769542 0
M  V30 7182 H 675.078 3.01719 1.1725 0
M  V30 7183 H 673.985 3.58334 -1.0746 0
M  V30 7184 H 675.318 4.72018 -1.39497 0
M  V30 7185 N 676.97 0.677563 1.42291 0
M  V30 7186 C 677.9 0.014968 2.33495 0
M  V30 7187 C 678.881 -0.786376 1.50831 0
M  V30 7188 O 680.066 -0.742975 1.79426 0
M  V30 7189 C 677.196 -0.935023 3.34477 0
M  V30 7190 C 676.15 -0.242074 4.27315 0
M  V30 7191 C 675.476 -1.30519 5.18526 0
M  V30 7192 C 676.776 0.880604 5.14823 0
M  V30 7193 H 678.47 0.776671 2.89151 0
M  V30 7194 H 676.016 0.37494 1.39033 0
M  V30 7195 H 677.969 -1.40766 3.97194 0
M  V30 7196 H 676.693 -1.72818 2.77131 0
M  V30 7197 H 675.352 0.210351 3.65996 0
M  V30 7198 H 675 -2.09041 4.57505 0
M  V30 7199 H 674.7 -0.846652 5.81468 0
M  V30 7200 H 676.224 -1.7787 5.84119 0
M  V30 7201 H 677.638 0.489062 5.7121 0
M  V30 7202 H 676.035 1.26511 5.86613 0
M  V30 7203 H 677.105 1.72818 4.53059 0
M  V30 7204 N 678.448 -1.51871 0.421078 0
M  V30 7205 C 679.694 -2.02237 -0.151014 0
M  V30 7206 C 680.027 -1.30554 -1.43768 0
M  V30 7207 O 679.302 -0.41546 -1.90011 0
M  V30 7208 C 679.585 -3.5802 -0.386482 0
M  V30 7209 C 679.438 -4.40339 0.9177 0
M  V30 7210 C 680.757 -4.24444 -1.16342 0
M  V30 7211 H 677.876 -0.735062 -0.0534102 0
M  V30 7212 H 680.518 -1.81656 0.556888 0
M  V30 7213 H 678.668 -3.75688 -0.989494 0
M  V30 7214 H 680.34 -4.34357 1.55344 0
M  V30 7215 H 678.583 -4.06073 1.526 0
M  V30 7216 H 679.254 -5.47451 0.707187 0
M  V30 7217 H 681.73 -4.10948 -0.652788 0
M  V30 7218 H 680.606 -5.33358 -1.29693 0
M  V30 7219 H 680.867 -3.84204 -2.18724 0
M  V30 7220 N 679.926 -0.151884 -1.56866 0
M  V30 7221 C 681.154 0.504813 -2.00647 0
M  V30 7222 C 681.569 1.58098 -1.03201 0
M  V30 7223 O 680.926 1.82476 -0.0297814 0
M  V30 7224 C 680.977 1.10099 -3.44326 0
M  V30 7225 O 680.698 0.0678021 -4.38048 0
M  V30 7226 C 682.199 1.83782 -4.03409 0
M  V30 7227 H 679.419 0.130989 -0.65809 0
M  V30 7228 H 681.963 -0.247903 -2.02992 0
M  V30 7229 H 680.118 1.8043 -3.42817 0
M  V30 7230 H 680.532 0.505237 -5.22061 0
M  V30 7231 H 682.006 2.2078 -5.05925 0
M  V30 7232 H 682.483 2.72557 -3.44397 0
M  V30 7233 H 683.089 1.18138 -4.08563 0
M  V30 7234 N 681.404 1.57128 0.121893 0
M  V30 7235 C 682.351 2.0013 1.14964 0
M  V30 7236 C 683.321 0.872959 1.4131 0
M  V30 7237 O 684.506 1.13696 1.53225 0
M  V30 7238 C 681.646 2.40824 2.4718 0
M  V30 7239 C 680.759 3.67061 2.27794 0
M  V30 7240 C 679.894 3.96749 3.53219 0
M  V30 7241 C 678.933 5.16178 3.28978 0
M  V30 7242 N 678.07 5.41751 4.46599 0
M  V30 7243 H 682.91 2.8772 0.775947 0
M  V30 7244 H 680.447 1.42328 0.371652 0
M  V30 7245 H 682.405 2.62454 3.24305 0
M  V30 7246 H 681.035 1.56279 2.82448 0
M  V30 7247 H 680.087 3.53063 1.416 0
M  V30 7248 H 681.399 4.5434 2.05857 0
M  V30 7249 H 680.553 4.19012 4.38764 0
M  V30 7250 H 679.292 3.07941 3.78185 0
M  V30 7251 H 678.297 4.93762 2.41824 0
M  V30 7252 H 679.522 6.06561 3.05386 0
M  V30 7253 H 677.468 4.55899 4.71691 0
M  V30 7254 H 677.385 6.23347 4.27756 0
M  V30 7255 H 678.653 5.68531 5.33285 0
M  V30 7256 N 682.882 -0.391992 1.52647 0
M  V30 7257 C 684.13 -1.13507 1.67214 0
M  V30 7258 C 684.451 -1.90575 0.41304 0
M  V30 7259 O 683.721 -1.87348 -0.572498 0
M  V30 7260 H 682.301 -0.422013 0.616372 0
M  V30 7261 H 684.963 -0.44502 1.89751 0
M  V30 7262 H 684.059 -1.83964 2.52118 0
M  V30 7263 N 684.36 -1.4356 -0.65026 0
M  V30 7264 C 685.776 -1.27025 -0.966269 0
M  V30 7265 C 685.976 -0.192117 -2.00582 0
M  V30 7266 O 685.032 0.428459 -2.48838 0
M  V30 7267 C 686.345 -2.63556 -1.44772 0
M  V30 7268 C 687.893 -2.71111 -1.56421 0
M  V30 7269 C 688.368 -4.08067 -2.07956 0
M  V30 7270 N 689.859 -4.10146 -2.15254 0
M  V30 7271 C 690.594 -5.12952 -2.56258 0
M  V30 7272 N 690.09 -6.26129 -2.96537 0
M  V30 7273 N 691.883 -5.00306 -2.56224 0
M  V30 7274 H 684.034 -2.12367 0.0375758 0
M  V30 7275 H 686.297 -0.946894 -0.0457782 0
M  V30 7276 H 686.003 -3.43429 -0.758271 0
M  V30 7277 H 685.877 -2.89152 -2.42221 0
M  V30 7278 H 688.264 -1.91569 -2.24467 0
M  V30 7279 H 688.345 -2.49277 -0.573967 0
M  V30 7280 H 687.989 -4.88077 -1.40511 0
M  V30 7281 H 687.919 -4.27266 -3.07817 0
M  V30 7282 H 690.41 -3.28453 -1.86887 0
M  V30 7283 H 690.723 -7.00403 -3.26582 0
M  V30 7284 H 689.068 -6.29597 -2.94334 0
M  V30 7285 H 692.259 -4.10952 -2.24135 0
M  V30 7286 H 692.432 -5.80553 -2.87857 0
M  V30 7287 N 685.838 0.888903 -1.30139 0
M  V30 7288 C 687.084 1.6428 -1.18912 0
M  V30 7289 C 687.417 1.92499 0.256477 0
M  V30 7290 O 686.692 1.54312 1.18397 0
M  V30 7291 C 686.975 2.9851 -2.01405 0
M  V30 7292 C 686.828 2.77288 -3.54163 0
M  V30 7293 C 688.147 3.99383 -1.84882 0
M  V30 7294 H 685.266 0.596148 -0.433333 0
M  V30 7295 H 687.908 1.0289 -1.5973 0
M  V30 7296 H 686.058 3.50907 -1.66722 0
M  V30 7297 H 687.73 2.31709 -3.98884 0
M  V30 7298 H 685.973 2.11867 -3.78543 0
M  V30 7299 H 686.644 3.72717 -4.07168 0
M  V30 7300 H 689.12 3.56132 -2.15196 0
M  V30 7301 H 687.996 4.91222 -2.44934 0
M  V30 7302 H 688.257 4.34674 -0.806902 0
M  V30 7303 N 687.317 1.12792 1.10072 0
M  V30 7304 C 688.728 0.899346 1.63611 0
M  V30 7305 C 689.079 -0.565547 1.87872 0
M  V30 7306 O 688.204 -1.43081 1.62348 0
M  V30 7307 C 688.799 1.62608 2.97227 0
M  V30 7308 C 687.358 1.44356 3.47618 0
M  V30 7309 C 686.505 1.65958 2.22156 0
M  V30 7310 H 689.456 1.28216 0.935223 0
M  V30 7311 H 689.477 1.0793 3.64872 0
M  V30 7312 H 688.989 2.69221 2.79538 0
M  V30 7313 H 687.09 0.400148 3.70445 0
M  V30 7314 H 687.203 2.20218 4.25489 0
M  V30 7315 H 685.567 1.08395 2.30484 0
M  V30 7316 H 686.35 2.73877 2.06993 0
M  V30 7317 N 688.795 -1.27931 0.920396 0
M  V30 7318 C 690.025 -1.98516 0.572256 0
M  V30 7319 C 690.433 -1.68912 -0.852375 0
M  V30 7320 O 689.776 -0.94203 -1.57707 0
M  V30 7321 C 689.838 -3.5243 0.709485 0
M  V30 7322 C 689.502 -4.0564 2.10489 0
M  V30 7323 C 690.499 -4.1897 3.07831 0
M  V30 7324 C 688.184 -4.40168 2.41986 0
M  V30 7325 C 690.178 -4.66093 4.34783 0
M  V30 7326 C 687.865 -4.86983 3.69176 0
M  V30 7327 C 688.863 -4.99903 4.65388 0
M  V30 7328 O 688.551 -5.45694 5.90316 0
M  V30 7329 H 688.283 -0.64047 0.216274 0
M  V30 7330 H 690.837 -1.6393 1.23758 0
M  V30 7331 H 689.067 -3.86698 -0.0129263 0
M  V30 7332 H 690.756 -4.04233 0.367474 0
M  V30 7333 H 691.522 -3.92562 2.84816 0
M  V30 7334 H 687.401 -4.29358 1.67846 0
M  V30 7335 H 690.945 -4.76092 5.09884 0
M  V30 7336 H 686.842 -5.12832 3.92012 0
M  V30 7337 H 687.61 -5.63965 5.932 0
M  V30 7338 N 690.273 -0.685099 -1.4193 0
M  V30 7339 C 691.684 -0.287699 -1.8447 0
M  V30 7340 C 692.035 1.17215 -1.57338 0
M  V30 7341 O 691.16 1.89856 -1.03845 0
M  V30 7342 C 691.755 -0.515385 -3.34857 0
M  V30 7343 C 690.314 -0.172006 -3.76007 0
M  V30 7344 C 689.461 -0.802808 -2.65425 0
M  V30 7345 H 692.412 -0.88652 -1.3163 0
M  V30 7346 H 692.433 0.229251 -3.79809 0
M  V30 7347 H 691.945 -1.57796 -3.54573 0
M  V30 7348 H 690.046 0.886716 -3.61895 0
M  V30 7349 H 690.159 -0.619717 -4.75075 0
M  V30 7350 H 688.523 -0.233267 -2.5363 0
M  V30 7351 H 689.306 -1.86904 -2.87961 0
M  V30 7352 N 691.751 1.51645 -0.429126 0
M  V30 7353 C 692.999 2.01616 0.139802 0
M  V30 7354 C 693.32 1.31568 1.43927 0
M  V30 7355 O 692.59 0.447688 1.90716 0
M  V30 7356 H 691.17 0.744998 0.054654 0
M  V30 7357 H 693.832 1.8638 -0.569952 0
M  V30 7358 H 692.928 3.10439 0.321609 0
M  V30 7359 N 693.229 0.160201 1.56784 0
M  V30 7360 C 694.162 -0.812797 2.13234 0
M  V30 7361 C 695.14 -1.2335 1.05942 0
M  V30 7362 O 696.324 -1.32725 1.33852 0
M  V30 7363 C 693.451 -2.09311 2.66283 0
M  V30 7364 C 692.497 -1.8173 3.85845 0
M  V30 7365 S 693.33 -0.996473 5.26147 0
M  V30 7366 C 694.486 -2.28769 5.82594 0
M  V30 7367 H 694.719 -0.332794 2.95432 0
M  V30 7368 H 692.252 -0.0542971 1.54304 0
M  V30 7369 H 694.21 -2.82854 2.97496 0
M  V30 7370 H 692.871 -2.54425 1.84192 0
M  V30 7371 H 692.064 -2.76699 4.21253 0
M  V30 7372 H 691.666 -1.16289 3.55462 0
M  V30 7373 H 693.958 -3.24319 5.9483 0
M  V30 7374 H 694.901 -1.97846 6.79899 0
M  V30 7375 H 695.309 -2.40021 5.10931 0
M  V30 7376 N 694.707 -1.5719 -0.113559 0
M  V30 7377 C 695.655 -2.01725 -1.158 0
M  V30 7378 C 696.649 -0.915105 -1.42556 0
M  V30 7379 O 697.855 -1.10031 -1.42454 0
M  V30 7380 H 694.23 -0.64262 -0.390569 0
M  V30 7381 H 696.201 -2.88666 -0.755926 0
M  V30 7382 C 694.95 -2.44203 -2.47507 0
M  V30 7383 H 694.273 -3.28582 -2.27758 0
M  V30 7384 H 695.713 -2.79158 -3.19135 0
M  V30 7385 C 694.172 -1.30785 -3.10478 0
M  V30 7386 O 694.702 -0.626807 -3.9678 0
M  V30 7387 N 692.908 -1.06352 -2.7044 0
M  V30 7388 H 692.455 -1.61913 -2.00355 0
M  V30 7389 H 692.413 -0.306614 -3.12901 0
M  V30 7390 N 696.185 0.383891 -1.52853 0
M  V30 7391 C 697.133 1.48965 -1.7864 0
M  V30 7392 C 698.127 1.56242 -0.654577 0
M  V30 7393 O 699.333 1.59347 -0.83716 0
M  V30 7394 H 695.708 0.495892 -0.565328 0
M  V30 7395 H 697.679 1.24411 -2.71228 0
M  V30 7396 C 696.428 2.86036 -1.97683 0
M  V30 7397 H 695.751 2.81188 -2.84206 0
M  V30 7398 H 697.191 3.62632 -2.19713 0
M  V30 7399 C 695.65 3.28428 -0.750776 0
M  V30 7400 O 696.18 4.0164 0.0693491 0
M  V30 7401 N 694.386 2.84765 -0.579427 0
M  V30 7402 H 693.933 2.25353 -1.24795 0
M  V30 7403 H 693.891 3.13486 0.239544 0
M  V30 7404 N 697.663 1.43903 0.642637 0
M  V30 7405 C 699.079 1.27536 0.959519 0
M  V30 7406 C 699.279 0.202751 2.00477 0
M  V30 7407 O 698.335 -0.415256 2.49062 0
M  V30 7408 C 699.648 2.6432 1.43372 0
M  V30 7409 C 701.196 2.71937 1.54981 0
M  V30 7410 C 701.671 4.09164 2.05789 0
M  V30 7411 N 703.162 4.11282 2.13076 0
M  V30 7412 C 703.897 5.14303 2.53534 0
M  V30 7413 N 703.393 6.27693 2.93212 0
M  V30 7414 N 705.186 5.01657 2.53567 0
M  V30 7415 H 697.337 2.12344 -0.0488376 0
M  V30 7416 H 699.6 0.947124 0.0407559 0
M  V30 7417 H 699.306 3.43826 0.740048 0
M  V30 7418 H 699.18 2.90432 2.40685 0
M  V30 7419 H 701.567 1.92757 2.23448 0
M  V30 7420 H 701.648 2.49578 0.560739 0
M  V30 7421 H 701.292 4.88815 1.37921 0
M  V30 7422 H 701.222 4.28893 3.05546 0
M  V30 7423 H 703.713 3.2944 1.85143 0
M  V30 7424 H 704.026 7.02125 3.22863 0
M  V30 7425 H 702.371 6.31149 2.90991 0
M  V30 7426 H 705.562 4.12134 2.21952 0
M  V30 7427 H 705.735 5.82072 2.84774 0
M  V30 7428 N 699.141 -0.881989 1.30609 0
M  V30 7429 C 700.051 -2.02076 1.19174 0
M  V30 7430 C 701.067 -1.73645 0.11102 0
M  V30 7431 O 702.243 -1.98735 0.326528 0
M  V30 7432 C 699.308 -3.3515 0.887438 0
M  V30 7433 C 698.369 -3.76983 2.05383 0
M  V30 7434 C 697.602 -5.03707 1.76395 0
M  V30 7435 O 697.825 -5.66171 0.693302 0
M  V30 7436 O 696.759 -5.42019 2.61723 0
M  V30 7437 H 700.585 -2.14652 2.14845 0
M  V30 7438 H 698.17 -1.00843 1.10232 0
M  V30 7439 H 700.052 -4.14975 0.73306 0
M  V30 7440 H 698.727 -3.23676 -0.0393354 0
M  V30 7441 H 697.634 -2.97849 2.26355 0
M  V30 7442 H 698.967 -3.93066 2.96243 0
M  V30 7443 N 700.619 -1.13374 -1.09472 0
M  V30 7444 C 701.865 -0.896516 -1.81908 0
M  V30 7445 C 702.198 0.575933 -1.85463 0
M  V30 7446 O 701.473 1.42618 -1.32251 0
M  V30 7447 C 701.756 -1.48445 -3.28079 0
M  V30 7448 C 701.609 -3.02598 -3.32798 0
M  V30 7449 C 702.928 -1.15226 -4.24748 0
M  V30 7450 H 700.047 -0.327127 -0.660422 0
M  V30 7451 H 702.689 -1.40195 -1.2824 0
M  V30 7452 H 700.839 -1.0546 -3.73912 0
M  V30 7453 H 702.511 -3.54335 -2.95372 0
M  V30 7454 H 700.754 -3.37613 -2.72397 0
M  V30 7455 H 701.425 -3.38835 -4.3577 0
M  V30 7456 H 703.901 -1.52369 -3.87199 0
M  V30 7457 H 702.777 -1.59012 -5.25363 0
M  V30 7458 H 703.038 -0.0658891 -4.42051 0
M  V30 7459 N 702.098 1.27442 -0.927168 0
M  V30 7460 C 703.028 2.29256 -0.443188 0
M  V30 7461 C 704.009 1.62701 0.49624 0
M  V30 7462 O 705.194 1.90013 0.401105 0
M  V30 7463 C 702.324 3.45955 0.305366 0
M  V30 7464 C 701.278 4.24501 -0.546178 0
M  V30 7465 C 700.604 5.33671 0.331512 0
M  V30 7466 C 701.904 4.89921 -1.81037 0
M  V30 7467 H 703.598 2.69988 -1.29409 0
M  V30 7468 H 701.144 1.29792 -0.623705 0
M  V30 7469 H 703.097 4.1628 0.654885 0
M  V30 7470 H 701.821 3.04138 1.19029 0
M  V30 7471 H 700.48 3.55921 -0.878398 0
M  V30 7472 H 700.128 4.88096 1.21537 0
M  V30 7473 H 699.828 5.87131 -0.234746 0
M  V30 7474 H 701.352 6.0684 0.676614 0
M  V30 7475 H 702.766 5.52536 -1.52895 0
M  V30 7476 H 701.163 5.53436 -2.32009 0
M  V30 7477 H 702.233 4.13652 -2.53021 0
M  V30 7478 N 703.576 0.692616 1.41565 0
M  V30 7479 C 704.486 0.0258451 2.34586 0
M  V30 7480 C 705.502 -0.769324 1.56069 0
M  V30 7481 O 706.678 -0.707563 1.88562 0
M  V30 7482 C 703.743 -0.901289 3.3478 0
M  V30 7483 C 702.804 -0.0986579 4.29187 0
M  V30 7484 C 702.037 -0.981634 5.24595 0
M  V30 7485 O 702.26 -2.22115 5.25377 0
M  V30 7486 O 701.194 -0.432892 6.00341 0
M  V30 7487 H 705.02 0.792537 2.93177 0
M  V30 7488 H 702.605 0.452935 1.42369 0
M  V30 7489 H 704.487 -1.43302 3.96286 0
M  V30 7490 H 703.162 -1.64752 2.78637 0
M  V30 7491 H 702.069 0.477604 3.71039 0
M  V30 7492 H 703.402 0.608848 4.8842 0
M  V30 7493 N 705.054 -1.51416 0.437162 0
M  V30 7494 C 705.986 -2.255 -0.410171 0
M  V30 7495 C 706.999 -1.29511 -0.986444 0
M  V30 7496 O 708.188 -1.55266 -0.880614 0
M  V30 7497 C 705.288 -2.99511 -1.58575 0
M  V30 7498 C 704.461 -4.22595 -1.12839 0
M  V30 7499 C 703.52 -4.79187 -2.17407 0
M  V30 7500 O 702.546 -5.4103 -1.76849 0
M  V30 7501 N 703.748 -4.63204 -3.49889 0
M  V30 7502 H 706.513 -2.98856 0.224783 0
M  V30 7503 H 704.074 -1.59699 0.266041 0
M  V30 7504 H 706.066 -3.34258 -2.28152 0
M  V30 7505 H 704.636 -2.29167 -2.12606 0
M  V30 7506 H 703.856 -3.93344 -0.259695 0
M  V30 7507 H 705.144 -5.02468 -0.800196 0
M  V30 7508 H 704.542 -4.13945 -3.85573 0
M  V30 7509 H 703.099 -5.02313 -4.15361 0
M  V30 7510 N 706.532 -0.168513 -1.56696 0
M  V30 7511 C 707.778 0.477865 -1.9709 0
M  V30 7512 C 708.111 1.63084 -1.05438 0
M  V30 7513 O 707.386 1.94238 -0.10095 0
M  V30 7514 C 707.669 0.963521 -3.4697 0
M  V30 7515 C 707.522 -0.189443 -4.49401 0
M  V30 7516 C 708.841 1.83813 -3.99876 0
M  V30 7517 H 705.96 0.172229 -0.716593 0
M  V30 7518 H 708.602 -0.254083 -1.88293 0
M  V30 7519 H 706.752 1.58724 -3.54597 0
M  V30 7520 H 708.424 -0.826451 -4.53836 0
M  V30 7521 H 706.667 -0.845366 -4.25483 0
M  V30 7522 H 707.338 0.192446 -5.51664 0
M  V30 7523 H 709.814 1.31235 -3.94863 0
M  V30 7524 H 708.69 2.14697 -5.0517 0
M  V30 7525 H 708.951 2.78289 -3.43523 0
M  V30 7526 N 708.01 1.57248 0.105221 0
M  V30 7527 C 708.92 2.04653 1.14693 0
M  V30 7528 C 709.936 0.969488 1.44489 0
M  V30 7529 O 711.112 1.28196 1.55331 0
M  V30 7530 C 708.177 2.45297 2.45011 0
M  V30 7531 C 707.238 3.67148 2.22489 0
M  V30 7532 C 706.471 4.05844 3.46592 0
M  V30 7533 O 706.694 3.44736 4.54437 0
M  V30 7534 O 705.628 4.98862 3.36779 0
M  V30 7535 H 709.454 2.93663 0.774336 0
M  V30 7536 H 707.039 1.45998 0.31701 0
M  V30 7537 H 708.921 2.72112 3.21766 0
M  V30 7538 H 707.596 1.59429 2.81717 0
M  V30 7539 H 706.503 3.45463 1.43547 0
M  V30 7540 H 707.836 4.53764 1.9068 0
M  V30 7541 N 709.488 -0.375779 1.53054 0
M  V30 7542 C 710.904 -0.716764 1.426 0
M  V30 7543 C 711.104 -1.93651 0.556931 0
M  V30 7544 O 710.16 -2.52475 0.0354461 0
M  V30 7545 C 711.473 -0.939499 2.85646 0
M  V30 7546 C 713.021 -1.04015 2.95212 0
M  V30 7547 C 713.496 -1.29543 4.39298 0
M  V30 7548 N 714.987 -1.36335 4.42682 0
M  V30 7549 C 715.722 -1.57778 5.51266 0
M  V30 7550 N 715.218 -1.76604 6.69913 0
M  V30 7551 N 717.011 -1.60065 5.38828 0
M  V30 7552 H 709.162 0.42664 2.08071 0
M  V30 7553 H 711.425 0.128758 0.939215 0
M  V30 7554 H 711.131 -0.115189 3.51511 0
M  V30 7555 H 711.005 -1.85048 3.2869 0
M  V30 7556 H 713.392 -1.85501 2.29507 0
M  V30 7557 H 713.473 -0.106785 2.55577 0
M  V30 7558 H 713.117 -0.485611 5.05573 0
M  V30 7559 H 713.047 -2.24184 4.76497 0
M  V30 7560 H 715.538 -1.23441 3.5717 0
M  V30 7561 H 715.851 -1.9251 7.48438 0
M  V30 7562 H 714.196 -1.73802 6.72917 0
M  V30 7563 H 717.387 -1.44917 4.45103 0
M  V30 7564 H 717.56 -1.76435 6.23518 0
M  V30 7565 N 710.966 -1.44241 -0.634997 0
M  V30 7566 C 712.214 -1.46531 -1.39187 0
M  V30 7567 C 712.535 -0.0976441 -1.94755 0
M  V30 7568 O 711.805 0.869528 -1.75545 0
M  V30 7569 H 710.385 -0.539544 -0.516625 0
M  V30 7570 H 713.047 -1.79989 -0.747655 0
M  V30 7571 H 712.143 -2.18848 -2.22513 0
M  V30 7572 N 712.444 0.87505 -1.31075 0
M  V30 7573 C 713.674 1.65818 -1.2324 0
M  V30 7574 C 714.082 1.8808 0.205536 0
M  V30 7575 O 713.425 1.43548 1.14628 0
M  V30 7576 C 713.487 3.05131 -1.90093 0
M  V30 7577 C 713.151 3.05999 -3.39432 0
M  V30 7578 C 714.148 2.84328 -4.35263 0
M  V30 7579 C 711.833 3.27281 -3.81041 0
M  V30 7580 C 713.827 2.83912 -5.70678 0
M  V30 7581 C 711.514 3.26493 -5.16571 0
M  V30 7582 C 712.512 3.04834 -6.112 0
M  V30 7583 O 712.2 3.03882 -7.44252 0
M  V30 7584 H 711.932 0.52387 -0.427242 0
M  V30 7585 H 714.486 1.10086 -1.73408 0
M  V30 7586 H 712.716 3.62568 -1.34468 0
M  V30 7587 H 714.405 3.65641 -1.76242 0
M  V30 7588 H 715.171 2.67673 -4.04445 0
M  V30 7589 H 711.05 3.43171 -3.07822 0
M  V30 7590 H 714.594 2.66925 -6.44513 0
M  V30 7591 H 710.491 3.42687 -5.47025 0
M  V30 7592 H 711.259 3.19979 -7.53363 0
M  V30 7593 N 713.922 1.13953 1.08869 0
M  V30 7594 C 715.338 0.878924 1.33218 0
M  V30 7595 C 715.538 -0.482478 1.95638 0
M  V30 7596 O 714.594 -1.22778 2.2064 0
M  V30 7597 C 715.907 2.00798 2.23832 0
M  V30 7598 C 717.455 2.04073 2.37325 0
M  V30 7599 C 717.93 3.16258 3.31278 0
M  V30 7600 N 719.421 3.15805 3.38853 0
M  V30 7601 C 720.156 3.99249 4.11567 0
M  V30 7602 N 719.652 4.92721 4.87029 0
M  V30 7603 N 721.445 3.87327 4.0735 0
M  V30 7604 H 713.596 2.01645 0.66731 0
M  V30 7605 H 715.859 0.878395 0.356547 0
M  V30 7606 H 715.565 2.98986 1.85203 0
M  V30 7607 H 715.439 1.92704 3.24261 0
M  V30 7608 H 717.826 1.06495 2.75214 0
M  V30 7609 H 717.907 2.16239 1.36654 0
M  V30 7610 H 717.551 4.14079 2.9411 0
M  V30 7611 H 717.481 3.0133 4.31866 0
M  V30 7612 H 719.972 2.48102 2.8505 0
M  V30 7613 H 720.285 5.52867 5.39961 0
M  V30 7614 H 718.63 4.96723 4.86098 0
M  V30 7615 H 721.821 3.13627 3.475 0
M  V30 7616 H 721.994 4.52585 4.63757 0
M  V30 7617 N 715.4 -1.26948 0.933913 0
M  V30 7618 C 716.333 -2.24977 0.382169 0
M  V30 7619 C 717.311 -1.53893 -0.524949 0
M  V30 7620 O 718.495 -1.82699 -0.464048 0
M  V30 7621 C 715.622 -3.35676 -0.451615 0
M  V30 7622 C 714.668 -4.24686 0.392947 0
M  V30 7623 S 715.501 -5.03898 1.81237 0
M  V30 7624 C 716.657 -6.18078 0.986443 0
M  V30 7625 H 716.89 -2.71429 1.21299 0
M  V30 7626 H 714.423 -1.35701 0.736523 0
M  V30 7627 H 716.381 -3.99901 -0.926797 0
M  V30 7628 H 715.042 -2.8785 -1.25703 0
M  V30 7629 H 714.235 -5.03402 -0.245533 0
M  V30 7630 H 713.837 -3.65288 0.802537 0
M  V30 7631 H 716.129 -6.77125 0.225321 0
M  V30 7632 H 717.072 -6.86216 1.74682 0
M  V30 7633 H 717.48 -5.62047 0.525711 0
M  V30 7634 N 716.879 -0.700114 -1.41195 0
M  V30 7635 C 718.29 -0.307249 -1.84154 0
M  V30 7636 C 718.641 1.15539 -1.58572 0
M  V30 7637 O 717.766 1.88744 -1.05852 0
M  V30 7638 C 718.361 -0.550872 -3.34292 0
M  V30 7639 C 716.92 -0.211877 -3.75803 0
M  V30 7640 C 716.067 -0.830915 -2.64558 0
M  V30 7641 H 719.018 -0.900431 -1.30683 0
M  V30 7642 H 719.039 0.188954 -3.80031 0
M  V30 7643 H 718.551 -1.61548 -3.5288 0
M  V30 7644 H 716.652 0.848283 -3.62815 0
M  V30 7645 H 716.765 -0.67007 -4.74391 0
M  V30 7646 H 715.129 -0.260155 -2.53368 0
M  V30 7647 H 715.912 -1.89948 -2.85963 0
M  V30 7648 N 718.357 1.51182 -0.445186 0
M  V30 7649 C 719.597 2.04061 0.117717 0
M  V30 7650 C 719.961 1.32158 1.39278 0
M  V30 7651 O 721.162 1.75452 2.03642 0
M  V30 7652 C 719.433 3.55933 0.323445 0
M  V30 7653 S 720.992 4.30516 0.848627 0
M  V30 7654 H 717.81 0.710442 0.028165 0
M  V30 7655 H 720.412 1.85858 -0.606391 0
M  V30 7656 H 719.116 4.0583 -0.610764 0
M  V30 7657 H 718.647 3.78444 1.07441 0
M  V30 7658 H 720.662 4.48382 2.12528 0
M  V30 7659 N 719.835 0.176821 1.56605 0
M  V30 7660 C 721.246 -0.338963 1.83597 0
M  V30 7661 C 721.597 -1.62677 1.09684 0
M  V30 7662 O 720.722 -2.13524 0.351661 0
M  V30 7663 C 721.317 -0.62177 3.33046 0
M  V30 7664 C 719.876 -1.08198 3.60514 0
M  V30 7665 C 719.023 -0.120774 2.77037 0
M  V30 7666 H 721.974 0.400978 1.53551 0
M  V30 7667 H 721.995 -1.47321 3.50823 0
M  V30 7668 H 721.507 0.315692 3.86814 0
M  V30 7669 H 719.608 -2.03435 3.12162 0
M  V30 7670 H 719.721 -0.987329 4.68816 0
M  V30 7671 H 718.085 -0.619192 2.47059 0
M  V30 7672 H 718.868 0.810806 3.33588 0
M  V30 7673 N 721.313 -1.57302 -0.09688 0
M  V30 7674 C 722.245 -1.98618 -1.14384 0
M  V30 7675 C 723.258 -0.888483 -1.36418 0
M  V30 7676 O 724.447 -1.16661 -1.35101 0
M  V30 7677 C 721.547 -2.28838 -2.49973 0
M  V30 7678 C 720.72 -3.60132 -2.48241 0
M  V30 7679 C 719.779 -3.7831 -3.65743 0
M  V30 7680 O 718.805 -4.50183 -3.48316 0
M  V30 7681 N 720.007 -3.18752 -4.85157 0
M  V30 7682 H 722.772 -2.8904 -0.792202 0
M  V30 7683 H 720.333 -1.59356 -0.285883 0
M  V30 7684 H 722.325 -2.38193 -3.27179 0
M  V30 7685 H 720.895 -1.44431 -2.77233 0
M  V30 7686 H 720.115 -3.61763 -1.56593 0
M  V30 7687 H 721.403 -4.46389 -2.4416 0
M  V30 7688 H 720.801 -2.60368 -5.0222 0
M  V30 7689 H 719.358 -3.33595 -5.59962 0
M  V30 7690 N 722.791 0.367657 -1.53252 0
M  V30 7691 C 724.068 1.12606 -1.59935 0
M  V30 7692 C 724.448 2.07167 -0.405606 0
M  V30 7693 O 723.796 2.20364 0.604323 0
M  V30 7694 C 724.006 1.86699 -2.94863 0
M  V30 7695 C 725.354 2.41306 -3.49366 0
M  V30 7696 O 726.378 1.96828 -2.96879 0
M  V30 7697 O 725.237 3.2261 -4.41118 0
M  V30 7698 H 722.331 0.516438 -0.645926 0
M  V30 7699 H 724.877 0.371088 -1.65593 0
M  V30 7700 H 723.649 1.17674 -3.73187 0
M  V30 7701 H 723.272 2.6911 -2.92687 0
M  V30 7702 N 724.269 1.44576 0.627338 0
M  V30 7703 C 725.509 1.49083 1.39834 0
M  V30 7704 C 725.873 0.121643 1.91614 0
M  V30 7705 O 727.074 0.0413885 2.68768 0
M  V30 7706 C 725.345 2.52467 2.52973 0
M  V30 7707 S 726.904 2.7605 3.41089 0
M  V30 7708 H 723.722 0.527252 0.476997 0
M  V30 7709 H 726.324 1.81525 0.725872 0
M  V30 7710 H 725.028 3.50646 2.13249 0
M  V30 7711 H 724.559 2.2161 3.25042 0
M  V30 7712 H 726.574 2.07932 4.50531 0
M  V30 7713 N 725.747 -0.868086 1.31537 0
M  V30 7714 C 727.158 -1.437 1.19195 0
M  V30 7715 C 727.509 -1.95169 -0.200842 0
M  V30 7716 O 726.634 -1.86432 -1.09872 0
M  V30 7717 C 727.229 -2.612 2.15778 0
M  V30 7718 C 725.788 -3.1413 2.07363 0
M  V30 7719 C 724.935 -1.86845 2.049 0
M  V30 7720 H 727.886 -0.676457 1.43561 0
M  V30 7721 H 727.907 -3.37948 1.74847 0
M  V30 7722 H 727.419 -2.23709 3.17137 0
M  V30 7723 H 725.52 -3.56238 1.09204 0
M  V30 7724 H 725.633 -3.76285 2.96557 0
M  V30 7725 H 723.997 -2.05886 1.49943 0
M  V30 7726 H 724.78 -1.51589 3.08019 0
M  V30 7727 N 727.225 -1.14528 -1.08264 0
M  V30 7728 C 728.474 -0.908992 -1.80056 0
M  V30 7729 C 728.787 0.565859 -1.87236 0
M  V30 7730 O 729.993 0.919454 -2.55457 0
M  V30 7731 C 728.449 -1.57681 -3.23519 0
M  V30 7732 C 728.057 -3.08803 -3.24569 0
M  V30 7733 C 729.801 -1.4217 -3.99985 0
M  V30 7734 C 727.708 -3.68414 -4.62629 0
M  V30 7735 H 726.638 -0.336432 -0.674781 0
M  V30 7736 H 729.289 -1.37437 -1.21587 0
M  V30 7737 H 727.671 -1.03911 -3.82124 0
M  V30 7738 H 728.845 -3.69252 -2.75663 0
M  V30 7739 H 727.16 -3.23968 -2.61598 0
M  V30 7740 H 729.757 -1.84106 -5.02005 0
M  V30 7741 H 730.1 -0.367989 -4.1467 0
M  V30 7742 H 730.633 -1.92984 -3.47853 0
M  V30 7743 H 727.372 -4.73644 -4.53147 0
M  V30 7744 H 726.892 -3.12746 -5.11811 0
M  V30 7745 H 728.571 -3.68793 -5.31602 0
M  V30 7746 N 728.703 1.26451 -0.940633 0
M  V30 7747 C 729.928 1.98407 -0.60412 0
M  V30 7748 C 730.353 1.69584 0.81382 0
M  V30 7749 O 729.711 0.943553 1.54812 0
M  V30 7750 C 729.759 3.50387 -0.852136 0
M  V30 7751 O 728.863 4.1233 0.076013 0
M  V30 7752 H 728.204 0.622466 -0.231153 0
M  V30 7753 H 730.734 1.60932 -1.26342 0
M  V30 7754 H 730.744 4.00614 -0.772816 0
M  V30 7755 H 729.419 3.70696 -1.88566 0
M  V30 7756 H 727.996 3.7286 -0.0543187 0
M  V30 7757 N 730.181 0.707592 1.40822 0
M  V30 7758 C 731.111 0.0644925 2.33411 0
M  V30 7759 C 732.092 -0.754205 1.52466 0
M  V30 7760 O 733.277 -0.704749 1.80961 0
M  V30 7761 C 730.407 -0.863865 3.36385 0
M  V30 7762 C 729.361 -0.15138 4.27732 0
M  V30 7763 C 728.687 -1.19491 5.21177 0
M  V30 7764 C 729.987 0.989607 5.12839 0
M  V30 7765 H 731.681 0.837829 2.87438 0
M  V30 7766 H 729.227 0.404346 1.38207 0
M  V30 7767 H 731.18 -1.32309 4.0009 0
M  V30 7768 H 729.904 -1.66901 2.80734 0
M  V30 7769 H 728.563 0.287937 3.65467 0
M  V30 7770 H 728.211 -1.9929 4.61836 0
M  V30 7771 H 727.911 -0.723123 5.83134 0
M  V30 7772 H 729.435 -1.6544 5.8776 0
M  V30 7773 H 730.849 0.610114 5.70044 0
M  V30 7774 H 729.246 1.38926 5.83798 0
M  V30 7775 H 730.316 1.82389 4.49291 0
M  V30 7776 N 731.66 -1.50943 0.453197 0
M  V30 7777 C 732.61 -2.25003 -0.368467 0
M  V30 7778 C 733.594 -1.27864 -0.976714 0
M  V30 7779 O 734.786 -1.52867 -0.892228 0
M  V30 7780 C 731.915 -3.10701 -1.46014 0
M  V30 7781 C 731.001 -4.15278 -0.860506 0
M  V30 7782 N 731.392 -5.05799 0.00849611 0
M  V30 7783 C 729.69 -4.31542 -1.1264 0
M  V30 7784 C 730.391 -5.80664 0.346951 0
M  V30 7785 N 729.367 -5.42912 -0.273426 0
M  V30 7786 H 733.169 -2.92352 0.301246 0
M  V30 7787 H 730.683 -1.60203 0.266233 0
M  V30 7788 H 732.68 -3.62348 -2.06179 0
M  V30 7789 H 731.34 -2.44898 -2.13202 0
M  V30 7790 H 732.351 -5.16533 0.376077 0
M  V30 7791 H 729.028 -3.76962 -1.7946 0
M  V30 7792 H 730.418 -6.63565 1.05507 0
M  V30 7793 N 733.138 -0.185124 -1.56509 0
M  V30 7794 C 734.048 0.751908 -2.22224 0
M  V30 7795 C 735.064 1.24244 -1.21817 0
M  V30 7796 O 736.24 1.29169 -1.54523 0
M  V30 7797 C 733.305 1.95837 -2.86092 0
M  V30 7798 C 732.366 1.51337 -4.01741 0
M  V30 7799 C 731.599 2.66233 -4.62554 0
M  V30 7800 O 731.822 3.8346 -4.22273 0
M  V30 7801 O 730.756 2.39517 -5.52191 0
M  V30 7802 H 734.582 0.222304 -3.02885 0
M  V30 7803 H 732.167 0.0437141 -1.49336 0
M  V30 7804 H 734.049 2.66368 -3.26536 0
M  V30 7805 H 732.724 2.47677 -2.08417 0
M  V30 7806 H 731.631 0.777155 -3.65939 0
M  V30 7807 H 732.964 1.04175 -4.81049 0
M  V30 7808 N 734.616 1.57351 0.0885366 0
M  V30 7809 C 735.546 2.05561 1.10757 0
M  V30 7810 C 736.527 0.945789 1.41382 0
M  V30 7811 O 737.712 1.21747 1.51299 0
M  V30 7812 C 734.842 2.48554 2.42566 0
M  V30 7813 C 733.796 3.63259 2.26334 0
M  V30 7814 C 733.122 3.9225 3.63378 0
M  V30 7815 C 734.422 4.93913 1.69844 0
M  V30 7816 H 736.116 2.90946 0.706468 0
M  V30 7817 H 733.662 1.39968 0.338385 0
M  V30 7818 H 735.615 2.8089 3.14132 0
M  V30 7819 H 734.339 1.60176 2.84625 0
M  V30 7820 H 732.998 3.31179 1.57213 0
M  V30 7821 H 732.646 3.0103 4.02976 0
M  V30 7822 H 732.346 4.69478 3.53362 0
M  V30 7823 H 733.87 4.27067 4.36401 0
M  V30 7824 H 735.284 5.24588 2.31258 0
M  V30 7825 H 733.681 5.75349 1.70569 0
M  V30 7826 H 734.751 4.80409 0.65843 0
M  V30 7827 N 736.094 -0.359525 1.53444 0
M  V30 7828 C 737.027 -1.46338 1.75101 0
M  V30 7829 C 738.005 -1.51142 0.599559 0
M  V30 7830 O 739.189 -1.69102 0.832862 0
M  V30 7831 C 736.316 -2.84667 1.83527 0
M  V30 7832 C 735.362 -2.9756 3.05549 0
M  V30 7833 S 736.195 -2.65685 4.64943 0
M  V30 7834 C 737.351 -4.06153 4.76225 0
M  V30 7835 H 737.584 -1.27747 2.68455 0
M  V30 7836 H 735.117 -0.554231 1.4411 0
M  V30 7837 H 737.075 -3.64368 1.89067 0
M  V30 7838 H 735.736 -3.00564 0.912147 0
M  V30 7839 H 734.929 -3.98883 3.08072 0
M  V30 7840 H 734.531 -2.25789 2.98153 0
M  V30 7841 H 736.823 -5.00475 4.56652 0
M  V30 7842 H 737.766 -4.08632 5.78295 0
M  V30 7843 H 738.174 -3.93435 4.04808 0
M  V30 7844 N 737.572 -1.44907 -0.619662 0
M  V30 7845 C 738.821 -1.47569 -1.37501 0
M  V30 7846 C 739.134 -0.116707 -1.95252 0
M  V30 7847 O 740.34 -0.020909 -2.71492 0
M  V30 7848 C 738.796 -2.59851 -2.49009 0
M  V30 7849 C 738.404 -4.02008 -1.97722 0
M  V30 7850 C 740.148 -2.71746 -3.2612 0
M  V30 7851 C 738.055 -5.05693 -3.0664 0
M  V30 7852 H 736.985 -0.549068 -0.51676 0
M  V30 7853 H 739.636 -1.71009 -0.665437 0
M  V30 7854 H 738.018 -2.29671 -3.22594 0
M  V30 7855 H 739.192 -4.41809 -1.30925 0
M  V30 7856 H 737.507 -3.94456 -1.33392 0
M  V30 7857 H 740.104 -3.46382 -4.07337 0
M  V30 7858 H 740.447 -1.77959 -3.76346 0
M  V30 7859 H 740.98 -3.01392 -2.5963 0
M  V30 7860 H 737.719 -6.01148 -2.61345 0
M  V30 7861 H 737.239 -4.70473 -3.72042 0
M  V30 7862 H 738.918 -5.29906 -3.71226 0
M  V30 7863 N 739.05 0.861098 -1.31996 0
M  V30 7864 C 740 1.95703 -1.1698 0
M  V30 7865 C 740.984 1.60709 -0.0784201 0
M  V30 7866 O 742.176 1.74365 -0.304262 0
M  V30 7867 C 739.305 3.31606 -0.888388 0
M  V30 7868 C 738.391 3.7284 -2.02117 0
M  V30 7869 N 738.782 3.85957 -3.26911 0
M  V30 7870 C 737.08 4.02419 -1.92289 0
M  V30 7871 C 737.781 4.21333 -4.01065 0
M  V30 7872 N 736.757 4.32502 -3.29307 0
M  V30 7873 H 740.559 2.03968 -2.11599 0
M  V30 7874 H 738.073 1.05245 -1.23682 0
M  V30 7875 H 740.07 4.09881 -0.761782 0
M  V30 7876 H 738.73 3.24662 0.0494898 0
M  V30 7877 H 739.741 3.70449 -3.61923 0
M  V30 7878 H 736.418 4.03814 -1.06022 0
M  V30 7879 H 737.808 4.39005 -5.08649 0
M  V30 7880 N 740.528 1.15101 1.07655 0
M  V30 7881 C 741.768 0.934462 1.81789 0
M  V30 7882 C 742.132 -0.529101 1.84566 0
M  V30 7883 O 743.333 -0.863868 2.5454 0
M  V30 7884 C 741.604 1.52817 3.23082 0
M  V30 7885 S 743.163 1.45429 4.14 0
M  V30 7886 H 739.981 0.336379 0.626395 0
M  V30 7887 H 742.583 1.46593 1.29347 0
M  V30 7888 H 741.287 2.58635 3.18647 0
M  V30 7889 H 740.818 0.995432 3.80598 0
M  V30 7890 H 742.833 0.445058 4.942 0
M  V30 7891 N 742.006 -1.2595 0.947325 0
M  V30 7892 C 743.252 -1.94081 0.608604 0
M  V30 7893 C 743.607 -1.72899 -0.844021 0
M  V30 7894 O 742.9 -1.05908 -1.59669 0
M  V30 7895 C 743.094 -3.46034 0.894158 0
M  V30 7896 C 742.923 -3.81994 2.37299 0
M  V30 7897 C 741.693 -4.04431 3.02925 0
M  V30 7898 C 743.891 -3.90069 3.35188 0
M  V30 7899 N 741.873 -4.27325 4.40757 0
M  V30 7900 C 743.244 -4.17567 4.58299 0
M  V30 7901 C 745.299 -3.72721 3.30127 0
M  V30 7902 C 744.002 -4.2952 5.76979 0
M  V30 7903 C 746.028 -3.8591 4.48138 0
M  V30 7904 C 745.39 -4.13812 5.70034 0
M  V30 7905 H 741.489 -0.73273 0.273187 0
M  V30 7906 H 744.073 -1.51898 1.218 0
M  V30 7907 H 742.244 -3.87131 0.313758 0
M  V30 7908 H 743.976 -4.01396 0.516082 0
M  V30 7909 H 740.731 -4.0003 2.53521 0
M  V30 7910 H 741.155 -4.42792 5.12118 0
M  V30 7911 H 745.797 -3.50172 2.36938 0
M  V30 7912 H 743.515 -4.50888 6.70616 0
M  V30 7913 H 747.101 -3.73882 4.45762 0
M  V30 7914 H 745.981 -4.23791 6.59827 0
M  V30 7915 N 743.484 -0.715051 -1.40445 0
M  V30 7916 C 744.431 -0.0621393 -2.30716 0
M  V30 7917 C 745.401 0.750871 -1.48159 0
M  V30 7918 O 746.586 0.714928 -1.76899 0
M  V30 7919 C 743.726 0.854036 -3.34365 0
M  V30 7920 C 742.839 0.0305565 -4.31989 0
M  V30 7921 C 741.974 0.946162 -5.22706 0
M  V30 7922 C 741.013 0.116741 -6.11989 0
M  V30 7923 N 740.15 0.987194 -6.95125 0
M  V30 7924 H 744.99 -0.83764 -2.85985 0
M  V30 7925 H 742.527 -0.424759 -1.40834 0
M  V30 7926 H 744.485 1.39946 -3.93028 0
M  V30 7927 H 743.115 1.59572 -2.806 0
M  V30 7928 H 742.167 -0.632044 -3.75112 0
M  V30 7929 H 743.479 -0.611615 -4.95036 0
M  V30 7930 H 742.633 1.56014 -5.86297 0
M  V30 7931 H 741.372 1.62216 -4.59932 0
M  V30 7932 H 740.377 -0.510176 -5.47428 0
M  V30 7933 H 741.602 -0.555742 -6.76822 0
M  V30 7934 H 739.548 1.64885 -6.3494 0
M  V30 7935 H 739.465 0.401046 -7.54936 0
M  V30 7936 H 740.733 1.58737 -7.63166 0
M  V30 7937 N 744.962 1.50701 -0.461195 0
M  V30 7938 C 745.909 2.2831 0.338094 0
M  V30 7939 C 746.879 1.32928 0.995957 0
M  V30 7940 O 748.064 1.61857 1.0103 0
M  V30 7941 C 745.204 3.14539 1.41983 0
M  V30 7942 C 744.317 4.24942 0.77773 0
M  V30 7943 C 743.452 4.98443 1.83652 0
M  V30 7944 C 742.491 6.00733 1.17413 0
M  V30 7945 N 741.628 6.6755 2.17533 0
M  V30 7946 H 746.468 2.96167 -0.330051 0
M  V30 7947 H 744.005 1.4606 -0.174611 0
M  V30 7948 H 745.963 3.62877 2.05855 0
M  V30 7949 H 744.593 2.48749 2.05727 0
M  V30 7950 H 743.645 3.80391 0.0266924 0
M  V30 7951 H 744.957 4.98151 0.254362 0
M  V30 7952 H 744.111 5.50449 2.55129 0
M  V30 7953 H 742.85 4.24917 2.39367 0
M  V30 7954 H 741.855 5.47997 0.444944 0
M  V30 7955 H 743.08 6.76227 0.624006 0
M  V30 7956 H 741.026 5.96823 2.72284 0
M  V30 7957 H 740.943 7.36603 1.70154 0
M  V30 7958 H 742.211 7.24178 2.88421 0
M  V30 7959 N 746.441 0.193421 1.56409 0
M  V30 7960 C 747.718 -0.493318 1.89277 0
M  V30 7961 C 748.098 -1.79765 1.10669 0
M  V30 7962 O 747.446 -2.27558 0.207274 0
M  V30 7963 C 747.656 -0.713732 3.41624 0
M  V30 7964 C 749.004 -1.03385 4.11821 0
M  V30 7965 O 750.028 -0.801511 3.47065 0
M  V30 7966 O 748.887 -1.47327 5.26267 0
M  V30 7967 H 745.981 -0.256973 0.786062 0
M  V30 7968 H 748.527 0.23351 1.68086 0
M  V30 7969 H 747.299 0.207446 3.9075 0
M  V30 7970 H 746.922 -1.49308 3.68501 0
M  V30 7971 N 747.919 -1.57396 -0.0801906 0
M  V30 7972 C 749.33 -1.75642 -0.633002 0
M  V30 7973 C 749.681 -0.817708 -1.78348 0
M  V30 7974 O 748.806 0.000233743 -2.164 0
M  V30 7975 C 749.401 -3.18502 -1.15507 0
M  V30 7976 C 747.96 -3.38121 -1.65381 0
M  V30 7977 C 747.107 -2.71386 -0.569661 0
M  V30 7978 H 750.058 -1.58027 0.145949 0
M  V30 7979 H 750.079 -3.22198 -2.02408 0
M  V30 7980 H 749.591 -3.86799 -0.317515 0
M  V30 7981 H 747.692 -2.74926 -2.51488 0
M  V30 7982 H 747.805 -4.46521 -1.73654 0
M  V30 7983 H 746.169 -2.33702 -1.0127 0
M  V30 7984 H 746.952 -3.42332 0.257561 0
M  V30 7985 N 749.397 0.351382 -1.53633 0
M  V30 7986 C 750.307 1.45471 -1.84052 0
M  V30 7987 C 751.323 1.57945 -0.730015 0
M  V30 7988 O 752.499 1.73571 -1.02153 0
M  V30 7989 C 749.564 2.80562 -2.03681 0
M  V30 7990 C 748.625 2.77497 -3.27558 0
M  V30 7991 C 747.858 4.06144 -3.46241 0
M  V30 7992 O 748.081 5.03028 -2.68922 0
M  V30 7993 O 747.015 4.11092 -4.39645 0
M  V30 7994 H 750.841 1.22684 -2.77817 0
M  V30 7995 H 748.426 0.542827 -1.3919 0
M  V30 7996 H 750.308 3.6058 -2.18082 0
M  V30 7997 H 748.983 3.03296 -1.13106 0
M  V30 7998 H 747.89 1.96126 -3.18568 0
M  V30 7999 H 749.223 2.59716 -4.18101 0
M  V30 8000 N 750.875 1.45233 0.611969 0
M  V30 8001 C 751.785 1.56098 1.7513 0
M  V30 8002 C 752.801 0.445646 1.68196 0
M  V30 8003 O 753.977 0.705718 1.88631 0
M  V30 8004 C 751.042 1.52052 3.11579 0
M  V30 8005 C 750.103 2.74589 3.29999 0
M  V30 8006 C 749.336 2.70726 4.59938 0
M  V30 8007 O 749.559 1.77806 5.41979 0
M  V30 8008 O 748.493 3.61864 4.80976 0
M  V30 8009 H 752.319 2.52392 1.68914 0
M  V30 8010 H 749.904 1.27695 0.775528 0
M  V30 8011 H 751.786 1.52387 3.92882 0
M  V30 8012 H 750.461 0.589085 3.18295 0
M  V30 8013 H 749.368 2.79817 2.48301 0
M  V30 8014 H 750.701 3.66843 3.28157 0
M  V30 8015 N 752.353 -0.854086 1.3245 0
M  V30 8016 C 753.769 -1.14238 1.11453 0
M  V30 8017 C 753.969 -2.01228 -0.10461 0
M  V30 8018 O 753.025 -2.39845 -0.789339 0
M  V30 8019 C 754.338 -1.81916 2.39431 0
M  V30 8020 C 755.886 -1.94549 2.45193 0
M  V30 8021 C 756.361 -2.65642 3.73093 0
M  V30 8022 N 757.852 -2.73167 3.74078 0
M  V30 8023 C 758.587 -3.28828 4.69744 0
M  V30 8024 N 758.083 -3.85295 5.75778 0
M  V30 8025 N 759.876 -3.26936 4.57241 0
M  V30 8026 H 752.027 -0.274786 2.10615 0
M  V30 8027 H 754.29 -0.184375 0.929898 0
M  V30 8028 H 753.996 -1.25452 3.28565 0
M  V30 8029 H 753.87 -2.82068 2.50434 0
M  V30 8030 H 756.257 -2.50172 1.56518 0
M  V30 8031 H 756.338 -0.933914 2.38142 0
M  V30 8032 H 755.982 -2.10683 4.62142 0
M  V30 8033 H 755.912 -3.6724 3.77415 0
M  V30 8034 H 758.403 -2.33108 2.97438 0
M  V30 8035 H 758.716 -4.25925 6.44832 0
M  V30 8036 H 757.061 -3.83625 5.79531 0
M  V30 8037 H 760.252 -2.8207 3.7357 0
M  V30 8038 H 760.425 -3.70014 5.31971 0
M  V30 8039 N 753.831 -1.1567 -1.07043 0
M  V30 8040 C 755.242 -0.942408 -1.61169 0
M  V30 8041 C 755.593 0.515537 -1.89306 0
M  V30 8042 O 754.718 1.38726 -1.66084 0
M  V30 8043 C 755.313 -1.70431 -2.92812 0
M  V30 8044 C 753.872 -1.53521 -3.43669 0
M  V30 8045 C 753.019 -1.7179 -2.17678 0
M  V30 8046 H 755.97 -1.3065 -0.9009 0
M  V30 8047 H 755.991 -1.17566 -3.61882 0
M  V30 8048 H 755.503 -2.76538 -2.72302 0
M  V30 8049 H 753.604 -0.498224 -3.69254 0
M  V30 8050 H 753.717 -2.31422 -4.19501 0
M  V30 8051 H 752.081 -1.14468 -2.27529 0
M  V30 8052 H 752.864 -2.79269 -1.99659 0
M  V30 8053 N 755.309 1.25446 -0.953992 0
M  V30 8054 C 756.537 1.97215 -0.625595 0
M  V30 8055 C 756.952 1.70911 0.802168 0
M  V30 8056 O 756.309 0.984782 1.5365 0
M  V30 8057 C 756.36 3.50777 -0.873943 0
M  V30 8058 O 756.081 3.76173 -2.24556 0
M  V30 8059 C 757.582 4.39776 -0.557845 0
M  V30 8060 H 754.802 0.628652 -0.2346 0
M  V30 8061 H 757.346 1.59632 -1.27819 0
M  V30 8062 H 755.501 3.86474 -0.267765 0
M  V30 8063 H 755.915 4.70636 -2.31522 0
M  V30 8064 H 757.389 5.46431 -0.782157 0
M  V30 8065 H 757.866 4.36257 0.507573 0
M  V30 8066 H 758.472 4.09644 -1.14332 0
M  V30 8067 N 756.787 0.722489 1.40064 0
M  V30 8068 C 758.034 0.264979 2.00759 0
M  V30 8069 C 758.362 -1.14395 1.57302 0
M  V30 8070 O 757.617 -1.79165 0.787298 0
M  V30 8071 C 757.916 0.300682 3.56133 0
M  V30 8072 C 757.582 1.66087 4.19197 0
M  V30 8073 C 756.244 2.03319 4.36136 0
M  V30 8074 C 758.596 2.55452 4.54306 0
M  V30 8075 C 755.924 3.29448 4.8547 0
M  V30 8076 C 758.276 3.8094 5.05042 0
M  V30 8077 C 756.94 4.1828 5.2019 0
M  V30 8078 H 756.21 0.0969625 0.734629 0
M  V30 8079 H 758.857 0.926877 1.67575 0
M  V30 8080 H 757.162 -0.44479 3.89267 0
M  V30 8081 H 758.859 -0.0712542 4.00937 0
M  V30 8082 H 755.449 1.36137 4.06405 0
M  V30 8083 H 759.633 2.27961 4.40849 0
M  V30 8084 H 754.889 3.58338 4.95382 0
M  V30 8085 H 759.063 4.50351 5.31184 0
M  V30 8086 H 756.69 5.16081 5.58179 0
M  V30 8087 N 758.265 -1.50454 0.469181 0
M  V30 8088 C 759.175 -2.32248 -0.331349 0
M  V30 8089 C 760.191 -1.42548 -0.997807 0
M  V30 8090 O 761.367 -1.75602 -0.9862 0
M  V30 8091 C 758.432 -3.17171 -1.40012 0
M  V30 8092 C 757.493 -4.2269 -0.750463 0
M  V30 8093 C 756.726 -5.03554 -1.76831 0
M  V30 8094 O 756.949 -4.85469 -2.99459 0
M  V30 8095 O 755.883 -5.86767 -1.3412 0
M  V30 8096 H 759.709 -3.01821 0.337279 0
M  V30 8097 H 757.294 -1.47602 0.231066 0
M  V30 8098 H 759.176 -3.69871 -2.01924 0
M  V30 8099 H 757.851 -2.50328 -2.05226 0
M  V30 8100 H 756.758 -3.73986 -0.0924446 0
M  V30 8101 H 758.091 -4.91997 -0.14131 0
M  V30 8102 N 759.743 -0.201713 -1.56304 0
M  V30 8103 C 760.973 0.440084 -2.01858 0
M  V30 8104 C 761.381 1.55279 -1.08098 0
M  V30 8105 O 760.724 1.83529 -0.0792216 0
M  V30 8106 C 760.786 1.05091 -3.43797 0
M  V30 8107 C 760.45 0.0761208 -4.56937 0
M  V30 8108 C 761.447 -0.716951 -5.14933 0
M  V30 8109 C 759.132 -0.0368815 -5.02286 0
M  V30 8110 C 761.126 -1.60993 -6.16733 0
M  V30 8111 C 758.813 -0.933409 -6.03929 0
M  V30 8112 C 759.811 -1.71849 -6.61027 0
M  V30 8113 O 759.499 -2.59998 -7.60695 0
M  V30 8114 H 759.231 0.114139 -0.666294 0
M  V30 8115 H 761.785 -0.309672 -2.03052 0
M  V30 8116 H 760.015 1.84938 -3.3961 0
M  V30 8117 H 761.704 1.59804 -3.73118 0
M  V30 8118 H 762.47 -0.63999 -4.80759 0
M  V30 8119 H 758.349 0.564034 -4.57537 0
M  V30 8120 H 761.893 -2.22315 -6.61227 0
M  V30 8121 H 757.79 -1.01146 -6.37526 0
M  V30 8122 H 758.558 -2.53851 -7.7814 0
M  V30 8123 N 761.222 1.57436 0.0718424 0
M  V30 8124 C 762.152 2.06724 1.08571 0
M  V30 8125 C 763.133 0.960731 1.40371 0
M  V30 8126 O 764.318 1.23345 1.49999 0
M  V30 8127 C 761.448 2.51112 2.39916 0
M  V30 8128 C 760.402 3.65639 2.22469 0
M  V30 8129 C 759.728 3.96082 3.59198 0
M  V30 8130 C 761.028 4.95687 1.64596 0
M  V30 8131 H 762.722 2.91679 0.675569 0
M  V30 8132 H 760.268 1.40319 0.32352 0
M  V30 8133 H 762.221 2.84206 3.11135 0
M  V30 8134 H 760.945 1.63186 2.8291 0
M  V30 8135 H 759.604 3.32828 1.53691 0
M  V30 8136 H 759.252 3.05287 3.99761 0
M  V30 8137 H 758.952 4.73199 3.48362 0
M  V30 8138 H 760.476 4.31672 4.31847 0
M  V30 8139 H 761.89 5.27011 2.25681 0
M  V30 8140 H 760.287 5.77126 1.64457 0
M  V30 8141 H 761.357 4.8108 0.60744 0
M  V30 8142 N 762.7 -0.34323 1.53817 0
M  V30 8143 C 763.632 -1.44216 1.78141 0
M  V30 8144 C 764.645 -1.48701 0.662721 0
M  V30 8145 O 765.834 -1.51778 0.939458 0
M  V30 8146 C 762.934 -2.82872 1.86646 0
M  V30 8147 C 762.107 -3.01824 3.16577 0
M  V30 8148 C 761.166 -4.20723 3.16036 0
M  V30 8149 O 760.192 -4.14824 3.89756 0
M  V30 8150 N 761.394 -5.29276 2.38427 0
M  V30 8151 H 764.159 -1.23721 2.72971 0
M  V30 8152 H 761.72 -0.53311 1.52871 0
M  V30 8153 H 763.712 -3.60588 1.83735 0
M  V30 8154 H 762.282 -2.96509 0.990014 0
M  V30 8155 H 761.502 -2.11575 3.3261 0
M  V30 8156 H 762.79 -3.11369 4.02402 0
M  V30 8157 H 762.188 -5.36938 1.78085 0
M  V30 8158 H 760.745 -6.05484 2.41313 0
M  V30 8159 N 764.178 -1.45556 -0.604258 0
M  V30 8160 C 765.403 -1.53509 -1.39462 0
M  V30 8161 C 765.828 -0.169638 -1.87333 0
M  V30 8162 O 765.186 0.846346 -1.60333 0
M  V30 8163 C 765.234 -2.52654 -2.5729 0
M  V30 8164 O 764.338 -2.04666 -3.5803 0
M  V30 8165 H 763.679 -0.517355 -0.416221 0
M  V30 8166 H 766.209 -1.90939 -0.735072 0
M  V30 8167 H 766.219 -2.71568 -3.04491 0
M  V30 8168 H 764.894 -3.51823 -2.21797 0
M  V30 8169 H 763.471 -1.95643 -3.17456 0
M  V30 8170 N 765.656 0.84705 -1.32902 0
M  V30 8171 C 766.903 1.60176 -1.23894 0
M  V30 8172 C 767.231 1.93496 0.197341 0
M  V30 8173 O 766.486 1.58173 1.15238 0
M  V30 8174 C 766.785 2.92663 -2.05142 0
M  V30 8175 C 766.451 2.7874 -3.54422 0
M  V30 8176 C 765.113 2.7465 -3.95121 0
M  V30 8177 C 767.465 2.64128 -4.49317 0
M  V30 8178 C 764.793 2.53837 -5.28946 0
M  V30 8179 C 767.145 2.44849 -5.83294 0
M  V30 8180 C 765.809 2.39156 -6.23186 0
M  V30 8181 H 765.079 0.586127 -0.453361 0
M  V30 8182 H 767.726 0.981994 -1.64405 0
M  V30 8183 H 766.031 3.588 -1.57383 0
M  V30 8184 H 767.728 3.50095 -1.95537 0
M  V30 8185 H 764.318 2.82751 -3.22102 0
M  V30 8186 H 768.502 2.66327 -4.18788 0
M  V30 8187 H 763.758 2.4787 -5.58901 0
M  V30 8188 H 767.932 2.32524 -6.56434 0
M  V30 8189 H 765.559 2.22789 -7.26821 0
M  V30 8190 N 767.134 1.16236 1.06428 0
M  V30 8191 C 768.064 0.890807 2.1584 0
M  V30 8192 C 769.045 -0.162333 1.69324 0
M  V30 8193 O 770.23 -0.0147191 1.94194 0
M  V30 8194 C 767.36 0.389615 3.45108 0
M  V30 8195 C 766.314 1.38051 4.05125 0
M  V30 8196 C 765.64 0.737773 5.29586 0
M  V30 8197 C 766.94 2.74965 4.44062 0
M  V30 8198 H 768.634 1.80577 2.38814 0
M  V30 8199 H 766.18 0.869657 1.14774 0
M  V30 8200 H 768.133 0.187127 4.20984 0
M  V30 8201 H 766.857 -0.560851 3.21748 0
M  V30 8202 H 765.516 1.56952 3.31303 0
M  V30 8203 H 765.164 -0.219135 5.02522 0
M  V30 8204 H 764.864 1.39914 5.70699 0
M  V30 8205 H 766.388 0.545275 6.0816 0
M  V30 8206 H 767.802 2.59855 5.11027 0
M  V30 8207 H 766.199 3.37563 4.96156 0
M  V30 8208 H 767.269 3.30321 3.54987 0
M  V30 8209 N 768.612 -1.24939 0.960631 0
M  V30 8210 C 769.522 -2.29374 0.492435 0
M  V30 8211 C 770.538 -1.68262 -0.443154 0
M  V30 8212 O 771.714 -1.98875 -0.31793 0
M  V30 8213 C 768.779 -3.46023 -0.216626 0
M  V30 8214 C 767.84 -4.22557 0.757915 0
M  V30 8215 C 767.073 -5.33636 0.0825969 0
M  V30 8216 O 767.296 -5.59084 -1.13054 0
M  V30 8217 O 766.23 -5.96939 0.771177 0
M  V30 8218 H 770.056 -2.71525 1.36044 0
M  V30 8219 H 767.641 -1.30499 0.72735 0
M  V30 8220 H 769.523 -4.16885 -0.615241 0
M  V30 8221 H 768.198 -3.05862 -1.05971 0
M  V30 8222 H 767.105 -3.54099 1.20685 0
M  V30 8223 H 768.438 -4.66516 1.5692 0
M  V30 8224 N 770.09 -0.729906 -1.39679 0
M  V30 8225 C 771.367 -0.202149 -1.94553 0
M  V30 8226 C 771.747 1.29507 -1.66707 0
M  V30 8227 O 771.095 2.05819 -0.992517 0
M  V30 8228 C 771.305 -0.530279 -3.44948 0
M  V30 8229 C 772.653 -0.476808 -4.21914 0
M  V30 8230 O 773.677 -0.467171 -3.53123 0
M  V30 8231 O 772.536 -0.466869 -5.44502 0
M  V30 8232 H 769.63 -0.0351644 -0.826252 0
M  V30 8233 H 772.176 -0.808417 -1.49207 0
M  V30 8234 H 770.948 -1.56526 -3.5863 0
M  V30 8235 H 770.571 0.10522 -3.97461 0
M  V30 8236 N 771.568 1.50203 -0.477153 0
M  V30 8237 C 772.798 2.0647 0.0731427 0
M  V30 8238 C 773.206 1.3405 1.33518 0
M  V30 8239 O 772.549 0.405164 1.79176 0
M  V30 8240 C 772.611 3.57025 0.421121 0
M  V30 8241 C 772.275 4.50973 -0.739765 0
M  V30 8242 C 773.272 4.939 -1.62353 0
M  V30 8243 C 770.957 4.93581 -0.93181 0
M  V30 8244 C 772.951 5.78149 -2.6837 0
M  V30 8245 C 770.638 5.77612 -1.99519 0
M  V30 8246 C 771.636 6.19798 -2.86949 0
M  V30 8247 O 771.324 7.02152 -3.91456 0
M  V30 8248 H 771.056 0.675969 -0.00648243 0
M  V30 8249 H 773.61 1.94278 -0.66673 0
M  V30 8250 H 771.84 3.67141 1.21426 0
M  V30 8251 H 773.529 3.95632 0.907213 0
M  V30 8252 H 774.295 4.61646 -1.48687 0
M  V30 8253 H 770.174 4.60262 -0.260739 0
M  V30 8254 H 773.718 6.10997 -3.36643 0
M  V30 8255 H 769.615 6.09279 -2.13189 0
M  V30 8256 H 770.383 7.20414 -3.88518 0
M  V30 8257 N 773.046 0.209999 1.56195 0
M  V30 8258 C 774.293 -0.424813 1.97994 0
M  V30 8259 C 774.621 -1.60589 1.09733 0
M  V30 8260 O 773.876 -1.95201 0.139693 0
M  V30 8261 C 774.175 -0.91312 3.45539 0
M  V30 8262 C 773.841 0.156187 4.50629 0
M  V30 8263 C 772.503 0.449966 4.79092 0
M  V30 8264 C 774.855 0.879959 5.13718 0
M  V30 8265 C 772.183 1.47223 5.67928 0
M  V30 8266 C 774.535 1.89148 6.0366 0
M  V30 8267 C 773.199 2.1923 6.30472 0
M  V30 8268 H 772.469 -0.15545 0.724511 0
M  V30 8269 H 775.116 0.310095 1.88973 0
M  V30 8270 H 773.421 -1.72658 3.51705 0
M  V30 8271 H 775.118 -1.41395 3.75245 0
M  V30 8272 H 771.708 -0.0829466 4.2852 0
M  V30 8273 H 775.892 0.66623 4.91808 0
M  V30 8274 H 771.148 1.71105 5.86969 0
M  V30 8275 H 775.322 2.45745 6.516 0
M  V30 8276 H 772.949 2.98587 6.99107 0
M  V30 8277 N 774.524 -1.57472 -0.0634922 0
M  V30 8278 C 775.752 -1.91887 -0.773767 0
M  V30 8279 C 776.167 -0.806733 -1.70696 0
M  V30 8280 O 775.524 0.219383 -1.81177 0
M  V30 8281 C 775.575 -3.26092 -1.56034 0
M  V30 8282 O 775.296 -4.33029 -0.66464 0
M  V30 8283 C 776.797 -3.74573 -2.37087 0
M  V30 8284 H 774.017 -0.634074 -0.219525 0
M  V30 8285 H 776.561 -2.04476 -0.0312828 0
M  V30 8286 H 774.716 -3.15004 -2.25502 0
M  V30 8287 H 775.13 -5.10291 -1.21258 0
M  V30 8288 H 776.604 -4.71084 -2.87722 0
M  V30 8289 H 777.081 -3.04003 -3.16984 0
M  V30 8290 H 777.687 -3.88631 -1.72759 0
M  V30 8291 N 776.003 0.335068 -1.53997 0
M  V30 8292 C 776.966 1.39481 -1.81872 0
M  V30 8293 C 777.966 1.4524 -0.690078 0
M  V30 8294 O 779.156 1.45467 -0.958377 0
M  V30 8295 C 776.288 2.78329 -1.9684 0
M  V30 8296 H 777.481 1.16024 -2.76547 0
M  V30 8297 H 775.034 0.569926 -1.45539 0
M  V30 8298 H 775.769 3.07058 -1.04337 0
M  V30 8299 H 775.554 2.75544 -2.78958 0
M  V30 8300 H 777.044 3.55016 -2.19894 0
M  V30 8301 N 777.481 1.45874 0.596531 0
M  V30 8302 C 778.709 1.54013 1.38158 0
M  V30 8303 C 779.124 0.17648 1.87973 0
M  V30 8304 O 778.481 -0.823895 1.62844 0
M  V30 8305 C 778.532 2.53363 2.57855 0
M  V30 8306 O 778.253 3.8443 2.10108 0
M  V30 8307 C 779.754 2.71308 3.50581 0
M  V30 8308 H 776.974 0.521251 0.422538 0
M  V30 8309 H 779.518 1.9116 0.726493 0
M  V30 8310 H 777.673 2.19257 3.19382 0
M  V30 8311 H 778.087 4.38384 2.87958 0
M  V30 8312 H 779.561 3.44776 4.31084 0
M  V30 8313 H 780.038 1.77728 4.01633 0
M  V30 8314 H 780.644 3.06455 2.94899 0
M  V30 8315 N 778.959 -0.83999 1.33349 0
M  V30 8316 C 779.869 -1.98182 1.25543 0
M  V30 8317 C 780.885 -1.73204 0.166208 0
M  V30 8318 O 782.061 -1.97596 0.389589 0
M  V30 8319 C 779.126 -3.32157 0.993614 0
M  V30 8320 C 778.187 -3.70258 2.17273 0
M  V30 8321 C 777.42 -4.9784 1.92331 0
M  V30 8322 O 777.643 -5.63679 0.873074 0
M  V30 8323 O 776.577 -5.33418 2.78835 0
M  V30 8324 H 780.403 -2.07708 2.21565 0
M  V30 8325 H 777.988 -0.972852 1.13384 0
M  V30 8326 H 779.87 -4.12433 0.864711 0
M  V30 8327 H 778.545 -3.23637 0.0636596 0
M  V30 8328 H 777.452 -2.90497 2.35716 0
M  V30 8329 H 778.785 -3.83442 3.08598 0
M  V30 8330 N 780.437 -1.16799 -1.0581 0
M  V30 8331 C 781.848 -0.95945 -1.60161 0
M  V30 8332 C 782.199 0.49543 -1.89842 0
M  V30 8333 O 781.324 1.36957 -1.67546 0
M  V30 8334 C 781.919 -1.73527 -2.90987 0
M  V30 8335 C 780.478 -1.57158 -3.42021 0
M  V30 8336 C 779.625 -1.74089 -2.15843 0
M  V30 8337 H 782.576 -1.31598 -0.886992 0
M  V30 8338 H 782.597 -1.21397 -3.60615 0
M  V30 8339 H 782.109 -2.79411 -2.69353 0
M  V30 8340 H 780.21 -0.537361 -3.68705 0
M  V30 8341 H 780.323 -2.35858 -4.17022 0
M  V30 8342 H 778.687 -1.16874 -2.26302 0
M  V30 8343 H 779.47 -2.81371 -1.96686 0
M  V30 8344 N 781.915 1.24427 -0.967243 0
M  V30 8345 C 782.847 2.24641 -0.454856 0
M  V30 8346 C 783.86 1.56849 0.436152 0
M  V30 8347 O 785.049 1.76846 0.242401 0
M  V30 8348 C 782.149 3.36954 0.362672 0
M  V30 8349 C 781.322 4.34318 -0.518324 0
M  V30 8350 C 780.381 5.25638 0.243122 0
M  V30 8351 O 779.407 5.68043 -0.362791 0
M  V30 8352 N 780.609 5.59897 1.53282 0
M  V30 8353 H 783.374 2.69238 -1.31648 0
M  V30 8354 H 780.935 1.38464 -0.839015 0
M  V30 8355 H 782.927 3.95014 0.880094 0
M  V30 8356 H 781.497 2.91646 1.12522 0
M  V30 8357 H 780.717 3.74953 -1.21672 0
M  V30 8358 H 782.005 4.96338 -1.11919 0
M  V30 8359 H 781.403 5.27373 2.04682 0
M  V30 8360 H 779.96 6.20488 1.99594 0
M  V30 8361 N 783.393 0.737304 1.3929 0
M  V30 8362 C 784.623 0.296143 2.04467 0
M  V30 8363 C 785.031 -1.0748 1.55707 0
M  V30 8364 O 784.374 -1.69082 0.718123 0
M  V30 8365 C 784.436 0.222161 3.58813 0
M  V30 8366 C 784.1 1.53195 4.30558 0
M  V30 8367 C 785.097 2.47809 4.57041 0
M  V30 8368 C 782.782 1.79688 4.6906 0
M  V30 8369 C 784.776 3.67147 5.21039 0
M  V30 8370 C 782.463 2.99304 5.32785 0
M  V30 8371 C 783.461 3.92855 5.58708 0
M  V30 8372 O 783.149 5.1037 6.2111 0
M  V30 8373 H 782.881 0.126896 0.663983 0
M  V30 8374 H 785.435 1.00242 1.79278 0
M  V30 8375 H 783.665 -0.540239 3.82908 0
M  V30 8376 H 785.354 -0.187311 4.05468 0
M  V30 8377 H 786.12 2.28611 4.2774 0
M  V30 8378 H 781.999 1.07716 4.48239 0
M  V30 8379 H 785.543 4.40183 5.41188 0
M  V30 8380 H 781.44 3.18401 5.61508 0
M  V30 8381 H 782.208 5.10735 6.39603 0
M  V30 8382 N 784.871 -1.49948 0.485112 0
M  V30 8383 C 785.803 -2.26691 -0.338222 0
M  V30 8384 C 786.816 -1.32584 -0.944742 0
M  V30 8385 O 788.005 -1.57989 -0.830772 0
M  V30 8386 C 785.105 -3.04405 -1.48966 0
M  V30 8387 C 784.278 -4.25971 -0.993371 0
M  V30 8388 C 783.337 -4.85861 -2.02052 0
M  V30 8389 O 782.363 -5.46382 -1.59547 0
M  V30 8390 N 783.565 -4.74101 -3.34975 0
M  V30 8391 H 786.33 -2.97989 0.319748 0
M  V30 8392 H 783.891 -1.58772 0.316714 0
M  V30 8393 H 785.883 -3.41348 -2.17403 0
M  V30 8394 H 784.453 -2.35815 -2.05207 0
M  V30 8395 H 783.673 -3.93971 -0.134424 0
M  V30 8396 H 784.961 -5.0476 -0.639934 0
M  V30 8397 H 784.359 -4.26002 -3.72208 0
M  V30 8398 H 782.916 -5.15274 -3.9917 0
M  V30 8399 N 786.349 -0.21828 -1.56081 0
M  V30 8400 C 787.76 0.290166 -1.84431 0
M  V30 8401 C 788.111 1.59712 -1.13958 0
M  V30 8402 O 787.236 2.12516 -0.40815 0
M  V30 8403 C 787.831 0.53325 -3.34577 0
M  V30 8404 C 786.39 0.986011 -3.63256 0
M  V30 8405 C 785.537 0.0472798 -2.7726 0
M  V30 8406 H 788.488 -0.441548 -1.52434 0
M  V30 8407 H 788.509 1.37967 -3.54606 0
M  V30 8408 H 788.021 -0.418137 -3.85841 0
M  V30 8409 H 786.122 1.95087 -3.17446 0
M  V30 8410 H 786.235 0.862684 -4.71269 0
M  V30 8411 H 784.599 0.553471 -2.48614 0
M  V30 8412 H 785.382 -0.898966 -3.31321 0
M  V30 8413 N 787.827 1.57504 0.0551401 0
M  V30 8414 C 789.075 1.87684 0.74962 0
M  V30 8415 C 789.396 0.812547 1.77264 0
M  V30 8416 O 788.666 -0.15694 1.9527 0
M  V30 8417 H 787.246 0.6926 0.279846 0
M  V30 8418 H 789.908 1.94881 0.0272745 0
M  V30 8419 H 789.004 2.85734 1.25548 0
M  V30 8420 N 789.305 -0.326896 1.54172 0
M  V30 8421 C 790.215 -1.42525 1.86343 0
M  V30 8422 C 791.231 -1.56764 0.75505 0
M  V30 8423 O 792.407 -1.71924 1.04901 0
M  V30 8424 C 789.472 -2.77286 2.08119 0
M  V30 8425 C 788.533 -2.7225 3.31931 0
M  V30 8426 C 787.766 -4.00584 3.52659 0
M  V30 8427 O 787.989 -4.98686 2.76891 0
M  V30 8428 O 786.923 -4.04045 4.46129 0
M  V30 8429 H 790.749 -1.18249 2.79734 0
M  V30 8430 H 788.334 -0.520614 1.40036 0
M  V30 8431 H 790.216 -3.57065 2.23791 0
M  V30 8432 H 788.891 -3.01459 1.17917 0
M  V30 8433 H 787.798 -1.91033 3.21647 0
M  V30 8434 H 789.131 -2.53032 4.2218 0
M  V30 8435 N 790.784 -1.46188 -0.588786 0
M  V30 8436 C 791.732 -1.56653 -1.71938 0
M  V30 8437 C 792.726 -0.435354 -1.6371 0
M  V30 8438 O 793.932 -0.611996 -1.69277 0
M  V30 8439 H 790.307 -0.492408 -0.568365 0
M  V30 8440 H 792.278 -2.51724 -1.60242 0
M  V30 8441 C 791.027 -1.56822 -3.10326 0
M  V30 8442 H 790.35 -2.43198 -3.17325 0
M  V30 8443 H 791.79 -1.68199 -3.89211 0
M  V30 8444 C 790.249 -0.295802 -3.35599 0
M  V30 8445 O 790.779 0.616515 -3.96941 0
M  V30 8446 N 788.985 -0.185609 -2.90007 0
M  V30 8447 H 788.532 -0.928914 -2.40269 0
M  V30 8448 H 788.49 0.664883 -3.07289 0
M  V30 8449 N 792.262 0.832906 -1.33792 0
M  V30 8450 C 793.192 1.95828 -1.27176 0
M  V30 8451 C 794.173 1.69427 -0.15114 0
M  V30 8452 O 795.358 1.91167 -0.341886 0
M  V30 8453 C 792.488 3.32098 -1.01629 0
M  V30 8454 C 791.442 3.72912 -2.10049 0
M  V30 8455 C 790.768 5.07054 -1.69706 0
M  V30 8456 C 792.068 3.86064 -3.51783 0
M  V30 8457 H 793.762 2.01622 -2.21334 0
M  V30 8458 H 791.308 0.96866 -1.0655 0
M  V30 8459 H 793.261 4.10402 -0.956474 0
M  V30 8460 H 791.985 3.26577 -0.0390956 0
M  V30 8461 H 790.644 2.96876 -2.15082 0
M  V30 8462 H 790.292 4.9801 -0.706737 0
M  V30 8463 H 789.992 5.35333 -2.42264 0
M  V30 8464 H 791.516 5.87827 -1.65202 0
M  V30 8465 H 792.93 4.54665 -3.49218 0
M  V30 8466 H 791.327 4.25787 -4.22878 0
M  V30 8467 H 792.397 2.88344 -3.89854 0
M  V30 8468 O 793.779 1.29052 0.970973 0
M  V30 8469 H 794.47 1.09654 1.59674 0
M  V30 END ATOM
M  V30 BEGIN BOND
M  V30 END BOND
M  V30 END CTAB
M  END
$$$$
