drugbank_target|P13051 Uracil-DNA glycosylase (DB06990; DB07116; DB07760)
 OpenBabel12092120393D

  0  0  0     0  0            999 V3000
M  V30 BEGIN CTAB
M  V30 COUNTS 12375 13263 0 0 0
M  V30 BEGIN ATOM
M  V30 1 H -1.547 9.37743 -1.21644 0
M  V30 2 O -1.44 8.89599 -0.40059 0
M  V30 3 P 0 8.91 0 0
M  V30 4 O 0.22 10.1746 0.733838 0
M  V30 5 O 0.79 8.73346 -1.23964 0
M  V30 6 O 0.25 7.66872 0.971405 0
M  V30 7 C -0.69 7.42405 2.04668 0
M  V30 8 C 0.04 6.86059 3.24661 0
M  V30 9 O 0.25 5.42934 3.03695 0
M  V30 10 C 1.44 7.41287 3.50796 0
M  V30 11 O 1.83 7.27073 4.86816 0
M  V30 12 C 2.32 6.5273 2.63741 0
M  V30 13 C 1.61 5.1842 2.73198 0
M  V30 14 N 1.66 4.38762 1.4784 0
M  V30 15 H -1.178 8.36899 2.3252 0
M  V30 16 H -1.45 6.70391 1.71179 0
M  V30 17 H -0.582 7.03638 4.13219 0
M  V30 18 H 2.073 4.59931 3.54016 0
M  V30 19 H 2.353 6.88995 1.59871 0
M  V30 20 H 3.344 6.4684 3.0373 0
M  V30 21 H 1.51 8.47002 3.20749 0
M  V30 22 P 3.37998 7.20834 5.23717 0
M  V30 23 O 3.59998 7.79853 6.57286 0
M  V30 24 O 4.16998 7.79239 4.12957 0
M  V30 25 O 3.62998 5.63315 5.29344 0
M  V30 26 C 2.68998 4.80255 6.01876 0
M  V30 27 C 3.41998 3.64202 6.65911 0
M  V30 28 O 3.62998 2.60694 5.64732 0
M  V30 29 C 4.81998 3.93473 7.1943 0
M  V30 30 O 5.20998 3.02071 8.21205 0
M  V30 31 C 5.69998 3.73047 5.97036 0
M  V30 32 C 4.98998 2.58828 5.25741 0
M  V30 33 N 5.03998 2.68068 3.77503 0
M  V30 34 H 2.20098 5.40332 6.79951 0
M  V30 35 H 1.93098 4.41613 5.32378 0
M  V30 36 H 2.79798 3.26331 7.47797 0
M  V30 37 P 6.75996 2.75334 8.47391 0
M  V30 38 O 6.97996 2.44571 9.90142 0
M  V30 39 O 7.54996 3.87688 7.92115 0
M  V30 40 O 7.00996 1.4459 7.59357 0
M  V30 41 C 6.06996 0.347608 7.69215 0
M  V30 42 C 6.79996 -0.96767 7.52806 0
M  V30 43 O 7.00996 -1.21036 6.1011 0
M  V30 44 C 8.19996 -1.04544 8.13308 0
M  V30 45 O 8.58996 -2.38311 8.41922 0
M  V30 46 C 9.07996 -0.491279 7.02284 0
M  V30 47 C 8.36996 -0.996264 5.77469 0
M  V30 48 N 8.41996 -0.0501916 4.62973 0
M  V30 49 C 8.33996 1.32786 4.63244 0
M  V30 50 N 8.41996 1.86957 3.44545 0
M  V30 51 C 8.55996 0.780241 2.58481 0
M  V30 52 C 8.68996 0.738536 1.17757 0
M  V30 53 O 8.70996 1.66794 0.372349 0
M  V30 54 N 8.80996 -0.58337 0.711393 0
M  V30 55 C 8.80996 -1.70816 1.51017 0
M  V30 56 N 8.93996 -2.87826 0.880757 0
M  V30 57 N 8.67996 -1.67126 2.8339 0
M  V30 58 C 8.55996 -0.401421 3.30572 0
M  V30 59 H 5.58096 0.374722 8.67691 0
M  V30 60 H 5.31096 0.443485 6.90277 0
M  V30 61 H 6.17796 -1.75537 7.96793 0
M  V30 62 H 8.83296 -1.95076 5.46529 0
M  V30 63 H 9.11196 0.608565 7.04577 0
M  V30 64 H 10.104 -0.889672 7.08939 0
M  V30 65 H 8.26996 -0.43308 9.04564 0
M  V30 66 H 8.22096 1.91249 5.54442 0
M  V30 67 H 8.90296 -0.718054 -0.275244 0
M  V30 68 H 8.93996 -3.75721 1.41832 0
M  V30 69 H 9.04096 -2.90436 -0.145468 0
M  V30 70 P 10.1399 -2.75334 8.47391 0
M  V30 71 O 10.3599 -3.84128 9.44797 0
M  V30 72 O 10.9299 -1.51947 8.68712 0
M  V30 73 O 10.3899 -3.29363 6.99321 0
M  V30 74 C 9.44994 -4.24011 6.4274 0
M  V30 75 C 10.1799 -5.20775 5.52155 0
M  V30 76 O 10.3899 -4.56534 4.22446 0
M  V30 77 C 11.5799 -5.62629 5.96531 0
M  V30 78 O 11.9699 -6.87667 5.41053 0
M  V30 79 C 12.4599 -4.52537 5.39283 0
M  V30 80 C 11.7499 -4.20027 4.08623 0
M  V30 81 N 11.7999 -2.76189 3.71603 0
M  V30 82 H 8.96094 -4.797 7.24003 0
M  V30 83 H 8.69094 -3.69856 5.84513 0
M  V30 84 H 9.55794 -6.10356 5.41441 0
M  V30 85 P 13.5199 -7.20834 5.23717 0
M  V30 86 O 13.7399 -8.66104 5.38572 0
M  V30 87 O 14.3099 -6.33544 6.1349 0
M  V30 88 O 13.7699 -6.7751 3.72168 0
M  V30 89 C 12.8299 -7.20825 2.7076 0
M  V30 90 C 13.5599 -7.45864 1.40599 0
M  V30 91 O 13.7699 -6.17651 0.734225 0
M  V30 92 C 14.9599 -8.05808 1.51899 0
M  V30 93 O 15.3499 -8.74358 0.335205 0
M  V30 94 C 15.8399 -6.83093 1.70294 0
M  V30 95 C 15.1299 -5.79992 0.836974 0
M  V30 96 N 15.1799 -4.41864 1.38293 0
M  V30 97 H 12.3409 -8.13644 3.0377 0
M  V30 98 H 12.0709 -6.42788 2.55485 0
M  V30 99 H 12.9379 -8.12039 0.792769 0
M  V30 100 P 16.8999 -8.91 1.09116e-15 0
M  V30 101 O 17.1199 -10.1736 -0.733766 0
M  V30 102 O 17.6899 -8.73247 1.2395 0
M  V30 103 O 17.1499 -7.66872 -0.971405 0
M  V30 104 C 16.2099 -7.42212 -2.04614 0
M  V30 105 C 16.9399 -6.86059 -3.24661 0
M  V30 106 O 17.1499 -5.42847 -3.03646 0
M  V30 107 C 18.3399 -7.41196 -3.50753 0
M  V30 108 O 18.7299 -7.27073 -4.86816 0
M  V30 109 C 19.2199 -6.5273 -2.63741 0
M  V30 110 C 18.5099 -5.1842 -2.73198 0
M  V30 111 N 18.5599 -4.38668 -1.47808 0
M  V30 112 C 18.7099 -3.02239 -1.60048 0
M  V30 113 O 18.7999 -2.46459 -2.67869 0
M  V30 114 N 18.7499 -2.32436 -0.408571 0
M  V30 115 C 18.6599 -2.85471 0.854993 0
M  V30 116 O 18.7099 -2.12566 1.8531 0
M  V30 117 C 18.5099 -4.28918 0.887335 0
M  V30 118 C 18.3999 -4.91066 2.24619 0
M  V30 119 C 18.4599 -5.00349 -0.255399 0
M  V30 120 H 15.7199 -8.36803 -2.32493 0
M  V30 121 H 15.4509 -6.701 -1.71105 0
M  V30 122 H 16.3179 -7.03551 -4.13168 0
M  V30 123 H 18.9729 -4.59773 -3.53894 0
M  V30 124 H 19.2519 -6.88995 -1.59871 0
M  V30 125 H 20.2439 -6.46749 -3.03687 0
M  V30 126 H 18.4099 -8.46908 -3.20714 0
M  V30 127 H 18.3389 -6.08548 -0.206986 0
M  V30 128 H 19.3689 -5.34836 2.53099 0
M  V30 129 H 17.6319 -5.69638 2.2291 0
M  V30 130 H 18.1199 -4.13971 2.98044 0
M  V30 131 H 18.8559 -1.33211 -0.474216 0
M  V30 132 P 20.2799 -7.20834 -5.23717 0
M  V30 133 O 20.4999 -7.79853 -6.57286 0
M  V30 134 O 21.0699 -7.79239 -4.12957 0
M  V30 135 O 20.5299 -5.63315 -5.29344 0
M  V30 136 C 19.5899 -4.80255 -6.01876 0
M  V30 137 C 20.3199 -3.64202 -6.65911 0
M  V30 138 O 20.5299 -2.60694 -5.64732 0
M  V30 139 C 21.7199 -3.93473 -7.1943 0
M  V30 140 O 22.1099 -3.02071 -8.21205 0
M  V30 141 C 22.5999 -3.73047 -5.97036 0
M  V30 142 C 21.8899 -2.58828 -5.25741 0
M  V30 143 N 21.9399 -2.68068 -3.77503 0
M  V30 144 H 19.1009 -5.40332 -6.79951 0
M  V30 145 H 18.8309 -4.41613 -5.32378 0
M  V30 146 H 19.6979 -3.26331 -7.47797 0
M  V30 147 P 23.6599 -2.75334 -8.47391 0
M  V30 148 O 23.8799 -2.44595 -9.90239 0
M  V30 149 O 24.4499 -3.87732 -7.92204 0
M  V30 150 O 23.9099 -1.4459 -7.59357 0
M  V30 151 C 22.9699 -0.347563 -7.69115 0
M  V30 152 C 23.6999 0.96767 -7.52806 0
M  V30 153 O 23.9099 1.21036 -6.1011 0
M  V30 154 C 25.0999 1.04544 -8.13308 0
M  V30 155 O 25.4899 2.38311 -8.41922 0
M  V30 156 C 25.9799 0.491279 -7.02284 0
M  V30 157 C 25.2699 0.996264 -5.77469 0
M  V30 158 N 25.3199 0.0501808 -4.62873 0
M  V30 159 C 25.4699 0.588177 -3.36904 0
M  V30 160 O 25.5599 1.78598 -3.17173 0
M  V30 161 N 25.5099 -0.329694 -2.33686 0
M  V30 162 C 25.4199 -1.6953 -2.45079 0
M  V30 163 C 25.2699 -2.16933 -3.80505 0
M  V30 164 C 25.2199 -1.30326 -4.83752 0
M  V30 165 H 22.4799 -0.374722 -8.67691 0
M  V30 166 H 22.2109 -0.443421 -6.90177 0
M  V30 167 H 23.0779 1.75537 -7.96793 0
M  V30 168 H 25.7329 1.94496 -5.46629 0
M  V30 169 H 26.0119 -0.608651 -7.04676 0
M  V30 170 H 27.0039 0.889672 -7.08939 0
M  V30 171 H 25.1699 0.43308 -9.04564 0
M  V30 172 H 25.0989 -1.68366 -5.8516 0
M  V30 173 P 27.0398 2.75334 -8.47391 0
M  V30 174 O 27.2598 3.84128 -9.44797 0
M  V30 175 O 27.8298 1.51947 -8.68712 0
M  V30 176 O 27.2898 3.29363 -6.99321 0
M  V30 177 C 26.3498 4.24011 -6.4274 0
M  V30 178 C 27.0798 5.20775 -5.52155 0
M  V30 179 O 27.2898 4.56534 -4.22446 0
M  V30 180 C 28.4798 5.62629 -5.96531 0
M  V30 181 O 28.8698 6.87667 -5.41053 0
M  V30 182 C 29.3598 4.52537 -5.39283 0
M  V30 183 C 28.6498 4.20027 -4.08623 0
M  V30 184 N 28.6998 2.76189 -3.71603 0
M  V30 185 H 25.8608 4.797 -7.24003 0
M  V30 186 H 25.5908 3.69856 -5.84513 0
M  V30 187 H 26.4578 6.10356 -5.41441 0
M  V30 188 P 30.4198 7.20834 -5.23717 0
M  V30 189 O 30.6398 8.66104 -5.38572 0
M  V30 190 O 31.2098 6.33544 -6.1349 0
M  V30 191 O 30.6698 6.7751 -3.72168 0
M  V30 192 C 29.7298 7.20825 -2.7076 0
M  V30 193 C 30.4598 7.45864 -1.40599 0
M  V30 194 O 30.6698 6.17651 -0.734225 0
M  V30 195 C 31.8598 8.05808 -1.51899 0
M  V30 196 O 32.2498 8.74358 -0.335205 0
M  V30 197 C 32.7398 6.83093 -1.70294 0
M  V30 198 C 32.0298 5.79992 -0.836974 0
M  V30 199 N 32.0798 4.41864 -1.38293 0
M  V30 200 H 29.2408 8.13644 -3.0377 0
M  V30 201 H 28.9708 6.42788 -2.55485 0
M  V30 202 H 29.8378 8.12039 -0.792769 0
M  V30 203 P 33.7998 8.91 -2.18232e-15 0
M  V30 204 O 34.0198 10.1726 0.733694 0
M  V30 205 O 34.5898 8.73148 -1.23936 0
M  V30 206 O 34.0498 7.66872 0.971405 0
M  V30 207 C 33.1098 7.42309 2.04641 0
M  V30 208 C 33.8398 6.86059 3.24661 0
M  V30 209 O 34.0498 5.42847 3.03646 0
M  V30 210 C 35.2398 7.41196 3.50753 0
M  V30 211 O 35.6298 7.27073 4.86816 0
M  V30 212 C 36.1198 6.5273 2.63741 0
M  V30 213 C 35.4098 5.1842 2.73198 0
M  V30 214 N 35.4598 4.38762 1.4784 0
M  V30 215 H 32.6208 8.36803 2.32493 0
M  V30 216 H 32.3508 6.70197 1.71129 0
M  V30 217 H 33.2178 7.03551 4.13168 0
M  V30 218 P 37.1798 7.20834 5.23717 0
M  V30 219 O 37.3998 7.79853 6.57286 0
M  V30 220 O 37.9698 7.79239 4.12957 0
M  V30 221 O 37.4298 5.63315 5.29344 0
M  V30 222 C 36.4898 4.80255 6.01876 0
M  V30 223 C 37.2198 3.64202 6.65911 0
M  V30 224 O 37.4298 2.60694 5.64732 0
M  V30 225 C 38.6198 3.93473 7.1943 0
M  V30 226 O 39.0098 3.02071 8.21205 0
M  V30 227 C 39.4998 3.73047 5.97036 0
M  V30 228 C 38.7898 2.58828 5.25741 0
M  V30 229 N 38.8398 2.68068 3.77503 0
M  V30 230 H 36.0008 5.40332 6.79951 0
M  V30 231 H 35.7308 4.41613 5.32378 0
M  V30 232 H 36.5978 3.26331 7.47797 0
M  V30 233 P 40.5598 2.75334 8.47391 0
M  V30 234 O 40.7798 2.44571 9.90142 0
M  V30 235 O 41.3498 3.87688 7.92115 0
M  V30 236 O 40.8098 1.4459 7.59357 0
M  V30 237 C 39.8698 0.347608 7.69215 0
M  V30 238 C 40.5998 -0.96767 7.52806 0
M  V30 239 O 40.8098 -1.21036 6.1011 0
M  V30 240 C 41.9998 -1.04544 8.13308 0
M  V30 241 O 42.3898 -2.38311 8.41922 0
M  V30 242 C 42.8798 -0.491279 7.02284 0
M  V30 243 C 42.1698 -0.996264 5.77469 0
M  V30 244 N 42.2198 -0.0501916 4.62973 0
M  V30 245 H 39.3808 0.374722 8.67691 0
M  V30 246 H 39.1108 0.443485 6.90277 0
M  V30 247 H 39.9778 -1.75537 7.96793 0
M  V30 248 P 43.9397 -2.75334 8.47391 0
M  V30 249 O 44.1597 -3.84128 9.44797 0
M  V30 250 O 44.7297 -1.51947 8.68712 0
M  V30 251 O 44.1897 -3.29363 6.99321 0
M  V30 252 C 43.2497 -4.24011 6.4274 0
M  V30 253 C 43.9797 -5.20775 5.52155 0
M  V30 254 O 44.1897 -4.56534 4.22446 0
M  V30 255 C 45.3797 -5.62629 5.96531 0
M  V30 256 O 45.7697 -6.87667 5.41053 0
M  V30 257 C 46.2597 -4.52537 5.39283 0
M  V30 258 C 45.5497 -4.20027 4.08623 0
M  V30 259 N 45.5997 -2.76189 3.71603 0
M  V30 260 H 42.7607 -4.797 7.24003 0
M  V30 261 H 42.4907 -3.69856 5.84513 0
M  V30 262 H 43.3577 -6.10356 5.41441 0
M  V30 263 P 47.3197 -7.20834 5.23717 0
M  V30 264 O 47.5397 -8.66104 5.38572 0
M  V30 265 O 48.1097 -6.33544 6.1349 0
M  V30 266 O 47.5697 -6.7751 3.72168 0
M  V30 267 C 46.6297 -7.20825 2.7076 0
M  V30 268 C 47.3597 -7.45864 1.40599 0
M  V30 269 O 47.5697 -6.17651 0.734225 0
M  V30 270 C 48.7597 -8.05808 1.51899 0
M  V30 271 O 49.1497 -8.74358 0.335205 0
M  V30 272 C 49.6397 -6.83093 1.70294 0
M  V30 273 C 48.9297 -5.79992 0.836974 0
M  V30 274 N 48.9797 -4.41864 1.38293 0
M  V30 275 H 46.1407 -8.13644 3.0377 0
M  V30 276 H 45.8707 -6.42788 2.55485 0
M  V30 277 H 46.7377 -8.12039 0.792769 0
M  V30 278 P 50.6997 -8.91 3.27348e-15 0
M  V30 279 O 50.9197 -10.1746 -0.733838 0
M  V30 280 O 51.4897 -8.73346 1.23964 0
M  V30 281 O 50.9497 -7.66872 -0.971405 0
M  V30 282 C 50.0097 -7.42405 -2.04668 0
M  V30 283 C 50.7397 -6.86059 -3.24661 0
M  V30 284 O 50.9497 -5.42934 -3.03695 0
M  V30 285 C 52.1397 -7.41287 -3.50796 0
M  V30 286 O 52.5297 -7.27073 -4.86816 0
M  V30 287 C 53.0197 -6.5273 -2.63741 0
M  V30 288 C 52.3097 -5.1842 -2.73198 0
M  V30 289 N 52.3597 -4.38762 -1.4784 0
M  V30 290 C 52.2797 -4.83651 -0.183876 0
M  V30 291 N 52.3497 -3.88759 0.699393 0
M  V30 292 C 52.4997 -2.7404 -0.0575568 0
M  V30 293 C 52.6297 -1.37902 0.293928 0
M  V30 294 N 52.6397 -0.938021 1.54797 0
M  V30 295 N 52.7497 -0.491817 -0.70549 0
M  V30 296 C 52.7397 -0.931735 -1.95979 0
M  V30 297 N 52.6197 -2.16017 -2.41481 0
M  V30 298 C 52.4997 -3.02547 -1.39121 0
M  V30 299 H 49.5217 -8.36899 -2.3252 0
M  V30 300 H 49.2497 -6.70391 -1.71179 0
M  V30 301 H 50.1177 -7.03638 -4.13219 0
M  V30 302 H 52.7727 -4.59931 -3.54016 0
M  V30 303 H 53.0527 -6.88995 -1.59871 0
M  V30 304 H 54.0437 -6.4684 -3.0373 0
M  V30 305 H 52.2097 -8.47002 -3.20749 0
M  V30 306 H 52.1687 -5.8885 0.0765548 0
M  V30 307 H 52.5497 -1.60276 2.32875 0
M  V30 308 H 52.7387 0.0699355 1.73859 0
M  V30 309 H 52.8467 -0.165507 -2.71897 0
M  V30 310 P 54.0797 -7.20834 -5.23717 0
M  V30 311 O 54.2997 -7.79853 -6.57286 0
M  V30 312 O 54.8697 -7.79239 -4.12957 0
M  V30 313 O 54.3297 -5.63315 -5.29344 0
M  V30 314 C 53.3897 -4.80255 -6.01876 0
M  V30 315 C 54.1197 -3.64202 -6.65911 0
M  V30 316 O 54.3297 -2.60694 -5.64732 0
M  V30 317 C 55.5197 -3.93473 -7.1943 0
M  V30 318 O 55.9097 -3.02071 -8.21205 0
M  V30 319 C 56.3997 -3.73047 -5.97036 0
M  V30 320 C 55.6897 -2.58828 -5.25741 0
M  V30 321 N 55.7397 -2.68068 -3.77503 0
M  V30 322 C 55.6597 -3.79715 -2.96723 0
M  V30 323 N 55.7397 -3.5377 -1.68852 0
M  V30 324 C 55.8797 -2.15054 -1.63254 0
M  V30 325 C 56.0097 -1.28964 -0.518571 0
M  V30 326 N 56.1297 0.0538097 -0.918425 0
M  V30 327 C 56.1297 0.494275 -2.22578 0
M  V30 328 N 56.2597 1.81086 -2.40434 0
M  V30 329 N 55.9997 -0.313645 -3.27502 0
M  V30 330 C 55.8797 -1.61829 -2.91033 0
M  V30 331 H 52.9007 -5.40332 -6.79951 0
M  V30 332 H 52.6307 -4.41613 -5.32378 0
M  V30 333 H 53.4977 -3.26331 -7.47797 0
M  V30 334 P 57.4597 -2.75334 -8.47391 0
M  V30 335 O 57.6797 -2.44571 -9.90142 0
M  V30 336 O 58.2497 -3.87688 -7.92115 0
M  V30 337 O 57.7097 -1.4459 -7.59357 0
M  V30 338 C 56.7697 -0.347608 -7.69215 0
M  V30 339 C 57.4997 0.96767 -7.52806 0
M  V30 340 O 57.7097 1.21036 -6.1011 0
M  V30 341 C 58.8997 1.04544 -8.13308 0
M  V30 342 O 59.2897 2.38311 -8.41922 0
M  V30 343 C 59.7797 0.491279 -7.02284 0
M  V30 344 C 59.0697 0.996264 -5.77469 0
M  V30 345 N 59.1197 0.0501916 -4.62973 0
M  V30 346 H 56.2807 -0.374722 -8.67691 0
M  V30 347 H 56.0107 -0.443485 -6.90277 0
M  V30 348 H 56.8777 1.75537 -7.96793 0
M  V30 349 P 60.8396 2.75334 -8.47391 0
M  V30 350 O 61.0596 3.84128 -9.44797 0
M  V30 351 O 61.6296 1.51947 -8.68712 0
M  V30 352 O 61.0896 3.29363 -6.99321 0
M  V30 353 C 60.1496 4.24011 -6.4274 0
M  V30 354 C 60.8796 5.20775 -5.52155 0
M  V30 355 O 61.0896 4.56534 -4.22446 0
M  V30 356 C 62.2796 5.62629 -5.96531 0
M  V30 357 O 62.6696 6.87667 -5.41053 0
M  V30 358 C 63.1596 4.52537 -5.39283 0
M  V30 359 C 62.4496 4.20027 -4.08623 0
M  V30 360 N 62.4996 2.76189 -3.71603 0
M  V30 361 C 62.4196 1.64862 -4.52822 0
M  V30 362 N 62.4996 0.512671 -3.88633 0
M  V30 363 C 62.6396 0.888083 -2.54977 0
M  V30 364 C 62.7696 0.094668 -1.38677 0
M  V30 365 N 62.8896 0.890102 -0.232633 0
M  V30 366 C 62.8896 2.26958 -0.21772 0
M  V30 367 N 63.0196 2.84626 0.97925 0
M  V30 368 N 62.7596 3.0178 -1.31033 0
M  V30 369 C 62.6396 2.26781 -2.43843 0
M  V30 370 H 59.6606 4.797 -7.24003 0
M  V30 371 H 59.3906 3.69856 -5.84513 0
M  V30 372 H 60.2576 6.10356 -5.41441 0
M  V30 373 P 64.2196 7.20834 -5.23717 0
M  V30 374 O 64.4396 8.66274 -5.38678 0
M  V30 375 O 65.0096 6.33687 -6.13629 0
M  V30 376 O 64.4696 6.7751 -3.72168 0
M  V30 377 C 63.5296 7.20919 -2.70795 0
M  V30 378 C 64.2596 7.45864 -1.40599 0
M  V30 379 O 64.4696 6.17751 -0.734343 0
M  V30 380 C 65.6596 8.05906 -1.51917 0
M  V30 381 O 66.0496 8.74358 -0.335205 0
M  V30 382 C 66.5396 6.83093 -1.70294 0
M  V30 383 C 65.8296 5.79992 -0.836974 0
M  V30 384 N 65.8796 4.41864 -1.38293 0
M  V30 385 H 63.0416 8.13738 -3.03804 0
M  V30 386 H 62.7696 6.42974 -2.55559 0
M  V30 387 H 63.6376 8.12139 -0.792866 0
M  V30 388 H 66.2926 5.80178 0.160643 0
M  V30 389 H 66.5726 6.51379 -2.75643 0
M  V30 390 H 67.5636 7.01832 -1.3448 0
M  V30 391 H 65.7296 8.73771 -2.38364 0
M  V30 392 P 67.5996 8.91 -4.36464e-15 0
M  V30 393 O 67.8196 10.1746 0.733838 0
M  V30 394 O 68.3896 8.73346 -1.23964 0
M  V30 395 O 67.8496 7.66872 0.971405 0
M  V30 396 C 66.9096 7.42405 2.04668 0
M  V30 397 C 67.6396 6.86059 3.24661 0
M  V30 398 O 67.8496 5.42934 3.03695 0
M  V30 399 C 69.0396 7.41287 3.50796 0
M  V30 400 O 69.4296 7.27073 4.86816 0
M  V30 401 C 69.9196 6.5273 2.63741 0
M  V30 402 C 69.2096 5.1842 2.73198 0
M  V30 403 N 69.2596 4.38762 1.4784 0
M  V30 404 C 69.1796 4.83651 0.183876 0
M  V30 405 N 69.2496 3.88759 -0.699393 0
M  V30 406 C 69.3996 2.7404 0.0575568 0
M  V30 407 C 69.5296 1.37902 -0.293928 0
M  V30 408 N 69.5396 0.938021 -1.54797 0
M  V30 409 N 69.6496 0.491817 0.70549 0
M  V30 410 C 69.6396 0.931735 1.95979 0
M  V30 411 N 69.5196 2.16017 2.41481 0
M  V30 412 C 69.3996 3.02547 1.39121 0
M  V30 413 H 66.4216 8.36899 2.3252 0
M  V30 414 H 66.1496 6.70391 1.71179 0
M  V30 415 H 67.0176 7.03638 4.13219 0
M  V30 416 H 69.6726 4.59931 3.54016 0
M  V30 417 H 69.9526 6.88995 1.59871 0
M  V30 418 H 70.9436 6.4684 3.0373 0
M  V30 419 H 69.1096 8.47002 3.20749 0
M  V30 420 H 69.0686 5.8885 -0.0765548 0
M  V30 421 H 69.4496 1.60276 -2.32875 0
M  V30 422 H 69.6386 -0.0699355 -1.73859 0
M  V30 423 H 69.7466 0.165507 2.71897 0
M  V30 424 P 70.9796 7.20834 5.23717 0
M  V30 425 O 71.1996 7.79853 6.57286 0
M  V30 426 O 71.7696 7.79239 4.12957 0
M  V30 427 O 71.2296 5.63315 5.29344 0
M  V30 428 C 70.2896 4.80255 6.01876 0
M  V30 429 C 71.0196 3.64202 6.65911 0
M  V30 430 O 71.2296 2.60694 5.64732 0
M  V30 431 C 72.4196 3.93473 7.1943 0
M  V30 432 O 72.8096 3.02071 8.21205 0
M  V30 433 C 73.2996 3.73047 5.97036 0
M  V30 434 C 72.5896 2.58828 5.25741 0
M  V30 435 N 72.6396 2.68068 3.77503 0
M  V30 436 H 69.8006 5.40332 6.79951 0
M  V30 437 H 69.5306 4.41613 5.32378 0
M  V30 438 H 70.3976 3.26331 7.47797 0
M  V30 439 P 74.3596 2.75334 8.47391 0
M  V30 440 O 74.5796 2.44571 9.90142 0
M  V30 441 O 75.1496 3.87688 7.92115 0
M  V30 442 O 74.6096 1.4459 7.59357 0
M  V30 443 C 73.6696 0.347608 7.69215 0
M  V30 444 C 74.3996 -0.96767 7.52806 0
M  V30 445 O 74.6096 -1.21036 6.1011 0
M  V30 446 C 75.7996 -1.04544 8.13308 0
M  V30 447 O 76.1896 -2.38311 8.41922 0
M  V30 448 C 76.6796 -0.491279 7.02284 0
M  V30 449 C 75.9696 -0.996264 5.77469 0
M  V30 450 N 76.0196 -0.0501916 4.62973 0
M  V30 451 H 73.1806 0.374722 8.67691 0
M  V30 452 H 72.9106 0.443485 6.90277 0
M  V30 453 H 73.7776 -1.75537 7.96793 0
M  V30 454 P 77.7395 -2.75334 8.47391 0
M  V30 455 O 77.9595 -3.84128 9.44797 0
M  V30 456 O 78.5295 -1.51947 8.68712 0
M  V30 457 O 77.9895 -3.29363 6.99321 0
M  V30 458 C 77.0495 -4.24011 6.4274 0
M  V30 459 C 77.7795 -5.20775 5.52155 0
M  V30 460 O 77.9895 -4.56534 4.22446 0
M  V30 461 C 79.1795 -5.62629 5.96531 0
M  V30 462 O 79.5695 -6.87667 5.41053 0
M  V30 463 C 80.0595 -4.52537 5.39283 0
M  V30 464 C 79.3495 -4.20027 4.08623 0
M  V30 465 N 79.3995 -2.76189 3.71603 0
M  V30 466 H 76.5605 -4.797 7.24003 0
M  V30 467 H 76.2905 -3.69856 5.84513 0
M  V30 468 H 77.1575 -6.10356 5.41441 0
M  V30 469 P 81.1195 -7.20834 5.23717 0
M  V30 470 O 81.3395 -8.66104 5.38572 0
M  V30 471 O 81.9095 -6.33544 6.1349 0
M  V30 472 O 81.3695 -6.7751 3.72168 0
M  V30 473 C 80.4295 -7.20825 2.7076 0
M  V30 474 C 81.1595 -7.45864 1.40599 0
M  V30 475 O 81.3695 -6.17651 0.734225 0
M  V30 476 C 82.5595 -8.05808 1.51899 0
M  V30 477 O 82.9495 -8.74358 0.335205 0
M  V30 478 C 83.4395 -6.83093 1.70294 0
M  V30 479 C 82.7295 -5.79992 0.836974 0
M  V30 480 N 82.7795 -4.41864 1.38293 0
M  V30 481 H 79.9405 -8.13644 3.0377 0
M  V30 482 H 79.6705 -6.42788 2.55485 0
M  V30 483 H 80.5375 -8.12039 0.792769 0
M  V30 484 P 84.4995 -8.91 5.4558e-15 0
M  V30 485 O 84.7195 -10.1726 -0.733694 0
M  V30 486 O 85.2895 -8.73148 1.23936 0
M  V30 487 O 84.7495 -7.66872 -0.971405 0
M  V30 488 C 83.8095 -7.42309 -2.04641 0
M  V30 489 C 84.5395 -6.86059 -3.24661 0
M  V30 490 O 84.7495 -5.42847 -3.03646 0
M  V30 491 C 85.9395 -7.41196 -3.50753 0
M  V30 492 O 86.3295 -7.27073 -4.86816 0
M  V30 493 C 86.8195 -6.5273 -2.63741 0
M  V30 494 C 86.1095 -5.1842 -2.73198 0
M  V30 495 N 86.1595 -4.38762 -1.4784 0
M  V30 496 H 83.3205 -8.36803 -2.32493 0
M  V30 497 H 83.0505 -6.70197 -1.71129 0
M  V30 498 H 83.9175 -7.03551 -4.13168 0
M  V30 499 P 87.8795 -7.20834 -5.23717 0
M  V30 500 O 88.0995 -7.80006 -6.57415 0
M  V30 501 O 88.6695 -7.79416 -4.13051 0
M  V30 502 O 88.1295 -5.63315 -5.29344 0
M  V30 503 C 87.1895 -4.80318 -6.01954 0
M  V30 504 C 87.9195 -3.64202 -6.65911 0
M  V30 505 O 88.1295 -2.60736 -5.64823 0
M  V30 506 C 89.3195 -3.93521 -7.19518 0
M  V30 507 O 89.7095 -3.02071 -8.21205 0
M  V30 508 C 90.1995 -3.73047 -5.97036 0
M  V30 509 C 89.4895 -2.58828 -5.25741 0
M  V30 510 N 89.5395 -2.68068 -3.77503 0
M  V30 511 C 89.4595 -3.80474 -2.99159 0
M  V30 512 N 89.5295 -3.55622 -1.71925 0
M  V30 513 C 89.6795 -2.1832 -1.65733 0
M  V30 514 C 89.8095 -1.28842 -0.572777 0
M  V30 515 N 89.8195 -1.66875 0.70098 0
M  V30 516 N 89.9295 0.016788 -0.859836 0
M  V30 517 C 89.9195 0.398145 -2.13316 0
M  V30 518 N 89.7995 -0.328224 -3.22333 0
M  V30 519 C 89.6795 -1.62992 -2.90383 0
M  V30 520 H 86.7015 -5.40394 -6.8003 0
M  V30 521 H 86.4295 -4.41741 -5.32532 0
M  V30 522 H 87.2975 -3.26371 -7.47889 0
M  V30 523 H 89.9525 -1.64007 -5.56746 0
M  V30 524 H 90.2325 -4.63439 -5.3432 0
M  V30 525 H 91.2235 -3.44776 -6.25925 0
M  V30 526 H 89.3895 -4.96707 -7.57347 0
M  V30 527 H 89.3485 -4.8089 -3.39924 0
M  V30 528 H 89.7295 -2.66547 0.941919 0
M  V30 529 H 89.9185 -0.965341 1.44766 0
M  V30 530 H 90.0265 1.46427 -2.29697 0
M  V30 531 P 91.2595 -2.75334 -8.47391 0
M  V30 532 O 91.4795 -2.44571 -9.90142 0
M  V30 533 O 92.0495 -3.87688 -7.92115 0
M  V30 534 O 91.5095 -1.4459 -7.59357 0
M  V30 535 C 90.5695 -0.347608 -7.69215 0
M  V30 536 C 91.2995 0.96767 -7.52806 0
M  V30 537 O 91.5095 1.21036 -6.1011 0
M  V30 538 C 92.6995 1.04544 -8.13308 0
M  V30 539 O 93.0895 2.38311 -8.41922 0
M  V30 540 C 93.5795 0.491279 -7.02284 0
M  V30 541 C 92.8695 0.996264 -5.77469 0
M  V30 542 N 92.9195 0.0501916 -4.62973 0
M  V30 543 H 90.0805 -0.374722 -8.67691 0
M  V30 544 H 89.8105 -0.443485 -6.90277 0
M  V30 545 H 90.6775 1.75537 -7.96793 0
M  V30 546 P 94.6394 2.75334 -8.47391 0
M  V30 547 O 94.8594 3.84128 -9.44797 0
M  V30 548 O 95.4294 1.51947 -8.68712 0
M  V30 549 O 94.8894 3.29363 -6.99321 0
M  V30 550 C 93.9494 4.24011 -6.4274 0
M  V30 551 C 94.6794 5.20775 -5.52155 0
M  V30 552 O 94.8894 4.56534 -4.22446 0
M  V30 553 C 96.0794 5.62629 -5.96531 0
M  V30 554 O 96.4694 6.87667 -5.41053 0
M  V30 555 C 96.9594 4.52537 -5.39283 0
M  V30 556 C 96.2494 4.20027 -4.08623 0
M  V30 557 N 96.2994 2.76189 -3.71603 0
M  V30 558 H 93.4604 4.797 -7.24003 0
M  V30 559 H 93.1904 3.69856 -5.84513 0
M  V30 560 H 94.0574 6.10356 -5.41441 0
M  V30 561 P 98.0194 7.20834 -5.23717 0
M  V30 562 O 98.2394 8.66104 -5.38572 0
M  V30 563 O 98.8094 6.33544 -6.1349 0
M  V30 564 O 98.2694 6.7751 -3.72168 0
M  V30 565 C 97.3294 7.20825 -2.7076 0
M  V30 566 C 98.0594 7.45864 -1.40599 0
M  V30 567 O 98.2694 6.17651 -0.734225 0
M  V30 568 C 99.4594 8.05808 -1.51899 0
M  V30 569 O 99.8494 8.74358 -0.335205 0
M  V30 570 C 100.339 6.83093 -1.70294 0
M  V30 571 C 99.6294 5.79992 -0.836974 0
M  V30 572 N 99.6794 4.41864 -1.38293 0
M  V30 573 C 99.5994 3.99538 -2.69438 0
M  V30 574 N 99.6794 2.69909 -2.84277 0
M  V30 575 C 99.8194 2.21719 -1.5408 0
M  V30 576 C 99.9494 0.891712 -1.06628 0
M  V30 577 O 99.9694 -0.161298 -1.70137 0
M  V30 578 N 100.069 0.856846 0.334985 0
M  V30 579 C 100.069 1.9641 1.15789 0
M  V30 580 N 100.199 1.72708 2.46522 0
M  V30 581 N 99.9394 3.21165 0.713741 0
M  V30 582 C 99.8194 3.26797 -0.639748 0
M  V30 583 H 96.8404 8.13644 -3.0377 0
M  V30 584 H 96.5704 6.42788 -2.55485 0
M  V30 585 H 97.4374 8.12039 -0.792769 0
M  V30 586 H 100.092 5.80061 0.166416 0
M  V30 587 H 100.371 6.51287 -2.75604 0
M  V30 588 H 101.363 7.01734 -1.34462 0
M  V30 589 H 99.5294 8.73674 -2.38337 0
M  V30 590 H 99.4804 4.68207 -3.53221 0
M  V30 591 H 100.162 -0.0398818 0.767965 0
M  V30 592 H 100.199 2.50995 3.13503 0
M  V30 593 H 100.3 0.759148 2.80716 0
M  V30 594 P 101.399 8.91 -6.54696e-15 0
M  V30 595 O 101.619 10.1736 0.733766 0
M  V30 596 O 102.189 8.73247 -1.2395 0
M  V30 597 O 101.649 7.66872 0.971405 0
M  V30 598 C 100.709 7.42212 2.04614 0
M  V30 599 C 101.439 6.86059 3.24661 0
M  V30 600 O 101.649 5.42847 3.03646 0
M  V30 601 C 102.839 7.41196 3.50753 0
M  V30 602 O 103.229 7.27073 4.86816 0
M  V30 603 C 103.719 6.5273 2.63741 0
M  V30 604 C 103.009 5.1842 2.73198 0
M  V30 605 N 103.059 4.38668 1.47808 0
M  V30 606 C 103.209 3.02239 1.60048 0
M  V30 607 O 103.299 2.46459 2.67869 0
M  V30 608 N 103.249 2.32436 0.408571 0
M  V30 609 C 103.159 2.85471 -0.854993 0
M  V30 610 O 103.209 2.12566 -1.8531 0
M  V30 611 C 103.009 4.28918 -0.887335 0
M  V30 612 C 102.899 4.91066 -2.24619 0
M  V30 613 C 102.959 5.00349 0.255399 0
M  V30 614 H 100.219 8.36803 2.32493 0
M  V30 615 H 99.9504 6.701 1.71105 0
M  V30 616 H 100.817 7.03551 4.13168 0
M  V30 617 H 103.472 4.59773 3.53894 0
M  V30 618 H 103.751 6.88995 1.59871 0
M  V30 619 H 104.743 6.46749 3.03687 0
M  V30 620 H 102.909 8.46908 3.20714 0
M  V30 621 H 102.838 6.08548 0.206986 0
M  V30 622 H 103.868 5.34836 -2.53099 0
M  V30 623 H 102.131 5.69638 -2.2291 0
M  V30 624 H 102.619 4.13971 -2.98044 0
M  V30 625 H 103.355 1.33211 0.474216 0
M  V30 626 P 104.779 7.20834 5.23717 0
M  V30 627 O 104.999 7.79853 6.57286 0
M  V30 628 O 105.569 7.79239 4.12957 0
M  V30 629 O 105.029 5.63315 5.29344 0
M  V30 630 C 104.089 4.80255 6.01876 0
M  V30 631 C 104.819 3.64202 6.65911 0
M  V30 632 O 105.029 2.60694 5.64732 0
M  V30 633 C 106.219 3.93473 7.1943 0
M  V30 634 O 106.609 3.02071 8.21205 0
M  V30 635 C 107.099 3.73047 5.97036 0
M  V30 636 C 106.389 2.58828 5.25741 0
M  V30 637 N 106.439 2.68068 3.77503 0
M  V30 638 C 106.359 3.79715 2.96723 0
M  V30 639 N 106.439 3.5377 1.68852 0
M  V30 640 C 106.579 2.15054 1.63254 0
M  V30 641 C 106.709 1.28964 0.518571 0
M  V30 642 O 106.729 1.56826 -0.679156 0
M  V30 643 N 106.829 -0.0538097 0.918425 0
M  V30 644 C 106.829 -0.494275 2.22578 0
M  V30 645 N 106.959 -1.81086 2.40434 0
M  V30 646 N 106.699 0.313645 3.27502 0
M  V30 647 C 106.579 1.61829 2.91033 0
M  V30 648 H 103.6 5.40332 6.79951 0
M  V30 649 H 103.33 4.41613 5.32378 0
M  V30 650 H 104.197 3.26331 7.47797 0
M  V30 651 H 106.852 1.63422 5.56814 0
M  V30 652 H 107.131 4.63374 5.34244 0
M  V30 653 H 108.123 3.44728 6.25838 0
M  V30 654 H 106.289 4.96652 7.57263 0
M  V30 655 H 106.24 4.80617 3.3614 0
M  V30 656 H 106.922 -0.742702 0.199384 0
M  V30 657 H 106.959 -2.20598 3.35588 0
M  V30 658 H 107.06 -2.43518 1.58945 0
M  V30 659 P 108.159 2.75334 8.47391 0
M  V30 660 O 108.379 2.44571 9.90142 0
M  V30 661 O 108.949 3.87688 7.92115 0
M  V30 662 O 108.409 1.4459 7.59357 0
M  V30 663 C 107.469 0.347608 7.69215 0
M  V30 664 C 108.199 -0.96767 7.52806 0
M  V30 665 O 108.409 -1.21036 6.1011 0
M  V30 666 C 109.599 -1.04544 8.13308 0
M  V30 667 O 109.989 -2.38311 8.41922 0
M  V30 668 C 110.479 -0.491279 7.02284 0
M  V30 669 C 109.769 -0.996264 5.77469 0
M  V30 670 N 109.819 -0.0501916 4.62973 0
M  V30 671 H 106.98 0.374722 8.67691 0
M  V30 672 H 106.71 0.443485 6.90277 0
M  V30 673 H 107.577 -1.75537 7.96793 0
M  V30 674 P 111.539 -2.75334 8.47391 0
M  V30 675 O 111.759 -3.84204 9.44982 0
M  V30 676 O 112.329 -1.51982 8.68909 0
M  V30 677 O 111.789 -3.29363 6.99321 0
M  V30 678 C 110.849 -4.24066 6.42823 0
M  V30 679 C 111.579 -5.20775 5.52155 0
M  V30 680 O 111.789 -4.56607 4.22514 0
M  V30 681 C 112.979 -5.62697 5.96604 0
M  V30 682 O 113.369 -6.87667 5.41053 0
M  V30 683 C 113.859 -4.52537 5.39283 0
M  V30 684 C 113.149 -4.20027 4.08623 0
M  V30 685 N 113.199 -2.76189 3.71603 0
M  V30 686 C 113.119 -1.66944 4.54297 0
M  V30 687 N 113.189 -0.536169 3.91344 0
M  V30 688 C 113.339 -0.901569 2.58849 0
M  V30 689 C 113.469 -0.146599 1.40236 0
M  V30 690 N 113.479 1.18234 1.37046 0
M  V30 691 N 113.589 -0.822941 0.249738 0
M  V30 692 C 113.579 -2.15179 0.280525 0
M  V30 693 N 113.459 -2.96414 1.30822 0
M  V30 694 C 113.339 -2.25804 2.44748 0
M  V30 695 H 110.361 -4.79756 7.24086 0
M  V30 696 H 110.089 -3.69963 5.84682 0
M  V30 697 H 110.957 -6.10431 5.41508 0
M  V30 698 H 113.612 -4.78816 3.28024 0
M  V30 699 H 113.892 -3.64957 6.05871 0
M  V30 700 H 114.883 -4.88748 5.21323 0
M  V30 701 H 113.049 -5.66789 7.0643 0
M  V30 702 H 113.008 -1.74684 5.62396 0
M  V30 703 H 113.389 1.71949 2.24394 0
M  V30 704 H 113.578 1.67511 0.470742 0
M  V30 705 H 113.686 -2.63704 -0.6828 0
M  V30 706 P 114.919 -7.20834 5.23717 0
M  V30 707 O 115.139 -8.66104 5.38572 0
M  V30 708 O 115.709 -6.33544 6.1349 0
M  V30 709 O 115.169 -6.7751 3.72168 0
M  V30 710 C 114.229 -7.20825 2.7076 0
M  V30 711 C 114.959 -7.45864 1.40599 0
M  V30 712 O 115.169 -6.17651 0.734225 0
M  V30 713 C 116.359 -8.05808 1.51899 0
M  V30 714 O 116.749 -8.74358 0.335205 0
M  V30 715 C 117.239 -6.83093 1.70294 0
M  V30 716 C 116.529 -5.79992 0.836974 0
M  V30 717 N 116.579 -4.41864 1.38293 0
M  V30 718 C 116.499 -3.99538 2.69438 0
M  V30 719 N 116.579 -2.69909 2.84277 0
M  V30 720 C 116.719 -2.21719 1.5408 0
M  V30 721 C 116.849 -0.891712 1.06628 0
M  V30 722 O 116.869 0.161298 1.70137 0
M  V30 723 N 116.969 -0.856846 -0.334985 0
M  V30 724 C 116.969 -1.9641 -1.15789 0
M  V30 725 N 117.099 -1.72708 -2.46522 0
M  V30 726 N 116.839 -3.21165 -0.713741 0
M  V30 727 C 116.719 -3.26797 0.639748 0
M  V30 728 H 113.74 -8.13644 3.0377 0
M  V30 729 H 113.47 -6.42788 2.55485 0
M  V30 730 H 114.337 -8.12039 0.792769 0
M  V30 731 H 116.992 -5.80061 -0.166416 0
M  V30 732 H 117.271 -6.51287 2.75604 0
M  V30 733 H 118.263 -7.01734 1.34462 0
M  V30 734 H 116.429 -8.73674 2.38337 0
M  V30 735 H 116.38 -4.68207 3.53221 0
M  V30 736 H 117.062 0.0398818 -0.767965 0
M  V30 737 H 117.099 -2.50995 -3.13503 0
M  V30 738 H 117.2 -0.759148 -2.80716 0
M  V30 739 P 118.299 -8.91 7.63812e-15 0
M  V30 740 O 118.519 -10.1726 -0.733694 0
M  V30 741 O 119.089 -8.73148 1.23936 0
M  V30 742 O 118.549 -7.66872 -0.971405 0
M  V30 743 C 117.609 -7.42309 -2.04641 0
M  V30 744 C 118.339 -6.86059 -3.24661 0
M  V30 745 O 118.549 -5.42847 -3.03646 0
M  V30 746 C 119.739 -7.41196 -3.50753 0
M  V30 747 O 120.129 -7.27073 -4.86816 0
M  V30 748 C 120.619 -6.5273 -2.63741 0
M  V30 749 C 119.909 -5.1842 -2.73198 0
M  V30 750 N 119.959 -4.38762 -1.4784 0
M  V30 751 H 117.12 -8.36803 -2.32493 0
M  V30 752 H 116.85 -6.70197 -1.71129 0
M  V30 753 H 117.717 -7.03551 -4.13168 0
M  V30 754 P 121.679 -7.20834 -5.23717 0
M  V30 755 O 121.899 -7.79853 -6.57286 0
M  V30 756 O 122.469 -7.79239 -4.12957 0
M  V30 757 O 121.929 -5.63315 -5.29344 0
M  V30 758 C 120.989 -4.80255 -6.01876 0
M  V30 759 C 121.719 -3.64202 -6.65911 0
M  V30 760 O 121.929 -2.60694 -5.64732 0
M  V30 761 C 123.119 -3.93473 -7.1943 0
M  V30 762 O 123.509 -3.02071 -8.21205 0
M  V30 763 C 123.999 -3.73047 -5.97036 0
M  V30 764 C 123.289 -2.58828 -5.25741 0
M  V30 765 N 123.339 -2.68068 -3.77503 0
M  V30 766 H 120.5 -5.40332 -6.79951 0
M  V30 767 H 120.23 -4.41613 -5.32378 0
M  V30 768 H 121.097 -3.26331 -7.47797 0
M  V30 769 P 125.059 -2.75334 -8.47391 0
M  V30 770 O 125.279 -2.44571 -9.90142 0
M  V30 771 O 125.849 -3.87688 -7.92115 0
M  V30 772 O 125.309 -1.4459 -7.59357 0
M  V30 773 C 124.369 -0.347608 -7.69215 0
M  V30 774 C 125.099 0.96767 -7.52806 0
M  V30 775 O 125.309 1.21036 -6.1011 0
M  V30 776 C 126.499 1.04544 -8.13308 0
M  V30 777 O 126.889 2.38311 -8.41922 0
M  V30 778 C 127.379 0.491279 -7.02284 0
M  V30 779 C 126.669 0.996264 -5.77469 0
M  V30 780 N 126.719 0.0501916 -4.62973 0
M  V30 781 H 123.88 -0.374722 -8.67691 0
M  V30 782 H 123.61 -0.443485 -6.90277 0
M  V30 783 H 124.477 1.75537 -7.96793 0
M  V30 784 P 128.439 2.75334 -8.47391 0
M  V30 785 O 128.659 3.84128 -9.44797 0
M  V30 786 O 129.229 1.51947 -8.68712 0
M  V30 787 O 128.689 3.29363 -6.99321 0
M  V30 788 C 127.749 4.24011 -6.4274 0
M  V30 789 C 128.479 5.20775 -5.52155 0
M  V30 790 O 128.689 4.56534 -4.22446 0
M  V30 791 C 129.879 5.62629 -5.96531 0
M  V30 792 O 130.269 6.87667 -5.41053 0
M  V30 793 C 130.759 4.52537 -5.39283 0
M  V30 794 C 130.049 4.20027 -4.08623 0
M  V30 795 N 130.099 2.76189 -3.71603 0
M  V30 796 H 127.26 4.797 -7.24003 0
M  V30 797 H 126.99 3.69856 -5.84513 0
M  V30 798 H 127.857 6.10356 -5.41441 0
M  V30 799 P 131.819 7.20834 -5.23717 0
M  V30 800 O 132.039 8.66104 -5.38572 0
M  V30 801 O 132.609 6.33544 -6.1349 0
M  V30 802 O 132.069 6.7751 -3.72168 0
M  V30 803 C 131.129 7.20825 -2.7076 0
M  V30 804 C 131.859 7.45864 -1.40599 0
M  V30 805 O 132.069 6.17651 -0.734225 0
M  V30 806 C 133.259 8.05808 -1.51899 0
M  V30 807 O 133.649 8.74358 -0.335205 0
M  V30 808 C 134.139 6.83093 -1.70294 0
M  V30 809 C 133.429 5.79992 -0.836974 0
M  V30 810 N 133.479 4.41864 -1.38293 0
M  V30 811 H 130.64 8.13644 -3.0377 0
M  V30 812 H 130.37 6.42788 -2.55485 0
M  V30 813 H 131.237 8.12039 -0.792769 0
M  V30 814 P 135.199 8.91 -8.72928e-15 0
M  V30 815 O 135.419 10.1726 0.733694 0
M  V30 816 O 135.989 8.73148 -1.23936 0
M  V30 817 O 135.449 7.66872 0.971405 0
M  V30 818 C 134.509 7.42309 2.04641 0
M  V30 819 C 135.239 6.86059 3.24661 0
M  V30 820 O 135.449 5.42847 3.03646 0
M  V30 821 C 136.639 7.41196 3.50753 0
M  V30 822 O 137.029 7.27073 4.86816 0
M  V30 823 C 137.519 6.5273 2.63741 0
M  V30 824 C 136.809 5.1842 2.73198 0
M  V30 825 N 136.859 4.38762 1.4784 0
M  V30 826 C 136.779 4.81605 0.168631 0
M  V30 827 N 136.859 3.85454 -0.713363 0
M  V30 828 C 136.999 2.6994 0.0566958 0
M  V30 829 C 137.129 1.34815 -0.338502 0
M  V30 830 O 137.149 0.869548 -1.47125 0
M  V30 831 N 137.249 0.496304 0.77465 0
M  V30 832 C 137.249 0.908403 2.09122 0
M  V30 833 N 137.379 -0.0517805 3.00955 0
M  V30 834 N 137.119 2.17875 2.46519 0
M  V30 835 C 136.999 3.01988 1.4033 0
M  V30 836 H 134.02 8.36803 2.32493 0
M  V30 837 H 133.75 6.70197 1.71129 0
M  V30 838 H 134.617 7.03551 4.13168 0
M  V30 839 H 137.272 4.59498 3.54415 0
M  V30 840 H 137.551 6.88898 1.59848 0
M  V30 841 H 138.543 6.46749 3.03687 0
M  V30 842 H 136.709 8.46908 3.20714 0
M  V30 843 H 136.66 5.86405 -0.105564 0
M  V30 844 H 137.342 -0.483664 0.597855 0
M  V30 845 H 137.379 0.187865 4.0116 0
M  V30 846 H 137.48 -1.03585 2.71726 0
M  V30 847 P 138.579 7.20834 5.23717 0
M  V30 848 O 138.799 7.79853 6.57286 0
M  V30 849 O 139.369 7.79239 4.12957 0
M  V30 850 O 138.829 5.63315 5.29344 0
M  V30 851 C 137.889 4.80255 6.01876 0
M  V30 852 C 138.619 3.64202 6.65911 0
M  V30 853 O 138.829 2.60694 5.64732 0
M  V30 854 C 140.019 3.93473 7.1943 0
M  V30 855 O 140.409 3.02071 8.21205 0
M  V30 856 C 140.899 3.73047 5.97036 0
M  V30 857 C 140.189 2.58828 5.25741 0
M  V30 858 N 140.239 2.68068 3.77503 0
M  V30 859 H 137.4 5.40332 6.79951 0
M  V30 860 H 137.13 4.41613 5.32378 0
M  V30 861 H 137.997 3.26331 7.47797 0
M  V30 862 P 141.959 2.75334 8.47391 0
M  V30 863 O 142.179 2.44619 9.90336 0
M  V30 864 O 142.749 3.87776 7.92294 0
M  V30 865 O 142.209 1.4459 7.59357 0
M  V30 866 C 141.269 0.347653 7.69315 0
M  V30 867 C 141.999 -0.96767 7.52806 0
M  V30 868 O 142.209 -1.21055 6.10208 0
M  V30 869 C 143.399 -1.04557 8.13408 0
M  V30 870 O 143.789 -2.38311 8.41922 0
M  V30 871 C 144.279 -0.491279 7.02284 0
M  V30 872 C 143.569 -0.996264 5.77469 0
M  V30 873 N 143.619 -0.0501916 4.62973 0
M  V30 874 C 143.539 1.31969 4.65661 0
M  V30 875 N 143.609 1.86649 3.48119 0
M  V30 876 C 143.759 0.792089 2.62406 0
M  V30 877 C 143.889 0.705684 1.2207 0
M  V30 878 N 143.899 1.76207 0.413762 0
M  V30 879 N 144.009 -0.518981 0.685754 0
M  V30 880 C 143.999 -1.57595 1.49174 0
M  V30 881 N 143.879 -1.62909 2.80066 0
M  V30 882 C 143.759 -0.388195 3.3073 0
M  V30 883 H 140.781 0.374765 8.67791 0
M  V30 884 H 140.509 0.443613 6.90476 0
M  V30 885 H 141.377 -1.75559 7.96891 0
M  V30 886 H 144.032 -1.94563 5.46818 0
M  V30 887 H 144.312 0.608651 7.04676 0
M  V30 888 H 145.303 -0.889796 7.09039 0
M  V30 889 H 143.469 -0.433128 9.04664 0
M  V30 890 H 143.428 1.89246 5.57664 0
M  V30 891 H 143.809 2.71005 0.804694 0
M  V30 892 H 143.998 1.63189 -0.603768 0
M  V30 893 H 144.106 -2.53475 0.997614 0
M  V30 894 P 145.339 -2.75334 8.47391 0
M  V30 895 O 145.559 -3.84204 9.44982 0
M  V30 896 O 146.129 -1.51982 8.68909 0
M  V30 897 O 145.589 -3.29363 6.99321 0
M  V30 898 C 144.649 -4.24066 6.42823 0
M  V30 899 C 145.379 -5.20775 5.52155 0
M  V30 900 O 145.589 -4.56607 4.22514 0
M  V30 901 C 146.779 -5.62697 5.96604 0
M  V30 902 O 147.169 -6.87667 5.41053 0
M  V30 903 C 147.659 -4.52537 5.39283 0
M  V30 904 C 146.949 -4.20027 4.08623 0
M  V30 905 N 146.999 -2.76189 3.71603 0
M  V30 906 C 146.919 -1.66944 4.54297 0
M  V30 907 N 146.989 -0.536169 3.91344 0
M  V30 908 C 147.139 -0.901569 2.58849 0
M  V30 909 C 147.269 -0.146599 1.40236 0
M  V30 910 N 147.279 1.18234 1.37046 0
M  V30 911 N 147.389 -0.822941 0.249738 0
M  V30 912 C 147.379 -2.15179 0.280525 0
M  V30 913 N 147.259 -2.96414 1.30822 0
M  V30 914 C 147.139 -2.25804 2.44748 0
M  V30 915 H 144.161 -4.79756 7.24086 0
M  V30 916 H 143.889 -3.69963 5.84682 0
M  V30 917 H 144.757 -6.10431 5.41508 0
M  V30 918 H 147.412 -4.78816 3.28024 0
M  V30 919 H 147.692 -3.64957 6.05871 0
M  V30 920 H 148.683 -4.88748 5.21323 0
M  V30 921 H 146.849 -5.66789 7.0643 0
M  V30 922 H 146.808 -1.74684 5.62396 0
M  V30 923 H 147.189 1.71949 2.24394 0
M  V30 924 H 147.378 1.67511 0.470742 0
M  V30 925 H 147.486 -2.63704 -0.6828 0
M  V30 926 P 148.719 -7.20834 5.23717 0
M  V30 927 O 148.939 -8.66274 5.38678 0
M  V30 928 O 149.509 -6.33687 6.13629 0
M  V30 929 O 148.969 -6.7751 3.72168 0
M  V30 930 C 148.029 -7.20919 2.70795 0
M  V30 931 C 148.759 -7.45864 1.40599 0
M  V30 932 O 148.969 -6.17751 0.734343 0
M  V30 933 C 150.159 -8.05906 1.51917 0
M  V30 934 O 150.549 -8.74358 0.335205 0
M  V30 935 C 151.039 -6.83093 1.70294 0
M  V30 936 C 150.329 -5.79992 0.836974 0
M  V30 937 N 150.379 -4.41864 1.38293 0
M  V30 938 C 150.299 -4.02089 2.69407 0
M  V30 939 N 150.369 -2.73403 2.85089 0
M  V30 940 C 150.519 -2.25086 1.5642 0
M  V30 941 C 150.649 -0.942887 1.04836 0
M  V30 942 N 150.659 0.150999 1.80369 0
M  V30 943 N 150.769 -0.812565 -0.28167 0
M  V30 944 C 150.759 -1.90572 -1.03784 0
M  V30 945 N 150.639 -3.167 -0.683905 0
M  V30 946 C 150.519 -3.26538 0.652815 0
M  V30 947 H 147.541 -8.13738 3.03804 0
M  V30 948 H 147.269 -6.42974 2.55559 0
M  V30 949 H 148.137 -8.12139 0.792866 0
M  V30 950 H 150.792 -5.80178 -0.160643 0
M  V30 951 H 151.072 -6.51379 2.75643 0
M  V30 952 H 152.063 -7.01832 1.3448 0
M  V30 953 H 150.229 -8.73771 2.38364 0
M  V30 954 H 150.188 -4.7189 3.52311 0
M  V30 955 H 150.569 0.0721434 2.82608 0
M  V30 956 H 150.758 1.0785 1.36544 0
M  V30 957 H 150.866 -1.73207 -2.10241 0
M  V30 958 P 152.099 -8.91 9.82044e-15 0
M  V30 959 O 152.319 -10.1726 -0.733694 0
M  V30 960 O 152.889 -8.73148 1.23936 0
M  V30 961 O 152.349 -7.66872 -0.971405 0
M  V30 962 C 151.409 -7.42309 -2.04641 0
M  V30 963 C 152.139 -6.86059 -3.24661 0
M  V30 964 O 152.349 -5.42847 -3.03646 0
M  V30 965 C 153.539 -7.41196 -3.50753 0
M  V30 966 O 153.929 -7.27073 -4.86816 0
M  V30 967 C 154.419 -6.5273 -2.63741 0
M  V30 968 C 153.709 -5.1842 -2.73198 0
M  V30 969 N 153.759 -4.38762 -1.4784 0
M  V30 970 H 150.92 -8.36803 -2.32493 0
M  V30 971 H 150.65 -6.70197 -1.71129 0
M  V30 972 H 151.517 -7.03551 -4.13168 0
M  V30 973 P 155.479 -7.20834 -5.23717 0
M  V30 974 O 155.699 -7.79853 -6.57286 0
M  V30 975 O 156.269 -7.79239 -4.12957 0
M  V30 976 O 155.729 -5.63315 -5.29344 0
M  V30 977 C 154.789 -4.80255 -6.01876 0
M  V30 978 C 155.519 -3.64202 -6.65911 0
M  V30 979 O 155.729 -2.60694 -5.64732 0
M  V30 980 C 156.919 -3.93473 -7.1943 0
M  V30 981 O 157.309 -3.02071 -8.21205 0
M  V30 982 C 157.799 -3.73047 -5.97036 0
M  V30 983 C 157.089 -2.58828 -5.25741 0
M  V30 984 N 157.139 -2.68068 -3.77503 0
M  V30 985 H 154.3 -5.40332 -6.79951 0
M  V30 986 H 154.03 -4.41613 -5.32378 0
M  V30 987 H 154.897 -3.26331 -7.47797 0
M  V30 988 P 158.859 -2.75334 -8.47391 0
M  V30 989 O 159.079 -2.44619 -9.90336 0
M  V30 990 O 159.649 -3.87776 -7.92294 0
M  V30 991 O 159.109 -1.4459 -7.59357 0
M  V30 992 C 158.169 -0.347653 -7.69315 0
M  V30 993 C 158.899 0.96767 -7.52806 0
M  V30 994 O 159.109 1.21055 -6.10208 0
M  V30 995 C 160.299 1.04557 -8.13408 0
M  V30 996 O 160.689 2.38311 -8.41922 0
M  V30 997 C 161.179 0.491279 -7.02284 0
M  V30 998 C 160.469 0.996264 -5.77469 0
M  V30 999 N 160.519 0.0501916 -4.62973 0
M  V30 1000 C 160.439 -1.31969 -4.65661 0
M  V30 1001 N 160.509 -1.86649 -3.48119 0
M  V30 1002 C 160.659 -0.792089 -2.62406 0
M  V30 1003 C 160.789 -0.705684 -1.2207 0
M  V30 1004 N 160.799 -1.76207 -0.413762 0
M  V30 1005 N 160.909 0.518981 -0.685754 0
M  V30 1006 C 160.899 1.57595 -1.49174 0
M  V30 1007 N 160.779 1.62909 -2.80066 0
M  V30 1008 C 160.659 0.388195 -3.3073 0
M  V30 1009 H 157.681 -0.374765 -8.67791 0
M  V30 1010 H 157.409 -0.443613 -6.90476 0
M  V30 1011 H 158.277 1.75559 -7.96891 0
M  V30 1012 H 160.932 1.94563 -5.46818 0
M  V30 1013 H 161.212 -0.608651 -7.04676 0
M  V30 1014 H 162.203 0.889796 -7.09039 0
M  V30 1015 H 160.369 0.433128 -9.04664 0
M  V30 1016 H 160.328 -1.89246 -5.57664 0
M  V30 1017 H 160.709 -2.71005 -0.804694 0
M  V30 1018 H 160.898 -1.63189 0.603768 0
M  V30 1019 H 161.006 2.53475 -0.997614 0
M  V30 1020 P 162.239 2.75334 -8.47391 0
M  V30 1021 O 162.459 3.84128 -9.44797 0
M  V30 1022 O 163.029 1.51947 -8.68712 0
M  V30 1023 O 162.489 3.29363 -6.99321 0
M  V30 1024 C 161.549 4.24011 -6.4274 0
M  V30 1025 C 162.279 5.20775 -5.52155 0
M  V30 1026 O 162.489 4.56534 -4.22446 0
M  V30 1027 C 163.679 5.62629 -5.96531 0
M  V30 1028 O 164.069 6.87667 -5.41053 0
M  V30 1029 C 164.559 4.52537 -5.39283 0
M  V30 1030 C 163.849 4.20027 -4.08623 0
M  V30 1031 N 163.899 2.76189 -3.71603 0
M  V30 1032 H 161.06 4.797 -7.24003 0
M  V30 1033 H 160.79 3.69856 -5.84513 0
M  V30 1034 H 161.657 6.10356 -5.41441 0
M  V30 1035 P 165.619 7.20834 -5.23717 0
M  V30 1036 O 165.839 8.66104 -5.38572 0
M  V30 1037 O 166.409 6.33544 -6.1349 0
M  V30 1038 O 165.869 6.7751 -3.72168 0
M  V30 1039 C 164.929 7.20825 -2.7076 0
M  V30 1040 C 165.659 7.45864 -1.40599 0
M  V30 1041 O 165.869 6.17651 -0.734225 0
M  V30 1042 C 167.059 8.05808 -1.51899 0
M  V30 1043 O 167.449 8.74358 -0.335205 0
M  V30 1044 C 167.939 6.83093 -1.70294 0
M  V30 1045 C 167.229 5.79992 -0.836974 0
M  V30 1046 N 167.279 4.41864 -1.38293 0
M  V30 1047 H 164.44 8.13644 -3.0377 0
M  V30 1048 H 164.17 6.42788 -2.55485 0
M  V30 1049 H 165.037 8.12039 -0.792769 0
M  V30 1050 P 168.999 8.91 -1.09116e-14 0
M  V30 1051 O 169.219 10.1746 0.733838 0
M  V30 1052 O 169.789 8.73346 -1.23964 0
M  V30 1053 O 169.249 7.66872 0.971405 0
M  V30 1054 C 168.309 7.42405 2.04668 0
M  V30 1055 C 169.039 6.86059 3.24661 0
M  V30 1056 O 169.249 5.42934 3.03695 0
M  V30 1057 C 170.439 7.41287 3.50796 0
M  V30 1058 O 170.829 7.27073 4.86816 0
M  V30 1059 C 171.319 6.5273 2.63741 0
M  V30 1060 C 170.609 5.1842 2.73198 0
M  V30 1061 N 170.659 4.38762 1.4784 0
M  V30 1062 C 170.579 4.83651 0.183876 0
M  V30 1063 N 170.649 3.88759 -0.699393 0
M  V30 1064 C 170.799 2.7404 0.0575568 0
M  V30 1065 C 170.929 1.37902 -0.293928 0
M  V30 1066 N 170.939 0.938021 -1.54797 0
M  V30 1067 N 171.049 0.491817 0.70549 0
M  V30 1068 C 171.039 0.931735 1.95979 0
M  V30 1069 N 170.919 2.16017 2.41481 0
M  V30 1070 C 170.799 3.02547 1.39121 0
M  V30 1071 H 167.821 8.36899 2.3252 0
M  V30 1072 H 167.549 6.70391 1.71179 0
M  V30 1073 H 168.417 7.03638 4.13219 0
M  V30 1074 H 171.072 4.59931 3.54016 0
M  V30 1075 H 171.352 6.88995 1.59871 0
M  V30 1076 H 172.343 6.4684 3.0373 0
M  V30 1077 H 170.509 8.47002 3.20749 0
M  V30 1078 H 170.468 5.8885 -0.0765548 0
M  V30 1079 H 170.849 1.60276 -2.32875 0
M  V30 1080 H 171.038 -0.0699355 -1.73859 0
M  V30 1081 H 171.146 0.165507 2.71897 0
M  V30 1082 P 172.379 7.20834 5.23717 0
M  V30 1083 O 172.599 7.79853 6.57286 0
M  V30 1084 O 173.169 7.79239 4.12957 0
M  V30 1085 O 172.629 5.63315 5.29344 0
M  V30 1086 C 171.689 4.80255 6.01876 0
M  V30 1087 C 172.419 3.64202 6.65911 0
M  V30 1088 O 172.629 2.60694 5.64732 0
M  V30 1089 C 173.819 3.93473 7.1943 0
M  V30 1090 O 174.209 3.02071 8.21205 0
M  V30 1091 C 174.699 3.73047 5.97036 0
M  V30 1092 C 173.989 2.58828 5.25741 0
M  V30 1093 N 174.039 2.68068 3.77503 0
M  V30 1094 H 171.2 5.40332 6.79951 0
M  V30 1095 H 170.93 4.41613 5.32378 0
M  V30 1096 H 171.797 3.26331 7.47797 0
M  V30 1097 P 175.759 2.75334 8.47391 0
M  V30 1098 O 175.979 2.44619 9.90336 0
M  V30 1099 O 176.549 3.87776 7.92294 0
M  V30 1100 O 176.009 1.4459 7.59357 0
M  V30 1101 C 175.069 0.347653 7.69315 0
M  V30 1102 C 175.799 -0.96767 7.52806 0
M  V30 1103 O 176.009 -1.21055 6.10208 0
M  V30 1104 C 177.199 -1.04557 8.13408 0
M  V30 1105 O 177.589 -2.38311 8.41922 0
M  V30 1106 C 178.079 -0.491279 7.02284 0
M  V30 1107 C 177.369 -0.996264 5.77469 0
M  V30 1108 N 177.419 -0.0501916 4.62973 0
M  V30 1109 C 177.339 1.31969 4.65661 0
M  V30 1110 N 177.409 1.86649 3.48119 0
M  V30 1111 C 177.559 0.792089 2.62406 0
M  V30 1112 C 177.689 0.705684 1.2207 0
M  V30 1113 N 177.699 1.76207 0.413762 0
M  V30 1114 N 177.809 -0.518981 0.685754 0
M  V30 1115 C 177.799 -1.57595 1.49174 0
M  V30 1116 N 177.679 -1.62909 2.80066 0
M  V30 1117 C 177.559 -0.388195 3.3073 0
M  V30 1118 H 174.581 0.374765 8.67791 0
M  V30 1119 H 174.309 0.443613 6.90476 0
M  V30 1120 H 175.177 -1.75559 7.96891 0
M  V30 1121 H 177.832 -1.94563 5.46818 0
M  V30 1122 H 178.112 0.608651 7.04676 0
M  V30 1123 H 179.103 -0.889796 7.09039 0
M  V30 1124 H 177.269 -0.433128 9.04664 0
M  V30 1125 H 177.228 1.89246 5.57664 0
M  V30 1126 H 177.609 2.71005 0.804694 0
M  V30 1127 H 177.798 1.63189 -0.603768 0
M  V30 1128 H 177.906 -2.53475 0.997614 0
M  V30 1129 P 179.139 -2.75334 8.47391 0
M  V30 1130 O 179.359 -3.84128 9.44797 0
M  V30 1131 O 179.929 -1.51947 8.68712 0
M  V30 1132 O 179.389 -3.29363 6.99321 0
M  V30 1133 C 178.449 -4.24011 6.4274 0
M  V30 1134 C 179.179 -5.20775 5.52155 0
M  V30 1135 O 179.389 -4.56534 4.22446 0
M  V30 1136 C 180.579 -5.62629 5.96531 0
M  V30 1137 O 180.969 -6.87667 5.41053 0
M  V30 1138 C 181.459 -4.52537 5.39283 0
M  V30 1139 C 180.749 -4.20027 4.08623 0
M  V30 1140 N 180.799 -2.76189 3.71603 0
M  V30 1141 C 180.719 -1.64862 4.52822 0
M  V30 1142 N 180.799 -0.512671 3.88633 0
M  V30 1143 C 180.939 -0.888083 2.54977 0
M  V30 1144 C 181.069 -0.094668 1.38677 0
M  V30 1145 O 181.089 1.13053 1.28163 0
M  V30 1146 N 181.189 -0.890102 0.232633 0
M  V30 1147 C 181.189 -2.26958 0.21772 0
M  V30 1148 N 181.319 -2.84626 -0.97925 0
M  V30 1149 N 181.059 -3.0178 1.31033 0
M  V30 1150 C 180.939 -2.26781 2.43843 0
M  V30 1151 H 177.96 -4.797 7.24003 0
M  V30 1152 H 177.69 -3.69856 5.84513 0
M  V30 1153 H 178.557 -6.10356 5.41441 0
M  V30 1154 H 181.212 -4.79061 3.27488 0
M  V30 1155 H 181.491 -3.64906 6.05785 0
M  V30 1156 H 182.483 -4.8868 5.2125 0
M  V30 1157 H 180.649 -5.66726 7.06352 0
M  V30 1158 H 180.6 -1.71169 5.60966 0
M  V30 1159 H 181.282 -0.419134 -0.644739 0
M  V30 1160 H 181.319 -3.87332 -1.06098 0
M  V30 1161 H 181.42 -2.26417 -1.82483 0
M  V30 1162 P 182.519 -7.20834 5.23717 0
M  V30 1163 O 182.739 -8.66104 5.38572 0
M  V30 1164 O 183.309 -6.33544 6.1349 0
M  V30 1165 O 182.769 -6.7751 3.72168 0
M  V30 1166 C 181.829 -7.20825 2.7076 0
M  V30 1167 C 182.559 -7.45864 1.40599 0
M  V30 1168 O 182.769 -6.17651 0.734225 0
M  V30 1169 C 183.959 -8.05808 1.51899 0
M  V30 1170 O 184.349 -8.74358 0.335205 0
M  V30 1171 C 184.839 -6.83093 1.70294 0
M  V30 1172 C 184.129 -5.79992 0.836974 0
M  V30 1173 N 184.179 -4.41864 1.38293 0
M  V30 1174 H 181.34 -8.13644 3.0377 0
M  V30 1175 H 181.07 -6.42788 2.55485 0
M  V30 1176 H 181.937 -8.12039 0.792769 0
M  V30 1177 P 185.899 -8.91 -8.29613e-14 0
M  V30 1178 O 186.119 -10.1726 -0.733694 0
M  V30 1179 O 186.689 -8.73148 1.23936 0
M  V30 1180 O 186.149 -7.66872 -0.971405 0
M  V30 1181 C 185.209 -7.42309 -2.04641 0
M  V30 1182 C 185.939 -6.86059 -3.24661 0
M  V30 1183 O 186.149 -5.42847 -3.03646 0
M  V30 1184 C 187.339 -7.41196 -3.50753 0
M  V30 1185 O 187.729 -7.27073 -4.86816 0
M  V30 1186 C 188.219 -6.5273 -2.63741 0
M  V30 1187 C 187.509 -5.1842 -2.73198 0
M  V30 1188 N 187.559 -4.38762 -1.4784 0
M  V30 1189 H 184.72 -8.36803 -2.32493 0
M  V30 1190 H 184.45 -6.70197 -1.71129 0
M  V30 1191 H 185.317 -7.03551 -4.13168 0
M  V30 1192 P 189.279 -7.20834 -5.23717 0
M  V30 1193 O 189.499 -7.79853 -6.57286 0
M  V30 1194 O 190.069 -7.79239 -4.12957 0
M  V30 1195 O 189.529 -5.63315 -5.29344 0
M  V30 1196 C 188.589 -4.80255 -6.01876 0
M  V30 1197 C 189.319 -3.64202 -6.65911 0
M  V30 1198 O 189.529 -2.60694 -5.64732 0
M  V30 1199 C 190.719 -3.93473 -7.1943 0
M  V30 1200 O 191.109 -3.02071 -8.21205 0
M  V30 1201 C 191.599 -3.73047 -5.97036 0
M  V30 1202 C 190.889 -2.58828 -5.25741 0
M  V30 1203 N 190.939 -2.68068 -3.77503 0
M  V30 1204 H 188.1 -5.40332 -6.79951 0
M  V30 1205 H 187.83 -4.41613 -5.32378 0
M  V30 1206 H 188.697 -3.26331 -7.47797 0
M  V30 1207 P 192.659 -2.75334 -8.47391 0
M  V30 1208 O 192.879 -2.44571 -9.90142 0
M  V30 1209 O 193.449 -3.87688 -7.92115 0
M  V30 1210 O 192.909 -1.4459 -7.59357 0
M  V30 1211 C 191.969 -0.347608 -7.69215 0
M  V30 1212 C 192.699 0.96767 -7.52806 0
M  V30 1213 O 192.909 1.21036 -6.1011 0
M  V30 1214 C 194.099 1.04544 -8.13308 0
M  V30 1215 O 194.489 2.38311 -8.41922 0
M  V30 1216 C 194.979 0.491279 -7.02284 0
M  V30 1217 C 194.269 0.996264 -5.77469 0
M  V30 1218 N 194.319 0.0501916 -4.62973 0
M  V30 1219 H 191.48 -0.374722 -8.67691 0
M  V30 1220 H 191.21 -0.443485 -6.90277 0
M  V30 1221 H 192.077 1.75537 -7.96793 0
M  V30 1222 P 196.039 2.75334 -8.47391 0
M  V30 1223 O 196.259 3.84128 -9.44797 0
M  V30 1224 O 196.829 1.51947 -8.68712 0
M  V30 1225 O 196.289 3.29363 -6.99321 0
M  V30 1226 C 195.349 4.24011 -6.4274 0
M  V30 1227 C 196.079 5.20775 -5.52155 0
M  V30 1228 O 196.289 4.56534 -4.22446 0
M  V30 1229 C 197.479 5.62629 -5.96531 0
M  V30 1230 O 197.869 6.87667 -5.41053 0
M  V30 1231 C 198.359 4.52537 -5.39283 0
M  V30 1232 C 197.649 4.20027 -4.08623 0
M  V30 1233 N 197.699 2.76189 -3.71603 0
M  V30 1234 C 197.619 1.64862 -4.52822 0
M  V30 1235 N 197.699 0.512671 -3.88633 0
M  V30 1236 C 197.839 0.888083 -2.54977 0
M  V30 1237 C 197.969 0.094668 -1.38677 0
M  V30 1238 O 197.989 -1.13053 -1.28163 0
M  V30 1239 N 198.089 0.890102 -0.232633 0
M  V30 1240 C 198.089 2.26958 -0.21772 0
M  V30 1241 N 198.219 2.84626 0.97925 0
M  V30 1242 N 197.959 3.0178 -1.31033 0
M  V30 1243 C 197.839 2.26781 -2.43843 0
M  V30 1244 H 194.86 4.797 -7.24003 0
M  V30 1245 H 194.59 3.69856 -5.84513 0
M  V30 1246 H 195.457 6.10356 -5.41441 0
M  V30 1247 H 198.112 4.79061 -3.27488 0
M  V30 1248 H 198.391 3.64906 -6.05785 0
M  V30 1249 H 199.383 4.8868 -5.2125 0
M  V30 1250 H 197.549 5.66726 -7.06352 0
M  V30 1251 H 197.5 1.71169 -5.60966 0
M  V30 1252 H 198.182 0.419134 0.644739 0
M  V30 1253 H 198.219 3.87332 1.06098 0
M  V30 1254 H 198.32 2.26417 1.82483 0
M  V30 1255 P 199.419 7.20834 -5.23717 0
M  V30 1256 O 199.639 8.66189 -5.38625 0
M  V30 1257 O 200.209 6.33615 -6.1356 0
M  V30 1258 O 199.669 6.7751 -3.72168 0
M  V30 1259 C 198.729 7.20732 -2.70725 0
M  V30 1260 C 199.459 7.45864 -1.40599 0
M  V30 1261 O 199.669 6.17651 -0.734225 0
M  V30 1262 C 200.859 8.05808 -1.51899 0
M  V30 1263 O 201.249 8.74358 -0.335205 0
M  V30 1264 C 201.739 6.83093 -1.70294 0
M  V30 1265 C 201.029 5.79992 -0.836974 0
M  V30 1266 N 201.079 4.41769 -1.38263 0
M  V30 1267 C 201.229 3.38591 -0.481702 0
M  V30 1268 O 201.319 3.56839 0.718452 0
M  V30 1269 N 201.269 2.1206 -1.03569 0
M  V30 1270 C 201.179 1.80696 -2.36966 0
M  V30 1271 O 201.229 0.630473 -2.74862 0
M  V30 1272 C 201.029 2.94845 -3.23898 0
M  V30 1273 C 200.919 2.65253 -4.70362 0
M  V30 1274 C 200.979 4.19803 -2.73435 0
M  V30 1275 H 198.239 8.13644 -3.0377 0
M  V30 1276 H 197.97 6.42695 -2.55448 0
M  V30 1277 H 198.837 8.12039 -0.792769 0
M  V30 1278 H 201.492 5.79978 0.160587 0
M  V30 1279 H 201.771 6.51379 -2.75643 0
M  V30 1280 H 202.763 7.01734 -1.34462 0
M  V30 1281 H 200.929 8.73674 -2.38337 0
M  V30 1282 H 200.858 5.04492 -3.4095 0
M  V30 1283 H 201.888 2.83924 -5.1913 0
M  V30 1284 H 200.151 3.29824 -5.15163 0
M  V30 1285 H 200.639 1.59723 -4.84449 0
M  V30 1286 H 201.375 1.35644 -0.399345 0
M  V30 1287 P 202.799 8.91 2.40144e-13 0
M  V30 1288 O 203.019 10.1726 0.733694 0
M  V30 1289 O 203.589 8.73148 -1.23936 0
M  V30 1290 O 203.049 7.66872 0.971405 0
M  V30 1291 C 202.109 7.42309 2.04641 0
M  V30 1292 C 202.839 6.86059 3.24661 0
M  V30 1293 O 203.049 5.42847 3.03646 0
M  V30 1294 C 204.239 7.41196 3.50753 0
M  V30 1295 O 204.629 7.27073 4.86816 0
M  V30 1296 C 205.119 6.5273 2.63741 0
M  V30 1297 C 204.409 5.1842 2.73198 0
M  V30 1298 N 204.459 4.38762 1.4784 0
M  V30 1299 H 201.62 8.36803 2.32493 0
M  V30 1300 H 201.35 6.70197 1.71129 0
M  V30 1301 H 202.217 7.03551 4.13168 0
M  V30 1302 P 206.179 7.20834 5.23717 0
M  V30 1303 O 206.399 7.79853 6.57286 0
M  V30 1304 O 206.969 7.79239 4.12957 0
M  V30 1305 O 206.429 5.63315 5.29344 0
M  V30 1306 C 205.489 4.80255 6.01876 0
M  V30 1307 C 206.219 3.64202 6.65911 0
M  V30 1308 O 206.429 2.60694 5.64732 0
M  V30 1309 C 207.619 3.93473 7.1943 0
M  V30 1310 O 208.009 3.02071 8.21205 0
M  V30 1311 C 208.499 3.73047 5.97036 0
M  V30 1312 C 207.789 2.58828 5.25741 0
M  V30 1313 N 207.839 2.68068 3.77503 0
M  V30 1314 H 205 5.40332 6.79951 0
M  V30 1315 H 204.73 4.41613 5.32378 0
M  V30 1316 H 205.597 3.26331 7.47797 0
M  V30 1317 P 209.559 2.75334 8.47391 0
M  V30 1318 O 209.779 2.44571 9.90142 0
M  V30 1319 O 210.349 3.87688 7.92115 0
M  V30 1320 O 209.809 1.4459 7.59357 0
M  V30 1321 C 208.869 0.347608 7.69215 0
M  V30 1322 C 209.599 -0.96767 7.52806 0
M  V30 1323 O 209.809 -1.21036 6.1011 0
M  V30 1324 C 210.999 -1.04544 8.13308 0
M  V30 1325 O 211.389 -2.38311 8.41922 0
M  V30 1326 C 211.879 -0.491279 7.02284 0
M  V30 1327 C 211.169 -0.996264 5.77469 0
M  V30 1328 N 211.219 -0.0501916 4.62973 0
M  V30 1329 H 208.38 0.374722 8.67691 0
M  V30 1330 H 208.11 0.443485 6.90277 0
M  V30 1331 H 208.977 -1.75537 7.96793 0
M  V30 1332 P 212.939 -2.75334 8.47391 0
M  V30 1333 O 213.159 -3.84128 9.44797 0
M  V30 1334 O 213.729 -1.51947 8.68712 0
M  V30 1335 O 213.189 -3.29363 6.99321 0
M  V30 1336 C 212.249 -4.24011 6.4274 0
M  V30 1337 C 212.979 -5.20775 5.52155 0
M  V30 1338 O 213.189 -4.56534 4.22446 0
M  V30 1339 C 214.379 -5.62629 5.96531 0
M  V30 1340 O 214.769 -6.87667 5.41053 0
M  V30 1341 C 215.259 -4.52537 5.39283 0
M  V30 1342 C 214.549 -4.20027 4.08623 0
M  V30 1343 N 214.599 -2.76189 3.71603 0
M  V30 1344 H 211.76 -4.797 7.24003 0
M  V30 1345 H 211.49 -3.69856 5.84513 0
M  V30 1346 H 212.357 -6.10356 5.41441 0
M  V30 1347 P 216.319 -7.20834 5.23717 0
M  V30 1348 O 216.539 -8.66104 5.38572 0
M  V30 1349 O 217.109 -6.33544 6.1349 0
M  V30 1350 O 216.569 -6.7751 3.72168 0
M  V30 1351 C 215.629 -7.20825 2.7076 0
M  V30 1352 C 216.359 -7.45864 1.40599 0
M  V30 1353 O 216.569 -6.17651 0.734225 0
M  V30 1354 C 217.759 -8.05808 1.51899 0
M  V30 1355 O 218.149 -8.74358 0.335205 0
M  V30 1356 C 218.639 -6.83093 1.70294 0
M  V30 1357 C 217.929 -5.79992 0.836974 0
M  V30 1358 N 217.979 -4.41864 1.38293 0
M  V30 1359 H 215.14 -8.13644 3.0377 0
M  V30 1360 H 214.87 -6.42788 2.55485 0
M  V30 1361 H 215.737 -8.12039 0.792769 0
M  V30 1362 P 219.699 -8.91 -3.97326e-13 0
M  V30 1363 O 219.919 -10.1726 -0.733694 0
M  V30 1364 O 220.489 -8.73148 1.23936 0
M  V30 1365 O 219.949 -7.66872 -0.971405 0
M  V30 1366 C 219.009 -7.42309 -2.04641 0
M  V30 1367 C 219.739 -6.86059 -3.24661 0
M  V30 1368 O 219.949 -5.42847 -3.03646 0
M  V30 1369 C 221.139 -7.41196 -3.50753 0
M  V30 1370 O 221.529 -7.27073 -4.86816 0
M  V30 1371 C 222.019 -6.5273 -2.63741 0
M  V30 1372 C 221.309 -5.1842 -2.73198 0
M  V30 1373 N 221.359 -4.38762 -1.4784 0
M  V30 1374 H 218.52 -8.36803 -2.32493 0
M  V30 1375 H 218.25 -6.70197 -1.71129 0
M  V30 1376 H 219.117 -7.03551 -4.13168 0
M  V30 1377 P 223.079 -7.20834 -5.23717 0
M  V30 1378 O 223.299 -7.79853 -6.57286 0
M  V30 1379 O 223.869 -7.79239 -4.12957 0
M  V30 1380 O 223.329 -5.63315 -5.29344 0
M  V30 1381 C 222.389 -4.80255 -6.01876 0
M  V30 1382 C 223.119 -3.64202 -6.65911 0
M  V30 1383 O 223.329 -2.60694 -5.64732 0
M  V30 1384 C 224.519 -3.93473 -7.1943 0
M  V30 1385 O 224.909 -3.02071 -8.21205 0
M  V30 1386 C 225.399 -3.73047 -5.97036 0
M  V30 1387 C 224.689 -2.58828 -5.25741 0
M  V30 1388 N 224.739 -2.68068 -3.77503 0
M  V30 1389 H 221.9 -5.40332 -6.79951 0
M  V30 1390 H 221.63 -4.41613 -5.32378 0
M  V30 1391 H 222.497 -3.26331 -7.47797 0
M  V30 1392 P 226.459 -2.75334 -8.47391 0
M  V30 1393 O 226.679 -2.44619 -9.90336 0
M  V30 1394 O 227.249 -3.87776 -7.92294 0
M  V30 1395 O 226.709 -1.4459 -7.59357 0
M  V30 1396 C 225.769 -0.347653 -7.69315 0
M  V30 1397 C 226.499 0.96767 -7.52806 0
M  V30 1398 O 226.709 1.21055 -6.10208 0
M  V30 1399 C 227.899 1.04557 -8.13408 0
M  V30 1400 O 228.289 2.38311 -8.41922 0
M  V30 1401 C 228.779 0.491279 -7.02284 0
M  V30 1402 C 228.069 0.996264 -5.77469 0
M  V30 1403 N 228.119 0.0501916 -4.62973 0
M  V30 1404 C 228.039 -1.31969 -4.65661 0
M  V30 1405 N 228.109 -1.86649 -3.48119 0
M  V30 1406 C 228.259 -0.792089 -2.62406 0
M  V30 1407 C 228.389 -0.705684 -1.2207 0
M  V30 1408 N 228.399 -1.76207 -0.413762 0
M  V30 1409 N 228.509 0.518981 -0.685754 0
M  V30 1410 C 228.499 1.57595 -1.49174 0
M  V30 1411 N 228.379 1.62909 -2.80066 0
M  V30 1412 C 228.259 0.388195 -3.3073 0
M  V30 1413 H 225.281 -0.374765 -8.67791 0
M  V30 1414 H 225.009 -0.443613 -6.90476 0
M  V30 1415 H 225.877 1.75559 -7.96891 0
M  V30 1416 H 228.532 1.94563 -5.46818 0
M  V30 1417 H 228.812 -0.608651 -7.04676 0
M  V30 1418 H 229.803 0.889796 -7.09039 0
M  V30 1419 H 227.969 0.433128 -9.04664 0
M  V30 1420 H 227.928 -1.89246 -5.57664 0
M  V30 1421 H 228.309 -2.71005 -0.804694 0
M  V30 1422 H 228.498 -1.63189 0.603768 0
M  V30 1423 H 228.606 2.53475 -0.997614 0
M  V30 1424 P 229.839 2.75334 -8.47391 0
M  V30 1425 O 230.059 3.84128 -9.44797 0
M  V30 1426 O 230.629 1.51947 -8.68712 0
M  V30 1427 O 230.089 3.29363 -6.99321 0
M  V30 1428 C 229.149 4.24011 -6.4274 0
M  V30 1429 C 229.879 5.20775 -5.52155 0
M  V30 1430 O 230.089 4.56534 -4.22446 0
M  V30 1431 C 231.279 5.62629 -5.96531 0
M  V30 1432 O 231.669 6.87667 -5.41053 0
M  V30 1433 C 232.159 4.52537 -5.39283 0
M  V30 1434 C 231.449 4.20027 -4.08623 0
M  V30 1435 N 231.499 2.76189 -3.71603 0
M  V30 1436 H 228.66 4.797 -7.24003 0
M  V30 1437 H 228.39 3.69856 -5.84513 0
M  V30 1438 H 229.257 6.10356 -5.41441 0
M  V30 1439 P 233.219 7.20834 -5.23717 0
M  V30 1440 O 233.439 8.66104 -5.38572 0
M  V30 1441 O 234.009 6.33544 -6.1349 0
M  V30 1442 O 233.469 6.7751 -3.72168 0
M  V30 1443 C 232.529 7.20825 -2.7076 0
M  V30 1444 C 233.259 7.45864 -1.40599 0
M  V30 1445 O 233.469 6.17651 -0.734225 0
M  V30 1446 C 234.659 8.05808 -1.51899 0
M  V30 1447 O 235.049 8.74358 -0.335205 0
M  V30 1448 C 235.539 6.83093 -1.70294 0
M  V30 1449 C 234.829 5.79992 -0.836974 0
M  V30 1450 N 234.879 4.41864 -1.38293 0
M  V30 1451 H 232.04 8.13644 -3.0377 0
M  V30 1452 H 231.77 6.42788 -2.55485 0
M  V30 1453 H 232.637 8.12039 -0.792769 0
M  V30 1454 P 236.599 8.91 5.54508e-13 0
M  V30 1455 O 236.819 10.1726 0.733694 0
M  V30 1456 O 237.389 8.73148 -1.23936 0
M  V30 1457 O 236.849 7.66872 0.971405 0
M  V30 1458 C 235.909 7.42309 2.04641 0
M  V30 1459 C 236.639 6.86059 3.24661 0
M  V30 1460 O 236.849 5.42847 3.03646 0
M  V30 1461 C 238.039 7.41196 3.50753 0
M  V30 1462 O 238.429 7.27073 4.86816 0
M  V30 1463 C 238.919 6.5273 2.63741 0
M  V30 1464 C 238.209 5.1842 2.73198 0
M  V30 1465 N 238.259 4.38762 1.4784 0
M  V30 1466 H 235.42 8.36803 2.32493 0
M  V30 1467 H 235.15 6.70197 1.71129 0
M  V30 1468 H 236.017 7.03551 4.13168 0
M  V30 1469 P 239.979 7.20834 5.23717 0
M  V30 1470 O 240.199 7.79853 6.57286 0
M  V30 1471 O 240.769 7.79239 4.12957 0
M  V30 1472 O 240.229 5.63315 5.29344 0
M  V30 1473 C 239.289 4.80255 6.01876 0
M  V30 1474 C 240.019 3.64202 6.65911 0
M  V30 1475 O 240.229 2.60694 5.64732 0
M  V30 1476 C 241.419 3.93473 7.1943 0
M  V30 1477 O 241.809 3.02071 8.21205 0
M  V30 1478 C 242.299 3.73047 5.97036 0
M  V30 1479 C 241.589 2.58828 5.25741 0
M  V30 1480 N 241.639 2.68068 3.77503 0
M  V30 1481 H 238.8 5.40332 6.79951 0
M  V30 1482 H 238.53 4.41613 5.32378 0
M  V30 1483 H 239.397 3.26331 7.47797 0
M  V30 1484 P 243.359 2.75334 8.47391 0
M  V30 1485 O 243.579 2.44571 9.90142 0
M  V30 1486 O 244.149 3.87688 7.92115 0
M  V30 1487 O 243.609 1.4459 7.59357 0
M  V30 1488 C 242.669 0.347608 7.69215 0
M  V30 1489 C 243.399 -0.96767 7.52806 0
M  V30 1490 O 243.609 -1.21036 6.1011 0
M  V30 1491 C 244.799 -1.04544 8.13308 0
M  V30 1492 O 245.189 -2.38311 8.41922 0
M  V30 1493 C 245.679 -0.491279 7.02284 0
M  V30 1494 C 244.969 -0.996264 5.77469 0
M  V30 1495 N 245.019 -0.0501916 4.62973 0
M  V30 1496 C 244.939 1.32786 4.63244 0
M  V30 1497 N 245.019 1.86957 3.44545 0
M  V30 1498 C 245.159 0.780241 2.58481 0
M  V30 1499 C 245.289 0.738536 1.17757 0
M  V30 1500 N 245.409 -0.58337 0.711393 0
M  V30 1501 C 245.409 -1.70816 1.51017 0
M  V30 1502 N 245.539 -2.87826 0.880757 0
M  V30 1503 N 245.279 -1.67126 2.8339 0
M  V30 1504 C 245.159 -0.401421 3.30572 0
M  V30 1505 H 242.18 0.374722 8.67691 0
M  V30 1506 H 241.91 0.443485 6.90277 0
M  V30 1507 H 242.777 -1.75537 7.96793 0
M  V30 1508 P 246.739 -2.75334 8.47391 0
M  V30 1509 O 246.959 -3.84128 9.44797 0
M  V30 1510 O 247.529 -1.51947 8.68712 0
M  V30 1511 O 246.989 -3.29363 6.99321 0
M  V30 1512 C 246.049 -4.24011 6.4274 0
M  V30 1513 C 246.779 -5.20775 5.52155 0
M  V30 1514 O 246.989 -4.56534 4.22446 0
M  V30 1515 C 248.179 -5.62629 5.96531 0
M  V30 1516 O 248.569 -6.87667 5.41053 0
M  V30 1517 C 249.059 -4.52537 5.39283 0
M  V30 1518 C 248.349 -4.20027 4.08623 0
M  V30 1519 N 248.399 -2.76189 3.71603 0
M  V30 1520 H 245.56 -4.797 7.24003 0
M  V30 1521 H 245.29 -3.69856 5.84513 0
M  V30 1522 H 246.157 -6.10356 5.41441 0
M  V30 1523 P 250.119 -7.20834 5.23717 0
M  V30 1524 O 250.339 -8.66104 5.38572 0
M  V30 1525 O 250.909 -6.33544 6.1349 0
M  V30 1526 O 250.369 -6.7751 3.72168 0
M  V30 1527 C 249.429 -7.20825 2.7076 0
M  V30 1528 C 250.159 -7.45864 1.40599 0
M  V30 1529 O 250.369 -6.17651 0.734225 0
M  V30 1530 C 251.559 -8.05808 1.51899 0
M  V30 1531 O 251.949 -8.74358 0.335205 0
M  V30 1532 C 252.439 -6.83093 1.70294 0
M  V30 1533 C 251.729 -5.79992 0.836974 0
M  V30 1534 N 251.779 -4.41864 1.38293 0
M  V30 1535 H 248.94 -8.13644 3.0377 0
M  V30 1536 H 248.67 -6.42788 2.55485 0
M  V30 1537 H 249.537 -8.12039 0.792769 0
M  V30 1538 P 253.498 -8.91 -7.1169e-13 0
M  V30 1539 O 253.718 -10.1726 -0.733694 0
M  V30 1540 O 254.288 -8.73148 1.23936 0
M  V30 1541 O 253.748 -7.66872 -0.971405 0
M  V30 1542 C 252.808 -7.42309 -2.04641 0
M  V30 1543 C 253.538 -6.86059 -3.24661 0
M  V30 1544 O 253.748 -5.42847 -3.03646 0
M  V30 1545 C 254.938 -7.41196 -3.50753 0
M  V30 1546 O 255.328 -7.27073 -4.86816 0
M  V30 1547 C 255.818 -6.5273 -2.63741 0
M  V30 1548 C 255.108 -5.1842 -2.73198 0
M  V30 1549 N 255.158 -4.38762 -1.4784 0
M  V30 1550 C 255.078 -4.81605 -0.168631 0
M  V30 1551 N 255.158 -3.85454 0.713363 0
M  V30 1552 C 255.298 -2.6994 -0.0566958 0
M  V30 1553 C 255.428 -1.34815 0.338502 0
M  V30 1554 N 255.548 -0.496304 -0.77465 0
M  V30 1555 C 255.548 -0.908403 -2.09122 0
M  V30 1556 N 255.678 0.0517805 -3.00955 0
M  V30 1557 N 255.418 -2.17875 -2.46519 0
M  V30 1558 C 255.298 -3.01988 -1.4033 0
M  V30 1559 H 252.319 -8.36803 -2.32493 0
M  V30 1560 H 252.049 -6.70197 -1.71129 0
M  V30 1561 H 252.916 -7.03551 -4.13168 0
M  V30 1562 P 256.878 -7.20834 -5.23717 0
M  V30 1563 O 257.098 -7.79853 -6.57286 0
M  V30 1564 O 257.668 -7.79239 -4.12957 0
M  V30 1565 O 257.128 -5.63315 -5.29344 0
M  V30 1566 C 256.188 -4.80255 -6.01876 0
M  V30 1567 C 256.918 -3.64202 -6.65911 0
M  V30 1568 O 257.128 -2.60694 -5.64732 0
M  V30 1569 C 258.318 -3.93473 -7.1943 0
M  V30 1570 O 258.708 -3.02071 -8.21205 0
M  V30 1571 C 259.198 -3.73047 -5.97036 0
M  V30 1572 C 258.488 -2.58828 -5.25741 0
M  V30 1573 N 258.538 -2.68068 -3.77503 0
M  V30 1574 H 255.699 -5.40332 -6.79951 0
M  V30 1575 H 255.429 -4.41613 -5.32378 0
M  V30 1576 H 256.296 -3.26331 -7.47797 0
M  V30 1577 P 260.258 -2.75334 -8.47391 0
M  V30 1578 O 260.478 -2.44571 -9.90142 0
M  V30 1579 O 261.048 -3.87688 -7.92115 0
M  V30 1580 O 260.508 -1.4459 -7.59357 0
M  V30 1581 C 259.568 -0.347608 -7.69215 0
M  V30 1582 C 260.298 0.96767 -7.52806 0
M  V30 1583 O 260.508 1.21036 -6.1011 0
M  V30 1584 C 261.698 1.04544 -8.13308 0
M  V30 1585 O 262.088 2.38311 -8.41922 0
M  V30 1586 C 262.578 0.491279 -7.02284 0
M  V30 1587 C 261.868 0.996264 -5.77469 0
M  V30 1588 N 261.918 0.0501916 -4.62973 0
M  V30 1589 H 259.079 -0.374722 -8.67691 0
M  V30 1590 H 258.809 -0.443485 -6.90277 0
M  V30 1591 H 259.676 1.75537 -7.96793 0
M  V30 1592 P 263.638 2.75334 -8.47391 0
M  V30 1593 O 263.858 3.84204 -9.44982 0
M  V30 1594 O 264.428 1.51982 -8.68909 0
M  V30 1595 O 263.888 3.29363 -6.99321 0
M  V30 1596 C 262.948 4.24066 -6.42823 0
M  V30 1597 C 263.678 5.20775 -5.52155 0
M  V30 1598 O 263.888 4.56607 -4.22514 0
M  V30 1599 C 265.078 5.62697 -5.96604 0
M  V30 1600 O 265.468 6.87667 -5.41053 0
M  V30 1601 C 265.958 4.52537 -5.39283 0
M  V30 1602 C 265.248 4.20027 -4.08623 0
M  V30 1603 N 265.298 2.76189 -3.71603 0
M  V30 1604 C 265.218 1.66944 -4.54297 0
M  V30 1605 N 265.288 0.536169 -3.91344 0
M  V30 1606 C 265.438 0.901569 -2.58849 0
M  V30 1607 C 265.568 0.146599 -1.40236 0
M  V30 1608 N 265.578 -1.18234 -1.37046 0
M  V30 1609 N 265.688 0.822941 -0.249738 0
M  V30 1610 C 265.678 2.15179 -0.280525 0
M  V30 1611 N 265.558 2.96414 -1.30822 0
M  V30 1612 C 265.438 2.25804 -2.44748 0
M  V30 1613 H 262.46 4.79756 -7.24086 0
M  V30 1614 H 262.188 3.69963 -5.84682 0
M  V30 1615 H 263.056 6.10431 -5.41508 0
M  V30 1616 H 265.711 4.78816 -3.28024 0
M  V30 1617 H 265.991 3.64957 -6.05871 0
M  V30 1618 H 266.982 4.88748 -5.21323 0
M  V30 1619 H 265.148 5.66789 -7.0643 0
M  V30 1620 H 265.107 1.74684 -5.62396 0
M  V30 1621 H 265.488 -1.71949 -2.24394 0
M  V30 1622 H 265.677 -1.67511 -0.470742 0
M  V30 1623 H 265.785 2.63704 0.6828 0
M  V30 1624 P 267.018 7.20834 -5.23717 0
M  V30 1625 O 267.238 8.66274 -5.38678 0
M  V30 1626 O 267.808 6.33687 -6.13629 0
M  V30 1627 O 267.268 6.7751 -3.72168 0
M  V30 1628 C 266.328 7.20919 -2.70795 0
M  V30 1629 C 267.058 7.45864 -1.40599 0
M  V30 1630 O 267.268 6.17751 -0.734343 0
M  V30 1631 C 268.458 8.05906 -1.51917 0
M  V30 1632 O 268.848 8.74358 -0.335205 0
M  V30 1633 C 269.338 6.83093 -1.70294 0
M  V30 1634 C 268.628 5.79992 -0.836974 0
M  V30 1635 N 268.678 4.41864 -1.38293 0
M  V30 1636 C 268.598 4.02089 -2.69407 0
M  V30 1637 N 268.668 2.73403 -2.85089 0
M  V30 1638 C 268.818 2.25086 -1.5642 0
M  V30 1639 C 268.948 0.942887 -1.04836 0
M  V30 1640 N 268.958 -0.150999 -1.80369 0
M  V30 1641 N 269.068 0.812565 0.28167 0
M  V30 1642 C 269.058 1.90572 1.03784 0
M  V30 1643 N 268.938 3.167 0.683905 0
M  V30 1644 C 268.818 3.26538 -0.652815 0
M  V30 1645 H 265.84 8.13738 -3.03804 0
M  V30 1646 H 265.568 6.42974 -2.55559 0
M  V30 1647 H 266.436 8.12139 -0.792866 0
M  V30 1648 H 269.091 5.80178 0.160643 0
M  V30 1649 H 269.371 6.51379 -2.75643 0
M  V30 1650 H 270.362 7.01832 -1.3448 0
M  V30 1651 H 268.528 8.73771 -2.38364 0
M  V30 1652 H 268.487 4.7189 -3.52311 0
M  V30 1653 H 268.868 -0.0721434 -2.82608 0
M  V30 1654 H 269.057 -1.0785 -1.36544 0
M  V30 1655 H 269.165 1.73207 2.10241 0
M  V30 1656 P 270.398 8.91 8.68872e-13 0
M  V30 1657 O 270.618 10.1746 0.733838 0
M  V30 1658 O 271.188 8.73346 -1.23964 0
M  V30 1659 O 270.648 7.66872 0.971405 0
M  V30 1660 C 269.708 7.42405 2.04668 0
M  V30 1661 C 270.438 6.86059 3.24661 0
M  V30 1662 O 270.648 5.42934 3.03695 0
M  V30 1663 C 271.838 7.41287 3.50796 0
M  V30 1664 O 272.228 7.27073 4.86816 0
M  V30 1665 C 272.718 6.5273 2.63741 0
M  V30 1666 C 272.008 5.1842 2.73198 0
M  V30 1667 N 272.058 4.38762 1.4784 0
M  V30 1668 C 271.978 4.83651 0.183876 0
M  V30 1669 N 272.048 3.88759 -0.699393 0
M  V30 1670 C 272.198 2.7404 0.0575568 0
M  V30 1671 C 272.328 1.37902 -0.293928 0
M  V30 1672 N 272.338 0.938021 -1.54797 0
M  V30 1673 N 272.448 0.491817 0.70549 0
M  V30 1674 C 272.438 0.931735 1.95979 0
M  V30 1675 N 272.318 2.16017 2.41481 0
M  V30 1676 C 272.198 3.02547 1.39121 0
M  V30 1677 H 269.22 8.36899 2.3252 0
M  V30 1678 H 268.948 6.70391 1.71179 0
M  V30 1679 H 269.816 7.03638 4.13219 0
M  V30 1680 H 272.471 4.59931 3.54016 0
M  V30 1681 H 272.751 6.88995 1.59871 0
M  V30 1682 H 273.742 6.4684 3.0373 0
M  V30 1683 H 271.908 8.47002 3.20749 0
M  V30 1684 H 271.867 5.8885 -0.0765548 0
M  V30 1685 H 272.248 1.60276 -2.32875 0
M  V30 1686 H 272.437 -0.0699355 -1.73859 0
M  V30 1687 H 272.545 0.165507 2.71897 0
M  V30 1688 P 273.778 7.20834 5.23717 0
M  V30 1689 O 273.998 7.79853 6.57286 0
M  V30 1690 O 274.568 7.79239 4.12957 0
M  V30 1691 O 274.028 5.63315 5.29344 0
M  V30 1692 C 273.088 4.80255 6.01876 0
M  V30 1693 C 273.818 3.64202 6.65911 0
M  V30 1694 O 274.028 2.60694 5.64732 0
M  V30 1695 C 275.218 3.93473 7.1943 0
M  V30 1696 O 275.608 3.02071 8.21205 0
M  V30 1697 C 276.098 3.73047 5.97036 0
M  V30 1698 C 275.388 2.58828 5.25741 0
M  V30 1699 N 275.438 2.68068 3.77503 0
M  V30 1700 H 272.599 5.40332 6.79951 0
M  V30 1701 H 272.329 4.41613 5.32378 0
M  V30 1702 H 273.196 3.26331 7.47797 0
M  V30 1703 P 277.158 2.75334 8.47391 0
M  V30 1704 O 277.378 2.44571 9.90142 0
M  V30 1705 O 277.948 3.87688 7.92115 0
M  V30 1706 O 277.408 1.4459 7.59357 0
M  V30 1707 C 276.468 0.347608 7.69215 0
M  V30 1708 C 277.198 -0.96767 7.52806 0
M  V30 1709 O 277.408 -1.21036 6.1011 0
M  V30 1710 C 278.598 -1.04544 8.13308 0
M  V30 1711 O 278.988 -2.38311 8.41922 0
M  V30 1712 C 279.478 -0.491279 7.02284 0
M  V30 1713 C 278.768 -0.996264 5.77469 0
M  V30 1714 N 278.818 -0.0501916 4.62973 0
M  V30 1715 H 275.979 0.374722 8.67691 0
M  V30 1716 H 275.709 0.443485 6.90277 0
M  V30 1717 H 276.576 -1.75537 7.96793 0
M  V30 1718 P 280.538 -2.75334 8.47391 0
M  V30 1719 O 280.758 -3.84128 9.44797 0
M  V30 1720 O 281.328 -1.51947 8.68712 0
M  V30 1721 O 280.788 -3.29363 6.99321 0
M  V30 1722 C 279.848 -4.24011 6.4274 0
M  V30 1723 C 280.578 -5.20775 5.52155 0
M  V30 1724 O 280.788 -4.56534 4.22446 0
M  V30 1725 C 281.978 -5.62629 5.96531 0
M  V30 1726 O 282.368 -6.87667 5.41053 0
M  V30 1727 C 282.858 -4.52537 5.39283 0
M  V30 1728 C 282.148 -4.20027 4.08623 0
M  V30 1729 N 282.198 -2.76189 3.71603 0
M  V30 1730 C 282.118 -1.64862 4.52822 0
M  V30 1731 N 282.198 -0.512671 3.88633 0
M  V30 1732 C 282.338 -0.888083 2.54977 0
M  V30 1733 C 282.468 -0.094668 1.38677 0
M  V30 1734 N 282.588 -0.890102 0.232633 0
M  V30 1735 C 282.588 -2.26958 0.21772 0
M  V30 1736 N 282.718 -2.84626 -0.97925 0
M  V30 1737 N 282.458 -3.0178 1.31033 0
M  V30 1738 C 282.338 -2.26781 2.43843 0
M  V30 1739 H 279.359 -4.797 7.24003 0
M  V30 1740 H 279.089 -3.69856 5.84513 0
M  V30 1741 H 279.956 -6.10356 5.41441 0
M  V30 1742 P 283.918 -7.20834 5.23717 0
M  V30 1743 O 284.138 -8.66104 5.38572 0
M  V30 1744 O 284.708 -6.33544 6.1349 0
M  V30 1745 O 284.168 -6.7751 3.72168 0
M  V30 1746 C 283.228 -7.20825 2.7076 0
M  V30 1747 C 283.958 -7.45864 1.40599 0
M  V30 1748 O 284.168 -6.17651 0.734225 0
M  V30 1749 C 285.358 -8.05808 1.51899 0
M  V30 1750 O 285.748 -8.74358 0.335205 0
M  V30 1751 C 286.238 -6.83093 1.70294 0
M  V30 1752 C 285.528 -5.79992 0.836974 0
M  V30 1753 N 285.578 -4.41864 1.38293 0
M  V30 1754 H 282.739 -8.13644 3.0377 0
M  V30 1755 H 282.469 -6.42788 2.55485 0
M  V30 1756 H 283.336 -8.12039 0.792769 0
M  V30 1757 P 287.298 -8.91 -1.02605e-12 0
M  V30 1758 O 287.518 -10.1746 -0.733838 0
M  V30 1759 O 288.088 -8.73346 1.23964 0
M  V30 1760 O 287.548 -7.66872 -0.971405 0
M  V30 1761 C 286.608 -7.42405 -2.04668 0
M  V30 1762 C 287.338 -6.86059 -3.24661 0
M  V30 1763 O 287.548 -5.42934 -3.03695 0
M  V30 1764 C 288.738 -7.41287 -3.50796 0
M  V30 1765 O 289.128 -7.27073 -4.86816 0
M  V30 1766 C 289.618 -6.5273 -2.63741 0
M  V30 1767 C 288.908 -5.1842 -2.73198 0
M  V30 1768 N 288.958 -4.38762 -1.4784 0
M  V30 1769 C 288.878 -4.83651 -0.183876 0
M  V30 1770 N 288.948 -3.88759 0.699393 0
M  V30 1771 C 289.098 -2.7404 -0.0575568 0
M  V30 1772 C 289.228 -1.37902 0.293928 0
M  V30 1773 N 289.238 -0.938021 1.54797 0
M  V30 1774 N 289.348 -0.491817 -0.70549 0
M  V30 1775 C 289.338 -0.931735 -1.95979 0
M  V30 1776 N 289.218 -2.16017 -2.41481 0
M  V30 1777 C 289.098 -3.02547 -1.39121 0
M  V30 1778 H 286.12 -8.36899 -2.3252 0
M  V30 1779 H 285.848 -6.70391 -1.71179 0
M  V30 1780 H 286.716 -7.03638 -4.13219 0
M  V30 1781 H 289.371 -4.59931 -3.54016 0
M  V30 1782 H 289.651 -6.88995 -1.59871 0
M  V30 1783 H 290.642 -6.4684 -3.0373 0
M  V30 1784 H 288.808 -8.47002 -3.20749 0
M  V30 1785 H 288.767 -5.8885 0.0765548 0
M  V30 1786 H 289.148 -1.60276 2.32875 0
M  V30 1787 H 289.337 0.0699355 1.73859 0
M  V30 1788 H 289.445 -0.165507 -2.71897 0
M  V30 1789 P 290.678 -7.20834 -5.23717 0
M  V30 1790 O 290.898 -7.80006 -6.57415 0
M  V30 1791 O 291.468 -7.79416 -4.13051 0
M  V30 1792 O 290.928 -5.63315 -5.29344 0
M  V30 1793 C 289.988 -4.80318 -6.01954 0
M  V30 1794 C 290.718 -3.64202 -6.65911 0
M  V30 1795 O 290.928 -2.60736 -5.64823 0
M  V30 1796 C 292.118 -3.93521 -7.19518 0
M  V30 1797 O 292.508 -3.02071 -8.21205 0
M  V30 1798 C 292.998 -3.73047 -5.97036 0
M  V30 1799 C 292.288 -2.58828 -5.25741 0
M  V30 1800 N 292.338 -2.68068 -3.77503 0
M  V30 1801 C 292.258 -3.80474 -2.99159 0
M  V30 1802 N 292.328 -3.55622 -1.71925 0
M  V30 1803 C 292.478 -2.1832 -1.65733 0
M  V30 1804 C 292.608 -1.28842 -0.572777 0
M  V30 1805 N 292.618 -1.66875 0.70098 0
M  V30 1806 N 292.728 0.016788 -0.859836 0
M  V30 1807 C 292.718 0.398145 -2.13316 0
M  V30 1808 N 292.598 -0.328224 -3.22333 0
M  V30 1809 C 292.478 -1.62992 -2.90383 0
M  V30 1810 H 289.5 -5.40394 -6.8003 0
M  V30 1811 H 289.228 -4.41741 -5.32532 0
M  V30 1812 H 290.096 -3.26371 -7.47889 0
M  V30 1813 H 292.751 -1.64007 -5.56746 0
M  V30 1814 H 293.031 -4.63439 -5.3432 0
M  V30 1815 H 294.022 -3.44776 -6.25925 0
M  V30 1816 H 292.188 -4.96707 -7.57347 0
M  V30 1817 H 292.147 -4.8089 -3.39924 0
M  V30 1818 H 292.528 -2.66547 0.941919 0
M  V30 1819 H 292.717 -0.965341 1.44766 0
M  V30 1820 H 292.825 1.46427 -2.29697 0
M  V30 1821 P 294.058 -2.75334 -8.47391 0
M  V30 1822 O 294.278 -2.44571 -9.90142 0
M  V30 1823 O 294.848 -3.87688 -7.92115 0
M  V30 1824 O 294.308 -1.4459 -7.59357 0
M  V30 1825 C 293.368 -0.347608 -7.69215 0
M  V30 1826 C 294.098 0.96767 -7.52806 0
M  V30 1827 O 294.308 1.21036 -6.1011 0
M  V30 1828 C 295.498 1.04544 -8.13308 0
M  V30 1829 O 295.888 2.38311 -8.41922 0
M  V30 1830 C 296.378 0.491279 -7.02284 0
M  V30 1831 C 295.668 0.996264 -5.77469 0
M  V30 1832 N 295.718 0.0501916 -4.62973 0
M  V30 1833 C 295.638 -1.32786 -4.63244 0
M  V30 1834 N 295.718 -1.86957 -3.44545 0
M  V30 1835 C 295.858 -0.780241 -2.58481 0
M  V30 1836 C 295.988 -0.738536 -1.17757 0
M  V30 1837 N 296.108 0.58337 -0.711393 0
M  V30 1838 C 296.108 1.70816 -1.51017 0
M  V30 1839 N 296.238 2.87826 -0.880757 0
M  V30 1840 N 295.978 1.67126 -2.8339 0
M  V30 1841 C 295.858 0.401421 -3.30572 0
M  V30 1842 H 292.879 -0.374722 -8.67691 0
M  V30 1843 H 292.609 -0.443485 -6.90277 0
M  V30 1844 H 293.476 1.75537 -7.96793 0
M  V30 1845 P 297.438 2.75334 -8.47391 0
M  V30 1846 O 297.658 3.84128 -9.44797 0
M  V30 1847 O 298.228 1.51947 -8.68712 0
M  V30 1848 O 297.688 3.29363 -6.99321 0
M  V30 1849 C 296.748 4.24011 -6.4274 0
M  V30 1850 C 297.478 5.20775 -5.52155 0
M  V30 1851 O 297.688 4.56534 -4.22446 0
M  V30 1852 C 298.878 5.62629 -5.96531 0
M  V30 1853 O 299.268 6.87667 -5.41053 0
M  V30 1854 C 299.758 4.52537 -5.39283 0
M  V30 1855 C 299.048 4.20027 -4.08623 0
M  V30 1856 N 299.098 2.76189 -3.71603 0
M  V30 1857 H 296.259 4.797 -7.24003 0
M  V30 1858 H 295.989 3.69856 -5.84513 0
M  V30 1859 H 296.856 6.10356 -5.41441 0
M  V30 1860 P 300.818 7.20834 -5.23717 0
M  V30 1861 O 301.038 8.66104 -5.38572 0
M  V30 1862 O 301.608 6.33544 -6.1349 0
M  V30 1863 O 301.068 6.7751 -3.72168 0
M  V30 1864 C 300.128 7.20825 -2.7076 0
M  V30 1865 C 300.858 7.45864 -1.40599 0
M  V30 1866 O 301.068 6.17651 -0.734225 0
M  V30 1867 C 302.258 8.05808 -1.51899 0
M  V30 1868 O 302.648 8.74358 -0.335205 0
M  V30 1869 C 303.138 6.83093 -1.70294 0
M  V30 1870 C 302.428 5.79992 -0.836974 0
M  V30 1871 N 302.478 4.41864 -1.38293 0
M  V30 1872 H 299.639 8.13644 -3.0377 0
M  V30 1873 H 299.369 6.42788 -2.55485 0
M  V30 1874 H 300.236 8.12039 -0.792769 0
M  V30 1875 P 304.198 8.91 1.18324e-12 0
M  V30 1876 O 304.418 10.1726 0.733694 0
M  V30 1877 O 304.988 8.73148 -1.23936 0
M  V30 1878 O 304.448 7.66872 0.971405 0
M  V30 1879 C 303.508 7.42309 2.04641 0
M  V30 1880 C 304.238 6.86059 3.24661 0
M  V30 1881 O 304.448 5.42847 3.03646 0
M  V30 1882 C 305.638 7.41196 3.50753 0
M  V30 1883 O 306.028 7.27073 4.86816 0
M  V30 1884 C 306.518 6.5273 2.63741 0
M  V30 1885 C 305.808 5.1842 2.73198 0
M  V30 1886 N 305.858 4.38762 1.4784 0
M  V30 1887 H 303.019 8.36803 2.32493 0
M  V30 1888 H 302.749 6.70197 1.71129 0
M  V30 1889 H 303.616 7.03551 4.13168 0
M  V30 1890 P 307.578 7.20834 5.23717 0
M  V30 1891 O 307.798 7.79853 6.57286 0
M  V30 1892 O 308.368 7.79239 4.12957 0
M  V30 1893 O 307.828 5.63315 5.29344 0
M  V30 1894 C 306.888 4.80255 6.01876 0
M  V30 1895 C 307.618 3.64202 6.65911 0
M  V30 1896 O 307.828 2.60694 5.64732 0
M  V30 1897 C 309.018 3.93473 7.1943 0
M  V30 1898 O 309.408 3.02071 8.21205 0
M  V30 1899 C 309.898 3.73047 5.97036 0
M  V30 1900 C 309.188 2.58828 5.25741 0
M  V30 1901 N 309.238 2.68068 3.77503 0
M  V30 1902 H 306.399 5.40332 6.79951 0
M  V30 1903 H 306.129 4.41613 5.32378 0
M  V30 1904 H 306.996 3.26331 7.47797 0
M  V30 1905 P 310.958 2.75334 8.47391 0
M  V30 1906 O 311.178 2.44571 9.90142 0
M  V30 1907 O 311.748 3.87688 7.92115 0
M  V30 1908 O 311.208 1.4459 7.59357 0
M  V30 1909 C 310.268 0.347608 7.69215 0
M  V30 1910 C 310.998 -0.96767 7.52806 0
M  V30 1911 O 311.208 -1.21036 6.1011 0
M  V30 1912 C 312.398 -1.04544 8.13308 0
M  V30 1913 O 312.788 -2.38311 8.41922 0
M  V30 1914 C 313.278 -0.491279 7.02284 0
M  V30 1915 C 312.568 -0.996264 5.77469 0
M  V30 1916 N 312.618 -0.0501916 4.62973 0
M  V30 1917 C 312.538 1.32786 4.63244 0
M  V30 1918 N 312.618 1.86957 3.44545 0
M  V30 1919 C 312.758 0.780241 2.58481 0
M  V30 1920 C 312.888 0.738536 1.17757 0
M  V30 1921 O 312.908 1.66794 0.372349 0
M  V30 1922 N 313.008 -0.58337 0.711393 0
M  V30 1923 C 313.008 -1.70816 1.51017 0
M  V30 1924 N 313.138 -2.87826 0.880757 0
M  V30 1925 N 312.878 -1.67126 2.8339 0
M  V30 1926 C 312.758 -0.401421 3.30572 0
M  V30 1927 H 309.779 0.374722 8.67691 0
M  V30 1928 H 309.509 0.443485 6.90277 0
M  V30 1929 H 310.376 -1.75537 7.96793 0
M  V30 1930 H 313.031 -1.95076 5.46529 0
M  V30 1931 H 313.31 0.608565 7.04577 0
M  V30 1932 H 314.302 -0.889672 7.08939 0
M  V30 1933 H 312.468 -0.43308 9.04564 0
M  V30 1934 H 312.419 1.91249 5.54442 0
M  V30 1935 H 313.101 -0.718054 -0.275244 0
M  V30 1936 H 313.138 -3.75721 1.41832 0
M  V30 1937 H 313.239 -2.90436 -0.145468 0
M  V30 1938 P 314.338 -2.75334 8.47391 0
M  V30 1939 O 314.558 -3.84128 9.44797 0
M  V30 1940 O 315.128 -1.51947 8.68712 0
M  V30 1941 O 314.588 -3.29363 6.99321 0
M  V30 1942 C 313.648 -4.24011 6.4274 0
M  V30 1943 C 314.378 -5.20775 5.52155 0
M  V30 1944 O 314.588 -4.56534 4.22446 0
M  V30 1945 C 315.778 -5.62629 5.96531 0
M  V30 1946 O 316.168 -6.87667 5.41053 0
M  V30 1947 C 316.658 -4.52537 5.39283 0
M  V30 1948 C 315.948 -4.20027 4.08623 0
M  V30 1949 N 315.998 -2.76189 3.71603 0
M  V30 1950 H 313.159 -4.797 7.24003 0
M  V30 1951 H 312.889 -3.69856 5.84513 0
M  V30 1952 H 313.756 -6.10356 5.41441 0
M  V30 1953 P 317.718 -7.20834 5.23717 0
M  V30 1954 O 317.938 -8.66104 5.38572 0
M  V30 1955 O 318.508 -6.33544 6.1349 0
M  V30 1956 O 317.968 -6.7751 3.72168 0
M  V30 1957 C 317.028 -7.20825 2.7076 0
M  V30 1958 C 317.758 -7.45864 1.40599 0
M  V30 1959 O 317.968 -6.17651 0.734225 0
M  V30 1960 C 319.158 -8.05808 1.51899 0
M  V30 1961 O 319.548 -8.74358 0.335205 0
M  V30 1962 C 320.038 -6.83093 1.70294 0
M  V30 1963 C 319.328 -5.79992 0.836974 0
M  V30 1964 N 319.378 -4.41864 1.38293 0
M  V30 1965 C 319.298 -3.99538 2.69438 0
M  V30 1966 N 319.378 -2.69909 2.84277 0
M  V30 1967 C 319.518 -2.21719 1.5408 0
M  V30 1968 C 319.648 -0.891712 1.06628 0
M  V30 1969 O 319.668 0.161298 1.70137 0
M  V30 1970 N 319.768 -0.856846 -0.334985 0
M  V30 1971 C 319.768 -1.9641 -1.15789 0
M  V30 1972 N 319.898 -1.72708 -2.46522 0
M  V30 1973 N 319.638 -3.21165 -0.713741 0
M  V30 1974 C 319.518 -3.26797 0.639748 0
M  V30 1975 H 316.539 -8.13644 3.0377 0
M  V30 1976 H 316.269 -6.42788 2.55485 0
M  V30 1977 H 317.136 -8.12039 0.792769 0
M  V30 1978 H 319.791 -5.80061 -0.166416 0
M  V30 1979 H 320.07 -6.51287 2.75604 0
M  V30 1980 H 321.062 -7.01734 1.34462 0
M  V30 1981 H 319.228 -8.73674 2.38337 0
M  V30 1982 H 319.179 -4.68207 3.53221 0
M  V30 1983 H 319.861 0.0398818 -0.767965 0
M  V30 1984 H 319.898 -2.50995 -3.13503 0
M  V30 1985 H 319.999 -0.759148 -2.80716 0
M  V30 1986 P 321.098 -8.91 -1.34042e-12 0
M  V30 1987 O 321.318 -10.1726 -0.733694 0
M  V30 1988 O 321.888 -8.73148 1.23936 0
M  V30 1989 O 321.348 -7.66872 -0.971405 0
M  V30 1990 C 320.408 -7.42309 -2.04641 0
M  V30 1991 C 321.138 -6.86059 -3.24661 0
M  V30 1992 O 321.348 -5.42847 -3.03646 0
M  V30 1993 C 322.538 -7.41196 -3.50753 0
M  V30 1994 O 322.928 -7.27073 -4.86816 0
M  V30 1995 C 323.418 -6.5273 -2.63741 0
M  V30 1996 C 322.708 -5.1842 -2.73198 0
M  V30 1997 N 322.758 -4.38762 -1.4784 0
M  V30 1998 H 319.919 -8.36803 -2.32493 0
M  V30 1999 H 319.649 -6.70197 -1.71129 0
M  V30 2000 H 320.516 -7.03551 -4.13168 0
M  V30 2001 P 324.478 -7.20834 -5.23717 0
M  V30 2002 O 324.698 -7.79853 -6.57286 0
M  V30 2003 O 325.268 -7.79239 -4.12957 0
M  V30 2004 O 324.728 -5.63315 -5.29344 0
M  V30 2005 C 323.788 -4.80255 -6.01876 0
M  V30 2006 C 324.518 -3.64202 -6.65911 0
M  V30 2007 O 324.728 -2.60694 -5.64732 0
M  V30 2008 C 325.918 -3.93473 -7.1943 0
M  V30 2009 O 326.308 -3.02071 -8.21205 0
M  V30 2010 C 326.798 -3.73047 -5.97036 0
M  V30 2011 C 326.088 -2.58828 -5.25741 0
M  V30 2012 N 326.138 -2.68068 -3.77503 0
M  V30 2013 H 323.299 -5.40332 -6.79951 0
M  V30 2014 H 323.029 -4.41613 -5.32378 0
M  V30 2015 H 323.896 -3.26331 -7.47797 0
M  V30 2016 P 327.858 -2.75334 -8.47391 0
M  V30 2017 O 328.078 -2.44619 -9.90336 0
M  V30 2018 O 328.648 -3.87776 -7.92294 0
M  V30 2019 O 328.108 -1.4459 -7.59357 0
M  V30 2020 C 327.168 -0.347653 -7.69315 0
M  V30 2021 C 327.898 0.96767 -7.52806 0
M  V30 2022 O 328.108 1.21055 -6.10208 0
M  V30 2023 C 329.298 1.04557 -8.13408 0
M  V30 2024 O 329.688 2.38311 -8.41922 0
M  V30 2025 C 330.178 0.491279 -7.02284 0
M  V30 2026 C 329.468 0.996264 -5.77469 0
M  V30 2027 N 329.518 0.0501916 -4.62973 0
M  V30 2028 H 326.68 -0.374765 -8.67791 0
M  V30 2029 H 326.408 -0.443613 -6.90476 0
M  V30 2030 H 327.276 1.75559 -7.96891 0
M  V30 2031 H 329.931 1.94563 -5.46818 0
M  V30 2032 H 330.211 -0.608651 -7.04676 0
M  V30 2033 H 331.202 0.889796 -7.09039 0
M  V30 2034 H 329.368 0.433128 -9.04664 0
M  V30 2035 P 331.238 2.75334 -8.47391 0
M  V30 2036 O 331.458 3.84128 -9.44797 0
M  V30 2037 O 332.028 1.51947 -8.68712 0
M  V30 2038 O 331.488 3.29363 -6.99321 0
M  V30 2039 C 330.548 4.24011 -6.4274 0
M  V30 2040 C 331.278 5.20775 -5.52155 0
M  V30 2041 O 331.488 4.56534 -4.22446 0
M  V30 2042 C 332.678 5.62629 -5.96531 0
M  V30 2043 O 333.068 6.87667 -5.41053 0
M  V30 2044 C 333.558 4.52537 -5.39283 0
M  V30 2045 C 332.848 4.20027 -4.08623 0
M  V30 2046 N 332.898 2.76189 -3.71603 0
M  V30 2047 H 330.059 4.797 -7.24003 0
M  V30 2048 H 329.789 3.69856 -5.84513 0
M  V30 2049 H 330.656 6.10356 -5.41441 0
M  V30 2050 P 334.618 7.20834 -5.23717 0
M  V30 2051 O 334.838 8.66104 -5.38572 0
M  V30 2052 O 335.408 6.33544 -6.1349 0
M  V30 2053 O 334.868 6.7751 -3.72168 0
M  V30 2054 C 333.928 7.20825 -2.7076 0
M  V30 2055 C 334.658 7.45864 -1.40599 0
M  V30 2056 O 334.868 6.17651 -0.734225 0
M  V30 2057 C 336.058 8.05808 -1.51899 0
M  V30 2058 O 336.448 8.74358 -0.335205 0
M  V30 2059 C 336.938 6.83093 -1.70294 0
M  V30 2060 C 336.228 5.79992 -0.836974 0
M  V30 2061 N 336.278 4.41864 -1.38293 0
M  V30 2062 H 333.439 8.13644 -3.0377 0
M  V30 2063 H 333.169 6.42788 -2.55485 0
M  V30 2064 H 334.036 8.12039 -0.792769 0
M  V30 2065 P 337.998 8.91 1.4976e-12 0
M  V30 2066 O 338.218 10.1746 0.733838 0
M  V30 2067 O 338.788 8.73346 -1.23964 0
M  V30 2068 O 338.248 7.66872 0.971405 0
M  V30 2069 C 337.308 7.42405 2.04668 0
M  V30 2070 C 338.038 6.86059 3.24661 0
M  V30 2071 O 338.248 5.42934 3.03695 0
M  V30 2072 C 339.438 7.41287 3.50796 0
M  V30 2073 O 339.828 7.27073 4.86816 0
M  V30 2074 C 340.318 6.5273 2.63741 0
M  V30 2075 C 339.608 5.1842 2.73198 0
M  V30 2076 N 339.658 4.38762 1.4784 0
M  V30 2077 H 336.82 8.36899 2.3252 0
M  V30 2078 H 336.548 6.70391 1.71179 0
M  V30 2079 H 337.416 7.03638 4.13219 0
M  V30 2080 H 340.071 4.59931 3.54016 0
M  V30 2081 H 340.351 6.88995 1.59871 0
M  V30 2082 H 341.342 6.4684 3.0373 0
M  V30 2083 H 339.508 8.47002 3.20749 0
M  V30 2084 P 341.378 7.20834 5.23717 0
M  V30 2085 O 341.598 7.79853 6.57286 0
M  V30 2086 O 342.168 7.79239 4.12957 0
M  V30 2087 O 341.628 5.63315 5.29344 0
M  V30 2088 C 340.688 4.80255 6.01876 0
M  V30 2089 C 341.418 3.64202 6.65911 0
M  V30 2090 O 341.628 2.60694 5.64732 0
M  V30 2091 C 342.818 3.93473 7.1943 0
M  V30 2092 O 343.208 3.02071 8.21205 0
M  V30 2093 C 343.698 3.73047 5.97036 0
M  V30 2094 C 342.988 2.58828 5.25741 0
M  V30 2095 N 343.038 2.68068 3.77503 0
M  V30 2096 H 340.199 5.40332 6.79951 0
M  V30 2097 H 339.929 4.41613 5.32378 0
M  V30 2098 H 340.796 3.26331 7.47797 0
M  V30 2099 P 344.758 2.75334 8.47391 0
M  V30 2100 O 344.978 2.44571 9.90142 0
M  V30 2101 O 345.548 3.87688 7.92115 0
M  V30 2102 O 345.008 1.4459 7.59357 0
M  V30 2103 C 344.068 0.347608 7.69215 0
M  V30 2104 C 344.798 -0.96767 7.52806 0
M  V30 2105 O 345.008 -1.21036 6.1011 0
M  V30 2106 C 346.198 -1.04544 8.13308 0
M  V30 2107 O 346.588 -2.38311 8.41922 0
M  V30 2108 C 347.078 -0.491279 7.02284 0
M  V30 2109 C 346.368 -0.996264 5.77469 0
M  V30 2110 N 346.418 -0.0501916 4.62973 0
M  V30 2111 H 343.579 0.374722 8.67691 0
M  V30 2112 H 343.309 0.443485 6.90277 0
M  V30 2113 H 344.176 -1.75537 7.96793 0
M  V30 2114 P 348.138 -2.75334 8.47391 0
M  V30 2115 O 348.358 -3.84128 9.44797 0
M  V30 2116 O 348.928 -1.51947 8.68712 0
M  V30 2117 O 348.388 -3.29363 6.99321 0
M  V30 2118 C 347.448 -4.24011 6.4274 0
M  V30 2119 C 348.178 -5.20775 5.52155 0
M  V30 2120 O 348.388 -4.56534 4.22446 0
M  V30 2121 C 349.578 -5.62629 5.96531 0
M  V30 2122 O 349.968 -6.87667 5.41053 0
M  V30 2123 C 350.458 -4.52537 5.39283 0
M  V30 2124 C 349.748 -4.20027 4.08623 0
M  V30 2125 N 349.798 -2.76189 3.71603 0
M  V30 2126 C 349.718 -1.64862 4.52822 0
M  V30 2127 N 349.798 -0.512671 3.88633 0
M  V30 2128 C 349.938 -0.888083 2.54977 0
M  V30 2129 C 350.068 -0.094668 1.38677 0
M  V30 2130 O 350.088 1.13053 1.28163 0
M  V30 2131 N 350.188 -0.890102 0.232633 0
M  V30 2132 C 350.188 -2.26958 0.21772 0
M  V30 2133 N 350.318 -2.84626 -0.97925 0
M  V30 2134 N 350.058 -3.0178 1.31033 0
M  V30 2135 C 349.938 -2.26781 2.43843 0
M  V30 2136 H 346.959 -4.797 7.24003 0
M  V30 2137 H 346.689 -3.69856 5.84513 0
M  V30 2138 H 347.556 -6.10356 5.41441 0
M  V30 2139 H 350.211 -4.79061 3.27488 0
M  V30 2140 H 350.49 -3.64906 6.05785 0
M  V30 2141 H 351.482 -4.8868 5.2125 0
M  V30 2142 H 349.648 -5.66726 7.06352 0
M  V30 2143 H 349.599 -1.71169 5.60966 0
M  V30 2144 H 350.281 -0.419134 -0.644739 0
M  V30 2145 H 350.318 -3.87332 -1.06098 0
M  V30 2146 H 350.419 -2.26417 -1.82483 0
M  V30 2147 P 351.518 -7.20834 5.23717 0
M  V30 2148 O 351.738 -8.66104 5.38572 0
M  V30 2149 O 352.308 -6.33544 6.1349 0
M  V30 2150 O 351.768 -6.7751 3.72168 0
M  V30 2151 C 350.828 -7.20825 2.7076 0
M  V30 2152 C 351.558 -7.45864 1.40599 0
M  V30 2153 O 351.768 -6.17651 0.734225 0
M  V30 2154 C 352.958 -8.05808 1.51899 0
M  V30 2155 O 353.348 -8.74358 0.335205 0
M  V30 2156 C 353.838 -6.83093 1.70294 0
M  V30 2157 C 353.128 -5.79992 0.836974 0
M  V30 2158 N 353.178 -4.41864 1.38293 0
M  V30 2159 H 350.339 -8.13644 3.0377 0
M  V30 2160 H 350.069 -6.42788 2.55485 0
M  V30 2161 H 350.936 -8.12039 0.792769 0
M  V30 2162 P 354.898 -8.91 -1.65478e-12 0
M  V30 2163 O 355.118 -10.1726 -0.733694 0
M  V30 2164 O 355.688 -8.73148 1.23936 0
M  V30 2165 O 355.148 -7.66872 -0.971405 0
M  V30 2166 C 354.208 -7.42309 -2.04641 0
M  V30 2167 C 354.938 -6.86059 -3.24661 0
M  V30 2168 O 355.148 -5.42847 -3.03646 0
M  V30 2169 C 356.338 -7.41196 -3.50753 0
M  V30 2170 O 356.728 -7.27073 -4.86816 0
M  V30 2171 C 357.218 -6.5273 -2.63741 0
M  V30 2172 C 356.508 -5.1842 -2.73198 0
M  V30 2173 N 356.558 -4.38762 -1.4784 0
M  V30 2174 H 353.719 -8.36803 -2.32493 0
M  V30 2175 H 353.449 -6.70197 -1.71129 0
M  V30 2176 H 354.316 -7.03551 -4.13168 0
M  V30 2177 P 358.278 -7.20834 -5.23717 0
M  V30 2178 O 358.498 -7.79853 -6.57286 0
M  V30 2179 O 359.068 -7.79239 -4.12957 0
M  V30 2180 O 358.528 -5.63315 -5.29344 0
M  V30 2181 C 357.588 -4.80255 -6.01876 0
M  V30 2182 C 358.318 -3.64202 -6.65911 0
M  V30 2183 O 358.528 -2.60694 -5.64732 0
M  V30 2184 C 359.718 -3.93473 -7.1943 0
M  V30 2185 O 360.108 -3.02071 -8.21205 0
M  V30 2186 C 360.598 -3.73047 -5.97036 0
M  V30 2187 C 359.888 -2.58828 -5.25741 0
M  V30 2188 N 359.938 -2.68068 -3.77503 0
M  V30 2189 C 359.858 -3.79715 -2.96723 0
M  V30 2190 N 359.938 -3.5377 -1.68852 0
M  V30 2191 C 360.078 -2.15054 -1.63254 0
M  V30 2192 C 360.208 -1.28964 -0.518571 0
M  V30 2193 O 360.228 -1.56826 0.679156 0
M  V30 2194 N 360.328 0.0538097 -0.918425 0
M  V30 2195 C 360.328 0.494275 -2.22578 0
M  V30 2196 N 360.458 1.81086 -2.40434 0
M  V30 2197 N 360.198 -0.313645 -3.27502 0
M  V30 2198 C 360.078 -1.61829 -2.91033 0
M  V30 2199 H 357.099 -5.40332 -6.79951 0
M  V30 2200 H 356.829 -4.41613 -5.32378 0
M  V30 2201 H 357.696 -3.26331 -7.47797 0
M  V30 2202 H 360.351 -1.63422 -5.56814 0
M  V30 2203 H 360.63 -4.63374 -5.34244 0
M  V30 2204 H 361.622 -3.44728 -6.25838 0
M  V30 2205 H 359.788 -4.96652 -7.57263 0
M  V30 2206 H 359.739 -4.80617 -3.3614 0
M  V30 2207 H 360.421 0.742702 -0.199384 0
M  V30 2208 H 360.458 2.20598 -3.35588 0
M  V30 2209 H 360.559 2.43518 -1.58945 0
M  V30 2210 P 361.658 -2.75334 -8.47391 0
M  V30 2211 O 361.878 -2.44571 -9.90142 0
M  V30 2212 O 362.448 -3.87688 -7.92115 0
M  V30 2213 O 361.908 -1.4459 -7.59357 0
M  V30 2214 C 360.968 -0.347608 -7.69215 0
M  V30 2215 C 361.698 0.96767 -7.52806 0
M  V30 2216 O 361.908 1.21036 -6.1011 0
M  V30 2217 C 363.098 1.04544 -8.13308 0
M  V30 2218 O 363.488 2.38311 -8.41922 0
M  V30 2219 C 363.978 0.491279 -7.02284 0
M  V30 2220 C 363.268 0.996264 -5.77469 0
M  V30 2221 N 363.318 0.0501916 -4.62973 0
M  V30 2222 H 360.479 -0.374722 -8.67691 0
M  V30 2223 H 360.209 -0.443485 -6.90277 0
M  V30 2224 H 361.076 1.75537 -7.96793 0
M  V30 2225 P 365.038 2.75334 -8.47391 0
M  V30 2226 O 365.258 3.84128 -9.44797 0
M  V30 2227 O 365.828 1.51947 -8.68712 0
M  V30 2228 O 365.288 3.29363 -6.99321 0
M  V30 2229 C 364.348 4.24011 -6.4274 0
M  V30 2230 C 365.078 5.20775 -5.52155 0
M  V30 2231 O 365.288 4.56534 -4.22446 0
M  V30 2232 C 366.478 5.62629 -5.96531 0
M  V30 2233 O 366.868 6.87667 -5.41053 0
M  V30 2234 C 367.358 4.52537 -5.39283 0
M  V30 2235 C 366.648 4.20027 -4.08623 0
M  V30 2236 N 366.698 2.76189 -3.71603 0
M  V30 2237 H 363.859 4.797 -7.24003 0
M  V30 2238 H 363.589 3.69856 -5.84513 0
M  V30 2239 H 364.456 6.10356 -5.41441 0
M  V30 2240 P 368.418 7.20834 -5.23717 0
M  V30 2241 O 368.638 8.66189 -5.38625 0
M  V30 2242 O 369.208 6.33615 -6.1356 0
M  V30 2243 O 368.668 6.7751 -3.72168 0
M  V30 2244 C 367.728 7.20732 -2.70725 0
M  V30 2245 C 368.458 7.45864 -1.40599 0
M  V30 2246 O 368.668 6.17651 -0.734225 0
M  V30 2247 C 369.858 8.05808 -1.51899 0
M  V30 2248 O 370.248 8.74358 -0.335205 0
M  V30 2249 C 370.738 6.83093 -1.70294 0
M  V30 2250 C 370.028 5.79992 -0.836974 0
M  V30 2251 N 370.078 4.41769 -1.38263 0
M  V30 2252 C 370.228 3.38591 -0.481702 0
M  V30 2253 O 370.318 3.56839 0.718452 0
M  V30 2254 N 370.268 2.1206 -1.03569 0
M  V30 2255 C 370.178 1.80696 -2.36966 0
M  V30 2256 C 370.028 2.94845 -3.23898 0
M  V30 2257 C 369.978 4.19803 -2.73435 0
M  V30 2258 H 367.238 8.13644 -3.0377 0
M  V30 2259 H 366.969 6.42695 -2.55448 0
M  V30 2260 H 367.836 8.12039 -0.792769 0
M  V30 2261 H 370.491 5.79978 0.160587 0
M  V30 2262 H 370.77 6.51379 -2.75643 0
M  V30 2263 H 371.762 7.01734 -1.34462 0
M  V30 2264 H 369.928 8.73674 -2.38337 0
M  V30 2265 H 369.857 5.04492 -3.4095 0
M  V30 2266 P 371.798 8.91 1.81197e-12 0
M  V30 2267 O 372.018 10.1726 0.733694 0
M  V30 2268 O 372.588 8.73148 -1.23936 0
M  V30 2269 O 372.048 7.66872 0.971405 0
M  V30 2270 C 371.108 7.42309 2.04641 0
M  V30 2271 C 371.838 6.86059 3.24661 0
M  V30 2272 O 372.048 5.42847 3.03646 0
M  V30 2273 C 373.238 7.41196 3.50753 0
M  V30 2274 O 373.628 7.27073 4.86816 0
M  V30 2275 C 374.118 6.5273 2.63741 0
M  V30 2276 C 373.408 5.1842 2.73198 0
M  V30 2277 N 373.458 4.38762 1.4784 0
M  V30 2278 H 370.619 8.36803 2.32493 0
M  V30 2279 H 370.349 6.70197 1.71129 0
M  V30 2280 H 371.216 7.03551 4.13168 0
M  V30 2281 P 375.178 7.20834 5.23717 0
M  V30 2282 O 375.398 7.79853 6.57286 0
M  V30 2283 O 375.968 7.79239 4.12957 0
M  V30 2284 O 375.428 5.63315 5.29344 0
M  V30 2285 C 374.488 4.80255 6.01876 0
M  V30 2286 C 375.218 3.64202 6.65911 0
M  V30 2287 O 375.428 2.60694 5.64732 0
M  V30 2288 C 376.618 3.93473 7.1943 0
M  V30 2289 O 377.008 3.02071 8.21205 0
M  V30 2290 C 377.498 3.73047 5.97036 0
M  V30 2291 C 376.788 2.58828 5.25741 0
M  V30 2292 N 376.838 2.68068 3.77503 0
M  V30 2293 H 373.999 5.40332 6.79951 0
M  V30 2294 H 373.729 4.41613 5.32378 0
M  V30 2295 H 374.596 3.26331 7.47797 0
M  V30 2296 P 378.558 2.75334 8.47391 0
M  V30 2297 O 378.778 2.44571 9.90142 0
M  V30 2298 O 379.348 3.87688 7.92115 0
M  V30 2299 O 378.808 1.4459 7.59357 0
M  V30 2300 C 377.868 0.347608 7.69215 0
M  V30 2301 C 378.598 -0.96767 7.52806 0
M  V30 2302 O 378.808 -1.21036 6.1011 0
M  V30 2303 C 379.998 -1.04544 8.13308 0
M  V30 2304 O 380.388 -2.38311 8.41922 0
M  V30 2305 C 380.878 -0.491279 7.02284 0
M  V30 2306 C 380.168 -0.996264 5.77469 0
M  V30 2307 N 380.218 -0.0501916 4.62973 0
M  V30 2308 H 377.379 0.374722 8.67691 0
M  V30 2309 H 377.109 0.443485 6.90277 0
M  V30 2310 H 377.976 -1.75537 7.96793 0
M  V30 2311 P 381.938 -2.75334 8.47391 0
M  V30 2312 O 382.158 -3.84128 9.44797 0
M  V30 2313 O 382.728 -1.51947 8.68712 0
M  V30 2314 O 382.188 -3.29363 6.99321 0
M  V30 2315 C 381.248 -4.24011 6.4274 0
M  V30 2316 C 381.978 -5.20775 5.52155 0
M  V30 2317 O 382.188 -4.56534 4.22446 0
M  V30 2318 C 383.378 -5.62629 5.96531 0
M  V30 2319 O 383.768 -6.87667 5.41053 0
M  V30 2320 C 384.258 -4.52537 5.39283 0
M  V30 2321 C 383.548 -4.20027 4.08623 0
M  V30 2322 N 383.598 -2.76189 3.71603 0
M  V30 2323 H 380.759 -4.797 7.24003 0
M  V30 2324 H 380.489 -3.69856 5.84513 0
M  V30 2325 H 381.356 -6.10356 5.41441 0
M  V30 2326 P 385.318 -7.20834 5.23717 0
M  V30 2327 O 385.538 -8.66274 5.38678 0
M  V30 2328 O 386.108 -6.33687 6.13629 0
M  V30 2329 O 385.568 -6.7751 3.72168 0
M  V30 2330 C 384.628 -7.20919 2.70795 0
M  V30 2331 C 385.358 -7.45864 1.40599 0
M  V30 2332 O 385.568 -6.17751 0.734343 0
M  V30 2333 C 386.758 -8.05906 1.51917 0
M  V30 2334 O 387.148 -8.74358 0.335205 0
M  V30 2335 C 387.638 -6.83093 1.70294 0
M  V30 2336 C 386.928 -5.79992 0.836974 0
M  V30 2337 N 386.978 -4.41864 1.38293 0
M  V30 2338 H 384.14 -8.13738 3.03804 0
M  V30 2339 H 383.868 -6.42974 2.55559 0
M  V30 2340 H 384.736 -8.12139 0.792866 0
M  V30 2341 H 387.391 -5.80178 -0.160643 0
M  V30 2342 H 387.671 -6.51379 2.75643 0
M  V30 2343 H 388.662 -7.01832 1.3448 0
M  V30 2344 H 386.828 -8.73771 2.38364 0
M  V30 2345 P 388.698 -8.91 -1.96915e-12 0
M  V30 2346 O 388.918 -10.1726 -0.733694 0
M  V30 2347 O 389.488 -8.73148 1.23936 0
M  V30 2348 O 388.948 -7.66872 -0.971405 0
M  V30 2349 C 388.008 -7.42309 -2.04641 0
M  V30 2350 C 388.738 -6.86059 -3.24661 0
M  V30 2351 O 388.948 -5.42847 -3.03646 0
M  V30 2352 C 390.138 -7.41196 -3.50753 0
M  V30 2353 O 390.528 -7.27073 -4.86816 0
M  V30 2354 C 391.018 -6.5273 -2.63741 0
M  V30 2355 C 390.308 -5.1842 -2.73198 0
M  V30 2356 N 390.358 -4.38762 -1.4784 0
M  V30 2357 C 390.278 -4.81605 -0.168631 0
M  V30 2358 N 390.358 -3.85454 0.713363 0
M  V30 2359 C 390.498 -2.6994 -0.0566958 0
M  V30 2360 C 390.628 -1.34815 0.338502 0
M  V30 2361 O 390.648 -0.869548 1.47125 0
M  V30 2362 N 390.748 -0.496304 -0.77465 0
M  V30 2363 C 390.748 -0.908403 -2.09122 0
M  V30 2364 N 390.878 0.0517805 -3.00955 0
M  V30 2365 N 390.618 -2.17875 -2.46519 0
M  V30 2366 C 390.498 -3.01988 -1.4033 0
M  V30 2367 H 387.519 -8.36803 -2.32493 0
M  V30 2368 H 387.249 -6.70197 -1.71129 0
M  V30 2369 H 388.116 -7.03551 -4.13168 0
M  V30 2370 H 390.771 -4.59498 -3.54415 0
M  V30 2371 H 391.05 -6.88898 -1.59848 0
M  V30 2372 H 392.042 -6.46749 -3.03687 0
M  V30 2373 H 390.208 -8.46908 -3.20714 0
M  V30 2374 H 390.159 -5.86405 0.105564 0
M  V30 2375 H 390.841 0.483664 -0.597855 0
M  V30 2376 H 390.878 -0.187865 -4.0116 0
M  V30 2377 H 390.979 1.03585 -2.71726 0
M  V30 2378 P 392.078 -7.20834 -5.23717 0
M  V30 2379 O 392.298 -7.79853 -6.57286 0
M  V30 2380 O 392.868 -7.79239 -4.12957 0
M  V30 2381 O 392.328 -5.63315 -5.29344 0
M  V30 2382 C 391.388 -4.80255 -6.01876 0
M  V30 2383 C 392.118 -3.64202 -6.65911 0
M  V30 2384 O 392.328 -2.60694 -5.64732 0
M  V30 2385 C 393.518 -3.93473 -7.1943 0
M  V30 2386 O 393.908 -3.02071 -8.21205 0
M  V30 2387 C 394.398 -3.73047 -5.97036 0
M  V30 2388 C 393.688 -2.58828 -5.25741 0
M  V30 2389 N 393.738 -2.68068 -3.77503 0
M  V30 2390 H 390.899 -5.40332 -6.79951 0
M  V30 2391 H 390.629 -4.41613 -5.32378 0
M  V30 2392 H 391.496 -3.26331 -7.47797 0
M  V30 2393 P 395.458 -2.75334 -8.47391 0
M  V30 2394 O 395.678 -2.44571 -9.90142 0
M  V30 2395 O 396.248 -3.87688 -7.92115 0
M  V30 2396 O 395.708 -1.4459 -7.59357 0
M  V30 2397 C 394.768 -0.347608 -7.69215 0
M  V30 2398 C 395.498 0.96767 -7.52806 0
M  V30 2399 O 395.708 1.21036 -6.1011 0
M  V30 2400 C 396.898 1.04544 -8.13308 0
M  V30 2401 O 397.288 2.38311 -8.41922 0
M  V30 2402 C 397.778 0.491279 -7.02284 0
M  V30 2403 C 397.068 0.996264 -5.77469 0
M  V30 2404 N 397.118 0.0501916 -4.62973 0
M  V30 2405 H 394.279 -0.374722 -8.67691 0
M  V30 2406 H 394.009 -0.443485 -6.90277 0
M  V30 2407 H 394.876 1.75537 -7.96793 0
M  V30 2408 P 398.838 2.75334 -8.47391 0
M  V30 2409 O 399.058 3.84204 -9.44982 0
M  V30 2410 O 399.628 1.51982 -8.68909 0
M  V30 2411 O 399.088 3.29363 -6.99321 0
M  V30 2412 C 398.148 4.24066 -6.42823 0
M  V30 2413 C 398.878 5.20775 -5.52155 0
M  V30 2414 O 399.088 4.56607 -4.22514 0
M  V30 2415 C 400.278 5.62697 -5.96604 0
M  V30 2416 O 400.668 6.87667 -5.41053 0
M  V30 2417 C 401.158 4.52537 -5.39283 0
M  V30 2418 C 400.448 4.20027 -4.08623 0
M  V30 2419 N 400.498 2.76189 -3.71603 0
M  V30 2420 C 400.418 1.66944 -4.54297 0
M  V30 2421 N 400.488 0.536169 -3.91344 0
M  V30 2422 C 400.638 0.901569 -2.58849 0
M  V30 2423 C 400.768 0.146599 -1.40236 0
M  V30 2424 N 400.778 -1.18234 -1.37046 0
M  V30 2425 N 400.888 0.822941 -0.249738 0
M  V30 2426 C 400.878 2.15179 -0.280525 0
M  V30 2427 N 400.758 2.96414 -1.30822 0
M  V30 2428 C 400.638 2.25804 -2.44748 0
M  V30 2429 H 397.66 4.79756 -7.24086 0
M  V30 2430 H 397.388 3.69963 -5.84682 0
M  V30 2431 H 398.256 6.10431 -5.41508 0
M  V30 2432 H 400.911 4.78816 -3.28024 0
M  V30 2433 H 401.191 3.64957 -6.05871 0
M  V30 2434 H 402.182 4.88748 -5.21323 0
M  V30 2435 H 400.348 5.66789 -7.0643 0
M  V30 2436 H 400.307 1.74684 -5.62396 0
M  V30 2437 H 400.688 -1.71949 -2.24394 0
M  V30 2438 H 400.877 -1.67511 -0.470742 0
M  V30 2439 H 400.985 2.63704 0.6828 0
M  V30 2440 P 402.218 7.20834 -5.23717 0
M  V30 2441 O 402.438 8.66104 -5.38572 0
M  V30 2442 O 403.008 6.33544 -6.1349 0
M  V30 2443 O 402.468 6.7751 -3.72168 0
M  V30 2444 C 401.528 7.20825 -2.7076 0
M  V30 2445 C 402.258 7.45864 -1.40599 0
M  V30 2446 O 402.468 6.17651 -0.734225 0
M  V30 2447 C 403.658 8.05808 -1.51899 0
M  V30 2448 O 404.048 8.74358 -0.335205 0
M  V30 2449 C 404.538 6.83093 -1.70294 0
M  V30 2450 C 403.828 5.79992 -0.836974 0
M  V30 2451 N 403.878 4.41864 -1.38293 0
M  V30 2452 H 401.039 8.13644 -3.0377 0
M  V30 2453 H 400.769 6.42788 -2.55485 0
M  V30 2454 H 401.636 8.12039 -0.792769 0
M  V30 2455 P 405.598 8.91 2.12633e-12 0
M  V30 2456 O 405.818 10.1726 0.733694 0
M  V30 2457 O 406.388 8.73148 -1.23936 0
M  V30 2458 O 405.848 7.66872 0.971405 0
M  V30 2459 C 404.908 7.42309 2.04641 0
M  V30 2460 C 405.638 6.86059 3.24661 0
M  V30 2461 O 405.848 5.42847 3.03646 0
M  V30 2462 C 407.038 7.41196 3.50753 0
M  V30 2463 O 407.428 7.27073 4.86816 0
M  V30 2464 C 407.918 6.5273 2.63741 0
M  V30 2465 C 407.208 5.1842 2.73198 0
M  V30 2466 N 407.258 4.38762 1.4784 0
M  V30 2467 H 404.419 8.36803 2.32493 0
M  V30 2468 H 404.149 6.70197 1.71129 0
M  V30 2469 H 405.016 7.03551 4.13168 0
M  V30 2470 P 408.978 7.20834 5.23717 0
M  V30 2471 O 409.198 7.79853 6.57286 0
M  V30 2472 O 409.768 7.79239 4.12957 0
M  V30 2473 O 409.228 5.63315 5.29344 0
M  V30 2474 C 408.288 4.80255 6.01876 0
M  V30 2475 C 409.018 3.64202 6.65911 0
M  V30 2476 O 409.228 2.60694 5.64732 0
M  V30 2477 C 410.418 3.93473 7.1943 0
M  V30 2478 O 410.808 3.02071 8.21205 0
M  V30 2479 C 411.298 3.73047 5.97036 0
M  V30 2480 C 410.588 2.58828 5.25741 0
M  V30 2481 N 410.638 2.68068 3.77503 0
M  V30 2482 C 410.558 3.79715 2.96723 0
M  V30 2483 N 410.638 3.5377 1.68852 0
M  V30 2484 C 410.778 2.15054 1.63254 0
M  V30 2485 C 410.908 1.28964 0.518571 0
M  V30 2486 N 411.028 -0.0538097 0.918425 0
M  V30 2487 C 411.028 -0.494275 2.22578 0
M  V30 2488 N 411.158 -1.81086 2.40434 0
M  V30 2489 N 410.898 0.313645 3.27502 0
M  V30 2490 C 410.778 1.61829 2.91033 0
M  V30 2491 H 407.799 5.40332 6.79951 0
M  V30 2492 H 407.529 4.41613 5.32378 0
M  V30 2493 H 408.396 3.26331 7.47797 0
M  V30 2494 P 412.358 2.75334 8.47391 0
M  V30 2495 O 412.578 2.44571 9.90142 0
M  V30 2496 O 413.148 3.87688 7.92115 0
M  V30 2497 O 412.608 1.4459 7.59357 0
M  V30 2498 C 411.668 0.347608 7.69215 0
M  V30 2499 C 412.398 -0.96767 7.52806 0
M  V30 2500 O 412.608 -1.21036 6.1011 0
M  V30 2501 C 413.798 -1.04544 8.13308 0
M  V30 2502 O 414.188 -2.38311 8.41922 0
M  V30 2503 C 414.678 -0.491279 7.02284 0
M  V30 2504 C 413.968 -0.996264 5.77469 0
M  V30 2505 N 414.018 -0.0501916 4.62973 0
M  V30 2506 H 411.179 0.374722 8.67691 0
M  V30 2507 H 410.909 0.443485 6.90277 0
M  V30 2508 H 411.776 -1.75537 7.96793 0
M  V30 2509 P 415.738 -2.75334 8.47391 0
M  V30 2510 O 415.958 -3.84204 9.44982 0
M  V30 2511 O 416.528 -1.51982 8.68909 0
M  V30 2512 O 415.988 -3.29363 6.99321 0
M  V30 2513 C 415.048 -4.24066 6.42823 0
M  V30 2514 C 415.778 -5.20775 5.52155 0
M  V30 2515 O 415.988 -4.56607 4.22514 0
M  V30 2516 C 417.178 -5.62697 5.96604 0
M  V30 2517 O 417.568 -6.87667 5.41053 0
M  V30 2518 C 418.058 -4.52537 5.39283 0
M  V30 2519 C 417.348 -4.20027 4.08623 0
M  V30 2520 N 417.398 -2.76189 3.71603 0
M  V30 2521 H 414.56 -4.79756 7.24086 0
M  V30 2522 H 414.288 -3.69963 5.84682 0
M  V30 2523 H 415.156 -6.10431 5.41508 0
M  V30 2524 H 417.811 -4.78816 3.28024 0
M  V30 2525 H 418.091 -3.64957 6.05871 0
M  V30 2526 H 419.082 -4.88748 5.21323 0
M  V30 2527 H 417.248 -5.66789 7.0643 0
M  V30 2528 P 419.118 -7.20834 5.23717 0
M  V30 2529 O 419.338 -8.66189 5.38625 0
M  V30 2530 O 419.908 -6.33615 6.1356 0
M  V30 2531 O 419.368 -6.7751 3.72168 0
M  V30 2532 C 418.428 -7.20732 2.70725 0
M  V30 2533 C 419.158 -7.45864 1.40599 0
M  V30 2534 O 419.368 -6.17651 0.734225 0
M  V30 2535 C 420.558 -8.05808 1.51899 0
M  V30 2536 O 420.948 -8.74358 0.335205 0
M  V30 2537 C 421.438 -6.83093 1.70294 0
M  V30 2538 C 420.728 -5.79992 0.836974 0
M  V30 2539 N 420.778 -4.41769 1.38263 0
M  V30 2540 C 420.928 -3.38591 0.481702 0
M  V30 2541 O 421.018 -3.56839 -0.718452 0
M  V30 2542 N 420.968 -2.1206 1.03569 0
M  V30 2543 C 420.878 -1.80696 2.36966 0
M  V30 2544 C 420.728 -2.94845 3.23898 0
M  V30 2545 C 420.678 -4.19803 2.73435 0
M  V30 2546 H 417.938 -8.13644 3.0377 0
M  V30 2547 H 417.669 -6.42695 2.55448 0
M  V30 2548 H 418.536 -8.12039 0.792769 0
M  V30 2549 H 421.191 -5.79978 -0.160587 0
M  V30 2550 H 421.47 -6.51379 2.75643 0
M  V30 2551 H 422.462 -7.01734 1.34462 0
M  V30 2552 H 420.628 -8.73674 2.38337 0
M  V30 2553 H 420.557 -5.04492 3.4095 0
M  V30 2554 P 422.497 -8.91 -2.28351e-12 0
M  V30 2555 O 422.717 -10.1736 -0.733766 0
M  V30 2556 O 423.287 -8.73247 1.2395 0
M  V30 2557 O 422.747 -7.66872 -0.971405 0
M  V30 2558 C 421.807 -7.42212 -2.04614 0
M  V30 2559 C 422.537 -6.86059 -3.24661 0
M  V30 2560 O 422.747 -5.42847 -3.03646 0
M  V30 2561 C 423.937 -7.41196 -3.50753 0
M  V30 2562 O 424.327 -7.27073 -4.86816 0
M  V30 2563 C 424.817 -6.5273 -2.63741 0
M  V30 2564 C 424.107 -5.1842 -2.73198 0
M  V30 2565 N 424.157 -4.38668 -1.47808 0
M  V30 2566 C 424.307 -3.02239 -1.60048 0
M  V30 2567 O 424.397 -2.46459 -2.67869 0
M  V30 2568 N 424.347 -2.32436 -0.408571 0
M  V30 2569 C 424.257 -2.85471 0.854993 0
M  V30 2570 O 424.307 -2.12566 1.8531 0
M  V30 2571 C 424.107 -4.28918 0.887335 0
M  V30 2572 C 423.997 -4.91066 2.24619 0
M  V30 2573 C 424.057 -5.00349 -0.255399 0
M  V30 2574 H 421.317 -8.36803 -2.32493 0
M  V30 2575 H 421.048 -6.701 -1.71105 0
M  V30 2576 H 421.915 -7.03551 -4.13168 0
M  V30 2577 H 424.57 -4.59773 -3.53894 0
M  V30 2578 H 424.849 -6.88995 -1.59871 0
M  V30 2579 H 425.841 -6.46749 -3.03687 0
M  V30 2580 H 424.007 -8.46908 -3.20714 0
M  V30 2581 H 423.936 -6.08548 -0.206986 0
M  V30 2582 H 424.966 -5.34836 2.53099 0
M  V30 2583 H 423.229 -5.69638 2.2291 0
M  V30 2584 H 423.717 -4.13971 2.98044 0
M  V30 2585 H 424.453 -1.33211 -0.474216 0
M  V30 2586 P 425.877 -7.20834 -5.23717 0
M  V30 2587 O 426.097 -7.79853 -6.57286 0
M  V30 2588 O 426.667 -7.79239 -4.12957 0
M  V30 2589 O 426.127 -5.63315 -5.29344 0
M  V30 2590 C 425.187 -4.80255 -6.01876 0
M  V30 2591 C 425.917 -3.64202 -6.65911 0
M  V30 2592 O 426.127 -2.60694 -5.64732 0
M  V30 2593 C 427.317 -3.93473 -7.1943 0
M  V30 2594 O 427.707 -3.02071 -8.21205 0
M  V30 2595 C 428.197 -3.73047 -5.97036 0
M  V30 2596 C 427.487 -2.58828 -5.25741 0
M  V30 2597 N 427.537 -2.68068 -3.77503 0
M  V30 2598 H 424.698 -5.40332 -6.79951 0
M  V30 2599 H 424.428 -4.41613 -5.32378 0
M  V30 2600 H 425.295 -3.26331 -7.47797 0
M  V30 2601 P 429.257 -2.75334 -8.47391 0
M  V30 2602 O 429.477 -2.44595 -9.90239 0
M  V30 2603 O 430.047 -3.87732 -7.92204 0
M  V30 2604 O 429.507 -1.4459 -7.59357 0
M  V30 2605 C 428.567 -0.347563 -7.69115 0
M  V30 2606 C 429.297 0.96767 -7.52806 0
M  V30 2607 O 429.507 1.21036 -6.1011 0
M  V30 2608 C 430.697 1.04544 -8.13308 0
M  V30 2609 O 431.087 2.38311 -8.41922 0
M  V30 2610 C 431.577 0.491279 -7.02284 0
M  V30 2611 C 430.867 0.996264 -5.77469 0
M  V30 2612 N 430.917 0.0501808 -4.62873 0
M  V30 2613 C 431.067 0.588177 -3.36904 0
M  V30 2614 O 431.157 1.78598 -3.17173 0
M  V30 2615 N 431.107 -0.329694 -2.33686 0
M  V30 2616 C 431.017 -1.6953 -2.45079 0
M  V30 2617 C 430.867 -2.16933 -3.80505 0
M  V30 2618 C 430.817 -1.30326 -4.83752 0
M  V30 2619 H 428.077 -0.374722 -8.67691 0
M  V30 2620 H 427.808 -0.443421 -6.90177 0
M  V30 2621 H 428.675 1.75537 -7.96793 0
M  V30 2622 H 431.33 1.94496 -5.46629 0
M  V30 2623 H 431.609 -0.608651 -7.04676 0
M  V30 2624 H 432.601 0.889672 -7.08939 0
M  V30 2625 H 430.767 0.43308 -9.04564 0
M  V30 2626 H 430.696 -1.68366 -5.8516 0
M  V30 2627 P 432.637 2.75334 -8.47391 0
M  V30 2628 O 432.857 3.84128 -9.44797 0
M  V30 2629 O 433.427 1.51947 -8.68712 0
M  V30 2630 O 432.887 3.29363 -6.99321 0
M  V30 2631 C 431.947 4.24011 -6.4274 0
M  V30 2632 C 432.677 5.20775 -5.52155 0
M  V30 2633 O 432.887 4.56534 -4.22446 0
M  V30 2634 C 434.077 5.62629 -5.96531 0
M  V30 2635 O 434.467 6.87667 -5.41053 0
M  V30 2636 C 434.957 4.52537 -5.39283 0
M  V30 2637 C 434.247 4.20027 -4.08623 0
M  V30 2638 N 434.297 2.76189 -3.71603 0
M  V30 2639 H 431.458 4.797 -7.24003 0
M  V30 2640 H 431.188 3.69856 -5.84513 0
M  V30 2641 H 432.055 6.10356 -5.41441 0
M  V30 2642 P 436.017 7.20834 -5.23717 0
M  V30 2643 O 436.237 8.66104 -5.38572 0
M  V30 2644 O 436.807 6.33544 -6.1349 0
M  V30 2645 O 436.267 6.7751 -3.72168 0
M  V30 2646 C 435.327 7.20825 -2.7076 0
M  V30 2647 C 436.057 7.45864 -1.40599 0
M  V30 2648 O 436.267 6.17651 -0.734225 0
M  V30 2649 C 437.457 8.05808 -1.51899 0
M  V30 2650 O 437.847 8.74358 -0.335205 0
M  V30 2651 C 438.337 6.83093 -1.70294 0
M  V30 2652 C 437.627 5.79992 -0.836974 0
M  V30 2653 N 437.677 4.41864 -1.38293 0
M  V30 2654 H 434.838 8.13644 -3.0377 0
M  V30 2655 H 434.568 6.42788 -2.55485 0
M  V30 2656 H 435.435 8.12039 -0.792769 0
M  V30 2657 P 439.397 8.91 2.44069e-12 0
M  V30 2658 O 439.617 10.1726 0.733694 0
M  V30 2659 O 440.187 8.73148 -1.23936 0
M  V30 2660 O 439.647 7.66872 0.971405 0
M  V30 2661 C 438.707 7.42309 2.04641 0
M  V30 2662 C 439.437 6.86059 3.24661 0
M  V30 2663 O 439.647 5.42847 3.03646 0
M  V30 2664 C 440.837 7.41196 3.50753 0
M  V30 2665 O 441.227 7.27073 4.86816 0
M  V30 2666 C 441.717 6.5273 2.63741 0
M  V30 2667 C 441.007 5.1842 2.73198 0
M  V30 2668 N 441.057 4.38762 1.4784 0
M  V30 2669 H 438.218 8.36803 2.32493 0
M  V30 2670 H 437.948 6.70197 1.71129 0
M  V30 2671 H 438.815 7.03551 4.13168 0
M  V30 2672 P 442.777 7.20834 5.23717 0
M  V30 2673 O 442.997 7.80006 6.57415 0
M  V30 2674 O 443.567 7.79416 4.13051 0
M  V30 2675 O 443.027 5.63315 5.29344 0
M  V30 2676 C 442.087 4.80318 6.01954 0
M  V30 2677 C 442.817 3.64202 6.65911 0
M  V30 2678 O 443.027 2.60736 5.64823 0
M  V30 2679 C 444.217 3.93521 7.19518 0
M  V30 2680 O 444.607 3.02071 8.21205 0
M  V30 2681 C 445.097 3.73047 5.97036 0
M  V30 2682 C 444.387 2.58828 5.25741 0
M  V30 2683 N 444.437 2.68068 3.77503 0
M  V30 2684 H 441.599 5.40394 6.8003 0
M  V30 2685 H 441.327 4.41741 5.32532 0
M  V30 2686 H 442.195 3.26371 7.47889 0
M  V30 2687 H 444.85 1.64007 5.56746 0
M  V30 2688 H 445.13 4.63439 5.3432 0
M  V30 2689 H 446.121 3.44776 6.25925 0
M  V30 2690 H 444.287 4.96707 7.57347 0
M  V30 2691 P 446.157 2.75334 8.47391 0
M  V30 2692 O 446.377 2.44571 9.90142 0
M  V30 2693 O 446.947 3.87688 7.92115 0
M  V30 2694 O 446.407 1.4459 7.59357 0
M  V30 2695 C 445.467 0.347608 7.69215 0
M  V30 2696 C 446.197 -0.96767 7.52806 0
M  V30 2697 O 446.407 -1.21036 6.1011 0
M  V30 2698 C 447.597 -1.04544 8.13308 0
M  V30 2699 O 447.987 -2.38311 8.41922 0
M  V30 2700 C 448.477 -0.491279 7.02284 0
M  V30 2701 C 447.767 -0.996264 5.77469 0
M  V30 2702 N 447.817 -0.0501916 4.62973 0
M  V30 2703 H 444.978 0.374722 8.67691 0
M  V30 2704 H 444.708 0.443485 6.90277 0
M  V30 2705 H 445.575 -1.75537 7.96793 0
M  V30 2706 P 449.537 -2.75334 8.47391 0
M  V30 2707 O 449.757 -3.84128 9.44797 0
M  V30 2708 O 450.327 -1.51947 8.68712 0
M  V30 2709 O 449.787 -3.29363 6.99321 0
M  V30 2710 C 448.847 -4.24011 6.4274 0
M  V30 2711 C 449.577 -5.20775 5.52155 0
M  V30 2712 O 449.787 -4.56534 4.22446 0
M  V30 2713 C 450.977 -5.62629 5.96531 0
M  V30 2714 O 451.367 -6.87667 5.41053 0
M  V30 2715 C 451.857 -4.52537 5.39283 0
M  V30 2716 C 451.147 -4.20027 4.08623 0
M  V30 2717 N 451.197 -2.76189 3.71603 0
M  V30 2718 H 448.358 -4.797 7.24003 0
M  V30 2719 H 448.088 -3.69856 5.84513 0
M  V30 2720 H 448.955 -6.10356 5.41441 0
M  V30 2721 P 452.917 -7.20834 5.23717 0
M  V30 2722 O 453.137 -8.66104 5.38572 0
M  V30 2723 O 453.707 -6.33544 6.1349 0
M  V30 2724 O 453.167 -6.7751 3.72168 0
M  V30 2725 C 452.227 -7.20825 2.7076 0
M  V30 2726 C 452.957 -7.45864 1.40599 0
M  V30 2727 O 453.167 -6.17651 0.734225 0
M  V30 2728 C 454.357 -8.05808 1.51899 0
M  V30 2729 O 454.747 -8.74358 0.335205 0
M  V30 2730 C 455.237 -6.83093 1.70294 0
M  V30 2731 C 454.527 -5.79992 0.836974 0
M  V30 2732 N 454.577 -4.41864 1.38293 0
M  V30 2733 H 451.738 -8.13644 3.0377 0
M  V30 2734 H 451.468 -6.42788 2.55485 0
M  V30 2735 H 452.335 -8.12039 0.792769 0
M  V30 2736 P 456.297 -8.91 -2.59788e-12 0
M  V30 2737 O 456.517 -10.1736 -0.733766 0
M  V30 2738 O 457.087 -8.73247 1.2395 0
M  V30 2739 O 456.547 -7.66872 -0.971405 0
M  V30 2740 C 455.607 -7.42212 -2.04614 0
M  V30 2741 C 456.337 -6.86059 -3.24661 0
M  V30 2742 O 456.547 -5.42847 -3.03646 0
M  V30 2743 C 457.737 -7.41196 -3.50753 0
M  V30 2744 O 458.127 -7.27073 -4.86816 0
M  V30 2745 C 458.617 -6.5273 -2.63741 0
M  V30 2746 C 457.907 -5.1842 -2.73198 0
M  V30 2747 N 457.957 -4.38668 -1.47808 0
M  V30 2748 C 458.107 -3.02239 -1.60048 0
M  V30 2749 O 458.197 -2.46459 -2.67869 0
M  V30 2750 N 458.147 -2.32436 -0.408571 0
M  V30 2751 C 458.057 -2.85471 0.854993 0
M  V30 2752 O 458.107 -2.12566 1.8531 0
M  V30 2753 C 457.907 -4.28918 0.887335 0
M  V30 2754 C 457.797 -4.91066 2.24619 0
M  V30 2755 C 457.857 -5.00349 -0.255399 0
M  V30 2756 H 455.117 -8.36803 -2.32493 0
M  V30 2757 H 454.848 -6.701 -1.71105 0
M  V30 2758 H 455.715 -7.03551 -4.13168 0
M  V30 2759 H 458.37 -4.59773 -3.53894 0
M  V30 2760 H 458.649 -6.88995 -1.59871 0
M  V30 2761 H 459.641 -6.46749 -3.03687 0
M  V30 2762 H 457.807 -8.46908 -3.20714 0
M  V30 2763 H 457.736 -6.08548 -0.206986 0
M  V30 2764 H 458.766 -5.34836 2.53099 0
M  V30 2765 H 457.029 -5.69638 2.2291 0
M  V30 2766 H 457.517 -4.13971 2.98044 0
M  V30 2767 H 458.253 -1.33211 -0.474216 0
M  V30 2768 P 459.677 -7.20834 -5.23717 0
M  V30 2769 O 459.897 -7.80006 -6.57415 0
M  V30 2770 O 460.467 -7.79416 -4.13051 0
M  V30 2771 O 459.927 -5.63315 -5.29344 0
M  V30 2772 C 458.987 -4.80318 -6.01954 0
M  V30 2773 C 459.717 -3.64202 -6.65911 0
M  V30 2774 O 459.927 -2.60736 -5.64823 0
M  V30 2775 C 461.117 -3.93521 -7.19518 0
M  V30 2776 O 461.507 -3.02071 -8.21205 0
M  V30 2777 C 461.997 -3.73047 -5.97036 0
M  V30 2778 C 461.287 -2.58828 -5.25741 0
M  V30 2779 N 461.337 -2.68068 -3.77503 0
M  V30 2780 H 458.499 -5.40394 -6.8003 0
M  V30 2781 H 458.227 -4.41741 -5.32532 0
M  V30 2782 H 459.095 -3.26371 -7.47889 0
M  V30 2783 H 461.75 -1.64007 -5.56746 0
M  V30 2784 H 462.03 -4.63439 -5.3432 0
M  V30 2785 H 463.021 -3.44776 -6.25925 0
M  V30 2786 H 461.187 -4.96707 -7.57347 0
M  V30 2787 P 463.057 -2.75334 -8.47391 0
M  V30 2788 O 463.277 -2.44595 -9.90239 0
M  V30 2789 O 463.847 -3.87732 -7.92204 0
M  V30 2790 O 463.307 -1.4459 -7.59357 0
M  V30 2791 C 462.367 -0.347563 -7.69115 0
M  V30 2792 C 463.097 0.96767 -7.52806 0
M  V30 2793 O 463.307 1.21036 -6.1011 0
M  V30 2794 C 464.497 1.04544 -8.13308 0
M  V30 2795 O 464.887 2.38311 -8.41922 0
M  V30 2796 C 465.377 0.491279 -7.02284 0
M  V30 2797 C 464.667 0.996264 -5.77469 0
M  V30 2798 N 464.717 0.0501808 -4.62873 0
M  V30 2799 C 464.867 0.588177 -3.36904 0
M  V30 2800 O 464.957 1.78598 -3.17173 0
M  V30 2801 N 464.907 -0.329694 -2.33686 0
M  V30 2802 C 464.817 -1.6953 -2.45079 0
M  V30 2803 O 464.867 -2.41926 -1.44899 0
M  V30 2804 C 464.667 -2.16933 -3.80505 0
M  V30 2805 C 464.557 -3.65373 -3.97621 0
M  V30 2806 C 464.617 -1.30326 -4.83752 0
M  V30 2807 H 461.877 -0.374722 -8.67691 0
M  V30 2808 H 461.608 -0.443421 -6.90177 0
M  V30 2809 H 462.475 1.75537 -7.96793 0
M  V30 2810 H 465.13 1.94496 -5.46629 0
M  V30 2811 H 465.409 -0.608651 -7.04676 0
M  V30 2812 H 466.401 0.889672 -7.08939 0
M  V30 2813 H 464.567 0.43308 -9.04564 0
M  V30 2814 H 464.496 -1.68366 -5.8516 0
M  V30 2815 H 465.526 -4.05985 -4.30448 0
M  V30 2816 H 463.789 -3.88028 -4.72875 0
M  V30 2817 H 464.277 -4.11381 -3.01609 0
M  V30 2818 H 465.013 0.0393617 -1.41345 0
M  V30 2819 P 466.437 2.75334 -8.47391 0
M  V30 2820 O 466.657 3.84128 -9.44797 0
M  V30 2821 O 467.227 1.51947 -8.68712 0
M  V30 2822 O 466.687 3.29363 -6.99321 0
M  V30 2823 C 465.747 4.24011 -6.4274 0
M  V30 2824 C 466.477 5.20775 -5.52155 0
M  V30 2825 O 466.687 4.56534 -4.22446 0
M  V30 2826 C 467.877 5.62629 -5.96531 0
M  V30 2827 O 468.267 6.87667 -5.41053 0
M  V30 2828 C 468.757 4.52537 -5.39283 0
M  V30 2829 C 468.047 4.20027 -4.08623 0
M  V30 2830 N 468.097 2.76189 -3.71603 0
M  V30 2831 H 465.258 4.797 -7.24003 0
M  V30 2832 H 464.988 3.69856 -5.84513 0
M  V30 2833 H 465.855 6.10356 -5.41441 0
M  V30 2834 P 469.817 7.20834 -5.23717 0
M  V30 2835 O 470.037 8.66274 -5.38678 0
M  V30 2836 O 470.607 6.33687 -6.13629 0
M  V30 2837 O 470.067 6.7751 -3.72168 0
M  V30 2838 C 469.127 7.20919 -2.70795 0
M  V30 2839 C 469.857 7.45864 -1.40599 0
M  V30 2840 O 470.067 6.17751 -0.734343 0
M  V30 2841 C 471.257 8.05906 -1.51917 0
M  V30 2842 O 471.647 8.74358 -0.335205 0
M  V30 2843 C 472.137 6.83093 -1.70294 0
M  V30 2844 C 471.427 5.79992 -0.836974 0
M  V30 2845 N 471.477 4.41864 -1.38293 0
M  V30 2846 H 468.639 8.13738 -3.03804 0
M  V30 2847 H 468.367 6.42974 -2.55559 0
M  V30 2848 H 469.235 8.12139 -0.792866 0
M  V30 2849 H 471.89 5.80178 0.160643 0
M  V30 2850 H 472.17 6.51379 -2.75643 0
M  V30 2851 H 473.161 7.01832 -1.3448 0
M  V30 2852 H 471.327 8.73771 -2.38364 0
M  V30 2853 P 473.197 8.91 2.75506e-12 0
M  V30 2854 O 473.417 10.1736 0.733766 0
M  V30 2855 O 473.987 8.73247 -1.2395 0
M  V30 2856 O 473.447 7.66872 0.971405 0
M  V30 2857 C 472.507 7.42309 2.04641 0
M  V30 2858 C 473.237 6.86059 3.24661 0
M  V30 2859 O 473.447 5.42847 3.03646 0
M  V30 2860 C 474.637 7.41196 3.50753 0
M  V30 2861 O 475.027 7.27073 4.86816 0
M  V30 2862 C 475.517 6.5273 2.63741 0
M  V30 2863 C 474.807 5.1842 2.73198 0
M  V30 2864 N 474.857 4.38668 1.47808 0
M  V30 2865 C 475.007 3.00789 1.58511 0
M  V30 2866 O 475.097 2.50116 2.71298 0
M  V30 2867 N 475.057 2.29703 0.253698 0
M  V30 2868 C 474.957 2.84269 -0.750133 0
M  V30 2869 N 475.007 2.06951 -1.82612 0
M  V30 2870 C 474.807 4.25803 -0.889776 0
M  V30 2871 C 474.757 4.98326 0.259363 0
M  V30 2872 H 472.017 8.36707 2.32466 0
M  V30 2873 H 471.748 6.701 1.71105 0
M  V30 2874 H 472.615 7.03638 4.13219 0
M  V30 2875 H 475.27 4.59852 3.53955 0
M  V30 2876 H 475.549 6.88995 1.59871 0
M  V30 2877 H 476.541 6.46749 3.03687 0
M  V30 2878 H 474.707 8.46908 3.20714 0
M  V30 2879 H 474.635 6.06349 0.206238 0
M  V30 2880 H 474.737 4.73163 -1.86796 0
M  V30 2881 H 475.125 1.05099 -1.72271 0
M  V30 2882 H 474.928 2.48716 -2.76361 0
M  V30 2883 P 476.577 7.20834 5.23717 0
M  V30 2884 O 476.797 7.79853 6.57286 0
M  V30 2885 O 477.367 7.79239 4.12957 0
M  V30 2886 O 476.827 5.63315 5.29344 0
M  V30 2887 C 475.887 4.80255 6.01876 0
M  V30 2888 C 476.617 3.64202 6.65911 0
M  V30 2889 O 476.827 2.60694 5.64732 0
M  V30 2890 C 478.017 3.93473 7.1943 0
M  V30 2891 O 478.407 3.02071 8.21205 0
M  V30 2892 C 478.897 3.73047 5.97036 0
M  V30 2893 C 478.187 2.58828 5.25741 0
M  V30 2894 N 478.237 2.68068 3.77503 0
M  V30 2895 H 475.398 5.40332 6.79951 0
M  V30 2896 H 475.128 4.41613 5.32378 0
M  V30 2897 H 475.995 3.26331 7.47797 0
M  V30 2898 P 479.957 2.75334 8.47391 0
M  V30 2899 O 480.177 2.44571 9.90142 0
M  V30 2900 O 480.747 3.87688 7.92115 0
M  V30 2901 O 480.207 1.4459 7.59357 0
M  V30 2902 C 479.267 0.347608 7.69215 0
M  V30 2903 C 479.997 -0.96767 7.52806 0
M  V30 2904 O 480.207 -1.21036 6.1011 0
M  V30 2905 C 481.397 -1.04544 8.13308 0
M  V30 2906 O 481.787 -2.38311 8.41922 0
M  V30 2907 C 482.277 -0.491279 7.02284 0
M  V30 2908 C 481.567 -0.996264 5.77469 0
M  V30 2909 N 481.617 -0.0501916 4.62973 0
M  V30 2910 H 478.778 0.374722 8.67691 0
M  V30 2911 H 478.508 0.443485 6.90277 0
M  V30 2912 H 479.375 -1.75537 7.96793 0
M  V30 2913 P 483.337 -2.75334 8.47391 0
M  V30 2914 O 483.557 -3.84128 9.44797 0
M  V30 2915 O 484.127 -1.51947 8.68712 0
M  V30 2916 O 483.587 -3.29363 6.99321 0
M  V30 2917 C 482.647 -4.24011 6.4274 0
M  V30 2918 C 483.377 -5.20775 5.52155 0
M  V30 2919 O 483.587 -4.56534 4.22446 0
M  V30 2920 C 484.777 -5.62629 5.96531 0
M  V30 2921 O 485.167 -6.87667 5.41053 0
M  V30 2922 C 485.657 -4.52537 5.39283 0
M  V30 2923 C 484.947 -4.20027 4.08623 0
M  V30 2924 N 484.997 -2.76189 3.71603 0
M  V30 2925 H 482.158 -4.797 7.24003 0
M  V30 2926 H 481.888 -3.69856 5.84513 0
M  V30 2927 H 482.755 -6.10356 5.41441 0
M  V30 2928 P 486.717 -7.20834 5.23717 0
M  V30 2929 O 486.937 -8.66104 5.38572 0
M  V30 2930 O 487.507 -6.33544 6.1349 0
M  V30 2931 O 486.967 -6.7751 3.72168 0
M  V30 2932 C 486.027 -7.20825 2.7076 0
M  V30 2933 C 486.757 -7.45864 1.40599 0
M  V30 2934 O 486.967 -6.17651 0.734225 0
M  V30 2935 C 488.157 -8.05808 1.51899 0
M  V30 2936 O 488.547 -8.74358 0.335205 0
M  V30 2937 C 489.037 -6.83093 1.70294 0
M  V30 2938 C 488.327 -5.79992 0.836974 0
M  V30 2939 N 488.377 -4.41864 1.38293 0
M  V30 2940 H 485.538 -8.13644 3.0377 0
M  V30 2941 H 485.268 -6.42788 2.55485 0
M  V30 2942 H 486.135 -8.12039 0.792769 0
M  V30 2943 P 490.097 -8.91 -2.91224e-12 0
M  V30 2944 O 490.317 -10.1726 -0.733694 0
M  V30 2945 O 490.887 -8.73148 1.23936 0
M  V30 2946 O 490.347 -7.66872 -0.971405 0
M  V30 2947 C 489.407 -7.42309 -2.04641 0
M  V30 2948 C 490.137 -6.86059 -3.24661 0
M  V30 2949 O 490.347 -5.42847 -3.03646 0
M  V30 2950 C 491.537 -7.41196 -3.50753 0
M  V30 2951 O 491.927 -7.27073 -4.86816 0
M  V30 2952 C 492.417 -6.5273 -2.63741 0
M  V30 2953 C 491.707 -5.1842 -2.73198 0
M  V30 2954 N 491.757 -4.38762 -1.4784 0
M  V30 2955 H 488.918 -8.36803 -2.32493 0
M  V30 2956 H 488.648 -6.70197 -1.71129 0
M  V30 2957 H 489.515 -7.03551 -4.13168 0
M  V30 2958 P 493.477 -7.20834 -5.23717 0
M  V30 2959 O 493.697 -7.79853 -6.57286 0
M  V30 2960 O 494.267 -7.79239 -4.12957 0
M  V30 2961 O 493.727 -5.63315 -5.29344 0
M  V30 2962 C 492.787 -4.80255 -6.01876 0
M  V30 2963 C 493.517 -3.64202 -6.65911 0
M  V30 2964 O 493.727 -2.60694 -5.64732 0
M  V30 2965 C 494.917 -3.93473 -7.1943 0
M  V30 2966 O 495.307 -3.02071 -8.21205 0
M  V30 2967 C 495.797 -3.73047 -5.97036 0
M  V30 2968 C 495.087 -2.58828 -5.25741 0
M  V30 2969 N 495.137 -2.68068 -3.77503 0
M  V30 2970 H 492.298 -5.40332 -6.79951 0
M  V30 2971 H 492.028 -4.41613 -5.32378 0
M  V30 2972 H 492.895 -3.26331 -7.47797 0
M  V30 2973 P 496.857 -2.75334 -8.47391 0
M  V30 2974 O 497.077 -2.44571 -9.90142 0
M  V30 2975 O 497.647 -3.87688 -7.92115 0
M  V30 2976 O 497.107 -1.4459 -7.59357 0
M  V30 2977 C 496.167 -0.347608 -7.69215 0
M  V30 2978 C 496.897 0.96767 -7.52806 0
M  V30 2979 O 497.107 1.21036 -6.1011 0
M  V30 2980 C 498.297 1.04544 -8.13308 0
M  V30 2981 O 498.687 2.38311 -8.41922 0
M  V30 2982 C 499.177 0.491279 -7.02284 0
M  V30 2983 C 498.467 0.996264 -5.77469 0
M  V30 2984 N 498.517 0.0501916 -4.62973 0
M  V30 2985 H 495.678 -0.374722 -8.67691 0
M  V30 2986 H 495.408 -0.443485 -6.90277 0
M  V30 2987 H 496.275 1.75537 -7.96793 0
M  V30 2988 P 500.237 2.75334 -8.47391 0
M  V30 2989 O 500.457 3.84128 -9.44797 0
M  V30 2990 O 501.027 1.51947 -8.68712 0
M  V30 2991 O 500.487 3.29363 -6.99321 0
M  V30 2992 C 499.547 4.24011 -6.4274 0
M  V30 2993 C 500.277 5.20775 -5.52155 0
M  V30 2994 O 500.487 4.56534 -4.22446 0
M  V30 2995 C 501.677 5.62629 -5.96531 0
M  V30 2996 O 502.067 6.87667 -5.41053 0
M  V30 2997 C 502.557 4.52537 -5.39283 0
M  V30 2998 C 501.847 4.20027 -4.08623 0
M  V30 2999 N 501.897 2.76189 -3.71603 0
M  V30 3000 H 499.058 4.797 -7.24003 0
M  V30 3001 H 498.788 3.69856 -5.84513 0
M  V30 3002 H 499.655 6.10356 -5.41441 0
M  V30 3003 P 503.617 7.20834 -5.23717 0
M  V30 3004 O 503.837 8.66104 -5.38572 0
M  V30 3005 O 504.407 6.33544 -6.1349 0
M  V30 3006 O 503.867 6.7751 -3.72168 0
M  V30 3007 C 502.927 7.20825 -2.7076 0
M  V30 3008 C 503.657 7.45864 -1.40599 0
M  V30 3009 O 503.867 6.17651 -0.734225 0
M  V30 3010 C 505.057 8.05808 -1.51899 0
M  V30 3011 O 505.447 8.74358 -0.335205 0
M  V30 3012 C 505.937 6.83093 -1.70294 0
M  V30 3013 C 505.227 5.79992 -0.836974 0
M  V30 3014 N 505.277 4.41864 -1.38293 0
M  V30 3015 H 502.438 8.13644 -3.0377 0
M  V30 3016 H 502.168 6.42788 -2.55485 0
M  V30 3017 H 503.035 8.12039 -0.792769 0
M  V30 3018 P 506.997 8.91 3.06942e-12 0
M  V30 3019 O 507.217 10.1726 0.733694 0
M  V30 3020 O 507.787 8.73148 -1.23936 0
M  V30 3021 O 507.247 7.66872 0.971405 0
M  V30 3022 C 506.307 7.42309 2.04641 0
M  V30 3023 C 507.037 6.86059 3.24661 0
M  V30 3024 O 507.247 5.42847 3.03646 0
M  V30 3025 C 508.437 7.41196 3.50753 0
M  V30 3026 O 508.827 7.27073 4.86816 0
M  V30 3027 C 509.317 6.5273 2.63741 0
M  V30 3028 C 508.607 5.1842 2.73198 0
M  V30 3029 N 508.657 4.38762 1.4784 0
M  V30 3030 H 505.818 8.36803 2.32493 0
M  V30 3031 H 505.548 6.70197 1.71129 0
M  V30 3032 H 506.415 7.03551 4.13168 0
M  V30 3033 P 510.377 7.20834 5.23717 0
M  V30 3034 O 510.597 7.79853 6.57286 0
M  V30 3035 O 511.167 7.79239 4.12957 0
M  V30 3036 O 510.627 5.63315 5.29344 0
M  V30 3037 C 509.687 4.80255 6.01876 0
M  V30 3038 C 510.417 3.64202 6.65911 0
M  V30 3039 O 510.627 2.60694 5.64732 0
M  V30 3040 C 511.817 3.93473 7.1943 0
M  V30 3041 O 512.207 3.02071 8.21205 0
M  V30 3042 C 512.697 3.73047 5.97036 0
M  V30 3043 C 511.987 2.58828 5.25741 0
M  V30 3044 N 512.037 2.68068 3.77503 0
M  V30 3045 C 511.957 3.79715 2.96723 0
M  V30 3046 N 512.037 3.5377 1.68852 0
M  V30 3047 C 512.177 2.15054 1.63254 0
M  V30 3048 C 512.307 1.28964 0.518571 0
M  V30 3049 O 512.327 1.56826 -0.679156 0
M  V30 3050 N 512.427 -0.0538097 0.918425 0
M  V30 3051 C 512.427 -0.494275 2.22578 0
M  V30 3052 N 512.557 -1.81086 2.40434 0
M  V30 3053 N 512.297 0.313645 3.27502 0
M  V30 3054 C 512.177 1.61829 2.91033 0
M  V30 3055 H 509.198 5.40332 6.79951 0
M  V30 3056 H 508.928 4.41613 5.32378 0
M  V30 3057 H 509.795 3.26331 7.47797 0
M  V30 3058 H 512.45 1.63422 5.56814 0
M  V30 3059 H 512.729 4.63374 5.34244 0
M  V30 3060 H 513.721 3.44728 6.25838 0
M  V30 3061 H 511.887 4.96652 7.57263 0
M  V30 3062 H 511.838 4.80617 3.3614 0
M  V30 3063 H 512.52 -0.742702 0.199384 0
M  V30 3064 H 512.557 -2.20598 3.35588 0
M  V30 3065 H 512.658 -2.43518 1.58945 0
M  V30 3066 P 513.757 2.75334 8.47391 0
M  V30 3067 O 513.977 2.44571 9.90142 0
M  V30 3068 O 514.547 3.87688 7.92115 0
M  V30 3069 O 514.007 1.4459 7.59357 0
M  V30 3070 C 513.067 0.347608 7.69215 0
M  V30 3071 C 513.797 -0.96767 7.52806 0
M  V30 3072 O 514.007 -1.21036 6.1011 0
M  V30 3073 C 515.197 -1.04544 8.13308 0
M  V30 3074 O 515.587 -2.38311 8.41922 0
M  V30 3075 C 516.077 -0.491279 7.02284 0
M  V30 3076 C 515.367 -0.996264 5.77469 0
M  V30 3077 N 515.417 -0.0501916 4.62973 0
M  V30 3078 H 512.578 0.374722 8.67691 0
M  V30 3079 H 512.308 0.443485 6.90277 0
M  V30 3080 H 513.175 -1.75537 7.96793 0
M  V30 3081 P 517.137 -2.75334 8.47391 0
M  V30 3082 O 517.357 -3.84128 9.44797 0
M  V30 3083 O 517.927 -1.51947 8.68712 0
M  V30 3084 O 517.387 -3.29363 6.99321 0
M  V30 3085 C 516.447 -4.24011 6.4274 0
M  V30 3086 C 517.177 -5.20775 5.52155 0
M  V30 3087 O 517.387 -4.56534 4.22446 0
M  V30 3088 C 518.577 -5.62629 5.96531 0
M  V30 3089 O 518.967 -6.87667 5.41053 0
M  V30 3090 C 519.457 -4.52537 5.39283 0
M  V30 3091 C 518.747 -4.20027 4.08623 0
M  V30 3092 N 518.797 -2.76189 3.71603 0
M  V30 3093 H 515.958 -4.797 7.24003 0
M  V30 3094 H 515.688 -3.69856 5.84513 0
M  V30 3095 H 516.555 -6.10356 5.41441 0
M  V30 3096 P 520.517 -7.20834 5.23717 0
M  V30 3097 O 520.737 -8.66104 5.38572 0
M  V30 3098 O 521.307 -6.33544 6.1349 0
M  V30 3099 O 520.767 -6.7751 3.72168 0
M  V30 3100 C 519.827 -7.20825 2.7076 0
M  V30 3101 C 520.557 -7.45864 1.40599 0
M  V30 3102 O 520.767 -6.17651 0.734225 0
M  V30 3103 C 521.957 -8.05808 1.51899 0
M  V30 3104 O 522.347 -8.74358 0.335205 0
M  V30 3105 C 522.837 -6.83093 1.70294 0
M  V30 3106 C 522.127 -5.79992 0.836974 0
M  V30 3107 N 522.177 -4.41864 1.38293 0
M  V30 3108 H 519.338 -8.13644 3.0377 0
M  V30 3109 H 519.068 -6.42788 2.55485 0
M  V30 3110 H 519.935 -8.12039 0.792769 0
M  V30 3111 P 523.897 -8.91 -3.22661e-12 0
M  V30 3112 O 524.117 -10.1736 -0.733766 0
M  V30 3113 O 524.687 -8.73247 1.2395 0
M  V30 3114 O 524.147 -7.66872 -0.971405 0
M  V30 3115 C 523.207 -7.42212 -2.04614 0
M  V30 3116 C 523.937 -6.86059 -3.24661 0
M  V30 3117 O 524.147 -5.42847 -3.03646 0
M  V30 3118 C 525.337 -7.41196 -3.50753 0
M  V30 3119 O 525.727 -7.27073 -4.86816 0
M  V30 3120 C 526.217 -6.5273 -2.63741 0
M  V30 3121 C 525.507 -5.1842 -2.73198 0
M  V30 3122 N 525.557 -4.38668 -1.47808 0
M  V30 3123 C 525.707 -3.02239 -1.60048 0
M  V30 3124 O 525.797 -2.46459 -2.67869 0
M  V30 3125 N 525.747 -2.32436 -0.408571 0
M  V30 3126 C 525.657 -2.85471 0.854993 0
M  V30 3127 C 525.507 -4.28918 0.887335 0
M  V30 3128 C 525.457 -5.00349 -0.255399 0
M  V30 3129 H 522.717 -8.36803 -2.32493 0
M  V30 3130 H 522.448 -6.701 -1.71105 0
M  V30 3131 H 523.315 -7.03551 -4.13168 0
M  V30 3132 H 525.97 -4.59773 -3.53894 0
M  V30 3133 H 526.249 -6.88995 -1.59871 0
M  V30 3134 H 527.241 -6.46749 -3.03687 0
M  V30 3135 H 525.407 -8.46908 -3.20714 0
M  V30 3136 H 525.336 -6.08548 -0.206986 0
M  V30 3137 P 527.277 -7.20834 -5.23717 0
M  V30 3138 O 527.497 -7.80006 -6.57415 0
M  V30 3139 O 528.067 -7.79416 -4.13051 0
M  V30 3140 O 527.527 -5.63315 -5.29344 0
M  V30 3141 C 526.587 -4.80318 -6.01954 0
M  V30 3142 C 527.317 -3.64202 -6.65911 0
M  V30 3143 O 527.527 -2.60736 -5.64823 0
M  V30 3144 C 528.717 -3.93521 -7.19518 0
M  V30 3145 O 529.107 -3.02071 -8.21205 0
M  V30 3146 C 529.597 -3.73047 -5.97036 0
M  V30 3147 C 528.887 -2.58828 -5.25741 0
M  V30 3148 N 528.937 -2.68068 -3.77503 0
M  V30 3149 H 526.099 -5.40394 -6.8003 0
M  V30 3150 H 525.827 -4.41741 -5.32532 0
M  V30 3151 H 526.695 -3.26371 -7.47889 0
M  V30 3152 H 529.35 -1.64007 -5.56746 0
M  V30 3153 H 529.63 -4.63439 -5.3432 0
M  V30 3154 H 530.621 -3.44776 -6.25925 0
M  V30 3155 H 528.787 -4.96707 -7.57347 0
M  V30 3156 P 530.657 -2.75334 -8.47391 0
M  V30 3157 O 530.877 -2.44571 -9.90142 0
M  V30 3158 O 531.447 -3.87688 -7.92115 0
M  V30 3159 O 530.907 -1.4459 -7.59357 0
M  V30 3160 C 529.967 -0.347608 -7.69215 0
M  V30 3161 C 530.697 0.96767 -7.52806 0
M  V30 3162 O 530.907 1.21036 -6.1011 0
M  V30 3163 C 532.097 1.04544 -8.13308 0
M  V30 3164 O 532.487 2.38311 -8.41922 0
M  V30 3165 C 532.977 0.491279 -7.02284 0
M  V30 3166 C 532.267 0.996264 -5.77469 0
M  V30 3167 N 532.317 0.0501916 -4.62973 0
M  V30 3168 C 532.237 -1.32786 -4.63244 0
M  V30 3169 N 532.317 -1.86957 -3.44545 0
M  V30 3170 C 532.457 -0.780241 -2.58481 0
M  V30 3171 C 532.587 -0.738536 -1.17757 0
M  V30 3172 O 532.607 -1.66794 -0.372349 0
M  V30 3173 N 532.707 0.58337 -0.711393 0
M  V30 3174 C 532.707 1.70816 -1.51017 0
M  V30 3175 N 532.837 2.87826 -0.880757 0
M  V30 3176 N 532.577 1.67126 -2.8339 0
M  V30 3177 C 532.457 0.401421 -3.30572 0
M  V30 3178 H 529.478 -0.374722 -8.67691 0
M  V30 3179 H 529.208 -0.443485 -6.90277 0
M  V30 3180 H 530.075 1.75537 -7.96793 0
M  V30 3181 H 532.73 1.95076 -5.46529 0
M  V30 3182 H 533.009 -0.608565 -7.04577 0
M  V30 3183 H 534.001 0.889672 -7.08939 0
M  V30 3184 H 532.167 0.43308 -9.04564 0
M  V30 3185 H 532.118 -1.91249 -5.54442 0
M  V30 3186 H 532.8 0.718054 0.275244 0
M  V30 3187 H 532.837 3.75721 -1.41832 0
M  V30 3188 H 532.938 2.90436 0.145468 0
M  V30 3189 P 534.037 2.75334 -8.47391 0
M  V30 3190 O 534.257 3.84128 -9.44797 0
M  V30 3191 O 534.827 1.51947 -8.68712 0
M  V30 3192 O 534.287 3.29363 -6.99321 0
M  V30 3193 C 533.347 4.24011 -6.4274 0
M  V30 3194 C 534.077 5.20775 -5.52155 0
M  V30 3195 O 534.287 4.56534 -4.22446 0
M  V30 3196 C 535.477 5.62629 -5.96531 0
M  V30 3197 O 535.867 6.87667 -5.41053 0
M  V30 3198 C 536.357 4.52537 -5.39283 0
M  V30 3199 C 535.647 4.20027 -4.08623 0
M  V30 3200 N 535.697 2.76189 -3.71603 0
M  V30 3201 H 532.858 4.797 -7.24003 0
M  V30 3202 H 532.588 3.69856 -5.84513 0
M  V30 3203 H 533.455 6.10356 -5.41441 0
M  V30 3204 P 537.417 7.20834 -5.23717 0
M  V30 3205 O 537.637 8.66104 -5.38572 0
M  V30 3206 O 538.207 6.33544 -6.1349 0
M  V30 3207 O 537.667 6.7751 -3.72168 0
M  V30 3208 C 536.727 7.20825 -2.7076 0
M  V30 3209 C 537.457 7.45864 -1.40599 0
M  V30 3210 O 537.667 6.17651 -0.734225 0
M  V30 3211 C 538.857 8.05808 -1.51899 0
M  V30 3212 O 539.247 8.74358 -0.335205 0
M  V30 3213 C 539.737 6.83093 -1.70294 0
M  V30 3214 C 539.027 5.79992 -0.836974 0
M  V30 3215 N 539.077 4.41864 -1.38293 0
M  V30 3216 H 536.238 8.13644 -3.0377 0
M  V30 3217 H 535.968 6.42788 -2.55485 0
M  V30 3218 H 536.835 8.12039 -0.792769 0
M  V30 3219 P 540.797 8.91 3.38379e-12 0
M  V30 3220 O 541.017 10.1726 0.733694 0
M  V30 3221 O 541.587 8.73148 -1.23936 0
M  V30 3222 O 541.047 7.66872 0.971405 0
M  V30 3223 C 540.107 7.42309 2.04641 0
M  V30 3224 C 540.837 6.86059 3.24661 0
M  V30 3225 O 541.047 5.42847 3.03646 0
M  V30 3226 C 542.237 7.41196 3.50753 0
M  V30 3227 O 542.627 7.27073 4.86816 0
M  V30 3228 C 543.117 6.5273 2.63741 0
M  V30 3229 C 542.407 5.1842 2.73198 0
M  V30 3230 N 542.457 4.38762 1.4784 0
M  V30 3231 H 539.618 8.36803 2.32493 0
M  V30 3232 H 539.348 6.70197 1.71129 0
M  V30 3233 H 540.215 7.03551 4.13168 0
M  V30 3234 P 544.177 7.20834 5.23717 0
M  V30 3235 O 544.397 7.80006 6.57415 0
M  V30 3236 O 544.967 7.79416 4.13051 0
M  V30 3237 O 544.427 5.63315 5.29344 0
M  V30 3238 C 543.487 4.80318 6.01954 0
M  V30 3239 C 544.217 3.64202 6.65911 0
M  V30 3240 O 544.427 2.60736 5.64823 0
M  V30 3241 C 545.617 3.93521 7.19518 0
M  V30 3242 O 546.007 3.02071 8.21205 0
M  V30 3243 C 546.497 3.73047 5.97036 0
M  V30 3244 C 545.787 2.58828 5.25741 0
M  V30 3245 N 545.837 2.68068 3.77503 0
M  V30 3246 C 545.757 3.80474 2.99159 0
M  V30 3247 N 545.827 3.55622 1.71925 0
M  V30 3248 C 545.977 2.1832 1.65733 0
M  V30 3249 C 546.107 1.28842 0.572777 0
M  V30 3250 N 546.117 1.66875 -0.70098 0
M  V30 3251 N 546.227 -0.016788 0.859836 0
M  V30 3252 C 546.217 -0.398145 2.13316 0
M  V30 3253 N 546.097 0.328224 3.22333 0
M  V30 3254 C 545.977 1.62992 2.90383 0
M  V30 3255 H 542.999 5.40394 6.8003 0
M  V30 3256 H 542.727 4.41741 5.32532 0
M  V30 3257 H 543.595 3.26371 7.47889 0
M  V30 3258 H 546.25 1.64007 5.56746 0
M  V30 3259 H 546.53 4.63439 5.3432 0
M  V30 3260 H 547.521 3.44776 6.25925 0
M  V30 3261 H 545.687 4.96707 7.57347 0
M  V30 3262 H 545.646 4.8089 3.39924 0
M  V30 3263 H 546.027 2.66547 -0.941919 0
M  V30 3264 H 546.216 0.965341 -1.44766 0
M  V30 3265 H 546.324 -1.46427 2.29697 0
M  V30 3266 P 547.557 2.75334 8.47391 0
M  V30 3267 O 547.777 2.44619 9.90336 0
M  V30 3268 O 548.347 3.87776 7.92294 0
M  V30 3269 O 547.807 1.4459 7.59357 0
M  V30 3270 C 546.867 0.347653 7.69315 0
M  V30 3271 C 547.597 -0.96767 7.52806 0
M  V30 3272 O 547.807 -1.21055 6.10208 0
M  V30 3273 C 548.997 -1.04557 8.13408 0
M  V30 3274 O 549.387 -2.38311 8.41922 0
M  V30 3275 C 549.877 -0.491279 7.02284 0
M  V30 3276 C 549.167 -0.996264 5.77469 0
M  V30 3277 N 549.217 -0.0501916 4.62973 0
M  V30 3278 H 546.379 0.374765 8.67791 0
M  V30 3279 H 546.107 0.443613 6.90476 0
M  V30 3280 H 546.975 -1.75559 7.96891 0
M  V30 3281 H 549.63 -1.94563 5.46818 0
M  V30 3282 H 549.91 0.608651 7.04676 0
M  V30 3283 H 550.901 -0.889796 7.09039 0
M  V30 3284 H 549.067 -0.433128 9.04664 0
M  V30 3285 P 550.937 -2.75334 8.47391 0
M  V30 3286 O 551.157 -3.84128 9.44797 0
M  V30 3287 O 551.727 -1.51947 8.68712 0
M  V30 3288 O 551.187 -3.29363 6.99321 0
M  V30 3289 C 550.247 -4.24011 6.4274 0
M  V30 3290 C 550.977 -5.20775 5.52155 0
M  V30 3291 O 551.187 -4.56534 4.22446 0
M  V30 3292 C 552.377 -5.62629 5.96531 0
M  V30 3293 O 552.767 -6.87667 5.41053 0
M  V30 3294 C 553.257 -4.52537 5.39283 0
M  V30 3295 C 552.547 -4.20027 4.08623 0
M  V30 3296 N 552.597 -2.76189 3.71603 0
M  V30 3297 C 552.517 -1.64862 4.52822 0
M  V30 3298 N 552.597 -0.512671 3.88633 0
M  V30 3299 C 552.737 -0.888083 2.54977 0
M  V30 3300 C 552.867 -0.094668 1.38677 0
M  V30 3301 O 552.887 1.13053 1.28163 0
M  V30 3302 N 552.987 -0.890102 0.232633 0
M  V30 3303 C 552.987 -2.26958 0.21772 0
M  V30 3304 N 553.117 -2.84626 -0.97925 0
M  V30 3305 N 552.857 -3.0178 1.31033 0
M  V30 3306 C 552.737 -2.26781 2.43843 0
M  V30 3307 H 549.758 -4.797 7.24003 0
M  V30 3308 H 549.488 -3.69856 5.84513 0
M  V30 3309 H 550.355 -6.10356 5.41441 0
M  V30 3310 H 553.01 -4.79061 3.27488 0
M  V30 3311 H 553.289 -3.64906 6.05785 0
M  V30 3312 H 554.281 -4.8868 5.2125 0
M  V30 3313 H 552.447 -5.66726 7.06352 0
M  V30 3314 H 552.398 -1.71169 5.60966 0
M  V30 3315 H 553.08 -0.419134 -0.644739 0
M  V30 3316 H 553.117 -3.87332 -1.06098 0
M  V30 3317 H 553.218 -2.26417 -1.82483 0
M  V30 3318 P 554.317 -7.20834 5.23717 0
M  V30 3319 O 554.537 -8.66104 5.38572 0
M  V30 3320 O 555.107 -6.33544 6.1349 0
M  V30 3321 O 554.567 -6.7751 3.72168 0
M  V30 3322 C 553.627 -7.20825 2.7076 0
M  V30 3323 C 554.357 -7.45864 1.40599 0
M  V30 3324 O 554.567 -6.17651 0.734225 0
M  V30 3325 C 555.757 -8.05808 1.51899 0
M  V30 3326 O 556.147 -8.74358 0.335205 0
M  V30 3327 C 556.637 -6.83093 1.70294 0
M  V30 3328 C 555.927 -5.79992 0.836974 0
M  V30 3329 N 555.977 -4.41864 1.38293 0
M  V30 3330 H 553.138 -8.13644 3.0377 0
M  V30 3331 H 552.868 -6.42788 2.55485 0
M  V30 3332 H 553.735 -8.12039 0.792769 0
M  V30 3333 P 557.697 -8.91 -3.54097e-12 0
M  V30 3334 O 557.917 -10.1736 -0.733766 0
M  V30 3335 O 558.487 -8.73247 1.2395 0
M  V30 3336 O 557.947 -7.66872 -0.971405 0
M  V30 3337 C 557.007 -7.42309 -2.04641 0
M  V30 3338 C 557.737 -6.86059 -3.24661 0
M  V30 3339 O 557.947 -5.42847 -3.03646 0
M  V30 3340 C 559.137 -7.41196 -3.50753 0
M  V30 3341 O 559.527 -7.27073 -4.86816 0
M  V30 3342 C 560.017 -6.5273 -2.63741 0
M  V30 3343 C 559.307 -5.1842 -2.73198 0
M  V30 3344 N 559.357 -4.38668 -1.47808 0
M  V30 3345 C 559.507 -3.00789 -1.58511 0
M  V30 3346 O 559.597 -2.50116 -2.71298 0
M  V30 3347 N 559.557 -2.29703 -0.253698 0
M  V30 3348 C 559.457 -2.84269 0.750133 0
M  V30 3349 N 559.507 -2.06951 1.82612 0
M  V30 3350 C 559.307 -4.25803 0.889776 0
M  V30 3351 C 559.257 -4.98326 -0.259363 0
M  V30 3352 H 556.517 -8.36707 -2.32466 0
M  V30 3353 H 556.248 -6.701 -1.71105 0
M  V30 3354 H 557.115 -7.03638 -4.13219 0
M  V30 3355 H 559.77 -4.59852 -3.53955 0
M  V30 3356 H 560.049 -6.88995 -1.59871 0
M  V30 3357 H 561.041 -6.46749 -3.03687 0
M  V30 3358 H 559.207 -8.46908 -3.20714 0
M  V30 3359 H 559.135 -6.06349 -0.206238 0
M  V30 3360 H 559.237 -4.73163 1.86796 0
M  V30 3361 H 559.625 -1.05099 1.72271 0
M  V30 3362 H 559.428 -2.48716 2.76361 0
M  V30 3363 P 561.077 -7.20834 -5.23717 0
M  V30 3364 O 561.297 -7.79853 -6.57286 0
M  V30 3365 O 561.867 -7.79239 -4.12957 0
M  V30 3366 O 561.327 -5.63315 -5.29344 0
M  V30 3367 C 560.387 -4.80255 -6.01876 0
M  V30 3368 C 561.117 -3.64202 -6.65911 0
M  V30 3369 O 561.327 -2.60694 -5.64732 0
M  V30 3370 C 562.517 -3.93473 -7.1943 0
M  V30 3371 O 562.907 -3.02071 -8.21205 0
M  V30 3372 C 563.397 -3.73047 -5.97036 0
M  V30 3373 C 562.687 -2.58828 -5.25741 0
M  V30 3374 N 562.737 -2.68068 -3.77503 0
M  V30 3375 H 559.898 -5.40332 -6.79951 0
M  V30 3376 H 559.628 -4.41613 -5.32378 0
M  V30 3377 H 560.495 -3.26331 -7.47797 0
M  V30 3378 P 564.457 -2.75334 -8.47391 0
M  V30 3379 O 564.677 -2.44571 -9.90142 0
M  V30 3380 O 565.247 -3.87688 -7.92115 0
M  V30 3381 O 564.707 -1.4459 -7.59357 0
M  V30 3382 C 563.767 -0.347608 -7.69215 0
M  V30 3383 C 564.497 0.96767 -7.52806 0
M  V30 3384 O 564.707 1.21036 -6.1011 0
M  V30 3385 C 565.897 1.04544 -8.13308 0
M  V30 3386 O 566.287 2.38311 -8.41922 0
M  V30 3387 C 566.777 0.491279 -7.02284 0
M  V30 3388 C 566.067 0.996264 -5.77469 0
M  V30 3389 N 566.117 0.0501916 -4.62973 0
M  V30 3390 H 563.278 -0.374722 -8.67691 0
M  V30 3391 H 563.008 -0.443485 -6.90277 0
M  V30 3392 H 563.875 1.75537 -7.96793 0
M  V30 3393 P 567.837 2.75334 -8.47391 0
M  V30 3394 O 568.057 3.84128 -9.44797 0
M  V30 3395 O 568.627 1.51947 -8.68712 0
M  V30 3396 O 568.087 3.29363 -6.99321 0
M  V30 3397 C 567.147 4.24011 -6.4274 0
M  V30 3398 C 567.877 5.20775 -5.52155 0
M  V30 3399 O 568.087 4.56534 -4.22446 0
M  V30 3400 C 569.277 5.62629 -5.96531 0
M  V30 3401 O 569.667 6.87667 -5.41053 0
M  V30 3402 C 570.157 4.52537 -5.39283 0
M  V30 3403 C 569.447 4.20027 -4.08623 0
M  V30 3404 N 569.497 2.76189 -3.71603 0
M  V30 3405 H 566.658 4.797 -7.24003 0
M  V30 3406 H 566.388 3.69856 -5.84513 0
M  V30 3407 H 567.255 6.10356 -5.41441 0
M  V30 3408 P 571.217 7.20834 -5.23717 0
M  V30 3409 O 571.437 8.66104 -5.38572 0
M  V30 3410 O 572.007 6.33544 -6.1349 0
M  V30 3411 O 571.467 6.7751 -3.72168 0
M  V30 3412 C 570.527 7.20825 -2.7076 0
M  V30 3413 C 571.257 7.45864 -1.40599 0
M  V30 3414 O 571.467 6.17651 -0.734225 0
M  V30 3415 C 572.657 8.05808 -1.51899 0
M  V30 3416 O 573.047 8.74358 -0.335205 0
M  V30 3417 C 573.537 6.83093 -1.70294 0
M  V30 3418 C 572.827 5.79992 -0.836974 0
M  V30 3419 N 572.877 4.41864 -1.38293 0
M  V30 3420 H 570.038 8.13644 -3.0377 0
M  V30 3421 H 569.768 6.42788 -2.55485 0
M  V30 3422 H 570.635 8.12039 -0.792769 0
M  V30 3423 P 574.597 8.91 3.69815e-12 0
M  V30 3424 O 574.817 10.1726 0.733694 0
M  V30 3425 O 575.387 8.73148 -1.23936 0
M  V30 3426 O 574.847 7.66872 0.971405 0
M  V30 3427 C 573.907 7.42309 2.04641 0
M  V30 3428 C 574.637 6.86059 3.24661 0
M  V30 3429 O 574.847 5.42847 3.03646 0
M  V30 3430 C 576.037 7.41196 3.50753 0
M  V30 3431 O 576.427 7.27073 4.86816 0
M  V30 3432 C 576.917 6.5273 2.63741 0
M  V30 3433 C 576.207 5.1842 2.73198 0
M  V30 3434 N 576.257 4.38762 1.4784 0
M  V30 3435 C 576.177 4.81605 0.168631 0
M  V30 3436 N 576.257 3.85454 -0.713363 0
M  V30 3437 C 576.397 2.6994 0.0566958 0
M  V30 3438 C 576.527 1.34815 -0.338502 0
M  V30 3439 N 576.647 0.496304 0.77465 0
M  V30 3440 C 576.647 0.908403 2.09122 0
M  V30 3441 N 576.777 -0.0517805 3.00955 0
M  V30 3442 N 576.517 2.17875 2.46519 0
M  V30 3443 C 576.397 3.01988 1.4033 0
M  V30 3444 H 573.418 8.36803 2.32493 0
M  V30 3445 H 573.148 6.70197 1.71129 0
M  V30 3446 H 574.015 7.03551 4.13168 0
M  V30 3447 P 577.977 7.20834 5.23717 0
M  V30 3448 O 578.197 7.79853 6.57286 0
M  V30 3449 O 578.767 7.79239 4.12957 0
M  V30 3450 O 578.227 5.63315 5.29344 0
M  V30 3451 C 577.287 4.80255 6.01876 0
M  V30 3452 C 578.017 3.64202 6.65911 0
M  V30 3453 O 578.227 2.60694 5.64732 0
M  V30 3454 C 579.417 3.93473 7.1943 0
M  V30 3455 O 579.807 3.02071 8.21205 0
M  V30 3456 C 580.297 3.73047 5.97036 0
M  V30 3457 C 579.587 2.58828 5.25741 0
M  V30 3458 N 579.637 2.68068 3.77503 0
M  V30 3459 H 576.798 5.40332 6.79951 0
M  V30 3460 H 576.528 4.41613 5.32378 0
M  V30 3461 H 577.395 3.26331 7.47797 0
M  V30 3462 P 581.357 2.75334 8.47391 0
M  V30 3463 O 581.577 2.44571 9.90142 0
M  V30 3464 O 582.147 3.87688 7.92115 0
M  V30 3465 O 581.607 1.4459 7.59357 0
M  V30 3466 C 580.667 0.347608 7.69215 0
M  V30 3467 C 581.397 -0.96767 7.52806 0
M  V30 3468 O 581.607 -1.21036 6.1011 0
M  V30 3469 C 582.797 -1.04544 8.13308 0
M  V30 3470 O 583.187 -2.38311 8.41922 0
M  V30 3471 C 583.677 -0.491279 7.02284 0
M  V30 3472 C 582.967 -0.996264 5.77469 0
M  V30 3473 N 583.017 -0.0501916 4.62973 0
M  V30 3474 H 580.178 0.374722 8.67691 0
M  V30 3475 H 579.908 0.443485 6.90277 0
M  V30 3476 H 580.775 -1.75537 7.96793 0
M  V30 3477 P 584.737 -2.75334 8.47391 0
M  V30 3478 O 584.957 -3.84128 9.44797 0
M  V30 3479 O 585.527 -1.51947 8.68712 0
M  V30 3480 O 584.987 -3.29363 6.99321 0
M  V30 3481 C 584.047 -4.24011 6.4274 0
M  V30 3482 C 584.777 -5.20775 5.52155 0
M  V30 3483 O 584.987 -4.56534 4.22446 0
M  V30 3484 C 586.177 -5.62629 5.96531 0
M  V30 3485 O 586.567 -6.87667 5.41053 0
M  V30 3486 C 587.057 -4.52537 5.39283 0
M  V30 3487 C 586.347 -4.20027 4.08623 0
M  V30 3488 N 586.397 -2.76189 3.71603 0
M  V30 3489 H 583.558 -4.797 7.24003 0
M  V30 3490 H 583.288 -3.69856 5.84513 0
M  V30 3491 H 584.155 -6.10356 5.41441 0
M  V30 3492 P 588.117 -7.20834 5.23717 0
M  V30 3493 O 588.337 -8.66104 5.38572 0
M  V30 3494 O 588.907 -6.33544 6.1349 0
M  V30 3495 O 588.367 -6.7751 3.72168 0
M  V30 3496 C 587.427 -7.20825 2.7076 0
M  V30 3497 C 588.157 -7.45864 1.40599 0
M  V30 3498 O 588.367 -6.17651 0.734225 0
M  V30 3499 C 589.557 -8.05808 1.51899 0
M  V30 3500 O 589.947 -8.74358 0.335205 0
M  V30 3501 C 590.437 -6.83093 1.70294 0
M  V30 3502 C 589.727 -5.79992 0.836974 0
M  V30 3503 N 589.777 -4.41864 1.38293 0
M  V30 3504 H 586.938 -8.13644 3.0377 0
M  V30 3505 H 586.668 -6.42788 2.55485 0
M  V30 3506 H 587.535 -8.12039 0.792769 0
M  V30 3507 P 591.496 -8.91 -3.85533e-12 0
M  V30 3508 O 591.716 -10.1726 -0.733694 0
M  V30 3509 O 592.286 -8.73148 1.23936 0
M  V30 3510 O 591.746 -7.66872 -0.971405 0
M  V30 3511 C 590.806 -7.42309 -2.04641 0
M  V30 3512 C 591.536 -6.86059 -3.24661 0
M  V30 3513 O 591.746 -5.42847 -3.03646 0
M  V30 3514 C 592.937 -7.41196 -3.50753 0
M  V30 3515 O 593.327 -7.27073 -4.86816 0
M  V30 3516 C 593.817 -6.5273 -2.63741 0
M  V30 3517 C 593.106 -5.1842 -2.73198 0
M  V30 3518 N 593.156 -4.38762 -1.4784 0
M  V30 3519 H 590.317 -8.36803 -2.32493 0
M  V30 3520 H 590.048 -6.70197 -1.71129 0
M  V30 3521 H 590.914 -7.03551 -4.13168 0
M  V30 3522 P 594.876 -7.20834 -5.23717 0
M  V30 3523 O 595.096 -7.79853 -6.57286 0
M  V30 3524 O 595.666 -7.79239 -4.12957 0
M  V30 3525 O 595.126 -5.63315 -5.29344 0
M  V30 3526 C 594.186 -4.80255 -6.01876 0
M  V30 3527 C 594.916 -3.64202 -6.65911 0
M  V30 3528 O 595.126 -2.60694 -5.64732 0
M  V30 3529 C 596.316 -3.93473 -7.1943 0
M  V30 3530 O 596.706 -3.02071 -8.21205 0
M  V30 3531 C 597.196 -3.73047 -5.97036 0
M  V30 3532 C 596.486 -2.58828 -5.25741 0
M  V30 3533 N 596.536 -2.68068 -3.77503 0
M  V30 3534 H 593.697 -5.40332 -6.79951 0
M  V30 3535 H 593.427 -4.41613 -5.32378 0
M  V30 3536 H 594.294 -3.26331 -7.47797 0
M  V30 3537 P 598.256 -2.75334 -8.47391 0
M  V30 3538 O 598.476 -2.44571 -9.90142 0
M  V30 3539 O 599.046 -3.87688 -7.92115 0
M  V30 3540 O 598.506 -1.4459 -7.59357 0
M  V30 3541 C 597.566 -0.347608 -7.69215 0
M  V30 3542 C 598.296 0.96767 -7.52806 0
M  V30 3543 O 598.506 1.21036 -6.1011 0
M  V30 3544 C 599.696 1.04544 -8.13308 0
M  V30 3545 O 600.086 2.38311 -8.41922 0
M  V30 3546 C 600.576 0.491279 -7.02284 0
M  V30 3547 C 599.866 0.996264 -5.77469 0
M  V30 3548 N 599.916 0.0501916 -4.62973 0
M  V30 3549 H 597.077 -0.374722 -8.67691 0
M  V30 3550 H 596.807 -0.443485 -6.90277 0
M  V30 3551 H 597.674 1.75537 -7.96793 0
M  V30 3552 P 601.636 2.75334 -8.47391 0
M  V30 3553 O 601.856 3.84128 -9.44797 0
M  V30 3554 O 602.426 1.51947 -8.68712 0
M  V30 3555 O 601.886 3.29363 -6.99321 0
M  V30 3556 C 600.946 4.24011 -6.4274 0
M  V30 3557 C 601.676 5.20775 -5.52155 0
M  V30 3558 O 601.886 4.56534 -4.22446 0
M  V30 3559 C 603.076 5.62629 -5.96531 0
M  V30 3560 O 603.466 6.87667 -5.41053 0
M  V30 3561 C 603.956 4.52537 -5.39283 0
M  V30 3562 C 603.246 4.20027 -4.08623 0
M  V30 3563 N 603.296 2.76189 -3.71603 0
M  V30 3564 H 600.457 4.797 -7.24003 0
M  V30 3565 H 600.187 3.69856 -5.84513 0
M  V30 3566 H 601.054 6.10356 -5.41441 0
M  V30 3567 P 605.016 7.20834 -5.23717 0
M  V30 3568 O 605.236 8.66104 -5.38572 0
M  V30 3569 O 605.806 6.33544 -6.1349 0
M  V30 3570 O 605.266 6.7751 -3.72168 0
M  V30 3571 C 604.326 7.20825 -2.7076 0
M  V30 3572 C 605.056 7.45864 -1.40599 0
M  V30 3573 O 605.266 6.17651 -0.734225 0
M  V30 3574 C 606.456 8.05808 -1.51899 0
M  V30 3575 O 606.846 8.74358 -0.335205 0
M  V30 3576 C 607.336 6.83093 -1.70294 0
M  V30 3577 C 606.626 5.79992 -0.836974 0
M  V30 3578 N 606.676 4.41864 -1.38293 0
M  V30 3579 H 603.837 8.13644 -3.0377 0
M  V30 3580 H 603.567 6.42788 -2.55485 0
M  V30 3581 H 604.434 8.12039 -0.792769 0
M  V30 3582 P 608.396 8.91 4.01252e-12 0
M  V30 3583 O 608.616 10.1726 0.733694 0
M  V30 3584 O 609.186 8.73148 -1.23936 0
M  V30 3585 O 608.646 7.66872 0.971405 0
M  V30 3586 C 607.706 7.42309 2.04641 0
M  V30 3587 C 608.436 6.86059 3.24661 0
M  V30 3588 O 608.646 5.42847 3.03646 0
M  V30 3589 C 609.836 7.41196 3.50753 0
M  V30 3590 O 610.226 7.27073 4.86816 0
M  V30 3591 C 610.716 6.5273 2.63741 0
M  V30 3592 C 610.006 5.1842 2.73198 0
M  V30 3593 N 610.056 4.38762 1.4784 0
M  V30 3594 H 607.217 8.36803 2.32493 0
M  V30 3595 H 606.947 6.70197 1.71129 0
M  V30 3596 H 607.814 7.03551 4.13168 0
M  V30 3597 P 611.776 7.20834 5.23717 0
M  V30 3598 O 611.996 7.79853 6.57286 0
M  V30 3599 O 612.566 7.79239 4.12957 0
M  V30 3600 O 612.026 5.63315 5.29344 0
M  V30 3601 C 611.086 4.80255 6.01876 0
M  V30 3602 C 611.816 3.64202 6.65911 0
M  V30 3603 O 612.026 2.60694 5.64732 0
M  V30 3604 C 613.216 3.93473 7.1943 0
M  V30 3605 O 613.606 3.02071 8.21205 0
M  V30 3606 C 614.096 3.73047 5.97036 0
M  V30 3607 C 613.386 2.58828 5.25741 0
M  V30 3608 N 613.436 2.68068 3.77503 0
M  V30 3609 H 610.597 5.40332 6.79951 0
M  V30 3610 H 610.327 4.41613 5.32378 0
M  V30 3611 H 611.194 3.26331 7.47797 0
M  V30 3612 P 615.156 2.75334 8.47391 0
M  V30 3613 O 615.376 2.44595 9.90239 0
M  V30 3614 O 615.946 3.87732 7.92204 0
M  V30 3615 O 615.406 1.4459 7.59357 0
M  V30 3616 C 614.466 0.347563 7.69115 0
M  V30 3617 C 615.196 -0.96767 7.52806 0
M  V30 3618 O 615.406 -1.21036 6.1011 0
M  V30 3619 C 616.596 -1.04544 8.13308 0
M  V30 3620 O 616.986 -2.38311 8.41922 0
M  V30 3621 C 617.476 -0.491279 7.02284 0
M  V30 3622 C 616.766 -0.996264 5.77469 0
M  V30 3623 N 616.816 -0.0501808 4.62873 0
M  V30 3624 C 616.966 -0.588177 3.36904 0
M  V30 3625 O 617.056 -1.78598 3.17173 0
M  V30 3626 N 617.006 0.329694 2.33686 0
M  V30 3627 C 616.916 1.6953 2.45079 0
M  V30 3628 C 616.766 2.16933 3.80505 0
M  V30 3629 C 616.716 1.30326 4.83752 0
M  V30 3630 H 613.976 0.374722 8.67691 0
M  V30 3631 H 613.707 0.443421 6.90177 0
M  V30 3632 H 614.574 -1.75537 7.96793 0
M  V30 3633 H 617.229 -1.94496 5.46629 0
M  V30 3634 H 617.508 0.608651 7.04676 0
M  V30 3635 H 618.5 -0.889672 7.08939 0
M  V30 3636 H 616.666 -0.43308 9.04564 0
M  V30 3637 H 616.595 1.68366 5.8516 0
M  V30 3638 P 618.536 -2.75334 8.47391 0
M  V30 3639 O 618.756 -3.84128 9.44797 0
M  V30 3640 O 619.326 -1.51947 8.68712 0
M  V30 3641 O 618.786 -3.29363 6.99321 0
M  V30 3642 C 617.846 -4.24011 6.4274 0
M  V30 3643 C 618.576 -5.20775 5.52155 0
M  V30 3644 O 618.786 -4.56534 4.22446 0
M  V30 3645 C 619.976 -5.62629 5.96531 0
M  V30 3646 O 620.366 -6.87667 5.41053 0
M  V30 3647 C 620.856 -4.52537 5.39283 0
M  V30 3648 C 620.146 -4.20027 4.08623 0
M  V30 3649 N 620.196 -2.76189 3.71603 0
M  V30 3650 H 617.357 -4.797 7.24003 0
M  V30 3651 H 617.087 -3.69856 5.84513 0
M  V30 3652 H 617.954 -6.10356 5.41441 0
M  V30 3653 P 621.916 -7.20834 5.23717 0
M  V30 3654 O 622.136 -8.66104 5.38572 0
M  V30 3655 O 622.706 -6.33544 6.1349 0
M  V30 3656 O 622.166 -6.7751 3.72168 0
M  V30 3657 C 621.226 -7.20825 2.7076 0
M  V30 3658 C 621.956 -7.45864 1.40599 0
M  V30 3659 O 622.166 -6.17651 0.734225 0
M  V30 3660 C 623.356 -8.05808 1.51899 0
M  V30 3661 O 623.746 -8.74358 0.335205 0
M  V30 3662 C 624.236 -6.83093 1.70294 0
M  V30 3663 C 623.526 -5.79992 0.836974 0
M  V30 3664 N 623.576 -4.41864 1.38293 0
M  V30 3665 H 620.737 -8.13644 3.0377 0
M  V30 3666 H 620.467 -6.42788 2.55485 0
M  V30 3667 H 621.334 -8.12039 0.792769 0
M  V30 3668 P 625.296 -8.91 -4.1697e-12 0
M  V30 3669 O 625.516 -10.1726 -0.733694 0
M  V30 3670 O 626.086 -8.73148 1.23936 0
M  V30 3671 O 625.546 -7.66872 -0.971405 0
M  V30 3672 C 624.606 -7.42309 -2.04641 0
M  V30 3673 C 625.336 -6.86059 -3.24661 0
M  V30 3674 O 625.546 -5.42847 -3.03646 0
M  V30 3675 C 626.736 -7.41196 -3.50753 0
M  V30 3676 O 627.126 -7.27073 -4.86816 0
M  V30 3677 C 627.616 -6.5273 -2.63741 0
M  V30 3678 C 626.906 -5.1842 -2.73198 0
M  V30 3679 N 626.956 -4.38762 -1.4784 0
M  V30 3680 H 624.117 -8.36803 -2.32493 0
M  V30 3681 H 623.847 -6.70197 -1.71129 0
M  V30 3682 H 624.714 -7.03551 -4.13168 0
M  V30 3683 P 628.676 -7.20834 -5.23717 0
M  V30 3684 O 628.896 -7.79853 -6.57286 0
M  V30 3685 O 629.466 -7.79239 -4.12957 0
M  V30 3686 O 628.926 -5.63315 -5.29344 0
M  V30 3687 C 627.986 -4.80255 -6.01876 0
M  V30 3688 C 628.716 -3.64202 -6.65911 0
M  V30 3689 O 628.926 -2.60694 -5.64732 0
M  V30 3690 C 630.116 -3.93473 -7.1943 0
M  V30 3691 O 630.506 -3.02071 -8.21205 0
M  V30 3692 C 630.996 -3.73047 -5.97036 0
M  V30 3693 C 630.286 -2.58828 -5.25741 0
M  V30 3694 N 630.336 -2.68068 -3.77503 0
M  V30 3695 H 627.497 -5.40332 -6.79951 0
M  V30 3696 H 627.227 -4.41613 -5.32378 0
M  V30 3697 H 628.094 -3.26331 -7.47797 0
M  V30 3698 P 632.056 -2.75334 -8.47391 0
M  V30 3699 O 632.276 -2.44595 -9.90239 0
M  V30 3700 O 632.846 -3.87732 -7.92204 0
M  V30 3701 O 632.306 -1.4459 -7.59357 0
M  V30 3702 C 631.366 -0.347563 -7.69115 0
M  V30 3703 C 632.096 0.96767 -7.52806 0
M  V30 3704 O 632.306 1.21036 -6.1011 0
M  V30 3705 C 633.496 1.04544 -8.13308 0
M  V30 3706 O 633.886 2.38311 -8.41922 0
M  V30 3707 C 634.376 0.491279 -7.02284 0
M  V30 3708 C 633.666 0.996264 -5.77469 0
M  V30 3709 N 633.716 0.0501808 -4.62873 0
M  V30 3710 C 633.866 0.588177 -3.36904 0
M  V30 3711 O 633.956 1.78598 -3.17173 0
M  V30 3712 N 633.906 -0.329694 -2.33686 0
M  V30 3713 C 633.816 -1.6953 -2.45079 0
M  V30 3714 O 633.866 -2.41926 -1.44899 0
M  V30 3715 C 633.666 -2.16933 -3.80505 0
M  V30 3716 C 633.556 -3.65373 -3.97621 0
M  V30 3717 C 633.616 -1.30326 -4.83752 0
M  V30 3718 H 630.876 -0.374722 -8.67691 0
M  V30 3719 H 630.607 -0.443421 -6.90177 0
M  V30 3720 H 631.474 1.75537 -7.96793 0
M  V30 3721 H 634.129 1.94496 -5.46629 0
M  V30 3722 H 634.408 -0.608651 -7.04676 0
M  V30 3723 H 635.4 0.889672 -7.08939 0
M  V30 3724 H 633.566 0.43308 -9.04564 0
M  V30 3725 H 633.495 -1.68366 -5.8516 0
M  V30 3726 H 634.525 -4.05985 -4.30448 0
M  V30 3727 H 632.788 -3.88028 -4.72875 0
M  V30 3728 H 633.276 -4.11381 -3.01609 0
M  V30 3729 H 634.012 0.0393617 -1.41345 0
M  V30 3730 P 635.436 2.75334 -8.47391 0
M  V30 3731 O 635.656 3.84128 -9.44797 0
M  V30 3732 O 636.226 1.51947 -8.68712 0
M  V30 3733 O 635.686 3.29363 -6.99321 0
M  V30 3734 C 634.746 4.24011 -6.4274 0
M  V30 3735 C 635.476 5.20775 -5.52155 0
M  V30 3736 O 635.686 4.56534 -4.22446 0
M  V30 3737 C 636.876 5.62629 -5.96531 0
M  V30 3738 O 637.266 6.87667 -5.41053 0
M  V30 3739 C 637.756 4.52537 -5.39283 0
M  V30 3740 C 637.046 4.20027 -4.08623 0
M  V30 3741 N 637.096 2.76189 -3.71603 0
M  V30 3742 H 634.257 4.797 -7.24003 0
M  V30 3743 H 633.987 3.69856 -5.84513 0
M  V30 3744 H 634.854 6.10356 -5.41441 0
M  V30 3745 P 638.816 7.20834 -5.23717 0
M  V30 3746 O 639.036 8.66104 -5.38572 0
M  V30 3747 O 639.606 6.33544 -6.1349 0
M  V30 3748 O 639.066 6.7751 -3.72168 0
M  V30 3749 C 638.126 7.20825 -2.7076 0
M  V30 3750 C 638.856 7.45864 -1.40599 0
M  V30 3751 O 639.066 6.17651 -0.734225 0
M  V30 3752 C 640.256 8.05808 -1.51899 0
M  V30 3753 O 640.646 8.74358 -0.335205 0
M  V30 3754 C 641.136 6.83093 -1.70294 0
M  V30 3755 C 640.426 5.79992 -0.836974 0
M  V30 3756 N 640.476 4.41864 -1.38293 0
M  V30 3757 H 637.637 8.13644 -3.0377 0
M  V30 3758 H 637.367 6.42788 -2.55485 0
M  V30 3759 H 638.234 8.12039 -0.792769 0
M  V30 3760 P 642.196 8.91 4.32688e-12 0
M  V30 3761 O 642.416 10.1726 0.733694 0
M  V30 3762 O 642.986 8.73148 -1.23936 0
M  V30 3763 O 642.446 7.66872 0.971405 0
M  V30 3764 C 641.506 7.42309 2.04641 0
M  V30 3765 C 642.236 6.86059 3.24661 0
M  V30 3766 O 642.446 5.42847 3.03646 0
M  V30 3767 C 643.636 7.41196 3.50753 0
M  V30 3768 O 644.026 7.27073 4.86816 0
M  V30 3769 C 644.516 6.5273 2.63741 0
M  V30 3770 C 643.806 5.1842 2.73198 0
M  V30 3771 N 643.856 4.38762 1.4784 0
M  V30 3772 H 641.017 8.36803 2.32493 0
M  V30 3773 H 640.747 6.70197 1.71129 0
M  V30 3774 H 641.614 7.03551 4.13168 0
M  V30 3775 P 645.576 7.20834 5.23717 0
M  V30 3776 O 645.796 7.79853 6.57286 0
M  V30 3777 O 646.366 7.79239 4.12957 0
M  V30 3778 O 645.826 5.63315 5.29344 0
M  V30 3779 C 644.886 4.80255 6.01876 0
M  V30 3780 C 645.616 3.64202 6.65911 0
M  V30 3781 O 645.826 2.60694 5.64732 0
M  V30 3782 C 647.016 3.93473 7.1943 0
M  V30 3783 O 647.406 3.02071 8.21205 0
M  V30 3784 C 647.896 3.73047 5.97036 0
M  V30 3785 C 647.186 2.58828 5.25741 0
M  V30 3786 N 647.236 2.68068 3.77503 0
M  V30 3787 H 644.397 5.40332 6.79951 0
M  V30 3788 H 644.127 4.41613 5.32378 0
M  V30 3789 H 644.994 3.26331 7.47797 0
M  V30 3790 P 648.956 2.75334 8.47391 0
M  V30 3791 O 649.176 2.44571 9.90142 0
M  V30 3792 O 649.746 3.87688 7.92115 0
M  V30 3793 O 649.206 1.4459 7.59357 0
M  V30 3794 C 648.266 0.347608 7.69215 0
M  V30 3795 C 648.996 -0.96767 7.52806 0
M  V30 3796 O 649.206 -1.21036 6.1011 0
M  V30 3797 C 650.396 -1.04544 8.13308 0
M  V30 3798 O 650.786 -2.38311 8.41922 0
M  V30 3799 C 651.276 -0.491279 7.02284 0
M  V30 3800 C 650.566 -0.996264 5.77469 0
M  V30 3801 N 650.616 -0.0501916 4.62973 0
M  V30 3802 H 647.777 0.374722 8.67691 0
M  V30 3803 H 647.507 0.443485 6.90277 0
M  V30 3804 H 648.374 -1.75537 7.96793 0
M  V30 3805 P 652.336 -2.75334 8.47391 0
M  V30 3806 O 652.556 -3.84128 9.44797 0
M  V30 3807 O 653.126 -1.51947 8.68712 0
M  V30 3808 O 652.586 -3.29363 6.99321 0
M  V30 3809 C 651.646 -4.24011 6.4274 0
M  V30 3810 C 652.376 -5.20775 5.52155 0
M  V30 3811 O 652.586 -4.56534 4.22446 0
M  V30 3812 C 653.776 -5.62629 5.96531 0
M  V30 3813 O 654.166 -6.87667 5.41053 0
M  V30 3814 C 654.656 -4.52537 5.39283 0
M  V30 3815 C 653.946 -4.20027 4.08623 0
M  V30 3816 N 653.996 -2.76189 3.71603 0
M  V30 3817 H 651.157 -4.797 7.24003 0
M  V30 3818 H 650.887 -3.69856 5.84513 0
M  V30 3819 H 651.754 -6.10356 5.41441 0
M  V30 3820 P 655.716 -7.20834 5.23717 0
M  V30 3821 O 655.936 -8.66274 5.38678 0
M  V30 3822 O 656.506 -6.33687 6.13629 0
M  V30 3823 O 655.966 -6.7751 3.72168 0
M  V30 3824 C 655.026 -7.20919 2.70795 0
M  V30 3825 C 655.756 -7.45864 1.40599 0
M  V30 3826 O 655.966 -6.17751 0.734343 0
M  V30 3827 C 657.156 -8.05906 1.51917 0
M  V30 3828 O 657.546 -8.74358 0.335205 0
M  V30 3829 C 658.036 -6.83093 1.70294 0
M  V30 3830 C 657.326 -5.79992 0.836974 0
M  V30 3831 N 657.376 -4.41864 1.38293 0
M  V30 3832 H 654.538 -8.13738 3.03804 0
M  V30 3833 H 654.266 -6.42974 2.55559 0
M  V30 3834 H 655.134 -8.12139 0.792866 0
M  V30 3835 H 657.789 -5.80178 -0.160643 0
M  V30 3836 H 658.069 -6.51379 2.75643 0
M  V30 3837 H 659.06 -7.01832 1.3448 0
M  V30 3838 H 657.226 -8.73771 2.38364 0
M  V30 3839 P 659.096 -8.91 -4.48406e-12 0
M  V30 3840 O 659.316 -10.1726 -0.733694 0
M  V30 3841 O 659.886 -8.73148 1.23936 0
M  V30 3842 O 659.346 -7.66872 -0.971405 0
M  V30 3843 C 658.406 -7.42309 -2.04641 0
M  V30 3844 C 659.136 -6.86059 -3.24661 0
M  V30 3845 O 659.346 -5.42847 -3.03646 0
M  V30 3846 C 660.536 -7.41196 -3.50753 0
M  V30 3847 O 660.926 -7.27073 -4.86816 0
M  V30 3848 C 661.416 -6.5273 -2.63741 0
M  V30 3849 C 660.706 -5.1842 -2.73198 0
M  V30 3850 N 660.756 -4.38762 -1.4784 0
M  V30 3851 H 657.917 -8.36803 -2.32493 0
M  V30 3852 H 657.647 -6.70197 -1.71129 0
M  V30 3853 H 658.514 -7.03551 -4.13168 0
M  V30 3854 P 662.476 -7.20834 -5.23717 0
M  V30 3855 O 662.696 -7.79853 -6.57286 0
M  V30 3856 O 663.266 -7.79239 -4.12957 0
M  V30 3857 O 662.726 -5.63315 -5.29344 0
M  V30 3858 C 661.786 -4.80255 -6.01876 0
M  V30 3859 C 662.516 -3.64202 -6.65911 0
M  V30 3860 O 662.726 -2.60694 -5.64732 0
M  V30 3861 C 663.916 -3.93473 -7.1943 0
M  V30 3862 O 664.306 -3.02071 -8.21205 0
M  V30 3863 C 664.796 -3.73047 -5.97036 0
M  V30 3864 C 664.086 -2.58828 -5.25741 0
M  V30 3865 N 664.136 -2.68068 -3.77503 0
M  V30 3866 C 664.056 -3.79715 -2.96723 0
M  V30 3867 N 664.136 -3.5377 -1.68852 0
M  V30 3868 C 664.276 -2.15054 -1.63254 0
M  V30 3869 C 664.406 -1.28964 -0.518571 0
M  V30 3870 O 664.426 -1.56826 0.679156 0
M  V30 3871 N 664.526 0.0538097 -0.918425 0
M  V30 3872 C 664.526 0.494275 -2.22578 0
M  V30 3873 N 664.656 1.81086 -2.40434 0
M  V30 3874 N 664.396 -0.313645 -3.27502 0
M  V30 3875 C 664.276 -1.61829 -2.91033 0
M  V30 3876 H 661.297 -5.40332 -6.79951 0
M  V30 3877 H 661.027 -4.41613 -5.32378 0
M  V30 3878 H 661.894 -3.26331 -7.47797 0
M  V30 3879 H 664.549 -1.63422 -5.56814 0
M  V30 3880 H 664.828 -4.63374 -5.34244 0
M  V30 3881 H 665.82 -3.44728 -6.25838 0
M  V30 3882 H 663.986 -4.96652 -7.57263 0
M  V30 3883 H 663.937 -4.80617 -3.3614 0
M  V30 3884 H 664.619 0.742702 -0.199384 0
M  V30 3885 H 664.656 2.20598 -3.35588 0
M  V30 3886 H 664.757 2.43518 -1.58945 0
M  V30 3887 P 665.856 -2.75334 -8.47391 0
M  V30 3888 O 666.076 -2.44619 -9.90336 0
M  V30 3889 O 666.646 -3.87776 -7.92294 0
M  V30 3890 O 666.106 -1.4459 -7.59357 0
M  V30 3891 C 665.166 -0.347653 -7.69315 0
M  V30 3892 C 665.896 0.96767 -7.52806 0
M  V30 3893 O 666.106 1.21055 -6.10208 0
M  V30 3894 C 667.296 1.04557 -8.13408 0
M  V30 3895 O 667.686 2.38311 -8.41922 0
M  V30 3896 C 668.176 0.491279 -7.02284 0
M  V30 3897 C 667.466 0.996264 -5.77469 0
M  V30 3898 N 667.516 0.0501916 -4.62973 0
M  V30 3899 H 664.678 -0.374765 -8.67791 0
M  V30 3900 H 664.406 -0.443613 -6.90476 0
M  V30 3901 H 665.274 1.75559 -7.96891 0
M  V30 3902 H 667.929 1.94563 -5.46818 0
M  V30 3903 H 668.209 -0.608651 -7.04676 0
M  V30 3904 H 669.2 0.889796 -7.09039 0
M  V30 3905 H 667.366 0.433128 -9.04664 0
M  V30 3906 P 669.236 2.75334 -8.47391 0
M  V30 3907 O 669.456 3.84128 -9.44797 0
M  V30 3908 O 670.026 1.51947 -8.68712 0
M  V30 3909 O 669.486 3.29363 -6.99321 0
M  V30 3910 C 668.546 4.24011 -6.4274 0
M  V30 3911 C 669.276 5.20775 -5.52155 0
M  V30 3912 O 669.486 4.56534 -4.22446 0
M  V30 3913 C 670.676 5.62629 -5.96531 0
M  V30 3914 O 671.066 6.87667 -5.41053 0
M  V30 3915 C 671.556 4.52537 -5.39283 0
M  V30 3916 C 670.846 4.20027 -4.08623 0
M  V30 3917 N 670.896 2.76189 -3.71603 0
M  V30 3918 C 670.816 1.64862 -4.52822 0
M  V30 3919 N 670.896 0.512671 -3.88633 0
M  V30 3920 C 671.036 0.888083 -2.54977 0
M  V30 3921 C 671.166 0.094668 -1.38677 0
M  V30 3922 O 671.186 -1.13053 -1.28163 0
M  V30 3923 N 671.286 0.890102 -0.232633 0
M  V30 3924 C 671.286 2.26958 -0.21772 0
M  V30 3925 N 671.416 2.84626 0.97925 0
M  V30 3926 N 671.156 3.0178 -1.31033 0
M  V30 3927 C 671.036 2.26781 -2.43843 0
M  V30 3928 H 668.057 4.797 -7.24003 0
M  V30 3929 H 667.787 3.69856 -5.84513 0
M  V30 3930 H 668.654 6.10356 -5.41441 0
M  V30 3931 H 671.309 4.79061 -3.27488 0
M  V30 3932 H 671.588 3.64906 -6.05785 0
M  V30 3933 H 672.58 4.8868 -5.2125 0
M  V30 3934 H 670.746 5.66726 -7.06352 0
M  V30 3935 H 670.697 1.71169 -5.60966 0
M  V30 3936 H 671.379 0.419134 0.644739 0
M  V30 3937 H 671.416 3.87332 1.06098 0
M  V30 3938 H 671.517 2.26417 1.82483 0
M  V30 3939 P 672.616 7.20834 -5.23717 0
M  V30 3940 O 672.836 8.66104 -5.38572 0
M  V30 3941 O 673.406 6.33544 -6.1349 0
M  V30 3942 O 672.866 6.7751 -3.72168 0
M  V30 3943 C 671.926 7.20825 -2.7076 0
M  V30 3944 C 672.656 7.45864 -1.40599 0
M  V30 3945 O 672.866 6.17651 -0.734225 0
M  V30 3946 C 674.056 8.05808 -1.51899 0
M  V30 3947 O 674.446 8.74358 -0.335205 0
M  V30 3948 C 674.936 6.83093 -1.70294 0
M  V30 3949 C 674.226 5.79992 -0.836974 0
M  V30 3950 N 674.276 4.41864 -1.38293 0
M  V30 3951 H 671.437 8.13644 -3.0377 0
M  V30 3952 H 671.167 6.42788 -2.55485 0
M  V30 3953 H 672.034 8.12039 -0.792769 0
M  V30 3954 P 675.996 8.91 4.64125e-12 0
M  V30 3955 O 676.216 10.1726 0.733694 0
M  V30 3956 O 676.786 8.73148 -1.23936 0
M  V30 3957 O 676.246 7.66872 0.971405 0
M  V30 3958 C 675.306 7.42309 2.04641 0
M  V30 3959 C 676.036 6.86059 3.24661 0
M  V30 3960 O 676.246 5.42847 3.03646 0
M  V30 3961 C 677.436 7.41196 3.50753 0
M  V30 3962 O 677.826 7.27073 4.86816 0
M  V30 3963 C 678.316 6.5273 2.63741 0
M  V30 3964 C 677.606 5.1842 2.73198 0
M  V30 3965 N 677.656 4.38762 1.4784 0
M  V30 3966 H 674.817 8.36803 2.32493 0
M  V30 3967 H 674.547 6.70197 1.71129 0
M  V30 3968 H 675.414 7.03551 4.13168 0
M  V30 3969 P 679.376 7.20834 5.23717 0
M  V30 3970 O 679.596 7.79853 6.57286 0
M  V30 3971 O 680.166 7.79239 4.12957 0
M  V30 3972 O 679.626 5.63315 5.29344 0
M  V30 3973 C 678.686 4.80255 6.01876 0
M  V30 3974 C 679.416 3.64202 6.65911 0
M  V30 3975 O 679.626 2.60694 5.64732 0
M  V30 3976 C 680.816 3.93473 7.1943 0
M  V30 3977 O 681.206 3.02071 8.21205 0
M  V30 3978 C 681.696 3.73047 5.97036 0
M  V30 3979 C 680.986 2.58828 5.25741 0
M  V30 3980 N 681.036 2.68068 3.77503 0
M  V30 3981 H 678.197 5.40332 6.79951 0
M  V30 3982 H 677.927 4.41613 5.32378 0
M  V30 3983 H 678.794 3.26331 7.47797 0
M  V30 3984 P 682.756 2.75334 8.47391 0
M  V30 3985 O 682.976 2.44571 9.90142 0
M  V30 3986 O 683.546 3.87688 7.92115 0
M  V30 3987 O 683.006 1.4459 7.59357 0
M  V30 3988 C 682.066 0.347608 7.69215 0
M  V30 3989 C 682.796 -0.96767 7.52806 0
M  V30 3990 O 683.006 -1.21036 6.1011 0
M  V30 3991 C 684.196 -1.04544 8.13308 0
M  V30 3992 O 684.586 -2.38311 8.41922 0
M  V30 3993 C 685.076 -0.491279 7.02284 0
M  V30 3994 C 684.366 -0.996264 5.77469 0
M  V30 3995 N 684.416 -0.0501916 4.62973 0
M  V30 3996 C 684.336 1.32786 4.63244 0
M  V30 3997 N 684.416 1.86957 3.44545 0
M  V30 3998 C 684.556 0.780241 2.58481 0
M  V30 3999 C 684.686 0.738536 1.17757 0
M  V30 4000 O 684.706 1.66794 0.372349 0
M  V30 4001 N 684.806 -0.58337 0.711393 0
M  V30 4002 C 684.806 -1.70816 1.51017 0
M  V30 4003 N 684.936 -2.87826 0.880757 0
M  V30 4004 N 684.676 -1.67126 2.8339 0
M  V30 4005 C 684.556 -0.401421 3.30572 0
M  V30 4006 H 681.577 0.374722 8.67691 0
M  V30 4007 H 681.307 0.443485 6.90277 0
M  V30 4008 H 682.174 -1.75537 7.96793 0
M  V30 4009 H 684.829 -1.95076 5.46529 0
M  V30 4010 H 685.108 0.608565 7.04577 0
M  V30 4011 H 686.1 -0.889672 7.08939 0
M  V30 4012 H 684.266 -0.43308 9.04564 0
M  V30 4013 H 684.217 1.91249 5.54442 0
M  V30 4014 H 684.899 -0.718054 -0.275244 0
M  V30 4015 H 684.936 -3.75721 1.41832 0
M  V30 4016 H 685.037 -2.90436 -0.145468 0
M  V30 4017 P 686.136 -2.75334 8.47391 0
M  V30 4018 O 686.356 -3.84204 9.44982 0
M  V30 4019 O 686.926 -1.51982 8.68909 0
M  V30 4020 O 686.386 -3.29363 6.99321 0
M  V30 4021 C 685.446 -4.24066 6.42823 0
M  V30 4022 C 686.176 -5.20775 5.52155 0
M  V30 4023 O 686.386 -4.56607 4.22514 0
M  V30 4024 C 687.576 -5.62697 5.96604 0
M  V30 4025 O 687.966 -6.87667 5.41053 0
M  V30 4026 C 688.456 -4.52537 5.39283 0
M  V30 4027 C 687.746 -4.20027 4.08623 0
M  V30 4028 N 687.796 -2.76189 3.71603 0
M  V30 4029 H 684.958 -4.79756 7.24086 0
M  V30 4030 H 684.686 -3.69963 5.84682 0
M  V30 4031 H 685.554 -6.10431 5.41508 0
M  V30 4032 H 688.209 -4.78816 3.28024 0
M  V30 4033 H 688.489 -3.64957 6.05871 0
M  V30 4034 H 689.48 -4.88748 5.21323 0
M  V30 4035 H 687.646 -5.66789 7.0643 0
M  V30 4036 P 689.516 -7.20834 5.23717 0
M  V30 4037 O 689.736 -8.66274 5.38678 0
M  V30 4038 O 690.306 -6.33687 6.13629 0
M  V30 4039 O 689.766 -6.7751 3.72168 0
M  V30 4040 C 688.826 -7.20919 2.70795 0
M  V30 4041 C 689.556 -7.45864 1.40599 0
M  V30 4042 O 689.766 -6.17751 0.734343 0
M  V30 4043 C 690.956 -8.05906 1.51917 0
M  V30 4044 O 691.346 -8.74358 0.335205 0
M  V30 4045 C 691.836 -6.83093 1.70294 0
M  V30 4046 C 691.126 -5.79992 0.836974 0
M  V30 4047 N 691.176 -4.41864 1.38293 0
M  V30 4048 C 691.096 -4.02089 2.69407 0
M  V30 4049 N 691.166 -2.73403 2.85089 0
M  V30 4050 C 691.316 -2.25086 1.5642 0
M  V30 4051 C 691.446 -0.942887 1.04836 0
M  V30 4052 N 691.456 0.150999 1.80369 0
M  V30 4053 N 691.566 -0.812565 -0.28167 0
M  V30 4054 C 691.556 -1.90572 -1.03784 0
M  V30 4055 N 691.436 -3.167 -0.683905 0
M  V30 4056 C 691.316 -3.26538 0.652815 0
M  V30 4057 H 688.338 -8.13738 3.03804 0
M  V30 4058 H 688.066 -6.42974 2.55559 0
M  V30 4059 H 688.934 -8.12139 0.792866 0
M  V30 4060 H 691.589 -5.80178 -0.160643 0
M  V30 4061 H 691.869 -6.51379 2.75643 0
M  V30 4062 H 692.86 -7.01832 1.3448 0
M  V30 4063 H 691.026 -8.73771 2.38364 0
M  V30 4064 H 690.985 -4.7189 3.52311 0
M  V30 4065 H 691.366 0.0721434 2.82608 0
M  V30 4066 H 691.555 1.0785 1.36544 0
M  V30 4067 H 691.663 -1.73207 -2.10241 0
M  V30 4068 P 692.896 -8.91 -4.67181e-12 0
M  V30 4069 O 693.116 -10.1726 -0.733694 0
M  V30 4070 O 693.686 -8.73148 1.23936 0
M  V30 4071 O 693.146 -7.66872 -0.971405 0
M  V30 4072 C 692.206 -7.42309 -2.04641 0
M  V30 4073 C 692.936 -6.86059 -3.24661 0
M  V30 4074 O 693.146 -5.42847 -3.03646 0
M  V30 4075 C 694.336 -7.41196 -3.50753 0
M  V30 4076 O 694.726 -7.27073 -4.86816 0
M  V30 4077 C 695.216 -6.5273 -2.63741 0
M  V30 4078 C 694.506 -5.1842 -2.73198 0
M  V30 4079 N 694.556 -4.38762 -1.4784 0
M  V30 4080 H 691.717 -8.36803 -2.32493 0
M  V30 4081 H 691.447 -6.70197 -1.71129 0
M  V30 4082 H 692.314 -7.03551 -4.13168 0
M  V30 4083 P 696.276 -7.20834 -5.23717 0
M  V30 4084 O 696.496 -7.79853 -6.57286 0
M  V30 4085 O 697.066 -7.79239 -4.12957 0
M  V30 4086 O 696.526 -5.63315 -5.29344 0
M  V30 4087 C 695.586 -4.80255 -6.01876 0
M  V30 4088 C 696.316 -3.64202 -6.65911 0
M  V30 4089 O 696.526 -2.60694 -5.64732 0
M  V30 4090 C 697.716 -3.93473 -7.1943 0
M  V30 4091 O 698.106 -3.02071 -8.21205 0
M  V30 4092 C 698.596 -3.73047 -5.97036 0
M  V30 4093 C 697.886 -2.58828 -5.25741 0
M  V30 4094 N 697.936 -2.68068 -3.77503 0
M  V30 4095 H 695.097 -5.40332 -6.79951 0
M  V30 4096 H 694.827 -4.41613 -5.32378 0
M  V30 4097 H 695.694 -3.26331 -7.47797 0
M  V30 4098 P 699.656 -2.75334 -8.47391 0
M  V30 4099 O 699.876 -2.44571 -9.90142 0
M  V30 4100 O 700.446 -3.87688 -7.92115 0
M  V30 4101 O 699.906 -1.4459 -7.59357 0
M  V30 4102 C 698.966 -0.347608 -7.69215 0
M  V30 4103 C 699.696 0.96767 -7.52806 0
M  V30 4104 O 699.906 1.21036 -6.1011 0
M  V30 4105 C 701.096 1.04544 -8.13308 0
M  V30 4106 O 701.486 2.38311 -8.41922 0
M  V30 4107 C 701.976 0.491279 -7.02284 0
M  V30 4108 C 701.266 0.996264 -5.77469 0
M  V30 4109 N 701.316 0.0501916 -4.62973 0
M  V30 4110 C 701.236 -1.32786 -4.63244 0
M  V30 4111 N 701.316 -1.86957 -3.44545 0
M  V30 4112 C 701.456 -0.780241 -2.58481 0
M  V30 4113 C 701.586 -0.738536 -1.17757 0
M  V30 4114 O 701.606 -1.66794 -0.372349 0
M  V30 4115 N 701.706 0.58337 -0.711393 0
M  V30 4116 C 701.706 1.70816 -1.51017 0
M  V30 4117 N 701.836 2.87826 -0.880757 0
M  V30 4118 N 701.576 1.67126 -2.8339 0
M  V30 4119 C 701.456 0.401421 -3.30572 0
M  V30 4120 H 698.477 -0.374722 -8.67691 0
M  V30 4121 H 698.207 -0.443485 -6.90277 0
M  V30 4122 H 699.074 1.75537 -7.96793 0
M  V30 4123 H 701.729 1.95076 -5.46529 0
M  V30 4124 H 702.008 -0.608565 -7.04577 0
M  V30 4125 H 703 0.889672 -7.08939 0
M  V30 4126 H 701.166 0.43308 -9.04564 0
M  V30 4127 H 701.117 -1.91249 -5.54442 0
M  V30 4128 H 701.799 0.718054 0.275244 0
M  V30 4129 H 701.836 3.75721 -1.41832 0
M  V30 4130 H 701.937 2.90436 0.145468 0
M  V30 4131 P 703.036 2.75334 -8.47391 0
M  V30 4132 O 703.256 3.84128 -9.44797 0
M  V30 4133 O 703.826 1.51947 -8.68712 0
M  V30 4134 O 703.286 3.29363 -6.99321 0
M  V30 4135 C 702.346 4.24011 -6.4274 0
M  V30 4136 C 703.076 5.20775 -5.52155 0
M  V30 4137 O 703.286 4.56534 -4.22446 0
M  V30 4138 C 704.476 5.62629 -5.96531 0
M  V30 4139 O 704.866 6.87667 -5.41053 0
M  V30 4140 C 705.356 4.52537 -5.39283 0
M  V30 4141 C 704.646 4.20027 -4.08623 0
M  V30 4142 N 704.696 2.76189 -3.71603 0
M  V30 4143 H 701.857 4.797 -7.24003 0
M  V30 4144 H 701.587 3.69856 -5.84513 0
M  V30 4145 H 702.454 6.10356 -5.41441 0
M  V30 4146 P 706.416 7.20834 -5.23717 0
M  V30 4147 O 706.636 8.66104 -5.38572 0
M  V30 4148 O 707.206 6.33544 -6.1349 0
M  V30 4149 O 706.666 6.7751 -3.72168 0
M  V30 4150 C 705.726 7.20825 -2.7076 0
M  V30 4151 C 706.456 7.45864 -1.40599 0
M  V30 4152 O 706.666 6.17651 -0.734225 0
M  V30 4153 C 707.856 8.05808 -1.51899 0
M  V30 4154 O 708.246 8.74358 -0.335205 0
M  V30 4155 C 708.736 6.83093 -1.70294 0
M  V30 4156 C 708.026 5.79992 -0.836974 0
M  V30 4157 N 708.076 4.41864 -1.38293 0
M  V30 4158 H 705.237 8.13644 -3.0377 0
M  V30 4159 H 704.967 6.42788 -2.55485 0
M  V30 4160 H 705.834 8.12039 -0.792769 0
M  V30 4161 P 709.796 8.91 4.82899e-12 0
M  V30 4162 O 710.016 10.1726 0.733694 0
M  V30 4163 O 710.586 8.73148 -1.23936 0
M  V30 4164 O 710.046 7.66872 0.971405 0
M  V30 4165 C 709.106 7.42309 2.04641 0
M  V30 4166 C 709.836 6.86059 3.24661 0
M  V30 4167 O 710.046 5.42847 3.03646 0
M  V30 4168 C 711.236 7.41196 3.50753 0
M  V30 4169 O 711.626 7.27073 4.86816 0
M  V30 4170 C 712.116 6.5273 2.63741 0
M  V30 4171 C 711.406 5.1842 2.73198 0
M  V30 4172 N 711.456 4.38762 1.4784 0
M  V30 4173 H 708.617 8.36803 2.32493 0
M  V30 4174 H 708.347 6.70197 1.71129 0
M  V30 4175 H 709.214 7.03551 4.13168 0
M  V30 4176 P 713.176 7.20834 5.23717 0
M  V30 4177 O 713.396 7.79853 6.57286 0
M  V30 4178 O 713.966 7.79239 4.12957 0
M  V30 4179 O 713.426 5.63315 5.29344 0
M  V30 4180 C 712.486 4.80255 6.01876 0
M  V30 4181 C 713.216 3.64202 6.65911 0
M  V30 4182 O 713.426 2.60694 5.64732 0
M  V30 4183 C 714.616 3.93473 7.1943 0
M  V30 4184 O 715.006 3.02071 8.21205 0
M  V30 4185 C 715.496 3.73047 5.97036 0
M  V30 4186 C 714.786 2.58828 5.25741 0
M  V30 4187 N 714.836 2.68068 3.77503 0
M  V30 4188 H 711.997 5.40332 6.79951 0
M  V30 4189 H 711.727 4.41613 5.32378 0
M  V30 4190 H 712.594 3.26331 7.47797 0
M  V30 4191 P 716.556 2.75334 8.47391 0
M  V30 4192 O 716.776 2.44571 9.90142 0
M  V30 4193 O 717.346 3.87688 7.92115 0
M  V30 4194 O 716.806 1.4459 7.59357 0
M  V30 4195 C 715.866 0.347608 7.69215 0
M  V30 4196 C 716.596 -0.96767 7.52806 0
M  V30 4197 O 716.806 -1.21036 6.1011 0
M  V30 4198 C 717.996 -1.04544 8.13308 0
M  V30 4199 O 718.386 -2.38311 8.41922 0
M  V30 4200 C 718.876 -0.491279 7.02284 0
M  V30 4201 C 718.166 -0.996264 5.77469 0
M  V30 4202 N 718.216 -0.0501916 4.62973 0
M  V30 4203 H 715.377 0.374722 8.67691 0
M  V30 4204 H 715.107 0.443485 6.90277 0
M  V30 4205 H 715.974 -1.75537 7.96793 0
M  V30 4206 P 719.936 -2.75334 8.47391 0
M  V30 4207 O 720.156 -3.84204 9.44982 0
M  V30 4208 O 720.726 -1.51982 8.68909 0
M  V30 4209 O 720.186 -3.29363 6.99321 0
M  V30 4210 C 719.246 -4.24066 6.42823 0
M  V30 4211 C 719.976 -5.20775 5.52155 0
M  V30 4212 O 720.186 -4.56607 4.22514 0
M  V30 4213 C 721.376 -5.62697 5.96604 0
M  V30 4214 O 721.766 -6.87667 5.41053 0
M  V30 4215 C 722.256 -4.52537 5.39283 0
M  V30 4216 C 721.546 -4.20027 4.08623 0
M  V30 4217 N 721.596 -2.76189 3.71603 0
M  V30 4218 C 721.516 -1.66944 4.54297 0
M  V30 4219 N 721.586 -0.536169 3.91344 0
M  V30 4220 C 721.736 -0.901569 2.58849 0
M  V30 4221 C 721.866 -0.146599 1.40236 0
M  V30 4222 N 721.876 1.18234 1.37046 0
M  V30 4223 N 721.986 -0.822941 0.249738 0
M  V30 4224 C 721.976 -2.15179 0.280525 0
M  V30 4225 N 721.856 -2.96414 1.30822 0
M  V30 4226 C 721.736 -2.25804 2.44748 0
M  V30 4227 H 718.758 -4.79756 7.24086 0
M  V30 4228 H 718.486 -3.69963 5.84682 0
M  V30 4229 H 719.354 -6.10431 5.41508 0
M  V30 4230 H 722.009 -4.78816 3.28024 0
M  V30 4231 H 722.289 -3.64957 6.05871 0
M  V30 4232 H 723.28 -4.88748 5.21323 0
M  V30 4233 H 721.446 -5.66789 7.0643 0
M  V30 4234 H 721.405 -1.74684 5.62396 0
M  V30 4235 H 721.786 1.71949 2.24394 0
M  V30 4236 H 721.975 1.67511 0.470742 0
M  V30 4237 H 722.083 -2.63704 -0.6828 0
M  V30 4238 P 723.316 -7.20834 5.23717 0
M  V30 4239 O 723.536 -8.66104 5.38572 0
M  V30 4240 O 724.106 -6.33544 6.1349 0
M  V30 4241 O 723.566 -6.7751 3.72168 0
M  V30 4242 C 722.626 -7.20825 2.7076 0
M  V30 4243 C 723.356 -7.45864 1.40599 0
M  V30 4244 O 723.566 -6.17651 0.734225 0
M  V30 4245 C 724.756 -8.05808 1.51899 0
M  V30 4246 O 725.146 -8.74358 0.335205 0
M  V30 4247 C 725.636 -6.83093 1.70294 0
M  V30 4248 C 724.926 -5.79992 0.836974 0
M  V30 4249 N 724.976 -4.41864 1.38293 0
M  V30 4250 H 722.137 -8.13644 3.0377 0
M  V30 4251 H 721.867 -6.42788 2.55485 0
M  V30 4252 H 722.734 -8.12039 0.792769 0
M  V30 4253 P 726.696 -8.91 -4.98617e-12 0
M  V30 4254 O 726.916 -10.1726 -0.733694 0
M  V30 4255 O 727.486 -8.73148 1.23936 0
M  V30 4256 O 726.946 -7.66872 -0.971405 0
M  V30 4257 C 726.006 -7.42309 -2.04641 0
M  V30 4258 C 726.736 -6.86059 -3.24661 0
M  V30 4259 O 726.946 -5.42847 -3.03646 0
M  V30 4260 C 728.136 -7.41196 -3.50753 0
M  V30 4261 O 728.526 -7.27073 -4.86816 0
M  V30 4262 C 729.016 -6.5273 -2.63741 0
M  V30 4263 C 728.306 -5.1842 -2.73198 0
M  V30 4264 N 728.356 -4.38762 -1.4784 0
M  V30 4265 H 725.517 -8.36803 -2.32493 0
M  V30 4266 H 725.247 -6.70197 -1.71129 0
M  V30 4267 H 726.114 -7.03551 -4.13168 0
M  V30 4268 P 730.076 -7.20834 -5.23717 0
M  V30 4269 O 730.296 -7.7993 -6.57351 0
M  V30 4270 O 730.866 -7.79328 -4.13004 0
M  V30 4271 O 730.326 -5.63315 -5.29344 0
M  V30 4272 C 729.386 -4.80193 -6.01798 0
M  V30 4273 C 730.116 -3.64202 -6.65911 0
M  V30 4274 O 730.326 -2.60694 -5.64732 0
M  V30 4275 C 731.516 -3.93473 -7.1943 0
M  V30 4276 O 731.906 -3.02071 -8.21205 0
M  V30 4277 C 732.396 -3.73047 -5.97036 0
M  V30 4278 C 731.686 -2.58828 -5.25741 0
M  V30 4279 N 731.736 -2.6801 -3.77422 0
M  V30 4280 C 731.886 -1.50443 -3.07133 0
M  V30 4281 O 731.976 -0.419406 -3.61576 0
M  V30 4282 N 731.926 -1.6403 -1.69677 0
M  V30 4283 C 731.836 -2.81206 -0.986255 0
M  V30 4284 O 731.886 -2.80892 0.249754 0
M  V30 4285 C 731.686 -3.99158 -1.80325 0
M  V30 4286 C 731.576 -5.29309 -1.06921 0
M  V30 4287 C 731.636 -3.89779 -3.1476 0
M  V30 4288 H 728.896 -5.40332 -6.79951 0
M  V30 4289 H 728.627 -4.41549 -5.32301 0
M  V30 4290 H 729.494 -3.26331 -7.47797 0
M  V30 4291 H 732.149 -1.6395 -5.56554 0
M  V30 4292 H 732.428 -4.63439 -5.3432 0
M  V30 4293 H 733.42 -3.44728 -6.25838 0
M  V30 4294 H 731.586 -4.96652 -7.57263 0
M  V30 4295 H 731.515 -4.80159 -3.74441 0
M  V30 4296 H 732.545 -5.81459 -1.09608 0
M  V30 4297 H 730.808 -5.9187 -1.54487 0
M  V30 4298 H 731.296 -5.10095 -0.0220288 0
M  V30 4299 H 732.032 -0.798962 -1.16664 0
M  V30 4300 P 733.456 -2.75334 -8.47391 0
M  V30 4301 O 733.676 -2.44571 -9.90142 0
M  V30 4302 O 734.246 -3.87688 -7.92115 0
M  V30 4303 O 733.706 -1.4459 -7.59357 0
M  V30 4304 C 732.766 -0.347608 -7.69215 0
M  V30 4305 C 733.496 0.96767 -7.52806 0
M  V30 4306 O 733.706 1.21036 -6.1011 0
M  V30 4307 C 734.896 1.04544 -8.13308 0
M  V30 4308 O 735.286 2.38311 -8.41922 0
M  V30 4309 C 735.776 0.491279 -7.02284 0
M  V30 4310 C 735.066 0.996264 -5.77469 0
M  V30 4311 N 735.116 0.0501916 -4.62973 0
M  V30 4312 H 732.277 -0.374722 -8.67691 0
M  V30 4313 H 732.007 -0.443485 -6.90277 0
M  V30 4314 H 732.874 1.75537 -7.96793 0
M  V30 4315 P 736.836 2.75334 -8.47391 0
M  V30 4316 O 737.056 3.84128 -9.44797 0
M  V30 4317 O 737.626 1.51947 -8.68712 0
M  V30 4318 O 737.086 3.29363 -6.99321 0
M  V30 4319 C 736.146 4.24011 -6.4274 0
M  V30 4320 C 736.876 5.20775 -5.52155 0
M  V30 4321 O 737.086 4.56534 -4.22446 0
M  V30 4322 C 738.276 5.62629 -5.96531 0
M  V30 4323 O 738.666 6.87667 -5.41053 0
M  V30 4324 C 739.156 4.52537 -5.39283 0
M  V30 4325 C 738.446 4.20027 -4.08623 0
M  V30 4326 N 738.496 2.76189 -3.71603 0
M  V30 4327 C 738.416 1.64862 -4.52822 0
M  V30 4328 N 738.496 0.512671 -3.88633 0
M  V30 4329 C 738.636 0.888083 -2.54977 0
M  V30 4330 C 738.766 0.094668 -1.38677 0
M  V30 4331 N 738.886 0.890102 -0.232633 0
M  V30 4332 C 738.886 2.26958 -0.21772 0
M  V30 4333 N 739.016 2.84626 0.97925 0
M  V30 4334 N 738.756 3.0178 -1.31033 0
M  V30 4335 C 738.636 2.26781 -2.43843 0
M  V30 4336 H 735.657 4.797 -7.24003 0
M  V30 4337 H 735.387 3.69856 -5.84513 0
M  V30 4338 H 736.254 6.10356 -5.41441 0
M  V30 4339 P 740.216 7.20834 -5.23717 0
M  V30 4340 O 740.436 8.66274 -5.38678 0
M  V30 4341 O 741.006 6.33687 -6.13629 0
M  V30 4342 O 740.466 6.7751 -3.72168 0
M  V30 4343 C 739.526 7.20919 -2.70795 0
M  V30 4344 C 740.256 7.45864 -1.40599 0
M  V30 4345 O 740.466 6.17751 -0.734343 0
M  V30 4346 C 741.656 8.05906 -1.51917 0
M  V30 4347 O 742.046 8.74358 -0.335205 0
M  V30 4348 C 742.536 6.83093 -1.70294 0
M  V30 4349 C 741.826 5.79992 -0.836974 0
M  V30 4350 N 741.876 4.41864 -1.38293 0
M  V30 4351 C 741.796 4.02089 -2.69407 0
M  V30 4352 N 741.866 2.73403 -2.85089 0
M  V30 4353 C 742.016 2.25086 -1.5642 0
M  V30 4354 C 742.146 0.942887 -1.04836 0
M  V30 4355 N 742.156 -0.150999 -1.80369 0
M  V30 4356 N 742.266 0.812565 0.28167 0
M  V30 4357 C 742.256 1.90572 1.03784 0
M  V30 4358 N 742.136 3.167 0.683905 0
M  V30 4359 C 742.016 3.26538 -0.652815 0
M  V30 4360 H 739.038 8.13738 -3.03804 0
M  V30 4361 H 738.766 6.42974 -2.55559 0
M  V30 4362 H 739.634 8.12139 -0.792866 0
M  V30 4363 H 742.289 5.80178 0.160643 0
M  V30 4364 H 742.569 6.51379 -2.75643 0
M  V30 4365 H 743.56 7.01832 -1.3448 0
M  V30 4366 H 741.726 8.73771 -2.38364 0
M  V30 4367 H 741.685 4.7189 -3.52311 0
M  V30 4368 H 742.066 -0.0721434 -2.82608 0
M  V30 4369 H 742.255 -1.0785 -1.36544 0
M  V30 4370 H 742.363 1.73207 2.10241 0
M  V30 4371 P 743.596 8.91 5.14336e-12 0
M  V30 4372 O 743.816 10.1746 0.733838 0
M  V30 4373 O 744.386 8.73346 -1.23964 0
M  V30 4374 O 743.846 7.66872 0.971405 0
M  V30 4375 C 742.906 7.42405 2.04668 0
M  V30 4376 C 743.636 6.86059 3.24661 0
M  V30 4377 O 743.846 5.42934 3.03695 0
M  V30 4378 C 745.036 7.41287 3.50796 0
M  V30 4379 O 745.426 7.27073 4.86816 0
M  V30 4380 C 745.916 6.5273 2.63741 0
M  V30 4381 C 745.206 5.1842 2.73198 0
M  V30 4382 N 745.256 4.38762 1.4784 0
M  V30 4383 H 742.418 8.36899 2.3252 0
M  V30 4384 H 742.146 6.70391 1.71179 0
M  V30 4385 H 743.014 7.03638 4.13219 0
M  V30 4386 H 745.669 4.59931 3.54016 0
M  V30 4387 H 745.949 6.88995 1.59871 0
M  V30 4388 H 746.94 6.4684 3.0373 0
M  V30 4389 H 745.106 8.47002 3.20749 0
M  V30 4390 P 746.976 7.20834 5.23717 0
M  V30 4391 O 747.196 7.79853 6.57286 0
M  V30 4392 O 747.766 7.79239 4.12957 0
M  V30 4393 O 747.226 5.63315 5.29344 0
M  V30 4394 C 746.286 4.80255 6.01876 0
M  V30 4395 C 747.016 3.64202 6.65911 0
M  V30 4396 O 747.226 2.60694 5.64732 0
M  V30 4397 C 748.416 3.93473 7.1943 0
M  V30 4398 O 748.806 3.02071 8.21205 0
M  V30 4399 C 749.296 3.73047 5.97036 0
M  V30 4400 C 748.586 2.58828 5.25741 0
M  V30 4401 N 748.636 2.68068 3.77503 0
M  V30 4402 H 745.797 5.40332 6.79951 0
M  V30 4403 H 745.527 4.41613 5.32378 0
M  V30 4404 H 746.394 3.26331 7.47797 0
M  V30 4405 P 750.356 2.75334 8.47391 0
M  V30 4406 O 750.576 2.44619 9.90336 0
M  V30 4407 O 751.146 3.87776 7.92294 0
M  V30 4408 O 750.606 1.4459 7.59357 0
M  V30 4409 C 749.666 0.347653 7.69315 0
M  V30 4410 C 750.396 -0.96767 7.52806 0
M  V30 4411 O 750.606 -1.21055 6.10208 0
M  V30 4412 C 751.796 -1.04557 8.13408 0
M  V30 4413 O 752.186 -2.38311 8.41922 0
M  V30 4414 C 752.676 -0.491279 7.02284 0
M  V30 4415 C 751.966 -0.996264 5.77469 0
M  V30 4416 N 752.016 -0.0501916 4.62973 0
M  V30 4417 C 751.936 1.31969 4.65661 0
M  V30 4418 N 752.006 1.86649 3.48119 0
M  V30 4419 C 752.156 0.792089 2.62406 0
M  V30 4420 C 752.286 0.705684 1.2207 0
M  V30 4421 N 752.296 1.76207 0.413762 0
M  V30 4422 N 752.406 -0.518981 0.685754 0
M  V30 4423 C 752.396 -1.57595 1.49174 0
M  V30 4424 N 752.276 -1.62909 2.80066 0
M  V30 4425 C 752.156 -0.388195 3.3073 0
M  V30 4426 H 749.178 0.374765 8.67791 0
M  V30 4427 H 748.906 0.443613 6.90476 0
M  V30 4428 H 749.774 -1.75559 7.96891 0
M  V30 4429 H 752.429 -1.94563 5.46818 0
M  V30 4430 H 752.709 0.608651 7.04676 0
M  V30 4431 H 753.7 -0.889796 7.09039 0
M  V30 4432 H 751.866 -0.433128 9.04664 0
M  V30 4433 H 751.825 1.89246 5.57664 0
M  V30 4434 H 752.206 2.71005 0.804694 0
M  V30 4435 H 752.395 1.63189 -0.603768 0
M  V30 4436 H 752.503 -2.53475 0.997614 0
M  V30 4437 P 753.736 -2.75334 8.47391 0
M  V30 4438 O 753.956 -3.84128 9.44797 0
M  V30 4439 O 754.526 -1.51947 8.68712 0
M  V30 4440 O 753.986 -3.29363 6.99321 0
M  V30 4441 C 753.046 -4.24011 6.4274 0
M  V30 4442 C 753.776 -5.20775 5.52155 0
M  V30 4443 O 753.986 -4.56534 4.22446 0
M  V30 4444 C 755.176 -5.62629 5.96531 0
M  V30 4445 O 755.566 -6.87667 5.41053 0
M  V30 4446 C 756.056 -4.52537 5.39283 0
M  V30 4447 C 755.346 -4.20027 4.08623 0
M  V30 4448 N 755.396 -2.76189 3.71603 0
M  V30 4449 H 752.557 -4.797 7.24003 0
M  V30 4450 H 752.287 -3.69856 5.84513 0
M  V30 4451 H 753.154 -6.10356 5.41441 0
M  V30 4452 P 757.116 -7.20834 5.23717 0
M  V30 4453 O 757.336 -8.66104 5.38572 0
M  V30 4454 O 757.906 -6.33544 6.1349 0
M  V30 4455 O 757.366 -6.7751 3.72168 0
M  V30 4456 C 756.426 -7.20825 2.7076 0
M  V30 4457 C 757.156 -7.45864 1.40599 0
M  V30 4458 O 757.366 -6.17651 0.734225 0
M  V30 4459 C 758.556 -8.05808 1.51899 0
M  V30 4460 O 758.946 -8.74358 0.335205 0
M  V30 4461 C 759.436 -6.83093 1.70294 0
M  V30 4462 C 758.726 -5.79992 0.836974 0
M  V30 4463 N 758.776 -4.41864 1.38293 0
M  V30 4464 H 755.937 -8.13644 3.0377 0
M  V30 4465 H 755.667 -6.42788 2.55485 0
M  V30 4466 H 756.534 -8.12039 0.792769 0
M  V30 4467 P 760.496 -8.91 -5.30054e-12 0
M  V30 4468 O 760.716 -10.1746 -0.733838 0
M  V30 4469 O 761.286 -8.73346 1.23964 0
M  V30 4470 O 760.746 -7.66872 -0.971405 0
M  V30 4471 C 759.806 -7.42405 -2.04668 0
M  V30 4472 C 760.536 -6.86059 -3.24661 0
M  V30 4473 O 760.746 -5.42934 -3.03695 0
M  V30 4474 C 761.936 -7.41287 -3.50796 0
M  V30 4475 O 762.326 -7.27073 -4.86816 0
M  V30 4476 C 762.816 -6.5273 -2.63741 0
M  V30 4477 C 762.106 -5.1842 -2.73198 0
M  V30 4478 N 762.156 -4.38762 -1.4784 0
M  V30 4479 H 759.318 -8.36899 -2.3252 0
M  V30 4480 H 759.046 -6.70391 -1.71179 0
M  V30 4481 H 759.914 -7.03638 -4.13219 0
M  V30 4482 H 762.569 -4.59931 -3.54016 0
M  V30 4483 H 762.849 -6.88995 -1.59871 0
M  V30 4484 H 763.84 -6.4684 -3.0373 0
M  V30 4485 H 762.006 -8.47002 -3.20749 0
M  V30 4486 P 763.875 -7.20834 -5.23717 0
M  V30 4487 O 764.095 -7.79853 -6.57286 0
M  V30 4488 O 764.665 -7.79239 -4.12957 0
M  V30 4489 O 764.125 -5.63315 -5.29344 0
M  V30 4490 C 763.185 -4.80255 -6.01876 0
M  V30 4491 C 763.915 -3.64202 -6.65911 0
M  V30 4492 O 764.125 -2.60694 -5.64732 0
M  V30 4493 C 765.315 -3.93473 -7.1943 0
M  V30 4494 O 765.705 -3.02071 -8.21205 0
M  V30 4495 C 766.195 -3.73047 -5.97036 0
M  V30 4496 C 765.485 -2.58828 -5.25741 0
M  V30 4497 N 765.535 -2.68068 -3.77503 0
M  V30 4498 H 762.696 -5.40332 -6.79951 0
M  V30 4499 H 762.426 -4.41613 -5.32378 0
M  V30 4500 H 763.293 -3.26331 -7.47797 0
M  V30 4501 P 767.255 -2.75334 -8.47391 0
M  V30 4502 O 767.475 -2.44571 -9.90142 0
M  V30 4503 O 768.045 -3.87688 -7.92115 0
M  V30 4504 O 767.505 -1.4459 -7.59357 0
M  V30 4505 C 766.565 -0.347608 -7.69215 0
M  V30 4506 C 767.295 0.96767 -7.52806 0
M  V30 4507 O 767.505 1.21036 -6.1011 0
M  V30 4508 C 768.695 1.04544 -8.13308 0
M  V30 4509 O 769.085 2.38311 -8.41922 0
M  V30 4510 C 769.575 0.491279 -7.02284 0
M  V30 4511 C 768.865 0.996264 -5.77469 0
M  V30 4512 N 768.915 0.0501916 -4.62973 0
M  V30 4513 H 766.076 -0.374722 -8.67691 0
M  V30 4514 H 765.806 -0.443485 -6.90277 0
M  V30 4515 H 766.673 1.75537 -7.96793 0
M  V30 4516 P 770.635 2.75334 -8.47391 0
M  V30 4517 O 770.855 3.84128 -9.44797 0
M  V30 4518 O 771.425 1.51947 -8.68712 0
M  V30 4519 O 770.885 3.29363 -6.99321 0
M  V30 4520 C 769.945 4.24011 -6.4274 0
M  V30 4521 C 770.675 5.20775 -5.52155 0
M  V30 4522 O 770.885 4.56534 -4.22446 0
M  V30 4523 C 772.075 5.62629 -5.96531 0
M  V30 4524 O 772.465 6.87667 -5.41053 0
M  V30 4525 C 772.955 4.52537 -5.39283 0
M  V30 4526 C 772.245 4.20027 -4.08623 0
M  V30 4527 N 772.295 2.76189 -3.71603 0
M  V30 4528 C 772.215 1.64862 -4.52822 0
M  V30 4529 N 772.295 0.512671 -3.88633 0
M  V30 4530 C 772.435 0.888083 -2.54977 0
M  V30 4531 C 772.565 0.094668 -1.38677 0
M  V30 4532 N 772.685 0.890102 -0.232633 0
M  V30 4533 C 772.685 2.26958 -0.21772 0
M  V30 4534 N 772.815 2.84626 0.97925 0
M  V30 4535 N 772.555 3.0178 -1.31033 0
M  V30 4536 C 772.435 2.26781 -2.43843 0
M  V30 4537 H 769.456 4.797 -7.24003 0
M  V30 4538 H 769.186 3.69856 -5.84513 0
M  V30 4539 H 770.053 6.10356 -5.41441 0
M  V30 4540 P 774.015 7.20834 -5.23717 0
M  V30 4541 O 774.235 8.66104 -5.38572 0
M  V30 4542 O 774.805 6.33544 -6.1349 0
M  V30 4543 O 774.265 6.7751 -3.72168 0
M  V30 4544 C 773.325 7.20825 -2.7076 0
M  V30 4545 C 774.055 7.45864 -1.40599 0
M  V30 4546 O 774.265 6.17651 -0.734225 0
M  V30 4547 C 775.455 8.05808 -1.51899 0
M  V30 4548 O 775.845 8.74358 -0.335205 0
M  V30 4549 C 776.335 6.83093 -1.70294 0
M  V30 4550 C 775.625 5.79992 -0.836974 0
M  V30 4551 N 775.675 4.41864 -1.38293 0
M  V30 4552 C 775.595 3.99538 -2.69438 0
M  V30 4553 N 775.675 2.69909 -2.84277 0
M  V30 4554 C 775.815 2.21719 -1.5408 0
M  V30 4555 C 775.945 0.891712 -1.06628 0
M  V30 4556 O 775.965 -0.161298 -1.70137 0
M  V30 4557 N 776.065 0.856846 0.334985 0
M  V30 4558 C 776.065 1.9641 1.15789 0
M  V30 4559 N 776.195 1.72708 2.46522 0
M  V30 4560 N 775.935 3.21165 0.713741 0
M  V30 4561 C 775.815 3.26797 -0.639748 0
M  V30 4562 H 772.836 8.13644 -3.0377 0
M  V30 4563 H 772.566 6.42788 -2.55485 0
M  V30 4564 H 773.433 8.12039 -0.792769 0
M  V30 4565 H 776.088 5.80061 0.166416 0
M  V30 4566 H 776.367 6.51287 -2.75604 0
M  V30 4567 H 777.359 7.01734 -1.34462 0
M  V30 4568 H 775.525 8.73674 -2.38337 0
M  V30 4569 H 775.476 4.68207 -3.53221 0
M  V30 4570 H 776.158 -0.0398818 0.767965 0
M  V30 4571 H 776.195 2.50995 3.13503 0
M  V30 4572 H 776.296 0.759148 2.80716 0
M  V30 4573 P 777.395 8.91 5.45772e-12 0
M  V30 4574 O 777.615 10.1746 0.733838 0
M  V30 4575 O 778.185 8.73346 -1.23964 0
M  V30 4576 O 777.645 7.66872 0.971405 0
M  V30 4577 C 776.705 7.42405 2.04668 0
M  V30 4578 C 777.435 6.86059 3.24661 0
M  V30 4579 O 777.645 5.42934 3.03695 0
M  V30 4580 C 778.835 7.41287 3.50796 0
M  V30 4581 O 779.225 7.27073 4.86816 0
M  V30 4582 C 779.715 6.5273 2.63741 0
M  V30 4583 C 779.005 5.1842 2.73198 0
M  V30 4584 N 779.055 4.38762 1.4784 0
M  V30 4585 H 776.217 8.36899 2.3252 0
M  V30 4586 H 775.945 6.70391 1.71179 0
M  V30 4587 H 776.813 7.03638 4.13219 0
M  V30 4588 H 779.468 4.59931 3.54016 0
M  V30 4589 H 779.748 6.88995 1.59871 0
M  V30 4590 H 780.739 6.4684 3.0373 0
M  V30 4591 H 778.905 8.47002 3.20749 0
M  V30 4592 P 780.775 7.20834 5.23717 0
M  V30 4593 O 780.995 7.79853 6.57286 0
M  V30 4594 O 781.565 7.79239 4.12957 0
M  V30 4595 O 781.025 5.63315 5.29344 0
M  V30 4596 C 780.085 4.80255 6.01876 0
M  V30 4597 C 780.815 3.64202 6.65911 0
M  V30 4598 O 781.025 2.60694 5.64732 0
M  V30 4599 C 782.215 3.93473 7.1943 0
M  V30 4600 O 782.605 3.02071 8.21205 0
M  V30 4601 C 783.095 3.73047 5.97036 0
M  V30 4602 C 782.385 2.58828 5.25741 0
M  V30 4603 N 782.435 2.68068 3.77503 0
M  V30 4604 H 779.596 5.40332 6.79951 0
M  V30 4605 H 779.326 4.41613 5.32378 0
M  V30 4606 H 780.193 3.26331 7.47797 0
M  V30 4607 P 784.155 2.75334 8.47391 0
M  V30 4608 O 784.375 2.44571 9.90142 0
M  V30 4609 O 784.945 3.87688 7.92115 0
M  V30 4610 O 784.405 1.4459 7.59357 0
M  V30 4611 C 783.465 0.347608 7.69215 0
M  V30 4612 C 784.195 -0.96767 7.52806 0
M  V30 4613 O 784.405 -1.21036 6.1011 0
M  V30 4614 C 785.595 -1.04544 8.13308 0
M  V30 4615 O 785.985 -2.38311 8.41922 0
M  V30 4616 C 786.475 -0.491279 7.02284 0
M  V30 4617 C 785.765 -0.996264 5.77469 0
M  V30 4618 N 785.815 -0.0501916 4.62973 0
M  V30 4619 H 782.976 0.374722 8.67691 0
M  V30 4620 H 782.706 0.443485 6.90277 0
M  V30 4621 H 783.573 -1.75537 7.96793 0
M  V30 4622 P 787.535 -2.75334 8.47391 0
M  V30 4623 O 787.755 -3.84128 9.44797 0
M  V30 4624 O 788.325 -1.51947 8.68712 0
M  V30 4625 O 787.785 -3.29363 6.99321 0
M  V30 4626 C 786.845 -4.24011 6.4274 0
M  V30 4627 C 787.575 -5.20775 5.52155 0
M  V30 4628 O 787.785 -4.56534 4.22446 0
M  V30 4629 C 788.975 -5.62629 5.96531 0
M  V30 4630 O 789.365 -6.87667 5.41053 0
M  V30 4631 C 789.855 -4.52537 5.39283 0
M  V30 4632 C 789.145 -4.20027 4.08623 0
M  V30 4633 N 789.195 -2.76189 3.71603 0
M  V30 4634 H 786.356 -4.797 7.24003 0
M  V30 4635 H 786.086 -3.69856 5.84513 0
M  V30 4636 H 786.953 -6.10356 5.41441 0
M  V30 4637 P 790.915 -7.20834 5.23717 0
M  V30 4638 O 791.135 -8.66189 5.38625 0
M  V30 4639 O 791.705 -6.33615 6.1356 0
M  V30 4640 O 791.165 -6.7751 3.72168 0
M  V30 4641 C 790.225 -7.20732 2.70725 0
M  V30 4642 C 790.955 -7.45864 1.40599 0
M  V30 4643 O 791.165 -6.17651 0.734225 0
M  V30 4644 C 792.355 -8.05808 1.51899 0
M  V30 4645 O 792.745 -8.74358 0.335205 0
M  V30 4646 C 793.235 -6.83093 1.70294 0
M  V30 4647 C 792.525 -5.79992 0.836974 0
M  V30 4648 N 792.575 -4.41769 1.38263 0
M  V30 4649 C 792.725 -3.38591 0.481702 0
M  V30 4650 O 792.815 -3.56839 -0.718452 0
M  V30 4651 N 792.765 -2.1206 1.03569 0
M  V30 4652 C 792.675 -1.80696 2.36966 0
M  V30 4653 O 792.725 -0.630473 2.74862 0
M  V30 4654 C 792.525 -2.94845 3.23898 0
M  V30 4655 C 792.415 -2.65253 4.70362 0
M  V30 4656 C 792.475 -4.19803 2.73435 0
M  V30 4657 H 789.735 -8.13644 3.0377 0
M  V30 4658 H 789.466 -6.42695 2.55448 0
M  V30 4659 H 790.333 -8.12039 0.792769 0
M  V30 4660 H 792.988 -5.79978 -0.160587 0
M  V30 4661 H 793.267 -6.51379 2.75643 0
M  V30 4662 H 794.259 -7.01734 1.34462 0
M  V30 4663 H 792.425 -8.73674 2.38337 0
M  V30 4664 H 792.354 -5.04492 3.4095 0
M  V30 4665 H 793.384 -2.83924 5.1913 0
M  V30 4666 H 791.647 -3.29824 5.15163 0
M  V30 4667 H 792.135 -1.59723 4.84449 0
M  V30 4668 H 792.871 -1.35644 0.399345 0
M  V30 4669 P 794.295 -8.91 -5.6149e-12 0
M  V30 4670 O 794.515 -10.1726 -0.733694 0
M  V30 4671 O 795.085 -8.73148 1.23936 0
M  V30 4672 O 794.545 -7.66872 -0.971405 0
M  V30 4673 C 793.605 -7.42309 -2.04641 0
M  V30 4674 C 794.335 -6.86059 -3.24661 0
M  V30 4675 O 794.545 -5.42847 -3.03646 0
M  V30 4676 C 795.735 -7.41196 -3.50753 0
M  V30 4677 O 796.125 -7.27073 -4.86816 0
M  V30 4678 C 796.615 -6.5273 -2.63741 0
M  V30 4679 C 795.905 -5.1842 -2.73198 0
M  V30 4680 N 795.955 -4.38762 -1.4784 0
M  V30 4681 H 793.116 -8.36803 -2.32493 0
M  V30 4682 H 792.846 -6.70197 -1.71129 0
M  V30 4683 H 793.713 -7.03551 -4.13168 0
M  V30 4684 P 797.675 -7.20834 -5.23717 0
M  V30 4685 O 797.895 -7.80006 -6.57415 0
M  V30 4686 O 798.465 -7.79416 -4.13051 0
M  V30 4687 O 797.925 -5.63315 -5.29344 0
M  V30 4688 C 796.985 -4.80318 -6.01954 0
M  V30 4689 C 797.715 -3.64202 -6.65911 0
M  V30 4690 O 797.925 -2.60736 -5.64823 0
M  V30 4691 C 799.115 -3.93521 -7.19518 0
M  V30 4692 O 799.505 -3.02071 -8.21205 0
M  V30 4693 C 799.995 -3.73047 -5.97036 0
M  V30 4694 C 799.285 -2.58828 -5.25741 0
M  V30 4695 N 799.335 -2.68068 -3.77503 0
M  V30 4696 C 799.255 -3.80474 -2.99159 0
M  V30 4697 N 799.325 -3.55622 -1.71925 0
M  V30 4698 C 799.475 -2.1832 -1.65733 0
M  V30 4699 C 799.605 -1.28842 -0.572777 0
M  V30 4700 N 799.615 -1.66875 0.70098 0
M  V30 4701 N 799.725 0.016788 -0.859836 0
M  V30 4702 C 799.715 0.398145 -2.13316 0
M  V30 4703 N 799.595 -0.328224 -3.22333 0
M  V30 4704 C 799.475 -1.62992 -2.90383 0
M  V30 4705 H 796.497 -5.40394 -6.8003 0
M  V30 4706 H 796.225 -4.41741 -5.32532 0
M  V30 4707 H 797.093 -3.26371 -7.47889 0
M  V30 4708 H 799.748 -1.64007 -5.56746 0
M  V30 4709 H 800.028 -4.63439 -5.3432 0
M  V30 4710 H 801.019 -3.44776 -6.25925 0
M  V30 4711 H 799.185 -4.96707 -7.57347 0
M  V30 4712 H 799.144 -4.8089 -3.39924 0
M  V30 4713 H 799.525 -2.66547 0.941919 0
M  V30 4714 H 799.714 -0.965341 1.44766 0
M  V30 4715 H 799.822 1.46427 -2.29697 0
M  V30 4716 P 801.055 -2.75334 -8.47391 0
M  V30 4717 O 801.275 -2.44571 -9.90142 0
M  V30 4718 O 801.845 -3.87688 -7.92115 0
M  V30 4719 O 801.305 -1.4459 -7.59357 0
M  V30 4720 C 800.365 -0.347608 -7.69215 0
M  V30 4721 C 801.095 0.96767 -7.52806 0
M  V30 4722 O 801.305 1.21036 -6.1011 0
M  V30 4723 C 802.495 1.04544 -8.13308 0
M  V30 4724 O 802.885 2.38311 -8.41922 0
M  V30 4725 C 803.375 0.491279 -7.02284 0
M  V30 4726 C 802.665 0.996264 -5.77469 0
M  V30 4727 N 802.715 0.0501916 -4.62973 0
M  V30 4728 H 799.876 -0.374722 -8.67691 0
M  V30 4729 H 799.606 -0.443485 -6.90277 0
M  V30 4730 H 800.473 1.75537 -7.96793 0
M  V30 4731 P 804.435 2.75334 -8.47391 0
M  V30 4732 O 804.655 3.84128 -9.44797 0
M  V30 4733 O 805.225 1.51947 -8.68712 0
M  V30 4734 O 804.685 3.29363 -6.99321 0
M  V30 4735 C 803.745 4.24011 -6.4274 0
M  V30 4736 C 804.475 5.20775 -5.52155 0
M  V30 4737 O 804.685 4.56534 -4.22446 0
M  V30 4738 C 805.875 5.62629 -5.96531 0
M  V30 4739 O 806.265 6.87667 -5.41053 0
M  V30 4740 C 806.755 4.52537 -5.39283 0
M  V30 4741 C 806.045 4.20027 -4.08623 0
M  V30 4742 N 806.095 2.76189 -3.71603 0
M  V30 4743 H 803.256 4.797 -7.24003 0
M  V30 4744 H 802.986 3.69856 -5.84513 0
M  V30 4745 H 803.853 6.10356 -5.41441 0
M  V30 4746 P 807.815 7.20834 -5.23717 0
M  V30 4747 O 808.035 8.66104 -5.38572 0
M  V30 4748 O 808.605 6.33544 -6.1349 0
M  V30 4749 O 808.065 6.7751 -3.72168 0
M  V30 4750 C 807.125 7.20825 -2.7076 0
M  V30 4751 C 807.855 7.45864 -1.40599 0
M  V30 4752 O 808.065 6.17651 -0.734225 0
M  V30 4753 C 809.255 8.05808 -1.51899 0
M  V30 4754 O 809.645 8.74358 -0.335205 0
M  V30 4755 C 810.135 6.83093 -1.70294 0
M  V30 4756 C 809.425 5.79992 -0.836974 0
M  V30 4757 N 809.475 4.41864 -1.38293 0
M  V30 4758 H 806.636 8.13644 -3.0377 0
M  V30 4759 H 806.366 6.42788 -2.55485 0
M  V30 4760 H 807.233 8.12039 -0.792769 0
M  V30 4761 P 811.195 8.91 5.77209e-12 0
M  V30 4762 O 811.415 10.1746 0.733838 0
M  V30 4763 O 811.985 8.73346 -1.23964 0
M  V30 4764 O 811.445 7.66872 0.971405 0
M  V30 4765 C 810.505 7.42405 2.04668 0
M  V30 4766 C 811.235 6.86059 3.24661 0
M  V30 4767 O 811.445 5.42934 3.03695 0
M  V30 4768 C 812.635 7.41287 3.50796 0
M  V30 4769 O 813.025 7.27073 4.86816 0
M  V30 4770 C 813.515 6.5273 2.63741 0
M  V30 4771 C 812.805 5.1842 2.73198 0
M  V30 4772 N 812.855 4.38762 1.4784 0
M  V30 4773 H 810.017 8.36899 2.3252 0
M  V30 4774 H 809.745 6.70391 1.71179 0
M  V30 4775 H 810.613 7.03638 4.13219 0
M  V30 4776 H 813.268 4.59931 3.54016 0
M  V30 4777 H 813.548 6.88995 1.59871 0
M  V30 4778 H 814.539 6.4684 3.0373 0
M  V30 4779 H 812.705 8.47002 3.20749 0
M  V30 4780 P 814.575 7.20834 5.23717 0
M  V30 4781 O 814.795 7.79853 6.57286 0
M  V30 4782 O 815.365 7.79239 4.12957 0
M  V30 4783 O 814.825 5.63315 5.29344 0
M  V30 4784 C 813.885 4.80255 6.01876 0
M  V30 4785 C 814.615 3.64202 6.65911 0
M  V30 4786 O 814.825 2.60694 5.64732 0
M  V30 4787 C 816.015 3.93473 7.1943 0
M  V30 4788 O 816.405 3.02071 8.21205 0
M  V30 4789 C 816.895 3.73047 5.97036 0
M  V30 4790 C 816.185 2.58828 5.25741 0
M  V30 4791 N 816.235 2.68068 3.77503 0
M  V30 4792 H 813.396 5.40332 6.79951 0
M  V30 4793 H 813.126 4.41613 5.32378 0
M  V30 4794 H 813.993 3.26331 7.47797 0
M  V30 4795 P 817.955 2.75334 8.47391 0
M  V30 4796 O 818.175 2.44571 9.90142 0
M  V30 4797 O 818.745 3.87688 7.92115 0
M  V30 4798 O 818.205 1.4459 7.59357 0
M  V30 4799 C 817.265 0.347608 7.69215 0
M  V30 4800 C 817.995 -0.96767 7.52806 0
M  V30 4801 O 818.205 -1.21036 6.1011 0
M  V30 4802 C 819.395 -1.04544 8.13308 0
M  V30 4803 O 819.785 -2.38311 8.41922 0
M  V30 4804 C 820.275 -0.491279 7.02284 0
M  V30 4805 C 819.565 -0.996264 5.77469 0
M  V30 4806 N 819.615 -0.0501916 4.62973 0
M  V30 4807 H 816.776 0.374722 8.67691 0
M  V30 4808 H 816.506 0.443485 6.90277 0
M  V30 4809 H 817.373 -1.75537 7.96793 0
M  V30 4810 P 821.335 -2.75334 8.47391 0
M  V30 4811 O 821.555 -3.84128 9.44797 0
M  V30 4812 O 822.125 -1.51947 8.68712 0
M  V30 4813 O 821.585 -3.29363 6.99321 0
M  V30 4814 C 820.645 -4.24011 6.4274 0
M  V30 4815 C 821.375 -5.20775 5.52155 0
M  V30 4816 O 821.585 -4.56534 4.22446 0
M  V30 4817 C 822.775 -5.62629 5.96531 0
M  V30 4818 O 823.165 -6.87667 5.41053 0
M  V30 4819 C 823.655 -4.52537 5.39283 0
M  V30 4820 C 822.945 -4.20027 4.08623 0
M  V30 4821 N 822.995 -2.76189 3.71603 0
M  V30 4822 H 820.156 -4.797 7.24003 0
M  V30 4823 H 819.886 -3.69856 5.84513 0
M  V30 4824 H 820.753 -6.10356 5.41441 0
M  V30 4825 P 824.715 -7.20834 5.23717 0
M  V30 4826 O 824.935 -8.66104 5.38572 0
M  V30 4827 O 825.505 -6.33544 6.1349 0
M  V30 4828 O 824.965 -6.7751 3.72168 0
M  V30 4829 C 824.025 -7.20825 2.7076 0
M  V30 4830 C 824.755 -7.45864 1.40599 0
M  V30 4831 O 824.965 -6.17651 0.734225 0
M  V30 4832 C 826.155 -8.05808 1.51899 0
M  V30 4833 O 826.545 -8.74358 0.335205 0
M  V30 4834 C 827.035 -6.83093 1.70294 0
M  V30 4835 C 826.325 -5.79992 0.836974 0
M  V30 4836 N 826.375 -4.41864 1.38293 0
M  V30 4837 H 823.536 -8.13644 3.0377 0
M  V30 4838 H 823.266 -6.42788 2.55485 0
M  V30 4839 H 824.133 -8.12039 0.792769 0
M  V30 4840 P 828.095 -8.91 -5.92927e-12 0
M  V30 4841 O 828.315 -10.1726 -0.733694 0
M  V30 4842 O 828.885 -8.73148 1.23936 0
M  V30 4843 O 828.345 -7.66872 -0.971405 0
M  V30 4844 C 827.405 -7.42309 -2.04641 0
M  V30 4845 C 828.135 -6.86059 -3.24661 0
M  V30 4846 O 828.345 -5.42847 -3.03646 0
M  V30 4847 C 829.535 -7.41196 -3.50753 0
M  V30 4848 O 829.925 -7.27073 -4.86816 0
M  V30 4849 C 830.415 -6.5273 -2.63741 0
M  V30 4850 C 829.705 -5.1842 -2.73198 0
M  V30 4851 N 829.755 -4.38762 -1.4784 0
M  V30 4852 H 826.916 -8.36803 -2.32493 0
M  V30 4853 H 826.646 -6.70197 -1.71129 0
M  V30 4854 H 827.513 -7.03551 -4.13168 0
M  V30 4855 P 831.475 -7.20834 -5.23717 0
M  V30 4856 O 831.695 -7.79853 -6.57286 0
M  V30 4857 O 832.265 -7.79239 -4.12957 0
M  V30 4858 O 831.725 -5.63315 -5.29344 0
M  V30 4859 C 830.785 -4.80255 -6.01876 0
M  V30 4860 C 831.515 -3.64202 -6.65911 0
M  V30 4861 O 831.725 -2.60694 -5.64732 0
M  V30 4862 C 832.915 -3.93473 -7.1943 0
M  V30 4863 O 833.305 -3.02071 -8.21205 0
M  V30 4864 C 833.795 -3.73047 -5.97036 0
M  V30 4865 C 833.085 -2.58828 -5.25741 0
M  V30 4866 N 833.135 -2.68068 -3.77503 0
M  V30 4867 H 830.296 -5.40332 -6.79951 0
M  V30 4868 H 830.026 -4.41613 -5.32378 0
M  V30 4869 H 830.893 -3.26331 -7.47797 0
M  V30 4870 P 834.855 -2.75334 -8.47391 0
M  V30 4871 O 835.075 -2.44571 -9.90142 0
M  V30 4872 O 835.645 -3.87688 -7.92115 0
M  V30 4873 O 835.105 -1.4459 -7.59357 0
M  V30 4874 C 834.165 -0.347608 -7.69215 0
M  V30 4875 C 834.895 0.96767 -7.52806 0
M  V30 4876 O 835.105 1.21036 -6.1011 0
M  V30 4877 C 836.295 1.04544 -8.13308 0
M  V30 4878 O 836.685 2.38311 -8.41922 0
M  V30 4879 C 837.175 0.491279 -7.02284 0
M  V30 4880 C 836.465 0.996264 -5.77469 0
M  V30 4881 N 836.515 0.0501916 -4.62973 0
M  V30 4882 C 836.435 -1.32786 -4.63244 0
M  V30 4883 N 836.515 -1.86957 -3.44545 0
M  V30 4884 C 836.655 -0.780241 -2.58481 0
M  V30 4885 C 836.785 -0.738536 -1.17757 0
M  V30 4886 O 836.805 -1.66794 -0.372349 0
M  V30 4887 N 836.905 0.58337 -0.711393 0
M  V30 4888 C 836.905 1.70816 -1.51017 0
M  V30 4889 N 837.035 2.87826 -0.880757 0
M  V30 4890 N 836.775 1.67126 -2.8339 0
M  V30 4891 C 836.655 0.401421 -3.30572 0
M  V30 4892 H 833.676 -0.374722 -8.67691 0
M  V30 4893 H 833.406 -0.443485 -6.90277 0
M  V30 4894 H 834.273 1.75537 -7.96793 0
M  V30 4895 H 836.928 1.95076 -5.46529 0
M  V30 4896 H 837.207 -0.608565 -7.04577 0
M  V30 4897 H 838.199 0.889672 -7.08939 0
M  V30 4898 H 836.365 0.43308 -9.04564 0
M  V30 4899 H 836.316 -1.91249 -5.54442 0
M  V30 4900 H 836.998 0.718054 0.275244 0
M  V30 4901 H 837.035 3.75721 -1.41832 0
M  V30 4902 H 837.136 2.90436 0.145468 0
M  V30 4903 P 838.235 2.75334 -8.47391 0
M  V30 4904 O 838.455 3.84128 -9.44797 0
M  V30 4905 O 839.025 1.51947 -8.68712 0
M  V30 4906 O 838.485 3.29363 -6.99321 0
M  V30 4907 C 837.545 4.24011 -6.4274 0
M  V30 4908 C 838.275 5.20775 -5.52155 0
M  V30 4909 O 838.485 4.56534 -4.22446 0
M  V30 4910 C 839.675 5.62629 -5.96531 0
M  V30 4911 O 840.065 6.87667 -5.41053 0
M  V30 4912 C 840.555 4.52537 -5.39283 0
M  V30 4913 C 839.845 4.20027 -4.08623 0
M  V30 4914 N 839.895 2.76189 -3.71603 0
M  V30 4915 H 837.056 4.797 -7.24003 0
M  V30 4916 H 836.786 3.69856 -5.84513 0
M  V30 4917 H 837.653 6.10356 -5.41441 0
M  V30 4918 P 841.615 7.20834 -5.23717 0
M  V30 4919 O 841.835 8.66104 -5.38572 0
M  V30 4920 O 842.405 6.33544 -6.1349 0
M  V30 4921 O 841.865 6.7751 -3.72168 0
M  V30 4922 C 840.925 7.20825 -2.7076 0
M  V30 4923 C 841.655 7.45864 -1.40599 0
M  V30 4924 O 841.865 6.17651 -0.734225 0
M  V30 4925 C 843.055 8.05808 -1.51899 0
M  V30 4926 O 843.445 8.74358 -0.335205 0
M  V30 4927 C 843.935 6.83093 -1.70294 0
M  V30 4928 C 843.225 5.79992 -0.836974 0
M  V30 4929 N 843.275 4.41864 -1.38293 0
M  V30 4930 H 840.436 8.13644 -3.0377 0
M  V30 4931 H 840.166 6.42788 -2.55485 0
M  V30 4932 H 841.033 8.12039 -0.792769 0
M  V30 4933 P 844.995 8.91 6.08645e-12 0
M  V30 4934 O 845.215 10.1726 0.733694 0
M  V30 4935 O 845.785 8.73148 -1.23936 0
M  V30 4936 O 845.245 7.66872 0.971405 0
M  V30 4937 C 844.305 7.42309 2.04641 0
M  V30 4938 C 845.035 6.86059 3.24661 0
M  V30 4939 O 845.245 5.42847 3.03646 0
M  V30 4940 C 846.435 7.41196 3.50753 0
M  V30 4941 O 846.825 7.27073 4.86816 0
M  V30 4942 C 847.315 6.5273 2.63741 0
M  V30 4943 C 846.605 5.1842 2.73198 0
M  V30 4944 N 846.655 4.38762 1.4784 0
M  V30 4945 H 843.816 8.36803 2.32493 0
M  V30 4946 H 843.546 6.70197 1.71129 0
M  V30 4947 H 844.413 7.03551 4.13168 0
M  V30 4948 P 848.375 7.20834 5.23717 0
M  V30 4949 O 848.595 7.79853 6.57286 0
M  V30 4950 O 849.165 7.79239 4.12957 0
M  V30 4951 O 848.625 5.63315 5.29344 0
M  V30 4952 C 847.685 4.80255 6.01876 0
M  V30 4953 C 848.415 3.64202 6.65911 0
M  V30 4954 O 848.625 2.60694 5.64732 0
M  V30 4955 C 849.815 3.93473 7.1943 0
M  V30 4956 O 850.205 3.02071 8.21205 0
M  V30 4957 C 850.695 3.73047 5.97036 0
M  V30 4958 C 849.985 2.58828 5.25741 0
M  V30 4959 N 850.035 2.68068 3.77503 0
M  V30 4960 H 847.196 5.40332 6.79951 0
M  V30 4961 H 846.926 4.41613 5.32378 0
M  V30 4962 H 847.793 3.26331 7.47797 0
M  V30 4963 P 851.755 2.75334 8.47391 0
M  V30 4964 O 851.975 2.44571 9.90142 0
M  V30 4965 O 852.545 3.87688 7.92115 0
M  V30 4966 O 852.005 1.4459 7.59357 0
M  V30 4967 C 851.065 0.347608 7.69215 0
M  V30 4968 C 851.795 -0.96767 7.52806 0
M  V30 4969 O 852.005 -1.21036 6.1011 0
M  V30 4970 C 853.195 -1.04544 8.13308 0
M  V30 4971 O 853.585 -2.38311 8.41922 0
M  V30 4972 C 854.075 -0.491279 7.02284 0
M  V30 4973 C 853.365 -0.996264 5.77469 0
M  V30 4974 N 853.415 -0.0501916 4.62973 0
M  V30 4975 H 850.576 0.374722 8.67691 0
M  V30 4976 H 850.306 0.443485 6.90277 0
M  V30 4977 H 851.173 -1.75537 7.96793 0
M  V30 4978 P 855.135 -2.75334 8.47391 0
M  V30 4979 O 855.355 -3.84204 9.44982 0
M  V30 4980 O 855.925 -1.51982 8.68909 0
M  V30 4981 O 855.385 -3.29363 6.99321 0
M  V30 4982 C 854.445 -4.24066 6.42823 0
M  V30 4983 C 855.175 -5.20775 5.52155 0
M  V30 4984 O 855.385 -4.56607 4.22514 0
M  V30 4985 C 856.575 -5.62697 5.96604 0
M  V30 4986 O 856.965 -6.87667 5.41053 0
M  V30 4987 C 857.455 -4.52537 5.39283 0
M  V30 4988 C 856.745 -4.20027 4.08623 0
M  V30 4989 N 856.795 -2.76189 3.71603 0
M  V30 4990 H 853.957 -4.79756 7.24086 0
M  V30 4991 H 853.685 -3.69963 5.84682 0
M  V30 4992 H 854.553 -6.10431 5.41508 0
M  V30 4993 H 857.208 -4.78816 3.28024 0
M  V30 4994 H 857.488 -3.64957 6.05871 0
M  V30 4995 H 858.479 -4.88748 5.21323 0
M  V30 4996 H 856.645 -5.66789 7.0643 0
M  V30 4997 P 858.515 -7.20834 5.23717 0
M  V30 4998 O 858.735 -8.66104 5.38572 0
M  V30 4999 O 859.305 -6.33544 6.1349 0
M  V30 5000 O 858.765 -6.7751 3.72168 0
M  V30 5001 C 857.825 -7.20825 2.7076 0
M  V30 5002 C 858.555 -7.45864 1.40599 0
M  V30 5003 O 858.765 -6.17651 0.734225 0
M  V30 5004 C 859.955 -8.05808 1.51899 0
M  V30 5005 O 860.345 -8.74358 0.335205 0
M  V30 5006 C 860.835 -6.83093 1.70294 0
M  V30 5007 C 860.125 -5.79992 0.836974 0
M  V30 5008 N 860.175 -4.41864 1.38293 0
M  V30 5009 C 860.095 -3.99538 2.69438 0
M  V30 5010 N 860.175 -2.69909 2.84277 0
M  V30 5011 C 860.315 -2.21719 1.5408 0
M  V30 5012 C 860.445 -0.891712 1.06628 0
M  V30 5013 O 860.465 0.161298 1.70137 0
M  V30 5014 N 860.565 -0.856846 -0.334985 0
M  V30 5015 C 860.565 -1.9641 -1.15789 0
M  V30 5016 N 860.695 -1.72708 -2.46522 0
M  V30 5017 N 860.435 -3.21165 -0.713741 0
M  V30 5018 C 860.315 -3.26797 0.639748 0
M  V30 5019 H 857.336 -8.13644 3.0377 0
M  V30 5020 H 857.066 -6.42788 2.55485 0
M  V30 5021 H 857.933 -8.12039 0.792769 0
M  V30 5022 H 860.588 -5.80061 -0.166416 0
M  V30 5023 H 860.867 -6.51287 2.75604 0
M  V30 5024 H 861.859 -7.01734 1.34462 0
M  V30 5025 H 860.025 -8.73674 2.38337 0
M  V30 5026 H 859.976 -4.68207 3.53221 0
M  V30 5027 H 860.658 0.0398818 -0.767965 0
M  V30 5028 H 860.695 -2.50995 -3.13503 0
M  V30 5029 H 860.796 -0.759148 -2.80716 0
M  V30 5030 P 861.895 -8.91 -6.24363e-12 0
M  V30 5031 O 862.115 -10.1726 -0.733694 0
M  V30 5032 O 862.685 -8.73148 1.23936 0
M  V30 5033 O 862.145 -7.66872 -0.971405 0
M  V30 5034 C 861.205 -7.42309 -2.04641 0
M  V30 5035 C 861.935 -6.86059 -3.24661 0
M  V30 5036 O 862.145 -5.42847 -3.03646 0
M  V30 5037 C 863.335 -7.41196 -3.50753 0
M  V30 5038 O 863.725 -7.27073 -4.86816 0
M  V30 5039 C 864.215 -6.5273 -2.63741 0
M  V30 5040 C 863.505 -5.1842 -2.73198 0
M  V30 5041 N 863.555 -4.38762 -1.4784 0
M  V30 5042 H 860.716 -8.36803 -2.32493 0
M  V30 5043 H 860.446 -6.70197 -1.71129 0
M  V30 5044 H 861.313 -7.03551 -4.13168 0
M  V30 5045 P 865.275 -7.20834 -5.23717 0
M  V30 5046 O 865.495 -7.7993 -6.57351 0
M  V30 5047 O 866.065 -7.79328 -4.13004 0
M  V30 5048 O 865.525 -5.63315 -5.29344 0
M  V30 5049 C 864.585 -4.80193 -6.01798 0
M  V30 5050 C 865.315 -3.64202 -6.65911 0
M  V30 5051 O 865.525 -2.60694 -5.64732 0
M  V30 5052 C 866.715 -3.93473 -7.1943 0
M  V30 5053 O 867.105 -3.02071 -8.21205 0
M  V30 5054 C 867.595 -3.73047 -5.97036 0
M  V30 5055 C 866.885 -2.58828 -5.25741 0
M  V30 5056 N 866.935 -2.6801 -3.77422 0
M  V30 5057 C 867.085 -1.50443 -3.07133 0
M  V30 5058 O 867.175 -0.419406 -3.61576 0
M  V30 5059 N 867.125 -1.6403 -1.69677 0
M  V30 5060 C 867.035 -2.81206 -0.986255 0
M  V30 5061 C 866.885 -3.99158 -1.80325 0
M  V30 5062 C 866.835 -3.89779 -3.1476 0
M  V30 5063 H 864.095 -5.40332 -6.79951 0
M  V30 5064 H 863.826 -4.41549 -5.32301 0
M  V30 5065 H 864.693 -3.26331 -7.47797 0
M  V30 5066 H 867.348 -1.6395 -5.56554 0
M  V30 5067 H 867.627 -4.63439 -5.3432 0
M  V30 5068 H 868.619 -3.44728 -6.25838 0
M  V30 5069 H 866.785 -4.96652 -7.57263 0
M  V30 5070 H 866.714 -4.80159 -3.74441 0
M  V30 5071 P 868.655 -2.75334 -8.47391 0
M  V30 5072 O 868.875 -2.44619 -9.90336 0
M  V30 5073 O 869.445 -3.87776 -7.92294 0
M  V30 5074 O 868.905 -1.4459 -7.59357 0
M  V30 5075 C 867.965 -0.347653 -7.69315 0
M  V30 5076 C 868.695 0.96767 -7.52806 0
M  V30 5077 O 868.905 1.21055 -6.10208 0
M  V30 5078 C 870.095 1.04557 -8.13408 0
M  V30 5079 O 870.485 2.38311 -8.41922 0
M  V30 5080 C 870.975 0.491279 -7.02284 0
M  V30 5081 C 870.265 0.996264 -5.77469 0
M  V30 5082 N 870.315 0.0501916 -4.62973 0
M  V30 5083 C 870.235 -1.31969 -4.65661 0
M  V30 5084 N 870.305 -1.86649 -3.48119 0
M  V30 5085 C 870.455 -0.792089 -2.62406 0
M  V30 5086 C 870.585 -0.705684 -1.2207 0
M  V30 5087 N 870.595 -1.76207 -0.413762 0
M  V30 5088 N 870.705 0.518981 -0.685754 0
M  V30 5089 C 870.695 1.57595 -1.49174 0
M  V30 5090 N 870.575 1.62909 -2.80066 0
M  V30 5091 C 870.455 0.388195 -3.3073 0
M  V30 5092 H 867.477 -0.374765 -8.67791 0
M  V30 5093 H 867.205 -0.443613 -6.90476 0
M  V30 5094 H 868.073 1.75559 -7.96891 0
M  V30 5095 H 870.728 1.94563 -5.46818 0
M  V30 5096 H 871.008 -0.608651 -7.04676 0
M  V30 5097 H 871.999 0.889796 -7.09039 0
M  V30 5098 H 870.165 0.433128 -9.04664 0
M  V30 5099 H 870.124 -1.89246 -5.57664 0
M  V30 5100 H 870.505 -2.71005 -0.804694 0
M  V30 5101 H 870.694 -1.63189 0.603768 0
M  V30 5102 H 870.802 2.53475 -0.997614 0
M  V30 5103 P 872.035 2.75334 -8.47391 0
M  V30 5104 O 872.255 3.84128 -9.44797 0
M  V30 5105 O 872.825 1.51947 -8.68712 0
M  V30 5106 O 872.285 3.29363 -6.99321 0
M  V30 5107 C 871.345 4.24011 -6.4274 0
M  V30 5108 C 872.075 5.20775 -5.52155 0
M  V30 5109 O 872.285 4.56534 -4.22446 0
M  V30 5110 C 873.475 5.62629 -5.96531 0
M  V30 5111 O 873.865 6.87667 -5.41053 0
M  V30 5112 C 874.355 4.52537 -5.39283 0
M  V30 5113 C 873.645 4.20027 -4.08623 0
M  V30 5114 N 873.695 2.76189 -3.71603 0
M  V30 5115 H 870.856 4.797 -7.24003 0
M  V30 5116 H 870.586 3.69856 -5.84513 0
M  V30 5117 H 871.453 6.10356 -5.41441 0
M  V30 5118 P 875.415 7.20834 -5.23717 0
M  V30 5119 O 875.635 8.66104 -5.38572 0
M  V30 5120 O 876.205 6.33544 -6.1349 0
M  V30 5121 O 875.665 6.7751 -3.72168 0
M  V30 5122 C 874.725 7.20825 -2.7076 0
M  V30 5123 C 875.455 7.45864 -1.40599 0
M  V30 5124 O 875.665 6.17651 -0.734225 0
M  V30 5125 C 876.855 8.05808 -1.51899 0
M  V30 5126 O 877.245 8.74358 -0.335205 0
M  V30 5127 C 877.735 6.83093 -1.70294 0
M  V30 5128 C 877.025 5.79992 -0.836974 0
M  V30 5129 N 877.075 4.41864 -1.38293 0
M  V30 5130 H 874.236 8.13644 -3.0377 0
M  V30 5131 H 873.966 6.42788 -2.55485 0
M  V30 5132 H 874.833 8.12039 -0.792769 0
M  V30 5133 P 878.795 8.91 6.40081e-12 0
M  V30 5134 O 879.015 10.1726 0.733694 0
M  V30 5135 O 879.585 8.73148 -1.23936 0
M  V30 5136 O 879.045 7.66872 0.971405 0
M  V30 5137 C 878.105 7.42309 2.04641 0
M  V30 5138 C 878.835 6.86059 3.24661 0
M  V30 5139 O 879.045 5.42847 3.03646 0
M  V30 5140 C 880.235 7.41196 3.50753 0
M  V30 5141 O 880.625 7.27073 4.86816 0
M  V30 5142 C 881.115 6.5273 2.63741 0
M  V30 5143 C 880.405 5.1842 2.73198 0
M  V30 5144 N 880.455 4.38762 1.4784 0
M  V30 5145 H 877.616 8.36803 2.32493 0
M  V30 5146 H 877.346 6.70197 1.71129 0
M  V30 5147 H 878.213 7.03551 4.13168 0
M  V30 5148 P 882.175 7.20834 5.23717 0
M  V30 5149 O 882.395 7.79853 6.57286 0
M  V30 5150 O 882.965 7.79239 4.12957 0
M  V30 5151 O 882.425 5.63315 5.29344 0
M  V30 5152 C 881.485 4.80255 6.01876 0
M  V30 5153 C 882.215 3.64202 6.65911 0
M  V30 5154 O 882.425 2.60694 5.64732 0
M  V30 5155 C 883.615 3.93473 7.1943 0
M  V30 5156 O 884.005 3.02071 8.21205 0
M  V30 5157 C 884.495 3.73047 5.97036 0
M  V30 5158 C 883.785 2.58828 5.25741 0
M  V30 5159 N 883.835 2.68068 3.77503 0
M  V30 5160 C 883.755 3.79715 2.96723 0
M  V30 5161 N 883.835 3.5377 1.68852 0
M  V30 5162 C 883.975 2.15054 1.63254 0
M  V30 5163 C 884.105 1.28964 0.518571 0
M  V30 5164 O 884.125 1.56826 -0.679156 0
M  V30 5165 N 884.225 -0.0538097 0.918425 0
M  V30 5166 C 884.225 -0.494275 2.22578 0
M  V30 5167 N 884.355 -1.81086 2.40434 0
M  V30 5168 N 884.095 0.313645 3.27502 0
M  V30 5169 C 883.975 1.61829 2.91033 0
M  V30 5170 H 880.996 5.40332 6.79951 0
M  V30 5171 H 880.726 4.41613 5.32378 0
M  V30 5172 H 881.593 3.26331 7.47797 0
M  V30 5173 H 884.248 1.63422 5.56814 0
M  V30 5174 H 884.527 4.63374 5.34244 0
M  V30 5175 H 885.519 3.44728 6.25838 0
M  V30 5176 H 883.685 4.96652 7.57263 0
M  V30 5177 H 883.636 4.80617 3.3614 0
M  V30 5178 H 884.318 -0.742702 0.199384 0
M  V30 5179 H 884.355 -2.20598 3.35588 0
M  V30 5180 H 884.456 -2.43518 1.58945 0
M  V30 5181 P 885.555 2.75334 8.47391 0
M  V30 5182 O 885.775 2.44571 9.90142 0
M  V30 5183 O 886.345 3.87688 7.92115 0
M  V30 5184 O 885.805 1.4459 7.59357 0
M  V30 5185 C 884.865 0.347608 7.69215 0
M  V30 5186 C 885.595 -0.96767 7.52806 0
M  V30 5187 O 885.805 -1.21036 6.1011 0
M  V30 5188 C 886.995 -1.04544 8.13308 0
M  V30 5189 O 887.385 -2.38311 8.41922 0
M  V30 5190 C 887.875 -0.491279 7.02284 0
M  V30 5191 C 887.165 -0.996264 5.77469 0
M  V30 5192 N 887.215 -0.0501916 4.62973 0
M  V30 5193 H 884.376 0.374722 8.67691 0
M  V30 5194 H 884.106 0.443485 6.90277 0
M  V30 5195 H 884.973 -1.75537 7.96793 0
M  V30 5196 P 888.935 -2.75334 8.47391 0
M  V30 5197 O 889.155 -3.84204 9.44982 0
M  V30 5198 O 889.725 -1.51982 8.68909 0
M  V30 5199 O 889.185 -3.29363 6.99321 0
M  V30 5200 C 888.245 -4.24066 6.42823 0
M  V30 5201 C 888.975 -5.20775 5.52155 0
M  V30 5202 O 889.185 -4.56607 4.22514 0
M  V30 5203 C 890.375 -5.62697 5.96604 0
M  V30 5204 O 890.765 -6.87667 5.41053 0
M  V30 5205 C 891.255 -4.52537 5.39283 0
M  V30 5206 C 890.545 -4.20027 4.08623 0
M  V30 5207 N 890.595 -2.76189 3.71603 0
M  V30 5208 C 890.515 -1.66944 4.54297 0
M  V30 5209 N 890.585 -0.536169 3.91344 0
M  V30 5210 C 890.735 -0.901569 2.58849 0
M  V30 5211 C 890.865 -0.146599 1.40236 0
M  V30 5212 N 890.875 1.18234 1.37046 0
M  V30 5213 N 890.985 -0.822941 0.249738 0
M  V30 5214 C 890.975 -2.15179 0.280525 0
M  V30 5215 N 890.855 -2.96414 1.30822 0
M  V30 5216 C 890.735 -2.25804 2.44748 0
M  V30 5217 H 887.757 -4.79756 7.24086 0
M  V30 5218 H 887.485 -3.69963 5.84682 0
M  V30 5219 H 888.353 -6.10431 5.41508 0
M  V30 5220 H 891.008 -4.78816 3.28024 0
M  V30 5221 H 891.288 -3.64957 6.05871 0
M  V30 5222 H 892.279 -4.88748 5.21323 0
M  V30 5223 H 890.445 -5.66789 7.0643 0
M  V30 5224 H 890.404 -1.74684 5.62396 0
M  V30 5225 H 890.785 1.71949 2.24394 0
M  V30 5226 H 890.974 1.67511 0.470742 0
M  V30 5227 H 891.082 -2.63704 -0.6828 0
M  V30 5228 P 892.315 -7.20834 5.23717 0
M  V30 5229 O 892.535 -8.66104 5.38572 0
M  V30 5230 O 893.105 -6.33544 6.1349 0
M  V30 5231 O 892.565 -6.7751 3.72168 0
M  V30 5232 C 891.625 -7.20825 2.7076 0
M  V30 5233 C 892.355 -7.45864 1.40599 0
M  V30 5234 O 892.565 -6.17651 0.734225 0
M  V30 5235 C 893.755 -8.05808 1.51899 0
M  V30 5236 O 894.145 -8.74358 0.335205 0
M  V30 5237 C 894.635 -6.83093 1.70294 0
M  V30 5238 C 893.925 -5.79992 0.836974 0
M  V30 5239 N 893.975 -4.41864 1.38293 0
M  V30 5240 H 891.136 -8.13644 3.0377 0
M  V30 5241 H 890.866 -6.42788 2.55485 0
M  V30 5242 H 891.733 -8.12039 0.792769 0
M  V30 5243 P 895.695 -8.91 -6.558e-12 0
M  V30 5244 O 895.915 -10.1726 -0.733694 0
M  V30 5245 O 896.485 -8.73148 1.23936 0
M  V30 5246 O 895.945 -7.66872 -0.971405 0
M  V30 5247 C 895.005 -7.42309 -2.04641 0
M  V30 5248 C 895.735 -6.86059 -3.24661 0
M  V30 5249 O 895.945 -5.42847 -3.03646 0
M  V30 5250 C 897.135 -7.41196 -3.50753 0
M  V30 5251 O 897.525 -7.27073 -4.86816 0
M  V30 5252 C 898.015 -6.5273 -2.63741 0
M  V30 5253 C 897.305 -5.1842 -2.73198 0
M  V30 5254 N 897.355 -4.38762 -1.4784 0
M  V30 5255 H 894.516 -8.36803 -2.32493 0
M  V30 5256 H 894.246 -6.70197 -1.71129 0
M  V30 5257 H 895.113 -7.03551 -4.13168 0
M  V30 5258 P 899.075 -7.20834 -5.23717 0
M  V30 5259 O 899.295 -7.79853 -6.57286 0
M  V30 5260 O 899.865 -7.79239 -4.12957 0
M  V30 5261 O 899.325 -5.63315 -5.29344 0
M  V30 5262 C 898.385 -4.80255 -6.01876 0
M  V30 5263 C 899.115 -3.64202 -6.65911 0
M  V30 5264 O 899.325 -2.60694 -5.64732 0
M  V30 5265 C 900.515 -3.93473 -7.1943 0
M  V30 5266 O 900.905 -3.02071 -8.21205 0
M  V30 5267 C 901.395 -3.73047 -5.97036 0
M  V30 5268 C 900.685 -2.58828 -5.25741 0
M  V30 5269 N 900.735 -2.68068 -3.77503 0
M  V30 5270 C 900.655 -3.79715 -2.96723 0
M  V30 5271 N 900.735 -3.5377 -1.68852 0
M  V30 5272 C 900.875 -2.15054 -1.63254 0
M  V30 5273 C 901.005 -1.28964 -0.518571 0
M  V30 5274 N 901.125 0.0538097 -0.918425 0
M  V30 5275 C 901.125 0.494275 -2.22578 0
M  V30 5276 N 901.255 1.81086 -2.40434 0
M  V30 5277 N 900.995 -0.313645 -3.27502 0
M  V30 5278 C 900.875 -1.61829 -2.91033 0
M  V30 5279 H 897.896 -5.40332 -6.79951 0
M  V30 5280 H 897.626 -4.41613 -5.32378 0
M  V30 5281 H 898.493 -3.26331 -7.47797 0
M  V30 5282 P 902.455 -2.75334 -8.47391 0
M  V30 5283 O 902.675 -2.44571 -9.90142 0
M  V30 5284 O 903.245 -3.87688 -7.92115 0
M  V30 5285 O 902.705 -1.4459 -7.59357 0
M  V30 5286 C 901.765 -0.347608 -7.69215 0
M  V30 5287 C 902.495 0.96767 -7.52806 0
M  V30 5288 O 902.705 1.21036 -6.1011 0
M  V30 5289 C 903.895 1.04544 -8.13308 0
M  V30 5290 O 904.285 2.38311 -8.41922 0
M  V30 5291 C 904.775 0.491279 -7.02284 0
M  V30 5292 C 904.065 0.996264 -5.77469 0
M  V30 5293 N 904.115 0.0501916 -4.62973 0
M  V30 5294 H 901.276 -0.374722 -8.67691 0
M  V30 5295 H 901.006 -0.443485 -6.90277 0
M  V30 5296 H 901.873 1.75537 -7.96793 0
M  V30 5297 P 905.835 2.75334 -8.47391 0
M  V30 5298 O 906.055 3.84128 -9.44797 0
M  V30 5299 O 906.625 1.51947 -8.68712 0
M  V30 5300 O 906.085 3.29363 -6.99321 0
M  V30 5301 C 905.145 4.24011 -6.4274 0
M  V30 5302 C 905.875 5.20775 -5.52155 0
M  V30 5303 O 906.085 4.56534 -4.22446 0
M  V30 5304 C 907.275 5.62629 -5.96531 0
M  V30 5305 O 907.665 6.87667 -5.41053 0
M  V30 5306 C 908.155 4.52537 -5.39283 0
M  V30 5307 C 907.445 4.20027 -4.08623 0
M  V30 5308 N 907.495 2.76189 -3.71603 0
M  V30 5309 C 907.415 1.64862 -4.52822 0
M  V30 5310 N 907.495 0.512671 -3.88633 0
M  V30 5311 C 907.635 0.888083 -2.54977 0
M  V30 5312 C 907.765 0.094668 -1.38677 0
M  V30 5313 N 907.885 0.890102 -0.232633 0
M  V30 5314 C 907.885 2.26958 -0.21772 0
M  V30 5315 N 908.015 2.84626 0.97925 0
M  V30 5316 N 907.755 3.0178 -1.31033 0
M  V30 5317 C 907.635 2.26781 -2.43843 0
M  V30 5318 H 904.656 4.797 -7.24003 0
M  V30 5319 H 904.386 3.69856 -5.84513 0
M  V30 5320 H 905.253 6.10356 -5.41441 0
M  V30 5321 P 909.215 7.20834 -5.23717 0
M  V30 5322 O 909.435 8.66274 -5.38678 0
M  V30 5323 O 910.005 6.33687 -6.13629 0
M  V30 5324 O 909.465 6.7751 -3.72168 0
M  V30 5325 C 908.525 7.20919 -2.70795 0
M  V30 5326 C 909.255 7.45864 -1.40599 0
M  V30 5327 O 909.465 6.17751 -0.734343 0
M  V30 5328 C 910.655 8.05906 -1.51917 0
M  V30 5329 O 911.045 8.74358 -0.335205 0
M  V30 5330 C 911.535 6.83093 -1.70294 0
M  V30 5331 C 910.825 5.79992 -0.836974 0
M  V30 5332 N 910.875 4.41864 -1.38293 0
M  V30 5333 H 908.037 8.13738 -3.03804 0
M  V30 5334 H 907.765 6.42974 -2.55559 0
M  V30 5335 H 908.633 8.12139 -0.792866 0
M  V30 5336 H 911.288 5.80178 0.160643 0
M  V30 5337 H 911.568 6.51379 -2.75643 0
M  V30 5338 H 912.559 7.01832 -1.3448 0
M  V30 5339 H 910.725 8.73771 -2.38364 0
M  V30 5340 P 912.595 8.91 6.71518e-12 0
M  V30 5341 O 912.815 10.1746 0.733838 0
M  V30 5342 O 913.385 8.73346 -1.23964 0
M  V30 5343 O 912.845 7.66872 0.971405 0
M  V30 5344 C 911.905 7.42405 2.04668 0
M  V30 5345 C 912.635 6.86059 3.24661 0
M  V30 5346 O 912.845 5.42934 3.03695 0
M  V30 5347 C 914.035 7.41287 3.50796 0
M  V30 5348 O 914.425 7.27073 4.86816 0
M  V30 5349 C 914.915 6.5273 2.63741 0
M  V30 5350 C 914.205 5.1842 2.73198 0
M  V30 5351 N 914.255 4.38762 1.4784 0
M  V30 5352 H 911.417 8.36899 2.3252 0
M  V30 5353 H 911.145 6.70391 1.71179 0
M  V30 5354 H 912.013 7.03638 4.13219 0
M  V30 5355 H 914.668 4.59931 3.54016 0
M  V30 5356 H 914.948 6.88995 1.59871 0
M  V30 5357 H 915.939 6.4684 3.0373 0
M  V30 5358 H 914.105 8.47002 3.20749 0
M  V30 5359 P 915.975 7.20834 5.23717 0
M  V30 5360 O 916.195 7.79853 6.57286 0
M  V30 5361 O 916.765 7.79239 4.12957 0
M  V30 5362 O 916.225 5.63315 5.29344 0
M  V30 5363 C 915.285 4.80255 6.01876 0
M  V30 5364 C 916.015 3.64202 6.65911 0
M  V30 5365 O 916.225 2.60694 5.64732 0
M  V30 5366 C 917.415 3.93473 7.1943 0
M  V30 5367 O 917.805 3.02071 8.21205 0
M  V30 5368 C 918.295 3.73047 5.97036 0
M  V30 5369 C 917.585 2.58828 5.25741 0
M  V30 5370 N 917.635 2.68068 3.77503 0
M  V30 5371 H 914.796 5.40332 6.79951 0
M  V30 5372 H 914.526 4.41613 5.32378 0
M  V30 5373 H 915.393 3.26331 7.47797 0
M  V30 5374 P 919.355 2.75334 8.47391 0
M  V30 5375 O 919.575 2.44571 9.90142 0
M  V30 5376 O 920.145 3.87688 7.92115 0
M  V30 5377 O 919.605 1.4459 7.59357 0
M  V30 5378 C 918.665 0.347608 7.69215 0
M  V30 5379 C 919.395 -0.96767 7.52806 0
M  V30 5380 O 919.605 -1.21036 6.1011 0
M  V30 5381 C 920.795 -1.04544 8.13308 0
M  V30 5382 O 921.185 -2.38311 8.41922 0
M  V30 5383 C 921.675 -0.491279 7.02284 0
M  V30 5384 C 920.965 -0.996264 5.77469 0
M  V30 5385 N 921.015 -0.0501916 4.62973 0
M  V30 5386 H 918.176 0.374722 8.67691 0
M  V30 5387 H 917.906 0.443485 6.90277 0
M  V30 5388 H 918.773 -1.75537 7.96793 0
M  V30 5389 P 922.735 -2.75334 8.47391 0
M  V30 5390 O 922.955 -3.84128 9.44797 0
M  V30 5391 O 923.525 -1.51947 8.68712 0
M  V30 5392 O 922.985 -3.29363 6.99321 0
M  V30 5393 C 922.045 -4.24011 6.4274 0
M  V30 5394 C 922.775 -5.20775 5.52155 0
M  V30 5395 O 922.985 -4.56534 4.22446 0
M  V30 5396 C 924.175 -5.62629 5.96531 0
M  V30 5397 O 924.565 -6.87667 5.41053 0
M  V30 5398 C 925.055 -4.52537 5.39283 0
M  V30 5399 C 924.345 -4.20027 4.08623 0
M  V30 5400 N 924.395 -2.76189 3.71603 0
M  V30 5401 H 921.556 -4.797 7.24003 0
M  V30 5402 H 921.286 -3.69856 5.84513 0
M  V30 5403 H 922.153 -6.10356 5.41441 0
M  V30 5404 P 926.115 -7.20834 5.23717 0
M  V30 5405 O 926.335 -8.66189 5.38625 0
M  V30 5406 O 926.905 -6.33615 6.1356 0
M  V30 5407 O 926.365 -6.7751 3.72168 0
M  V30 5408 C 925.425 -7.20732 2.70725 0
M  V30 5409 C 926.155 -7.45864 1.40599 0
M  V30 5410 O 926.365 -6.17651 0.734225 0
M  V30 5411 C 927.555 -8.05808 1.51899 0
M  V30 5412 O 927.945 -8.74358 0.335205 0
M  V30 5413 C 928.435 -6.83093 1.70294 0
M  V30 5414 C 927.725 -5.79992 0.836974 0
M  V30 5415 N 927.775 -4.41769 1.38263 0
M  V30 5416 C 927.925 -3.38591 0.481702 0
M  V30 5417 O 928.015 -3.56839 -0.718452 0
M  V30 5418 N 927.965 -2.1206 1.03569 0
M  V30 5419 C 927.875 -1.80696 2.36966 0
M  V30 5420 O 927.925 -0.630473 2.74862 0
M  V30 5421 C 927.725 -2.94845 3.23898 0
M  V30 5422 C 927.615 -2.65253 4.70362 0
M  V30 5423 C 927.675 -4.19803 2.73435 0
M  V30 5424 H 924.935 -8.13644 3.0377 0
M  V30 5425 H 924.666 -6.42695 2.55448 0
M  V30 5426 H 925.533 -8.12039 0.792769 0
M  V30 5427 H 928.188 -5.79978 -0.160587 0
M  V30 5428 H 928.467 -6.51379 2.75643 0
M  V30 5429 H 929.459 -7.01734 1.34462 0
M  V30 5430 H 927.625 -8.73674 2.38337 0
M  V30 5431 H 927.554 -5.04492 3.4095 0
M  V30 5432 H 928.584 -2.83924 5.1913 0
M  V30 5433 H 926.847 -3.29824 5.15163 0
M  V30 5434 H 927.335 -1.59723 4.84449 0
M  V30 5435 H 928.071 -1.35644 0.399345 0
M  V30 5436 P 929.495 -8.91 -6.87236e-12 0
M  V30 5437 O 929.715 -10.1746 -0.733838 0
M  V30 5438 O 930.285 -8.73346 1.23964 0
M  V30 5439 O 929.745 -7.66872 -0.971405 0
M  V30 5440 C 928.805 -7.42405 -2.04668 0
M  V30 5441 C 929.535 -6.86059 -3.24661 0
M  V30 5442 O 929.745 -5.42934 -3.03695 0
M  V30 5443 C 930.935 -7.41287 -3.50796 0
M  V30 5444 O 931.325 -7.27073 -4.86816 0
M  V30 5445 C 931.815 -6.5273 -2.63741 0
M  V30 5446 C 931.105 -5.1842 -2.73198 0
M  V30 5447 N 931.155 -4.38762 -1.4784 0
M  V30 5448 C 931.075 -4.83651 -0.183876 0
M  V30 5449 N 931.145 -3.88759 0.699393 0
M  V30 5450 C 931.295 -2.7404 -0.0575568 0
M  V30 5451 C 931.425 -1.37902 0.293928 0
M  V30 5452 N 931.435 -0.938021 1.54797 0
M  V30 5453 N 931.545 -0.491817 -0.70549 0
M  V30 5454 C 931.535 -0.931735 -1.95979 0
M  V30 5455 N 931.415 -2.16017 -2.41481 0
M  V30 5456 C 931.295 -3.02547 -1.39121 0
M  V30 5457 H 928.317 -8.36899 -2.3252 0
M  V30 5458 H 928.045 -6.70391 -1.71179 0
M  V30 5459 H 928.913 -7.03638 -4.13219 0
M  V30 5460 H 931.568 -4.59931 -3.54016 0
M  V30 5461 H 931.848 -6.88995 -1.59871 0
M  V30 5462 H 932.839 -6.4684 -3.0373 0
M  V30 5463 H 931.005 -8.47002 -3.20749 0
M  V30 5464 H 930.964 -5.8885 0.0765548 0
M  V30 5465 H 931.345 -1.60276 2.32875 0
M  V30 5466 H 931.534 0.0699355 1.73859 0
M  V30 5467 H 931.642 -0.165507 -2.71897 0
M  V30 5468 P 932.874 -7.20834 -5.23717 0
M  V30 5469 O 933.094 -7.80006 -6.57415 0
M  V30 5470 O 933.664 -7.79416 -4.13051 0
M  V30 5471 O 933.124 -5.63315 -5.29344 0
M  V30 5472 C 932.184 -4.80318 -6.01954 0
M  V30 5473 C 932.914 -3.64202 -6.65911 0
M  V30 5474 O 933.124 -2.60736 -5.64823 0
M  V30 5475 C 934.314 -3.93521 -7.19518 0
M  V30 5476 O 934.704 -3.02071 -8.21205 0
M  V30 5477 C 935.194 -3.73047 -5.97036 0
M  V30 5478 C 934.484 -2.58828 -5.25741 0
M  V30 5479 N 934.534 -2.68068 -3.77503 0
M  V30 5480 H 931.696 -5.40394 -6.8003 0
M  V30 5481 H 931.424 -4.41741 -5.32532 0
M  V30 5482 H 932.292 -3.26371 -7.47889 0
M  V30 5483 H 934.947 -1.64007 -5.56746 0
M  V30 5484 H 935.227 -4.63439 -5.3432 0
M  V30 5485 H 936.218 -3.44776 -6.25925 0
M  V30 5486 H 934.384 -4.96707 -7.57347 0
M  V30 5487 P 936.254 -2.75334 -8.47391 0
M  V30 5488 O 936.474 -2.44571 -9.90142 0
M  V30 5489 O 937.044 -3.87688 -7.92115 0
M  V30 5490 O 936.504 -1.4459 -7.59357 0
M  V30 5491 C 935.564 -0.347608 -7.69215 0
M  V30 5492 C 936.294 0.96767 -7.52806 0
M  V30 5493 O 936.504 1.21036 -6.1011 0
M  V30 5494 C 937.694 1.04544 -8.13308 0
M  V30 5495 O 938.084 2.38311 -8.41922 0
M  V30 5496 C 938.574 0.491279 -7.02284 0
M  V30 5497 C 937.864 0.996264 -5.77469 0
M  V30 5498 N 937.914 0.0501916 -4.62973 0
M  V30 5499 H 935.075 -0.374722 -8.67691 0
M  V30 5500 H 934.805 -0.443485 -6.90277 0
M  V30 5501 H 935.672 1.75537 -7.96793 0
M  V30 5502 P 939.634 2.75334 -8.47391 0
M  V30 5503 O 939.854 3.84128 -9.44797 0
M  V30 5504 O 940.424 1.51947 -8.68712 0
M  V30 5505 O 939.884 3.29363 -6.99321 0
M  V30 5506 C 938.944 4.24011 -6.4274 0
M  V30 5507 C 939.674 5.20775 -5.52155 0
M  V30 5508 O 939.884 4.56534 -4.22446 0
M  V30 5509 C 941.074 5.62629 -5.96531 0
M  V30 5510 O 941.464 6.87667 -5.41053 0
M  V30 5511 C 941.954 4.52537 -5.39283 0
M  V30 5512 C 941.244 4.20027 -4.08623 0
M  V30 5513 N 941.294 2.76189 -3.71603 0
M  V30 5514 H 938.455 4.797 -7.24003 0
M  V30 5515 H 938.185 3.69856 -5.84513 0
M  V30 5516 H 939.052 6.10356 -5.41441 0
M  V30 5517 P 943.014 7.20834 -5.23717 0
M  V30 5518 O 943.234 8.66104 -5.38572 0
M  V30 5519 O 943.804 6.33544 -6.1349 0
M  V30 5520 O 943.264 6.7751 -3.72168 0
M  V30 5521 C 942.324 7.20825 -2.7076 0
M  V30 5522 C 943.054 7.45864 -1.40599 0
M  V30 5523 O 943.264 6.17651 -0.734225 0
M  V30 5524 C 944.454 8.05808 -1.51899 0
M  V30 5525 O 944.844 8.74358 -0.335205 0
M  V30 5526 C 945.334 6.83093 -1.70294 0
M  V30 5527 C 944.624 5.79992 -0.836974 0
M  V30 5528 N 944.674 4.41864 -1.38293 0
M  V30 5529 H 941.835 8.13644 -3.0377 0
M  V30 5530 H 941.565 6.42788 -2.55485 0
M  V30 5531 H 942.432 8.12039 -0.792769 0
M  V30 5532 P 946.394 8.91 7.02954e-12 0
M  V30 5533 O 946.614 10.1726 0.733694 0
M  V30 5534 O 947.184 8.73148 -1.23936 0
M  V30 5535 O 946.644 7.66872 0.971405 0
M  V30 5536 C 945.704 7.42309 2.04641 0
M  V30 5537 C 946.434 6.86059 3.24661 0
M  V30 5538 O 946.644 5.42847 3.03646 0
M  V30 5539 C 947.834 7.41196 3.50753 0
M  V30 5540 O 948.224 7.27073 4.86816 0
M  V30 5541 C 948.714 6.5273 2.63741 0
M  V30 5542 C 948.004 5.1842 2.73198 0
M  V30 5543 N 948.054 4.38762 1.4784 0
M  V30 5544 H 945.215 8.36803 2.32493 0
M  V30 5545 H 944.945 6.70197 1.71129 0
M  V30 5546 H 945.812 7.03551 4.13168 0
M  V30 5547 P 949.774 7.20834 5.23717 0
M  V30 5548 O 949.994 7.79853 6.57286 0
M  V30 5549 O 950.564 7.79239 4.12957 0
M  V30 5550 O 950.024 5.63315 5.29344 0
M  V30 5551 C 949.084 4.80255 6.01876 0
M  V30 5552 C 949.814 3.64202 6.65911 0
M  V30 5553 O 950.024 2.60694 5.64732 0
M  V30 5554 C 951.214 3.93473 7.1943 0
M  V30 5555 O 951.604 3.02071 8.21205 0
M  V30 5556 C 952.094 3.73047 5.97036 0
M  V30 5557 C 951.384 2.58828 5.25741 0
M  V30 5558 N 951.434 2.68068 3.77503 0
M  V30 5559 H 948.595 5.40332 6.79951 0
M  V30 5560 H 948.325 4.41613 5.32378 0
M  V30 5561 H 949.192 3.26331 7.47797 0
M  V30 5562 P 953.154 2.75334 8.47391 0
M  V30 5563 O 953.374 2.44571 9.90142 0
M  V30 5564 O 953.944 3.87688 7.92115 0
M  V30 5565 O 953.404 1.4459 7.59357 0
M  V30 5566 C 952.464 0.347608 7.69215 0
M  V30 5567 C 953.194 -0.96767 7.52806 0
M  V30 5568 O 953.404 -1.21036 6.1011 0
M  V30 5569 C 954.594 -1.04544 8.13308 0
M  V30 5570 O 954.984 -2.38311 8.41922 0
M  V30 5571 C 955.474 -0.491279 7.02284 0
M  V30 5572 C 954.764 -0.996264 5.77469 0
M  V30 5573 N 954.814 -0.0501916 4.62973 0
M  V30 5574 H 951.975 0.374722 8.67691 0
M  V30 5575 H 951.705 0.443485 6.90277 0
M  V30 5576 H 952.572 -1.75537 7.96793 0
M  V30 5577 P 956.534 -2.75334 8.47391 0
M  V30 5578 O 956.754 -3.84166 9.4489 0
M  V30 5579 O 957.324 -1.51964 8.6881 0
M  V30 5580 O 956.784 -3.29363 6.99321 0
M  V30 5581 C 955.844 -4.23956 6.42656 0
M  V30 5582 C 956.574 -5.20775 5.52155 0
M  V30 5583 O 956.784 -4.56534 4.22446 0
M  V30 5584 C 957.974 -5.62629 5.96531 0
M  V30 5585 O 958.364 -6.87667 5.41053 0
M  V30 5586 C 958.854 -4.52537 5.39283 0
M  V30 5587 C 958.144 -4.20027 4.08623 0
M  V30 5588 N 958.194 -2.7613 3.71522 0
M  V30 5589 C 958.344 -2.45612 2.37989 0
M  V30 5590 O 958.434 -3.30919 1.51621 0
M  V30 5591 N 958.384 -1.10684 2.08435 0
M  V30 5592 C 958.294 -0.0690084 2.9792 0
M  V30 5593 C 958.144 -0.481522 4.35345 0
M  V30 5594 C 958.094 -1.78906 4.67968 0
M  V30 5595 H 955.354 -4.797 7.24003 0
M  V30 5596 H 955.085 -3.69802 5.84429 0
M  V30 5597 H 955.952 -6.10356 5.41441 0
M  V30 5598 H 958.607 -4.78651 3.27911 0
M  V30 5599 H 958.886 -3.64957 6.05871 0
M  V30 5600 H 959.878 -4.8868 5.2125 0
M  V30 5601 H 958.044 -5.66726 7.06352 0
M  V30 5602 H 957.973 -2.07737 5.72367 0
M  V30 5603 P 959.914 -7.20834 5.23717 0
M  V30 5604 O 960.134 -8.66104 5.38572 0
M  V30 5605 O 960.704 -6.33544 6.1349 0
M  V30 5606 O 960.164 -6.7751 3.72168 0
M  V30 5607 C 959.224 -7.20825 2.7076 0
M  V30 5608 C 959.954 -7.45864 1.40599 0
M  V30 5609 O 960.164 -6.17651 0.734225 0
M  V30 5610 C 961.354 -8.05808 1.51899 0
M  V30 5611 O 961.744 -8.74358 0.335205 0
M  V30 5612 C 962.234 -6.83093 1.70294 0
M  V30 5613 C 961.524 -5.79992 0.836974 0
M  V30 5614 N 961.574 -4.41864 1.38293 0
M  V30 5615 C 961.494 -3.99538 2.69438 0
M  V30 5616 N 961.574 -2.69909 2.84277 0
M  V30 5617 C 961.714 -2.21719 1.5408 0
M  V30 5618 C 961.844 -0.891712 1.06628 0
M  V30 5619 N 961.964 -0.856846 -0.334985 0
M  V30 5620 C 961.964 -1.9641 -1.15789 0
M  V30 5621 N 962.094 -1.72708 -2.46522 0
M  V30 5622 N 961.834 -3.21165 -0.713741 0
M  V30 5623 C 961.714 -3.26797 0.639748 0
M  V30 5624 H 958.735 -8.13644 3.0377 0
M  V30 5625 H 958.465 -6.42788 2.55485 0
M  V30 5626 H 959.332 -8.12039 0.792769 0
M  V30 5627 P 963.294 -8.91 -7.18673e-12 0
M  V30 5628 O 963.514 -10.1726 -0.733694 0
M  V30 5629 O 964.084 -8.73148 1.23936 0
M  V30 5630 O 963.544 -7.66872 -0.971405 0
M  V30 5631 C 962.604 -7.42309 -2.04641 0
M  V30 5632 C 963.334 -6.86059 -3.24661 0
M  V30 5633 O 963.544 -5.42847 -3.03646 0
M  V30 5634 C 964.734 -7.41196 -3.50753 0
M  V30 5635 O 965.124 -7.27073 -4.86816 0
M  V30 5636 C 965.614 -6.5273 -2.63741 0
M  V30 5637 C 964.904 -5.1842 -2.73198 0
M  V30 5638 N 964.954 -4.38762 -1.4784 0
M  V30 5639 C 964.874 -4.81605 -0.168631 0
M  V30 5640 N 964.954 -3.85454 0.713363 0
M  V30 5641 C 965.094 -2.6994 -0.0566958 0
M  V30 5642 C 965.224 -1.34815 0.338502 0
M  V30 5643 O 965.244 -0.869548 1.47125 0
M  V30 5644 N 965.344 -0.496304 -0.77465 0
M  V30 5645 C 965.344 -0.908403 -2.09122 0
M  V30 5646 N 965.474 0.0517805 -3.00955 0
M  V30 5647 N 965.214 -2.17875 -2.46519 0
M  V30 5648 C 965.094 -3.01988 -1.4033 0
M  V30 5649 H 962.115 -8.36803 -2.32493 0
M  V30 5650 H 961.845 -6.70197 -1.71129 0
M  V30 5651 H 962.712 -7.03551 -4.13168 0
M  V30 5652 H 965.367 -4.59498 -3.54415 0
M  V30 5653 H 965.646 -6.88898 -1.59848 0
M  V30 5654 H 966.638 -6.46749 -3.03687 0
M  V30 5655 H 964.804 -8.46908 -3.20714 0
M  V30 5656 H 964.755 -5.86405 0.105564 0
M  V30 5657 H 965.437 0.483664 -0.597855 0
M  V30 5658 H 965.474 -0.187865 -4.0116 0
M  V30 5659 H 965.575 1.03585 -2.71726 0
M  V30 5660 P 966.674 -7.20834 -5.23717 0
M  V30 5661 O 966.894 -7.79853 -6.57286 0
M  V30 5662 O 967.464 -7.79239 -4.12957 0
M  V30 5663 O 966.924 -5.63315 -5.29344 0
M  V30 5664 C 965.984 -4.80255 -6.01876 0
M  V30 5665 C 966.714 -3.64202 -6.65911 0
M  V30 5666 O 966.924 -2.60694 -5.64732 0
M  V30 5667 C 968.114 -3.93473 -7.1943 0
M  V30 5668 O 968.504 -3.02071 -8.21205 0
M  V30 5669 C 968.994 -3.73047 -5.97036 0
M  V30 5670 C 968.284 -2.58828 -5.25741 0
M  V30 5671 N 968.334 -2.68068 -3.77503 0
M  V30 5672 H 965.495 -5.40332 -6.79951 0
M  V30 5673 H 965.225 -4.41613 -5.32378 0
M  V30 5674 H 966.092 -3.26331 -7.47797 0
M  V30 5675 P 970.054 -2.75334 -8.47391 0
M  V30 5676 O 970.274 -2.44571 -9.90142 0
M  V30 5677 O 970.844 -3.87688 -7.92115 0
M  V30 5678 O 970.304 -1.4459 -7.59357 0
M  V30 5679 C 969.364 -0.347608 -7.69215 0
M  V30 5680 C 970.094 0.96767 -7.52806 0
M  V30 5681 O 970.304 1.21036 -6.1011 0
M  V30 5682 C 971.494 1.04544 -8.13308 0
M  V30 5683 O 971.884 2.38311 -8.41922 0
M  V30 5684 C 972.374 0.491279 -7.02284 0
M  V30 5685 C 971.664 0.996264 -5.77469 0
M  V30 5686 N 971.714 0.0501916 -4.62973 0
M  V30 5687 H 968.875 -0.374722 -8.67691 0
M  V30 5688 H 968.605 -0.443485 -6.90277 0
M  V30 5689 H 969.472 1.75537 -7.96793 0
M  V30 5690 P 973.434 2.75334 -8.47391 0
M  V30 5691 O 973.654 3.84128 -9.44797 0
M  V30 5692 O 974.224 1.51947 -8.68712 0
M  V30 5693 O 973.684 3.29363 -6.99321 0
M  V30 5694 C 972.744 4.24011 -6.4274 0
M  V30 5695 C 973.474 5.20775 -5.52155 0
M  V30 5696 O 973.684 4.56534 -4.22446 0
M  V30 5697 C 974.874 5.62629 -5.96531 0
M  V30 5698 O 975.264 6.87667 -5.41053 0
M  V30 5699 C 975.754 4.52537 -5.39283 0
M  V30 5700 C 975.044 4.20027 -4.08623 0
M  V30 5701 N 975.094 2.76189 -3.71603 0
M  V30 5702 C 975.014 1.64862 -4.52822 0
M  V30 5703 N 975.094 0.512671 -3.88633 0
M  V30 5704 C 975.234 0.888083 -2.54977 0
M  V30 5705 C 975.364 0.094668 -1.38677 0
M  V30 5706 O 975.384 -1.13053 -1.28163 0
M  V30 5707 N 975.484 0.890102 -0.232633 0
M  V30 5708 C 975.484 2.26958 -0.21772 0
M  V30 5709 N 975.614 2.84626 0.97925 0
M  V30 5710 N 975.354 3.0178 -1.31033 0
M  V30 5711 C 975.234 2.26781 -2.43843 0
M  V30 5712 H 972.255 4.797 -7.24003 0
M  V30 5713 H 971.985 3.69856 -5.84513 0
M  V30 5714 H 972.852 6.10356 -5.41441 0
M  V30 5715 H 975.507 4.79061 -3.27488 0
M  V30 5716 H 975.786 3.64906 -6.05785 0
M  V30 5717 H 976.778 4.8868 -5.2125 0
M  V30 5718 H 974.944 5.66726 -7.06352 0
M  V30 5719 H 974.895 1.71169 -5.60966 0
M  V30 5720 H 975.577 0.419134 0.644739 0
M  V30 5721 H 975.614 3.87332 1.06098 0
M  V30 5722 H 975.715 2.26417 1.82483 0
M  V30 5723 P 976.814 7.20834 -5.23717 0
M  V30 5724 O 977.034 8.66189 -5.38625 0
M  V30 5725 O 977.604 6.33615 -6.1356 0
M  V30 5726 O 977.064 6.7751 -3.72168 0
M  V30 5727 C 976.124 7.20825 -2.7076 0
M  V30 5728 C 976.854 7.45864 -1.40599 0
M  V30 5729 O 977.064 6.17651 -0.734225 0
M  V30 5730 C 978.254 8.05808 -1.51899 0
M  V30 5731 O 978.644 8.74358 -0.335205 0
M  V30 5732 C 979.134 6.83093 -1.70294 0
M  V30 5733 C 978.424 5.79992 -0.836974 0
M  V30 5734 N 978.474 4.41769 -1.38263 0
M  V30 5735 C 978.624 3.36514 -0.485617 0
M  V30 5736 O 978.714 3.61814 0.724703 0
M  V30 5737 N 978.674 2.00746 -1.14492 0
M  V30 5738 C 978.574 1.85887 -2.27776 0
M  V30 5739 N 978.624 0.600907 -2.69379 0
M  V30 5740 C 978.424 2.92182 -3.22265 0
M  V30 5741 C 978.374 4.18399 -2.71925 0
M  V30 5742 H 975.634 8.1355 -3.03735 0
M  V30 5743 H 975.365 6.42695 -2.55448 0
M  V30 5744 H 976.232 8.12139 -0.792866 0
M  V30 5745 H 978.887 5.80078 0.160615 0
M  V30 5746 H 979.166 6.51379 -2.75643 0
M  V30 5747 H 980.158 7.01734 -1.34462 0
M  V30 5748 H 978.324 8.73674 -2.38337 0
M  V30 5749 H 978.252 5.02669 -3.39718 0
M  V30 5750 H 978.354 2.73001 -4.29239 0
M  V30 5751 H 978.742 -0.162318 -2.01146 0
M  V30 5752 H 978.545 0.387742 -3.69773 0
M  V30 5753 P 980.194 8.91 7.34391e-12 0
M  V30 5754 O 980.414 10.1726 0.733694 0
M  V30 5755 O 980.984 8.73148 -1.23936 0
M  V30 5756 O 980.444 7.66872 0.971405 0
M  V30 5757 C 979.504 7.42309 2.04641 0
M  V30 5758 C 980.234 6.86059 3.24661 0
M  V30 5759 O 980.444 5.42847 3.03646 0
M  V30 5760 C 981.634 7.41196 3.50753 0
M  V30 5761 O 982.024 7.27073 4.86816 0
M  V30 5762 C 982.514 6.5273 2.63741 0
M  V30 5763 C 981.804 5.1842 2.73198 0
M  V30 5764 N 981.854 4.38762 1.4784 0
M  V30 5765 C 981.774 4.81605 0.168631 0
M  V30 5766 N 981.854 3.85454 -0.713363 0
M  V30 5767 C 981.994 2.6994 0.0566958 0
M  V30 5768 C 982.124 1.34815 -0.338502 0
M  V30 5769 N 982.244 0.496304 0.77465 0
M  V30 5770 C 982.244 0.908403 2.09122 0
M  V30 5771 N 982.374 -0.0517805 3.00955 0
M  V30 5772 N 982.114 2.17875 2.46519 0
M  V30 5773 C 981.994 3.01988 1.4033 0
M  V30 5774 H 979.015 8.36803 2.32493 0
M  V30 5775 H 978.745 6.70197 1.71129 0
M  V30 5776 H 979.612 7.03551 4.13168 0
M  V30 5777 P 983.574 7.20834 5.23717 0
M  V30 5778 O 983.794 7.80006 6.57415 0
M  V30 5779 O 984.364 7.79416 4.13051 0
M  V30 5780 O 983.824 5.63315 5.29344 0
M  V30 5781 C 982.884 4.80318 6.01954 0
M  V30 5782 C 983.614 3.64202 6.65911 0
M  V30 5783 O 983.824 2.60736 5.64823 0
M  V30 5784 C 985.014 3.93521 7.19518 0
M  V30 5785 O 985.404 3.02071 8.21205 0
M  V30 5786 C 985.894 3.73047 5.97036 0
M  V30 5787 C 985.184 2.58828 5.25741 0
M  V30 5788 N 985.234 2.68068 3.77503 0
M  V30 5789 H 982.396 5.40394 6.8003 0
M  V30 5790 H 982.124 4.41741 5.32532 0
M  V30 5791 H 982.992 3.26371 7.47889 0
M  V30 5792 H 985.647 1.64007 5.56746 0
M  V30 5793 H 985.927 4.63439 5.3432 0
M  V30 5794 H 986.918 3.44776 6.25925 0
M  V30 5795 H 985.084 4.96707 7.57347 0
M  V30 5796 P 986.954 2.75334 8.47391 0
M  V30 5797 O 987.174 2.44571 9.90142 0
M  V30 5798 O 987.744 3.87688 7.92115 0
M  V30 5799 O 987.204 1.4459 7.59357 0
M  V30 5800 C 986.264 0.347608 7.69215 0
M  V30 5801 C 986.994 -0.96767 7.52806 0
M  V30 5802 O 987.204 -1.21036 6.1011 0
M  V30 5803 C 988.394 -1.04544 8.13308 0
M  V30 5804 O 988.784 -2.38311 8.41922 0
M  V30 5805 C 989.274 -0.491279 7.02284 0
M  V30 5806 C 988.564 -0.996264 5.77469 0
M  V30 5807 N 988.614 -0.0501916 4.62973 0
M  V30 5808 H 985.775 0.374722 8.67691 0
M  V30 5809 H 985.505 0.443485 6.90277 0
M  V30 5810 H 986.372 -1.75537 7.96793 0
M  V30 5811 P 990.334 -2.75334 8.47391 0
M  V30 5812 O 990.554 -3.84128 9.44797 0
M  V30 5813 O 991.124 -1.51947 8.68712 0
M  V30 5814 O 990.584 -3.29363 6.99321 0
M  V30 5815 C 989.644 -4.24011 6.4274 0
M  V30 5816 C 990.374 -5.20775 5.52155 0
M  V30 5817 O 990.584 -4.56534 4.22446 0
M  V30 5818 C 991.774 -5.62629 5.96531 0
M  V30 5819 O 992.164 -6.87667 5.41053 0
M  V30 5820 C 992.654 -4.52537 5.39283 0
M  V30 5821 C 991.944 -4.20027 4.08623 0
M  V30 5822 N 991.994 -2.76189 3.71603 0
M  V30 5823 H 989.155 -4.797 7.24003 0
M  V30 5824 H 988.885 -3.69856 5.84513 0
M  V30 5825 H 989.752 -6.10356 5.41441 0
M  V30 5826 P 993.714 -7.20834 5.23717 0
M  V30 5827 O 993.934 -8.66104 5.38572 0
M  V30 5828 O 994.504 -6.33544 6.1349 0
M  V30 5829 O 993.964 -6.7751 3.72168 0
M  V30 5830 C 993.024 -7.20825 2.7076 0
M  V30 5831 C 993.754 -7.45864 1.40599 0
M  V30 5832 O 993.964 -6.17651 0.734225 0
M  V30 5833 C 995.154 -8.05808 1.51899 0
M  V30 5834 O 995.544 -8.74358 0.335205 0
M  V30 5835 C 996.034 -6.83093 1.70294 0
M  V30 5836 C 995.324 -5.79992 0.836974 0
M  V30 5837 N 995.374 -4.41864 1.38293 0
M  V30 5838 H 992.535 -8.13644 3.0377 0
M  V30 5839 H 992.265 -6.42788 2.55485 0
M  V30 5840 H 993.132 -8.12039 0.792769 0
M  V30 5841 P 997.094 -8.91 -7.50109e-12 0
M  V30 5842 O 997.314 -10.1736 -0.733766 0
M  V30 5843 O 997.884 -8.73247 1.2395 0
M  V30 5844 O 997.344 -7.66872 -0.971405 0
M  V30 5845 C 996.404 -7.42212 -2.04614 0
M  V30 5846 C 997.134 -6.86059 -3.24661 0
M  V30 5847 O 997.344 -5.42847 -3.03646 0
M  V30 5848 C 998.534 -7.41196 -3.50753 0
M  V30 5849 O 998.924 -7.27073 -4.86816 0
M  V30 5850 C 999.414 -6.5273 -2.63741 0
M  V30 5851 C 998.704 -5.1842 -2.73198 0
M  V30 5852 N 998.754 -4.38668 -1.47808 0
M  V30 5853 C 998.904 -3.02239 -1.60048 0
M  V30 5854 O 998.994 -2.46459 -2.67869 0
M  V30 5855 N 998.944 -2.32436 -0.408571 0
M  V30 5856 C 998.854 -2.85471 0.854993 0
M  V30 5857 O 998.904 -2.12566 1.8531 0
M  V30 5858 C 998.704 -4.28918 0.887335 0
M  V30 5859 C 998.594 -4.91066 2.24619 0
M  V30 5860 C 998.654 -5.00349 -0.255399 0
M  V30 5861 H 995.914 -8.36803 -2.32493 0
M  V30 5862 H 995.645 -6.701 -1.71105 0
M  V30 5863 H 996.512 -7.03551 -4.13168 0
M  V30 5864 H 999.167 -4.59773 -3.53894 0
M  V30 5865 H 999.446 -6.88995 -1.59871 0
M  V30 5866 H 1000.44 -6.46749 -3.03687 0
M  V30 5867 H 998.604 -8.46908 -3.20714 0
M  V30 5868 H 998.533 -6.08548 -0.206986 0
M  V30 5869 H 999.563 -5.34836 2.53099 0
M  V30 5870 H 997.826 -5.69638 2.2291 0
M  V30 5871 H 998.314 -4.13971 2.98044 0
M  V30 5872 H 999.05 -1.33211 -0.474216 0
M  V30 5873 P 1000.47 -7.20834 -5.23717 0
M  V30 5874 O 1000.69 -7.79853 -6.57286 0
M  V30 5875 O 1001.26 -7.79239 -4.12957 0
M  V30 5876 O 1000.72 -5.63315 -5.29344 0
M  V30 5877 C 999.784 -4.80255 -6.01876 0
M  V30 5878 C 1000.51 -3.64202 -6.65911 0
M  V30 5879 O 1000.72 -2.60694 -5.64732 0
M  V30 5880 C 1001.91 -3.93473 -7.1943 0
M  V30 5881 O 1002.3 -3.02071 -8.21205 0
M  V30 5882 C 1002.79 -3.73047 -5.97036 0
M  V30 5883 C 1002.08 -2.58828 -5.25741 0
M  V30 5884 N 1002.13 -2.68068 -3.77503 0
M  V30 5885 H 999.295 -5.40332 -6.79951 0
M  V30 5886 H 999.025 -4.41613 -5.32378 0
M  V30 5887 H 999.892 -3.26331 -7.47797 0
M  V30 5888 P 1003.85 -2.75334 -8.47391 0
M  V30 5889 O 1004.07 -2.44571 -9.90142 0
M  V30 5890 O 1004.64 -3.87688 -7.92115 0
M  V30 5891 O 1004.1 -1.4459 -7.59357 0
M  V30 5892 C 1003.16 -0.347608 -7.69215 0
M  V30 5893 C 1003.89 0.96767 -7.52806 0
M  V30 5894 O 1004.1 1.21036 -6.1011 0
M  V30 5895 C 1005.29 1.04544 -8.13308 0
M  V30 5896 O 1005.68 2.38311 -8.41922 0
M  V30 5897 C 1006.17 0.491279 -7.02284 0
M  V30 5898 C 1005.46 0.996264 -5.77469 0
M  V30 5899 N 1005.51 0.0501916 -4.62973 0
M  V30 5900 H 1002.68 -0.374722 -8.67691 0
M  V30 5901 H 1002.41 -0.443485 -6.90277 0
M  V30 5902 H 1003.27 1.75537 -7.96793 0
M  V30 5903 P 1007.23 2.75334 -8.47391 0
M  V30 5904 O 1007.45 3.84128 -9.44797 0
M  V30 5905 O 1008.02 1.51947 -8.68712 0
M  V30 5906 O 1007.48 3.29363 -6.99321 0
M  V30 5907 C 1006.54 4.24011 -6.4274 0
M  V30 5908 C 1007.27 5.20775 -5.52155 0
M  V30 5909 O 1007.48 4.56534 -4.22446 0
M  V30 5910 C 1008.67 5.62629 -5.96531 0
M  V30 5911 O 1009.06 6.87667 -5.41053 0
M  V30 5912 C 1009.55 4.52537 -5.39283 0
M  V30 5913 C 1008.84 4.20027 -4.08623 0
M  V30 5914 N 1008.89 2.76189 -3.71603 0
M  V30 5915 H 1006.06 4.797 -7.24003 0
M  V30 5916 H 1005.79 3.69856 -5.84513 0
M  V30 5917 H 1006.65 6.10356 -5.41441 0
M  V30 5918 P 1010.61 7.20834 -5.23717 0
M  V30 5919 O 1010.83 8.66104 -5.38572 0
M  V30 5920 O 1011.4 6.33544 -6.1349 0
M  V30 5921 O 1010.86 6.7751 -3.72168 0
M  V30 5922 C 1009.92 7.20825 -2.7076 0
M  V30 5923 C 1010.65 7.45864 -1.40599 0
M  V30 5924 O 1010.86 6.17651 -0.734225 0
M  V30 5925 C 1012.05 8.05808 -1.51899 0
M  V30 5926 O 1012.44 8.74358 -0.335205 0
M  V30 5927 C 1012.93 6.83093 -1.70294 0
M  V30 5928 C 1012.22 5.79992 -0.836974 0
M  V30 5929 N 1012.27 4.41864 -1.38293 0
M  V30 5930 H 1009.44 8.13644 -3.0377 0
M  V30 5931 H 1009.17 6.42788 -2.55485 0
M  V30 5932 H 1010.03 8.12039 -0.792769 0
M  V30 5933 P 1013.99 8.91 7.65827e-12 0
M  V30 5934 O 1014.21 10.1726 0.733694 0
M  V30 5935 O 1014.78 8.73148 -1.23936 0
M  V30 5936 O 1014.24 7.66872 0.971405 0
M  V30 5937 C 1013.3 7.42309 2.04641 0
M  V30 5938 C 1014.03 6.86059 3.24661 0
M  V30 5939 O 1014.24 5.42847 3.03646 0
M  V30 5940 C 1015.43 7.41196 3.50753 0
M  V30 5941 O 1015.82 7.27073 4.86816 0
M  V30 5942 C 1016.31 6.5273 2.63741 0
M  V30 5943 C 1015.6 5.1842 2.73198 0
M  V30 5944 N 1015.65 4.38762 1.4784 0
M  V30 5945 H 1012.82 8.36803 2.32493 0
M  V30 5946 H 1012.55 6.70197 1.71129 0
M  V30 5947 H 1013.41 7.03551 4.13168 0
M  V30 5948 P 1017.37 7.20834 5.23717 0
M  V30 5949 O 1017.59 7.79853 6.57286 0
M  V30 5950 O 1018.16 7.79239 4.12957 0
M  V30 5951 O 1017.62 5.63315 5.29344 0
M  V30 5952 C 1016.68 4.80255 6.01876 0
M  V30 5953 C 1017.41 3.64202 6.65911 0
M  V30 5954 O 1017.62 2.60694 5.64732 0
M  V30 5955 C 1018.81 3.93473 7.1943 0
M  V30 5956 O 1019.2 3.02071 8.21205 0
M  V30 5957 C 1019.69 3.73047 5.97036 0
M  V30 5958 C 1018.98 2.58828 5.25741 0
M  V30 5959 N 1019.03 2.68068 3.77503 0
M  V30 5960 H 1016.19 5.40332 6.79951 0
M  V30 5961 H 1015.92 4.41613 5.32378 0
M  V30 5962 H 1016.79 3.26331 7.47797 0
M  V30 5963 P 1020.75 2.75334 8.47391 0
M  V30 5964 O 1020.97 2.44571 9.90142 0
M  V30 5965 O 1021.54 3.87688 7.92115 0
M  V30 5966 O 1021 1.4459 7.59357 0
M  V30 5967 C 1020.06 0.347608 7.69215 0
M  V30 5968 C 1020.79 -0.96767 7.52806 0
M  V30 5969 O 1021 -1.21036 6.1011 0
M  V30 5970 C 1022.19 -1.04544 8.13308 0
M  V30 5971 O 1022.58 -2.38311 8.41922 0
M  V30 5972 C 1023.07 -0.491279 7.02284 0
M  V30 5973 C 1022.36 -0.996264 5.77469 0
M  V30 5974 N 1022.41 -0.0501916 4.62973 0
M  V30 5975 H 1019.57 0.374722 8.67691 0
M  V30 5976 H 1019.3 0.443485 6.90277 0
M  V30 5977 H 1020.17 -1.75537 7.96793 0
M  V30 5978 P 1024.13 -2.75334 8.47391 0
M  V30 5979 O 1024.35 -3.84128 9.44797 0
M  V30 5980 O 1024.92 -1.51947 8.68712 0
M  V30 5981 O 1024.38 -3.29363 6.99321 0
M  V30 5982 C 1023.44 -4.24011 6.4274 0
M  V30 5983 C 1024.17 -5.20775 5.52155 0
M  V30 5984 O 1024.38 -4.56534 4.22446 0
M  V30 5985 C 1025.57 -5.62629 5.96531 0
M  V30 5986 O 1025.96 -6.87667 5.41053 0
M  V30 5987 C 1026.45 -4.52537 5.39283 0
M  V30 5988 C 1025.74 -4.20027 4.08623 0
M  V30 5989 N 1025.79 -2.76189 3.71603 0
M  V30 5990 C 1025.71 -1.64862 4.52822 0
M  V30 5991 N 1025.79 -0.512671 3.88633 0
M  V30 5992 C 1025.93 -0.888083 2.54977 0
M  V30 5993 C 1026.06 -0.094668 1.38677 0
M  V30 5994 O 1026.08 1.13053 1.28163 0
M  V30 5995 N 1026.18 -0.890102 0.232633 0
M  V30 5996 C 1026.18 -2.26958 0.21772 0
M  V30 5997 N 1026.31 -2.84626 -0.97925 0
M  V30 5998 N 1026.05 -3.0178 1.31033 0
M  V30 5999 C 1025.93 -2.26781 2.43843 0
M  V30 6000 H 1022.95 -4.797 7.24003 0
M  V30 6001 H 1022.68 -3.69856 5.84513 0
M  V30 6002 H 1023.55 -6.10356 5.41441 0
M  V30 6003 H 1026.21 -4.79061 3.27488 0
M  V30 6004 H 1026.49 -3.64906 6.05785 0
M  V30 6005 H 1027.48 -4.8868 5.2125 0
M  V30 6006 H 1025.64 -5.66726 7.06352 0
M  V30 6007 H 1025.59 -1.71169 5.60966 0
M  V30 6008 H 1026.28 -0.419134 -0.644739 0
M  V30 6009 H 1026.31 -3.87332 -1.06098 0
M  V30 6010 H 1026.41 -2.26417 -1.82483 0
M  V30 6011 P 1027.51 -7.20834 5.23717 0
M  V30 6012 O 1027.73 -8.66104 5.38572 0
M  V30 6013 O 1028.3 -6.33544 6.1349 0
M  V30 6014 O 1027.76 -6.7751 3.72168 0
M  V30 6015 C 1026.82 -7.20825 2.7076 0
M  V30 6016 C 1027.55 -7.45864 1.40599 0
M  V30 6017 O 1027.76 -6.17651 0.734225 0
M  V30 6018 C 1028.95 -8.05808 1.51899 0
M  V30 6019 O 1029.34 -8.74358 0.335205 0
M  V30 6020 C 1029.83 -6.83093 1.70294 0
M  V30 6021 C 1029.12 -5.79992 0.836974 0
M  V30 6022 N 1029.17 -4.41864 1.38293 0
M  V30 6023 H 1026.33 -8.13644 3.0377 0
M  V30 6024 H 1026.06 -6.42788 2.55485 0
M  V30 6025 H 1026.93 -8.12039 0.792769 0
M  V30 6026 P 1030.89 -8.91 -7.81545e-12 0
M  V30 6027 O 1031.11 -10.1726 -0.733694 0
M  V30 6028 O 1031.68 -8.73148 1.23936 0
M  V30 6029 O 1031.14 -7.66872 -0.971405 0
M  V30 6030 C 1030.2 -7.42309 -2.04641 0
M  V30 6031 C 1030.93 -6.86059 -3.24661 0
M  V30 6032 O 1031.14 -5.42847 -3.03646 0
M  V30 6033 C 1032.33 -7.41196 -3.50753 0
M  V30 6034 O 1032.72 -7.27073 -4.86816 0
M  V30 6035 C 1033.21 -6.5273 -2.63741 0
M  V30 6036 C 1032.5 -5.1842 -2.73198 0
M  V30 6037 N 1032.55 -4.38762 -1.4784 0
M  V30 6038 H 1029.71 -8.36803 -2.32493 0
M  V30 6039 H 1029.44 -6.70197 -1.71129 0
M  V30 6040 H 1030.31 -7.03551 -4.13168 0
M  V30 6041 P 1034.27 -7.20834 -5.23717 0
M  V30 6042 O 1034.49 -7.79853 -6.57286 0
M  V30 6043 O 1035.06 -7.79239 -4.12957 0
M  V30 6044 O 1034.52 -5.63315 -5.29344 0
M  V30 6045 C 1033.58 -4.80255 -6.01876 0
M  V30 6046 C 1034.31 -3.64202 -6.65911 0
M  V30 6047 O 1034.52 -2.60694 -5.64732 0
M  V30 6048 C 1035.71 -3.93473 -7.1943 0
M  V30 6049 O 1036.1 -3.02071 -8.21205 0
M  V30 6050 C 1036.59 -3.73047 -5.97036 0
M  V30 6051 C 1035.88 -2.58828 -5.25741 0
M  V30 6052 N 1035.93 -2.68068 -3.77503 0
M  V30 6053 H 1033.09 -5.40332 -6.79951 0
M  V30 6054 H 1032.82 -4.41613 -5.32378 0
M  V30 6055 H 1033.69 -3.26331 -7.47797 0
M  V30 6056 P 1037.65 -2.75334 -8.47391 0
M  V30 6057 O 1037.87 -2.44571 -9.90142 0
M  V30 6058 O 1038.44 -3.87688 -7.92115 0
M  V30 6059 O 1037.9 -1.4459 -7.59357 0
M  V30 6060 C 1036.96 -0.347608 -7.69215 0
M  V30 6061 C 1037.69 0.96767 -7.52806 0
M  V30 6062 O 1037.9 1.21036 -6.1011 0
M  V30 6063 C 1039.09 1.04544 -8.13308 0
M  V30 6064 O 1039.48 2.38311 -8.41922 0
M  V30 6065 C 1039.97 0.491279 -7.02284 0
M  V30 6066 C 1039.26 0.996264 -5.77469 0
M  V30 6067 N 1039.31 0.0501916 -4.62973 0
M  V30 6068 H 1036.47 -0.374722 -8.67691 0
M  V30 6069 H 1036.2 -0.443485 -6.90277 0
M  V30 6070 H 1037.07 1.75537 -7.96793 0
M  V30 6071 P 1041.03 2.75334 -8.47391 0
M  V30 6072 O 1041.25 3.84128 -9.44797 0
M  V30 6073 O 1041.82 1.51947 -8.68712 0
M  V30 6074 O 1041.28 3.29363 -6.99321 0
M  V30 6075 C 1040.34 4.24011 -6.4274 0
M  V30 6076 C 1041.07 5.20775 -5.52155 0
M  V30 6077 O 1041.28 4.56534 -4.22446 0
M  V30 6078 C 1042.47 5.62629 -5.96531 0
M  V30 6079 O 1042.86 6.87667 -5.41053 0
M  V30 6080 C 1043.35 4.52537 -5.39283 0
M  V30 6081 C 1042.64 4.20027 -4.08623 0
M  V30 6082 N 1042.69 2.76189 -3.71603 0
M  V30 6083 H 1039.85 4.797 -7.24003 0
M  V30 6084 H 1039.58 3.69856 -5.84513 0
M  V30 6085 H 1040.45 6.10356 -5.41441 0
M  V30 6086 P 1044.41 7.20834 -5.23717 0
M  V30 6087 O 1044.63 8.66274 -5.38678 0
M  V30 6088 O 1045.2 6.33687 -6.13629 0
M  V30 6089 O 1044.66 6.7751 -3.72168 0
M  V30 6090 C 1043.72 7.20919 -2.70795 0
M  V30 6091 C 1044.45 7.45864 -1.40599 0
M  V30 6092 O 1044.66 6.17751 -0.734343 0
M  V30 6093 C 1045.85 8.05906 -1.51917 0
M  V30 6094 O 1046.24 8.74358 -0.335205 0
M  V30 6095 C 1046.73 6.83093 -1.70294 0
M  V30 6096 C 1046.02 5.79992 -0.836974 0
M  V30 6097 N 1046.07 4.41864 -1.38293 0
M  V30 6098 H 1043.24 8.13738 -3.03804 0
M  V30 6099 H 1042.96 6.42974 -2.55559 0
M  V30 6100 H 1043.83 8.12139 -0.792866 0
M  V30 6101 H 1046.49 5.80178 0.160643 0
M  V30 6102 H 1046.77 6.51379 -2.75643 0
M  V30 6103 H 1047.76 7.01832 -1.3448 0
M  V30 6104 H 1045.92 8.73771 -2.38364 0
M  V30 6105 P 1047.79 8.91 7.97264e-12 0
M  V30 6106 O 1048.01 10.1726 0.733694 0
M  V30 6107 O 1048.58 8.73148 -1.23936 0
M  V30 6108 O 1048.04 7.66872 0.971405 0
M  V30 6109 C 1047.1 7.42309 2.04641 0
M  V30 6110 C 1047.83 6.86059 3.24661 0
M  V30 6111 O 1048.04 5.42847 3.03646 0
M  V30 6112 C 1049.23 7.41196 3.50753 0
M  V30 6113 O 1049.62 7.27073 4.86816 0
M  V30 6114 C 1050.11 6.5273 2.63741 0
M  V30 6115 C 1049.4 5.1842 2.73198 0
M  V30 6116 N 1049.45 4.38762 1.4784 0
M  V30 6117 H 1046.61 8.36803 2.32493 0
M  V30 6118 H 1046.34 6.70197 1.71129 0
M  V30 6119 H 1047.21 7.03551 4.13168 0
M  V30 6120 P 1051.17 7.20834 5.23717 0
M  V30 6121 O 1051.39 7.79853 6.57286 0
M  V30 6122 O 1051.96 7.79239 4.12957 0
M  V30 6123 O 1051.42 5.63315 5.29344 0
M  V30 6124 C 1050.48 4.80255 6.01876 0
M  V30 6125 C 1051.21 3.64202 6.65911 0
M  V30 6126 O 1051.42 2.60694 5.64732 0
M  V30 6127 C 1052.61 3.93473 7.1943 0
M  V30 6128 O 1053 3.02071 8.21205 0
M  V30 6129 C 1053.49 3.73047 5.97036 0
M  V30 6130 C 1052.78 2.58828 5.25741 0
M  V30 6131 N 1052.83 2.68068 3.77503 0
M  V30 6132 H 1049.99 5.40332 6.79951 0
M  V30 6133 H 1049.72 4.41613 5.32378 0
M  V30 6134 H 1050.59 3.26331 7.47797 0
M  V30 6135 P 1054.55 2.75334 8.47391 0
M  V30 6136 O 1054.77 2.44571 9.90142 0
M  V30 6137 O 1055.34 3.87688 7.92115 0
M  V30 6138 O 1054.8 1.4459 7.59357 0
M  V30 6139 C 1053.86 0.347608 7.69215 0
M  V30 6140 C 1054.59 -0.96767 7.52806 0
M  V30 6141 O 1054.8 -1.21036 6.1011 0
M  V30 6142 C 1055.99 -1.04544 8.13308 0
M  V30 6143 O 1056.38 -2.38311 8.41922 0
M  V30 6144 C 1056.87 -0.491279 7.02284 0
M  V30 6145 C 1056.16 -0.996264 5.77469 0
M  V30 6146 N 1056.21 -0.0501916 4.62973 0
M  V30 6147 H 1053.37 0.374722 8.67691 0
M  V30 6148 H 1053.1 0.443485 6.90277 0
M  V30 6149 H 1053.97 -1.75537 7.96793 0
M  V30 6150 H 1056.25 -2.92663 7.63961 0
M  V30 6151 H 1060.27 -0.0909867 -9.51056 0
M  V30 6152 O 1060.15 -0.778697 -8.86988 0
M  V30 6153 P 1058.71 -1.17771 -8.83182 0
M  V30 6154 O 1058.49 -2.07206 -9.98732 0
M  V30 6155 O 1057.92 0.0743816 -8.81969 0
M  V30 6156 O 1058.46 -1.97652 -7.47304 0
M  V30 6157 C 1059.4 -3.01133 -7.08783 0
M  V30 6158 C 1058.67 -4.12613 -6.37049 0
M  V30 6159 O 1058.46 -3.72827 -4.97879 0
M  V30 6160 C 1057.27 -4.45085 -6.88694 0
M  V30 6161 O 1056.88 -5.7877 -6.5624 0
M  V30 6162 C 1056.39 -3.47817 -6.12078 0
M  V30 6163 C 1057.1 -3.39414 -4.77697 0
M  V30 6164 N 1057.05 -2.04615 -4.15333 0
M  V30 6165 H 1059.89 -3.41248 -7.98759 0
M  V30 6166 H 1060.16 -2.5837 -6.41742 0
M  V30 6167 H 1059.3 -5.02657 -6.42673 0
M  V30 6168 P 1055.33 -6.144 -6.45285 0
M  V30 6169 O 1055.11 -7.54673 -6.86199 0
M  V30 6170 O 1054.54 -5.12391 -7.179 0
M  V30 6171 O 1055.08 -5.99158 -4.88404 0
M  V30 6172 C 1056.02 -6.60234 -3.96415 0
M  V30 6173 C 1055.29 -7.08259 -2.72856 0
M  V30 6174 O 1055.08 -5.9427 -1.83651 0
M  V30 6175 C 1053.89 -7.64886 -2.9555 0
M  V30 6176 O 1053.5 -8.53963 -1.90717 0
M  V30 6177 C 1053.01 -6.4116 -2.90739 0
M  V30 6178 C 1053.72 -5.55375 -1.86963 0
M  V30 6179 N 1053.67 -4.09664 -2.15742 0
M  V30 6180 H 1056.51 -7.45574 -4.45629 0
M  V30 6181 H 1056.78 -5.86232 -3.67314 0
M  V30 6182 H 1055.92 -7.84412 -2.24479 0
M  V30 6183 P 1051.95 -8.7635 -1.60911 0
M  V30 6184 O 1051.73 -10.1388 -1.11561 0
M  V30 6185 O 1051.16 -8.36503 -2.79617 0
M  V30 6186 O 1051.7 -7.71806 -0.42951 0
M  V30 6187 C 1052.64 -7.67148 0.673689 0
M  V30 6188 C 1051.91 -7.33374 1.95559 0
M  V30 6189 O 1051.7 -5.88721 2.00726 0
M  V30 6190 C 1050.51 -7.92526 2.10483 0
M  V30 6191 O 1050.12 -8.02971 3.47653 0
M  V30 6192 C 1049.63 -6.89602 1.41652 0
M  V30 6193 C 1050.34 -5.59201 1.75185 0
M  V30 6194 N 1050.29 -4.58301 0.657969 0
M  V30 6195 H 1053.13 -8.65116 0.777161 0
M  V30 6196 H 1053.4 -6.9022 0.46725 0
M  V30 6197 H 1052.54 -7.66548 2.79458 0
M  V30 6198 H 1049.88 -5.16165 2.65183 0
M  V30 6199 H 1049.6 -7.06433 0.329384 0
M  V30 6200 H 1048.61 -6.90926 1.82021 0
M  V30 6201 H 1050.44 -8.90873 1.62657 0
M  V30 6202 P 1048.57 -8.03563 3.84925 0
M  V30 6203 O 1048.35 -8.85821 5.0569 0
M  V30 6204 O 1047.78 -8.41101 2.65469 0
M  V30 6205 O 1048.32 -6.4965 4.18908 0
M  V30 6206 C 1049.26 -5.81037 5.05421 0
M  V30 6207 C 1048.53 -4.78366 5.89277 0
M  V30 6208 O 1048.32 -3.58302 5.08433 0
M  V30 6209 C 1047.13 -5.17448 6.36119 0
M  V30 6210 O 1046.74 -4.45271 7.53232 0
M  V30 6211 C 1046.25 -4.74639 5.19936 0
M  V30 6212 C 1046.96 -3.49432 4.70418 0
M  V30 6213 N 1046.91 -3.31776 3.22945 0
M  V30 6214 H 1049.75 -6.54213 5.71376 0
M  V30 6215 H 1050.02 -5.30492 4.44033 0
M  V30 6216 H 1049.16 -4.55889 6.76652 0
M  V30 6217 P 1045.19 -4.23843 7.83734 0
M  V30 6218 O 1044.97 -4.19407 9.29784 0
M  V30 6219 O 1044.4 -5.24426 7.09156 0
M  V30 6220 O 1044.94 -2.7935 7.20758 0
M  V30 6221 C 1045.88 -1.7299 7.50419 0
M  V30 6222 C 1045.15 -0.406376 7.57911 0
M  V30 6223 O 1044.94 0.0897726 6.21935 0
M  V30 6224 C 1043.75 -0.447224 8.1878 0
M  V30 6225 O 1043.36 0.825065 8.71101 0
M  V30 6226 C 1042.87 -0.783801 6.99623 0
M  V30 6227 C 1043.58 -0.0619192 5.85967 0
M  V30 6228 N 1043.53 -0.790462 4.56202 0
M  V30 6229 H 1046.37 -1.93423 8.4679 0
M  V30 6230 H 1046.64 -1.68852 6.70877 0
M  V30 6231 H 1045.78 0.289041 8.15388 0
M  V30 6232 H 1043.12 0.927006 5.72848 0
M  V30 6233 H 1042.84 -1.86973 6.82036 0
M  V30 6234 H 1041.85 -0.403953 7.13357 0
M  V30 6235 H 1043.68 -1.20599 8.97534 0
M  V30 6236 P 1041.81 1.17771 8.83182 0
M  V30 6237 O 1041.59 2.07206 9.98732 0
M  V30 6238 O 1041.02 -0.0743816 8.81969 0
M  V30 6239 O 1041.56 1.97652 7.47304 0
M  V30 6240 C 1042.5 3.01133 7.08783 0
M  V30 6241 C 1041.77 4.12613 6.37049 0
M  V30 6242 O 1041.56 3.72827 4.97879 0
M  V30 6243 C 1040.37 4.45085 6.88694 0
M  V30 6244 O 1039.98 5.7877 6.5624 0
M  V30 6245 C 1039.49 3.47817 6.12078 0
M  V30 6246 C 1040.2 3.39414 4.77697 0
M  V30 6247 N 1040.15 2.04615 4.15333 0
M  V30 6248 H 1042.99 3.41248 7.98759 0
M  V30 6249 H 1043.26 2.5837 6.41742 0
M  V30 6250 H 1042.4 5.02657 6.42673 0
M  V30 6251 P 1038.43 6.144 6.45285 0
M  V30 6252 O 1038.21 7.54673 6.86199 0
M  V30 6253 O 1037.64 5.12391 7.179 0
M  V30 6254 O 1038.18 5.99158 4.88404 0
M  V30 6255 C 1039.12 6.60234 3.96415 0
M  V30 6256 C 1038.39 7.08259 2.72856 0
M  V30 6257 O 1038.18 5.9427 1.83651 0
M  V30 6258 C 1036.99 7.64886 2.9555 0
M  V30 6259 O 1036.6 8.53963 1.90717 0
M  V30 6260 C 1036.11 6.4116 2.90739 0
M  V30 6261 C 1036.82 5.55375 1.86963 0
M  V30 6262 N 1036.77 4.09664 2.15742 0
M  V30 6263 H 1039.61 7.45574 4.45629 0
M  V30 6264 H 1039.88 5.86232 3.67314 0
M  V30 6265 H 1039.02 7.84412 2.24479 0
M  V30 6266 P 1035.05 8.7635 1.60911 0
M  V30 6267 O 1034.83 10.1388 1.11561 0
M  V30 6268 O 1034.26 8.36503 2.79617 0
M  V30 6269 O 1034.8 7.71806 0.42951 0
M  V30 6270 C 1035.74 7.67148 -0.673689 0
M  V30 6271 C 1035.01 7.33374 -1.95559 0
M  V30 6272 O 1034.8 5.88721 -2.00726 0
M  V30 6273 C 1033.61 7.92526 -2.10483 0
M  V30 6274 O 1033.22 8.02971 -3.47653 0
M  V30 6275 C 1032.73 6.89602 -1.41652 0
M  V30 6276 C 1033.44 5.59201 -1.75185 0
M  V30 6277 N 1033.39 4.58301 -0.657969 0
M  V30 6278 H 1036.23 8.65116 -0.777161 0
M  V30 6279 H 1036.5 6.9022 -0.46725 0
M  V30 6280 H 1035.64 7.66548 -2.79458 0
M  V30 6281 H 1032.98 5.16165 -2.65183 0
M  V30 6282 H 1032.7 7.06433 -0.329384 0
M  V30 6283 H 1031.71 6.90926 -1.82021 0
M  V30 6284 H 1033.54 8.90873 -1.62657 0
M  V30 6285 P 1031.67 8.03563 -3.84925 0
M  V30 6286 O 1031.45 8.85821 -5.0569 0
M  V30 6287 O 1030.88 8.41101 -2.65469 0
M  V30 6288 O 1031.42 6.4965 -4.18908 0
M  V30 6289 C 1032.36 5.81037 -5.05421 0
M  V30 6290 C 1031.63 4.78366 -5.89277 0
M  V30 6291 O 1031.42 3.58302 -5.08433 0
M  V30 6292 C 1030.23 5.17448 -6.36119 0
M  V30 6293 O 1029.84 4.45271 -7.53232 0
M  V30 6294 C 1029.35 4.74639 -5.19936 0
M  V30 6295 C 1030.06 3.49432 -4.70418 0
M  V30 6296 N 1030.01 3.32099 -3.22613 0
M  V30 6297 H 1032.85 6.54213 -5.71376 0
M  V30 6298 H 1033.12 5.30936 -4.43503 0
M  V30 6299 H 1032.26 4.55889 -6.76652 0
M  V30 6300 H 1029.6 2.61715 -5.17932 0
M  V30 6301 H 1029.32 5.52155 -4.41878 0
M  V30 6302 H 1028.33 4.51981 -5.53374 0
M  V30 6303 H 1030.16 6.25124 -6.55234 0
M  V30 6304 P 1028.29 4.23843 -7.83734 0
M  V30 6305 O 1028.07 4.19407 -9.29784 0
M  V30 6306 O 1027.5 5.24426 -7.09156 0
M  V30 6307 O 1028.04 2.79386 -7.20852 0
M  V30 6308 C 1028.98 1.7299 -7.50419 0
M  V30 6309 C 1028.25 0.41401 -7.5797 0
M  V30 6310 O 1028.04 -0.089787 -6.22035 0
M  V30 6311 C 1026.85 0.447224 -8.1878 0
M  V30 6312 O 1026.46 -0.825159 -8.71201 0
M  V30 6313 C 1025.97 0.783801 -6.99623 0
M  V30 6314 C 1026.68 0.0619192 -5.85967 0
M  V30 6315 N 1026.63 0.7859 -4.56281 0
M  V30 6316 C 1026.48 0.0359258 -3.39981 0
M  V30 6317 O 1026.39 -1.19723 -3.49038 0
M  V30 6318 N 1026.43 0.869151 -2.14025 0
M  V30 6319 C 1026.53 2.01207 -2.14363 0
M  V30 6320 N 1026.48 2.58978 -0.954287 0
M  V30 6321 C 1026.68 2.80817 -3.32215 0
M  V30 6322 C 1026.73 2.13785 -4.50884 0
M  V30 6323 H 1029.47 1.93401 -8.46693 0
M  V30 6324 H 1029.74 1.68181 -6.71046 0
M  V30 6325 H 1028.88 -0.289076 -8.15488 0
M  V30 6326 H 1026.22 -0.927166 -5.72947 0
M  V30 6327 H 1025.94 1.87 -6.82132 0
M  V30 6328 H 1024.95 0.404009 -7.13457 0
M  V30 6329 H 1026.78 1.20599 -8.97534 0
M  V30 6330 H 1026.86 2.70295 -5.43162 0
M  V30 6331 H 1026.75 3.89465 -3.27406 0
M  V30 6332 H 1026.37 2.01616 -0.107046 0
M  V30 6333 H 1026.56 3.61403 -0.873101 0
M  V30 6334 P 1024.91 -1.17771 -8.83182 0
M  V30 6335 O 1024.69 -2.07206 -9.98732 0
M  V30 6336 O 1024.12 0.0743816 -8.81969 0
M  V30 6337 O 1024.66 -1.97652 -7.47304 0
M  V30 6338 C 1025.6 -3.01133 -7.08783 0
M  V30 6339 C 1024.87 -4.12613 -6.37049 0
M  V30 6340 O 1024.66 -3.72827 -4.97879 0
M  V30 6341 C 1023.47 -4.45085 -6.88694 0
M  V30 6342 O 1023.08 -5.7877 -6.5624 0
M  V30 6343 C 1022.59 -3.47817 -6.12078 0
M  V30 6344 C 1023.3 -3.39414 -4.77697 0
M  V30 6345 N 1023.25 -2.04199 -4.15538 0
M  V30 6346 H 1026.09 -3.41248 -7.98759 0
M  V30 6347 H 1026.36 -2.57728 -6.42 0
M  V30 6348 H 1025.5 -5.02657 -6.42673 0
M  V30 6349 H 1022.84 -4.11708 -4.08956 0
M  V30 6350 H 1022.56 -2.49626 -6.61679 0
M  V30 6351 H 1021.57 -3.8662 -6.00862 0
M  V30 6352 H 1023.4 -4.29991 -7.97006 0
M  V30 6353 P 1021.53 -6.144 -6.45285 0
M  V30 6354 O 1021.31 -7.54673 -6.86199 0
M  V30 6355 O 1020.74 -5.12391 -7.179 0
M  V30 6356 O 1021.28 -5.99158 -4.88404 0
M  V30 6357 C 1022.22 -6.60234 -3.96415 0
M  V30 6358 C 1021.49 -7.08259 -2.72856 0
M  V30 6359 O 1021.28 -5.9427 -1.83651 0
M  V30 6360 C 1020.09 -7.64886 -2.9555 0
M  V30 6361 O 1019.7 -8.53963 -1.90717 0
M  V30 6362 C 1019.21 -6.4116 -2.90739 0
M  V30 6363 C 1019.92 -5.55375 -1.86963 0
M  V30 6364 N 1019.87 -4.09448 -2.16152 0
M  V30 6365 H 1022.71 -7.45574 -4.45629 0
M  V30 6366 H 1022.98 -5.85864 -3.679 0
M  V30 6367 H 1022.12 -7.84412 -2.24479 0
M  V30 6368 H 1019.46 -5.73457 -0.888562 0
M  V30 6369 H 1019.18 -5.90877 -3.88583 0
M  V30 6370 H 1018.19 -6.6596 -2.58858 0
M  V30 6371 H 1020.02 -8.16339 -3.92049 0
M  V30 6372 P 1018.15 -8.7635 -1.60911 0
M  V30 6373 O 1017.93 -10.1388 -1.11561 0
M  V30 6374 O 1017.36 -8.36503 -2.79617 0
M  V30 6375 O 1017.9 -7.71806 -0.42951 0
M  V30 6376 C 1018.84 -7.67148 0.673689 0
M  V30 6377 C 1018.11 -7.33374 1.95559 0
M  V30 6378 O 1017.9 -5.88721 2.00726 0
M  V30 6379 C 1016.71 -7.92526 2.10483 0
M  V30 6380 O 1016.32 -8.02971 3.47653 0
M  V30 6381 C 1015.83 -6.89602 1.41652 0
M  V30 6382 C 1016.54 -5.59201 1.75185 0
M  V30 6383 N 1016.49 -4.58235 0.662552 0
M  V30 6384 H 1019.33 -8.65116 0.777161 0
M  V30 6385 H 1019.61 -6.90173 0.474152 0
M  V30 6386 H 1018.74 -7.66548 2.79458 0
M  V30 6387 P 1014.77 -8.03563 3.84925 0
M  V30 6388 O 1014.55 -8.85821 5.0569 0
M  V30 6389 O 1013.98 -8.41101 2.65469 0
M  V30 6390 O 1014.52 -6.4965 4.18908 0
M  V30 6391 C 1015.46 -5.81037 5.05421 0
M  V30 6392 C 1014.73 -4.78366 5.89277 0
M  V30 6393 O 1014.52 -3.58302 5.08433 0
M  V30 6394 C 1013.33 -5.17448 6.36119 0
M  V30 6395 O 1012.94 -4.45271 7.53232 0
M  V30 6396 C 1012.45 -4.74639 5.19936 0
M  V30 6397 C 1013.16 -3.49432 4.70418 0
M  V30 6398 N 1013.11 -3.31776 3.22945 0
M  V30 6399 H 1015.95 -6.54213 5.71376 0
M  V30 6400 H 1016.23 -5.30492 4.44033 0
M  V30 6401 H 1015.36 -4.55889 6.76652 0
M  V30 6402 P 1011.39 -4.23843 7.83734 0
M  V30 6403 O 1011.17 -4.19407 9.29784 0
M  V30 6404 O 1010.6 -5.24426 7.09156 0
M  V30 6405 O 1011.14 -2.7935 7.20758 0
M  V30 6406 C 1012.08 -1.7299 7.50419 0
M  V30 6407 C 1011.35 -0.406376 7.57911 0
M  V30 6408 O 1011.14 0.0897726 6.21935 0
M  V30 6409 C 1009.95 -0.447224 8.1878 0
M  V30 6410 O 1009.56 0.825065 8.71101 0
M  V30 6411 C 1009.07 -0.783801 6.99623 0
M  V30 6412 C 1009.78 -0.0619192 5.85967 0
M  V30 6413 N 1009.73 -0.7859 4.56281 0
M  V30 6414 H 1012.57 -1.93423 8.4679 0
M  V30 6415 H 1012.85 -1.68181 6.71046 0
M  V30 6416 H 1011.98 0.289041 8.15388 0
M  V30 6417 P 1008.01 1.17771 8.83182 0
M  V30 6418 O 1007.79 2.07206 9.98732 0
M  V30 6419 O 1007.22 -0.0743816 8.81969 0
M  V30 6420 O 1007.76 1.97652 7.47304 0
M  V30 6421 C 1008.7 3.01133 7.08783 0
M  V30 6422 C 1007.97 4.12613 6.37049 0
M  V30 6423 O 1007.76 3.72827 4.97879 0
M  V30 6424 C 1006.57 4.45085 6.88694 0
M  V30 6425 O 1006.18 5.7877 6.5624 0
M  V30 6426 C 1005.69 3.47817 6.12078 0
M  V30 6427 C 1006.4 3.39414 4.77697 0
M  V30 6428 N 1006.35 2.04615 4.15333 0
M  V30 6429 H 1009.19 3.41248 7.98759 0
M  V30 6430 H 1009.47 2.5837 6.41742 0
M  V30 6431 H 1008.6 5.02657 6.42673 0
M  V30 6432 P 1004.63 6.144 6.45285 0
M  V30 6433 O 1004.41 7.54673 6.86199 0
M  V30 6434 O 1003.84 5.12391 7.179 0
M  V30 6435 O 1004.38 5.99158 4.88404 0
M  V30 6436 C 1005.32 6.60234 3.96415 0
M  V30 6437 C 1004.59 7.08259 2.72856 0
M  V30 6438 O 1004.38 5.9427 1.83651 0
M  V30 6439 C 1003.19 7.64886 2.9555 0
M  V30 6440 O 1002.8 8.53963 1.90717 0
M  V30 6441 C 1002.31 6.4116 2.90739 0
M  V30 6442 C 1003.02 5.55375 1.86963 0
M  V30 6443 N 1002.97 4.09664 2.15742 0
M  V30 6444 H 1005.81 7.45574 4.45629 0
M  V30 6445 H 1006.09 5.86232 3.67314 0
M  V30 6446 H 1005.22 7.84412 2.24479 0
M  V30 6447 P 1001.25 8.7635 1.60911 0
M  V30 6448 O 1001.03 10.1388 1.11561 0
M  V30 6449 O 1000.46 8.36503 2.79617 0
M  V30 6450 O 1001 7.71806 0.42951 0
M  V30 6451 C 1001.94 7.67148 -0.673689 0
M  V30 6452 C 1001.21 7.33374 -1.95559 0
M  V30 6453 O 1001 5.88721 -2.00726 0
M  V30 6454 C 999.814 7.92526 -2.10483 0
M  V30 6455 O 999.424 8.02971 -3.47653 0
M  V30 6456 C 998.934 6.89602 -1.41652 0
M  V30 6457 C 999.644 5.59201 -1.75185 0
M  V30 6458 N 999.594 4.58301 -0.657969 0
M  V30 6459 C 999.674 4.79019 0.692603 0
M  V30 6460 N 999.604 3.69736 1.38998 0
M  V30 6461 C 999.454 2.70474 0.438135 0
M  V30 6462 C 999.324 1.30327 0.538142 0
M  V30 6463 N 999.314 0.64304 1.69192 0
M  V30 6464 N 999.204 0.611027 -0.605183 0
M  V30 6465 C 999.214 1.27002 -1.75953 0
M  V30 6466 N 999.334 2.56038 -1.98546 0
M  V30 6467 C 999.454 3.22681 -0.822541 0
M  V30 6468 H 1002.43 8.65116 -0.777161 0
M  V30 6469 H 1002.71 6.9022 -0.46725 0
M  V30 6470 H 1001.84 7.66548 -2.79458 0
M  V30 6471 H 999.182 5.16165 -2.65183 0
M  V30 6472 H 998.902 7.06433 -0.329384 0
M  V30 6473 H 997.911 6.90926 -1.82021 0
M  V30 6474 H 999.745 8.90873 -1.62657 0
M  V30 6475 H 999.786 5.77785 1.13874 0
M  V30 6476 H 999.405 1.15585 2.57991 0
M  V30 6477 H 999.216 -0.382989 1.69835 0
M  V30 6478 H 999.108 0.653331 -2.64449 0
M  V30 6479 P 997.874 8.03563 -3.84925 0
M  V30 6480 O 997.654 8.85821 -5.0569 0
M  V30 6481 O 997.084 8.41101 -2.65469 0
M  V30 6482 O 997.624 6.4965 -4.18908 0
M  V30 6483 C 998.564 5.81037 -5.05421 0
M  V30 6484 C 997.834 4.78366 -5.89277 0
M  V30 6485 O 997.624 3.58302 -5.08433 0
M  V30 6486 C 996.434 5.17448 -6.36119 0
M  V30 6487 O 996.044 4.45271 -7.53232 0
M  V30 6488 C 995.554 4.74639 -5.19936 0
M  V30 6489 C 996.264 3.49432 -4.70418 0
M  V30 6490 N 996.214 3.32099 -3.22613 0
M  V30 6491 H 999.053 6.54213 -5.71376 0
M  V30 6492 H 999.325 5.30936 -4.43503 0
M  V30 6493 H 998.457 4.55889 -6.76652 0
M  V30 6494 H 995.802 2.61715 -5.17932 0
M  V30 6495 H 995.522 5.52155 -4.41878 0
M  V30 6496 H 994.531 4.51981 -5.53374 0
M  V30 6497 H 996.365 6.25124 -6.55234 0
M  V30 6498 P 994.494 4.23843 -7.83734 0
M  V30 6499 O 994.274 4.19407 -9.29784 0
M  V30 6500 O 993.704 5.24426 -7.09156 0
M  V30 6501 O 994.244 2.7935 -7.20758 0
M  V30 6502 C 995.184 1.7299 -7.50419 0
M  V30 6503 C 994.454 0.406376 -7.57911 0
M  V30 6504 O 994.244 -0.0897726 -6.21935 0
M  V30 6505 C 993.054 0.447224 -8.1878 0
M  V30 6506 O 992.664 -0.825065 -8.71101 0
M  V30 6507 C 992.174 0.783801 -6.99623 0
M  V30 6508 C 992.884 0.0619192 -5.85967 0
M  V30 6509 N 992.834 0.790462 -4.56202 0
M  V30 6510 H 995.673 1.93423 -8.4679 0
M  V30 6511 H 995.945 1.68852 -6.70877 0
M  V30 6512 H 995.077 -0.289041 -8.15388 0
M  V30 6513 H 992.422 -0.927006 -5.72848 0
M  V30 6514 H 992.142 1.86973 -6.82036 0
M  V30 6515 H 991.151 0.403953 -7.13357 0
M  V30 6516 H 992.985 1.20599 -8.97534 0
M  V30 6517 P 991.114 -1.17771 -8.83182 0
M  V30 6518 O 990.894 -2.07206 -9.98732 0
M  V30 6519 O 990.324 0.0743816 -8.81969 0
M  V30 6520 O 990.864 -1.97652 -7.47304 0
M  V30 6521 C 991.804 -3.01133 -7.08783 0
M  V30 6522 C 991.074 -4.12613 -6.37049 0
M  V30 6523 O 990.864 -3.72827 -4.97879 0
M  V30 6524 C 989.674 -4.45085 -6.88694 0
M  V30 6525 O 989.284 -5.7877 -6.5624 0
M  V30 6526 C 988.794 -3.47817 -6.12078 0
M  V30 6527 C 989.504 -3.39414 -4.77697 0
M  V30 6528 N 989.454 -2.04615 -4.15333 0
M  V30 6529 H 992.293 -3.41248 -7.98759 0
M  V30 6530 H 992.565 -2.5837 -6.41742 0
M  V30 6531 H 991.697 -5.02657 -6.42673 0
M  V30 6532 P 987.734 -6.144 -6.45285 0
M  V30 6533 O 987.514 -7.54673 -6.86199 0
M  V30 6534 O 986.944 -5.12391 -7.179 0
M  V30 6535 O 987.484 -5.99158 -4.88404 0
M  V30 6536 C 988.424 -6.60234 -3.96415 0
M  V30 6537 C 987.694 -7.08259 -2.72856 0
M  V30 6538 O 987.484 -5.9427 -1.83651 0
M  V30 6539 C 986.294 -7.64886 -2.9555 0
M  V30 6540 O 985.904 -8.53963 -1.90717 0
M  V30 6541 C 985.414 -6.4116 -2.90739 0
M  V30 6542 C 986.124 -5.55375 -1.86963 0
M  V30 6543 N 986.074 -4.09664 -2.15742 0
M  V30 6544 H 988.913 -7.45574 -4.45629 0
M  V30 6545 H 989.185 -5.86232 -3.67314 0
M  V30 6546 H 988.317 -7.84412 -2.24479 0
M  V30 6547 P 984.354 -8.7635 -1.60911 0
M  V30 6548 O 984.134 -10.1388 -1.11561 0
M  V30 6549 O 983.564 -8.36503 -2.79617 0
M  V30 6550 O 984.104 -7.71806 -0.42951 0
M  V30 6551 C 985.044 -7.66948 0.673514 0
M  V30 6552 C 984.314 -7.33374 1.95559 0
M  V30 6553 O 984.104 -5.88721 2.00726 0
M  V30 6554 C 982.914 -7.92218 2.1125 0
M  V30 6555 O 982.524 -8.02971 3.47653 0
M  V30 6556 C 982.034 -6.89504 1.41631 0
M  V30 6557 C 982.744 -5.59106 1.75155 0
M  V30 6558 N 982.694 -4.58136 0.662409 0
M  V30 6559 C 982.544 -3.26059 1.02863 0
M  V30 6560 O 982.454 -2.90743 2.19009 0
M  V30 6561 N 982.504 -2.35995 -0.0155585 0
M  V30 6562 C 982.594 -2.65248 -1.35603 0
M  V30 6563 C 982.744 -4.05747 -1.64698 0
M  V30 6564 C 982.794 -4.96734 -0.652411 0
M  V30 6565 H 985.535 -8.64917 0.776982 0
M  V30 6566 H 985.804 -6.89974 0.474015 0
M  V30 6567 H 984.937 -7.66548 2.79458 0
M  V30 6568 H 982.282 -5.16076 2.65138 0
M  V30 6569 H 982.003 -7.06433 0.329384 0
M  V30 6570 H 981.011 -6.90829 1.81996 0
M  V30 6571 H 982.845 -8.90774 1.62639 0
M  V30 6572 H 982.916 -6.02181 -0.895285 0
M  V30 6573 P 980.974 -8.03563 3.84925 0
M  V30 6574 O 980.754 -8.85821 5.0569 0
M  V30 6575 O 980.184 -8.41101 2.65469 0
M  V30 6576 O 980.724 -6.4965 4.18908 0
M  V30 6577 C 981.664 -5.81037 5.05421 0
M  V30 6578 C 980.934 -4.78366 5.89277 0
M  V30 6579 O 980.724 -3.58302 5.08433 0
M  V30 6580 C 979.534 -5.17448 6.36119 0
M  V30 6581 O 979.144 -4.45271 7.53232 0
M  V30 6582 C 978.654 -4.74639 5.19936 0
M  V30 6583 C 979.364 -3.49432 4.70418 0
M  V30 6584 N 979.314 -3.31776 3.22945 0
M  V30 6585 C 979.394 -4.27147 2.23315 0
M  V30 6586 N 979.314 -3.78447 1.02186 0
M  V30 6587 C 979.174 -2.41001 1.21732 0
M  V30 6588 C 979.044 -1.36111 0.27694 0
M  V30 6589 O 979.024 -1.42065 -0.951767 0
M  V30 6590 N 978.924 -0.113683 0.912949 0
M  V30 6591 C 978.924 0.0846396 2.27943 0
M  V30 6592 N 978.794 1.34737 2.6916 0
M  V30 6593 N 979.054 -0.902521 3.16379 0
M  V30 6594 C 979.174 -2.11937 2.56849 0
M  V30 6595 H 982.153 -6.54213 5.71376 0
M  V30 6596 H 982.425 -5.30492 4.44033 0
M  V30 6597 H 981.557 -4.55889 6.76652 0
M  V30 6598 H 978.902 -2.6176 5.18021 0
M  V30 6599 H 978.622 -5.52233 4.41941 0
M  V30 6600 H 977.631 -4.52045 5.53452 0
M  V30 6601 H 979.465 -6.25193 6.55307 0
M  V30 6602 H 979.514 -5.3351 2.43857 0
M  V30 6603 H 978.832 0.69331 0.330371 0
M  V30 6604 H 978.795 1.56433 3.6988 0
M  V30 6605 H 978.694 2.10701 2.00133 0
M  V30 6606 P 977.594 -4.23843 7.83734 0
M  V30 6607 O 977.374 -4.19407 9.29784 0
M  V30 6608 O 976.804 -5.24426 7.09156 0
M  V30 6609 O 977.344 -2.79386 7.20852 0
M  V30 6610 C 978.284 -1.7299 7.50419 0
M  V30 6611 C 977.554 -0.41401 7.5797 0
M  V30 6612 O 977.344 0.089787 6.22035 0
M  V30 6613 C 976.154 -0.447224 8.1878 0
M  V30 6614 O 975.764 0.825159 8.71201 0
M  V30 6615 C 975.274 -0.783801 6.99623 0
M  V30 6616 C 975.984 -0.0619192 5.85967 0
M  V30 6617 N 975.934 -0.7859 4.56281 0
M  V30 6618 C 975.784 -0.0359258 3.39981 0
M  V30 6619 O 975.694 1.19723 3.49038 0
M  V30 6620 N 975.734 -0.869151 2.14025 0
M  V30 6621 C 975.834 -2.01207 2.14363 0
M  V30 6622 N 975.784 -2.58978 0.954287 0
M  V30 6623 C 975.984 -2.80817 3.32215 0
M  V30 6624 C 976.034 -2.13785 4.50884 0
M  V30 6625 H 978.774 -1.93401 8.46693 0
M  V30 6626 H 979.044 -1.68181 6.71046 0
M  V30 6627 H 978.177 0.289076 8.15488 0
M  V30 6628 H 975.522 0.927166 5.72947 0
M  V30 6629 H 975.242 -1.87 6.82132 0
M  V30 6630 H 974.251 -0.404009 7.13457 0
M  V30 6631 H 976.085 -1.20599 8.97534 0
M  V30 6632 H 976.157 -2.70295 5.43162 0
M  V30 6633 H 976.055 -3.89465 3.27406 0
M  V30 6634 H 975.667 -2.01616 0.107046 0
M  V30 6635 H 975.863 -3.61403 0.873101 0
M  V30 6636 P 974.214 1.17771 8.83182 0
M  V30 6637 O 973.994 2.07206 9.98732 0
M  V30 6638 O 973.424 -0.0743816 8.81969 0
M  V30 6639 O 973.964 1.97652 7.47304 0
M  V30 6640 C 974.904 3.01133 7.08783 0
M  V30 6641 C 974.174 4.12613 6.37049 0
M  V30 6642 O 973.964 3.72827 4.97879 0
M  V30 6643 C 972.774 4.45085 6.88694 0
M  V30 6644 O 972.384 5.7877 6.5624 0
M  V30 6645 C 971.894 3.47817 6.12078 0
M  V30 6646 C 972.604 3.39414 4.77697 0
M  V30 6647 N 972.554 2.04615 4.15333 0
M  V30 6648 H 975.393 3.41248 7.98759 0
M  V30 6649 H 975.665 2.5837 6.41742 0
M  V30 6650 H 974.797 5.02657 6.42673 0
M  V30 6651 P 970.834 6.144 6.45285 0
M  V30 6652 O 970.614 7.54673 6.86199 0
M  V30 6653 O 970.044 5.12391 7.179 0
M  V30 6654 O 970.584 5.99158 4.88404 0
M  V30 6655 C 971.524 6.60234 3.96415 0
M  V30 6656 C 970.794 7.08259 2.72856 0
M  V30 6657 O 970.584 5.9427 1.83651 0
M  V30 6658 C 969.394 7.64886 2.9555 0
M  V30 6659 O 969.004 8.53963 1.90717 0
M  V30 6660 C 968.514 6.4116 2.90739 0
M  V30 6661 C 969.224 5.55375 1.86963 0
M  V30 6662 N 969.174 4.09664 2.15742 0
M  V30 6663 H 972.013 7.45574 4.45629 0
M  V30 6664 H 972.285 5.86232 3.67314 0
M  V30 6665 H 971.417 7.84412 2.24479 0
M  V30 6666 P 967.454 8.7635 1.60911 0
M  V30 6667 O 967.234 10.1388 1.11561 0
M  V30 6668 O 966.664 8.36503 2.79617 0
M  V30 6669 O 967.204 7.71906 0.429565 0
M  V30 6670 C 968.144 7.67148 -0.673689 0
M  V30 6671 C 967.414 7.33666 -1.94851 0
M  V30 6672 O 967.204 5.88816 -2.00759 0
M  V30 6673 C 966.014 7.92526 -2.10483 0
M  V30 6674 O 965.624 8.03063 -3.47693 0
M  V30 6675 C 965.134 6.89602 -1.41652 0
M  V30 6676 C 965.844 5.59201 -1.75185 0
M  V30 6677 N 965.794 4.58235 -0.662552 0
M  V30 6678 C 965.644 3.24451 -1.01643 0
M  V30 6679 O 965.554 2.94958 -2.21722 0
M  V30 6680 N 965.594 2.30408 0.165238 0
M  V30 6681 C 965.694 2.66048 1.25118 0
M  V30 6682 N 965.644 1.70787 2.16813 0
M  V30 6683 C 965.844 4.02732 1.64413 0
M  V30 6684 C 965.894 4.9488 0.63991 0
M  V30 6685 H 968.634 8.65017 -0.777072 0
M  V30 6686 H 968.904 6.90173 -0.474152 0
M  V30 6687 H 968.037 7.66642 -2.79492 0
M  V30 6688 H 965.382 5.16254 -2.65229 0
M  V30 6689 H 965.102 7.06532 -0.329431 0
M  V30 6690 H 964.111 6.91023 -1.82047 0
M  V30 6691 H 965.945 8.90873 -1.62657 0
M  V30 6692 H 966.017 6.00104 0.892197 0
M  V30 6693 H 965.915 4.31733 2.69229 0
M  V30 6694 H 965.527 0.724835 1.8844 0
M  V30 6695 H 965.723 1.94716 3.16734 0
M  V30 6696 P 964.074 8.03563 -3.84925 0
M  V30 6697 O 963.854 8.85821 -5.0569 0
M  V30 6698 O 963.284 8.41101 -2.65469 0
M  V30 6699 O 963.824 6.4965 -4.18908 0
M  V30 6700 C 964.764 5.80886 -5.05289 0
M  V30 6701 C 964.034 4.78366 -5.89277 0
M  V30 6702 O 963.824 3.58302 -5.08433 0
M  V30 6703 C 962.634 5.16748 -6.36559 0
M  V30 6704 O 962.244 4.45271 -7.53232 0
M  V30 6705 C 961.754 4.74572 -5.19863 0
M  V30 6706 C 962.464 3.49373 -4.70338 0
M  V30 6707 N 962.414 3.31704 -3.22876 0
M  V30 6708 C 962.264 2.03326 -2.74871 0
M  V30 6709 O 962.174 1.06486 -3.48076 0
M  V30 6710 N 962.224 1.91838 -1.37456 0
M  V30 6711 C 962.314 2.94295 -0.462035 0
M  V30 6712 C 962.464 4.25064 -1.05249 0
M  V30 6713 C 962.514 4.40214 -2.39192 0
M  V30 6714 H 965.255 6.54063 -5.71245 0
M  V30 6715 H 965.524 5.30339 -4.43905 0
M  V30 6716 H 964.657 4.55889 -6.76652 0
M  V30 6717 H 962.002 2.6167 -5.17842 0
M  V30 6718 H 961.723 5.52155 -4.41878 0
M  V30 6719 H 960.731 4.51918 -5.53297 0
M  V30 6720 H 962.565 6.25055 -6.55162 0
M  V30 6721 H 962.636 5.39798 -2.81523 0
M  V30 6722 P 960.694 4.23843 -7.83734 0
M  V30 6723 O 960.474 4.19407 -9.29784 0
M  V30 6724 O 959.904 5.24426 -7.09156 0
M  V30 6725 O 960.444 2.7935 -7.20758 0
M  V30 6726 C 961.384 1.7299 -7.50419 0
M  V30 6727 C 960.654 0.406376 -7.57911 0
M  V30 6728 O 960.444 -0.0897726 -6.21935 0
M  V30 6729 C 959.254 0.447224 -8.1878 0
M  V30 6730 O 958.864 -0.825065 -8.71101 0
M  V30 6731 C 958.374 0.783801 -6.99623 0
M  V30 6732 C 959.084 0.0619192 -5.85967 0
M  V30 6733 N 959.034 0.7859 -4.56281 0
M  V30 6734 C 959.114 2.14308 -4.31736 0
M  V30 6735 N 959.034 2.46106 -3.05116 0
M  V30 6736 C 958.894 1.23422 -2.4014 0
M  V30 6737 C 958.764 0.938381 -1.02409 0
M  V30 6738 N 958.644 -0.444647 -0.805413 0
M  V30 6739 C 958.644 -1.40829 -1.79435 0
M  V30 6740 N 958.514 -2.67213 -1.38558 0
M  V30 6741 N 958.774 -1.12947 -3.09005 0
M  V30 6742 C 958.894 0.204887 -3.32369 0
M  V30 6743 H 961.873 1.93423 -8.4679 0
M  V30 6744 H 962.145 1.68181 -6.71046 0
M  V30 6745 H 961.277 -0.289041 -8.15388 0
M  V30 6746 P 957.314 -1.17771 -8.83182 0
M  V30 6747 O 957.094 -2.07206 -9.98732 0
M  V30 6748 O 956.524 0.0743816 -8.81969 0
M  V30 6749 O 957.064 -1.97652 -7.47304 0
M  V30 6750 C 958.004 -3.01133 -7.08783 0
M  V30 6751 C 957.274 -4.12613 -6.37049 0
M  V30 6752 O 957.064 -3.72827 -4.97879 0
M  V30 6753 C 955.874 -4.45085 -6.88694 0
M  V30 6754 O 955.484 -5.7877 -6.5624 0
M  V30 6755 C 954.994 -3.47817 -6.12078 0
M  V30 6756 C 955.704 -3.39414 -4.77697 0
M  V30 6757 N 955.654 -2.04615 -4.15333 0
M  V30 6758 H 958.493 -3.41248 -7.98759 0
M  V30 6759 H 958.765 -2.5837 -6.41742 0
M  V30 6760 H 957.897 -5.02657 -6.42673 0
M  V30 6761 P 953.934 -6.144 -6.45285 0
M  V30 6762 O 953.714 -7.54673 -6.86199 0
M  V30 6763 O 953.144 -5.12391 -7.179 0
M  V30 6764 O 953.684 -5.99158 -4.88404 0
M  V30 6765 C 954.624 -6.60234 -3.96415 0
M  V30 6766 C 953.894 -7.08259 -2.72856 0
M  V30 6767 O 953.684 -5.9427 -1.83651 0
M  V30 6768 C 952.494 -7.64886 -2.9555 0
M  V30 6769 O 952.104 -8.53963 -1.90717 0
M  V30 6770 C 951.614 -6.4116 -2.90739 0
M  V30 6771 C 952.324 -5.55375 -1.86963 0
M  V30 6772 N 952.274 -4.09448 -2.16152 0
M  V30 6773 H 955.113 -7.45574 -4.45629 0
M  V30 6774 H 955.385 -5.85864 -3.679 0
M  V30 6775 H 954.517 -7.84412 -2.24479 0
M  V30 6776 H 951.862 -5.73457 -0.888562 0
M  V30 6777 H 951.582 -5.90877 -3.88583 0
M  V30 6778 H 950.591 -6.6596 -2.58858 0
M  V30 6779 H 952.425 -8.16339 -3.92049 0
M  V30 6780 P 950.554 -8.7635 -1.60911 0
M  V30 6781 O 950.334 -10.1388 -1.11561 0
M  V30 6782 O 949.764 -8.36503 -2.79617 0
M  V30 6783 O 950.304 -7.71806 -0.42951 0
M  V30 6784 C 951.244 -7.67148 0.673689 0
M  V30 6785 C 950.514 -7.33374 1.95559 0
M  V30 6786 O 950.304 -5.88721 2.00726 0
M  V30 6787 C 949.114 -7.92526 2.10483 0
M  V30 6788 O 948.724 -8.02971 3.47653 0
M  V30 6789 C 948.234 -6.89602 1.41652 0
M  V30 6790 C 948.944 -5.59201 1.75185 0
M  V30 6791 N 948.894 -4.58235 0.662552 0
M  V30 6792 H 951.733 -8.65116 0.777161 0
M  V30 6793 H 952.005 -6.90173 0.474152 0
M  V30 6794 H 951.137 -7.66548 2.79458 0
M  V30 6795 P 947.174 -8.03563 3.84925 0
M  V30 6796 O 946.954 -8.85821 5.0569 0
M  V30 6797 O 946.384 -8.41101 2.65469 0
M  V30 6798 O 946.924 -6.4965 4.18908 0
M  V30 6799 C 947.864 -5.81037 5.05421 0
M  V30 6800 C 947.134 -4.78366 5.89277 0
M  V30 6801 O 946.924 -3.58302 5.08433 0
M  V30 6802 C 945.734 -5.17448 6.36119 0
M  V30 6803 O 945.344 -4.45271 7.53232 0
M  V30 6804 C 944.854 -4.74639 5.19936 0
M  V30 6805 C 945.564 -3.49432 4.70418 0
M  V30 6806 N 945.514 -3.31776 3.22945 0
M  V30 6807 H 948.353 -6.54213 5.71376 0
M  V30 6808 H 948.625 -5.30492 4.44033 0
M  V30 6809 H 947.757 -4.55889 6.76652 0
M  V30 6810 P 943.794 -4.23843 7.83734 0
M  V30 6811 O 943.574 -4.19407 9.29784 0
M  V30 6812 O 943.004 -5.24426 7.09156 0
M  V30 6813 O 943.544 -2.7935 7.20758 0
M  V30 6814 C 944.484 -1.7299 7.50419 0
M  V30 6815 C 943.754 -0.406376 7.57911 0
M  V30 6816 O 943.544 0.0897726 6.21935 0
M  V30 6817 C 942.354 -0.447224 8.1878 0
M  V30 6818 O 941.964 0.825065 8.71101 0
M  V30 6819 C 941.474 -0.783801 6.99623 0
M  V30 6820 C 942.184 -0.0619192 5.85967 0
M  V30 6821 N 942.134 -0.790462 4.56202 0
M  V30 6822 H 944.973 -1.93423 8.4679 0
M  V30 6823 H 945.245 -1.68852 6.70877 0
M  V30 6824 H 944.377 0.289041 8.15388 0
M  V30 6825 H 941.722 0.927006 5.72848 0
M  V30 6826 H 941.442 -1.86973 6.82036 0
M  V30 6827 H 940.451 -0.403953 7.13357 0
M  V30 6828 H 942.285 -1.20599 8.97534 0
M  V30 6829 P 940.414 1.17771 8.83182 0
M  V30 6830 O 940.194 2.07206 9.98732 0
M  V30 6831 O 939.624 -0.0743816 8.81969 0
M  V30 6832 O 940.164 1.97652 7.47304 0
M  V30 6833 C 941.104 3.01133 7.08783 0
M  V30 6834 C 940.374 4.12613 6.37049 0
M  V30 6835 O 940.164 3.72827 4.97879 0
M  V30 6836 C 938.974 4.45085 6.88694 0
M  V30 6837 O 938.584 5.7877 6.5624 0
M  V30 6838 C 938.094 3.47817 6.12078 0
M  V30 6839 C 938.804 3.39414 4.77697 0
M  V30 6840 N 938.754 2.04615 4.15333 0
M  V30 6841 H 941.593 3.41248 7.98759 0
M  V30 6842 H 941.865 2.5837 6.41742 0
M  V30 6843 H 940.997 5.02657 6.42673 0
M  V30 6844 P 937.034 6.144 6.45285 0
M  V30 6845 O 936.814 7.54673 6.86199 0
M  V30 6846 O 936.244 5.12391 7.179 0
M  V30 6847 O 936.784 5.99158 4.88404 0
M  V30 6848 C 937.724 6.60234 3.96415 0
M  V30 6849 C 936.994 7.08259 2.72856 0
M  V30 6850 O 936.784 5.9427 1.83651 0
M  V30 6851 C 935.594 7.64886 2.9555 0
M  V30 6852 O 935.204 8.53963 1.90717 0
M  V30 6853 C 934.714 6.4116 2.90739 0
M  V30 6854 C 935.424 5.55375 1.86963 0
M  V30 6855 N 935.374 4.09664 2.15742 0
M  V30 6856 H 938.213 7.45574 4.45629 0
M  V30 6857 H 938.485 5.86232 3.67314 0
M  V30 6858 H 937.617 7.84412 2.24479 0
M  V30 6859 P 933.655 8.7635 1.60911 0
M  V30 6860 O 933.435 10.1388 1.11561 0
M  V30 6861 O 932.865 8.36503 2.79617 0
M  V30 6862 O 933.405 7.71806 0.42951 0
M  V30 6863 C 934.345 7.66948 -0.673514 0
M  V30 6864 C 933.615 7.33374 -1.95559 0
M  V30 6865 O 933.405 5.88721 -2.00726 0
M  V30 6866 C 932.215 7.92218 -2.1125 0
M  V30 6867 O 931.825 8.02971 -3.47653 0
M  V30 6868 C 931.335 6.89504 -1.41631 0
M  V30 6869 C 932.045 5.59106 -1.75155 0
M  V30 6870 N 931.995 4.58136 -0.662409 0
M  V30 6871 C 931.845 3.26059 -1.02863 0
M  V30 6872 O 931.755 2.90743 -2.19009 0
M  V30 6873 N 931.805 2.35995 0.0155585 0
M  V30 6874 C 931.895 2.65248 1.35603 0
M  V30 6875 O 931.845 1.75605 2.20651 0
M  V30 6876 C 932.045 4.05747 1.64698 0
M  V30 6877 C 932.155 4.42345 3.09553 0
M  V30 6878 C 932.095 4.96734 0.652411 0
M  V30 6879 H 934.836 8.64917 -0.776982 0
M  V30 6880 H 935.105 6.89974 -0.474015 0
M  V30 6881 H 934.238 7.66548 -2.79458 0
M  V30 6882 H 931.583 5.16076 -2.65138 0
M  V30 6883 H 931.304 7.06433 -0.329384 0
M  V30 6884 H 930.312 6.90829 -1.81996 0
M  V30 6885 H 932.146 8.90774 -1.62639 0
M  V30 6886 H 932.217 6.02181 0.895285 0
M  V30 6887 H 931.187 4.80252 3.45468 0
M  V30 6888 H 932.924 5.20015 3.22119 0
M  V30 6889 H 932.436 3.53269 3.67833 0
M  V30 6890 H 931.7 1.39558 -0.227499 0
M  V30 6891 P 930.275 8.03563 -3.84925 0
M  V30 6892 O 930.055 8.85821 -5.0569 0
M  V30 6893 O 929.485 8.41101 -2.65469 0
M  V30 6894 O 930.025 6.4965 -4.18908 0
M  V30 6895 C 930.965 5.81037 -5.05421 0
M  V30 6896 C 930.235 4.78366 -5.89277 0
M  V30 6897 O 930.025 3.58302 -5.08433 0
M  V30 6898 C 928.835 5.17448 -6.36119 0
M  V30 6899 O 928.445 4.45271 -7.53232 0
M  V30 6900 C 927.955 4.74639 -5.19936 0
M  V30 6901 C 928.665 3.49432 -4.70418 0
M  V30 6902 N 928.615 3.32099 -3.22613 0
M  V30 6903 C 928.695 4.28245 -2.25527 0
M  V30 6904 N 928.625 3.80823 -1.04874 0
M  V30 6905 C 928.475 2.44571 -1.23535 0
M  V30 6906 C 928.345 1.37068 -0.330675 0
M  V30 6907 N 928.335 1.51472 0.990824 0
M  V30 6908 N 928.225 0.138614 -0.848756 0
M  V30 6909 C 928.235 -0.00675923 -2.16999 0
M  V30 6910 N 928.355 0.904372 -3.11122 0
M  V30 6911 C 928.475 2.12707 -2.56212 0
M  V30 6912 H 931.454 6.54213 -5.71376 0
M  V30 6913 H 931.726 5.30936 -4.43503 0
M  V30 6914 H 930.858 4.55889 -6.76652 0
M  V30 6915 H 928.203 2.61715 -5.17932 0
M  V30 6916 H 927.923 5.52155 -4.41878 0
M  V30 6917 H 926.932 4.51981 -5.53374 0
M  V30 6918 H 928.766 6.25124 -6.55234 0
M  V30 6919 H 928.807 5.34372 -2.47488 0
M  V30 6920 H 928.426 2.45153 1.4078 0
M  V30 6921 H 928.237 0.688422 1.59911 0
M  V30 6922 H 928.129 -1.02584 -2.52346 0
M  V30 6923 P 926.895 4.23843 -7.83734 0
M  V30 6924 O 926.675 4.19407 -9.29784 0
M  V30 6925 O 926.105 5.24426 -7.09156 0
M  V30 6926 O 926.645 2.7935 -7.20758 0
M  V30 6927 C 927.585 1.7299 -7.50419 0
M  V30 6928 C 926.855 0.406376 -7.57911 0
M  V30 6929 O 926.645 -0.0897726 -6.21935 0
M  V30 6930 C 925.455 0.447224 -8.1878 0
M  V30 6931 O 925.065 -0.825065 -8.71101 0
M  V30 6932 C 924.575 0.783801 -6.99623 0
M  V30 6933 C 925.285 0.0619192 -5.85967 0
M  V30 6934 N 925.235 0.7859 -4.56281 0
M  V30 6935 H 928.074 1.93423 -8.4679 0
M  V30 6936 H 928.346 1.68181 -6.71046 0
M  V30 6937 H 927.478 -0.289041 -8.15388 0
M  V30 6938 P 923.515 -1.17771 -8.83182 0
M  V30 6939 O 923.295 -2.07206 -9.98732 0
M  V30 6940 O 922.725 0.0743816 -8.81969 0
M  V30 6941 O 923.265 -1.97652 -7.47304 0
M  V30 6942 C 924.205 -3.01133 -7.08783 0
M  V30 6943 C 923.475 -4.12613 -6.37049 0
M  V30 6944 O 923.265 -3.72827 -4.97879 0
M  V30 6945 C 922.075 -4.45085 -6.88694 0
M  V30 6946 O 921.685 -5.7877 -6.5624 0
M  V30 6947 C 921.195 -3.47817 -6.12078 0
M  V30 6948 C 921.905 -3.39414 -4.77697 0
M  V30 6949 N 921.855 -2.04615 -4.15333 0
M  V30 6950 H 924.694 -3.41248 -7.98759 0
M  V30 6951 H 924.966 -2.5837 -6.41742 0
M  V30 6952 H 924.098 -5.02657 -6.42673 0
M  V30 6953 P 920.135 -6.144 -6.45285 0
M  V30 6954 O 919.915 -7.54673 -6.86199 0
M  V30 6955 O 919.345 -5.12391 -7.179 0
M  V30 6956 O 919.885 -5.99158 -4.88404 0
M  V30 6957 C 920.825 -6.60234 -3.96415 0
M  V30 6958 C 920.095 -7.08259 -2.72856 0
M  V30 6959 O 919.885 -5.9427 -1.83651 0
M  V30 6960 C 918.695 -7.64886 -2.9555 0
M  V30 6961 O 918.305 -8.53963 -1.90717 0
M  V30 6962 C 917.815 -6.4116 -2.90739 0
M  V30 6963 C 918.525 -5.55375 -1.86963 0
M  V30 6964 N 918.475 -4.09664 -2.15742 0
M  V30 6965 H 921.314 -7.45574 -4.45629 0
M  V30 6966 H 921.586 -5.86232 -3.67314 0
M  V30 6967 H 920.718 -7.84412 -2.24479 0
M  V30 6968 P 916.755 -8.7635 -1.60911 0
M  V30 6969 O 916.535 -10.1388 -1.11561 0
M  V30 6970 O 915.965 -8.36503 -2.79617 0
M  V30 6971 O 916.505 -7.71806 -0.42951 0
M  V30 6972 C 917.445 -7.67148 0.673689 0
M  V30 6973 C 916.715 -7.33374 1.95559 0
M  V30 6974 O 916.505 -5.88721 2.00726 0
M  V30 6975 C 915.315 -7.92526 2.10483 0
M  V30 6976 O 914.925 -8.02971 3.47653 0
M  V30 6977 C 914.435 -6.89602 1.41652 0
M  V30 6978 C 915.145 -5.59201 1.75185 0
M  V30 6979 N 915.095 -4.58235 0.662552 0
M  V30 6980 H 917.934 -8.65116 0.777161 0
M  V30 6981 H 918.206 -6.90173 0.474152 0
M  V30 6982 H 917.338 -7.66548 2.79458 0
M  V30 6983 P 913.375 -8.03563 3.84925 0
M  V30 6984 O 913.155 -8.85821 5.0569 0
M  V30 6985 O 912.585 -8.41101 2.65469 0
M  V30 6986 O 913.125 -6.4965 4.18908 0
M  V30 6987 C 914.065 -5.81037 5.05421 0
M  V30 6988 C 913.335 -4.78366 5.89277 0
M  V30 6989 O 913.125 -3.58302 5.08433 0
M  V30 6990 C 911.935 -5.17448 6.36119 0
M  V30 6991 O 911.545 -4.45271 7.53232 0
M  V30 6992 C 911.055 -4.74639 5.19936 0
M  V30 6993 C 911.765 -3.49432 4.70418 0
M  V30 6994 N 911.715 -3.31776 3.22945 0
M  V30 6995 H 914.554 -6.54213 5.71376 0
M  V30 6996 H 914.826 -5.30492 4.44033 0
M  V30 6997 H 913.958 -4.55889 6.76652 0
M  V30 6998 P 909.995 -4.23843 7.83734 0
M  V30 6999 O 909.775 -4.19407 9.29784 0
M  V30 7000 O 909.205 -5.24426 7.09156 0
M  V30 7001 O 909.745 -2.7935 7.20758 0
M  V30 7002 C 910.685 -1.72945 7.50224 0
M  V30 7003 C 909.955 -0.406376 7.57911 0
M  V30 7004 O 909.745 0.0897726 6.21935 0
M  V30 7005 C 908.555 -0.438983 8.18724 0
M  V30 7006 O 908.165 0.825065 8.71101 0
M  V30 7007 C 907.675 -0.783689 6.99524 0
M  V30 7008 C 908.385 -0.0619086 5.85867 0
M  V30 7009 N 908.335 -0.78573 4.56183 0
M  V30 7010 C 908.185 -0.0292889 3.41887 0
M  V30 7011 O 908.095 1.18445 3.4419 0
M  V30 7012 N 908.145 -0.744061 2.23964 0
M  V30 7013 C 908.235 -2.10932 2.10362 0
M  V30 7014 C 908.385 -2.8202 3.34994 0
M  V30 7015 C 908.435 -2.15547 4.52261 0
M  V30 7016 H 911.176 -1.93379 8.46595 0
M  V30 7017 H 911.445 -1.68132 6.70852 0
M  V30 7018 H 910.578 0.289041 8.15388 0
M  V30 7019 H 907.923 0.926847 5.72749 0
M  V30 7020 H 907.644 -1.86973 6.82036 0
M  V30 7021 H 906.652 -0.403896 7.13257 0
M  V30 7022 H 908.486 -1.20585 8.97435 0
M  V30 7023 H 908.557 -2.71231 5.45042 0
M  V30 7024 P 906.615 1.17771 8.83182 0
M  V30 7025 O 906.395 2.07206 9.98732 0
M  V30 7026 O 905.825 -0.0743816 8.81969 0
M  V30 7027 O 906.365 1.97652 7.47304 0
M  V30 7028 C 907.305 3.01133 7.08783 0
M  V30 7029 C 906.575 4.12613 6.37049 0
M  V30 7030 O 906.365 3.72827 4.97879 0
M  V30 7031 C 905.175 4.45085 6.88694 0
M  V30 7032 O 904.785 5.7877 6.5624 0
M  V30 7033 C 904.295 3.47817 6.12078 0
M  V30 7034 C 905.005 3.39414 4.77697 0
M  V30 7035 N 904.955 2.04199 4.15538 0
M  V30 7036 H 907.794 3.41248 7.98759 0
M  V30 7037 H 908.066 2.57728 6.42 0
M  V30 7038 H 907.198 5.02657 6.42673 0
M  V30 7039 H 904.543 4.11708 4.08956 0
M  V30 7040 H 904.263 2.49626 6.61679 0
M  V30 7041 H 903.272 3.8662 6.00862 0
M  V30 7042 H 905.106 4.29991 7.97006 0
M  V30 7043 P 903.235 6.144 6.45285 0
M  V30 7044 O 903.015 7.54673 6.86199 0
M  V30 7045 O 902.445 5.12391 7.179 0
M  V30 7046 O 902.985 5.99158 4.88404 0
M  V30 7047 C 903.925 6.60062 3.96313 0
M  V30 7048 C 903.195 7.08259 2.72856 0
M  V30 7049 O 902.985 5.9427 1.83651 0
M  V30 7050 C 901.795 7.65087 2.94749 0
M  V30 7051 O 901.405 8.53963 1.90717 0
M  V30 7052 C 900.915 6.41069 2.90698 0
M  V30 7053 C 901.625 5.5528 1.86931 0
M  V30 7054 N 901.575 4.09575 2.15696 0
M  V30 7055 C 901.425 3.24249 1.08435 0
M  V30 7056 O 901.335 3.63946 -0.0628747 0
M  V30 7057 N 901.385 1.90009 1.39973 0
M  V30 7058 C 901.475 1.34884 2.65614 0
M  V30 7059 C 901.625 2.3145 3.71736 0
M  V30 7060 C 901.675 3.63518 3.44754 0
M  V30 7061 H 904.416 7.45402 4.45526 0
M  V30 7062 H 904.685 5.86062 3.67208 0
M  V30 7063 H 903.818 7.84412 2.24479 0
M  V30 7064 H 901.163 5.73358 0.888409 0
M  V30 7065 H 900.884 5.90877 3.88583 0
M  V30 7066 H 899.892 6.65867 2.58821 0
M  V30 7067 H 901.726 8.16248 3.92006 0
M  V30 7068 H 901.797 4.34551 4.26383 0
M  V30 7069 P 899.855 8.7635 1.60911 0
M  V30 7070 O 899.635 10.1388 1.11561 0
M  V30 7071 O 899.065 8.36503 2.79617 0
M  V30 7072 O 899.605 7.71806 0.42951 0
M  V30 7073 C 900.545 7.67148 -0.673689 0
M  V30 7074 C 899.815 7.33374 -1.95559 0
M  V30 7075 O 899.605 5.88721 -2.00726 0
M  V30 7076 C 898.415 7.92526 -2.10483 0
M  V30 7077 O 898.025 8.02971 -3.47653 0
M  V30 7078 C 897.535 6.89602 -1.41652 0
M  V30 7079 C 898.245 5.59201 -1.75185 0
M  V30 7080 N 898.195 4.58301 -0.657969 0
M  V30 7081 H 901.034 8.65116 -0.777161 0
M  V30 7082 H 901.306 6.9022 -0.46725 0
M  V30 7083 H 900.438 7.66548 -2.79458 0
M  V30 7084 H 897.783 5.16165 -2.65183 0
M  V30 7085 H 897.503 7.06433 -0.329384 0
M  V30 7086 H 896.512 6.90926 -1.82021 0
M  V30 7087 H 898.346 8.90873 -1.62657 0
M  V30 7088 P 896.475 8.03563 -3.84925 0
M  V30 7089 O 896.255 8.85821 -5.0569 0
M  V30 7090 O 895.685 8.41101 -2.65469 0
M  V30 7091 O 896.225 6.4965 -4.18908 0
M  V30 7092 C 897.165 5.81037 -5.05421 0
M  V30 7093 C 896.435 4.78366 -5.89277 0
M  V30 7094 O 896.225 3.58302 -5.08433 0
M  V30 7095 C 895.035 5.17448 -6.36119 0
M  V30 7096 O 894.645 4.45271 -7.53232 0
M  V30 7097 C 894.155 4.74639 -5.19936 0
M  V30 7098 C 894.865 3.49432 -4.70418 0
M  V30 7099 N 894.815 3.31776 -3.22945 0
M  V30 7100 H 897.654 6.54213 -5.71376 0
M  V30 7101 H 897.926 5.30492 -4.44033 0
M  V30 7102 H 897.058 4.55889 -6.76652 0
M  V30 7103 P 893.095 4.23843 -7.83734 0
M  V30 7104 O 892.875 4.19407 -9.29784 0
M  V30 7105 O 892.305 5.24426 -7.09156 0
M  V30 7106 O 892.845 2.7935 -7.20758 0
M  V30 7107 C 893.785 1.72945 -7.50224 0
M  V30 7108 C 893.055 0.406376 -7.57911 0
M  V30 7109 O 892.845 -0.0897726 -6.21935 0
M  V30 7110 C 891.655 0.438983 -8.18724 0
M  V30 7111 O 891.265 -0.825065 -8.71101 0
M  V30 7112 C 890.775 0.783689 -6.99524 0
M  V30 7113 C 891.485 0.0619086 -5.85867 0
M  V30 7114 N 891.435 0.78573 -4.56183 0
M  V30 7115 C 891.285 0.0292889 -3.41887 0
M  V30 7116 O 891.195 -1.18445 -3.4419 0
M  V30 7117 N 891.245 0.744061 -2.23964 0
M  V30 7118 C 891.335 2.10932 -2.10362 0
M  V30 7119 O 891.285 2.64117 -0.98825 0
M  V30 7120 C 891.485 2.8202 -3.34994 0
M  V30 7121 C 891.595 4.31095 -3.25037 0
M  V30 7122 C 891.535 2.15547 -4.52261 0
M  V30 7123 H 894.276 1.93379 -8.46595 0
M  V30 7124 H 894.545 1.68132 -6.70852 0
M  V30 7125 H 893.678 -0.289041 -8.15388 0
M  V30 7126 H 891.023 -0.926847 -5.72749 0
M  V30 7127 H 890.744 1.86973 -6.82036 0
M  V30 7128 H 889.752 0.403896 -7.13257 0
M  V30 7129 H 891.586 1.20585 -8.97435 0
M  V30 7130 H 891.657 2.71231 -5.45042 0
M  V30 7131 H 890.627 4.76966 -3.49992 0
M  V30 7132 H 892.364 4.67047 -3.95024 0
M  V30 7133 H 891.876 4.58996 -2.22312 0
M  V30 7134 H 891.14 0.214893 -1.39758 0
M  V30 7135 P 889.715 -1.17771 -8.83182 0
M  V30 7136 O 889.495 -2.07206 -9.98732 0
M  V30 7137 O 888.925 0.0743816 -8.81969 0
M  V30 7138 O 889.465 -1.97652 -7.47304 0
M  V30 7139 C 890.405 -3.01133 -7.08783 0
M  V30 7140 C 889.675 -4.12613 -6.37049 0
M  V30 7141 O 889.465 -3.72827 -4.97879 0
M  V30 7142 C 888.275 -4.45085 -6.88694 0
M  V30 7143 O 887.885 -5.7877 -6.5624 0
M  V30 7144 C 887.395 -3.47817 -6.12078 0
M  V30 7145 C 888.105 -3.39414 -4.77697 0
M  V30 7146 N 888.055 -2.04199 -4.15538 0
M  V30 7147 H 890.894 -3.41248 -7.98759 0
M  V30 7148 H 891.166 -2.57728 -6.42 0
M  V30 7149 H 890.298 -5.02657 -6.42673 0
M  V30 7150 H 887.643 -4.11708 -4.08956 0
M  V30 7151 H 887.363 -2.49626 -6.61679 0
M  V30 7152 H 886.372 -3.8662 -6.00862 0
M  V30 7153 H 888.206 -4.29991 -7.97006 0
M  V30 7154 P 886.335 -6.144 -6.45285 0
M  V30 7155 O 886.115 -7.54673 -6.86199 0
M  V30 7156 O 885.545 -5.12391 -7.179 0
M  V30 7157 O 886.085 -5.99236 -4.88467 0
M  V30 7158 C 887.025 -6.60234 -3.96415 0
M  V30 7159 C 886.295 -7.08079 -2.736 0
M  V30 7160 O 886.085 -5.94365 -1.8368 0
M  V30 7161 C 884.895 -7.64886 -2.9555 0
M  V30 7162 O 884.505 -8.5406 -1.90739 0
M  V30 7163 C 884.015 -6.4116 -2.90739 0
M  V30 7164 C 884.725 -5.55375 -1.86963 0
M  V30 7165 N 884.675 -4.09664 -2.15742 0
M  V30 7166 C 884.525 -3.22231 -1.08477 0
M  V30 7167 O 884.435 -3.68951 0.0600489 0
M  V30 7168 N 884.475 -1.76692 -1.48799 0
M  V30 7169 C 884.575 -1.41695 -2.57602 0
M  V30 7170 N 884.525 -0.107296 -2.75791 0
M  V30 7171 C 884.725 -2.29178 -3.69733 0
M  V30 7172 C 884.775 -3.62753 -3.42653 0
M  V30 7173 H 887.515 -7.45488 -4.45578 0
M  V30 7174 H 887.785 -5.86232 -3.67314 0
M  V30 7175 H 886.918 -7.84508 -2.24507 0
M  V30 7176 H 884.263 -5.73556 -0.888715 0
M  V30 7177 H 883.983 -5.9096 -3.88638 0
M  V30 7178 H 882.992 -6.66053 -2.58894 0
M  V30 7179 H 884.826 -8.16339 -3.92049 0
M  V30 7180 H 884.898 -4.33052 -4.24913 0
M  V30 7181 H 884.796 -1.9103 -4.71577 0
M  V30 7182 H 884.408 0.521221 -1.95056 0
M  V30 7183 H 884.604 0.286429 -3.70695 0
M  V30 7184 P 882.955 -8.7635 -1.60911 0
M  V30 7185 O 882.735 -10.1388 -1.11561 0
M  V30 7186 O 882.165 -8.36503 -2.79617 0
M  V30 7187 O 882.705 -7.71806 -0.42951 0
M  V30 7188 C 883.645 -7.67148 0.673689 0
M  V30 7189 C 882.915 -7.33374 1.95559 0
M  V30 7190 O 882.705 -5.88721 2.00726 0
M  V30 7191 C 881.515 -7.92526 2.10483 0
M  V30 7192 O 881.125 -8.02971 3.47653 0
M  V30 7193 C 880.635 -6.89602 1.41652 0
M  V30 7194 C 881.345 -5.59201 1.75185 0
M  V30 7195 N 881.295 -4.58301 0.657969 0
M  V30 7196 H 884.134 -8.65116 0.777161 0
M  V30 7197 H 884.406 -6.9022 0.46725 0
M  V30 7198 H 883.538 -7.66548 2.79458 0
M  V30 7199 H 880.883 -5.16165 2.65183 0
M  V30 7200 H 880.603 -7.06433 0.329384 0
M  V30 7201 H 879.612 -6.90926 1.82021 0
M  V30 7202 H 881.446 -8.90873 1.62657 0
M  V30 7203 P 879.575 -8.03563 3.84925 0
M  V30 7204 O 879.355 -8.85821 5.0569 0
M  V30 7205 O 878.785 -8.41101 2.65469 0
M  V30 7206 O 879.325 -6.4965 4.18908 0
M  V30 7207 C 880.265 -5.81037 5.05421 0
M  V30 7208 C 879.535 -4.78366 5.89277 0
M  V30 7209 O 879.325 -3.58302 5.08433 0
M  V30 7210 C 878.135 -5.17448 6.36119 0
M  V30 7211 O 877.745 -4.45271 7.53232 0
M  V30 7212 C 877.255 -4.74639 5.19936 0
M  V30 7213 C 877.965 -3.49432 4.70418 0
M  V30 7214 N 877.915 -3.32099 3.22613 0
M  V30 7215 H 880.754 -6.54213 5.71376 0
M  V30 7216 H 881.026 -5.30936 4.43503 0
M  V30 7217 H 880.158 -4.55889 6.76652 0
M  V30 7218 H 877.503 -2.61715 5.17932 0
M  V30 7219 H 877.223 -5.52155 4.41878 0
M  V30 7220 H 876.232 -4.51981 5.53374 0
M  V30 7221 H 878.066 -6.25124 6.55234 0
M  V30 7222 P 876.195 -4.23843 7.83734 0
M  V30 7223 O 875.975 -4.19407 9.29784 0
M  V30 7224 O 875.405 -5.24426 7.09156 0
M  V30 7225 O 875.945 -2.7935 7.20758 0
M  V30 7226 C 876.885 -1.7299 7.50419 0
M  V30 7227 C 876.155 -0.406376 7.57911 0
M  V30 7228 O 875.945 0.0897726 6.21935 0
M  V30 7229 C 874.755 -0.447224 8.1878 0
M  V30 7230 O 874.365 0.825065 8.71101 0
M  V30 7231 C 873.875 -0.783801 6.99623 0
M  V30 7232 C 874.585 -0.0619192 5.85967 0
M  V30 7233 N 874.535 -0.7859 4.56281 0
M  V30 7234 H 877.374 -1.93423 8.4679 0
M  V30 7235 H 877.646 -1.68181 6.71046 0
M  V30 7236 H 876.778 0.289041 8.15388 0
M  V30 7237 P 872.815 1.17771 8.83182 0
M  V30 7238 O 872.595 2.07206 9.98732 0
M  V30 7239 O 872.025 -0.0743816 8.81969 0
M  V30 7240 O 872.565 1.97652 7.47304 0
M  V30 7241 C 873.505 3.01055 7.08599 0
M  V30 7242 C 872.775 4.12613 6.37049 0
M  V30 7243 O 872.565 3.72827 4.97879 0
M  V30 7244 C 871.375 4.45719 6.88164 0
M  V30 7245 O 870.985 5.7877 6.5624 0
M  V30 7246 C 870.495 3.47768 6.11991 0
M  V30 7247 C 871.205 3.39356 4.77615 0
M  V30 7248 N 871.155 2.04571 4.15244 0
M  V30 7249 C 871.005 1.98587 2.78314 0
M  V30 7250 O 870.915 2.98134 2.08835 0
M  V30 7251 N 870.965 0.714467 2.24925 0
M  V30 7252 C 871.055 -0.470001 2.94169 0
M  V30 7253 O 871.005 -1.55587 2.35195 0
M  V30 7254 C 871.205 -0.312541 4.36783 0
M  V30 7255 C 871.315 -1.57711 5.16352 0
M  V30 7256 C 871.255 0.914512 4.92583 0
M  V30 7257 H 873.996 3.41169 7.98575 0
M  V30 7258 H 874.265 2.58295 6.41556 0
M  V30 7259 H 873.398 5.02657 6.42673 0
M  V30 7260 H 870.743 4.11637 4.08885 0
M  V30 7261 H 870.464 2.49626 6.61679 0
M  V30 7262 H 869.472 3.86566 6.00778 0
M  V30 7263 H 871.306 4.29943 7.96918 0
M  V30 7264 H 871.377 1.00937 6.00374 0
M  V30 7265 H 870.347 -1.80153 5.63503 0
M  V30 7266 H 872.084 -1.4566 5.94104 0
M  V30 7267 H 871.596 -2.40664 4.49645 0
M  V30 7268 H 870.86 0.647622 1.25697 0
M  V30 7269 P 869.435 6.144 6.45285 0
M  V30 7270 O 869.215 7.54673 6.86199 0
M  V30 7271 O 868.645 5.12391 7.179 0
M  V30 7272 O 869.185 5.99158 4.88404 0
M  V30 7273 C 870.125 6.60234 3.96415 0
M  V30 7274 C 869.395 7.08259 2.72856 0
M  V30 7275 O 869.185 5.9427 1.83651 0
M  V30 7276 C 867.995 7.64886 2.9555 0
M  V30 7277 O 867.605 8.53963 1.90717 0
M  V30 7278 C 867.115 6.4116 2.90739 0
M  V30 7279 C 867.825 5.55375 1.86963 0
M  V30 7280 N 867.775 4.09664 2.15742 0
M  V30 7281 C 867.855 3.44381 3.37233 0
M  V30 7282 N 867.775 2.14131 3.28347 0
M  V30 7283 C 867.635 1.90247 1.91588 0
M  V30 7284 C 867.505 0.683992 1.20892 0
M  V30 7285 N 867.385 0.903396 -0.173998 0
M  V30 7286 C 867.385 2.14171 -0.784879 0
M  V30 7287 N 867.255 2.1435 -2.11317 0
M  V30 7288 N 867.515 3.28784 -0.119316 0
M  V30 7289 C 867.635 3.0977 1.22194 0
M  V30 7290 H 870.614 7.45574 4.45629 0
M  V30 7291 H 870.886 5.86232 3.67314 0
M  V30 7292 H 870.018 7.84412 2.24479 0
M  V30 7293 P 866.055 8.7635 1.60911 0
M  V30 7294 O 865.835 10.1388 1.11561 0
M  V30 7295 O 865.265 8.36503 2.79617 0
M  V30 7296 O 865.805 7.71806 0.42951 0
M  V30 7297 C 866.745 7.67148 -0.673689 0
M  V30 7298 C 866.015 7.33374 -1.95559 0
M  V30 7299 O 865.805 5.88721 -2.00726 0
M  V30 7300 C 864.615 7.92526 -2.10483 0
M  V30 7301 O 864.225 8.02971 -3.47653 0
M  V30 7302 C 863.735 6.89602 -1.41652 0
M  V30 7303 C 864.445 5.59201 -1.75185 0
M  V30 7304 N 864.395 4.58301 -0.657969 0
M  V30 7305 H 867.234 8.65116 -0.777161 0
M  V30 7306 H 867.506 6.9022 -0.46725 0
M  V30 7307 H 866.638 7.66548 -2.79458 0
M  V30 7308 H 863.983 5.16165 -2.65183 0
M  V30 7309 H 863.703 7.06433 -0.329384 0
M  V30 7310 H 862.712 6.90926 -1.82021 0
M  V30 7311 H 864.546 8.90873 -1.62657 0
M  V30 7312 P 862.675 8.03563 -3.84925 0
M  V30 7313 O 862.455 8.85821 -5.0569 0
M  V30 7314 O 861.885 8.41101 -2.65469 0
M  V30 7315 O 862.425 6.49734 -4.18962 0
M  V30 7316 C 863.365 5.81037 -5.05421 0
M  V30 7317 C 862.635 4.79018 -5.88876 0
M  V30 7318 O 862.425 3.58359 -5.08515 0
M  V30 7319 C 861.235 5.17448 -6.36119 0
M  V30 7320 O 860.845 4.45322 -7.53318 0
M  V30 7321 C 860.355 4.74639 -5.19936 0
M  V30 7322 C 861.065 3.49432 -4.70418 0
M  V30 7323 N 861.015 3.31776 -3.22945 0
M  V30 7324 C 860.865 2.02742 -2.72939 0
M  V30 7325 O 860.775 1.08301 -3.52749 0
M  V30 7326 N 860.815 1.96117 -1.22063 0
M  V30 7327 C 860.915 2.8878 -0.551566 0
M  V30 7328 N 860.865 2.65609 0.750198 0
M  V30 7329 C 861.065 4.22457 -1.03707 0
M  V30 7330 C 861.115 4.37979 -2.39113 0
M  V30 7331 H 863.855 6.54138 -5.7131 0
M  V30 7332 H 864.125 5.30492 -4.44033 0
M  V30 7333 H 863.258 4.55945 -6.76735 0
M  V30 7334 H 860.603 2.6176 -5.18021 0
M  V30 7335 H 860.323 5.52233 -4.41941 0
M  V30 7336 H 859.332 4.52045 -5.53452 0
M  V30 7337 H 861.166 6.25124 -6.55234 0
M  V30 7338 H 861.238 5.37936 -2.80552 0
M  V30 7339 H 861.136 5.07528 -0.359553 0
M  V30 7340 H 860.748 1.69403 1.09847 0
M  V30 7341 H 860.944 3.43701 1.41792 0
M  V30 7342 P 859.295 4.23843 -7.83734 0
M  V30 7343 O 859.075 4.19407 -9.29784 0
M  V30 7344 O 858.505 5.24426 -7.09156 0
M  V30 7345 O 859.045 2.7935 -7.20758 0
M  V30 7346 C 859.985 1.7299 -7.50419 0
M  V30 7347 C 859.255 0.406376 -7.57911 0
M  V30 7348 O 859.045 -0.0897726 -6.21935 0
M  V30 7349 C 857.855 0.447224 -8.1878 0
M  V30 7350 O 857.465 -0.825065 -8.71101 0
M  V30 7351 C 856.975 0.783801 -6.99623 0
M  V30 7352 C 857.685 0.0619192 -5.85967 0
M  V30 7353 N 857.635 0.7859 -4.56281 0
M  V30 7354 H 860.474 1.93423 -8.4679 0
M  V30 7355 H 860.746 1.68181 -6.71046 0
M  V30 7356 H 859.878 -0.289041 -8.15388 0
M  V30 7357 P 855.915 -1.17771 -8.83182 0
M  V30 7358 O 855.695 -2.07206 -9.98732 0
M  V30 7359 O 855.125 0.0743816 -8.81969 0
M  V30 7360 O 855.665 -1.97652 -7.47304 0
M  V30 7361 C 856.605 -3.01133 -7.08783 0
M  V30 7362 C 855.875 -4.12613 -6.37049 0
M  V30 7363 O 855.665 -3.72827 -4.97879 0
M  V30 7364 C 854.475 -4.45085 -6.88694 0
M  V30 7365 O 854.085 -5.7877 -6.5624 0
M  V30 7366 C 853.595 -3.47817 -6.12078 0
M  V30 7367 C 854.305 -3.39414 -4.77697 0
M  V30 7368 N 854.255 -2.04615 -4.15333 0
M  V30 7369 H 857.094 -3.41248 -7.98759 0
M  V30 7370 H 857.366 -2.5837 -6.41742 0
M  V30 7371 H 856.498 -5.02657 -6.42673 0
M  V30 7372 P 852.535 -6.144 -6.45285 0
M  V30 7373 O 852.315 -7.54673 -6.86199 0
M  V30 7374 O 851.745 -5.12391 -7.179 0
M  V30 7375 O 852.285 -5.99158 -4.88404 0
M  V30 7376 C 853.225 -6.60234 -3.96415 0
M  V30 7377 C 852.495 -7.08259 -2.72856 0
M  V30 7378 O 852.285 -5.9427 -1.83651 0
M  V30 7379 C 851.095 -7.64886 -2.9555 0
M  V30 7380 O 850.705 -8.53963 -1.90717 0
M  V30 7381 C 850.215 -6.4116 -2.90739 0
M  V30 7382 C 850.925 -5.55375 -1.86963 0
M  V30 7383 N 850.875 -4.09664 -2.15742 0
M  V30 7384 H 853.714 -7.45574 -4.45629 0
M  V30 7385 H 853.986 -5.86232 -3.67314 0
M  V30 7386 H 853.118 -7.84412 -2.24479 0
M  V30 7387 P 849.155 -8.7635 -1.60911 0
M  V30 7388 O 848.935 -10.1388 -1.11561 0
M  V30 7389 O 848.365 -8.36503 -2.79617 0
M  V30 7390 O 848.905 -7.71806 -0.42951 0
M  V30 7391 C 849.845 -7.67148 0.673689 0
M  V30 7392 C 849.115 -7.33374 1.95559 0
M  V30 7393 O 848.905 -5.88721 2.00726 0
M  V30 7394 C 847.715 -7.92526 2.10483 0
M  V30 7395 O 847.325 -8.02971 3.47653 0
M  V30 7396 C 846.835 -6.89602 1.41652 0
M  V30 7397 C 847.545 -5.59201 1.75185 0
M  V30 7398 N 847.495 -4.58235 0.662552 0
M  V30 7399 H 850.334 -8.65116 0.777161 0
M  V30 7400 H 850.606 -6.90173 0.474152 0
M  V30 7401 H 849.738 -7.66548 2.79458 0
M  V30 7402 P 845.775 -8.03563 3.84925 0
M  V30 7403 O 845.555 -8.85821 5.0569 0
M  V30 7404 O 844.985 -8.41101 2.65469 0
M  V30 7405 O 845.525 -6.4965 4.18908 0
M  V30 7406 C 846.465 -5.81037 5.05421 0
M  V30 7407 C 845.735 -4.78366 5.89277 0
M  V30 7408 O 845.525 -3.58302 5.08433 0
M  V30 7409 C 844.335 -5.17448 6.36119 0
M  V30 7410 O 843.945 -4.45271 7.53232 0
M  V30 7411 C 843.455 -4.74639 5.19936 0
M  V30 7412 C 844.165 -3.49432 4.70418 0
M  V30 7413 N 844.115 -3.31776 3.22945 0
M  V30 7414 H 846.954 -6.54213 5.71376 0
M  V30 7415 H 847.226 -5.30492 4.44033 0
M  V30 7416 H 846.358 -4.55889 6.76652 0
M  V30 7417 P 842.395 -4.23843 7.83734 0
M  V30 7418 O 842.175 -4.19407 9.29784 0
M  V30 7419 O 841.605 -5.24426 7.09156 0
M  V30 7420 O 842.145 -2.7935 7.20758 0
M  V30 7421 C 843.085 -1.7299 7.50419 0
M  V30 7422 C 842.355 -0.406376 7.57911 0
M  V30 7423 O 842.145 0.0897726 6.21935 0
M  V30 7424 C 840.955 -0.447224 8.1878 0
M  V30 7425 O 840.565 0.825065 8.71101 0
M  V30 7426 C 840.075 -0.783801 6.99623 0
M  V30 7427 C 840.785 -0.0619192 5.85967 0
M  V30 7428 N 840.735 -0.7859 4.56281 0
M  V30 7429 H 843.574 -1.93423 8.4679 0
M  V30 7430 H 843.846 -1.68181 6.71046 0
M  V30 7431 H 842.978 0.289041 8.15388 0
M  V30 7432 P 839.015 1.17771 8.83182 0
M  V30 7433 O 838.795 2.07206 9.98732 0
M  V30 7434 O 838.225 -0.0743816 8.81969 0
M  V30 7435 O 838.765 1.97678 7.474 0
M  V30 7436 C 839.705 3.01133 7.08783 0
M  V30 7437 C 838.975 4.1203 6.37546 0
M  V30 7438 O 838.765 3.72887 4.9796 0
M  V30 7439 C 837.575 4.45085 6.88694 0
M  V30 7440 O 837.185 5.78836 6.56315 0
M  V30 7441 C 836.695 3.47817 6.12078 0
M  V30 7442 C 837.405 3.39414 4.77697 0
M  V30 7443 N 837.355 2.04615 4.15333 0
M  V30 7444 C 837.205 1.96929 2.77162 0
M  V30 7445 O 837.115 3.02017 2.12006 0
M  V30 7446 N 837.155 0.55485 2.24237 0
M  V30 7447 C 837.255 -0.367808 2.9169 0
M  V30 7448 N 837.205 -1.53426 2.29427 0
M  V30 7449 C 837.405 -0.319148 4.33828 0
M  V30 7450 C 837.455 0.920672 4.90433 0
M  V30 7451 H 840.195 3.41209 7.98667 0
M  V30 7452 H 840.465 2.5837 6.41742 0
M  V30 7453 H 839.598 5.02718 6.42752 0
M  V30 7454 H 836.943 4.11779 4.09026 0
M  V30 7455 H 836.663 2.49661 6.61772 0
M  V30 7456 H 835.672 3.86674 6.00946 0
M  V30 7457 H 837.506 4.29991 7.97006 0
M  V30 7458 H 837.578 1.00589 5.98303 0
M  V30 7459 H 837.476 -1.22639 4.93799 0
M  V30 7460 H 837.088 -1.56819 1.27167 0
M  V30 7461 H 837.284 -2.41062 2.83063 0
M  V30 7462 P 835.635 6.144 6.45285 0
M  V30 7463 O 835.415 7.54673 6.86199 0
M  V30 7464 O 834.845 5.12391 7.179 0
M  V30 7465 O 835.385 5.99158 4.88404 0
M  V30 7466 C 836.325 6.60234 3.96415 0
M  V30 7467 C 835.595 7.08259 2.72856 0
M  V30 7468 O 835.385 5.9427 1.83651 0
M  V30 7469 C 834.195 7.64886 2.9555 0
M  V30 7470 O 833.805 8.53963 1.90717 0
M  V30 7471 C 833.315 6.4116 2.90739 0
M  V30 7472 C 834.025 5.55375 1.86963 0
M  V30 7473 N 833.975 4.09664 2.15742 0
M  V30 7474 H 836.814 7.45574 4.45629 0
M  V30 7475 H 837.086 5.86232 3.67314 0
M  V30 7476 H 836.218 7.84412 2.24479 0
M  V30 7477 P 832.255 8.7635 1.60911 0
M  V30 7478 O 832.035 10.1388 1.11561 0
M  V30 7479 O 831.465 8.36503 2.79617 0
M  V30 7480 O 832.005 7.71806 0.42951 0
M  V30 7481 C 832.945 7.67148 -0.673689 0
M  V30 7482 C 832.215 7.33374 -1.95559 0
M  V30 7483 O 832.005 5.88721 -2.00726 0
M  V30 7484 C 830.815 7.92526 -2.10483 0
M  V30 7485 O 830.425 8.02971 -3.47653 0
M  V30 7486 C 829.935 6.89602 -1.41652 0
M  V30 7487 C 830.645 5.59201 -1.75185 0
M  V30 7488 N 830.595 4.58301 -0.657969 0
M  V30 7489 H 833.434 8.65116 -0.777161 0
M  V30 7490 H 833.706 6.9022 -0.46725 0
M  V30 7491 H 832.838 7.66548 -2.79458 0
M  V30 7492 H 830.183 5.16165 -2.65183 0
M  V30 7493 H 829.903 7.06433 -0.329384 0
M  V30 7494 H 828.912 6.90926 -1.82021 0
M  V30 7495 H 830.746 8.90873 -1.62657 0
M  V30 7496 P 828.875 8.03563 -3.84925 0
M  V30 7497 O 828.655 8.85821 -5.0569 0
M  V30 7498 O 828.085 8.41101 -2.65469 0
M  V30 7499 O 828.625 6.4965 -4.18908 0
M  V30 7500 C 829.565 5.81037 -5.05421 0
M  V30 7501 C 828.835 4.78366 -5.89277 0
M  V30 7502 O 828.625 3.58302 -5.08433 0
M  V30 7503 C 827.435 5.17448 -6.36119 0
M  V30 7504 O 827.045 4.45271 -7.53232 0
M  V30 7505 C 826.555 4.74639 -5.19936 0
M  V30 7506 C 827.265 3.49432 -4.70418 0
M  V30 7507 N 827.215 3.31776 -3.22945 0
M  V30 7508 H 830.054 6.54213 -5.71376 0
M  V30 7509 H 830.326 5.30492 -4.44033 0
M  V30 7510 H 829.458 4.55889 -6.76652 0
M  V30 7511 P 825.495 4.23843 -7.83734 0
M  V30 7512 O 825.275 4.19407 -9.29784 0
M  V30 7513 O 824.705 5.24426 -7.09156 0
M  V30 7514 O 825.245 2.7935 -7.20758 0
M  V30 7515 C 826.185 1.7299 -7.50419 0
M  V30 7516 C 825.455 0.406376 -7.57911 0
M  V30 7517 O 825.245 -0.0897726 -6.21935 0
M  V30 7518 C 824.055 0.447224 -8.1878 0
M  V30 7519 O 823.665 -0.825065 -8.71101 0
M  V30 7520 C 823.175 0.783801 -6.99623 0
M  V30 7521 C 823.885 0.0619192 -5.85967 0
M  V30 7522 N 823.835 0.7859 -4.56281 0
M  V30 7523 H 826.674 1.93423 -8.4679 0
M  V30 7524 H 826.946 1.68181 -6.71046 0
M  V30 7525 H 826.078 -0.289041 -8.15388 0
M  V30 7526 P 822.115 -1.17771 -8.83182 0
M  V30 7527 O 821.895 -2.07206 -9.98732 0
M  V30 7528 O 821.325 0.0743816 -8.81969 0
M  V30 7529 O 821.865 -1.97652 -7.47304 0
M  V30 7530 C 822.805 -3.01133 -7.08783 0
M  V30 7531 C 822.075 -4.12613 -6.37049 0
M  V30 7532 O 821.865 -3.72827 -4.97879 0
M  V30 7533 C 820.675 -4.45085 -6.88694 0
M  V30 7534 O 820.285 -5.7877 -6.5624 0
M  V30 7535 C 819.795 -3.47817 -6.12078 0
M  V30 7536 C 820.505 -3.39414 -4.77697 0
M  V30 7537 N 820.455 -2.04615 -4.15333 0
M  V30 7538 H 823.294 -3.41248 -7.98759 0
M  V30 7539 H 823.566 -2.5837 -6.41742 0
M  V30 7540 H 822.698 -5.02657 -6.42673 0
M  V30 7541 P 818.735 -6.144 -6.45285 0
M  V30 7542 O 818.515 -7.54673 -6.86199 0
M  V30 7543 O 817.945 -5.12391 -7.179 0
M  V30 7544 O 818.485 -5.99158 -4.88404 0
M  V30 7545 C 819.425 -6.60234 -3.96415 0
M  V30 7546 C 818.695 -7.08259 -2.72856 0
M  V30 7547 O 818.485 -5.9427 -1.83651 0
M  V30 7548 C 817.295 -7.64886 -2.9555 0
M  V30 7549 O 816.905 -8.53963 -1.90717 0
M  V30 7550 C 816.415 -6.4116 -2.90739 0
M  V30 7551 C 817.125 -5.55375 -1.86963 0
M  V30 7552 N 817.075 -4.09664 -2.15742 0
M  V30 7553 H 819.914 -7.45574 -4.45629 0
M  V30 7554 H 820.186 -5.86232 -3.67314 0
M  V30 7555 H 819.318 -7.84412 -2.24479 0
M  V30 7556 P 815.355 -8.7635 -1.60911 0
M  V30 7557 O 815.135 -10.1388 -1.11561 0
M  V30 7558 O 814.565 -8.36503 -2.79617 0
M  V30 7559 O 815.105 -7.71806 -0.42951 0
M  V30 7560 C 816.045 -7.67148 0.673689 0
M  V30 7561 C 815.315 -7.33374 1.95559 0
M  V30 7562 O 815.105 -5.88721 2.00726 0
M  V30 7563 C 813.915 -7.92526 2.10483 0
M  V30 7564 O 813.525 -8.02971 3.47653 0
M  V30 7565 C 813.035 -6.89602 1.41652 0
M  V30 7566 C 813.745 -5.59201 1.75185 0
M  V30 7567 N 813.695 -4.58235 0.662552 0
M  V30 7568 H 816.534 -8.65116 0.777161 0
M  V30 7569 H 816.806 -6.90173 0.474152 0
M  V30 7570 H 815.938 -7.66548 2.79458 0
M  V30 7571 P 811.975 -8.03563 3.84925 0
M  V30 7572 O 811.755 -8.85821 5.0569 0
M  V30 7573 O 811.185 -8.41101 2.65469 0
M  V30 7574 O 811.725 -6.4965 4.18908 0
M  V30 7575 C 812.665 -5.81037 5.05421 0
M  V30 7576 C 811.935 -4.78366 5.89277 0
M  V30 7577 O 811.725 -3.58302 5.08433 0
M  V30 7578 C 810.535 -5.17448 6.36119 0
M  V30 7579 O 810.145 -4.45271 7.53232 0
M  V30 7580 C 809.655 -4.74639 5.19936 0
M  V30 7581 C 810.365 -3.49432 4.70418 0
M  V30 7582 N 810.315 -3.32099 3.22613 0
M  V30 7583 H 813.154 -6.54213 5.71376 0
M  V30 7584 H 813.426 -5.30936 4.43503 0
M  V30 7585 H 812.558 -4.55889 6.76652 0
M  V30 7586 H 809.903 -2.61715 5.17932 0
M  V30 7587 H 809.623 -5.52155 4.41878 0
M  V30 7588 H 808.632 -4.51981 5.53374 0
M  V30 7589 H 810.466 -6.25124 6.55234 0
M  V30 7590 P 808.595 -4.23843 7.83734 0
M  V30 7591 O 808.375 -4.19407 9.29784 0
M  V30 7592 O 807.805 -5.24426 7.09156 0
M  V30 7593 O 808.345 -2.7935 7.20758 0
M  V30 7594 C 809.285 -1.7299 7.50419 0
M  V30 7595 C 808.555 -0.406376 7.57911 0
M  V30 7596 O 808.345 0.0897726 6.21935 0
M  V30 7597 C 807.155 -0.447224 8.1878 0
M  V30 7598 O 806.765 0.825065 8.71101 0
M  V30 7599 C 806.275 -0.783801 6.99623 0
M  V30 7600 C 806.985 -0.0619192 5.85967 0
M  V30 7601 N 806.935 -0.7859 4.56281 0
M  V30 7602 H 809.774 -1.93423 8.4679 0
M  V30 7603 H 810.046 -1.68181 6.71046 0
M  V30 7604 H 809.178 0.289041 8.15388 0
M  V30 7605 P 805.215 1.17771 8.83182 0
M  V30 7606 O 804.995 2.07206 9.98732 0
M  V30 7607 O 804.425 -0.0743816 8.81969 0
M  V30 7608 O 804.965 1.97652 7.47304 0
M  V30 7609 C 805.905 3.01133 7.08783 0
M  V30 7610 C 805.175 4.12613 6.37049 0
M  V30 7611 O 804.965 3.72827 4.97879 0
M  V30 7612 C 803.775 4.45085 6.88694 0
M  V30 7613 O 803.385 5.7877 6.5624 0
M  V30 7614 C 802.895 3.47817 6.12078 0
M  V30 7615 C 803.605 3.39414 4.77697 0
M  V30 7616 N 803.555 2.04615 4.15333 0
M  V30 7617 H 806.394 3.41248 7.98759 0
M  V30 7618 H 806.666 2.5837 6.41742 0
M  V30 7619 H 805.798 5.02657 6.42673 0
M  V30 7620 P 801.835 6.144 6.45285 0
M  V30 7621 O 801.615 7.54673 6.86199 0
M  V30 7622 O 801.045 5.12391 7.179 0
M  V30 7623 O 801.585 5.99158 4.88404 0
M  V30 7624 C 802.525 6.60062 3.96313 0
M  V30 7625 C 801.795 7.08259 2.72856 0
M  V30 7626 O 801.585 5.9427 1.83651 0
M  V30 7627 C 800.395 7.65087 2.94749 0
M  V30 7628 O 800.005 8.53963 1.90717 0
M  V30 7629 C 799.515 6.41069 2.90698 0
M  V30 7630 C 800.225 5.5528 1.86931 0
M  V30 7631 N 800.175 4.09575 2.15696 0
M  V30 7632 C 800.025 3.24249 1.08435 0
M  V30 7633 O 799.935 3.63946 -0.0628747 0
M  V30 7634 N 799.985 1.90009 1.39973 0
M  V30 7635 C 800.075 1.34884 2.65614 0
M  V30 7636 O 800.025 0.123716 2.81728 0
M  V30 7637 C 800.225 2.3145 3.71736 0
M  V30 7638 C 800.335 1.75913 5.10438 0
M  V30 7639 C 800.275 3.63518 3.44754 0
M  V30 7640 H 803.016 7.45402 4.45526 0
M  V30 7641 H 803.285 5.86062 3.67208 0
M  V30 7642 H 802.418 7.84412 2.24479 0
M  V30 7643 H 799.763 5.73358 0.888409 0
M  V30 7644 H 799.484 5.90877 3.88583 0
M  V30 7645 H 798.492 6.65867 2.58821 0
M  V30 7646 H 800.326 8.16248 3.92006 0
M  V30 7647 H 800.397 4.34551 4.26383 0
M  V30 7648 H 799.367 1.85471 5.61775 0
M  V30 7649 H 801.104 2.31364 5.66257 0
M  V30 7650 H 800.616 0.695936 5.05229 0
M  V30 7651 H 799.88 1.26277 0.63625 0
M  V30 7652 P 798.455 8.7635 1.60911 0
M  V30 7653 O 798.235 10.1388 1.11561 0
M  V30 7654 O 797.665 8.36503 2.79617 0
M  V30 7655 O 798.205 7.71806 0.42951 0
M  V30 7656 C 799.145 7.67148 -0.673689 0
M  V30 7657 C 798.415 7.33374 -1.95559 0
M  V30 7658 O 798.205 5.88721 -2.00726 0
M  V30 7659 C 797.015 7.92526 -2.10483 0
M  V30 7660 O 796.625 8.02971 -3.47653 0
M  V30 7661 C 796.135 6.89602 -1.41652 0
M  V30 7662 C 796.845 5.59201 -1.75185 0
M  V30 7663 N 796.795 4.58301 -0.657969 0
M  V30 7664 H 799.634 8.65116 -0.777161 0
M  V30 7665 H 799.906 6.9022 -0.46725 0
M  V30 7666 H 799.038 7.66548 -2.79458 0
M  V30 7667 H 796.383 5.16165 -2.65183 0
M  V30 7668 H 796.103 7.06433 -0.329384 0
M  V30 7669 H 795.112 6.90926 -1.82021 0
M  V30 7670 H 796.946 8.90873 -1.62657 0
M  V30 7671 P 795.075 8.03563 -3.84925 0
M  V30 7672 O 794.855 8.85821 -5.0569 0
M  V30 7673 O 794.285 8.41101 -2.65469 0
M  V30 7674 O 794.825 6.4965 -4.18908 0
M  V30 7675 C 795.765 5.81037 -5.05421 0
M  V30 7676 C 795.035 4.78366 -5.89277 0
M  V30 7677 O 794.825 3.58302 -5.08433 0
M  V30 7678 C 793.635 5.17448 -6.36119 0
M  V30 7679 O 793.245 4.45271 -7.53232 0
M  V30 7680 C 792.755 4.74639 -5.19936 0
M  V30 7681 C 793.465 3.49432 -4.70418 0
M  V30 7682 N 793.415 3.32099 -3.22613 0
M  V30 7683 C 793.495 4.28245 -2.25527 0
M  V30 7684 N 793.425 3.80823 -1.04874 0
M  V30 7685 C 793.275 2.44571 -1.23535 0
M  V30 7686 C 793.145 1.37068 -0.330675 0
M  V30 7687 N 793.135 1.51472 0.990824 0
M  V30 7688 N 793.025 0.138614 -0.848756 0
M  V30 7689 C 793.035 -0.00675923 -2.16999 0
M  V30 7690 N 793.155 0.904372 -3.11122 0
M  V30 7691 C 793.275 2.12707 -2.56212 0
M  V30 7692 H 796.254 6.54213 -5.71376 0
M  V30 7693 H 796.526 5.30936 -4.43503 0
M  V30 7694 H 795.658 4.55889 -6.76652 0
M  V30 7695 H 793.003 2.61715 -5.17932 0
M  V30 7696 H 792.723 5.52155 -4.41878 0
M  V30 7697 H 791.732 4.51981 -5.53374 0
M  V30 7698 H 793.566 6.25124 -6.55234 0
M  V30 7699 H 793.607 5.34372 -2.47488 0
M  V30 7700 H 793.226 2.45153 1.4078 0
M  V30 7701 H 793.037 0.688422 1.59911 0
M  V30 7702 H 792.929 -1.02584 -2.52346 0
M  V30 7703 P 791.695 4.23843 -7.83734 0
M  V30 7704 O 791.475 4.19407 -9.29784 0
M  V30 7705 O 790.905 5.24426 -7.09156 0
M  V30 7706 O 791.445 2.7935 -7.20758 0
M  V30 7707 C 792.385 1.7299 -7.50419 0
M  V30 7708 C 791.655 0.406376 -7.57911 0
M  V30 7709 O 791.445 -0.0897726 -6.21935 0
M  V30 7710 C 790.255 0.447224 -8.1878 0
M  V30 7711 O 789.865 -0.825065 -8.71101 0
M  V30 7712 C 789.375 0.783801 -6.99623 0
M  V30 7713 C 790.085 0.0619192 -5.85967 0
M  V30 7714 N 790.035 0.7859 -4.56281 0
M  V30 7715 H 792.874 1.93423 -8.4679 0
M  V30 7716 H 793.146 1.68181 -6.71046 0
M  V30 7717 H 792.278 -0.289041 -8.15388 0
M  V30 7718 P 788.315 -1.17771 -8.83182 0
M  V30 7719 O 788.095 -2.07206 -9.98732 0
M  V30 7720 O 787.525 0.0743816 -8.81969 0
M  V30 7721 O 788.065 -1.97652 -7.47304 0
M  V30 7722 C 789.005 -3.01133 -7.08783 0
M  V30 7723 C 788.275 -4.12613 -6.37049 0
M  V30 7724 O 788.065 -3.72827 -4.97879 0
M  V30 7725 C 786.875 -4.45085 -6.88694 0
M  V30 7726 O 786.485 -5.7877 -6.5624 0
M  V30 7727 C 785.995 -3.47817 -6.12078 0
M  V30 7728 C 786.705 -3.39414 -4.77697 0
M  V30 7729 N 786.655 -2.04615 -4.15333 0
M  V30 7730 H 789.494 -3.41248 -7.98759 0
M  V30 7731 H 789.766 -2.5837 -6.41742 0
M  V30 7732 H 788.898 -5.02657 -6.42673 0
M  V30 7733 P 784.935 -6.144 -6.45285 0
M  V30 7734 O 784.715 -7.54673 -6.86199 0
M  V30 7735 O 784.145 -5.12391 -7.179 0
M  V30 7736 O 784.685 -5.99158 -4.88404 0
M  V30 7737 C 785.625 -6.60234 -3.96415 0
M  V30 7738 C 784.895 -7.08259 -2.72856 0
M  V30 7739 O 784.685 -5.9427 -1.83651 0
M  V30 7740 C 783.495 -7.64886 -2.9555 0
M  V30 7741 O 783.105 -8.53963 -1.90717 0
M  V30 7742 C 782.615 -6.4116 -2.90739 0
M  V30 7743 C 783.325 -5.55375 -1.86963 0
M  V30 7744 N 783.275 -4.09664 -2.15742 0
M  V30 7745 H 786.114 -7.45574 -4.45629 0
M  V30 7746 H 786.386 -5.86232 -3.67314 0
M  V30 7747 H 785.518 -7.84412 -2.24479 0
M  V30 7748 P 781.555 -8.7635 -1.60911 0
M  V30 7749 O 781.335 -10.1388 -1.11561 0
M  V30 7750 O 780.765 -8.36503 -2.79617 0
M  V30 7751 O 781.305 -7.71806 -0.42951 0
M  V30 7752 C 782.245 -7.67148 0.673689 0
M  V30 7753 C 781.515 -7.33374 1.95559 0
M  V30 7754 O 781.305 -5.88721 2.00726 0
M  V30 7755 C 780.115 -7.92526 2.10483 0
M  V30 7756 O 779.725 -8.02971 3.47653 0
M  V30 7757 C 779.235 -6.89602 1.41652 0
M  V30 7758 C 779.945 -5.59201 1.75185 0
M  V30 7759 N 779.895 -4.58235 0.662552 0
M  V30 7760 H 782.734 -8.65116 0.777161 0
M  V30 7761 H 783.006 -6.90173 0.474152 0
M  V30 7762 H 782.138 -7.66548 2.79458 0
M  V30 7763 P 778.175 -8.03563 3.84925 0
M  V30 7764 O 777.955 -8.85821 5.0569 0
M  V30 7765 O 777.385 -8.41101 2.65469 0
M  V30 7766 O 777.925 -6.49734 4.18962 0
M  V30 7767 C 778.865 -5.81037 5.05421 0
M  V30 7768 C 778.135 -4.79018 5.88876 0
M  V30 7769 O 777.925 -3.58359 5.08515 0
M  V30 7770 C 776.735 -5.17448 6.36119 0
M  V30 7771 O 776.345 -4.45322 7.53318 0
M  V30 7772 C 775.855 -4.74639 5.19936 0
M  V30 7773 C 776.565 -3.49432 4.70418 0
M  V30 7774 N 776.515 -3.31776 3.22945 0
M  V30 7775 C 776.365 -2.02742 2.72939 0
M  V30 7776 O 776.275 -1.08301 3.52749 0
M  V30 7777 N 776.315 -1.96117 1.22063 0
M  V30 7778 C 776.415 -2.8878 0.551566 0
M  V30 7779 N 776.365 -2.65609 -0.750198 0
M  V30 7780 C 776.565 -4.22457 1.03707 0
M  V30 7781 C 776.615 -4.37979 2.39113 0
M  V30 7782 H 779.355 -6.54138 5.7131 0
M  V30 7783 H 779.625 -5.30492 4.44033 0
M  V30 7784 H 778.758 -4.55945 6.76735 0
M  V30 7785 H 776.103 -2.6176 5.18021 0
M  V30 7786 H 775.823 -5.52233 4.41941 0
M  V30 7787 H 774.832 -4.52045 5.53452 0
M  V30 7788 H 776.666 -6.25124 6.55234 0
M  V30 7789 H 776.738 -5.37936 2.80552 0
M  V30 7790 H 776.636 -5.07528 0.359553 0
M  V30 7791 H 776.248 -1.69403 -1.09847 0
M  V30 7792 H 776.444 -3.43701 -1.41792 0
M  V30 7793 P 774.795 -4.23843 7.83734 0
M  V30 7794 O 774.575 -4.19407 9.29784 0
M  V30 7795 O 774.005 -5.24426 7.09156 0
M  V30 7796 O 774.545 -2.7935 7.20758 0
M  V30 7797 C 775.485 -1.72945 7.50224 0
M  V30 7798 C 774.755 -0.406376 7.57911 0
M  V30 7799 O 774.545 0.0897726 6.21935 0
M  V30 7800 C 773.355 -0.438983 8.18724 0
M  V30 7801 O 772.965 0.825065 8.71101 0
M  V30 7802 C 772.475 -0.783689 6.99524 0
M  V30 7803 C 773.185 -0.0619086 5.85867 0
M  V30 7804 N 773.135 -0.78573 4.56183 0
M  V30 7805 C 772.985 -0.0292889 3.41887 0
M  V30 7806 O 772.895 1.18445 3.4419 0
M  V30 7807 N 772.945 -0.744061 2.23964 0
M  V30 7808 C 773.035 -2.10932 2.10362 0
M  V30 7809 C 773.185 -2.8202 3.34994 0
M  V30 7810 C 773.235 -2.15547 4.52261 0
M  V30 7811 H 775.976 -1.93379 8.46595 0
M  V30 7812 H 776.245 -1.68132 6.70852 0
M  V30 7813 H 775.378 0.289041 8.15388 0
M  V30 7814 H 772.723 0.926847 5.72749 0
M  V30 7815 H 772.444 -1.86973 6.82036 0
M  V30 7816 H 771.452 -0.403896 7.13257 0
M  V30 7817 H 773.286 -1.20585 8.97435 0
M  V30 7818 H 773.357 -2.71231 5.45042 0
M  V30 7819 P 771.415 1.17771 8.83182 0
M  V30 7820 O 771.195 2.07206 9.98732 0
M  V30 7821 O 770.625 -0.0743816 8.81969 0
M  V30 7822 O 771.165 1.97652 7.47304 0
M  V30 7823 C 772.105 3.01133 7.08783 0
M  V30 7824 C 771.375 4.12613 6.37049 0
M  V30 7825 O 771.165 3.72827 4.97879 0
M  V30 7826 C 769.975 4.45085 6.88694 0
M  V30 7827 O 769.585 5.7877 6.5624 0
M  V30 7828 C 769.095 3.47817 6.12078 0
M  V30 7829 C 769.805 3.39414 4.77697 0
M  V30 7830 N 769.755 2.04615 4.15333 0
M  V30 7831 H 772.594 3.41248 7.98759 0
M  V30 7832 H 772.866 2.5837 6.41742 0
M  V30 7833 H 771.998 5.02657 6.42673 0
M  V30 7834 P 768.035 6.144 6.45285 0
M  V30 7835 O 767.815 7.54673 6.86199 0
M  V30 7836 O 767.245 5.12391 7.179 0
M  V30 7837 O 767.785 5.99158 4.88404 0
M  V30 7838 C 768.725 6.60234 3.96415 0
M  V30 7839 C 767.995 7.08259 2.72856 0
M  V30 7840 O 767.785 5.9427 1.83651 0
M  V30 7841 C 766.595 7.64886 2.9555 0
M  V30 7842 O 766.205 8.53963 1.90717 0
M  V30 7843 C 765.715 6.4116 2.90739 0
M  V30 7844 C 766.425 5.55375 1.86963 0
M  V30 7845 N 766.375 4.09448 2.16152 0
M  V30 7846 H 769.214 7.45574 4.45629 0
M  V30 7847 H 769.486 5.85864 3.679 0
M  V30 7848 H 768.618 7.84412 2.24479 0
M  V30 7849 H 765.963 5.73457 0.888562 0
M  V30 7850 H 765.683 5.90877 3.88583 0
M  V30 7851 H 764.692 6.6596 2.58858 0
M  V30 7852 H 766.526 8.16339 3.92049 0
M  V30 7853 P 764.656 8.7635 1.60911 0
M  V30 7854 O 764.436 10.1388 1.11561 0
M  V30 7855 O 763.866 8.36503 2.79617 0
M  V30 7856 O 764.406 7.71806 0.42951 0
M  V30 7857 C 765.346 7.67148 -0.673689 0
M  V30 7858 C 764.616 7.33374 -1.95559 0
M  V30 7859 O 764.406 5.88721 -2.00726 0
M  V30 7860 C 763.216 7.92526 -2.10483 0
M  V30 7861 O 762.826 8.02971 -3.47653 0
M  V30 7862 C 762.336 6.89602 -1.41652 0
M  V30 7863 C 763.046 5.59201 -1.75185 0
M  V30 7864 N 762.996 4.58235 -0.662552 0
M  V30 7865 H 765.835 8.65116 -0.777161 0
M  V30 7866 H 766.107 6.90173 -0.474152 0
M  V30 7867 H 765.239 7.66548 -2.79458 0
M  V30 7868 P 761.276 8.03563 -3.84925 0
M  V30 7869 O 761.056 8.85821 -5.0569 0
M  V30 7870 O 760.486 8.41101 -2.65469 0
M  V30 7871 O 761.026 6.4965 -4.18908 0
M  V30 7872 C 761.966 5.81037 -5.05421 0
M  V30 7873 C 761.236 4.78366 -5.89277 0
M  V30 7874 O 761.026 3.58302 -5.08433 0
M  V30 7875 C 759.836 5.17448 -6.36119 0
M  V30 7876 O 759.446 4.45271 -7.53232 0
M  V30 7877 C 758.956 4.74639 -5.19936 0
M  V30 7878 C 759.666 3.49432 -4.70418 0
M  V30 7879 N 759.616 3.32099 -3.22613 0
M  V30 7880 H 762.455 6.54213 -5.71376 0
M  V30 7881 H 762.727 5.30936 -4.43503 0
M  V30 7882 H 761.859 4.55889 -6.76652 0
M  V30 7883 H 759.204 2.61715 -5.17932 0
M  V30 7884 H 758.924 5.52155 -4.41878 0
M  V30 7885 H 757.933 4.51981 -5.53374 0
M  V30 7886 H 759.767 6.25124 -6.55234 0
M  V30 7887 P 757.896 4.23843 -7.83734 0
M  V30 7888 O 757.676 4.19407 -9.29784 0
M  V30 7889 O 757.106 5.24426 -7.09156 0
M  V30 7890 O 757.646 2.7935 -7.20758 0
M  V30 7891 C 758.586 1.7299 -7.50419 0
M  V30 7892 C 757.856 0.406376 -7.57911 0
M  V30 7893 O 757.646 -0.0897726 -6.21935 0
M  V30 7894 C 756.456 0.447224 -8.1878 0
M  V30 7895 O 756.066 -0.825065 -8.71101 0
M  V30 7896 C 755.576 0.783801 -6.99623 0
M  V30 7897 C 756.286 0.0619192 -5.85967 0
M  V30 7898 N 756.236 0.7859 -4.56281 0
M  V30 7899 H 759.075 1.93423 -8.4679 0
M  V30 7900 H 759.347 1.68181 -6.71046 0
M  V30 7901 H 758.479 -0.289041 -8.15388 0
M  V30 7902 P 754.516 -1.17771 -8.83182 0
M  V30 7903 O 754.296 -2.07206 -9.98732 0
M  V30 7904 O 753.726 0.0743816 -8.81969 0
M  V30 7905 O 754.266 -1.97652 -7.47304 0
M  V30 7906 C 755.206 -3.01055 -7.08599 0
M  V30 7907 C 754.476 -4.12613 -6.37049 0
M  V30 7908 O 754.266 -3.72827 -4.97879 0
M  V30 7909 C 753.076 -4.45719 -6.88164 0
M  V30 7910 O 752.686 -5.7877 -6.5624 0
M  V30 7911 C 752.196 -3.47768 -6.11991 0
M  V30 7912 C 752.906 -3.39356 -4.77615 0
M  V30 7913 N 752.856 -2.04571 -4.15244 0
M  V30 7914 C 752.706 -1.98587 -2.78314 0
M  V30 7915 O 752.616 -2.98134 -2.08835 0
M  V30 7916 N 752.666 -0.714467 -2.24925 0
M  V30 7917 C 752.756 0.470001 -2.94169 0
M  V30 7918 O 752.706 1.55587 -2.35195 0
M  V30 7919 C 752.906 0.312541 -4.36783 0
M  V30 7920 C 753.016 1.57711 -5.16352 0
M  V30 7921 C 752.956 -0.914512 -4.92583 0
M  V30 7922 H 755.697 -3.41169 -7.98575 0
M  V30 7923 H 755.966 -2.58295 -6.41556 0
M  V30 7924 H 755.099 -5.02657 -6.42673 0
M  V30 7925 H 752.444 -4.11637 -4.08885 0
M  V30 7926 H 752.165 -2.49626 -6.61679 0
M  V30 7927 H 751.173 -3.86566 -6.00778 0
M  V30 7928 H 753.007 -4.29943 -7.96918 0
M  V30 7929 H 753.078 -1.00937 -6.00374 0
M  V30 7930 H 752.048 1.80153 -5.63503 0
M  V30 7931 H 753.785 1.4566 -5.94104 0
M  V30 7932 H 753.297 2.40664 -4.49645 0
M  V30 7933 H 752.561 -0.647622 -1.25697 0
M  V30 7934 P 751.136 -6.144 -6.45285 0
M  V30 7935 O 750.916 -7.54673 -6.86199 0
M  V30 7936 O 750.346 -5.12391 -7.179 0
M  V30 7937 O 750.886 -5.99158 -4.88404 0
M  V30 7938 C 751.826 -6.60234 -3.96415 0
M  V30 7939 C 751.096 -7.08259 -2.72856 0
M  V30 7940 O 750.886 -5.9427 -1.83651 0
M  V30 7941 C 749.696 -7.64886 -2.9555 0
M  V30 7942 O 749.306 -8.53963 -1.90717 0
M  V30 7943 C 748.816 -6.4116 -2.90739 0
M  V30 7944 C 749.526 -5.55375 -1.86963 0
M  V30 7945 N 749.476 -4.09664 -2.15742 0
M  V30 7946 H 752.315 -7.45574 -4.45629 0
M  V30 7947 H 752.587 -5.86232 -3.67314 0
M  V30 7948 H 751.719 -7.84412 -2.24479 0
M  V30 7949 P 747.756 -8.7635 -1.60911 0
M  V30 7950 O 747.536 -10.1388 -1.11561 0
M  V30 7951 O 746.966 -8.36503 -2.79617 0
M  V30 7952 O 747.506 -7.71806 -0.42951 0
M  V30 7953 C 748.446 -7.67148 0.673689 0
M  V30 7954 C 747.716 -7.33374 1.95559 0
M  V30 7955 O 747.506 -5.88721 2.00726 0
M  V30 7956 C 746.316 -7.92526 2.10483 0
M  V30 7957 O 745.926 -8.02971 3.47653 0
M  V30 7958 C 745.436 -6.89602 1.41652 0
M  V30 7959 C 746.146 -5.59201 1.75185 0
M  V30 7960 N 746.096 -4.58235 0.662552 0
M  V30 7961 H 748.935 -8.65116 0.777161 0
M  V30 7962 H 749.207 -6.90173 0.474152 0
M  V30 7963 H 748.339 -7.66548 2.79458 0
M  V30 7964 P 744.376 -8.03563 3.84925 0
M  V30 7965 O 744.156 -8.85821 5.0569 0
M  V30 7966 O 743.586 -8.41101 2.65469 0
M  V30 7967 O 744.126 -6.4965 4.18908 0
M  V30 7968 C 745.066 -5.80886 5.05289 0
M  V30 7969 C 744.336 -4.78366 5.89277 0
M  V30 7970 O 744.126 -3.58302 5.08433 0
M  V30 7971 C 742.936 -5.16748 6.36559 0
M  V30 7972 O 742.546 -4.45271 7.53232 0
M  V30 7973 C 742.056 -4.74572 5.19863 0
M  V30 7974 C 742.766 -3.49373 4.70338 0
M  V30 7975 N 742.716 -3.31704 3.22876 0
M  V30 7976 C 742.566 -2.03326 2.74871 0
M  V30 7977 O 742.476 -1.06486 3.48076 0
M  V30 7978 N 742.526 -1.91838 1.37456 0
M  V30 7979 C 742.616 -2.94295 0.462035 0
M  V30 7980 O 742.566 -2.71763 -0.752928 0
M  V30 7981 C 742.766 -4.25064 1.05249 0
M  V30 7982 C 742.876 -5.39815 0.095697 0
M  V30 7983 C 742.816 -4.40214 2.39192 0
M  V30 7984 H 745.557 -6.54063 5.71245 0
M  V30 7985 H 745.826 -5.30339 4.43905 0
M  V30 7986 H 744.959 -4.55889 6.76652 0
M  V30 7987 H 742.304 -2.6167 5.17842 0
M  V30 7988 H 742.025 -5.52155 4.41878 0
M  V30 7989 H 741.033 -4.51918 5.53297 0
M  V30 7990 H 742.867 -6.25055 6.55162 0
M  V30 7991 H 742.938 -5.39798 2.81523 0
M  V30 7992 H 741.908 -5.91593 0.0279582 0
M  V30 7993 H 743.645 -6.10038 0.450573 0
M  V30 7994 H 743.157 -5.02007 -0.89937 0
M  V30 7995 H 742.421 -0.995326 1.00435 0
M  V30 7996 P 740.996 -4.23843 7.83734 0
M  V30 7997 O 740.776 -4.19407 9.29784 0
M  V30 7998 O 740.206 -5.24426 7.09156 0
M  V30 7999 O 740.746 -2.7935 7.20758 0
M  V30 8000 C 741.686 -1.72945 7.50224 0
M  V30 8001 C 740.956 -0.406376 7.57911 0
M  V30 8002 O 740.746 0.0897726 6.21935 0
M  V30 8003 C 739.556 -0.438983 8.18724 0
M  V30 8004 O 739.166 0.825065 8.71101 0
M  V30 8005 C 738.676 -0.783689 6.99524 0
M  V30 8006 C 739.386 -0.0619086 5.85867 0
M  V30 8007 N 739.336 -0.78573 4.56183 0
M  V30 8008 C 739.186 -0.0292889 3.41887 0
M  V30 8009 O 739.096 1.18445 3.4419 0
M  V30 8010 N 739.146 -0.744061 2.23964 0
M  V30 8011 C 739.236 -2.10932 2.10362 0
M  V30 8012 C 739.386 -2.8202 3.34994 0
M  V30 8013 C 739.436 -2.15547 4.52261 0
M  V30 8014 H 742.177 -1.93379 8.46595 0
M  V30 8015 H 742.446 -1.68132 6.70852 0
M  V30 8016 H 741.579 0.289041 8.15388 0
M  V30 8017 H 738.924 0.926847 5.72749 0
M  V30 8018 H 738.645 -1.86973 6.82036 0
M  V30 8019 H 737.653 -0.403896 7.13257 0
M  V30 8020 H 739.487 -1.20585 8.97435 0
M  V30 8021 H 739.558 -2.71231 5.45042 0
M  V30 8022 P 737.616 1.17771 8.83182 0
M  V30 8023 O 737.396 2.07206 9.98732 0
M  V30 8024 O 736.826 -0.0743816 8.81969 0
M  V30 8025 O 737.366 1.97652 7.47304 0
M  V30 8026 C 738.306 3.01133 7.08783 0
M  V30 8027 C 737.576 4.12613 6.37049 0
M  V30 8028 O 737.366 3.72827 4.97879 0
M  V30 8029 C 736.176 4.45085 6.88694 0
M  V30 8030 O 735.786 5.7877 6.5624 0
M  V30 8031 C 735.296 3.47817 6.12078 0
M  V30 8032 C 736.006 3.39414 4.77697 0
M  V30 8033 N 735.956 2.04615 4.15333 0
M  V30 8034 H 738.795 3.41248 7.98759 0
M  V30 8035 H 739.067 2.5837 6.41742 0
M  V30 8036 H 738.199 5.02657 6.42673 0
M  V30 8037 P 734.236 6.144 6.45285 0
M  V30 8038 O 734.016 7.54673 6.86199 0
M  V30 8039 O 733.446 5.12391 7.179 0
M  V30 8040 O 733.986 5.99158 4.88404 0
M  V30 8041 C 734.926 6.60234 3.96415 0
M  V30 8042 C 734.196 7.08259 2.72856 0
M  V30 8043 O 733.986 5.9427 1.83651 0
M  V30 8044 C 732.796 7.64886 2.9555 0
M  V30 8045 O 732.406 8.53963 1.90717 0
M  V30 8046 C 731.916 6.4116 2.90739 0
M  V30 8047 C 732.626 5.55375 1.86963 0
M  V30 8048 N 732.576 4.09448 2.16152 0
M  V30 8049 C 732.656 3.46824 3.37593 0
M  V30 8050 N 732.586 2.17422 3.29777 0
M  V30 8051 C 732.436 1.93065 1.94427 0
M  V30 8052 C 732.306 0.738053 1.20141 0
M  V30 8053 N 732.296 -0.474256 1.74676 0
M  V30 8054 N 732.186 0.850049 -0.13045 0
M  V30 8055 C 732.196 2.06169 -0.676992 0
M  V30 8056 N 732.316 3.23842 -0.101312 0
M  V30 8057 C 732.436 3.09402 1.23122 0
M  V30 8058 H 735.415 7.45574 4.45629 0
M  V30 8059 H 735.687 5.85864 3.679 0
M  V30 8060 H 734.819 7.84412 2.24479 0
M  V30 8061 H 732.164 5.73457 0.888562 0
M  V30 8062 H 731.884 5.90877 3.88583 0
M  V30 8063 H 730.893 6.6596 2.58858 0
M  V30 8064 H 732.727 8.16339 3.92049 0
M  V30 8065 H 732.768 4.00505 4.3174 0
M  V30 8066 H 732.387 -0.581337 2.76658 0
M  V30 8067 H 732.198 -1.30811 1.14888 0
M  V30 8068 H 732.09 2.08295 -1.75542 0
M  V30 8069 P 730.856 8.7635 1.60911 0
M  V30 8070 O 730.636 10.1388 1.11561 0
M  V30 8071 O 730.066 8.36503 2.79617 0
M  V30 8072 O 730.606 7.71806 0.42951 0
M  V30 8073 C 731.546 7.67148 -0.673689 0
M  V30 8074 C 730.816 7.33374 -1.95559 0
M  V30 8075 O 730.606 5.88721 -2.00726 0
M  V30 8076 C 729.416 7.92526 -2.10483 0
M  V30 8077 O 729.026 8.02971 -3.47653 0
M  V30 8078 C 728.536 6.89602 -1.41652 0
M  V30 8079 C 729.246 5.59201 -1.75185 0
M  V30 8080 N 729.196 4.58235 -0.662552 0
M  V30 8081 H 732.035 8.65116 -0.777161 0
M  V30 8082 H 732.307 6.90173 -0.474152 0
M  V30 8083 H 731.439 7.66548 -2.79458 0
M  V30 8084 P 727.476 8.03563 -3.84925 0
M  V30 8085 O 727.256 8.85821 -5.0569 0
M  V30 8086 O 726.686 8.41101 -2.65469 0
M  V30 8087 O 727.226 6.4965 -4.18908 0
M  V30 8088 C 728.166 5.81037 -5.05421 0
M  V30 8089 C 727.436 4.78366 -5.89277 0
M  V30 8090 O 727.226 3.58302 -5.08433 0
M  V30 8091 C 726.036 5.17448 -6.36119 0
M  V30 8092 O 725.646 4.45271 -7.53232 0
M  V30 8093 C 725.156 4.74639 -5.19936 0
M  V30 8094 C 725.866 3.49432 -4.70418 0
M  V30 8095 N 725.816 3.31776 -3.22945 0
M  V30 8096 H 728.655 6.54213 -5.71376 0
M  V30 8097 H 728.927 5.30492 -4.44033 0
M  V30 8098 H 728.059 4.55889 -6.76652 0
M  V30 8099 P 724.096 4.23843 -7.83734 0
M  V30 8100 O 723.876 4.19407 -9.29784 0
M  V30 8101 O 723.306 5.24426 -7.09156 0
M  V30 8102 O 723.846 2.7935 -7.20758 0
M  V30 8103 C 724.786 1.72945 -7.50224 0
M  V30 8104 C 724.056 0.406376 -7.57911 0
M  V30 8105 O 723.846 -0.0897726 -6.21935 0
M  V30 8106 C 722.656 0.438983 -8.18724 0
M  V30 8107 O 722.266 -0.825065 -8.71101 0
M  V30 8108 C 721.776 0.783689 -6.99524 0
M  V30 8109 C 722.486 0.0619086 -5.85867 0
M  V30 8110 N 722.436 0.78573 -4.56183 0
M  V30 8111 C 722.286 0.0292889 -3.41887 0
M  V30 8112 O 722.196 -1.18445 -3.4419 0
M  V30 8113 N 722.246 0.744061 -2.23964 0
M  V30 8114 C 722.336 2.10932 -2.10362 0
M  V30 8115 O 722.286 2.64117 -0.98825 0
M  V30 8116 C 722.486 2.8202 -3.34994 0
M  V30 8117 C 722.596 4.31095 -3.25037 0
M  V30 8118 C 722.536 2.15547 -4.52261 0
M  V30 8119 H 725.277 1.93379 -8.46595 0
M  V30 8120 H 725.546 1.68132 -6.70852 0
M  V30 8121 H 724.679 -0.289041 -8.15388 0
M  V30 8122 H 722.024 -0.926847 -5.72749 0
M  V30 8123 H 721.745 1.86973 -6.82036 0
M  V30 8124 H 720.753 0.403896 -7.13257 0
M  V30 8125 H 722.587 1.20585 -8.97435 0
M  V30 8126 H 722.658 2.71231 -5.45042 0
M  V30 8127 H 721.628 4.76966 -3.49992 0
M  V30 8128 H 723.365 4.67047 -3.95024 0
M  V30 8129 H 722.877 4.58996 -2.22312 0
M  V30 8130 H 722.141 0.214893 -1.39758 0
M  V30 8131 P 720.716 -1.17771 -8.83182 0
M  V30 8132 O 720.496 -2.07206 -9.98732 0
M  V30 8133 O 719.926 0.0743816 -8.81969 0
M  V30 8134 O 720.466 -1.97652 -7.47304 0
M  V30 8135 C 721.406 -3.01133 -7.08783 0
M  V30 8136 C 720.676 -4.12613 -6.37049 0
M  V30 8137 O 720.466 -3.72827 -4.97879 0
M  V30 8138 C 719.276 -4.45085 -6.88694 0
M  V30 8139 O 718.886 -5.7877 -6.5624 0
M  V30 8140 C 718.396 -3.47817 -6.12078 0
M  V30 8141 C 719.106 -3.39414 -4.77697 0
M  V30 8142 N 719.056 -2.04615 -4.15333 0
M  V30 8143 H 721.895 -3.41248 -7.98759 0
M  V30 8144 H 722.167 -2.5837 -6.41742 0
M  V30 8145 H 721.299 -5.02657 -6.42673 0
M  V30 8146 P 717.336 -6.144 -6.45285 0
M  V30 8147 O 717.116 -7.54673 -6.86199 0
M  V30 8148 O 716.546 -5.12391 -7.179 0
M  V30 8149 O 717.086 -5.99158 -4.88404 0
M  V30 8150 C 718.026 -6.60234 -3.96415 0
M  V30 8151 C 717.296 -7.08259 -2.72856 0
M  V30 8152 O 717.086 -5.9427 -1.83651 0
M  V30 8153 C 715.896 -7.64886 -2.9555 0
M  V30 8154 O 715.506 -8.53963 -1.90717 0
M  V30 8155 C 715.016 -6.4116 -2.90739 0
M  V30 8156 C 715.726 -5.55375 -1.86963 0
M  V30 8157 N 715.676 -4.09664 -2.15742 0
M  V30 8158 H 718.515 -7.45574 -4.45629 0
M  V30 8159 H 718.787 -5.86232 -3.67314 0
M  V30 8160 H 717.919 -7.84412 -2.24479 0
M  V30 8161 P 713.956 -8.7635 -1.60911 0
M  V30 8162 O 713.736 -10.1388 -1.11561 0
M  V30 8163 O 713.166 -8.36503 -2.79617 0
M  V30 8164 O 713.706 -7.71806 -0.42951 0
M  V30 8165 C 714.646 -7.67148 0.673689 0
M  V30 8166 C 713.916 -7.33374 1.95559 0
M  V30 8167 O 713.706 -5.88721 2.00726 0
M  V30 8168 C 712.516 -7.92526 2.10483 0
M  V30 8169 O 712.126 -8.02971 3.47653 0
M  V30 8170 C 711.636 -6.89602 1.41652 0
M  V30 8171 C 712.346 -5.59201 1.75185 0
M  V30 8172 N 712.296 -4.58235 0.662552 0
M  V30 8173 H 715.135 -8.65116 0.777161 0
M  V30 8174 H 715.407 -6.90173 0.474152 0
M  V30 8175 H 714.539 -7.66548 2.79458 0
M  V30 8176 P 710.576 -8.03563 3.84925 0
M  V30 8177 O 710.356 -8.85821 5.0569 0
M  V30 8178 O 709.786 -8.41101 2.65469 0
M  V30 8179 O 710.326 -6.4965 4.18908 0
M  V30 8180 C 711.266 -5.81037 5.05421 0
M  V30 8181 C 710.536 -4.78366 5.89277 0
M  V30 8182 O 710.326 -3.58302 5.08433 0
M  V30 8183 C 709.136 -5.17448 6.36119 0
M  V30 8184 O 708.746 -4.45271 7.53232 0
M  V30 8185 C 708.256 -4.74639 5.19936 0
M  V30 8186 C 708.966 -3.49432 4.70418 0
M  V30 8187 N 708.916 -3.31776 3.22945 0
M  V30 8188 H 711.755 -6.54213 5.71376 0
M  V30 8189 H 712.027 -5.30492 4.44033 0
M  V30 8190 H 711.159 -4.55889 6.76652 0
M  V30 8191 P 707.196 -4.23843 7.83734 0
M  V30 8192 O 706.976 -4.19407 9.29784 0
M  V30 8193 O 706.406 -5.24426 7.09156 0
M  V30 8194 O 706.946 -2.7935 7.20758 0
M  V30 8195 C 707.886 -1.7299 7.50419 0
M  V30 8196 C 707.156 -0.406376 7.57911 0
M  V30 8197 O 706.946 0.0897726 6.21935 0
M  V30 8198 C 705.756 -0.447224 8.1878 0
M  V30 8199 O 705.366 0.825065 8.71101 0
M  V30 8200 C 704.876 -0.783801 6.99623 0
M  V30 8201 C 705.586 -0.0619192 5.85967 0
M  V30 8202 N 705.536 -0.7859 4.56281 0
M  V30 8203 H 708.375 -1.93423 8.4679 0
M  V30 8204 H 708.647 -1.68181 6.71046 0
M  V30 8205 H 707.779 0.289041 8.15388 0
M  V30 8206 P 703.816 1.17771 8.83182 0
M  V30 8207 O 703.596 2.07206 9.98732 0
M  V30 8208 O 703.026 -0.0743816 8.81969 0
M  V30 8209 O 703.566 1.97678 7.474 0
M  V30 8210 C 704.506 3.01133 7.08783 0
M  V30 8211 C 703.776 4.1203 6.37546 0
M  V30 8212 O 703.566 3.72887 4.9796 0
M  V30 8213 C 702.376 4.45085 6.88694 0
M  V30 8214 O 701.986 5.78836 6.56315 0
M  V30 8215 C 701.496 3.47817 6.12078 0
M  V30 8216 C 702.206 3.39414 4.77697 0
M  V30 8217 N 702.156 2.04615 4.15333 0
M  V30 8218 C 702.006 1.96929 2.77162 0
M  V30 8219 O 701.916 3.02017 2.12006 0
M  V30 8220 N 701.956 0.55485 2.24237 0
M  V30 8221 C 702.056 -0.367808 2.9169 0
M  V30 8222 N 702.006 -1.53426 2.29427 0
M  V30 8223 C 702.206 -0.319148 4.33828 0
M  V30 8224 C 702.256 0.920672 4.90433 0
M  V30 8225 H 704.996 3.41209 7.98667 0
M  V30 8226 H 705.266 2.5837 6.41742 0
M  V30 8227 H 704.399 5.02718 6.42752 0
M  V30 8228 H 701.744 4.11779 4.09026 0
M  V30 8229 H 701.464 2.49661 6.61772 0
M  V30 8230 H 700.473 3.86674 6.00946 0
M  V30 8231 H 702.307 4.29991 7.97006 0
M  V30 8232 H 702.379 1.00589 5.98303 0
M  V30 8233 H 702.277 -1.22639 4.93799 0
M  V30 8234 H 701.889 -1.56819 1.27167 0
M  V30 8235 H 702.085 -2.41062 2.83063 0
M  V30 8236 P 700.436 6.144 6.45285 0
M  V30 8237 O 700.216 7.54673 6.86199 0
M  V30 8238 O 699.646 5.12391 7.179 0
M  V30 8239 O 700.186 5.99158 4.88404 0
M  V30 8240 C 701.126 6.60234 3.96415 0
M  V30 8241 C 700.396 7.08259 2.72856 0
M  V30 8242 O 700.186 5.9427 1.83651 0
M  V30 8243 C 698.996 7.64886 2.9555 0
M  V30 8244 O 698.606 8.53963 1.90717 0
M  V30 8245 C 698.116 6.4116 2.90739 0
M  V30 8246 C 698.826 5.55375 1.86963 0
M  V30 8247 N 698.776 4.09664 2.15742 0
M  V30 8248 H 701.615 7.45574 4.45629 0
M  V30 8249 H 701.887 5.86232 3.67314 0
M  V30 8250 H 701.019 7.84412 2.24479 0
M  V30 8251 P 697.056 8.7635 1.60911 0
M  V30 8252 O 696.836 10.1388 1.11561 0
M  V30 8253 O 696.266 8.36503 2.79617 0
M  V30 8254 O 696.806 7.71806 0.42951 0
M  V30 8255 C 697.746 7.67148 -0.673689 0
M  V30 8256 C 697.016 7.33374 -1.95559 0
M  V30 8257 O 696.806 5.88721 -2.00726 0
M  V30 8258 C 695.616 7.92526 -2.10483 0
M  V30 8259 O 695.226 8.02971 -3.47653 0
M  V30 8260 C 694.736 6.89602 -1.41652 0
M  V30 8261 C 695.446 5.59201 -1.75185 0
M  V30 8262 N 695.396 4.58301 -0.657969 0
M  V30 8263 H 698.235 8.65116 -0.777161 0
M  V30 8264 H 698.507 6.9022 -0.46725 0
M  V30 8265 H 697.639 7.66548 -2.79458 0
M  V30 8266 H 694.984 5.16165 -2.65183 0
M  V30 8267 H 694.704 7.06433 -0.329384 0
M  V30 8268 H 693.713 6.90926 -1.82021 0
M  V30 8269 H 695.547 8.90873 -1.62657 0
M  V30 8270 P 693.676 8.03563 -3.84925 0
M  V30 8271 O 693.456 8.85821 -5.0569 0
M  V30 8272 O 692.886 8.41101 -2.65469 0
M  V30 8273 O 693.426 6.4965 -4.18908 0
M  V30 8274 C 694.366 5.80886 -5.05289 0
M  V30 8275 C 693.636 4.78366 -5.89277 0
M  V30 8276 O 693.426 3.58302 -5.08433 0
M  V30 8277 C 692.236 5.16748 -6.36559 0
M  V30 8278 O 691.846 4.45271 -7.53232 0
M  V30 8279 C 691.356 4.74572 -5.19863 0
M  V30 8280 C 692.066 3.49373 -4.70338 0
M  V30 8281 N 692.016 3.31704 -3.22876 0
M  V30 8282 C 691.866 2.03326 -2.74871 0
M  V30 8283 O 691.776 1.06486 -3.48076 0
M  V30 8284 N 691.826 1.91838 -1.37456 0
M  V30 8285 C 691.916 2.94295 -0.462035 0
M  V30 8286 O 691.866 2.71763 0.752928 0
M  V30 8287 C 692.066 4.25064 -1.05249 0
M  V30 8288 C 692.176 5.39815 -0.095697 0
M  V30 8289 C 692.116 4.40214 -2.39192 0
M  V30 8290 H 694.857 6.54063 -5.71245 0
M  V30 8291 H 695.126 5.30339 -4.43905 0
M  V30 8292 H 694.259 4.55889 -6.76652 0
M  V30 8293 H 691.604 2.6167 -5.17842 0
M  V30 8294 H 691.325 5.52155 -4.41878 0
M  V30 8295 H 690.333 4.51918 -5.53297 0
M  V30 8296 H 692.167 6.25055 -6.55162 0
M  V30 8297 H 692.238 5.39798 -2.81523 0
M  V30 8298 H 691.208 5.91593 -0.0279582 0
M  V30 8299 H 692.945 6.10038 -0.450573 0
M  V30 8300 H 692.457 5.02007 0.89937 0
M  V30 8301 H 691.721 0.995326 -1.00435 0
M  V30 8302 P 690.296 4.23843 -7.83734 0
M  V30 8303 O 690.076 4.19407 -9.29784 0
M  V30 8304 O 689.506 5.24426 -7.09156 0
M  V30 8305 O 690.046 2.7935 -7.20758 0
M  V30 8306 C 690.986 1.7299 -7.50419 0
M  V30 8307 C 690.256 0.406376 -7.57911 0
M  V30 8308 O 690.046 -0.0897726 -6.21935 0
M  V30 8309 C 688.856 0.447224 -8.1878 0
M  V30 8310 O 688.466 -0.825065 -8.71101 0
M  V30 8311 C 687.976 0.783801 -6.99623 0
M  V30 8312 C 688.686 0.0619192 -5.85967 0
M  V30 8313 N 688.636 0.7859 -4.56281 0
M  V30 8314 H 691.475 1.93423 -8.4679 0
M  V30 8315 H 691.747 1.68181 -6.71046 0
M  V30 8316 H 690.879 -0.289041 -8.15388 0
M  V30 8317 P 686.916 -1.17771 -8.83182 0
M  V30 8318 O 686.696 -2.07206 -9.98732 0
M  V30 8319 O 686.126 0.0743816 -8.81969 0
M  V30 8320 O 686.666 -1.97678 -7.474 0
M  V30 8321 C 687.606 -3.01133 -7.08783 0
M  V30 8322 C 686.876 -4.1203 -6.37546 0
M  V30 8323 O 686.666 -3.72887 -4.9796 0
M  V30 8324 C 685.476 -4.45085 -6.88694 0
M  V30 8325 O 685.086 -5.78836 -6.56315 0
M  V30 8326 C 684.596 -3.47817 -6.12078 0
M  V30 8327 C 685.306 -3.39414 -4.77697 0
M  V30 8328 N 685.256 -2.04615 -4.15333 0
M  V30 8329 C 685.106 -1.96929 -2.77162 0
M  V30 8330 O 685.016 -3.02017 -2.12006 0
M  V30 8331 N 685.056 -0.55485 -2.24237 0
M  V30 8332 C 685.156 0.367808 -2.9169 0
M  V30 8333 N 685.106 1.53426 -2.29427 0
M  V30 8334 C 685.306 0.319148 -4.33828 0
M  V30 8335 C 685.356 -0.920672 -4.90433 0
M  V30 8336 H 688.096 -3.41209 -7.98667 0
M  V30 8337 H 688.366 -2.5837 -6.41742 0
M  V30 8338 H 687.499 -5.02718 -6.42752 0
M  V30 8339 H 684.844 -4.11779 -4.09026 0
M  V30 8340 H 684.564 -2.49661 -6.61772 0
M  V30 8341 H 683.573 -3.86674 -6.00946 0
M  V30 8342 H 685.407 -4.29991 -7.97006 0
M  V30 8343 H 685.479 -1.00589 -5.98303 0
M  V30 8344 H 685.377 1.22639 -4.93799 0
M  V30 8345 H 684.989 1.56819 -1.27167 0
M  V30 8346 H 685.185 2.41062 -2.83063 0
M  V30 8347 P 683.536 -6.144 -6.45285 0
M  V30 8348 O 683.316 -7.54673 -6.86199 0
M  V30 8349 O 682.746 -5.12391 -7.179 0
M  V30 8350 O 683.286 -5.99158 -4.88404 0
M  V30 8351 C 684.226 -6.60234 -3.96415 0
M  V30 8352 C 683.496 -7.08259 -2.72856 0
M  V30 8353 O 683.286 -5.9427 -1.83651 0
M  V30 8354 C 682.096 -7.64886 -2.9555 0
M  V30 8355 O 681.706 -8.53963 -1.90717 0
M  V30 8356 C 681.216 -6.4116 -2.90739 0
M  V30 8357 C 681.926 -5.55375 -1.86963 0
M  V30 8358 N 681.876 -4.09448 -2.16152 0
M  V30 8359 H 684.715 -7.45574 -4.45629 0
M  V30 8360 H 684.987 -5.85864 -3.679 0
M  V30 8361 H 684.119 -7.84412 -2.24479 0
M  V30 8362 H 681.464 -5.73457 -0.888562 0
M  V30 8363 H 681.184 -5.90877 -3.88583 0
M  V30 8364 H 680.193 -6.6596 -2.58858 0
M  V30 8365 H 682.027 -8.16339 -3.92049 0
M  V30 8366 P 680.156 -8.7635 -1.60911 0
M  V30 8367 O 679.936 -10.1388 -1.11561 0
M  V30 8368 O 679.366 -8.36503 -2.79617 0
M  V30 8369 O 679.906 -7.71806 -0.42951 0
M  V30 8370 C 680.846 -7.67148 0.673689 0
M  V30 8371 C 680.116 -7.33374 1.95559 0
M  V30 8372 O 679.906 -5.88721 2.00726 0
M  V30 8373 C 678.716 -7.92526 2.10483 0
M  V30 8374 O 678.326 -8.02971 3.47653 0
M  V30 8375 C 677.836 -6.89602 1.41652 0
M  V30 8376 C 678.546 -5.59201 1.75185 0
M  V30 8377 N 678.496 -4.58235 0.662552 0
M  V30 8378 H 681.335 -8.65116 0.777161 0
M  V30 8379 H 681.607 -6.90173 0.474152 0
M  V30 8380 H 680.739 -7.66548 2.79458 0
M  V30 8381 P 676.776 -8.03563 3.84925 0
M  V30 8382 O 676.556 -8.85821 5.0569 0
M  V30 8383 O 675.986 -8.41101 2.65469 0
M  V30 8384 O 676.526 -6.4965 4.18908 0
M  V30 8385 C 677.466 -5.81037 5.05421 0
M  V30 8386 C 676.736 -4.78366 5.89277 0
M  V30 8387 O 676.526 -3.58302 5.08433 0
M  V30 8388 C 675.336 -5.17448 6.36119 0
M  V30 8389 O 674.946 -4.45271 7.53232 0
M  V30 8390 C 674.456 -4.74639 5.19936 0
M  V30 8391 C 675.166 -3.49432 4.70418 0
M  V30 8392 N 675.116 -3.32099 3.22613 0
M  V30 8393 H 677.955 -6.54213 5.71376 0
M  V30 8394 H 678.227 -5.30936 4.43503 0
M  V30 8395 H 677.359 -4.55889 6.76652 0
M  V30 8396 H 674.704 -2.61715 5.17932 0
M  V30 8397 H 674.424 -5.52155 4.41878 0
M  V30 8398 H 673.433 -4.51981 5.53374 0
M  V30 8399 H 675.267 -6.25124 6.55234 0
M  V30 8400 P 673.396 -4.23843 7.83734 0
M  V30 8401 O 673.176 -4.19407 9.29784 0
M  V30 8402 O 672.606 -5.24426 7.09156 0
M  V30 8403 O 673.146 -2.79386 7.20852 0
M  V30 8404 C 674.086 -1.7299 7.50419 0
M  V30 8405 C 673.356 -0.41401 7.5797 0
M  V30 8406 O 673.146 0.089787 6.22035 0
M  V30 8407 C 671.956 -0.447224 8.1878 0
M  V30 8408 O 671.566 0.825159 8.71201 0
M  V30 8409 C 671.076 -0.783801 6.99623 0
M  V30 8410 C 671.786 -0.0619192 5.85967 0
M  V30 8411 N 671.736 -0.7859 4.56281 0
M  V30 8412 C 671.586 -0.0359258 3.39981 0
M  V30 8413 O 671.496 1.19723 3.49038 0
M  V30 8414 N 671.536 -0.869151 2.14025 0
M  V30 8415 C 671.636 -2.01207 2.14363 0
M  V30 8416 N 671.586 -2.58978 0.954287 0
M  V30 8417 C 671.786 -2.80817 3.32215 0
M  V30 8418 C 671.836 -2.13785 4.50884 0
M  V30 8419 H 674.576 -1.93401 8.46693 0
M  V30 8420 H 674.846 -1.68181 6.71046 0
M  V30 8421 H 673.979 0.289076 8.15488 0
M  V30 8422 H 671.324 0.927166 5.72947 0
M  V30 8423 H 671.044 -1.87 6.82132 0
M  V30 8424 H 670.053 -0.404009 7.13457 0
M  V30 8425 H 671.887 -1.20599 8.97534 0
M  V30 8426 H 671.959 -2.70295 5.43162 0
M  V30 8427 H 671.857 -3.89465 3.27406 0
M  V30 8428 H 671.469 -2.01616 0.107046 0
M  V30 8429 H 671.665 -3.61403 0.873101 0
M  V30 8430 P 670.016 1.17771 8.83182 0
M  V30 8431 O 669.796 2.07206 9.98732 0
M  V30 8432 O 669.226 -0.0743816 8.81969 0
M  V30 8433 O 669.766 1.97652 7.47304 0
M  V30 8434 C 670.706 3.01133 7.08783 0
M  V30 8435 C 669.976 4.12613 6.37049 0
M  V30 8436 O 669.766 3.72827 4.97879 0
M  V30 8437 C 668.576 4.45085 6.88694 0
M  V30 8438 O 668.186 5.7877 6.5624 0
M  V30 8439 C 667.696 3.47817 6.12078 0
M  V30 8440 C 668.406 3.39414 4.77697 0
M  V30 8441 N 668.356 2.04615 4.15333 0
M  V30 8442 H 671.195 3.41248 7.98759 0
M  V30 8443 H 671.467 2.5837 6.41742 0
M  V30 8444 H 670.599 5.02657 6.42673 0
M  V30 8445 P 666.636 6.144 6.45285 0
M  V30 8446 O 666.416 7.54673 6.86199 0
M  V30 8447 O 665.846 5.12391 7.179 0
M  V30 8448 O 666.386 5.99236 4.88467 0
M  V30 8449 C 667.326 6.60234 3.96415 0
M  V30 8450 C 666.596 7.08079 2.736 0
M  V30 8451 O 666.386 5.94365 1.8368 0
M  V30 8452 C 665.196 7.64886 2.9555 0
M  V30 8453 O 664.806 8.5406 1.90739 0
M  V30 8454 C 664.316 6.4116 2.90739 0
M  V30 8455 C 665.026 5.55375 1.86963 0
M  V30 8456 N 664.976 4.09664 2.15742 0
M  V30 8457 C 664.826 3.22231 1.08477 0
M  V30 8458 O 664.736 3.68951 -0.0600489 0
M  V30 8459 N 664.776 1.76692 1.48799 0
M  V30 8460 C 664.876 1.41695 2.57602 0
M  V30 8461 N 664.826 0.107296 2.75791 0
M  V30 8462 C 665.026 2.29178 3.69733 0
M  V30 8463 C 665.076 3.62753 3.42653 0
M  V30 8464 H 667.816 7.45488 4.45578 0
M  V30 8465 H 668.086 5.86232 3.67314 0
M  V30 8466 H 667.219 7.84508 2.24507 0
M  V30 8467 H 664.564 5.73556 0.888715 0
M  V30 8468 H 664.284 5.9096 3.88638 0
M  V30 8469 H 663.293 6.66053 2.58894 0
M  V30 8470 H 665.127 8.16339 3.92049 0
M  V30 8471 H 665.199 4.33052 4.24913 0
M  V30 8472 H 665.097 1.9103 4.71577 0
M  V30 8473 H 664.709 -0.521221 1.95056 0
M  V30 8474 H 664.905 -0.286429 3.70695 0
M  V30 8475 P 663.256 8.7635 1.60911 0
M  V30 8476 O 663.036 10.1388 1.11561 0
M  V30 8477 O 662.466 8.36503 2.79617 0
M  V30 8478 O 663.006 7.71806 0.42951 0
M  V30 8479 C 663.946 7.67148 -0.673689 0
M  V30 8480 C 663.216 7.33374 -1.95559 0
M  V30 8481 O 663.006 5.88721 -2.00726 0
M  V30 8482 C 661.816 7.92526 -2.10483 0
M  V30 8483 O 661.426 8.02971 -3.47653 0
M  V30 8484 C 660.936 6.89602 -1.41652 0
M  V30 8485 C 661.646 5.59201 -1.75185 0
M  V30 8486 N 661.596 4.58235 -0.662552 0
M  V30 8487 H 664.435 8.65116 -0.777161 0
M  V30 8488 H 664.707 6.90173 -0.474152 0
M  V30 8489 H 663.839 7.66548 -2.79458 0
M  V30 8490 P 659.876 8.03563 -3.84925 0
M  V30 8491 O 659.656 8.85821 -5.0569 0
M  V30 8492 O 659.086 8.41101 -2.65469 0
M  V30 8493 O 659.626 6.4965 -4.18908 0
M  V30 8494 C 660.566 5.81037 -5.05421 0
M  V30 8495 C 659.836 4.78366 -5.89277 0
M  V30 8496 O 659.626 3.58302 -5.08433 0
M  V30 8497 C 658.436 5.17448 -6.36119 0
M  V30 8498 O 658.046 4.45271 -7.53232 0
M  V30 8499 C 657.556 4.74639 -5.19936 0
M  V30 8500 C 658.266 3.49432 -4.70418 0
M  V30 8501 N 658.216 3.31776 -3.22945 0
M  V30 8502 H 661.055 6.54213 -5.71376 0
M  V30 8503 H 661.327 5.30492 -4.44033 0
M  V30 8504 H 660.459 4.55889 -6.76652 0
M  V30 8505 P 656.496 4.23843 -7.83734 0
M  V30 8506 O 656.276 4.19407 -9.29784 0
M  V30 8507 O 655.706 5.24426 -7.09156 0
M  V30 8508 O 656.246 2.7935 -7.20758 0
M  V30 8509 C 657.186 1.7299 -7.50419 0
M  V30 8510 C 656.456 0.406376 -7.57911 0
M  V30 8511 O 656.246 -0.0897726 -6.21935 0
M  V30 8512 C 655.056 0.447224 -8.1878 0
M  V30 8513 O 654.666 -0.825065 -8.71101 0
M  V30 8514 C 654.176 0.783801 -6.99623 0
M  V30 8515 C 654.886 0.0619192 -5.85967 0
M  V30 8516 N 654.836 0.7859 -4.56281 0
M  V30 8517 H 657.675 1.93423 -8.4679 0
M  V30 8518 H 657.947 1.68181 -6.71046 0
M  V30 8519 H 657.079 -0.289041 -8.15388 0
M  V30 8520 P 653.116 -1.17771 -8.83182 0
M  V30 8521 O 652.896 -2.07206 -9.98732 0
M  V30 8522 O 652.326 0.0743816 -8.81969 0
M  V30 8523 O 652.866 -1.97652 -7.47304 0
M  V30 8524 C 653.806 -3.01133 -7.08783 0
M  V30 8525 C 653.076 -4.12613 -6.37049 0
M  V30 8526 O 652.866 -3.72827 -4.97879 0
M  V30 8527 C 651.676 -4.45085 -6.88694 0
M  V30 8528 O 651.286 -5.7877 -6.5624 0
M  V30 8529 C 650.796 -3.47817 -6.12078 0
M  V30 8530 C 651.506 -3.39414 -4.77697 0
M  V30 8531 N 651.456 -2.04615 -4.15333 0
M  V30 8532 H 654.295 -3.41248 -7.98759 0
M  V30 8533 H 654.567 -2.5837 -6.41742 0
M  V30 8534 H 653.699 -5.02657 -6.42673 0
M  V30 8535 P 649.736 -6.144 -6.45285 0
M  V30 8536 O 649.516 -7.54673 -6.86199 0
M  V30 8537 O 648.946 -5.12391 -7.179 0
M  V30 8538 O 649.486 -5.99158 -4.88404 0
M  V30 8539 C 650.426 -6.60234 -3.96415 0
M  V30 8540 C 649.696 -7.08259 -2.72856 0
M  V30 8541 O 649.486 -5.9427 -1.83651 0
M  V30 8542 C 648.296 -7.64886 -2.9555 0
M  V30 8543 O 647.906 -8.53963 -1.90717 0
M  V30 8544 C 647.416 -6.4116 -2.90739 0
M  V30 8545 C 648.126 -5.55375 -1.86963 0
M  V30 8546 N 648.076 -4.09448 -2.16152 0
M  V30 8547 H 650.915 -7.45574 -4.45629 0
M  V30 8548 H 651.187 -5.85864 -3.679 0
M  V30 8549 H 650.319 -7.84412 -2.24479 0
M  V30 8550 H 647.664 -5.73457 -0.888562 0
M  V30 8551 H 647.384 -5.90877 -3.88583 0
M  V30 8552 H 646.393 -6.6596 -2.58858 0
M  V30 8553 H 648.227 -8.16339 -3.92049 0
M  V30 8554 P 646.356 -8.7635 -1.60911 0
M  V30 8555 O 646.136 -10.1388 -1.11561 0
M  V30 8556 O 645.566 -8.36503 -2.79617 0
M  V30 8557 O 646.106 -7.71806 -0.42951 0
M  V30 8558 C 647.046 -7.67148 0.673689 0
M  V30 8559 C 646.316 -7.33374 1.95559 0
M  V30 8560 O 646.106 -5.88721 2.00726 0
M  V30 8561 C 644.916 -7.92526 2.10483 0
M  V30 8562 O 644.526 -8.02971 3.47653 0
M  V30 8563 C 644.036 -6.89602 1.41652 0
M  V30 8564 C 644.746 -5.59201 1.75185 0
M  V30 8565 N 644.696 -4.58235 0.662552 0
M  V30 8566 H 647.535 -8.65116 0.777161 0
M  V30 8567 H 647.807 -6.90173 0.474152 0
M  V30 8568 H 646.939 -7.66548 2.79458 0
M  V30 8569 P 642.976 -8.03563 3.84925 0
M  V30 8570 O 642.756 -8.85821 5.0569 0
M  V30 8571 O 642.186 -8.41101 2.65469 0
M  V30 8572 O 642.726 -6.4965 4.18908 0
M  V30 8573 C 643.666 -5.81037 5.05421 0
M  V30 8574 C 642.936 -4.78366 5.89277 0
M  V30 8575 O 642.726 -3.58302 5.08433 0
M  V30 8576 C 641.536 -5.17448 6.36119 0
M  V30 8577 O 641.146 -4.45271 7.53232 0
M  V30 8578 C 640.656 -4.74639 5.19936 0
M  V30 8579 C 641.366 -3.49432 4.70418 0
M  V30 8580 N 641.316 -3.31776 3.22945 0
M  V30 8581 H 644.155 -6.54213 5.71376 0
M  V30 8582 H 644.427 -5.30492 4.44033 0
M  V30 8583 H 643.559 -4.55889 6.76652 0
M  V30 8584 P 639.596 -4.23843 7.83734 0
M  V30 8585 O 639.376 -4.19407 9.29784 0
M  V30 8586 O 638.806 -5.24426 7.09156 0
M  V30 8587 O 639.346 -2.7935 7.20758 0
M  V30 8588 C 640.286 -1.7299 7.50419 0
M  V30 8589 C 639.556 -0.406376 7.57911 0
M  V30 8590 O 639.346 0.0897726 6.21935 0
M  V30 8591 C 638.156 -0.447224 8.1878 0
M  V30 8592 O 637.766 0.825065 8.71101 0
M  V30 8593 C 637.276 -0.783801 6.99623 0
M  V30 8594 C 637.986 -0.0619192 5.85967 0
M  V30 8595 N 637.936 -0.790462 4.56202 0
M  V30 8596 H 640.775 -1.93423 8.4679 0
M  V30 8597 H 641.047 -1.68852 6.70877 0
M  V30 8598 H 640.179 0.289041 8.15388 0
M  V30 8599 H 637.524 0.927006 5.72848 0
M  V30 8600 H 637.244 -1.86973 6.82036 0
M  V30 8601 H 636.253 -0.403953 7.13357 0
M  V30 8602 H 638.087 -1.20599 8.97534 0
M  V30 8603 P 636.216 1.17771 8.83182 0
M  V30 8604 O 635.996 2.07206 9.98732 0
M  V30 8605 O 635.426 -0.0743816 8.81969 0
M  V30 8606 O 635.966 1.97652 7.47304 0
M  V30 8607 C 636.906 3.01133 7.08783 0
M  V30 8608 C 636.176 4.12613 6.37049 0
M  V30 8609 O 635.966 3.72827 4.97879 0
M  V30 8610 C 634.776 4.45085 6.88694 0
M  V30 8611 O 634.386 5.7877 6.5624 0
M  V30 8612 C 633.896 3.47817 6.12078 0
M  V30 8613 C 634.606 3.39414 4.77697 0
M  V30 8614 N 634.556 2.04199 4.15538 0
M  V30 8615 C 634.636 0.821545 4.76977 0
M  V30 8616 N 634.566 -0.1794 3.94592 0
M  V30 8617 C 634.416 0.419121 2.70776 0
M  V30 8618 C 634.286 -0.109072 1.40577 0
M  V30 8619 N 634.276 -1.4104 1.1344 0
M  V30 8620 N 634.166 0.764381 0.39411 0
M  V30 8621 C 634.176 2.06587 0.664135 0
M  V30 8622 N 634.296 2.67948 1.82153 0
M  V30 8623 C 634.416 1.77942 2.8147 0
M  V30 8624 H 637.395 3.41248 7.98759 0
M  V30 8625 H 637.667 2.57728 6.42 0
M  V30 8626 H 636.799 5.02657 6.42673 0
M  V30 8627 H 634.144 4.11708 4.08956 0
M  V30 8628 H 633.864 2.49626 6.61679 0
M  V30 8629 H 632.873 3.8662 6.00862 0
M  V30 8630 H 634.707 4.29991 7.97006 0
M  V30 8631 H 634.748 0.702451 5.84696 0
M  V30 8632 H 634.367 -2.09647 1.89651 0
M  V30 8633 H 634.178 -1.73358 0.160575 0
M  V30 8634 H 634.07 2.71695 -0.195838 0
M  V30 8635 P 632.836 6.144 6.45285 0
M  V30 8636 O 632.616 7.54673 6.86199 0
M  V30 8637 O 632.046 5.12391 7.179 0
M  V30 8638 O 632.586 5.99158 4.88404 0
M  V30 8639 C 633.526 6.60234 3.96415 0
M  V30 8640 C 632.796 7.08259 2.72856 0
M  V30 8641 O 632.586 5.9427 1.83651 0
M  V30 8642 C 631.396 7.64886 2.9555 0
M  V30 8643 O 631.006 8.53963 1.90717 0
M  V30 8644 C 630.516 6.4116 2.90739 0
M  V30 8645 C 631.226 5.55375 1.86963 0
M  V30 8646 N 631.176 4.09448 2.16152 0
M  V30 8647 H 634.015 7.45574 4.45629 0
M  V30 8648 H 634.287 5.85864 3.679 0
M  V30 8649 H 633.419 7.84412 2.24479 0
M  V30 8650 H 630.764 5.73457 0.888562 0
M  V30 8651 H 630.484 5.90877 3.88583 0
M  V30 8652 H 629.493 6.6596 2.58858 0
M  V30 8653 H 631.327 8.16339 3.92049 0
M  V30 8654 P 629.456 8.7635 1.60911 0
M  V30 8655 O 629.236 10.1388 1.11561 0
M  V30 8656 O 628.666 8.36503 2.79617 0
M  V30 8657 O 629.206 7.71806 0.42951 0
M  V30 8658 C 630.146 7.67148 -0.673689 0
M  V30 8659 C 629.416 7.33374 -1.95559 0
M  V30 8660 O 629.206 5.88721 -2.00726 0
M  V30 8661 C 628.016 7.92526 -2.10483 0
M  V30 8662 O 627.626 8.02971 -3.47653 0
M  V30 8663 C 627.136 6.89602 -1.41652 0
M  V30 8664 C 627.846 5.59201 -1.75185 0
M  V30 8665 N 627.796 4.58235 -0.662552 0
M  V30 8666 H 630.635 8.65116 -0.777161 0
M  V30 8667 H 630.907 6.90173 -0.474152 0
M  V30 8668 H 630.039 7.66548 -2.79458 0
M  V30 8669 P 626.076 8.03563 -3.84925 0
M  V30 8670 O 625.856 8.85821 -5.0569 0
M  V30 8671 O 625.286 8.41101 -2.65469 0
M  V30 8672 O 625.826 6.4965 -4.18908 0
M  V30 8673 C 626.766 5.81037 -5.05421 0
M  V30 8674 C 626.036 4.78366 -5.89277 0
M  V30 8675 O 625.826 3.58302 -5.08433 0
M  V30 8676 C 624.636 5.17448 -6.36119 0
M  V30 8677 O 624.246 4.45271 -7.53232 0
M  V30 8678 C 623.756 4.74639 -5.19936 0
M  V30 8679 C 624.466 3.49432 -4.70418 0
M  V30 8680 N 624.416 3.31776 -3.22945 0
M  V30 8681 H 627.255 6.54213 -5.71376 0
M  V30 8682 H 627.527 5.30492 -4.44033 0
M  V30 8683 H 626.659 4.55889 -6.76652 0
M  V30 8684 P 622.696 4.23843 -7.83734 0
M  V30 8685 O 622.476 4.19407 -9.29784 0
M  V30 8686 O 621.906 5.24426 -7.09156 0
M  V30 8687 O 622.446 2.7935 -7.20758 0
M  V30 8688 C 623.386 1.7299 -7.50419 0
M  V30 8689 C 622.656 0.406376 -7.57911 0
M  V30 8690 O 622.446 -0.0897726 -6.21935 0
M  V30 8691 C 621.256 0.447224 -8.1878 0
M  V30 8692 O 620.866 -0.825065 -8.71101 0
M  V30 8693 C 620.376 0.783801 -6.99623 0
M  V30 8694 C 621.086 0.0619192 -5.85967 0
M  V30 8695 N 621.036 0.790462 -4.56202 0
M  V30 8696 H 623.875 1.93423 -8.4679 0
M  V30 8697 H 624.147 1.68852 -6.70877 0
M  V30 8698 H 623.279 -0.289041 -8.15388 0
M  V30 8699 H 620.624 -0.927006 -5.72848 0
M  V30 8700 H 620.344 1.86973 -6.82036 0
M  V30 8701 H 619.353 0.403953 -7.13357 0
M  V30 8702 H 621.187 1.20599 -8.97534 0
M  V30 8703 P 619.316 -1.17771 -8.83182 0
M  V30 8704 O 619.096 -2.07206 -9.98732 0
M  V30 8705 O 618.526 0.0743816 -8.81969 0
M  V30 8706 O 619.066 -1.97652 -7.47304 0
M  V30 8707 C 620.006 -3.01133 -7.08783 0
M  V30 8708 C 619.276 -4.12613 -6.37049 0
M  V30 8709 O 619.066 -3.72827 -4.97879 0
M  V30 8710 C 617.876 -4.45085 -6.88694 0
M  V30 8711 O 617.486 -5.7877 -6.5624 0
M  V30 8712 C 616.996 -3.47817 -6.12078 0
M  V30 8713 C 617.706 -3.39414 -4.77697 0
M  V30 8714 N 617.656 -2.04615 -4.15333 0
M  V30 8715 C 617.736 -0.803897 -4.75249 0
M  V30 8716 N 617.656 0.197615 -3.91502 0
M  V30 8717 C 617.516 -0.413002 -2.66823 0
M  V30 8718 C 617.386 0.157221 -1.38007 0
M  V30 8719 N 617.266 -0.833136 -0.390236 0
M  V30 8720 C 617.266 -2.19402 -0.623885 0
M  V30 8721 N 617.136 -2.97622 0.449677 0
M  V30 8722 N 617.396 -2.73005 -1.83601 0
M  V30 8723 C 617.516 -1.78786 -2.80935 0
M  V30 8724 H 620.495 -3.41248 -7.98759 0
M  V30 8725 H 620.767 -2.5837 -6.41742 0
M  V30 8726 H 619.899 -5.02657 -6.42673 0
M  V30 8727 P 615.936 -6.144 -6.45285 0
M  V30 8728 O 615.716 -7.54673 -6.86199 0
M  V30 8729 O 615.146 -5.12391 -7.179 0
M  V30 8730 O 615.686 -5.99158 -4.88404 0
M  V30 8731 C 616.626 -6.60234 -3.96415 0
M  V30 8732 C 615.896 -7.08259 -2.72856 0
M  V30 8733 O 615.686 -5.9427 -1.83651 0
M  V30 8734 C 614.496 -7.64886 -2.9555 0
M  V30 8735 O 614.106 -8.53963 -1.90717 0
M  V30 8736 C 613.616 -6.4116 -2.90739 0
M  V30 8737 C 614.326 -5.55375 -1.86963 0
M  V30 8738 N 614.276 -4.09664 -2.15742 0
M  V30 8739 H 617.115 -7.45574 -4.45629 0
M  V30 8740 H 617.387 -5.86232 -3.67314 0
M  V30 8741 H 616.519 -7.84412 -2.24479 0
M  V30 8742 P 612.556 -8.7635 -1.60911 0
M  V30 8743 O 612.336 -10.1388 -1.11561 0
M  V30 8744 O 611.766 -8.36503 -2.79617 0
M  V30 8745 O 612.306 -7.71806 -0.42951 0
M  V30 8746 C 613.246 -7.67148 0.673689 0
M  V30 8747 C 612.516 -7.33374 1.95559 0
M  V30 8748 O 612.306 -5.88721 2.00726 0
M  V30 8749 C 611.116 -7.92526 2.10483 0
M  V30 8750 O 610.726 -8.02971 3.47653 0
M  V30 8751 C 610.236 -6.89602 1.41652 0
M  V30 8752 C 610.946 -5.59201 1.75185 0
M  V30 8753 N 610.896 -4.58235 0.662552 0
M  V30 8754 H 613.735 -8.65116 0.777161 0
M  V30 8755 H 614.007 -6.90173 0.474152 0
M  V30 8756 H 613.139 -7.66548 2.79458 0
M  V30 8757 P 609.176 -8.03563 3.84925 0
M  V30 8758 O 608.956 -8.85821 5.0569 0
M  V30 8759 O 608.386 -8.41101 2.65469 0
M  V30 8760 O 608.926 -6.4965 4.18908 0
M  V30 8761 C 609.866 -5.81037 5.05421 0
M  V30 8762 C 609.136 -4.78366 5.89277 0
M  V30 8763 O 608.926 -3.58302 5.08433 0
M  V30 8764 C 607.736 -5.17448 6.36119 0
M  V30 8765 O 607.346 -4.45271 7.53232 0
M  V30 8766 C 606.856 -4.74639 5.19936 0
M  V30 8767 C 607.566 -3.49432 4.70418 0
M  V30 8768 N 607.516 -3.31776 3.22945 0
M  V30 8769 H 610.355 -6.54213 5.71376 0
M  V30 8770 H 610.627 -5.30492 4.44033 0
M  V30 8771 H 609.759 -4.55889 6.76652 0
M  V30 8772 P 605.796 -4.23843 7.83734 0
M  V30 8773 O 605.576 -4.19407 9.29784 0
M  V30 8774 O 605.006 -5.24426 7.09156 0
M  V30 8775 O 605.546 -2.7935 7.20758 0
M  V30 8776 C 606.486 -1.7299 7.50419 0
M  V30 8777 C 605.756 -0.406376 7.57911 0
M  V30 8778 O 605.546 0.0897726 6.21935 0
M  V30 8779 C 604.356 -0.447224 8.1878 0
M  V30 8780 O 603.966 0.825065 8.71101 0
M  V30 8781 C 603.476 -0.783801 6.99623 0
M  V30 8782 C 604.186 -0.0619192 5.85967 0
M  V30 8783 N 604.136 -0.7859 4.56281 0
M  V30 8784 H 606.975 -1.93423 8.4679 0
M  V30 8785 H 607.247 -1.68181 6.71046 0
M  V30 8786 H 606.379 0.289041 8.15388 0
M  V30 8787 P 602.416 1.17771 8.83182 0
M  V30 8788 O 602.196 2.07206 9.98732 0
M  V30 8789 O 601.626 -0.0743816 8.81969 0
M  V30 8790 O 602.166 1.97652 7.47304 0
M  V30 8791 C 603.106 3.01133 7.08783 0
M  V30 8792 C 602.376 4.12613 6.37049 0
M  V30 8793 O 602.166 3.72827 4.97879 0
M  V30 8794 C 600.976 4.45085 6.88694 0
M  V30 8795 O 600.586 5.7877 6.5624 0
M  V30 8796 C 600.096 3.47817 6.12078 0
M  V30 8797 C 600.806 3.39414 4.77697 0
M  V30 8798 N 600.756 2.04199 4.15538 0
M  V30 8799 H 603.595 3.41248 7.98759 0
M  V30 8800 H 603.867 2.57728 6.42 0
M  V30 8801 H 602.999 5.02657 6.42673 0
M  V30 8802 H 600.344 4.11708 4.08956 0
M  V30 8803 H 600.064 2.49626 6.61679 0
M  V30 8804 H 599.073 3.8662 6.00862 0
M  V30 8805 H 600.907 4.29991 7.97006 0
M  V30 8806 P 599.036 6.144 6.45285 0
M  V30 8807 O 598.816 7.54673 6.86199 0
M  V30 8808 O 598.246 5.12391 7.179 0
M  V30 8809 O 598.786 5.99158 4.88404 0
M  V30 8810 C 599.726 6.60234 3.96415 0
M  V30 8811 C 598.996 7.08259 2.72856 0
M  V30 8812 O 598.786 5.9427 1.83651 0
M  V30 8813 C 597.596 7.64886 2.9555 0
M  V30 8814 O 597.206 8.53963 1.90717 0
M  V30 8815 C 596.716 6.4116 2.90739 0
M  V30 8816 C 597.426 5.55375 1.86963 0
M  V30 8817 N 597.376 4.09664 2.15742 0
M  V30 8818 H 600.215 7.45574 4.45629 0
M  V30 8819 H 600.487 5.86232 3.67314 0
M  V30 8820 H 599.619 7.84412 2.24479 0
M  V30 8821 P 595.656 8.7635 1.60911 0
M  V30 8822 O 595.437 10.1388 1.11561 0
M  V30 8823 O 594.866 8.36503 2.79617 0
M  V30 8824 O 595.406 7.71806 0.42951 0
M  V30 8825 C 596.346 7.67148 -0.673689 0
M  V30 8826 C 595.616 7.33374 -1.95559 0
M  V30 8827 O 595.406 5.88721 -2.00726 0
M  V30 8828 C 594.216 7.92526 -2.10483 0
M  V30 8829 O 593.827 8.02971 -3.47653 0
M  V30 8830 C 593.337 6.89602 -1.41652 0
M  V30 8831 C 594.046 5.59201 -1.75185 0
M  V30 8832 N 593.996 4.58235 -0.662552 0
M  V30 8833 H 596.836 8.65116 -0.777161 0
M  V30 8834 H 597.107 6.90173 -0.474152 0
M  V30 8835 H 596.24 7.66548 -2.79458 0
M  V30 8836 P 592.277 8.03563 -3.84925 0
M  V30 8837 O 592.057 8.85821 -5.0569 0
M  V30 8838 O 591.487 8.41101 -2.65469 0
M  V30 8839 O 592.027 6.4965 -4.18908 0
M  V30 8840 C 592.967 5.81037 -5.05421 0
M  V30 8841 C 592.237 4.78366 -5.89277 0
M  V30 8842 O 592.027 3.58302 -5.08433 0
M  V30 8843 C 590.837 5.17448 -6.36119 0
M  V30 8844 O 590.447 4.45271 -7.53232 0
M  V30 8845 C 589.957 4.74639 -5.19936 0
M  V30 8846 C 590.667 3.49432 -4.70418 0
M  V30 8847 N 590.617 3.31776 -3.22945 0
M  V30 8848 H 593.456 6.54213 -5.71376 0
M  V30 8849 H 593.728 5.30492 -4.44033 0
M  V30 8850 H 592.86 4.55889 -6.76652 0
M  V30 8851 P 588.897 4.23843 -7.83734 0
M  V30 8852 O 588.677 4.19407 -9.29784 0
M  V30 8853 O 588.107 5.24426 -7.09156 0
M  V30 8854 O 588.647 2.7935 -7.20758 0
M  V30 8855 C 589.587 1.7299 -7.50419 0
M  V30 8856 C 588.857 0.406376 -7.57911 0
M  V30 8857 O 588.647 -0.0897726 -6.21935 0
M  V30 8858 C 587.457 0.447224 -8.1878 0
M  V30 8859 O 587.067 -0.825065 -8.71101 0
M  V30 8860 C 586.577 0.783801 -6.99623 0
M  V30 8861 C 587.287 0.0619192 -5.85967 0
M  V30 8862 N 587.237 0.7859 -4.56281 0
M  V30 8863 H 590.076 1.93423 -8.4679 0
M  V30 8864 H 590.348 1.68181 -6.71046 0
M  V30 8865 H 589.48 -0.289041 -8.15388 0
M  V30 8866 P 585.517 -1.17771 -8.83182 0
M  V30 8867 O 585.297 -2.07206 -9.98732 0
M  V30 8868 O 584.727 0.0743816 -8.81969 0
M  V30 8869 O 585.267 -1.97652 -7.47304 0
M  V30 8870 C 586.207 -3.01133 -7.08783 0
M  V30 8871 C 585.477 -4.12613 -6.37049 0
M  V30 8872 O 585.267 -3.72827 -4.97879 0
M  V30 8873 C 584.077 -4.45085 -6.88694 0
M  V30 8874 O 583.687 -5.7877 -6.5624 0
M  V30 8875 C 583.197 -3.47817 -6.12078 0
M  V30 8876 C 583.907 -3.39414 -4.77697 0
M  V30 8877 N 583.857 -2.04615 -4.15333 0
M  V30 8878 H 586.696 -3.41248 -7.98759 0
M  V30 8879 H 586.968 -2.5837 -6.41742 0
M  V30 8880 H 586.1 -5.02657 -6.42673 0
M  V30 8881 P 582.137 -6.144 -6.45285 0
M  V30 8882 O 581.917 -7.54673 -6.86199 0
M  V30 8883 O 581.347 -5.12391 -7.179 0
M  V30 8884 O 581.887 -5.99158 -4.88404 0
M  V30 8885 C 582.827 -6.60234 -3.96415 0
M  V30 8886 C 582.097 -7.08259 -2.72856 0
M  V30 8887 O 581.887 -5.9427 -1.83651 0
M  V30 8888 C 580.697 -7.64886 -2.9555 0
M  V30 8889 O 580.307 -8.53963 -1.90717 0
M  V30 8890 C 579.817 -6.4116 -2.90739 0
M  V30 8891 C 580.527 -5.55375 -1.86963 0
M  V30 8892 N 580.477 -4.09664 -2.15742 0
M  V30 8893 H 583.316 -7.45574 -4.45629 0
M  V30 8894 H 583.588 -5.86232 -3.67314 0
M  V30 8895 H 582.72 -7.84412 -2.24479 0
M  V30 8896 P 578.757 -8.7635 -1.60911 0
M  V30 8897 O 578.537 -10.1388 -1.11561 0
M  V30 8898 O 577.967 -8.36503 -2.79617 0
M  V30 8899 O 578.507 -7.71806 -0.42951 0
M  V30 8900 C 579.447 -7.66948 0.673514 0
M  V30 8901 C 578.717 -7.33374 1.95559 0
M  V30 8902 O 578.507 -5.88721 2.00726 0
M  V30 8903 C 577.317 -7.92218 2.1125 0
M  V30 8904 O 576.927 -8.02971 3.47653 0
M  V30 8905 C 576.437 -6.89504 1.41631 0
M  V30 8906 C 577.147 -5.59106 1.75155 0
M  V30 8907 N 577.097 -4.58136 0.662409 0
M  V30 8908 C 576.947 -3.26059 1.02863 0
M  V30 8909 O 576.857 -2.90743 2.19009 0
M  V30 8910 N 576.907 -2.35995 -0.0155585 0
M  V30 8911 C 576.997 -2.65248 -1.35603 0
M  V30 8912 C 577.147 -4.05747 -1.64698 0
M  V30 8913 C 577.197 -4.96734 -0.652411 0
M  V30 8914 H 579.938 -8.64917 0.776982 0
M  V30 8915 H 580.207 -6.89974 0.474015 0
M  V30 8916 H 579.34 -7.66548 2.79458 0
M  V30 8917 H 576.685 -5.16076 2.65138 0
M  V30 8918 H 576.406 -7.06433 0.329384 0
M  V30 8919 H 575.414 -6.90829 1.81996 0
M  V30 8920 H 577.248 -8.90774 1.62639 0
M  V30 8921 H 577.319 -6.02181 -0.895285 0
M  V30 8922 P 575.377 -8.03563 3.84925 0
M  V30 8923 O 575.157 -8.85821 5.0569 0
M  V30 8924 O 574.587 -8.41101 2.65469 0
M  V30 8925 O 575.127 -6.4965 4.18908 0
M  V30 8926 C 576.067 -5.81037 5.05421 0
M  V30 8927 C 575.337 -4.78366 5.89277 0
M  V30 8928 O 575.127 -3.58302 5.08433 0
M  V30 8929 C 573.937 -5.17448 6.36119 0
M  V30 8930 O 573.547 -4.45271 7.53232 0
M  V30 8931 C 573.057 -4.74639 5.19936 0
M  V30 8932 C 573.767 -3.49432 4.70418 0
M  V30 8933 N 573.717 -3.31776 3.22945 0
M  V30 8934 H 576.556 -6.54213 5.71376 0
M  V30 8935 H 576.828 -5.30492 4.44033 0
M  V30 8936 H 575.96 -4.55889 6.76652 0
M  V30 8937 P 571.997 -4.23843 7.83734 0
M  V30 8938 O 571.777 -4.19407 9.29784 0
M  V30 8939 O 571.207 -5.24426 7.09156 0
M  V30 8940 O 571.747 -2.7935 7.20758 0
M  V30 8941 C 572.687 -1.7299 7.50419 0
M  V30 8942 C 571.957 -0.406376 7.57911 0
M  V30 8943 O 571.747 0.0897726 6.21935 0
M  V30 8944 C 570.557 -0.447224 8.1878 0
M  V30 8945 O 570.167 0.825065 8.71101 0
M  V30 8946 C 569.677 -0.783801 6.99623 0
M  V30 8947 C 570.387 -0.0619192 5.85967 0
M  V30 8948 N 570.337 -0.7859 4.56281 0
M  V30 8949 H 573.176 -1.93423 8.4679 0
M  V30 8950 H 573.448 -1.68181 6.71046 0
M  V30 8951 H 572.58 0.289041 8.15388 0
M  V30 8952 P 568.617 1.17771 8.83182 0
M  V30 8953 O 568.397 2.07206 9.98732 0
M  V30 8954 O 567.827 -0.0743816 8.81969 0
M  V30 8955 O 568.367 1.97652 7.47304 0
M  V30 8956 C 569.307 3.01133 7.08783 0
M  V30 8957 C 568.577 4.12613 6.37049 0
M  V30 8958 O 568.367 3.72827 4.97879 0
M  V30 8959 C 567.177 4.45085 6.88694 0
M  V30 8960 O 566.787 5.7877 6.5624 0
M  V30 8961 C 566.297 3.47817 6.12078 0
M  V30 8962 C 567.007 3.39414 4.77697 0
M  V30 8963 N 566.957 2.04199 4.15538 0
M  V30 8964 H 569.796 3.41248 7.98759 0
M  V30 8965 H 570.068 2.57728 6.42 0
M  V30 8966 H 569.2 5.02657 6.42673 0
M  V30 8967 H 566.545 4.11708 4.08956 0
M  V30 8968 H 566.265 2.49626 6.61679 0
M  V30 8969 H 565.274 3.8662 6.00862 0
M  V30 8970 H 567.108 4.29991 7.97006 0
M  V30 8971 P 565.237 6.144 6.45285 0
M  V30 8972 O 565.017 7.54673 6.86199 0
M  V30 8973 O 564.447 5.12391 7.179 0
M  V30 8974 O 564.987 5.99158 4.88404 0
M  V30 8975 C 565.927 6.60234 3.96415 0
M  V30 8976 C 565.197 7.08259 2.72856 0
M  V30 8977 O 564.987 5.9427 1.83651 0
M  V30 8978 C 563.797 7.64886 2.9555 0
M  V30 8979 O 563.407 8.53963 1.90717 0
M  V30 8980 C 562.917 6.4116 2.90739 0
M  V30 8981 C 563.627 5.55375 1.86963 0
M  V30 8982 N 563.577 4.09664 2.15742 0
M  V30 8983 H 566.416 7.45574 4.45629 0
M  V30 8984 H 566.688 5.86232 3.67314 0
M  V30 8985 H 565.82 7.84412 2.24479 0
M  V30 8986 P 561.857 8.7635 1.60911 0
M  V30 8987 O 561.637 10.1388 1.11561 0
M  V30 8988 O 561.067 8.36503 2.79617 0
M  V30 8989 O 561.607 7.71806 0.42951 0
M  V30 8990 C 562.547 7.67148 -0.673689 0
M  V30 8991 C 561.817 7.33374 -1.95559 0
M  V30 8992 O 561.607 5.88721 -2.00726 0
M  V30 8993 C 560.417 7.92526 -2.10483 0
M  V30 8994 O 560.027 8.02971 -3.47653 0
M  V30 8995 C 559.537 6.89602 -1.41652 0
M  V30 8996 C 560.247 5.59201 -1.75185 0
M  V30 8997 N 560.197 4.58235 -0.662552 0
M  V30 8998 C 560.277 4.7683 0.704049 0
M  V30 8999 N 560.197 3.66233 1.39775 0
M  V30 9000 C 560.057 2.66526 0.431739 0
M  V30 9001 C 559.927 1.26394 0.575992 0
M  V30 9002 O 559.907 0.589894 1.60503 0
M  V30 9003 N 559.807 0.62859 -0.67177 0
M  V30 9004 C 559.807 1.27134 -1.89385 0
M  V30 9005 N 559.677 0.492035 -2.96951 0
M  V30 9006 N 559.937 2.58978 -2.02907 0
M  V30 9007 C 560.057 3.22433 -0.832218 0
M  V30 9008 H 563.036 8.65116 -0.777161 0
M  V30 9009 H 563.308 6.90173 -0.474152 0
M  V30 9010 H 562.44 7.66548 -2.79458 0
M  V30 9011 H 559.785 5.16254 -2.65229 0
M  V30 9012 H 559.505 7.06532 -0.329431 0
M  V30 9013 H 558.514 6.91023 -1.82047 0
M  V30 9014 H 560.348 8.90971 -1.62675 0
M  V30 9015 H 560.397 5.74954 1.16305 0
M  V30 9016 H 559.715 -0.366713 -0.674793 0
M  V30 9017 H 559.678 0.908532 -3.91188 0
M  V30 9018 H 559.577 -0.528253 -2.85758 0
M  V30 9019 P 558.477 8.03563 -3.84925 0
M  V30 9020 O 558.257 8.85821 -5.0569 0
M  V30 9021 O 557.687 8.41101 -2.65469 0
M  V30 9022 O 558.227 6.4965 -4.18908 0
M  V30 9023 C 559.167 5.81037 -5.05421 0
M  V30 9024 C 558.437 4.78366 -5.89277 0
M  V30 9025 O 558.227 3.58302 -5.08433 0
M  V30 9026 C 557.037 5.17448 -6.36119 0
M  V30 9027 O 556.647 4.45271 -7.53232 0
M  V30 9028 C 556.157 4.74639 -5.19936 0
M  V30 9029 C 556.867 3.49432 -4.70418 0
M  V30 9030 N 556.817 3.31776 -3.22945 0
M  V30 9031 H 559.656 6.54213 -5.71376 0
M  V30 9032 H 559.928 5.30492 -4.44033 0
M  V30 9033 H 559.06 4.55889 -6.76652 0
M  V30 9034 P 555.097 4.23843 -7.83734 0
M  V30 9035 O 554.877 4.19407 -9.29784 0
M  V30 9036 O 554.307 5.24426 -7.09156 0
M  V30 9037 O 554.847 2.79386 -7.20852 0
M  V30 9038 C 555.787 1.7299 -7.50419 0
M  V30 9039 C 555.057 0.41401 -7.5797 0
M  V30 9040 O 554.847 -0.089787 -6.22035 0
M  V30 9041 C 553.657 0.447224 -8.1878 0
M  V30 9042 O 553.267 -0.825159 -8.71201 0
M  V30 9043 C 552.777 0.783801 -6.99623 0
M  V30 9044 C 553.487 0.0619192 -5.85967 0
M  V30 9045 N 553.437 0.7859 -4.56281 0
M  V30 9046 C 553.287 0.0359258 -3.39981 0
M  V30 9047 O 553.197 -1.19723 -3.49038 0
M  V30 9048 N 553.237 0.869151 -2.14025 0
M  V30 9049 C 553.337 2.01207 -2.14363 0
M  V30 9050 N 553.287 2.58978 -0.954287 0
M  V30 9051 C 553.487 2.80817 -3.32215 0
M  V30 9052 C 553.537 2.13785 -4.50884 0
M  V30 9053 H 556.277 1.93401 -8.46693 0
M  V30 9054 H 556.547 1.68181 -6.71046 0
M  V30 9055 H 555.68 -0.289076 -8.15488 0
M  V30 9056 H 553.025 -0.927166 -5.72947 0
M  V30 9057 H 552.745 1.87 -6.82132 0
M  V30 9058 H 551.754 0.404009 -7.13457 0
M  V30 9059 H 553.588 1.20599 -8.97534 0
M  V30 9060 H 553.66 2.70295 -5.43162 0
M  V30 9061 H 553.558 3.89465 -3.27406 0
M  V30 9062 H 553.17 2.01616 -0.107046 0
M  V30 9063 H 553.366 3.61403 -0.873101 0
M  V30 9064 P 551.717 -1.17771 -8.83182 0
M  V30 9065 O 551.497 -2.07206 -9.98732 0
M  V30 9066 O 550.927 0.0743816 -8.81969 0
M  V30 9067 O 551.467 -1.97652 -7.47304 0
M  V30 9068 C 552.407 -3.01133 -7.08783 0
M  V30 9069 C 551.677 -4.12613 -6.37049 0
M  V30 9070 O 551.467 -3.72827 -4.97879 0
M  V30 9071 C 550.277 -4.45085 -6.88694 0
M  V30 9072 O 549.887 -5.7877 -6.5624 0
M  V30 9073 C 549.397 -3.47817 -6.12078 0
M  V30 9074 C 550.107 -3.39414 -4.77697 0
M  V30 9075 N 550.057 -2.04615 -4.15333 0
M  V30 9076 H 552.896 -3.41248 -7.98759 0
M  V30 9077 H 553.168 -2.5837 -6.41742 0
M  V30 9078 H 552.3 -5.02657 -6.42673 0
M  V30 9079 P 548.337 -6.144 -6.45285 0
M  V30 9080 O 548.117 -7.54673 -6.86199 0
M  V30 9081 O 547.547 -5.12391 -7.179 0
M  V30 9082 O 548.087 -5.99158 -4.88404 0
M  V30 9083 C 549.027 -6.60062 -3.96313 0
M  V30 9084 C 548.297 -7.08259 -2.72856 0
M  V30 9085 O 548.087 -5.9427 -1.83651 0
M  V30 9086 C 546.897 -7.65087 -2.94749 0
M  V30 9087 O 546.507 -8.53963 -1.90717 0
M  V30 9088 C 546.017 -6.41069 -2.90698 0
M  V30 9089 C 546.727 -5.5528 -1.86931 0
M  V30 9090 N 546.677 -4.09575 -2.15696 0
M  V30 9091 C 546.527 -3.24249 -1.08435 0
M  V30 9092 O 546.437 -3.63946 0.0628747 0
M  V30 9093 N 546.487 -1.90009 -1.39973 0
M  V30 9094 C 546.577 -1.34884 -2.65614 0
M  V30 9095 O 546.527 -0.123716 -2.81728 0
M  V30 9096 C 546.727 -2.3145 -3.71736 0
M  V30 9097 C 546.837 -1.75913 -5.10438 0
M  V30 9098 C 546.777 -3.63518 -3.44754 0
M  V30 9099 H 549.518 -7.45402 -4.45526 0
M  V30 9100 H 549.787 -5.86062 -3.67208 0
M  V30 9101 H 548.92 -7.84412 -2.24479 0
M  V30 9102 H 546.265 -5.73358 -0.888409 0
M  V30 9103 H 545.986 -5.90877 -3.88583 0
M  V30 9104 H 544.994 -6.65867 -2.58821 0
M  V30 9105 H 546.828 -8.16248 -3.92006 0
M  V30 9106 H 546.899 -4.34551 -4.26383 0
M  V30 9107 H 545.869 -1.85471 -5.61775 0
M  V30 9108 H 547.606 -2.31364 -5.66257 0
M  V30 9109 H 547.118 -0.695936 -5.05229 0
M  V30 9110 H 546.382 -1.26277 -0.63625 0
M  V30 9111 P 544.957 -8.7635 -1.60911 0
M  V30 9112 O 544.737 -10.1388 -1.11561 0
M  V30 9113 O 544.167 -8.36503 -2.79617 0
M  V30 9114 O 544.707 -7.71806 -0.42951 0
M  V30 9115 C 545.647 -7.67148 0.673689 0
M  V30 9116 C 544.917 -7.33374 1.95559 0
M  V30 9117 O 544.707 -5.88721 2.00726 0
M  V30 9118 C 543.517 -7.92526 2.10483 0
M  V30 9119 O 543.127 -8.02971 3.47653 0
M  V30 9120 C 542.637 -6.89602 1.41652 0
M  V30 9121 C 543.347 -5.59201 1.75185 0
M  V30 9122 N 543.297 -4.58235 0.662552 0
M  V30 9123 H 546.136 -8.65116 0.777161 0
M  V30 9124 H 546.408 -6.90173 0.474152 0
M  V30 9125 H 545.54 -7.66548 2.79458 0
M  V30 9126 P 541.577 -8.03563 3.84925 0
M  V30 9127 O 541.357 -8.85821 5.0569 0
M  V30 9128 O 540.787 -8.41101 2.65469 0
M  V30 9129 O 541.327 -6.4965 4.18908 0
M  V30 9130 C 542.267 -5.81037 5.05421 0
M  V30 9131 C 541.537 -4.78366 5.89277 0
M  V30 9132 O 541.327 -3.58302 5.08433 0
M  V30 9133 C 540.137 -5.17448 6.36119 0
M  V30 9134 O 539.747 -4.45271 7.53232 0
M  V30 9135 C 539.257 -4.74639 5.19936 0
M  V30 9136 C 539.967 -3.49432 4.70418 0
M  V30 9137 N 539.917 -3.31776 3.22945 0
M  V30 9138 H 542.756 -6.54213 5.71376 0
M  V30 9139 H 543.028 -5.30492 4.44033 0
M  V30 9140 H 542.16 -4.55889 6.76652 0
M  V30 9141 P 538.197 -4.23843 7.83734 0
M  V30 9142 O 537.977 -4.19407 9.29784 0
M  V30 9143 O 537.407 -5.24426 7.09156 0
M  V30 9144 O 537.947 -2.7935 7.20758 0
M  V30 9145 C 538.887 -1.7299 7.50419 0
M  V30 9146 C 538.157 -0.406376 7.57911 0
M  V30 9147 O 537.947 0.0897726 6.21935 0
M  V30 9148 C 536.757 -0.447224 8.1878 0
M  V30 9149 O 536.367 0.825065 8.71101 0
M  V30 9150 C 535.877 -0.783801 6.99623 0
M  V30 9151 C 536.587 -0.0619192 5.85967 0
M  V30 9152 N 536.537 -0.7859 4.56281 0
M  V30 9153 H 539.376 -1.93423 8.4679 0
M  V30 9154 H 539.648 -1.68181 6.71046 0
M  V30 9155 H 538.78 0.289041 8.15388 0
M  V30 9156 P 534.817 1.17771 8.83182 0
M  V30 9157 O 534.597 2.07206 9.98732 0
M  V30 9158 O 534.027 -0.0743816 8.81969 0
M  V30 9159 O 534.567 1.97678 7.474 0
M  V30 9160 C 535.507 3.01133 7.08783 0
M  V30 9161 C 534.777 4.1203 6.37546 0
M  V30 9162 O 534.567 3.72887 4.9796 0
M  V30 9163 C 533.377 4.45085 6.88694 0
M  V30 9164 O 532.987 5.78836 6.56315 0
M  V30 9165 C 532.497 3.47817 6.12078 0
M  V30 9166 C 533.207 3.39414 4.77697 0
M  V30 9167 N 533.157 2.04615 4.15333 0
M  V30 9168 C 533.007 1.96929 2.77162 0
M  V30 9169 O 532.917 3.02017 2.12006 0
M  V30 9170 N 532.957 0.55485 2.24237 0
M  V30 9171 C 533.057 -0.367808 2.9169 0
M  V30 9172 N 533.007 -1.53426 2.29427 0
M  V30 9173 C 533.207 -0.319148 4.33828 0
M  V30 9174 C 533.257 0.920672 4.90433 0
M  V30 9175 H 535.997 3.41209 7.98667 0
M  V30 9176 H 536.267 2.5837 6.41742 0
M  V30 9177 H 535.4 5.02718 6.42752 0
M  V30 9178 H 532.745 4.11779 4.09026 0
M  V30 9179 H 532.465 2.49661 6.61772 0
M  V30 9180 H 531.474 3.86674 6.00946 0
M  V30 9181 H 533.308 4.29991 7.97006 0
M  V30 9182 H 533.38 1.00589 5.98303 0
M  V30 9183 H 533.278 -1.22639 4.93799 0
M  V30 9184 H 532.89 -1.56819 1.27167 0
M  V30 9185 H 533.086 -2.41062 2.83063 0
M  V30 9186 P 531.437 6.144 6.45285 0
M  V30 9187 O 531.217 7.54673 6.86199 0
M  V30 9188 O 530.647 5.12391 7.179 0
M  V30 9189 O 531.187 5.99158 4.88404 0
M  V30 9190 C 532.127 6.60234 3.96415 0
M  V30 9191 C 531.397 7.08259 2.72856 0
M  V30 9192 O 531.187 5.9427 1.83651 0
M  V30 9193 C 529.997 7.64886 2.9555 0
M  V30 9194 O 529.607 8.53963 1.90717 0
M  V30 9195 C 529.117 6.4116 2.90739 0
M  V30 9196 C 529.827 5.55375 1.86963 0
M  V30 9197 N 529.777 4.09664 2.15742 0
M  V30 9198 H 532.616 7.45574 4.45629 0
M  V30 9199 H 532.888 5.86232 3.67314 0
M  V30 9200 H 532.02 7.84412 2.24479 0
M  V30 9201 P 528.057 8.7635 1.60911 0
M  V30 9202 O 527.837 10.1388 1.11561 0
M  V30 9203 O 527.267 8.36503 2.79617 0
M  V30 9204 O 527.807 7.71806 0.42951 0
M  V30 9205 C 528.747 7.67148 -0.673689 0
M  V30 9206 C 528.017 7.33374 -1.95559 0
M  V30 9207 O 527.807 5.88721 -2.00726 0
M  V30 9208 C 526.617 7.92526 -2.10483 0
M  V30 9209 O 526.227 8.02971 -3.47653 0
M  V30 9210 C 525.737 6.89602 -1.41652 0
M  V30 9211 C 526.447 5.59201 -1.75185 0
M  V30 9212 N 526.397 4.58235 -0.662552 0
M  V30 9213 C 526.477 4.7683 0.704049 0
M  V30 9214 N 526.397 3.66233 1.39775 0
M  V30 9215 C 526.257 2.66526 0.431739 0
M  V30 9216 C 526.127 1.26394 0.575992 0
M  V30 9217 N 526.007 0.62859 -0.67177 0
M  V30 9218 C 526.007 1.27134 -1.89385 0
M  V30 9219 N 525.877 0.492035 -2.96951 0
M  V30 9220 N 526.137 2.58978 -2.02907 0
M  V30 9221 C 526.257 3.22433 -0.832218 0
M  V30 9222 H 529.236 8.65116 -0.777161 0
M  V30 9223 H 529.508 6.90173 -0.474152 0
M  V30 9224 H 528.64 7.66548 -2.79458 0
M  V30 9225 P 524.677 8.03563 -3.84925 0
M  V30 9226 O 524.457 8.85821 -5.0569 0
M  V30 9227 O 523.887 8.41101 -2.65469 0
M  V30 9228 O 524.427 6.4965 -4.18908 0
M  V30 9229 C 525.367 5.81037 -5.05421 0
M  V30 9230 C 524.637 4.78366 -5.89277 0
M  V30 9231 O 524.427 3.58302 -5.08433 0
M  V30 9232 C 523.237 5.17448 -6.36119 0
M  V30 9233 O 522.847 4.45271 -7.53232 0
M  V30 9234 C 522.357 4.74639 -5.19936 0
M  V30 9235 C 523.067 3.49432 -4.70418 0
M  V30 9236 N 523.017 3.31776 -3.22945 0
M  V30 9237 H 525.856 6.54213 -5.71376 0
M  V30 9238 H 526.128 5.30492 -4.44033 0
M  V30 9239 H 525.26 4.55889 -6.76652 0
M  V30 9240 P 521.297 4.23843 -7.83734 0
M  V30 9241 O 521.077 4.19407 -9.29784 0
M  V30 9242 O 520.507 5.24426 -7.09156 0
M  V30 9243 O 521.047 2.7935 -7.20758 0
M  V30 9244 C 521.987 1.7299 -7.50419 0
M  V30 9245 C 521.257 0.406376 -7.57911 0
M  V30 9246 O 521.047 -0.0897726 -6.21935 0
M  V30 9247 C 519.857 0.447224 -8.1878 0
M  V30 9248 O 519.467 -0.825065 -8.71101 0
M  V30 9249 C 518.977 0.783801 -6.99623 0
M  V30 9250 C 519.687 0.0619192 -5.85967 0
M  V30 9251 N 519.637 0.790462 -4.56202 0
M  V30 9252 H 522.476 1.93423 -8.4679 0
M  V30 9253 H 522.748 1.68852 -6.70877 0
M  V30 9254 H 521.88 -0.289041 -8.15388 0
M  V30 9255 H 519.225 -0.927006 -5.72848 0
M  V30 9256 H 518.945 1.86973 -6.82036 0
M  V30 9257 H 517.954 0.403953 -7.13357 0
M  V30 9258 H 519.788 1.20599 -8.97534 0
M  V30 9259 P 517.917 -1.17771 -8.83182 0
M  V30 9260 O 517.697 -2.07206 -9.98732 0
M  V30 9261 O 517.127 0.0743816 -8.81969 0
M  V30 9262 O 517.667 -1.97652 -7.47304 0
M  V30 9263 C 518.607 -3.01133 -7.08783 0
M  V30 9264 C 517.877 -4.12613 -6.37049 0
M  V30 9265 O 517.667 -3.72827 -4.97879 0
M  V30 9266 C 516.477 -4.45085 -6.88694 0
M  V30 9267 O 516.087 -5.7877 -6.5624 0
M  V30 9268 C 515.597 -3.47817 -6.12078 0
M  V30 9269 C 516.307 -3.39414 -4.77697 0
M  V30 9270 N 516.257 -2.04615 -4.15333 0
M  V30 9271 H 519.096 -3.41248 -7.98759 0
M  V30 9272 H 519.368 -2.5837 -6.41742 0
M  V30 9273 H 518.5 -5.02657 -6.42673 0
M  V30 9274 P 514.537 -6.144 -6.45285 0
M  V30 9275 O 514.317 -7.54673 -6.86199 0
M  V30 9276 O 513.747 -5.12391 -7.179 0
M  V30 9277 O 514.287 -5.99236 -4.88467 0
M  V30 9278 C 515.227 -6.60234 -3.96415 0
M  V30 9279 C 514.497 -7.08079 -2.736 0
M  V30 9280 O 514.287 -5.94365 -1.8368 0
M  V30 9281 C 513.097 -7.64886 -2.9555 0
M  V30 9282 O 512.707 -8.5406 -1.90739 0
M  V30 9283 C 512.217 -6.4116 -2.90739 0
M  V30 9284 C 512.927 -5.55375 -1.86963 0
M  V30 9285 N 512.877 -4.09664 -2.15742 0
M  V30 9286 C 512.727 -3.22231 -1.08477 0
M  V30 9287 O 512.637 -3.68951 0.0600489 0
M  V30 9288 N 512.677 -1.76692 -1.48799 0
M  V30 9289 C 512.777 -1.41695 -2.57602 0
M  V30 9290 N 512.727 -0.107296 -2.75791 0
M  V30 9291 C 512.927 -2.29178 -3.69733 0
M  V30 9292 C 512.977 -3.62753 -3.42653 0
M  V30 9293 H 515.717 -7.45488 -4.45578 0
M  V30 9294 H 515.987 -5.86232 -3.67314 0
M  V30 9295 H 515.12 -7.84508 -2.24507 0
M  V30 9296 H 512.465 -5.73556 -0.888715 0
M  V30 9297 H 512.185 -5.9096 -3.88638 0
M  V30 9298 H 511.194 -6.66053 -2.58894 0
M  V30 9299 H 513.028 -8.16339 -3.92049 0
M  V30 9300 H 513.1 -4.33052 -4.24913 0
M  V30 9301 H 512.998 -1.9103 -4.71577 0
M  V30 9302 H 512.61 0.521221 -1.95056 0
M  V30 9303 H 512.806 0.286429 -3.70695 0
M  V30 9304 P 511.157 -8.7635 -1.60911 0
M  V30 9305 O 510.937 -10.1388 -1.11561 0
M  V30 9306 O 510.367 -8.36503 -2.79617 0
M  V30 9307 O 510.907 -7.71806 -0.42951 0
M  V30 9308 C 511.847 -7.67148 0.673689 0
M  V30 9309 C 511.117 -7.33374 1.95559 0
M  V30 9310 O 510.907 -5.88721 2.00726 0
M  V30 9311 C 509.717 -7.92526 2.10483 0
M  V30 9312 O 509.327 -8.02971 3.47653 0
M  V30 9313 C 508.837 -6.89602 1.41652 0
M  V30 9314 C 509.547 -5.59201 1.75185 0
M  V30 9315 N 509.497 -4.58235 0.662552 0
M  V30 9316 H 512.336 -8.65116 0.777161 0
M  V30 9317 H 512.608 -6.90173 0.474152 0
M  V30 9318 H 511.74 -7.66548 2.79458 0
M  V30 9319 P 507.777 -8.03563 3.84925 0
M  V30 9320 O 507.557 -8.85821 5.0569 0
M  V30 9321 O 506.987 -8.41101 2.65469 0
M  V30 9322 O 507.527 -6.4965 4.18908 0
M  V30 9323 C 508.467 -5.81037 5.05421 0
M  V30 9324 C 507.737 -4.78366 5.89277 0
M  V30 9325 O 507.527 -3.58302 5.08433 0
M  V30 9326 C 506.337 -5.17448 6.36119 0
M  V30 9327 O 505.947 -4.45271 7.53232 0
M  V30 9328 C 505.457 -4.74639 5.19936 0
M  V30 9329 C 506.167 -3.49432 4.70418 0
M  V30 9330 N 506.117 -3.31776 3.22945 0
M  V30 9331 H 508.956 -6.54213 5.71376 0
M  V30 9332 H 509.228 -5.30492 4.44033 0
M  V30 9333 H 508.36 -4.55889 6.76652 0
M  V30 9334 P 504.397 -4.23843 7.83734 0
M  V30 9335 O 504.177 -4.19407 9.29784 0
M  V30 9336 O 503.607 -5.24426 7.09156 0
M  V30 9337 O 504.147 -2.7935 7.20758 0
M  V30 9338 C 505.087 -1.7299 7.50419 0
M  V30 9339 C 504.357 -0.406376 7.57911 0
M  V30 9340 O 504.147 0.0897726 6.21935 0
M  V30 9341 C 502.957 -0.447224 8.1878 0
M  V30 9342 O 502.567 0.825065 8.71101 0
M  V30 9343 C 502.077 -0.783801 6.99623 0
M  V30 9344 C 502.787 -0.0619192 5.85967 0
M  V30 9345 N 502.737 -0.7859 4.56281 0
M  V30 9346 H 505.576 -1.93423 8.4679 0
M  V30 9347 H 505.848 -1.68181 6.71046 0
M  V30 9348 H 504.98 0.289041 8.15388 0
M  V30 9349 P 501.017 1.17771 8.83182 0
M  V30 9350 O 500.797 2.07206 9.98732 0
M  V30 9351 O 500.227 -0.0743816 8.81969 0
M  V30 9352 O 500.767 1.97652 7.47304 0
M  V30 9353 C 501.707 3.01133 7.08783 0
M  V30 9354 C 500.977 4.12613 6.37049 0
M  V30 9355 O 500.767 3.72827 4.97879 0
M  V30 9356 C 499.577 4.45085 6.88694 0
M  V30 9357 O 499.187 5.7877 6.5624 0
M  V30 9358 C 498.697 3.47817 6.12078 0
M  V30 9359 C 499.407 3.39414 4.77697 0
M  V30 9360 N 499.357 2.04615 4.15333 0
M  V30 9361 H 502.196 3.41248 7.98759 0
M  V30 9362 H 502.468 2.5837 6.41742 0
M  V30 9363 H 501.6 5.02657 6.42673 0
M  V30 9364 P 497.637 6.144 6.45285 0
M  V30 9365 O 497.417 7.54673 6.86199 0
M  V30 9366 O 496.847 5.12391 7.179 0
M  V30 9367 O 497.387 5.99158 4.88404 0
M  V30 9368 C 498.327 6.60234 3.96415 0
M  V30 9369 C 497.597 7.08259 2.72856 0
M  V30 9370 O 497.387 5.9427 1.83651 0
M  V30 9371 C 496.197 7.64886 2.9555 0
M  V30 9372 O 495.807 8.53963 1.90717 0
M  V30 9373 C 495.317 6.4116 2.90739 0
M  V30 9374 C 496.027 5.55375 1.86963 0
M  V30 9375 N 495.977 4.09448 2.16152 0
M  V30 9376 H 498.816 7.45574 4.45629 0
M  V30 9377 H 499.088 5.85864 3.679 0
M  V30 9378 H 498.22 7.84412 2.24479 0
M  V30 9379 H 495.565 5.73457 0.888562 0
M  V30 9380 H 495.285 5.90877 3.88583 0
M  V30 9381 H 494.294 6.6596 2.58858 0
M  V30 9382 H 496.128 8.16339 3.92049 0
M  V30 9383 P 494.257 8.7635 1.60911 0
M  V30 9384 O 494.037 10.1388 1.11561 0
M  V30 9385 O 493.467 8.36503 2.79617 0
M  V30 9386 O 494.007 7.71806 0.42951 0
M  V30 9387 C 494.947 7.67148 -0.673689 0
M  V30 9388 C 494.217 7.33374 -1.95559 0
M  V30 9389 O 494.007 5.88721 -2.00726 0
M  V30 9390 C 492.817 7.92526 -2.10483 0
M  V30 9391 O 492.427 8.02971 -3.47653 0
M  V30 9392 C 491.937 6.89602 -1.41652 0
M  V30 9393 C 492.647 5.59201 -1.75185 0
M  V30 9394 N 492.597 4.58235 -0.662552 0
M  V30 9395 H 495.436 8.65116 -0.777161 0
M  V30 9396 H 495.708 6.90173 -0.474152 0
M  V30 9397 H 494.84 7.66548 -2.79458 0
M  V30 9398 P 490.877 8.03563 -3.84925 0
M  V30 9399 O 490.657 8.85821 -5.0569 0
M  V30 9400 O 490.087 8.41101 -2.65469 0
M  V30 9401 O 490.627 6.4965 -4.18908 0
M  V30 9402 C 491.567 5.81037 -5.05421 0
M  V30 9403 C 490.837 4.78366 -5.89277 0
M  V30 9404 O 490.627 3.58302 -5.08433 0
M  V30 9405 C 489.437 5.17448 -6.36119 0
M  V30 9406 O 489.047 4.45271 -7.53232 0
M  V30 9407 C 488.557 4.74639 -5.19936 0
M  V30 9408 C 489.267 3.49432 -4.70418 0
M  V30 9409 N 489.217 3.32099 -3.22613 0
M  V30 9410 H 492.056 6.54213 -5.71376 0
M  V30 9411 H 492.328 5.30936 -4.43503 0
M  V30 9412 H 491.46 4.55889 -6.76652 0
M  V30 9413 H 488.805 2.61715 -5.17932 0
M  V30 9414 H 488.525 5.52155 -4.41878 0
M  V30 9415 H 487.534 4.51981 -5.53374 0
M  V30 9416 H 489.368 6.25124 -6.55234 0
M  V30 9417 P 487.497 4.23843 -7.83734 0
M  V30 9418 O 487.277 4.19407 -9.29784 0
M  V30 9419 O 486.707 5.24426 -7.09156 0
M  V30 9420 O 487.247 2.7935 -7.20758 0
M  V30 9421 C 488.187 1.7299 -7.50419 0
M  V30 9422 C 487.457 0.406376 -7.57911 0
M  V30 9423 O 487.247 -0.0897726 -6.21935 0
M  V30 9424 C 486.057 0.447224 -8.1878 0
M  V30 9425 O 485.667 -0.825065 -8.71101 0
M  V30 9426 C 485.177 0.783801 -6.99623 0
M  V30 9427 C 485.887 0.0619192 -5.85967 0
M  V30 9428 N 485.837 0.790462 -4.56202 0
M  V30 9429 H 488.676 1.93423 -8.4679 0
M  V30 9430 H 488.948 1.68852 -6.70877 0
M  V30 9431 H 488.08 -0.289041 -8.15388 0
M  V30 9432 H 485.425 -0.927006 -5.72848 0
M  V30 9433 H 485.145 1.86973 -6.82036 0
M  V30 9434 H 484.154 0.403953 -7.13357 0
M  V30 9435 H 485.988 1.20599 -8.97534 0
M  V30 9436 P 484.117 -1.17771 -8.83182 0
M  V30 9437 O 483.897 -2.07206 -9.98732 0
M  V30 9438 O 483.327 0.0743816 -8.81969 0
M  V30 9439 O 483.867 -1.97652 -7.47304 0
M  V30 9440 C 484.807 -3.01133 -7.08783 0
M  V30 9441 C 484.077 -4.12613 -6.37049 0
M  V30 9442 O 483.867 -3.72827 -4.97879 0
M  V30 9443 C 482.677 -4.45085 -6.88694 0
M  V30 9444 O 482.287 -5.7877 -6.5624 0
M  V30 9445 C 481.797 -3.47817 -6.12078 0
M  V30 9446 C 482.507 -3.39414 -4.77697 0
M  V30 9447 N 482.457 -2.04615 -4.15333 0
M  V30 9448 H 485.296 -3.41248 -7.98759 0
M  V30 9449 H 485.568 -2.5837 -6.41742 0
M  V30 9450 H 484.7 -5.02657 -6.42673 0
M  V30 9451 P 480.737 -6.144 -6.45285 0
M  V30 9452 O 480.517 -7.54673 -6.86199 0
M  V30 9453 O 479.947 -5.12391 -7.179 0
M  V30 9454 O 480.487 -5.99158 -4.88404 0
M  V30 9455 C 481.427 -6.60234 -3.96415 0
M  V30 9456 C 480.697 -7.08259 -2.72856 0
M  V30 9457 O 480.487 -5.9427 -1.83651 0
M  V30 9458 C 479.297 -7.64886 -2.9555 0
M  V30 9459 O 478.907 -8.53963 -1.90717 0
M  V30 9460 C 478.417 -6.4116 -2.90739 0
M  V30 9461 C 479.127 -5.55375 -1.86963 0
M  V30 9462 N 479.077 -4.09448 -2.16152 0
M  V30 9463 H 481.916 -7.45574 -4.45629 0
M  V30 9464 H 482.188 -5.85864 -3.679 0
M  V30 9465 H 481.32 -7.84412 -2.24479 0
M  V30 9466 H 478.665 -5.73457 -0.888562 0
M  V30 9467 H 478.385 -5.90877 -3.88583 0
M  V30 9468 H 477.394 -6.6596 -2.58858 0
M  V30 9469 H 479.228 -8.16339 -3.92049 0
M  V30 9470 P 477.357 -8.7635 -1.60911 0
M  V30 9471 O 477.137 -10.1388 -1.11561 0
M  V30 9472 O 476.567 -8.36503 -2.79617 0
M  V30 9473 O 477.107 -7.71806 -0.42951 0
M  V30 9474 C 478.047 -7.67148 0.673689 0
M  V30 9475 C 477.317 -7.33374 1.95559 0
M  V30 9476 O 477.107 -5.88721 2.00726 0
M  V30 9477 C 475.917 -7.92526 2.10483 0
M  V30 9478 O 475.527 -8.02971 3.47653 0
M  V30 9479 C 475.037 -6.89602 1.41652 0
M  V30 9480 C 475.747 -5.59201 1.75185 0
M  V30 9481 N 475.697 -4.58235 0.662552 0
M  V30 9482 C 475.777 -4.7683 -0.704049 0
M  V30 9483 N 475.697 -3.66233 -1.39775 0
M  V30 9484 C 475.557 -2.66526 -0.431739 0
M  V30 9485 C 475.427 -1.26394 -0.575992 0
M  V30 9486 O 475.407 -0.589894 -1.60503 0
M  V30 9487 N 475.307 -0.62859 0.67177 0
M  V30 9488 C 475.307 -1.27134 1.89385 0
M  V30 9489 N 475.177 -0.492035 2.96951 0
M  V30 9490 N 475.437 -2.58978 2.02907 0
M  V30 9491 C 475.557 -3.22433 0.832218 0
M  V30 9492 H 478.536 -8.65116 0.777161 0
M  V30 9493 H 478.808 -6.90173 0.474152 0
M  V30 9494 H 477.94 -7.66548 2.79458 0
M  V30 9495 H 475.285 -5.16254 2.65229 0
M  V30 9496 H 475.005 -7.06532 0.329431 0
M  V30 9497 H 474.014 -6.91023 1.82047 0
M  V30 9498 H 475.848 -8.90971 1.62675 0
M  V30 9499 H 475.897 -5.74954 -1.16305 0
M  V30 9500 H 475.215 0.366713 0.674793 0
M  V30 9501 H 475.178 -0.908532 3.91188 0
M  V30 9502 H 475.077 0.528253 2.85758 0
M  V30 9503 P 473.977 -8.03563 3.84925 0
M  V30 9504 O 473.757 -8.85821 5.0569 0
M  V30 9505 O 473.187 -8.41101 2.65469 0
M  V30 9506 O 473.727 -6.4965 4.18908 0
M  V30 9507 C 474.667 -5.81037 5.05421 0
M  V30 9508 C 473.937 -4.78366 5.89277 0
M  V30 9509 O 473.727 -3.58302 5.08433 0
M  V30 9510 C 472.537 -5.17448 6.36119 0
M  V30 9511 O 472.147 -4.45271 7.53232 0
M  V30 9512 C 471.657 -4.74639 5.19936 0
M  V30 9513 C 472.367 -3.49432 4.70418 0
M  V30 9514 N 472.317 -3.31776 3.22945 0
M  V30 9515 H 475.156 -6.54213 5.71376 0
M  V30 9516 H 475.428 -5.30492 4.44033 0
M  V30 9517 H 474.56 -4.55889 6.76652 0
M  V30 9518 P 470.597 -4.23843 7.83734 0
M  V30 9519 O 470.377 -4.19407 9.29784 0
M  V30 9520 O 469.807 -5.24426 7.09156 0
M  V30 9521 O 470.347 -2.7935 7.20758 0
M  V30 9522 C 471.287 -1.7299 7.50419 0
M  V30 9523 C 470.557 -0.406376 7.57911 0
M  V30 9524 O 470.347 0.0897726 6.21935 0
M  V30 9525 C 469.157 -0.447224 8.1878 0
M  V30 9526 O 468.767 0.825065 8.71101 0
M  V30 9527 C 468.277 -0.783801 6.99623 0
M  V30 9528 C 468.987 -0.0619192 5.85967 0
M  V30 9529 N 468.937 -0.7859 4.56281 0
M  V30 9530 H 471.776 -1.93423 8.4679 0
M  V30 9531 H 472.048 -1.68181 6.71046 0
M  V30 9532 H 471.18 0.289041 8.15388 0
M  V30 9533 P 467.217 1.17771 8.83182 0
M  V30 9534 O 466.997 2.07206 9.98732 0
M  V30 9535 O 466.427 -0.0743816 8.81969 0
M  V30 9536 O 466.967 1.97652 7.47304 0
M  V30 9537 C 467.907 3.01133 7.08783 0
M  V30 9538 C 467.177 4.12613 6.37049 0
M  V30 9539 O 466.967 3.72827 4.97879 0
M  V30 9540 C 465.777 4.45085 6.88694 0
M  V30 9541 O 465.387 5.7877 6.5624 0
M  V30 9542 C 464.897 3.47817 6.12078 0
M  V30 9543 C 465.607 3.39414 4.77697 0
M  V30 9544 N 465.557 2.04199 4.15538 0
M  V30 9545 C 465.637 0.821545 4.76977 0
M  V30 9546 N 465.567 -0.1794 3.94592 0
M  V30 9547 C 465.417 0.419121 2.70776 0
M  V30 9548 C 465.287 -0.109072 1.40577 0
M  V30 9549 N 465.277 -1.4104 1.1344 0
M  V30 9550 N 465.167 0.764381 0.39411 0
M  V30 9551 C 465.177 2.06587 0.664135 0
M  V30 9552 N 465.297 2.67948 1.82153 0
M  V30 9553 C 465.417 1.77942 2.8147 0
M  V30 9554 H 468.396 3.41248 7.98759 0
M  V30 9555 H 468.668 2.57728 6.42 0
M  V30 9556 H 467.8 5.02657 6.42673 0
M  V30 9557 H 465.145 4.11708 4.08956 0
M  V30 9558 H 464.865 2.49626 6.61679 0
M  V30 9559 H 463.874 3.8662 6.00862 0
M  V30 9560 H 465.708 4.29991 7.97006 0
M  V30 9561 H 465.749 0.702451 5.84696 0
M  V30 9562 H 465.368 -2.09647 1.89651 0
M  V30 9563 H 465.179 -1.73358 0.160575 0
M  V30 9564 H 465.071 2.71695 -0.195838 0
M  V30 9565 P 463.837 6.144 6.45285 0
M  V30 9566 O 463.617 7.54673 6.86199 0
M  V30 9567 O 463.047 5.12391 7.179 0
M  V30 9568 O 463.587 5.99158 4.88404 0
M  V30 9569 C 464.527 6.60234 3.96415 0
M  V30 9570 C 463.797 7.08259 2.72856 0
M  V30 9571 O 463.587 5.9427 1.83651 0
M  V30 9572 C 462.397 7.64886 2.9555 0
M  V30 9573 O 462.007 8.53963 1.90717 0
M  V30 9574 C 461.517 6.4116 2.90739 0
M  V30 9575 C 462.227 5.55375 1.86963 0
M  V30 9576 N 462.177 4.09664 2.15742 0
M  V30 9577 H 465.016 7.45574 4.45629 0
M  V30 9578 H 465.288 5.86232 3.67314 0
M  V30 9579 H 464.42 7.84412 2.24479 0
M  V30 9580 P 460.457 8.7635 1.60911 0
M  V30 9581 O 460.237 10.1388 1.11561 0
M  V30 9582 O 459.667 8.36503 2.79617 0
M  V30 9583 O 460.207 7.71806 0.42951 0
M  V30 9584 C 461.147 7.67148 -0.673689 0
M  V30 9585 C 460.417 7.33374 -1.95559 0
M  V30 9586 O 460.207 5.88721 -2.00726 0
M  V30 9587 C 459.017 7.92526 -2.10483 0
M  V30 9588 O 458.627 8.02971 -3.47653 0
M  V30 9589 C 458.137 6.89602 -1.41652 0
M  V30 9590 C 458.847 5.59201 -1.75185 0
M  V30 9591 N 458.797 4.58301 -0.657969 0
M  V30 9592 C 458.877 4.79019 0.692603 0
M  V30 9593 N 458.807 3.69736 1.38998 0
M  V30 9594 C 458.657 2.70474 0.438135 0
M  V30 9595 C 458.527 1.30327 0.538142 0
M  V30 9596 N 458.517 0.64304 1.69192 0
M  V30 9597 N 458.407 0.611027 -0.605183 0
M  V30 9598 C 458.417 1.27002 -1.75953 0
M  V30 9599 N 458.537 2.56038 -1.98546 0
M  V30 9600 C 458.657 3.22681 -0.822541 0
M  V30 9601 H 461.636 8.65116 -0.777161 0
M  V30 9602 H 461.908 6.9022 -0.46725 0
M  V30 9603 H 461.04 7.66548 -2.79458 0
M  V30 9604 H 458.385 5.16165 -2.65183 0
M  V30 9605 H 458.105 7.06433 -0.329384 0
M  V30 9606 H 457.114 6.90926 -1.82021 0
M  V30 9607 H 458.948 8.90873 -1.62657 0
M  V30 9608 H 458.989 5.77785 1.13874 0
M  V30 9609 H 458.608 1.15585 2.57991 0
M  V30 9610 H 458.419 -0.382989 1.69835 0
M  V30 9611 H 458.311 0.653331 -2.64449 0
M  V30 9612 P 457.077 8.03563 -3.84925 0
M  V30 9613 O 456.857 8.85821 -5.0569 0
M  V30 9614 O 456.287 8.41101 -2.65469 0
M  V30 9615 O 456.827 6.4965 -4.18908 0
M  V30 9616 C 457.767 5.81037 -5.05421 0
M  V30 9617 C 457.037 4.78366 -5.89277 0
M  V30 9618 O 456.827 3.58302 -5.08433 0
M  V30 9619 C 455.637 5.17448 -6.36119 0
M  V30 9620 O 455.247 4.45271 -7.53232 0
M  V30 9621 C 454.757 4.74639 -5.19936 0
M  V30 9622 C 455.467 3.49432 -4.70418 0
M  V30 9623 N 455.417 3.31776 -3.22945 0
M  V30 9624 H 458.256 6.54213 -5.71376 0
M  V30 9625 H 458.528 5.30492 -4.44033 0
M  V30 9626 H 457.66 4.55889 -6.76652 0
M  V30 9627 P 453.697 4.23843 -7.83734 0
M  V30 9628 O 453.477 4.19407 -9.29784 0
M  V30 9629 O 452.907 5.24426 -7.09156 0
M  V30 9630 O 453.447 2.7935 -7.20758 0
M  V30 9631 C 454.387 1.7299 -7.50419 0
M  V30 9632 C 453.657 0.406376 -7.57911 0
M  V30 9633 O 453.447 -0.0897726 -6.21935 0
M  V30 9634 C 452.257 0.447224 -8.1878 0
M  V30 9635 O 451.867 -0.825065 -8.71101 0
M  V30 9636 C 451.377 0.783801 -6.99623 0
M  V30 9637 C 452.087 0.0619192 -5.85967 0
M  V30 9638 N 452.037 0.7859 -4.56281 0
M  V30 9639 H 454.876 1.93423 -8.4679 0
M  V30 9640 H 455.148 1.68181 -6.71046 0
M  V30 9641 H 454.28 -0.289041 -8.15388 0
M  V30 9642 P 450.317 -1.17771 -8.83182 0
M  V30 9643 O 450.097 -2.07206 -9.98732 0
M  V30 9644 O 449.527 0.0743816 -8.81969 0
M  V30 9645 O 450.067 -1.97652 -7.47304 0
M  V30 9646 C 451.007 -3.01133 -7.08783 0
M  V30 9647 C 450.277 -4.12613 -6.37049 0
M  V30 9648 O 450.067 -3.72827 -4.97879 0
M  V30 9649 C 448.877 -4.45085 -6.88694 0
M  V30 9650 O 448.487 -5.7877 -6.5624 0
M  V30 9651 C 447.997 -3.47817 -6.12078 0
M  V30 9652 C 448.707 -3.39414 -4.77697 0
M  V30 9653 N 448.657 -2.04615 -4.15333 0
M  V30 9654 H 451.496 -3.41248 -7.98759 0
M  V30 9655 H 451.768 -2.5837 -6.41742 0
M  V30 9656 H 450.9 -5.02657 -6.42673 0
M  V30 9657 P 446.937 -6.144 -6.45285 0
M  V30 9658 O 446.717 -7.54673 -6.86199 0
M  V30 9659 O 446.147 -5.12391 -7.179 0
M  V30 9660 O 446.687 -5.99158 -4.88404 0
M  V30 9661 C 447.627 -6.60234 -3.96415 0
M  V30 9662 C 446.897 -7.08259 -2.72856 0
M  V30 9663 O 446.687 -5.9427 -1.83651 0
M  V30 9664 C 445.497 -7.64886 -2.9555 0
M  V30 9665 O 445.107 -8.53963 -1.90717 0
M  V30 9666 C 444.617 -6.4116 -2.90739 0
M  V30 9667 C 445.327 -5.55375 -1.86963 0
M  V30 9668 N 445.277 -4.09664 -2.15742 0
M  V30 9669 H 448.116 -7.45574 -4.45629 0
M  V30 9670 H 448.388 -5.86232 -3.67314 0
M  V30 9671 H 447.52 -7.84412 -2.24479 0
M  V30 9672 P 443.557 -8.7635 -1.60911 0
M  V30 9673 O 443.337 -10.1388 -1.11561 0
M  V30 9674 O 442.767 -8.36503 -2.79617 0
M  V30 9675 O 443.307 -7.71806 -0.42951 0
M  V30 9676 C 444.247 -7.67148 0.673689 0
M  V30 9677 C 443.517 -7.33374 1.95559 0
M  V30 9678 O 443.307 -5.88721 2.00726 0
M  V30 9679 C 442.117 -7.92526 2.10483 0
M  V30 9680 O 441.727 -8.02971 3.47653 0
M  V30 9681 C 441.237 -6.89602 1.41652 0
M  V30 9682 C 441.947 -5.59201 1.75185 0
M  V30 9683 N 441.897 -4.58235 0.662552 0
M  V30 9684 H 444.736 -8.65116 0.777161 0
M  V30 9685 H 445.008 -6.90173 0.474152 0
M  V30 9686 H 444.14 -7.66548 2.79458 0
M  V30 9687 P 440.177 -8.03563 3.84925 0
M  V30 9688 O 439.957 -8.85821 5.0569 0
M  V30 9689 O 439.387 -8.41101 2.65469 0
M  V30 9690 O 439.927 -6.4965 4.18908 0
M  V30 9691 C 440.867 -5.81037 5.05421 0
M  V30 9692 C 440.137 -4.78366 5.89277 0
M  V30 9693 O 439.927 -3.58302 5.08433 0
M  V30 9694 C 438.737 -5.17448 6.36119 0
M  V30 9695 O 438.347 -4.45271 7.53232 0
M  V30 9696 C 437.857 -4.74639 5.19936 0
M  V30 9697 C 438.567 -3.49432 4.70418 0
M  V30 9698 N 438.517 -3.31776 3.22945 0
M  V30 9699 H 441.356 -6.54213 5.71376 0
M  V30 9700 H 441.628 -5.30492 4.44033 0
M  V30 9701 H 440.76 -4.55889 6.76652 0
M  V30 9702 P 436.797 -4.23843 7.83734 0
M  V30 9703 O 436.577 -4.19407 9.29784 0
M  V30 9704 O 436.007 -5.24426 7.09156 0
M  V30 9705 O 436.547 -2.7935 7.20758 0
M  V30 9706 C 437.487 -1.7299 7.50419 0
M  V30 9707 C 436.757 -0.406376 7.57911 0
M  V30 9708 O 436.547 0.0897726 6.21935 0
M  V30 9709 C 435.357 -0.447224 8.1878 0
M  V30 9710 O 434.967 0.825065 8.71101 0
M  V30 9711 C 434.477 -0.783801 6.99623 0
M  V30 9712 C 435.187 -0.0619192 5.85967 0
M  V30 9713 N 435.137 -0.7859 4.56281 0
M  V30 9714 H 437.976 -1.93423 8.4679 0
M  V30 9715 H 438.248 -1.68181 6.71046 0
M  V30 9716 H 437.38 0.289041 8.15388 0
M  V30 9717 P 433.417 1.17771 8.83182 0
M  V30 9718 O 433.197 2.07206 9.98732 0
M  V30 9719 O 432.627 -0.0743816 8.81969 0
M  V30 9720 O 433.167 1.97652 7.47304 0
M  V30 9721 C 434.107 3.01133 7.08783 0
M  V30 9722 C 433.377 4.12613 6.37049 0
M  V30 9723 O 433.167 3.72827 4.97879 0
M  V30 9724 C 431.977 4.45085 6.88694 0
M  V30 9725 O 431.587 5.7877 6.5624 0
M  V30 9726 C 431.097 3.47817 6.12078 0
M  V30 9727 C 431.807 3.39414 4.77697 0
M  V30 9728 N 431.757 2.04615 4.15333 0
M  V30 9729 C 431.837 0.803897 4.75249 0
M  V30 9730 N 431.757 -0.197615 3.91502 0
M  V30 9731 C 431.617 0.413002 2.66823 0
M  V30 9732 C 431.487 -0.157221 1.38007 0
M  V30 9733 N 431.367 0.833136 0.390236 0
M  V30 9734 C 431.367 2.19402 0.623885 0
M  V30 9735 N 431.237 2.97622 -0.449677 0
M  V30 9736 N 431.497 2.73005 1.83601 0
M  V30 9737 C 431.617 1.78786 2.80935 0
M  V30 9738 H 434.596 3.41248 7.98759 0
M  V30 9739 H 434.868 2.5837 6.41742 0
M  V30 9740 H 434 5.02657 6.42673 0
M  V30 9741 P 430.037 6.144 6.45285 0
M  V30 9742 O 429.817 7.54673 6.86199 0
M  V30 9743 O 429.247 5.12391 7.179 0
M  V30 9744 O 429.787 5.99158 4.88404 0
M  V30 9745 C 430.727 6.60234 3.96415 0
M  V30 9746 C 429.997 7.08259 2.72856 0
M  V30 9747 O 429.787 5.9427 1.83651 0
M  V30 9748 C 428.597 7.64886 2.9555 0
M  V30 9749 O 428.207 8.53963 1.90717 0
M  V30 9750 C 427.717 6.4116 2.90739 0
M  V30 9751 C 428.427 5.55375 1.86963 0
M  V30 9752 N 428.377 4.09664 2.15742 0
M  V30 9753 H 431.216 7.45574 4.45629 0
M  V30 9754 H 431.488 5.86232 3.67314 0
M  V30 9755 H 430.62 7.84412 2.24479 0
M  V30 9756 P 426.657 8.7635 1.60911 0
M  V30 9757 O 426.437 10.1388 1.11561 0
M  V30 9758 O 425.867 8.36503 2.79617 0
M  V30 9759 O 426.407 7.71806 0.42951 0
M  V30 9760 C 427.347 7.67148 -0.673689 0
M  V30 9761 C 426.617 7.33374 -1.95559 0
M  V30 9762 O 426.407 5.88721 -2.00726 0
M  V30 9763 C 425.217 7.92526 -2.10483 0
M  V30 9764 O 424.827 8.02971 -3.47653 0
M  V30 9765 C 424.337 6.89602 -1.41652 0
M  V30 9766 C 425.047 5.59201 -1.75185 0
M  V30 9767 N 424.997 4.58301 -0.657969 0
M  V30 9768 C 425.077 4.79019 0.692603 0
M  V30 9769 N 425.007 3.69736 1.38998 0
M  V30 9770 C 424.857 2.70474 0.438135 0
M  V30 9771 C 424.727 1.30327 0.538142 0
M  V30 9772 N 424.717 0.64304 1.69192 0
M  V30 9773 N 424.607 0.611027 -0.605183 0
M  V30 9774 C 424.617 1.27002 -1.75953 0
M  V30 9775 N 424.737 2.56038 -1.98546 0
M  V30 9776 C 424.857 3.22681 -0.822541 0
M  V30 9777 H 427.836 8.65116 -0.777161 0
M  V30 9778 H 428.108 6.9022 -0.46725 0
M  V30 9779 H 427.24 7.66548 -2.79458 0
M  V30 9780 H 424.585 5.16165 -2.65183 0
M  V30 9781 H 424.305 7.06433 -0.329384 0
M  V30 9782 H 423.314 6.90926 -1.82021 0
M  V30 9783 H 425.148 8.90873 -1.62657 0
M  V30 9784 H 425.189 5.77785 1.13874 0
M  V30 9785 H 424.808 1.15585 2.57991 0
M  V30 9786 H 424.619 -0.382989 1.69835 0
M  V30 9787 H 424.511 0.653331 -2.64449 0
M  V30 9788 P 423.278 8.03563 -3.84925 0
M  V30 9789 O 423.058 8.85821 -5.0569 0
M  V30 9790 O 422.488 8.41101 -2.65469 0
M  V30 9791 O 423.028 6.4965 -4.18908 0
M  V30 9792 C 423.968 5.81037 -5.05421 0
M  V30 9793 C 423.238 4.78366 -5.89277 0
M  V30 9794 O 423.028 3.58302 -5.08433 0
M  V30 9795 C 421.838 5.17448 -6.36119 0
M  V30 9796 O 421.448 4.45271 -7.53232 0
M  V30 9797 C 420.958 4.74639 -5.19936 0
M  V30 9798 C 421.668 3.49432 -4.70418 0
M  V30 9799 N 421.618 3.31776 -3.22945 0
M  V30 9800 C 421.698 4.27147 -2.23315 0
M  V30 9801 N 421.618 3.78447 -1.02186 0
M  V30 9802 C 421.478 2.41001 -1.21732 0
M  V30 9803 C 421.348 1.36111 -0.27694 0
M  V30 9804 N 421.228 0.113683 -0.912949 0
M  V30 9805 C 421.228 -0.0846396 -2.27943 0
M  V30 9806 N 421.098 -1.34737 -2.6916 0
M  V30 9807 N 421.358 0.902521 -3.16379 0
M  V30 9808 C 421.478 2.11937 -2.56849 0
M  V30 9809 H 424.457 6.54213 -5.71376 0
M  V30 9810 H 424.729 5.30492 -4.44033 0
M  V30 9811 H 423.861 4.55889 -6.76652 0
M  V30 9812 P 419.898 4.23843 -7.83734 0
M  V30 9813 O 419.678 4.19407 -9.29784 0
M  V30 9814 O 419.108 5.24426 -7.09156 0
M  V30 9815 O 419.648 2.7935 -7.20758 0
M  V30 9816 C 420.588 1.7299 -7.50419 0
M  V30 9817 C 419.858 0.406376 -7.57911 0
M  V30 9818 O 419.648 -0.0897726 -6.21935 0
M  V30 9819 C 418.458 0.447224 -8.1878 0
M  V30 9820 O 418.068 -0.825065 -8.71101 0
M  V30 9821 C 417.578 0.783801 -6.99623 0
M  V30 9822 C 418.288 0.0619192 -5.85967 0
M  V30 9823 N 418.238 0.7859 -4.56281 0
M  V30 9824 H 421.077 1.93423 -8.4679 0
M  V30 9825 H 421.349 1.68181 -6.71046 0
M  V30 9826 H 420.481 -0.289041 -8.15388 0
M  V30 9827 P 416.518 -1.17771 -8.83182 0
M  V30 9828 O 416.298 -2.07206 -9.98732 0
M  V30 9829 O 415.728 0.0743816 -8.81969 0
M  V30 9830 O 416.268 -1.97652 -7.47304 0
M  V30 9831 C 417.208 -3.01133 -7.08783 0
M  V30 9832 C 416.478 -4.12613 -6.37049 0
M  V30 9833 O 416.268 -3.72827 -4.97879 0
M  V30 9834 C 415.078 -4.45085 -6.88694 0
M  V30 9835 O 414.688 -5.7877 -6.5624 0
M  V30 9836 C 414.198 -3.47817 -6.12078 0
M  V30 9837 C 414.908 -3.39414 -4.77697 0
M  V30 9838 N 414.858 -2.04199 -4.15538 0
M  V30 9839 H 417.697 -3.41248 -7.98759 0
M  V30 9840 H 417.969 -2.57728 -6.42 0
M  V30 9841 H 417.101 -5.02657 -6.42673 0
M  V30 9842 H 414.446 -4.11708 -4.08956 0
M  V30 9843 H 414.166 -2.49626 -6.61679 0
M  V30 9844 H 413.175 -3.8662 -6.00862 0
M  V30 9845 H 415.009 -4.29991 -7.97006 0
M  V30 9846 P 413.138 -6.144 -6.45285 0
M  V30 9847 O 412.918 -7.54673 -6.86199 0
M  V30 9848 O 412.348 -5.12391 -7.179 0
M  V30 9849 O 412.888 -5.99158 -4.88404 0
M  V30 9850 C 413.828 -6.60062 -3.96313 0
M  V30 9851 C 413.098 -7.08259 -2.72856 0
M  V30 9852 O 412.888 -5.9427 -1.83651 0
M  V30 9853 C 411.698 -7.65087 -2.94749 0
M  V30 9854 O 411.308 -8.53963 -1.90717 0
M  V30 9855 C 410.818 -6.41069 -2.90698 0
M  V30 9856 C 411.528 -5.5528 -1.86931 0
M  V30 9857 N 411.478 -4.09575 -2.15696 0
M  V30 9858 C 411.328 -3.24249 -1.08435 0
M  V30 9859 O 411.238 -3.63946 0.0628747 0
M  V30 9860 N 411.288 -1.90009 -1.39973 0
M  V30 9861 C 411.378 -1.34884 -2.65614 0
M  V30 9862 C 411.528 -2.3145 -3.71736 0
M  V30 9863 C 411.578 -3.63518 -3.44754 0
M  V30 9864 H 414.319 -7.45402 -4.45526 0
M  V30 9865 H 414.588 -5.86062 -3.67208 0
M  V30 9866 H 413.721 -7.84412 -2.24479 0
M  V30 9867 H 411.066 -5.73358 -0.888409 0
M  V30 9868 H 410.787 -5.90877 -3.88583 0
M  V30 9869 H 409.795 -6.65867 -2.58821 0
M  V30 9870 H 411.629 -8.16248 -3.92006 0
M  V30 9871 H 411.7 -4.34551 -4.26383 0
M  V30 9872 P 409.758 -8.7635 -1.60911 0
M  V30 9873 O 409.538 -10.1388 -1.11561 0
M  V30 9874 O 408.968 -8.36503 -2.79617 0
M  V30 9875 O 409.508 -7.71806 -0.42951 0
M  V30 9876 C 410.448 -7.67148 0.673689 0
M  V30 9877 C 409.718 -7.33374 1.95559 0
M  V30 9878 O 409.508 -5.88721 2.00726 0
M  V30 9879 C 408.318 -7.92526 2.10483 0
M  V30 9880 O 407.928 -8.02971 3.47653 0
M  V30 9881 C 407.438 -6.89602 1.41652 0
M  V30 9882 C 408.148 -5.59201 1.75185 0
M  V30 9883 N 408.098 -4.58235 0.662552 0
M  V30 9884 H 410.937 -8.65116 0.777161 0
M  V30 9885 H 411.209 -6.90173 0.474152 0
M  V30 9886 H 410.341 -7.66548 2.79458 0
M  V30 9887 P 406.378 -8.03563 3.84925 0
M  V30 9888 O 406.158 -8.85821 5.0569 0
M  V30 9889 O 405.588 -8.41101 2.65469 0
M  V30 9890 O 406.128 -6.4965 4.18908 0
M  V30 9891 C 407.068 -5.81037 5.05421 0
M  V30 9892 C 406.338 -4.78366 5.89277 0
M  V30 9893 O 406.128 -3.58302 5.08433 0
M  V30 9894 C 404.938 -5.17448 6.36119 0
M  V30 9895 O 404.548 -4.45271 7.53232 0
M  V30 9896 C 404.058 -4.74639 5.19936 0
M  V30 9897 C 404.768 -3.49432 4.70418 0
M  V30 9898 N 404.718 -3.31776 3.22945 0
M  V30 9899 H 407.557 -6.54213 5.71376 0
M  V30 9900 H 407.829 -5.30492 4.44033 0
M  V30 9901 H 406.961 -4.55889 6.76652 0
M  V30 9902 P 402.998 -4.23843 7.83734 0
M  V30 9903 O 402.778 -4.19407 9.29784 0
M  V30 9904 O 402.208 -5.24426 7.09156 0
M  V30 9905 O 402.748 -2.7935 7.20758 0
M  V30 9906 C 403.688 -1.72945 7.50224 0
M  V30 9907 C 402.958 -0.406376 7.57911 0
M  V30 9908 O 402.748 0.0897726 6.21935 0
M  V30 9909 C 401.558 -0.438983 8.18724 0
M  V30 9910 O 401.168 0.825065 8.71101 0
M  V30 9911 C 400.678 -0.783689 6.99524 0
M  V30 9912 C 401.388 -0.0619086 5.85867 0
M  V30 9913 N 401.338 -0.78573 4.56183 0
M  V30 9914 C 401.188 -0.0292889 3.41887 0
M  V30 9915 O 401.098 1.18445 3.4419 0
M  V30 9916 N 401.148 -0.744061 2.23964 0
M  V30 9917 C 401.238 -2.10932 2.10362 0
M  V30 9918 O 401.188 -2.64117 0.98825 0
M  V30 9919 C 401.388 -2.8202 3.34994 0
M  V30 9920 C 401.498 -4.31095 3.25037 0
M  V30 9921 C 401.438 -2.15547 4.52261 0
M  V30 9922 H 404.179 -1.93379 8.46595 0
M  V30 9923 H 404.448 -1.68132 6.70852 0
M  V30 9924 H 403.581 0.289041 8.15388 0
M  V30 9925 H 400.926 0.926847 5.72749 0
M  V30 9926 H 400.647 -1.86973 6.82036 0
M  V30 9927 H 399.655 -0.403896 7.13257 0
M  V30 9928 H 401.489 -1.20585 8.97435 0
M  V30 9929 H 401.56 -2.71231 5.45042 0
M  V30 9930 H 400.53 -4.76966 3.49992 0
M  V30 9931 H 402.267 -4.67047 3.95024 0
M  V30 9932 H 401.779 -4.58996 2.22312 0
M  V30 9933 H 401.043 -0.214893 1.39758 0
M  V30 9934 P 399.618 1.17771 8.83182 0
M  V30 9935 O 399.398 2.07206 9.98732 0
M  V30 9936 O 398.828 -0.0743816 8.81969 0
M  V30 9937 O 399.368 1.97652 7.47304 0
M  V30 9938 C 400.308 3.01133 7.08783 0
M  V30 9939 C 399.578 4.12613 6.37049 0
M  V30 9940 O 399.368 3.72827 4.97879 0
M  V30 9941 C 398.178 4.45085 6.88694 0
M  V30 9942 O 397.788 5.7877 6.5624 0
M  V30 9943 C 397.298 3.47817 6.12078 0
M  V30 9944 C 398.008 3.39414 4.77697 0
M  V30 9945 N 397.958 2.04615 4.15333 0
M  V30 9946 H 400.797 3.41248 7.98759 0
M  V30 9947 H 401.069 2.5837 6.41742 0
M  V30 9948 H 400.201 5.02657 6.42673 0
M  V30 9949 P 396.238 6.144 6.45285 0
M  V30 9950 O 396.018 7.54673 6.86199 0
M  V30 9951 O 395.448 5.12391 7.179 0
M  V30 9952 O 395.988 5.99158 4.88404 0
M  V30 9953 C 396.928 6.60234 3.96415 0
M  V30 9954 C 396.198 7.08259 2.72856 0
M  V30 9955 O 395.988 5.9427 1.83651 0
M  V30 9956 C 394.798 7.64886 2.9555 0
M  V30 9957 O 394.408 8.53963 1.90717 0
M  V30 9958 C 393.918 6.4116 2.90739 0
M  V30 9959 C 394.628 5.55375 1.86963 0
M  V30 9960 N 394.578 4.09664 2.15742 0
M  V30 9961 H 397.417 7.45574 4.45629 0
M  V30 9962 H 397.689 5.86232 3.67314 0
M  V30 9963 H 396.821 7.84412 2.24479 0
M  V30 9964 P 392.858 8.7635 1.60911 0
M  V30 9965 O 392.638 10.1388 1.11561 0
M  V30 9966 O 392.068 8.36503 2.79617 0
M  V30 9967 O 392.608 7.71906 0.429565 0
M  V30 9968 C 393.548 7.67148 -0.673689 0
M  V30 9969 C 392.818 7.33666 -1.94851 0
M  V30 9970 O 392.608 5.88816 -2.00759 0
M  V30 9971 C 391.418 7.92526 -2.10483 0
M  V30 9972 O 391.028 8.03063 -3.47693 0
M  V30 9973 C 390.538 6.89602 -1.41652 0
M  V30 9974 C 391.248 5.59201 -1.75185 0
M  V30 9975 N 391.198 4.58235 -0.662552 0
M  V30 9976 C 391.048 3.24451 -1.01643 0
M  V30 9977 O 390.958 2.94958 -2.21722 0
M  V30 9978 N 390.998 2.30408 0.165238 0
M  V30 9979 C 391.098 2.66048 1.25118 0
M  V30 9980 N 391.048 1.70787 2.16813 0
M  V30 9981 C 391.248 4.02732 1.64413 0
M  V30 9982 C 391.298 4.9488 0.63991 0
M  V30 9983 H 394.038 8.65017 -0.777072 0
M  V30 9984 H 394.308 6.90173 -0.474152 0
M  V30 9985 H 393.441 7.66642 -2.79492 0
M  V30 9986 H 390.786 5.16254 -2.65229 0
M  V30 9987 H 390.506 7.06532 -0.329431 0
M  V30 9988 H 389.515 6.91023 -1.82047 0
M  V30 9989 H 391.349 8.90873 -1.62657 0
M  V30 9990 H 391.421 6.00104 0.892197 0
M  V30 9991 H 391.319 4.31733 2.69229 0
M  V30 9992 H 390.931 0.724835 1.8844 0
M  V30 9993 H 391.127 1.94716 3.16734 0
M  V30 9994 P 389.478 8.03563 -3.84925 0
M  V30 9995 O 389.258 8.85821 -5.0569 0
M  V30 9996 O 388.688 8.41101 -2.65469 0
M  V30 9997 O 389.228 6.4965 -4.18908 0
M  V30 9998 C 390.168 5.81037 -5.05421 0
M  V30 9999 C 389.438 4.78366 -5.89277 0
M  V30 10000 O 389.228 3.58302 -5.08433 0
M  V30 10001 C 388.038 5.17448 -6.36119 0
M  V30 10002 O 387.648 4.45271 -7.53232 0
M  V30 10003 C 387.158 4.74639 -5.19936 0
M  V30 10004 C 387.868 3.49432 -4.70418 0
M  V30 10005 N 387.818 3.31776 -3.22945 0
M  V30 10006 H 390.657 6.54213 -5.71376 0
M  V30 10007 H 390.929 5.30492 -4.44033 0
M  V30 10008 H 390.061 4.55889 -6.76652 0
M  V30 10009 P 386.098 4.23843 -7.83734 0
M  V30 10010 O 385.878 4.19407 -9.29784 0
M  V30 10011 O 385.308 5.24426 -7.09156 0
M  V30 10012 O 385.848 2.7935 -7.20758 0
M  V30 10013 C 386.788 1.7299 -7.50419 0
M  V30 10014 C 386.058 0.406376 -7.57911 0
M  V30 10015 O 385.848 -0.0897726 -6.21935 0
M  V30 10016 C 384.658 0.447224 -8.1878 0
M  V30 10017 O 384.268 -0.825065 -8.71101 0
M  V30 10018 C 383.778 0.783801 -6.99623 0
M  V30 10019 C 384.488 0.0619192 -5.85967 0
M  V30 10020 N 384.438 0.7859 -4.56281 0
M  V30 10021 H 387.277 1.93423 -8.4679 0
M  V30 10022 H 387.549 1.68181 -6.71046 0
M  V30 10023 H 386.681 -0.289041 -8.15388 0
M  V30 10024 P 382.718 -1.17771 -8.83182 0
M  V30 10025 O 382.498 -2.07206 -9.98732 0
M  V30 10026 O 381.928 0.0743816 -8.81969 0
M  V30 10027 O 382.468 -1.97652 -7.47304 0
M  V30 10028 C 383.408 -3.01133 -7.08783 0
M  V30 10029 C 382.678 -4.12613 -6.37049 0
M  V30 10030 O 382.468 -3.72827 -4.97879 0
M  V30 10031 C 381.278 -4.45085 -6.88694 0
M  V30 10032 O 380.888 -5.7877 -6.5624 0
M  V30 10033 C 380.398 -3.47817 -6.12078 0
M  V30 10034 C 381.108 -3.39414 -4.77697 0
M  V30 10035 N 381.058 -2.04199 -4.15538 0
M  V30 10036 H 383.897 -3.41248 -7.98759 0
M  V30 10037 H 384.169 -2.57728 -6.42 0
M  V30 10038 H 383.301 -5.02657 -6.42673 0
M  V30 10039 H 380.646 -4.11708 -4.08956 0
M  V30 10040 H 380.366 -2.49626 -6.61679 0
M  V30 10041 H 379.375 -3.8662 -6.00862 0
M  V30 10042 H 381.209 -4.29991 -7.97006 0
M  V30 10043 P 379.338 -6.144 -6.45285 0
M  V30 10044 O 379.118 -7.54673 -6.86199 0
M  V30 10045 O 378.548 -5.12391 -7.179 0
M  V30 10046 O 379.088 -5.99158 -4.88404 0
M  V30 10047 C 380.028 -6.60234 -3.96415 0
M  V30 10048 C 379.298 -7.08259 -2.72856 0
M  V30 10049 O 379.088 -5.9427 -1.83651 0
M  V30 10050 C 377.898 -7.64886 -2.9555 0
M  V30 10051 O 377.508 -8.53963 -1.90717 0
M  V30 10052 C 377.018 -6.4116 -2.90739 0
M  V30 10053 C 377.728 -5.55375 -1.86963 0
M  V30 10054 N 377.678 -4.09664 -2.15742 0
M  V30 10055 H 380.517 -7.45574 -4.45629 0
M  V30 10056 H 380.789 -5.86232 -3.67314 0
M  V30 10057 H 379.921 -7.84412 -2.24479 0
M  V30 10058 P 375.958 -8.7635 -1.60911 0
M  V30 10059 O 375.738 -10.1388 -1.11561 0
M  V30 10060 O 375.168 -8.36503 -2.79617 0
M  V30 10061 O 375.708 -7.71806 -0.42951 0
M  V30 10062 C 376.648 -7.67148 0.673689 0
M  V30 10063 C 375.918 -7.33374 1.95559 0
M  V30 10064 O 375.708 -5.88721 2.00726 0
M  V30 10065 C 374.518 -7.92526 2.10483 0
M  V30 10066 O 374.128 -8.02971 3.47653 0
M  V30 10067 C 373.638 -6.89602 1.41652 0
M  V30 10068 C 374.348 -5.59201 1.75185 0
M  V30 10069 N 374.298 -4.58235 0.662552 0
M  V30 10070 H 377.137 -8.65116 0.777161 0
M  V30 10071 H 377.409 -6.90173 0.474152 0
M  V30 10072 H 376.541 -7.66548 2.79458 0
M  V30 10073 P 372.578 -8.03563 3.84925 0
M  V30 10074 O 372.358 -8.85821 5.0569 0
M  V30 10075 O 371.788 -8.41101 2.65469 0
M  V30 10076 O 372.328 -6.4965 4.18908 0
M  V30 10077 C 373.268 -5.81037 5.05421 0
M  V30 10078 C 372.538 -4.78366 5.89277 0
M  V30 10079 O 372.328 -3.58302 5.08433 0
M  V30 10080 C 371.138 -5.17448 6.36119 0
M  V30 10081 O 370.748 -4.45271 7.53232 0
M  V30 10082 C 370.258 -4.74639 5.19936 0
M  V30 10083 C 370.968 -3.49432 4.70418 0
M  V30 10084 N 370.918 -3.31776 3.22945 0
M  V30 10085 C 370.998 -4.27147 2.23315 0
M  V30 10086 N 370.918 -3.78447 1.02186 0
M  V30 10087 C 370.778 -2.41001 1.21732 0
M  V30 10088 C 370.648 -1.36111 0.27694 0
M  V30 10089 N 370.528 -0.113683 0.912949 0
M  V30 10090 C 370.528 0.0846396 2.27943 0
M  V30 10091 N 370.398 1.34737 2.6916 0
M  V30 10092 N 370.658 -0.902521 3.16379 0
M  V30 10093 C 370.778 -2.11937 2.56849 0
M  V30 10094 H 373.757 -6.54213 5.71376 0
M  V30 10095 H 374.029 -5.30492 4.44033 0
M  V30 10096 H 373.161 -4.55889 6.76652 0
M  V30 10097 P 369.198 -4.23843 7.83734 0
M  V30 10098 O 368.978 -4.19407 9.29784 0
M  V30 10099 O 368.408 -5.24426 7.09156 0
M  V30 10100 O 368.948 -2.7935 7.20758 0
M  V30 10101 C 369.888 -1.7299 7.50419 0
M  V30 10102 C 369.158 -0.406376 7.57911 0
M  V30 10103 O 368.948 0.0897726 6.21935 0
M  V30 10104 C 367.758 -0.447224 8.1878 0
M  V30 10105 O 367.368 0.825065 8.71101 0
M  V30 10106 C 366.878 -0.783801 6.99623 0
M  V30 10107 C 367.588 -0.0619192 5.85967 0
M  V30 10108 N 367.538 -0.7859 4.56281 0
M  V30 10109 H 370.377 -1.93423 8.4679 0
M  V30 10110 H 370.649 -1.68181 6.71046 0
M  V30 10111 H 369.781 0.289041 8.15388 0
M  V30 10112 P 365.818 1.17771 8.83182 0
M  V30 10113 O 365.598 2.07206 9.98732 0
M  V30 10114 O 365.028 -0.0743816 8.81969 0
M  V30 10115 O 365.568 1.97652 7.47304 0
M  V30 10116 C 366.508 3.01133 7.08783 0
M  V30 10117 C 365.778 4.12613 6.37049 0
M  V30 10118 O 365.568 3.72827 4.97879 0
M  V30 10119 C 364.378 4.45085 6.88694 0
M  V30 10120 O 363.988 5.7877 6.5624 0
M  V30 10121 C 363.498 3.47817 6.12078 0
M  V30 10122 C 364.208 3.39414 4.77697 0
M  V30 10123 N 364.158 2.04199 4.15538 0
M  V30 10124 H 366.997 3.41248 7.98759 0
M  V30 10125 H 367.269 2.57728 6.42 0
M  V30 10126 H 366.401 5.02657 6.42673 0
M  V30 10127 H 363.746 4.11708 4.08956 0
M  V30 10128 H 363.466 2.49626 6.61679 0
M  V30 10129 H 362.475 3.8662 6.00862 0
M  V30 10130 H 364.309 4.29991 7.97006 0
M  V30 10131 P 362.438 6.144 6.45285 0
M  V30 10132 O 362.218 7.54673 6.86199 0
M  V30 10133 O 361.648 5.12391 7.179 0
M  V30 10134 O 362.188 5.99236 4.88467 0
M  V30 10135 C 363.128 6.60234 3.96415 0
M  V30 10136 C 362.398 7.08079 2.736 0
M  V30 10137 O 362.188 5.94365 1.8368 0
M  V30 10138 C 360.998 7.64886 2.9555 0
M  V30 10139 O 360.608 8.5406 1.90739 0
M  V30 10140 C 360.118 6.4116 2.90739 0
M  V30 10141 C 360.828 5.55375 1.86963 0
M  V30 10142 N 360.778 4.09664 2.15742 0
M  V30 10143 C 360.628 3.22231 1.08477 0
M  V30 10144 O 360.538 3.68951 -0.0600489 0
M  V30 10145 N 360.578 1.76692 1.48799 0
M  V30 10146 C 360.678 1.41695 2.57602 0
M  V30 10147 N 360.628 0.107296 2.75791 0
M  V30 10148 C 360.828 2.29178 3.69733 0
M  V30 10149 C 360.878 3.62753 3.42653 0
M  V30 10150 H 363.618 7.45488 4.45578 0
M  V30 10151 H 363.888 5.86232 3.67314 0
M  V30 10152 H 363.021 7.84508 2.24507 0
M  V30 10153 H 360.366 5.73556 0.888715 0
M  V30 10154 H 360.086 5.9096 3.88638 0
M  V30 10155 H 359.095 6.66053 2.58894 0
M  V30 10156 H 360.929 8.16339 3.92049 0
M  V30 10157 H 361.001 4.33052 4.24913 0
M  V30 10158 H 360.899 1.9103 4.71577 0
M  V30 10159 H 360.511 -0.521221 1.95056 0
M  V30 10160 H 360.707 -0.286429 3.70695 0
M  V30 10161 P 359.058 8.7635 1.60911 0
M  V30 10162 O 358.838 10.1388 1.11561 0
M  V30 10163 O 358.268 8.36503 2.79617 0
M  V30 10164 O 358.808 7.71806 0.42951 0
M  V30 10165 C 359.748 7.67148 -0.673689 0
M  V30 10166 C 359.018 7.33374 -1.95559 0
M  V30 10167 O 358.808 5.88721 -2.00726 0
M  V30 10168 C 357.618 7.92526 -2.10483 0
M  V30 10169 O 357.228 8.02971 -3.47653 0
M  V30 10170 C 356.738 6.89602 -1.41652 0
M  V30 10171 C 357.448 5.59201 -1.75185 0
M  V30 10172 N 357.398 4.58235 -0.662552 0
M  V30 10173 H 360.237 8.65116 -0.777161 0
M  V30 10174 H 360.509 6.90173 -0.474152 0
M  V30 10175 H 359.641 7.66548 -2.79458 0
M  V30 10176 P 355.678 8.03563 -3.84925 0
M  V30 10177 O 355.458 8.85821 -5.0569 0
M  V30 10178 O 354.888 8.41101 -2.65469 0
M  V30 10179 O 355.428 6.4965 -4.18908 0
M  V30 10180 C 356.368 5.81037 -5.05421 0
M  V30 10181 C 355.638 4.78366 -5.89277 0
M  V30 10182 O 355.428 3.58302 -5.08433 0
M  V30 10183 C 354.238 5.17448 -6.36119 0
M  V30 10184 O 353.848 4.45271 -7.53232 0
M  V30 10185 C 353.358 4.74639 -5.19936 0
M  V30 10186 C 354.068 3.49432 -4.70418 0
M  V30 10187 N 354.018 3.31776 -3.22945 0
M  V30 10188 H 356.857 6.54213 -5.71376 0
M  V30 10189 H 357.129 5.30492 -4.44033 0
M  V30 10190 H 356.261 4.55889 -6.76652 0
M  V30 10191 P 352.298 4.23843 -7.83734 0
M  V30 10192 O 352.078 4.19407 -9.29784 0
M  V30 10193 O 351.508 5.24426 -7.09156 0
M  V30 10194 O 352.048 2.79386 -7.20852 0
M  V30 10195 C 352.988 1.7299 -7.50419 0
M  V30 10196 C 352.258 0.41401 -7.5797 0
M  V30 10197 O 352.048 -0.089787 -6.22035 0
M  V30 10198 C 350.858 0.447224 -8.1878 0
M  V30 10199 O 350.468 -0.825159 -8.71201 0
M  V30 10200 C 349.978 0.783801 -6.99623 0
M  V30 10201 C 350.688 0.0619192 -5.85967 0
M  V30 10202 N 350.638 0.7859 -4.56281 0
M  V30 10203 C 350.488 0.0359258 -3.39981 0
M  V30 10204 O 350.398 -1.19723 -3.49038 0
M  V30 10205 N 350.438 0.869151 -2.14025 0
M  V30 10206 C 350.538 2.01207 -2.14363 0
M  V30 10207 N 350.488 2.58978 -0.954287 0
M  V30 10208 C 350.688 2.80817 -3.32215 0
M  V30 10209 C 350.738 2.13785 -4.50884 0
M  V30 10210 H 353.478 1.93401 -8.46693 0
M  V30 10211 H 353.748 1.68181 -6.71046 0
M  V30 10212 H 352.881 -0.289076 -8.15488 0
M  V30 10213 H 350.226 -0.927166 -5.72947 0
M  V30 10214 H 349.946 1.87 -6.82132 0
M  V30 10215 H 348.955 0.404009 -7.13457 0
M  V30 10216 H 350.789 1.20599 -8.97534 0
M  V30 10217 H 350.861 2.70295 -5.43162 0
M  V30 10218 H 350.759 3.89465 -3.27406 0
M  V30 10219 H 350.371 2.01616 -0.107046 0
M  V30 10220 H 350.567 3.61403 -0.873101 0
M  V30 10221 P 348.918 -1.17771 -8.83182 0
M  V30 10222 O 348.698 -2.07206 -9.98732 0
M  V30 10223 O 348.128 0.0743816 -8.81969 0
M  V30 10224 O 348.668 -1.97652 -7.47304 0
M  V30 10225 C 349.608 -3.01133 -7.08783 0
M  V30 10226 C 348.878 -4.12613 -6.37049 0
M  V30 10227 O 348.668 -3.72827 -4.97879 0
M  V30 10228 C 347.478 -4.45085 -6.88694 0
M  V30 10229 O 347.088 -5.7877 -6.5624 0
M  V30 10230 C 346.598 -3.47817 -6.12078 0
M  V30 10231 C 347.308 -3.39414 -4.77697 0
M  V30 10232 N 347.258 -2.04199 -4.15538 0
M  V30 10233 H 350.097 -3.41248 -7.98759 0
M  V30 10234 H 350.369 -2.57728 -6.42 0
M  V30 10235 H 349.501 -5.02657 -6.42673 0
M  V30 10236 H 346.846 -4.11708 -4.08956 0
M  V30 10237 H 346.566 -2.49626 -6.61679 0
M  V30 10238 H 345.575 -3.8662 -6.00862 0
M  V30 10239 H 347.409 -4.29991 -7.97006 0
M  V30 10240 P 345.538 -6.144 -6.45285 0
M  V30 10241 O 345.318 -7.54673 -6.86199 0
M  V30 10242 O 344.748 -5.12391 -7.179 0
M  V30 10243 O 345.288 -5.99158 -4.88404 0
M  V30 10244 C 346.228 -6.60234 -3.96415 0
M  V30 10245 C 345.498 -7.08259 -2.72856 0
M  V30 10246 O 345.288 -5.9427 -1.83651 0
M  V30 10247 C 344.098 -7.64886 -2.9555 0
M  V30 10248 O 343.708 -8.53963 -1.90717 0
M  V30 10249 C 343.218 -6.4116 -2.90739 0
M  V30 10250 C 343.928 -5.55375 -1.86963 0
M  V30 10251 N 343.878 -4.09664 -2.15742 0
M  V30 10252 H 346.717 -7.45574 -4.45629 0
M  V30 10253 H 346.989 -5.86232 -3.67314 0
M  V30 10254 H 346.121 -7.84412 -2.24479 0
M  V30 10255 P 342.158 -8.7635 -1.60911 0
M  V30 10256 O 341.938 -10.1388 -1.11561 0
M  V30 10257 O 341.368 -8.36503 -2.79617 0
M  V30 10258 O 341.908 -7.71806 -0.42951 0
M  V30 10259 C 342.848 -7.67148 0.673689 0
M  V30 10260 C 342.118 -7.33374 1.95559 0
M  V30 10261 O 341.908 -5.88721 2.00726 0
M  V30 10262 C 340.718 -7.92526 2.10483 0
M  V30 10263 O 340.328 -8.02971 3.47653 0
M  V30 10264 C 339.838 -6.89602 1.41652 0
M  V30 10265 C 340.548 -5.59201 1.75185 0
M  V30 10266 N 340.498 -4.58235 0.662552 0
M  V30 10267 H 343.337 -8.65116 0.777161 0
M  V30 10268 H 343.609 -6.90173 0.474152 0
M  V30 10269 H 342.741 -7.66548 2.79458 0
M  V30 10270 P 338.778 -8.03563 3.84925 0
M  V30 10271 O 338.558 -8.85821 5.0569 0
M  V30 10272 O 337.988 -8.41101 2.65469 0
M  V30 10273 O 338.528 -6.4965 4.18908 0
M  V30 10274 C 339.468 -5.81037 5.05421 0
M  V30 10275 C 338.738 -4.78366 5.89277 0
M  V30 10276 O 338.528 -3.58302 5.08433 0
M  V30 10277 C 337.338 -5.17448 6.36119 0
M  V30 10278 O 336.948 -4.45271 7.53232 0
M  V30 10279 C 336.458 -4.74639 5.19936 0
M  V30 10280 C 337.168 -3.49432 4.70418 0
M  V30 10281 N 337.118 -3.32099 3.22613 0
M  V30 10282 H 339.957 -6.54213 5.71376 0
M  V30 10283 H 340.229 -5.30936 4.43503 0
M  V30 10284 H 339.361 -4.55889 6.76652 0
M  V30 10285 H 336.706 -2.61715 5.17932 0
M  V30 10286 H 336.426 -5.52155 4.41878 0
M  V30 10287 H 335.435 -4.51981 5.53374 0
M  V30 10288 H 337.269 -6.25124 6.55234 0
M  V30 10289 P 335.398 -4.23843 7.83734 0
M  V30 10290 O 335.178 -4.19407 9.29784 0
M  V30 10291 O 334.608 -5.24426 7.09156 0
M  V30 10292 O 335.148 -2.7935 7.20758 0
M  V30 10293 C 336.088 -1.7299 7.50419 0
M  V30 10294 C 335.358 -0.406376 7.57911 0
M  V30 10295 O 335.148 0.0897726 6.21935 0
M  V30 10296 C 333.958 -0.447224 8.1878 0
M  V30 10297 O 333.568 0.825065 8.71101 0
M  V30 10298 C 333.078 -0.783801 6.99623 0
M  V30 10299 C 333.788 -0.0619192 5.85967 0
M  V30 10300 N 333.738 -0.790462 4.56202 0
M  V30 10301 H 336.577 -1.93423 8.4679 0
M  V30 10302 H 336.849 -1.68852 6.70877 0
M  V30 10303 H 335.981 0.289041 8.15388 0
M  V30 10304 H 333.326 0.927006 5.72848 0
M  V30 10305 H 333.046 -1.86973 6.82036 0
M  V30 10306 H 332.055 -0.403953 7.13357 0
M  V30 10307 H 333.889 -1.20599 8.97534 0
M  V30 10308 P 332.018 1.17771 8.83182 0
M  V30 10309 O 331.798 2.07206 9.98732 0
M  V30 10310 O 331.228 -0.0743816 8.81969 0
M  V30 10311 O 331.768 1.97652 7.47304 0
M  V30 10312 C 332.708 3.01133 7.08783 0
M  V30 10313 C 331.978 4.12613 6.37049 0
M  V30 10314 O 331.768 3.72827 4.97879 0
M  V30 10315 C 330.578 4.45085 6.88694 0
M  V30 10316 O 330.188 5.7877 6.5624 0
M  V30 10317 C 329.698 3.47817 6.12078 0
M  V30 10318 C 330.408 3.39414 4.77697 0
M  V30 10319 N 330.358 2.04615 4.15333 0
M  V30 10320 H 333.197 3.41248 7.98759 0
M  V30 10321 H 333.469 2.5837 6.41742 0
M  V30 10322 H 332.601 5.02657 6.42673 0
M  V30 10323 P 328.638 6.144 6.45285 0
M  V30 10324 O 328.418 7.54673 6.86199 0
M  V30 10325 O 327.848 5.12391 7.179 0
M  V30 10326 O 328.388 5.99158 4.88404 0
M  V30 10327 C 329.328 6.60234 3.96415 0
M  V30 10328 C 328.598 7.08259 2.72856 0
M  V30 10329 O 328.388 5.9427 1.83651 0
M  V30 10330 C 327.198 7.64886 2.9555 0
M  V30 10331 O 326.808 8.53963 1.90717 0
M  V30 10332 C 326.318 6.4116 2.90739 0
M  V30 10333 C 327.028 5.55375 1.86963 0
M  V30 10334 N 326.978 4.09448 2.16152 0
M  V30 10335 H 329.817 7.45574 4.45629 0
M  V30 10336 H 330.089 5.85864 3.679 0
M  V30 10337 H 329.221 7.84412 2.24479 0
M  V30 10338 H 326.566 5.73457 0.888562 0
M  V30 10339 H 326.286 5.90877 3.88583 0
M  V30 10340 H 325.295 6.6596 2.58858 0
M  V30 10341 H 327.129 8.16339 3.92049 0
M  V30 10342 P 325.258 8.7635 1.60911 0
M  V30 10343 O 325.038 10.1388 1.11561 0
M  V30 10344 O 324.468 8.36503 2.79617 0
M  V30 10345 O 325.008 7.71806 0.42951 0
M  V30 10346 C 325.948 7.67148 -0.673689 0
M  V30 10347 C 325.218 7.33374 -1.95559 0
M  V30 10348 O 325.008 5.88721 -2.00726 0
M  V30 10349 C 323.818 7.92526 -2.10483 0
M  V30 10350 O 323.428 8.02971 -3.47653 0
M  V30 10351 C 322.938 6.89602 -1.41652 0
M  V30 10352 C 323.648 5.59201 -1.75185 0
M  V30 10353 N 323.598 4.58235 -0.662552 0
M  V30 10354 H 326.437 8.65116 -0.777161 0
M  V30 10355 H 326.709 6.90173 -0.474152 0
M  V30 10356 H 325.841 7.66548 -2.79458 0
M  V30 10357 P 321.878 8.03563 -3.84925 0
M  V30 10358 O 321.658 8.85821 -5.0569 0
M  V30 10359 O 321.088 8.41101 -2.65469 0
M  V30 10360 O 321.628 6.49734 -4.18962 0
M  V30 10361 C 322.568 5.81037 -5.05421 0
M  V30 10362 C 321.838 4.79018 -5.88876 0
M  V30 10363 O 321.628 3.58359 -5.08515 0
M  V30 10364 C 320.438 5.17448 -6.36119 0
M  V30 10365 O 320.048 4.45322 -7.53318 0
M  V30 10366 C 319.558 4.74639 -5.19936 0
M  V30 10367 C 320.268 3.49432 -4.70418 0
M  V30 10368 N 320.218 3.31776 -3.22945 0
M  V30 10369 C 320.068 2.02742 -2.72939 0
M  V30 10370 O 319.978 1.08301 -3.52749 0
M  V30 10371 N 320.018 1.96117 -1.22063 0
M  V30 10372 C 320.118 2.8878 -0.551566 0
M  V30 10373 N 320.068 2.65609 0.750198 0
M  V30 10374 C 320.268 4.22457 -1.03707 0
M  V30 10375 C 320.318 4.37979 -2.39113 0
M  V30 10376 H 323.058 6.54138 -5.7131 0
M  V30 10377 H 323.328 5.30492 -4.44033 0
M  V30 10378 H 322.461 4.55945 -6.76735 0
M  V30 10379 H 319.806 2.6176 -5.18021 0
M  V30 10380 H 319.526 5.52233 -4.41941 0
M  V30 10381 H 318.535 4.52045 -5.53452 0
M  V30 10382 H 320.369 6.25124 -6.55234 0
M  V30 10383 H 320.441 5.37936 -2.80552 0
M  V30 10384 H 320.339 5.07528 -0.359553 0
M  V30 10385 H 319.951 1.69403 1.09847 0
M  V30 10386 H 320.147 3.43701 1.41792 0
M  V30 10387 P 318.498 4.23843 -7.83734 0
M  V30 10388 O 318.278 4.19407 -9.29784 0
M  V30 10389 O 317.708 5.24426 -7.09156 0
M  V30 10390 O 318.248 2.7935 -7.20758 0
M  V30 10391 C 319.188 1.7299 -7.50419 0
M  V30 10392 C 318.458 0.406376 -7.57911 0
M  V30 10393 O 318.248 -0.0897726 -6.21935 0
M  V30 10394 C 317.058 0.447224 -8.1878 0
M  V30 10395 O 316.668 -0.825065 -8.71101 0
M  V30 10396 C 316.178 0.783801 -6.99623 0
M  V30 10397 C 316.888 0.0619192 -5.85967 0
M  V30 10398 N 316.838 0.7859 -4.56281 0
M  V30 10399 H 319.677 1.93423 -8.4679 0
M  V30 10400 H 319.949 1.68181 -6.71046 0
M  V30 10401 H 319.081 -0.289041 -8.15388 0
M  V30 10402 P 315.118 -1.17771 -8.83182 0
M  V30 10403 O 314.898 -2.07206 -9.98732 0
M  V30 10404 O 314.328 0.0743816 -8.81969 0
M  V30 10405 O 314.868 -1.97678 -7.474 0
M  V30 10406 C 315.808 -3.01133 -7.08783 0
M  V30 10407 C 315.078 -4.1203 -6.37546 0
M  V30 10408 O 314.868 -3.72887 -4.9796 0
M  V30 10409 C 313.678 -4.45085 -6.88694 0
M  V30 10410 O 313.288 -5.78836 -6.56315 0
M  V30 10411 C 312.798 -3.47817 -6.12078 0
M  V30 10412 C 313.508 -3.39414 -4.77697 0
M  V30 10413 N 313.458 -2.04615 -4.15333 0
M  V30 10414 C 313.308 -1.96929 -2.77162 0
M  V30 10415 O 313.218 -3.02017 -2.12006 0
M  V30 10416 N 313.258 -0.55485 -2.24237 0
M  V30 10417 C 313.358 0.367808 -2.9169 0
M  V30 10418 N 313.308 1.53426 -2.29427 0
M  V30 10419 C 313.508 0.319148 -4.33828 0
M  V30 10420 C 313.558 -0.920672 -4.90433 0
M  V30 10421 H 316.298 -3.41209 -7.98667 0
M  V30 10422 H 316.568 -2.5837 -6.41742 0
M  V30 10423 H 315.701 -5.02718 -6.42752 0
M  V30 10424 H 313.046 -4.11779 -4.09026 0
M  V30 10425 H 312.766 -2.49661 -6.61772 0
M  V30 10426 H 311.775 -3.86674 -6.00946 0
M  V30 10427 H 313.609 -4.29991 -7.97006 0
M  V30 10428 H 313.681 -1.00589 -5.98303 0
M  V30 10429 H 313.579 1.22639 -4.93799 0
M  V30 10430 H 313.191 1.56819 -1.27167 0
M  V30 10431 H 313.387 2.41062 -2.83063 0
M  V30 10432 P 311.738 -6.144 -6.45285 0
M  V30 10433 O 311.518 -7.54673 -6.86199 0
M  V30 10434 O 310.948 -5.12391 -7.179 0
M  V30 10435 O 311.488 -5.99158 -4.88404 0
M  V30 10436 C 312.428 -6.60234 -3.96415 0
M  V30 10437 C 311.698 -7.08259 -2.72856 0
M  V30 10438 O 311.488 -5.9427 -1.83651 0
M  V30 10439 C 310.298 -7.64886 -2.9555 0
M  V30 10440 O 309.908 -8.53963 -1.90717 0
M  V30 10441 C 309.418 -6.4116 -2.90739 0
M  V30 10442 C 310.128 -5.55375 -1.86963 0
M  V30 10443 N 310.078 -4.09664 -2.15742 0
M  V30 10444 H 312.917 -7.45574 -4.45629 0
M  V30 10445 H 313.189 -5.86232 -3.67314 0
M  V30 10446 H 312.321 -7.84412 -2.24479 0
M  V30 10447 P 308.358 -8.7635 -1.60911 0
M  V30 10448 O 308.138 -10.1388 -1.11561 0
M  V30 10449 O 307.568 -8.36503 -2.79617 0
M  V30 10450 O 308.108 -7.71806 -0.42951 0
M  V30 10451 C 309.048 -7.67148 0.673689 0
M  V30 10452 C 308.318 -7.33374 1.95559 0
M  V30 10453 O 308.108 -5.88721 2.00726 0
M  V30 10454 C 306.918 -7.92526 2.10483 0
M  V30 10455 O 306.528 -8.02971 3.47653 0
M  V30 10456 C 306.038 -6.89602 1.41652 0
M  V30 10457 C 306.748 -5.59201 1.75185 0
M  V30 10458 N 306.698 -4.58235 0.662552 0
M  V30 10459 H 309.537 -8.65116 0.777161 0
M  V30 10460 H 309.809 -6.90173 0.474152 0
M  V30 10461 H 308.941 -7.66548 2.79458 0
M  V30 10462 P 304.978 -8.03563 3.84925 0
M  V30 10463 O 304.758 -8.85821 5.0569 0
M  V30 10464 O 304.188 -8.41101 2.65469 0
M  V30 10465 O 304.728 -6.4965 4.18908 0
M  V30 10466 C 305.668 -5.81037 5.05421 0
M  V30 10467 C 304.938 -4.78366 5.89277 0
M  V30 10468 O 304.728 -3.58302 5.08433 0
M  V30 10469 C 303.538 -5.17448 6.36119 0
M  V30 10470 O 303.148 -4.45271 7.53232 0
M  V30 10471 C 302.658 -4.74639 5.19936 0
M  V30 10472 C 303.368 -3.49432 4.70418 0
M  V30 10473 N 303.318 -3.31776 3.22945 0
M  V30 10474 H 306.157 -6.54213 5.71376 0
M  V30 10475 H 306.429 -5.30492 4.44033 0
M  V30 10476 H 305.561 -4.55889 6.76652 0
M  V30 10477 P 301.598 -4.23843 7.83734 0
M  V30 10478 O 301.378 -4.19407 9.29784 0
M  V30 10479 O 300.808 -5.24426 7.09156 0
M  V30 10480 O 301.348 -2.7935 7.20758 0
M  V30 10481 C 302.288 -1.7299 7.50419 0
M  V30 10482 C 301.558 -0.406376 7.57911 0
M  V30 10483 O 301.348 0.0897726 6.21935 0
M  V30 10484 C 300.158 -0.447224 8.1878 0
M  V30 10485 O 299.768 0.825065 8.71101 0
M  V30 10486 C 299.278 -0.783801 6.99623 0
M  V30 10487 C 299.988 -0.0619192 5.85967 0
M  V30 10488 N 299.938 -0.7859 4.56281 0
M  V30 10489 H 302.777 -1.93423 8.4679 0
M  V30 10490 H 303.049 -1.68181 6.71046 0
M  V30 10491 H 302.181 0.289041 8.15388 0
M  V30 10492 P 298.218 1.17771 8.83182 0
M  V30 10493 O 297.998 2.07206 9.98732 0
M  V30 10494 O 297.428 -0.0743816 8.81969 0
M  V30 10495 O 297.968 1.97652 7.47304 0
M  V30 10496 C 298.908 3.01055 7.08599 0
M  V30 10497 C 298.178 4.12613 6.37049 0
M  V30 10498 O 297.968 3.72827 4.97879 0
M  V30 10499 C 296.778 4.45719 6.88164 0
M  V30 10500 O 296.388 5.7877 6.5624 0
M  V30 10501 C 295.898 3.47768 6.11991 0
M  V30 10502 C 296.608 3.39356 4.77615 0
M  V30 10503 N 296.558 2.04571 4.15244 0
M  V30 10504 C 296.408 1.98587 2.78314 0
M  V30 10505 O 296.318 2.98134 2.08835 0
M  V30 10506 N 296.368 0.714467 2.24925 0
M  V30 10507 C 296.458 -0.470001 2.94169 0
M  V30 10508 C 296.608 -0.312541 4.36783 0
M  V30 10509 C 296.658 0.914512 4.92583 0
M  V30 10510 H 299.399 3.41169 7.98575 0
M  V30 10511 H 299.668 2.58295 6.41556 0
M  V30 10512 H 298.801 5.02657 6.42673 0
M  V30 10513 H 296.146 4.11637 4.08885 0
M  V30 10514 H 295.867 2.49626 6.61679 0
M  V30 10515 H 294.875 3.86566 6.00778 0
M  V30 10516 H 296.709 4.29943 7.96918 0
M  V30 10517 H 296.78 1.00937 6.00374 0
M  V30 10518 P 294.838 6.144 6.45285 0
M  V30 10519 O 294.618 7.54673 6.86199 0
M  V30 10520 O 294.048 5.12391 7.179 0
M  V30 10521 O 294.588 5.99158 4.88404 0
M  V30 10522 C 295.528 6.60062 3.96313 0
M  V30 10523 C 294.798 7.08259 2.72856 0
M  V30 10524 O 294.588 5.9427 1.83651 0
M  V30 10525 C 293.398 7.65087 2.94749 0
M  V30 10526 O 293.008 8.53963 1.90717 0
M  V30 10527 C 292.518 6.41069 2.90698 0
M  V30 10528 C 293.228 5.5528 1.86931 0
M  V30 10529 N 293.178 4.09575 2.15696 0
M  V30 10530 C 293.028 3.24249 1.08435 0
M  V30 10531 O 292.938 3.63946 -0.0628747 0
M  V30 10532 N 292.988 1.90009 1.39973 0
M  V30 10533 C 293.078 1.34884 2.65614 0
M  V30 10534 O 293.028 0.123716 2.81728 0
M  V30 10535 C 293.228 2.3145 3.71736 0
M  V30 10536 C 293.338 1.75913 5.10438 0
M  V30 10537 C 293.278 3.63518 3.44754 0
M  V30 10538 H 296.019 7.45402 4.45526 0
M  V30 10539 H 296.288 5.86062 3.67208 0
M  V30 10540 H 295.421 7.84412 2.24479 0
M  V30 10541 H 292.766 5.73358 0.888409 0
M  V30 10542 H 292.487 5.90877 3.88583 0
M  V30 10543 H 291.495 6.65867 2.58821 0
M  V30 10544 H 293.329 8.16248 3.92006 0
M  V30 10545 H 293.4 4.34551 4.26383 0
M  V30 10546 H 292.37 1.85471 5.61775 0
M  V30 10547 H 294.107 2.31364 5.66257 0
M  V30 10548 H 293.619 0.695936 5.05229 0
M  V30 10549 H 292.883 1.26277 0.63625 0
M  V30 10550 P 291.458 8.7635 1.60911 0
M  V30 10551 O 291.238 10.1388 1.11561 0
M  V30 10552 O 290.668 8.36503 2.79617 0
M  V30 10553 O 291.208 7.71806 0.42951 0
M  V30 10554 C 292.148 7.66948 -0.673514 0
M  V30 10555 C 291.418 7.33374 -1.95559 0
M  V30 10556 O 291.208 5.88721 -2.00726 0
M  V30 10557 C 290.018 7.92218 -2.1125 0
M  V30 10558 O 289.628 8.02971 -3.47653 0
M  V30 10559 C 289.138 6.89504 -1.41631 0
M  V30 10560 C 289.848 5.59106 -1.75155 0
M  V30 10561 N 289.798 4.58136 -0.662409 0
M  V30 10562 C 289.648 3.26059 -1.02863 0
M  V30 10563 O 289.558 2.90743 -2.19009 0
M  V30 10564 N 289.608 2.35995 0.0155585 0
M  V30 10565 C 289.698 2.65248 1.35603 0
M  V30 10566 O 289.648 1.75605 2.20651 0
M  V30 10567 C 289.848 4.05747 1.64698 0
M  V30 10568 C 289.958 4.42345 3.09553 0
M  V30 10569 C 289.898 4.96734 0.652411 0
M  V30 10570 H 292.639 8.64917 -0.776982 0
M  V30 10571 H 292.908 6.89974 -0.474015 0
M  V30 10572 H 292.041 7.66548 -2.79458 0
M  V30 10573 H 289.386 5.16076 -2.65138 0
M  V30 10574 H 289.107 7.06433 -0.329384 0
M  V30 10575 H 288.115 6.90829 -1.81996 0
M  V30 10576 H 289.949 8.90774 -1.62639 0
M  V30 10577 H 290.02 6.02181 0.895285 0
M  V30 10578 H 288.99 4.80252 3.45468 0
M  V30 10579 H 290.727 5.20015 3.22119 0
M  V30 10580 H 290.239 3.53269 3.67833 0
M  V30 10581 H 289.503 1.39558 -0.227499 0
M  V30 10582 P 288.078 8.03563 -3.84925 0
M  V30 10583 O 287.858 8.85821 -5.0569 0
M  V30 10584 O 287.288 8.41101 -2.65469 0
M  V30 10585 O 287.828 6.4965 -4.18908 0
M  V30 10586 C 288.768 5.81037 -5.05421 0
M  V30 10587 C 288.038 4.78366 -5.89277 0
M  V30 10588 O 287.828 3.58302 -5.08433 0
M  V30 10589 C 286.638 5.17448 -6.36119 0
M  V30 10590 O 286.248 4.45271 -7.53232 0
M  V30 10591 C 285.758 4.74639 -5.19936 0
M  V30 10592 C 286.468 3.49432 -4.70418 0
M  V30 10593 N 286.418 3.31776 -3.22945 0
M  V30 10594 H 289.257 6.54213 -5.71376 0
M  V30 10595 H 289.529 5.30492 -4.44033 0
M  V30 10596 H 288.661 4.55889 -6.76652 0
M  V30 10597 P 284.698 4.23843 -7.83734 0
M  V30 10598 O 284.478 4.19407 -9.29784 0
M  V30 10599 O 283.908 5.24426 -7.09156 0
M  V30 10600 O 284.448 2.7935 -7.20758 0
M  V30 10601 C 285.388 1.72945 -7.50224 0
M  V30 10602 C 284.658 0.406376 -7.57911 0
M  V30 10603 O 284.448 -0.0897726 -6.21935 0
M  V30 10604 C 283.258 0.438983 -8.18724 0
M  V30 10605 O 282.868 -0.825065 -8.71101 0
M  V30 10606 C 282.378 0.783689 -6.99524 0
M  V30 10607 C 283.088 0.0619086 -5.85867 0
M  V30 10608 N 283.038 0.78573 -4.56183 0
M  V30 10609 C 282.888 0.0292889 -3.41887 0
M  V30 10610 O 282.798 -1.18445 -3.4419 0
M  V30 10611 N 282.848 0.744061 -2.23964 0
M  V30 10612 C 282.938 2.10932 -2.10362 0
M  V30 10613 C 283.088 2.8202 -3.34994 0
M  V30 10614 C 283.138 2.15547 -4.52261 0
M  V30 10615 H 285.879 1.93379 -8.46595 0
M  V30 10616 H 286.148 1.68132 -6.70852 0
M  V30 10617 H 285.281 -0.289041 -8.15388 0
M  V30 10618 H 282.626 -0.926847 -5.72749 0
M  V30 10619 H 282.347 1.86973 -6.82036 0
M  V30 10620 H 281.355 0.403896 -7.13257 0
M  V30 10621 H 283.189 1.20585 -8.97435 0
M  V30 10622 H 283.26 2.71231 -5.45042 0
M  V30 10623 P 281.318 -1.17771 -8.83182 0
M  V30 10624 O 281.098 -2.07206 -9.98732 0
M  V30 10625 O 280.528 0.0743816 -8.81969 0
M  V30 10626 O 281.068 -1.97652 -7.47304 0
M  V30 10627 C 282.008 -3.01133 -7.08783 0
M  V30 10628 C 281.278 -4.12613 -6.37049 0
M  V30 10629 O 281.068 -3.72827 -4.97879 0
M  V30 10630 C 279.878 -4.45085 -6.88694 0
M  V30 10631 O 279.488 -5.7877 -6.5624 0
M  V30 10632 C 278.998 -3.47817 -6.12078 0
M  V30 10633 C 279.708 -3.39414 -4.77697 0
M  V30 10634 N 279.658 -2.04615 -4.15333 0
M  V30 10635 H 282.497 -3.41248 -7.98759 0
M  V30 10636 H 282.769 -2.5837 -6.41742 0
M  V30 10637 H 281.901 -5.02657 -6.42673 0
M  V30 10638 P 277.938 -6.144 -6.45285 0
M  V30 10639 O 277.718 -7.54673 -6.86199 0
M  V30 10640 O 277.148 -5.12391 -7.179 0
M  V30 10641 O 277.688 -5.99158 -4.88404 0
M  V30 10642 C 278.628 -6.60234 -3.96415 0
M  V30 10643 C 277.898 -7.08259 -2.72856 0
M  V30 10644 O 277.688 -5.9427 -1.83651 0
M  V30 10645 C 276.498 -7.64886 -2.9555 0
M  V30 10646 O 276.108 -8.53963 -1.90717 0
M  V30 10647 C 275.618 -6.4116 -2.90739 0
M  V30 10648 C 276.328 -5.55375 -1.86963 0
M  V30 10649 N 276.278 -4.09664 -2.15742 0
M  V30 10650 H 279.117 -7.45574 -4.45629 0
M  V30 10651 H 279.389 -5.86232 -3.67314 0
M  V30 10652 H 278.521 -7.84412 -2.24479 0
M  V30 10653 P 274.558 -8.7635 -1.60911 0
M  V30 10654 O 274.338 -10.1388 -1.11561 0
M  V30 10655 O 273.768 -8.36503 -2.79617 0
M  V30 10656 O 274.308 -7.71806 -0.42951 0
M  V30 10657 C 275.248 -7.66948 0.673514 0
M  V30 10658 C 274.518 -7.33374 1.95559 0
M  V30 10659 O 274.308 -5.88721 2.00726 0
M  V30 10660 C 273.118 -7.92218 2.1125 0
M  V30 10661 O 272.728 -8.02971 3.47653 0
M  V30 10662 C 272.238 -6.89504 1.41631 0
M  V30 10663 C 272.948 -5.59106 1.75155 0
M  V30 10664 N 272.898 -4.58136 0.662409 0
M  V30 10665 C 272.748 -3.26059 1.02863 0
M  V30 10666 O 272.658 -2.90743 2.19009 0
M  V30 10667 N 272.708 -2.35995 -0.0155585 0
M  V30 10668 C 272.798 -2.65248 -1.35603 0
M  V30 10669 O 272.748 -1.75605 -2.20651 0
M  V30 10670 C 272.948 -4.05747 -1.64698 0
M  V30 10671 C 273.058 -4.42345 -3.09553 0
M  V30 10672 C 272.998 -4.96734 -0.652411 0
M  V30 10673 H 275.739 -8.64917 0.776982 0
M  V30 10674 H 276.008 -6.89974 0.474015 0
M  V30 10675 H 275.141 -7.66548 2.79458 0
M  V30 10676 H 272.486 -5.16076 2.65138 0
M  V30 10677 H 272.207 -7.06433 0.329384 0
M  V30 10678 H 271.215 -6.90829 1.81996 0
M  V30 10679 H 273.049 -8.90774 1.62639 0
M  V30 10680 H 273.12 -6.02181 -0.895285 0
M  V30 10681 H 272.09 -4.80252 -3.45468 0
M  V30 10682 H 273.827 -5.20015 -3.22119 0
M  V30 10683 H 273.339 -3.53269 -3.67833 0
M  V30 10684 H 272.603 -1.39558 0.227499 0
M  V30 10685 P 271.178 -8.03563 3.84925 0
M  V30 10686 O 270.958 -8.85821 5.0569 0
M  V30 10687 O 270.388 -8.41101 2.65469 0
M  V30 10688 O 270.928 -6.4965 4.18908 0
M  V30 10689 C 271.868 -5.80886 5.05289 0
M  V30 10690 C 271.138 -4.78366 5.89277 0
M  V30 10691 O 270.928 -3.58302 5.08433 0
M  V30 10692 C 269.738 -5.16748 6.36559 0
M  V30 10693 O 269.348 -4.45271 7.53232 0
M  V30 10694 C 268.858 -4.74572 5.19863 0
M  V30 10695 C 269.568 -3.49373 4.70338 0
M  V30 10696 N 269.518 -3.31704 3.22876 0
M  V30 10697 C 269.368 -2.03326 2.74871 0
M  V30 10698 O 269.278 -1.06486 3.48076 0
M  V30 10699 N 269.328 -1.91838 1.37456 0
M  V30 10700 C 269.418 -2.94295 0.462035 0
M  V30 10701 O 269.368 -2.71763 -0.752928 0
M  V30 10702 C 269.568 -4.25064 1.05249 0
M  V30 10703 C 269.678 -5.39815 0.095697 0
M  V30 10704 C 269.618 -4.40214 2.39192 0
M  V30 10705 H 272.359 -6.54063 5.71245 0
M  V30 10706 H 272.628 -5.30339 4.43905 0
M  V30 10707 H 271.761 -4.55889 6.76652 0
M  V30 10708 H 269.106 -2.6167 5.17842 0
M  V30 10709 H 268.827 -5.52155 4.41878 0
M  V30 10710 H 267.835 -4.51918 5.53297 0
M  V30 10711 H 269.669 -6.25055 6.55162 0
M  V30 10712 H 269.74 -5.39798 2.81523 0
M  V30 10713 H 268.71 -5.91593 0.0279582 0
M  V30 10714 H 270.447 -6.10038 0.450573 0
M  V30 10715 H 269.959 -5.02007 -0.89937 0
M  V30 10716 H 269.223 -0.995326 1.00435 0
M  V30 10717 P 267.798 -4.23843 7.83734 0
M  V30 10718 O 267.578 -4.19407 9.29784 0
M  V30 10719 O 267.008 -5.24426 7.09156 0
M  V30 10720 O 267.548 -2.7935 7.20758 0
M  V30 10721 C 268.488 -1.72945 7.50224 0
M  V30 10722 C 267.758 -0.406376 7.57911 0
M  V30 10723 O 267.548 0.0897726 6.21935 0
M  V30 10724 C 266.358 -0.438983 8.18724 0
M  V30 10725 O 265.968 0.825065 8.71101 0
M  V30 10726 C 265.478 -0.783689 6.99524 0
M  V30 10727 C 266.188 -0.0619086 5.85867 0
M  V30 10728 N 266.138 -0.78573 4.56183 0
M  V30 10729 C 265.988 -0.0292889 3.41887 0
M  V30 10730 O 265.898 1.18445 3.4419 0
M  V30 10731 N 265.948 -0.744061 2.23964 0
M  V30 10732 C 266.038 -2.10932 2.10362 0
M  V30 10733 O 265.988 -2.64117 0.98825 0
M  V30 10734 C 266.188 -2.8202 3.34994 0
M  V30 10735 C 266.298 -4.31095 3.25037 0
M  V30 10736 C 266.238 -2.15547 4.52261 0
M  V30 10737 H 268.979 -1.93379 8.46595 0
M  V30 10738 H 269.248 -1.68132 6.70852 0
M  V30 10739 H 268.381 0.289041 8.15388 0
M  V30 10740 H 265.726 0.926847 5.72749 0
M  V30 10741 H 265.447 -1.86973 6.82036 0
M  V30 10742 H 264.455 -0.403896 7.13257 0
M  V30 10743 H 266.289 -1.20585 8.97435 0
M  V30 10744 H 266.36 -2.71231 5.45042 0
M  V30 10745 H 265.33 -4.76966 3.49992 0
M  V30 10746 H 267.067 -4.67047 3.95024 0
M  V30 10747 H 266.579 -4.58996 2.22312 0
M  V30 10748 H 265.843 -0.214893 1.39758 0
M  V30 10749 P 264.418 1.17771 8.83182 0
M  V30 10750 O 264.198 2.07206 9.98732 0
M  V30 10751 O 263.628 -0.0743816 8.81969 0
M  V30 10752 O 264.168 1.97652 7.47304 0
M  V30 10753 C 265.108 3.01133 7.08783 0
M  V30 10754 C 264.378 4.12613 6.37049 0
M  V30 10755 O 264.168 3.72827 4.97879 0
M  V30 10756 C 262.978 4.45085 6.88694 0
M  V30 10757 O 262.588 5.7877 6.5624 0
M  V30 10758 C 262.098 3.47817 6.12078 0
M  V30 10759 C 262.808 3.39414 4.77697 0
M  V30 10760 N 262.758 2.04199 4.15538 0
M  V30 10761 H 265.597 3.41248 7.98759 0
M  V30 10762 H 265.869 2.57728 6.42 0
M  V30 10763 H 265.001 5.02657 6.42673 0
M  V30 10764 H 262.346 4.11708 4.08956 0
M  V30 10765 H 262.066 2.49626 6.61679 0
M  V30 10766 H 261.075 3.8662 6.00862 0
M  V30 10767 H 262.909 4.29991 7.97006 0
M  V30 10768 P 261.038 6.144 6.45285 0
M  V30 10769 O 260.818 7.54673 6.86199 0
M  V30 10770 O 260.248 5.12391 7.179 0
M  V30 10771 O 260.788 5.99158 4.88404 0
M  V30 10772 C 261.728 6.60234 3.96415 0
M  V30 10773 C 260.998 7.08259 2.72856 0
M  V30 10774 O 260.788 5.9427 1.83651 0
M  V30 10775 C 259.598 7.64886 2.9555 0
M  V30 10776 O 259.208 8.53963 1.90717 0
M  V30 10777 C 258.718 6.4116 2.90739 0
M  V30 10778 C 259.428 5.55375 1.86963 0
M  V30 10779 N 259.378 4.09664 2.15742 0
M  V30 10780 H 262.217 7.45574 4.45629 0
M  V30 10781 H 262.489 5.86232 3.67314 0
M  V30 10782 H 261.621 7.84412 2.24479 0
M  V30 10783 P 257.658 8.7635 1.60911 0
M  V30 10784 O 257.438 10.1388 1.11561 0
M  V30 10785 O 256.868 8.36503 2.79617 0
M  V30 10786 O 257.408 7.71806 0.42951 0
M  V30 10787 C 258.348 7.66948 -0.673514 0
M  V30 10788 C 257.618 7.33374 -1.95559 0
M  V30 10789 O 257.408 5.88721 -2.00726 0
M  V30 10790 C 256.218 7.92218 -2.1125 0
M  V30 10791 O 255.828 8.02971 -3.47653 0
M  V30 10792 C 255.338 6.89504 -1.41631 0
M  V30 10793 C 256.048 5.59106 -1.75155 0
M  V30 10794 N 255.998 4.58136 -0.662409 0
M  V30 10795 C 255.848 3.26059 -1.02863 0
M  V30 10796 O 255.758 2.90743 -2.19009 0
M  V30 10797 N 255.808 2.35995 0.0155585 0
M  V30 10798 C 255.898 2.65248 1.35603 0
M  V30 10799 C 256.048 4.05747 1.64698 0
M  V30 10800 C 256.098 4.96734 0.652411 0
M  V30 10801 H 258.839 8.64917 -0.776982 0
M  V30 10802 H 259.108 6.89974 -0.474015 0
M  V30 10803 H 258.241 7.66548 -2.79458 0
M  V30 10804 H 255.586 5.16076 -2.65138 0
M  V30 10805 H 255.307 7.06433 -0.329384 0
M  V30 10806 H 254.315 6.90829 -1.81996 0
M  V30 10807 H 256.149 8.90774 -1.62639 0
M  V30 10808 H 256.22 6.02181 0.895285 0
M  V30 10809 P 254.279 8.03563 -3.84925 0
M  V30 10810 O 254.059 8.85821 -5.0569 0
M  V30 10811 O 253.489 8.41101 -2.65469 0
M  V30 10812 O 254.029 6.4965 -4.18908 0
M  V30 10813 C 254.969 5.81037 -5.05421 0
M  V30 10814 C 254.239 4.78366 -5.89277 0
M  V30 10815 O 254.029 3.58302 -5.08433 0
M  V30 10816 C 252.839 5.17448 -6.36119 0
M  V30 10817 O 252.449 4.45271 -7.53232 0
M  V30 10818 C 251.959 4.74639 -5.19936 0
M  V30 10819 C 252.669 3.49432 -4.70418 0
M  V30 10820 N 252.619 3.31776 -3.22945 0
M  V30 10821 H 255.458 6.54213 -5.71376 0
M  V30 10822 H 255.73 5.30492 -4.44033 0
M  V30 10823 H 254.862 4.55889 -6.76652 0
M  V30 10824 P 250.899 4.23843 -7.83734 0
M  V30 10825 O 250.679 4.19407 -9.29784 0
M  V30 10826 O 250.109 5.24426 -7.09156 0
M  V30 10827 O 250.649 2.7935 -7.20758 0
M  V30 10828 C 251.589 1.7299 -7.50419 0
M  V30 10829 C 250.859 0.406376 -7.57911 0
M  V30 10830 O 250.649 -0.0897726 -6.21935 0
M  V30 10831 C 249.459 0.447224 -8.1878 0
M  V30 10832 O 249.069 -0.825065 -8.71101 0
M  V30 10833 C 248.579 0.783801 -6.99623 0
M  V30 10834 C 249.289 0.0619192 -5.85967 0
M  V30 10835 N 249.239 0.7859 -4.56281 0
M  V30 10836 H 252.078 1.93423 -8.4679 0
M  V30 10837 H 252.35 1.68181 -6.71046 0
M  V30 10838 H 251.482 -0.289041 -8.15388 0
M  V30 10839 P 247.519 -1.17771 -8.83182 0
M  V30 10840 O 247.299 -2.07206 -9.98732 0
M  V30 10841 O 246.729 0.0743816 -8.81969 0
M  V30 10842 O 247.269 -1.97652 -7.47304 0
M  V30 10843 C 248.209 -3.01055 -7.08599 0
M  V30 10844 C 247.479 -4.12613 -6.37049 0
M  V30 10845 O 247.269 -3.72827 -4.97879 0
M  V30 10846 C 246.079 -4.45719 -6.88164 0
M  V30 10847 O 245.689 -5.7877 -6.5624 0
M  V30 10848 C 245.199 -3.47768 -6.11991 0
M  V30 10849 C 245.909 -3.39356 -4.77615 0
M  V30 10850 N 245.859 -2.04571 -4.15244 0
M  V30 10851 C 245.709 -1.98587 -2.78314 0
M  V30 10852 O 245.619 -2.98134 -2.08835 0
M  V30 10853 N 245.669 -0.714467 -2.24925 0
M  V30 10854 C 245.759 0.470001 -2.94169 0
M  V30 10855 C 245.909 0.312541 -4.36783 0
M  V30 10856 C 245.959 -0.914512 -4.92583 0
M  V30 10857 H 248.7 -3.41169 -7.98575 0
M  V30 10858 H 248.969 -2.58295 -6.41556 0
M  V30 10859 H 248.102 -5.02657 -6.42673 0
M  V30 10860 H 245.447 -4.11637 -4.08885 0
M  V30 10861 H 245.168 -2.49626 -6.61679 0
M  V30 10862 H 244.176 -3.86566 -6.00778 0
M  V30 10863 H 246.01 -4.29943 -7.96918 0
M  V30 10864 H 246.081 -1.00937 -6.00374 0
M  V30 10865 P 244.139 -6.144 -6.45285 0
M  V30 10866 O 243.919 -7.54673 -6.86199 0
M  V30 10867 O 243.349 -5.12391 -7.179 0
M  V30 10868 O 243.889 -5.99158 -4.88404 0
M  V30 10869 C 244.829 -6.60234 -3.96415 0
M  V30 10870 C 244.099 -7.08259 -2.72856 0
M  V30 10871 O 243.889 -5.9427 -1.83651 0
M  V30 10872 C 242.699 -7.64886 -2.9555 0
M  V30 10873 O 242.309 -8.53963 -1.90717 0
M  V30 10874 C 241.819 -6.4116 -2.90739 0
M  V30 10875 C 242.529 -5.55375 -1.86963 0
M  V30 10876 N 242.479 -4.09448 -2.16152 0
M  V30 10877 H 245.318 -7.45574 -4.45629 0
M  V30 10878 H 245.59 -5.85864 -3.679 0
M  V30 10879 H 244.722 -7.84412 -2.24479 0
M  V30 10880 H 242.067 -5.73457 -0.888562 0
M  V30 10881 H 241.787 -5.90877 -3.88583 0
M  V30 10882 H 240.796 -6.6596 -2.58858 0
M  V30 10883 H 242.63 -8.16339 -3.92049 0
M  V30 10884 P 240.759 -8.7635 -1.60911 0
M  V30 10885 O 240.539 -10.1388 -1.11561 0
M  V30 10886 O 239.969 -8.36503 -2.79617 0
M  V30 10887 O 240.509 -7.71806 -0.42951 0
M  V30 10888 C 241.449 -7.67148 0.673689 0
M  V30 10889 C 240.719 -7.33374 1.95559 0
M  V30 10890 O 240.509 -5.88721 2.00726 0
M  V30 10891 C 239.319 -7.92526 2.10483 0
M  V30 10892 O 238.929 -8.02971 3.47653 0
M  V30 10893 C 238.439 -6.89602 1.41652 0
M  V30 10894 C 239.149 -5.59201 1.75185 0
M  V30 10895 N 239.099 -4.58235 0.662552 0
M  V30 10896 H 241.938 -8.65116 0.777161 0
M  V30 10897 H 242.21 -6.90173 0.474152 0
M  V30 10898 H 241.342 -7.66548 2.79458 0
M  V30 10899 P 237.379 -8.03563 3.84925 0
M  V30 10900 O 237.159 -8.85821 5.0569 0
M  V30 10901 O 236.589 -8.41101 2.65469 0
M  V30 10902 O 237.129 -6.4965 4.18908 0
M  V30 10903 C 238.069 -5.81037 5.05421 0
M  V30 10904 C 237.339 -4.78366 5.89277 0
M  V30 10905 O 237.129 -3.58302 5.08433 0
M  V30 10906 C 235.939 -5.17448 6.36119 0
M  V30 10907 O 235.549 -4.45271 7.53232 0
M  V30 10908 C 235.059 -4.74639 5.19936 0
M  V30 10909 C 235.769 -3.49432 4.70418 0
M  V30 10910 N 235.719 -3.31776 3.22945 0
M  V30 10911 H 238.558 -6.54213 5.71376 0
M  V30 10912 H 238.83 -5.30492 4.44033 0
M  V30 10913 H 237.962 -4.55889 6.76652 0
M  V30 10914 P 233.999 -4.23843 7.83734 0
M  V30 10915 O 233.779 -4.19407 9.29784 0
M  V30 10916 O 233.209 -5.24426 7.09156 0
M  V30 10917 O 233.749 -2.7935 7.20758 0
M  V30 10918 C 234.689 -1.7299 7.50419 0
M  V30 10919 C 233.959 -0.406376 7.57911 0
M  V30 10920 O 233.749 0.0897726 6.21935 0
M  V30 10921 C 232.559 -0.447224 8.1878 0
M  V30 10922 O 232.169 0.825065 8.71101 0
M  V30 10923 C 231.679 -0.783801 6.99623 0
M  V30 10924 C 232.389 -0.0619192 5.85967 0
M  V30 10925 N 232.339 -0.7859 4.56281 0
M  V30 10926 H 235.178 -1.93423 8.4679 0
M  V30 10927 H 235.45 -1.68181 6.71046 0
M  V30 10928 H 234.582 0.289041 8.15388 0
M  V30 10929 P 230.619 1.17771 8.83182 0
M  V30 10930 O 230.399 2.07206 9.98732 0
M  V30 10931 O 229.829 -0.0743816 8.81969 0
M  V30 10932 O 230.369 1.97652 7.47304 0
M  V30 10933 C 231.309 3.01055 7.08599 0
M  V30 10934 C 230.579 4.12613 6.37049 0
M  V30 10935 O 230.369 3.72827 4.97879 0
M  V30 10936 C 229.179 4.45719 6.88164 0
M  V30 10937 O 228.789 5.7877 6.5624 0
M  V30 10938 C 228.299 3.47768 6.11991 0
M  V30 10939 C 229.009 3.39356 4.77615 0
M  V30 10940 N 228.959 2.04571 4.15244 0
M  V30 10941 C 228.809 1.98587 2.78314 0
M  V30 10942 O 228.719 2.98134 2.08835 0
M  V30 10943 N 228.769 0.714467 2.24925 0
M  V30 10944 C 228.859 -0.470001 2.94169 0
M  V30 10945 O 228.809 -1.55587 2.35195 0
M  V30 10946 C 229.009 -0.312541 4.36783 0
M  V30 10947 C 229.119 -1.57711 5.16352 0
M  V30 10948 C 229.059 0.914512 4.92583 0
M  V30 10949 H 231.8 3.41169 7.98575 0
M  V30 10950 H 232.069 2.58295 6.41556 0
M  V30 10951 H 231.202 5.02657 6.42673 0
M  V30 10952 H 228.547 4.11637 4.08885 0
M  V30 10953 H 228.268 2.49626 6.61679 0
M  V30 10954 H 227.276 3.86566 6.00778 0
M  V30 10955 H 229.11 4.29943 7.96918 0
M  V30 10956 H 229.181 1.00937 6.00374 0
M  V30 10957 H 228.151 -1.80153 5.63503 0
M  V30 10958 H 229.888 -1.4566 5.94104 0
M  V30 10959 H 229.4 -2.40664 4.49645 0
M  V30 10960 H 228.664 0.647622 1.25697 0
M  V30 10961 P 227.239 6.144 6.45285 0
M  V30 10962 O 227.019 7.54673 6.86199 0
M  V30 10963 O 226.449 5.12391 7.179 0
M  V30 10964 O 226.989 5.99158 4.88404 0
M  V30 10965 C 227.929 6.60234 3.96415 0
M  V30 10966 C 227.199 7.08259 2.72856 0
M  V30 10967 O 226.989 5.9427 1.83651 0
M  V30 10968 C 225.799 7.64886 2.9555 0
M  V30 10969 O 225.409 8.53963 1.90717 0
M  V30 10970 C 224.919 6.4116 2.90739 0
M  V30 10971 C 225.629 5.55375 1.86963 0
M  V30 10972 N 225.579 4.09448 2.16152 0
M  V30 10973 H 228.418 7.45574 4.45629 0
M  V30 10974 H 228.69 5.85864 3.679 0
M  V30 10975 H 227.822 7.84412 2.24479 0
M  V30 10976 H 225.167 5.73457 0.888562 0
M  V30 10977 H 224.887 5.90877 3.88583 0
M  V30 10978 H 223.896 6.6596 2.58858 0
M  V30 10979 H 225.73 8.16339 3.92049 0
M  V30 10980 P 223.859 8.7635 1.60911 0
M  V30 10981 O 223.639 10.1388 1.11561 0
M  V30 10982 O 223.069 8.36503 2.79617 0
M  V30 10983 O 223.609 7.71806 0.42951 0
M  V30 10984 C 224.549 7.67148 -0.673689 0
M  V30 10985 C 223.819 7.33374 -1.95559 0
M  V30 10986 O 223.609 5.88721 -2.00726 0
M  V30 10987 C 222.419 7.92526 -2.10483 0
M  V30 10988 O 222.029 8.02971 -3.47653 0
M  V30 10989 C 221.539 6.89602 -1.41652 0
M  V30 10990 C 222.249 5.59201 -1.75185 0
M  V30 10991 N 222.199 4.58235 -0.662552 0
M  V30 10992 H 225.038 8.65116 -0.777161 0
M  V30 10993 H 225.31 6.90173 -0.474152 0
M  V30 10994 H 224.442 7.66548 -2.79458 0
M  V30 10995 P 220.479 8.03563 -3.84925 0
M  V30 10996 O 220.259 8.85821 -5.0569 0
M  V30 10997 O 219.689 8.41101 -2.65469 0
M  V30 10998 O 220.229 6.4965 -4.18908 0
M  V30 10999 C 221.169 5.81037 -5.05421 0
M  V30 11000 C 220.439 4.78366 -5.89277 0
M  V30 11001 O 220.229 3.58302 -5.08433 0
M  V30 11002 C 219.039 5.17448 -6.36119 0
M  V30 11003 O 218.649 4.45271 -7.53232 0
M  V30 11004 C 218.159 4.74639 -5.19936 0
M  V30 11005 C 218.869 3.49432 -4.70418 0
M  V30 11006 N 218.819 3.31776 -3.22945 0
M  V30 11007 H 221.658 6.54213 -5.71376 0
M  V30 11008 H 221.93 5.30492 -4.44033 0
M  V30 11009 H 221.062 4.55889 -6.76652 0
M  V30 11010 P 217.099 4.23843 -7.83734 0
M  V30 11011 O 216.879 4.19407 -9.29784 0
M  V30 11012 O 216.309 5.24426 -7.09156 0
M  V30 11013 O 216.849 2.7935 -7.20758 0
M  V30 11014 C 217.789 1.7299 -7.50419 0
M  V30 11015 C 217.059 0.406376 -7.57911 0
M  V30 11016 O 216.849 -0.0897726 -6.21935 0
M  V30 11017 C 215.659 0.447224 -8.1878 0
M  V30 11018 O 215.269 -0.825065 -8.71101 0
M  V30 11019 C 214.779 0.783801 -6.99623 0
M  V30 11020 C 215.489 0.0619192 -5.85967 0
M  V30 11021 N 215.439 0.790462 -4.56202 0
M  V30 11022 H 218.278 1.93423 -8.4679 0
M  V30 11023 H 218.55 1.68852 -6.70877 0
M  V30 11024 H 217.682 -0.289041 -8.15388 0
M  V30 11025 H 215.027 -0.927006 -5.72848 0
M  V30 11026 H 214.747 1.86973 -6.82036 0
M  V30 11027 H 213.756 0.403953 -7.13357 0
M  V30 11028 H 215.59 1.20599 -8.97534 0
M  V30 11029 P 213.719 -1.17771 -8.83182 0
M  V30 11030 O 213.499 -2.07206 -9.98732 0
M  V30 11031 O 212.929 0.0743816 -8.81969 0
M  V30 11032 O 213.469 -1.97652 -7.47304 0
M  V30 11033 C 214.409 -3.01133 -7.08783 0
M  V30 11034 C 213.679 -4.12613 -6.37049 0
M  V30 11035 O 213.469 -3.72827 -4.97879 0
M  V30 11036 C 212.279 -4.45085 -6.88694 0
M  V30 11037 O 211.889 -5.7877 -6.5624 0
M  V30 11038 C 211.399 -3.47817 -6.12078 0
M  V30 11039 C 212.109 -3.39414 -4.77697 0
M  V30 11040 N 212.059 -2.04199 -4.15538 0
M  V30 11041 H 214.898 -3.41248 -7.98759 0
M  V30 11042 H 215.17 -2.57728 -6.42 0
M  V30 11043 H 214.302 -5.02657 -6.42673 0
M  V30 11044 H 211.647 -4.11708 -4.08956 0
M  V30 11045 H 211.367 -2.49626 -6.61679 0
M  V30 11046 H 210.376 -3.8662 -6.00862 0
M  V30 11047 H 212.21 -4.29991 -7.97006 0
M  V30 11048 P 210.339 -6.144 -6.45285 0
M  V30 11049 O 210.119 -7.54673 -6.86199 0
M  V30 11050 O 209.549 -5.12391 -7.179 0
M  V30 11051 O 210.089 -5.99158 -4.88404 0
M  V30 11052 C 211.029 -6.60234 -3.96415 0
M  V30 11053 C 210.299 -7.08259 -2.72856 0
M  V30 11054 O 210.089 -5.9427 -1.83651 0
M  V30 11055 C 208.899 -7.64886 -2.9555 0
M  V30 11056 O 208.509 -8.53963 -1.90717 0
M  V30 11057 C 208.019 -6.4116 -2.90739 0
M  V30 11058 C 208.729 -5.55375 -1.86963 0
M  V30 11059 N 208.679 -4.09664 -2.15742 0
M  V30 11060 H 211.518 -7.45574 -4.45629 0
M  V30 11061 H 211.79 -5.86232 -3.67314 0
M  V30 11062 H 210.922 -7.84412 -2.24479 0
M  V30 11063 P 206.959 -8.7635 -1.60911 0
M  V30 11064 O 206.739 -10.1388 -1.11561 0
M  V30 11065 O 206.169 -8.36503 -2.79617 0
M  V30 11066 O 206.709 -7.71806 -0.42951 0
M  V30 11067 C 207.649 -7.67148 0.673689 0
M  V30 11068 C 206.919 -7.33374 1.95559 0
M  V30 11069 O 206.709 -5.88721 2.00726 0
M  V30 11070 C 205.519 -7.92526 2.10483 0
M  V30 11071 O 205.129 -8.02971 3.47653 0
M  V30 11072 C 204.639 -6.89602 1.41652 0
M  V30 11073 C 205.349 -5.59201 1.75185 0
M  V30 11074 N 205.299 -4.58235 0.662552 0
M  V30 11075 H 208.138 -8.65116 0.777161 0
M  V30 11076 H 208.41 -6.90173 0.474152 0
M  V30 11077 H 207.542 -7.66548 2.79458 0
M  V30 11078 P 203.579 -8.03563 3.84925 0
M  V30 11079 O 203.359 -8.85821 5.0569 0
M  V30 11080 O 202.789 -8.41101 2.65469 0
M  V30 11081 O 203.329 -6.4965 4.18908 0
M  V30 11082 C 204.269 -5.81037 5.05421 0
M  V30 11083 C 203.539 -4.78366 5.89277 0
M  V30 11084 O 203.329 -3.58302 5.08433 0
M  V30 11085 C 202.139 -5.17448 6.36119 0
M  V30 11086 O 201.749 -4.45271 7.53232 0
M  V30 11087 C 201.259 -4.74639 5.19936 0
M  V30 11088 C 201.969 -3.49432 4.70418 0
M  V30 11089 N 201.919 -3.32099 3.22613 0
M  V30 11090 C 201.999 -4.28245 2.25527 0
M  V30 11091 N 201.929 -3.80823 1.04874 0
M  V30 11092 C 201.779 -2.44571 1.23535 0
M  V30 11093 C 201.649 -1.37068 0.330675 0
M  V30 11094 N 201.639 -1.51472 -0.990824 0
M  V30 11095 N 201.529 -0.138614 0.848756 0
M  V30 11096 C 201.539 0.00675923 2.16999 0
M  V30 11097 N 201.659 -0.904372 3.11122 0
M  V30 11098 C 201.779 -2.12707 2.56212 0
M  V30 11099 H 204.758 -6.54213 5.71376 0
M  V30 11100 H 205.03 -5.30936 4.43503 0
M  V30 11101 H 204.162 -4.55889 6.76652 0
M  V30 11102 H 201.507 -2.61715 5.17932 0
M  V30 11103 H 201.227 -5.52155 4.41878 0
M  V30 11104 H 200.236 -4.51981 5.53374 0
M  V30 11105 H 202.07 -6.25124 6.55234 0
M  V30 11106 H 202.111 -5.34372 2.47488 0
M  V30 11107 H 201.73 -2.45153 -1.4078 0
M  V30 11108 H 201.541 -0.688422 -1.59911 0
M  V30 11109 H 201.433 1.02584 2.52346 0
M  V30 11110 P 200.199 -4.23843 7.83734 0
M  V30 11111 O 199.979 -4.19407 9.29784 0
M  V30 11112 O 199.409 -5.24426 7.09156 0
M  V30 11113 O 199.949 -2.79386 7.20852 0
M  V30 11114 C 200.889 -1.7299 7.50419 0
M  V30 11115 C 200.159 -0.41401 7.5797 0
M  V30 11116 O 199.949 0.089787 6.22035 0
M  V30 11117 C 198.759 -0.447224 8.1878 0
M  V30 11118 O 198.369 0.825159 8.71201 0
M  V30 11119 C 197.879 -0.783801 6.99623 0
M  V30 11120 C 198.589 -0.0619192 5.85967 0
M  V30 11121 N 198.539 -0.7859 4.56281 0
M  V30 11122 C 198.389 -0.0359258 3.39981 0
M  V30 11123 O 198.299 1.19723 3.49038 0
M  V30 11124 N 198.339 -0.869151 2.14025 0
M  V30 11125 C 198.439 -2.01207 2.14363 0
M  V30 11126 N 198.389 -2.58978 0.954287 0
M  V30 11127 C 198.589 -2.80817 3.32215 0
M  V30 11128 C 198.639 -2.13785 4.50884 0
M  V30 11129 H 201.379 -1.93401 8.46693 0
M  V30 11130 H 201.649 -1.68181 6.71046 0
M  V30 11131 H 200.782 0.289076 8.15488 0
M  V30 11132 H 198.127 0.927166 5.72947 0
M  V30 11133 H 197.847 -1.87 6.82132 0
M  V30 11134 H 196.856 -0.404009 7.13457 0
M  V30 11135 H 198.69 -1.20599 8.97534 0
M  V30 11136 H 198.762 -2.70295 5.43162 0
M  V30 11137 H 198.66 -3.89465 3.27406 0
M  V30 11138 H 198.272 -2.01616 0.107046 0
M  V30 11139 H 198.468 -3.61403 0.873101 0
M  V30 11140 P 196.819 1.17771 8.83182 0
M  V30 11141 O 196.599 2.07206 9.98732 0
M  V30 11142 O 196.029 -0.0743816 8.81969 0
M  V30 11143 O 196.569 1.97652 7.47304 0
M  V30 11144 C 197.509 3.01133 7.08783 0
M  V30 11145 C 196.779 4.12613 6.37049 0
M  V30 11146 O 196.569 3.72827 4.97879 0
M  V30 11147 C 195.379 4.45085 6.88694 0
M  V30 11148 O 194.989 5.7877 6.5624 0
M  V30 11149 C 194.499 3.47817 6.12078 0
M  V30 11150 C 195.209 3.39414 4.77697 0
M  V30 11151 N 195.159 2.04615 4.15333 0
M  V30 11152 H 197.998 3.41248 7.98759 0
M  V30 11153 H 198.27 2.5837 6.41742 0
M  V30 11154 H 197.402 5.02657 6.42673 0
M  V30 11155 P 193.439 6.144 6.45285 0
M  V30 11156 O 193.219 7.54673 6.86199 0
M  V30 11157 O 192.649 5.12391 7.179 0
M  V30 11158 O 193.189 5.99158 4.88404 0
M  V30 11159 C 194.129 6.60234 3.96415 0
M  V30 11160 C 193.399 7.08259 2.72856 0
M  V30 11161 O 193.189 5.9427 1.83651 0
M  V30 11162 C 191.999 7.64886 2.9555 0
M  V30 11163 O 191.609 8.53963 1.90717 0
M  V30 11164 C 191.119 6.4116 2.90739 0
M  V30 11165 C 191.829 5.55375 1.86963 0
M  V30 11166 N 191.779 4.09664 2.15742 0
M  V30 11167 H 194.618 7.45574 4.45629 0
M  V30 11168 H 194.89 5.86232 3.67314 0
M  V30 11169 H 194.022 7.84412 2.24479 0
M  V30 11170 P 190.059 8.7635 1.60911 0
M  V30 11171 O 189.839 10.1388 1.11561 0
M  V30 11172 O 189.269 8.36503 2.79617 0
M  V30 11173 O 189.809 7.71806 0.42951 0
M  V30 11174 C 190.749 7.67148 -0.673689 0
M  V30 11175 C 190.019 7.33374 -1.95559 0
M  V30 11176 O 189.809 5.88721 -2.00726 0
M  V30 11177 C 188.619 7.92526 -2.10483 0
M  V30 11178 O 188.229 8.02971 -3.47653 0
M  V30 11179 C 187.739 6.89602 -1.41652 0
M  V30 11180 C 188.449 5.59201 -1.75185 0
M  V30 11181 N 188.399 4.58235 -0.662552 0
M  V30 11182 H 191.238 8.65116 -0.777161 0
M  V30 11183 H 191.51 6.90173 -0.474152 0
M  V30 11184 H 190.642 7.66548 -2.79458 0
M  V30 11185 P 186.679 8.03563 -3.84925 0
M  V30 11186 O 186.459 8.85821 -5.0569 0
M  V30 11187 O 185.889 8.41101 -2.65469 0
M  V30 11188 O 186.429 6.4965 -4.18908 0
M  V30 11189 C 187.369 5.81037 -5.05421 0
M  V30 11190 C 186.639 4.78366 -5.89277 0
M  V30 11191 O 186.429 3.58302 -5.08433 0
M  V30 11192 C 185.239 5.17448 -6.36119 0
M  V30 11193 O 184.849 4.45271 -7.53232 0
M  V30 11194 C 184.359 4.74639 -5.19936 0
M  V30 11195 C 185.069 3.49432 -4.70418 0
M  V30 11196 N 185.019 3.31776 -3.22945 0
M  V30 11197 H 187.858 6.54213 -5.71376 0
M  V30 11198 H 188.13 5.30492 -4.44033 0
M  V30 11199 H 187.262 4.55889 -6.76652 0
M  V30 11200 P 183.299 4.23843 -7.83734 0
M  V30 11201 O 183.079 4.19407 -9.29784 0
M  V30 11202 O 182.509 5.24426 -7.09156 0
M  V30 11203 O 183.049 2.79386 -7.20852 0
M  V30 11204 C 183.989 1.7299 -7.50419 0
M  V30 11205 C 183.259 0.41401 -7.5797 0
M  V30 11206 O 183.049 -0.089787 -6.22035 0
M  V30 11207 C 181.859 0.447224 -8.1878 0
M  V30 11208 O 181.469 -0.825159 -8.71201 0
M  V30 11209 C 180.979 0.783801 -6.99623 0
M  V30 11210 C 181.689 0.0619192 -5.85967 0
M  V30 11211 N 181.639 0.7859 -4.56281 0
M  V30 11212 C 181.489 0.0359258 -3.39981 0
M  V30 11213 O 181.399 -1.19723 -3.49038 0
M  V30 11214 N 181.439 0.869151 -2.14025 0
M  V30 11215 C 181.539 2.01207 -2.14363 0
M  V30 11216 N 181.489 2.58978 -0.954287 0
M  V30 11217 C 181.689 2.80817 -3.32215 0
M  V30 11218 C 181.739 2.13785 -4.50884 0
M  V30 11219 H 184.479 1.93401 -8.46693 0
M  V30 11220 H 184.749 1.68181 -6.71046 0
M  V30 11221 H 183.882 -0.289076 -8.15488 0
M  V30 11222 H 181.227 -0.927166 -5.72947 0
M  V30 11223 H 180.947 1.87 -6.82132 0
M  V30 11224 H 179.956 0.404009 -7.13457 0
M  V30 11225 H 181.79 1.20599 -8.97534 0
M  V30 11226 H 181.862 2.70295 -5.43162 0
M  V30 11227 H 181.76 3.89465 -3.27406 0
M  V30 11228 H 181.372 2.01616 -0.107046 0
M  V30 11229 H 181.568 3.61403 -0.873101 0
M  V30 11230 P 179.919 -1.17771 -8.83182 0
M  V30 11231 O 179.699 -2.07206 -9.98732 0
M  V30 11232 O 179.129 0.0743816 -8.81969 0
M  V30 11233 O 179.669 -1.97652 -7.47304 0
M  V30 11234 C 180.609 -3.01055 -7.08599 0
M  V30 11235 C 179.879 -4.12613 -6.37049 0
M  V30 11236 O 179.669 -3.72827 -4.97879 0
M  V30 11237 C 178.479 -4.45719 -6.88164 0
M  V30 11238 O 178.089 -5.7877 -6.5624 0
M  V30 11239 C 177.599 -3.47768 -6.11991 0
M  V30 11240 C 178.309 -3.39356 -4.77615 0
M  V30 11241 N 178.259 -2.04571 -4.15244 0
M  V30 11242 C 178.109 -1.98587 -2.78314 0
M  V30 11243 O 178.019 -2.98134 -2.08835 0
M  V30 11244 N 178.069 -0.714467 -2.24925 0
M  V30 11245 C 178.159 0.470001 -2.94169 0
M  V30 11246 O 178.109 1.55587 -2.35195 0
M  V30 11247 C 178.309 0.312541 -4.36783 0
M  V30 11248 C 178.419 1.57711 -5.16352 0
M  V30 11249 C 178.359 -0.914512 -4.92583 0
M  V30 11250 H 181.1 -3.41169 -7.98575 0
M  V30 11251 H 181.369 -2.58295 -6.41556 0
M  V30 11252 H 180.502 -5.02657 -6.42673 0
M  V30 11253 H 177.847 -4.11637 -4.08885 0
M  V30 11254 H 177.568 -2.49626 -6.61679 0
M  V30 11255 H 176.576 -3.86566 -6.00778 0
M  V30 11256 H 178.41 -4.29943 -7.96918 0
M  V30 11257 H 178.481 -1.00937 -6.00374 0
M  V30 11258 H 177.451 1.80153 -5.63503 0
M  V30 11259 H 179.188 1.4566 -5.94104 0
M  V30 11260 H 178.7 2.40664 -4.49645 0
M  V30 11261 H 177.964 -0.647622 -1.25697 0
M  V30 11262 P 176.539 -6.144 -6.45285 0
M  V30 11263 O 176.319 -7.54673 -6.86199 0
M  V30 11264 O 175.749 -5.12391 -7.179 0
M  V30 11265 O 176.289 -5.99158 -4.88404 0
M  V30 11266 C 177.229 -6.60234 -3.96415 0
M  V30 11267 C 176.499 -7.08259 -2.72856 0
M  V30 11268 O 176.289 -5.9427 -1.83651 0
M  V30 11269 C 175.099 -7.64886 -2.9555 0
M  V30 11270 O 174.709 -8.53963 -1.90717 0
M  V30 11271 C 174.219 -6.4116 -2.90739 0
M  V30 11272 C 174.929 -5.55375 -1.86963 0
M  V30 11273 N 174.879 -4.09664 -2.15742 0
M  V30 11274 H 177.718 -7.45574 -4.45629 0
M  V30 11275 H 177.99 -5.86232 -3.67314 0
M  V30 11276 H 177.122 -7.84412 -2.24479 0
M  V30 11277 P 173.159 -8.7635 -1.60911 0
M  V30 11278 O 172.939 -10.1388 -1.11561 0
M  V30 11279 O 172.369 -8.36503 -2.79617 0
M  V30 11280 O 172.909 -7.71806 -0.42951 0
M  V30 11281 C 173.849 -7.66948 0.673514 0
M  V30 11282 C 173.119 -7.33374 1.95559 0
M  V30 11283 O 172.909 -5.88721 2.00726 0
M  V30 11284 C 171.719 -7.92218 2.1125 0
M  V30 11285 O 171.329 -8.02971 3.47653 0
M  V30 11286 C 170.839 -6.89504 1.41631 0
M  V30 11287 C 171.549 -5.59106 1.75155 0
M  V30 11288 N 171.499 -4.58136 0.662409 0
M  V30 11289 C 171.349 -3.26059 1.02863 0
M  V30 11290 O 171.259 -2.90743 2.19009 0
M  V30 11291 N 171.309 -2.35995 -0.0155585 0
M  V30 11292 C 171.399 -2.65248 -1.35603 0
M  V30 11293 O 171.349 -1.75605 -2.20651 0
M  V30 11294 C 171.549 -4.05747 -1.64698 0
M  V30 11295 C 171.659 -4.42345 -3.09553 0
M  V30 11296 C 171.599 -4.96734 -0.652411 0
M  V30 11297 H 174.34 -8.64917 0.776982 0
M  V30 11298 H 174.609 -6.89974 0.474015 0
M  V30 11299 H 173.742 -7.66548 2.79458 0
M  V30 11300 H 171.087 -5.16076 2.65138 0
M  V30 11301 H 170.808 -7.06433 0.329384 0
M  V30 11302 H 169.816 -6.90829 1.81996 0
M  V30 11303 H 171.65 -8.90774 1.62639 0
M  V30 11304 H 171.721 -6.02181 -0.895285 0
M  V30 11305 H 170.691 -4.80252 -3.45468 0
M  V30 11306 H 172.428 -5.20015 -3.22119 0
M  V30 11307 H 171.94 -3.53269 -3.67833 0
M  V30 11308 H 171.204 -1.39558 0.227499 0
M  V30 11309 P 169.779 -8.03563 3.84925 0
M  V30 11310 O 169.559 -8.85821 5.0569 0
M  V30 11311 O 168.989 -8.41101 2.65469 0
M  V30 11312 O 169.529 -6.4965 4.18908 0
M  V30 11313 C 170.469 -5.81037 5.05421 0
M  V30 11314 C 169.739 -4.78366 5.89277 0
M  V30 11315 O 169.529 -3.58302 5.08433 0
M  V30 11316 C 168.339 -5.17448 6.36119 0
M  V30 11317 O 167.949 -4.45271 7.53232 0
M  V30 11318 C 167.459 -4.74639 5.19936 0
M  V30 11319 C 168.169 -3.49432 4.70418 0
M  V30 11320 N 168.119 -3.32099 3.22613 0
M  V30 11321 H 170.958 -6.54213 5.71376 0
M  V30 11322 H 171.23 -5.30936 4.43503 0
M  V30 11323 H 170.362 -4.55889 6.76652 0
M  V30 11324 H 167.707 -2.61715 5.17932 0
M  V30 11325 H 167.427 -5.52155 4.41878 0
M  V30 11326 H 166.436 -4.51981 5.53374 0
M  V30 11327 H 168.27 -6.25124 6.55234 0
M  V30 11328 P 166.399 -4.23843 7.83734 0
M  V30 11329 O 166.179 -4.19407 9.29784 0
M  V30 11330 O 165.609 -5.24426 7.09156 0
M  V30 11331 O 166.149 -2.7935 7.20758 0
M  V30 11332 C 167.089 -1.7299 7.50419 0
M  V30 11333 C 166.359 -0.406376 7.57911 0
M  V30 11334 O 166.149 0.0897726 6.21935 0
M  V30 11335 C 164.959 -0.447224 8.1878 0
M  V30 11336 O 164.569 0.825065 8.71101 0
M  V30 11337 C 164.079 -0.783801 6.99623 0
M  V30 11338 C 164.789 -0.0619192 5.85967 0
M  V30 11339 N 164.739 -0.790462 4.56202 0
M  V30 11340 H 167.578 -1.93423 8.4679 0
M  V30 11341 H 167.85 -1.68852 6.70877 0
M  V30 11342 H 166.982 0.289041 8.15388 0
M  V30 11343 H 164.327 0.927006 5.72848 0
M  V30 11344 H 164.047 -1.86973 6.82036 0
M  V30 11345 H 163.056 -0.403953 7.13357 0
M  V30 11346 H 164.89 -1.20599 8.97534 0
M  V30 11347 P 163.019 1.17771 8.83182 0
M  V30 11348 O 162.799 2.07206 9.98732 0
M  V30 11349 O 162.229 -0.0743816 8.81969 0
M  V30 11350 O 162.769 1.97652 7.47304 0
M  V30 11351 C 163.709 3.01055 7.08599 0
M  V30 11352 C 162.979 4.12613 6.37049 0
M  V30 11353 O 162.769 3.72827 4.97879 0
M  V30 11354 C 161.579 4.45719 6.88164 0
M  V30 11355 O 161.189 5.7877 6.5624 0
M  V30 11356 C 160.699 3.47768 6.11991 0
M  V30 11357 C 161.409 3.39356 4.77615 0
M  V30 11358 N 161.359 2.04571 4.15244 0
M  V30 11359 C 161.209 1.98587 2.78314 0
M  V30 11360 O 161.119 2.98134 2.08835 0
M  V30 11361 N 161.169 0.714467 2.24925 0
M  V30 11362 C 161.259 -0.470001 2.94169 0
M  V30 11363 O 161.209 -1.55587 2.35195 0
M  V30 11364 C 161.409 -0.312541 4.36783 0
M  V30 11365 C 161.519 -1.57711 5.16352 0
M  V30 11366 C 161.459 0.914512 4.92583 0
M  V30 11367 H 164.2 3.41169 7.98575 0
M  V30 11368 H 164.469 2.58295 6.41556 0
M  V30 11369 H 163.602 5.02657 6.42673 0
M  V30 11370 H 160.947 4.11637 4.08885 0
M  V30 11371 H 160.668 2.49626 6.61679 0
M  V30 11372 H 159.676 3.86566 6.00778 0
M  V30 11373 H 161.51 4.29943 7.96918 0
M  V30 11374 H 161.581 1.00937 6.00374 0
M  V30 11375 H 160.551 -1.80153 5.63503 0
M  V30 11376 H 162.288 -1.4566 5.94104 0
M  V30 11377 H 161.8 -2.40664 4.49645 0
M  V30 11378 H 161.064 0.647622 1.25697 0
M  V30 11379 P 159.639 6.144 6.45285 0
M  V30 11380 O 159.419 7.54673 6.86199 0
M  V30 11381 O 158.849 5.12391 7.179 0
M  V30 11382 O 159.389 5.99158 4.88404 0
M  V30 11383 C 160.329 6.60234 3.96415 0
M  V30 11384 C 159.599 7.08259 2.72856 0
M  V30 11385 O 159.389 5.9427 1.83651 0
M  V30 11386 C 158.199 7.64886 2.9555 0
M  V30 11387 O 157.809 8.53963 1.90717 0
M  V30 11388 C 157.319 6.4116 2.90739 0
M  V30 11389 C 158.029 5.55375 1.86963 0
M  V30 11390 N 157.979 4.09664 2.15742 0
M  V30 11391 H 160.818 7.45574 4.45629 0
M  V30 11392 H 161.09 5.86232 3.67314 0
M  V30 11393 H 160.222 7.84412 2.24479 0
M  V30 11394 P 156.259 8.7635 1.60911 0
M  V30 11395 O 156.039 10.1388 1.11561 0
M  V30 11396 O 155.469 8.36503 2.79617 0
M  V30 11397 O 156.009 7.71806 0.42951 0
M  V30 11398 C 156.949 7.67148 -0.673689 0
M  V30 11399 C 156.219 7.33374 -1.95559 0
M  V30 11400 O 156.009 5.88721 -2.00726 0
M  V30 11401 C 154.819 7.92526 -2.10483 0
M  V30 11402 O 154.429 8.02971 -3.47653 0
M  V30 11403 C 153.939 6.89602 -1.41652 0
M  V30 11404 C 154.649 5.59201 -1.75185 0
M  V30 11405 N 154.599 4.58235 -0.662552 0
M  V30 11406 H 157.438 8.65116 -0.777161 0
M  V30 11407 H 157.71 6.90173 -0.474152 0
M  V30 11408 H 156.842 7.66548 -2.79458 0
M  V30 11409 P 152.879 8.03563 -3.84925 0
M  V30 11410 O 152.659 8.85821 -5.0569 0
M  V30 11411 O 152.089 8.41101 -2.65469 0
M  V30 11412 O 152.629 6.4965 -4.18908 0
M  V30 11413 C 153.569 5.80886 -5.05289 0
M  V30 11414 C 152.839 4.78366 -5.89277 0
M  V30 11415 O 152.629 3.58302 -5.08433 0
M  V30 11416 C 151.439 5.16748 -6.36559 0
M  V30 11417 O 151.049 4.45271 -7.53232 0
M  V30 11418 C 150.559 4.74572 -5.19863 0
M  V30 11419 C 151.269 3.49373 -4.70338 0
M  V30 11420 N 151.219 3.31704 -3.22876 0
M  V30 11421 C 151.069 2.03326 -2.74871 0
M  V30 11422 O 150.979 1.06486 -3.48076 0
M  V30 11423 N 151.029 1.91838 -1.37456 0
M  V30 11424 C 151.119 2.94295 -0.462035 0
M  V30 11425 O 151.069 2.71763 0.752928 0
M  V30 11426 C 151.269 4.25064 -1.05249 0
M  V30 11427 C 151.379 5.39815 -0.095697 0
M  V30 11428 C 151.319 4.40214 -2.39192 0
M  V30 11429 H 154.06 6.54063 -5.71245 0
M  V30 11430 H 154.329 5.30339 -4.43905 0
M  V30 11431 H 153.462 4.55889 -6.76652 0
M  V30 11432 H 150.807 2.6167 -5.17842 0
M  V30 11433 H 150.528 5.52155 -4.41878 0
M  V30 11434 H 149.536 4.51918 -5.53297 0
M  V30 11435 H 151.37 6.25055 -6.55162 0
M  V30 11436 H 151.441 5.39798 -2.81523 0
M  V30 11437 H 150.411 5.91593 -0.0279582 0
M  V30 11438 H 152.148 6.10038 -0.450573 0
M  V30 11439 H 151.66 5.02007 0.89937 0
M  V30 11440 H 150.924 0.995326 -1.00435 0
M  V30 11441 P 149.499 4.23843 -7.83734 0
M  V30 11442 O 149.279 4.19407 -9.29784 0
M  V30 11443 O 148.709 5.24426 -7.09156 0
M  V30 11444 O 149.249 2.7935 -7.20758 0
M  V30 11445 C 150.189 1.72945 -7.50224 0
M  V30 11446 C 149.459 0.406376 -7.57911 0
M  V30 11447 O 149.249 -0.0897726 -6.21935 0
M  V30 11448 C 148.059 0.438983 -8.18724 0
M  V30 11449 O 147.669 -0.825065 -8.71101 0
M  V30 11450 C 147.179 0.783689 -6.99524 0
M  V30 11451 C 147.889 0.0619086 -5.85867 0
M  V30 11452 N 147.839 0.78573 -4.56183 0
M  V30 11453 C 147.689 0.0292889 -3.41887 0
M  V30 11454 O 147.599 -1.18445 -3.4419 0
M  V30 11455 N 147.649 0.744061 -2.23964 0
M  V30 11456 C 147.739 2.10932 -2.10362 0
M  V30 11457 O 147.689 2.64117 -0.98825 0
M  V30 11458 C 147.889 2.8202 -3.34994 0
M  V30 11459 C 147.999 4.31095 -3.25037 0
M  V30 11460 C 147.939 2.15547 -4.52261 0
M  V30 11461 H 150.68 1.93379 -8.46595 0
M  V30 11462 H 150.949 1.68132 -6.70852 0
M  V30 11463 H 150.082 -0.289041 -8.15388 0
M  V30 11464 H 147.427 -0.926847 -5.72749 0
M  V30 11465 H 147.148 1.86973 -6.82036 0
M  V30 11466 H 146.156 0.403896 -7.13257 0
M  V30 11467 H 147.99 1.20585 -8.97435 0
M  V30 11468 H 148.061 2.71231 -5.45042 0
M  V30 11469 H 147.031 4.76966 -3.49992 0
M  V30 11470 H 148.768 4.67047 -3.95024 0
M  V30 11471 H 148.28 4.58996 -2.22312 0
M  V30 11472 H 147.544 0.214893 -1.39758 0
M  V30 11473 P 146.119 -1.17771 -8.83182 0
M  V30 11474 O 145.899 -2.07206 -9.98732 0
M  V30 11475 O 145.329 0.0743816 -8.81969 0
M  V30 11476 O 145.869 -1.97652 -7.47304 0
M  V30 11477 C 146.809 -3.01055 -7.08599 0
M  V30 11478 C 146.079 -4.12613 -6.37049 0
M  V30 11479 O 145.869 -3.72827 -4.97879 0
M  V30 11480 C 144.679 -4.45719 -6.88164 0
M  V30 11481 O 144.289 -5.7877 -6.5624 0
M  V30 11482 C 143.799 -3.47768 -6.11991 0
M  V30 11483 C 144.509 -3.39356 -4.77615 0
M  V30 11484 N 144.459 -2.04571 -4.15244 0
M  V30 11485 C 144.309 -1.98587 -2.78314 0
M  V30 11486 O 144.219 -2.98134 -2.08835 0
M  V30 11487 N 144.269 -0.714467 -2.24925 0
M  V30 11488 C 144.359 0.470001 -2.94169 0
M  V30 11489 O 144.309 1.55587 -2.35195 0
M  V30 11490 C 144.509 0.312541 -4.36783 0
M  V30 11491 C 144.619 1.57711 -5.16352 0
M  V30 11492 C 144.559 -0.914512 -4.92583 0
M  V30 11493 H 147.3 -3.41169 -7.98575 0
M  V30 11494 H 147.569 -2.58295 -6.41556 0
M  V30 11495 H 146.702 -5.02657 -6.42673 0
M  V30 11496 H 144.047 -4.11637 -4.08885 0
M  V30 11497 H 143.768 -2.49626 -6.61679 0
M  V30 11498 H 142.776 -3.86566 -6.00778 0
M  V30 11499 H 144.61 -4.29943 -7.96918 0
M  V30 11500 H 144.681 -1.00937 -6.00374 0
M  V30 11501 H 143.651 1.80153 -5.63503 0
M  V30 11502 H 145.388 1.4566 -5.94104 0
M  V30 11503 H 144.9 2.40664 -4.49645 0
M  V30 11504 H 144.164 -0.647622 -1.25697 0
M  V30 11505 P 142.739 -6.144 -6.45285 0
M  V30 11506 O 142.519 -7.54673 -6.86199 0
M  V30 11507 O 141.949 -5.12391 -7.179 0
M  V30 11508 O 142.489 -5.99158 -4.88404 0
M  V30 11509 C 143.429 -6.60234 -3.96415 0
M  V30 11510 C 142.699 -7.08259 -2.72856 0
M  V30 11511 O 142.489 -5.9427 -1.83651 0
M  V30 11512 C 141.299 -7.64886 -2.9555 0
M  V30 11513 O 140.909 -8.53963 -1.90717 0
M  V30 11514 C 140.419 -6.4116 -2.90739 0
M  V30 11515 C 141.129 -5.55375 -1.86963 0
M  V30 11516 N 141.079 -4.09448 -2.16152 0
M  V30 11517 H 143.918 -7.45574 -4.45629 0
M  V30 11518 H 144.19 -5.85864 -3.679 0
M  V30 11519 H 143.322 -7.84412 -2.24479 0
M  V30 11520 H 140.667 -5.73457 -0.888562 0
M  V30 11521 H 140.387 -5.90877 -3.88583 0
M  V30 11522 H 139.396 -6.6596 -2.58858 0
M  V30 11523 H 141.23 -8.16339 -3.92049 0
M  V30 11524 P 139.359 -8.7635 -1.60911 0
M  V30 11525 O 139.139 -10.1388 -1.11561 0
M  V30 11526 O 138.569 -8.36503 -2.79617 0
M  V30 11527 O 139.109 -7.71906 -0.429565 0
M  V30 11528 C 140.049 -7.67148 0.673689 0
M  V30 11529 C 139.319 -7.33666 1.94851 0
M  V30 11530 O 139.109 -5.88816 2.00759 0
M  V30 11531 C 137.919 -7.92526 2.10483 0
M  V30 11532 O 137.529 -8.03063 3.47693 0
M  V30 11533 C 137.039 -6.89602 1.41652 0
M  V30 11534 C 137.749 -5.59201 1.75185 0
M  V30 11535 N 137.699 -4.58235 0.662552 0
M  V30 11536 C 137.549 -3.24451 1.01643 0
M  V30 11537 O 137.459 -2.94958 2.21722 0
M  V30 11538 N 137.499 -2.30408 -0.165238 0
M  V30 11539 C 137.599 -2.66048 -1.25118 0
M  V30 11540 N 137.549 -1.70787 -2.16813 0
M  V30 11541 C 137.749 -4.02732 -1.64413 0
M  V30 11542 C 137.799 -4.9488 -0.63991 0
M  V30 11543 H 140.539 -8.65017 0.777072 0
M  V30 11544 H 140.809 -6.90173 0.474152 0
M  V30 11545 H 139.942 -7.66642 2.79492 0
M  V30 11546 H 137.287 -5.16254 2.65229 0
M  V30 11547 H 137.007 -7.06532 0.329431 0
M  V30 11548 H 136.016 -6.91023 1.82047 0
M  V30 11549 H 137.85 -8.90873 1.62657 0
M  V30 11550 H 137.922 -6.00104 -0.892197 0
M  V30 11551 H 137.82 -4.31733 -2.69229 0
M  V30 11552 H 137.432 -0.724835 -1.8844 0
M  V30 11553 H 137.628 -1.94716 -3.16734 0
M  V30 11554 P 135.979 -8.03563 3.84925 0
M  V30 11555 O 135.759 -8.85821 5.0569 0
M  V30 11556 O 135.189 -8.41101 2.65469 0
M  V30 11557 O 135.729 -6.4965 4.18908 0
M  V30 11558 C 136.669 -5.81037 5.05421 0
M  V30 11559 C 135.939 -4.78366 5.89277 0
M  V30 11560 O 135.729 -3.58302 5.08433 0
M  V30 11561 C 134.539 -5.17448 6.36119 0
M  V30 11562 O 134.149 -4.45271 7.53232 0
M  V30 11563 C 133.659 -4.74639 5.19936 0
M  V30 11564 C 134.369 -3.49432 4.70418 0
M  V30 11565 N 134.319 -3.32099 3.22613 0
M  V30 11566 H 137.158 -6.54213 5.71376 0
M  V30 11567 H 137.43 -5.30936 4.43503 0
M  V30 11568 H 136.562 -4.55889 6.76652 0
M  V30 11569 H 133.907 -2.61715 5.17932 0
M  V30 11570 H 133.627 -5.52155 4.41878 0
M  V30 11571 H 132.636 -4.51981 5.53374 0
M  V30 11572 H 134.47 -6.25124 6.55234 0
M  V30 11573 P 132.599 -4.23843 7.83734 0
M  V30 11574 O 132.379 -4.19407 9.29784 0
M  V30 11575 O 131.809 -5.24426 7.09156 0
M  V30 11576 O 132.349 -2.7935 7.20758 0
M  V30 11577 C 133.289 -1.7299 7.50419 0
M  V30 11578 C 132.559 -0.406376 7.57911 0
M  V30 11579 O 132.349 0.0897726 6.21935 0
M  V30 11580 C 131.159 -0.447224 8.1878 0
M  V30 11581 O 130.769 0.825065 8.71101 0
M  V30 11582 C 130.279 -0.783801 6.99623 0
M  V30 11583 C 130.989 -0.0619192 5.85967 0
M  V30 11584 N 130.939 -0.7859 4.56281 0
M  V30 11585 H 133.778 -1.93423 8.4679 0
M  V30 11586 H 134.05 -1.68181 6.71046 0
M  V30 11587 H 133.182 0.289041 8.15388 0
M  V30 11588 P 129.219 1.17771 8.83182 0
M  V30 11589 O 128.999 2.07206 9.98732 0
M  V30 11590 O 128.429 -0.0743816 8.81969 0
M  V30 11591 O 128.969 1.97652 7.47304 0
M  V30 11592 C 129.909 3.01133 7.08783 0
M  V30 11593 C 129.179 4.12613 6.37049 0
M  V30 11594 O 128.969 3.72827 4.97879 0
M  V30 11595 C 127.779 4.45085 6.88694 0
M  V30 11596 O 127.389 5.7877 6.5624 0
M  V30 11597 C 126.899 3.47817 6.12078 0
M  V30 11598 C 127.609 3.39414 4.77697 0
M  V30 11599 N 127.559 2.04615 4.15333 0
M  V30 11600 H 130.398 3.41248 7.98759 0
M  V30 11601 H 130.67 2.5837 6.41742 0
M  V30 11602 H 129.802 5.02657 6.42673 0
M  V30 11603 P 125.839 6.144 6.45285 0
M  V30 11604 O 125.619 7.54673 6.86199 0
M  V30 11605 O 125.049 5.12391 7.179 0
M  V30 11606 O 125.589 5.99158 4.88404 0
M  V30 11607 C 126.529 6.60234 3.96415 0
M  V30 11608 C 125.799 7.08259 2.72856 0
M  V30 11609 O 125.589 5.9427 1.83651 0
M  V30 11610 C 124.399 7.64886 2.9555 0
M  V30 11611 O 124.009 8.53963 1.90717 0
M  V30 11612 C 123.519 6.4116 2.90739 0
M  V30 11613 C 124.229 5.55375 1.86963 0
M  V30 11614 N 124.179 4.09664 2.15742 0
M  V30 11615 H 127.018 7.45574 4.45629 0
M  V30 11616 H 127.29 5.86232 3.67314 0
M  V30 11617 H 126.422 7.84412 2.24479 0
M  V30 11618 P 122.459 8.7635 1.60911 0
M  V30 11619 O 122.239 10.1388 1.11561 0
M  V30 11620 O 121.669 8.36503 2.79617 0
M  V30 11621 O 122.209 7.71806 0.42951 0
M  V30 11622 C 123.149 7.67148 -0.673689 0
M  V30 11623 C 122.419 7.33374 -1.95559 0
M  V30 11624 O 122.209 5.88721 -2.00726 0
M  V30 11625 C 121.019 7.92526 -2.10483 0
M  V30 11626 O 120.629 8.02971 -3.47653 0
M  V30 11627 C 120.139 6.89602 -1.41652 0
M  V30 11628 C 120.849 5.59201 -1.75185 0
M  V30 11629 N 120.799 4.58235 -0.662552 0
M  V30 11630 H 123.638 8.65116 -0.777161 0
M  V30 11631 H 123.91 6.90173 -0.474152 0
M  V30 11632 H 123.042 7.66548 -2.79458 0
M  V30 11633 P 119.079 8.03563 -3.84925 0
M  V30 11634 O 118.859 8.85821 -5.0569 0
M  V30 11635 O 118.289 8.41101 -2.65469 0
M  V30 11636 O 118.829 6.49734 -4.18962 0
M  V30 11637 C 119.769 5.81037 -5.05421 0
M  V30 11638 C 119.039 4.79018 -5.88876 0
M  V30 11639 O 118.829 3.58359 -5.08515 0
M  V30 11640 C 117.639 5.17448 -6.36119 0
M  V30 11641 O 117.249 4.45322 -7.53318 0
M  V30 11642 C 116.759 4.74639 -5.19936 0
M  V30 11643 C 117.469 3.49432 -4.70418 0
M  V30 11644 N 117.419 3.31776 -3.22945 0
M  V30 11645 C 117.269 2.02742 -2.72939 0
M  V30 11646 O 117.179 1.08301 -3.52749 0
M  V30 11647 N 117.219 1.96117 -1.22063 0
M  V30 11648 C 117.319 2.8878 -0.551566 0
M  V30 11649 N 117.269 2.65609 0.750198 0
M  V30 11650 C 117.469 4.22457 -1.03707 0
M  V30 11651 C 117.519 4.37979 -2.39113 0
M  V30 11652 H 120.259 6.54138 -5.7131 0
M  V30 11653 H 120.529 5.30492 -4.44033 0
M  V30 11654 H 119.662 4.55945 -6.76735 0
M  V30 11655 H 117.007 2.6176 -5.18021 0
M  V30 11656 H 116.727 5.52233 -4.41941 0
M  V30 11657 H 115.736 4.52045 -5.53452 0
M  V30 11658 H 117.57 6.25124 -6.55234 0
M  V30 11659 H 117.642 5.37936 -2.80552 0
M  V30 11660 H 117.54 5.07528 -0.359553 0
M  V30 11661 H 117.152 1.69403 1.09847 0
M  V30 11662 H 117.348 3.43701 1.41792 0
M  V30 11663 P 115.699 4.23843 -7.83734 0
M  V30 11664 O 115.479 4.19407 -9.29784 0
M  V30 11665 O 114.909 5.24426 -7.09156 0
M  V30 11666 O 115.449 2.7935 -7.20758 0
M  V30 11667 C 116.389 1.72945 -7.50224 0
M  V30 11668 C 115.659 0.406376 -7.57911 0
M  V30 11669 O 115.449 -0.0897726 -6.21935 0
M  V30 11670 C 114.259 0.438983 -8.18724 0
M  V30 11671 O 113.869 -0.825065 -8.71101 0
M  V30 11672 C 113.379 0.783689 -6.99524 0
M  V30 11673 C 114.089 0.0619086 -5.85867 0
M  V30 11674 N 114.039 0.78573 -4.56183 0
M  V30 11675 C 113.889 0.0292889 -3.41887 0
M  V30 11676 O 113.799 -1.18445 -3.4419 0
M  V30 11677 N 113.849 0.744061 -2.23964 0
M  V30 11678 C 113.939 2.10932 -2.10362 0
M  V30 11679 O 113.889 2.64117 -0.98825 0
M  V30 11680 C 114.089 2.8202 -3.34994 0
M  V30 11681 C 114.199 4.31095 -3.25037 0
M  V30 11682 C 114.139 2.15547 -4.52261 0
M  V30 11683 H 116.88 1.93379 -8.46595 0
M  V30 11684 H 117.149 1.68132 -6.70852 0
M  V30 11685 H 116.282 -0.289041 -8.15388 0
M  V30 11686 H 113.627 -0.926847 -5.72749 0
M  V30 11687 H 113.348 1.86973 -6.82036 0
M  V30 11688 H 112.356 0.403896 -7.13257 0
M  V30 11689 H 114.19 1.20585 -8.97435 0
M  V30 11690 H 114.261 2.71231 -5.45042 0
M  V30 11691 H 113.231 4.76966 -3.49992 0
M  V30 11692 H 114.968 4.67047 -3.95024 0
M  V30 11693 H 114.48 4.58996 -2.22312 0
M  V30 11694 H 113.744 0.214893 -1.39758 0
M  V30 11695 P 112.319 -1.17771 -8.83182 0
M  V30 11696 O 112.099 -2.07206 -9.98732 0
M  V30 11697 O 111.529 0.0743816 -8.81969 0
M  V30 11698 O 112.069 -1.97652 -7.47304 0
M  V30 11699 C 113.009 -3.01133 -7.08783 0
M  V30 11700 C 112.279 -4.12613 -6.37049 0
M  V30 11701 O 112.069 -3.72827 -4.97879 0
M  V30 11702 C 110.879 -4.45085 -6.88694 0
M  V30 11703 O 110.489 -5.7877 -6.5624 0
M  V30 11704 C 109.999 -3.47817 -6.12078 0
M  V30 11705 C 110.709 -3.39414 -4.77697 0
M  V30 11706 N 110.659 -2.04615 -4.15333 0
M  V30 11707 H 113.498 -3.41248 -7.98759 0
M  V30 11708 H 113.77 -2.5837 -6.41742 0
M  V30 11709 H 112.902 -5.02657 -6.42673 0
M  V30 11710 P 108.939 -6.144 -6.45285 0
M  V30 11711 O 108.719 -7.54673 -6.86199 0
M  V30 11712 O 108.149 -5.12391 -7.179 0
M  V30 11713 O 108.689 -5.99236 -4.88467 0
M  V30 11714 C 109.629 -6.60234 -3.96415 0
M  V30 11715 C 108.899 -7.08079 -2.736 0
M  V30 11716 O 108.689 -5.94365 -1.8368 0
M  V30 11717 C 107.499 -7.64886 -2.9555 0
M  V30 11718 O 107.109 -8.5406 -1.90739 0
M  V30 11719 C 106.619 -6.4116 -2.90739 0
M  V30 11720 C 107.329 -5.55375 -1.86963 0
M  V30 11721 N 107.279 -4.09664 -2.15742 0
M  V30 11722 C 107.129 -3.22231 -1.08477 0
M  V30 11723 O 107.039 -3.68951 0.0600489 0
M  V30 11724 N 107.079 -1.76692 -1.48799 0
M  V30 11725 C 107.179 -1.41695 -2.57602 0
M  V30 11726 N 107.129 -0.107296 -2.75791 0
M  V30 11727 C 107.329 -2.29178 -3.69733 0
M  V30 11728 C 107.379 -3.62753 -3.42653 0
M  V30 11729 H 110.119 -7.45488 -4.45578 0
M  V30 11730 H 110.389 -5.86232 -3.67314 0
M  V30 11731 H 109.522 -7.84508 -2.24507 0
M  V30 11732 H 106.867 -5.73556 -0.888715 0
M  V30 11733 H 106.587 -5.9096 -3.88638 0
M  V30 11734 H 105.596 -6.66053 -2.58894 0
M  V30 11735 H 107.43 -8.16339 -3.92049 0
M  V30 11736 H 107.502 -4.33052 -4.24913 0
M  V30 11737 H 107.4 -1.9103 -4.71577 0
M  V30 11738 H 107.012 0.521221 -1.95056 0
M  V30 11739 H 107.208 0.286429 -3.70695 0
M  V30 11740 P 105.559 -8.7635 -1.60911 0
M  V30 11741 O 105.339 -10.1388 -1.11561 0
M  V30 11742 O 104.769 -8.36503 -2.79617 0
M  V30 11743 O 105.309 -7.71806 -0.42951 0
M  V30 11744 C 106.249 -7.67148 0.673689 0
M  V30 11745 C 105.519 -7.33374 1.95559 0
M  V30 11746 O 105.309 -5.88721 2.00726 0
M  V30 11747 C 104.119 -7.92526 2.10483 0
M  V30 11748 O 103.729 -8.02971 3.47653 0
M  V30 11749 C 103.239 -6.89602 1.41652 0
M  V30 11750 C 103.949 -5.59201 1.75185 0
M  V30 11751 N 103.899 -4.58301 0.657969 0
M  V30 11752 C 103.979 -4.79019 -0.692603 0
M  V30 11753 N 103.909 -3.69736 -1.38998 0
M  V30 11754 C 103.759 -2.70474 -0.438135 0
M  V30 11755 C 103.629 -1.30327 -0.538142 0
M  V30 11756 N 103.619 -0.64304 -1.69192 0
M  V30 11757 N 103.509 -0.611027 0.605183 0
M  V30 11758 C 103.519 -1.27002 1.75953 0
M  V30 11759 N 103.639 -2.56038 1.98546 0
M  V30 11760 C 103.759 -3.22681 0.822541 0
M  V30 11761 H 106.738 -8.65116 0.777161 0
M  V30 11762 H 107.01 -6.9022 0.46725 0
M  V30 11763 H 106.142 -7.66548 2.79458 0
M  V30 11764 H 103.487 -5.16165 2.65183 0
M  V30 11765 H 103.207 -7.06433 0.329384 0
M  V30 11766 H 102.216 -6.90926 1.82021 0
M  V30 11767 H 104.05 -8.90873 1.62657 0
M  V30 11768 H 104.091 -5.77785 -1.13874 0
M  V30 11769 H 103.71 -1.15585 -2.57991 0
M  V30 11770 H 103.521 0.382989 -1.69835 0
M  V30 11771 H 103.413 -0.653331 2.64449 0
M  V30 11772 P 102.179 -8.03563 3.84925 0
M  V30 11773 O 101.959 -8.85821 5.0569 0
M  V30 11774 O 101.389 -8.41101 2.65469 0
M  V30 11775 O 101.929 -6.49734 4.18962 0
M  V30 11776 C 102.869 -5.81037 5.05421 0
M  V30 11777 C 102.139 -4.79018 5.88876 0
M  V30 11778 O 101.929 -3.58359 5.08515 0
M  V30 11779 C 100.739 -5.17448 6.36119 0
M  V30 11780 O 100.349 -4.45322 7.53318 0
M  V30 11781 C 99.8594 -4.74639 5.19936 0
M  V30 11782 C 100.569 -3.49432 4.70418 0
M  V30 11783 N 100.519 -3.31776 3.22945 0
M  V30 11784 C 100.369 -2.02742 2.72939 0
M  V30 11785 O 100.279 -1.08301 3.52749 0
M  V30 11786 N 100.319 -1.96117 1.22063 0
M  V30 11787 C 100.419 -2.8878 0.551566 0
M  V30 11788 N 100.369 -2.65609 -0.750198 0
M  V30 11789 C 100.569 -4.22457 1.03707 0
M  V30 11790 C 100.619 -4.37979 2.39113 0
M  V30 11791 H 103.359 -6.54138 5.7131 0
M  V30 11792 H 103.629 -5.30492 4.44033 0
M  V30 11793 H 102.762 -4.55945 6.76735 0
M  V30 11794 H 100.107 -2.6176 5.18021 0
M  V30 11795 H 99.8274 -5.52233 4.41941 0
M  V30 11796 H 98.8364 -4.52045 5.53452 0
M  V30 11797 H 100.67 -6.25124 6.55234 0
M  V30 11798 H 100.742 -5.37936 2.80552 0
M  V30 11799 H 100.64 -5.07528 0.359553 0
M  V30 11800 H 100.252 -1.69403 -1.09847 0
M  V30 11801 H 100.448 -3.43701 -1.41792 0
M  V30 11802 P 98.7994 -4.23843 7.83734 0
M  V30 11803 O 98.5794 -4.19407 9.29784 0
M  V30 11804 O 98.0094 -5.24426 7.09156 0
M  V30 11805 O 98.5494 -2.7935 7.20758 0
M  V30 11806 C 99.4894 -1.7299 7.50419 0
M  V30 11807 C 98.7594 -0.406376 7.57911 0
M  V30 11808 O 98.5494 0.0897726 6.21935 0
M  V30 11809 C 97.3594 -0.447224 8.1878 0
M  V30 11810 O 96.9694 0.825065 8.71101 0
M  V30 11811 C 96.4794 -0.783801 6.99623 0
M  V30 11812 C 97.1894 -0.0619192 5.85967 0
M  V30 11813 N 97.1394 -0.7859 4.56281 0
M  V30 11814 H 99.9784 -1.93423 8.4679 0
M  V30 11815 H 100.25 -1.68181 6.71046 0
M  V30 11816 H 99.3824 0.289041 8.15388 0
M  V30 11817 P 95.4195 1.17771 8.83182 0
M  V30 11818 O 95.1995 2.07206 9.98732 0
M  V30 11819 O 94.6295 -0.0743816 8.81969 0
M  V30 11820 O 95.1695 1.97652 7.47304 0
M  V30 11821 C 96.1095 3.01133 7.08783 0
M  V30 11822 C 95.3795 4.12613 6.37049 0
M  V30 11823 O 95.1695 3.72827 4.97879 0
M  V30 11824 C 93.9795 4.45085 6.88694 0
M  V30 11825 O 93.5895 5.7877 6.5624 0
M  V30 11826 C 93.0995 3.47817 6.12078 0
M  V30 11827 C 93.8095 3.39414 4.77697 0
M  V30 11828 N 93.7595 2.04615 4.15333 0
M  V30 11829 H 96.5985 3.41248 7.98759 0
M  V30 11830 H 96.8705 2.5837 6.41742 0
M  V30 11831 H 96.0025 5.02657 6.42673 0
M  V30 11832 P 92.0395 6.144 6.45285 0
M  V30 11833 O 91.8195 7.54673 6.86199 0
M  V30 11834 O 91.2495 5.12391 7.179 0
M  V30 11835 O 91.7895 5.99158 4.88404 0
M  V30 11836 C 92.7295 6.60062 3.96313 0
M  V30 11837 C 91.9995 7.08259 2.72856 0
M  V30 11838 O 91.7895 5.9427 1.83651 0
M  V30 11839 C 90.5995 7.65087 2.94749 0
M  V30 11840 O 90.2095 8.53963 1.90717 0
M  V30 11841 C 89.7195 6.41069 2.90698 0
M  V30 11842 C 90.4295 5.5528 1.86931 0
M  V30 11843 N 90.3795 4.09575 2.15696 0
M  V30 11844 C 90.2295 3.24249 1.08435 0
M  V30 11845 O 90.1395 3.63946 -0.0628747 0
M  V30 11846 N 90.1895 1.90009 1.39973 0
M  V30 11847 C 90.2795 1.34884 2.65614 0
M  V30 11848 O 90.2295 0.123716 2.81728 0
M  V30 11849 C 90.4295 2.3145 3.71736 0
M  V30 11850 C 90.5395 1.75913 5.10438 0
M  V30 11851 C 90.4795 3.63518 3.44754 0
M  V30 11852 H 93.2205 7.45402 4.45526 0
M  V30 11853 H 93.4895 5.86062 3.67208 0
M  V30 11854 H 92.6225 7.84412 2.24479 0
M  V30 11855 H 89.9675 5.73358 0.888409 0
M  V30 11856 H 89.6885 5.90877 3.88583 0
M  V30 11857 H 88.6965 6.65867 2.58821 0
M  V30 11858 H 90.5305 8.16248 3.92006 0
M  V30 11859 H 90.6015 4.34551 4.26383 0
M  V30 11860 H 89.5715 1.85471 5.61775 0
M  V30 11861 H 91.3085 2.31364 5.66257 0
M  V30 11862 H 90.8205 0.695936 5.05229 0
M  V30 11863 H 90.0845 1.26277 0.63625 0
M  V30 11864 P 88.6595 8.7635 1.60911 0
M  V30 11865 O 88.4395 10.1388 1.11561 0
M  V30 11866 O 87.8695 8.36503 2.79617 0
M  V30 11867 O 88.4095 7.71806 0.42951 0
M  V30 11868 C 89.3495 7.67148 -0.673689 0
M  V30 11869 C 88.6195 7.33374 -1.95559 0
M  V30 11870 O 88.4095 5.88721 -2.00726 0
M  V30 11871 C 87.2195 7.92526 -2.10483 0
M  V30 11872 O 86.8295 8.02971 -3.47653 0
M  V30 11873 C 86.3395 6.89602 -1.41652 0
M  V30 11874 C 87.0495 5.59201 -1.75185 0
M  V30 11875 N 86.9995 4.58235 -0.662552 0
M  V30 11876 H 89.8385 8.65116 -0.777161 0
M  V30 11877 H 90.1105 6.90173 -0.474152 0
M  V30 11878 H 89.2425 7.66548 -2.79458 0
M  V30 11879 P 85.2795 8.03563 -3.84925 0
M  V30 11880 O 85.0595 8.85821 -5.0569 0
M  V30 11881 O 84.4895 8.41101 -2.65469 0
M  V30 11882 O 85.0295 6.4965 -4.18908 0
M  V30 11883 C 85.9695 5.81037 -5.05421 0
M  V30 11884 C 85.2395 4.78366 -5.89277 0
M  V30 11885 O 85.0295 3.58302 -5.08433 0
M  V30 11886 C 83.8395 5.17448 -6.36119 0
M  V30 11887 O 83.4495 4.45271 -7.53232 0
M  V30 11888 C 82.9595 4.74639 -5.19936 0
M  V30 11889 C 83.6695 3.49432 -4.70418 0
M  V30 11890 N 83.6195 3.31776 -3.22945 0
M  V30 11891 H 86.4585 6.54213 -5.71376 0
M  V30 11892 H 86.7305 5.30492 -4.44033 0
M  V30 11893 H 85.8625 4.55889 -6.76652 0
M  V30 11894 P 81.8995 4.23843 -7.83734 0
M  V30 11895 O 81.6795 4.19407 -9.29784 0
M  V30 11896 O 81.1095 5.24426 -7.09156 0
M  V30 11897 O 81.6495 2.7935 -7.20758 0
M  V30 11898 C 82.5895 1.7299 -7.50419 0
M  V30 11899 C 81.8595 0.406376 -7.57911 0
M  V30 11900 O 81.6495 -0.0897726 -6.21935 0
M  V30 11901 C 80.4595 0.447224 -8.1878 0
M  V30 11902 O 80.0695 -0.825065 -8.71101 0
M  V30 11903 C 79.5795 0.783801 -6.99623 0
M  V30 11904 C 80.2895 0.0619192 -5.85967 0
M  V30 11905 N 80.2395 0.7859 -4.56281 0
M  V30 11906 H 83.0785 1.93423 -8.4679 0
M  V30 11907 H 83.3505 1.68181 -6.71046 0
M  V30 11908 H 82.4825 -0.289041 -8.15388 0
M  V30 11909 P 78.5196 -1.17771 -8.83182 0
M  V30 11910 O 78.2996 -2.07206 -9.98732 0
M  V30 11911 O 77.7296 0.0743816 -8.81969 0
M  V30 11912 O 78.2696 -1.97652 -7.47304 0
M  V30 11913 C 79.2096 -3.01133 -7.08783 0
M  V30 11914 C 78.4796 -4.12613 -6.37049 0
M  V30 11915 O 78.2696 -3.72827 -4.97879 0
M  V30 11916 C 77.0796 -4.45085 -6.88694 0
M  V30 11917 O 76.6896 -5.7877 -6.5624 0
M  V30 11918 C 76.1996 -3.47817 -6.12078 0
M  V30 11919 C 76.9096 -3.39414 -4.77697 0
M  V30 11920 N 76.8596 -2.04199 -4.15538 0
M  V30 11921 H 79.6986 -3.41248 -7.98759 0
M  V30 11922 H 79.9706 -2.57728 -6.42 0
M  V30 11923 H 79.1026 -5.02657 -6.42673 0
M  V30 11924 H 76.4476 -4.11708 -4.08956 0
M  V30 11925 H 76.1676 -2.49626 -6.61679 0
M  V30 11926 H 75.1766 -3.8662 -6.00862 0
M  V30 11927 H 77.0106 -4.29991 -7.97006 0
M  V30 11928 P 75.1396 -6.144 -6.45285 0
M  V30 11929 O 74.9196 -7.54673 -6.86199 0
M  V30 11930 O 74.3496 -5.12391 -7.179 0
M  V30 11931 O 74.8896 -5.99158 -4.88404 0
M  V30 11932 C 75.8296 -6.60234 -3.96415 0
M  V30 11933 C 75.0996 -7.08259 -2.72856 0
M  V30 11934 O 74.8896 -5.9427 -1.83651 0
M  V30 11935 C 73.6996 -7.64886 -2.9555 0
M  V30 11936 O 73.3096 -8.53963 -1.90717 0
M  V30 11937 C 72.8196 -6.4116 -2.90739 0
M  V30 11938 C 73.5296 -5.55375 -1.86963 0
M  V30 11939 N 73.4796 -4.09664 -2.15742 0
M  V30 11940 H 76.3186 -7.45574 -4.45629 0
M  V30 11941 H 76.5906 -5.86232 -3.67314 0
M  V30 11942 H 75.7226 -7.84412 -2.24479 0
M  V30 11943 P 71.7596 -8.7635 -1.60911 0
M  V30 11944 O 71.5396 -10.1388 -1.11561 0
M  V30 11945 O 70.9696 -8.36503 -2.79617 0
M  V30 11946 O 71.5096 -7.71806 -0.42951 0
M  V30 11947 C 72.4496 -7.66948 0.673514 0
M  V30 11948 C 71.7196 -7.33374 1.95559 0
M  V30 11949 O 71.5096 -5.88721 2.00726 0
M  V30 11950 C 70.3196 -7.92218 2.1125 0
M  V30 11951 O 69.9296 -8.02971 3.47653 0
M  V30 11952 C 69.4396 -6.89504 1.41631 0
M  V30 11953 C 70.1496 -5.59106 1.75155 0
M  V30 11954 N 70.0996 -4.58136 0.662409 0
M  V30 11955 C 69.9496 -3.26059 1.02863 0
M  V30 11956 O 69.8596 -2.90743 2.19009 0
M  V30 11957 N 69.9096 -2.35995 -0.0155585 0
M  V30 11958 C 69.9996 -2.65248 -1.35603 0
M  V30 11959 O 69.9496 -1.75605 -2.20651 0
M  V30 11960 C 70.1496 -4.05747 -1.64698 0
M  V30 11961 C 70.2596 -4.42345 -3.09553 0
M  V30 11962 C 70.1996 -4.96734 -0.652411 0
M  V30 11963 H 72.9406 -8.64917 0.776982 0
M  V30 11964 H 73.2096 -6.89974 0.474015 0
M  V30 11965 H 72.3426 -7.66548 2.79458 0
M  V30 11966 H 69.6876 -5.16076 2.65138 0
M  V30 11967 H 69.4086 -7.06433 0.329384 0
M  V30 11968 H 68.4166 -6.90829 1.81996 0
M  V30 11969 H 70.2506 -8.90774 1.62639 0
M  V30 11970 H 70.3216 -6.02181 -0.895285 0
M  V30 11971 H 69.2916 -4.80252 -3.45468 0
M  V30 11972 H 71.0286 -5.20015 -3.22119 0
M  V30 11973 H 70.5406 -3.53269 -3.67833 0
M  V30 11974 H 69.8046 -1.39558 0.227499 0
M  V30 11975 P 68.3796 -8.03563 3.84925 0
M  V30 11976 O 68.1596 -8.85821 5.0569 0
M  V30 11977 O 67.5896 -8.41101 2.65469 0
M  V30 11978 O 68.1296 -6.4965 4.18908 0
M  V30 11979 C 69.0696 -5.81037 5.05421 0
M  V30 11980 C 68.3396 -4.78366 5.89277 0
M  V30 11981 O 68.1296 -3.58302 5.08433 0
M  V30 11982 C 66.9396 -5.17448 6.36119 0
M  V30 11983 O 66.5496 -4.45271 7.53232 0
M  V30 11984 C 66.0596 -4.74639 5.19936 0
M  V30 11985 C 66.7696 -3.49432 4.70418 0
M  V30 11986 N 66.7196 -3.31776 3.22945 0
M  V30 11987 H 69.5586 -6.54213 5.71376 0
M  V30 11988 H 69.8306 -5.30492 4.44033 0
M  V30 11989 H 68.9626 -4.55889 6.76652 0
M  V30 11990 P 64.9996 -4.23843 7.83734 0
M  V30 11991 O 64.7796 -4.19407 9.29784 0
M  V30 11992 O 64.2096 -5.24426 7.09156 0
M  V30 11993 O 64.7496 -2.7935 7.20758 0
M  V30 11994 C 65.6896 -1.72945 7.50224 0
M  V30 11995 C 64.9596 -0.406376 7.57911 0
M  V30 11996 O 64.7496 0.0897726 6.21935 0
M  V30 11997 C 63.5596 -0.438983 8.18724 0
M  V30 11998 O 63.1696 0.825065 8.71101 0
M  V30 11999 C 62.6796 -0.783689 6.99524 0
M  V30 12000 C 63.3896 -0.0619086 5.85867 0
M  V30 12001 N 63.3396 -0.78573 4.56183 0
M  V30 12002 C 63.1896 -0.0292889 3.41887 0
M  V30 12003 O 63.0996 1.18445 3.4419 0
M  V30 12004 N 63.1496 -0.744061 2.23964 0
M  V30 12005 C 63.2396 -2.10932 2.10362 0
M  V30 12006 C 63.3896 -2.8202 3.34994 0
M  V30 12007 C 63.4396 -2.15547 4.52261 0
M  V30 12008 H 66.1806 -1.93379 8.46595 0
M  V30 12009 H 66.4496 -1.68132 6.70852 0
M  V30 12010 H 65.5826 0.289041 8.15388 0
M  V30 12011 H 62.9276 0.926847 5.72749 0
M  V30 12012 H 62.6486 -1.86973 6.82036 0
M  V30 12013 H 61.6566 -0.403896 7.13257 0
M  V30 12014 H 63.4906 -1.20585 8.97435 0
M  V30 12015 H 63.5616 -2.71231 5.45042 0
M  V30 12016 P 61.6197 1.17771 8.83182 0
M  V30 12017 O 61.3997 2.07206 9.98732 0
M  V30 12018 O 60.8297 -0.0743816 8.81969 0
M  V30 12019 O 61.3697 1.97652 7.47304 0
M  V30 12020 C 62.3097 3.01133 7.08783 0
M  V30 12021 C 61.5797 4.12613 6.37049 0
M  V30 12022 O 61.3697 3.72827 4.97879 0
M  V30 12023 C 60.1797 4.45085 6.88694 0
M  V30 12024 O 59.7897 5.7877 6.5624 0
M  V30 12025 C 59.2997 3.47817 6.12078 0
M  V30 12026 C 60.0097 3.39414 4.77697 0
M  V30 12027 N 59.9597 2.04199 4.15538 0
M  V30 12028 H 62.7987 3.41248 7.98759 0
M  V30 12029 H 63.0707 2.57728 6.42 0
M  V30 12030 H 62.2027 5.02657 6.42673 0
M  V30 12031 H 59.5477 4.11708 4.08956 0
M  V30 12032 H 59.2677 2.49626 6.61679 0
M  V30 12033 H 58.2767 3.8662 6.00862 0
M  V30 12034 H 60.1107 4.29991 7.97006 0
M  V30 12035 P 58.2397 6.144 6.45285 0
M  V30 12036 O 58.0197 7.54673 6.86199 0
M  V30 12037 O 57.4497 5.12391 7.179 0
M  V30 12038 O 57.9897 5.99158 4.88404 0
M  V30 12039 C 58.9297 6.60062 3.96313 0
M  V30 12040 C 58.1997 7.08259 2.72856 0
M  V30 12041 O 57.9897 5.9427 1.83651 0
M  V30 12042 C 56.7997 7.65087 2.94749 0
M  V30 12043 O 56.4097 8.53963 1.90717 0
M  V30 12044 C 55.9197 6.41069 2.90698 0
M  V30 12045 C 56.6297 5.5528 1.86931 0
M  V30 12046 N 56.5797 4.09575 2.15696 0
M  V30 12047 C 56.4297 3.24249 1.08435 0
M  V30 12048 O 56.3397 3.63946 -0.0628747 0
M  V30 12049 N 56.3897 1.90009 1.39973 0
M  V30 12050 C 56.4797 1.34884 2.65614 0
M  V30 12051 C 56.6297 2.3145 3.71736 0
M  V30 12052 C 56.6797 3.63518 3.44754 0
M  V30 12053 H 59.4207 7.45402 4.45526 0
M  V30 12054 H 59.6897 5.86062 3.67208 0
M  V30 12055 H 58.8227 7.84412 2.24479 0
M  V30 12056 H 56.1677 5.73358 0.888409 0
M  V30 12057 H 55.8887 5.90877 3.88583 0
M  V30 12058 H 54.8967 6.65867 2.58821 0
M  V30 12059 H 56.7307 8.16248 3.92006 0
M  V30 12060 H 56.8017 4.34551 4.26383 0
M  V30 12061 P 54.8597 8.7635 1.60911 0
M  V30 12062 O 54.6397 10.1388 1.11561 0
M  V30 12063 O 54.0697 8.36503 2.79617 0
M  V30 12064 O 54.6097 7.71806 0.42951 0
M  V30 12065 C 55.5497 7.66948 -0.673514 0
M  V30 12066 C 54.8197 7.33374 -1.95559 0
M  V30 12067 O 54.6097 5.88721 -2.00726 0
M  V30 12068 C 53.4197 7.92218 -2.1125 0
M  V30 12069 O 53.0297 8.02971 -3.47653 0
M  V30 12070 C 52.5397 6.89504 -1.41631 0
M  V30 12071 C 53.2497 5.59106 -1.75155 0
M  V30 12072 N 53.1997 4.58136 -0.662409 0
M  V30 12073 C 53.0497 3.26059 -1.02863 0
M  V30 12074 O 52.9597 2.90743 -2.19009 0
M  V30 12075 N 53.0097 2.35995 0.0155585 0
M  V30 12076 C 53.0997 2.65248 1.35603 0
M  V30 12077 O 53.0497 1.75605 2.20651 0
M  V30 12078 C 53.2497 4.05747 1.64698 0
M  V30 12079 C 53.3597 4.42345 3.09553 0
M  V30 12080 C 53.2997 4.96734 0.652411 0
M  V30 12081 H 56.0407 8.64917 -0.776982 0
M  V30 12082 H 56.3097 6.89974 -0.474015 0
M  V30 12083 H 55.4427 7.66548 -2.79458 0
M  V30 12084 H 52.7877 5.16076 -2.65138 0
M  V30 12085 H 52.5087 7.06433 -0.329384 0
M  V30 12086 H 51.5167 6.90829 -1.81996 0
M  V30 12087 H 53.3507 8.90774 -1.62639 0
M  V30 12088 H 53.4217 6.02181 0.895285 0
M  V30 12089 H 52.3917 4.80252 3.45468 0
M  V30 12090 H 54.1287 5.20015 3.22119 0
M  V30 12091 H 53.6407 3.53269 3.67833 0
M  V30 12092 H 52.9047 1.39558 -0.227499 0
M  V30 12093 P 51.4797 8.03563 -3.84925 0
M  V30 12094 O 51.2597 8.85821 -5.0569 0
M  V30 12095 O 50.6897 8.41101 -2.65469 0
M  V30 12096 O 51.2297 6.4965 -4.18908 0
M  V30 12097 C 52.1697 5.81037 -5.05421 0
M  V30 12098 C 51.4397 4.78366 -5.89277 0
M  V30 12099 O 51.2297 3.58302 -5.08433 0
M  V30 12100 C 50.0397 5.17448 -6.36119 0
M  V30 12101 O 49.6497 4.45271 -7.53232 0
M  V30 12102 C 49.1597 4.74639 -5.19936 0
M  V30 12103 C 49.8697 3.49432 -4.70418 0
M  V30 12104 N 49.8197 3.31776 -3.22945 0
M  V30 12105 H 52.6587 6.54213 -5.71376 0
M  V30 12106 H 52.9307 5.30492 -4.44033 0
M  V30 12107 H 52.0627 4.55889 -6.76652 0
M  V30 12108 P 48.0997 4.23843 -7.83734 0
M  V30 12109 O 47.8797 4.19407 -9.29784 0
M  V30 12110 O 47.3097 5.24426 -7.09156 0
M  V30 12111 O 47.8497 2.7935 -7.20758 0
M  V30 12112 C 48.7897 1.7299 -7.50419 0
M  V30 12113 C 48.0597 0.406376 -7.57911 0
M  V30 12114 O 47.8497 -0.0897726 -6.21935 0
M  V30 12115 C 46.6597 0.447224 -8.1878 0
M  V30 12116 O 46.2697 -0.825065 -8.71101 0
M  V30 12117 C 45.7797 0.783801 -6.99623 0
M  V30 12118 C 46.4897 0.0619192 -5.85967 0
M  V30 12119 N 46.4397 0.790462 -4.56202 0
M  V30 12120 H 49.2787 1.93423 -8.4679 0
M  V30 12121 H 49.5507 1.68852 -6.70877 0
M  V30 12122 H 48.6827 -0.289041 -8.15388 0
M  V30 12123 H 46.0277 -0.927006 -5.72848 0
M  V30 12124 H 45.7477 1.86973 -6.82036 0
M  V30 12125 H 44.7567 0.403953 -7.13357 0
M  V30 12126 H 46.5907 1.20599 -8.97534 0
M  V30 12127 P 44.7198 -1.17771 -8.83182 0
M  V30 12128 O 44.4998 -2.07206 -9.98732 0
M  V30 12129 O 43.9298 0.0743816 -8.81969 0
M  V30 12130 O 44.4698 -1.97652 -7.47304 0
M  V30 12131 C 45.4098 -3.01133 -7.08783 0
M  V30 12132 C 44.6798 -4.12613 -6.37049 0
M  V30 12133 O 44.4698 -3.72827 -4.97879 0
M  V30 12134 C 43.2798 -4.45085 -6.88694 0
M  V30 12135 O 42.8898 -5.7877 -6.5624 0
M  V30 12136 C 42.3998 -3.47817 -6.12078 0
M  V30 12137 C 43.1098 -3.39414 -4.77697 0
M  V30 12138 N 43.0598 -2.04615 -4.15333 0
M  V30 12139 H 45.8988 -3.41248 -7.98759 0
M  V30 12140 H 46.1708 -2.5837 -6.41742 0
M  V30 12141 H 45.3028 -5.02657 -6.42673 0
M  V30 12142 P 41.3398 -6.144 -6.45285 0
M  V30 12143 O 41.1198 -7.54673 -6.86199 0
M  V30 12144 O 40.5498 -5.12391 -7.179 0
M  V30 12145 O 41.0898 -5.99158 -4.88404 0
M  V30 12146 C 42.0298 -6.60234 -3.96415 0
M  V30 12147 C 41.2998 -7.08259 -2.72856 0
M  V30 12148 O 41.0898 -5.9427 -1.83651 0
M  V30 12149 C 39.8998 -7.64886 -2.9555 0
M  V30 12150 O 39.5098 -8.53963 -1.90717 0
M  V30 12151 C 39.0198 -6.4116 -2.90739 0
M  V30 12152 C 39.7298 -5.55375 -1.86963 0
M  V30 12153 N 39.6798 -4.09448 -2.16152 0
M  V30 12154 H 42.5188 -7.45574 -4.45629 0
M  V30 12155 H 42.7908 -5.85864 -3.679 0
M  V30 12156 H 41.9228 -7.84412 -2.24479 0
M  V30 12157 H 39.2678 -5.73457 -0.888562 0
M  V30 12158 H 38.9878 -5.90877 -3.88583 0
M  V30 12159 H 37.9968 -6.6596 -2.58858 0
M  V30 12160 H 39.8308 -8.16339 -3.92049 0
M  V30 12161 P 37.9598 -8.7635 -1.60911 0
M  V30 12162 O 37.7398 -10.1388 -1.11561 0
M  V30 12163 O 37.1698 -8.36503 -2.79617 0
M  V30 12164 O 37.7098 -7.71806 -0.42951 0
M  V30 12165 C 38.6498 -7.67148 0.673689 0
M  V30 12166 C 37.9198 -7.33374 1.95559 0
M  V30 12167 O 37.7098 -5.88721 2.00726 0
M  V30 12168 C 36.5198 -7.92526 2.10483 0
M  V30 12169 O 36.1298 -8.02971 3.47653 0
M  V30 12170 C 35.6398 -6.89602 1.41652 0
M  V30 12171 C 36.3498 -5.59201 1.75185 0
M  V30 12172 N 36.2998 -4.58235 0.662552 0
M  V30 12173 H 39.1388 -8.65116 0.777161 0
M  V30 12174 H 39.4108 -6.90173 0.474152 0
M  V30 12175 H 38.5428 -7.66548 2.79458 0
M  V30 12176 P 34.5798 -8.03563 3.84925 0
M  V30 12177 O 34.3598 -8.85821 5.0569 0
M  V30 12178 O 33.7898 -8.41101 2.65469 0
M  V30 12179 O 34.3298 -6.4965 4.18908 0
M  V30 12180 C 35.2698 -5.81037 5.05421 0
M  V30 12181 C 34.5398 -4.78366 5.89277 0
M  V30 12182 O 34.3298 -3.58302 5.08433 0
M  V30 12183 C 33.1398 -5.17448 6.36119 0
M  V30 12184 O 32.7498 -4.45271 7.53232 0
M  V30 12185 C 32.2598 -4.74639 5.19936 0
M  V30 12186 C 32.9698 -3.49432 4.70418 0
M  V30 12187 N 32.9198 -3.31776 3.22945 0
M  V30 12188 H 35.7588 -6.54213 5.71376 0
M  V30 12189 H 36.0308 -5.30492 4.44033 0
M  V30 12190 H 35.1628 -4.55889 6.76652 0
M  V30 12191 P 31.1998 -4.23843 7.83734 0
M  V30 12192 O 30.9798 -4.19407 9.29784 0
M  V30 12193 O 30.4098 -5.24426 7.09156 0
M  V30 12194 O 30.9498 -2.7935 7.20758 0
M  V30 12195 C 31.8898 -1.7299 7.50419 0
M  V30 12196 C 31.1598 -0.406376 7.57911 0
M  V30 12197 O 30.9498 0.0897726 6.21935 0
M  V30 12198 C 29.7598 -0.447224 8.1878 0
M  V30 12199 O 29.3698 0.825065 8.71101 0
M  V30 12200 C 28.8798 -0.783801 6.99623 0
M  V30 12201 C 29.5898 -0.0619192 5.85967 0
M  V30 12202 N 29.5398 -0.790462 4.56202 0
M  V30 12203 H 32.3788 -1.93423 8.4679 0
M  V30 12204 H 32.6508 -1.68852 6.70877 0
M  V30 12205 H 31.7828 0.289041 8.15388 0
M  V30 12206 H 29.1278 0.927006 5.72848 0
M  V30 12207 H 28.8478 -1.86973 6.82036 0
M  V30 12208 H 27.8568 -0.403953 7.13357 0
M  V30 12209 H 29.6908 -1.20599 8.97534 0
M  V30 12210 P 27.8199 1.17771 8.83182 0
M  V30 12211 O 27.5999 2.07206 9.98732 0
M  V30 12212 O 27.0299 -0.0743816 8.81969 0
M  V30 12213 O 27.5699 1.97652 7.47304 0
M  V30 12214 C 28.5099 3.01133 7.08783 0
M  V30 12215 C 27.7799 4.12613 6.37049 0
M  V30 12216 O 27.5699 3.72827 4.97879 0
M  V30 12217 C 26.3799 4.45085 6.88694 0
M  V30 12218 O 25.9899 5.7877 6.5624 0
M  V30 12219 C 25.4999 3.47817 6.12078 0
M  V30 12220 C 26.2099 3.39414 4.77697 0
M  V30 12221 N 26.1599 2.04615 4.15333 0
M  V30 12222 C 26.2399 0.803897 4.75249 0
M  V30 12223 N 26.1599 -0.197615 3.91502 0
M  V30 12224 C 26.0199 0.413002 2.66823 0
M  V30 12225 C 25.8899 -0.157221 1.38007 0
M  V30 12226 N 25.7699 0.833136 0.390236 0
M  V30 12227 C 25.7699 2.19402 0.623885 0
M  V30 12228 N 25.6399 2.97622 -0.449677 0
M  V30 12229 N 25.8999 2.73005 1.83601 0
M  V30 12230 C 26.0199 1.78786 2.80935 0
M  V30 12231 H 28.9989 3.41248 7.98759 0
M  V30 12232 H 29.2709 2.5837 6.41742 0
M  V30 12233 H 28.4029 5.02657 6.42673 0
M  V30 12234 P 24.4399 6.144 6.45285 0
M  V30 12235 O 24.2199 7.54673 6.86199 0
M  V30 12236 O 23.6499 5.12391 7.179 0
M  V30 12237 O 24.1899 5.99158 4.88404 0
M  V30 12238 C 25.1299 6.60234 3.96415 0
M  V30 12239 C 24.3999 7.08259 2.72856 0
M  V30 12240 O 24.1899 5.9427 1.83651 0
M  V30 12241 C 22.9999 7.64886 2.9555 0
M  V30 12242 O 22.6099 8.53963 1.90717 0
M  V30 12243 C 22.1199 6.4116 2.90739 0
M  V30 12244 C 22.8299 5.55375 1.86963 0
M  V30 12245 N 22.7799 4.09664 2.15742 0
M  V30 12246 H 25.6189 7.45574 4.45629 0
M  V30 12247 H 25.8909 5.86232 3.67314 0
M  V30 12248 H 25.0229 7.84412 2.24479 0
M  V30 12249 P 21.0599 8.7635 1.60911 0
M  V30 12250 O 20.8399 10.1388 1.11561 0
M  V30 12251 O 20.2699 8.36503 2.79617 0
M  V30 12252 O 20.8099 7.71806 0.42951 0
M  V30 12253 C 21.7499 7.67148 -0.673689 0
M  V30 12254 C 21.0199 7.33374 -1.95559 0
M  V30 12255 O 20.8099 5.88721 -2.00726 0
M  V30 12256 C 19.6199 7.92526 -2.10483 0
M  V30 12257 O 19.2299 8.02971 -3.47653 0
M  V30 12258 C 18.7399 6.89602 -1.41652 0
M  V30 12259 C 19.4499 5.59201 -1.75185 0
M  V30 12260 N 19.3999 4.58301 -0.657969 0
M  V30 12261 C 19.4799 4.79019 0.692603 0
M  V30 12262 N 19.4099 3.69736 1.38998 0
M  V30 12263 C 19.2599 2.70474 0.438135 0
M  V30 12264 C 19.1299 1.30327 0.538142 0
M  V30 12265 N 19.1199 0.64304 1.69192 0
M  V30 12266 N 19.0099 0.611027 -0.605183 0
M  V30 12267 C 19.0199 1.27002 -1.75953 0
M  V30 12268 N 19.1399 2.56038 -1.98546 0
M  V30 12269 C 19.2599 3.22681 -0.822541 0
M  V30 12270 H 22.2389 8.65116 -0.777161 0
M  V30 12271 H 22.5109 6.9022 -0.46725 0
M  V30 12272 H 21.6429 7.66548 -2.79458 0
M  V30 12273 H 18.9879 5.16165 -2.65183 0
M  V30 12274 H 18.7079 7.06433 -0.329384 0
M  V30 12275 H 17.7169 6.90926 -1.82021 0
M  V30 12276 H 19.5509 8.90873 -1.62657 0
M  V30 12277 H 19.5919 5.77785 1.13874 0
M  V30 12278 H 19.2109 1.15585 2.57991 0
M  V30 12279 H 19.0219 -0.382989 1.69835 0
M  V30 12280 H 18.9139 0.653331 -2.64449 0
M  V30 12281 P 17.6799 8.03563 -3.84925 0
M  V30 12282 O 17.4599 8.85821 -5.0569 0
M  V30 12283 O 16.8899 8.41101 -2.65469 0
M  V30 12284 O 17.4299 6.4965 -4.18908 0
M  V30 12285 C 18.3699 5.81037 -5.05421 0
M  V30 12286 C 17.6399 4.78366 -5.89277 0
M  V30 12287 O 17.4299 3.58302 -5.08433 0
M  V30 12288 C 16.2399 5.17448 -6.36119 0
M  V30 12289 O 15.8499 4.45271 -7.53232 0
M  V30 12290 C 15.3599 4.74639 -5.19936 0
M  V30 12291 C 16.0699 3.49432 -4.70418 0
M  V30 12292 N 16.0199 3.32099 -3.22613 0
M  V30 12293 H 18.8589 6.54213 -5.71376 0
M  V30 12294 H 19.1309 5.30936 -4.43503 0
M  V30 12295 H 18.2629 4.55889 -6.76652 0
M  V30 12296 H 15.6079 2.61715 -5.17932 0
M  V30 12297 H 15.3279 5.52155 -4.41878 0
M  V30 12298 H 14.3369 4.51981 -5.53374 0
M  V30 12299 H 16.1709 6.25124 -6.55234 0
M  V30 12300 P 14.2999 4.23843 -7.83734 0
M  V30 12301 O 14.0799 4.19407 -9.29784 0
M  V30 12302 O 13.5099 5.24426 -7.09156 0
M  V30 12303 O 14.0499 2.7935 -7.20758 0
M  V30 12304 C 14.9899 1.7299 -7.50419 0
M  V30 12305 C 14.2599 0.406376 -7.57911 0
M  V30 12306 O 14.0499 -0.0897726 -6.21935 0
M  V30 12307 C 12.8599 0.447224 -8.1878 0
M  V30 12308 O 12.4699 -0.825065 -8.71101 0
M  V30 12309 C 11.9799 0.783801 -6.99623 0
M  V30 12310 C 12.6899 0.0619192 -5.85967 0
M  V30 12311 N 12.6399 0.7859 -4.56281 0
M  V30 12312 H 15.4789 1.93423 -8.4679 0
M  V30 12313 H 15.7509 1.68181 -6.71046 0
M  V30 12314 H 14.8829 -0.289041 -8.15388 0
M  V30 12315 P 10.92 -1.17771 -8.83182 0
M  V30 12316 O 10.7 -2.07206 -9.98732 0
M  V30 12317 O 10.13 0.0743816 -8.81969 0
M  V30 12318 O 10.67 -1.97678 -7.474 0
M  V30 12319 C 11.61 -3.01133 -7.08783 0
M  V30 12320 C 10.88 -4.1203 -6.37546 0
M  V30 12321 O 10.67 -3.72887 -4.9796 0
M  V30 12322 C 9.47996 -4.45085 -6.88694 0
M  V30 12323 O 9.08996 -5.78836 -6.56315 0
M  V30 12324 C 8.59996 -3.47817 -6.12078 0
M  V30 12325 C 9.30996 -3.39414 -4.77697 0
M  V30 12326 N 9.25996 -2.04615 -4.15333 0
M  V30 12327 C 9.10996 -1.96929 -2.77162 0
M  V30 12328 O 9.01996 -3.02017 -2.12006 0
M  V30 12329 N 9.05996 -0.55485 -2.24237 0
M  V30 12330 C 9.15996 0.367808 -2.9169 0
M  V30 12331 N 9.10996 1.53426 -2.29427 0
M  V30 12332 C 9.30996 0.319148 -4.33828 0
M  V30 12333 C 9.35996 -0.920672 -4.90433 0
M  V30 12334 H 12.1 -3.41209 -7.98667 0
M  V30 12335 H 12.37 -2.5837 -6.41742 0
M  V30 12336 H 11.503 -5.02718 -6.42752 0
M  V30 12337 H 8.84796 -4.11779 -4.09026 0
M  V30 12338 H 8.56796 -2.49661 -6.61772 0
M  V30 12339 H 7.57696 -3.86674 -6.00946 0
M  V30 12340 H 9.41096 -4.29991 -7.97006 0
M  V30 12341 H 9.48296 -1.00589 -5.98303 0
M  V30 12342 H 9.38096 1.22639 -4.93799 0
M  V30 12343 H 8.99296 1.56819 -1.27167 0
M  V30 12344 H 9.18896 2.41062 -2.83063 0
M  V30 12345 P 7.53998 -6.144 -6.45285 0
M  V30 12346 O 7.31998 -7.54673 -6.86199 0
M  V30 12347 O 6.74998 -5.12391 -7.179 0
M  V30 12348 O 7.28998 -5.99158 -4.88404 0
M  V30 12349 C 8.22998 -6.60234 -3.96415 0
M  V30 12350 C 7.49998 -7.08259 -2.72856 0
M  V30 12351 O 7.28998 -5.9427 -1.83651 0
M  V30 12352 C 6.09998 -7.64886 -2.9555 0
M  V30 12353 O 5.70998 -8.53963 -1.90717 0
M  V30 12354 C 5.21998 -6.4116 -2.90739 0
M  V30 12355 C 5.92998 -5.55375 -1.86963 0
M  V30 12356 N 5.87998 -4.09664 -2.15742 0
M  V30 12357 H 8.71898 -7.45574 -4.45629 0
M  V30 12358 H 8.99098 -5.86232 -3.67314 0
M  V30 12359 H 8.12298 -7.84412 -2.24479 0
M  V30 12360 P 4.16 -8.7635 -1.60911 0
M  V30 12361 O 3.94 -10.1388 -1.11561 0
M  V30 12362 O 3.37 -8.36503 -2.79617 0
M  V30 12363 O 3.91 -7.71806 -0.42951 0
M  V30 12364 C 4.85 -7.67148 0.673689 0
M  V30 12365 C 4.12 -7.33374 1.95559 0
M  V30 12366 O 3.91 -5.88721 2.00726 0
M  V30 12367 C 2.72 -7.92526 2.10483 0
M  V30 12368 O 2.33 -8.02971 3.47653 0
M  V30 12369 C 1.84 -6.89602 1.41652 0
M  V30 12370 C 2.55 -5.59201 1.75185 0
M  V30 12371 N 2.5 -4.58235 0.662552 0
M  V30 12372 H 5.339 -8.65116 0.777161 0
M  V30 12373 H 5.611 -6.90173 0.474152 0
M  V30 12374 H 4.743 -7.66548 2.79458 0
M  V30 12375 H 1.613 -8.66322 3.55694 0
M  V30 END ATOM
M  V30 BEGIN BOND
M  V30 END BOND
M  V30 END CTAB
M  END
$$$$
