drugbank_target|P0C0Y8 Reaction center protein L chain (DB04147; DB08215; DB08690)
 OpenBabel12092120443D

  0  0  0     0  0            999 V3000
M  V30 BEGIN CTAB
M  V30 COUNTS 4436 4524 0 0 0
M  V30 BEGIN ATOM
M  V30 1 H -0.908 1.98254 -0.117106 0
M  V30 2 N 0 1.576 0 0
M  V30 3 C 0.933 2.03868 1.02534 0
M  V30 4 C 1.911 0.928543 1.3348 0
M  V30 5 O 3.095 1.19667 1.45644 0
M  V30 6 C 0.222 2.43627 2.35294 0
M  V30 7 C -0.732 3.65373 2.2001 0
M  V30 8 S 0.101 5.13292 1.52614 0
M  V30 9 C 1.257 5.56322 2.86805 0
M  V30 10 H 1.49 2.90518 0.631377 0
M  V30 11 H -0.977 1.52953 0.210867 0
M  V30 12 H 0.981 2.67203 3.11629 0
M  V30 13 H -0.358 1.57376 2.7183 0
M  V30 14 H -1.165 3.90944 3.18086 0
M  V30 15 H -1.563 3.418 1.51819 0
M  V30 16 H 0.729 5.58782 3.83104 0
M  V30 17 H 1.672 6.56266 2.65933 0
M  V30 18 H 2.08 4.83886 2.90714 0
M  V30 19 N 1.4781 -0.272755 1.55222 0
M  V30 20 C 2.4411 -1.32041 1.87344 0
M  V30 21 C 3.4411 -1.42342 0.74803 0
M  V30 22 O 4.6311 -1.41488 1.0162 0
M  V30 23 C 1.7631 -2.70173 2.07893 0
M  V30 24 H 2.9561 -1.04789 2.80997 0
M  V30 25 H 0.5091 -0.51083 1.47717 0
M  V30 26 H 1.2441 -3.02605 1.16622 0
M  V30 27 H 1.0291 -2.64082 2.89833 0
M  V30 28 H 2.5191 -3.45869 2.34017 0
M  V30 29 N 2.9562 -1.48159 -0.537278 0
M  V30 30 C 3.8862 -1.65029 -1.6519 0
M  V30 31 C 4.8672 -0.499281 -1.62607 0
M  V30 32 O 6.0522 -0.730972 -1.79918 0
M  V30 33 C 3.1822 -1.68303 -3.03795 0
M  V30 34 C 2.1362 -2.8283 -3.21234 0
M  V30 35 C 1.4622 -2.71189 -4.60826 0
M  V30 36 C 2.7622 -4.24211 -3.04701 0
M  V30 37 H 4.4562 -2.58341 -1.51328 0
M  V30 38 H 2.0022 -1.24325 -0.726585 0
M  V30 39 H 3.9552 -1.78693 -3.81637 0
M  V30 40 H 2.6792 -0.715635 -3.18663 0
M  V30 41 H 1.3382 -2.71983 -2.45807 0
M  V30 42 H 0.9862 -1.72435 -4.7252 0
M  V30 43 H 0.6862 -3.48035 -4.7344 0
M  V30 44 H 2.2102 -2.83537 -5.40777 0
M  V30 45 H 3.6242 -4.3593 -3.72341 0
M  V30 46 H 2.0212 -5.01998 -3.28813 0
M  V30 47 H 3.0912 -4.41184 -2.01209 0
M  V30 48 N 4.4343 0.785586 -1.36625 0
M  V30 49 C 5.3643 1.91259 -1.33949 0
M  V30 50 C 6.3453 1.68795 -0.210325 0
M  V30 51 O 7.5303 1.89854 -0.408561 0
M  V30 52 C 4.6603 3.28339 -1.13186 0
M  V30 53 C 3.6143 3.65335 -2.22967 0
M  V30 54 C 2.9403 5.00806 -1.87342 0
M  V30 55 C 4.2403 3.7352 -3.65075 0
M  V30 56 H 5.9343 1.93755 -2.28253 0
M  V30 57 H 3.4803 0.930788 -1.09874 0
M  V30 58 H 5.4333 4.06804 -1.09948 0
M  V30 59 H 4.1573 3.2624 -0.153332 0
M  V30 60 H 2.8163 2.89169 -2.25337 0
M  V30 61 H 2.4643 4.95233 -0.880545 0
M  V30 62 H 2.1643 5.26529 -2.60846 0
M  V30 63 H 3.6883 5.81687 -1.85667 0
M  V30 64 H 5.1023 4.42168 -3.64911 0
M  V30 65 H 3.4993 4.10731 -4.37516 0
M  V30 66 H 4.5693 2.74527 -3.99703 0
M  V30 67 N 5.9124 1.20967 1.01018 0
M  V30 68 C 7.1374 1.0503 1.78839 0
M  V30 69 C 7.5624 -0.395752 1.8389 0
M  V30 70 O 6.9204 -1.28529 1.27867 0
M  V30 71 C 6.9684 1.64602 3.2084 0
M  V30 72 O 6.0724 0.887988 4.02726 0
M  V30 73 H 5.4134 0.369987 0.551367 0
M  V30 74 H 7.9434 1.60399 1.27018 0
M  V30 75 H 7.9534 1.68607 3.71532 0
M  V30 76 H 6.6284 2.69841 3.16479 0
M  V30 77 H 5.2054 0.922648 3.61305 0
M  V30 78 N 7.3905 -1.2043 1.01659 0
M  V30 79 C 8.6375 -1.89797 0.705917 0
M  V30 80 C 8.9655 -1.78848 -0.764439 0
M  V30 81 O 8.2205 -1.16694 -1.57102 0
M  V30 82 C 8.5195 -3.40464 1.08714 0
M  V30 83 C 8.1855 -3.71614 2.5537 0
M  V30 84 C 6.8475 -3.79826 2.95441 0
M  V30 85 C 9.1995 -3.85915 3.50313 0
M  V30 86 C 6.5275 -3.99797 4.29394 0
M  V30 87 C 8.8795 -4.07396 4.83954 0
M  V30 88 C 7.5435 -4.13837 5.23732 0
M  V30 89 H 6.8135 -0.694518 0.258313 0
M  V30 90 H 9.4605 -1.42691 1.27717 0
M  V30 91 H 7.7655 -3.89385 0.434309 0
M  V30 92 H 9.4625 -3.92433 0.824461 0
M  V30 93 H 6.0525 -3.65822 2.23321 0
M  V30 94 H 10.2365 -3.78926 3.20513 0
M  V30 95 H 5.4925 -4.03018 4.59768 0
M  V30 96 H 9.6665 -4.17404 5.57447 0
M  V30 97 H 7.2935 -4.29064 6.27541 0
M  V30 98 N 8.8686 -0.792821 -1.36206 0
M  V30 99 C 9.7786 -0.194808 -2.3379 0
M  V30 100 C 10.7946 0.654869 -1.61206 0
M  V30 101 O 11.9706 0.569856 -1.9317 0
M  V30 102 C 9.0356 0.657721 -3.40404 0
M  V30 103 C 8.0966 -0.210849 -4.28782 0
M  V30 104 C 7.3296 0.601086 -5.30304 0
M  V30 105 O 7.5526 1.83682 -5.40016 0
M  V30 106 O 6.4866 -0.000808277 -6.019 0
M  V30 107 H 10.3126 -1.00172 -2.86704 0
M  V30 108 H 7.8976 -0.554341 -1.38735 0
M  V30 109 H 9.7796 1.14375 -4.05581 0
M  V30 110 H 8.4546 1.44247 -2.89784 0
M  V30 111 H 7.3616 -0.743714 -3.66633 0
M  V30 112 H 8.6946 -0.959195 -4.82763 0
M  V30 113 N 10.3467 1.47872 -0.545128 0
M  V30 114 C 11.7627 1.5829 -0.204032 0
M  V30 115 C 11.9627 1.54529 1.29317 0
M  V30 116 O 11.0187 1.44232 2.07252 0
M  V30 117 C 12.3317 2.89304 -0.819987 0
M  V30 118 C 13.8797 3.02864 -0.790105 0
M  V30 119 C 14.3547 4.3656 -1.38491 0
M  V30 120 N 15.8457 4.43165 -1.34755 0
M  V30 121 C 16.5807 5.45153 -1.77753 0
M  V30 122 N 16.0767 6.54016 -2.2855 0
M  V30 123 N 17.8697 5.36125 -1.68897 0
M  V30 124 H 10.0207 1.4856 -1.51802 0
M  V30 125 H 12.2837 0.706305 -0.632327 0
M  V30 126 H 11.9897 2.97757 -1.87173 0
M  V30 127 H 11.8637 3.75957 -0.305915 0
M  V30 128 H 14.2507 2.94014 0.252913 0
M  V30 129 H 14.3317 2.17782 -1.34181 0
M  V30 130 H 13.9757 4.46164 -2.42693 0
M  V30 131 H 13.9057 5.20353 -0.808754 0
M  V30 132 H 16.3967 3.65083 -0.975855 0
M  V30 133 H 16.7097 7.27994 -2.59314 0
M  V30 134 H 15.0547 6.54938 -2.32553 0
M  V30 135 H 18.2457 4.49975 -1.28998 0
M  V30 136 H 18.4187 6.15472 -2.02726 0
M  V30 137 N 11.8248 0.280983 1.55075 0
M  V30 138 C 12.7718 -0.603937 2.22758 0
M  V30 139 C 13.7418 -1.1452 1.20309 0
M  V30 140 O 14.9268 -1.19343 1.48869 0
M  V30 141 C 12.0668 -1.77947 2.95684 0
M  V30 142 C 11.1798 -1.2715 4.12864 0
M  V30 143 C 10.3148 -2.4093 4.7342 0
M  V30 144 C 9.3538 -1.87165 5.82783 0
M  V30 145 N 8.4908 -2.94441 6.37377 0
M  V30 146 H 13.3308 -0.020124 2.97993 0
M  V30 147 H 10.8678 0.00183425 1.471 0
M  V30 148 H 12.8258 -2.47055 3.36184 0
M  V30 149 H 11.4558 -2.33522 2.22861 0
M  V30 150 H 10.5078 -0.473331 3.77444 0
M  V30 151 H 11.8198 -0.837751 4.91715 0
M  V30 152 H 10.9738 -3.18021 5.1667 0
M  V30 153 H 9.7128 -2.87623 3.93859 0
M  V30 154 H 8.7178 -1.08556 5.38976 0
M  V30 155 H 9.9428 -1.41401 6.64216 0
M  V30 156 H 7.8888 -3.40505 5.60707 0
M  V30 157 H 7.8058 -2.55501 7.11516 0
M  V30 158 H 9.0738 -3.71489 6.85285 0
M  V30 159 N 13.3029 -1.57598 0.00835791 0
M  V30 160 C 14.5329 -1.94931 -0.684496 0
M  V30 161 C 14.9409 -0.882233 -1.67372 0
M  V30 162 O 14.2839 0.146621 -1.83114 0
M  V30 163 C 14.3459 -3.283 -1.4649 0
M  V30 164 C 14.0099 -4.52548 -0.63634 0
M  V30 165 C 15.0069 -5.19839 0.0795586 0
M  V30 166 C 12.6919 -4.98942 -0.579849 0
M  V30 167 C 14.6859 -6.3183 0.840843 0
M  V30 168 C 12.3729 -6.10819 0.185155 0
M  V30 169 C 13.3709 -6.77121 0.894227 0
M  V30 170 O 13.0589 -7.86853 1.64673 0
M  V30 171 H 12.7909 -0.647249 -0.19505 0
M  V30 172 H 15.3449 -2.05318 0.0581272 0
M  V30 173 H 13.5749 -3.14345 -2.2522 0
M  V30 174 H 15.2639 -3.50685 -2.04389 0
M  V30 175 H 16.0299 -4.84979 0.0451202 0
M  V30 176 H 11.9089 -4.47155 -1.1213 0
M  V30 177 H 15.4529 -6.83513 1.39483 0
M  V30 178 H 11.3499 -6.4512 0.221384 0
M  V30 179 H 12.1179 -8.03412 1.56432 0
M  V30 180 N 14.781 0.264519 -1.55364 0
M  V30 181 C 16.197 0.61215 -1.47394 0
M  V30 182 C 16.397 1.89134 -0.695018 0
M  V30 183 O 15.453 2.51563 -0.217275 0
M  V30 184 C 16.766 0.731235 -2.91674 0
M  V30 185 C 18.314 0.82473 -3.01939 0
M  V30 186 C 18.789 0.975522 -4.4749 0
M  V30 187 N 20.28 1.04083 -4.51354 0
M  V30 188 C 21.015 1.17646 -5.61201 0
M  V30 189 N 20.511 1.27874 -6.80896 0
M  V30 190 N 22.304 1.20823 -5.48961 0
M  V30 191 H 14.455 -0.575456 -2.04456 0
M  V30 192 H 16.718 -0.196099 -0.927496 0
M  V30 193 H 16.424 -0.138392 -3.51428 0
M  V30 194 H 16.298 1.60883 -3.41169 0
M  V30 195 H 18.685 1.68482 -2.42276 0
M  V30 196 H 18.766 -0.0776479 -2.55682 0
M  V30 197 H 18.41 0.120058 -5.07758 0
M  V30 198 H 18.34 1.89268 -4.91412 0
M  V30 199 H 20.831 0.973846 -3.65136 0
M  V30 200 H 21.144 1.38081 -7.60364 0
M  V30 201 H 19.489 1.24863 -6.83692 0
M  V30 202 H 22.68 1.12469 -4.54388 0
M  V30 203 H 22.853 1.31049 -6.3461 0
M  V30 204 N 16.2591 1.48442 0.529413 0
M  V30 205 C 17.5051 1.5672 1.28711 0
M  V30 206 C 17.8381 0.2406 1.92704 0
M  V30 207 O 17.1131 -0.753454 1.79313 0
M  V30 208 C 17.3961 2.70587 2.37603 0
M  V30 209 C 17.2491 4.12953 1.78297 0
M  V30 210 C 18.5681 2.80212 3.39366 0
M  V30 211 H 15.6871 0.570474 0.466613 0
M  V30 212 H 18.3291 1.80617 0.589706 0
M  V30 213 H 16.4791 2.50342 2.97088 0
M  V30 214 H 18.1511 4.44639 1.22858 0
M  V30 215 H 16.3941 4.19927 1.0883 0
M  V30 216 H 17.0651 4.88448 2.57144 0
M  V30 217 H 19.5411 2.98553 2.89836 0
M  V30 218 H 18.4171 3.61611 4.12951 0
M  V30 219 H 18.6781 1.88393 3.99951 0
M  V30 220 N 17.7372 -0.778329 1.37039 0
M  V30 221 C 19.1482 -1.35421 1.28523 0
M  V30 222 C 19.4992 -1.96075 -0.0700901 0
M  V30 223 O 18.6242 -1.93352 -0.971801 0
M  V30 224 C 19.2192 -2.46211 2.32735 0
M  V30 225 C 17.7782 -2.99585 2.27873 0
M  V30 226 C 16.9252 -1.72748 2.16918 0
M  V30 227 H 19.8762 -0.5791 1.47757 0
M  V30 228 H 19.8972 -3.2552 1.9702 0
M  V30 229 H 19.4092 -2.02036 3.31365 0
M  V30 230 H 17.5102 -3.48152 1.32745 0
M  V30 231 H 17.6232 -3.55646 3.21018 0
M  V30 232 H 15.9872 -1.95416 1.63354 0
M  V30 233 H 16.7702 -1.30686 3.17452 0
M  V30 234 N 19.2153 -1.21501 -1.00376 0
M  V30 235 C 20.4633 -1.03095 -1.73827 0
M  V30 236 C 20.7843 0.436341 -1.90055 0
M  V30 237 O 20.0543 1.31466 -1.45236 0
M  V30 238 H 18.6343 -0.378487 -0.644016 0
M  V30 239 H 21.2963 -1.52831 -1.20949 0
M  V30 240 H 20.3923 -1.49991 -2.73695 0
M  V30 241 N 20.6934 1.19889 -1.02296 0
M  V30 242 C 21.9414 1.89046 -0.714558 0
M  V30 243 C 22.2624 1.79636 0.758681 0
M  V30 244 O 21.5324 1.20292 1.54618 0
M  V30 245 H 20.1124 0.699802 -0.261317 0
M  V30 246 H 22.7744 1.45574 -1.29592 0
M  V30 247 H 21.8704 2.95524 -1.0036 0
M  V30 248 N 22.1715 0.800033 1.35784 0
M  V30 249 C 23.3995 0.389606 2.03199 0
M  V30 250 C 23.8145 -0.997375 1.60306 0
M  V30 251 O 23.1715 -1.64154 0.797481 0
M  V30 252 C 23.2225 0.455855 3.58614 0
M  V30 253 O 22.9435 1.78815 3.99946 0
M  V30 254 C 24.4445 0.0374032 4.43284 0
M  V30 255 H 21.6645 0.159132 0.651857 0
M  V30 256 H 24.2085 1.08183 1.73541 0
M  V30 257 H 22.3635 -0.188057 3.86943 0
M  V30 258 H 22.7775 1.74636 4.94573 0
M  V30 259 H 24.2515 0.134882 5.51835 0
M  V30 260 H 24.7285 -1.01651 4.27275 0
M  V30 261 H 25.3345 0.654215 4.20238 0
M  V30 262 N 23.6496 -1.47581 0.552962 0
M  V30 263 C 24.5796 -2.32762 -0.185451 0
M  V30 264 C 25.5606 -1.43527 -0.912905 0
M  V30 265 O 26.7456 -1.72388 -0.894201 0
M  V30 266 C 23.8756 -3.25219 -1.21859 0
M  V30 267 C 22.8296 -4.23661 -0.607864 0
M  V30 268 C 22.1556 -5.05413 -1.74533 0
M  V30 269 C 23.4556 -5.20481 0.435582 0
M  V30 270 H 25.1496 -2.94749 0.525684 0
M  V30 271 H 22.6956 -1.41738 0.254251 0
M  V30 272 H 24.6486 -3.8365 -1.7433 0
M  V30 273 H 23.3726 -2.61279 -1.95961 0
M  V30 274 H 22.0316 -3.66451 -0.104489 0
M  V30 275 H 21.6796 -4.3788 -2.47529 0
M  V30 276 H 21.3796 -5.72059 -1.34249 0
M  V30 277 H 22.9036 -5.66701 -2.27338 0
M  V30 278 H 24.3176 -5.733 -0.00290157 0
M  V30 279 H 22.7146 -5.95305 0.757067 0
M  V30 280 H 23.7846 -4.66217 1.33303 0
M  V30 281 N 25.1277 -0.289203 -1.54924 0
M  V30 282 C 26.3737 0.323998 -2.00195 0
M  V30 283 C 26.7067 1.54441 -1.17735 0
M  V30 284 O 25.9817 1.92875 -0.250878 0
M  V30 285 C 26.2647 0.692276 -3.53383 0
M  V30 286 C 26.1177 -0.536457 -4.46589 0
M  V30 287 C 27.4367 1.52335 -4.12895 0
M  V30 288 H 24.5557 0.116289 -0.727768 0
M  V30 289 H 27.1977 -0.398954 -1.85764 0
M  V30 290 H 25.3477 1.30822 -3.65811 0
M  V30 291 H 27.0197 -1.17499 -4.46085 0
M  V30 292 H 25.2627 -1.17192 -4.1767 0
M  V30 293 H 25.9337 -0.234806 -5.515 0
M  V30 294 H 28.4097 1.00302 -4.0383 0
M  V30 295 H 27.2857 1.74982 -5.20262 0
M  V30 296 H 27.5467 2.50886 -3.64018 0
M  V30 297 N 26.6058 1.57591 -0.0167156 0
M  V30 298 C 27.8538 1.90906 0.663285 0
M  V30 299 C 28.1748 0.892509 1.73376 0
M  V30 300 O 27.4448 -0.0677623 1.95783 0
M  V30 301 H 26.0248 0.704637 0.247983 0
M  V30 302 H 28.6868 1.94803 -0.0615909 0
M  V30 303 H 27.7828 2.9116 1.12393 0
M  V30 304 N 28.0839 -0.256276 1.55502 0
M  V30 305 C 29.3319 -0.983672 1.76545 0
M  V30 306 C 29.6529 -1.86206 0.578982 0
M  V30 307 O 28.9229 -1.91656 -0.405577 0
M  V30 308 H 27.5029 -0.366191 0.651086 0
M  V30 309 H 30.1649 -0.276479 1.92929 0
M  V30 310 H 29.2609 -1.61087 2.67315 0
M  V30 311 N 29.562 -1.4872 -0.521534 0
M  V30 312 C 30.51 -1.64328 -1.64618 0
M  V30 313 C 31.504 -0.50953 -1.61555 0
M  V30 314 O 32.71 -0.688525 -1.66311 0
M  V30 315 H 29.085 -0.517805 -0.545328 0
M  V30 316 H 31.056 -2.58767 -1.48601 0
M  V30 317 C 29.805 -1.70805 -3.02855 0
M  V30 318 H 29.128 -2.5741 -3.05909 0
M  V30 319 H 30.568 -1.85766 -3.81139 0
M  V30 320 C 29.027 -0.448479 -3.33902 0
M  V30 321 O 29.557 0.434928 -3.99339 0
M  V30 322 N 27.763 -0.317616 -2.88859 0
M  V30 323 H 27.31 -1.03748 -2.35784 0
M  V30 324 H 27.268 0.524113 -3.10001 0
M  V30 325 N 31.0401 0.771051 -1.3745 0
M  V30 326 C 31.9701 1.89827 -1.3597 0
M  V30 327 C 32.9511 1.68562 -0.228216 0
M  V30 328 O 34.1361 1.8941 -0.428675 0
M  V30 329 C 31.2661 3.2712 -1.16662 0
M  V30 330 C 30.2201 3.6295 -2.2683 0
M  V30 331 C 29.5461 4.98791 -1.92644 0
M  V30 332 C 30.8461 3.69627 -3.69017 0
M  V30 333 H 32.5401 1.91323 -2.30295 0
M  V30 334 H 30.0861 0.919082 -1.10855 0
M  V30 335 H 32.0391 4.05615 -1.14256 0
M  V30 336 H 30.7631 3.26059 -0.187926 0
M  V30 337 H 29.4221 2.86763 -2.28392 0
M  V30 338 H 29.0701 4.94271 -0.933021 0
M  V30 339 H 28.7701 5.23733 -2.66416 0
M  V30 340 H 30.2941 5.79685 -1.91826 0
M  V30 341 H 31.7081 4.38273 -3.69581 0
M  V30 342 H 30.1051 4.06067 -4.41848 0
M  V30 343 H 31.1751 2.70273 -4.02592 0
M  V30 344 N 32.5182 1.22032 0.997298 0
M  V30 345 C 33.7652 1.04222 1.73621 0
M  V30 346 C 34.0932 -0.423264 1.89839 0
M  V30 347 O 33.3482 -1.3302 1.43542 0
M  V30 348 C 33.6472 1.69345 3.14733 0
M  V30 349 C 33.3132 3.19226 3.18442 0
M  V30 350 C 31.9752 3.60124 3.19161 0
M  V30 351 C 34.3272 4.15181 3.15078 0
M  V30 352 C 31.6552 4.95467 3.14212 0
M  V30 353 C 34.0072 5.50495 3.1167 0
M  V30 354 C 32.6712 5.90779 3.10703 0
M  V30 355 H 31.9412 0.381374 0.635323 0
M  V30 356 H 34.5882 1.51732 1.16831 0
M  V30 357 H 32.8932 1.14147 3.74803 0
M  V30 358 H 34.5902 1.53059 3.7064 0
M  V30 359 H 31.1802 2.86659 3.18629 0
M  V30 360 H 35.3642 3.84605 3.13676 0
M  V30 361 H 30.6202 5.25916 3.11805 0
M  V30 362 H 34.7942 6.24576 3.08022 0
M  V30 363 H 32.4212 6.9562 3.06622 0
M  V30 364 N 33.9963 -1.19345 1.0293 0
M  V30 365 C 35.2733 -1.84811 0.640642 0
M  V30 366 C 35.6533 -1.91855 -0.88062 0
M  V30 367 O 35.0013 -1.43587 -1.7775 0
M  V30 368 C 35.2113 -3.23755 1.30321 0
M  V30 369 C 36.5593 -3.99912 1.42673 0
M  V30 370 O 37.5833 -3.33155 1.26041 0
M  V30 371 O 36.4423 -5.19494 1.6967 0
M  V30 372 H 33.5363 -0.796443 0.222726 0
M  V30 373 H 36.0823 -1.26831 1.12748 0
M  V30 374 H 34.8543 -3.13466 2.34211 0
M  V30 375 H 34.4773 -3.89381 0.804261 0
M  V30 376 N 35.4744 -0.807222 -1.35358 0
M  V30 377 C 36.7214 -0.387888 -1.9875 0
M  V30 378 C 37.0494 1.04509 -1.64037 0
M  V30 379 O 36.3044 1.73986 -0.895946 0
M  V30 380 C 36.6034 -0.519036 -3.53611 0
M  V30 381 C 36.2694 -1.91542 -4.08194 0
M  V30 382 C 34.9314 -2.29745 -4.22813 0
M  V30 383 C 37.2834 -2.82896 -4.37744 0
M  V30 384 C 34.6114 -3.58668 -4.643 0
M  V30 385 C 36.9634 -4.11265 -4.8067 0
M  V30 386 C 35.6274 -4.49466 -4.93494 0
M  V30 387 H 34.8974 -0.141938 -0.727279 0
M  V30 388 H 37.5444 -1.02814 -1.6156 0
M  V30 389 H 35.8494 0.204658 -3.91265 0
M  V30 390 H 37.5464 -0.175345 -4.00616 0
M  V30 391 H 34.1364 -1.60862 -3.97268 0
M  V30 392 H 38.3204 -2.54629 -4.26002 0
M  V30 393 H 33.5764 -3.88113 -4.72418 0
M  V30 394 H 37.7504 -4.82153 -5.02496 0
M  V30 395 H 35.3774 -5.49418 -5.25399 0
M  V30 396 N 36.9525 1.47285 -0.560781 0
M  V30 397 C 38.1985 2.03347 -0.0463654 0
M  V30 398 C 38.5535 1.42702 1.2905 0
M  V30 399 O 37.8465 0.574619 1.8278 0
M  V30 400 C 38.0405 3.57258 0.100784 0
M  V30 401 C 37.8695 4.32827 -1.22027 0
M  V30 402 C 36.6395 4.72588 -1.78854 0
M  V30 403 C 38.8375 4.67739 -2.13834 0
M  V30 404 N 36.8195 5.32816 -3.04927 0
M  V30 405 C 38.1905 5.28307 -3.24487 0
M  V30 406 C 40.2455 4.49667 -2.13784 0
M  V30 407 C 38.9485 5.72711 -4.35194 0
M  V30 408 C 40.9745 4.95073 -3.23506 0
M  V30 409 C 40.3365 5.55693 -4.32879 0
M  V30 410 H 36.4355 0.779755 -0.0592166 0
M  V30 411 H 39.0195 1.79723 -0.748857 0
M  V30 412 H 37.1905 3.80642 0.772404 0
M  V30 413 H 38.9225 3.9996 0.617589 0
M  V30 414 H 35.6775 4.54656 -1.32609 0
M  V30 415 H 36.1015 5.67471 -3.69197 0
M  V30 416 H 40.7435 4.02154 -1.30507 0
M  V30 417 H 38.4615 6.19214 -5.1923 0
M  V30 418 H 42.0475 4.82859 -3.24559 0
M  V30 419 H 40.9275 5.90188 -5.1638 0
M  V30 420 N 38.4306 0.297415 1.54768 0
M  V30 421 C 39.6766 -0.313376 2.00364 0
M  V30 422 C 40.0096 -1.53815 1.18553 0
M  V30 423 O 39.2846 -1.92739 0.261103 0
M  V30 424 C 39.5676 -0.673525 3.53745 0
M  V30 425 C 39.4206 0.560133 4.46299 0
M  V30 426 C 40.7396 -1.50143 4.13697 0
M  V30 427 H 37.8586 -0.112428 0.728374 0
M  V30 428 H 40.5006 0.4088 1.8555 0
M  V30 429 H 38.6506 -1.28881 3.665 0
M  V30 430 H 40.3226 1.19863 4.45455 0
M  V30 431 H 38.5656 1.19405 4.17043 0
M  V30 432 H 39.2366 0.26405 5.51368 0
M  V30 433 H 41.7126 -0.981588 4.04356 0
M  V30 434 H 40.5886 -1.72221 5.21182 0
M  V30 435 H 40.8496 -2.48952 3.65343 0
M  V30 436 N 39.9087 -1.5758 0.0250728 0
M  V30 437 C 41.1567 -1.91255 -0.653151 0
M  V30 438 C 41.4777 -0.901691 -1.729 0
M  V30 439 O 40.7477 0.0573785 -1.95816 0
M  V30 440 H 39.3277 -0.705942 -0.244243 0
M  V30 441 H 41.9897 -1.94767 0.0719209 0
M  V30 442 H 41.0857 -2.91752 -1.10847 0
M  V30 443 N 41.3868 0.248026 -1.55636 0
M  V30 444 C 42.7978 0.817177 -1.67866 0
M  V30 445 C 43.1488 1.86069 -0.622322 0
M  V30 446 O 42.2738 2.15157 0.231618 0
M  V30 447 C 42.8688 1.489 -3.04326 0
M  V30 448 C 41.4278 2.00587 -3.185 0
M  V30 449 C 40.5748 0.856573 -2.63739 0
M  V30 450 H 43.5258 0.0238579 -1.58682 0
M  V30 451 H 43.5468 2.35698 -2.98708 0
M  V30 452 H 43.0588 0.729279 -3.81186 0
M  V30 453 H 41.1598 2.79443 -2.4646 0
M  V30 454 H 41.2728 2.20402 -4.25393 0
M  V30 455 H 39.6368 1.25678 -2.21534 0
M  V30 456 H 40.4198 0.109953 -3.43124 0
M  V30 457 N 42.8649 1.48995 0.513639 0
M  V30 458 C 44.1119 1.57843 1.26854 0
M  V30 459 C 44.4399 0.259501 1.92761 0
M  V30 460 O 43.6949 -0.75159 1.80692 0
M  V30 461 C 43.9939 2.67756 2.36731 0
M  V30 462 C 43.6599 4.09669 1.88368 0
M  V30 463 C 42.3219 4.48291 1.74896 0
M  V30 464 C 44.6739 4.98537 1.52021 0
M  V30 465 C 42.0019 5.73568 1.23438 0
M  V30 466 C 44.3539 6.24319 1.0202 0
M  V30 467 C 43.0179 6.61783 0.871778 0
M  V30 468 H 42.2879 0.577587 0.464192 0
M  V30 469 H 44.9349 1.82778 0.571366 0
M  V30 470 H 43.2399 2.36743 3.12185 0
M  V30 471 H 44.9369 2.71813 2.9482 0
M  V30 472 H 41.5269 3.79176 1.99808 0
M  V30 473 H 45.7109 4.69363 1.61281 0
M  V30 474 H 40.9669 6.01304 1.10648 0
M  V30 475 H 45.1409 6.92566 0.729722 0
M  V30 476 H 42.7679 7.5874 0.470852 0
M  V30 477 N 44.343 -0.763751 1.37857 0
M  V30 478 C 45.573 -1.55067 1.3652 0
M  V30 479 C 45.981 -1.89135 -0.0494227 0
M  V30 480 O 45.324 -1.52529 -1.02375 0
M  V30 481 C 45.386 -2.8838 2.14656 0
M  V30 482 C 45.05 -2.76905 3.63555 0
M  V30 483 C 46.047 -2.4739 4.57268 0
M  V30 484 C 43.732 -2.94676 4.06781 0
M  V30 485 C 45.726 -2.35786 5.92186 0
M  V30 486 C 43.413 -2.82692 5.41782 0
M  V30 487 C 44.411 -2.53289 6.34298 0
M  V30 488 O 44.099 -2.41345 7.66817 0
M  V30 489 H 43.831 -0.486776 0.469069 0
M  V30 490 H 46.385 -0.953812 1.81911 0
M  V30 491 H 44.615 -3.50217 1.63967 0
M  V30 492 H 46.304 -3.49828 2.05852 0
M  V30 493 H 47.07 -2.33339 4.2518 0
M  V30 494 H 42.949 -3.16563 3.35126 0
M  V30 495 H 46.493 -2.12757 6.64365 0
M  V30 496 H 42.39 -2.96314 5.7347 0
M  V30 497 H 43.158 -2.56634 7.77226 0
M  V30 498 N 45.8211 -1.22559 -0.990812 0
M  V30 499 C 47.0671 -1.05297 -1.73322 0
M  V30 500 C 47.4001 0.410655 -1.89808 0
M  V30 501 O 46.6751 1.30439 -1.44277 0
M  V30 502 C 46.9581 -1.76713 -3.13759 0
M  V30 503 C 46.8111 -3.30684 -3.04907 0
M  V30 504 C 48.1301 -1.52121 -4.12974 0
M  V30 505 H 45.2491 -0.38392 -0.629106 0
M  V30 506 H 47.8911 -1.50926 -1.15418 0
M  V30 507 H 46.0411 -1.37924 -3.63193 0
M  V30 508 H 47.7131 -3.7893 -2.63077 0
M  V30 509 H 45.9561 -3.60253 -2.41661 0
M  V30 510 H 46.6271 -3.75833 -4.04294 0
M  V30 511 H 49.1031 -1.85819 -3.72304 0
M  V30 512 H 47.9791 -2.04582 -5.0935 0
M  V30 513 H 48.2401 -0.454257 -4.3976 0
M  V30 514 N 47.2992 1.18797 -1.03562 0
M  V30 515 C 48.5472 1.88278 -0.734569 0
M  V30 516 C 48.8682 1.8043 0.739586 0
M  V30 517 O 48.1382 1.21925 1.53333 0
M  V30 518 H 46.7182 0.696991 -0.268725 0
M  V30 519 H 49.3802 1.44192 -1.31129 0
M  V30 520 H 48.4762 2.94443 -1.03489 0
M  V30 521 N 48.7773 0.814389 1.34928 0
M  V30 522 C 50.0243 0.398423 1.98542 0
M  V30 523 C 50.3523 -1.03638 1.64589 0
M  V30 524 O 49.6073 -1.73509 0.90516 0
M  V30 525 C 49.9063 0.537781 3.53331 0
M  V30 526 C 49.5723 1.93704 4.07172 0
M  V30 527 C 48.2343 2.31984 4.21589 0
M  V30 528 C 50.5863 2.85213 4.36237 0
M  V30 529 C 47.9143 3.61125 4.62391 0
M  V30 530 C 50.2663 4.13809 4.78482 0
M  V30 531 C 48.9303 4.52077 4.91104 0
M  V30 532 H 48.2003 0.145793 0.726516 0
M  V30 533 H 50.8473 1.03669 1.61012 0
M  V30 534 H 49.1523 -0.183906 3.91368 0
M  V30 535 H 50.8493 0.196588 4.00518 0
M  V30 536 H 47.4393 1.62966 3.96409 0
M  V30 537 H 51.6233 2.56885 4.24645 0
M  V30 538 H 46.8793 3.90612 4.70353 0
M  V30 539 H 51.0533 4.84811 4.99932 0
M  V30 540 H 48.6803 5.52196 5.22478 0
M  V30 541 N 50.2554 -1.46986 0.568584 0
M  V30 542 C 51.5024 -2.02441 0.0487986 0
M  V30 543 C 51.8304 -1.44169 -1.30559 0
M  V30 544 O 51.0854 -0.591213 -1.86556 0
M  V30 545 C 51.3844 -3.57306 -0.081836 0
M  V30 546 C 51.0504 -4.34552 1.20313 0
M  V30 547 C 49.7124 -4.55376 1.5552 0
M  V30 548 C 52.0644 -4.79016 2.05411 0
M  V30 549 C 49.3924 -5.17913 2.7565 0
M  V30 550 C 51.7444 -5.42879 3.24754 0
M  V30 551 C 50.4084 -5.61933 3.60261 0
M  V30 552 H 49.6784 -0.740785 0.0178567 0
M  V30 553 H 52.3254 -1.76525 0.742384 0
M  V30 554 H 50.6304 -3.8228 -0.858463 0
M  V30 555 H 52.3274 -3.97876 -0.499546 0
M  V30 556 H 48.9174 -4.18631 0.919014 0
M  V30 557 H 53.1014 -4.62696 1.79516 0
M  V30 558 H 48.3574 -5.30858 3.03315 0
M  V30 559 H 52.5314 -5.76293 3.90973 0
M  V30 560 H 50.1584 -6.10161 4.53439 0
M  V30 561 N 51.7335 -0.305618 -1.54608 0
M  V30 562 C 52.9815 0.301701 -1.99835 0
M  V30 563 C 53.3025 1.54054 -1.19551 0
M  V30 564 O 52.5725 1.93702 -0.292658 0
M  V30 565 H 51.1525 0.114468 -0.738178 0
M  V30 566 H 53.8145 -0.418016 -1.90364 0
M  V30 567 H 52.9105 0.570548 -3.06841 0
M  V30 568 N 53.2116 1.57565 -0.0334293 0
M  V30 569 C 54.4576 1.92262 0.645226 0
M  V30 570 C 54.7906 0.910543 1.71531 0
M  V30 571 O 54.0656 -0.066099 1.94388 0
M  V30 572 C 54.3486 3.37422 1.2577 0
M  V30 573 C 54.2016 4.49369 0.196891 0
M  V30 574 C 55.5206 3.82628 2.17449 0
M  V30 575 H 52.6396 0.699171 0.233085 0
M  V30 576 H 55.2816 1.89779 -0.0915694 0
M  V30 577 H 53.4316 3.39669 1.88566 0
M  V30 578 H 55.1036 4.59254 -0.433962 0
M  V30 579 H 53.3466 4.31168 -0.477137 0
M  V30 580 H 54.0176 5.47978 0.665124 0
M  V30 581 H 56.4936 3.82145 1.64634 0
M  V30 582 H 55.3696 4.84883 2.57254 0
M  V30 583 H 55.6306 3.18376 3.0674 0
M  V30 584 N 54.6897 -0.239769 1.55765 0
M  V30 585 C 55.6527 -1.28038 1.90103 0
M  V30 586 C 56.6527 -1.40723 0.778055 0
M  V30 587 O 57.8427 -1.39301 1.04599 0
M  V30 588 C 54.9747 -2.65702 2.13577 0
M  V30 589 H 56.1677 -0.988048 2.83157 0
M  V30 590 H 53.7207 -0.479382 1.48767 0
M  V30 591 H 54.4557 -3.00063 1.23015 0
M  V30 592 H 54.2407 -2.57875 2.95369 0
M  V30 593 H 55.7307 -3.40828 2.41301 0
M  V30 594 N 56.1678 -1.49265 -0.50573 0
M  V30 595 C 57.3958 -1.62215 -1.28429 0
M  V30 596 C 57.8108 -0.291697 -1.86533 0
M  V30 597 O 57.1678 0.722233 -1.67601 0
M  V30 598 C 57.2188 -2.68735 -2.41793 0
M  V30 599 O 56.9398 -3.96619 -1.86078 0
M  V30 600 C 58.4408 -2.92346 -3.3324 0
M  V30 601 H 55.6608 -0.546239 -0.389697 0
M  V30 602 H 58.2048 -1.95265 -0.607609 0
M  V30 603 H 56.3598 -2.38476 -3.053 0
M  V30 604 H 56.7738 -4.55256 -2.60465 0
M  V30 605 H 58.2478 -3.70623 -4.09075 0
M  V30 606 H 58.7248 -2.02081 -3.89948 0
M  V30 607 H 59.3308 -3.24003 -2.75503 0
M  V30 608 N 57.6459 0.756429 -1.3826 0
M  V30 609 C 58.8929 1.51547 -1.34312 0
M  V30 610 C 59.2209 1.94382 0.0677144 0
M  V30 611 O 58.4759 1.65514 1.04421 0
M  V30 612 C 58.7749 2.78313 -2.24224 0
M  V30 613 C 58.4409 2.54455 -3.72241 0
M  V30 614 C 57.1029 2.47657 -4.12576 0
M  V30 615 C 59.4549 2.3354 -4.65949 0
M  V30 616 C 56.7829 2.17956 -5.44713 0
M  V30 617 C 59.1349 2.05359 -5.9834 0
M  V30 618 C 57.7989 1.97016 -6.37762 0
M  V30 619 H 57.0689 0.55455 -0.491482 0
M  V30 620 H 59.7159 0.870039 -1.70595 0
M  V30 621 H 58.0209 3.47492 -1.80987 0
M  V30 622 H 59.7179 3.36259 -2.18474 0
M  V30 623 H 56.3079 2.60616 -3.40261 0
M  V30 624 H 60.4919 2.37772 -4.35635 0
M  V30 625 H 55.7479 2.10003 -5.74203 0
M  V30 626 H 59.9219 1.88179 -6.70494 0
M  V30 627 H 57.5489 1.73766 -7.40074 0
M  V30 628 N 59.124 1.23083 0.984299 0
M  V30 629 C 60.371 1.06057 1.72505 0
M  V30 630 C 60.699 -0.403105 1.90277 0
M  V30 631 O 59.954 -1.3149 1.44944 0
M  V30 632 C 60.253 1.72673 3.1292 0
M  V30 633 C 59.919 3.22586 3.15038 0
M  V30 634 C 58.581 3.63489 3.15324 0
M  V30 635 C 60.933 4.185 3.10657 0
M  V30 636 C 58.261 4.98772 3.08939 0
M  V30 637 C 60.613 5.53769 3.05814 0
M  V30 638 C 59.277 5.94041 3.04419 0
M  V30 639 H 58.547 0.388091 0.631242 0
M  V30 640 H 61.194 1.52963 1.15215 0
M  V30 641 H 59.499 1.18116 3.73572 0
M  V30 642 H 61.196 1.56982 3.68996 0
M  V30 643 H 57.786 2.90022 3.15571 0
M  V30 644 H 61.97 3.87911 3.09579 0
M  V30 645 H 57.226 5.29193 3.0621 0
M  V30 646 H 61.4 6.27808 3.0138 0
M  V30 647 H 59.027 6.98833 2.99227 0
M  V30 648 N 60.6021 -1.18246 1.0419 0
M  V30 649 C 61.8491 -1.88257 0.746017 0
M  V30 650 C 62.1771 -1.80429 -0.726331 0
M  V30 651 O 61.4321 -1.2 -1.54591 0
M  V30 652 C 61.7311 -3.38082 1.15911 0
M  V30 653 C 61.3971 -3.66114 2.63195 0
M  V30 654 C 60.0591 -3.73474 3.03432 0
M  V30 655 C 62.4111 -3.78398 3.5842 0
M  V30 656 C 59.7391 -3.90599 4.37778 0
M  V30 657 C 62.0911 -3.97039 4.92487 0
M  V30 658 C 60.7551 -4.02635 5.32392 0
M  V30 659 H 60.0251 -0.688883 0.272987 0
M  V30 660 H 62.6721 -1.3995 1.30715 0
M  V30 661 H 60.9771 -3.88377 0.516806 0
M  V30 662 H 62.6741 -3.90596 0.907516 0
M  V30 663 H 59.2641 -3.61003 2.3103 0
M  V30 664 H 63.4481 -3.72042 3.28479 0
M  V30 665 H 58.7041 -3.93175 4.68213 0
M  V30 666 H 62.8781 -4.05486 5.66175 0
M  V30 667 H 60.5051 -4.15657 6.36501 0
M  V30 668 N 62.0802 -0.821533 -1.34494 0
M  V30 669 C 63.0432 -0.247847 -2.27856 0
M  V30 670 C 64.0432 0.573453 -1.50227 0
M  V30 671 O 65.2332 0.389759 -1.69784 0
M  V30 672 C 62.3652 0.652698 -3.34593 0
M  V30 673 H 63.5582 -1.07146 -2.80107 0
M  V30 674 H 61.1112 -0.593291 -1.44602 0
M  V30 675 H 61.8462 1.49943 -2.87555 0
M  V30 676 H 61.6312 0.065292 -3.92046 0
M  V30 677 H 63.1212 1.04793 -4.04238 0
M  V30 678 N 63.5583 1.46682 -0.576371 0
M  V30 679 C 64.5213 2.28707 0.150239 0
M  V30 680 C 65.5213 1.38035 0.824794 0
M  V30 681 O 66.7113 1.60476 0.677719 0
M  V30 682 C 63.8433 3.18248 1.22192 0
M  V30 683 H 65.0363 2.94423 -0.570521 0
M  V30 684 H 62.5893 1.52688 -0.334078 0
M  V30 685 H 63.3243 2.57265 1.97447 0
M  V30 686 H 63.1093 3.85 0.742812 0
M  V30 687 H 64.5993 3.80001 1.73172 0
M  V30 688 N 65.0364 0.313813 1.54444 0
M  V30 689 C 65.9664 -0.549454 2.26943 0
M  V30 690 C 66.9474 -1.12741 1.27372 0
M  V30 691 O 68.1324 -1.15436 1.56167 0
M  V30 692 C 65.2624 -1.71523 3.01989 0
M  V30 693 C 64.2164 -1.26703 4.08816 0
M  V30 694 C 63.5424 -2.51898 4.71647 0
M  V30 695 C 64.8424 -0.388962 5.2085 0
M  V30 696 H 66.5364 0.0552661 2.99349 0
M  V30 697 H 64.0824 0.0280207 1.43973 0
M  V30 698 H 66.0354 -2.32535 3.51433 0
M  V30 699 H 64.7594 -2.34639 2.27183 0
M  V30 700 H 63.4184 -0.679896 3.6024 0
M  V30 701 H 63.0664 -3.13356 3.93468 0
M  V30 702 H 62.7664 -2.22605 5.43802 0
M  V30 703 H 64.2904 -3.1369 5.23861 0
M  V30 704 H 65.7044 -0.905107 5.6611 0
M  V30 705 H 64.1014 -0.18924 5.99802 0
M  V30 706 H 65.1714 0.582699 4.81386 0
M  V30 707 N 66.5145 -1.57545 0.0417849 0
M  V30 708 C 67.7625 -1.91937 -0.632829 0
M  V30 709 C 68.0835 -0.919978 -1.71934 0
M  V30 710 O 67.3535 0.0366064 -1.95866 0
M  V30 711 H 65.9335 -0.708493 -0.236742 0
M  V30 712 H 68.5955 -1.9468 0.0925745 0
M  V30 713 H 67.6915 -2.92912 -1.07746 0
M  V30 714 N 67.9926 0.231505 -1.5589 0
M  V30 715 C 69.2416 0.955346 -1.7764 0
M  V30 716 C 69.5546 1.85893 -0.608546 0
M  V30 717 O 70.7606 2.62067 -0.70943 0
M  V30 718 C 69.2166 1.74886 -3.14552 0
M  V30 719 C 68.8246 0.891915 -4.39032 0
M  V30 720 C 70.5686 2.46452 -3.45633 0
M  V30 721 C 68.4756 1.68221 -5.66971 0
M  V30 722 H 67.4056 0.360446 -0.662265 0
M  V30 723 H 70.0566 0.209516 -1.823 0
M  V30 724 H 68.4386 2.53723 -3.04041 0
M  V30 725 H 69.6126 0.144793 -4.60572 0
M  V30 726 H 67.9276 0.288863 -4.15397 0
M  V30 727 H 70.5246 3.06061 -4.38441 0
M  V30 728 H 70.8676 3.18841 -2.67668 0
M  V30 729 H 71.4006 1.74613 -3.57428 0
M  V30 730 H 68.1396 1.00178 -6.478 0
M  V30 731 H 67.6596 2.4042 -5.49507 0
M  V30 732 H 69.3386 2.24544 -6.06786 0
M  V30 733 N 69.4707 1.49531 0.497807 0
M  V30 734 C 70.7197 1.58426 1.24837 0
M  V30 735 C 71.0327 0.277643 1.93619 0
M  V30 736 O 72.2387 0.24517 2.70391 0
M  V30 737 C 70.6947 2.79538 2.26686 0
M  V30 738 C 70.3027 4.16971 1.63828 0
M  V30 739 C 72.0467 2.97764 3.0255 0
M  V30 740 C 69.9537 5.29301 2.63807 0
M  V30 741 H 68.8837 0.58989 0.469623 0
M  V30 742 H 71.5347 1.75923 0.521857 0
M  V30 743 H 69.9167 2.55542 3.02514 0
M  V30 744 H 71.0907 4.51116 0.939711 0
M  V30 745 H 69.4057 4.04129 1.00342 0
M  V30 746 H 72.0027 3.78856 3.77323 0
M  V30 747 H 72.3457 2.08448 3.60354 0
M  V30 748 H 72.8787 3.21815 2.33838 0
M  V30 749 H 69.6177 6.20687 2.10779 0
M  V30 750 H 69.1377 4.99606 3.31894 0
M  V30 751 H 70.8167 5.58768 3.2617 0
M  V30 752 N 70.9488 -0.749086 1.3866 0
M  V30 753 C 71.8788 -1.8764 1.38973 0
M  V30 754 C 72.8598 -1.68178 0.255004 0
M  V30 755 O 74.0448 -1.88704 0.458754 0
M  V30 756 C 71.1748 -3.25222 1.21851 0
M  V30 757 C 70.1288 -3.59295 2.32575 0
M  V30 758 C 69.4548 -4.95663 2.00555 0
M  V30 759 C 70.7548 -3.63709 3.7485 0
M  V30 760 H 72.4488 -1.87635 2.3331 0
M  V30 761 H 69.9948 -0.901329 1.12303 0
M  V30 762 H 71.9478 -4.03746 1.20695 0
M  V30 763 H 70.6718 -3.25719 0.239775 0
M  V30 764 H 69.3308 -2.83093 2.32925 0
M  V30 765 H 68.9788 -4.92724 1.01154 0
M  V30 766 H 68.6788 -5.19429 2.74714 0
M  V30 767 H 70.2028 -5.7656 2.01024 0
M  V30 768 H 71.6168 -4.32338 3.76506 0
M  V30 769 H 70.0138 -3.98986 4.48252 0
M  V30 770 H 71.0838 -2.63834 4.06841 0
M  V30 771 N 72.4269 -1.23603 -0.977757 0
M  V30 772 C 73.6759 -1.06377 -1.71368 0
M  V30 773 C 73.9889 0.399062 -1.91486 0
M  V30 774 O 75.1949 0.691312 -2.62551 0
M  V30 775 C 73.6509 -1.85512 -3.08404 0
M  V30 776 C 73.2589 -3.36141 -2.96164 0
M  V30 777 C 75.0029 -1.76783 -3.85938 0
M  V30 778 C 72.9099 -4.07659 -4.28449 0
M  V30 779 H 71.8399 -0.394452 -0.642591 0
M  V30 780 H 74.4909 -1.47594 -1.09034 0
M  V30 781 H 72.8729 -1.37103 -3.71509 0
M  V30 782 H 74.0469 -3.92056 -2.42133 0
M  V30 783 H 72.3619 -3.45712 -2.32104 0
M  V30 784 H 74.9589 -2.27526 -4.83876 0
M  V30 785 H 75.3019 -0.731116 -4.0983 0
M  V30 786 H 75.8349 -2.22818 -3.2954 0
M  V30 787 H 72.5739 -5.11648 -4.09752 0
M  V30 788 H 72.0939 -3.5653 -4.82334 0
M  V30 789 H 73.7729 -4.141 -4.97122 0
M  V30 790 N 73.905 1.17692 -1.04816 0
M  V30 791 C 74.868 2.19787 -0.650117 0
M  V30 792 C 75.868 1.58044 0.296427 0
M  V30 793 O 77.058 1.74012 0.0808097 0
M  V30 794 C 74.19 3.40869 0.0456987 0
M  V30 795 H 75.383 2.56516 -1.5537 0
M  V30 796 H 72.936 1.31708 -0.841594 0
M  V30 797 H 73.671 3.09681 0.962726 0
M  V30 798 H 73.456 3.86928 -0.634727 0
M  V30 799 H 74.946 4.16445 0.310432 0
M  V30 800 N 75.3831 0.828654 1.34056 0
M  V30 801 C 76.6291 0.429279 1.98818 0
M  V30 802 C 76.9841 -0.998011 1.64492 0
M  V30 803 O 76.2771 -1.68652 0.909228 0
M  V30 804 C 76.4711 0.575226 3.52741 0
M  V30 805 C 76.3001 2.01515 4.02022 0
M  V30 806 C 75.0701 2.64825 4.30344 0
M  V30 807 C 77.2681 2.98261 4.18981 0
M  V30 808 N 75.2501 3.99998 4.65698 0
M  V30 809 C 76.6211 4.18356 4.57578 0
M  V30 810 C 78.6761 2.94802 4.01243 0
M  V30 811 C 77.3791 5.35454 4.80293 0
M  V30 812 C 79.4051 4.11121 4.25128 0
M  V30 813 C 78.7671 5.29969 4.64018 0
M  V30 814 H 74.8661 0.205304 0.754569 0
M  V30 815 H 77.4501 1.07457 1.62361 0
M  V30 816 H 75.6211 -0.0401962 3.88379 0
M  V30 817 H 77.3531 0.148292 4.04428 0
M  V30 818 H 74.1081 2.16027 4.21461 0
M  V30 819 H 74.5321 4.69653 4.87601 0
M  V30 820 H 79.1741 2.04054 3.70299 0
M  V30 821 H 76.8921 6.26755 5.10102 0
M  V30 822 H 80.4781 4.0985 4.12934 0
M  V30 823 H 79.3581 6.18479 4.82134 0
M  V30 824 N 76.8612 -1.46375 0.584142 0
M  V30 825 C 78.0862 -2.07268 0.0740405 0
M  V30 826 C 78.5112 -1.42979 -1.22223 0
M  V30 827 O 77.8692 -0.514092 -1.73859 0
M  V30 828 C 77.9172 -3.60518 -0.0767769 0
M  V30 829 O 77.0212 -3.96533 -1.13292 0
M  V30 830 H 76.3622 -0.660961 0.0634524 0
M  V30 831 H 78.8922 -1.87991 0.807492 0
M  V30 832 H 78.9022 -4.07021 -0.282489 0
M  V30 833 H 77.5772 -4.06702 0.86986 0
M  V30 834 H 76.1542 -3.61738 -0.905553 0
M  V30 835 N 78.3393 -0.321999 -1.54275 0
M  V30 836 C 79.3023 0.531975 -2.22941 0
M  V30 837 C 80.3023 1.04478 -1.22234 0
M  V30 838 O 81.4923 0.937452 -1.46825 0
M  V30 839 C 78.6243 1.73874 -2.93224 0
M  V30 840 H 79.8173 -0.0682612 -2.99822 0
M  V30 841 H 77.3703 -0.0730644 -1.56129 0
M  V30 842 H 78.1053 2.37825 -2.20476 0
M  V30 843 H 77.8903 1.37847 -3.6707 0
M  V30 844 H 79.3803 2.34496 -3.45545 0
M  V30 845 N 79.8174 1.5752 -0.0501392 0
M  V30 846 C 81.0634 1.92936 0.624798 0
M  V30 847 C 81.3964 0.928685 1.70555 0
M  V30 848 O 80.6714 -0.0454779 1.94447 0
M  V30 849 C 80.9544 3.38737 1.22185 0
M  V30 850 C 80.8074 4.49552 0.149218 0
M  V30 851 C 82.1264 3.84913 2.13378 0
M  V30 852 H 79.2454 0.701604 0.225657 0
M  V30 853 H 81.8874 1.89671 -0.111693 0
M  V30 854 H 80.0374 3.4165 1.84953 0
M  V30 855 H 81.7094 4.58768 -0.482648 0
M  V30 856 H 79.9524 4.30638 -0.522841 0
M  V30 857 H 80.6234 5.48653 0.606966 0
M  V30 858 H 83.0994 3.8387 1.60572 0
M  V30 859 H 81.9754 4.87584 2.52097 0
M  V30 860 H 82.2364 3.21611 3.03346 0
M  V30 861 N 81.2955 -0.223234 1.56011 0
M  V30 862 C 82.2255 -1.27988 1.95298 0
M  V30 863 C 83.2065 -1.48976 0.820979 0
M  V30 864 O 84.3915 -1.61188 1.08315 0
M  V30 865 C 81.5215 -2.63 2.26822 0
M  V30 866 C 80.4755 -2.56671 3.42497 0
M  V30 867 C 79.8015 -3.95697 3.59622 0
M  V30 868 C 81.1015 -2.11601 4.77517 0
M  V30 869 H 82.7955 -0.953525 2.8381 0
M  V30 870 H 80.3415 -0.457244 1.36548 0
M  V30 871 H 82.2945 -3.37077 2.52898 0
M  V30 872 H 81.0185 -2.9732 1.35161 0
M  V30 873 H 79.6775 -1.85051 3.16467 0
M  V30 874 H 79.3255 -4.27322 2.6534 0
M  V30 875 H 79.0255 -3.92345 4.37424 0
M  V30 876 H 80.5495 -4.71438 3.88044 0
M  V30 877 H 81.9635 -2.7542 5.02809 0
M  V30 878 H 80.3605 -2.19311 5.5859 0
M  V30 879 H 81.4305 -1.06824 4.72987 0
M  V30 880 N 82.7736 -1.49793 -0.48987 0
M  V30 881 C 83.7056 -1.63413 -1.60713 0
M  V30 882 C 84.7186 -0.516329 -1.54395 0
M  V30 883 O 85.9076 -0.788812 -1.60125 0
M  V30 884 C 83.0076 -1.58516 -2.99543 0
M  V30 885 C 82.1806 -2.86016 -3.30928 0
M  V30 886 C 81.2396 -2.74018 -4.49222 0
M  V30 887 O 80.2656 -3.47964 -4.50455 0
M  V30 888 N 81.4676 -1.86309 -5.4979 0
M  V30 889 H 84.2326 -2.59777 -1.49452 0
M  V30 890 H 81.7936 -1.47022 -0.677955 0
M  V30 891 H 83.7856 -1.48128 -3.76617 0
M  V30 892 H 82.3556 -0.69965 -3.0467 0
M  V30 893 H 81.5756 -3.10672 -2.42645 0
M  V30 894 H 82.8636 -3.70521 -3.487 0
M  V30 895 H 82.2616 -1.2551 -5.51601 0
M  V30 896 H 80.8186 -1.81837 -6.25922 0
M  V30 897 N 84.2517 0.741722 -1.39055 0
M  V30 898 C 85.4997 1.49818 -1.35643 0
M  V30 899 C 85.8207 1.94938 0.0491642 0
M  V30 900 O 85.0907 1.68505 0.999141 0
M  V30 901 H 83.6707 0.555755 -0.499144 0
M  V30 902 H 86.3327 0.880957 -1.73854 0
M  V30 903 H 85.4287 2.38348 -2.01486 0
M  V30 904 N 85.7298 1.2412 0.971189 0
M  V30 905 C 86.9578 1.10575 1.74874 0
M  V30 906 C 87.3728 -0.342017 1.85676 0
M  V30 907 O 86.7298 -1.23617 1.34258 0
M  V30 908 C 86.7808 1.73579 3.171 0
M  V30 909 O 86.5018 3.12695 3.06844 0
M  V30 910 C 88.0028 1.65598 4.11208 0
M  V30 911 H 85.2228 0.386504 0.548503 0
M  V30 912 H 87.7668 1.64156 1.21955 0
M  V30 913 H 85.9218 1.24009 3.67016 0
M  V30 914 H 86.3358 3.43412 3.96445 0
M  V30 915 H 87.8098 2.1437 5.08674 0
M  V30 916 H 88.2868 0.616532 4.34851 0
M  V30 917 H 88.8928 2.14578 3.67201 0
M  V30 918 N 87.2079 -1.17134 1.05439 0
M  V30 919 C 88.4539 -1.87979 0.776872 0
M  V30 920 C 88.8089 -1.7965 -0.688751 0
M  V30 921 O 88.1019 -1.19535 -1.4974 0
M  V30 922 C 88.2959 -3.36833 1.19491 0
M  V30 923 C 88.1249 -3.59653 2.69963 0
M  V30 924 C 86.8949 -3.76234 3.37307 0
M  V30 925 C 89.0929 -3.59091 3.68182 0
M  V30 926 N 87.0749 -3.86922 4.76618 0
M  V30 927 C 88.4459 -3.75659 4.93235 0
M  V30 928 C 90.5009 -3.42255 3.61616 0
M  V30 929 C 89.2039 -3.77133 6.12506 0
M  V30 930 C 91.2299 -3.45018 4.8033 0
M  V30 931 C 90.5919 -3.62096 6.04207 0
M  V30 932 H 86.6909 -0.705876 0.336546 0
M  V30 933 H 89.2749 -1.40602 1.34682 0
M  V30 934 H 87.4459 -3.82873 0.652884 0
M  V30 935 H 89.1779 -3.95305 0.866966 0
M  V30 936 H 85.9329 -3.76193 2.87708 0
M  V30 937 H 86.3569 -3.96055 5.49062 0
M  V30 938 H 90.9989 -3.27986 2.66805 0
M  V30 939 H 88.7169 -3.90186 7.07659 0
M  V30 940 H 92.3029 -3.33246 4.76905 0
M  V30 941 H 91.1829 -3.64142 6.94529 0
M  V30 942 N 88.686 -0.835752 -1.33615 0
M  V30 943 C 89.634 -0.255238 -2.31195 0
M  V30 944 C 90.628 0.61107 -1.57995 0
M  V30 945 O 91.834 0.500979 -1.72888 0
M  V30 946 H 88.209 -0.0638085 -0.749288 0
M  V30 947 H 90.18 -1.09283 -2.77669 0
M  V30 948 C 88.929 0.55754 -3.43201 0
M  V30 949 H 88.252 -0.0997553 -3.99676 0
M  V30 950 H 89.692 0.929622 -4.13683 0
M  V30 951 C 88.151 1.73515 -2.88781 0
M  V30 952 O 88.681 2.83376 -2.84712 0
M  V30 953 N 86.887 1.55603 -2.4543 0
M  V30 954 H 86.434 0.662354 -2.48939 0
M  V30 955 H 86.392 2.34545 -2.09371 0
M  V30 956 N 90.1641 1.46063 -0.591896 0
M  V30 957 C 91.5751 1.85944 -0.167822 0
M  V30 958 C 91.9261 1.49429 1.27143 0
M  V30 959 O 91.0511 0.913515 1.96173 0
M  V30 960 C 91.6461 3.37489 -0.297794 0
M  V30 961 C 90.2051 3.76332 0.0714732 0
M  V30 962 C 89.3521 2.7006 -0.629509 0
M  V30 963 H 92.3031 1.37087 -0.799555 0
M  V30 964 H 92.3241 3.77532 0.474349 0
M  V30 965 H 91.8361 3.64034 -1.3454 0
M  V30 966 H 89.9371 3.55405 1.11886 0
M  V30 967 H 90.0501 4.78088 -0.311245 0
M  V30 968 H 88.4141 2.54607 -0.0687867 0
M  V30 969 H 89.1971 2.99444 -1.67894 0
M  V30 970 N 91.6422 0.330177 1.54103 0
M  V30 971 C 92.5742 -0.566902 2.22079 0
M  V30 972 C 93.5872 -1.07462 1.22294 0
M  V30 973 O 94.7762 -0.987065 1.48726 0
M  V30 974 C 91.8762 -1.79138 2.87685 0
M  V30 975 C 91.0492 -1.42123 4.13666 0
M  V30 976 C 90.1082 -2.50394 4.62806 0
M  V30 977 O 89.1342 -2.14261 5.27334 0
M  V30 978 N 90.3362 -3.81433 4.37595 0
M  V30 979 H 93.1012 0.0151844 2.99696 0
M  V30 980 H 90.6622 0.153681 1.61169 0
M  V30 981 H 92.6542 -2.50975 3.1748 0
M  V30 982 H 91.2242 -2.28115 2.13734 0
M  V30 983 H 90.4442 -0.534201 3.90564 0
M  V30 984 H 91.7322 -1.14971 4.9564 0
M  V30 985 H 91.1302 -4.13584 3.8596 0
M  V30 986 H 89.6872 -4.4948 4.72029 0
M  V30 987 N 93.1203 -1.57491 0.0584922 0
M  V30 988 C 94.0503 -2.14988 -0.911178 0
M  V30 989 C 95.0313 -1.07343 -1.31952 0
M  V30 990 O 96.2163 -1.35318 -1.39294 0
M  V30 991 C 93.3463 -2.70078 -2.18347 0
M  V30 992 C 92.3003 -3.82771 -1.91495 0
M  V30 993 C 91.6263 -4.24408 -3.25241 0
M  V30 994 C 92.9263 -5.07592 -1.23075 0
M  V30 995 H 94.6203 -2.96263 -0.432246 0
M  V30 996 H 92.1663 -1.42512 -0.206469 0
M  V30 997 H 94.1193 -3.08943 -2.86587 0
M  V30 998 H 92.8433 -1.86005 -2.68458 0
M  V30 999 H 91.5023 -3.44389 -1.25664 0
M  V30 1000 H 91.1503 -3.37275 -3.73168 0
M  V30 1001 H 90.8503 -5.00366 -3.08071 0
M  V30 1002 H 92.3743 -4.65879 -3.94701 0
M  V30 1003 H 93.7883 -5.43857 -1.81362 0
M  V30 1004 H 92.1853 -5.88741 -1.16207 0
M  V30 1005 H 93.2553 -4.84454 -0.207847 0
M  V30 1006 N 94.5984 0.214957 -1.56127 0
M  V30 1007 C 95.8474 0.936451 -1.78643 0
M  V30 1008 C 96.1604 1.85237 -0.628229 0
M  V30 1009 O 97.3664 2.613 -0.737186 0
M  V30 1010 C 95.8224 1.7154 -3.16389 0
M  V30 1011 C 95.4304 0.845299 -4.39953 0
M  V30 1012 C 97.1744 2.42772 -3.48227 0
M  V30 1013 C 95.0814 1.62198 -5.68723 0
M  V30 1014 H 94.0114 0.353401 -0.666051 0
M  V30 1015 H 96.6624 0.190169 -1.82512 0
M  V30 1016 H 95.0444 2.50484 -3.06715 0
M  V30 1017 H 96.2184 0.0959353 -4.607 0
M  V30 1018 H 94.5334 0.244789 -4.1568 0
M  V30 1019 H 97.1304 3.01394 -4.41663 0
M  V30 1020 H 97.4734 3.15984 -2.71035 0
M  V30 1021 H 98.0064 1.70813 -3.5926 0
M  V30 1022 H 94.7454 0.933011 -6.48826 0
M  V30 1023 H 94.2654 2.34579 -5.52026 0
M  V30 1024 H 95.9444 2.18095 -6.09133 0
M  V30 1025 N 96.0765 1.50051 0.48192 0
M  V30 1026 C 97.3015 1.64508 1.26301 0
M  V30 1027 C 97.7265 0.323851 1.85291 0
M  V30 1028 O 97.0845 -0.710969 1.66778 0
M  V30 1029 C 97.1325 2.7305 2.35533 0
M  V30 1030 O 96.2365 2.3355 3.39895 0
M  V30 1031 H 95.5775 0.549978 0.372048 0
M  V30 1032 H 98.1075 1.9636 0.574786 0
M  V30 1033 H 98.1175 2.95799 2.8101 0
M  V30 1034 H 96.7925 3.68946 1.91967 0
M  V30 1035 H 95.3695 2.21205 3.00204 0
M  V30 1036 N 97.5546 -0.734337 1.39446 0
M  V30 1037 C 98.8006 -1.49613 1.36908 0
M  V30 1038 C 99.1336 -1.94169 -0.0347829 0
M  V30 1039 O 98.4086 -1.66833 -0.999847 0
M  V30 1040 C 98.6916 -2.73534 2.34203 0
M  V30 1041 C 98.5446 -2.34993 3.83534 0
M  V30 1042 C 99.8636 -3.75635 2.29317 0
M  V30 1043 H 96.9826 -0.542714 0.498629 0
M  V30 1044 H 99.6246 -0.839597 1.70443 0
M  V30 1045 H 97.7746 -3.29553 2.05736 0
M  V30 1046 H 99.4466 -1.84601 4.22753 0
M  V30 1047 H 97.6896 -1.67213 4.00278 0
M  V30 1048 H 98.3606 -3.23738 4.47099 0
M  V30 1049 H 100.837 -3.29203 2.54489 0
M  V30 1050 H 99.7126 -4.60008 2.99472 0
M  V30 1051 H 99.9736 -4.22603 1.29842 0
M  V30 1052 N 99.0327 -1.24633 -0.964593 0
M  V30 1053 C 100.263 -1.11339 -1.74032 0
M  V30 1054 C 100.671 0.336593 -1.86182 0
M  V30 1055 O 100.014 1.24389 -1.35178 0
M  V30 1056 C 100.076 -1.68284 -3.1768 0
M  V30 1057 C 99.7397 -3.17196 -3.28992 0
M  V30 1058 C 100.737 -4.14308 -3.14078 0
M  V30 1059 C 98.4217 -3.57215 -3.53133 0
M  V30 1060 C 100.416 -5.4942 -3.23135 0
M  V30 1061 C 98.1027 -4.92468 -3.61827 0
M  V30 1062 C 99.1007 -5.8838 -3.46841 0
M  V30 1063 O 98.7887 -7.21173 -3.55197 0
M  V30 1064 H 98.5207 -0.389551 -0.552472 0
M  V30 1065 H 101.075 -1.65282 -1.21946 0
M  V30 1066 H 99.3047 -1.08777 -3.71085 0
M  V30 1067 H 100.994 -1.50234 -3.77074 0
M  V30 1068 H 101.76 -3.84731 -2.95308 0
M  V30 1069 H 97.6387 -2.83063 -3.63863 0
M  V30 1070 H 101.183 -6.24263 -3.11355 0
M  V30 1071 H 97.0797 -5.21714 -3.80111 0
M  V30 1072 H 97.8477 -7.29135 -3.71892 0
M  V30 1073 N 100.511 1.16574 -1.06058 0
M  V30 1074 C 101.922 1.68662 -0.800632 0
M  V30 1075 C 102.273 1.84184 0.67608 0
M  V30 1076 O 101.398 1.53568 1.52466 0
M  V30 1077 C 101.993 3.06356 -1.44676 0
M  V30 1078 C 100.552 3.55575 -1.23465 0
M  V30 1079 C 99.6988 2.31616 -1.52477 0
M  V30 1080 H 102.65 1.00969 -1.22438 0
M  V30 1081 H 102.671 3.70636 -0.860788 0
M  V30 1082 H 102.183 2.95027 -2.52152 0
M  V30 1083 H 100.284 3.72167 -0.179527 0
M  V30 1084 H 100.397 4.37812 -1.94571 0
M  V30 1085 H 98.7608 2.36512 -0.945209 0
M  V30 1086 H 99.5438 2.22887 -2.61106 0
M  V30 1087 N 101.989 0.842826 1.3317 0
M  V30 1088 C 103.4 0.496651 1.79973 0
M  V30 1089 C 103.751 -0.984641 1.69703 0
M  V30 1090 O 102.876 -1.76743 1.24863 0
M  V30 1091 C 103.471 0.894727 3.26772 0
M  V30 1092 C 102.03 0.600629 3.71577 0
M  V30 1093 C 101.177 1.10091 2.5451 0
M  V30 1094 H 104.128 1.03116 1.20635 0
M  V30 1095 H 104.149 0.206347 3.7994 0
M  V30 1096 H 103.661 1.97287 3.34215 0
M  V30 1097 H 101.762 -0.467284 3.69658 0
M  V30 1098 H 101.875 1.15863 4.64879 0
M  V30 1099 H 100.239 0.52162 2.49301 0
M  V30 1100 H 101.022 2.18591 2.64713 0
M  V30 1101 N 103.467 -1.45747 0.599634 0
M  V30 1102 C 104.43 -2.28917 -0.113835 0
M  V30 1103 C 105.43 -1.3933 -0.802729 0
M  V30 1104 O 106.62 -1.61534 -0.652103 0
M  V30 1105 C 103.752 -3.20152 -1.17114 0
M  V30 1106 H 104.945 -2.93478 0.617289 0
M  V30 1107 H 102.498 -1.52137 0.358327 0
M  V30 1108 H 103.233 -2.60374 -1.93329 0
M  V30 1109 H 103.018 -3.86133 -0.681468 0
M  V30 1110 H 104.508 -3.82708 -1.67105 0
M  V30 1111 N 104.945 -0.338344 -1.53925 0
M  V30 1112 C 105.875 0.51328 -2.27789 0
M  V30 1113 C 106.856 1.107 -1.29149 0
M  V30 1114 O 108.041 1.12937 -1.57984 0
M  V30 1115 C 105.171 1.66697 -3.04679 0
M  V30 1116 C 104.125 1.20183 -4.1078 0
M  V30 1117 C 103.451 2.44363 -4.75595 0
M  V30 1118 C 104.751 0.30605 -5.21403 0
M  V30 1119 H 106.445 -0.102883 -2.99223 0
M  V30 1120 H 103.991 -0.0509219 -1.4391 0
M  V30 1121 H 105.944 2.26915 -3.55088 0
M  V30 1122 H 104.668 2.30995 -2.30887 0
M  V30 1123 H 103.327 0.622499 -3.61276 0
M  V30 1124 H 102.975 3.07057 -3.98403 0
M  V30 1125 H 102.675 2.13925 -5.47275 0
M  V30 1126 H 104.199 3.05317 -5.28786 0
M  V30 1127 H 105.613 0.814929 -5.67478 0
M  V30 1128 H 104.01 0.0937929 -6.00027 0
M  V30 1129 H 105.08 -0.65921 -4.80398 0
M  V30 1130 N 106.423 1.57458 -0.0668435 0
M  V30 1131 C 107.333 2.15937 0.916975 0
M  V30 1132 C 108.349 1.12123 1.33058 0
M  V30 1133 O 109.525 1.44366 1.40429 0
M  V30 1134 C 106.59 2.70547 2.16807 0
M  V30 1135 C 105.651 3.89215 1.81135 0
M  V30 1136 C 104.884 4.41211 3.0028 0
M  V30 1137 O 105.107 3.92225 4.14144 0
M  V30 1138 O 104.041 5.32605 2.80384 0
M  V30 1139 H 107.867 3.00354 0.449561 0
M  V30 1140 H 105.452 1.48584 0.155949 0
M  V30 1141 H 107.334 3.0557 2.90181 0
M  V30 1142 H 106.009 1.89192 2.62656 0
M  V30 1143 H 104.916 3.59054 1.05028 0
M  V30 1144 H 106.249 4.71848 1.40073 0
M  V30 1145 N 107.901 -0.206675 1.56239 0
M  V30 1146 C 109.131 -0.943975 1.83773 0
M  V30 1147 C 109.539 -1.77841 0.645703 0
M  V30 1148 O 108.882 -1.79403 -0.395008 0
M  V30 1149 C 108.944 -1.899 3.05251 0
M  V30 1150 C 108.608 -1.24764 4.39639 0
M  V30 1151 C 109.605 -0.630216 5.16066 0
M  V30 1152 C 107.29 -1.25496 4.8637 0
M  V30 1153 C 109.284 -0.0287946 6.37393 0
M  V30 1154 C 106.971 -0.649698 6.07637 0
M  V30 1155 C 107.969 -0.0376845 6.8299 0
M  V30 1156 O 107.657 0.55812 8.0196 0
M  V30 1157 H 107.389 -0.281508 0.614597 0
M  V30 1158 H 109.943 -0.222458 2.04192 0
M  V30 1159 H 108.173 -2.6599 2.80689 0
M  V30 1160 H 109.862 -2.5031 3.1953 0
M  V30 1161 H 110.628 -0.616785 4.81062 0
M  V30 1162 H 106.507 -1.72072 4.27683 0
M  V30 1163 H 110.051 0.449518 6.9615 0
M  V30 1164 H 105.948 -0.660592 6.42111 0
M  V30 1165 H 106.716 0.453891 8.17241 0
M  V30 1166 N 109.379 -1.50304 -0.473955 0
M  V30 1167 C 110.627 -1.60832 -1.22382 0
M  V30 1168 C 110.948 -0.30939 -1.9253 0
M  V30 1169 O 110.218 0.67296 -1.83978 0
M  V30 1170 H 108.798 -0.592652 -0.454723 0
M  V30 1171 H 111.46 -1.87068 -0.546968 0
M  V30 1172 H 110.556 -2.41803 -1.97327 0
M  V30 1173 N 110.857 0.726932 -1.39834 0
M  V30 1174 C 111.787 1.85405 -1.41941 0
M  V30 1175 C 112.768 1.67751 -0.281728 0
M  V30 1176 O 113.953 1.8795 -0.488717 0
M  V30 1177 C 111.083 3.23243 -1.2701 0
M  V30 1178 C 110.037 3.55549 -2.38262 0
M  V30 1179 C 109.363 4.9241 -2.08415 0
M  V30 1180 C 110.663 3.577 -3.80589 0
M  V30 1181 H 112.357 1.83899 -2.36266 0
M  V30 1182 H 109.903 0.883349 -1.13723 0
M  V30 1183 H 111.856 4.01775 -1.27103 0
M  V30 1184 H 110.58 3.25296 -0.291564 0
M  V30 1185 H 109.239 2.79351 -2.37399 0
M  V30 1186 H 108.887 4.91052 -1.0898 0
M  V30 1187 H 108.587 5.14992 -2.82943 0
M  V30 1188 H 110.111 5.73289 -2.10171 0
M  V30 1189 H 111.525 4.26293 -3.83337 0
M  V30 1190 H 109.922 3.91804 -4.54543 0
M  V30 1191 H 110.992 2.57328 -4.10987 0
M  V30 1192 N 112.336 1.25143 0.95797 0
M  V30 1193 C 113.584 1.09476 1.69881 0
M  V30 1194 C 113.905 -0.365502 1.91544 0
M  V30 1195 O 113.175 -1.25985 1.50015 0
M  V30 1196 H 111.755 0.402128 0.629525 0
M  V30 1197 H 114.417 1.57214 1.15194 0
M  V30 1198 H 113.513 1.60046 2.6794 0
M  V30 1199 N 113.814 -1.1601 1.06675 0
M  V30 1200 C 115.062 -1.86264 0.784229 0
M  V30 1201 C 115.383 -1.82328 -0.691488 0
M  V30 1202 O 114.653 -1.25947 -1.50047 0
M  V30 1203 H 113.233 -0.689621 0.28711 0
M  V30 1204 H 115.895 -1.40664 1.34906 0
M  V30 1205 H 114.991 -2.91595 1.11259 0
M  V30 1206 N 115.292 -0.849877 -1.32721 0
M  V30 1207 C 116.255 -0.296122 -2.27279 0
M  V30 1208 C 117.255 0.541458 -1.5141 0
M  V30 1209 O 118.445 0.353658 -1.70572 0
M  V30 1210 C 115.577 0.581579 -3.35902 0
M  V30 1211 H 116.77 -1.13064 -2.77771 0
M  V30 1212 H 114.323 -0.62383 -1.43311 0
M  V30 1213 H 115.058 1.43809 -2.9067 0
M  V30 1214 H 114.843 -0.0178814 -3.92096 0
M  V30 1215 H 116.333 0.961951 -4.0637 0
M  V30 1216 N 116.77 1.45427 -0.607355 0
M  V30 1217 C 118.181 1.85756 -0.187535 0
M  V30 1218 C 118.532 1.5077 1.25551 0
M  V30 1219 O 117.657 0.93427 1.95193 0
M  V30 1220 C 118.252 3.37154 -0.333572 0
M  V30 1221 C 116.811 3.76387 0.0315542 0
M  V30 1222 C 115.958 2.69377 -0.658117 0
M  V30 1223 H 118.909 1.36231 -0.81405 0
M  V30 1224 H 118.93 3.78014 0.43428 0
M  V30 1225 H 118.442 3.62586 -1.38393 0
M  V30 1226 H 116.543 3.56571 1.0811 0
M  V30 1227 H 116.656 4.77731 -0.361935 0
M  V30 1228 H 115.02 2.5452 -0.0957873 0
M  V30 1229 H 115.803 2.97646 -1.7106 0
M  V30 1230 N 118.248 0.346503 1.53744 0
M  V30 1231 C 119.178 -0.501193 2.28058 0
M  V30 1232 C 120.159 -1.10014 1.29734 0
M  V30 1233 O 121.344 -1.12097 1.58581 0
M  V30 1234 C 118.474 -1.65078 3.05559 0
M  V30 1235 C 117.428 -1.18003 4.11411 0
M  V30 1236 C 116.754 -2.41837 4.76884 0
M  V30 1237 C 118.054 -0.278394 5.21558 0
M  V30 1238 H 119.748 0.11875 2.99164 0
M  V30 1239 H 117.294 0.0585531 1.43881 0
M  V30 1240 H 119.247 -2.25028 3.56287 0
M  V30 1241 H 117.971 -2.29767 2.32109 0
M  V30 1242 H 116.63 -0.603331 3.61601 0
M  V30 1243 H 116.278 -3.0494 4.00026 0
M  V30 1244 H 115.978 -2.1102 5.48402 0
M  V30 1245 H 117.502 -3.02508 5.30397 0
M  V30 1246 H 118.916 -0.784823 5.67903 0
M  V30 1247 H 117.313 -0.0619707 6.00068 0
M  V30 1248 H 118.383 0.684677 4.80042 0
M  V30 1249 N 119.726 -1.57421 0.075193 0
M  V30 1250 C 120.689 -2.11791 -0.876203 0
M  V30 1251 C 121.689 -1.04268 -1.22412 0
M  V30 1252 O 122.879 -1.30242 -1.15684 0
M  V30 1253 C 120.011 -2.62207 -2.17854 0
M  V30 1254 H 121.204 -2.9716 -0.40444 0
M  V30 1255 H 118.757 -1.55333 -0.173557 0
M  V30 1256 H 119.492 -1.803 -2.6956 0
M  V30 1257 H 119.277 -3.40802 -1.93897 0
M  V30 1258 H 120.767 -3.04335 -2.85955 0
M  V30 1259 N 121.204 0.198386 -1.56346 0
M  V30 1260 C 122.151 1.24589 -1.94284 0
M  V30 1261 C 123.121 1.454 -0.802997 0
M  V30 1262 O 124.306 1.58588 -1.06087 0
M  V30 1263 C 121.446 2.58631 -2.28482 0
M  V30 1264 C 120.559 2.45426 -3.55514 0
M  V30 1265 C 119.694 3.7215 -3.79049 0
M  V30 1266 C 118.733 3.53763 -4.99518 0
M  V30 1267 N 117.87 4.72491 -5.19323 0
M  V30 1268 H 122.71 0.915356 -2.83593 0
M  V30 1269 H 120.247 0.440629 -1.40346 0
M  V30 1270 H 122.205 3.3672 -2.46324 0
M  V30 1271 H 120.835 2.89734 -1.42317 0
M  V30 1272 H 119.887 1.58652 -3.45737 0
M  V30 1273 H 121.199 2.27772 -4.43758 0
M  V30 1274 H 120.353 4.58679 -3.97113 0
M  V30 1275 H 119.092 3.92754 -2.89129 0
M  V30 1276 H 118.097 2.65619 -4.8138 0
M  V30 1277 H 119.322 3.34607 -5.90944 0
M  V30 1278 H 117.268 4.93365 -4.3235 0
M  V30 1279 H 117.185 4.5765 -6.01741 0
M  V30 1280 H 118.453 5.6038 -5.41843 0
M  V30 1281 N 122.682 1.50554 0.465978 0
M  V30 1282 C 123.93 1.61479 1.21528 0
M  V30 1283 C 124.251 0.319596 1.92363 0
M  V30 1284 O 123.521 -0.663194 1.84333 0
M  V30 1285 H 122.101 0.595055 0.451573 0
M  V30 1286 H 124.763 1.87355 0.53704 0
M  V30 1287 H 123.859 2.42846 1.96042 0
M  V30 1288 N 124.16 -0.719506 1.40217 0
M  V30 1289 C 125.408 -1.47641 1.3801 0
M  V30 1290 C 125.729 -1.94992 -0.018145 0
M  V30 1291 O 124.999 -1.70073 -0.972207 0
M  V30 1292 H 123.579 -0.547744 0.507923 0
M  V30 1293 H 126.241 -0.853187 1.75233 0
M  V30 1294 H 125.337 -2.35112 2.05253 0
M  V30 1295 N 125.638 -1.25649 -0.95132 0
M  V30 1296 C 126.568 -1.08808 -2.06599 0
M  V30 1297 C 127.549 0.00382547 -1.701 0
M  V30 1298 O 128.734 -0.166325 -1.93486 0
M  V30 1299 C 125.864 -0.709542 -3.39975 0
M  V30 1300 C 124.818 -1.75206 -3.90496 0
M  V30 1301 C 124.144 -1.22811 -5.20405 0
M  V30 1302 C 125.444 -3.15153 -4.16504 0
M  V30 1303 H 127.138 -2.02048 -2.20946 0
M  V30 1304 H 124.684 -0.972835 -1.06169 0
M  V30 1305 H 126.637 -0.578649 -4.17408 0
M  V30 1306 H 125.361 0.258556 -3.25575 0
M  V30 1307 H 124.02 -1.87145 -3.15234 0
M  V30 1308 H 123.668 -0.250145 -5.02378 0
M  V30 1309 H 123.368 -1.92492 -5.55176 0
M  V30 1310 H 124.892 -1.10968 -6.00432 0
M  V30 1311 H 126.306 -3.06349 -4.84586 0
M  V30 1312 H 124.703 -3.82333 -4.62538 0
M  V30 1313 H 125.773 -3.61966 -3.22658 0
M  V30 1314 N 127.117 1.15442 -1.07289 0
M  V30 1315 C 128.363 1.8672 -0.806679 0
M  V30 1316 C 128.718 1.80723 0.660084 0
M  V30 1317 O 128.011 1.21902 1.47819 0
M  V30 1318 C 128.205 3.3489 -1.24834 0
M  V30 1319 C 128.034 3.55313 -2.7565 0
M  V30 1320 C 126.804 3.7082 -3.4325 0
M  V30 1321 C 129.002 3.53188 -3.73848 0
M  V30 1322 N 126.984 3.7929 -4.82713 0
M  V30 1323 C 128.355 3.67765 -4.99149 0
M  V30 1324 C 130.41 3.36459 -3.67015 0
M  V30 1325 C 129.113 3.6734 -6.18428 0
M  V30 1326 C 131.139 3.37333 -4.85758 0
M  V30 1327 C 130.501 3.52438 -6.09891 0
M  V30 1328 H 126.6 0.700433 -0.347733 0
M  V30 1329 H 129.184 1.38441 -1.36902 0
M  V30 1330 H 127.355 3.81786 -0.713713 0
M  V30 1331 H 129.087 3.93875 -0.929745 0
M  V30 1332 H 125.842 3.71568 -2.93656 0
M  V30 1333 H 126.266 3.8727 -5.55294 0
M  V30 1334 H 130.908 3.237 -2.71989 0
M  V30 1335 H 128.626 3.78878 -7.13777 0
M  V30 1336 H 132.212 3.25617 -4.82146 0
M  V30 1337 H 131.092 3.53047 -7.00234 0
M  V30 1338 N 128.595 0.856903 1.32268 0
M  V30 1339 C 129.527 0.260412 2.27716 0
M  V30 1340 C 130.54 -0.569137 1.52528 0
M  V30 1341 O 131.729 -0.39326 1.74114 0
M  V30 1342 C 128.829 -0.650477 3.32599 0
M  V30 1343 C 128.002 0.14372 4.37164 0
M  V30 1344 C 127.061 -0.69328 5.21613 0
M  V30 1345 O 126.087 -0.12599 5.69061 0
M  V30 1346 N 127.289 -2.00761 5.44679 0
M  V30 1347 H 130.054 1.08059 2.79541 0
M  V30 1348 H 127.615 0.717103 1.45152 0
M  V30 1349 H 129.607 -1.21581 3.86005 0
M  V30 1350 H 128.177 -1.37133 2.80915 0
M  V30 1351 H 127.397 0.890486 3.8401 0
M  V30 1352 H 128.685 0.68915 5.04111 0
M  V30 1353 H 128.083 -2.49181 5.07863 0
M  V30 1354 H 126.64 -2.52103 6.01072 0
M  V30 1355 N 130.073 -1.45103 0.615059 0
M  V30 1356 C 131.322 -2.01396 0.110718 0
M  V30 1357 C 131.635 -1.48834 -1.26916 0
M  V30 1358 O 132.841 -1.97152 -1.86664 0
M  V30 1359 C 131.297 -3.59599 0.14723 0
M  V30 1360 C 130.905 -4.21158 1.52743 0
M  V30 1361 C 132.649 -4.23428 -0.30148 0
M  V30 1362 C 130.556 -5.71535 1.51992 0
M  V30 1363 H 129.486 -0.753061 0.0376241 0
M  V30 1364 H 132.137 -1.66494 0.77149 0
M  V30 1365 H 130.519 -3.91724 -0.580339 0
M  V30 1366 H 131.693 -4.00594 2.2773 0
M  V30 1367 H 130.008 -3.69552 1.91886 0
M  V30 1368 H 132.605 -5.33703 -0.326392 0
M  V30 1369 H 132.948 -3.94629 -1.32565 0
M  V30 1370 H 133.481 -3.96047 0.373065 0
M  V30 1371 H 130.22 -6.05044 2.52193 0
M  V30 1372 H 129.74 -5.94268 0.81274 0
M  V30 1373 H 131.419 -6.34873 1.24681 0
M  V30 1374 N 131.551 -0.354651 -1.53558 0
M  V30 1375 C 132.8 0.239504 -2.00273 0
M  V30 1376 C 133.113 1.50759 -1.24623 0
M  V30 1377 O 134.319 2.17968 -1.61871 0
M  V30 1378 C 132.775 0.477341 -3.5672 0
M  V30 1379 C 132.383 -0.775488 -4.41237 0
M  V30 1380 C 134.127 1.02975 -4.11821 0
M  V30 1381 C 132.034 -0.507838 -5.89216 0
M  V30 1382 H 130.964 0.0932743 -0.748208 0
M  V30 1383 H 133.615 -0.471701 -1.77334 0
M  V30 1384 H 131.997 1.24953 -3.7577 0
M  V30 1385 H 133.171 -1.54963 -4.33962 0
M  V30 1386 H 131.486 -1.25033 -3.97185 0
M  V30 1387 H 134.083 1.24513 -5.2 0
M  V30 1388 H 134.426 1.98862 -3.65731 0
M  V30 1389 H 134.959 0.317994 -3.96527 0
M  V30 1390 H 131.698 -1.43674 -6.39561 0
M  V30 1391 H 131.218 0.228011 -5.99366 0
M  V30 1392 H 132.897 -0.129238 -6.46871 0
M  V30 1393 N 133.029 1.57378 -0.0835403 0
M  V30 1394 C 134.257 1.98263 0.59157 0
M  V30 1395 C 134.672 0.962302 1.62435 0
M  V30 1396 O 134.029 -0.049581 1.82433 0
M  V30 1397 C 134.08 3.39214 1.24965 0
M  V30 1398 O 133.801 4.37339 0.258186 0
M  V30 1399 C 135.302 3.95038 2.01147 0
M  V30 1400 H 132.522 0.651773 0.159477 0
M  V30 1401 H 135.066 2.03878 -0.159415 0
M  V30 1402 H 133.221 3.34649 1.95164 0
M  V30 1403 H 133.635 5.19371 0.731734 0
M  V30 1404 H 135.109 4.95848 2.42567 0
M  V30 1405 H 135.586 3.32222 2.87272 0
M  V30 1406 H 136.192 4.0304 1.35789 0
M  V30 1407 N 134.507 -0.190092 1.56449 0
M  V30 1408 C 135.756 -0.907912 1.80111 0
M  V30 1409 C 136.069 -1.84214 0.657619 0
M  V30 1410 O 137.275 -2.60094 0.778663 0
M  V30 1411 C 135.731 -1.66485 3.19078 0
M  V30 1412 C 135.339 -0.7752 4.41242 0
M  V30 1413 C 137.083 -2.37201 3.52045 0
M  V30 1414 C 134.99 -1.53129 5.71231 0
M  V30 1415 H 133.92 -0.34276 0.671589 0
M  V30 1416 H 136.571 -0.161109 1.82791 0
M  V30 1417 H 134.953 -2.45572 3.10661 0
M  V30 1418 H 136.127 -0.0226298 4.60794 0
M  V30 1419 H 134.442 -0.178627 4.16017 0
M  V30 1420 H 137.039 -2.94329 4.46402 0
M  V30 1421 H 137.382 -3.11632 2.76028 0
M  V30 1422 H 137.915 -1.65075 3.61932 0
M  V30 1423 H 134.654 -0.82967 6.50228 0
M  V30 1424 H 134.174 -2.25767 5.55688 0
M  V30 1425 H 135.853 -2.08377 6.12526 0
M  V30 1426 N 135.985 -1.50799 -0.457987 0
M  V30 1427 C 137.225 -1.64088 -1.21879 0
M  V30 1428 C 137.589 -0.339848 -1.88968 0
M  V30 1429 O 138.79 -0.348301 -2.66534 0
M  V30 1430 C 137.061 -2.79726 -2.2246 0
M  V30 1431 S 138.62 -3.13225 -3.07303 0
M  V30 1432 H 135.438 -0.578314 -0.41361 0
M  V30 1433 H 138.04 -1.88632 -0.513645 0
M  V30 1434 H 136.744 -3.72722 -1.71775 0
M  V30 1435 H 136.275 -2.57308 -2.97584 0
M  V30 1436 H 138.29 -2.58062 -4.23814 0
M  V30 1437 N 137.463 0.71206 -1.40597 0
M  V30 1438 C 138.426 1.80785 -1.40888 0
M  V30 1439 C 139.426 1.57937 -0.302103 0
M  V30 1440 O 140.616 1.64913 -0.561182 0
M  V30 1441 C 137.748 3.18927 -1.20409 0
M  V30 1442 H 138.941 1.81924 -2.38419 0
M  V30 1443 H 136.494 0.91805 -1.26497 0
M  V30 1444 H 137.229 3.23436 -0.236522 0
M  V30 1445 H 137.014 3.36911 -2.00582 0
M  V30 1446 H 138.504 3.98949 -1.23408 0
M  V30 1447 N 138.941 1.26152 0.944643 0
M  V30 1448 C 140.169 1.14259 1.72489 0
M  V30 1449 C 140.584 -0.302555 1.8636 0
M  V30 1450 O 139.941 -1.20741 1.36849 0
M  V30 1451 C 139.992 1.80266 3.13347 0
M  V30 1452 O 139.713 3.19133 3.00143 0
M  V30 1453 C 141.214 1.74283 4.07603 0
M  V30 1454 H 138.434 0.398051 0.540181 0
M  V30 1455 H 140.978 1.66706 1.18446 0
M  V30 1456 H 139.133 1.31766 3.64303 0
M  V30 1457 H 139.547 3.51744 3.89071 0
M  V30 1458 H 141.021 2.25111 5.04013 0
M  V30 1459 H 141.498 0.708631 4.33446 0
M  V30 1460 H 142.104 2.22319 3.62567 0
M  V30 1461 N 140.419 -1.14872 1.07899 0
M  V30 1462 C 141.667 -1.85422 0.803941 0
M  V30 1463 C 141.988 -1.83051 -0.67211 0
M  V30 1464 O 141.258 -1.27532 -1.48703 0
M  V30 1465 H 139.838 -0.686537 0.294408 0
M  V30 1466 H 142.5 -1.39226 1.3639 0
M  V30 1467 H 141.596 -2.90399 1.14346 0
M  V30 1468 N 141.898 -0.863906 -1.31812 0
M  V30 1469 C 142.861 -0.320212 -2.26952 0
M  V30 1470 C 143.861 0.525369 -1.51975 0
M  V30 1471 O 145.051 0.335547 -1.70938 0
M  V30 1472 C 142.183 0.545919 -3.365 0
M  V30 1473 H 143.376 -1.16004 -2.76556 0
M  V30 1474 H 140.929 -0.638995 -1.42641 0
M  V30 1475 H 141.664 1.40718 -2.92179 0
M  V30 1476 H 141.449 -0.0594674 -3.92055 0
M  V30 1477 H 142.939 0.918796 -4.07367 0
M  V30 1478 N 143.376 1.44774 -0.622745 0
M  V30 1479 C 144.623 2.02121 -0.1239 0
M  V30 1480 C 144.951 1.48915 1.25118 0
M  V30 1481 O 144.206 0.660045 1.84233 0
M  V30 1482 C 144.505 3.57364 -0.0508323 0
M  V30 1483 C 144.171 4.29787 -1.36358 0
M  V30 1484 C 142.833 4.4929 -1.72314 0
M  V30 1485 C 145.185 4.71062 -2.23048 0
M  V30 1486 C 142.513 5.07325 -2.94682 0
M  V30 1487 C 144.865 5.30452 -3.44679 0
M  V30 1488 C 143.529 5.48175 -3.80868 0
M  V30 1489 H 142.799 0.739612 -0.0453381 0
M  V30 1490 H 145.446 1.73648 -0.807389 0
M  V30 1491 H 143.751 3.85202 0.715991 0
M  V30 1492 H 145.448 3.99456 0.351533 0
M  V30 1493 H 142.038 4.14932 -1.07375 0
M  V30 1494 H 146.222 4.55715 -1.96565 0
M  V30 1495 H 141.478 5.19235 -3.22809 0
M  V30 1496 H 145.652 5.61385 -4.12092 0
M  V30 1497 H 143.279 5.92912 -4.75773 0
M  V30 1498 N 144.854 0.36279 1.53368 0
M  V30 1499 C 146.1 -0.228113 2.01513 0
M  V30 1500 C 146.433 -1.48648 1.2497 0
M  V30 1501 O 145.708 -1.91459 0.342616 0
M  V30 1502 C 145.991 -0.522884 3.56284 0
M  V30 1503 C 145.844 0.74892 4.43521 0
M  V30 1504 C 147.163 -1.32461 4.19693 0
M  V30 1505 H 144.282 -0.0814343 0.732487 0
M  V30 1506 H 146.924 0.48713 1.83649 0
M  V30 1507 H 145.074 -1.1322 3.71636 0
M  V30 1508 H 146.746 1.38648 4.39971 0
M  V30 1509 H 144.989 1.36986 4.11603 0
M  V30 1510 H 145.66 0.497667 5.49752 0
M  V30 1511 H 148.136 -0.809203 4.08156 0
M  V30 1512 H 147.012 -1.49961 5.28018 0
M  V30 1513 H 147.273 -2.33232 3.75573 0
M  V30 1514 N 146.332 -1.57332 0.0918853 0
M  V30 1515 C 147.557 -1.98995 -0.584442 0
M  V30 1516 C 147.982 -0.970528 -1.61128 0
M  V30 1517 O 147.34 0.0613904 -1.81196 0
M  V30 1518 C 147.388 -3.39636 -1.21161 0
M  V30 1519 O 146.492 -3.40447 -2.32744 0
M  V30 1520 H 145.833 -0.647165 -0.148572 0
M  V30 1521 H 148.363 -2.03873 0.172347 0
M  V30 1522 H 148.373 -3.7726 -1.55367 0
M  V30 1523 H 147.048 -4.13356 -0.459313 0
M  V30 1524 H 145.625 -3.14614 -2.0018 0
M  V30 1525 N 147.81 0.181792 -1.56548 0
M  V30 1526 C 149.056 0.896803 -1.82562 0
M  V30 1527 C 149.411 1.80324 -0.670908 0
M  V30 1528 O 148.704 1.8868 0.333235 0
M  V30 1529 C 148.898 1.73728 -3.12335 0
M  V30 1530 C 148.727 0.913714 -4.4032 0
M  V30 1531 C 147.497 0.592903 -5.01809 0
M  V30 1532 C 149.695 0.260164 -5.13642 0
M  V30 1533 N 147.677 -0.247901 -6.13399 0
M  V30 1534 C 149.048 -0.442256 -6.18421 0
M  V30 1535 C 151.103 0.177253 -4.97584 0
M  V30 1536 C 149.806 -1.21971 -7.08883 0
M  V30 1537 C 151.832 -0.586839 -5.88481 0
M  V30 1538 C 151.194 -1.27766 -6.92716 0
M  V30 1539 H 147.293 0.307122 -0.719166 0
M  V30 1540 H 149.877 0.164535 -1.94004 0
M  V30 1541 H 148.048 2.44105 -3.02105 0
M  V30 1542 H 149.78 2.39279 -3.26386 0
M  V30 1543 H 146.535 0.920502 -4.64568 0
M  V30 1544 H 146.959 -0.658304 -6.73792 0
M  V30 1545 H 151.601 0.696993 -4.17015 0
M  V30 1546 H 149.319 -1.75083 -7.88905 0
M  V30 1547 H 152.905 -0.652522 -5.78129 0
M  V30 1548 H 151.785 -1.85943 -7.61836 0
M  V30 1549 N 149.288 1.51039 0.449983 0
M  V30 1550 C 150.251 1.70863 1.5277 0
M  V30 1551 C 151.251 0.578846 1.5002 0
M  V30 1552 O 152.441 0.846213 1.52266 0
M  V30 1553 C 149.573 1.75341 2.9235 0
M  V30 1554 H 150.766 2.67034 1.36502 0
M  V30 1555 H 148.319 1.40838 0.677812 0
M  V30 1556 H 149.054 0.809383 3.14037 0
M  V30 1557 H 148.839 2.57436 2.95752 0
M  V30 1558 H 150.329 1.92559 3.70555 0
M  V30 1559 N 150.766 -0.704594 1.40972 0
M  V30 1560 C 151.696 -1.83124 1.44872 0
M  V30 1561 C 152.677 -1.67281 0.30838 0
M  V30 1562 O 153.862 -1.87149 0.518556 0
M  V30 1563 C 150.992 -3.21181 1.32136 0
M  V30 1564 C 149.946 -3.51714 2.43888 0
M  V30 1565 C 149.272 -4.89032 2.16222 0
M  V30 1566 C 150.572 -3.516 3.86232 0
M  V30 1567 H 152.266 -1.80117 2.39161 0
M  V30 1568 H 149.812 -0.865145 1.15114 0
M  V30 1569 H 151.765 -3.99702 1.33479 0
M  V30 1570 H 150.489 -3.24791 0.343279 0
M  V30 1571 H 149.148 -2.75539 2.41813 0
M  V30 1572 H 148.796 -4.89256 1.16778 0
M  V30 1573 H 148.496 -5.10426 2.911 0
M  V30 1574 H 150.02 -5.69873 2.19265 0
M  V30 1575 H 151.434 -4.2014 3.9007 0
M  V30 1576 H 149.831 -3.84523 4.60719 0
M  V30 1577 H 150.901 -2.50757 4.15029 0
M  V30 1578 N 152.244 -1.26651 -0.937939 0
M  V30 1579 C 153.66 -1.03834 -1.21205 0
M  V30 1580 C 153.86 0.234502 -2.00131 0
M  V30 1581 O 152.916 0.942767 -2.3424 0
M  V30 1582 C 154.229 -2.27167 -1.97017 0
M  V30 1583 C 155.777 -2.32101 -2.09996 0
M  V30 1584 C 156.252 -3.55136 -2.8921 0
M  V30 1585 N 157.743 -3.55632 -2.96783 0
M  V30 1586 C 158.478 -4.475 -3.58512 0
M  V30 1587 N 157.974 -5.4966 -4.21717 0
M  V30 1588 N 159.767 -4.35145 -3.55816 0
M  V30 1589 H 151.918 -2.08398 -0.410391 0
M  V30 1590 H 154.181 -0.916031 -0.244114 0
M  V30 1591 H 153.887 -3.19765 -1.46434 0
M  V30 1592 H 153.761 -2.31672 -2.97671 0
M  V30 1593 H 156.148 -1.40015 -2.59769 0
M  V30 1594 H 156.229 -2.31605 -1.08594 0
M  V30 1595 H 155.873 -4.47553 -2.40123 0
M  V30 1596 H 155.803 -3.5288 -3.90875 0
M  V30 1597 H 158.294 -2.81743 -2.51852 0
M  V30 1598 H 158.607 -6.15943 -4.66727 0
M  V30 1599 H 156.952 -5.53514 -4.20294 0
M  V30 1600 H 160.143 -3.5455 -3.05634 0
M  V30 1601 H 160.316 -5.06934 -4.03636 0
M  V30 1602 N 153.722 1.14298 -1.08507 0
M  V30 1603 C 154.632 2.23027 -0.727753 0
M  V30 1604 C 155.648 1.71952 0.26619 0
M  V30 1605 O 156.824 2.011 0.109882 0
M  V30 1606 C 153.889 3.46403 -0.143541 0
M  V30 1607 C 152.95 4.12413 -1.19223 0
M  V30 1608 C 152.183 5.29899 -0.635798 0
M  V30 1609 O 152.406 5.67796 0.544393 0
M  V30 1610 O 151.34 5.85717 -1.38634 0
M  V30 1611 H 155.166 2.55945 -1.63481 0
M  V30 1612 H 152.751 1.22248 -0.858817 0
M  V30 1613 H 154.633 4.21018 0.179404 0
M  V30 1614 H 153.308 3.15206 0.736659 0
M  V30 1615 H 152.215 3.39667 -1.56772 0
M  V30 1616 H 153.548 4.47718 -2.04474 0
M  V30 1617 N 155.201 0.870884 1.31352 0
M  V30 1618 C 156.447 0.482987 1.96965 0
M  V30 1619 C 156.78 -0.962462 1.68672 0
M  V30 1620 O 156.055 -1.6779 0.98371 0
M  V30 1621 C 156.338 0.741752 3.52378 0
M  V30 1622 C 156.191 2.2368 3.9024 0
M  V30 1623 C 157.51 0.208838 4.39604 0
M  V30 1624 H 154.629 0.176955 0.715441 0
M  V30 1625 H 157.271 1.09229 1.55464 0
M  V30 1626 H 155.421 0.223149 3.87859 0
M  V30 1627 H 157.093 2.82273 3.64856 0
M  V30 1628 H 155.336 2.70901 3.38814 0
M  V30 1629 H 156.007 2.3685 4.98604 0
M  V30 1630 H 158.483 0.652529 4.10952 0
M  V30 1631 H 157.359 0.419336 5.47296 0
M  V30 1632 H 157.62 -0.889275 4.33064 0
M  V30 1633 N 156.679 -1.44442 0.630414 0
M  V30 1634 C 157.589 -2.34476 -0.0761693 0
M  V30 1635 C 158.605 -1.52576 -0.836449 0
M  V30 1636 O 159.781 -1.85307 -0.788874 0
M  V30 1637 C 156.846 -3.30545 -1.04599 0
M  V30 1638 C 155.907 -4.28352 -0.28516 0
M  V30 1639 C 155.14 -5.19831 -1.20878 0
M  V30 1640 O 155.363 -5.15223 -2.44747 0
M  V30 1641 O 154.297 -5.97892 -0.693491 0
M  V30 1642 H 158.123 -2.96345 0.664324 0
M  V30 1643 H 155.708 -1.44203 0.39061 0
M  V30 1644 H 157.59 -3.89681 -1.60396 0
M  V30 1645 H 156.265 -2.7121 -1.76711 0
M  V30 1646 H 155.172 -3.72764 0.315837 0
M  V30 1647 H 156.505 -4.90605 0.395924 0
M  V30 1648 N 158.157 -0.370918 -1.53173 0
M  V30 1649 C 159.406 0.218249 -2.00516 0
M  V30 1650 C 159.719 1.49429 -1.26215 0
M  V30 1651 O 160.925 2.16239 -1.64174 0
M  V30 1652 C 159.381 0.43948 -3.57207 0
M  V30 1653 C 158.989 -0.822244 -4.4039 0
M  V30 1654 C 160.733 0.986012 -4.1289 0
M  V30 1655 C 158.64 -0.570304 -5.88644 0
M  V30 1656 H 157.57 0.0853333 -0.749156 0
M  V30 1657 H 160.221 -0.490483 -1.76823 0
M  V30 1658 H 158.603 1.20961 -3.77074 0
M  V30 1659 H 159.777 -1.59557 -4.32294 0
M  V30 1660 H 158.092 -1.29238 -3.95836 0
M  V30 1661 H 160.689 1.18991 -5.21292 0
M  V30 1662 H 161.032 1.94972 -3.6782 0
M  V30 1663 H 161.565 0.27592 -3.96842 0
M  V30 1664 H 158.304 -1.50449 -6.38001 0
M  V30 1665 H 157.824 0.164427 -5.99575 0
M  V30 1666 H 159.503 -0.19784 -6.46697 0
M  V30 1667 N 159.635 1.57281 -0.100228 0
M  V30 1668 C 160.875 1.96419 0.56558 0
M  V30 1669 C 161.239 0.981265 1.65031 0
M  V30 1670 O 162.44 1.26133 2.37369 0
M  V30 1671 C 160.711 3.39996 1.10171 0
M  V30 1672 S 162.27 4.01134 1.77867 0
M  V30 1673 H 159.088 0.68667 0.184406 0
M  V30 1674 H 161.69 1.94662 -0.180851 0
M  V30 1675 H 160.394 4.09296 0.300803 0
M  V30 1676 H 159.925 3.45361 1.88385 0
M  V30 1677 H 161.94 3.90358 3.06326 0
M  V30 1678 N 161.113 -0.173488 1.56642 0
M  V30 1679 C 162.529 -0.525174 1.50712 0
M  V30 1680 C 162.729 -1.8476 0.804107 0
M  V30 1681 O 161.785 -2.49869 0.363574 0
M  V30 1682 C 163.098 -0.559937 2.95441 0
M  V30 1683 C 164.646 -0.647288 3.06234 0
M  V30 1684 C 165.121 -0.712963 4.52417 0
M  V30 1685 N 166.612 -0.775911 4.56655 0
M  V30 1686 C 167.347 -0.847264 5.67106 0
M  V30 1687 N 166.843 -0.879585 6.87194 0
M  V30 1688 N 168.636 -0.886117 5.55071 0
M  V30 1689 H 160.787 0.693681 2.00753 0
M  V30 1690 H 163.05 0.249841 0.914485 0
M  V30 1691 H 162.756 0.343049 3.50023 0
M  V30 1692 H 162.63 -1.40718 3.49969 0
M  V30 1693 H 165.017 -1.5407 2.51687 0
M  V30 1694 H 165.098 0.226586 2.54794 0
M  V30 1695 H 164.742 0.176183 5.07594 0
M  V30 1696 H 164.672 -1.60295 5.0161 0
M  V30 1697 H 167.163 -0.759304 3.70193 0
M  V30 1698 H 167.476 -0.935144 7.67121 0
M  V30 1699 H 165.821 -0.847898 6.89808 0
M  V30 1700 H 169.012 -0.857853 4.60172 0
M  V30 1701 H 169.185 -0.938263 6.41171 0
M  V30 1702 N 162.591 -1.51276 -0.441967 0
M  V30 1703 C 163.538 -1.72256 -1.53612 0
M  V30 1704 C 164.508 -0.564164 -1.56225 0
M  V30 1705 O 165.693 -0.798074 -1.73307 0
M  V30 1706 C 162.833 -1.84932 -2.91366 0
M  V30 1707 C 161.946 -3.12459 -2.98317 0
M  V30 1708 C 161.081 -3.15758 -4.27166 0
M  V30 1709 C 160.12 -4.37619 -4.27967 0
M  V30 1710 N 159.257 -4.38493 -5.48333 0
M  V30 1711 H 164.097 -2.65654 -1.35026 0
M  V30 1712 H 161.634 -1.31662 -0.656009 0
M  V30 1713 H 163.592 -1.90263 -3.7129 0
M  V30 1714 H 162.222 -0.949461 -3.08521 0
M  V30 1715 H 161.274 -3.1646 -2.11086 0
M  V30 1716 H 162.586 -4.02382 -2.94771 0
M  V30 1717 H 161.74 -3.19979 -5.15459 0
M  V30 1718 H 160.479 -2.23715 -4.33362 0
M  V30 1719 H 159.484 -4.33579 -3.38067 0
M  V30 1720 H 160.709 -5.30921 -4.23438 0
M  V30 1721 H 158.655 -3.49318 -5.55259 0
M  V30 1722 H 158.572 -5.22219 -5.46647 0
M  V30 1723 H 159.84 -4.469 -6.38671 0
M  V30 1724 N 164.069 0.697108 -1.41344 0
M  V30 1725 C 164.999 1.82353 -1.45841 0
M  V30 1726 C 165.98 1.67115 -0.317247 0
M  V30 1727 O 167.165 1.86871 -0.528474 0
M  V30 1728 C 164.295 3.20476 -1.33838 0
M  V30 1729 C 163.249 3.50415 -2.4575 0
M  V30 1730 C 162.575 4.87878 -2.18813 0
M  V30 1731 C 163.875 3.49546 -3.88091 0
M  V30 1732 H 165.569 1.78846 -2.40113 0
M  V30 1733 H 163.115 0.859028 -1.15571 0
M  V30 1734 H 165.068 3.98988 -1.35596 0
M  V30 1735 H 163.792 3.24604 -0.360498 0
M  V30 1736 H 162.451 2.74253 -2.43271 0
M  V30 1737 H 162.099 4.8863 -1.19371 0
M  V30 1738 H 161.799 5.08875 -2.93803 0
M  V30 1739 H 163.323 5.68702 -2.22284 0
M  V30 1740 H 164.737 4.18066 -3.92293 0
M  V30 1741 H 163.134 3.82075 -4.62751 0
M  V30 1742 H 164.204 2.48552 -4.16353 0
M  V30 1743 N 165.547 1.27147 0.931209 0
M  V30 1744 C 166.795 1.13055 1.6752 0
M  V30 1745 C 167.116 -0.324791 1.92276 0
M  V30 1746 O 166.386 -1.22775 1.52654 0
M  V30 1747 H 164.966 0.415391 0.620854 0
M  V30 1748 H 167.628 1.59623 1.11833 0
M  V30 1749 H 166.724 1.65694 2.64485 0
M  V30 1750 N 167.025 -1.13721 1.09112 0
M  V30 1751 C 168.274 -1.84275 0.82009 0
M  V30 1752 C 168.587 -1.84253 -0.656509 0
M  V30 1753 O 169.793 -2.50668 -1.04296 0
M  V30 1754 C 168.249 -3.30825 1.41714 0
M  V30 1755 C 167.857 -3.39244 2.92605 0
M  V30 1756 C 169.601 -4.06443 1.22492 0
M  V30 1757 C 167.508 -4.80047 3.45411 0
M  V30 1758 H 166.438 -0.690387 0.30312 0
M  V30 1759 H 169.089 -1.28146 1.31343 0
M  V30 1760 H 167.471 -3.86737 0.851498 0
M  V30 1761 H 168.645 -2.93344 3.55367 0
M  V30 1762 H 166.96 -2.77088 3.10823 0
M  V30 1763 H 169.557 -5.10387 1.59402 0
M  V30 1764 H 169.9 -4.15972 0.165299 0
M  V30 1765 H 170.433 -3.56852 1.75788 0
M  V30 1766 H 167.172 -4.75709 4.50978 0
M  V30 1767 H 166.692 -5.26455 2.87411 0
M  V30 1768 H 168.371 -5.48957 3.42425 0
M  V30 1769 N 168.503 -0.877838 -1.30888 0
M  V30 1770 C 169.751 -0.491723 -1.96027 0
M  V30 1771 C 170.072 0.960827 -1.69685 0
M  V30 1772 O 169.342 1.67462 -1.01654 0
M  V30 1773 H 167.922 -0.17885 -0.725273 0
M  V30 1774 H 170.584 -1.11935 -1.59551 0
M  V30 1775 H 169.68 -0.656016 -3.05128 0
M  V30 1776 N 169.982 1.44106 -0.638065 0
M  V30 1777 C 171.212 2.06037 -0.152394 0
M  V30 1778 C 171.62 1.47808 1.18108 0
M  V30 1779 O 170.963 0.598092 1.73691 0
M  V30 1780 C 171.025 3.59488 0.0293714 0
M  V30 1781 C 170.689 4.4022 -1.22702 0
M  V30 1782 C 171.686 4.73256 -2.15232 0
M  V30 1783 C 169.371 4.8048 -1.46437 0
M  V30 1784 C 171.365 5.45444 -3.29802 0
M  V30 1785 C 169.052 5.52417 -2.61303 0
M  V30 1786 C 170.05 5.84819 -3.52811 0
M  V30 1787 O 169.738 6.55289 -4.65673 0
M  V30 1788 H 169.47 0.671233 -0.0801401 0
M  V30 1789 H 172.024 1.85851 -0.874563 0
M  V30 1790 H 170.254 3.78191 0.806758 0
M  V30 1791 H 171.943 4.03164 0.470475 0
M  V30 1792 H 172.709 4.42684 -1.98131 0
M  V30 1793 H 168.588 4.54676 -0.760977 0
M  V30 1794 H 172.132 5.70653 -4.01249 0
M  V30 1795 H 168.029 5.82404 -2.78344 0
M  V30 1796 H 168.797 6.73762 -4.64744 0
M  V30 1797 N 171.46 0.379036 1.52974 0
M  V30 1798 C 172.41 -0.477772 2.22938 0
M  V30 1799 C 173.394 -1.03792 1.22948 0
M  V30 1800 O 174.586 -0.965725 1.48333 0
M  V30 1801 C 171.715 -1.60994 3.03209 0
M  V30 1802 C 170.801 -1.06203 4.10587 0
M  V30 1803 N 171.192 -0.238214 5.05239 0
M  V30 1804 C 169.49 -1.33554 4.25534 0
M  V30 1805 C 170.191 0.0633235 5.81666 0
M  V30 1806 N 169.167 -0.537901 5.40932 0
M  V30 1807 H 172.969 0.158295 2.93473 0
M  V30 1808 H 170.483 0.187778 1.61311 0
M  V30 1809 H 172.48 -2.23607 3.5186 0
M  V30 1810 H 171.14 -2.24893 2.34207 0
M  V30 1811 H 172.151 0.123695 5.17752 0
M  V30 1812 H 168.828 -1.97632 3.6776 0
M  V30 1813 H 170.218 0.730161 6.67921 0
M  V30 1814 N 172.938 -1.57226 0.108567 0
M  V30 1815 C 174.187 -1.94008 -0.551703 0
M  V30 1816 C 174.5 -0.993442 -1.68494 0
M  V30 1817 O 175.706 -1.25551 -2.40726 0
M  V30 1818 C 174.162 -3.44763 -1.03279 0
M  V30 1819 C 173.77 -4.47943 0.0714193 0
M  V30 1820 C 175.514 -3.90483 -1.66503 0
M  V30 1821 C 173.421 -5.89865 -0.425779 0
M  V30 1822 H 172.351 -0.724206 -0.209863 0
M  V30 1823 H 175.002 -1.82547 0.186741 0
M  V30 1824 H 173.384 -3.51422 -1.82533 0
M  V30 1825 H 174.558 -4.52942 0.847365 0
M  V30 1826 H 172.873 -4.11913 0.609669 0
M  V30 1827 H 175.47 -4.93925 -2.04798 0
M  V30 1828 H 175.813 -3.29877 -2.53942 0
M  V30 1829 H 176.346 -3.86581 -0.938074 0
M  V30 1830 H 173.085 -6.54202 0.412316 0
M  V30 1831 H 172.605 -5.88309 -1.16843 0
M  V30 1832 H 174.284 -6.40844 -0.890397 0
M  V30 1833 N 174.416 0.165178 -1.56732 0
M  V30 1834 C 175.827 0.727046 -1.71962 0
M  V30 1835 C 176.178 1.82508 -0.720078 0
M  V30 1836 O 175.303 2.16082 0.117242 0
M  V30 1837 C 175.898 1.32559 -3.11791 0
M  V30 1838 C 174.457 1.83422 -3.28684 0
M  V30 1839 C 173.604 0.715567 -2.67908 0
M  V30 1840 H 176.555 -0.0602896 -1.58585 0
M  V30 1841 H 176.576 2.19533 -3.10782 0
M  V30 1842 H 176.088 0.526195 -3.84516 0
M  V30 1843 H 174.189 2.65986 -2.60926 0
M  V30 1844 H 174.302 1.97543 -4.36478 0
M  V30 1845 H 172.666 1.13758 -2.27884 0
M  V30 1846 H 173.449 -0.0720836 -3.43224 0
M  V30 1847 N 175.894 1.51508 0.433938 0
M  V30 1848 C 177.141 1.64345 1.18309 0
M  V30 1849 C 177.469 0.361315 1.91115 0
M  V30 1850 O 176.724 -0.654753 1.84422 0
M  V30 1851 C 177.023 2.79928 2.22205 0
M  V30 1852 C 176.689 4.19078 1.66387 0
M  V30 1853 C 175.351 4.56932 1.50887 0
M  V30 1854 C 177.703 5.05894 1.25381 0
M  V30 1855 C 175.031 5.79305 0.928608 0
M  V30 1856 C 177.383 6.2885 0.687823 0
M  V30 1857 C 176.047 6.65473 0.519755 0
M  V30 1858 H 175.317 0.601381 0.432923 0
M  V30 1859 H 177.964 1.85549 0.473676 0
M  V30 1860 H 176.269 2.52959 2.99197 0
M  V30 1861 H 177.966 2.87059 2.79997 0
M  V30 1862 H 174.556 3.89234 1.79428 0
M  V30 1863 H 178.74 4.77253 1.36175 0
M  V30 1864 H 173.996 6.06324 0.786186 0
M  V30 1865 H 178.17 6.95461 0.361581 0
M  V30 1866 H 175.797 7.6017 0.0679979 0
M  V30 1867 N 177.372 -0.689602 1.41712 0
M  V30 1868 C 178.335 -1.78521 1.43746 0
M  V30 1869 C 179.335 -1.57436 0.327191 0
M  V30 1870 O 180.525 -1.64 0.587348 0
M  V30 1871 C 177.657 -3.16971 1.25467 0
M  V30 1872 H 178.85 -1.78108 2.41283 0
M  V30 1873 H 176.403 -0.89781 1.27942 0
M  V30 1874 H 177.138 -3.23019 0.287948 0
M  V30 1875 H 176.923 -3.33678 2.05917 0
M  V30 1876 H 178.413 -3.96935 1.2974 0
M  V30 1877 N 178.85 -1.27639 -0.924453 0
M  V30 1878 C 180.097 -1.14167 -1.67249 0
M  V30 1879 C 180.425 0.311863 -1.91984 0
M  V30 1880 O 179.68 1.24425 -1.51053 0
M  V30 1881 C 179.979 -1.87407 -3.04325 0
M  V30 1882 C 179.645 -3.37249 -2.99289 0
M  V30 1883 C 178.307 -3.7812 -2.97622 0
M  V30 1884 C 180.659 -4.32845 -2.90336 0
M  V30 1885 C 177.987 -5.12944 -2.8479 0
M  V30 1886 C 180.339 -5.6773 -2.79045 0
M  V30 1887 C 179.003 -6.07889 -2.7573 0
M  V30 1888 H 178.273 -0.417766 -0.612007 0
M  V30 1889 H 180.92 -1.58286 -1.07786 0
M  V30 1890 H 179.225 -1.35805 -3.67511 0
M  V30 1891 H 180.922 -1.74408 -3.61086 0
M  V30 1892 H 177.512 -3.04748 -3.01374 0
M  V30 1893 H 181.696 -4.02239 -2.90719 0
M  V30 1894 H 176.952 -5.432 -2.80612 0
M  V30 1895 H 181.126 -6.41472 -2.71083 0
M  V30 1896 H 178.753 -7.12314 -2.65544 0
M  V30 1897 N 180.328 1.1314 -1.09713 0
M  V30 1898 C 181.291 2.16831 -0.742751 0
M  V30 1899 C 182.291 1.59159 0.229129 0
M  V30 1900 O 183.481 1.74199 0.00693237 0
M  V30 1901 C 180.613 3.40756 -0.0989168 0
M  V30 1902 H 181.806 2.49695 -1.66109 0
M  V30 1903 H 179.359 1.2802 -0.896699 0
M  V30 1904 H 180.094 3.13485 0.830514 0
M  V30 1905 H 179.879 3.83888 -0.798265 0
M  V30 1906 H 181.369 4.17386 0.133524 0
M  V30 1907 N 181.806 0.884767 1.30421 0
M  V30 1908 C 183.053 0.503105 1.96151 0
M  V30 1909 C 183.381 -0.947676 1.69851 0
M  V30 1910 O 182.636 -1.68467 0.995861 0
M  V30 1911 C 182.935 0.724318 3.49983 0
M  V30 1912 C 182.601 2.15015 3.96332 0
M  V30 1913 C 181.263 2.54005 4.08699 0
M  V30 1914 C 183.615 3.07936 4.20505 0
M  V30 1915 C 180.943 3.85128 4.42599 0
M  V30 1916 C 183.295 4.3859 4.55874 0
M  V30 1917 C 181.959 4.77474 4.66449 0
M  V30 1918 H 181.229 0.184099 0.717766 0
M  V30 1919 H 183.876 1.12058 1.55291 0
M  V30 1920 H 182.181 0.0238086 3.91793 0
M  V30 1921 H 183.878 0.408617 3.98913 0
M  V30 1922 H 180.468 1.8375 3.87213 0
M  V30 1923 H 184.652 2.79033 4.10431 0
M  V30 1924 H 179.908 4.14996 4.48986 0
M  V30 1925 H 184.082 5.10629 4.7353 0
M  V30 1926 H 181.709 5.79115 4.92473 0
M  V30 1927 N 183.284 -1.43765 0.645699 0
M  V30 1928 C 184.247 -2.29163 -0.0409488 0
M  V30 1929 C 185.247 -1.41813 -0.757996 0
M  V30 1930 O 186.437 -1.63527 -0.600382 0
M  V30 1931 C 183.569 -3.23716 -1.06869 0
M  V30 1932 H 184.762 -2.91366 0.710345 0
M  V30 1933 H 182.315 -1.5092 0.406547 0
M  V30 1934 H 183.05 -2.66393 -1.84947 0
M  V30 1935 H 182.835 -3.88105 -0.558277 0
M  V30 1936 H 184.325 -3.87831 -1.54845 0
M  V30 1937 N 184.763 -0.387143 -1.52771 0
M  V30 1938 C 186.012 0.19697 -2.00736 0
M  V30 1939 C 186.325 1.48082 -1.27793 0
M  V30 1940 O 187.531 2.14485 -1.66458 0
M  V30 1941 C 185.987 0.401568 -3.57653 0
M  V30 1942 C 185.595 -0.868907 -4.39493 0
M  V30 1943 C 187.339 0.942164 -4.13912 0
M  V30 1944 C 185.246 -0.632705 -5.88006 0
M  V30 1945 H 184.176 0.0773827 -0.750019 0
M  V30 1946 H 186.827 -0.50921 -1.76293 0
M  V30 1947 H 185.209 1.16954 -3.78335 0
M  V30 1948 H 186.383 -1.64133 -4.30577 0
M  V30 1949 H 184.698 -1.33429 -3.94443 0
M  V30 1950 H 187.295 1.13455 -5.22525 0
M  V30 1951 H 187.638 1.9106 -3.69867 0
M  V30 1952 H 188.171 0.233814 -3.97112 0
M  V30 1953 H 184.91 -1.57208 -6.36369 0
M  V30 1954 H 184.43 0.100825 -5.99715 0
M  V30 1955 H 186.109 -0.26642 -6.46451 0
M  V30 1956 N 186.241 1.57166 -0.116904 0
M  V30 1957 C 187.171 2.18222 0.830759 0
M  V30 1958 C 188.152 1.12167 1.27877 0
M  V30 1959 O 189.337 1.40394 1.34176 0
M  V30 1960 C 186.467 2.77996 2.08172 0
M  V30 1961 C 185.421 3.89614 1.77157 0
M  V30 1962 C 184.747 4.36187 3.09265 0
M  V30 1963 C 186.047 5.1181 1.04151 0
M  V30 1964 H 187.741 2.97664 0.321992 0
M  V30 1965 H 185.287 1.4318 0.153434 0
M  V30 1966 H 187.24 3.19366 2.74924 0
M  V30 1967 H 185.964 1.9584 2.6137 0
M  V30 1968 H 184.623 3.48816 1.12796 0
M  V30 1969 H 184.271 3.50893 3.60393 0
M  V30 1970 H 183.971 5.11455 2.89288 0
M  V30 1971 H 185.495 4.80207 3.77139 0
M  V30 1972 H 186.909 5.50214 1.61052 0
M  V30 1973 H 185.306 5.92648 0.942762 0
M  V30 1974 H 186.376 4.84892 0.0279022 0
M  V30 1975 N 187.719 -0.156864 1.56817 0
M  V30 1976 C 188.682 -1.17781 1.96622 0
M  V30 1977 C 189.682 -1.36401 0.851555 0
M  V30 1978 O 190.872 -1.33561 1.11836 0
M  V30 1979 C 188.004 -2.54008 2.27361 0
M  V30 1980 H 189.197 -0.836564 2.87996 0
M  V30 1981 H 186.75 -0.39985 1.51099 0
M  V30 1982 H 187.485 -2.9312 1.38748 0
M  V30 1983 H 187.27 -2.41856 3.08623 0
M  V30 1984 H 188.76 -3.27558 2.59029 0
M  V30 1985 N 189.197 -1.51736 -0.425897 0
M  V30 1986 C 190.427 -1.68549 -1.19476 0
M  V30 1987 C 190.835 -0.387288 -1.85194 0
M  V30 1988 O 190.178 0.645142 -1.71999 0
M  V30 1989 C 190.24 -2.75275 -2.31223 0
M  V30 1990 C 189.904 -4.17534 -1.8578 0
M  V30 1991 C 190.901 -5.01936 -1.35485 0
M  V30 1992 C 188.586 -4.6369 -1.93123 0
M  V30 1993 C 190.58 -6.30559 -0.931347 0
M  V30 1994 C 188.267 -5.92307 -1.50384 0
M  V30 1995 C 189.265 -6.75569 -1.00473 0
M  V30 1996 O 188.953 -8.0178 -0.583452 0
M  V30 1997 H 188.685 -0.568525 -0.365725 0
M  V30 1998 H 191.239 -1.98982 -0.509444 0
M  V30 1999 H 189.469 -2.40182 -3.03067 0
M  V30 2000 H 191.158 -2.80853 -2.93047 0
M  V30 2001 H 191.924 -4.67475 -1.29197 0
M  V30 2002 H 187.803 -3.98997 -2.30916 0
M  V30 2003 H 191.347 -6.95498 -0.541084 0
M  V30 2004 H 187.244 -6.2628 -1.56346 0
M  V30 2005 H 188.012 -8.1543 -0.708275 0
M  V30 2006 N 190.675 0.682077 -1.42076 0
M  V30 2007 C 191.605 1.80796 -1.47767 0
M  V30 2008 C 192.586 1.6677 -0.334954 0
M  V30 2009 O 193.771 1.863 -0.548264 0
M  V30 2010 C 190.901 3.19038 -1.37229 0
M  V30 2011 C 189.855 3.47789 -2.49453 0
M  V30 2012 C 189.181 4.8553 -2.23975 0
M  V30 2013 C 190.481 3.45411 -3.91776 0
M  V30 2014 H 192.175 1.7629 -2.41997 0
M  V30 2015 H 189.721 0.846721 -1.16476 0
M  V30 2016 H 191.674 3.97528 -1.39821 0
M  V30 2017 H 190.398 3.24204 -0.394907 0
M  V30 2018 H 189.057 2.71657 -2.46166 0
M  V30 2019 H 188.705 4.87337 -1.24547 0
M  V30 2020 H 188.405 5.0573 -2.99184 0
M  V30 2021 H 189.929 5.66312 -2.28304 0
M  V30 2022 H 191.343 4.13882 -3.96705 0
M  V30 2023 H 189.74 3.77145 -4.66778 0
M  V30 2024 H 190.81 2.44122 -4.18966 0
M  V30 2025 N 192.153 1.28127 0.917671 0
M  V30 2026 C 193.381 1.17892 1.70026 0
M  V30 2027 C 193.796 -0.262958 1.8696 0
M  V30 2028 O 193.153 -1.17811 1.3938 0
M  V30 2029 C 193.204 1.86872 3.09453 0
M  V30 2030 O 192.925 3.25428 2.93306 0
M  V30 2031 C 194.426 1.8289 4.03815 0
M  V30 2032 H 191.646 0.40942 0.531617 0
M  V30 2033 H 194.19 1.69181 1.14883 0
M  V30 2034 H 192.345 1.39464 3.61426 0
M  V30 2035 H 192.759 3.59918 3.81523 0
M  V30 2036 H 194.233 2.35751 4.99125 0
M  V30 2037 H 194.71 0.800412 4.31845 0
M  V30 2038 H 195.316 2.29959 3.57769 0
M  V30 2039 N 193.631 -1.12557 1.10312 0
M  V30 2040 C 194.561 -2.20341 0.772798 0
M  V30 2041 C 195.542 -1.68198 -0.25365 0
M  V30 2042 O 196.727 -1.93831 -0.119699 0
M  V30 2043 C 193.857 -3.46709 0.202443 0
M  V30 2044 C 192.811 -4.11996 1.15943 0
M  V30 2045 C 192.137 -5.328 0.450345 0
M  V30 2046 C 193.437 -4.5828 2.50552 0
M  V30 2047 H 195.131 -2.48229 1.674 0
M  V30 2048 H 192.677 -1.19308 0.806326 0
M  V30 2049 H 194.63 -4.2138 -0.0407752 0
M  V30 2050 H 193.354 -3.18245 -0.734001 0
M  V30 2051 H 192.013 -3.39305 1.38808 0
M  V30 2052 H 191.661 -5.00602 -0.490531 0
M  V30 2053 H 191.361 -5.7743 1.08851 0
M  V30 2054 H 192.885 -6.10219 0.215642 0
M  V30 2055 H 194.299 -5.2433 2.31843 0
M  V30 2056 H 192.696 -5.13683 3.10242 0
M  V30 2057 H 193.766 -3.72329 3.10643 0
M  V30 2058 N 195.109 -0.891671 -1.2995 0
M  V30 2059 C 196.355 -0.514261 -1.96171 0
M  V30 2060 C 196.688 0.935506 -1.70182 0
M  V30 2061 O 195.963 1.66204 -1.01028 0
M  V30 2062 C 196.246 -0.797719 -3.51153 0
M  V30 2063 C 196.099 -2.2986 -3.86632 0
M  V30 2064 C 197.418 -0.278749 -4.39216 0
M  V30 2065 H 194.537 -0.188314 -0.712535 0
M  V30 2066 H 197.179 -1.11689 -1.53706 0
M  V30 2067 H 195.329 -0.284826 -3.87455 0
M  V30 2068 H 197.001 -2.88042 -3.60319 0
M  V30 2069 H 195.244 -2.76257 -3.34462 0
M  V30 2070 H 195.915 -2.44753 -4.94773 0
M  V30 2071 H 198.391 -0.717825 -4.09862 0
M  V30 2072 H 197.267 -0.506353 -5.46559 0
M  V30 2073 H 197.528 0.820266 -4.34424 0
M  V30 2074 N 196.587 1.43421 -0.653314 0
M  V30 2075 C 197.517 2.33487 0.0246656 0
M  V30 2076 C 198.498 1.49475 0.811863 0
M  V30 2077 O 199.683 1.78139 0.773322 0
M  V30 2078 C 196.813 3.32841 0.99166 0
M  V30 2079 C 195.767 4.26842 0.314568 0
M  V30 2080 C 195.093 5.16236 1.39302 0
M  V30 2081 C 196.393 5.16243 -0.793095 0
M  V30 2082 H 198.087 2.90427 -0.727481 0
M  V30 2083 H 195.633 1.39649 -0.351287 0
M  V30 2084 H 197.586 3.94747 1.47487 0
M  V30 2085 H 196.31 2.74158 1.77497 0
M  V30 2086 H 194.969 3.663 -0.148199 0
M  V30 2087 H 194.617 4.53891 2.16776 0
M  V30 2088 H 194.317 5.79948 0.945223 0
M  V30 2089 H 195.841 5.81015 1.87759 0
M  V30 2090 H 197.255 5.71958 -0.392039 0
M  V30 2091 H 195.652 5.88676 -1.16536 0
M  V30 2092 H 196.722 4.55927 -1.65103 0
M  V30 2093 N 198.065 0.39524 1.52563 0
M  V30 2094 C 199.312 -0.185044 2.01653 0
M  V30 2095 C 199.64 -1.46317 1.28146 0
M  V30 2096 O 198.895 -1.9213 0.372074 0
M  V30 2097 C 199.194 -0.493444 3.53977 0
M  V30 2098 C 198.86 0.69384 4.4553 0
M  V30 2099 C 197.522 1.01954 4.70275 0
M  V30 2100 C 199.874 1.48785 4.99512 0
M  V30 2101 C 197.202 2.14069 5.46252 0
M  V30 2102 C 199.554 2.59965 5.76716 0
M  V30 2103 C 198.218 2.93037 5.99738 0
M  V30 2104 H 197.488 -0.0677123 0.7379 0
M  V30 2105 H 200.135 0.533807 1.8391 0
M  V30 2106 H 198.44 -1.29369 3.69825 0
M  V30 2107 H 200.137 -0.955163 3.89458 0
M  V30 2108 H 196.727 0.429987 4.26438 0
M  V30 2109 H 200.911 1.24946 4.80315 0
M  V30 2110 H 196.167 2.40056 5.62302 0
M  V30 2111 H 200.341 3.21887 6.17545 0
M  V30 2112 H 197.968 3.8003 6.58393 0
M  V30 2113 N 199.544 -1.57102 0.125237 0
M  V30 2114 C 200.96 -1.57915 -0.231322 0
M  V30 2115 C 201.16 -1.13833 -1.66266 0
M  V30 2116 O 200.216 -0.828581 -2.38518 0
M  V30 2117 C 201.529 -3.00699 0.00766489 0
M  V30 2118 C 203.077 -3.12947 -0.0577483 0
M  V30 2119 C 203.552 -4.57742 0.153626 0
M  V30 2120 N 205.043 -4.63092 0.0998073 0
M  V30 2121 C 205.778 -5.72905 0.238174 0
M  V30 2122 N 205.274 -6.91445 0.433057 0
M  V30 2123 N 207.067 -5.6182 0.177308 0
M  V30 2124 H 199.218 -1.84055 1.06007 0
M  V30 2125 H 201.481 -0.850905 0.417929 0
M  V30 2126 H 201.187 -3.3726 0.997431 0
M  V30 2127 H 201.061 -3.70236 -0.721452 0
M  V30 2128 H 203.448 -2.7624 -1.03804 0
M  V30 2129 H 203.529 -2.4594 0.70335 0
M  V30 2130 H 203.173 -4.95149 1.13092 0
M  V30 2131 H 203.103 -5.22848 -0.627534 0
M  V30 2132 H 205.594 -3.77871 -0.047051 0
M  V30 2133 H 205.907 -7.70985 0.529332 0
M  V30 2134 H 204.252 -6.93415 0.469109 0
M  V30 2135 H 207.443 -4.68093 0.0259748 0
M  V30 2136 H 207.616 -6.47357 0.288582 0
M  V30 2137 N 201.022 0.148545 -1.56898 0
M  V30 2138 C 202.433 0.708766 -1.72723 0
M  V30 2139 C 202.784 1.81734 -0.739395 0
M  V30 2140 O 201.909 2.16194 0.0943169 0
M  V30 2141 C 202.504 1.29245 -3.13179 0
M  V30 2142 C 201.063 1.79925 -3.30611 0
M  V30 2143 C 200.21 0.687111 -2.68652 0
M  V30 2144 H 203.161 -0.0771063 -1.58513 0
M  V30 2145 H 203.182 2.16224 -3.13093 0
M  V30 2146 H 202.694 0.485382 -3.85053 0
M  V30 2147 H 200.795 2.63203 -2.63732 0
M  V30 2148 H 200.908 1.92903 -4.38549 0
M  V30 2149 H 199.272 1.11335 -2.29078 0
M  V30 2150 H 200.055 -0.108483 -3.43129 0
M  V30 2151 N 202.5 1.5196 0.417844 0
M  V30 2152 C 203.746 1.65836 1.16732 0
M  V30 2153 C 204.079 0.382881 1.90388 0
M  V30 2154 O 203.354 -0.618368 1.84408 0
M  V30 2155 C 203.637 2.87466 2.16876 0
M  V30 2156 C 203.49 4.25041 1.47174 0
M  V30 2157 C 204.809 3.04613 3.17646 0
M  V30 2158 H 201.928 0.603515 0.423011 0
M  V30 2159 H 204.57 1.84494 0.454105 0
M  V30 2160 H 202.72 2.71689 2.777 0
M  V30 2161 H 204.392 4.52527 0.895376 0
M  V30 2162 H 202.635 4.26843 0.773806 0
M  V30 2163 H 203.306 5.06176 2.20204 0
M  V30 2164 H 205.782 3.1923 2.66892 0
M  V30 2165 H 204.658 3.91247 3.8499 0
M  V30 2166 H 204.919 2.17541 3.84874 0
M  V30 2167 N 203.978 -0.674533 1.42435 0
M  V30 2168 C 204.911 -1.79924 1.40366 0
M  V30 2169 C 205.889 -1.60378 0.267899 0
M  V30 2170 O 207.073 -1.82847 0.458159 0
M  V30 2171 C 204.2 -3.16927 1.19478 0
M  V30 2172 C 203.246 -3.55221 2.36051 0
M  V30 2173 S 204.079 -3.5762 3.98583 0
M  V30 2174 C 205.235 -4.97315 3.80038 0
M  V30 2175 H 205.468 -1.81405 2.35541 0
M  V30 2176 H 203.001 -0.845221 1.29211 0
M  V30 2177 H 204.959 -3.96007 1.08114 0
M  V30 2178 H 203.62 -3.13031 0.258883 0
M  V30 2179 H 202.813 -4.54804 2.17185 0
M  V30 2180 H 202.415 -2.83502 2.43932 0
M  V30 2181 H 204.707 -5.85401 3.41045 0
M  V30 2182 H 205.65 -5.21228 4.79298 0
M  V30 2183 H 206.058 -4.69845 3.12899 0
M  V30 2184 N 205.456 -1.28612 -0.910864 0
M  V30 2185 C 206.389 -1.07109 -2.01502 0
M  V30 2186 C 207.367 0.013706 -1.62594 0
M  V30 2187 O 208.551 -0.134796 -1.88017 0
M  V30 2188 C 205.678 -0.628255 -3.32822 0
M  V30 2189 C 204.724 -1.71012 -3.90714 0
M  V30 2190 S 205.557 -3.30676 -4.21205 0
M  V30 2191 C 206.713 -2.88234 -5.55583 0
M  V30 2192 H 206.946 -2.00591 -2.19432 0
M  V30 2193 H 204.479 -1.12633 -1.05609 0
M  V30 2194 H 206.437 -0.37946 -4.08742 0
M  V30 2195 H 205.098 0.28678 -3.12788 0
M  V30 2196 H 204.291 -1.35195 -4.85529 0
M  V30 2197 H 203.893 -1.91186 -3.21441 0
M  V30 2198 H 206.185 -2.34584 -6.35591 0
M  V30 2199 H 207.128 -3.81857 -5.96314 0
M  V30 2200 H 207.536 -2.26862 -5.16908 0
M  V30 2201 N 206.934 1.1197 -1.10907 0
M  V30 2202 C 208.182 1.83225 -0.852819 0
M  V30 2203 C 208.503 1.84769 0.623341 0
M  V30 2204 O 207.773 1.3143 1.45269 0
M  V30 2205 H 206.353 0.67849 -0.312507 0
M  V30 2206 H 209.015 1.3556 -1.40033 0
M  V30 2207 H 208.111 2.87265 -1.22005 0
M  V30 2208 N 208.412 0.89855 1.29475 0
M  V30 2209 C 209.375 0.380272 2.26023 0
M  V30 2210 C 210.375 -0.484891 1.53315 0
M  V30 2211 O 211.565 -0.290108 1.71767 0
M  V30 2212 C 208.697 -0.45651 3.3783 0
M  V30 2213 H 209.89 1.23295 2.73383 0
M  V30 2214 H 207.443 0.676589 1.40897 0
M  V30 2215 H 208.178 -1.32922 2.95808 0
M  V30 2216 H 207.963 0.163393 3.91759 0
M  V30 2217 H 209.453 -0.810466 4.0966 0
M  V30 2218 N 209.89 -1.43072 0.660911 0
M  V30 2219 C 211.136 -2.02545 0.186337 0
M  V30 2220 C 211.491 -1.51253 -1.18913 0
M  V30 2221 O 210.784 -0.699167 -1.78388 0
M  V30 2222 C 210.978 -3.57103 0.145563 0
M  V30 2223 C 210.807 -4.23393 1.51554 0
M  V30 2224 C 209.577 -4.59144 2.10984 0
M  V30 2225 C 211.775 -4.51897 2.45548 0
M  V30 2226 N 209.757 -5.10545 3.40907 0
M  V30 2227 C 211.128 -5.04698 3.6011 0
M  V30 2228 C 213.183 -4.33872 2.44253 0
M  V30 2229 C 211.886 -5.41371 4.73613 0
M  V30 2230 C 213.912 -4.71612 3.56842 0
M  V30 2231 C 213.274 -5.24553 4.70131 0
M  V30 2232 H 209.373 -0.773823 0.112792 0
M  V30 2233 H 211.957 -1.74137 0.870885 0
M  V30 2234 H 210.128 -3.85059 -0.508353 0
M  V30 2235 H 211.86 -4.03264 -0.340598 0
M  V30 2236 H 208.615 -4.4444 1.63615 0
M  V30 2237 H 209.039 -5.40689 4.07411 0
M  V30 2238 H 213.681 -3.92208 1.579 0
M  V30 2239 H 211.399 -5.81975 5.60652 0
M  V30 2240 H 214.985 -4.59354 3.57051 0
M  V30 2241 H 213.865 -5.53213 5.5581 0
M  V30 2242 N 211.368 -0.403325 -1.52352 0
M  V30 2243 C 212.616 0.174003 -2.0135 0
M  V30 2244 C 212.937 1.46139 -1.29106 0
M  V30 2245 O 212.207 1.91448 -0.415253 0
M  V30 2246 H 210.787 0.0672911 -0.743963 0
M  V30 2247 H 213.449 -0.538235 -1.87321 0
M  V30 2248 H 212.545 0.374254 -3.09848 0
M  V30 2249 N 212.846 1.57033 -0.133567 0
M  V30 2250 C 214.076 1.99754 0.527429 0
M  V30 2251 C 214.484 1.01245 1.59832 0
M  V30 2252 O 213.827 -0.000645496 1.837 0
M  V30 2253 C 213.889 3.38903 1.19939 0
M  V30 2254 C 213.553 4.56174 0.274709 0
M  V30 2255 C 214.55 5.17563 -0.492398 0
M  V30 2256 C 212.235 5.01972 0.18153 0
M  V30 2257 C 214.229 6.2315 -1.34027 0
M  V30 2258 C 211.916 6.07416 -0.669958 0
M  V30 2259 C 212.914 6.67874 -1.42947 0
M  V30 2260 O 212.602 7.71279 -2.2668 0
M  V30 2261 H 212.334 0.660702 0.142999 0
M  V30 2262 H 214.888 2.04207 -0.221099 0
M  V30 2263 H 213.118 3.31248 1.99528 0
M  V30 2264 H 214.807 3.65818 1.75875 0
M  V30 2265 H 215.573 4.83087 -0.430367 0
M  V30 2266 H 211.452 4.54652 0.762422 0
M  V30 2267 H 214.996 6.70268 -1.93357 0
M  V30 2268 H 210.893 6.41321 -0.73333 0
M  V30 2269 H 211.661 7.88441 -2.1978 0
M  V30 2270 N 214.325 -0.140222 1.56975 0
M  V30 2271 C 215.288 -1.15689 1.97861 0
M  V30 2272 C 216.288 -1.3549 0.865974 0
M  V30 2273 O 217.478 -1.32367 1.13246 0
M  V30 2274 C 214.61 -2.51582 2.30042 0
M  V30 2275 H 215.803 -0.805971 2.88867 0
M  V30 2276 H 213.356 -0.383801 1.51515 0
M  V30 2277 H 214.091 -2.91632 1.41849 0
M  V30 2278 H 213.876 -2.38569 3.11171 0
M  V30 2279 H 215.366 -3.24792 2.62488 0
M  V30 2280 N 215.803 -1.52179 -0.40978 0
M  V30 2281 C 217.05 -1.66206 -1.15679 0
M  V30 2282 C 217.378 -0.391674 -1.90516 0
M  V30 2283 O 216.633 0.62533 -1.8544 0
M  V30 2284 C 216.932 -2.83428 -2.17723 0
M  V30 2285 C 216.598 -4.21672 -1.59699 0
M  V30 2286 C 215.26 -4.59274 -1.43599 0
M  V30 2287 C 217.612 -5.07825 -1.17317 0
M  V30 2288 C 214.94 -5.80709 -0.836328 0
M  V30 2289 C 217.292 -6.29864 -0.587691 0
M  V30 2290 C 215.956 -6.66216 -0.413818 0
M  V30 2291 H 215.226 -0.608192 -0.423301 0
M  V30 2292 H 217.873 -1.86279 -0.444097 0
M  V30 2293 H 216.178 -2.57687 -2.95135 0
M  V30 2294 H 217.875 -2.91477 -2.75394 0
M  V30 2295 H 214.465 -3.9204 -1.73213 0
M  V30 2296 H 218.649 -4.79359 -1.28565 0
M  V30 2297 H 213.905 -6.07498 -0.689626 0
M  V30 2298 H 218.079 -6.95948 -0.250894 0
M  V30 2299 H 215.706 -7.60182 0.0529471 0
M  V30 2300 N 217.281 0.66697 -1.42791 0
M  V30 2301 C 218.692 1.2478 -1.38877 0
M  V30 2302 C 219.043 1.96012 -0.0859426 0
M  V30 2303 O 218.168 2.00463 0.815081 0
M  V30 2304 C 218.763 2.26938 -2.51564 0
M  V30 2305 C 217.322 2.80529 -2.50959 0
M  V30 2306 C 216.469 1.54965 -2.29959 0
M  V30 2307 H 219.42 0.459853 -1.51892 0
M  V30 2308 H 219.441 3.08834 -2.22265 0
M  V30 2309 H 218.953 1.75065 -3.46372 0
M  V30 2310 H 217.054 3.36502 -1.59991 0
M  V30 2311 H 217.167 3.29012 -3.48265 0
M  V30 2312 H 215.531 1.81817 -1.78366 0
M  V30 2313 H 216.314 1.05047 -3.26833 0
M  V30 2314 N 218.759 1.29093 0.90403 0
M  V30 2315 C 219.989 1.19516 1.68522 0
M  V30 2316 C 220.397 -0.24738 1.87576 0
M  V30 2317 O 219.74 -1.17798 1.40959 0
M  V30 2318 C 219.802 1.83249 3.0929 0
M  V30 2319 C 219.466 3.32531 3.13484 0
M  V30 2320 C 220.463 4.28821 2.93953 0
M  V30 2321 C 218.148 3.73656 3.35688 0
M  V30 2322 C 220.142 5.64212 2.96553 0
M  V30 2323 C 217.829 5.0917 3.37919 0
M  V30 2324 C 218.827 6.04258 3.18373 0
M  V30 2325 O 218.515 7.37298 3.20385 0
M  V30 2326 H 218.247 0.415467 0.533257 0
M  V30 2327 H 220.801 1.70912 1.13922 0
M  V30 2328 H 219.031 1.26358 3.65473 0
M  V30 2329 H 220.72 1.68054 3.69476 0
M  V30 2330 H 221.486 3.98382 2.76616 0
M  V30 2331 H 217.365 3.00101 3.49943 0
M  V30 2332 H 220.909 6.38407 2.81216 0
M  V30 2333 H 216.806 5.39256 3.54787 0
M  V30 2334 H 217.574 7.46048 3.36681 0
M  V30 2335 N 220.237 -1.11381 1.11499 0
M  V30 2336 C 221.485 -1.8277 0.862524 0
M  V30 2337 C 221.806 -1.85097 -0.613534 0
M  V30 2338 O 221.076 -1.32198 -1.4457 0
M  V30 2339 H 219.656 -0.676823 0.316101 0
M  V30 2340 H 222.318 -1.34816 1.4075 0
M  V30 2341 H 221.414 -2.86614 1.23527 0
M  V30 2342 N 221.715 -0.905404 -1.28997 0
M  V30 2343 C 222.964 -0.530191 -1.94607 0
M  V30 2344 C 223.277 0.929185 -1.72121 0
M  V30 2345 O 224.483 1.41218 -2.31883 0
M  V30 2346 C 222.939 -0.897333 -3.48534 0
M  V30 2347 C 222.547 -2.37587 -3.79811 0
M  V30 2348 C 224.291 -0.592304 -4.20347 0
M  V30 2349 C 222.198 -2.68357 -5.27009 0
M  V30 2350 H 221.128 -0.194558 -0.728466 0
M  V30 2351 H 223.779 -1.10318 -1.46636 0
M  V30 2352 H 222.161 -0.253214 -3.9519 0
M  V30 2353 H 223.335 -3.06602 -3.43994 0
M  V30 2354 H 221.65 -2.6505 -3.2115 0
M  V30 2355 H 224.247 -0.798975 -5.28697 0
M  V30 2356 H 224.59 0.469474 -4.13644 0
M  V30 2357 H 225.123 -1.19452 -3.79442 0
M  V30 2358 H 221.862 -3.73355 -5.38782 0
M  V30 2359 H 221.382 -2.03971 -5.64053 0
M  V30 2360 H 223.061 -2.54922 -5.94663 0
M  V30 2361 N 223.193 1.4272 -0.668489 0
M  V30 2362 C 224.439 2.02443 -0.197076 0
M  V30 2363 C 224.794 1.51882 1.18109 0
M  V30 2364 O 224.087 0.708618 1.78015 0
M  V30 2365 C 224.281 3.57021 -0.164499 0
M  V30 2366 C 224.11 4.22583 -1.53797 0
M  V30 2367 C 222.88 4.58019 -2.13416 0
M  V30 2368 C 225.078 4.50588 -2.47941 0
M  V30 2369 N 223.06 5.08729 -3.4361 0
M  V30 2370 C 224.431 5.02782 -3.62782 0
M  V30 2371 C 226.486 4.32571 -2.46551 0
M  V30 2372 C 225.189 5.38852 -4.76478 0
M  V30 2373 C 227.215 4.69713 -3.59338 0
M  V30 2374 C 226.577 5.22053 -4.72906 0
M  V30 2375 H 222.676 0.773214 -0.116894 0
M  V30 2376 H 225.26 1.73673 -0.880108 0
M  V30 2377 H 223.431 3.85323 0.487925 0
M  V30 2378 H 225.163 4.03439 0.319207 0
M  V30 2379 H 221.918 4.43566 -1.65969 0
M  V30 2380 H 222.342 5.38521 -4.10273 0
M  V30 2381 H 226.984 3.91365 -1.59978 0
M  V30 2382 H 224.702 5.78993 -5.63731 0
M  V30 2383 H 228.288 4.57454 -3.59482 0
M  V30 2384 H 227.168 5.50258 -5.58736 0
M  V30 2385 N 224.671 0.411399 1.52136 0
M  V30 2386 C 225.899 -0.163076 2.06256 0
M  V30 2387 C 226.314 -1.3867 1.28125 0
M  V30 2388 O 225.671 -1.79423 0.333721 0
M  V30 2389 C 225.722 -0.511252 3.57867 0
M  V30 2390 O 225.443 0.66378 4.33042 0
M  V30 2391 C 226.944 -1.13921 4.28412 0
M  V30 2392 H 224.164 -0.0193897 0.67072 0
M  V30 2393 H 226.708 0.583007 1.96013 0
M  V30 2394 H 224.863 -1.20723 3.6811 0
M  V30 2395 H 225.277 0.372601 5.23175 0
M  V30 2396 H 226.751 -1.33302 5.35663 0
M  V30 2397 H 227.228 -2.11296 3.85033 0
M  V30 2398 H 227.834 -0.483373 4.22544 0
M  V30 2399 N 226.149 -1.5696 0.141893 0
M  V30 2400 C 227.099 -2.13074 -0.811383 0
M  V30 2401 C 228.083 -1.05726 -1.21288 0
M  V30 2402 O 229.275 -1.31914 -1.18015 0
M  V30 2403 C 226.404 -2.75186 -2.0525 0
M  V30 2404 C 225.49 -3.8965 -1.67432 0
M  V30 2405 N 225.881 -4.95733 -1.0041 0
M  V30 2406 C 224.179 -4.00262 -1.96739 0
M  V30 2407 C 224.88 -5.75858 -0.822345 0
M  V30 2408 N 223.856 -5.26452 -1.3546 0
M  V30 2409 H 227.658 -2.92465 -0.290031 0
M  V30 2410 H 225.172 -1.6229 -0.0598218 0
M  V30 2411 H 227.169 -3.13745 -2.74535 0
M  V30 2412 H 225.829 -1.97266 -2.57907 0
M  V30 2413 H 226.84 -5.13607 -0.665441 0
M  V30 2414 H 223.517 -3.33412 -2.51282 0
M  V30 2415 H 224.907 -6.71254 -0.294496 0
M  V30 2416 N 227.627 0.131896 -1.57047 0
M  V30 2417 C 228.557 1.16384 -2.02428 0
M  V30 2418 C 229.538 1.43936 -0.90644 0
M  V30 2419 O 230.723 1.54599 -1.17528 0
M  V30 2420 C 227.853 2.49328 -2.4177 0
M  V30 2421 C 226.807 2.36266 -3.56879 0
M  V30 2422 C 226.133 3.74057 -3.8208 0
M  V30 2423 C 227.433 1.834 -4.89042 0
M  V30 2424 H 229.127 0.786433 -2.88887 0
M  V30 2425 H 226.673 0.376855 -1.38981 0
M  V30 2426 H 228.626 3.21759 -2.7212 0
M  V30 2427 H 227.35 2.88934 -1.52266 0
M  V30 2428 H 226.009 1.66286 -3.26718 0
M  V30 2429 H 225.657 4.11125 -2.89803 0
M  V30 2430 H 225.357 3.66174 -4.59554 0
M  V30 2431 H 226.881 4.48012 -4.1487 0
M  V30 2432 H 228.295 2.45636 -5.18011 0
M  V30 2433 H 226.692 1.8637 -5.70426 0
M  V30 2434 H 227.762 0.790662 -4.7841 0
M  V30 2435 N 229.106 1.52395 0.401703 0
M  V30 2436 C 230.383 1.57387 1.16141 0
M  V30 2437 C 230.763 0.359359 2.08019 0
M  V30 2438 O 230.111 -0.65326 2.18963 0
M  V30 2439 C 230.321 2.90631 1.93221 0
M  V30 2440 C 231.669 3.43904 2.49028 0
M  V30 2441 O 232.693 2.92421 2.03393 0
M  V30 2442 O 231.552 4.33823 3.32356 0
M  V30 2443 H 228.646 0.634262 0.530698 0
M  V30 2444 H 231.192 1.64725 0.407883 0
M  V30 2445 H 229.964 3.70473 1.25958 0
M  V30 2446 H 229.587 2.8662 2.75563 0
M  V30 2447 N 230.584 -0.659388 1.43143 0
M  V30 2448 C 231.83 -1.41984 1.45644 0
M  V30 2449 C 232.185 -1.92245 0.0771718 0
M  V30 2450 O 231.478 -1.68976 -0.903205 0
M  V30 2451 C 231.672 -2.62206 2.42864 0
M  V30 2452 C 231.501 -2.23711 3.90107 0
M  V30 2453 C 230.271 -2.12332 4.58523 0
M  V30 2454 C 232.469 -1.84384 4.80112 0
M  V30 2455 N 230.451 -1.67102 5.9072 0
M  V30 2456 C 231.822 -1.5019 6.01534 0
M  V30 2457 C 233.877 -1.71512 4.67427 0
M  V30 2458 C 232.58 -1.04414 7.11681 0
M  V30 2459 C 234.606 -1.27142 5.77572 0
M  V30 2460 C 233.968 -0.938808 6.98116 0
M  V30 2461 H 230.067 -0.515448 0.588079 0
M  V30 2462 H 232.651 -0.759409 1.79279 0
M  V30 2463 H 230.822 -3.25917 2.11265 0
M  V30 2464 H 232.554 -3.28877 2.35843 0
M  V30 2465 H 229.309 -2.31893 4.12944 0
M  V30 2466 H 229.733 -1.46866 6.60878 0
M  V30 2467 H 234.375 -1.95868 3.74694 0
M  V30 2468 H 232.093 -0.788061 8.04248 0
M  V30 2469 H 235.679 -1.17681 5.69774 0
M  V30 2470 H 234.559 -0.6007 7.81896 0
M  V30 2471 N 232.062 -1.29571 -0.897171 0
M  V30 2472 C 233.308 -1.17863 -1.65034 0
M  V30 2473 C 233.641 0.268729 -1.92332 0
M  V30 2474 O 232.916 1.19378 -1.53555 0
M  V30 2475 C 233.199 -1.995 -2.99786 0
M  V30 2476 C 233.052 -3.5239 -2.79538 0
M  V30 2477 C 234.371 -1.82335 -4.00552 0
M  V30 2478 H 231.49 -0.429528 -0.598895 0
M  V30 2479 H 234.132 -1.59072 -1.03905 0
M  V30 2480 H 232.282 -1.64485 -3.51962 0
M  V30 2481 H 233.954 -3.97401 -2.34244 0
M  V30 2482 H 232.197 -3.77187 -2.14273 0
M  V30 2483 H 232.868 -4.04787 -3.75302 0
M  V30 2484 H 235.344 -2.12924 -3.57495 0
M  V30 2485 H 234.22 -2.41801 -4.92771 0
M  V30 2486 H 234.481 -0.779209 -4.35179 0
M  V30 2487 N 233.54 1.10788 -1.12088 0
M  V30 2488 C 234.765 1.87002 -0.896949 0
M  V30 2489 C 235.19 1.79933 0.548261 0
M  V30 2490 O 234.548 1.16662 1.38779 0
M  V30 2491 C 234.596 3.3349 -1.37174 0
M  V30 2492 O 233.7 4.08745 -0.547831 0
M  V30 2493 H 233.041 0.580397 -0.322545 0
M  V30 2494 H 235.571 1.39996 -1.49206 0
M  V30 2495 H 235.581 3.84339 -1.36922 0
M  V30 2496 H 234.256 3.37951 -2.42408 0
M  V30 2497 H 232.833 3.6776 -0.617034 0
M  V30 2498 N 235.018 0.912232 1.28515 0
M  V30 2499 C 235.966 0.389597 2.29314 0
M  V30 2500 C 236.96 -0.517915 1.61289 0
M  V30 2501 O 238.166 -0.399328 1.75515 0
M  V30 2502 H 234.541 0.107386 0.744293 0
M  V30 2503 H 236.512 1.25286 2.70825 0
M  V30 2504 C 235.261 -0.356496 3.45868 0
M  V30 2505 H 234.584 0.332608 3.98414 0
M  V30 2506 H 236.024 -0.686851 4.184 0
M  V30 2507 C 234.483 -1.56383 2.98406 0
M  V30 2508 O 235.013 -2.66294 3.00749 0
M  V30 2509 N 233.219 -1.41029 2.54085 0
M  V30 2510 H 232.766 -0.516089 2.52377 0
M  V30 2511 H 232.724 -2.21939 2.22689 0
M  V30 2512 N 236.496 -1.42363 0.676048 0
M  V30 2513 C 237.724 -2.05859 0.207268 0
M  V30 2514 C 238.139 -1.50796 -1.13605 0
M  V30 2515 O 237.496 -0.648265 -1.70598 0
M  V30 2516 C 237.547 -3.61248 0.134975 0
M  V30 2517 O 237.268 -4.1427 1.42521 0
M  V30 2518 C 238.769 -4.41859 -0.357151 0
M  V30 2519 H 235.989 -0.663431 0.100503 0
M  V30 2520 H 238.533 -1.82479 0.923136 0
M  V30 2521 H 236.688 -3.83735 -0.531588 0
M  V30 2522 H 237.102 -5.0815 1.29939 0
M  V30 2523 H 238.576 -5.50847 -0.356641 0
M  V30 2524 H 239.053 -4.16536 -1.39264 0
M  V30 2525 H 239.659 -4.24392 0.27772 0
M  V30 2526 N 237.974 -0.419461 -1.51915 0
M  V30 2527 C 239.222 0.152637 -2.01523 0
M  V30 2528 C 239.543 1.44762 -1.30649 0
M  V30 2529 O 238.813 1.90997 -0.435535 0
M  V30 2530 H 237.393 0.0593966 -0.744635 0
M  V30 2531 H 240.055 -0.558073 -1.86739 0
M  V30 2532 H 239.151 0.341369 -3.10227 0
M  V30 2533 N 239.452 1.56882 -0.150215 0
M  V30 2534 C 240.682 2.00302 0.506213 0
M  V30 2535 C 241.09 1.02934 1.58749 0
M  V30 2536 O 240.433 0.0188384 1.8369 0
M  V30 2537 C 240.495 3.40156 1.16337 0
M  V30 2538 C 240.159 4.56439 0.226311 0
M  V30 2539 C 241.156 5.17012 -0.547265 0
M  V30 2540 C 238.841 5.02136 0.128279 0
M  V30 2541 C 240.835 6.21693 -1.40629 0
M  V30 2542 C 238.522 6.06672 -0.734345 0
M  V30 2543 C 239.52 6.6632 -1.50023 0
M  V30 2544 O 239.208 7.68831 -2.34848 0
M  V30 2545 H 238.94 0.662182 0.135984 0
M  V30 2546 H 241.494 2.03961 -0.242746 0
M  V30 2547 H 239.724 3.33346 1.96004 0
M  V30 2548 H 241.413 3.67663 1.71985 0
M  V30 2549 H 242.179 4.82603 -0.48158 0
M  V30 2550 H 238.058 4.55435 0.714157 0
M  V30 2551 H 241.602 6.68179 -2.00455 0
M  V30 2552 H 237.499 6.40507 -0.801309 0
M  V30 2553 H 238.267 7.86065 -2.28131 0
M  V30 2554 N 240.93 -0.123565 1.57115 0
M  V30 2555 C 242.158 -0.846461 1.88793 0
M  V30 2556 C 242.573 -1.73652 0.740976 0
M  V30 2557 O 241.93 -1.80207 -0.288393 0
M  V30 2558 C 241.981 -1.6837 3.19897 0
M  V30 2559 O 241.702 -0.829477 4.30176 0
M  V30 2560 C 243.203 -2.51214 3.65248 0
M  V30 2561 H 240.423 -0.243573 0.625231 0
M  V30 2562 H 242.967 -0.109324 2.04208 0
M  V30 2563 H 241.122 -2.37364 3.06165 0
M  V30 2564 H 241.536 -1.40651 5.0529 0
M  V30 2565 H 243.01 -3.05497 4.59756 0
M  V30 2566 H 243.487 -3.28359 2.9168 0
M  V30 2567 H 244.093 -1.8747 3.81752 0
M  V30 2568 N 242.408 -1.52605 -0.393616 0
M  V30 2569 C 243.638 -1.71046 -1.15874 0
M  V30 2570 C 244.046 -0.426483 -1.84331 0
M  V30 2571 O 243.389 0.608513 -1.73329 0
M  V30 2572 C 243.451 -2.80118 -2.25332 0
M  V30 2573 C 243.115 -4.21381 -1.76881 0
M  V30 2574 C 244.112 -5.04697 -1.24808 0
M  V30 2575 C 241.797 -4.67683 -1.83244 0
M  V30 2576 C 243.791 -6.32393 -0.797387 0
M  V30 2577 C 241.478 -5.95364 -1.37787 0
M  V30 2578 C 242.476 -6.77549 -0.861208 0
M  V30 2579 O 242.164 -8.02837 -0.413252 0
M  V30 2580 H 241.896 -0.576155 -0.353583 0
M  V30 2581 H 244.45 -2.00018 -0.467123 0
M  V30 2582 H 242.68 -2.46557 -2.97904 0
M  V30 2583 H 244.369 -2.87006 -2.87023 0
M  V30 2584 H 245.135 -4.70111 -1.19252 0
M  V30 2585 H 241.014 -4.03805 -2.22401 0
M  V30 2586 H 244.558 -6.9649 -0.393437 0
M  V30 2587 H 240.455 -6.29455 -1.43026 0
M  V30 2588 H 241.223 -8.16749 -0.53515 0
M  V30 2589 N 243.887 0.651787 -1.4349 0
M  V30 2590 C 245.135 1.40888 -1.44897 0
M  V30 2591 C 245.456 1.94856 -0.0749086 0
M  V30 2592 O 244.726 1.74518 0.889956 0
M  V30 2593 H 243.306 0.522887 -0.533478 0
M  V30 2594 H 245.968 0.768609 -1.79104 0
M  V30 2595 H 245.064 2.25052 -2.16236 0
M  V30 2596 N 245.365 1.30045 0.890287 0
M  V30 2597 C 246.313 1.15873 2.01683 0
M  V30 2598 C 247.307 0.0719403 1.69247 0
M  V30 2599 O 248.513 0.232414 1.78493 0
M  V30 2600 H 244.888 0.358203 0.661207 0
M  V30 2601 H 246.859 2.11229 2.10772 0
M  V30 2602 C 245.608 0.861842 3.36849 0
M  V30 2603 H 244.931 1.69016 3.62317 0
M  V30 2604 H 246.371 0.802762 4.16331 0
M  V30 2605 C 244.83 -0.435132 3.34078 0
M  V30 2606 O 245.36 -1.4583 3.74295 0
M  V30 2607 N 243.566 -0.444377 2.87182 0
M  V30 2608 H 243.113 0.388723 2.5465 0
M  V30 2609 H 243.071 -1.31213 2.85711 0
M  V30 2610 N 246.843 -1.10192 1.12674 0
M  V30 2611 C 248.09 -1.82205 0.883606 0
M  V30 2612 C 248.418 -1.8532 -0.590492 0
M  V30 2613 O 247.673 -1.31137 -1.45264 0
M  V30 2614 C 247.972 -3.28552 1.4067 0
M  V30 2615 C 247.638 -3.45582 2.89627 0
M  V30 2616 C 246.3 -3.49937 3.30299 0
M  V30 2617 C 248.652 -3.50768 3.85501 0
M  V30 2618 C 245.98 -3.57049 4.65546 0
M  V30 2619 C 248.332 -3.59414 5.20581 0
M  V30 2620 C 246.996 -3.62034 5.60792 0
M  V30 2621 H 246.266 -0.666735 0.323334 0
M  V30 2622 H 248.913 -1.29868 1.40736 0
M  V30 2623 H 247.218 -3.83473 0.80347 0
M  V30 2624 H 248.915 -3.82788 1.19475 0
M  V30 2625 H 245.505 -3.42871 2.57172 0
M  V30 2626 H 249.689 -3.46651 3.55171 0
M  V30 2627 H 244.945 -3.57361 4.96088 0
M  V30 2628 H 249.119 -3.62371 5.94693 0
M  V30 2629 H 246.746 -3.67298 6.6558 0
M  V30 2630 N 248.321 -0.919034 -1.28029 0
M  V30 2631 C 249.271 -0.382574 -2.24767 0
M  V30 2632 C 250.255 0.508286 -1.52661 0
M  V30 2633 O 251.447 0.347145 -1.73562 0
M  V30 2634 C 248.576 0.371432 -3.41285 0
M  V30 2635 C 247.662 -0.535449 -4.20706 0
M  V30 2636 N 248.053 -1.65141 -4.78082 0
M  V30 2637 C 246.351 -0.336824 -4.44726 0
M  V30 2638 C 247.052 -2.21475 -5.37888 0
M  V30 2639 N 246.028 -1.50537 -5.22341 0
M  V30 2640 H 249.83 -1.23477 -2.66703 0
M  V30 2641 H 247.344 -0.772299 -1.42861 0
M  V30 2642 H 249.341 0.772638 -4.09678 0
M  V30 2643 H 248.001 1.22066 -3.00882 0
M  V30 2644 H 249.012 -2.03392 -4.7629 0
M  V30 2645 H 245.689 0.47246 -4.14818 0
M  V30 2646 H 247.079 -3.15379 -5.93284 0
M  V30 2647 N 249.799 1.42003 -0.683588 0
M  V30 2648 C 251.029 2.05448 -0.217866 0
M  V30 2649 C 251.437 1.51491 1.13346 0
M  V30 2650 O 250.78 0.653048 1.717 0
M  V30 2651 C 250.842 3.59399 -0.0850118 0
M  V30 2652 C 250.506 4.36093 -1.36645 0
M  V30 2653 C 251.503 4.66169 -2.30179 0
M  V30 2654 C 249.188 4.75578 -1.61649 0
M  V30 2655 C 251.182 5.34676 -3.46988 0
M  V30 2656 C 248.869 5.43824 -2.78745 0
M  V30 2657 C 249.867 5.73299 -3.71238 0
M  V30 2658 O 249.555 6.40142 -4.86285 0
M  V30 2659 H 249.287 0.668344 -0.101454 0
M  V30 2660 H 251.841 1.82974 -0.933248 0
M  V30 2661 H 250.071 3.80566 0.686031 0
M  V30 2662 H 251.76 4.04457 0.341973 0
M  V30 2663 H 252.526 4.36156 -2.12115 0
M  V30 2664 H 248.405 4.52025 -0.905243 0
M  V30 2665 H 251.949 5.57599 -4.19201 0
M  V30 2666 H 247.846 5.73254 -2.96732 0
M  V30 2667 H 248.614 6.58636 -4.85944 0
M  V30 2668 N 251.277 0.427512 1.51691 0
M  V30 2669 C 252.225 -0.403359 2.29076 0
M  V30 2670 C 253.219 -1.02962 1.34518 0
M  V30 2671 O 254.425 -0.965715 1.51901 0
M  V30 2672 H 250.8 -0.148879 0.737115 0
M  V30 2673 H 252.771 0.270295 2.97173 0
M  V30 2674 C 251.52 -1.49763 3.13794 0
M  V30 2675 H 250.843 -1.02508 3.86435 0
M  V30 2676 H 252.283 -2.05244 3.71014 0
M  V30 2677 C 250.742 -2.47536 2.28533 0
M  V30 2678 O 251.272 -3.51848 1.93819 0
M  V30 2679 N 249.478 -2.18187 1.91945 0
M  V30 2680 H 249.025 -1.33389 2.20375 0
M  V30 2681 H 248.983 -2.83848 1.35195 0
M  V30 2682 N 252.755 -1.56801 0.158532 0
M  V30 2683 C 254.166 -1.83189 -0.360366 0
M  V30 2684 C 254.517 -1.07778 -1.63946 0
M  V30 2685 O 253.642 -0.326718 -2.13919 0
M  V30 2686 C 254.237 -3.32297 -0.660595 0
M  V30 2687 C 252.796 -3.59227 -1.12398 0
M  V30 2688 C 251.943 -2.76877 -0.153097 0
M  V30 2689 H 254.894 -1.54008 0.383031 0
M  V30 2690 H 254.915 -3.4908 -1.51405 0
M  V30 2691 H 254.427 -3.87156 0.270527 0
M  V30 2692 H 252.528 -3.09766 -2.07064 0
M  V30 2693 H 252.641 -4.67632 -1.04197 0
M  V30 2694 H 251.005 -2.46319 -0.647983 0
M  V30 2695 H 251.788 -3.34511 0.77182 0
M  V30 2696 N 254.233 0.115231 -1.57178 0
M  V30 2697 C 255.196 1.12526 -1.99676 0
M  V30 2698 C 256.196 1.34095 -0.88742 0
M  V30 2699 O 257.386 1.30548 -1.15337 0
M  V30 2700 C 254.518 2.4789 -2.34015 0
M  V30 2701 H 255.711 0.759912 -2.90113 0
M  V30 2702 H 253.264 0.359648 -1.52106 0
M  V30 2703 H 253.999 2.89339 -1.4647 0
M  V30 2704 H 253.784 2.33588 -3.14927 0
M  V30 2705 H 255.274 3.20575 -2.67622 0
M  V30 2706 N 255.711 1.52812 0.385517 0
M  V30 2707 C 256.661 1.74219 1.47078 0
M  V30 2708 C 257.645 0.59632 1.49442 0
M  V30 2709 O 258.837 0.85428 1.5502 0
M  V30 2710 C 255.966 1.9176 2.84751 0
M  V30 2711 C 255.052 3.12289 2.86943 0
M  V30 2712 N 255.443 4.34575 2.58802 0
M  V30 2713 C 253.741 3.12605 3.1811 0
M  V30 2714 C 254.442 5.162 2.68166 0
M  V30 2715 N 253.418 4.51964 3.02043 0
M  V30 2716 H 257.22 2.6639 1.24152 0
M  V30 2717 H 254.734 1.51166 0.593504 0
M  V30 2718 H 256.731 2.05218 3.62893 0
M  V30 2719 H 255.391 1.00805 3.08656 0
M  V30 2720 H 256.402 4.62649 2.32759 0
M  V30 2721 H 253.079 2.31472 3.47458 0
M  V30 2722 H 254.469 6.23689 2.49923 0
M  V30 2723 N 257.189 -0.644168 1.43834 0
M  V30 2724 C 258.122 -1.76906 1.44151 0
M  V30 2725 C 259.1 -1.59774 0.301857 0
M  V30 2726 O 260.284 -1.81834 0.496841 0
M  V30 2727 C 257.411 -3.14321 1.26174 0
M  V30 2728 C 256.457 -3.50134 2.43533 0
M  V30 2729 S 257.29 -3.49085 4.06079 0
M  V30 2730 C 258.446 -4.89142 3.90501 0
M  V30 2731 H 258.679 -1.76368 2.39336 0
M  V30 2732 H 256.212 -0.817624 1.30974 0
M  V30 2733 H 258.17 -3.93625 1.16489 0
M  V30 2734 H 256.831 -3.12412 0.325224 0
M  V30 2735 H 256.024 -4.50095 2.26783 0
M  V30 2736 H 255.626 -2.78264 2.4989 0
M  V30 2737 H 257.918 -5.78036 3.53385 0
M  V30 2738 H 258.861 -5.10945 4.90246 0
M  V30 2739 H 259.269 -4.63102 3.22795 0
M  V30 2740 N 258.668 -1.30515 -0.883378 0
M  V30 2741 C 259.917 -1.18795 -1.63005 0
M  V30 2742 C 260.23 0.255923 -1.93919 0
M  V30 2743 O 261.436 0.494654 -2.66956 0
M  V30 2744 C 259.892 -2.07878 -2.93794 0
M  V30 2745 C 259.5 -3.57184 -2.70414 0
M  V30 2746 C 261.244 -2.04924 -3.71761 0
M  V30 2747 C 259.151 -4.38317 -3.97029 0
M  V30 2748 H 258.081 -0.441031 -0.611562 0
M  V30 2749 H 260.732 -1.55275 -0.977854 0
M  V30 2750 H 259.114 -1.64283 -3.60315 0
M  V30 2751 H 260.288 -4.08937 -2.12384 0
M  V30 2752 H 258.603 -3.61976 -2.0582 0
M  V30 2753 H 261.2 -2.62792 -4.65665 0
M  V30 2754 H 261.543 -1.0331 -4.03277 0
M  V30 2755 H 262.076 -2.46649 -3.12104 0
M  V30 2756 H 258.815 -5.40632 -3.70671 0
M  V30 2757 H 258.335 -3.91326 -4.54559 0
M  V30 2758 H 260.014 -4.49834 -4.65036 0
M  V30 2759 N 260.146 1.09593 -1.13257 0
M  V30 2760 C 261.109 2.14359 -0.811358 0
M  V30 2761 C 262.109 1.59808 0.178377 0
M  V30 2762 O 263.299 1.74132 -0.0484911 0
M  V30 2763 C 260.431 3.40269 -0.207276 0
M  V30 2764 H 261.624 2.44284 -1.73969 0
M  V30 2765 H 259.177 1.25102 -0.936973 0
M  V30 2766 H 259.912 3.15969 0.73036 0
M  V30 2767 H 259.697 3.81154 -0.919992 0
M  V30 2768 H 261.187 4.176 0.000667944 0
M  V30 2769 N 261.624 0.925811 1.2754 0
M  V30 2770 C 262.873 0.561084 1.93739 0
M  V30 2771 C 263.186 -0.901685 1.73577 0
M  V30 2772 O 264.392 -1.37511 2.34101 0
M  V30 2773 C 262.848 0.952668 3.47062 0
M  V30 2774 C 262.456 2.43599 3.75983 0
M  V30 2775 C 264.2 0.659103 4.19352 0
M  V30 2776 C 262.107 2.76707 5.22673 0
M  V30 2777 H 261.037 0.206122 0.725279 0
M  V30 2778 H 263.688 1.12637 1.44863 0
M  V30 2779 H 262.07 0.316053 3.94737 0
M  V30 2780 H 263.244 3.12035 3.39073 0
M  V30 2781 H 261.559 2.70125 3.16893 0
M  V30 2782 H 264.156 0.882985 5.27359 0
M  V30 2783 H 264.499 -0.403607 4.14339 0
M  V30 2784 H 265.032 1.25473 3.77494 0
M  V30 2785 H 261.771 3.8188 5.32774 0
M  V30 2786 H 261.291 2.12919 5.60737 0
M  V30 2787 H 262.97 2.6435 5.90532 0
M  V30 2788 N 263.102 -1.41638 0.69111 0
M  V30 2789 C 264.327 -2.06148 0.227583 0
M  V30 2790 C 264.752 -1.51652 -1.11281 0
M  V30 2791 O 264.11 -0.64164 -1.69566 0
M  V30 2792 C 264.158 -3.60095 0.190858 0
M  V30 2793 O 263.262 -4.03845 -0.835664 0
M  V30 2794 H 262.603 -0.654434 0.112306 0
M  V30 2795 H 265.133 -1.81484 0.944714 0
M  V30 2796 H 265.143 -4.07995 0.020207 0
M  V30 2797 H 263.818 -3.99129 1.16915 0
M  V30 2798 H 262.395 -3.67458 -0.63473 0
M  V30 2799 N 264.58 -0.43555 -1.51462 0
M  V30 2800 C 265.827 0.131514 -2.02072 0
M  V30 2801 C 266.155 1.42868 -1.31981 0
M  V30 2802 O 265.41 1.91076 -0.422883 0
M  V30 2803 C 265.709 0.39942 -3.55161 0
M  V30 2804 C 265.375 -0.81172 -4.43533 0
M  V30 2805 C 264.037 -1.14387 -4.67407 0
M  V30 2806 C 266.389 -1.61976 -4.95392 0
M  V30 2807 C 263.717 -2.28477 -5.40384 0
M  V30 2808 C 266.069 -2.75164 -5.6962 0
M  V30 2809 C 264.733 -3.08835 -5.91758 0
M  V30 2810 H 264.003 0.0481244 -0.739436 0
M  V30 2811 H 266.65 -0.58238 -1.8243 0
M  V30 2812 H 264.955 1.19519 -3.73125 0
M  V30 2813 H 266.652 0.85157 -3.91854 0
M  V30 2814 H 263.242 -0.542898 -4.25148 0
M  V30 2815 H 267.426 -1.37637 -4.76833 0
M  V30 2816 H 262.682 -2.5488 -5.55739 0
M  V30 2817 H 266.856 -3.38147 -6.08793 0
M  V30 2818 H 264.483 -3.97353 -6.48086 0
M  V30 2819 N 266.058 1.56714 -0.166846 0
M  V30 2820 C 267.305 1.96747 0.479252 0
M  V30 2821 C 267.633 1.05263 1.63554 0
M  V30 2822 O 266.888 0.0858098 1.95512 0
M  V30 2823 C 267.187 3.42889 1.00806 0
M  V30 2824 C 266.853 4.50889 -0.0318574 0
M  V30 2825 C 265.515 4.8015 -0.317675 0
M  V30 2826 C 267.867 5.15949 -0.737956 0
M  V30 2827 C 265.195 5.71772 -1.31506 0
M  V30 2828 C 267.547 6.08647 -1.72429 0
M  V30 2829 C 266.211 6.36277 -2.0176 0
M  V30 2830 H 265.481 0.719949 0.175371 0
M  V30 2831 H 268.128 1.89756 -0.257864 0
M  V30 2832 H 266.433 3.4681 1.82291 0
M  V30 2833 H 268.13 3.71203 1.51689 0
M  V30 2834 H 264.72 4.28128 0.201088 0
M  V30 2835 H 268.904 4.93458 -0.530351 0
M  V30 2836 H 264.16 5.91465 -1.54853 0
M  V30 2837 H 268.334 6.58129 -2.27682 0
M  V30 2838 H 265.961 7.07075 -2.79194 0
M  V30 2839 N 267.536 -0.106894 1.57237 0
M  V30 2840 C 268.783 -0.812526 1.85484 0
M  V30 2841 C 269.111 -1.79304 0.753687 0
M  V30 2842 O 268.366 -1.94047 -0.253853 0
M  V30 2843 C 268.665 -1.58628 3.20268 0
M  V30 2844 C 268.331 -0.748967 4.44636 0
M  V30 2845 C 266.993 -0.518104 4.78403 0
M  V30 2846 C 269.345 -0.166122 5.20935 0
M  V30 2847 C 266.673 0.305659 5.85903 0
M  V30 2848 C 269.025 0.644899 6.29304 0
M  V30 2849 C 267.689 0.885965 6.61594 0
M  V30 2850 H 266.959 -0.297324 0.678734 0
M  V30 2851 H 269.606 -0.0744332 1.91355 0
M  V30 2852 H 267.911 -2.39562 3.10028 0
M  V30 2853 H 269.608 -2.13643 3.39349 0
M  V30 2854 H 266.198 -0.939006 4.18187 0
M  V30 2855 H 270.382 -0.33167 4.95191 0
M  V30 2856 H 265.638 0.501528 6.0934 0
M  V30 2857 H 269.812 1.10345 6.87602 0
M  V30 2858 H 267.439 1.52609 7.44725 0
M  V30 2859 N 269.014 -1.53014 -0.377408 0
M  V30 2860 C 270.242 -1.72515 -1.14219 0
M  V30 2861 C 270.657 -0.448735 -1.8339 0
M  V30 2862 O 270.014 0.577592 -1.73119 0
M  V30 2863 C 270.065 -2.8826 -2.18148 0
M  V30 2864 O 269.786 -4.10962 -1.51795 0
M  V30 2865 C 271.287 -3.19536 -3.07264 0
M  V30 2866 H 268.507 -0.577301 -0.342001 0
M  V30 2867 H 271.051 -1.99712 -0.439935 0
M  V30 2868 H 269.206 -2.63492 -2.83991 0
M  V30 2869 H 269.62 -4.75693 -2.20945 0
M  V30 2870 H 271.094 -4.03959 -3.76193 0
M  V30 2871 H 271.571 -2.34403 -3.71419 0
M  V30 2872 H 272.177 -3.46186 -2.47053 0
M  V30 2873 N 270.492 0.636531 -1.44174 0
M  V30 2874 C 271.44 1.76995 -1.50915 0
M  V30 2875 C 272.434 1.65053 -0.381295 0
M  V30 2876 O 273.64 1.71197 -0.55601 0
M  V30 2877 H 270.015 0.584247 -0.473455 0
M  V30 2878 H 271.986 1.68432 -2.4632 0
M  V30 2879 C 270.735 3.15314 -1.46534 0
M  V30 2880 H 270.058 3.25149 -2.32633 0
M  V30 2881 H 271.498 3.9453 -1.55312 0
M  V30 2882 C 269.957 3.3639 -0.185305 0
M  V30 2883 O 270.487 3.94699 0.746688 0
M  V30 2884 N 268.693 2.9046 -0.0901606 0
M  V30 2885 H 268.24 2.43193 -0.849416 0
M  V30 2886 H 268.198 3.04937 0.765553 0
M  V30 2887 N 271.97 1.30982 0.876444 0
M  V30 2888 C 272.933 1.18054 1.96459 0
M  V30 2889 C 273.933 0.109399 1.60427 0
M  V30 2890 O 275.123 0.358173 1.70478 0
M  V30 2891 C 272.255 0.810616 3.31122 0
M  V30 2892 H 273.448 2.14735 2.09354 0
M  V30 2893 H 271.001 1.145 1.06392 0
M  V30 2894 H 271.736 -0.155322 3.23928 0
M  V30 2895 H 271.521 1.58481 3.58645 0
M  V30 2896 H 273.011 0.743876 4.10921 0
M  V30 2897 N 273.449 -1.08991 1.13837 0
M  V30 2898 C 274.379 -2.17771 0.842507 0
M  V30 2899 C 275.36 -1.6892 -0.20001 0
M  V30 2900 O 276.545 -1.94113 -0.0579731 0
M  V30 2901 C 273.675 -3.4589 0.312644 0
M  V30 2902 C 272.629 -4.08099 1.28992 0
M  V30 2903 C 271.955 -5.31098 0.619623 0
M  V30 2904 C 273.255 -4.50077 2.65005 0
M  V30 2905 H 274.949 -2.42777 1.75213 0
M  V30 2906 H 272.495 -1.16682 0.843875 0
M  V30 2907 H 274.448 -4.21297 0.0933043 0
M  V30 2908 H 273.172 -3.20419 -0.632382 0
M  V30 2909 H 271.831 -3.34717 1.49533 0
M  V30 2910 H 271.479 -5.0191 -0.33102 0
M  V30 2911 H 271.179 -5.73674 1.27167 0
M  V30 2912 H 272.703 -6.09224 0.409669 0
M  V30 2913 H 274.117 -5.16688 2.48407 0
M  V30 2914 H 272.514 -5.03553 3.26427 0
M  V30 2915 H 273.584 -3.62257 3.22332 0
M  V30 2916 N 274.927 -0.932562 -1.27047 0
M  V30 2917 C 275.89 -0.440064 -2.24936 0
M  V30 2918 C 276.89 0.444071 -1.54547 0
M  V30 2919 O 278.08 0.244465 -1.72476 0
M  V30 2920 C 275.212 0.36678 -3.38921 0
M  V30 2921 H 276.405 -1.305 -2.70018 0
M  V30 2922 H 273.958 -0.713707 -1.39054 0
M  V30 2923 H 274.693 1.25033 -2.99228 0
M  V30 2924 H 274.478 -0.267204 -3.91188 0
M  V30 2925 H 275.968 0.701567 -4.11665 0
M  V30 2926 N 276.405 1.4127 -0.698611 0
M  V30 2927 C 277.335 2.33447 -0.049629 0
M  V30 2928 C 278.316 1.51982 0.763898 0
M  V30 2929 O 279.501 1.80509 0.716257 0
M  V30 2930 C 276.631 3.35828 0.885267 0
M  V30 2931 C 275.585 4.27627 0.178613 0
M  V30 2932 C 274.911 5.20406 1.22807 0
M  V30 2933 C 276.211 5.13459 -0.956933 0
M  V30 2934 H 277.905 2.87966 -0.81951 0
M  V30 2935 H 275.451 1.38461 -0.395538 0
M  V30 2936 H 277.404 3.9924 1.34854 0
M  V30 2937 H 276.128 2.79666 1.68685 0
M  V30 2938 H 274.787 3.65643 -0.26466 0
M  V30 2939 H 274.435 4.60558 2.02226 0
M  V30 2940 H 274.135 5.82661 0.760239 0
M  V30 2941 H 275.659 5.86695 1.69179 0
M  V30 2942 H 277.073 5.70421 -0.573805 0
M  V30 2943 H 275.47 5.8467 -1.35205 0
M  V30 2944 H 276.54 4.50443 -1.79524 0
M  V30 2945 N 277.883 0.443576 1.51229 0
M  V30 2946 C 278.846 -0.353132 2.26463 0
M  V30 2947 C 279.846 -0.944338 1.3015 0
M  V30 2948 O 281.036 -0.817813 1.5381 0
M  V30 2949 C 278.168 -1.50023 3.06114 0
M  V30 2950 H 279.361 0.3063 2.98332 0
M  V30 2951 H 276.914 0.196902 1.55055 0
M  V30 2952 H 277.649 -2.19553 2.38677 0
M  V30 2953 H 277.434 -1.08241 3.76864 0
M  V30 2954 H 278.924 -2.06296 3.63087 0
M  V30 2955 N 279.361 -1.56624 0.175154 0
M  V30 2956 C 280.291 -2.21155 -0.749195 0
M  V30 2957 C 281.272 -1.16836 -1.23626 0
M  V30 2958 O 282.457 -1.45277 -1.28873 0
M  V30 2959 C 279.587 -2.8553 -1.97711 0
M  V30 2960 C 278.541 -3.95921 -1.62575 0
M  V30 2961 C 277.867 -4.47365 -2.92864 0
M  V30 2962 C 279.167 -5.15323 -0.850838 0
M  V30 2963 H 280.861 -2.98653 -0.211295 0
M  V30 2964 H 278.407 -1.43651 -0.100188 0
M  V30 2965 H 280.36 -3.2935 -2.62881 0
M  V30 2966 H 279.084 -2.05406 -2.53921 0
M  V30 2967 H 277.743 -3.52762 -0.997719 0
M  V30 2968 H 277.391 -3.64027 -3.47122 0
M  V30 2969 H 277.091 -5.21839 -2.70106 0
M  V30 2970 H 278.615 -4.93873 -3.59056 0
M  V30 2971 H 280.029 -5.55812 -1.40521 0
M  V30 2972 H 278.426 -5.95739 -0.722154 0
M  V30 2973 H 279.496 -4.84661 0.152082 0
M  V30 2974 N 280.839 0.0985539 -1.57292 0
M  V30 2975 C 281.789 1.1261 -1.9825 0
M  V30 2976 C 282.773 1.35961 -0.860426 0
M  V30 2977 O 283.965 1.36711 -1.12424 0
M  V30 2978 C 281.094 2.44727 -2.40757 0
M  V30 2979 C 280.18 2.24764 -3.59642 0
M  V30 2980 N 280.571 1.74661 -4.74687 0
M  V30 2981 C 278.869 2.55344 -3.65672 0
M  V30 2982 C 279.57 1.68887 -5.56644 0
M  V30 2983 N 278.546 2.13976 -4.99715 0
M  V30 2984 H 282.348 0.731604 -2.84648 0
M  V30 2985 H 279.862 0.306029 -1.59491 0
M  V30 2986 H 281.859 3.19072 -2.68326 0
M  V30 2987 H 280.519 2.84917 -1.55733 0
M  V30 2988 H 281.53 1.43908 -4.97505 0
M  V30 2989 H 278.207 2.99081 -2.91302 0
M  V30 2990 H 279.597 1.3123 -6.5896 0
M  V30 2991 N 282.317 1.53212 0.369288 0
M  V30 2992 C 283.565 1.68881 1.11012 0
M  V30 2993 C 283.886 0.441285 1.89941 0
M  V30 2994 O 283.156 -0.544623 1.88177 0
M  V30 2995 H 281.736 0.622569 0.412816 0
M  V30 2996 H 284.398 1.90391 0.416802 0
M  V30 2997 H 283.494 2.54822 1.80201 0
M  V30 2998 N 283.795 -0.628877 1.44509 0
M  V30 2999 C 284.758 -1.72263 1.51188 0
M  V30 3000 C 285.758 -1.55907 0.39367 0
M  V30 3001 O 286.948 -1.61361 0.656377 0
M  V30 3002 C 284.08 -3.11365 1.38798 0
M  V30 3003 H 285.273 -1.67714 2.4862 0
M  V30 3004 H 282.826 -0.842737 1.31634 0
M  V30 3005 H 283.561 -3.21507 0.424693 0
M  V30 3006 H 283.346 -3.24644 2.19884 0
M  V30 3007 H 284.836 -3.91075 1.46458 0
M  V30 3008 N 285.273 -1.31445 -0.869486 0
M  V30 3009 C 286.203 -1.21727 -1.99261 0
M  V30 3010 C 287.184 -0.104359 -1.6978 0
M  V30 3011 O 288.369 -0.289038 -1.92037 0
M  V30 3012 C 285.499 -0.924317 -3.34774 0
M  V30 3013 C 284.453 -1.99685 -3.78563 0
M  V30 3014 C 283.779 -1.55658 -5.11541 0
M  V30 3015 C 285.079 -3.41003 -3.95619 0
M  V30 3016 H 286.773 -2.1569 -2.07649 0
M  V30 3017 H 284.319 -1.03839 -0.997675 0
M  V30 3018 H 286.272 -0.842934 -4.12883 0
M  V30 3019 H 284.996 0.0509793 -3.2656 0
M  V30 3020 H 283.655 -2.06813 -3.02694 0
M  V30 3021 H 283.303 -0.569132 -4.9977 0
M  V30 3022 H 283.003 -2.27409 -5.41811 0
M  V30 3023 H 284.527 -1.48928 -5.92159 0
M  V30 3024 H 285.941 -3.36547 -4.64122 0
M  V30 3025 H 284.338 -4.10975 -4.37286 0
M  V30 3026 H 285.408 -3.81754 -2.98985 0
M  V30 3027 N 286.751 1.08385 -1.14413 0
M  V30 3028 C 287.997 1.81044 -0.913834 0
M  V30 3029 C 288.33 1.86004 0.558209 0
M  V30 3030 O 287.605 1.33606 1.4135 0
M  V30 3031 C 287.888 3.26648 -1.51569 0
M  V30 3032 C 287.741 3.29895 -3.0576 0
M  V30 3033 C 289.06 4.23629 -1.19273 0
M  V30 3034 H 286.179 0.65727 -0.333414 0
M  V30 3035 H 288.821 1.26896 -1.41412 0
M  V30 3036 H 286.971 3.72889 -1.09023 0
M  V30 3037 H 288.643 2.91977 -3.57137 0
M  V30 3038 H 286.886 2.69163 -3.40197 0
M  V30 3039 H 287.557 4.32516 -3.42977 0
M  V30 3040 H 290.033 3.85727 -1.56057 0
M  V30 3041 H 288.909 5.23822 -1.64017 0
M  V30 3042 H 289.17 4.41968 -0.108068 0
M  V30 3043 N 288.23 0.939286 1.26551 0
M  V30 3044 C 289.16 0.465044 2.28822 0
M  V30 3045 C 290.141 -0.480692 1.63167 0
M  V30 3046 O 291.326 -0.382955 1.90387 0
M  V30 3047 C 288.456 -0.27234 3.46231 0
M  V30 3048 C 287.41 0.58666 4.2396 0
M  V30 3049 C 286.736 -0.280573 5.33963 0
M  V30 3050 C 288.036 1.85704 4.88171 0
M  V30 3051 H 289.73 1.31979 2.68741 0
M  V30 3052 H 287.276 0.636061 1.29191 0
M  V30 3053 H 289.229 -0.615133 4.16886 0
M  V30 3054 H 287.953 -1.16121 3.0526 0
M  V30 3055 H 286.612 0.91232 3.55067 0
M  V30 3056 H 286.26 -1.16874 4.89234 0
M  V30 3057 H 285.96 0.29076 5.8688 0
M  V30 3058 H 287.484 -0.618678 6.07458 0
M  V30 3059 H 288.898 1.58161 5.51052 0
M  V30 3060 H 287.295 2.37279 5.51197 0
M  V30 3061 H 288.365 2.56957 4.11219 0
M  V30 3062 N 289.708 -1.40897 0.706093 0
M  V30 3063 C 290.933 -2.05895 0.249435 0
M  V30 3064 C 291.358 -1.52823 -1.09666 0
M  V30 3065 O 290.716 -0.659589 -1.68876 0
M  V30 3066 C 290.764 -3.59872 0.22904 0
M  V30 3067 O 289.868 -4.04708 -0.792784 0
M  V30 3068 H 289.209 -0.653206 0.119241 0
M  V30 3069 H 291.739 -1.80471 0.96391 0
M  V30 3070 H 291.749 -4.07951 0.0634791 0
M  V30 3071 H 290.424 -3.97866 1.21141 0
M  V30 3072 H 289.001 -3.68111 -0.59572 0
M  V30 3073 N 291.186 -0.45159 -1.50991 0
M  V30 3074 C 292.149 0.341117 -2.26647 0
M  V30 3075 C 293.149 0.937422 -1.30649 0
M  V30 3076 O 294.339 0.809644 -1.54241 0
M  V30 3077 C 291.471 1.48398 -3.06905 0
M  V30 3078 H 292.664 -0.322117 -2.98165 0
M  V30 3079 H 290.217 -0.205122 -1.54948 0
M  V30 3080 H 290.952 2.18284 -2.39838 0
M  V30 3081 H 290.737 1.06241 -3.77432 0
M  V30 3082 H 292.227 2.04367 -3.64176 0
M  V30 3083 N 292.664 1.56529 -0.183458 0
M  V30 3084 C 293.627 2.17324 0.728223 0
M  V30 3085 C 294.627 1.12453 1.14939 0
M  V30 3086 O 295.817 1.37902 1.06437 0
M  V30 3087 C 292.949 2.76591 1.99274 0
M  V30 3088 H 294.142 2.99241 0.198772 0
M  V30 3089 H 291.695 1.5616 0.0661391 0
M  V30 3090 H 292.43 1.98441 2.56499 0
M  V30 3091 H 292.215 3.5335 1.69959 0
M  V30 3092 H 293.705 3.23311 2.6431 0
M  V30 3093 N 294.142 -0.090211 1.57342 0
M  V30 3094 C 295.09 -1.12792 2.03422 0
M  V30 3095 C 296.084 -1.41182 0.936166 0
M  V30 3096 O 297.29 -1.40805 1.12133 0
M  V30 3097 H 293.665 -0.380986 0.648347 0
M  V30 3098 H 295.636 -0.71299 2.89757 0
M  V30 3099 C 294.385 -2.43855 2.47851 0
M  V30 3100 H 293.708 -2.22855 3.31927 0
M  V30 3101 H 295.148 -3.14955 2.83865 0
M  V30 3102 C 293.607 -3.08503 1.3538 0
M  V30 3103 O 294.137 -3.95805 0.685641 0
M  V30 3104 N 292.343 -2.68831 1.10355 0
M  V30 3105 H 291.89 -1.97929 1.64869 0
M  V30 3106 H 291.848 -3.12412 0.353031 0
M  V30 3107 N 295.62 -1.53406 -0.361157 0
M  V30 3108 C 297.031 -1.61442 -0.937728 0
M  V30 3109 C 297.382 -0.48461 -1.90121 0
M  V30 3110 O 296.507 0.388312 -2.12888 0
M  V30 3111 C 297.102 -2.92624 -1.70753 0
M  V30 3112 C 295.661 -3.02981 -2.23337 0
M  V30 3113 C 294.808 -2.5677 -1.04712 0
M  V30 3114 H 297.759 -1.58083 -0.139816 0
M  V30 3115 H 297.78 -2.80675 -2.56908 0
M  V30 3116 H 297.292 -3.74834 -1.00604 0
M  V30 3117 H 295.393 -2.25368 -2.96715 0
M  V30 3118 H 295.506 -4.0814 -2.50916 0
M  V30 3119 H 293.87 -2.11752 -1.41539 0
M  V30 3120 H 294.653 -3.41402 -0.360539 0
M  V30 3121 N 297.098 0.621204 -1.44841 0
M  V30 3122 C 298.008 1.7612 -1.5498 0
M  V30 3123 C 299.024 1.68477 -0.434927 0
M  V30 3124 O 300.2 1.89076 -0.693693 0
M  V30 3125 C 297.265 3.1254 -1.50065 0
M  V30 3126 C 296.326 3.31741 -2.72482 0
M  V30 3127 C 295.559 4.61653 -2.67792 0
M  V30 3128 O 295.782 5.431 -1.74352 0
M  V30 3129 O 294.716 4.83271 -3.58794 0
M  V30 3130 H 298.542 1.70518 -2.51311 0
M  V30 3131 H 296.127 0.783643 -1.27198 0
M  V30 3132 H 298.009 3.93844 -1.49882 0
M  V30 3133 H 296.684 3.18663 -0.568806 0
M  V30 3134 H 295.591 2.50077 -2.7823 0
M  V30 3135 H 296.924 3.30486 -3.64746 0
M  V30 3136 N 298.576 1.31904 0.862503 0
M  V30 3137 C 299.523 1.20182 1.9704 0
M  V30 3138 C 300.493 0.0858247 1.65878 0
M  V30 3139 O 301.678 0.26 1.8902 0
M  V30 3140 C 298.818 0.922797 3.32533 0
M  V30 3141 C 297.931 2.12284 3.76244 0
M  V30 3142 C 297.066 1.77996 5.00491 0
M  V30 3143 C 296.105 2.94366 5.36671 0
M  V30 3144 N 295.242 2.60223 6.52095 0
M  V30 3145 H 300.082 2.14951 2.06398 0
M  V30 3146 H 297.619 1.06917 1.01031 0
M  V30 3147 H 299.577 0.741548 4.10557 0
M  V30 3148 H 298.207 0.0119227 3.22798 0
M  V30 3149 H 297.259 2.41461 2.9394 0
M  V30 3150 H 298.571 2.99357 3.98982 0
M  V30 3151 H 297.725 1.56377 5.862 0
M  V30 3152 H 296.464 0.881252 4.79672 0
M  V30 3153 H 295.469 3.16625 4.49476 0
M  V30 3154 H 296.694 3.84957 5.59451 0
M  V30 3155 H 294.64 1.72884 6.32809 0
M  V30 3156 H 294.557 3.40827 6.74814 0
M  V30 3157 H 295.825 2.42016 7.40978 0
M  V30 3158 N 300.054 -1.07777 1.14986 0
M  V30 3159 C 301.302 -1.79934 0.920235 0
M  V30 3160 C 301.623 -1.86955 -0.554336 0
M  V30 3161 O 300.893 -1.36731 -1.40291 0
M  V30 3162 H 299.473 -0.666424 0.337473 0
M  V30 3163 H 302.135 -1.3027 1.44968 0
M  V30 3164 H 301.231 -2.82539 1.32583 0
M  V30 3165 N 301.532 -0.945985 -1.26051 0
M  V30 3166 C 302.479 -0.45809 -2.26208 0
M  V30 3167 C 303.449 0.484816 -1.58867 0
M  V30 3168 O 304.634 0.399969 -1.86561 0
M  V30 3169 C 301.774 0.266131 -3.44072 0
M  V30 3170 C 300.887 -0.713005 -4.26075 0
M  V30 3171 C 300.022 0.0329013 -5.3119 0
M  V30 3172 C 299.061 -0.93774 -6.04874 0
M  V30 3173 N 298.198 -0.223274 -7.01745 0
M  V30 3174 H 303.038 -1.3171 -2.67313 0
M  V30 3175 H 300.575 -0.66069 -1.31428 0
M  V30 3176 H 302.533 0.702514 -4.11243 0
M  V30 3177 H 301.163 1.08925 -3.03867 0
M  V30 3178 H 300.215 -1.26789 -3.58648 0
M  V30 3179 H 301.527 -1.45406 -4.77136 0
M  V30 3180 H 300.681 0.528335 -6.04395 0
M  V30 3181 H 299.42 0.806801 -4.8098 0
M  V30 3182 H 298.425 -1.44425 -5.30492 0
M  V30 3183 H 299.65 -1.71172 -6.57173 0
M  V30 3184 H 297.596 0.532046 -6.53839 0
M  V30 3185 H 297.513 -0.90357 -7.50581 0
M  V30 3186 H 298.781 0.250907 -7.79096 0
M  V30 3187 N 303.011 1.40521 -0.713556 0
M  V30 3188 C 303.921 2.34522 -0.0606667 0
M  V30 3189 C 304.937 1.57193 0.74607 0
M  V30 3190 O 306.113 1.89591 0.679493 0
M  V30 3191 C 303.178 3.36081 0.851491 0
M  V30 3192 C 302.239 4.29286 0.0349339 0
M  V30 3193 C 301.472 5.25994 0.903649 0
M  V30 3194 O 301.695 5.28616 2.14292 0
M  V30 3195 O 300.629 6.00918 0.343723 0
M  V30 3196 H 304.455 2.91968 -0.835972 0
M  V30 3197 H 302.04 1.41681 -0.47402 0
M  V30 3198 H 303.922 3.98369 1.37404 0
M  V30 3199 H 302.597 2.81052 1.60598 0
M  V30 3200 H 301.504 3.70289 -0.532633 0
M  V30 3201 H 302.837 4.87462 -0.681287 0
M  V30 3202 N 304.489 0.459591 1.5075 0
M  V30 3203 C 305.422 -0.386257 2.24907 0
M  V30 3204 C 306.4 -1.006 1.27744 0
M  V30 3205 O 307.584 -1.04416 1.56938 0
M  V30 3206 C 304.711 -1.54021 3.01654 0
M  V30 3207 C 303.757 -1.03898 4.13651 0
M  V30 3208 S 304.59 0.0370501 5.35487 0
M  V30 3209 C 305.746 -1.12105 6.15779 0
M  V30 3210 H 305.979 0.243272 2.96303 0
M  V30 3211 H 303.512 0.244339 1.52454 0
M  V30 3212 H 305.47 -2.20163 3.46466 0
M  V30 3213 H 304.131 -2.14121 2.29806 0
M  V30 3214 H 303.324 -1.90254 4.66711 0
M  V30 3215 H 302.926 -0.45545 3.71216 0
M  V30 3216 H 305.218 -2.03501 6.46215 0
M  V30 3217 H 306.161 -0.62995 7.05292 0
M  V30 3218 H 306.569 -1.36967 5.47631 0
M  V30 3219 N 305.967 -1.56429 0.191757 0
M  V30 3220 C 307.383 -1.58754 -0.164137 0
M  V30 3221 C 307.583 -1.20782 -1.61288 0
M  V30 3222 O 306.639 -0.928999 -2.34789 0
M  V30 3223 C 307.952 -3.00396 0.135195 0
M  V30 3224 C 309.5 -3.1291 0.0750351 0
M  V30 3225 C 309.975 -4.56679 0.347632 0
M  V30 3226 N 311.466 -4.62252 0.296131 0
M  V30 3227 C 312.201 -5.71379 0.480948 0
M  V30 3228 N 311.697 -6.88986 0.725933 0
M  V30 3229 N 313.49 -5.60563 0.415435 0
M  V30 3230 H 305.641 -1.79393 1.13718 0
M  V30 3231 H 307.904 -0.832414 0.453643 0
M  V30 3232 H 307.61 -3.32726 1.13958 0
M  V30 3233 H 307.484 -3.72963 -0.563773 0
M  V30 3234 H 309.871 -2.80394 -0.919948 0
M  V30 3235 H 309.952 -2.42736 0.807029 0
M  V30 3236 H 309.596 -4.89907 1.33992 0
M  V30 3237 H 309.526 -5.25039 -0.405212 0
M  V30 3238 H 312.017 -3.7773 0.113259 0
M  V30 3239 H 312.33 -7.68046 0.855857 0
M  V30 3240 H 310.675 -6.90801 0.762788 0
M  V30 3241 H 313.866 -4.67561 0.224486 0
M  V30 3242 H 314.039 -6.45551 0.562889 0
M  V30 3243 N 307.445 0.0818655 -1.57387 0
M  V30 3244 C 308.673 0.796108 -1.9097 0
M  V30 3245 C 309.088 1.71626 -0.786757 0
M  V30 3246 O 308.445 1.80908 0.240513 0
M  V30 3247 C 308.496 1.59829 -3.24248 0
M  V30 3248 O 308.217 0.715131 -4.32224 0
M  V30 3249 C 309.718 2.41442 -3.7178 0
M  V30 3250 H 306.938 0.22691 -0.631469 0
M  V30 3251 H 309.482 0.0551439 -2.04426 0
M  V30 3252 H 307.637 2.29163 -3.12351 0
M  V30 3253 H 308.051 1.27205 -5.08841 0
M  V30 3254 H 309.525 2.932 -4.67694 0
M  V30 3255 H 310.002 3.2051 -3.00283 0
M  V30 3256 H 310.608 1.77283 -3.86589 0
M  V30 3257 N 308.923 1.53595 0.353017 0
M  V30 3258 C 310.334 1.61937 0.929153 0
M  V30 3259 C 310.685 0.494686 1.89861 0
M  V30 3260 O 309.81 -0.377017 2.1309 0
M  V30 3261 C 310.405 2.93526 1.69199 0
M  V30 3262 C 308.964 3.04161 2.21727 0
M  V30 3263 C 308.111 2.57322 1.03348 0
M  V30 3264 H 311.062 1.58155 0.131431 0
M  V30 3265 H 311.083 2.82034 2.55416 0
M  V30 3266 H 310.595 3.75362 0.986144 0
M  V30 3267 H 308.696 2.26938 2.95516 0
M  V30 3268 H 308.809 4.09465 2.48748 0
M  V30 3269 H 307.173 2.12499 1.40414 0
M  V30 3270 H 307.956 3.41588 0.342428 0
M  V30 3271 N 310.401 -0.613514 1.45168 0
M  V30 3272 C 311.678 -1.37263 1.39349 0
M  V30 3273 C 312.058 -2.11012 0.0610848 0
M  V30 3274 O 311.406 -2.07502 -0.956825 0
M  V30 3275 C 311.616 -2.3244 2.60332 0
M  V30 3276 C 312.964 -2.9523 3.05163 0
M  V30 3277 O 313.988 -2.42762 2.60663 0
M  V30 3278 O 312.847 -3.90454 3.82372 0
M  V30 3279 H 309.941 -0.615188 0.552696 0
M  V30 3280 H 312.487 -0.637097 1.57287 0
M  V30 3281 H 311.259 -1.77164 3.48896 0
M  V30 3282 H 310.882 -3.13383 2.44698 0
M  V30 3283 N 311.879 -1.3236 -0.855495 0
M  V30 3284 C 312.829 -1.17809 -1.95205 0
M  V30 3285 C 313.813 -0.0852319 -1.60674 0
M  V30 3286 O 315.005 -0.311651 -1.74235 0
M  V30 3287 C 312.134 -0.902437 -3.31226 0
M  V30 3288 C 311.22 -2.03695 -3.7198 0
M  V30 3289 N 311.611 -3.28544 -3.84568 0
M  V30 3290 C 309.909 -1.93993 -4.016 0
M  V30 3291 C 310.61 -4.02847 -4.19629 0
M  V30 3292 N 309.586 -3.31138 -4.31102 0
M  V30 3293 H 313.388 -2.12462 -2.0307 0
M  V30 3294 H 310.902 -1.24127 -1.0472 0
M  V30 3295 H 312.899 -0.77915 -4.09554 0
M  V30 3296 H 311.559 0.0357267 -3.2468 0
M  V30 3297 H 312.57 -3.6349 -3.68911 0
M  V30 3298 H 309.247 -1.07733 -4.03361 0
M  V30 3299 H 310.637 -5.10506 -4.36845 0
M  V30 3300 N 313.357 1.07166 -1.15556 0
M  V30 3301 C 314.267 2.17947 -0.868116 0
M  V30 3302 C 315.283 1.73297 0.156297 0
M  V30 3303 O 316.459 2.01392 -0.0182327 0
M  V30 3304 C 313.524 3.44789 -0.36355 0
M  V30 3305 C 312.585 4.03996 -1.45209 0
M  V30 3306 C 311.818 5.24783 -0.971508 0
M  V30 3307 O 312.041 5.70109 0.182194 0
M  V30 3308 O 310.975 5.75715 -1.75603 0
M  V30 3309 H 314.801 2.4503 -1.79427 0
M  V30 3310 H 312.386 1.16539 -0.934824 0
M  V30 3311 H 314.268 4.21307 -0.0887113 0
M  V30 3312 H 312.943 3.19253 0.534708 0
M  V30 3313 H 311.85 3.29009 -1.78056 0
M  V30 3314 H 313.183 4.33808 -2.32533 0
M  V30 3315 N 314.835 0.952656 1.25548 0
M  V30 3316 C 316.112 0.523818 1.88456 0
M  V30 3317 C 316.492 -0.998871 1.85973 0
M  V30 3318 O 315.84 -1.86381 1.3219 0
M  V30 3319 C 316.05 1.0982 3.31271 0
M  V30 3320 C 317.398 1.17385 4.08051 0
M  V30 3321 O 318.422 1.04961 3.40384 0
M  V30 3322 O 317.281 1.36852 5.29088 0
M  V30 3323 H 314.375 0.172485 0.808813 0
M  V30 3324 H 316.921 1.04596 1.33633 0
M  V30 3325 H 315.693 2.1415 3.27499 0
M  V30 3326 H 315.316 0.559191 3.93648 0
M  V30 3327 N 316.313 -1.40141 0.720998 0
M  V30 3328 C 317.541 -2.05096 0.272656 0
M  V30 3329 C 317.956 -1.54334 -1.0875 0
M  V30 3330 O 317.313 -0.702211 -1.6845 0
M  V30 3331 C 317.364 -3.60636 0.249835 0
M  V30 3332 O 317.085 -4.09526 1.55629 0
M  V30 3333 C 318.586 -4.42772 -0.216396 0
M  V30 3334 H 315.806 -0.659897 0.121558 0
M  V30 3335 H 318.35 -1.79449 0.980723 0
M  V30 3336 H 316.505 -3.85232 -0.409237 0
M  V30 3337 H 316.919 -5.03758 1.4604 0
M  V30 3338 H 318.393 -5.51702 -0.181212 0
M  V30 3339 H 318.87 -4.20756 -1.25941 0
M  V30 3340 H 319.476 -4.23294 0.412596 0
M  V30 3341 N 317.792 -0.46758 -1.50504 0
M  V30 3342 C 319.039 0.0886219 -2.02306 0
M  V30 3343 C 319.367 1.40037 -1.34981 0
M  V30 3344 O 318.622 1.90136 -0.463318 0
M  V30 3345 C 318.921 0.323995 -3.55928 0
M  V30 3346 C 318.587 -0.905618 -4.41712 0
M  V30 3347 C 317.249 -1.24275 -4.64875 0
M  V30 3348 C 319.601 -1.72448 -4.91845 0
M  V30 3349 C 316.929 -2.39888 -5.35417 0
M  V30 3350 C 319.281 -2.87185 -5.63656 0
M  V30 3351 C 317.945 -3.21317 -5.85074 0
M  V30 3352 H 317.215 0.0324291 -0.74029 0
M  V30 3353 H 319.862 -0.620945 -1.81153 0
M  V30 3354 H 318.167 1.11577 -3.75577 0
M  V30 3355 H 319.864 0.76826 -3.93572 0
M  V30 3356 H 316.454 -0.632956 -4.239 0
M  V30 3357 H 320.638 -1.4772 -4.73806 0
M  V30 3358 H 315.894 -2.66611 -5.50208 0
M  V30 3359 H 320.068 -3.50985 -6.01484 0
M  V30 3360 H 317.695 -4.1101 -6.39511 0
M  V30 3361 N 319.27 1.56325 -0.20005 0
M  V30 3362 C 320.517 1.97719 0.437411 0
M  V30 3363 C 320.845 1.08709 1.61284 0
M  V30 3364 O 320.1 0.127261 1.95286 0
M  V30 3365 C 320.399 3.4495 0.935103 0
M  V30 3366 C 320.065 4.5072 -0.12749 0
M  V30 3367 C 318.727 4.79368 -0.419451 0
M  V30 3368 C 321.079 5.14268 -0.847231 0
M  V30 3369 C 318.407 5.68854 -1.43604 0
M  V30 3370 C 320.759 6.04852 -1.85301 0
M  V30 3371 C 319.423 6.31855 -2.15211 0
M  V30 3372 H 318.693 0.723507 0.16006 0
M  V30 3373 H 321.34 1.89166 -0.298056 0
M  V30 3374 H 319.645 3.50599 1.74894 0
M  V30 3375 H 321.342 3.74337 1.43781 0
M  V30 3376 H 317.932 4.28458 0.11023 0
M  V30 3377 H 322.116 4.92222 -0.634901 0
M  V30 3378 H 317.372 5.88047 -1.67364 0
M  V30 3379 H 321.546 6.53152 -2.41591 0
M  V30 3380 H 319.173 7.00994 -2.94129 0
M  V30 3381 N 320.748 -0.0735177 1.57428 0
M  V30 3382 C 322.164 -0.428264 1.53747 0
M  V30 3383 C 322.364 -1.79272 0.91998 0
M  V30 3384 O 321.42 -2.47051 0.521745 0
M  V30 3385 C 322.733 -0.370914 2.98404 0
M  V30 3386 C 324.281 -0.451224 3.0973 0
M  V30 3387 C 324.756 -0.4238 4.56035 0
M  V30 3388 N 326.247 -0.483925 4.60665 0
M  V30 3389 C 326.982 -0.484891 5.71346 0
M  V30 3390 N 326.478 -0.440775 6.91396 0
M  V30 3391 N 328.271 -0.531319 5.59583 0
M  V30 3392 H 320.422 0.819949 1.95935 0
M  V30 3393 H 322.685 0.307493 0.896745 0
M  V30 3394 H 322.391 0.564956 3.47133 0
M  V30 3395 H 322.265 -1.18176 3.5821 0
M  V30 3396 H 324.652 -1.37752 2.60976 0
M  V30 3397 H 324.733 0.388167 2.52838 0
M  V30 3398 H 324.377 0.498638 5.05446 0
M  V30 3399 H 324.307 -1.2807 5.10789 0
M  V30 3400 H 326.798 -0.522338 3.74273 0
M  V30 3401 H 327.111 -0.44539 7.71515 0
M  V30 3402 H 325.456 -0.40749 6.93804 0
M  V30 3403 H 328.647 -0.563464 4.64696 0
M  V30 3404 H 328.82 -0.528603 6.4584 0
M  V30 3405 N 322.226 -1.5378 -0.344866 0
M  V30 3406 C 323.503 -1.61589 -1.10219 0
M  V30 3407 C 323.883 -0.436316 -2.06542 0
M  V30 3408 O 323.231 0.571543 -2.21237 0
M  V30 3409 C 323.441 -2.97602 -1.82301 0
M  V30 3410 C 324.789 -3.5291 -2.36093 0
M  V30 3411 O 325.813 -2.99768 -1.924 0
M  V30 3412 O 324.672 -4.45859 -3.16026 0
M  V30 3413 H 321.766 -0.653522 -0.506792 0
M  V30 3414 H 324.312 -1.66126 -0.346465 0
M  V30 3415 H 323.084 -3.74893 -1.12121 0
M  V30 3416 H 322.707 -2.9665 -2.64735 0
M  V30 3417 N 323.704 0.605807 -1.45491 0
M  V30 3418 C 324.634 1.72709 -1.57143 0
M  V30 3419 C 325.615 1.6476 -0.422884 0
M  V30 3420 O 326.8 1.83132 -0.646247 0
M  V30 3421 C 323.93 3.11316 -1.53948 0
M  V30 3422 C 322.884 3.34077 -2.67537 0
M  V30 3423 C 322.21 4.72975 -2.49397 0
M  V30 3424 C 323.51 3.24158 -4.09535 0
M  V30 3425 H 325.204 1.63214 -2.51001 0
M  V30 3426 H 322.75 0.78379 -1.208 0
M  V30 3427 H 324.703 3.89557 -1.60696 0
M  V30 3428 H 323.427 3.21655 -0.566205 0
M  V30 3429 H 322.086 2.58227 -2.6022 0
M  V30 3430 H 321.734 4.8005 -1.50205 0
M  V30 3431 H 321.434 4.8916 -3.25571 0
M  V30 3432 H 322.958 5.53414 -2.58002 0
M  V30 3433 H 324.372 3.92271 -4.18086 0
M  V30 3434 H 322.769 3.51872 -4.86113 0
M  V30 3435 H 323.839 2.2157 -4.31317 0
M  V30 3436 N 325.182 1.32811 0.848464 0
M  V30 3437 C 326.428 1.23907 1.60546 0
M  V30 3438 C 326.761 -0.197161 1.93197 0
M  V30 3439 O 326.036 -1.13596 1.5788 0
M  V30 3440 C 326.319 2.10489 2.92175 0
M  V30 3441 C 326.172 3.62522 2.66266 0
M  V30 3442 C 327.491 1.97075 3.93509 0
M  V30 3443 H 324.61 0.451459 0.58254 0
M  V30 3444 H 327.252 1.62818 0.979296 0
M  V30 3445 H 325.402 1.77434 3.45614 0
M  V30 3446 H 327.074 4.05821 2.19334 0
M  V30 3447 H 325.317 3.84879 2.00126 0
M  V30 3448 H 325.988 4.18437 3.6002 0
M  V30 3449 H 328.464 2.26045 3.49346 0
M  V30 3450 H 327.34 2.59923 4.83457 0
M  V30 3451 H 327.601 0.940186 4.31987 0
M  V30 3452 N 326.66 -1.06551 1.16123 0
M  V30 3453 C 327.908 -1.78947 0.939267 0
M  V30 3454 C 328.229 -1.87532 -0.534476 0
M  V30 3455 O 327.499 -1.38211 -1.38833 0
M  V30 3456 H 326.079 -0.662807 0.344523 0
M  V30 3457 H 328.741 -1.28725 1.46342 0
M  V30 3458 H 327.837 -2.81117 1.35572 0
M  V30 3459 N 328.138 -0.959301 -1.25041 0
M  V30 3460 C 329.368 -0.63303 -1.96663 0
M  V30 3461 C 329.776 0.800031 -1.71453 0
M  V30 3462 O 329.119 1.54736 -0.99008 0
M  V30 3463 C 329.181 -0.817523 -3.50081 0
M  V30 3464 C 328.845 -2.22863 -3.98975 0
M  V30 3465 C 329.842 -3.20569 -4.09306 0
M  V30 3466 C 327.527 -2.55407 -4.32519 0
M  V30 3467 C 329.521 -4.4891 -4.52503 0
M  V30 3468 C 327.208 -3.83976 -4.754 0
M  V30 3469 C 328.206 -4.8054 -4.85356 0
M  V30 3470 O 327.894 -6.06817 -5.27284 0
M  V30 3471 H 327.626 -0.235866 -0.633516 0
M  V30 3472 H 330.18 -1.2874 -1.60047 0
M  V30 3473 H 328.41 -0.105992 -3.86555 0
M  V30 3474 H 330.099 -0.491604 -4.02912 0
M  V30 3475 H 330.865 -2.96753 -3.83618 0
M  V30 3476 H 326.744 -1.8097 -4.23994 0
M  V30 3477 H 330.288 -5.24283 -4.60188 0
M  V30 3478 H 326.185 -4.07596 -5.00535 0
M  V30 3479 H 326.953 -6.10262 -5.45457 0
M  V30 3480 N 329.616 1.39756 -0.72842 0
M  V30 3481 C 330.841 2.05472 -0.282159 0
M  V30 3482 C 331.266 1.54549 1.07221 0
M  V30 3483 O 330.624 0.686372 1.67805 0
M  V30 3484 C 330.672 3.59462 -0.286264 0
M  V30 3485 O 329.776 4.05918 0.728298 0
M  V30 3486 H 329.117 0.651226 -0.129618 0
M  V30 3487 H 331.647 1.78915 -0.992499 0
M  V30 3488 H 331.657 4.07798 -0.128373 0
M  V30 3489 H 330.332 3.95889 -1.27456 0
M  V30 3490 H 328.909 3.69012 0.537081 0
M  V30 3491 N 331.094 0.475555 1.50254 0
M  V30 3492 C 332.343 -0.0795996 2.01543 0
M  V30 3493 C 332.656 -1.4038 1.36209 0
M  V30 3494 O 333.862 -2.04415 1.7868 0
M  V30 3495 C 332.318 -0.192363 3.59386 0
M  V30 3496 C 331.926 1.12367 4.33679 0
M  V30 3497 C 333.67 -0.699238 4.18701 0
M  V30 3498 C 331.577 0.974453 5.83317 0
M  V30 3499 H 330.507 -0.0335228 0.753254 0
M  V30 3500 H 333.158 0.611128 1.73025 0
M  V30 3501 H 331.54 -0.946974 3.84511 0
M  V30 3502 H 332.714 1.88958 4.20276 0
M  V30 3503 H 331.029 1.562 3.85993 0
M  V30 3504 H 333.626 -0.827978 5.28251 0
M  V30 3505 H 333.969 -1.69171 3.80377 0
M  V30 3506 H 334.502 -0.00188807 3.978 0
M  V30 3507 H 331.241 1.94042 6.26121 0
M  V30 3508 H 330.761 0.248998 5.99283 0
M  V30 3509 H 332.44 0.642867 6.43798 0
M  V30 3510 N 332.573 -1.56217 0.208337 0
M  V30 3511 C 333.821 -1.97558 -0.426076 0
M  V30 3512 C 334.142 -1.09683 -1.61229 0
M  V30 3513 O 333.412 -0.170956 -1.95153 0
M  V30 3514 H 331.992 -0.729575 -0.160405 0
M  V30 3515 H 334.654 -1.92606 0.298155 0
M  V30 3516 H 333.75 -3.02672 -0.761312 0
M  V30 3517 N 334.051 0.0651679 -1.57465 0
M  V30 3518 C 335.279 0.775808 -1.91804 0
M  V30 3519 C 335.694 1.70782 -0.804916 0
M  V30 3520 O 335.051 1.81153 0.221311 0
M  V30 3521 C 335.102 1.56381 -3.25925 0
M  V30 3522 O 334.823 0.669248 -4.32958 0
M  V30 3523 C 336.324 2.37485 -3.7432 0
M  V30 3524 H 333.544 0.2202 -0.63384 0
M  V30 3525 H 336.088 0.0334587 -2.04473 0
M  V30 3526 H 334.243 2.25837 -3.14764 0
M  V30 3527 H 334.657 1.21801 -5.10162 0
M  V30 3528 H 336.131 2.88223 -4.70778 0
M  V30 3529 H 336.608 3.17307 -3.03666 0
M  V30 3530 H 337.214 1.73173 -3.88447 0
M  V30 3531 N 335.529 1.53961 0.336706 0
M  V30 3532 C 336.459 1.85417 1.41925 0
M  V30 3533 C 337.44 0.709856 1.5458 0
M  V30 3534 O 338.625 0.962396 1.68676 0
M  V30 3535 C 335.755 2.06985 2.78881 0
M  V30 3536 C 334.709 3.22813 2.81026 0
M  V30 3537 C 334.035 3.29727 4.20932 0
M  V30 3538 C 335.335 4.60767 2.45949 0
M  V30 3539 H 337.029 2.76079 1.15848 0
M  V30 3540 H 334.575 1.32839 0.555859 0
M  V30 3541 H 336.528 2.27575 3.54665 0
M  V30 3542 H 335.252 1.13061 3.06406 0
M  V30 3543 H 333.911 3.0209 2.07695 0
M  V30 3544 H 333.559 2.33385 4.45579 0
M  V30 3545 H 333.259 4.07566 4.23277 0
M  V30 3546 H 334.783 3.52536 4.98549 0
M  V30 3547 H 336.197 4.81325 3.11446 0
M  V30 3548 H 334.594 5.4106 2.59566 0
M  V30 3549 H 335.664 4.6391 1.41122 0
M  V30 3550 N 337.007 -0.598083 1.45811 0
M  V30 3551 C 338.255 -1.35413 1.50026 0
M  V30 3552 C 338.576 -1.94444 0.147177 0
M  V30 3553 O 337.846 -1.77701 -0.824571 0
M  V30 3554 H 336.426 -0.502727 0.552517 0
M  V30 3555 H 339.088 -0.701606 1.81834 0
M  V30 3556 H 338.184 -2.16871 2.2444 0
M  V30 3557 N 338.485 -1.33259 -0.841409 0
M  V30 3558 C 339.734 -1.23921 -1.59143 0
M  V30 3559 C 340.047 0.1941 -1.94635 0
M  V30 3560 O 341.253 0.409474 -2.68394 0
M  V30 3561 C 339.709 -2.17119 -2.87032 0
M  V30 3562 C 339.317 -3.65606 -2.58914 0
M  V30 3563 C 341.061 -2.16648 -3.65053 0
M  V30 3564 C 338.968 -4.50726 -3.82884 0
M  V30 3565 H 337.898 -0.460264 -0.597221 0
M  V30 3566 H 340.549 -1.58307 -0.927959 0
M  V30 3567 H 338.931 -1.75663 -3.54906 0
M  V30 3568 H 340.105 -4.15487 -1.99267 0
M  V30 3569 H 338.42 -3.68341 -1.942 0
M  V30 3570 H 341.017 -2.77474 -4.57069 0
M  V30 3571 H 341.36 -1.16088 -3.99787 0
M  V30 3572 H 341.893 -2.56453 -3.041 0
M  V30 3573 H 338.632 -5.52151 -3.53283 0
M  V30 3574 H 338.152 -4.0559 -4.41879 0
M  V30 3575 H 339.831 -4.64401 -4.50489 0
M  V30 3576 N 339.963 1.05934 -1.16686 0
M  V30 3577 C 340.913 2.11764 -0.844978 0
M  V30 3578 C 341.897 1.59922 0.177178 0
M  V30 3579 O 343.089 1.76983 -0.0241768 0
M  V30 3580 C 340.218 3.41493 -0.351812 0
M  V30 3581 C 339.304 4.00152 -1.40496 0
M  V30 3582 N 339.695 4.32874 -2.61636 0
M  V30 3583 C 337.993 4.278 -1.26106 0
M  V30 3584 C 338.694 4.79552 -3.29249 0
M  V30 3585 N 337.67 4.79211 -2.56628 0
M  V30 3586 H 341.472 2.34916 -1.76612 0
M  V30 3587 H 338.986 1.23511 -1.05446 0
M  V30 3588 H 340.983 4.16773 -0.102796 0
M  V30 3589 H 339.643 3.19778 0.56322 0
M  V30 3590 H 340.654 4.23109 -2.98663 0
M  V30 3591 H 337.331 4.15511 -0.407081 0
M  V30 3592 H 338.721 5.14045 -4.32675 0
M  V30 3593 N 341.441 0.965919 1.2453 0
M  V30 3594 C 342.857 0.67216 1.44756 0
M  V30 3595 C 343.057 -0.766609 1.86347 0
M  V30 3596 O 342.113 -1.5407 2.00047 0
M  V30 3597 C 343.426 1.65473 2.51076 0
M  V30 3598 C 344.974 1.66716 2.64905 0
M  V30 3599 C 345.449 2.63766 3.74421 0
M  V30 3600 N 346.94 2.62198 3.81846 0
M  V30 3601 C 347.675 3.33966 4.66106 0
M  V30 3602 N 347.171 4.15245 5.54566 0
M  V30 3603 N 348.964 3.22799 4.60171 0
M  V30 3604 H 341.115 1.89553 0.958293 0
M  V30 3605 H 343.378 0.815979 0.482579 0
M  V30 3606 H 343.084 2.68296 2.27399 0
M  V30 3607 H 342.958 1.4261 3.49202 0
M  V30 3608 H 345.345 0.646057 2.87941 0
M  V30 3609 H 345.426 1.93642 1.67142 0
M  V30 3610 H 345.07 3.6601 3.52135 0
M  V30 3611 H 345 2.34121 4.71694 0
M  V30 3612 H 347.491 2.032 3.18619 0
M  V30 3613 H 347.804 4.66898 6.15814 0
M  V30 3614 H 346.149 4.1934 5.54237 0
M  V30 3615 H 349.34 2.58764 3.90075 0
M  V30 3616 H 349.513 3.78994 5.25612 0
M  V30 3617 N 342.919 -1.39368 0.735821 0
M  V30 3618 C 343.849 -2.33234 0.111506 0
M  V30 3619 C 344.83 -1.53954 -0.723334 0
M  V30 3620 O 346.015 -1.82344 -0.668147 0
M  V30 3621 C 343.145 -3.38057 -0.795917 0
M  V30 3622 C 342.099 -4.2795 -0.065172 0
M  V30 3623 C 341.425 -5.23479 -1.08967 0
M  V30 3624 C 342.725 -5.10741 1.09273 0
M  V30 3625 H 344.419 -2.85692 0.895571 0
M  V30 3626 H 341.965 -1.37364 0.432109 0
M  V30 3627 H 343.918 -4.02675 -1.24221 0
M  V30 3628 H 342.642 -2.8404 -1.61211 0
M  V30 3629 H 341.301 -3.64813 0.361511 0
M  V30 3630 H 340.949 -4.65758 -1.89944 0
M  V30 3631 H 340.649 -5.84472 -0.605489 0
M  V30 3632 H 342.173 -5.90974 -1.53565 0
M  V30 3633 H 343.587 -5.68699 0.724841 0
M  V30 3634 H 341.984 -5.8088 1.50659 0
M  V30 3635 H 343.054 -4.45525 1.91404 0
M  V30 3636 N 344.397 -0.483516 -1.5 0
M  V30 3637 C 345.645 0.067027 -2.01989 0
M  V30 3638 C 345.966 1.3909 -1.36671 0
M  V30 3639 O 345.236 1.88978 -0.516152 0
M  V30 3640 H 343.816 0.0277606 -0.746484 0
M  V30 3641 H 346.478 -0.636773 -1.84204 0
M  V30 3642 H 345.574 0.209484 -3.11396 0
M  V30 3643 N 345.875 1.56104 -0.216619 0
M  V30 3644 C 346.805 2.23063 0.690296 0
M  V30 3645 C 347.786 1.20072 1.20485 0
M  V30 3646 O 348.971 1.48643 1.24976 0
M  V30 3647 C 346.101 2.90672 1.90072 0
M  V30 3648 C 345.055 4.00092 1.5202 0
M  V30 3649 C 344.381 4.54972 2.80899 0
M  V30 3650 C 345.681 5.17398 0.71391 0
M  V30 3651 H 347.375 2.99109 0.132038 0
M  V30 3652 H 344.921 1.43866 0.0620664 0
M  V30 3653 H 346.874 3.36204 2.54057 0
M  V30 3654 H 345.598 2.12066 2.48386 0
M  V30 3655 H 344.257 3.55283 0.903839 0
M  V30 3656 H 343.905 3.73102 3.37348 0
M  V30 3657 H 343.605 5.28817 2.56176 0
M  V30 3658 H 345.129 5.0322 3.45836 0
M  V30 3659 H 346.543 5.59342 1.25735 0
M  V30 3660 H 344.94 5.97444 0.563951 0
M  V30 3661 H 346.01 4.84088 -0.280527 0
M  V30 3662 N 347.353 -0.0568162 1.57498 0
M  V30 3663 C 348.283 -1.06593 2.0775 0
M  V30 3664 C 349.264 -1.39448 0.974082 0
M  V30 3665 O 350.449 -1.48815 1.24771 0
M  V30 3666 C 347.579 -2.37509 2.5339 0
M  V30 3667 C 346.533 -2.1897 3.67745 0
M  V30 3668 C 345.859 -3.55402 3.99492 0
M  V30 3669 C 347.159 -1.59859 4.97235 0
M  V30 3670 H 348.853 -0.647706 2.9231 0
M  V30 3671 H 346.399 -0.310116 1.40621 0
M  V30 3672 H 348.352 -3.08409 2.87162 0
M  V30 3673 H 347.076 -2.8134 1.65878 0
M  V30 3674 H 345.735 -1.50508 3.3428 0
M  V30 3675 H 345.383 -3.9683 3.09088 0
M  V30 3676 H 345.083 -3.43831 4.76502 0
M  V30 3677 H 346.607 -4.27708 4.35773 0
M  V30 3678 H 348.021 -2.20642 5.29141 0
M  V30 3679 H 346.418 -1.58942 5.78669 0
M  V30 3680 H 347.488 -0.561506 4.81638 0
M  V30 3681 N 348.832 -1.54138 -0.328536 0
M  V30 3682 C 349.762 -1.86167 -1.40939 0
M  V30 3683 C 350.743 -0.718044 -1.54202 0
M  V30 3684 O 351.928 -0.971328 -1.68163 0
M  V30 3685 C 349.058 -2.08461 -2.77779 0
M  V30 3686 C 348.012 -3.24299 -2.7931 0
M  V30 3687 C 347.338 -3.31955 -4.19178 0
M  V30 3688 C 348.638 -4.62065 -2.43502 0
M  V30 3689 H 350.332 -2.76689 -1.14383 0
M  V30 3690 H 347.878 -1.33132 -0.548806 0
M  V30 3691 H 349.831 -2.29453 -3.53454 0
M  V30 3692 H 348.555 -1.14684 -3.05802 0
M  V30 3693 H 347.214 -3.03187 -2.0609 0
M  V30 3694 H 346.862 -2.35745 -4.44335 0
M  V30 3695 H 346.562 -4.09805 -4.2111 0
M  V30 3696 H 348.086 -3.55175 -4.96672 0
M  V30 3697 H 349.5 -4.8297 -3.08889 0
M  V30 3698 H 347.897 -5.42429 -2.56693 0
M  V30 3699 H 348.967 -4.64652 -1.38659 0
M  V30 3700 N 350.31 0.590341 -1.46126 0
M  V30 3701 C 351.535 1.37991 -1.54833 0
M  V30 3702 C 351.96 1.87163 -0.187506 0
M  V30 3703 O 351.318 1.61133 0.831008 0
M  V30 3704 C 351.366 2.54867 -2.55098 0
M  V30 3705 O 350.47 3.56061 -2.08073 0
M  V30 3706 H 349.811 0.411265 -0.521303 0
M  V30 3707 H 352.341 0.716819 -1.91632 0
M  V30 3708 H 352.351 3.01886 -2.74461 0
M  V30 3709 H 351.026 2.18429 -3.53923 0
M  V30 3710 H 349.603 3.15574 -1.98664 0
M  V30 3711 N 351.788 1.33704 0.83433 0
M  V30 3712 C 352.718 1.26967 1.95963 0
M  V30 3713 C 353.699 0.149337 1.69443 0
M  V30 3714 O 354.884 0.339852 1.91203 0
M  V30 3715 C 352.014 1.01275 3.32206 0
M  V30 3716 C 350.968 2.09652 3.73136 0
M  V30 3717 C 350.294 1.69166 5.07235 0
M  V30 3718 C 351.594 3.51372 3.86439 0
M  V30 3719 H 353.288 2.2112 2.01857 0
M  V30 3720 H 350.834 1.06447 0.969793 0
M  V30 3721 H 352.787 0.952106 4.10503 0
M  V30 3722 H 351.511 0.0356203 3.26581 0
M  V30 3723 H 350.17 2.14766 2.97104 0
M  V30 3724 H 349.818 0.701437 4.98085 0
M  V30 3725 H 349.518 2.41694 5.35591 0
M  V30 3726 H 351.042 1.64576 5.88003 0
M  V30 3727 H 352.456 3.48734 4.55036 0
M  V30 3728 H 350.853 4.22425 4.26236 0
M  V30 3729 H 351.923 3.89546 2.88759 0
M  V30 3730 N 353.266 -1.05314 1.17247 0
M  V30 3731 C 354.491 -1.82509 0.985148 0
M  V30 3732 C 354.916 -1.82343 -0.461788 0
M  V30 3733 O 354.274 -1.23151 -1.33055 0
M  V30 3734 C 354.322 -3.26566 1.52929 0
M  V30 3735 O 353.426 -4.05666 0.742225 0
M  V30 3736 H 352.767 -0.564347 0.349869 0
M  V30 3737 H 355.297 -1.32718 1.55715 0
M  V30 3738 H 355.307 -3.77369 1.55103 0
M  V30 3739 H 353.982 -3.26001 2.58256 0
M  V30 3740 H 352.559 -3.64397 0.791794 0
M  V30 3741 N 354.744 -0.972509 -1.24016 0
M  V30 3742 C 355.707 -0.511403 -2.23422 0
M  V30 3743 C 356.707 0.394679 -1.55881 0
M  V30 3744 O 357.897 0.189469 -1.73167 0
M  V30 3745 C 355.029 0.258769 -3.39916 0
M  V30 3746 H 356.222 -1.39024 -2.6573 0
M  V30 3747 H 353.775 -0.757585 -1.36713 0
M  V30 3748 H 354.51 1.1545 -3.03054 0
M  V30 3749 H 354.295 -0.391522 -3.9014 0
M  V30 3750 H 355.785 0.570244 -4.13688 0
M  V30 3751 N 356.222 1.38976 -0.743202 0
M  V30 3752 C 357.468 2.0064 -0.295189 0
M  V30 3753 C 357.801 1.5885 1.11716 0
M  V30 3754 O 357.076 0.821181 1.76315 0
M  V30 3755 C 357.359 3.578 -0.406318 0
M  V30 3756 C 357.212 4.09586 -1.85903 0
M  V30 3757 C 358.531 4.39616 0.206439 0
M  V30 3758 H 355.65 0.728935 -0.108733 0
M  V30 3759 H 358.292 1.65067 -0.940897 0
M  V30 3760 H 356.442 3.88235 0.143419 0
M  V30 3761 H 358.114 3.89837 -2.46627 0
M  V30 3762 H 356.357 3.6284 -2.3776 0
M  V30 3763 H 357.028 5.18708 -1.888 0
M  V30 3764 H 359.504 4.15273 -0.262283 0
M  V30 3765 H 358.38 5.48812 0.0983819 0
M  V30 3766 H 358.641 4.22754 1.2935 0
M  V30 3767 N 357.7 0.491464 1.49741 0
M  V30 3768 C 358.947 -0.0564256 2.02421 0
M  V30 3769 C 359.275 -1.37872 1.37192 0
M  V30 3770 O 358.53 -1.89375 0.493508 0
M  V30 3771 C 358.829 -0.267329 3.56399 0
M  V30 3772 C 358.495 0.975775 4.40215 0
M  V30 3773 C 357.157 1.31655 4.62839 0
M  V30 3774 C 359.509 1.80251 4.89039 0
M  V30 3775 C 356.837 2.48375 5.31532 0
M  V30 3776 C 359.189 2.96116 5.59015 0
M  V30 3777 C 357.853 3.30585 5.79888 0
M  V30 3778 H 357.123 -0.0206476 0.740712 0
M  V30 3779 H 359.77 0.649686 1.80143 0
M  V30 3780 H 358.075 -1.05588 3.77304 0
M  V30 3781 H 359.772 -0.705549 3.94744 0
M  V30 3782 H 356.362 0.700315 4.2284 0
M  V30 3783 H 360.546 1.55239 4.71396 0
M  V30 3784 H 355.802 2.7533 5.45897 0
M  V30 3785 H 359.976 3.60509 5.95824 0
M  V30 3786 H 357.603 4.21132 6.32892 0
M  V30 3787 N 359.178 -1.55987 0.224894 0
M  V30 3788 C 360.425 -1.9839 -0.4059 0
M  V30 3789 C 360.753 -1.11261 -1.59535 0
M  V30 3790 O 360.008 -0.158314 -1.95059 0
M  V30 3791 C 360.307 -3.46394 -0.880106 0
M  V30 3792 C 359.973 -4.5046 0.19918 0
M  V30 3793 C 358.635 -4.7864 0.495661 0
M  V30 3794 C 360.987 -5.12855 0.928939 0
M  V30 3795 C 358.315 -5.66497 1.52636 0
M  V30 3796 C 360.667 -6.01828 1.949 0
M  V30 3797 C 359.331 -6.28351 2.25236 0
M  V30 3798 H 358.601 -0.725961 -0.148529 0
M  V30 3799 H 361.248 -1.88668 0.328113 0
M  V30 3800 H 359.553 -3.53337 -1.69294 0
M  V30 3801 H 361.25 -3.76577 -1.37808 0
M  V30 3802 H 357.84 -4.28579 -0.0420526 0
M  V30 3803 H 362.024 -4.9115 0.713129 0
M  V30 3804 H 357.28 -5.8531 1.76698 0
M  V30 3805 H 361.454 -6.49225 2.51951 0
M  V30 3806 H 359.081 -6.96226 3.05244 0
M  V30 3807 N 360.656 0.0484629 -1.57525 0
M  V30 3808 C 361.881 0.759177 -1.93006 0
M  V30 3809 C 362.306 1.69125 -0.823317 0
M  V30 3810 O 361.664 1.79931 0.222364 0
M  V30 3811 C 361.712 1.50899 -3.27509 0
M  V30 3812 O 360.816 2.62112 -3.18388 0
M  V30 3813 H 360.157 0.205564 -0.631379 0
M  V30 3814 H 362.687 0.00972959 -2.04598 0
M  V30 3815 H 362.697 1.88317 -3.6194 0
M  V30 3816 H 361.372 0.825269 -4.0763 0
M  V30 3817 H 359.949 2.27379 -2.95556 0
M  V30 3818 N 362.134 1.5431 0.320358 0
M  V30 3819 C 363.097 1.83195 1.3774 0
M  V30 3820 C 364.097 0.703906 1.44575 0
M  V30 3821 O 365.287 0.972214 1.44546 0
M  V30 3822 C 362.419 1.99487 2.76438 0
M  V30 3823 H 363.612 2.77642 1.1338 0
M  V30 3824 H 361.165 1.46076 0.556012 0
M  V30 3825 H 361.9 1.07262 3.06048 0
M  V30 3826 H 361.685 2.81575 2.7287 0
M  V30 3827 H 363.175 2.23271 3.52902 0
M  V30 3828 N 363.613 -0.582584 1.46437 0
M  V30 3829 C 364.543 -1.70187 1.59871 0
M  V30 3830 C 365.524 -1.64066 0.449042 0
M  V30 3831 O 366.709 -1.82081 0.6753 0
M  V30 3832 C 363.839 -3.08827 1.58881 0
M  V30 3833 C 362.793 -3.29779 2.72819 0
M  V30 3834 C 362.119 -4.68947 2.5689 0
M  V30 3835 C 363.419 -3.17601 4.1464 0
M  V30 3836 H 365.113 -1.592 2.53566 0
M  V30 3837 H 362.659 -0.764472 1.22032 0
M  V30 3838 H 364.612 -3.86951 1.66873 0
M  V30 3839 H 363.336 -3.20713 0.617306 0
M  V30 3840 H 361.995 -2.54054 2.64296 0
M  V30 3841 H 361.643 -4.77599 1.57823 0
M  V30 3842 H 361.343 -4.83919 3.33312 0
M  V30 3843 H 362.867 -5.4924 2.66773 0
M  V30 3844 H 364.281 -3.8557 4.24274 0
M  V30 3845 H 362.678 -3.44094 4.9165 0
M  V30 3846 H 363.748 -2.14681 4.34788 0
M  V30 3847 N 365.091 -1.34144 -0.827227 0
M  V30 3848 C 366.331 -1.27603 -1.59677 0
M  V30 3849 C 366.695 0.153035 -1.91389 0
M  V30 3850 O 367.896 0.342566 -2.66608 0
M  V30 3851 C 366.167 -2.13784 -2.86411 0
M  V30 3852 S 367.726 -2.24552 -3.76991 0
M  V30 3853 H 364.544 -0.453789 -0.547354 0
M  V30 3854 H 367.146 -1.69309 -0.977479 0
M  V30 3855 H 365.85 -3.16627 -2.61104 0
M  V30 3856 H 365.381 -1.72959 -3.5334 0
M  V30 3857 H 367.396 -1.41514 -4.75593 0
M  V30 3858 N 366.569 1.04691 -1.17803 0
M  V30 3859 C 367.502 2.12068 -0.842765 0
M  V30 3860 C 368.48 1.61455 0.192608 0
M  V30 3861 O 369.664 1.88359 0.072995 0
M  V30 3862 C 366.791 3.37715 -0.258063 0
M  V30 3863 C 365.837 4.07164 -1.26962 0
M  V30 3864 S 366.67 4.55047 -2.82299 0
M  V30 3865 C 367.826 5.83935 -2.25323 0
M  V30 3866 H 368.059 2.4018 -1.75217 0
M  V30 3867 H 365.592 1.17366 -1.00323 0
M  V30 3868 H 367.55 4.10435 0.0727935 0
M  V30 3869 H 366.211 3.0773 0.629357 0
M  V30 3870 H 365.404 4.9746 -0.809263 0
M  V30 3871 H 365.006 3.40533 -1.54639 0
M  V30 3872 H 367.298 6.57552 -1.63192 0
M  V30 3873 H 368.241 6.34725 -3.13894 0
M  V30 3874 H 368.649 5.3874 -1.68582 0
M  V30 3875 N 368.047 0.979072 1.23499 0
M  V30 3876 C 369.296 0.642751 1.91185 0
M  V30 3877 C 369.609 -0.827253 1.77245 0
M  V30 3878 O 370.815 -1.27458 2.39722 0
M  V30 3879 C 369.271 1.09901 3.42709 0
M  V30 3880 C 368.879 2.59327 3.65313 0
M  V30 3881 C 370.623 0.836371 4.16179 0
M  V30 3882 C 368.53 2.98627 5.10467 0
M  V30 3883 H 367.46 0.236698 0.715884 0
M  V30 3884 H 370.111 1.1868 1.39955 0
M  V30 3885 H 368.493 0.48319 3.93041 0
M  V30 3886 H 369.667 3.26136 3.25533 0
M  V30 3887 H 367.982 2.83323 3.05151 0
M  V30 3888 H 370.579 1.10586 5.23139 0
M  V30 3889 H 370.922 -0.227509 4.15678 0
M  V30 3890 H 371.455 1.41371 3.71832 0
M  V30 3891 H 368.194 4.04133 5.16098 0
M  V30 3892 H 367.714 2.3651 5.51201 0
M  V30 3893 H 369.393 2.89159 5.78788 0
M  V30 3894 N 369.525 -1.3858 0.750561 0
M  V30 3895 C 370.774 -1.99424 0.302172 0
M  V30 3896 C 371.087 -1.60254 -1.12152 0
M  V30 3897 O 372.293 -2.14046 -1.67023 0
M  V30 3898 C 370.749 -3.56558 0.489307 0
M  V30 3899 C 370.357 -4.04682 1.92189 0
M  V30 3900 C 372.101 -4.24374 0.103478 0
M  V30 3901 C 370.008 -5.54446 2.05775 0
M  V30 3902 H 368.938 -0.746046 0.10923 0
M  V30 3903 H 371.589 -1.58383 0.92667 0
M  V30 3904 H 369.971 -3.95472 -0.204329 0
M  V30 3905 H 371.145 -3.77065 2.64875 0
M  V30 3906 H 369.46 -3.4958 2.26236 0
M  V30 3907 H 372.057 -5.34384 0.183787 0
M  V30 3908 H 372.4 -4.05468 -0.943481 0
M  V30 3909 H 372.933 -3.90688 0.748854 0
M  V30 3910 H 369.672 -5.78252 3.08714 0
M  V30 3911 H 369.192 -5.83816 1.37546 0
M  V30 3912 H 370.871 -6.20099 1.84626 0
M  V30 3913 N 371.003 -0.499398 -1.49478 0
M  V30 3914 C 372.231 0.0425456 -2.06856 0
M  V30 3915 C 372.646 1.30964 -1.35992 0
M  V30 3916 O 372.003 1.77172 -0.437762 0
M  V30 3917 C 372.054 0.301735 -3.60239 0
M  V30 3918 O 371.775 -0.915127 -4.28436 0
M  V30 3919 C 373.276 0.887499 -4.34325 0
M  V30 3920 H 370.496 -0.0197482 -0.670709 0
M  V30 3921 H 373.04 -0.696297 -1.92281 0
M  V30 3922 H 371.195 0.990556 -3.74522 0
M  V30 3923 H 371.609 -0.676993 -5.20113 0
M  V30 3924 H 373.083 1.01845 -5.42523 0
M  V30 3925 H 373.56 1.88488 -3.96698 0
M  V30 3926 H 374.166 0.236196 -4.24644 0
M  V30 3927 N 372.481 1.55866 -0.233164 0
M  V30 3928 C 373.729 1.9821 0.394593 0
M  V30 3929 C 374.05 1.12234 1.59463 0
M  V30 3930 O 373.32 0.201981 1.94856 0
M  V30 3931 H 371.9 0.732034 0.148778 0
M  V30 3932 H 374.562 1.92107 -0.32876 0
M  V30 3933 H 373.658 3.03845 0.713063 0
M  V30 3934 N 373.959 -0.0401083 1.57549 0
M  V30 3935 C 375.187 -0.745196 1.93014 0
M  V30 3936 C 375.602 -1.6948 0.831984 0
M  V30 3937 O 374.959 -1.81482 -0.192463 0
M  V30 3938 C 375.01 -1.51176 3.28372 0
M  V30 3939 O 374.731 -0.600284 4.33968 0
M  V30 3940 C 376.232 -2.315 3.78051 0
M  V30 3941 H 373.452 -0.210088 0.637263 0
M  V30 3942 H 375.996 -0.000924689 2.045 0
M  V30 3943 H 374.151 -2.20801 3.18317 0
M  V30 3944 H 374.565 -1.13669 5.12035 0
M  V30 3945 H 376.039 -2.80697 4.75303 0
M  V30 3946 H 376.516 -3.12436 3.08675 0
M  V30 3947 H 377.122 -1.66971 3.91153 0
M  V30 3948 N 375.437 -1.54477 -0.31217 0
M  V30 3949 C 376.686 -1.72438 -1.04633 0
M  V30 3950 C 376.999 -0.511163 -1.88803 0
M  V30 3951 O 378.205 -0.572341 -2.65399 0
M  V30 3952 C 376.661 -3.05043 -1.9099 0
M  V30 3953 C 376.269 -4.33806 -1.11877 0
M  V30 3954 C 378.013 -3.32364 -2.64073 0
M  V30 3955 C 375.92 -5.57467 -1.97445 0
M  V30 3956 H 374.85 -0.642647 -0.394361 0
M  V30 3957 H 377.501 -1.80966 -0.303929 0
M  V30 3958 H 375.883 -2.90451 -2.69173 0
M  V30 3959 H 377.057 -4.59199 -0.383843 0
M  V30 3960 H 375.372 -4.13336 -0.504252 0
M  V30 3961 H 377.969 -4.21951 -3.28423 0
M  V30 3962 H 378.312 -2.50745 -3.32314 0
M  V30 3963 H 378.845 -3.47875 -1.92944 0
M  V30 3964 H 375.584 -6.41722 -1.33692 0
M  V30 3965 H 375.104 -5.36277 -2.6864 0
M  V30 3966 H 376.783 -5.94303 -2.5576 0
M  V30 3967 N 376.915 0.57481 -1.46744 0
M  V30 3968 C 378.161 1.33251 -1.53674 0
M  V30 3969 C 378.516 1.91468 -0.189125 0
M  V30 3970 O 377.809 1.73954 0.803151 0
M  V30 3971 C 378.003 2.476 -2.57738 0
M  V30 3972 C 377.832 2.00586 -4.02487 0
M  V30 3973 C 376.602 1.85237 -4.70123 0
M  V30 3974 C 378.8 1.56078 -4.90045 0
M  V30 3975 N 376.782 1.32377 -5.99458 0
M  V30 3976 C 378.153 1.14863 -6.09267 0
M  V30 3977 C 380.208 1.43968 -4.76632 0
M  V30 3978 C 378.911 0.627435 -7.16558 0
M  V30 3979 C 380.937 0.932512 -5.84002 0
M  V30 3980 C 380.299 0.53019 -7.02402 0
M  V30 3981 H 376.398 0.480284 -0.617131 0
M  V30 3982 H 378.982 0.653592 -1.83402 0
M  V30 3983 H 377.153 3.13045 -2.29907 0
M  V30 3984 H 378.885 3.14567 -2.54616 0
M  V30 3985 H 375.64 2.07423 -4.25761 0
M  V30 3986 H 376.064 1.08085 -6.68316 0
M  V30 3987 H 380.706 1.73689 -3.85476 0
M  V30 3988 H 378.424 0.317821 -8.07475 0
M  V30 3989 H 382.01 0.842611 -5.75666 0
M  V30 3990 H 380.89 0.14381 -7.84068 0
M  V30 3991 N 378.394 1.34581 0.820102 0
M  V30 3992 C 379.641 1.27096 1.57648 0
M  V30 3993 C 379.969 -0.158317 1.93855 0
M  V30 3994 O 379.224 -1.12028 1.60463 0
M  V30 3995 C 379.523 2.10997 2.8847 0
M  V30 3996 C 379.189 3.59966 2.71543 0
M  V30 3997 C 377.851 4.00575 2.66634 0
M  V30 3998 C 380.203 4.54548 2.55021 0
M  V30 3999 C 377.531 5.33953 2.43128 0
M  V30 4000 C 379.883 5.88109 2.33047 0
M  V30 4001 C 378.547 6.27878 2.26552 0
M  V30 4002 H 377.817 0.465078 0.576874 0
M  V30 4003 H 380.464 1.6635 0.948671 0
M  V30 4004 H 378.769 1.6458 3.55557 0
M  V30 4005 H 380.466 2.0255 3.46084 0
M  V30 4006 H 377.056 3.27733 2.76205 0
M  V30 4007 H 381.24 4.24069 2.57835 0
M  V30 4008 H 376.496 5.63781 2.3656 0
M  V30 4009 H 380.67 6.60985 2.19251 0
M  V30 4010 H 378.297 7.31162 2.081 0
M  V30 4011 N 379.872 -1.04064 1.18357 0
M  V30 4012 C 381.149 -1.74252 0.888581 0
M  V30 4013 C 381.529 -2.02138 -0.60856 0
M  V30 4014 O 380.877 -1.66656 -1.56327 0
M  V30 4015 C 381.087 -3.0277 1.73584 0
M  V30 4016 C 382.435 -3.76506 1.96286 0
M  V30 4017 O 383.459 -3.12668 1.70637 0
M  V30 4018 O 382.318 -4.91243 2.39464 0
M  V30 4019 H 379.412 -0.758271 0.330082 0
M  V30 4020 H 381.958 -1.1013 1.2911 0
M  V30 4021 H 380.73 -2.78299 2.75073 0
M  V30 4022 H 380.353 -3.74631 1.33183 0
M  V30 4023 N 381.35 -0.985608 -1.22978 0
M  V30 4024 C 382.282 -0.488154 -2.23941 0
M  V30 4025 C 383.295 0.41282 -1.57479 0
M  V30 4026 O 384.484 0.216121 -1.77187 0
M  V30 4027 C 381.584 0.312611 -3.37455 0
M  V30 4028 C 380.757 -0.582741 -4.33501 0
M  V30 4029 C 379.816 0.165064 -5.25941 0
M  V30 4030 O 378.842 -0.447077 -5.67442 0
M  V30 4031 N 380.044 1.44953 -5.62111 0
M  V30 4032 H 382.809 -1.3563 -2.67254 0
M  V30 4033 H 380.37 -0.859477 -1.37203 0
M  V30 4034 H 382.362 0.821357 -3.96277 0
M  V30 4035 H 380.932 1.0818 -2.93285 0
M  V30 4036 H 380.152 -1.27225 -3.73105 0
M  V30 4037 H 381.44 -1.19275 -4.94622 0
M  V30 4038 H 380.838 1.9683 -5.30353 0
M  V30 4039 H 379.395 1.90361 -6.23383 0
M  V30 4040 N 382.828 1.3818 -0.7579 0
M  V30 4041 C 384.074 2.0078 -0.325423 0
M  V30 4042 C 384.429 1.59085 1.08211 0
M  V30 4043 O 383.722 0.820394 1.73148 0
M  V30 4044 C 383.916 3.55252 -0.391218 0
M  V30 4045 C 383.745 4.11947 -1.8036 0
M  V30 4046 C 382.515 4.43519 -2.42113 0
M  V30 4047 C 384.713 4.33908 -2.76095 0
M  V30 4048 N 382.695 4.85847 -3.75267 0
M  V30 4049 C 384.066 4.78692 -3.94023 0
M  V30 4050 C 386.121 4.16015 -2.73561 0
M  V30 4051 C 384.824 5.07459 -5.09782 0
M  V30 4052 C 386.85 4.45909 -3.88483 0
M  V30 4053 C 386.212 4.90921 -5.0515 0
M  V30 4054 H 382.311 0.764215 -0.165831 0
M  V30 4055 H 384.895 1.67724 -0.988776 0
M  V30 4056 H 383.066 3.87646 0.241886 0
M  V30 4057 H 384.798 4.04653 0.061989 0
M  V30 4058 H 381.553 4.32113 -1.93842 0
M  V30 4059 H 381.977 5.11339 -4.4369 0
M  V30 4060 H 386.619 3.80399 -1.84544 0
M  V30 4061 H 384.337 5.4197 -5.99412 0
M  V30 4062 H 387.923 4.33666 -3.87847 0
M  V30 4063 H 386.803 5.1361 -5.92599 0
M  V30 4064 N 384.306 0.507319 1.49211 0
M  V30 4065 C 385.552 -0.0350047 2.0277 0
M  V30 4066 C 385.885 -1.3606 1.38569 0
M  V30 4067 O 385.16 -1.87321 0.523542 0
M  V30 4068 C 385.443 -0.180916 3.59645 0
M  V30 4069 C 385.296 1.16825 4.34364 0
M  V30 4070 C 386.615 -0.918558 4.30407 0
M  V30 4071 H 383.734 -0.0112473 0.736914 0
M  V30 4072 H 386.376 0.659956 1.7817 0
M  V30 4073 H 384.526 -0.772826 3.80736 0
M  V30 4074 H 386.198 1.79952 4.24753 0
M  V30 4075 H 384.441 1.75594 3.96673 0
M  V30 4076 H 385.112 1.01939 5.42506 0
M  V30 4077 H 387.588 -0.41649 4.1401 0
M  V30 4078 H 386.464 -0.989505 5.39907 0
M  V30 4079 H 386.725 -1.96373 3.96093 0
M  V30 4080 N 385.784 -1.5574 0.241426 0
M  V30 4081 C 387.061 -1.90704 -0.434881 0
M  V30 4082 C 387.441 -1.16145 -1.76277 0
M  V30 4083 O 386.789 -0.277152 -2.26813 0
M  V30 4084 C 386.999 -3.43657 -0.608343 0
M  V30 4085 C 388.347 -4.14806 -0.906725 0
M  V30 4086 O 389.371 -3.49366 -0.694408 0
M  V30 4087 O 388.23 -5.30548 -1.31075 0
M  V30 4088 H 385.324 -0.793592 -0.23268 0
M  V30 4089 H 387.87 -1.67288 0.285086 0
M  V30 4090 H 386.642 -3.89927 0.327505 0
M  V30 4091 H 386.265 -3.72918 -1.37906 0
M  V30 4092 N 387.262 0.0317525 -1.57568 0
M  V30 4093 C 388.508 0.718712 -1.90279 0
M  V30 4094 C 388.863 1.73108 -0.839727 0
M  V30 4095 O 388.156 1.90997 0.15188 0
M  V30 4096 C 388.35 1.43167 -3.27472 0
M  V30 4097 C 388.179 0.489869 -4.47024 0
M  V30 4098 C 386.949 0.111909 -5.05176 0
M  V30 4099 C 389.147 -0.230592 -5.13783 0
M  V30 4100 N 387.129 -0.831427 -6.08244 0
M  V30 4101 C 388.5 -1.02968 -6.1139 0
M  V30 4102 C 390.555 -0.297821 -4.97008 0
M  V30 4103 C 389.258 -1.88982 -6.9403 0
M  V30 4104 C 391.284 -1.14507 -5.80209 0
M  V30 4105 C 390.646 -1.9321 -6.77384 0
M  V30 4106 H 386.745 0.237177 -0.745165 0
M  V30 4107 H 389.329 -0.0211267 -1.94689 0
M  V30 4108 H 387.5 2.14199 -3.23996 0
M  V30 4109 H 389.232 2.0708 -3.47707 0
M  V30 4110 H 385.987 0.473513 -4.71227 0
M  V30 4111 H 386.411 -1.29752 -6.6445 0
M  V30 4112 H 391.053 0.296346 -4.2176 0
M  V30 4113 H 388.771 -2.4948 -7.68626 0
M  V30 4114 H 392.357 -1.20059 -5.69278 0
M  V30 4115 H 391.237 -2.57711 -7.40645 0
M  V30 4116 N 388.74 1.54641 0.303973 0
M  V30 4117 C 389.986 1.74969 1.03718 0
M  V30 4118 C 390.341 0.527461 1.85029 0
M  V30 4119 O 389.634 -0.480143 1.85486 0
M  V30 4120 C 389.828 2.97753 1.97681 0
M  V30 4121 C 389.657 4.318 1.25613 0
M  V30 4122 C 388.427 4.95616 0.984518 0
M  V30 4123 C 390.625 5.10021 0.662081 0
M  V30 4124 N 388.607 6.13455 0.233794 0
M  V30 4125 C 389.978 6.19984 0.0439736 0
M  V30 4126 C 392.033 4.94663 0.566835 0
M  V30 4127 C 390.736 7.16264 -0.66016 0
M  V30 4128 C 392.762 5.91271 -0.123637 0
M  V30 4129 C 392.124 7.00601 -0.730608 0
M  V30 4130 H 388.223 0.692873 0.362562 0
M  V30 4131 H 390.807 1.92116 0.316135 0
M  V30 4132 H 388.978 2.82036 2.6704 0
M  V30 4133 H 390.71 3.06621 2.64132 0
M  V30 4134 H 387.465 4.55921 1.28191 0
M  V30 4135 H 387.889 6.76879 -0.127996 0
M  V30 4136 H 392.531 4.10267 1.02181 0
M  V30 4137 H 390.249 8.00204 -1.12691 0
M  V30 4138 H 393.835 5.81466 -0.197236 0
M  V30 4139 H 392.715 7.7407 -1.2564 0
M  V30 4140 N 390.218 -0.567019 1.47046 0
M  V30 4141 C 391.15 -1.68985 1.54844 0
M  V30 4142 C 392.163 -1.56869 0.435431 0
M  V30 4143 O 393.352 -1.64006 0.70457 0
M  V30 4144 C 390.452 -3.07373 1.42742 0
M  V30 4145 C 389.625 -3.45339 2.6844 0
M  V30 4146 C 388.684 -4.62849 2.50314 0
M  V30 4147 O 387.71 -4.67922 3.24095 0
M  V30 4148 N 388.912 -5.58726 1.57499 0
M  V30 4149 H 391.677 -1.62745 2.51663 0
M  V30 4150 H 389.238 -0.753411 1.43302 0
M  V30 4151 H 391.23 -3.83803 1.28365 0
M  V30 4152 H 389.8 -3.07893 0.540445 0
M  V30 4153 H 389.02 -2.58455 2.97648 0
M  V30 4154 H 390.308 -3.67476 3.51907 0
M  V30 4155 H 389.706 -5.57376 0.966876 0
M  V30 4156 H 388.263 -6.34523 1.49078 0
M  V30 4157 N 391.696 -1.35014 -0.812953 0
M  V30 4158 C 392.942 -1.29129 -1.57154 0
M  V30 4159 C 393.297 0.134922 -1.91926 0
M  V30 4160 O 392.59 1.08373 -1.58006 0
M  V30 4161 C 392.784 -2.12524 -2.87347 0
M  V30 4162 C 392.613 -3.6311 -2.65294 0
M  V30 4163 C 391.383 -4.32363 -2.61516 0
M  V30 4164 C 393.581 -4.56897 -2.36114 0
M  V30 4165 N 391.563 -5.68735 -2.31113 0
M  V30 4166 C 392.934 -5.81345 -2.15494 0
M  V30 4167 C 394.989 -4.45706 -2.21925 0
M  V30 4168 C 393.692 -6.95862 -1.82122 0
M  V30 4169 C 395.718 -5.60066 -1.89948 0
M  V30 4170 C 395.08 -6.83539 -1.7016 0
M  V30 4171 H 391.179 -0.527764 -0.577052 0
M  V30 4172 H 393.763 -1.6983 -0.952146 0
M  V30 4173 H 391.934 -1.74104 -3.47192 0
M  V30 4174 H 393.666 -1.98207 -3.5284 0
M  V30 4175 H 390.421 -3.84907 -2.75941 0
M  V30 4176 H 390.845 -6.40694 -2.18724 0
M  V30 4177 H 395.487 -3.50855 -2.35925 0
M  V30 4178 H 393.205 -7.90685 -1.6686 0
M  V30 4179 H 396.791 -5.53357 -1.79687 0
M  V30 4180 H 395.671 -7.70531 -1.45777 0
M  V30 4181 N 393.175 1.03435 -1.18907 0
M  V30 4182 C 394.421 1.7713 -0.99982 0
M  V30 4183 C 394.776 1.86695 0.465049 0
M  V30 4184 O 394.069 1.36866 1.34083 0
M  V30 4185 C 394.263 3.19792 -1.59586 0
M  V30 4186 C 394.092 3.24134 -3.11717 0
M  V30 4187 C 392.862 3.32398 -3.80578 0
M  V30 4188 C 395.06 3.11625 -4.09138 0
M  V30 4189 N 393.042 3.26055 -5.20155 0
M  V30 4190 C 394.413 3.12855 -5.35277 0
M  V30 4191 C 396.468 2.95713 -4.00572 0
M  V30 4192 C 395.171 2.99805 -6.53842 0
M  V30 4193 C 397.197 2.84011 -5.1874 0
M  V30 4194 C 396.559 2.8589 -6.43775 0
M  V30 4195 H 392.658 0.659683 -0.419931 0
M  V30 4196 H 395.242 1.2317 -1.50789 0
M  V30 4197 H 393.413 3.72085 -1.11389 0
M  V30 4198 H 395.145 3.81819 -1.3415 0
M  V30 4199 H 391.9 3.38392 -3.31342 0
M  V30 4200 H 392.324 3.26307 -5.93172 0
M  V30 4201 H 396.966 2.93086 -3.0473 0
M  V30 4202 H 394.684 3.01184 -7.49876 0
M  V30 4203 H 398.27 2.72744 -5.13909 0
M  V30 4204 H 397.15 2.76931 -7.33675 0
M  V30 4205 N 394.653 0.992116 1.22453 0
M  V30 4206 C 395.899 0.668523 1.91464 0
M  V30 4207 C 396.232 -0.797313 1.77078 0
M  V30 4208 O 395.507 -1.5765 1.13916 0
M  V30 4209 C 395.79 1.07424 3.43703 0
M  V30 4210 C 395.643 2.59857 3.67143 0
M  V30 4211 C 396.962 0.626891 4.35612 0
M  V30 4212 H 394.081 0.244341 0.695318 0
M  V30 4213 H 396.723 1.2355 1.44345 0
M  V30 4214 H 394.873 0.591816 3.83966 0
M  V30 4215 H 396.545 3.15764 3.3629 0
M  V30 4216 H 394.788 3.01961 3.11451 0
M  V30 4217 H 395.459 2.83296 4.73759 0
M  V30 4218 H 397.935 1.04125 4.02861 0
M  V30 4219 H 396.811 0.939076 5.40807 0
M  V30 4220 H 397.072 -0.472457 4.39568 0
M  V30 4221 N 396.131 -1.37776 0.765217 0
M  V30 4222 C 397.078 -2.30342 0.145274 0
M  V30 4223 C 398.048 -1.5077 -0.696971 0
M  V30 4224 O 399.233 -1.79362 -0.650689 0
M  V30 4225 C 396.373 -3.37227 -0.732939 0
M  V30 4226 C 395.486 -4.31819 0.125199 0
M  V30 4227 C 394.621 -5.25777 -0.757107 0
M  V30 4228 C 393.66 -6.12012 0.103963 0
M  V30 4229 N 392.797 -6.98232 -0.735953 0
M  V30 4230 H 397.637 -2.8278 0.940195 0
M  V30 4231 H 395.174 -1.39211 0.475255 0
M  V30 4232 H 397.132 -3.97818 -1.25686 0
M  V30 4233 H 395.762 -2.86171 -1.49353 0
M  V30 4234 H 394.814 -3.7259 0.766865 0
M  V30 4235 H 396.126 -4.92509 0.789683 0
M  V30 4236 H 395.28 -5.91541 -1.34776 0
M  V30 4237 H 394.019 -4.65481 -1.45529 0
M  V30 4238 H 393.024 -5.45233 0.707197 0
M  V30 4239 H 394.249 -6.74379 0.799381 0
M  V30 4240 H 392.195 -6.40472 -1.41887 0
M  V30 4241 H 392.112 -7.55891 -0.128624 0
M  V30 4242 H 393.38 -7.68393 -1.31121 0
M  V30 4243 N 397.609 -0.515225 -1.4894 0
M  V30 4244 C 398.539 0.244628 -2.32215 0
M  V30 4245 C 399.52 0.949136 -1.41157 0
M  V30 4246 O 400.705 0.937783 -1.70057 0
M  V30 4247 C 397.835 1.30096 -3.22013 0
M  V30 4248 C 396.789 0.715486 -4.21977 0
M  V30 4249 C 396.115 1.87339 -5.00808 0
M  V30 4250 C 397.415 -0.302982 -5.2142 0
M  V30 4251 H 399.109 -0.450501 -2.95991 0
M  V30 4252 H 396.655 -0.218098 -1.42339 0
M  V30 4253 H 398.608 1.84037 -3.79089 0
M  V30 4254 H 397.332 2.02547 -2.56207 0
M  V30 4255 H 395.991 0.197715 -3.66066 0
M  V30 4256 H 395.639 2.58592 -4.31438 0
M  V30 4257 H 395.339 1.48764 -5.68457 0
M  V30 4258 H 396.863 2.41686 -5.60732 0
M  V30 4259 H 398.277 0.148802 -5.73107 0
M  V30 4260 H 396.674 -0.60532 -5.97039 0
M  V30 4261 H 397.744 -1.21395 -4.69459 0
M  V30 4262 N 399.087 1.5561 -0.249682 0
M  V30 4263 C 400.498 1.84979 0.252949 0
M  V30 4264 C 400.849 1.17153 1.57384 0
M  V30 4265 O 399.974 0.450884 2.11651 0
M  V30 4266 C 400.569 3.35584 0.465732 0
M  V30 4267 C 399.128 3.65169 0.912624 0
M  V30 4268 C 398.275 2.77299 -0.00859085 0
M  V30 4269 H 401.226 1.51513 -0.47217 0
M  V30 4270 H 401.247 3.57313 1.30795 0
M  V30 4271 H 400.759 3.8492 -0.49579 0
M  V30 4272 H 398.86 3.21312 1.88652 0
M  V30 4273 H 398.973 4.72912 0.767559 0
M  V30 4274 H 397.337 2.49678 0.50327 0
M  V30 4275 H 398.12 3.29442 -0.965537 0
M  V30 4276 N 400.565 -0.0233959 1.57583 0
M  V30 4277 C 401.811 -0.708611 1.90657 0
M  V30 4278 C 402.166 -1.7266 0.848895 0
M  V30 4279 O 401.459 -1.91075 -0.141749 0
M  V30 4280 C 401.653 -1.41428 3.28227 0
M  V30 4281 C 401.482 -0.466155 4.47277 0
M  V30 4282 C 400.252 -0.085117 5.05228 0
M  V30 4283 C 402.45 0.257836 5.13653 0
M  V30 4284 N 400.432 0.863672 6.07794 0
M  V30 4285 C 401.803 1.06209 6.10835 0
M  V30 4286 C 403.858 0.324174 4.96844 0
M  V30 4287 C 402.561 1.9266 6.93018 0
M  V30 4288 C 404.587 1.17583 5.79593 0
M  V30 4289 C 403.949 1.96799 6.7635 0
M  V30 4290 H 400.048 -0.233222 0.746412 0
M  V30 4291 H 402.632 0.0314512 1.94675 0
M  V30 4292 H 400.803 -2.12477 3.25128 0
M  V30 4293 H 402.535 -2.05233 3.488 0
M  V30 4294 H 399.29 -0.448516 4.71471 0
M  V30 4295 H 399.714 1.33274 6.63752 0
M  V30 4296 H 404.356 -0.273975 4.21911 0
M  V30 4297 H 402.074 2.53552 7.67292 0
M  V30 4298 H 405.66 1.23076 5.68633 0
M  V30 4299 H 404.54 2.61635 7.39268 0
M  V30 4300 N 402.043 -1.548 -0.295768 0
M  V30 4301 C 403.289 -1.75517 -1.02789 0
M  V30 4302 C 403.644 -0.537266 -1.84746 0
M  V30 4303 O 402.937 0.470299 -1.85738 0
M  V30 4304 C 403.131 -2.98797 -1.961 0
M  V30 4305 C 402.96 -4.3246 -1.23321 0
M  V30 4306 C 401.73 -4.96131 -0.95822 0
M  V30 4307 C 403.928 -5.10365 -0.635024 0
M  V30 4308 N 401.91 -6.1357 -0.201257 0
M  V30 4309 C 403.281 -6.19999 -0.0110937 0
M  V30 4310 C 405.336 -4.94957 -0.540594 0
M  V30 4311 C 404.039 -7.15904 0.698136 0
M  V30 4312 C 406.065 -5.91197 0.154992 0
M  V30 4313 C 405.427 -7.00203 0.767752 0
M  V30 4314 H 401.526 -0.694786 -0.358882 0
M  V30 4315 H 404.11 -1.92281 -0.305943 0
M  V30 4316 H 402.281 -2.83448 -2.6554 0
M  V30 4317 H 404.013 -3.08017 -2.62502 0
M  V30 4318 H 400.768 -4.56595 -1.25771 0
M  V30 4319 H 401.192 -6.76802 0.16389 0
M  V30 4320 H 405.834 -4.10803 -1.00003 0
M  V30 4321 H 403.552 -7.99595 1.16933 0
M  V30 4322 H 407.138 -5.81353 0.228069 0
M  V30 4323 H 406.018 -7.73393 1.29743 0
M  V30 4324 N 403.521 0.559213 -1.47345 0
M  V30 4325 C 404.484 1.64854 -1.59235 0
M  V30 4326 C 405.484 1.53851 -0.467607 0
M  V30 4327 O 406.674 1.58045 -0.732617 0
M  V30 4328 C 403.806 3.04388 -1.53496 0
M  V30 4329 H 404.999 1.55662 -2.56339 0
M  V30 4330 H 402.552 0.778973 -1.35505 0
M  V30 4331 H 403.287 3.19115 -0.577604 0
M  V30 4332 H 403.072 3.13783 -2.35123 0
M  V30 4333 H 404.562 3.83642 -1.6495 0
M  V30 4334 N 404.999 1.35443 0.805782 0
M  V30 4335 C 405.947 1.28465 1.93906 0
M  V30 4336 C 406.941 0.17943 1.68447 0
M  V30 4337 O 408.147 0.345459 1.76654 0
M  V30 4338 H 404.522 0.399528 0.637088 0
M  V30 4339 H 406.493 2.24206 1.96912 0
M  V30 4340 C 405.242 1.07432 3.30687 0
M  V30 4341 H 404.565 1.91716 3.50835 0
M  V30 4342 H 406.005 1.06591 4.10383 0
M  V30 4343 C 404.464 -0.22179 3.36169 0
M  V30 4344 O 404.994 -1.21731 3.82811 0
M  V30 4345 N 403.2 -0.260841 2.89427 0
M  V30 4346 H 402.747 0.549884 2.51663 0
M  V30 4347 H 402.705 -1.12777 2.93477 0
M  V30 4348 N 406.477 -1.02803 1.19454 0
M  V30 4349 C 407.726 -1.7562 0.991996 0
M  V30 4350 C 408.039 -1.89672 -0.477901 0
M  V30 4351 O 409.245 -2.59468 -0.799287 0
M  V30 4352 C 407.701 -3.15812 1.72601 0
M  V30 4353 C 407.309 -3.0981 3.23607 0
M  V30 4354 C 409.053 -3.92918 1.60674 0
M  V30 4355 C 406.96 -4.44939 3.89594 0
M  V30 4356 H 405.89 -0.658352 0.367543 0
M  V30 4357 H 408.541 -1.15044 1.42959 0
M  V30 4358 H 406.923 -3.7686 1.21624 0
M  V30 4359 H 408.097 -2.58138 3.81709 0
M  V30 4360 H 406.412 -2.46201 3.35819 0
M  V30 4361 H 409.009 -4.9287 2.07323 0
M  V30 4362 H 409.352 -4.12502 0.561025 0
M  V30 4363 H 409.885 -3.38472 2.09001 0
M  V30 4364 H 406.624 -4.30559 4.94267 0
M  V30 4365 H 406.144 -4.96664 3.36281 0
M  V30 4366 H 407.823 -5.1382 3.93189 0
M  V30 4367 N 407.956 -0.998596 -1.21925 0
M  V30 4368 C 409.367 -0.711939 -1.72593 0
M  V30 4369 C 409.718 0.770842 -1.80423 0
M  V30 4370 O 408.843 1.60237 -1.4544 0
M  V30 4371 C 409.438 -1.28567 -3.13458 0
M  V30 4372 C 407.997 -1.04828 -3.61508 0
M  V30 4373 C 407.144 -1.4024 -2.39224 0
M  V30 4374 H 410.095 -1.17027 -1.07193 0
M  V30 4375 H 410.116 -0.667098 -3.74607 0
M  V30 4376 H 409.628 -2.36486 -3.07727 0
M  V30 4377 H 407.729 0.0140383 -3.72597 0
M  V30 4378 H 407.842 -1.71566 -4.47328 0
M  V30 4379 H 406.206 -0.821077 -2.41103 0
M  V30 4380 H 406.989 -2.49176 -2.36149 0
M  V30 4381 N 409.434 1.37368 -0.772513 0
M  V30 4382 C 410.682 1.99279 -0.336516 0
M  V30 4383 C 411.003 1.6163 1.09091 0
M  V30 4384 O 410.273 0.882109 1.74916 0
M  V30 4385 H 408.853 0.737063 -0.121435 0
M  V30 4386 H 411.515 1.67836 -0.990809 0
M  V30 4387 H 410.611 3.09332 -0.414763 0
M  V30 4388 N 410.912 0.523116 1.48665 0
M  V30 4389 C 412.16 -0.0134497 2.02096 0
M  V30 4390 C 412.481 -1.35418 1.40311 0
M  V30 4391 O 411.751 -1.87543 0.566074 0
M  V30 4392 H 410.331 -0.00795915 0.746958 0
M  V30 4393 H 412.993 0.685388 1.82451 0
M  V30 4394 H 412.089 -0.126849 3.11842 0
M  V30 4395 N 412.39 -1.55475 0.257931 0
M  V30 4396 C 413.639 -1.98383 -0.364275 0
M  V30 4397 C 413.952 -1.14952 -1.58258 0
M  V30 4398 O 415.158 -1.47924 -2.27664 0
M  V30 4399 C 413.614 -3.53037 -0.699479 0
M  V30 4400 C 413.222 -4.45223 0.498046 0
M  V30 4401 C 414.966 -4.04575 -1.28526 0
M  V30 4402 C 412.873 -5.91238 0.138383 0
M  V30 4403 H 411.803 -0.740911 -0.13988 0
M  V30 4404 H 414.454 -1.79936 0.359883 0
M  V30 4405 H 412.836 -3.6722 -1.48207 0
M  V30 4406 H 414.01 -4.42803 1.27522 0
M  V30 4407 H 412.325 -4.04226 0.999503 0
M  V30 4408 H 414.922 -5.11196 -1.56788 0
M  V30 4409 H 415.265 -3.5258 -2.21344 0
M  V30 4410 H 415.798 -3.93762 -0.565337 0
M  V30 4411 H 412.537 -6.47294 1.03398 0
M  V30 4412 H 412.057 -5.96768 -0.602374 0
M  V30 4413 H 413.736 -6.46413 -0.27553 0
M  V30 4414 N 413.868 0.0150385 -1.57593 0
M  V30 4415 C 414.816 1.02958 -2.08572 0
M  V30 4416 C 415.81 1.36554 -1.00246 0
M  V30 4417 O 417.016 1.35295 -1.18724 0
M  V30 4418 H 413.391 0.349619 -0.665786 0
M  V30 4419 H 415.362 0.573932 -2.92829 0
M  V30 4420 C 414.111 2.31752 -2.59203 0
M  V30 4421 H 413.434 2.06765 -3.42182 0
M  V30 4422 H 414.874 3.01053 -2.98568 0
M  V30 4423 C 413.333 3.01692 -1.49945 0
M  V30 4424 O 413.863 3.92083 -0.873704 0
M  V30 4425 N 412.069 2.6326 -1.23056 0
M  V30 4426 H 411.616 1.89838 -1.74125 0
M  V30 4427 H 411.574 3.10372 -0.501685 0
M  V30 4428 N 415.346 1.54954 0.287554 0
M  V30 4429 C 416.594 1.74528 1.01904 0
M  V30 4430 C 416.915 0.541349 1.87335 0
M  V30 4431 O 416.185 -0.444108 1.908 0
M  V30 4432 H 414.765 0.643576 0.379235 0
M  V30 4433 H 417.427 1.92333 0.315294 0
M  V30 4434 H 416.523 2.64015 1.6644 0
M  V30 4435 O 416.863 -0.433401 1.55576 0
M  V30 4436 H 417.554 -1.08681 1.60337 0
M  V30 END ATOM
M  V30 BEGIN BOND
M  V30 END BOND
M  V30 END CTAB
M  END
$$$$
