drugbank_target|P05771 Protein kinase C beta type (DB00163; DB01738; DB06486; DB08846; DB08862; DB14001; DB14002)
 OpenBabel12092119423D

  0  0  0     0  0            999 V3000
M  V30 BEGIN CTAB
M  V30 COUNTS 10700 10836 0 0 0
M  V30 BEGIN ATOM
M  V30 1 H -0.908 1.98254 -0.117106 0
M  V30 2 N 0 1.576 0 0
M  V30 3 C 0.933 2.03868 1.02534 0
M  V30 4 C 1.911 0.928543 1.3348 0
M  V30 5 O 3.095 1.19667 1.45644 0
M  V30 6 C 0.222 2.43627 2.35294 0
M  V30 7 C -0.732 3.65373 2.2001 0
M  V30 8 S 0.101 5.13292 1.52614 0
M  V30 9 C 1.257 5.56322 2.86805 0
M  V30 10 H 1.49 2.90518 0.631377 0
M  V30 11 H -0.977 1.52953 0.210867 0
M  V30 12 H 0.981 2.67203 3.11629 0
M  V30 13 H -0.358 1.57376 2.7183 0
M  V30 14 H -1.165 3.90944 3.18086 0
M  V30 15 H -1.563 3.418 1.51819 0
M  V30 16 H 0.729 5.58782 3.83104 0
M  V30 17 H 1.672 6.56266 2.65933 0
M  V30 18 H 2.08 4.83886 2.90714 0
M  V30 19 N 1.4781 -0.272755 1.55222 0
M  V30 20 C 2.4411 -1.32041 1.87344 0
M  V30 21 C 3.4411 -1.42342 0.74803 0
M  V30 22 O 4.6311 -1.41488 1.0162 0
M  V30 23 C 1.7631 -2.70173 2.07893 0
M  V30 24 H 2.9561 -1.04789 2.80997 0
M  V30 25 H 0.5091 -0.51083 1.47717 0
M  V30 26 H 1.2441 -3.02605 1.16622 0
M  V30 27 H 1.0291 -2.64082 2.89833 0
M  V30 28 H 2.5191 -3.45869 2.34017 0
M  V30 29 N 2.9562 -1.48159 -0.537278 0
M  V30 30 C 4.2332 -1.46291 -1.29839 0
M  V30 31 C 4.6132 -0.170613 -2.10409 0
M  V30 32 O 3.9612 0.847746 -2.12192 0
M  V30 33 C 4.1712 -2.72055 -2.18603 0
M  V30 34 C 5.5192 -3.20087 -2.7898 0
M  V30 35 O 6.5432 -2.72921 -2.28894 0
M  V30 36 O 5.4022 -4.02138 -3.70064 0
M  V30 37 H 2.4962 -0.583906 -0.585647 0
M  V30 38 H 5.0422 -1.60384 -0.554534 0
M  V30 39 H 3.8142 -3.57628 -1.58801 0
M  V30 40 H 3.4372 -2.60646 -3.00249 0
M  V30 41 N 4.4343 0.785586 -1.36625 0
M  V30 42 C 5.8453 1.36101 -1.27803 0
M  V30 43 C 6.1963 1.96035 0.0804875 0
M  V30 44 O 5.3213 1.92834 0.982042 0
M  V30 45 C 5.9163 2.47442 -2.31426 0
M  V30 46 C 4.4753 3.00789 -2.26281 0
M  V30 47 C 3.6223 1.73896 -2.15999 0
M  V30 48 H 6.5733 0.586928 -1.47448 0
M  V30 49 H 6.5943 3.2656 -1.95291 0
M  V30 50 H 6.1063 2.03791 -3.30289 0
M  V30 51 H 4.2073 3.48851 -1.30896 0
M  V30 52 H 4.3203 3.57343 -3.19128 0
M  V30 53 H 2.6843 1.9628 -1.62316 0
M  V30 54 H 3.4673 1.32368 -3.16755 0
M  V30 55 N 5.9124 1.20967 1.01018 0
M  V30 56 C 6.8754 0.965918 2.07853 0
M  V30 57 C 7.8754 -0.0610545 1.60684 0
M  V30 58 O 9.0654 0.175681 1.73312 0
M  V30 59 C 6.1974 0.455513 3.37843 0
M  V30 60 H 7.3904 1.91365 2.3091 0
M  V30 61 H 4.9434 1.02594 1.17916 0
M  V30 62 H 5.6784 -0.497381 3.20463 0
M  V30 63 H 5.4634 1.19622 3.73407 0
M  V30 64 H 6.9534 0.304667 4.16487 0
M  V30 65 N 7.3905 -1.2043 1.01659 0
M  V30 66 C 8.3535 -2.21433 0.591616 0
M  V30 67 C 9.3535 -1.57203 -0.338226 0
M  V30 68 O 10.5435 -1.73737 -0.126918 0
M  V30 69 C 7.6755 -3.40628 -0.136058 0
M  V30 70 H 8.8685 -2.60545 1.48514 0
M  V30 71 H 6.4215 -1.33893 0.806379 0
M  V30 72 H 7.1565 -3.07019 -1.04449 0
M  V30 73 H 6.9415 -3.88475 0.531917 0
M  V30 74 H 8.4315 -4.15475 -0.420735 0
M  V30 75 N 8.8686 -0.792821 -1.36206 0
M  V30 76 C 10.1166 -0.366062 -1.98757 0
M  V30 77 C 10.4376 1.0668 -1.63231 0
M  V30 78 O 9.7076 1.73587 -0.907978 0
M  V30 79 H 8.2876 -0.132364 -0.735179 0
M  V30 80 H 10.9496 -1.01562 -1.66347 0
M  V30 81 H 10.0456 -0.460638 -3.08682 0
M  V30 82 N 10.3467 1.47872 -0.545128 0
M  V30 83 C 11.7577 1.86384 -0.108581 0
M  V30 84 C 12.1087 1.45309 1.31832 0
M  V30 85 O 11.2337 0.850641 1.9898 0
M  V30 86 C 11.8287 3.38265 -0.190274 0
M  V30 87 C 10.3877 3.75914 0.191164 0
M  V30 88 C 9.5347 2.71926 -0.543273 0
M  V30 89 H 12.4857 1.39561 -0.755537 0
M  V30 90 H 12.5067 3.75831 0.594217 0
M  V30 91 H 12.0187 3.6813 -1.2289 0
M  V30 92 H 10.1197 3.51665 1.23136 0
M  V30 93 H 10.2327 4.78836 -0.158987 0
M  V30 94 H 8.5967 2.54697 0.0122495 0
M  V30 95 H 9.3797 3.04634 -1.58282 0
M  V30 96 N 11.8248 0.280983 1.55075 0
M  V30 97 C 13.2358 -0.215629 1.85451 0
M  V30 98 C 13.5868 -1.54991 1.203 0
M  V30 99 O 12.7118 -2.10699 0.493435 0
M  V30 100 C 13.3068 -0.398026 3.36454 0
M  V30 101 C 11.8658 -0.838866 3.66933 0
M  V30 102 C 11.0128 0.064458 2.77225 0
M  V30 103 H 13.9638 0.502601 1.50531 0
M  V30 104 H 13.9848 -1.23569 3.59876 0
M  V30 105 H 13.4968 0.573241 3.83843 0
M  V30 106 H 11.5978 -1.8214 3.25048 0
M  V30 107 H 11.7108 -0.672123 4.74362 0
M  V30 108 H 10.0748 -0.452863 2.50642 0
M  V30 109 H 10.8578 1.03172 3.2743 0
M  V30 110 N 13.3029 -1.57598 0.00835791 0
M  V30 111 C 14.7139 -1.7892 -0.53333 0
M  V30 112 C 15.0649 -0.916609 -1.73473 0
M  V30 113 O 14.1899 -0.121336 -2.1606 0
M  V30 114 C 14.7849 -3.24488 -0.974313 0
M  V30 115 C 13.3439 -3.46878 -1.46125 0
M  V30 116 C 12.4909 -2.74157 -0.416302 0
M  V30 117 H 15.4419 -1.56958 0.234495 0
M  V30 118 H 15.4629 -3.3306 -1.83988 0
M  V30 119 H 14.9749 -3.87972 -0.099718 0
M  V30 120 H 13.0759 -2.8862 -2.35646 0
M  V30 121 H 13.1889 -4.55572 -1.48295 0
M  V30 122 H 11.5529 -2.39022 -0.87981 0
M  V30 123 H 12.3359 -3.40345 0.44947 0
M  V30 124 N 14.781 0.264519 -1.55364 0
M  V30 125 C 16.006 1.01726 -1.80739 0
M  V30 126 C 16.431 1.78836 -0.583044 0
M  V30 127 O 15.789 1.75167 0.467566 0
M  V30 128 C 15.837 1.94482 -3.03659 0
M  V30 129 O 14.941 3.03386 -2.7934 0
M  V30 130 H 14.282 0.290395 -0.597132 0
M  V30 131 H 16.812 0.290854 -2.02522 0
M  V30 132 H 16.822 2.36278 -3.32621 0
M  V30 133 H 15.497 1.37772 -3.92418 0
M  V30 134 H 14.074 2.65844 -2.61498 0
M  V30 135 N 16.2591 1.48442 0.529413 0
M  V30 136 C 17.1691 1.6569 1.66084 0
M  V30 137 C 18.1851 0.539432 1.65427 0
M  V30 138 O 19.3611 0.810572 1.84368 0
M  V30 139 C 16.4261 1.69315 3.02545 0
M  V30 140 C 15.4871 2.92694 3.14052 0
M  V30 141 C 14.7201 2.96137 4.44003 0
M  V30 142 O 14.9431 2.07973 5.31134 0
M  V30 143 O 13.8771 3.88312 4.59888 0
M  V30 144 H 17.7031 2.61483 1.54469 0
M  V30 145 H 15.2881 1.3185 0.702567 0
M  V30 146 H 17.1701 1.74217 3.83701 0
M  V30 147 H 15.8451 0.766966 3.14483 0
M  V30 148 H 14.7521 2.93324 2.32189 0
M  V30 149 H 16.0851 3.84699 3.0703 0
M  V30 150 N 17.7372 -0.778329 1.37039 0
M  V30 151 C 18.9852 -1.53361 1.31623 0
M  V30 152 C 19.3062 -1.94739 -0.100831 0
M  V30 153 O 18.5762 -1.65797 -1.04347 0
M  V30 154 H 17.1562 -0.568794 0.484234 0
M  V30 155 H 19.8182 -0.926742 1.71457 0
M  V30 156 H 18.9142 -2.43606 1.95096 0
M  V30 157 N 19.2153 -1.21501 -1.00376 0
M  V30 158 C 20.1253 -0.991447 -2.12621 0
M  V30 159 C 21.1413 0.0568446 -1.73907 0
M  V30 160 O 22.3173 -0.13348 -2.00957 0
M  V30 161 C 19.3823 -0.560312 -3.42142 0
M  V30 162 C 18.4433 -1.68096 -3.95022 0
M  V30 163 C 17.6763 -1.2703 -5.18362 0
M  V30 164 O 17.8993 -0.144438 -5.70217 0
M  V30 165 O 16.8333 -2.08269 -5.64719 0
M  V30 166 H 20.6593 -1.93158 -2.34358 0
M  V30 167 H 18.2443 -0.999999 -1.10997 0
M  V30 168 H 20.1263 -0.329724 -4.20108 0
M  V30 169 H 18.8013 0.351089 -3.2179 0
M  V30 170 H 17.7083 -1.96597 -3.18278 0
M  V30 171 H 19.0413 -2.56983 -4.19786 0
M  V30 172 N 20.6934 1.19889 -1.02296 0
M  V30 173 C 21.6034 2.26571 -0.608508 0
M  V30 174 C 22.6194 1.70299 0.356964 0
M  V30 175 O 23.7954 2.00235 0.216326 0
M  V30 176 C 20.8604 3.46677 0.0402814 0
M  V30 177 C 19.9214 4.18153 -0.97194 0
M  V30 178 C 19.1544 5.32525 -0.354016 0
M  V30 179 O 19.3774 5.64112 0.844604 0
M  V30 180 O 18.3114 5.92242 -1.07391 0
M  V30 181 H 22.1374 2.64251 -1.49684 0
M  V30 182 H 19.7224 1.26629 -0.792809 0
M  V30 183 H 21.6044 4.19475 0.402324 0
M  V30 184 H 20.2794 3.10858 0.902707 0
M  V30 185 H 19.1864 3.47499 -1.38546 0
M  V30 186 H 20.5194 4.57927 -1.80454 0
M  V30 187 N 22.1715 0.800033 1.35784 0
M  V30 188 C 23.3965 0.388511 2.03729 0
M  V30 189 C 23.8215 -0.990481 1.5991 0
M  V30 190 O 23.1795 -1.64013 0.772612 0
M  V30 191 C 23.2275 0.4726 3.5749 0
M  V30 192 O 22.3315 -0.51646 4.09153 0
M  V30 193 H 21.6725 0.163271 0.643614 0
M  V30 194 H 24.2025 1.0841 1.73518 0
M  V30 195 H 24.2125 0.34003 4.06581 0
M  V30 196 H 22.8875 1.47848 3.88734 0
M  V30 197 H 21.4645 -0.344673 3.71304 0
M  V30 198 N 23.6496 -1.47581 0.552962 0
M  V30 199 C 24.8776 -2.06875 0.0320556 0
M  V30 200 C 25.2926 -1.40625 -1.25976 0
M  V30 201 O 24.6496 -0.501349 -1.75479 0
M  V30 202 C 24.7006 -3.61092 -0.17167 0
M  V30 203 O 24.4216 -4.24858 1.06899 0
M  V30 204 C 25.9226 -4.37242 -0.730344 0
M  V30 205 H 23.1426 -0.669561 0.043915 0
M  V30 206 H 25.6866 -1.89646 0.765163 0
M  V30 207 H 23.8416 -3.7785 -0.854894 0
M  V30 208 H 24.2556 -5.17334 0.864059 0
M  V30 209 H 25.7296 -5.45842 -0.822203 0
M  V30 210 H 26.2066 -4.03235 -1.74064 0
M  V30 211 H 26.8126 -4.25219 -0.0829543 0
M  V30 212 N 25.1277 -0.289203 -1.54924 0
M  V30 213 C 26.3737 0.323998 -2.00195 0
M  V30 214 C 26.7067 1.54441 -1.17735 0
M  V30 215 O 25.9817 1.92875 -0.250878 0
M  V30 216 C 26.2647 0.692276 -3.53383 0
M  V30 217 C 26.1177 -0.536457 -4.46589 0
M  V30 218 C 27.4367 1.52335 -4.12895 0
M  V30 219 H 24.5557 0.116289 -0.727768 0
M  V30 220 H 27.1977 -0.398954 -1.85764 0
M  V30 221 H 25.3477 1.30822 -3.65811 0
M  V30 222 H 27.0197 -1.17499 -4.46085 0
M  V30 223 H 25.2627 -1.17192 -4.1767 0
M  V30 224 H 25.9337 -0.234806 -5.515 0
M  V30 225 H 28.4097 1.00302 -4.0383 0
M  V30 226 H 27.2857 1.74982 -5.20262 0
M  V30 227 H 27.5467 2.50886 -3.64018 0
M  V30 228 N 26.6058 1.57591 -0.0167156 0
M  V30 229 C 28.0218 1.55946 0.339557 0
M  V30 230 C 28.2218 1.02109 1.73713 0
M  V30 231 O 27.2778 0.662303 2.43659 0
M  V30 232 C 28.5908 3.00037 0.199499 0
M  V30 233 C 30.1388 3.11805 0.273193 0
M  V30 234 C 30.6138 4.57713 0.162068 0
M  V30 235 N 32.1048 4.6268 0.219444 0
M  V30 236 C 32.8398 5.73185 0.157054 0
M  V30 237 N 32.3358 6.92786 0.0442936 0
M  V30 238 N 34.1288 5.61707 0.21014 0
M  V30 239 H 26.2798 1.90921 -0.930758 0
M  V30 240 H 28.5428 0.877674 -0.358319 0
M  V30 241 H 28.2488 3.4333 -0.76273 0
M  V30 242 H 28.1228 3.64387 0.974786 0
M  V30 243 H 30.5098 2.68433 1.22587 0
M  V30 244 H 30.5908 2.50201 -0.532256 0
M  V30 245 H 30.2348 5.01763 -0.78714 0
M  V30 246 H 30.1648 5.17283 0.986222 0
M  V30 247 H 32.6558 3.76649 0.307246 0
M  V30 248 H 32.9688 7.728 0.00304069 0
M  V30 249 H 31.3138 6.94999 0.00968457 0
M  V30 250 H 34.5048 4.6716 0.296546 0
M  V30 251 H 34.6778 6.47807 0.158054 0
M  V30 252 N 28.0839 -0.256276 1.55502 0
M  V30 253 C 29.3309 -0.985619 1.76895 0
M  V30 254 C 29.6589 -1.85671 0.579355 0
M  V30 255 O 28.9139 -1.90744 -0.437651 0
M  V30 256 C 29.2129 -1.88432 3.03691 0
M  V30 257 C 28.8789 -1.16936 4.35473 0
M  V30 258 C 27.5409 -0.97173 4.71286 0
M  V30 259 C 29.8929 -0.661889 5.1698 0
M  V30 260 C 27.2209 -0.254179 5.86149 0
M  V30 261 C 29.5729 0.042149 6.32586 0
M  V30 262 C 28.2369 0.25134 6.67027 0
M  V30 263 H 27.5069 -0.360663 0.647304 0
M  V30 264 H 30.1539 -0.256483 1.89775 0
M  V30 265 H 28.4589 -2.68021 2.85783 0
M  V30 266 H 30.1559 -2.45015 3.1744 0
M  V30 267 H 26.7459 -1.33332 4.07333 0
M  V30 268 H 30.9299 -0.802145 4.89775 0
M  V30 269 H 26.1859 -0.0815408 6.11346 0
M  V30 270 H 30.3599 0.443049 6.94989 0
M  V30 271 H 27.9869 0.809314 7.5588 0
M  V30 272 N 29.562 -1.4872 -0.521534 0
M  V30 273 C 30.525 -1.63379 -1.60748 0
M  V30 274 C 31.525 -0.50661 -1.52611 0
M  V30 275 O 32.715 -0.772601 -1.5613 0
M  V30 276 C 29.847 -1.61192 -3.00383 0
M  V30 277 H 31.04 -2.60217 -1.49087 0
M  V30 278 H 28.593 -1.37444 -0.744235 0
M  V30 279 H 29.328 -0.65863 -3.17541 0
M  V30 280 H 29.113 -2.43032 -3.07698 0
M  V30 281 H 30.603 -1.7466 -3.7932 0
M  V30 282 N 31.0401 0.771051 -1.3745 0
M  V30 283 C 32.4561 1.07171 -1.18265 0
M  V30 284 C 32.6561 2.01491 -0.019287 0
M  V30 285 O 31.7121 2.44244 0.640408 0
M  V30 286 C 33.0251 1.66854 -2.50161 0
M  V30 287 C 34.5731 1.79109 -2.56689 0
M  V30 288 C 35.0481 2.42205 -3.88717 0
M  V30 289 N 36.5391 2.49655 -3.90162 0
M  V30 290 C 37.2741 2.9933 -4.8907 0
M  V30 291 N 36.7701 3.49172 -5.98374 0
M  V30 292 N 38.5631 2.9821 -4.76474 0
M  V30 293 H 30.7141 0.144796 -2.11906 0
M  V30 294 H 32.9771 0.126863 -0.939473 0
M  V30 295 H 32.6831 1.05017 -3.35655 0
M  V30 296 H 32.5571 2.6614 -2.673 0
M  V30 297 H 34.9441 2.40077 -1.71601 0
M  V30 298 H 35.0251 0.785757 -2.43433 0
M  V30 299 H 34.6691 1.81875 -4.74219 0
M  V30 300 H 34.5991 3.43345 -3.99276 0
M  V30 301 H 37.0901 2.14383 -3.11205 0
M  V30 302 H 37.4031 3.8548 -6.69795 0
M  V30 303 H 35.7481 3.47275 -6.02018 0
M  V30 304 H 38.9391 2.58572 -3.90203 0
M  V30 305 H 39.1121 3.36613 -5.53711 0
M  V30 306 N 32.5182 1.22032 0.997298 0
M  V30 307 C 33.4652 0.986467 2.08656 0
M  V30 308 C 34.4352 -0.0902671 1.65855 0
M  V30 309 O 35.6202 0.0584294 1.90711 0
M  V30 310 C 32.7602 0.565569 3.40434 0
M  V30 311 C 31.8732 1.71259 3.96604 0
M  V30 312 C 31.0082 1.24011 5.16522 0
M  V30 313 C 30.0472 2.35896 5.64818 0
M  V30 314 N 29.1842 1.89726 6.7598 0
M  V30 315 H 34.0242 1.91892 2.27994 0
M  V30 316 H 31.5612 0.956199 1.11782 0
M  V30 317 H 33.5192 0.302738 4.161 0
M  V30 318 H 32.1492 -0.329879 3.2111 0
M  V30 319 H 31.2012 2.08986 3.17851 0
M  V30 320 H 32.5132 2.55436 4.28432 0
M  V30 321 H 31.6672 0.934395 5.99461 0
M  V30 322 H 30.4062 0.368487 4.86306 0
M  V30 323 H 29.4112 2.67261 4.8047 0
M  V30 324 H 30.6362 3.23567 5.97061 0
M  V30 325 H 28.5822 1.0492 6.47555 0
M  V30 326 H 28.4992 2.67471 7.07103 0
M  V30 327 H 29.7672 1.62211 7.62435 0
M  V30 328 N 33.9963 -1.19345 1.0293 0
M  V30 329 C 35.2443 -1.88665 0.724574 0
M  V30 330 C 35.5653 -1.80036 -0.749144 0
M  V30 331 O 34.8353 -1.2111 -1.53978 0
M  V30 332 H 33.4153 -0.698406 0.265025 0
M  V30 333 H 36.0773 -1.44885 1.30362 0
M  V30 334 H 35.1733 -2.94987 1.01926 0
M  V30 335 N 35.4744 -0.807222 -1.35358 0
M  V30 336 C 36.4374 -0.223665 -2.28106 0
M  V30 337 C 37.4374 0.589354 -1.4961 0
M  V30 338 O 38.6274 0.407745 -1.69361 0
M  V30 339 C 35.7594 0.688149 -3.33882 0
M  V30 340 H 36.9524 -1.04169 -2.81227 0
M  V30 341 H 34.5054 -0.577921 -1.45223 0
M  V30 342 H 35.2404 1.52984 -2.85948 0
M  V30 343 H 35.0254 0.10687 -3.91954 0
M  V30 344 H 36.5154 1.09075 -4.03104 0
M  V30 345 N 36.9525 1.47285 -0.560781 0
M  V30 346 C 37.8825 2.32857 0.173105 0
M  V30 347 C 38.8635 1.44009 0.905281 0
M  V30 348 O 40.0485 1.7286 0.885046 0
M  V30 349 C 37.1785 3.25861 1.20133 0
M  V30 350 C 36.1325 4.23978 0.585388 0
M  V30 351 C 35.4585 5.06332 1.7185 0
M  V30 352 C 36.7585 5.20242 -0.463178 0
M  V30 353 H 38.4525 2.94466 -0.541307 0
M  V30 354 H 35.9985 1.41601 -0.261764 0
M  V30 355 H 37.9515 3.84569 1.72293 0
M  V30 356 H 36.6755 2.62315 1.94573 0
M  V30 357 H 35.3345 3.66501 0.085054 0
M  V30 358 H 34.9825 4.39186 2.45203 0
M  V30 359 H 34.6825 5.72762 1.31213 0
M  V30 360 H 36.2065 5.67899 2.24329 0
M  V30 361 H 37.6205 5.73293 -0.027502 0
M  V30 362 H 36.0175 5.94896 -0.788627 0
M  V30 363 H 37.0875 4.65504 -1.35773 0
M  V30 364 N 38.4306 0.297415 1.54768 0
M  V30 365 C 39.8466 -0.0560823 1.59501 0
M  V30 366 C 40.0466 -1.52725 1.31444 0
M  V30 367 O 39.1026 -2.27947 1.08611 0
M  V30 368 C 40.4156 0.338631 2.98787 0
M  V30 369 C 41.9636 0.287097 3.11681 0
M  V30 370 C 42.4386 0.656579 4.53269 0
M  V30 371 N 43.9296 0.608977 4.59179 0
M  V30 372 C 44.6646 0.867385 5.66802 0
M  V30 373 N 44.1606 1.19157 6.82476 0
M  V30 374 N 45.9536 0.794687 5.56454 0
M  V30 375 H 38.1046 1.25624 1.71267 0
M  V30 376 H 40.3676 0.509057 0.799728 0
M  V30 377 H 40.0736 1.36263 3.2423 0
M  V30 378 H 39.9476 -0.309508 3.75928 0
M  V30 379 H 42.3346 -0.727649 2.85988 0
M  V30 380 H 42.4156 0.969809 2.36703 0
M  V30 381 H 42.0596 1.66912 4.7969 0
M  V30 382 H 41.9896 -0.0481649 5.26578 0
M  V30 383 H 44.4806 0.369198 3.76092 0
M  V30 384 H 44.7936 1.37482 7.60473 0
M  V30 385 H 43.1386 1.22958 6.84037 0
M  V30 386 H 46.3296 0.541098 4.64962 0
M  V30 387 H 46.5026 0.999445 6.40246 0
M  V30 388 N 39.9087 -1.5758 0.0250728 0
M  V30 389 C 40.8407 -2.06869 -0.986796 0
M  V30 390 C 41.8537 -0.991332 -1.29137 0
M  V30 391 O 43.0427 -1.26761 -1.25674 0
M  V30 392 C 40.1427 -2.47486 -2.31525 0
M  V30 393 C 39.3157 -3.78253 -2.19643 0
M  V30 394 C 38.3747 -4.05464 -3.35388 0
M  V30 395 O 37.4007 -4.75774 -3.12454 0
M  V30 396 N 38.6027 -3.55321 -4.59051 0
M  V30 397 H 41.3677 -2.94302 -0.566276 0
M  V30 398 H 38.9287 -1.6109 -0.161776 0
M  V30 399 H 40.9207 -2.62785 -3.07776 0
M  V30 400 H 39.4907 -1.65441 -2.65232 0
M  V30 401 H 38.7107 -3.7279 -1.28144 0
M  V30 402 H 39.9987 -4.63936 -2.08903 0
M  V30 403 H 39.3967 -2.98431 -4.80578 0
M  V30 404 H 37.9537 -3.75905 -5.32483 0
M  V30 405 N 41.3868 0.248026 -1.55636 0
M  V30 406 C 42.3338 1.30707 -1.90222 0
M  V30 407 C 43.3038 1.47881 -0.756332 0
M  V30 408 O 44.4888 1.61883 -1.00988 0
M  V30 409 C 41.6288 2.65769 -2.20138 0
M  V30 410 C 40.7418 2.56612 -3.47526 0
M  V30 411 C 39.8768 3.8402 -3.67017 0
M  V30 412 C 38.9158 3.69476 -4.8801 0
M  V30 413 N 38.0528 4.88774 -5.04029 0
M  V30 414 H 42.8928 1.00512 -2.80538 0
M  V30 415 H 40.4298 0.485055 -1.38873 0
M  V30 416 H 42.3878 3.44386 -2.35487 0
M  V30 417 H 41.0178 2.94115 -1.33027 0
M  V30 418 H 40.0698 1.69571 -3.40514 0
M  V30 419 H 41.3818 2.41774 -4.36287 0
M  V30 420 H 40.5358 4.7108 -3.8232 0
M  V30 421 H 39.2748 4.01754 -2.76487 0
M  V30 422 H 38.2798 2.80799 -4.72686 0
M  V30 423 H 39.5048 3.53238 -5.8 0
M  V30 424 H 37.4508 5.0687 -4.16435 0
M  V30 425 H 37.3678 4.76562 -5.86877 0
M  V30 426 H 38.6358 5.77335 -5.23741 0
M  V30 427 N 42.8649 1.48995 0.513639 0
M  V30 428 C 43.8129 1.65199 1.63744 0
M  V30 429 C 44.8069 0.51809 1.61283 0
M  V30 430 O 46.0129 0.697335 1.65943 0
M  V30 431 H 42.3879 0.52069 0.542574 0
M  V30 432 H 44.3589 2.59552 1.47226 0
M  V30 433 C 43.1079 1.72409 3.01945 0
M  V30 434 H 42.4309 2.59029 3.04539 0
M  V30 435 H 43.8709 1.87785 3.80148 0
M  V30 436 C 42.3299 0.46618 3.33659 0
M  V30 437 O 42.8599 -0.413744 3.99564 0
M  V30 438 N 41.0659 0.332931 2.88687 0
M  V30 439 H 40.6129 1.04996 2.35231 0
M  V30 440 H 40.5709 -0.507665 3.10274 0
M  V30 441 N 44.343 -0.763751 1.37857 0
M  V30 442 C 45.589 -1.52483 1.33704 0
M  V30 443 C 45.922 -1.94051 -0.0759612 0
M  V30 444 O 45.197 -1.64675 -1.03501 0
M  V30 445 C 45.48 -2.78441 2.28348 0
M  V30 446 C 45.333 -2.43075 3.78463 0
M  V30 447 C 46.652 -3.80415 2.21298 0
M  V30 448 H 43.771 -0.553169 0.487005 0
M  V30 449 H 46.413 -0.875562 1.68624 0
M  V30 450 H 44.563 -3.33842 1.987 0
M  V30 451 H 46.235 -1.93527 4.18742 0
M  V30 452 H 44.478 -1.75666 3.96641 0
M  V30 453 H 45.149 -3.33149 4.40132 0
M  V30 454 H 47.625 -3.34527 2.47449 0
M  V30 455 H 46.501 -4.66257 2.89647 0
M  V30 456 H 46.762 -4.25262 1.20849 0
M  V30 457 N 45.8211 -1.22559 -0.990812 0
M  V30 458 C 46.7711 -0.964807 -2.0658 0
M  V30 459 C 47.7551 0.0853472 -1.60673 0
M  V30 460 O 48.9471 -0.125443 -1.76555 0
M  V30 461 C 46.0761 -0.546707 -3.38919 0
M  V30 462 C 45.1621 -1.6317 -3.91454 0
M  V30 463 N 45.5531 -2.85985 -4.17189 0
M  V30 464 C 43.8511 -1.50387 -4.19881 0
M  V30 465 C 44.5521 -3.56159 -4.59919 0
M  V30 466 N 43.5281 -2.83637 -4.63736 0
M  V30 467 H 47.3301 -1.89769 -2.24421 0
M  V30 468 H 44.8441 -1.12343 -1.17273 0
M  V30 469 H 46.8411 -0.34119 -4.15502 0
M  V30 470 H 45.5011 0.379254 -3.22478 0
M  V30 471 H 46.5121 -3.22392 -4.05319 0
M  V30 472 H 43.1891 -0.644254 -4.12499 0
M  V30 473 H 44.5791 -4.6139 -4.88435 0
M  V30 474 N 47.2992 1.18797 -1.03562 0
M  V30 475 C 48.2092 2.25913 -0.632505 0
M  V30 476 C 49.2252 1.70668 0.338882 0
M  V30 477 O 50.4012 2.00453 0.195076 0
M  V30 478 C 47.4662 3.467 0.00350942 0
M  V30 479 C 46.5272 4.17098 -1.01624 0
M  V30 480 C 45.7602 5.32119 -0.410478 0
M  V30 481 O 45.9832 5.64976 0.784725 0
M  V30 482 O 44.9172 5.9107 -1.13667 0
M  V30 483 H 48.7432 2.62648 -1.52478 0
M  V30 484 H 46.3282 1.25781 -0.806195 0
M  V30 485 H 48.2102 4.19878 0.35781 0
M  V30 486 H 46.8852 3.11798 0.869686 0
M  V30 487 H 45.7922 3.4601 -1.42224 0
M  V30 488 H 47.1252 4.55987 -1.85301 0
M  V30 489 N 48.7773 0.814389 1.34928 0
M  V30 490 C 50.0233 0.399013 1.98836 0
M  V30 491 C 50.3563 -1.03314 1.64438 0
M  V30 492 O 49.6313 -1.71811 0.911659 0
M  V30 493 C 49.9143 0.591629 3.55207 0
M  V30 494 C 49.7673 2.06928 3.99376 0
M  V30 495 C 51.0863 0.022199 4.40094 0
M  V30 496 H 48.2053 0.146451 0.722303 0
M  V30 497 H 50.8473 1.02537 1.59957 0
M  V30 498 H 48.9973 0.0584441 3.88456 0
M  V30 499 H 50.6693 2.66544 3.76499 0
M  V30 500 H 48.9123 2.56287 3.49999 0
M  V30 501 H 49.5833 2.1549 5.08201 0
M  V30 502 H 52.0593 0.477643 4.13349 0
M  V30 503 H 50.9353 0.186832 5.48582 0
M  V30 504 H 51.1963 -1.07215 4.28902 0
M  V30 505 N 50.2554 -1.46986 0.568584 0
M  V30 506 C 51.2024 -2.30153 -0.172707 0
M  V30 507 C 52.1724 -1.39759 -0.897586 0
M  V30 508 O 53.3574 -1.68716 -0.891044 0
M  V30 509 C 50.4974 -3.23952 -1.1895 0
M  V30 510 C 49.6104 -4.29441 -0.469517 0
M  V30 511 C 48.7454 -5.1038 -1.47259 0
M  V30 512 C 47.7844 -6.07632 -0.738225 0
M  V30 513 N 46.9214 -6.8149 -1.68868 0
M  V30 514 H 51.7614 -2.93019 0.542596 0
M  V30 515 H 49.2984 -1.44422 0.279401 0
M  V30 516 H 51.2564 -3.76767 -1.79173 0
M  V30 517 H 49.8864 -2.62926 -1.87269 0
M  V30 518 H 48.9384 -3.79594 0.247467 0
M  V30 519 H 50.2504 -4.98689 0.105241 0
M  V30 520 H 49.4044 -5.67402 -2.14803 0
M  V30 521 H 48.1434 -4.4106 -2.08128 0
M  V30 522 H 47.1484 -5.49778 -0.0489293 0
M  V30 523 H 48.3734 -6.78966 -0.135129 0
M  V30 524 H 46.3194 -6.14891 -2.28573 0
M  V30 525 H 46.2364 -7.46948 -1.16636 0
M  V30 526 H 47.5044 -7.43078 -2.3549 0
M  V30 527 N 51.7335 -0.305618 -1.54608 0
M  V30 528 C 52.6815 0.584119 -2.25146 0
M  V30 529 C 53.6755 1.13326 -1.25911 0
M  V30 530 O 54.8815 1.08337 -1.43747 0
M  V30 531 H 51.2565 0.206983 -0.722954 0
M  V30 532 H 53.2275 -0.033291 -2.98381 0
M  V30 533 C 51.9765 1.74225 -3.009 0
M  V30 534 H 51.2995 1.32892 -3.77067 0
M  V30 535 H 52.7395 2.34077 -3.53531 0
M  V30 536 C 51.1985 2.64914 -2.0814 0
M  V30 537 O 51.7285 3.66137 -1.65246 0
M  V30 538 N 49.9345 2.3275 -1.74 0
M  V30 539 H 49.4815 1.50479 -2.09078 0
M  V30 540 H 49.4395 2.93694 -1.12211 0
M  V30 541 N 53.2116 1.57565 -0.0334293 0
M  V30 542 C 54.1616 2.06978 0.956237 0
M  V30 543 C 55.1456 0.971193 1.28283 0
M  V30 544 O 56.3376 1.23471 1.26822 0
M  V30 545 C 53.4666 2.60393 2.23719 0
M  V30 546 C 52.5526 3.7719 1.93877 0
M  V30 547 N 52.9436 4.87639 1.34321 0
M  V30 548 C 51.2416 3.85758 2.23845 0
M  V30 549 C 51.9426 5.68825 1.21709 0
M  V30 550 N 50.9186 5.1587 1.71404 0
M  V30 551 H 54.7206 2.89773 0.490815 0
M  V30 552 H 52.2346 1.61492 0.171478 0
M  V30 553 H 54.2316 2.94088 2.95496 0
M  V30 554 H 52.8916 1.79031 2.70884 0
M  V30 555 H 53.9026 5.07803 1.01767 0
M  V30 556 H 50.5796 3.1531 2.73653 0
M  V30 557 H 51.9696 6.67631 0.75621 0
M  V30 558 N 54.6897 -0.239769 1.55765 0
M  V30 559 C 55.6367 -1.29696 1.90913 0
M  V30 560 C 56.6067 -1.47478 0.764164 0
M  V30 561 O 57.7917 -1.61345 1.01845 0
M  V30 562 C 54.9317 -2.64598 2.21544 0
M  V30 563 C 54.0447 -2.54765 3.48882 0
M  V30 564 C 53.1797 -3.82069 3.69049 0
M  V30 565 C 52.2187 -3.66883 4.89963 0
M  V30 566 N 51.3557 -4.86094 5.06614 0
M  V30 567 H 56.1957 -0.990224 2.81067 0
M  V30 568 H 53.7327 -0.477684 1.39128 0
M  V30 569 H 55.6907 -3.43132 2.3731 0
M  V30 570 H 54.3207 -2.93405 1.34585 0
M  V30 571 H 53.3727 -1.67763 3.41409 0
M  V30 572 H 54.6847 -2.39457 4.37563 0
M  V30 573 H 53.8387 -4.69046 3.84812 0
M  V30 574 H 52.5777 -4.00282 2.78614 0
M  V30 575 H 51.5827 -2.78289 4.74168 0
M  V30 576 H 52.8077 -3.50157 5.81865 0
M  V30 577 H 50.7537 -5.04655 4.19117 0
M  V30 578 H 50.6707 -4.73443 5.89396 0
M  V30 579 H 51.9387 -5.74549 5.26795 0
M  V30 580 N 56.1678 -1.49265 -0.50573 0
M  V30 581 C 57.4148 -1.58513 -1.26015 0
M  V30 582 C 57.7428 -0.26972 -1.92621 0
M  V30 583 O 56.9978 0.741997 -1.81088 0
M  V30 584 C 57.2968 -2.69008 -2.35308 0
M  V30 585 C 56.9628 -4.10662 -1.86192 0
M  V30 586 C 55.6248 -4.49212 -1.72516 0
M  V30 587 C 57.9768 -4.99336 -1.49375 0
M  V30 588 C 55.3048 -5.74214 -1.20394 0
M  V30 589 C 57.6568 -6.24852 -0.987072 0
M  V30 590 C 56.3208 -6.62236 -0.836669 0
M  V30 591 H 55.5908 -0.580041 -0.461122 0
M  V30 592 H 58.2378 -1.83078 -0.561665 0
M  V30 593 H 56.5428 -2.38396 -3.10926 0
M  V30 594 H 58.2398 -2.73373 -2.93374 0
M  V30 595 H 54.8298 -3.8023 -1.97795 0
M  V30 596 H 59.0138 -4.70212 -1.5879 0
M  V30 597 H 54.2698 -6.01883 -1.07458 0
M  V30 598 H 58.4438 -6.92944 -0.692983 0
M  V30 599 H 56.0708 -7.58979 -0.430607 0
M  V30 600 N 57.6459 0.756429 -1.3826 0
M  V30 601 C 58.8739 1.54565 -1.3754 0
M  V30 602 C 59.2889 1.88767 0.0355331 0
M  V30 603 O 58.6459 1.52572 1.0014 0
M  V30 604 C 58.6969 2.84654 -2.22833 0
M  V30 605 O 58.4179 2.51912 -3.5843 0
M  V30 606 C 59.9189 3.78807 -2.30261 0
M  V30 607 H 57.1389 0.478353 -0.470553 0
M  V30 608 H 59.6829 0.936381 -1.81803 0
M  V30 609 H 57.8379 3.41965 -1.8204 0
M  V30 610 H 58.2519 3.35325 -4.03308 0
M  V30 611 H 59.7259 4.67045 -2.94233 0
M  V30 612 H 60.2029 4.19038 -1.31545 0
M  V30 613 H 60.8089 3.2742 -2.71433 0
M  V30 614 N 59.124 1.23083 0.984299 0
M  V30 615 C 60.087 1.00979 2.05757 0
M  V30 616 C 61.087 -0.0269573 1.60777 0
M  V30 617 O 62.277 0.212403 1.729 0
M  V30 618 C 59.409 0.527072 3.36801 0
M  V30 619 H 60.602 1.9622 2.26799 0
M  V30 620 H 58.155 1.05072 1.15714 0
M  V30 621 H 58.89 -0.429294 3.21446 0
M  V30 622 H 58.675 1.27515 3.70786 0
M  V30 623 H 60.165 0.392942 4.15747 0
M  V30 624 N 60.6021 -1.18246 1.0419 0
M  V30 625 C 62.0181 -1.40269 0.761366 0
M  V30 626 C 62.2181 -1.90777 -0.648578 0
M  V30 627 O 61.2741 -2.0929 -1.41258 0
M  V30 628 C 62.5871 -2.40237 1.8085 0
M  V30 629 C 64.1351 -2.53961 1.82955 0
M  V30 630 C 64.6101 -3.57194 2.86664 0
M  V30 631 N 66.1011 -3.64702 2.85563 0
M  V30 632 C 66.8361 -4.44309 3.6246 0
M  V30 633 N 66.3321 -5.27514 4.49111 0
M  V30 634 N 68.1251 -4.39084 3.50944 0
M  V30 635 H 60.2761 -0.837882 1.95175 0
M  V30 636 H 62.5391 -0.430608 0.84456 0
M  V30 637 H 62.2451 -2.10176 2.81991 0
M  V30 638 H 62.1191 -3.39601 1.64168 0
M  V30 639 H 64.5061 -2.83338 0.824855 0
M  V30 640 H 64.5871 -1.54706 2.03715 0
M  V30 641 H 64.2311 -3.28558 3.87314 0
M  V30 642 H 64.1611 -4.5613 2.6316 0
M  V30 643 H 66.6521 -3.05289 2.22727 0
M  V30 644 H 66.9651 -5.85411 5.04493 0
M  V30 645 H 65.3101 -5.2693 4.53178 0
M  V30 646 H 68.5011 -3.7313 2.82651 0
M  V30 647 H 68.6741 -5.00883 4.11121 0
M  V30 648 N 62.0802 -0.821533 -1.34494 0
M  V30 649 C 63.3272 -0.408946 -1.98328 0
M  V30 650 C 63.6552 1.02764 -1.65136 0
M  V30 651 O 62.9102 1.73026 -0.914349 0
M  V30 652 C 63.2092 -0.556512 -3.53041 0
M  V30 653 C 62.8752 -1.95861 -4.0614 0
M  V30 654 C 61.5372 -2.34217 -4.20352 0
M  V30 655 C 63.8892 -2.87523 -4.34718 0
M  V30 656 C 61.2172 -3.63572 -4.6047 0
M  V30 657 C 63.5692 -4.1634 -4.76281 0
M  V30 658 C 62.2332 -4.54675 -4.88699 0
M  V30 659 H 61.5032 -0.149644 -0.725732 0
M  V30 660 H 64.1502 -1.04521 -1.6046 0
M  V30 661 H 62.4552 0.163148 -3.9146 0
M  V30 662 H 64.1522 -0.217826 -4.00408 0
M  V30 663 H 60.7422 -1.65066 -3.95539 0
M  V30 664 H 64.9262 -2.59133 -4.23277 0
M  V30 665 H 60.1822 -3.93101 -4.68275 0
M  V30 666 H 64.3562 -4.87455 -4.97354 0
M  V30 667 H 61.9832 -5.54959 -5.19542 0
M  V30 668 N 63.5583 1.46682 -0.576371 0
M  V30 669 C 64.8053 2.02412 -0.0595339 0
M  V30 670 C 65.1333 1.44859 1.29793 0
M  V30 671 O 64.3883 0.601099 1.8624 0
M  V30 672 C 64.6873 3.57345 0.062886 0
M  V30 673 C 64.3533 4.33908 -1.22616 0
M  V30 674 C 63.0153 4.54544 -1.57933 0
M  V30 675 C 65.3673 4.77919 -2.07948 0
M  V30 676 C 62.6953 5.16444 -2.78393 0
M  V30 677 C 65.0473 5.41149 -3.27629 0
M  V30 678 C 63.7113 5.60014 -3.63236 0
M  V30 679 H 62.9813 0.74068 -0.021785 0
M  V30 680 H 65.6283 1.76128 -0.751735 0
M  V30 681 H 63.9333 3.82729 0.838178 0
M  V30 682 H 65.6303 3.98136 0.478439 0
M  V30 683 H 62.2203 4.18138 -0.941202 0
M  V30 684 H 66.4043 4.61738 -1.81967 0
M  V30 685 H 61.6603 5.29242 -3.06126 0
M  V30 686 H 65.8343 5.74211 -3.94023 0
M  V30 687 H 63.4613 6.07748 -4.56669 0
M  V30 688 N 65.0364 0.313813 1.54444 0
M  V30 689 C 65.9834 -0.55655 2.23989 0
M  V30 690 C 66.9534 -1.11943 1.22711 0
M  V30 691 O 68.1384 -1.16158 1.51367 0
M  V30 692 C 65.2784 -1.71635 2.99392 0
M  V30 693 C 64.3914 -1.18364 4.15468 0
M  V30 694 C 63.5264 -2.30834 4.78424 0
M  V30 695 C 62.5654 -1.74762 5.86622 0
M  V30 696 N 61.7024 -2.80855 6.43479 0
M  V30 697 H 66.5424 0.0430893 2.97969 0
M  V30 698 H 64.0794 0.0330359 1.47063 0
M  V30 699 H 66.0374 -2.39868 3.41349 0
M  V30 700 H 64.6674 -2.28742 2.27765 0
M  V30 701 H 63.7194 -0.393163 3.78363 0
M  V30 702 H 65.0314 -0.733262 4.93381 0
M  V30 703 H 64.1854 -3.0699 5.23299 0
M  V30 704 H 62.9244 -2.79204 3.99871 0
M  V30 705 H 61.9294 -0.970995 5.41158 0
M  V30 706 H 63.1544 -1.2728 6.67066 0
M  V30 707 H 61.1004 -3.28535 5.67804 0
M  V30 708 H 61.0174 -2.40351 7.16776 0
M  V30 709 H 62.2854 -3.5687 6.93011 0
M  V30 710 N 66.5145 -1.57545 0.0417849 0
M  V30 711 C 67.4465 -2.07904 -0.964799 0
M  V30 712 C 68.4595 -1.00497 -1.28079 0
M  V30 713 O 69.6485 -1.28087 -1.24322 0
M  V30 714 C 66.7485 -2.49928 -2.28887 0
M  V30 715 C 65.9215 -3.80562 -2.15619 0
M  V30 716 C 64.9805 -4.08999 -3.31069 0
M  V30 717 O 64.0065 -4.79061 -3.0739 0
M  V30 718 N 65.2085 -3.6017 -4.55256 0
M  V30 719 H 67.9735 -2.94886 -0.535029 0
M  V30 720 H 65.5345 -1.61252 -0.144681 0
M  V30 721 H 67.5265 -2.66034 -3.04972 0
M  V30 722 H 66.0965 -1.68245 -2.63463 0
M  V30 723 H 65.3165 -3.74129 -1.24183 0
M  V30 724 H 66.6045 -4.66126 -2.03971 0
M  V30 725 H 66.0025 -3.03512 -4.77386 0
M  V30 726 H 64.5595 -3.81532 -5.28466 0
M  V30 727 N 67.9926 0.231505 -1.5589 0
M  V30 728 C 69.4036 0.799327 -1.68724 0
M  V30 729 C 69.7546 1.85398 -0.642022 0
M  V30 730 O 68.8796 2.1539 0.208784 0
M  V30 731 C 69.4746 1.45664 -3.05888 0
M  V30 732 C 68.0336 1.97197 -3.20609 0
M  V30 733 C 67.1806 0.828552 -2.64632 0
M  V30 734 H 70.1316 0.00702616 -1.58698 0
M  V30 735 H 70.1526 2.32517 -3.01191 0
M  V30 736 H 69.6646 0.688808 -3.81939 0
M  V30 737 H 67.7656 2.76813 -2.4941 0
M  V30 738 H 67.8786 2.15878 -4.27707 0
M  V30 739 H 66.2426 1.23321 -2.22854 0
M  V30 740 H 67.0256 0.0735544 -3.43221 0
M  V30 741 N 69.4707 1.49531 0.497807 0
M  V30 742 C 70.6987 1.62893 1.27567 0
M  V30 743 C 71.1137 0.301585 1.86376 0
M  V30 744 O 70.4707 -0.713335 1.67982 0
M  V30 745 C 70.5217 2.70013 2.40364 0
M  V30 746 O 70.2427 3.976 1.83972 0
M  V30 747 C 71.7437 2.94109 3.31685 0
M  V30 748 H 68.9637 0.548298 0.386794 0
M  V30 749 H 71.5077 1.95584 0.597245 0
M  V30 750 H 69.6627 2.40092 3.04031 0
M  V30 751 H 70.0767 4.56631 2.58047 0
M  V30 752 H 71.5507 3.72788 4.07104 0
M  V30 753 H 72.0277 2.04147 3.88871 0
M  V30 754 H 72.6337 3.2546 2.73781 0
M  V30 755 N 70.9488 -0.749086 1.3866 0
M  V30 756 C 72.1958 -1.50833 1.35114 0
M  V30 757 C 72.5238 -1.94415 -0.0574049 0
M  V30 758 O 71.7788 -1.66065 -1.03541 0
M  V30 759 C 72.0778 -2.7712 2.25697 0
M  V30 760 C 71.7438 -2.52477 3.73585 0
M  V30 761 C 70.4058 -2.45466 4.13884 0
M  V30 762 C 72.7578 -2.31066 4.67181 0
M  V30 763 C 70.0858 -2.15064 5.45861 0
M  V30 764 C 72.4378 -2.02183 5.9942 0
M  V30 765 C 71.1018 -1.93631 6.38798 0
M  V30 766 H 70.3718 -0.551936 0.494416 0
M  V30 767 H 73.0188 -0.860979 1.71054 0
M  V30 768 H 71.3238 -3.46528 1.82827 0
M  V30 769 H 73.0208 -3.35096 2.20254 0
M  V30 770 H 69.6108 -2.58807 3.41638 0
M  V30 771 H 73.7948 -2.35459 4.3689 0
M  V30 772 H 69.0508 -2.06954 5.75308 0
M  V30 773 H 73.2248 -1.8462 6.71482 0
M  V30 774 H 70.8518 -1.69839 7.40985 0
M  V30 775 N 72.4269 -1.23603 -0.977757 0
M  V30 776 C 73.6669 -1.08148 -1.73446 0
M  V30 777 C 74.0309 0.374785 -1.88307 0
M  V30 778 O 75.2319 0.650588 -2.60808 0
M  V30 779 C 73.5029 -1.78991 -3.0935 0
M  V30 780 S 75.0619 -1.79141 -4.00567 0
M  V30 781 H 71.8799 -0.386987 -0.596458 0
M  V30 782 H 74.4819 -1.5678 -1.16792 0
M  V30 783 H 73.1859 -2.8408 -2.96187 0
M  V30 784 H 72.7169 -1.30651 -3.71071 0
M  V30 785 H 74.7319 -0.851892 -4.88833 0
M  V30 786 N 73.905 1.17692 -1.04816 0
M  V30 787 C 75.13 1.92327 -0.776207 0
M  V30 788 C 75.555 1.76082 0.661581 0
M  V30 789 O 74.913 1.076 1.45917 0
M  V30 790 C 74.961 3.41539 -1.15687 0
M  V30 791 O 74.065 4.11402 -0.286775 0
M  V30 792 H 73.406 0.599735 -0.284981 0
M  V30 793 H 75.936 1.49201 -1.4 0
M  V30 794 H 75.946 3.92269 -1.12202 0
M  V30 795 H 74.621 3.52684 -2.20425 0
M  V30 796 H 73.198 3.70939 -0.381903 0
M  V30 797 N 75.3831 0.828654 1.34056 0
M  V30 798 C 76.3331 0.226828 2.26869 0
M  V30 799 C 77.3171 -0.612243 1.48796 0
M  V30 800 O 78.5091 -0.465884 1.70759 0
M  V30 801 C 75.6381 -0.605654 3.37915 0
M  V30 802 C 74.7241 0.244361 4.23395 0
M  V30 803 N 75.1151 1.31815 4.88322 0
M  V30 804 C 73.4131 0.0296616 4.4599 0
M  V30 805 C 74.1141 1.83895 5.51867 0
M  V30 806 N 73.0901 1.14196 5.3147 0
M  V30 807 H 76.8921 1.04811 2.74576 0
M  V30 808 H 74.4061 0.67205 1.47842 0
M  V30 809 H 76.4031 -1.05302 4.03382 0
M  V30 810 H 75.0631 -1.42504 2.91758 0
M  V30 811 H 76.0741 1.70099 4.8917 0
M  V30 812 H 72.7511 -0.757097 4.10578 0
M  V30 813 H 74.1411 2.7376 6.136 0
M  V30 814 N 76.8612 -1.46375 0.584142 0
M  V30 815 C 78.1012 -2.0427 0.0729695 0
M  V30 816 C 78.4652 -1.44563 -1.26355 0
M  V30 817 O 79.6662 -1.93667 -1.86405 0
M  V30 818 C 77.9372 -3.57399 0.00967464 0
M  V30 819 S 79.4962 -4.36551 -0.443714 0
M  V30 820 H 76.3142 -0.709975 0.0381673 0
M  V30 821 H 78.9162 -1.79398 0.776962 0
M  V30 822 H 77.6202 -3.98372 0.986319 0
M  V30 823 H 77.1512 -3.8681 -0.717044 0
M  V30 824 H 79.1662 -4.66237 -1.69816 0
M  V30 825 N 78.3393 -0.321999 -1.54275 0
M  V30 826 C 79.5673 0.283052 -2.04955 0
M  V30 827 C 79.9823 1.45904 -1.19823 0
M  V30 828 O 79.3393 1.81063 -0.228545 0
M  V30 829 C 79.3903 0.719028 -3.54277 0
M  V30 830 O 79.1113 -0.410175 -4.36176 0
M  V30 831 C 80.6123 1.38705 -4.21041 0
M  V30 832 H 77.8323 0.0584616 -0.668448 0
M  V30 833 H 80.3763 -0.467734 -1.99079 0
M  V30 834 H 78.5313 1.41979 -3.60445 0
M  V30 835 H 78.9453 -0.0669416 -5.24457 0
M  V30 836 H 80.4193 1.64306 -5.2698 0
M  V30 837 H 80.8963 2.33385 -3.72059 0
M  V30 838 H 81.5023 0.728906 -4.19007 0
M  V30 839 N 79.8174 1.5752 -0.0501392 0
M  V30 840 C 81.0944 1.83996 0.663685 0
M  V30 841 C 81.4744 0.938339 1.89099 0
M  V30 842 O 80.8224 -0.00087759 2.285 0
M  V30 843 C 81.0324 3.33702 1.02196 0
M  V30 844 C 82.3804 4.00691 1.40469 0
M  V30 845 O 83.4044 3.38321 1.11433 0
M  V30 846 O 82.2634 5.10658 1.94654 0
M  V30 847 H 79.3574 0.759385 0.32751 0
M  V30 848 H 81.9034 1.69514 -0.0794238 0
M  V30 849 H 80.6754 3.91015 0.149364 0
M  V30 850 H 80.2984 3.53368 1.82255 0
M  V30 851 N 81.2955 -0.223234 1.56011 0
M  V30 852 C 82.5425 -0.947875 1.78946 0
M  V30 853 C 82.8705 -1.844 0.618608 0
M  V30 854 O 82.1255 -1.91629 -0.397093 0
M  V30 855 C 82.4245 -1.81948 3.0762 0
M  V30 856 C 82.0905 -1.07672 4.37856 0
M  V30 857 C 80.7525 -0.871544 4.73242 0
M  V30 858 C 83.1045 -0.552081 5.18268 0
M  V30 859 C 80.4325 -0.129791 5.86556 0
M  V30 860 C 82.7845 0.17632 6.32354 0
M  V30 861 C 81.4485 0.39277 6.66343 0
M  V30 862 H 80.7185 -0.346852 0.654809 0
M  V30 863 H 83.3655 -0.216171 1.90276 0
M  V30 864 H 81.6705 -2.61899 2.91404 0
M  V30 865 H 83.3675 -2.38227 3.22566 0
M  V30 866 H 79.9575 -1.24662 4.1007 0
M  V30 867 H 84.1415 -0.698076 4.91366 0
M  V30 868 H 79.3975 0.048153 6.11381 0
M  V30 869 H 83.5715 0.590367 6.93893 0
M  V30 870 H 81.1985 0.969466 7.53993 0
M  V30 871 N 82.7736 -1.49793 -0.48987 0
M  V30 872 C 84.0226 -1.59085 -1.23995 0
M  V30 873 C 84.3356 -0.287907 -1.9347 0
M  V30 874 O 85.5416 -0.259506 -2.70257 0
M  V30 875 C 83.9976 -2.80736 -2.252 0
M  V30 876 C 83.6056 -4.17833 -1.61614 0
M  V30 877 C 85.3496 -2.99364 -3.00967 0
M  V30 878 C 83.2566 -5.30693 -2.60996 0
M  V30 879 H 82.1866 -0.592372 -0.466488 0
M  V30 880 H 84.8376 -1.76197 -0.51252 0
M  V30 881 H 83.2196 -2.57142 -3.01154 0
M  V30 882 H 84.3936 -4.51608 -0.915774 0
M  V30 883 H 82.7086 -4.04656 -0.981977 0
M  V30 884 H 85.3056 -3.80851 -3.75308 0
M  V30 885 H 85.6486 -2.10356 -3.59244 0
M  V30 886 H 86.1816 -3.2305 -2.32128 0
M  V30 887 H 82.9206 -6.21796 -2.07485 0
M  V30 888 H 82.4406 -5.01359 -3.2924 0
M  V30 889 H 84.1196 -5.6049 -3.23202 0
M  V30 890 N 84.2517 0.741722 -1.39055 0
M  V30 891 C 85.4977 1.50234 -1.37118 0
M  V30 892 C 85.8527 1.92368 0.0350439 0
M  V30 893 O 85.1457 1.63422 1.00019 0
M  V30 894 C 85.3397 2.7592 -2.27163 0
M  V30 895 C 85.1687 2.46074 -3.76401 0
M  V30 896 C 83.9387 2.38704 -4.45364 0
M  V30 897 C 86.1367 2.12062 -4.68545 0
M  V30 898 N 84.1187 2.01258 -5.79973 0
M  V30 899 C 85.4897 1.85005 -5.91754 0
M  V30 900 C 87.5447 1.98473 -4.56632 0
M  V30 901 C 86.2477 1.4573 -7.04383 0
M  V30 902 C 88.2737 1.60599 -5.69176 0
M  V30 903 C 87.6357 1.34423 -6.91455 0
M  V30 904 H 83.7347 0.548858 -0.557027 0
M  V30 905 H 86.3187 0.862642 -1.74547 0
M  V30 906 H 84.4897 3.3768 -1.91904 0
M  V30 907 H 86.2217 3.42068 -2.16267 0
M  V30 908 H 82.9767 2.55574 -3.98721 0
M  V30 909 H 83.4007 1.85147 -6.51191 0
M  V30 910 H 88.0427 2.17381 -3.62637 0
M  V30 911 H 85.7607 1.25562 -7.98286 0
M  V30 912 H 89.3467 1.507 -5.61944 0
M  V30 913 H 88.2267 1.05555 -7.77064 0
M  V30 914 N 85.7298 1.2412 0.971189 0
M  V30 915 C 86.9778 1.07668 1.71032 0
M  V30 916 C 87.2988 -0.385797 1.91146 0
M  V30 917 O 86.5688 -1.27569 1.4867 0
M  V30 918 H 85.1488 0.395429 0.633755 0
M  V30 919 H 87.8108 1.55984 1.16855 0
M  V30 920 H 86.9068 1.57195 2.69622 0
M  V30 921 N 87.2079 -1.17134 1.05439 0
M  V30 922 C 88.4549 -1.87456 0.765942 0
M  V30 923 C 88.7829 -1.81189 -0.707153 0
M  V30 924 O 88.0379 -1.21633 -1.5331 0
M  V30 925 C 88.3369 -3.36833 1.19491 0
M  V30 926 C 88.0029 -3.63301 2.67063 0
M  V30 927 C 86.6649 -3.70234 3.07376 0
M  V30 928 C 89.0169 -3.74575 3.62413 0
M  V30 929 C 86.3449 -3.85933 4.41896 0
M  V30 930 C 88.6969 -3.91793 4.9667 0
M  V30 931 C 87.3609 -3.96966 5.36633 0
M  V30 932 H 86.6309 -0.685948 0.280278 0
M  V30 933 H 89.2779 -1.38556 1.32192 0
M  V30 934 H 87.5829 -3.87807 0.557969 0
M  V30 935 H 89.2799 -3.89611 0.948893 0
M  V30 936 H 85.8699 -3.58532 2.34846 0
M  V30 937 H 90.0539 -3.68537 3.32406 0
M  V30 938 H 85.3099 -3.88187 4.72357 0
M  V30 939 H 89.4839 -3.99458 5.70444 0
M  V30 940 H 87.1109 -4.08883 6.40874 0
M  V30 941 N 88.686 -0.835752 -1.33615 0
M  V30 942 C 89.934 -0.429109 -1.97492 0
M  V30 943 C 90.255 1.01433 -1.66543 0
M  V30 944 O 89.525 1.70611 -0.962744 0
M  V30 945 H 88.105 -0.155686 -0.730596 0
M  V30 946 H 90.767 -1.06802 -1.63031 0
M  V30 947 H 89.863 -0.55861 -3.0706 0
M  V30 948 N 90.1641 1.46063 -0.591896 0
M  V30 949 C 91.1111 2.30399 0.136069 0
M  V30 950 C 92.0811 1.41169 0.875238 0
M  V30 951 O 93.2661 1.70112 0.86409 0
M  V30 952 C 90.4061 3.25804 1.13781 0
M  V30 953 C 89.5191 4.30134 0.401137 0
M  V30 954 C 88.6541 5.12659 1.39121 0
M  V30 955 C 87.6931 6.0873 0.641462 0
M  V30 956 N 86.8301 6.8409 1.58004 0
M  V30 957 H 91.6701 2.92118 -0.589144 0
M  V30 958 H 89.2071 1.43959 -0.302342 0
M  V30 959 H 91.1651 3.79569 1.73156 0
M  V30 960 H 89.7951 2.65872 1.83062 0
M  V30 961 H 88.8471 3.79152 -0.307826 0
M  V30 962 H 90.1591 4.98458 -0.184565 0
M  V30 963 H 89.3131 5.70747 2.05749 0
M  V30 964 H 88.0521 4.44316 2.01084 0
M  V30 965 H 87.0571 5.49786 -0.0385419 0
M  V30 966 H 88.2821 6.79095 0.0270945 0
M  V30 967 H 86.2281 6.18449 2.18761 0
M  V30 968 H 86.1451 7.48709 1.04738 0
M  V30 969 H 87.4131 7.4673 2.23639 0
M  V30 970 N 91.6422 0.330177 1.54103 0
M  V30 971 C 92.5742 -0.566902 2.22079 0
M  V30 972 C 93.5872 -1.07462 1.22294 0
M  V30 973 O 94.7762 -0.987065 1.48726 0
M  V30 974 C 91.8762 -1.79138 2.87685 0
M  V30 975 C 91.0492 -1.42123 4.13666 0
M  V30 976 C 90.1082 -2.50394 4.62806 0
M  V30 977 O 89.1342 -2.14261 5.27334 0
M  V30 978 N 90.3362 -3.81433 4.37595 0
M  V30 979 H 93.1012 0.0151844 2.99696 0
M  V30 980 H 90.6622 0.153681 1.61169 0
M  V30 981 H 92.6542 -2.50975 3.1748 0
M  V30 982 H 91.2242 -2.28115 2.13734 0
M  V30 983 H 90.4442 -0.534201 3.90564 0
M  V30 984 H 91.7322 -1.14971 4.9564 0
M  V30 985 H 91.1302 -4.13584 3.8596 0
M  V30 986 H 89.6872 -4.4948 4.72029 0
M  V30 987 N 93.1203 -1.57491 0.0584922 0
M  V30 988 C 94.3683 -1.92597 -0.612436 0
M  V30 989 C 94.6893 -0.938162 -1.70949 0
M  V30 990 O 93.9593 0.0158301 -1.95894 0
M  V30 991 H 92.5393 -0.710964 -0.229214 0
M  V30 992 H 95.2013 -1.94571 0.113218 0
M  V30 993 H 94.2973 -2.94038 -1.04633 0
M  V30 994 N 94.5984 0.214957 -1.56127 0
M  V30 995 C 95.8454 0.938372 -1.79446 0
M  V30 996 C 96.1734 1.8407 -0.628378 0
M  V30 997 O 95.4284 1.91837 0.386925 0
M  V30 998 C 95.7274 1.80314 -3.0858 0
M  V30 999 C 95.3934 1.05349 -4.3842 0
M  V30 1000 C 94.0554 0.846435 -4.73697 0
M  V30 1001 C 96.4074 0.524588 -5.18553 0
M  V30 1002 C 93.7354 0.098683 -5.86617 0
M  V30 1003 C 96.0874 -0.209853 -6.32252 0
M  V30 1004 C 94.7514 -0.428102 -6.66126 0
M  V30 1005 H 94.0214 0.343375 -0.656639 0
M  V30 1006 H 96.6684 0.206077 -1.90388 0
M  V30 1007 H 94.9734 2.6035 -2.92789 0
M  V30 1008 H 96.6704 2.36513 -3.23825 0
M  V30 1009 H 93.2604 1.22486 -4.10725 0
M  V30 1010 H 97.4444 0.672008 -4.91729 0
M  V30 1011 H 92.7004 -0.0805753 -6.11347 0
M  V30 1012 H 96.8744 -0.627157 -6.9357 0
M  V30 1013 H 94.5014 -1.00944 -7.53468 0
M  V30 1014 N 96.0765 1.50051 0.48192 0
M  V30 1015 C 97.0085 1.64263 1.59844 0
M  V30 1016 C 98.0215 0.52451 1.54119 0
M  V30 1017 O 99.2105 0.797293 1.59704 0
M  V30 1018 C 96.3105 1.60102 2.98698 0
M  V30 1019 C 95.4835 2.87767 3.29407 0
M  V30 1020 C 94.5425 2.76397 4.47762 0
M  V30 1021 O 93.5685 3.50348 4.48603 0
M  V30 1022 N 94.7705 1.89222 5.48794 0
M  V30 1023 H 97.5355 2.60566 1.48073 0
M  V30 1024 H 95.0965 1.47379 0.670149 0
M  V30 1025 H 97.0885 1.50123 3.75826 0
M  V30 1026 H 95.6585 0.715798 3.04294 0
M  V30 1027 H 94.8785 3.11954 2.40994 0
M  V30 1028 H 96.1665 3.72365 3.4673 0
M  V30 1029 H 95.5645 1.28434 5.50928 0
M  V30 1030 H 94.1215 1.85154 6.24949 0
M  V30 1031 N 97.5546 -0.734337 1.39446 0
M  V30 1032 C 98.7946 -1.50655 1.38139 0
M  V30 1033 C 99.1586 -1.91986 -0.0228701 0
M  V30 1034 O 100.36 -2.68318 -0.160947 0
M  V30 1035 C 98.6306 -2.71251 2.32718 0
M  V30 1036 S 100.19 -3.60892 2.49605 0
M  V30 1037 H 97.0076 -0.515315 0.489869 0
M  V30 1038 H 99.6096 -0.860392 1.75549 0
M  V30 1039 H 98.3136 -2.39027 3.33608 0
M  V30 1040 H 97.8446 -3.40795 1.96526 0
M  V30 1041 H 99.8596 -4.64899 1.73446 0
M  V30 1042 N 99.0327 -1.24633 -0.964593 0
M  V30 1043 C 99.9647 -0.999302 -2.06268 0
M  V30 1044 C 100.978 0.0323226 -1.62768 0
M  V30 1045 O 102.167 -0.205079 -1.77318 0
M  V30 1046 C 99.2667 -0.486816 -3.35385 0
M  V30 1047 C 98.4397 -1.5823 -4.07777 0
M  V30 1048 C 97.4987 -1.07191 -5.15166 0
M  V30 1049 O 96.5247 -1.76426 -5.41168 0
M  V30 1050 N 97.7267 0.0920373 -5.80427 0
M  V30 1051 H 100.492 -1.94477 -2.28033 0
M  V30 1052 H 98.0527 -1.15704 -1.13244 0
M  V30 1053 H 100.045 -0.130066 -4.04491 0
M  V30 1054 H 98.6147 0.364459 -3.10468 0
M  V30 1055 H 97.8347 -2.11109 -3.32906 0
M  V30 1056 H 99.1227 -2.31854 -4.52903 0
M  V30 1057 H 98.5207 0.670784 -5.61709 0
M  V30 1058 H 97.0777 0.389905 -6.50633 0
M  V30 1059 N 100.511 1.16574 -1.06058 0
M  V30 1060 C 101.757 1.87324 -0.777022 0
M  V30 1061 C 102.09 1.81351 0.694645 0
M  V30 1062 O 101.365 1.22753 1.50871 0
M  V30 1063 C 101.648 3.36991 -1.26922 0
M  V30 1064 C 101.501 3.51667 -2.80447 0
M  V30 1065 C 102.82 4.3131 -0.87521 0
M  V30 1066 H 99.9388 0.680191 -0.28374 0
M  V30 1067 H 102.581 1.37036 -1.3161 0
M  V30 1068 H 100.731 3.79949 -0.81063 0
M  V30 1069 H 102.403 3.17664 -3.34495 0
M  V30 1070 H 100.646 2.93656 -3.19294 0
M  V30 1071 H 101.317 4.56766 -3.0995 0
M  V30 1072 H 103.793 3.9624 -1.27014 0
M  V30 1073 H 102.669 5.34545 -1.2471 0
M  V30 1074 H 102.93 4.41552 0.220071 0
M  V30 1075 N 101.989 0.842826 1.3317 0
M  V30 1076 C 103.229 0.446574 1.99462 0
M  V30 1077 C 103.593 -0.976818 1.65295 0
M  V30 1078 O 104.794 -1.477 2.24584 0
M  V30 1079 C 103.065 0.665353 3.51152 0
M  V30 1080 S 104.624 0.364911 4.3728 0
M  V30 1081 H 101.442 0.167803 0.690915 0
M  V30 1082 H 104.044 1.09297 1.62094 0
M  V30 1083 H 102.748 1.7006 3.73507 0
M  V30 1084 H 102.279 0.00494568 3.934 0
M  V30 1085 H 104.294 -0.813761 4.89482 0
M  V30 1086 N 103.467 -1.45747 0.599634 0
M  V30 1087 C 104.707 -2.04181 0.0946309 0
M  V30 1088 C 105.071 -1.45895 -1.24815 0
M  V30 1089 O 106.272 -1.95633 -1.8434 0
M  V30 1090 C 104.543 -3.57368 0.047581 0
M  V30 1091 S 106.102 -4.36997 -0.397387 0
M  V30 1092 H 102.92 -0.70953 0.0456954 0
M  V30 1093 H 105.522 -1.78564 0.795946 0
M  V30 1094 H 104.226 -3.97303 1.02852 0
M  V30 1095 H 103.757 -3.87549 -0.675977 0
M  V30 1096 H 105.772 -4.68012 -1.64862 0
M  V30 1097 N 104.945 -0.338344 -1.53925 0
M  V30 1098 C 106.192 0.259758 -2.00827 0
M  V30 1099 C 106.52 1.50973 -1.22628 0
M  V30 1100 O 105.775 1.93379 -0.300509 0
M  V30 1101 C 106.074 0.62448 -3.51902 0
M  V30 1102 C 105.74 -0.528006 -4.47798 0
M  V30 1103 C 104.402 -0.844298 -4.73735 0
M  V30 1104 C 106.754 -1.30143 -5.0469 0
M  V30 1105 C 104.082 -1.93648 -5.53821 0
M  V30 1106 C 106.434 -2.38382 -5.85967 0
M  V30 1107 C 105.098 -2.70576 -6.10201 0
M  V30 1108 H 104.368 0.0950523 -0.734878 0
M  V30 1109 H 107.015 -0.465182 -1.85764 0
M  V30 1110 H 105.32 1.43006 -3.64769 0
M  V30 1111 H 107.017 1.09905 -3.85645 0
M  V30 1112 H 103.607 -0.271421 -4.2774 0
M  V30 1113 H 107.791 -1.07033 -4.84621 0
M  V30 1114 H 103.047 -2.19021 -5.70824 0
M  V30 1115 H 107.221 -2.98746 -6.29066 0
M  V30 1116 H 104.848 -3.55333 -6.72044 0
M  V30 1117 N 106.423 1.57458 -0.0668435 0
M  V30 1118 C 107.669 1.93587 0.6043 0
M  V30 1119 C 108.002 0.946722 1.69561 0
M  V30 1120 O 107.277 -0.0248516 1.94484 0
M  V30 1121 C 107.56 3.40014 1.18585 0
M  V30 1122 C 107.413 4.49685 0.101529 0
M  V30 1123 C 108.732 3.87154 2.09284 0
M  V30 1124 H 105.851 0.703958 0.218202 0
M  V30 1125 H 108.493 1.89542 -0.131804 0
M  V30 1126 H 106.643 3.43592 1.81319 0
M  V30 1127 H 108.315 4.5823 -0.531279 0
M  V30 1128 H 106.558 4.30059 -0.568487 0
M  V30 1129 H 107.229 5.49266 0.54874 0
M  V30 1130 H 109.705 3.85551 1.56491 0
M  V30 1131 H 108.581 4.90231 2.46911 0
M  V30 1132 H 108.842 3.2481 2.99918 0
M  V30 1133 N 107.901 -0.206675 1.56239 0
M  V30 1134 C 109.147 -0.930218 1.80208 0
M  V30 1135 C 109.48 -1.83387 0.638981 0
M  V30 1136 O 108.755 -1.91119 -0.361066 0
M  V30 1137 C 109.038 -1.75641 3.1436 0
M  V30 1138 C 108.891 -0.878257 4.41142 0
M  V30 1139 C 110.21 -2.73129 3.45092 0
M  V30 1140 H 107.329 -0.336742 0.655571 0
M  V30 1141 H 109.971 -0.198222 1.88963 0
M  V30 1142 H 108.121 -2.38048 3.07027 0
M  V30 1143 H 109.793 -0.269787 4.6051 0
M  V30 1144 H 108.036 -0.184385 4.33408 0
M  V30 1145 H 108.707 -1.49106 5.3148 0
M  V30 1146 H 111.183 -2.20856 3.52649 0
M  V30 1147 H 110.059 -3.28028 4.40101 0
M  V30 1148 H 110.32 -3.51606 2.68003 0
M  V30 1149 N 109.379 -1.50304 -0.473955 0
M  V30 1150 C 110.329 -1.65347 -1.56985 0
M  V30 1151 C 111.313 -0.508176 -1.52664 0
M  V30 1152 O 112.505 -0.762446 -1.59737 0
M  V30 1153 C 109.634 -1.74832 -2.95447 0
M  V30 1154 C 108.72 -2.95028 -3.04662 0
M  V30 1155 N 109.111 -4.18747 -2.83698 0
M  V30 1156 C 107.409 -2.93527 -3.35795 0
M  V30 1157 C 108.11 -4.99687 -2.97805 0
M  V30 1158 N 107.086 -4.33585 -3.2788 0
M  V30 1159 H 110.888 -2.58698 -1.39472 0
M  V30 1160 H 108.402 -1.47449 -0.680629 0
M  V30 1161 H 110.399 -1.83712 -3.7424 0
M  V30 1162 H 109.059 -0.826376 -3.14008 0
M  V30 1163 H 110.07 -4.48291 -2.59337 0
M  V30 1164 H 106.747 -2.10821 -3.60362 0
M  V30 1165 H 108.137 -6.08057 -2.85861 0
M  V30 1166 N 110.857 0.726932 -1.39834 0
M  V30 1167 C 111.804 1.841 -1.39197 0
M  V30 1168 C 112.774 1.642 -0.250502 0
M  V30 1169 O 113.959 1.85494 -0.446846 0
M  V30 1170 C 111.099 3.21697 -1.24919 0
M  V30 1171 C 110.212 3.53247 -2.48678 0
M  V30 1172 C 109.347 4.80289 -2.26928 0
M  V30 1173 C 108.386 5.04707 -3.4632 0
M  V30 1174 N 107.523 6.22956 -3.23836 0
M  V30 1175 H 112.363 1.83979 -2.34427 0
M  V30 1176 H 109.9 0.898876 -1.16442 0
M  V30 1177 H 111.858 4.01137 -1.1465 0
M  V30 1178 H 110.488 3.21076 -0.333153 0
M  V30 1179 H 109.54 2.68447 -2.69519 0
M  V30 1180 H 110.852 3.67205 -3.37582 0
M  V30 1181 H 110.006 5.67725 -2.13947 0
M  V30 1182 H 108.745 4.68519 -1.35431 0
M  V30 1183 H 107.75 4.1573 -3.5979 0
M  V30 1184 H 108.975 5.18357 -4.38729 0
M  V30 1185 H 106.921 6.12459 -2.35011 0
M  V30 1186 H 106.838 6.37539 -4.063 0
M  V30 1187 H 108.106 7.1321 -3.14566 0
M  V30 1188 N 112.336 1.25143 0.95797 0
M  V30 1189 C 113.752 1.01892 1.22842 0
M  V30 1190 C 113.952 -0.266311 1.99732 0
M  V30 1191 O 113.008 -0.979913 2.3271 0
M  V30 1192 C 114.321 2.24004 2.00606 0
M  V30 1193 C 115.869 2.28731 2.13662 0
M  V30 1194 C 116.344 3.5049 2.94823 0
M  V30 1195 N 117.835 3.50866 3.02403 0
M  V30 1196 C 118.57 4.4174 3.65586 0
M  V30 1197 N 118.066 5.42882 4.30408 0
M  V30 1198 N 119.859 4.29429 3.62694 0
M  V30 1199 H 112.01 2.07718 0.443493 0
M  V30 1200 H 114.273 0.912031 0.258657 0
M  V30 1201 H 113.979 3.17395 1.51503 0
M  V30 1202 H 113.853 2.26907 3.01319 0
M  V30 1203 H 116.24 1.35865 2.61963 0
M  V30 1204 H 116.321 2.29848 1.12265 0
M  V30 1205 H 115.965 4.43676 2.47213 0
M  V30 1206 H 115.895 3.46617 3.96439 0
M  V30 1207 H 118.386 2.777 2.56302 0
M  V30 1208 H 118.699 6.0844 4.76467 0
M  V30 1209 H 117.044 5.46758 4.29047 0
M  V30 1210 H 120.235 3.49643 3.11236 0
M  V30 1211 H 120.408 5.00448 4.1165 0
M  V30 1212 N 113.814 -1.1601 1.06675 0
M  V30 1213 C 115.054 -1.88304 0.795037 0
M  V30 1214 C 115.418 -1.80062 -0.666466 0
M  V30 1215 O 116.619 -2.47319 -1.05293 0
M  V30 1216 C 114.89 -3.33664 1.28076 0
M  V30 1217 S 116.449 -4.23768 1.13868 0
M  V30 1218 H 113.267 -0.649928 0.288296 0
M  V30 1219 H 115.869 -1.4001 1.36445 0
M  V30 1220 H 114.573 -3.37203 2.33927 0
M  V30 1221 H 114.104 -3.87009 0.706253 0
M  V30 1222 H 116.119 -4.96148 0.0719668 0
M  V30 1223 N 115.292 -0.849877 -1.32721 0
M  V30 1224 C 116.242 -0.262892 -2.26479 0
M  V30 1225 C 117.226 0.588493 -1.49752 0
M  V30 1226 O 118.418 0.438659 -1.71478 0
M  V30 1227 C 115.547 0.551818 -3.38836 0
M  V30 1228 C 114.633 -0.311689 -4.22953 0
M  V30 1229 N 115.024 -1.39567 -4.86163 0
M  V30 1230 C 113.322 -0.100611 -4.45887 0
M  V30 1231 C 114.023 -1.92651 -5.48872 0
M  V30 1232 N 112.999 -1.22637 -5.29586 0
M  V30 1233 H 116.801 -1.09166 -2.72873 0
M  V30 1234 H 114.315 -0.695486 -1.46754 0
M  V30 1235 H 116.312 0.988713 -4.05006 0
M  V30 1236 H 114.972 1.37844 -2.93988 0
M  V30 1237 H 115.983 -1.77859 -4.86402 0
M  V30 1238 H 112.66 0.691681 -4.11731 0
M  V30 1239 H 114.05 -2.83487 -6.09167 0
M  V30 1240 N 116.77 1.45427 -0.607355 0
M  V30 1241 C 117.68 2.34325 0.113463 0
M  V30 1242 C 118.696 1.51226 0.860617 0
M  V30 1243 O 119.872 1.84029 0.818255 0
M  V30 1244 C 116.937 3.28839 1.09844 0
M  V30 1245 C 115.998 4.27844 0.353271 0
M  V30 1246 C 115.231 5.17842 1.29133 0
M  V30 1247 O 115.454 5.11264 2.52913 0
M  V30 1248 O 114.388 5.96713 0.788523 0
M  V30 1249 H 118.214 2.97364 -0.617094 0
M  V30 1250 H 115.799 1.44807 -0.367619 0
M  V30 1251 H 117.681 3.8708 1.66575 0
M  V30 1252 H 116.356 2.68365 1.81003 0
M  V30 1253 H 115.263 3.7322 -0.256494 0
M  V30 1254 H 116.596 4.91173 -0.317822 0
M  V30 1255 N 118.248 0.346503 1.53744 0
M  V30 1256 C 119.495 -0.249104 2.00962 0
M  V30 1257 C 119.823 -1.5032 1.23426 0
M  V30 1258 O 119.078 -1.93217 0.310761 0
M  V30 1259 C 119.377 -0.605809 3.52228 0
M  V30 1260 C 119.043 0.551747 4.47512 0
M  V30 1261 C 117.705 0.86941 4.73281 0
M  V30 1262 C 120.057 1.32818 5.03993 0
M  V30 1263 C 117.385 1.96582 5.52786 0
M  V30 1264 C 119.737 2.41486 5.84694 0
M  V30 1265 C 118.401 2.73808 6.08757 0
M  V30 1266 H 117.671 -0.0911538 0.735372 0
M  V30 1267 H 120.318 0.475027 1.85515 0
M  V30 1268 H 118.623 -1.4107 3.65522 0
M  V30 1269 H 120.32 -1.07858 3.86222 0
M  V30 1270 H 116.91 0.294102 4.2759 0
M  V30 1271 H 121.094 1.09602 4.84047 0
M  V30 1272 H 116.35 2.22045 5.69654 0
M  V30 1273 H 120.524 3.02078 6.27473 0
M  V30 1274 H 118.151 3.58892 6.7015 0
M  V30 1275 N 119.726 -1.57421 0.075193 0
M  V30 1276 C 120.972 -1.93905 -0.594025 0
M  V30 1277 C 121.305 -0.955701 -1.69056 0
M  V30 1278 O 120.58 0.0145373 -1.94495 0
M  V30 1279 C 120.863 -3.40638 -1.1678 0
M  V30 1280 C 120.716 -4.49733 -0.0776792 0
M  V30 1281 C 122.035 -3.88259 -2.07228 0
M  V30 1282 H 119.154 -0.705105 -0.214466 0
M  V30 1283 H 121.796 -1.8947 0.141854 0
M  V30 1284 H 119.946 -3.44549 -1.79494 0
M  V30 1285 H 121.618 -4.57942 0.555573 0
M  V30 1286 H 119.861 -4.29751 0.591286 0
M  V30 1287 H 120.532 -5.49549 -0.519603 0
M  V30 1288 H 123.008 -3.86376 -1.54445 0
M  V30 1289 H 121.884 -4.91533 -2.44308 0
M  V30 1290 H 122.145 -3.26396 -2.98191 0
M  V30 1291 N 121.204 0.198386 -1.56346 0
M  V30 1292 C 122.432 0.935572 -1.84539 0
M  V30 1293 C 122.847 1.76989 -0.657281 0
M  V30 1294 O 122.204 1.78626 0.374043 0
M  V30 1295 C 122.255 1.8344 -3.11499 0
M  V30 1296 O 121.976 1.03377 -4.25728 0
M  V30 1297 C 123.477 2.68355 -3.52846 0
M  V30 1298 H 120.697 0.273126 -0.612897 0
M  V30 1299 H 123.241 0.20663 -2.03453 0
M  V30 1300 H 121.396 2.51701 -2.94492 0
M  V30 1301 H 121.81 1.64599 -4.98003 0
M  V30 1302 H 123.284 3.27085 -4.44657 0
M  V30 1303 H 123.761 3.41901 -2.75681 0
M  V30 1304 H 124.367 2.05471 -3.72373 0
M  V30 1305 N 122.682 1.50554 0.465978 0
M  V30 1306 C 123.929 1.61798 1.21768 0
M  V30 1307 C 124.257 0.320696 1.91838 0
M  V30 1308 O 123.512 -0.693724 1.82992 0
M  V30 1309 C 123.811 2.75152 2.28093 0
M  V30 1310 C 123.477 4.15454 1.75239 0
M  V30 1311 C 122.139 4.53628 1.60546 0
M  V30 1312 C 124.491 5.03121 1.36083 0
M  V30 1313 C 121.819 5.77204 1.05128 0
M  V30 1314 C 124.171 6.27249 0.821056 0
M  V30 1315 C 122.835 6.64221 0.660795 0
M  V30 1316 H 122.105 0.592063 0.445582 0
M  V30 1317 H 124.752 1.84503 0.512927 0
M  V30 1318 H 123.057 2.46556 3.04496 0
M  V30 1319 H 124.754 2.81055 2.86023 0
M  V30 1320 H 121.344 3.85341 1.87644 0
M  V30 1321 H 125.528 4.74257 1.46267 0
M  V30 1322 H 120.784 6.0452 0.91462 0
M  V30 1323 H 124.958 6.94537 0.509018 0
M  V30 1324 H 122.585 7.59854 0.229226 0
M  V30 1325 N 124.16 -0.719506 1.40217 0
M  V30 1326 C 125.385 -1.51371 1.4178 0
M  V30 1327 C 125.81 -1.88091 0.0182355 0
M  V30 1328 O 125.168 -1.52997 -0.972707 0
M  V30 1329 C 125.216 -2.768 2.31115 0
M  V30 1330 O 124.32 -3.73349 1.7517 0
M  V30 1331 H 123.661 -0.456529 0.482159 0
M  V30 1332 H 126.191 -0.88644 1.844 0
M  V30 1333 H 126.201 -3.25371 2.46167 0
M  V30 1334 H 124.876 -2.49407 3.3282 0
M  V30 1335 H 123.453 -3.32179 1.69444 0
M  V30 1336 N 125.638 -1.25649 -0.95132 0
M  V30 1337 C 126.878 -1.11802 -1.71113 0
M  V30 1338 C 127.242 0.334758 -1.89059 0
M  V30 1339 O 128.443 0.595121 -2.62129 0
M  V30 1340 C 126.714 -1.85512 -3.05483 0
M  V30 1341 S 128.273 -1.87597 -3.96677 0
M  V30 1342 H 125.091 -0.399552 -0.588115 0
M  V30 1343 H 127.693 -1.59222 -1.1344 0
M  V30 1344 H 126.397 -2.90299 -2.90094 0
M  V30 1345 H 125.928 -1.38493 -3.68216 0
M  V30 1346 H 127.943 -0.955389 -4.86916 0
M  V30 1347 N 127.117 1.15442 -1.07289 0
M  V30 1348 C 128.528 1.67803 -0.818475 0
M  V30 1349 C 128.879 1.8489 0.656507 0
M  V30 1350 O 128.004 1.55176 1.50829 0
M  V30 1351 C 128.599 3.04805 -1.47917 0
M  V30 1352 C 127.158 3.54245 -1.27229 0
M  V30 1353 C 126.305 2.29986 -1.54925 0
M  V30 1354 H 129.256 0.996646 -1.23502 0
M  V30 1355 H 129.277 3.69702 -0.90005 0
M  V30 1356 H 128.789 2.92336 -2.55267 0
M  V30 1357 H 126.89 3.71956 -0.21899 0
M  V30 1358 H 127.003 4.35723 -1.99203 0
M  V30 1359 H 125.367 2.35496 -0.970242 0
M  V30 1360 H 126.15 2.20105 -2.63455 0
M  V30 1361 N 128.595 0.856903 1.32268 0
M  V30 1362 C 129.843 0.460474 1.96784 0
M  V30 1363 C 130.164 -0.987701 1.68135 0
M  V30 1364 O 129.434 -1.69058 0.989765 0
M  V30 1365 H 128.014 0.167289 0.728027 0
M  V30 1366 H 130.676 1.09383 1.61312 0
M  V30 1367 H 129.772 0.60739 3.06133 0
M  V30 1368 N 130.073 -1.45103 0.615059 0
M  V30 1369 C 131.036 -2.29025 -0.0895485 0
M  V30 1370 C 132.036 -1.40174 -0.787906 0
M  V30 1371 O 133.226 -1.62217 -0.634933 0
M  V30 1372 C 130.358 -3.21376 -1.13711 0
M  V30 1373 H 131.551 -2.92807 0.648382 0
M  V30 1374 H 129.104 -1.51749 0.374444 0
M  V30 1375 H 129.839 -2.6241 -1.90556 0
M  V30 1376 H 129.624 -3.86834 -0.640475 0
M  V30 1377 H 131.114 -3.84459 -1.63036 0
M  V30 1378 N 131.551 -0.354651 -1.53558 0
M  V30 1379 C 132.828 0.294281 -1.93374 0
M  V30 1380 C 133.208 1.67313 -1.28723 0
M  V30 1381 O 132.556 2.24179 -0.442247 0
M  V30 1382 C 132.766 0.355445 -3.47185 0
M  V30 1383 C 134.114 0.601007 -4.20325 0
M  V30 1384 O 135.138 0.437106 -3.53508 0
M  V30 1385 O 133.997 0.919322 -5.38712 0
M  V30 1386 H 131.091 0.174033 -0.808481 0
M  V30 1387 H 133.637 -0.406638 -1.64756 0
M  V30 1388 H 132.409 -0.611729 -3.86489 0
M  V30 1389 H 132.032 1.1027 -3.82003 0
M  V30 1390 N 133.029 1.57378 -0.0835403 0
M  V30 1391 C 133.976 2.13384 0.879539 0
M  V30 1392 C 134.946 1.04936 1.28754 0
M  V30 1393 O 136.131 1.32662 1.37133 0
M  V30 1394 C 133.271 2.70932 2.13752 0
M  V30 1395 C 132.384 3.93575 1.7811 0
M  V30 1396 C 131.519 4.39326 2.98607 0
M  V30 1397 C 130.558 5.54587 2.59037 0
M  V30 1398 N 129.695 5.95243 3.72331 0
M  V30 1399 H 134.535 2.9537 0.395076 0
M  V30 1400 H 132.072 1.45953 0.183349 0
M  V30 1401 H 134.03 3.02411 2.87408 0
M  V30 1402 H 132.66 1.91693 2.59718 0
M  V30 1403 H 131.712 3.68483 0.94469 0
M  V30 1404 H 133.024 4.77258 1.45005 0
M  V30 1405 H 132.178 4.72528 3.80529 0
M  V30 1406 H 130.917 3.5452 3.34913 0
M  V30 1407 H 129.922 5.21024 1.75539 0
M  V30 1408 H 131.147 6.41133 2.23887 0
M  V30 1409 H 129.093 5.13385 4.08378 0
M  V30 1410 H 129.01 6.73694 3.43034 0
M  V30 1411 H 130.278 6.33072 4.54797 0
M  V30 1412 N 134.507 -0.190092 1.56449 0
M  V30 1413 C 135.755 -0.907908 1.80559 0
M  V30 1414 C 136.076 -1.83583 0.657438 0
M  V30 1415 O 135.346 -1.93203 -0.323924 0
M  V30 1416 H 133.926 -0.338247 0.666032 0
M  V30 1417 H 136.588 -0.194403 1.93928 0
M  V30 1418 H 135.684 -1.49604 2.73907 0
M  V30 1419 N 135.985 -1.50799 -0.457987 0
M  V30 1420 C 137.396 -1.55152 -1.0385 0
M  V30 1421 C 137.747 -0.362719 -1.92818 0
M  V30 1422 O 136.872 0.522915 -2.09987 0
M  V30 1423 C 137.467 -2.81173 -1.89017 0
M  V30 1424 C 136.026 -2.88164 -2.42154 0
M  V30 1425 C 135.173 -2.49591 -1.20829 0
M  V30 1426 H 138.124 -1.56874 -0.240068 0
M  V30 1427 H 138.145 -2.63769 -2.74238 0
M  V30 1428 H 137.657 -3.67677 -1.24238 0
M  V30 1429 H 135.758 -2.06042 -3.10447 0
M  V30 1430 H 135.871 -3.91356 -2.76364 0
M  V30 1431 H 134.235 -2.02322 -1.54719 0
M  V30 1432 H 135.018 -3.38418 -0.576927 0
M  V30 1433 N 137.463 0.71206 -1.40597 0
M  V30 1434 C 138.426 1.80785 -1.40888 0
M  V30 1435 C 139.426 1.57937 -0.302103 0
M  V30 1436 O 140.616 1.64913 -0.561182 0
M  V30 1437 C 137.748 3.18927 -1.20409 0
M  V30 1438 H 138.941 1.81924 -2.38419 0
M  V30 1439 H 136.494 0.91805 -1.26497 0
M  V30 1440 H 137.229 3.23436 -0.236522 0
M  V30 1441 H 137.014 3.36911 -2.00582 0
M  V30 1442 H 138.504 3.98949 -1.23408 0
M  V30 1443 N 138.941 1.26152 0.944643 0
M  V30 1444 C 140.166 1.14363 1.7302 0
M  V30 1445 C 140.591 -0.29772 1.85729 0
M  V30 1446 O 139.949 -1.2157 1.34501 0
M  V30 1447 C 139.997 1.81378 3.11664 0
M  V30 1448 O 139.101 1.10022 3.97453 0
M  V30 1449 H 138.442 0.398694 0.53098 0
M  V30 1450 H 140.972 1.66906 1.18337 0
M  V30 1451 H 140.982 1.88064 3.62072 0
M  V30 1452 H 139.657 2.86237 3.0173 0
M  V30 1453 H 138.234 1.11287 3.55907 0
M  V30 1454 N 140.419 -1.14872 1.07899 0
M  V30 1455 C 141.696 -1.81928 0.71845 0
M  V30 1456 C 142.076 -1.95417 -0.798455 0
M  V30 1457 O 141.424 -1.50997 -1.715 0
M  V30 1458 C 141.634 -3.17937 1.43935 0
M  V30 1459 C 142.982 -3.93501 1.59506 0
M  V30 1460 O 144.006 -3.27509 1.40058 0
M  V30 1461 O 142.865 -5.1183 1.91551 0
M  V30 1462 H 139.959 -0.78628 0.256305 0
M  V30 1463 H 142.505 -1.21934 1.18026 0
M  V30 1464 H 141.277 -3.0325 2.47295 0
M  V30 1465 H 140.9 -3.85619 0.968687 0
M  V30 1466 N 141.898 -0.863906 -1.31812 0
M  V30 1467 C 143.175 -0.39275 -1.91616 0
M  V30 1468 C 143.555 1.12461 -1.7865 0
M  V30 1469 O 142.903 1.95045 -1.19037 0
M  V30 1470 C 143.113 -0.867385 -3.38049 0
M  V30 1471 C 144.461 -0.889966 -4.15168 0
M  V30 1472 O 145.485 -0.812635 -3.46806 0
M  V30 1473 O 144.344 -1.00079 -5.37258 0
M  V30 1474 H 141.438 -0.116358 -0.818773 0
M  V30 1475 H 143.984 -0.951418 -1.40521 0
M  V30 1476 H 142.756 -1.91081 -3.41473 0
M  V30 1477 H 142.379 -0.286687 -3.96565 0
M  V30 1478 N 143.376 1.44774 -0.622745 0
M  V30 1479 C 144.787 1.85546 -0.207226 0
M  V30 1480 C 145.138 1.52093 1.23944 0
M  V30 1481 O 144.263 0.95492 1.94191 0
M  V30 1482 C 144.858 3.36781 -0.369313 0
M  V30 1483 C 143.417 3.76399 -0.00836847 0
M  V30 1484 C 142.564 2.68664 -0.686651 0
M  V30 1485 H 145.515 1.3536 -0.828454 0
M  V30 1486 H 145.536 3.78453 0.394162 0
M  V30 1487 H 145.048 3.61098 -1.42231 0
M  V30 1488 H 143.149 3.57698 1.04322 0
M  V30 1489 H 143.262 4.7732 -0.412584 0
M  V30 1490 H 141.626 2.54404 -0.122777 0
M  V30 1491 H 142.409 2.95815 -1.74208 0
M  V30 1492 N 144.854 0.36279 1.53368 0
M  V30 1493 C 146.27 0.0116182 1.59596 0
M  V30 1494 C 146.47 -1.47012 1.37803 0
M  V30 1495 O 145.526 -2.23136 1.18181 0
M  V30 1496 C 146.839 0.465052 2.97082 0
M  V30 1497 C 148.387 0.419033 3.10182 0
M  V30 1498 C 148.862 0.848235 4.50077 0
M  V30 1499 N 150.353 0.803183 4.56183 0
M  V30 1500 C 151.088 1.107 5.62613 0
M  V30 1501 N 150.584 1.47996 6.76808 0
M  V30 1502 N 152.377 1.02998 5.52583 0
M  V30 1503 H 144.528 1.32775 1.65785 0
M  V30 1504 H 146.791 0.542518 0.777417 0
M  V30 1505 H 146.497 1.49892 3.18159 0
M  V30 1506 H 146.371 -0.149786 3.76902 0
M  V30 1507 H 148.758 -0.605696 2.88817 0
M  V30 1508 H 148.839 1.06933 2.32377 0
M  V30 1509 H 148.483 1.87107 4.7218 0
M  V30 1510 H 148.413 0.175218 5.26308 0
M  V30 1511 H 150.904 0.52838 3.74188 0
M  V30 1512 H 151.217 1.69613 7.53957 0
M  V30 1513 H 149.562 1.51859 6.78206 0
M  V30 1514 H 152.753 0.737817 4.62249 0
M  V30 1515 H 152.926 1.2701 6.35431 0
M  V30 1516 N 146.332 -1.57332 0.0918853 0
M  V30 1517 C 147.557 -1.98995 -0.584442 0
M  V30 1518 C 147.982 -0.970528 -1.61128 0
M  V30 1519 O 147.34 0.0613904 -1.81196 0
M  V30 1520 C 147.388 -3.39636 -1.21161 0
M  V30 1521 O 146.492 -3.40447 -2.32744 0
M  V30 1522 H 145.833 -0.647165 -0.148572 0
M  V30 1523 H 148.363 -2.03873 0.172347 0
M  V30 1524 H 148.373 -3.7726 -1.55367 0
M  V30 1525 H 147.048 -4.13356 -0.459313 0
M  V30 1526 H 145.625 -3.14614 -2.0018 0
M  V30 1527 N 147.81 0.181792 -1.56548 0
M  V30 1528 C 148.757 1.22521 -1.95595 0
M  V30 1529 C 149.727 1.4454 -0.818373 0
M  V30 1530 O 150.912 1.57454 -1.07763 0
M  V30 1531 C 148.052 2.56193 -2.31212 0
M  V30 1532 C 147.165 2.41641 -3.58097 0
M  V30 1533 C 146.3 3.68108 -3.82975 0
M  V30 1534 C 145.339 3.48445 -5.03242 0
M  V30 1535 N 144.476 4.66956 -5.24306 0
M  V30 1536 H 149.316 0.885226 -2.84548 0
M  V30 1537 H 146.853 0.425718 -1.40805 0
M  V30 1538 H 148.811 3.34088 -2.49882 0
M  V30 1539 H 147.441 2.88208 -1.45382 0
M  V30 1540 H 146.493 1.54976 -3.474 0
M  V30 1541 H 147.805 2.23052 -4.46149 0
M  V30 1542 H 146.959 4.54441 -4.01956 0
M  V30 1543 H 145.698 3.89666 -2.93278 0
M  V30 1544 H 144.703 2.60499 -4.8417 0
M  V30 1545 H 145.928 3.2832 -5.9446 0
M  V30 1546 H 143.874 4.88752 -4.37559 0
M  V30 1547 H 143.791 4.51242 -6.06561 0
M  V30 1548 H 145.059 5.54602 -5.47756 0
M  V30 1549 N 149.288 1.51039 0.449983 0
M  V30 1550 C 150.238 1.67824 1.54335 0
M  V30 1551 C 151.222 0.5324 1.51836 0
M  V30 1552 O 152.414 0.787762 1.58503 0
M  V30 1553 C 149.543 1.7951 2.92628 0
M  V30 1554 C 148.629 2.99838 2.9993 0
M  V30 1555 N 149.02 4.23207 2.77001 0
M  V30 1556 C 147.318 2.98832 3.31082 0
M  V30 1557 C 148.019 5.04361 2.89818 0
M  V30 1558 N 146.995 4.38746 3.2094 0
M  V30 1559 H 150.797 2.60884 1.35339 0
M  V30 1560 H 148.311 1.48513 0.657085 0
M  V30 1561 H 150.308 1.89642 3.7127 0
M  V30 1562 H 148.968 0.876227 3.12654 0
M  V30 1563 H 149.979 4.5236 2.52172 0
M  V30 1564 H 146.656 2.16527 3.56963 0
M  V30 1565 H 148.046 6.12528 2.76151 0
M  V30 1566 N 150.766 -0.704594 1.40972 0
M  V30 1567 C 151.713 -1.81862 1.42109 0
M  V30 1568 C 152.683 -1.63781 0.276593 0
M  V30 1569 O 153.868 -1.84759 0.4763 0
M  V30 1570 C 151.008 -3.19669 1.30022 0
M  V30 1571 C 150.121 -3.49246 2.54267 0
M  V30 1572 C 149.256 -4.76618 2.3454 0
M  V30 1573 C 148.295 -4.99133 3.54306 0
M  V30 1574 N 147.432 -6.17726 3.33706 0
M  V30 1575 H 152.272 -1.80226 2.37324 0
M  V30 1576 H 149.809 -0.880238 1.17857 0
M  V30 1577 H 151.767 -3.99263 1.21018 0
M  V30 1578 H 150.397 -3.20506 0.384192 0
M  V30 1579 H 149.449 -2.64125 2.73756 0
M  V30 1580 H 150.761 -3.61788 3.43381 0
M  V30 1581 H 149.915 -5.64249 2.22952 0
M  V30 1582 H 148.654 -4.66305 1.42867 0
M  V30 1583 H 147.659 -4.09953 3.66359 0
M  V30 1584 H 148.884 -5.11311 4.4692 0
M  V30 1585 H 146.83 -6.08642 2.44725 0
M  V30 1586 H 146.747 -6.30995 4.16391 0
M  V30 1587 H 148.015 -7.08115 3.25873 0
M  V30 1588 N 152.244 -1.26651 -0.937939 0
M  V30 1589 C 153.491 -1.12387 -1.6845 0
M  V30 1590 C 153.819 0.332208 -1.91642 0
M  V30 1591 O 153.074 1.2602 -1.49725 0
M  V30 1592 C 153.373 -1.84168 -3.06295 0
M  V30 1593 C 153.039 -3.34056 -3.02849 0
M  V30 1594 C 151.701 -3.74942 -3.01616 0
M  V30 1595 C 154.053 -4.29741 -2.9491 0
M  V30 1596 C 151.381 -5.09894 -2.90215 0
M  V30 1597 C 153.733 -5.64738 -2.8505 0
M  V30 1598 C 152.397 -6.0493 -2.82162 0
M  V30 1599 H 151.667 -0.411252 -0.616403 0
M  V30 1600 H 154.314 -1.57134 -1.09459 0
M  V30 1601 H 152.619 -1.319 -3.6893 0
M  V30 1602 H 154.316 -1.70569 -3.62915 0
M  V30 1603 H 150.906 -3.01534 -3.0459 0
M  V30 1604 H 155.09 -3.99133 -2.94969 0
M  V30 1605 H 150.346 -5.40194 -2.86358 0
M  V30 1606 H 154.52 -6.38561 -2.77872 0
M  V30 1607 H 152.147 -7.09457 -2.73084 0
M  V30 1608 N 153.722 1.14298 -1.08507 0
M  V30 1609 C 154.669 2.19414 -0.715965 0
M  V30 1610 C 155.639 1.63399 0.298326 0
M  V30 1611 O 156.824 1.89929 0.182101 0
M  V30 1612 C 153.964 3.44845 -0.132534 0
M  V30 1613 C 153.077 4.15007 -1.19973 0
M  V30 1614 C 152.212 5.28024 -0.580048 0
M  V30 1615 C 151.251 5.9002 -1.62921 0
M  V30 1616 N 150.388 6.94485 -1.03125 0
M  V30 1617 H 155.228 2.50336 -1.61666 0
M  V30 1618 H 152.765 1.2293 -0.807882 0
M  V30 1619 H 154.723 4.16601 0.223454 0
M  V30 1620 H 153.353 3.14403 0.731467 0
M  V30 1621 H 152.405 3.41629 -1.67313 0
M  V30 1622 H 153.717 4.57178 -1.99473 0
M  V30 1623 H 152.871 6.06455 -0.172364 0
M  V30 1624 H 151.61 4.87076 0.246603 0
M  V30 1625 H 150.615 5.10291 -2.04654 0
M  V30 1626 H 151.84 6.33042 -2.45835 0
M  V30 1627 H 149.786 6.55612 -0.225711 0
M  V30 1628 H 149.703 7.35148 -1.76334 0
M  V30 1629 H 150.971 7.7679 -0.649458 0
M  V30 1630 N 155.201 0.870884 1.31352 0
M  V30 1631 C 156.45 0.478408 1.95944 0
M  V30 1632 C 156.763 -0.974493 1.69597 0
M  V30 1633 O 157.969 -1.47316 2.28058 0
M  V30 1634 C 156.425 0.804609 3.50791 0
M  V30 1635 C 156.033 2.27433 3.85977 0
M  V30 1636 C 157.777 0.480648 4.2177 0
M  V30 1637 C 155.684 2.5429 5.33939 0
M  V30 1638 H 154.614 0.175175 0.733369 0
M  V30 1639 H 157.265 1.06391 1.4951 0
M  V30 1640 H 155.647 0.148347 3.95722 0
M  V30 1641 H 156.821 2.97373 3.52002 0
M  V30 1642 H 155.136 2.56442 3.28065 0
M  V30 1643 H 157.733 0.658519 5.30629 0
M  V30 1644 H 158.076 -0.578979 4.12254 0
M  V30 1645 H 158.609 1.09349 3.82476 0
M  V30 1646 H 155.348 3.58939 5.48491 0
M  V30 1647 H 154.868 1.88945 5.69263 0
M  V30 1648 H 156.547 2.39066 6.01212 0
M  V30 1649 N 156.679 -1.44442 0.630414 0
M  V30 1650 C 157.629 -2.27794 -0.0968103 0
M  V30 1651 C 158.613 -1.38624 -0.816834 0
M  V30 1652 O 159.805 -1.62438 -0.70306 0
M  V30 1653 C 156.934 -3.25929 -1.07819 0
M  V30 1654 C 156.02 -4.22588 -0.357826 0
M  V30 1655 N 156.411 -5.0207 0.613169 0
M  V30 1656 C 154.709 -4.41914 -0.602365 0
M  V30 1657 C 155.41 -5.72351 1.03871 0
M  V30 1658 N 154.386 -5.42287 0.377642 0
M  V30 1659 H 158.188 -2.86653 0.648621 0
M  V30 1660 H 155.702 -1.55871 0.455862 0
M  V30 1661 H 157.699 -3.84399 -1.61378 0
M  V30 1662 H 156.359 -2.68631 -1.82393 0
M  V30 1663 H 157.37 -5.08331 0.990947 0
M  V30 1664 H 154.047 -3.95714 -1.33103 0
M  V30 1665 H 155.437 -6.4619 1.84086 0
M  V30 1666 N 158.157 -0.370918 -1.53173 0
M  V30 1667 C 159.385 0.217704 -2.05751 0
M  V30 1668 C 159.8 1.42018 -1.24404 0
M  V30 1669 O 159.157 1.80245 -0.286033 0
M  V30 1670 C 159.208 0.605954 -3.56385 0
M  V30 1671 O 158.929 -0.548734 -4.3465 0
M  V30 1672 C 160.43 1.2524 -4.25241 0
M  V30 1673 H 157.65 0.0371659 -0.66997 0
M  V30 1674 H 160.194 -0.530832 -1.9749 0
M  V30 1675 H 158.349 1.3044 -3.6478 0
M  V30 1676 H 158.763 -0.23376 -5.23979 0
M  V30 1677 H 160.237 1.47458 -5.3194 0
M  V30 1678 H 160.714 2.2143 -3.79296 0
M  V30 1679 H 161.32 0.595233 -4.21114 0
M  V30 1680 N 159.635 1.57281 -0.100228 0
M  V30 1681 C 160.865 1.98591 0.569681 0
M  V30 1682 C 161.273 0.978315 1.61943 0
M  V30 1683 O 160.616 -0.0396108 1.83657 0
M  V30 1684 C 160.678 3.36282 1.271 0
M  V30 1685 C 160.342 4.55488 0.371409 0
M  V30 1686 C 161.339 5.18491 -0.382504 0
M  V30 1687 C 159.024 5.01474 0.287965 0
M  V30 1688 C 161.018 6.25852 -1.20779 0
M  V30 1689 C 158.705 6.08701 -0.540965 0
M  V30 1690 C 159.703 6.70755 -1.28749 0
M  V30 1691 O 159.391 7.75914 -2.10269 0
M  V30 1692 H 159.123 0.65752 0.156982 0
M  V30 1693 H 161.677 2.0463 -0.177734 0
M  V30 1694 H 159.907 3.26941 2.0651 0
M  V30 1695 H 161.596 3.62005 1.83595 0
M  V30 1696 H 162.362 4.83891 -0.3278 0
M  V30 1697 H 158.241 4.52932 0.858689 0
M  V30 1698 H 161.785 6.74218 -1.79096 0
M  V30 1699 H 157.682 6.42732 -0.597131 0
M  V30 1700 H 158.45 7.92925 -2.03007 0
M  V30 1701 N 161.113 -0.173488 1.56642 0
M  V30 1702 C 162.338 -0.910149 1.86363 0
M  V30 1703 C 162.763 -1.75132 0.686318 0
M  V30 1704 O 162.121 -1.77595 -0.364643 0
M  V30 1705 C 162.169 -1.76447 3.14482 0
M  V30 1706 O 161.273 -2.86584 2.96553 0
M  V30 1707 H 160.614 -0.255086 0.613047 0
M  V30 1708 H 163.144 -0.172283 2.03873 0
M  V30 1709 H 163.154 -2.16483 3.45831 0
M  V30 1710 H 161.829 -1.14658 3.99783 0
M  V30 1711 H 160.406 -2.50146 2.76553 0
M  V30 1712 N 162.591 -1.51276 -0.441967 0
M  V30 1713 C 163.816 -1.67799 -1.21895 0
M  V30 1714 C 164.241 -0.372864 -1.84367 0
M  V30 1715 O 163.599 0.666501 -1.68604 0
M  V30 1716 C 163.647 -2.79199 -2.28211 0
M  V30 1717 O 162.751 -2.42479 -3.33583 0
M  V30 1718 H 162.092 -0.559649 -0.357336 0
M  V30 1719 H 164.622 -1.97815 -0.522522 0
M  V30 1720 H 164.632 -3.03146 -2.73069 0
M  V30 1721 H 163.307 -3.73906 -1.82118 0
M  V30 1722 H 161.884 -2.29087 -2.94234 0
M  V30 1723 N 164.069 0.697108 -1.41344 0
M  V30 1724 C 165.48 1.27697 -1.36199 0
M  V30 1725 C 165.831 1.9615 -0.0443463 0
M  V30 1726 O 164.956 1.98689 0.857419 0
M  V30 1727 C 165.551 2.32223 -2.46694 0
M  V30 1728 C 164.11 2.8579 -2.44952 0
M  V30 1729 C 163.257 1.59807 -2.26621 0
M  V30 1730 H 166.208 0.491968 -1.50882 0
M  V30 1731 H 166.229 3.1348 -2.15664 0
M  V30 1732 H 165.741 1.82373 -3.42581 0
M  V30 1733 H 163.842 3.3982 -1.52817 0
M  V30 1734 H 163.955 3.36325 -3.41207 0
M  V30 1735 H 162.319 1.8556 -1.7447 0
M  V30 1736 H 163.102 1.11956 -3.24532 0
M  V30 1737 N 165.547 1.27147 0.931209 0
M  V30 1738 C 166.775 1.16082 1.71267 0
M  V30 1739 C 167.19 -0.282772 1.8667 0
M  V30 1740 O 166.547 -1.19283 1.38122 0
M  V30 1741 C 166.598 1.8358 3.11417 0
M  V30 1742 O 166.319 3.22299 2.96741 0
M  V30 1743 C 167.82 1.78597 4.05732 0
M  V30 1744 H 165.04 0.403758 0.535929 0
M  V30 1745 H 167.584 1.67953 1.16671 0
M  V30 1746 H 165.739 1.35623 3.62885 0
M  V30 1747 H 166.153 3.55851 3.85319 0
M  V30 1748 H 167.627 2.30444 5.01597 0
M  V30 1749 H 168.104 0.754564 4.3267 0
M  V30 1750 H 168.71 2.26152 3.60188 0
M  V30 1751 N 167.025 -1.13721 1.09112 0
M  V30 1752 C 168.272 -1.84924 0.825192 0
M  V30 1753 C 168.6 -1.83347 -0.649151 0
M  V30 1754 O 167.855 -1.26449 -1.49362 0
M  V30 1755 C 168.154 -3.32861 1.30146 0
M  V30 1756 C 167.82 -3.54621 2.78486 0
M  V30 1757 C 166.482 -3.60268 3.18999 0
M  V30 1758 C 168.834 -3.62855 3.74146 0
M  V30 1759 C 166.162 -3.71679 4.53951 0
M  V30 1760 C 168.514 -3.75793 5.08883 0
M  V30 1761 C 167.178 -3.79692 5.4899 0
M  V30 1762 H 166.448 -0.676684 0.301959 0
M  V30 1763 H 169.095 -1.3428 1.36533 0
M  V30 1764 H 167.4 -3.85835 0.681064 0
M  V30 1765 H 169.097 -3.86395 1.07236 0
M  V30 1766 H 165.687 -3.50879 2.46134 0
M  V30 1767 H 169.871 -3.57775 3.43963 0
M  V30 1768 H 165.127 -3.72963 4.84467 0
M  V30 1769 H 169.301 -3.81107 5.82864 0
M  V30 1770 H 166.928 -3.88287 6.53558 0
M  V30 1771 N 168.503 -0.877838 -1.30888 0
M  V30 1772 C 169.743 -0.499301 -1.98208 0
M  V30 1773 C 170.107 0.932649 -1.67826 0
M  V30 1774 O 171.308 1.41694 -2.28421 0
M  V30 1775 C 169.579 -0.758221 -3.49265 0
M  V30 1776 S 171.138 -0.480719 -4.36159 0
M  V30 1777 H 167.956 -0.186062 -0.686223 0
M  V30 1778 H 170.558 -1.13556 -1.59139 0
M  V30 1779 H 169.262 -1.79903 -3.68867 0
M  V30 1780 H 168.793 -0.109247 -3.93248 0
M  V30 1781 H 170.808 0.683698 -4.91467 0
M  V30 1782 N 169.982 1.44106 -0.638065 0
M  V30 1783 C 171.259 1.95453 -0.0759321 0
M  V30 1784 C 171.639 1.57984 1.40015 0
M  V30 1785 O 170.987 0.857361 2.11806 0
M  V30 1786 C 171.197 3.47655 -0.306132 0
M  V30 1787 C 172.545 4.24114 -0.203008 0
M  V30 1788 O 173.569 3.55405 -0.237871 0
M  V30 1789 O 172.428 5.46381 -0.113827 0
M  V30 1790 H 169.522 0.826797 0.0183332 0
M  V30 1791 H 172.068 1.54122 -0.710251 0
M  V30 1792 H 170.84 3.68 -1.3301 0
M  V30 1793 H 170.463 3.95949 0.361991 0
M  V30 1794 N 171.46 0.379036 1.52974 0
M  V30 1795 C 172.41 -0.477772 2.22938 0
M  V30 1796 C 173.394 -1.03792 1.22948 0
M  V30 1797 O 174.586 -0.965725 1.48333 0
M  V30 1798 C 171.715 -1.60994 3.03209 0
M  V30 1799 C 170.801 -1.06203 4.10587 0
M  V30 1800 N 171.192 -0.238214 5.05239 0
M  V30 1801 C 169.49 -1.33554 4.25534 0
M  V30 1802 C 170.191 0.0633235 5.81666 0
M  V30 1803 N 169.167 -0.537901 5.40932 0
M  V30 1804 H 172.969 0.158295 2.93473 0
M  V30 1805 H 170.483 0.187778 1.61311 0
M  V30 1806 H 172.48 -2.23607 3.5186 0
M  V30 1807 H 171.14 -2.24893 2.34207 0
M  V30 1808 H 172.151 0.123695 5.17752 0
M  V30 1809 H 168.828 -1.97632 3.6776 0
M  V30 1810 H 170.218 0.730161 6.67921 0
M  V30 1811 N 172.938 -1.57226 0.108567 0
M  V30 1812 C 174.178 -1.96717 -0.555155 0
M  V30 1813 C 174.542 -0.990003 -1.64508 0
M  V30 1814 O 175.743 -1.2739 -2.36696 0
M  V30 1815 C 174.014 -3.40575 -1.08367 0
M  V30 1816 S 175.573 -4.02072 -1.75737 0
M  V30 1817 H 172.391 -0.687638 -0.180762 0
M  V30 1818 H 174.993 -1.94563 0.191172 0
M  V30 1819 H 173.697 -4.0945 -0.279092 0
M  V30 1820 H 173.228 -3.46356 -1.86551 0
M  V30 1821 H 175.243 -3.91977 -3.04251 0
M  V30 1822 N 174.416 0.165178 -1.56732 0
M  V30 1823 C 175.664 0.879068 -1.8198 0
M  V30 1824 C 175.985 1.82514 -0.686561 0
M  V30 1825 O 175.255 1.93694 0.293146 0
M  V30 1826 H 173.835 0.327608 -0.671329 0
M  V30 1827 H 176.497 0.163526 -1.94213 0
M  V30 1828 H 175.593 1.45228 -2.76252 0
M  V30 1829 N 175.894 1.51508 0.433938 0
M  V30 1830 C 177.119 1.68443 1.21003 0
M  V30 1831 C 177.544 0.382636 1.84167 0
M  V30 1832 O 176.902 -0.65755 1.68956 0
M  V30 1833 C 176.95 2.80405 2.26727 0
M  V30 1834 O 176.054 2.44245 3.32292 0
M  V30 1835 H 175.395 0.561536 0.354363 0
M  V30 1836 H 177.925 1.9809 0.512024 0
M  V30 1837 H 177.935 3.0459 2.71457 0
M  V30 1838 H 176.61 3.74867 1.80132 0
M  V30 1839 H 175.187 2.30644 2.93015 0
M  V30 1840 N 177.372 -0.689602 1.41712 0
M  V30 1841 C 178.302 -1.81577 1.46806 0
M  V30 1842 C 179.283 -1.66945 0.326105 0
M  V30 1843 O 180.468 -1.86588 0.538377 0
M  V30 1844 C 177.598 -3.19762 1.35535 0
M  V30 1845 C 176.552 -3.49107 2.47605 0
M  V30 1846 C 175.878 -4.86711 2.21397 0
M  V30 1847 C 177.178 -3.47483 3.89939 0
M  V30 1848 H 178.872 -1.7757 2.41058 0
M  V30 1849 H 176.418 -0.852887 1.16025 0
M  V30 1850 H 178.371 -3.98263 1.3771 0
M  V30 1851 H 177.095 -3.24409 0.377708 0
M  V30 1852 H 175.754 -2.72959 2.44722 0
M  V30 1853 H 175.402 -4.8799 1.21961 0
M  V30 1854 H 175.102 -5.0731 2.96497 0
M  V30 1855 H 176.626 -5.67515 2.25297 0
M  V30 1856 H 178.04 -4.1598 3.94505 0
M  V30 1857 H 176.437 -3.79615 4.64771 0
M  V30 1858 H 177.507 -2.46341 4.17665 0
M  V30 1859 N 178.85 -1.27639 -0.924453 0
M  V30 1860 C 179.78 -1.13166 -2.04244 0
M  V30 1861 C 180.761 -0.032256 -1.70069 0
M  V30 1862 O 181.946 -0.207328 -1.9309 0
M  V30 1863 C 179.076 -0.781496 -3.38393 0
M  V30 1864 C 178.03 -1.83449 -3.86692 0
M  V30 1865 C 177.356 -1.33822 -5.17683 0
M  V30 1866 C 178.656 -3.23917 -4.09726 0
M  V30 1867 H 180.35 -2.06689 -2.1661 0
M  V30 1868 H 177.896 -0.995136 -1.04082 0
M  V30 1869 H 179.849 -0.667057 -4.16087 0
M  V30 1870 H 178.573 0.189439 -3.2605 0
M  V30 1871 H 177.232 -1.93789 -3.11193 0
M  V30 1872 H 176.88 -0.35665 -5.01734 0
M  V30 1873 H 176.58 -2.04224 -5.50968 0
M  V30 1874 H 178.104 -1.23679 -5.97943 0
M  V30 1875 H 179.518 -3.16559 -4.77978 0
M  V30 1876 H 177.915 -3.92059 -4.54324 0
M  V30 1877 H 178.985 -3.68729 -3.14908 0
M  V30 1878 N 180.328 1.1314 -1.09713 0
M  V30 1879 C 181.558 1.88048 -0.855656 0
M  V30 1880 C 181.966 1.79537 0.596919 0
M  V30 1881 O 181.309 1.16196 1.42282 0
M  V30 1882 C 181.371 3.38314 -1.21589 0
M  V30 1883 C 181.035 3.70605 -2.67397 0
M  V30 1884 C 182.032 3.69596 -3.65643 0
M  V30 1885 C 179.717 4.0017 -3.03593 0
M  V30 1886 C 181.711 3.977 -4.9811 0
M  V30 1887 C 179.398 4.27935 -4.36251 0
M  V30 1888 C 180.396 4.26685 -5.33318 0
M  V30 1889 O 180.084 4.53767 -6.63589 0
M  V30 1890 H 179.816 0.60208 -0.307368 0
M  V30 1891 H 182.37 1.44128 -1.46343 0
M  V30 1892 H 180.6 3.82752 -0.551177 0
M  V30 1893 H 182.289 3.94552 -0.953083 0
M  V30 1894 H 183.055 3.46826 -3.39023 0
M  V30 1895 H 178.934 4.00289 -2.2867 0
M  V30 1896 H 182.478 3.9664 -5.73866 0
M  V30 1897 H 178.375 4.50178 -4.62613 0
M  V30 1898 H 179.143 4.71422 -6.69107 0
M  V30 1899 N 181.806 0.884767 1.30421 0
M  V30 1900 C 183.054 0.502112 1.95763 0
M  V30 1901 C 183.375 -0.951815 1.70192 0
M  V30 1902 O 182.645 -1.6692 1.0254 0
M  V30 1903 H 181.225 0.182694 0.724315 0
M  V30 1904 H 183.887 1.1278 1.58955 0
M  V30 1905 H 182.983 0.672188 3.04775 0
M  V30 1906 N 183.284 -1.43765 0.645699 0
M  V30 1907 C 184.214 -2.33471 -0.0370477 0
M  V30 1908 C 185.195 -1.49042 -0.819779 0
M  V30 1909 O 186.38 -1.77726 -0.782758 0
M  V30 1910 C 183.51 -3.32311 -1.0093 0
M  V30 1911 C 182.464 -4.2667 -0.337201 0
M  V30 1912 C 181.79 -5.1549 -1.42037 0
M  V30 1913 C 183.09 -5.16657 0.765706 0
M  V30 1914 H 184.784 -2.90809 0.712069 0
M  V30 1915 H 182.33 -1.39834 0.343876 0
M  V30 1916 H 184.283 -3.9396 -1.49578 0
M  V30 1917 H 183.007 -2.73213 -1.78948 0
M  V30 1918 H 181.666 -3.66374 0.128771 0
M  V30 1919 H 181.314 -4.52735 -2.1918 0
M  V30 1920 H 181.014 -5.79438 -0.975966 0
M  V30 1921 H 182.538 -5.80012 -1.90838 0
M  V30 1922 H 183.952 -5.72158 0.361702 0
M  V30 1923 H 182.349 -5.89286 1.13413 0
M  V30 1924 H 183.419 -4.56796 1.62683 0
M  V30 1925 N 184.763 -0.387143 -1.52771 0
M  V30 1926 C 186.012 0.19697 -2.00736 0
M  V30 1927 C 186.325 1.48082 -1.27793 0
M  V30 1928 O 187.531 2.14485 -1.66458 0
M  V30 1929 C 185.987 0.401568 -3.57653 0
M  V30 1930 C 185.595 -0.868907 -4.39493 0
M  V30 1931 C 187.339 0.942164 -4.13912 0
M  V30 1932 C 185.246 -0.632705 -5.88006 0
M  V30 1933 H 184.176 0.0773827 -0.750019 0
M  V30 1934 H 186.827 -0.50921 -1.76293 0
M  V30 1935 H 185.209 1.16954 -3.78335 0
M  V30 1936 H 186.383 -1.64133 -4.30577 0
M  V30 1937 H 184.698 -1.33429 -3.94443 0
M  V30 1938 H 187.295 1.13455 -5.22525 0
M  V30 1939 H 187.638 1.9106 -3.69867 0
M  V30 1940 H 188.171 0.233814 -3.97112 0
M  V30 1941 H 184.91 -1.57208 -6.36369 0
M  V30 1942 H 184.43 0.100825 -5.99715 0
M  V30 1943 H 186.109 -0.26642 -6.46451 0
M  V30 1944 N 186.241 1.57166 -0.116904 0
M  V30 1945 C 187.191 2.11756 0.845178 0
M  V30 1946 C 188.175 1.03783 1.22955 0
M  V30 1947 O 189.367 1.3002 1.20099 0
M  V30 1948 C 186.496 2.71886 2.09602 0
M  V30 1949 C 185.582 3.86937 1.7361 0
M  V30 1950 N 185.973 4.94073 1.08284 0
M  V30 1951 C 184.271 3.97082 2.03082 0
M  V30 1952 C 184.972 5.74477 0.913855 0
M  V30 1953 N 183.948 5.2423 1.43818 0
M  V30 1954 H 187.75 2.91967 0.336523 0
M  V30 1955 H 185.264 1.62174 0.0856332 0
M  V30 1956 H 187.261 3.09338 2.79492 0
M  V30 1957 H 185.921 1.93138 2.61013 0
M  V30 1958 H 186.932 5.12483 0.747067 0
M  V30 1959 H 183.609 3.29372 2.56554 0
M  V30 1960 H 184.999 6.70701 0.40125 0
M  V30 1961 N 187.719 -0.156864 1.56817 0
M  V30 1962 C 188.651 -1.21883 1.94106 0
M  V30 1963 C 189.664 -1.3971 0.835754 0
M  V30 1964 O 190.853 -1.39457 1.11418 0
M  V30 1965 C 187.953 -2.58527 2.19127 0
M  V30 1966 C 187.126 -2.61809 3.50393 0
M  V30 1967 C 186.185 -3.7992 3.64071 0
M  V30 1968 O 185.211 -3.65249 4.36557 0
M  V30 1969 N 186.413 -4.96973 2.99997 0
M  V30 1970 H 189.178 -0.901974 2.85805 0
M  V30 1971 H 186.739 -0.346513 1.58148 0
M  V30 1972 H 188.731 -3.36034 2.25529 0
M  V30 1973 H 187.301 -2.82545 1.33742 0
M  V30 1974 H 186.521 -1.7029 3.5552 0
M  V30 1975 H 187.809 -2.61024 4.36742 0
M  V30 1976 H 187.207 -5.11794 2.41004 0
M  V30 1977 H 185.764 -5.7229 3.11974 0
M  V30 1978 N 189.197 -1.51736 -0.425897 0
M  V30 1979 C 190.445 -1.64644 -1.17204 0
M  V30 1980 C 190.766 -0.370486 -1.91448 0
M  V30 1981 O 190.036 0.614088 -1.86026 0
M  V30 1982 H 188.616 -0.606819 -0.435638 0
M  V30 1983 H 191.278 -1.88713 -0.487177 0
M  V30 1984 H 190.374 -2.47958 -1.89534 0
M  V30 1985 N 190.675 0.682077 -1.42076 0
M  V30 1986 C 191.608 1.80666 -1.3941 0
M  V30 1987 C 192.586 1.60518 -0.25939 0
M  V30 1988 O 193.77 1.83088 -0.448456 0
M  V30 1989 C 190.897 3.17556 -1.17796 0
M  V30 1990 C 189.943 3.56468 -2.34164 0
M  V30 1991 S 190.776 3.59729 -3.96681 0
M  V30 1992 C 191.932 4.99323 -3.77395 0
M  V30 1993 H 192.165 1.82652 -2.34575 0
M  V30 1994 H 189.698 0.852062 -1.2876 0
M  V30 1995 H 191.656 3.96575 -1.06012 0
M  V30 1996 H 190.317 3.13164 -0.242279 0
M  V30 1997 H 189.51 4.5595 -2.1477 0
M  V30 1998 H 189.112 2.84792 -2.42425 0
M  V30 1999 H 191.404 5.87202 -3.37935 0
M  V30 2000 H 192.347 5.23763 -4.76527 0
M  V30 2001 H 192.755 4.71498 -3.10403 0
M  V30 2002 N 192.153 1.28127 0.917671 0
M  V30 2003 C 193.1 1.11717 2.0196 0
M  V30 2004 C 194.07 0.0153929 1.66093 0
M  V30 2005 O 195.255 0.179596 1.89953 0
M  V30 2006 C 192.395 0.780927 3.36148 0
M  V30 2007 C 191.508 1.96135 3.84909 0
M  V30 2008 C 190.643 1.56609 5.0759 0
M  V30 2009 C 189.682 2.71339 5.48673 0
M  V30 2010 N 188.819 2.32332 6.62545 0
M  V30 2011 H 193.659 2.06003 2.15329 0
M  V30 2012 H 191.196 1.02535 1.05475 0
M  V30 2013 H 193.154 0.56675 4.13333 0
M  V30 2014 H 191.784 -0.124998 3.22558 0
M  V30 2015 H 190.836 2.28777 3.03916 0
M  V30 2016 H 192.148 2.82165 4.1132 0
M  V30 2017 H 191.302 1.31374 5.92305 0
M  V30 2018 H 190.041 0.677014 4.82978 0
M  V30 2019 H 189.046 2.97276 4.62501 0
M  V30 2020 H 190.271 3.60882 5.75274 0
M  V30 2021 H 188.217 1.45889 6.39572 0
M  V30 2022 H 188.134 3.11899 6.88662 0
M  V30 2023 H 189.402 2.10371 7.50576 0
M  V30 2024 N 193.631 -1.12557 1.10312 0
M  V30 2025 C 194.871 -1.8568 0.854543 0
M  V30 2026 C 195.235 -1.82091 -0.608843 0
M  V30 2027 O 196.436 -2.50544 -0.973717 0
M  V30 2028 C 194.707 -3.2942 1.38626 0
M  V30 2029 S 196.266 -4.19931 1.27293 0
M  V30 2030 H 193.084 -0.640427 0.308827 0
M  V30 2031 H 195.686 -1.35599 1.40831 0
M  V30 2032 H 194.39 -3.2959 2.44537 0
M  V30 2033 H 193.921 -3.84566 0.82902 0
M  V30 2034 H 195.936 -4.95668 0.229776 0
M  V30 2035 N 195.109 -0.891671 -1.2995 0
M  V30 2036 C 196.386 -0.433307 -1.9074 0
M  V30 2037 C 196.766 1.08646 -1.80995 0
M  V30 2038 O 196.114 1.92476 -1.23147 0
M  V30 2039 C 196.324 -0.938895 -3.36134 0
M  V30 2040 C 197.672 -0.977829 -4.13187 0
M  V30 2041 O 198.696 -0.886015 -3.45005 0
M  V30 2042 O 197.555 -1.11453 -5.35015 0
M  V30 2043 H 194.649 -0.133699 -0.816121 0
M  V30 2044 H 197.195 -0.981011 -1.38471 0
M  V30 2045 H 195.967 -1.98281 -3.37343 0
M  V30 2046 H 195.59 -0.37074 -3.95868 0
M  V30 2047 N 196.587 1.43421 -0.653314 0
M  V30 2048 C 197.815 2.06163 -0.174491 0
M  V30 2049 C 198.23 1.48969 1.1599 0
M  V30 2050 O 197.587 0.621042 1.71608 0
M  V30 2051 C 197.638 3.61417 -0.0774865 0
M  V30 2052 O 197.359 4.16485 -1.35912 0
M  V30 2053 C 198.86 4.41235 0.427402 0
M  V30 2054 H 196.08 0.664946 -0.0899353 0
M  V30 2055 H 198.624 1.83924 -0.893988 0
M  V30 2056 H 196.779 3.82841 0.59257 0
M  V30 2057 H 197.193 5.10153 -1.21839 0
M  V30 2058 H 198.667 5.5021 0.44423 0
M  V30 2059 H 199.144 4.14268 1.45873 0
M  V30 2060 H 199.75 4.2478 -0.210167 0
M  V30 2061 N 198.065 0.39524 1.52563 0
M  V30 2062 C 199.305 -0.184744 2.03563 0
M  V30 2063 C 199.669 -1.43548 1.27507 0
M  V30 2064 O 200.87 -2.093 1.68662 0
M  V30 2065 C 199.141 -0.440294 3.54678 0
M  V30 2066 S 200.7 -0.989712 4.27493 0
M  V30 2067 H 197.518 -0.0515075 0.709132 0
M  V30 2068 H 200.12 0.544957 1.87751 0
M  V30 2069 H 198.824 0.477005 4.07618 0
M  V30 2070 H 198.355 -1.19825 3.74707 0
M  V30 2071 H 200.37 -2.27155 4.41152 0
M  V30 2072 N 199.544 -1.57102 0.125237 0
M  V30 2073 C 200.477 -2.11371 -0.860094 0
M  V30 2074 C 201.455 -1.03168 -1.25679 0
M  V30 2075 O 202.639 -1.30862 -1.35674 0
M  V30 2076 C 199.766 -2.61555 -2.1519 0
M  V30 2077 C 198.812 -3.81701 -1.9028 0
M  V30 2078 S 199.645 -5.23797 -1.11343 0
M  V30 2079 C 200.801 -5.77353 -2.41689 0
M  V30 2080 H 201.034 -2.94617 -0.39852 0
M  V30 2081 H 198.567 -1.54145 -0.0886555 0
M  V30 2082 H 200.525 -2.91122 -2.89411 0
M  V30 2083 H 199.186 -1.78479 -2.58465 0
M  V30 2084 H 198.379 -4.14985 -2.86014 0
M  V30 2085 H 197.981 -3.52783 -1.24178 0
M  V30 2086 H 200.273 -5.87458 -3.37489 0
M  V30 2087 H 201.216 -6.75323 -2.12942 0
M  V30 2088 H 201.624 -5.05457 -2.51342 0
M  V30 2089 N 201.022 0.148545 -1.56898 0
M  V30 2090 C 201.955 1.21293 -1.93296 0
M  V30 2091 C 202.933 1.41637 -0.798599 0
M  V30 2092 O 204.117 1.56275 -1.05406 0
M  V30 2093 C 201.244 2.5721 -2.20365 0
M  V30 2094 C 200.29 2.53469 -3.4301 0
M  V30 2095 S 201.123 2.00315 -4.96623 0
M  V30 2096 C 202.279 3.37964 -5.26812 0
M  V30 2097 H 202.512 0.902393 -2.83274 0
M  V30 2098 H 200.045 0.354094 -1.50285 0
M  V30 2099 H 202.003 3.35427 -2.36641 0
M  V30 2100 H 200.664 2.85454 -1.31054 0
M  V30 2101 H 199.857 3.53518 -3.59223 0
M  V30 2102 H 199.459 1.83359 -3.25968 0
M  V30 2103 H 201.751 4.34066 -5.20185 0
M  V30 2104 H 202.694 3.26606 -6.28279 0
M  V30 2105 H 203.102 3.35028 -4.54331 0
M  V30 2106 N 202.5 1.5196 0.417844 0
M  V30 2107 C 203.448 1.75278 1.52907 0
M  V30 2108 C 204.442 0.619611 1.57662 0
M  V30 2109 O 205.648 0.801457 1.61173 0
M  V30 2110 H 202.023 0.554141 0.508362 0
M  V30 2111 H 203.994 2.68389 1.30422 0
M  V30 2112 C 202.743 1.91262 2.90369 0
M  V30 2113 H 202.066 2.77872 2.8745 0
M  V30 2114 H 203.506 2.11581 3.67436 0
M  V30 2115 C 201.965 0.677431 3.30019 0
M  V30 2116 O 202.495 -0.158799 4.01386 0
M  V30 2117 N 200.701 0.515851 2.85985 0
M  V30 2118 H 200.248 1.19744 2.28077 0
M  V30 2119 H 200.206 -0.309315 3.12875 0
M  V30 2120 N 203.978 -0.674533 1.42435 0
M  V30 2121 C 205.224 -1.43671 1.43131 0
M  V30 2122 C 205.557 -1.94142 0.0476021 0
M  V30 2123 O 204.832 -1.70924 -0.928188 0
M  V30 2124 C 205.115 -2.63355 2.45594 0
M  V30 2125 C 204.968 -2.18514 3.93156 0
M  V30 2126 C 206.287 -3.65571 2.45043 0
M  V30 2127 H 203.406 -0.521077 0.521198 0
M  V30 2128 H 206.048 -0.766551 1.7385 0
M  V30 2129 H 204.198 -3.2053 2.19528 0
M  V30 2130 H 205.87 -1.66504 4.30202 0
M  V30 2131 H 204.113 -1.50086 4.07009 0
M  V30 2132 H 204.784 -3.04484 4.60428 0
M  V30 2133 H 207.26 -3.18113 2.68223 0
M  V30 2134 H 206.136 -4.46893 3.18713 0
M  V30 2135 H 206.397 -4.16716 1.47649 0
M  V30 2136 N 205.456 -1.28612 -0.910864 0
M  V30 2137 C 206.406 -1.09423 -2.00026 0
M  V30 2138 C 207.39 -0.0170079 -1.60891 0
M  V30 2139 O 208.582 -0.237472 -1.754 0
M  V30 2140 C 205.711 -0.76114 -3.34756 0
M  V30 2141 C 204.797 -1.87735 -3.80285 0
M  V30 2142 N 205.188 -3.11938 -3.98156 0
M  V30 2143 C 203.486 -1.76786 -4.09467 0
M  V30 2144 C 204.187 -3.84687 -4.36338 0
M  V30 2145 N 203.163 -3.12555 -4.44759 0
M  V30 2146 H 206.965 -2.03658 -2.11898 0
M  V30 2147 H 204.479 -1.19573 -1.09891 0
M  V30 2148 H 206.476 -0.604743 -4.12491 0
M  V30 2149 H 205.136 0.173403 -3.24237 0
M  V30 2150 H 206.147 -3.47516 -3.83996 0
M  V30 2151 H 202.824 -0.905284 -4.07567 0
M  V30 2152 H 204.214 -4.91518 -4.58104 0
M  V30 2153 N 206.934 1.1197 -1.10907 0
M  V30 2154 C 207.881 2.17846 -0.762345 0
M  V30 2155 C 208.851 1.63995 0.263599 0
M  V30 2156 O 210.036 1.90273 0.141773 0
M  V30 2157 C 207.176 3.44487 -0.205651 0
M  V30 2158 C 206.289 4.12369 -1.28748 0
M  V30 2159 C 205.424 5.26674 -0.691919 0
M  V30 2160 C 204.463 5.86431 -1.75399 0
M  V30 2161 N 203.6 6.92142 -1.17833 0
M  V30 2162 H 208.44 2.46851 -1.6694 0
M  V30 2163 H 205.977 1.21188 -0.833776 0
M  V30 2164 H 207.935 4.16981 0.135037 0
M  V30 2165 H 206.565 3.15884 0.664613 0
M  V30 2166 H 205.617 3.38003 -1.74522 0
M  V30 2167 H 206.929 4.52844 -2.09125 0
M  V30 2168 H 206.083 6.05953 -0.300963 0
M  V30 2169 H 204.822 4.8749 0.143232 0
M  V30 2170 H 203.827 5.05835 -2.15432 0
M  V30 2171 H 205.052 6.27685 -2.59208 0
M  V30 2172 H 202.998 6.54985 -0.364725 0
M  V30 2173 H 202.915 7.31242 -1.91887 0
M  V30 2174 H 204.183 7.75237 -0.81408 0
M  V30 2175 N 208.412 0.89855 1.29475 0
M  V30 2176 C 209.828 0.594483 1.48115 0
M  V30 2177 C 210.028 -0.86431 1.82022 0
M  V30 2178 O 209.084 -1.64457 1.91599 0
M  V30 2179 C 210.397 1.51932 2.59494 0
M  V30 2180 C 211.945 1.5244 2.7337 0
M  V30 2181 C 212.42 2.43548 3.87877 0
M  V30 2182 N 213.911 2.41589 3.95208 0
M  V30 2183 C 214.646 3.08789 4.83153 0
M  V30 2184 N 214.142 3.85265 5.75798 0
M  V30 2185 N 215.935 2.97952 4.76635 0
M  V30 2186 H 208.086 1.84207 1.05742 0
M  V30 2187 H 210.349 0.789251 0.525154 0
M  V30 2188 H 210.055 2.55865 2.41301 0
M  V30 2189 H 209.929 1.23899 3.56271 0
M  V30 2190 H 212.316 0.492518 2.90961 0
M  V30 2191 H 212.397 1.8451 1.77172 0
M  V30 2192 H 212.041 3.46829 3.71041 0
M  V30 2193 H 211.971 2.08788 4.83441 0
M  V30 2194 H 214.462 1.86025 3.28943 0
M  V30 2195 H 214.775 4.33598 6.39697 0
M  V30 2196 H 213.12 3.89371 5.75687 0
M  V30 2197 H 216.311 2.37723 4.03244 0
M  V30 2198 H 216.484 3.50599 5.44962 0
M  V30 2199 N 209.89 -1.43072 0.660911 0
M  V30 2200 C 211.13 -2.03596 0.181146 0
M  V30 2201 C 211.494 -1.51057 -1.18515 0
M  V30 2202 O 212.695 -2.03275 -1.75877 0
M  V30 2203 C 210.966 -3.56845 0.19911 0
M  V30 2204 S 212.525 -4.38289 -0.211684 0
M  V30 2205 H 209.343 -0.706954 0.0757479 0
M  V30 2206 H 211.945 -1.75027 0.870965 0
M  V30 2207 H 210.649 -3.92583 1.1961 0
M  V30 2208 H 210.18 -3.90067 -0.510996 0
M  V30 2209 H 212.195 -4.74583 -1.44863 0
M  V30 2210 N 211.368 -0.403325 -1.52352 0
M  V30 2211 C 212.614 0.174605 -2.02047 0
M  V30 2212 C 212.947 1.45282 -1.28867 0
M  V30 2213 O 212.222 1.90483 -0.393257 0
M  V30 2214 C 212.505 0.428238 -3.57545 0
M  V30 2215 C 212.358 -0.866248 -4.4138 0
M  V30 2216 C 213.677 1.21287 -4.23057 0
M  V30 2217 H 210.796 0.0619851 -0.734389 0
M  V30 2218 H 213.438 -0.53565 -1.82293 0
M  V30 2219 H 211.588 1.03327 -3.74507 0
M  V30 2220 H 213.26 -1.50265 -4.3614 0
M  V30 2221 H 211.503 -1.47851 -4.07827 0
M  V30 2222 H 212.174 -0.643249 -5.48239 0
M  V30 2223 H 214.65 0.700703 -4.10158 0
M  V30 2224 H 213.526 1.35909 -5.31808 0
M  V30 2225 H 213.787 2.23193 -3.81625 0
M  V30 2226 N 212.846 1.57033 -0.133567 0
M  V30 2227 C 213.779 2.11824 0.848872 0
M  V30 2228 C 214.757 1.03833 1.2513 0
M  V30 2229 O 215.941 1.31579 1.34978 0
M  V30 2230 C 213.068 2.62692 2.138 0
M  V30 2231 C 212.114 3.82705 1.88253 0
M  V30 2232 S 212.947 5.2438 1.08563 0
M  V30 2233 C 214.103 5.78627 2.38624 0
M  V30 2234 H 214.336 2.94824 0.38289 0
M  V30 2235 H 211.869 1.5419 0.0804796 0
M  V30 2236 H 213.827 2.92652 2.87863 0
M  V30 2237 H 212.488 1.79847 2.57515 0
M  V30 2238 H 211.681 4.16496 2.83809 0
M  V30 2239 H 211.283 3.53437 1.22305 0
M  V30 2240 H 213.575 5.8924 3.34369 0
M  V30 2241 H 214.518 6.76443 2.09358 0
M  V30 2242 H 214.926 5.06783 2.48658 0
M  V30 2243 N 214.325 -0.140222 1.56975 0
M  V30 2244 C 215.273 -1.19207 1.99731 0
M  V30 2245 C 216.267 -1.44089 0.890777 0
M  V30 2246 O 217.473 -1.44301 1.07597 0
M  V30 2247 H 213.848 -0.40142 0.635898 0
M  V30 2248 H 215.819 -0.804813 2.87342 0
M  V30 2249 C 214.568 -2.51617 2.39967 0
M  V30 2250 H 213.891 -2.33303 3.24669 0
M  V30 2251 H 215.331 -3.23827 2.73701 0
M  V30 2252 C 213.79 -3.12654 1.25496 0
M  V30 2253 O 214.32 -3.97786 0.559371 0
M  V30 2254 N 212.526 -2.72206 1.01746 0
M  V30 2255 H 212.073 -2.03074 1.58489 0
M  V30 2256 H 212.031 -3.13377 0.253461 0
M  V30 2257 N 215.803 -1.52179 -0.40978 0
M  V30 2258 C 217.049 -1.66453 -1.15851 0
M  V30 2259 C 217.382 -0.392972 -1.90182 0
M  V30 2260 O 216.657 0.608579 -1.84734 0
M  V30 2261 C 216.94 -2.88612 -2.15349 0
M  V30 2262 C 216.793 -4.25815 -1.44918 0
M  V30 2263 C 218.112 -3.06294 -3.16026 0
M  V30 2264 H 215.231 -0.60575 -0.419805 0
M  V30 2265 H 217.873 -1.84732 -0.444314 0
M  V30 2266 H 216.023 -2.73158 -2.76255 0
M  V30 2267 H 217.695 -4.52995 -0.871365 0
M  V30 2268 H 215.938 -4.27247 -0.751159 0
M  V30 2269 H 216.609 -5.07337 -2.17516 0
M  V30 2270 H 219.085 -3.20641 -2.65195 0
M  V30 2271 H 217.961 -3.93283 -3.8291 0
M  V30 2272 H 218.222 -2.19579 -3.83715 0
M  V30 2273 N 217.281 0.66697 -1.42791 0
M  V30 2274 C 218.692 1.2478 -1.38877 0
M  V30 2275 C 219.043 1.96012 -0.0859426 0
M  V30 2276 O 218.168 2.00463 0.815081 0
M  V30 2277 C 218.763 2.26938 -2.51564 0
M  V30 2278 C 217.322 2.80529 -2.50959 0
M  V30 2279 C 216.469 1.54965 -2.29959 0
M  V30 2280 H 219.42 0.459853 -1.51892 0
M  V30 2281 H 219.441 3.08834 -2.22265 0
M  V30 2282 H 218.953 1.75065 -3.46372 0
M  V30 2283 H 217.054 3.36502 -1.59991 0
M  V30 2284 H 217.167 3.29012 -3.48265 0
M  V30 2285 H 215.531 1.81817 -1.78366 0
M  V30 2286 H 216.314 1.05047 -3.26833 0
M  V30 2287 N 218.759 1.29093 0.90403 0
M  V30 2288 C 219.984 1.19809 1.69294 0
M  V30 2289 C 220.409 -0.238481 1.86582 0
M  V30 2290 O 219.767 -1.1723 1.383 0
M  V30 2291 C 219.815 1.91202 3.05736 0
M  V30 2292 O 218.919 1.22611 3.93752 0
M  V30 2293 H 218.26 0.415385 0.518027 0
M  V30 2294 H 220.79 1.70586 1.12967 0
M  V30 2295 H 220.8 1.99487 3.55906 0
M  V30 2296 H 219.475 2.95692 2.92471 0
M  V30 2297 H 218.052 1.22554 3.52186 0
M  V30 2298 N 220.237 -1.11381 1.11499 0
M  V30 2299 C 221.167 -2.19509 0.796125 0
M  V30 2300 C 222.148 -1.68458 -0.235796 0
M  V30 2301 O 223.333 -1.93947 -0.0991344 0
M  V30 2302 C 220.463 -3.46475 0.239205 0
M  V30 2303 C 219.417 -4.10744 1.20307 0
M  V30 2304 C 218.743 -5.32293 0.50683 0
M  V30 2305 C 220.043 -4.55597 2.55399 0
M  V30 2306 H 221.737 -2.46439 1.70024 0
M  V30 2307 H 219.283 -1.18446 0.818935 0
M  V30 2308 H 221.236 -4.214 0.00392006 0
M  V30 2309 H 219.96 -3.19006 -0.700206 0
M  V30 2310 H 218.619 -3.37813 1.42399 0
M  V30 2311 H 218.267 -5.01095 -0.437408 0
M  V30 2312 H 217.967 -5.76243 1.1497 0
M  V30 2313 H 219.491 -6.09956 0.280351 0
M  V30 2314 H 220.905 -5.21841 2.37391 0
M  V30 2315 H 219.302 -5.10363 3.15673 0
M  V30 2316 H 220.372 -3.69013 3.14575 0
M  V30 2317 N 221.715 -0.905404 -1.28997 0
M  V30 2318 C 222.955 -0.541232 -1.97104 0
M  V30 2319 C 223.319 0.896841 -1.69767 0
M  V30 2320 O 224.52 1.36817 -2.31375 0
M  V30 2321 C 222.791 -0.832134 -3.47578 0
M  V30 2322 S 224.35 -0.573127 -4.35041 0
M  V30 2323 H 221.168 -0.200576 -0.682122 0
M  V30 2324 H 223.77 -1.16906 -1.56694 0
M  V30 2325 H 222.474 -1.87687 -3.64968 0
M  V30 2326 H 222.005 -0.192636 -3.92928 0
M  V30 2327 H 224.02 0.579297 -4.92807 0
M  V30 2328 N 223.193 1.4272 -0.668489 0
M  V30 2329 C 224.441 2.01226 -0.187769 0
M  V30 2330 C 224.762 1.53092 1.2078 0
M  V30 2331 O 224.032 0.74993 1.80977 0
M  V30 2332 H 222.612 0.744041 -0.0664272 0
M  V30 2333 H 225.274 1.74723 -0.863583 0
M  V30 2334 H 224.37 3.11556 -0.184166 0
M  V30 2335 N 224.671 0.411399 1.52136 0
M  V30 2336 C 225.899 -0.163076 2.06256 0
M  V30 2337 C 226.314 -1.3867 1.28125 0
M  V30 2338 O 225.671 -1.79423 0.333721 0
M  V30 2339 C 225.722 -0.511252 3.57867 0
M  V30 2340 O 225.443 0.66378 4.33042 0
M  V30 2341 C 226.944 -1.13921 4.28412 0
M  V30 2342 H 224.164 -0.0193897 0.67072 0
M  V30 2343 H 226.708 0.583007 1.96013 0
M  V30 2344 H 224.863 -1.20723 3.6811 0
M  V30 2345 H 225.277 0.372601 5.23175 0
M  V30 2346 H 226.751 -1.33302 5.35663 0
M  V30 2347 H 227.228 -2.11296 3.85033 0
M  V30 2348 H 227.834 -0.483373 4.22544 0
M  V30 2349 N 226.149 -1.5696 0.141893 0
M  V30 2350 C 227.426 -1.87553 -0.555281 0
M  V30 2351 C 227.806 -1.04699 -1.83306 0
M  V30 2352 O 227.154 -0.132346 -2.28116 0
M  V30 2353 C 227.364 -3.39093 -0.825664 0
M  V30 2354 C 228.712 -4.08199 -1.16869 0
M  V30 2355 O 229.736 -3.44242 -0.915185 0
M  V30 2356 O 228.595 -5.21139 -1.6455 0
M  V30 2357 H 225.689 -0.777188 -0.282679 0
M  V30 2358 H 228.235 -1.68763 0.17812 0
M  V30 2359 H 227.007 -3.91221 0.0788633 0
M  V30 2360 H 226.63 -3.63393 -1.61343 0
M  V30 2361 N 227.627 0.131896 -1.57047 0
M  V30 2362 C 228.577 1.1679 -1.95816 0
M  V30 2363 C 229.561 1.37756 -0.831393 0
M  V30 2364 O 230.753 1.39065 -1.09499 0
M  V30 2365 C 227.882 2.49778 -2.35512 0
M  V30 2366 C 226.968 2.32342 -3.54793 0
M  V30 2367 N 227.359 1.8469 -4.70875 0
M  V30 2368 C 225.657 2.63043 -3.60173 0
M  V30 2369 C 226.358 1.80656 -5.52936 0
M  V30 2370 N 225.334 2.24528 -4.95064 0
M  V30 2371 H 229.136 0.791818 -2.83033 0
M  V30 2372 H 226.65 0.339791 -1.58805 0
M  V30 2373 H 228.647 3.24692 -2.61498 0
M  V30 2374 H 227.307 2.88156 -1.49654 0
M  V30 2375 H 228.318 1.54429 -4.9434 0
M  V30 2376 H 224.995 3.05193 -2.84892 0
M  V30 2377 H 226.385 1.45178 -6.56028 0
M  V30 2378 N 229.106 1.52395 0.401703 0
M  V30 2379 C 230.334 1.70676 1.16949 0
M  V30 2380 C 230.749 0.419503 1.8408 0
M  V30 2381 O 230.106 -0.605061 1.72178 0
M  V30 2382 C 230.157 2.84753 2.22706 0
M  V30 2383 O 229.878 4.08495 1.58314 0
M  V30 2384 C 231.379 3.14608 3.12309 0
M  V30 2385 H 228.599 0.571787 0.351142 0
M  V30 2386 H 231.143 1.98987 0.471652 0
M  V30 2387 H 229.298 2.58941 2.88147 0
M  V30 2388 H 229.712 4.72117 2.28485 0
M  V30 2389 H 231.186 3.97923 3.82572 0
M  V30 2390 H 231.663 2.28464 3.75101 0
M  V30 2391 H 232.269 3.42212 2.52529 0
M  V30 2392 N 230.584 -0.659388 1.43143 0
M  V30 2393 C 231.494 -1.80167 1.50256 0
M  V30 2394 C 232.51 -1.69571 0.390106 0
M  V30 2395 O 233.686 -1.90849 0.643319 0
M  V30 2396 C 230.751 -3.16409 1.41725 0
M  V30 2397 C 229.812 -3.38848 2.63591 0
M  V30 2398 C 229.045 -4.68591 2.55458 0
M  V30 2399 O 229.268 -5.47532 1.59891 0
M  V30 2400 O 228.202 -4.92614 3.45854 0
M  V30 2401 H 232.028 -1.77121 2.46702 0
M  V30 2402 H 229.613 -0.817092 1.25076 0
M  V30 2403 H 231.495 -3.9768 1.39387 0
M  V30 2404 H 230.17 -3.20059 0.484118 0
M  V30 2405 H 229.077 -2.57366 2.71502 0
M  V30 2406 H 230.41 -3.4004 3.55856 0
M  V30 2407 N 232.062 -1.29571 -0.897171 0
M  V30 2408 C 233.478 -1.07637 -1.17841 0
M  V30 2409 C 233.678 0.170713 -2.00776 0
M  V30 2410 O 232.734 0.867768 -2.3712 0
M  V30 2411 C 234.047 -2.3332 -1.8969 0
M  V30 2412 C 235.595 -2.38664 -2.02505 0
M  V30 2413 C 236.07 -3.64157 -2.77765 0
M  V30 2414 N 237.561 -3.64894 -2.85318 0
M  V30 2415 C 238.296 -4.58679 -3.44094 0
M  V30 2416 N 237.792 -5.62799 -4.04017 0
M  V30 2417 N 239.585 -4.46245 -3.41793 0
M  V30 2418 H 231.736 -2.09598 -0.343883 0
M  V30 2419 H 233.999 -0.923333 -0.214848 0
M  V30 2420 H 233.705 -3.24262 -1.36187 0
M  V30 2421 H 233.579 -2.41025 -2.9015 0
M  V30 2422 H 235.966 -1.48208 -2.55183 0
M  V30 2423 H 236.047 -2.34943 -1.01171 0
M  V30 2424 H 235.691 -4.54965 -2.25763 0
M  V30 2425 H 235.621 -3.65137 -3.7945 0
M  V30 2426 H 238.112 -2.89613 -2.42761 0
M  V30 2427 H 238.425 -6.3048 -4.46895 0
M  V30 2428 H 236.77 -5.66605 -4.02472 0
M  V30 2429 H 239.961 -3.64094 -2.94199 0
M  V30 2430 H 240.134 -5.19518 -3.87304 0
M  V30 2431 N 233.54 1.10788 -1.12088 0
M  V30 2432 C 234.956 1.34691 -0.856186 0
M  V30 2433 C 235.156 1.94791 0.515615 0
M  V30 2434 O 234.212 2.18524 1.26505 0
M  V30 2435 C 235.525 2.27208 -1.9697 0
M  V30 2436 C 237.073 2.40755 -2.00016 0
M  V30 2437 C 237.548 3.36598 -3.1059 0
M  V30 2438 N 239.039 3.44164 -3.10008 0
M  V30 2439 C 239.774 4.18284 -3.92206 0
M  V30 2440 N 239.27 4.95322 -4.84384 0
M  V30 2441 N 241.063 4.13865 -3.80357 0
M  V30 2442 H 233.214 0.70144 -2.00483 0
M  V30 2443 H 235.477 0.371405 -0.872217 0
M  V30 2444 H 235.183 1.90251 -2.958 0
M  V30 2445 H 235.057 3.27485 -1.87172 0
M  V30 2446 H 237.444 2.76982 -1.01808 0
M  V30 2447 H 237.525 1.40305 -2.13888 0
M  V30 2448 H 237.169 3.01096 -4.09028 0
M  V30 2449 H 237.099 4.36918 -2.93956 0
M  V30 2450 H 239.59 2.8922 -2.43228 0
M  V30 2451 H 239.903 5.49267 -5.43623 0
M  V30 2452 H 238.248 4.94459 -4.884 0
M  V30 2453 H 241.439 3.52773 -3.07683 0
M  V30 2454 H 241.612 4.71372 -4.44649 0
M  V30 2455 N 235.018 0.912232 1.28515 0
M  V30 2456 C 236.266 0.543523 1.94654 0
M  V30 2457 C 236.587 -0.9155 1.72173 0
M  V30 2458 O 235.857 -1.64708 1.06058 0
M  V30 2459 H 234.437 0.198017 0.720277 0
M  V30 2460 H 237.099 1.16126 1.56527 0
M  V30 2461 H 236.195 0.736684 3.03281 0
M  V30 2462 N 236.496 -1.42363 0.676048 0
M  V30 2463 C 237.912 -1.55811 0.345718 0
M  V30 2464 C 238.112 -1.65544 -1.14879 0
M  V30 2465 O 237.168 -1.62306 -1.93424 0
M  V30 2466 C 238.481 -2.80746 1.07713 0
M  V30 2467 C 240.029 -2.9452 1.05958 0
M  V30 2468 C 240.504 -4.22318 1.77233 0
M  V30 2469 N 241.995 -4.29233 1.74108 0
M  V30 2470 C 242.73 -5.26935 2.26113 0
M  V30 2471 N 242.226 -6.30783 2.86505 0
M  V30 2472 N 244.019 -5.18741 2.1648 0
M  V30 2473 H 236.17 -1.34289 1.6456 0
M  V30 2474 H 238.433 -0.646506 0.69335 0
M  V30 2475 H 238.139 -2.79696 2.13221 0
M  V30 2476 H 238.013 -3.71676 0.64316 0
M  V30 2477 H 240.4 -2.95097 0.0128255 0
M  V30 2478 H 240.481 -2.04817 1.53244 0
M  V30 2479 H 240.125 -4.22502 2.81877 0
M  V30 2480 H 240.055 -5.10958 1.27396 0
M  V30 2481 H 242.546 -3.54814 1.30059 0
M  V30 2482 H 242.859 -7.01691 3.23805 0
M  V30 2483 H 241.204 -6.31341 2.90575 0
M  V30 2484 H 244.395 -4.36533 1.68987 0
M  V30 2485 H 244.568 -5.94721 2.57316 0
M  V30 2486 N 237.974 -0.419461 -1.51915 0
M  V30 2487 C 239.223 0.154346 -2.01109 0
M  V30 2488 C 239.536 1.45338 -1.30905 0
M  V30 2489 O 240.742 2.10906 -1.7097 0
M  V30 2490 C 239.198 0.325615 -3.58424 0
M  V30 2491 C 238.806 -0.961934 -4.37551 0
M  V30 2492 C 240.55 0.854155 -4.15818 0
M  V30 2493 C 238.457 -0.757287 -5.86531 0
M  V30 2494 H 237.387 0.0614563 -0.751491 0
M  V30 2495 H 240.038 -0.54649 -1.75173 0
M  V30 2496 H 238.42 1.08903 -3.80731 0
M  V30 2497 H 239.594 -1.7323 -4.26999 0
M  V30 2498 H 237.909 -1.41766 -3.91524 0
M  V30 2499 H 240.506 1.02346 -5.24814 0
M  V30 2500 H 240.849 1.83172 -3.73837 0
M  V30 2501 H 241.382 0.149528 -3.97519 0
M  V30 2502 H 238.121 -1.70671 -6.32892 0
M  V30 2503 H 237.641 -0.0264061 -5.99794 0
M  V30 2504 H 239.32 -0.403482 -6.45741 0
M  V30 2505 N 239.452 1.56882 -0.150215 0
M  V30 2506 C 240.682 2.00302 0.506213 0
M  V30 2507 C 241.09 1.02934 1.58749 0
M  V30 2508 O 240.433 0.0188384 1.8369 0
M  V30 2509 C 240.495 3.40156 1.16337 0
M  V30 2510 C 240.159 4.56439 0.226311 0
M  V30 2511 C 241.156 5.17012 -0.547265 0
M  V30 2512 C 238.841 5.02136 0.128279 0
M  V30 2513 C 240.835 6.21693 -1.40629 0
M  V30 2514 C 238.522 6.06672 -0.734345 0
M  V30 2515 C 239.52 6.6632 -1.50023 0
M  V30 2516 O 239.208 7.68831 -2.34848 0
M  V30 2517 H 238.94 0.662182 0.135984 0
M  V30 2518 H 241.494 2.03961 -0.242746 0
M  V30 2519 H 239.724 3.33346 1.96004 0
M  V30 2520 H 241.413 3.67663 1.71985 0
M  V30 2521 H 242.179 4.82603 -0.48158 0
M  V30 2522 H 238.058 4.55435 0.714157 0
M  V30 2523 H 241.602 6.68179 -2.00455 0
M  V30 2524 H 237.499 6.40507 -0.801309 0
M  V30 2525 H 238.267 7.86065 -2.28131 0
M  V30 2526 N 240.93 -0.123565 1.57115 0
M  V30 2527 C 242.179 -0.830704 1.83799 0
M  V30 2528 C 242.492 -1.81259 0.735158 0
M  V30 2529 O 243.698 -2.56558 0.888278 0
M  V30 2530 C 242.154 -1.52802 3.25852 0
M  V30 2531 C 241.762 -0.587356 4.44133 0
M  V30 2532 C 243.506 -2.22056 3.61789 0
M  V30 2533 C 241.413 -1.28764 5.77212 0
M  V30 2534 H 240.343 -0.313967 0.685522 0
M  V30 2535 H 242.994 -0.0834359 1.8331 0
M  V30 2536 H 241.376 -2.32175 3.20797 0
M  V30 2537 H 242.55 0.172829 4.60476 0
M  V30 2538 H 240.865 -0.00201892 4.164 0
M  V30 2539 H 243.462 -2.75131 4.58483 0
M  V30 2540 H 243.805 -2.99644 2.88997 0
M  V30 2541 H 244.338 -1.49576 3.68608 0
M  V30 2542 H 241.077 -0.55314 6.53162 0
M  V30 2543 H 240.597 -2.01995 5.64764 0
M  V30 2544 H 242.276 -1.8221 6.20813 0
M  V30 2545 N 242.408 -1.52605 -0.393616 0
M  V30 2546 C 243.34 -1.73303 -1.49995 0
M  V30 2547 C 244.353 -0.613473 -1.50799 0
M  V30 2548 O 245.542 -0.889049 -1.54784 0
M  V30 2549 C 242.642 -1.77245 -2.88855 0
M  V30 2550 C 241.815 -3.06483 -3.12069 0
M  V30 2551 C 240.874 -3.02033 -4.30886 0
M  V30 2552 O 239.9 -3.75907 -4.27414 0
M  V30 2553 N 241.102 -2.20897 -5.36828 0
M  V30 2554 H 243.867 -2.68756 -1.32629 0
M  V30 2555 H 241.428 -1.51036 -0.583083 0
M  V30 2556 H 243.42 -1.7178 -3.66434 0
M  V30 2557 H 241.99 -0.891993 -2.99603 0
M  V30 2558 H 241.21 -3.25474 -2.22396 0
M  V30 2559 H 242.498 -3.91947 -3.2443 0
M  V30 2560 H 241.896 -1.60336 -5.42502 0
M  V30 2561 H 240.453 -2.21275 -6.13091 0
M  V30 2562 N 243.887 0.651787 -1.4349 0
M  V30 2563 C 244.85 1.74647 -1.48429 0
M  V30 2564 C 245.85 1.56513 -0.368817 0
M  V30 2565 O 247.04 1.62385 -0.630623 0
M  V30 2566 C 244.172 3.13533 -1.33827 0
M  V30 2567 H 245.365 1.71649 -2.4592 0
M  V30 2568 H 242.918 0.863573 -1.30277 0
M  V30 2569 H 243.653 3.22142 -0.37349 0
M  V30 2570 H 243.438 3.28101 -2.14691 0
M  V30 2571 H 244.928 3.93356 -1.40218 0
M  V30 2572 N 245.365 1.30045 0.890287 0
M  V30 2573 C 246.315 1.12592 1.9826 0
M  V30 2574 C 247.299 0.0426021 1.60844 0
M  V30 2575 O 248.491 0.265346 1.75 0
M  V30 2576 C 245.62 0.814301 3.33503 0
M  V30 2577 C 244.706 1.93761 3.7725 0
M  V30 2578 N 245.097 3.18232 3.93143 0
M  V30 2579 C 243.395 1.83277 4.06602 0
M  V30 2580 C 244.096 3.9158 4.30163 0
M  V30 2581 N 243.072 3.19591 4.3973 0
M  V30 2582 H 246.874 2.07003 2.08631 0
M  V30 2583 H 244.388 1.21307 1.07974 0
M  V30 2584 H 246.385 0.67029 4.11476 0
M  V30 2585 H 245.045 -0.121797 3.24471 0
M  V30 2586 H 246.056 3.53581 3.78419 0
M  V30 2587 H 242.733 0.97001 4.06075 0
M  V30 2588 H 244.123 4.98744 4.50226 0
M  V30 2589 N 246.843 -1.10192 1.12674 0
M  V30 2590 C 248.092 -1.81573 0.8783 0
M  V30 2591 C 248.405 -1.86249 -0.597557 0
M  V30 2592 O 249.611 -2.5386 -0.962681 0
M  V30 2593 C 248.067 -3.26149 1.52167 0
M  V30 2594 C 247.675 -3.29763 3.03249 0
M  V30 2595 C 249.419 -4.0234 1.3536 0
M  V30 2596 C 247.326 -4.68815 3.60508 0
M  V30 2597 H 246.256 -0.680394 0.324931 0
M  V30 2598 H 248.907 -1.23902 1.35353 0
M  V30 2599 H 247.289 -3.83832 0.974104 0
M  V30 2600 H 248.463 -2.8189 3.6452 0
M  V30 2601 H 246.778 -2.67059 3.19481 0
M  V30 2602 H 249.375 -5.05058 1.75559 0
M  V30 2603 H 249.718 -4.15235 0.297554 0
M  V30 2604 H 250.251 -3.51079 1.87052 0
M  V30 2605 H 246.99 -4.61121 4.65884 0
M  V30 2606 H 246.51 -5.17045 3.04014 0
M  V30 2607 H 248.189 -5.37785 3.59717 0
M  V30 2608 N 248.321 -0.919034 -1.28029 0
M  V30 2609 C 249.598 -0.473668 -1.89778 0
M  V30 2610 C 249.978 1.04783 -1.83259 0
M  V30 2611 O 249.326 1.8982 -1.27202 0
M  V30 2612 C 249.536 -1.00998 -3.34066 0
M  V30 2613 C 250.884 -1.06525 -4.1102 0
M  V30 2614 O 251.908 -0.958996 -3.43048 0
M  V30 2615 O 250.767 -1.22776 -5.3253 0
M  V30 2616 H 247.861 -0.15098 -0.813101 0
M  V30 2617 H 250.407 -1.01016 -1.36359 0
M  V30 2618 H 249.179 -2.05392 -3.33061 0
M  V30 2619 H 248.802 -0.454626 -3.94992 0
M  V30 2620 N 249.799 1.42003 -0.683588 0
M  V30 2621 C 251.215 1.55625 -0.353976 0
M  V30 2622 C 251.415 1.66151 1.14 0
M  V30 2623 O 250.471 1.63329 1.92561 0
M  V30 2624 C 251.784 2.80171 -1.092 0
M  V30 2625 C 253.332 2.93954 -1.07518 0
M  V30 2626 C 253.807 4.21372 -1.79471 0
M  V30 2627 N 255.298 4.28303 -1.76381 0
M  V30 2628 C 256.033 5.25729 -2.28904 0
M  V30 2629 N 255.529 6.29254 -2.89846 0
M  V30 2630 N 257.322 5.17586 -2.19228 0
M  V30 2631 H 249.473 1.33415 -1.6527 0
M  V30 2632 H 251.736 0.64282 -0.696769 0
M  V30 2633 H 251.442 2.78561 -2.14701 0
M  V30 2634 H 251.316 3.7133 -0.662862 0
M  V30 2635 H 253.703 2.95086 -0.028475 0
M  V30 2636 H 253.784 2.04002 -1.54328 0
M  V30 2637 H 253.428 4.21001 -2.84114 0
M  V30 2638 H 253.358 5.10275 -1.30104 0
M  V30 2639 H 255.849 3.54119 -1.31939 0
M  V30 2640 H 256.162 6.99964 -3.27522 0
M  V30 2641 H 254.507 6.29791 -2.93919 0
M  V30 2642 H 257.698 4.35631 -1.71299 0
M  V30 2643 H 257.871 5.93348 -2.60466 0
M  V30 2644 N 251.277 0.427512 1.51691 0
M  V30 2645 C 252.554 -0.201684 1.94557 0
M  V30 2646 C 252.934 -1.60981 1.36559 0
M  V30 2647 O 252.282 -2.21814 0.548702 0
M  V30 2648 C 252.492 -0.189394 3.48486 0
M  V30 2649 C 253.84 -0.39978 4.22714 0
M  V30 2650 O 254.864 -0.267945 3.55191 0
M  V30 2651 O 253.723 -0.661249 5.42485 0
M  V30 2652 H 250.817 -0.135261 0.815864 0
M  V30 2653 H 253.363 0.484782 1.62628 0
M  V30 2654 H 252.135 0.795431 3.8313 0
M  V30 2655 H 251.758 -0.919187 3.86829 0
M  V30 2656 N 252.755 -1.56801 0.158532 0
M  V30 2657 C 254.001 -1.96781 -0.490405 0
M  V30 2658 C 254.334 -1.04397 -1.63753 0
M  V30 2659 O 253.609 -0.0885805 -1.94298 0
M  V30 2660 C 253.892 -3.4635 -0.985594 0
M  V30 2661 C 253.745 -4.49512 0.160824 0
M  V30 2662 C 255.064 -3.98697 -1.86355 0
M  V30 2663 H 252.183 -0.715482 -0.176788 0
M  V30 2664 H 254.825 -1.88451 0.242088 0
M  V30 2665 H 252.975 -3.53579 -1.60978 0
M  V30 2666 H 254.647 -4.54353 0.797537 0
M  V30 2667 H 252.89 -4.26013 0.818256 0
M  V30 2668 H 253.561 -5.51531 -0.227569 0
M  V30 2669 H 256.037 -3.94019 -1.33746 0
M  V30 2670 H 254.913 -5.03792 -2.17909 0
M  V30 2671 H 255.174 -3.41744 -2.8047 0
M  V30 2672 N 254.233 0.115231 -1.57178 0
M  V30 2673 C 255.163 1.1423 -2.03651 0
M  V30 2674 C 256.144 1.42967 -0.921655 0
M  V30 2675 O 257.329 1.53343 -1.19162 0
M  V30 2676 C 254.459 2.4675 -2.44401 0
M  V30 2677 C 253.413 2.32467 -3.59365 0
M  V30 2678 C 252.739 3.69984 -3.86026 0
M  V30 2679 C 254.039 1.78203 -4.90959 0
M  V30 2680 H 255.733 0.755749 -2.89705 0
M  V30 2681 H 253.279 0.362093 -1.39373 0
M  V30 2682 H 255.232 3.18854 -2.75517 0
M  V30 2683 H 253.956 2.87302 -1.55322 0
M  V30 2684 H 252.615 1.62811 -3.28463 0
M  V30 2685 H 252.263 4.08028 -2.94147 0
M  V30 2686 H 251.963 3.61279 -4.63412 0
M  V30 2687 H 253.487 4.43587 -4.19599 0
M  V30 2688 H 254.901 2.40128 -5.20587 0
M  V30 2689 H 253.298 1.8031 -5.72371 0
M  V30 2690 H 254.368 0.739876 -4.79222 0
M  V30 2691 N 255.711 1.52812 0.385517 0
M  V30 2692 C 256.96 1.67249 1.12741 0
M  V30 2693 C 257.273 0.4205 1.91027 0
M  V30 2694 O 258.479 0.445064 2.67827 0
M  V30 2695 C 256.935 2.95583 2.05326 0
M  V30 2696 C 256.543 4.27974 1.32447 0
M  V30 2697 C 258.287 3.19386 2.7963 0
M  V30 2698 C 256.194 5.47412 2.23818 0
M  V30 2699 H 255.124 0.6231 0.424573 0
M  V30 2700 H 257.775 1.79309 0.389924 0
M  V30 2701 H 256.157 2.77277 2.82725 0
M  V30 2702 H 257.331 4.56844 0.602495 0
M  V30 2703 H 255.646 4.10459 0.700885 0
M  V30 2704 H 258.243 4.05801 3.48181 0
M  V30 2705 H 258.586 2.34604 3.43899 0
M  V30 2706 H 259.119 3.38274 2.09322 0
M  V30 2707 H 255.858 6.34612 1.64157 0
M  V30 2708 H 255.378 5.22849 2.93921 0
M  V30 2709 H 257.057 5.81423 2.83824 0
M  V30 2710 N 257.189 -0.644168 1.43834 0
M  V30 2711 C 258.435 -1.40603 1.46146 0
M  V30 2712 C 258.768 -1.93997 0.0887717 0
M  V30 2713 O 258.043 -1.72854 -0.891724 0
M  V30 2714 C 258.326 -2.58086 2.51124 0
M  V30 2715 C 258.179 -2.10126 3.97702 0
M  V30 2716 C 259.498 -3.60291 2.52742 0
M  V30 2717 H 256.617 -0.509905 0.532134 0
M  V30 2718 H 259.259 -0.729502 1.75437 0
M  V30 2719 H 257.409 -3.15801 2.26278 0
M  V30 2720 H 259.081 -1.57342 4.33637 0
M  V30 2721 H 257.324 -1.41419 4.10101 0
M  V30 2722 H 257.995 -2.94649 4.66783 0
M  V30 2723 H 260.471 -3.12352 2.7491 0
M  V30 2724 H 259.347 -4.40032 3.28121 0
M  V30 2725 H 259.608 -4.1349 1.56455 0
M  V30 2726 N 258.668 -1.30515 -0.883378 0
M  V30 2727 C 259.598 -1.19607 -2.00541 0
M  V30 2728 C 260.579 -0.086346 -1.69881 0
M  V30 2729 O 261.764 -0.268654 -1.92333 0
M  V30 2730 C 258.894 -0.888758 -3.35736 0
M  V30 2731 C 257.848 -1.95659 -3.8066 0
M  V30 2732 C 257.174 -1.50224 -5.13164 0
M  V30 2733 C 258.474 -3.36788 -3.99213 0
M  V30 2734 H 260.168 -2.13476 -2.09925 0
M  V30 2735 H 257.714 -1.02775 -1.00863 0
M  V30 2736 H 259.667 -0.799094 -4.13754 0
M  V30 2737 H 258.391 0.0856125 -3.26488 0
M  V30 2738 H 257.05 -2.03591 -3.04871 0
M  V30 2739 H 256.698 -0.516092 -5.00345 0
M  V30 2740 H 256.398 -2.2165 -5.44192 0
M  V30 2741 H 257.922 -1.42639 -5.93706 0
M  V30 2742 H 259.336 -3.31605 -4.67665 0
M  V30 2743 H 257.733 -4.06314 -4.41621 0
M  V30 2744 H 258.803 -3.78561 -3.03017 0
M  V30 2745 N 260.146 1.09593 -1.13257 0
M  V30 2746 C 261.392 1.82003 -0.89458 0
M  V30 2747 C 261.725 1.85402 0.577906 0
M  V30 2748 O 261 1.32099 1.42759 0
M  V30 2749 C 261.283 3.28237 -1.48096 0
M  V30 2750 C 261.136 3.3312 -3.02244 0
M  V30 2751 C 262.455 4.24871 -1.14774 0
M  V30 2752 H 259.574 0.66077 -0.326424 0
M  V30 2753 H 262.216 1.28389 -1.40058 0
M  V30 2754 H 260.366 3.74024 -1.05062 0
M  V30 2755 H 262.038 2.95748 -3.54021 0
M  V30 2756 H 260.281 2.72756 -3.37323 0
M  V30 2757 H 260.952 4.3613 -3.38371 0
M  V30 2758 H 263.428 3.87361 -1.51957 0
M  V30 2759 H 262.304 5.25532 -1.58452 0
M  V30 2760 H 262.565 4.42058 -0.0611849 0
M  V30 2761 N 261.624 0.925811 1.2754 0
M  V30 2762 C 263.04 0.625767 1.46821 0
M  V30 2763 C 263.24 -0.825506 1.83814 0
M  V30 2764 O 262.296 -1.60356 1.95044 0
M  V30 2765 C 263.609 1.57402 2.56213 0
M  V30 2766 C 265.157 1.58204 2.70075 0
M  V30 2767 C 265.632 2.51721 3.82623 0
M  V30 2768 N 267.123 2.49917 3.89994 0
M  V30 2769 C 267.858 3.18968 4.76494 0
M  V30 2770 N 267.354 3.97391 5.67496 0
M  V30 2771 N 269.147 3.07996 4.70208 0
M  V30 2772 H 261.298 1.86409 1.01811 0
M  V30 2773 H 263.561 0.800213 0.508295 0
M  V30 2774 H 263.267 2.60925 2.35819 0
M  V30 2775 H 263.141 1.31428 3.53563 0
M  V30 2776 H 265.528 0.554124 2.89851 0
M  V30 2777 H 265.609 1.88226 1.73218 0
M  V30 2778 H 265.253 3.54622 3.63601 0
M  V30 2779 H 265.183 2.18996 4.78903 0
M  V30 2780 H 267.674 1.9296 3.24923 0
M  V30 2781 H 267.987 4.4707 6.30356 0
M  V30 2782 H 266.332 4.01495 5.67298 0
M  V30 2783 H 269.523 2.46223 3.9811 0
M  V30 2784 H 269.696 3.6208 5.37403 0
M  V30 2785 N 263.102 -1.41638 0.69111 0
M  V30 2786 C 264.379 -1.95036 0.148421 0
M  V30 2787 C 264.759 -1.63072 -1.34055 0
M  V30 2788 O 264.107 -0.93538 -2.08478 0
M  V30 2789 C 264.317 -3.46279 0.434951 0
M  V30 2790 C 265.665 -4.23069 0.360275 0
M  V30 2791 O 266.689 -3.54277 0.369613 0
M  V30 2792 O 265.548 -5.45583 0.316534 0
M  V30 2793 H 262.642 -0.826908 0.0123654 0
M  V30 2794 H 265.188 -1.5138 0.766963 0
M  V30 2795 H 263.96 -3.6281 1.46576 0
M  V30 2796 H 263.583 -3.97019 -0.214787 0
M  V30 2797 N 264.58 -0.43555 -1.51462 0
M  V30 2798 C 265.543 0.365137 -2.26273 0
M  V30 2799 C 266.543 0.951227 -1.29647 0
M  V30 2800 O 267.733 0.825958 -1.53374 0
M  V30 2801 C 264.865 1.51645 -3.05314 0
M  V30 2802 H 266.058 -0.290474 -2.9849 0
M  V30 2803 H 263.611 -0.188676 -1.55157 0
M  V30 2804 H 264.346 2.20816 -2.3751 0
M  V30 2805 H 264.131 1.10238 -3.76284 0
M  V30 2806 H 265.621 2.08218 -3.61987 0
M  V30 2807 N 266.058 1.56714 -0.166846 0
M  V30 2808 C 267.005 2.17746 0.765193 0
M  V30 2809 C 267.975 1.11614 1.23011 0
M  V30 2810 O 269.16 1.39745 1.29908 0
M  V30 2811 C 266.3 2.81882 1.9909 0
M  V30 2812 C 265.413 4.02462 1.56997 0
M  V30 2813 C 264.548 4.54537 2.749 0
M  V30 2814 C 263.587 5.67538 2.29275 0
M  V30 2815 N 262.724 6.14142 3.40255 0
M  V30 2816 H 267.564 2.97048 0.237952 0
M  V30 2817 H 265.101 1.4672 0.105725 0
M  V30 2818 H 267.059 3.17221 2.70974 0
M  V30 2819 H 265.689 2.05191 2.49192 0
M  V30 2820 H 264.741 3.72973 0.748037 0
M  V30 2821 H 266.053 4.84273 1.19503 0
M  V30 2822 H 265.207 4.92035 3.54946 0
M  V30 2823 H 263.946 3.71774 3.1565 0
M  V30 2824 H 262.951 5.29597 1.47674 0
M  V30 2825 H 264.176 6.52099 1.89588 0
M  V30 2826 H 262.122 5.3431 3.8059 0
M  V30 2827 H 262.039 6.9093 3.06841 0
M  V30 2828 H 263.307 6.56289 4.206 0
M  V30 2829 N 267.536 -0.106894 1.57237 0
M  V30 2830 C 268.484 -1.14944 2.02215 0
M  V30 2831 C 269.478 -1.42167 0.92114 0
M  V30 2832 O 270.684 -1.41987 1.10634 0
M  V30 2833 H 267.059 -0.387841 0.64427 0
M  V30 2834 H 269.03 -0.743683 2.88984 0
M  V30 2835 C 267.779 -2.4647 2.4525 0
M  V30 2836 H 267.102 -2.26363 3.29545 0
M  V30 2837 H 268.542 -3.17948 2.80508 0
M  V30 2838 C 267.001 -3.09921 1.321 0
M  V30 2839 O 267.531 -3.9651 0.643622 0
M  V30 2840 N 265.737 -2.69986 1.07497 0
M  V30 2841 H 265.284 -1.99667 1.62761 0
M  V30 2842 H 265.242 -3.12769 0.319876 0
M  V30 2843 N 269.014 -1.53014 -0.377408 0
M  V30 2844 C 269.944 -1.81589 -1.46791 0
M  V30 2845 C 270.925 -0.668622 -1.56408 0
M  V30 2846 O 272.11 -0.917337 -1.71168 0
M  V30 2847 C 269.24 -1.99519 -2.8427 0
M  V30 2848 C 268.194 -3.15249 -2.89486 0
M  V30 2849 C 267.52 -3.18451 -4.29527 0
M  V30 2850 C 268.82 -4.54084 -2.58079 0
M  V30 2851 H 270.514 -2.7291 -1.23127 0
M  V30 2852 H 268.06 -1.31319 -0.590883 0
M  V30 2853 H 270.013 -2.18092 -3.60575 0
M  V30 2854 H 268.737 -1.04897 -3.09296 0
M  V30 2855 H 267.396 -2.96477 -2.15631 0
M  V30 2856 H 267.044 -2.2149 -4.5161 0
M  V30 2857 H 266.744 -3.962 -4.33934 0
M  V30 2858 H 268.268 -3.39193 -5.07721 0
M  V30 2859 H 269.682 -4.72899 -3.24098 0
M  V30 2860 H 268.079 -5.33987 -2.7382 0
M  V30 2861 H 269.149 -4.60006 -1.53372 0
M  V30 2862 N 270.492 0.636531 -1.44174 0
M  V30 2863 C 271.738 1.39826 -1.4689 0
M  V30 2864 C 272.071 1.93947 -0.0990585 0
M  V30 2865 O 271.346 1.73325 0.882544 0
M  V30 2866 C 271.629 2.56751 -2.5249 0
M  V30 2867 C 271.482 2.08014 -3.98811 0
M  V30 2868 C 272.801 3.58946 -2.54649 0
M  V30 2869 H 269.92 0.507075 -0.53483 0
M  V30 2870 H 272.562 0.720188 -1.75822 0
M  V30 2871 H 270.712 3.14597 -2.2795 0
M  V30 2872 H 272.384 1.5504 -4.34466 0
M  V30 2873 H 270.627 1.39242 -4.10846 0
M  V30 2874 H 271.298 2.92169 -4.68339 0
M  V30 2875 H 273.774 3.1089 -2.76563 0
M  V30 2876 H 272.65 4.38286 -3.3045 0
M  V30 2877 H 272.911 4.12655 -1.58646 0
M  V30 2878 N 271.97 1.30982 0.876444 0
M  V30 2879 C 273.381 1.18277 1.44456 0
M  V30 2880 C 273.732 -0.213265 1.95037 0
M  V30 2881 O 272.857 -1.11057 1.85729 0
M  V30 2882 C 273.452 2.1411 2.62569 0
M  V30 2883 C 272.011 2.05358 3.15444 0
M  V30 2884 C 271.158 2.03706 1.88146 0
M  V30 2885 H 274.109 1.43127 0.685584 0
M  V30 2886 H 274.13 1.72692 3.39054 0
M  V30 2887 H 273.642 3.15706 2.25724 0
M  V30 2888 H 271.743 1.06934 3.56926 0
M  V30 2889 H 271.856 2.94156 3.78166 0
M  V30 2890 H 270.22 1.48629 2.06837 0
M  V30 2891 H 271.003 3.07047 1.53547 0
M  V30 2892 N 273.449 -1.08991 1.13837 0
M  V30 2893 C 274.382 -2.15049 0.763477 0
M  V30 2894 C 275.36 -1.60629 -0.252398 0
M  V30 2895 O 276.544 -1.87958 -0.142853 0
M  V30 2896 C 273.671 -3.38441 0.132545 0
M  V30 2897 C 272.717 -4.11596 1.11763 0
M  V30 2898 S 273.55 -4.6521 2.65216 0
M  V30 2899 C 274.706 -5.91896 2.03495 0
M  V30 2900 H 274.939 -2.46518 1.66182 0
M  V30 2901 H 272.472 -1.21008 0.958976 0
M  V30 2902 H 274.43 -4.09883 -0.225074 0
M  V30 2903 H 273.091 -3.05182 -0.743135 0
M  V30 2904 H 272.284 -5.00121 0.624076 0
M  V30 2905 H 271.886 -3.46038 1.41894 0
M  V30 2906 H 274.178 -6.63156 1.38675 0
M  V30 2907 H 275.121 -6.45938 2.9012 0
M  V30 2908 H 275.529 -5.44625 1.48471 0
M  V30 2909 N 274.927 -0.932562 -1.27047 0
M  V30 2910 C 276.204 -0.49377 -1.89265 0
M  V30 2911 C 276.584 1.02833 -1.8436 0
M  V30 2912 O 275.932 1.88461 -1.29209 0
M  V30 2913 C 276.142 -1.04536 -3.32976 0
M  V30 2914 C 277.49 -1.10879 -4.09867 0
M  V30 2915 O 278.514 -0.995327 -3.42011 0
M  V30 2916 O 277.373 -1.28417 -5.31198 0
M  V30 2917 H 274.467 -0.159596 -0.811454 0
M  V30 2918 H 277.013 -1.02457 -1.3528 0
M  V30 2919 H 275.785 -2.08913 -3.30864 0
M  V30 2920 H 275.408 -0.496494 -3.94488 0
M  V30 2921 N 276.405 1.4127 -0.698611 0
M  V30 2922 C 277.816 1.84187 -0.305289 0
M  V30 2923 C 278.167 1.58449 1.15708 0
M  V30 2924 O 277.292 1.05651 1.88856 0
M  V30 2925 C 277.887 3.3435 -0.547314 0
M  V30 2926 C 276.446 3.75826 -0.207878 0
M  V30 2927 C 275.593 2.64647 -0.828099 0
M  V30 2928 H 278.544 1.30778 -0.89904 0
M  V30 2929 H 278.565 3.8001 0.192998 0
M  V30 2930 H 278.077 3.53051 -1.61172 0
M  V30 2931 H 276.178 3.62725 0.852143 0
M  V30 2932 H 276.291 4.74462 -0.665021 0
M  V30 2933 H 274.655 2.53395 -0.257458 0
M  V30 2934 H 275.438 2.86165 -1.89643 0
M  V30 2935 N 277.883 0.443576 1.51229 0
M  V30 2936 C 278.831 -0.37904 2.29491 0
M  V30 2937 C 279.825 -1.0153 1.35603 0
M  V30 2938 O 281.031 -0.94955 1.52917 0
M  V30 2939 H 277.406 -0.141053 0.738653 0
M  V30 2940 H 279.377 0.301799 2.9687 0
M  V30 2941 C 278.126 -1.46426 3.15364 0
M  V30 2942 H 277.449 -0.984037 3.87501 0
M  V30 2943 H 278.889 -2.01297 3.7317 0
M  V30 2944 C 277.348 -2.45099 2.31146 0
M  V30 2945 O 277.878 -3.49773 1.9754 0
M  V30 2946 N 276.084 -2.16139 1.94249 0
M  V30 2947 H 275.631 -1.31044 2.21777 0
M  V30 2948 H 275.589 -2.82398 1.38198 0
M  V30 2949 N 279.361 -1.56624 0.175154 0
M  V30 2950 C 280.609 -1.96609 -0.467885 0
M  V30 2951 C 280.93 -1.06238 -1.63519 0
M  V30 2952 O 280.2 -0.129523 -1.95471 0
M  V30 2953 H 278.78 -0.726008 -0.175845 0
M  V30 2954 H 281.442 -1.93195 0.257234 0
M  V30 2955 H 280.538 -3.00989 -0.825342 0
M  V30 2956 N 280.839 0.0985539 -1.57292 0
M  V30 2957 C 281.769 1.12064 -2.04851 0
M  V30 2958 C 282.75 1.41981 -0.936767 0
M  V30 2959 O 283.935 1.52071 -1.20781 0
M  V30 2960 C 281.065 2.44144 -2.47004 0
M  V30 2961 C 280.019 2.28643 -3.6181 0
M  V30 2962 C 279.345 3.65869 -3.89929 0
M  V30 2963 C 280.645 1.72986 -4.92822 0
M  V30 2964 H 282.339 0.724979 -2.9049 0
M  V30 2965 H 279.885 0.34729 -1.39749 0
M  V30 2966 H 281.838 3.15914 -2.78884 0
M  V30 2967 H 280.562 2.85639 -1.5836 0
M  V30 2968 H 279.221 1.59318 -3.30172 0
M  V30 2969 H 278.869 4.04885 -2.98458 0
M  V30 2970 H 278.569 3.56344 -4.67218 0
M  V30 2971 H 280.093 4.39112 -4.2428 0
M  V30 2972 H 281.507 2.34593 -5.23105 0
M  V30 2973 H 279.904 1.74229 -5.74251 0
M  V30 2974 H 280.974 0.689007 -4.7998 0
M  V30 2975 N 282.317 1.53212 0.369288 0
M  V30 2976 C 283.542 1.73423 1.1375 0
M  V30 2977 C 283.967 0.460404 1.82378 0
M  V30 2978 O 283.325 -0.585298 1.71592 0
M  V30 2979 C 283.373 2.89769 2.1463 0
M  V30 2980 O 282.477 2.58119 3.21634 0
M  V30 2981 H 281.818 0.576061 0.330227 0
M  V30 2982 H 284.348 2.00083 0.427547 0
M  V30 2983 H 284.358 3.15829 2.58294 0
M  V30 2984 H 283.033 3.8217 1.64071 0
M  V30 2985 H 281.61 2.42864 2.82969 0
M  V30 2986 N 283.795 -0.628877 1.44509 0
M  V30 2987 C 285.072 -1.38733 1.37886 0
M  V30 2988 C 285.452 -2.11065 0.0387008 0
M  V30 2989 O 284.8 -2.06476 -0.97878 0
M  V30 2990 C 285.01 -2.35188 2.57852 0
M  V30 2991 C 286.358 -2.9845 3.02014 0
M  V30 2992 O 287.382 -2.45513 2.58073 0
M  V30 2993 O 286.241 -3.94487 3.78209 0
M  V30 2994 H 283.335 -0.621015 0.54614 0
M  V30 2995 H 285.881 -0.653744 1.56602 0
M  V30 2996 H 284.653 -1.80855 3.46998 0
M  V30 2997 H 284.276 -3.1596 2.4136 0
M  V30 2998 N 285.273 -1.31445 -0.869486 0
M  V30 2999 C 286.684 -1.19042 -1.43826 0
M  V30 3000 C 287.035 0.202919 -1.95148 0
M  V30 3001 O 286.16 1.10071 -1.86315 0
M  V30 3002 C 286.755 -2.15499 -2.6143 0
M  V30 3003 C 285.314 -2.07028 -3.14351 0
M  V30 3004 C 284.461 -2.04701 -1.87063 0
M  V30 3005 H 287.412 -1.43489 -0.677984 0
M  V30 3006 H 287.433 -1.74488 -3.38134 0
M  V30 3007 H 286.945 -3.16899 -2.24046 0
M  V30 3008 H 285.046 -1.08825 -3.56354 0
M  V30 3009 H 285.159 -2.96157 -3.766 0
M  V30 3010 H 283.523 -1.49724 -2.06046 0
M  V30 3011 H 284.306 -3.07857 -1.51917 0
M  V30 3012 N 286.751 1.08385 -1.14413 0
M  V30 3013 C 287.981 1.8425 -0.934644 0
M  V30 3014 C 288.389 1.81907 0.520234 0
M  V30 3015 O 287.732 1.22126 1.37226 0
M  V30 3016 C 287.794 3.32853 -1.35828 0
M  V30 3017 C 287.458 3.5893 -2.82875 0
M  V30 3018 C 288.455 3.53756 -3.80989 0
M  V30 3019 C 286.14 3.86934 -3.20293 0
M  V30 3020 C 288.134 3.76216 -5.14529 0
M  V30 3021 C 285.821 4.09047 -4.54008 0
M  V30 3022 C 286.819 4.03682 -5.50936 0
M  V30 3023 O 286.507 4.25214 -6.82238 0
M  V30 3024 H 286.239 0.588502 -0.332628 0
M  V30 3025 H 288.793 1.37792 -1.52324 0
M  V30 3026 H 287.023 3.8007 -0.713019 0
M  V30 3027 H 288.712 3.90154 -1.11957 0
M  V30 3028 H 289.478 3.32135 -3.53428 0
M  V30 3029 H 285.357 3.9023 -2.45442 0
M  V30 3030 H 288.901 3.71943 -5.90173 0
M  V30 3031 H 284.798 4.30151 -4.8129 0
M  V30 3032 H 285.566 4.42619 -6.88499 0
M  V30 3033 N 288.23 0.939286 1.26551 0
M  V30 3034 C 289.476 0.586715 1.94128 0
M  V30 3035 C 289.809 -0.8717 1.73537 0
M  V30 3036 O 289.084 -1.62339 1.07127 0
M  V30 3037 C 289.367 0.927497 3.4795 0
M  V30 3038 C 289.22 2.44052 3.77834 0
M  V30 3039 C 290.539 0.441569 4.37879 0
M  V30 3040 H 287.658 0.21463 0.705055 0
M  V30 3041 H 290.3 1.17316 1.49455 0
M  V30 3042 H 288.45 0.428431 3.8613 0
M  V30 3043 H 290.122 3.01216 3.4938 0
M  V30 3044 H 288.365 2.8848 3.23978 0
M  V30 3045 H 289.036 2.62947 4.85348 0
M  V30 3046 H 291.512 0.869448 4.06915 0
M  V30 3047 H 290.388 0.708856 5.44304 0
M  V30 3048 H 290.649 -0.658467 4.37169 0
M  V30 3049 N 289.708 -1.40897 0.706093 0
M  V30 3050 C 290.655 -2.30751 0.0474474 0
M  V30 3051 C 291.625 -1.47678 -0.76029 0
M  V30 3052 O 292.81 -1.76441 -0.726177 0
M  V30 3053 C 289.95 -3.33815 -0.875309 0
M  V30 3054 C 289.063 -4.31961 -0.0580623 0
M  V30 3055 C 288.198 -5.22093 -0.979425 0
M  V30 3056 C 287.237 -6.11902 -0.155706 0
M  V30 3057 N 286.374 -6.94482 -1.03144 0
M  V30 3058 H 291.214 -2.86513 0.819413 0
M  V30 3059 H 288.751 -1.41102 0.415783 0
M  V30 3060 H 290.709 -3.92129 -1.42446 0
M  V30 3061 H 289.339 -2.79579 -1.61356 0
M  V30 3062 H 288.391 -3.75507 0.608147 0
M  V30 3063 H 289.703 -4.95415 0.580082 0
M  V30 3064 H 288.857 -5.85292 -1.59744 0
M  V30 3065 H 287.596 -4.5889 -1.65141 0
M  V30 3066 H 286.601 -5.47742 0.475309 0
M  V30 3067 H 287.826 -6.77162 0.512635 0
M  V30 3068 H 285.772 -6.33877 -1.68924 0
M  V30 3069 H 285.689 -7.54665 -0.449108 0
M  V30 3070 H 286.957 -7.6214 -1.63593 0
M  V30 3071 N 291.186 -0.45159 -1.50991 0
M  V30 3072 C 292.116 0.342898 -2.30969 0
M  V30 3073 C 293.097 1.00815 -1.37005 0
M  V30 3074 O 294.282 1.00907 -1.65926 0
M  V30 3075 C 291.412 1.43637 -3.16205 0
M  V30 3076 C 290.366 0.893818 -4.18563 0
M  V30 3077 C 289.692 2.08411 -4.92411 0
M  V30 3078 C 290.992 -0.0815568 -5.22236 0
M  V30 3079 H 292.686 -0.324556 -2.97636 0
M  V30 3080 H 290.232 -0.157531 -1.43136 0
M  V30 3081 H 292.185 1.9995 -3.70942 0
M  V30 3082 H 290.909 2.13232 -2.47386 0
M  V30 3083 H 289.568 0.352798 -3.64898 0
M  V30 3084 H 289.216 2.76658 -4.20082 0
M  V30 3085 H 288.916 1.72741 -5.61636 0
M  V30 3086 H 290.44 2.65251 -5.49976 0
M  V30 3087 H 291.854 0.391742 -5.7196 0
M  V30 3088 H 290.251 -0.351551 -5.99069 0
M  V30 3089 H 291.321 -1.01374 -4.74185 0
M  V30 3090 N 292.664 1.56529 -0.183458 0
M  V30 3091 C 293.611 2.18546 0.742055 0
M  V30 3092 C 294.581 1.12912 1.2182 0
M  V30 3093 O 295.766 1.41115 1.28418 0
M  V30 3094 C 292.906 2.83977 1.96089 0
M  V30 3095 C 292.019 4.04105 1.52719 0
M  V30 3096 C 291.154 4.57427 2.70063 0
M  V30 3097 C 290.193 5.69938 2.23243 0
M  V30 3098 N 289.33 6.17717 3.33722 0
M  V30 3099 H 294.17 2.97284 0.206432 0
M  V30 3100 H 291.707 1.46823 0.0901571 0
M  V30 3101 H 293.665 3.20077 2.67594 0
M  V30 3102 H 292.295 2.07822 2.47002 0
M  V30 3103 H 291.347 3.73745 0.708436 0
M  V30 3104 H 292.659 4.85513 1.1436 0
M  V30 3105 H 291.813 4.95772 3.49708 0
M  V30 3106 H 290.552 3.75101 3.11689 0
M  V30 3107 H 289.557 5.31133 1.42048 0
M  V30 3108 H 290.782 6.54073 1.82661 0
M  V30 3109 H 288.728 5.38317 3.74902 0
M  V30 3110 H 288.645 6.94146 2.99495 0
M  V30 3111 H 289.913 6.60713 4.13616 0
M  V30 3112 N 294.142 -0.090211 1.57342 0
M  V30 3113 C 295.072 -1.10976 2.05443 0
M  V30 3114 C 296.053 -1.41482 0.944284 0
M  V30 3115 O 297.238 -1.51428 1.21586 0
M  V30 3116 C 294.368 -2.42831 2.48295 0
M  V30 3117 C 293.322 -2.26721 3.63018 0
M  V30 3118 C 292.648 -3.63796 3.91863 0
M  V30 3119 C 293.948 -1.7037 4.93732 0
M  V30 3120 H 295.642 -0.709564 2.9087 0
M  V30 3121 H 293.188 -0.339874 1.39932 0
M  V30 3122 H 295.141 -3.14431 2.80555 0
M  V30 3123 H 293.865 -2.84795 1.59873 0
M  V30 3124 H 292.524 -1.57565 3.31012 0
M  V30 3125 H 292.172 -4.03297 3.00601 0
M  V30 3126 H 291.872 -3.53861 4.69101 0
M  V30 3127 H 293.396 -4.36855 4.26603 0
M  V30 3128 H 294.81 -2.31816 5.24342 0
M  V30 3129 H 293.207 -1.71181 5.75167 0
M  V30 3130 H 294.277 -0.663542 4.80339 0
M  V30 3131 N 295.62 -1.53406 -0.361157 0
M  V30 3132 C 296.869 -1.69022 -1.10066 0
M  V30 3133 C 297.182 -0.450838 -1.90333 0
M  V30 3134 O 298.388 -0.487617 -2.67085 0
M  V30 3135 C 296.844 -2.98812 -2.00598 0
M  V30 3136 C 296.452 -4.30027 -1.25621 0
M  V30 3137 C 298.196 -3.23795 -2.74513 0
M  V30 3138 C 296.103 -5.50903 -2.1508 0
M  V30 3139 H 295.033 -0.629776 -0.414606 0
M  V30 3140 H 297.684 -1.79907 -0.361348 0
M  V30 3141 H 296.066 -2.8174 -2.78278 0
M  V30 3142 H 297.24 -4.57745 -0.529739 0
M  V30 3143 H 295.555 -4.11522 -0.635496 0
M  V30 3144 H 298.152 -4.11289 -3.41681 0
M  V30 3145 H 298.495 -2.40045 -3.40123 0
M  V30 3146 H 299.028 -3.41561 -2.03914 0
M  V30 3147 H 295.767 -6.37143 -1.54041 0
M  V30 3148 H 295.287 -5.27459 -2.85565 0
M  V30 3149 H 296.966 -5.85865 -2.74538 0
M  V30 3150 N 297.098 0.621204 -1.44841 0
M  V30 3151 C 298.509 1.20298 -1.42777 0
M  V30 3152 C 298.86 1.95639 -0.148259 0
M  V30 3153 O 297.985 2.02955 0.750892 0
M  V30 3154 C 298.58 2.1882 -2.58657 0
M  V30 3155 C 297.139 2.72403 -2.59756 0
M  V30 3156 C 296.286 1.4757 -2.34773 0
M  V30 3157 H 299.237 0.411297 -1.53278 0
M  V30 3158 H 299.258 3.01607 -2.31977 0
M  V30 3159 H 298.77 1.63957 -3.51766 0
M  V30 3160 H 296.871 3.31242 -1.70615 0
M  V30 3161 H 296.984 3.17765 -3.58556 0
M  V30 3162 H 295.348 1.76051 -1.8406 0
M  V30 3163 H 296.131 0.945954 -3.3001 0
M  V30 3164 N 298.576 1.31904 0.862503 0
M  V30 3165 C 299.853 1.12644 1.59908 0
M  V30 3166 C 300.233 -0.316104 2.0872 0
M  V30 3167 O 299.581 -1.31145 1.87118 0
M  V30 3168 C 299.791 2.1472 2.7513 0
M  V30 3169 C 301.139 2.47637 3.44907 0
M  V30 3170 O 302.163 2.13205 2.85346 0
M  V30 3171 O 301.022 3.06632 4.52371 0
M  V30 3172 H 298.116 0.43416 0.703871 0
M  V30 3173 H 300.662 1.43408 0.907314 0
M  V30 3174 H 299.434 3.1172 2.3653 0
M  V30 3175 H 299.057 1.84905 3.51989 0
M  V30 3176 N 300.054 -1.07777 1.14986 0
M  V30 3177 C 301.465 -1.61766 0.932127 0
M  V30 3178 C 301.816 -1.88974 -0.527581 0
M  V30 3179 O 300.941 -1.65198 -1.39781 0
M  V30 3180 C 301.536 -2.93891 1.68563 0
M  V30 3181 C 300.095 -3.44639 1.5133 0
M  V30 3182 C 299.242 -2.18767 1.704 0
M  V30 3183 H 302.193 -0.909201 1.30074 0
M  V30 3184 H 302.214 -3.62623 1.15259 0
M  V30 3185 H 301.726 -2.74057 2.74799 0
M  V30 3186 H 299.827 -3.69564 0.474702 0
M  V30 3187 H 299.94 -4.20966 2.28746 0
M  V30 3188 H 298.304 -2.28253 1.13016 0
M  V30 3189 H 299.087 -2.01433 2.77992 0
M  V30 3190 N 301.532 -0.945985 -1.26051 0
M  V30 3191 C 302.479 -0.45809 -2.26208 0
M  V30 3192 C 303.449 0.484816 -1.58867 0
M  V30 3193 O 304.634 0.399969 -1.86561 0
M  V30 3194 C 301.774 0.266131 -3.44072 0
M  V30 3195 C 300.887 -0.713005 -4.26075 0
M  V30 3196 C 300.022 0.0329013 -5.3119 0
M  V30 3197 C 299.061 -0.93774 -6.04874 0
M  V30 3198 N 298.198 -0.223274 -7.01745 0
M  V30 3199 H 303.038 -1.3171 -2.67313 0
M  V30 3200 H 300.575 -0.66069 -1.31428 0
M  V30 3201 H 302.533 0.702514 -4.11243 0
M  V30 3202 H 301.163 1.08925 -3.03867 0
M  V30 3203 H 300.215 -1.26789 -3.58648 0
M  V30 3204 H 301.527 -1.45406 -4.77136 0
M  V30 3205 H 300.681 0.528335 -6.04395 0
M  V30 3206 H 299.42 0.806801 -4.8098 0
M  V30 3207 H 298.425 -1.44425 -5.30492 0
M  V30 3208 H 299.65 -1.71172 -6.57173 0
M  V30 3209 H 297.596 0.532046 -6.53839 0
M  V30 3210 H 297.513 -0.90357 -7.50581 0
M  V30 3211 H 298.781 0.250907 -7.79096 0
M  V30 3212 N 303.011 1.40521 -0.713556 0
M  V30 3213 C 304.236 2.05759 -0.26035 0
M  V30 3214 C 304.661 1.53403 1.08854 0
M  V30 3215 O 304.019 0.668535 1.68524 0
M  V30 3216 C 304.067 3.59745 -0.248122 0
M  V30 3217 O 303.171 4.05123 0.77131 0
M  V30 3218 H 302.512 0.652564 -0.122703 0
M  V30 3219 H 305.042 1.79958 -0.973467 0
M  V30 3220 H 305.052 4.07911 -0.0851129 0
M  V30 3221 H 303.727 3.97218 -1.2325 0
M  V30 3222 H 302.304 3.68422 0.57619 0
M  V30 3223 N 304.489 0.459591 1.5075 0
M  V30 3224 C 305.399 -0.34613 2.32033 0
M  V30 3225 C 306.415 -1.00686 1.41909 0
M  V30 3226 O 307.591 -0.997361 1.7497 0
M  V30 3227 C 304.656 -1.42029 3.16273 0
M  V30 3228 C 303.717 -0.777362 4.22203 0
M  V30 3229 C 302.95 -1.80034 5.02418 0
M  V30 3230 O 303.173 -3.02544 4.83553 0
M  V30 3231 O 302.107 -1.37853 5.85901 0
M  V30 3232 H 305.933 0.318054 3.0203 0
M  V30 3233 H 303.518 0.221663 1.47746 0
M  V30 3234 H 305.4 -2.04275 3.68578 0
M  V30 3235 H 304.075 -2.06815 2.49016 0
M  V30 3236 H 302.982 -0.116256 3.73919 0
M  V30 3237 H 304.315 -0.172634 4.91897 0
M  V30 3238 N 305.967 -1.56429 0.191757 0
M  V30 3239 C 307.192 -2.02309 -0.456706 0
M  V30 3240 C 307.617 -1.07103 -1.5463 0
M  V30 3241 O 306.975 -0.0539677 -1.8122 0
M  V30 3242 C 307.023 -3.46654 -0.993159 0
M  V30 3243 O 306.127 -3.54559 -2.10622 0
M  V30 3244 H 305.468 -0.655303 -0.107114 0
M  V30 3245 H 307.998 -2.02364 0.301653 0
M  V30 3246 H 308.008 -3.86377 -1.31061 0
M  V30 3247 H 306.683 -4.1544 -0.195504 0
M  V30 3248 H 305.26 -3.26708 -1.79767 0
M  V30 3249 N 307.445 0.0818655 -1.57387 0
M  V30 3250 C 308.392 1.09834 -2.0299 0
M  V30 3251 C 309.362 1.39043 -0.908639 0
M  V30 3252 O 310.547 1.50282 -1.17559 0
M  V30 3253 C 307.687 2.40971 -2.47037 0
M  V30 3254 C 306.8 2.18379 -3.7274 0
M  V30 3255 C 305.935 3.43008 -4.0561 0
M  V30 3256 C 304.974 3.15736 -5.24383 0
M  V30 3257 N 304.111 4.32667 -5.52941 0
M  V30 3258 H 308.951 0.702472 -2.89602 0
M  V30 3259 H 306.488 0.33531 -1.43227 0
M  V30 3260 H 308.446 3.1752 -2.70623 0
M  V30 3261 H 307.076 2.78379 -1.63417 0
M  V30 3262 H 306.128 1.32569 -3.56552 0
M  V30 3263 H 307.44 1.94227 -4.59431 0
M  V30 3264 H 306.594 4.27958 -4.30043 0
M  V30 3265 H 305.333 3.70225 -3.17466 0
M  V30 3266 H 304.338 2.2918 -4.99757 0
M  V30 3267 H 305.563 2.8985 -6.14136 0
M  V30 3268 H 303.509 4.59935 -4.67756 0
M  V30 3269 H 303.426 4.11753 -6.34031 0
M  V30 3270 H 304.694 5.18644 -5.81918 0
M  V30 3271 N 308.923 1.53595 0.353017 0
M  V30 3272 C 309.855 1.77219 1.45348 0
M  V30 3273 C 310.868 0.65324 1.49119 0
M  V30 3274 O 312.057 0.929775 1.52373 0
M  V30 3275 C 309.157 1.84841 2.84055 0
M  V30 3276 C 308.33 3.14649 3.03833 0
M  V30 3277 C 307.389 3.13351 4.22727 0
M  V30 3278 O 306.415 3.87107 4.17297 0
M  V30 3279 N 307.617 2.35052 5.30783 0
M  V30 3280 H 310.382 2.72178 1.25457 0
M  V30 3281 H 307.943 1.52528 0.542833 0
M  V30 3282 H 309.935 1.81435 3.61751 0
M  V30 3283 H 308.505 0.971114 2.97133 0
M  V30 3284 H 307.725 3.31256 2.13689 0
M  V30 3285 H 309.013 4.00411 3.13925 0
M  V30 3286 H 308.411 1.74663 5.38061 0
M  V30 3287 H 306.968 2.37453 6.07009 0
M  V30 3288 N 310.401 -0.613514 1.45168 0
M  V30 3289 C 311.348 -1.72456 1.53387 0
M  V30 3290 C 312.318 -1.6169 0.380191 0
M  V30 3291 O 313.503 -1.81356 0.592836 0
M  V30 3292 C 310.643 -3.10753 1.50088 0
M  V30 3293 C 309.756 -3.32368 2.75963 0
M  V30 3294 C 308.891 -4.60737 2.64376 0
M  V30 3295 C 307.93 -4.7559 3.85332 0
M  V30 3296 N 307.067 -5.95253 3.72315 0
M  V30 3297 H 311.907 -1.64768 2.48305 0
M  V30 3298 H 309.444 -0.803503 1.23216 0
M  V30 3299 H 311.402 -3.90758 1.46164 0
M  V30 3300 H 310.032 -3.17413 0.587243 0
M  V30 3301 H 309.084 -2.4618 2.89999 0
M  V30 3302 H 310.396 -3.39218 3.65695 0
M  V30 3303 H 309.55 -5.48928 2.58385 0
M  V30 3304 H 308.289 -4.56275 1.72233 0
M  V30 3305 H 307.294 -3.85824 3.91688 0
M  V30 3306 H 308.519 -4.81854 4.78533 0
M  V30 3307 H 306.465 -5.91847 2.82937 0
M  V30 3308 H 306.382 -6.03236 4.55677 0
M  V30 3309 H 307.65 -6.85958 3.70246 0
M  V30 3310 N 311.879 -1.3236 -0.855495 0
M  V30 3311 C 313.107 -1.2587 -1.64208 0
M  V30 3312 C 313.522 0.173457 -1.88002 0
M  V30 3313 O 312.879 1.11027 -1.44842 0
M  V30 3314 C 312.93 -2.01424 -3.00184 0
M  V30 3315 O 312.651 -3.39051 -2.77445 0
M  V30 3316 C 314.152 -2.01948 -3.94629 0
M  V30 3317 H 311.372 -0.434318 -0.511477 0
M  V30 3318 H 313.916 -1.74469 -1.0668 0
M  V30 3319 H 312.071 -1.56549 -3.5436 0
M  V30 3320 H 312.485 -3.77711 -3.63916 0
M  V30 3321 H 313.959 -2.59297 -4.87308 0
M  V30 3322 H 314.436 -1.00554 -4.27534 0
M  V30 3323 H 315.042 -2.46767 -3.4639 0
M  V30 3324 N 313.357 1.07166 -1.15556 0
M  V30 3325 C 314.304 2.14417 -0.854055 0
M  V30 3326 C 315.274 1.64965 0.193806 0
M  V30 3327 O 316.459 1.90703 0.0609443 0
M  V30 3328 C 313.599 3.43304 -0.351574 0
M  V30 3329 C 312.712 4.06537 -1.46123 0
M  V30 3330 C 311.847 5.23266 -0.914677 0
M  V30 3331 C 310.886 5.78464 -2.00114 0
M  V30 3332 N 310.023 6.86521 -1.47083 0
M  V30 3333 H 314.863 2.39548 -1.77259 0
M  V30 3334 H 312.4 1.17543 -0.884425 0
M  V30 3335 H 314.358 4.17179 -0.0419409 0
M  V30 3336 H 312.988 3.18419 0.530037 0
M  V30 3337 H 312.04 3.30297 -1.88701 0
M  V30 3338 H 313.352 4.43567 -2.28144 0
M  V30 3339 H 312.506 6.04131 -0.557698 0
M  V30 3340 H 311.245 4.87658 -0.0636583 0
M  V30 3341 H 310.25 4.96243 -2.36692 0
M  V30 3342 H 311.475 6.16126 -2.85597 0
M  V30 3343 H 309.421 6.52849 -0.642198 0
M  V30 3344 H 309.338 7.22446 -2.22729 0
M  V30 3345 H 310.606 7.71087 -1.14215 0
M  V30 3346 N 314.835 0.952656 1.25548 0
M  V30 3347 C 316.063 0.623496 1.97282 0
M  V30 3348 C 316.478 -0.803987 1.70826 0
M  V30 3349 O 315.835 -1.53755 0.983147 0
M  V30 3350 C 315.886 0.870209 3.5087 0
M  V30 3351 O 315.607 2.24156 3.76412 0
M  V30 3352 C 317.108 0.553164 4.39835 0
M  V30 3353 H 314.328 0.233931 0.628902 0
M  V30 3354 H 316.872 1.27649 1.59768 0
M  V30 3355 H 315.027 0.263652 3.86502 0
M  V30 3356 H 315.441 2.31021 4.70882 0
M  V30 3357 H 316.915 0.776342 5.46513 0
M  V30 3358 H 317.392 -0.512215 4.36203 0
M  V30 3359 H 317.998 1.13896 4.09766 0
M  V30 3360 N 316.313 -1.40141 0.720998 0
M  V30 3361 C 317.562 -2.0002 0.259804 0
M  V30 3362 C 317.875 -1.57839 -1.15526 0
M  V30 3363 O 319.081 -2.10455 -1.71525 0
M  V30 3364 C 317.537 -3.57516 0.413566 0
M  V30 3365 C 317.145 -4.08667 1.83562 0
M  V30 3366 C 318.889 -4.24498 0.0134387 0
M  V30 3367 C 316.796 -5.58686 1.93968 0
M  V30 3368 H 315.726 -0.748195 0.0933806 0
M  V30 3369 H 318.377 -1.60313 0.892866 0
M  V30 3370 H 316.759 -3.9495 -0.288169 0
M  V30 3371 H 317.933 -3.82598 2.56817 0
M  V30 3372 H 316.248 -3.543 2.1877 0
M  V30 3373 H 318.845 -5.34654 0.0703954 0
M  V30 3374 H 319.188 -4.03375 -1.02927 0
M  V30 3375 H 319.721 -3.92188 0.665815 0
M  V30 3376 H 316.46 -5.8467 2.96379 0
M  V30 3377 H 315.98 -5.86602 1.25131 0
M  V30 3378 H 317.659 -6.23875 1.71431 0
M  V30 3379 N 317.792 -0.46758 -1.50504 0
M  V30 3380 C 318.739 0.328413 -2.28452 0
M  V30 3381 C 319.709 0.990313 -1.33349 0
M  V30 3382 O 320.894 1.00343 -1.62284 0
M  V30 3383 C 318.034 1.40648 -3.15138 0
M  V30 3384 C 317.147 0.759709 -4.25267 0
M  V30 3385 C 316.282 1.81537 -4.99217 0
M  V30 3386 C 315.321 1.14866 -6.01226 0
M  V30 3387 N 314.458 2.14702 -6.68467 0
M  V30 3388 H 319.298 -0.342603 -2.96024 0
M  V30 3389 H 316.835 -0.180801 -1.45985 0
M  V30 3390 H 318.793 2.04315 -3.63746 0
M  V30 3391 H 317.423 2.04671 -2.49619 0
M  V30 3392 H 316.475 0.0105671 -3.80399 0
M  V30 3393 H 317.787 0.233243 -4.98254 0
M  V30 3394 H 316.941 2.52793 -5.51526 0
M  V30 3395 H 315.68 2.37564 -4.25928 0
M  V30 3396 H 314.685 0.42171 -5.4818 0
M  V30 3397 H 315.91 0.595334 -6.76485 0
M  V30 3398 H 313.856 2.69752 -5.97972 0
M  V30 3399 H 313.773 1.6703 -7.37317 0
M  V30 3400 H 315.041 2.85348 -7.25394 0
M  V30 3401 N 319.27 1.56325 -0.20005 0
M  V30 3402 C 320.51 1.99619 0.439519 0
M  V30 3403 C 320.874 1.08423 1.58456 0
M  V30 3404 O 322.075 1.40973 2.28867 0
M  V30 3405 C 320.346 3.46314 0.883258 0
M  V30 3406 S 321.905 4.11634 1.51997 0
M  V30 3407 H 318.723 0.697007 0.140363 0
M  V30 3408 H 321.325 1.93118 -0.304282 0
M  V30 3409 H 320.029 4.10381 0.0398967 0
M  V30 3410 H 319.56 3.56643 1.6604 0
M  V30 3411 H 321.575 4.09049 2.8088 0
M  V30 3412 N 320.748 -0.0735177 1.57428 0
M  V30 3413 C 321.973 -0.789787 1.91774 0
M  V30 3414 C 322.398 -1.70413 0.796306 0
M  V30 3415 O 321.756 -1.79555 -0.250961 0
M  V30 3416 C 321.804 -1.5609 3.25067 0
M  V30 3417 O 320.908 -2.67144 3.14178 0
M  V30 3418 H 320.249 -0.215582 0.628029 0
M  V30 3419 H 322.779 -0.0422781 2.04556 0
M  V30 3420 H 322.789 -1.94052 3.58898 0
M  V30 3421 H 321.464 -0.890015 4.06265 0
M  V30 3422 H 320.041 -2.32052 2.91901 0
M  V30 3423 N 322.226 -1.5378 -0.344866 0
M  V30 3424 C 323.156 -1.84662 -1.42906 0
M  V30 3425 C 324.137 -0.701648 -1.54955 0
M  V30 3426 O 325.322 -0.953438 -1.69184 0
M  V30 3427 C 322.452 -2.05503 -2.79974 0
M  V30 3428 C 321.406 -3.21318 -2.82734 0
M  V30 3429 C 320.732 -3.2749 -4.22675 0
M  V30 3430 C 322.032 -4.59456 -2.48389 0
M  V30 3431 H 323.726 -2.75461 -1.17311 0
M  V30 3432 H 321.272 -1.32542 -0.562896 0
M  V30 3433 H 323.225 -2.25691 -3.55867 0
M  V30 3434 H 321.949 -1.11434 -3.07002 0
M  V30 3435 H 320.608 -3.00984 -2.09294 0
M  V30 3436 H 320.256 -2.31019 -4.4681 0
M  V30 3437 H 319.956 -4.05316 -4.25433 0
M  V30 3438 H 321.48 -3.49887 -5.00412 0
M  V30 3439 H 322.894 -4.79667 -3.13995 0
M  V30 3440 H 321.291 -5.39675 -2.62432 0
M  V30 3441 H 322.361 -4.63155 -1.4358 0
M  V30 3442 N 323.704 0.605807 -1.45491 0
M  V30 3443 C 324.652 1.73754 -1.54636 0
M  V30 3444 C 325.646 1.64207 -0.416219 0
M  V30 3445 O 326.852 1.69979 -0.592199 0
M  V30 3446 H 323.227 0.574073 -0.485741 0
M  V30 3447 H 325.198 1.63169 -2.49837 0
M  V30 3448 C 323.947 3.12135 -1.53189 0
M  V30 3449 H 323.27 3.20141 -2.39478 0
M  V30 3450 H 324.71 3.91147 -1.63645 0
M  V30 3451 C 323.169 3.35921 -0.256616 0
M  V30 3452 O 323.699 3.96194 0.662798 0
M  V30 3453 N 321.905 2.90204 -0.151751 0
M  V30 3454 H 321.452 2.41336 -0.90081 0
M  V30 3455 H 321.41 3.06492 0.700699 0
M  V30 3456 N 325.182 1.32811 0.848464 0
M  V30 3457 C 326.593 1.21315 1.41914 0
M  V30 3458 C 326.944 -0.171847 1.95446 0
M  V30 3459 O 326.069 -1.07093 1.88043 0
M  V30 3460 C 326.664 2.19631 2.57968 0
M  V30 3461 C 325.223 2.12003 3.11017 0
M  V30 3462 C 324.37 2.07651 1.83783 0
M  V30 3463 H 327.321 1.44549 0.655071 0
M  V30 3464 H 327.342 1.79845 3.35315 0
M  V30 3465 H 326.854 3.20423 2.18976 0
M  V30 3466 H 324.955 1.14481 3.54577 0
M  V30 3467 H 325.068 3.02111 3.71841 0
M  V30 3468 H 323.432 1.52983 2.03638 0
M  V30 3469 H 324.215 3.10235 1.47 0
M  V30 3470 N 326.66 -1.06551 1.16123 0
M  V30 3471 C 327.57 -2.17484 0.879662 0
M  V30 3472 C 328.586 -1.73377 -0.147104 0
M  V30 3473 O 329.762 -2.01379 0.0289128 0
M  V30 3474 C 326.827 -3.44591 0.381829 0
M  V30 3475 C 325.888 -4.0322 1.4735 0
M  V30 3476 C 325.121 -5.24261 0.999324 0
M  V30 3477 O 325.344 -5.70198 -0.151957 0
M  V30 3478 O 324.278 -5.74775 1.78653 0
M  V30 3479 H 328.104 -2.44075 1.80724 0
M  V30 3480 H 325.689 -1.16042 0.940992 0
M  V30 3481 H 327.571 -4.21254 0.111053 0
M  V30 3482 H 326.246 -3.19532 -0.51777 0
M  V30 3483 H 325.153 -3.2806 1.79798 0
M  V30 3484 H 326.486 -4.32568 2.34831 0
M  V30 3485 N 328.138 -0.959301 -1.25041 0
M  V30 3486 C 329.384 -0.627096 -1.93492 0
M  V30 3487 C 329.739 0.827484 -1.73696 0
M  V30 3488 O 329.032 1.58651 -1.07427 0
M  V30 3489 C 329.226 -0.927136 -3.45165 0
M  V30 3490 C 329.055 -2.40933 -3.79712 0
M  V30 3491 C 327.825 -3.0677 -4.01522 0
M  V30 3492 C 330.023 -3.38894 -3.86853 0
M  V30 3493 N 328.005 -4.44815 -4.231 0
M  V30 3494 C 329.376 -4.62263 -4.13174 0
M  V30 3495 C 331.431 -3.33668 -3.69554 0
M  V30 3496 C 330.134 -5.81052 -4.23995 0
M  V30 3497 C 332.16 -4.518 -3.81616 0
M  V30 3498 C 331.522 -5.73957 -4.08354 0
M  V30 3499 H 327.621 -0.280166 -0.73009 0
M  V30 3500 H 330.205 -1.23244 -1.50729 0
M  V30 3501 H 328.376 -0.350685 -3.86814 0
M  V30 3502 H 330.108 -0.554361 -4.00885 0
M  V30 3503 H 326.863 -2.57327 -3.97593 0
M  V30 3504 H 327.287 -5.16319 -4.37885 0
M  V30 3505 H 331.929 -2.40268 -3.47895 0
M  V30 3506 H 329.647 -6.74888 -4.44468 0
M  V30 3507 H 333.233 -4.49309 -3.69612 0
M  V30 3508 H 332.113 -6.6384 -4.17475 0
M  V30 3509 N 329.616 1.39756 -0.72842 0
M  V30 3510 C 330.564 2.32485 -0.0731849 0
M  V30 3511 C 331.558 1.52717 0.733063 0
M  V30 3512 O 332.764 1.68428 0.634988 0
M  V30 3513 H 329.139 0.751984 -0.00486469 0
M  V30 3514 H 331.11 2.85382 -0.871761 0
M  V30 3515 C 329.859 3.37773 0.824908 0
M  V30 3516 H 329.182 3.99227 0.213915 0
M  V30 3517 H 330.622 4.05121 1.25111 0
M  V30 3518 C 329.081 2.74287 1.95622 0
M  V30 3519 O 329.611 2.61618 3.04826 0
M  V30 3520 N 327.817 2.32475 1.74367 0
M  V30 3521 H 327.364 2.4298 0.855494 0
M  V30 3522 H 327.322 1.90337 2.50238 0
M  V30 3523 N 331.094 0.475555 1.50254 0
M  V30 3524 C 332.004 -0.321501 2.32387 0
M  V30 3525 C 333.02 -0.991755 1.42969 0
M  V30 3526 O 334.196 -0.978747 1.76018 0
M  V30 3527 C 331.261 -1.38667 3.17762 0
M  V30 3528 C 330.322 -0.732538 4.23004 0
M  V30 3529 C 329.555 -1.74695 5.04299 0
M  V30 3530 O 329.778 -2.97399 4.86734 0
M  V30 3531 O 328.712 -1.31631 5.8733 0
M  V30 3532 H 332.538 0.350071 3.01676 0
M  V30 3533 H 330.123 0.237321 1.47503 0
M  V30 3534 H 332.005 -2.00354 3.70724 0
M  V30 3535 H 330.68 -2.04163 2.51196 0
M  V30 3536 H 329.587 -0.0765902 3.74022 0
M  V30 3537 H 330.92 -0.120452 4.92053 0
M  V30 3538 N 332.573 -1.56217 0.208337 0
M  V30 3539 C 333.801 -2.02337 -0.43215 0
M  V30 3540 C 334.216 -1.08834 -1.54275 0
M  V30 3541 O 333.573 -0.0955462 -1.8225 0
M  V30 3542 C 333.624 -3.48072 -0.976138 0
M  V30 3543 O 333.345 -4.38007 0.0901621 0
M  V30 3544 C 334.846 -4.09773 -1.69119 0
M  V30 3545 H 332.066 -0.662385 -0.10718 0
M  V30 3546 H 334.61 -2.01966 0.320923 0
M  V30 3547 H 332.765 -3.49099 -1.67954 0
M  V30 3548 H 333.179 -5.23543 -0.316701 0
M  V30 3549 H 334.653 -5.13556 -2.02397 0
M  V30 3550 H 335.13 -3.53999 -2.59964 0
M  V30 3551 H 335.736 -4.12556 -1.03332 0
M  V30 3552 N 334.051 0.0651679 -1.57465 0
M  V30 3553 C 335.298 0.763063 -1.87573 0
M  V30 3554 C 335.626 1.77242 -0.800961 0
M  V30 3555 O 334.881 1.94651 0.202316 0
M  V30 3556 C 335.18 1.50081 -3.24362 0
M  V30 3557 C 334.846 0.630816 -4.46466 0
M  V30 3558 C 333.508 0.391082 -4.79608 0
M  V30 3559 C 335.86 0.0279465 -5.21193 0
M  V30 3560 C 333.188 -0.460894 -5.84887 0
M  V30 3561 C 335.54 -0.811522 -6.27373 0
M  V30 3562 C 334.204 -1.06106 -6.59013 0
M  V30 3563 H 333.474 0.279224 -0.686378 0
M  V30 3564 H 336.121 0.0236726 -1.91485 0
M  V30 3565 H 334.426 2.31258 -3.16271 0
M  V30 3566 H 336.123 2.04571 -3.44894 0
M  V30 3567 H 332.713 0.8278 -4.2053 0
M  V30 3568 H 336.897 0.200262 -4.95896 0
M  V30 3569 H 332.153 -0.662907 -6.07796 0
M  V30 3570 H 336.327 -1.28537 -6.84435 0
M  V30 3571 H 333.954 -1.723 -7.40417 0
M  V30 3572 N 335.529 1.53961 0.336706 0
M  V30 3573 C 336.945 1.44378 0.680241 0
M  V30 3574 C 337.145 0.606034 1.9217 0
M  V30 3575 O 336.201 0.099688 2.52303 0
M  V30 3576 C 337.514 2.87945 0.8665 0
M  V30 3577 C 339.062 2.97763 0.964682 0
M  V30 3578 C 339.537 4.42453 1.18321 0
M  V30 3579 N 341.028 4.46008 1.25025 0
M  V30 3580 C 341.763 5.55102 1.43697 0
M  V30 3581 N 341.259 6.7419 1.59498 0
M  V30 3582 N 343.052 5.42727 1.463 0
M  V30 3583 H 335.203 2.06918 -0.479455 0
M  V30 3584 H 337.466 0.935634 -0.152619 0
M  V30 3585 H 337.172 3.51691 0.0256937 0
M  V30 3586 H 337.046 3.33293 1.76623 0
M  V30 3587 H 339.433 2.34153 1.796 0
M  V30 3588 H 339.514 2.55766 0.041708 0
M  V30 3589 H 339.158 5.06645 0.356788 0
M  V30 3590 H 339.088 4.82048 2.11985 0
M  V30 3591 H 341.579 3.60196 1.14312 0
M  V30 3592 H 341.892 7.53095 1.734 0
M  V30 3593 H 340.237 6.77123 1.56621 0
M  V30 3594 H 343.428 4.48647 1.33543 0
M  V30 3595 H 343.601 6.27806 1.6051 0
M  V30 3596 N 337.007 -0.598083 1.45811 0
M  V30 3597 C 338.254 -1.35681 1.50323 0
M  V30 3598 C 338.582 -1.9393 0.148739 0
M  V30 3599 O 337.837 -1.76094 -0.853787 0
M  V30 3600 C 338.136 -2.51669 2.53766 0
M  V30 3601 C 337.802 -2.11508 3.98215 0
M  V30 3602 C 336.464 -2.0027 4.37545 0
M  V30 3603 C 338.816 -1.80308 4.89018 0
M  V30 3604 C 336.144 -1.56067 5.65562 0
M  V30 3605 C 338.496 -1.37589 6.17456 0
M  V30 3606 C 337.16 -1.24916 6.55708 0
M  V30 3607 H 336.43 -0.496492 0.550069 0
M  V30 3608 H 339.077 -0.675052 1.79207 0
M  V30 3609 H 337.382 -3.25225 2.18486 0
M  V30 3610 H 339.079 -3.09895 2.54492 0
M  V30 3611 H 335.669 -2.21185 3.67117 0
M  V30 3612 H 339.853 -1.87884 4.59362 0
M  V30 3613 H 335.109 -1.44886 5.93985 0
M  V30 3614 H 339.283 -1.12495 6.87254 0
M  V30 3615 H 336.91 -0.904386 7.54801 0
M  V30 3616 N 338.485 -1.33259 -0.841409 0
M  V30 3617 C 339.417 -1.19136 -1.95804 0
M  V30 3618 C 340.43 -0.122965 -1.62335 0
M  V30 3619 O 341.619 -0.373154 -1.74556 0
M  V30 3620 C 338.719 -0.804268 -3.29218 0
M  V30 3621 C 337.892 -1.96376 -3.90839 0
M  V30 3622 C 336.951 -1.55806 -5.02604 0
M  V30 3623 O 335.977 -2.27203 -5.21888 0
M  V30 3624 N 337.179 -0.461609 -5.78662 0
M  V30 3625 H 339.944 -2.15326 -2.08458 0
M  V30 3626 H 337.505 -1.25971 -1.017 0
M  V30 3627 H 339.497 -0.51501 -4.0141 0
M  V30 3628 H 338.067 0.0668809 -3.12528 0
M  V30 3629 H 337.287 -2.41879 -3.11269 0
M  V30 3630 H 338.575 -2.73966 -4.28742 0
M  V30 3631 H 337.973 0.132343 -5.65545 0
M  V30 3632 H 336.53 -0.232013 -6.51387 0
M  V30 3633 N 339.963 1.05934 -1.16686 0
M  V30 3634 C 340.893 2.1546 -0.899949 0
M  V30 3635 C 341.874 1.69391 0.155154 0
M  V30 3636 O 343.059 1.94199 0.00648693 0
M  V30 3637 C 340.189 3.44939 -0.404241 0
M  V30 3638 C 339.143 4.04536 -1.39767 0
M  V30 3639 C 338.469 5.29268 -0.760216 0
M  V30 3640 C 339.769 4.42893 -2.76845 0
M  V30 3641 H 341.463 2.38046 -1.81588 0
M  V30 3642 H 339.009 1.14404 -0.874514 0
M  V30 3643 H 340.962 4.20901 -0.204971 0
M  V30 3644 H 339.686 3.21983 0.547206 0
M  V30 3645 H 338.345 3.30635 -1.58355 0
M  V30 3646 H 337.993 5.02611 0.197831 0
M  V30 3647 H 337.693 5.70101 -1.42332 0
M  V30 3648 H 339.217 6.07924 -0.57105 0
M  V30 3649 H 340.631 5.09921 -2.62019 0
M  V30 3650 H 339.028 4.94721 -3.39663 0
M  V30 3651 H 340.098 3.53584 -3.31823 0
M  V30 3652 N 341.441 0.965919 1.2453 0
M  V30 3653 C 342.388 0.49402 2.25451 0
M  V30 3654 C 343.358 -0.45948 1.59618 0
M  V30 3655 O 344.543 -0.370238 1.87173 0
M  V30 3656 C 341.683 -0.211359 3.44452 0
M  V30 3657 C 340.796 0.7807 4.24887 0
M  V30 3658 C 339.931 0.0516105 5.31175 0
M  V30 3659 C 338.97 1.03385 6.03306 0
M  V30 3660 N 338.107 0.334887 7.01301 0
M  V30 3661 H 342.947 1.35946 2.65184 0
M  V30 3662 H 340.484 0.681515 1.3036 0
M  V30 3663 H 342.442 -0.637 4.12308 0
M  V30 3664 H 341.072 -1.04077 3.05562 0
M  V30 3665 H 340.124 1.32479 3.56586 0
M  V30 3666 H 341.436 1.52978 4.74762 0
M  V30 3667 H 340.59 -0.432114 6.05159 0
M  V30 3668 H 339.329 -0.730179 4.82203 0
M  V30 3669 H 338.334 1.52847 5.28127 0
M  V30 3670 H 339.559 1.81606 6.54367 0
M  V30 3671 H 337.505 -0.427959 6.54603 0
M  V30 3672 H 337.422 1.02287 7.49048 0
M  V30 3673 H 338.69 -0.126928 7.79397 0
M  V30 3674 N 342.919 -1.39368 0.735821 0
M  V30 3675 C 343.829 -2.34395 0.0979693 0
M  V30 3676 C 344.845 -1.58361 -0.720968 0
M  V30 3677 O 346.021 -1.90648 -0.649245 0
M  V30 3678 C 343.086 -3.37393 -0.797916 0
M  V30 3679 C 342.147 -4.29287 0.0333662 0
M  V30 3680 C 341.38 -5.27365 -0.819854 0
M  V30 3681 O 341.603 -5.31959 -2.05855 0
M  V30 3682 O 340.537 -6.01389 -0.248079 0
M  V30 3683 H 344.363 -2.90601 0.882315 0
M  V30 3684 H 341.948 -1.40909 0.4965 0
M  V30 3685 H 343.83 -4.00505 -1.31048 0
M  V30 3686 H 342.505 -2.83571 -1.56106 0
M  V30 3687 H 341.412 -3.69395 0.591475 0
M  V30 3688 H 342.745 -4.86317 0.758752 0
M  V30 3689 N 344.397 -0.483516 -1.5 0
M  V30 3690 C 345.622 0.0667119 -2.07293 0
M  V30 3691 C 346.047 1.3164 -1.3436 0
M  V30 3692 O 345.405 1.76945 -0.394987 0
M  V30 3693 C 345.453 0.321126 -3.59167 0
M  V30 3694 O 344.557 1.39927 -3.87936 0
M  V30 3695 H 343.898 -0.0184758 -0.663743 0
M  V30 3696 H 346.428 -0.678125 -1.93035 0
M  V30 3697 H 346.438 0.557906 -4.04168 0
M  V30 3698 H 345.113 -0.592007 -4.11665 0
M  V30 3699 H 343.69 1.14882 -3.54763 0
M  V30 3700 N 345.875 1.56104 -0.216619 0
M  V30 3701 C 347.152 1.89988 0.465165 0
M  V30 3702 C 347.532 1.13326 1.78102 0
M  V30 3703 O 346.88 0.241033 2.27225 0
M  V30 3704 C 347.09 3.42646 0.662939 0
M  V30 3705 C 348.438 4.13311 0.972602 0
M  V30 3706 O 349.462 3.48217 0.749901 0
M  V30 3707 O 348.321 5.28396 1.39499 0
M  V30 3708 H 345.415 0.78979 0.245276 0
M  V30 3709 H 347.961 1.67721 -0.258436 0
M  V30 3710 H 346.733 3.90399 -0.26543 0
M  V30 3711 H 346.356 3.70677 1.43821 0
M  V30 3712 N 347.353 -0.0568162 1.57498 0
M  V30 3713 C 348.3 -1.06591 2.04712 0
M  V30 3714 C 349.27 -1.3758 0.930644 0
M  V30 3715 O 350.455 -1.48392 1.19935 0
M  V30 3716 C 347.595 -2.3701 2.50839 0
M  V30 3717 C 346.708 -2.12421 3.76167 0
M  V30 3718 C 345.843 -3.36511 4.11015 0
M  V30 3719 C 344.882 -3.07353 5.2934 0
M  V30 3720 N 344.019 -4.23816 5.59754 0
M  V30 3721 H 348.859 -0.65631 2.90683 0
M  V30 3722 H 346.396 -0.312481 1.43743 0
M  V30 3723 H 348.354 -3.13175 2.7564 0
M  V30 3724 H 346.984 -2.75744 1.67825 0
M  V30 3725 H 346.036 -1.2688 3.58616 0
M  V30 3726 H 347.348 -1.86894 4.62463 0
M  V30 3727 H 346.502 -4.21062 4.36797 0
M  V30 3728 H 345.241 -3.65128 3.23315 0
M  V30 3729 H 344.246 -2.212 5.03339 0
M  V30 3730 H 345.471 -2.80043 6.1867 0
M  V30 3731 H 343.417 -4.52436 4.75014 0
M  V30 3732 H 343.334 -4.01614 6.40501 0
M  V30 3733 H 344.602 -5.0932 5.90096 0
M  V30 3734 N 348.832 -1.54138 -0.328536 0
M  V30 3735 C 350.109 -1.62749 -1.08499 0
M  V30 3736 C 350.489 -0.458198 -2.06067 0
M  V30 3737 O 349.837 0.548046 -2.2183 0
M  V30 3738 C 350.047 -2.99519 -1.79135 0
M  V30 3739 C 351.395 -3.55394 -2.32337 0
M  V30 3740 O 352.419 -3.01792 -1.89209 0
M  V30 3741 O 351.278 -4.49186 -3.11279 0
M  V30 3742 H 348.372 -0.65886 -0.499832 0
M  V30 3743 H 350.918 -1.66484 -0.328826 0
M  V30 3744 H 349.69 -3.76061 -1.08139 0
M  V30 3745 H 349.313 -2.99441 -2.61574 0
M  V30 3746 N 350.31 0.590341 -1.46126 0
M  V30 3747 C 351.726 0.912917 -1.30912 0
M  V30 3748 C 351.926 1.99616 -0.274893 0
M  V30 3749 O 350.982 2.50397 0.325197 0
M  V30 3750 C 352.295 1.3375 -2.69317 0
M  V30 3751 C 353.843 1.45077 -2.77348 0
M  V30 3752 C 354.318 1.90904 -4.16317 0
M  V30 3753 N 355.809 1.9811 -4.18696 0
M  V30 3754 C 356.544 2.34828 -5.23109 0
M  V30 3755 N 356.04 2.70393 -6.37856 0
M  V30 3756 N 357.833 2.35317 -5.10473 0
M  V30 3757 H 349.984 -0.125358 -2.1203 0
M  V30 3758 H 352.247 0.00658481 -0.947977 0
M  V30 3759 H 351.953 0.615614 -3.4627 0
M  V30 3760 H 351.827 2.30058 -2.9892 0
M  V30 3761 H 354.214 2.16353 -2.00687 0
M  V30 3762 H 354.295 0.4704 -2.51438 0
M  V30 3763 H 353.939 1.20209 -4.9347 0
M  V30 3764 H 353.869 2.89886 -4.39629 0
M  V30 3765 H 356.36 1.73146 -3.359 0
M  V30 3766 H 356.673 2.97341 -7.13308 0
M  V30 3767 H 355.018 2.68048 -6.41229 0
M  V30 3768 H 358.209 2.0695 -4.19868 0
M  V30 3769 H 358.382 2.63605 -5.9196 0
M  V30 3770 N 351.788 1.33704 0.83433 0
M  V30 3771 C 353.204 1.13137 1.12571 0
M  V30 3772 C 353.404 -0.0747261 2.01361 0
M  V30 3773 O 352.46 -0.753647 2.4099 0
M  V30 3774 C 353.773 2.42105 1.78342 0
M  V30 3775 C 355.321 2.48054 1.90888 0
M  V30 3776 C 355.796 3.76995 2.60075 0
M  V30 3777 N 357.287 3.78092 2.67584 0
M  V30 3778 C 358.022 4.74574 3.21818 0
M  V30 3779 N 357.518 5.81434 3.76705 0
M  V30 3780 N 359.311 4.62044 3.20112 0
M  V30 3781 H 351.462 2.11 0.243489 0
M  V30 3782 H 353.725 0.932532 0.17055 0
M  V30 3783 H 353.431 3.30391 1.20561 0
M  V30 3784 H 353.305 2.54594 2.7832 0
M  V30 3785 H 355.692 1.60215 2.47821 0
M  V30 3786 H 355.773 2.39502 0.898459 0
M  V30 3787 H 355.417 4.65219 2.03799 0
M  V30 3788 H 355.347 3.82825 3.61597 0
M  V30 3789 H 357.838 3.00865 2.28667 0
M  V30 3790 H 358.151 6.51084 4.16305 0
M  V30 3791 H 356.496 5.85163 3.7498 0
M  V30 3792 H 359.687 3.77716 2.76493 0
M  V30 3793 H 359.86 5.37406 3.62076 0
M  V30 3794 N 353.266 -1.05314 1.17247 0
M  V30 3795 C 354.196 -2.1498 0.911362 0
M  V30 3796 C 355.177 -1.69471 -0.146169 0
M  V30 3797 O 356.362 -1.942 0.003812 0
M  V30 3798 C 353.492 -3.4472 0.422528 0
M  V30 3799 C 352.446 -4.03789 1.4191 0
M  V30 3800 C 351.772 -5.28858 0.788274 0
M  V30 3801 C 353.072 -4.41418 2.7919 0
M  V30 3802 H 354.766 -2.3708 1.82848 0
M  V30 3803 H 352.312 -1.13938 0.880569 0
M  V30 3804 H 354.265 -4.20787 0.227289 0
M  V30 3805 H 352.989 -3.22269 -0.530123 0
M  V30 3806 H 351.648 -3.2979 1.60106 0
M  V30 3807 H 351.296 -5.02709 -0.171173 0
M  V30 3808 H 350.996 -5.69338 1.45353 0
M  V30 3809 H 352.52 -6.07612 0.603282 0
M  V30 3810 H 353.934 -5.08524 2.64719 0
M  V30 3811 H 352.331 -4.92913 3.42282 0
M  V30 3812 H 353.401 -3.51819 3.33693 0
M  V30 3813 N 354.744 -0.972509 -1.24016 0
M  V30 3814 C 355.969 -0.654417 -1.96805 0
M  V30 3815 C 356.394 0.770398 -1.716 0
M  V30 3816 O 355.752 1.52361 -0.982647 0
M  V30 3817 C 355.8 -0.941031 -3.48105 0
M  V30 3818 O 354.904 -0.0289472 -4.1239 0
M  V30 3819 H 354.245 -0.24692 -0.616382 0
M  V30 3820 H 356.775 -1.30396 -1.57664 0
M  V30 3821 H 356.785 -0.87452 -3.98517 0
M  V30 3822 H 355.46 -1.97939 -3.65777 0
M  V30 3823 H 354.037 -0.149192 -3.72601 0
M  V30 3824 N 356.222 1.38976 -0.743202 0
M  V30 3825 C 357.468 2.0064 -0.295189 0
M  V30 3826 C 357.801 1.5885 1.11716 0
M  V30 3827 O 357.076 0.821181 1.76315 0
M  V30 3828 C 357.359 3.578 -0.406318 0
M  V30 3829 C 357.212 4.09586 -1.85903 0
M  V30 3830 C 358.531 4.39616 0.206439 0
M  V30 3831 H 355.65 0.728935 -0.108733 0
M  V30 3832 H 358.292 1.65067 -0.940897 0
M  V30 3833 H 356.442 3.88235 0.143419 0
M  V30 3834 H 358.114 3.89837 -2.46627 0
M  V30 3835 H 356.357 3.6284 -2.3776 0
M  V30 3836 H 357.028 5.18708 -1.888 0
M  V30 3837 H 359.504 4.15273 -0.262283 0
M  V30 3838 H 358.38 5.48812 0.0983819 0
M  V30 3839 H 358.641 4.22754 1.2935 0
M  V30 3840 N 357.7 0.491464 1.49741 0
M  V30 3841 C 358.61 -0.296835 2.32715 0
M  V30 3842 C 359.626 -0.976536 1.44013 0
M  V30 3843 O 360.802 -0.960023 1.77047 0
M  V30 3844 C 357.867 -1.35288 3.19215 0
M  V30 3845 C 356.928 -0.687632 4.23757 0
M  V30 3846 C 356.161 -1.69336 5.06123 0
M  V30 3847 O 356.384 -2.92219 4.89861 0
M  V30 3848 O 355.318 -1.25394 5.88693 0
M  V30 3849 H 359.144 0.382048 3.01287 0
M  V30 3850 H 356.729 0.252953 1.47243 0
M  V30 3851 H 358.611 -1.96411 3.72828 0
M  V30 3852 H 357.286 -2.01487 2.53347 0
M  V30 3853 H 356.193 -0.0369159 3.74082 0
M  V30 3854 H 357.526 -0.0682566 4.92153 0
M  V30 3855 N 359.178 -1.55987 0.224894 0
M  V30 3856 C 360.427 -1.97566 -0.406273 0
M  V30 3857 C 360.74 -1.11569 -1.6066 0
M  V30 3858 O 361.946 -1.43062 -2.3075 0
M  V30 3859 C 360.402 -3.51474 -0.774207 0
M  V30 3860 C 360.01 -4.46179 0.403496 0
M  V30 3861 C 361.754 -4.01758 -1.37079 0
M  V30 3862 C 359.661 -5.91399 0.0129412 0
M  V30 3863 H 358.591 -0.737777 -0.155565 0
M  V30 3864 H 361.242 -1.80659 0.321635 0
M  V30 3865 H 359.624 -3.63994 -1.55963 0
M  V30 3866 H 360.798 -4.45409 1.18101 0
M  V30 3867 H 359.113 -4.06255 0.913536 0
M  V30 3868 H 361.71 -5.07756 -1.67596 0
M  V30 3869 H 362.053 -3.47805 -2.28773 0
M  V30 3870 H 362.586 -3.92475 -0.648733 0
M  V30 3871 H 359.325 -6.49341 0.896451 0
M  V30 3872 H 358.845 -5.95356 -0.728821 0
M  V30 3873 H 360.524 -6.45683 -0.412582 0
M  V30 3874 N 360.656 0.0484629 -1.57525 0
M  V30 3875 C 361.902 0.738854 -1.89506 0
M  V30 3876 C 362.257 1.73989 -0.821319 0
M  V30 3877 O 361.55 1.90825 0.172129 0
M  V30 3878 C 361.744 1.46632 -3.25935 0
M  V30 3879 C 361.573 0.537254 -4.46479 0
M  V30 3880 C 360.343 0.165484 -5.05029 0
M  V30 3881 C 362.541 -0.176085 -5.13998 0
M  V30 3882 N 360.523 -0.766868 -6.09091 0
M  V30 3883 C 361.894 -0.96478 -6.12448 0
M  V30 3884 C 363.949 -0.24509 -4.97296 0
M  V30 3885 C 362.652 -1.8161 -6.95996 0
M  V30 3886 C 364.678 -1.08347 -5.81391 0
M  V30 3887 C 364.04 -1.86014 -6.79395 0
M  V30 3888 H 360.139 0.245067 -0.742608 0
M  V30 3889 H 362.723 -0.000476161 -1.947 0
M  V30 3890 H 360.894 2.17623 -3.21706 0
M  V30 3891 H 362.626 2.10757 -3.45491 0
M  V30 3892 H 359.381 0.523466 -4.70698 0
M  V30 3893 H 359.805 -1.22698 -6.65788 0
M  V30 3894 H 364.447 0.341063 -4.21422 0
M  V30 3895 H 362.165 -2.41313 -7.71229 0
M  V30 3896 H 365.751 -1.14014 -5.70519 0
M  V30 3897 H 364.631 -2.4984 -7.43337 0
M  V30 3898 N 362.134 1.5431 0.320358 0
M  V30 3899 C 363.411 1.63322 1.07635 0
M  V30 3900 C 363.791 0.46912 2.05821 0
M  V30 3901 O 363.139 -0.536274 2.22118 0
M  V30 3902 C 363.349 3.00465 1.77544 0
M  V30 3903 C 364.697 3.56621 2.30449 0
M  V30 3904 O 365.721 3.02791 1.87606 0
M  V30 3905 O 364.58 4.5083 3.08892 0
M  V30 3906 H 361.674 0.661502 0.496331 0
M  V30 3907 H 364.22 1.66656 0.319992 0
M  V30 3908 H 362.992 3.76629 1.06143 0
M  V30 3909 H 362.615 3.00824 2.59982 0
M  V30 3910 N 363.613 -0.582584 1.46437 0
M  V30 3911 C 364.859 -1.34064 1.52965 0
M  V30 3912 C 365.214 -1.91566 0.178968 0
M  V30 3913 O 364.507 -1.73526 -0.812365 0
M  V30 3914 C 364.701 -2.48964 2.56421 0
M  V30 3915 C 364.53 -2.02717 4.01417 0
M  V30 3916 C 363.3 -1.87728 4.69134 0
M  V30 3917 C 365.498 -1.58675 4.8921 0
M  V30 3918 N 363.48 -1.35554 5.98747 0
M  V30 3919 C 364.851 -1.18093 6.08649 0
M  V30 3920 C 366.906 -1.46494 4.75861 0
M  V30 3921 C 365.609 -0.665427 7.16215 0
M  V30 3922 C 367.635 -0.96347 5.83499 0
M  V30 3923 C 366.997 -0.567432 7.02111 0
M  V30 3924 H 363.096 -0.483551 0.614575 0
M  V30 3925 H 365.68 -0.663309 1.83053 0
M  V30 3926 H 363.851 -3.1426 2.28244 0
M  V30 3927 H 365.583 -3.15913 2.52944 0
M  V30 3928 H 362.338 -2.09678 4.24655 0
M  V30 3929 H 362.762 -1.11628 6.67734 0
M  V30 3930 H 367.404 -1.75731 3.8455 0
M  V30 3931 H 365.122 -0.360639 8.07295 0
M  V30 3932 H 368.708 -0.873129 5.75211 0
M  V30 3933 H 367.588 -0.185389 7.83981 0
M  V30 3934 N 365.091 -1.34144 -0.827227 0
M  V30 3935 C 366.368 -1.16844 -1.56865 0
M  V30 3936 C 366.748 0.260654 -2.09485 0
M  V30 3937 O 366.096 1.26138 -1.9053 0
M  V30 3938 C 366.306 -2.21939 -2.6934 0
M  V30 3939 C 367.654 -2.56695 -3.3822 0
M  V30 3940 O 368.678 -2.20695 -2.79593 0
M  V30 3941 O 367.537 -3.18518 -4.44082 0
M  V30 3942 H 364.631 -0.452669 -0.692112 0
M  V30 3943 H 367.177 -1.45763 -0.868973 0
M  V30 3944 H 365.949 -3.17882 -2.28182 0
M  V30 3945 H 365.572 -1.94172 -3.46962 0
M  V30 3946 N 366.569 1.04691 -1.17803 0
M  V30 3947 C 367.499 2.14494 -0.92275 0
M  V30 3948 C 368.48 1.69546 0.137179 0
M  V30 3949 O 369.665 1.94195 -0.0141108 0
M  V30 3950 C 366.795 3.44491 -0.440803 0
M  V30 3951 C 365.749 4.03031 -1.4405 0
M  V30 3952 C 365.075 5.28432 -0.81631 0
M  V30 3953 C 366.375 4.39932 -2.81527 0
M  V30 3954 H 368.069 2.36107 -1.84103 0
M  V30 3955 H 365.615 1.1347 -0.886599 0
M  V30 3956 H 367.568 4.2066 -0.249602 0
M  V30 3957 H 366.292 3.22546 0.513025 0
M  V30 3958 H 364.951 3.28937 -1.61853 0
M  V30 3959 H 364.599 5.02792 0.144511 0
M  V30 3960 H 364.299 5.68559 -1.48371 0
M  V30 3961 H 365.823 6.07284 -0.635496 0
M  V30 3962 H 367.237 5.07113 -2.67412 0
M  V30 3963 H 365.634 4.9109 -3.44892 0
M  V30 3964 H 366.704 3.50045 -3.35554 0
M  V30 3965 N 368.047 0.979072 1.23499 0
M  V30 3966 C 369.275 0.665202 1.95915 0
M  V30 3967 C 369.69 -0.767571 1.72493 0
M  V30 3968 O 369.047 -1.51635 1.01554 0
M  V30 3969 C 369.098 0.944438 3.48945 0
M  V30 3970 O 368.819 2.3209 3.71572 0
M  V30 3971 C 370.32 0.646336 4.38563 0
M  V30 3972 H 367.54 0.247218 0.623798 0
M  V30 3973 H 370.084 1.31009 1.57025 0
M  V30 3974 H 368.239 0.345575 3.85856 0
M  V30 3975 H 368.653 2.40957 4.65876 0
M  V30 3976 H 370.127 0.892091 5.44744 0
M  V30 3977 H 370.604 -0.419575 4.37191 0
M  V30 3978 H 371.21 1.22562 4.07258 0
M  V30 3979 N 369.525 -1.3858 0.750561 0
M  V30 3980 C 370.75 -2.04997 0.314812 0
M  V30 3981 C 371.175 -1.56235 -1.04749 0
M  V30 3982 O 370.533 -0.712981 -1.66692 0
M  V30 3983 C 370.581 -3.58961 0.343415 0
M  V30 3984 O 369.685 -4.07025 -0.663628 0
M  V30 3985 H 369.026 -0.649081 0.139962 0
M  V30 3986 H 371.556 -1.77313 1.02084 0
M  V30 3987 H 371.566 -4.07542 0.193233 0
M  V30 3988 H 370.241 -3.93811 1.33738 0
M  V30 3989 H 368.818 -3.6982 -0.478307 0
M  V30 3990 N 371.003 -0.499398 -1.49478 0
M  V30 3991 C 372.419 -0.155261 -1.58843 0
M  V30 3992 C 372.619 1.34008 -1.50479 0
M  V30 3993 O 371.675 2.11589 -1.37791 0
M  V30 3994 C 372.988 -0.730636 -2.91689 0
M  V30 3995 C 374.536 -0.696599 -3.0515 0
M  V30 3996 C 375.011 -1.25001 -4.40612 0
M  V30 3997 N 376.502 -1.21064 -4.47099 0
M  V30 3998 C 377.237 -1.60905 -5.50361 0
M  V30 3999 N 376.733 -2.08331 -6.60735 0
M  V30 4000 N 378.526 -1.52331 -5.41065 0
M  V30 4001 H 370.677 -1.47162 -1.53158 0
M  V30 4002 H 372.94 -0.610309 -0.725415 0
M  V30 4003 H 372.646 -1.77928 -3.03372 0
M  V30 4004 H 372.52 -0.190161 -3.7672 0
M  V30 4005 H 374.907 0.343204 -2.93097 0
M  V30 4006 H 374.988 -1.2742 -2.21806 0
M  V30 4007 H 374.632 -2.28859 -4.53416 0
M  V30 4008 H 374.562 -0.64836 -5.22593 0
M  V30 4009 H 377.053 -0.863128 -3.67911 0
M  V30 4010 H 377.366 -2.36805 -7.35624 0
M  V30 4011 H 375.711 -2.12304 -6.6178 0
M  V30 4012 H 378.902 -1.151 -4.53729 0
M  V30 4013 H 379.075 -1.83704 -6.21415 0
M  V30 4014 N 372.481 1.55866 -0.233164 0
M  V30 4015 C 373.429 2.22176 0.68851 0
M  V30 4016 C 374.423 1.20487 1.19076 0
M  V30 4017 O 375.629 1.38536 1.14925 0
M  V30 4018 H 372.004 0.712511 0.240483 0
M  V30 4019 H 373.975 2.98212 0.105935 0
M  V30 4020 C 372.724 2.92446 1.88071 0
M  V30 4021 H 372.047 3.70458 1.50337 0
M  V30 4022 H 373.487 3.42226 2.50314 0
M  V30 4023 C 371.946 1.95555 2.74335 0
M  V30 4024 O 372.476 1.47986 3.73447 0
M  V30 4025 N 370.682 1.62953 2.40613 0
M  V30 4026 H 370.229 2.01831 1.60069 0
M  V30 4027 H 370.187 0.983886 2.98609 0
M  V30 4028 N 373.959 -0.0401083 1.57549 0
M  V30 4029 C 375.236 -0.767917 1.79896 0
M  V30 4030 C 375.616 -1.9416 0.82856 0
M  V30 4031 O 374.964 -2.2812 -0.131671 0
M  V30 4032 C 375.174 -1.2113 3.27305 0
M  V30 4033 C 376.522 -1.63175 3.91994 0
M  V30 4034 O 377.546 -1.30616 3.31388 0
M  V30 4035 O 376.405 -2.23565 4.98679 0
M  V30 4036 H 373.499 -0.370441 0.739393 0
M  V30 4037 H 376.045 -0.017737 1.69691 0
M  V30 4038 H 374.817 -0.372937 3.89519 0
M  V30 4039 H 374.44 -2.02183 3.42356 0
M  V30 4040 N 375.437 -1.54477 -0.31217 0
M  V30 4041 C 376.684 -1.73227 -1.04875 0
M  V30 4042 C 377.012 -0.512042 -1.87639 0
M  V30 4043 O 376.267 0.506131 -1.89042 0
M  V30 4044 C 376.566 -2.967 -1.99258 0
M  V30 4045 C 376.232 -4.30974 -1.32559 0
M  V30 4046 C 374.894 -4.67477 -1.141 0
M  V30 4047 C 377.246 -5.14258 -0.847835 0
M  V30 4048 C 374.574 -5.84852 -0.465326 0
M  V30 4049 C 376.926 -6.32327 -0.185931 0
M  V30 4050 C 375.59 -6.67499 0.0107077 0
M  V30 4051 H 374.86 -0.633881 -0.383765 0
M  V30 4052 H 377.507 -1.88727 -0.324731 0
M  V30 4053 H 375.812 -2.75935 -2.7815 0
M  V30 4054 H 377.509 -3.08401 -2.563 0
M  V30 4055 H 374.099 -4.02262 -1.4793 0
M  V30 4056 H 378.283 -4.86565 -0.978192 0
M  V30 4057 H 373.539 -6.10654 -0.301883 0
M  V30 4058 H 377.713 -6.96135 0.192211 0
M  V30 4059 H 375.34 -7.58306 0.536287 0
M  V30 4060 N 376.915 0.57481 -1.46744 0
M  V30 4061 C 377.848 1.69827 -1.52427 0
M  V30 4062 C 378.826 1.58151 -0.377744 0
M  V30 4063 O 380.01 1.79257 -0.58303 0
M  V30 4064 C 377.137 3.07943 -1.41027 0
M  V30 4065 C 376.183 3.38116 -2.59961 0
M  V30 4066 S 377.016 3.29313 -4.22272 0
M  V30 4067 C 378.172 4.69953 -4.13394 0
M  V30 4068 H 378.405 1.64748 -2.47478 0
M  V30 4069 H 375.938 0.754203 -1.34726 0
M  V30 4070 H 377.896 3.87619 -1.35137 0
M  V30 4071 H 376.557 3.10504 -0.473909 0
M  V30 4072 H 375.75 4.38762 -2.47999 0
M  V30 4073 H 375.352 2.66024 -2.62882 0
M  V30 4074 H 377.644 5.60517 -3.80562 0
M  V30 4075 H 378.587 4.86972 -5.14066 0
M  V30 4076 H 378.995 4.47174 -3.44522 0
M  V30 4077 N 378.394 1.34581 0.820102 0
M  V30 4078 C 379.642 1.26845 1.57336 0
M  V30 4079 C 379.963 -0.160667 1.94337 0
M  V30 4080 O 379.233 -1.09396 1.6251 0
M  V30 4081 H 377.813 0.466514 0.583415 0
M  V30 4082 H 380.475 1.68526 0.979027 0
M  V30 4083 H 379.571 1.87513 2.4949 0
M  V30 4084 N 379.872 -1.04064 1.18357 0
M  V30 4085 C 381.097 -1.81454 1.00445 0
M  V30 4086 C 381.522 -1.82823 -0.442423 0
M  V30 4087 O 380.88 -1.24555 -1.31741 0
M  V30 4088 C 380.928 -3.24925 1.56384 0
M  V30 4089 O 380.032 -4.04856 0.785209 0
M  V30 4090 H 379.373 -0.560604 0.355835 0
M  V30 4091 H 381.903 -1.31059 1.57114 0
M  V30 4092 H 381.913 -3.75702 1.59097 0
M  V30 4093 H 380.588 -3.23244 2.61699 0
M  V30 4094 H 379.165 -3.63537 0.830399 0
M  V30 4095 N 381.35 -0.985608 -1.22978 0
M  V30 4096 C 382.28 -0.549649 -2.26939 0
M  V30 4097 C 383.261 0.419803 -1.64838 0
M  V30 4098 O 384.446 0.31203 -1.91677 0
M  V30 4099 C 381.576 0.143652 -3.47003 0
M  V30 4100 C 380.53 -0.743606 -4.21491 0
M  V30 4101 C 379.856 0.0822027 -5.34637 0
M  V30 4102 C 381.156 -2.03694 -4.80943 0
M  V30 4103 H 382.85 -1.41862 -2.63658 0
M  V30 4104 H 380.396 -0.683571 -1.26741 0
M  V30 4105 H 382.349 0.459985 -4.18882 0
M  V30 4106 H 381.073 1.04711 -3.09359 0
M  V30 4107 H 379.732 -1.04347 -3.51436 0
M  V30 4108 H 379.38 0.986359 -4.93234 0
M  V30 4109 H 379.08 -0.508377 -5.85397 0
M  V30 4110 H 380.604 0.392797 -6.09335 0
M  V30 4111 H 382.018 -1.78504 -5.44802 0
M  V30 4112 H 380.415 -2.57573 -5.42011 0
M  V30 4113 H 381.485 -2.72042 -4.01399 0
M  V30 4114 N 382.828 1.3818 -0.7579 0
M  V30 4115 C 384.053 2.04827 -0.325679 0
M  V30 4116 C 384.478 1.56788 1.03919 0
M  V30 4117 O 383.836 0.721811 1.66312 0
M  V30 4118 C 383.884 3.58774 -0.362447 0
M  V30 4119 O 382.988 4.07372 0.642033 0
M  V30 4120 H 382.329 0.64833 -0.143402 0
M  V30 4121 H 384.859 1.7677 -1.03023 0
M  V30 4122 H 384.869 4.07434 -0.214844 0
M  V30 4123 H 383.544 3.93096 -1.35824 0
M  V30 4124 H 382.121 3.70068 0.458688 0
M  V30 4125 N 384.306 0.507319 1.49211 0
M  V30 4126 C 385.553 -0.0349529 2.0247 0
M  V30 4127 C 385.881 -1.36409 1.38647 0
M  V30 4128 O 385.136 -1.88841 0.513566 0
M  V30 4129 C 385.435 -0.229513 3.56662 0
M  V30 4130 C 385.101 1.02241 4.39156 0
M  V30 4131 C 383.763 1.36557 4.61417 0
M  V30 4132 C 386.115 1.85428 4.871 0
M  V30 4133 C 383.443 2.53999 5.28868 0
M  V30 4134 C 385.795 3.02028 5.55843 0
M  V30 4135 C 384.459 3.36717 5.76349 0
M  V30 4136 H 383.729 -0.0127902 0.74089 0
M  V30 4137 H 386.376 0.668756 1.79443 0
M  V30 4138 H 384.681 -1.0158 3.78403 0
M  V30 4139 H 386.378 -0.663641 3.9547 0
M  V30 4140 H 382.968 0.745124 4.22073 0
M  V30 4141 H 387.152 1.6023 4.69723 0
M  V30 4142 H 382.408 2.81105 5.42946 0
M  V30 4143 H 386.582 3.66808 5.91967 0
M  V30 4144 H 384.209 4.27821 6.28389 0
M  V30 4145 N 385.784 -1.5574 0.241426 0
M  V30 4146 C 387.032 -1.98417 -0.384075 0
M  V30 4147 C 387.353 -1.13078 -1.58866 0
M  V30 4148 O 386.623 -0.212312 -1.94746 0
M  V30 4149 H 385.203 -0.732813 -0.144894 0
M  V30 4150 H 387.865 -1.9193 0.338943 0
M  V30 4151 H 386.961 -3.04219 -0.696939 0
M  V30 4152 N 387.262 0.0317525 -1.57568 0
M  V30 4153 C 388.511 0.722131 -1.8833 0
M  V30 4154 C 388.824 1.76664 -0.839587 0
M  V30 4155 O 390.03 2.50942 -1.03635 0
M  V30 4156 C 388.486 1.33544 -3.34207 0
M  V30 4157 C 388.094 0.327415 -4.46802 0
M  V30 4158 C 389.838 2.00585 -3.7412 0
M  V30 4159 C 387.745 0.948915 -5.83738 0
M  V30 4160 H 386.675 0.273466 -0.702661 0
M  V30 4161 H 389.326 -0.0235811 -1.83485 0
M  V30 4162 H 387.708 2.13077 -3.33788 0
M  V30 4163 H 388.882 -0.441006 -4.58685 0
M  V30 4164 H 387.197 -0.240758 -4.15703 0
M  V30 4165 H 389.794 2.47932 -4.73744 0
M  V30 4166 H 390.137 2.82285 -3.05975 0
M  V30 4167 H 390.67 1.27831 -3.76702 0
M  V30 4168 H 387.409 0.171387 -6.55276 0
M  V30 4169 H 386.929 1.68724 -5.7558 0
M  V30 4170 H 388.608 1.45705 -6.3038 0
M  V30 4171 N 388.74 1.54641 0.303973 0
M  V30 4172 C 389.965 1.78092 1.06292 0
M  V30 4173 C 390.39 0.537342 1.80262 0
M  V30 4174 O 389.748 -0.511993 1.7392 0
M  V30 4175 C 389.796 2.98612 2.02147 0
M  V30 4176 O 388.9 2.71528 3.10397 0
M  V30 4177 H 388.241 0.589548 0.305497 0
M  V30 4178 H 390.771 2.01716 0.3423 0
M  V30 4179 H 390.781 3.265 2.44667 0
M  V30 4180 H 389.456 3.88785 1.47714 0
M  V30 4181 H 388.033 2.54648 2.72413 0
M  V30 4182 N 390.218 -0.567019 1.47046 0
M  V30 4183 C 391.128 -1.70247 1.6141 0
M  V30 4184 C 392.144 -1.66746 0.497157 0
M  V30 4185 O 393.32 -1.86371 0.763389 0
M  V30 4186 C 390.385 -3.06756 1.61561 0
M  V30 4187 C 389.446 -3.21399 2.84607 0
M  V30 4188 C 388.679 -4.51396 2.84741 0
M  V30 4189 O 388.902 -5.36255 1.94388 0
M  V30 4190 O 387.836 -4.69621 3.76483 0
M  V30 4191 H 391.662 -1.61073 2.57467 0
M  V30 4192 H 389.247 -0.735894 1.30019 0
M  V30 4193 H 391.129 -3.8801 1.64396 0
M  V30 4194 H 389.804 -3.16333 0.686684 0
M  V30 4195 H 388.711 -2.39579 2.8732 0
M  V30 4196 H 390.044 -3.16721 3.76761 0
M  V30 4197 N 391.696 -1.35014 -0.812953 0
M  V30 4198 C 392.626 -1.30069 -1.93919 0
M  V30 4199 C 393.607 -0.176275 -1.69184 0
M  V30 4200 O 394.792 -0.370227 -1.90638 0
M  V30 4201 C 391.922 -1.06547 -3.30552 0
M  V30 4202 C 390.876 -2.15561 -3.69753 0
M  V30 4203 C 390.202 -1.77214 -5.04479 0
M  V30 4204 C 391.502 -3.57476 -3.808 0
M  V30 4205 H 393.196 -2.24303 -1.98314 0
M  V30 4206 H 390.742 -1.07977 -0.952736 0
M  V30 4207 H 392.695 -1.01729 -4.08937 0
M  V30 4208 H 391.419 -0.0875719 -3.26483 0
M  V30 4209 H 390.078 -2.19466 -2.9365 0
M  V30 4210 H 389.726 -0.780589 -4.96906 0
M  V30 4211 H 389.426 -2.50184 -5.31678 0
M  V30 4212 H 390.95 -1.7391 -5.8531 0
M  V30 4213 H 392.364 -3.55929 -4.4943 0
M  V30 4214 H 390.761 -4.29152 -4.19462 0
M  V30 4215 H 391.831 -3.94091 -2.82525 0
M  V30 4216 N 393.175 1.03435 -1.18907 0
M  V30 4217 C 394.107 2.1165 -0.879595 0
M  V30 4218 C 395.12 1.62316 0.125439 0
M  V30 4219 O 396.309 1.78201 -0.103245 0
M  V30 4220 C 393.409 3.37622 -0.294042 0
M  V30 4221 C 392.582 4.16166 -1.34629 0
M  V30 4222 C 391.641 5.20457 -0.775274 0
M  V30 4223 O 390.667 5.50379 -1.4516 0
M  V30 4224 N 391.869 5.78949 0.424126 0
M  V30 4225 H 394.634 2.38791 -1.81105 0
M  V30 4226 H 392.195 1.19681 -1.09032 0
M  V30 4227 H 394.187 4.04572 0.101679 0
M  V30 4228 H 392.757 3.07873 0.541575 0
M  V30 4229 H 391.977 3.44444 -1.91707 0
M  V30 4230 H 393.265 4.65432 -2.05549 0
M  V30 4231 H 392.663 5.56948 0.991209 0
M  V30 4232 H 391.22 6.47334 0.761691 0
M  V30 4233 N 394.653 0.992116 1.22453 0
M  V30 4234 C 395.6 0.541731 2.24352 0
M  V30 4235 C 396.57 -0.425519 1.60557 0
M  V30 4236 O 397.755 -0.330453 1.87917 0
M  V30 4237 C 394.895 -0.138248 3.44823 0
M  V30 4238 C 394.008 0.870649 4.23136 0
M  V30 4239 C 393.143 0.164269 5.30946 0
M  V30 4240 C 392.182 1.16159 6.00977 0
M  V30 4241 N 391.319 0.483568 7.00433 0
M  V30 4242 H 396.159 1.41541 2.62241 0
M  V30 4243 H 393.696 0.709013 1.28885 0
M  V30 4244 H 395.654 -0.5494 4.13567 0
M  V30 4245 H 394.284 -0.975721 3.077 0
M  V30 4246 H 393.336 1.40013 3.53696 0
M  V30 4247 H 394.648 1.63014 4.7141 0
M  V30 4248 H 393.802 -0.303653 6.0594 0
M  V30 4249 H 392.541 -0.627733 4.83643 0
M  V30 4250 H 391.546 1.64015 5.24766 0
M  V30 4251 H 392.771 1.95445 6.50368 0
M  V30 4252 H 390.717 -0.289012 6.55363 0
M  V30 4253 H 390.634 1.18152 7.4671 0
M  V30 4254 H 391.902 0.0384219 7.79491 0
M  V30 4255 N 396.131 -1.37776 0.765217 0
M  V30 4256 C 397.094 -2.28686 0.153416 0
M  V30 4257 C 398.094 -1.47727 -0.635081 0
M  V30 4258 O 399.284 -1.68027 -0.459632 0
M  V30 4259 C 396.416 -3.31608 -0.790495 0
M  V30 4260 H 397.609 -2.84297 0.954723 0
M  V30 4261 H 395.162 -1.46932 0.53299 0
M  V30 4262 H 395.897 -2.81109 -1.61705 0
M  V30 4263 H 395.682 -3.9144 -0.227348 0
M  V30 4264 H 397.172 -3.99559 -1.21419 0
M  V30 4265 N 397.609 -0.515225 -1.4894 0
M  V30 4266 C 398.834 0.022727 -2.07388 0
M  V30 4267 C 399.259 1.2876 -1.37122 0
M  V30 4268 O 398.617 1.76067 -0.432431 0
M  V30 4269 C 398.665 0.244869 -3.59768 0
M  V30 4270 O 397.769 1.31667 -3.90817 0
M  V30 4271 H 397.11 -0.0325506 -0.663202 0
M  V30 4272 H 399.64 -0.718918 -1.91553 0
M  V30 4273 H 399.65 0.47205 -4.0526 0
M  V30 4274 H 398.325 -0.679194 -4.10317 0
M  V30 4275 H 396.902 1.07331 -3.5712 0
M  V30 4276 N 399.087 1.5561 -0.249682 0
M  V30 4277 C 400.333 1.99306 0.374841 0
M  V30 4278 C 400.666 1.13767 1.57387 0
M  V30 4279 O 399.941 0.201711 1.93451 0
M  V30 4280 C 400.224 3.51507 0.781986 0
M  V30 4281 C 400.077 4.4781 -0.422629 0
M  V30 4282 C 401.396 4.08884 1.62793 0
M  V30 4283 H 398.515 0.724572 0.134773 0
M  V30 4284 H 401.157 1.86719 -0.351549 0
M  V30 4285 H 399.307 3.62363 1.4009 0
M  V30 4286 H 400.979 4.48931 -1.06108 0
M  V30 4287 H 399.222 4.20518 -1.06524 0
M  V30 4288 H 399.893 5.51919 -0.0943766 0
M  V30 4289 H 402.369 4.01147 1.10547 0
M  V30 4290 H 401.245 5.1564 1.88166 0
M  V30 4291 H 401.506 3.57515 2.60068 0
M  V30 4292 N 400.565 -0.0233959 1.57583 0
M  V30 4293 C 401.842 -0.748794 1.807 0
M  V30 4294 C 402.222 -1.9327 0.849106 0
M  V30 4295 O 401.57 -2.28247 -0.107468 0
M  V30 4296 C 401.78 -1.17651 3.28571 0
M  V30 4297 C 403.128 -1.59008 3.93702 0
M  V30 4298 O 404.152 -1.27094 3.32755 0
M  V30 4299 O 403.011 -2.18264 5.01022 0
M  V30 4300 H 400.105 -0.362578 0.743281 0
M  V30 4301 H 402.651 0.000261958 1.697 0
M  V30 4302 H 401.423 -0.331603 3.89892 0
M  V30 4303 H 401.046 -1.98541 3.44481 0
M  V30 4304 N 402.043 -1.548 -0.295768 0
M  V30 4305 C 403.291 -1.73985 -1.02828 0
M  V30 4306 C 403.612 -0.531406 -1.87619 0
M  V30 4307 O 402.882 0.454221 -1.90561 0
M  V30 4308 H 401.462 -0.641556 -0.382642 0
M  V30 4309 H 404.124 -1.92163 -0.325489 0
M  V30 4310 H 403.22 -2.63129 -1.67838 0
M  V30 4311 N 403.521 0.559213 -1.47345 0
M  V30 4312 C 404.767 1.31614 -1.55079 0
M  V30 4313 C 405.122 1.91257 -0.209422 0
M  V30 4314 O 404.415 1.74796 0.784656 0
M  V30 4315 C 404.609 2.44853 -2.6035 0
M  V30 4316 C 404.438 1.96305 -4.04591 0
M  V30 4317 C 403.208 1.8024 -4.72061 0
M  V30 4318 C 405.406 1.50872 -4.91673 0
M  V30 4319 N 403.388 1.26011 -6.00828 0
M  V30 4320 C 404.759 1.08395 -6.10451 0
M  V30 4321 C 406.814 1.38905 -4.78132 0
M  V30 4322 C 405.517 0.551399 -7.17183 0
M  V30 4323 C 407.543 0.870518 -5.84958 0
M  V30 4324 C 406.905 0.455661 -7.02925 0
M  V30 4325 H 403.004 0.473712 -0.62219 0
M  V30 4326 H 405.588 0.634103 -1.84085 0
M  V30 4327 H 403.759 3.10589 -2.33215 0
M  V30 4328 H 405.491 3.11849 -2.57938 0
M  V30 4329 H 402.246 2.02895 -4.27937 0
M  V30 4330 H 402.67 1.00991 -6.69425 0
M  V30 4331 H 407.312 1.69591 -3.87297 0
M  V30 4332 H 405.03 0.232159 -8.07766 0
M  V30 4333 H 408.616 0.781507 -5.76527 0
M  V30 4334 H 407.496 0.0606414 -7.84177 0
M  V30 4335 N 404.999 1.35443 0.805782 0
M  V30 4336 C 406.246 1.28761 1.56291 0
M  V30 4337 C 406.574 -0.137747 1.94012 0
M  V30 4338 O 405.829 -1.1032 1.61642 0
M  V30 4339 C 406.128 2.14045 2.86216 0
M  V30 4340 C 405.794 3.62826 2.67709 0
M  V30 4341 C 404.456 4.0338 2.6237 0
M  V30 4342 C 406.808 4.57227 2.50186 0
M  V30 4343 C 404.136 5.36501 2.37451 0
M  V30 4344 C 406.488 5.90547 2.26797 0
M  V30 4345 C 405.152 6.30245 2.1988 0
M  V30 4346 H 404.422 0.471171 0.571908 0
M  V30 4347 H 407.069 1.67347 0.930974 0
M  V30 4348 H 405.374 1.68342 3.53791 0
M  V30 4349 H 407.071 2.0621 3.43917 0
M  V30 4350 H 403.661 3.30644 2.72713 0
M  V30 4351 H 407.845 4.2678 2.53323 0
M  V30 4352 H 403.101 5.66259 2.30567 0
M  V30 4353 H 407.275 6.63274 2.12228 0
M  V30 4354 H 404.902 7.33328 2.00333 0
M  V30 4355 N 406.477 -1.02803 1.19454 0
M  V30 4356 C 407.424 -2.11099 0.933046 0
M  V30 4357 C 408.394 -1.65571 -0.132447 0
M  V30 4358 O 409.579 -1.90797 0.00987576 0
M  V30 4359 C 406.719 -3.41763 0.478747 0
M  V30 4360 C 405.832 -4.00833 1.6111 0
M  V30 4361 C 404.967 -5.19511 1.10825 0
M  V30 4362 C 404.006 -5.70639 2.21445 0
M  V30 4363 N 403.143 -6.80589 1.72461 0
M  V30 4364 H 407.983 -2.32804 1.86028 0
M  V30 4365 H 405.52 -1.14179 0.927441 0
M  V30 4366 H 407.478 -4.16736 0.196745 0
M  V30 4367 H 406.108 -3.20166 -0.411493 0
M  V30 4368 H 405.16 -3.23066 2.00829 0
M  V30 4369 H 406.472 -4.34794 2.4445 0
M  V30 4370 H 405.626 -6.01645 0.781533 0
M  V30 4371 H 404.365 -4.87086 0.244606 0
M  V30 4372 H 403.37 -4.87116 2.54947 0
M  V30 4373 H 404.595 -6.05102 3.08267 0
M  V30 4374 H 402.541 -6.50016 0.884056 0
M  V30 4375 H 402.458 -7.13681 2.49389 0
M  V30 4376 H 403.726 -7.66317 1.42755 0
M  V30 4377 N 407.956 -0.998596 -1.21925 0
M  V30 4378 C 408.886 -0.573688 -2.26343 0
M  V30 4379 C 409.867 0.402296 -1.65274 0
M  V30 4380 O 411.052 0.291683 -1.91997 0
M  V30 4381 C 408.182 0.106839 -3.47136 0
M  V30 4382 C 407.136 -0.788269 -4.20678 0
M  V30 4383 C 406.462 0.0254927 -5.34694 0
M  V30 4384 C 407.762 -2.08784 -4.78755 0
M  V30 4385 H 409.456 -1.44651 -2.62138 0
M  V30 4386 H 407.002 -0.696975 -1.26009 0
M  V30 4387 H 408.955 0.415531 -4.19346 0
M  V30 4388 H 407.679 1.01424 -3.10452 0
M  V30 4389 H 406.338 -1.08069 -3.50309 0
M  V30 4390 H 405.986 0.933989 -4.94253 0
M  V30 4391 H 405.686 -0.570437 -5.84825 0
M  V30 4392 H 407.21 0.328147 -6.09718 0
M  V30 4393 H 408.624 -1.84272 -5.42878 0
M  V30 4394 H 407.021 -2.63307 -5.39249 0
M  V30 4395 H 408.091 -2.76284 -3.98491 0
M  V30 4396 N 409.434 1.37368 -0.772513 0
M  V30 4397 C 410.364 2.32856 -0.173304 0
M  V30 4398 C 411.345 1.55818 0.682262 0
M  V30 4399 O 412.53 1.84052 0.619566 0
M  V30 4400 C 409.66 3.40048 0.706007 0
M  V30 4401 C 408.614 4.27973 -0.0483144 0
M  V30 4402 C 407.94 5.26184 0.950491 0
M  V30 4403 C 409.24 5.07665 -1.22776 0
M  V30 4404 H 410.934 2.83217 -0.971002 0
M  V30 4405 H 408.48 1.3617 -0.468377 0
M  V30 4406 H 410.433 4.05827 1.13501 0
M  V30 4407 H 409.157 2.88214 1.53623 0
M  V30 4408 H 407.816 3.63726 -0.458107 0
M  V30 4409 H 407.464 4.7063 1.77529 0
M  V30 4410 H 407.164 5.85872 0.450314 0
M  V30 4411 H 408.688 5.94838 1.37842 0
M  V30 4412 H 410.102 5.66578 -0.875366 0
M  V30 4413 H 408.499 5.76681 -1.66007 0
M  V30 4414 H 409.569 4.40294 -2.03149 0
M  V30 4415 N 410.912 0.523116 1.48665 0
M  V30 4416 C 412.137 -0.0117284 2.07397 0
M  V30 4417 C 412.562 -1.28031 1.37803 0
M  V30 4418 O 411.92 -1.75836 0.441762 0
M  V30 4419 C 411.968 -0.225786 3.59892 0
M  V30 4420 O 411.072 -1.29592 3.91509 0
M  V30 4421 H 410.413 0.0360673 0.66302 0
M  V30 4422 H 412.943 0.729066 1.9117 0
M  V30 4423 H 412.953 -0.450552 4.05505 0
M  V30 4424 H 411.628 0.700944 4.09951 0
M  V30 4425 H 410.205 -1.05436 3.57684 0
M  V30 4426 N 412.39 -1.55475 0.257931 0
M  V30 4427 C 413.322 -2.19192 -0.669881 0
M  V30 4428 C 414.335 -1.17148 -1.1305 0
M  V30 4429 O 415.524 -1.43959 -1.05537 0
M  V30 4430 C 412.624 -2.79016 -1.92363 0
M  V30 4431 C 411.797 -4.06586 -1.61265 0
M  V30 4432 C 410.856 -4.50622 -2.7171 0
M  V30 4433 O 409.882 -5.16765 -2.38627 0
M  V30 4434 N 411.084 -4.19325 -4.01431 0
M  V30 4435 H 413.849 -2.99441 -0.124635 0
M  V30 4436 H 411.41 -1.6171 0.0783311 0
M  V30 4437 H 413.402 -3.05427 -2.65511 0
M  V30 4438 H 411.972 -2.0286 -2.37837 0
M  V30 4439 H 411.192 -3.87646 -0.715811 0
M  V30 4440 H 412.48 -4.89737 -1.37967 0
M  V30 4441 H 411.878 -3.66247 -4.31138 0
M  V30 4442 H 410.435 -4.50547 -4.7101 0
M  V30 4443 N 413.868 0.0150385 -1.57593 0
M  V30 4444 C 414.778 1.02791 -2.10882 0
M  V30 4445 C 415.794 1.38702 -1.0506 0
M  V30 4446 O 416.97 1.47739 -1.36877 0
M  V30 4447 C 414.035 2.30568 -2.58919 0
M  V30 4448 C 413.096 2.01108 -3.79281 0
M  V30 4449 C 412.329 3.22794 -4.25018 0
M  V30 4450 O 412.552 4.33959 -3.70183 0
M  V30 4451 O 411.486 3.07672 -5.17322 0
M  V30 4452 H 415.312 0.604973 -2.97613 0
M  V30 4453 H 412.897 0.23292 -1.47573 0
M  V30 4454 H 414.779 3.05662 -2.90084 0
M  V30 4455 H 413.454 2.72129 -1.75293 0
M  V30 4456 H 412.361 1.23537 -3.53114 0
M  V30 4457 H 413.694 1.64394 -4.63935 0
M  V30 4458 N 415.346 1.54954 0.287554 0
M  V30 4459 C 416.256 1.8991 1.37736 0
M  V30 4460 C 417.272 0.794701 1.54792 0
M  V30 4461 O 418.448 1.09243 1.69198 0
M  V30 4462 C 415.513 2.15108 2.71899 0
M  V30 4463 C 414.574 3.38752 2.63715 0
M  V30 4464 C 413.807 3.62739 3.91479 0
M  V30 4465 O 414.03 2.89492 4.91478 0
M  V30 4466 O 412.964 4.56267 3.92561 0
M  V30 4467 H 416.79 2.82652 1.11092 0
M  V30 4468 H 414.375 1.41315 0.484807 0
M  V30 4469 H 416.257 2.32806 3.51254 0
M  V30 4470 H 414.932 1.25551 2.9836 0
M  V30 4471 H 413.839 3.26405 1.82786 0
M  V30 4472 H 415.172 4.28483 2.42205 0
M  V30 4473 N 416.824 -0.551391 1.4764 0
M  V30 4474 C 418.072 -1.30572 1.54258 0
M  V30 4475 C 418.393 -1.93877 0.208963 0
M  V30 4476 O 417.663 -1.80234 -0.767619 0
M  V30 4477 H 416.243 -0.484894 0.568231 0
M  V30 4478 H 418.905 -0.643402 1.83974 0
M  V30 4479 H 418.001 -2.09621 2.31226 0
M  V30 4480 N 418.302 -1.35869 -0.798587 0
M  V30 4481 C 419.212 -1.31578 -1.94228 0
M  V30 4482 C 420.228 -0.21939 -1.72611 0
M  V30 4483 O 421.404 -0.450167 -1.96305 0
M  V30 4484 C 418.469 -1.09528 -3.28944 0
M  V30 4485 C 417.53 -2.28556 -3.63402 0
M  V30 4486 C 416.763 -2.07549 -4.9169 0
M  V30 4487 O 416.986 -1.046 -5.60727 0
M  V30 4488 O 415.92 -2.95106 -5.24591 0
M  V30 4489 H 419.746 -2.27847 -2.00796 0
M  V30 4490 H 417.331 -1.16322 -0.937526 0
M  V30 4491 H 419.213 -0.991127 -4.09579 0
M  V30 4492 H 417.888 -0.16315 -3.23289 0
M  V30 4493 H 416.795 -2.44538 -2.83112 0
M  V30 4494 H 418.128 -3.20244 -3.73771 0
M  V30 4495 N 419.78 1.02168 -1.19998 0
M  V30 4496 C 421.01 1.79036 -1.031 0
M  V30 4497 C 421.418 1.84409 0.423078 0
M  V30 4498 O 420.761 1.29228 1.30559 0
M  V30 4499 C 420.823 3.25185 -1.53281 0
M  V30 4500 C 420.487 3.43431 -3.01503 0
M  V30 4501 C 421.484 3.33063 -3.99206 0
M  V30 4502 C 419.169 3.69412 -3.40353 0
M  V30 4503 C 421.163 3.48413 -5.33748 0
M  V30 4504 C 418.85 3.84406 -4.75053 0
M  V30 4505 C 419.848 3.7391 -5.71559 0
M  V30 4506 O 419.536 3.88452 -7.03818 0
M  V30 4507 H 419.268 0.570043 -0.363355 0
M  V30 4508 H 421.822 1.29524 -1.59414 0
M  V30 4509 H 420.052 3.75756 -0.913483 0
M  V30 4510 H 421.741 3.83671 -1.32481 0
M  V30 4511 H 422.507 3.12934 -3.70537 0
M  V30 4512 H 418.386 3.76671 -2.65782 0
M  V30 4513 H 421.93 3.40137 -6.09059 0
M  V30 4514 H 417.827 4.04035 -5.03415 0
M  V30 4515 H 418.595 4.055 -7.10993 0
M  V30 4516 N 421.258 1.00505 1.21394 0
M  V30 4517 C 422.505 0.687774 1.90462 0
M  V30 4518 C 422.833 -0.78147 1.7811 0
M  V30 4519 O 422.088 -1.58208 1.1519 0
M  V30 4520 C 422.387 1.0546 3.41486 0
M  V30 4521 C 422.053 2.51812 3.74034 0
M  V30 4522 C 420.715 2.91804 3.82628 0
M  V30 4523 C 423.067 3.46614 3.8924 0
M  V30 4524 C 420.395 4.2556 4.03876 0
M  V30 4525 C 422.747 4.80044 4.11995 0
M  V30 4526 C 421.411 5.19759 4.18816 0
M  V30 4527 H 420.681 0.251674 0.696951 0
M  V30 4528 H 423.328 1.26349 1.43903 0
M  V30 4529 H 421.633 0.397133 3.89782 0
M  V30 4530 H 423.33 0.786976 3.93202 0
M  V30 4531 H 419.92 2.1982 3.67936 0
M  V30 4532 H 424.104 3.16883 3.81967 0
M  V30 4533 H 419.36 4.55901 4.07387 0
M  V30 4534 H 423.534 5.53439 4.22704 0
M  V30 4535 H 421.161 6.23418 4.35033 0
M  V30 4536 N 422.737 -1.36956 0.779787 0
M  V30 4537 C 423.685 -2.32053 0.15942 0
M  V30 4538 C 424.679 -1.55333 -0.675878 0
M  V30 4539 O 425.885 -1.70668 -0.57204 0
M  V30 4540 H 422.26 -0.751286 0.0327707 0
M  V30 4541 H 424.231 -2.8195 0.977078 0
M  V30 4542 C 422.98 -3.40602 -0.698977 0
M  V30 4543 H 422.303 -3.99746 -0.0655966 0
M  V30 4544 H 423.743 -4.09486 -1.09989 0
M  V30 4545 C 422.202 -2.81359 -1.85307 0
M  V30 4546 O 422.732 -2.72751 -2.94906 0
M  V30 4547 N 420.938 -2.38786 -1.65619 0
M  V30 4548 H 420.485 -2.45987 -0.764725 0
M  V30 4549 H 420.443 -1.99493 -2.43002 0
M  V30 4550 N 424.215 -0.530993 -1.48385 0
M  V30 4551 C 425.461 0.00274135 -2.028 0
M  V30 4552 C 425.794 1.33838 -1.40716 0
M  V30 4553 O 425.069 1.86465 -0.553277 0
M  V30 4554 C 425.352 0.123676 -3.59888 0
M  V30 4555 C 425.205 -1.2372 -4.3245 0
M  V30 4556 C 426.524 0.849967 -4.31814 0
M  V30 4557 H 423.643 -0.000477758 -0.737 0
M  V30 4558 H 426.285 -0.688217 -1.77098 0
M  V30 4559 H 424.435 0.712157 -3.81917 0
M  V30 4560 H 426.107 -1.86687 -4.21836 0
M  V30 4561 H 424.35 -1.81882 -3.93829 0
M  V30 4562 H 425.021 -1.10557 -5.40815 0
M  V30 4563 H 427.497 0.350572 -4.14621 0
M  V30 4564 H 426.373 0.903486 -5.41413 0
M  V30 4565 H 426.634 1.90047 -3.99167 0
M  V30 4566 N 425.693 1.55336 -0.266172 0
M  V30 4567 C 427.104 1.85236 0.233315 0
M  V30 4568 C 427.455 1.18816 1.56132 0
M  V30 4569 O 426.58 0.473307 2.11161 0
M  V30 4570 C 427.175 3.36059 0.430113 0
M  V30 4571 C 425.734 3.66116 0.873842 0
M  V30 4572 C 424.881 2.77274 -0.0380016 0
M  V30 4573 H 427.832 1.51004 -0.488214 0
M  V30 4574 H 427.853 3.58681 1.26998 0
M  V30 4575 H 427.365 3.84373 -0.536588 0
M  V30 4576 H 425.466 3.23295 1.85233 0
M  V30 4577 H 425.579 4.73699 0.717358 0
M  V30 4578 H 423.943 2.50198 0.476759 0
M  V30 4579 H 424.726 3.284 -1.00042 0
M  V30 4580 N 427.171 -0.0066808 1.57599 0
M  V30 4581 C 428.417 -0.693947 1.90558 0
M  V30 4582 C 428.75 -1.73792 0.866594 0
M  V30 4583 O 428.025 -1.94156 -0.115548 0
M  V30 4584 C 428.308 -1.34317 3.34112 0
M  V30 4585 C 428.161 -0.311189 4.48722 0
M  V30 4586 C 429.48 -2.27116 3.7697 0
M  V30 4587 H 426.599 -0.250803 0.693013 0
M  V30 4588 H 429.241 0.043242 1.89951 0
M  V30 4589 H 427.391 -1.9715 3.3476 0
M  V30 4590 H 429.063 0.316944 4.6021 0
M  V30 4591 H 427.306 0.367253 4.32243 0
M  V30 4592 H 427.977 -0.804366 5.46108 0
M  V30 4593 H 430.453 -1.74306 3.77831 0
M  V30 4594 H 429.329 -2.69511 4.78179 0
M  V30 4595 H 429.59 -3.14743 3.10466 0
M  V30 4596 N 428.649 -1.55105 -0.279332 0
M  V30 4597 C 430.06 -1.66186 -0.850832 0
M  V30 4598 C 430.411 -0.584707 -1.87285 0
M  V30 4599 O 429.536 0.274919 -2.14647 0
M  V30 4600 C 430.131 -3.01264 -1.55001 0
M  V30 4601 C 428.69 -3.14394 -2.06963 0
M  V30 4602 C 427.837 -2.61959 -0.909536 0
M  V30 4603 H 430.788 -1.58602 -0.0558235 0
M  V30 4604 H 430.809 -2.93899 -2.41669 0
M  V30 4605 H 430.321 -3.7964 -0.805931 0
M  V30 4606 H 428.422 -2.4078 -2.84352 0
M  V30 4607 H 428.535 -4.20867 -2.28928 0
M  V30 4608 H 426.899 -2.18957 -1.30116 0
M  V30 4609 H 427.682 -3.42833 -0.179062 0
M  V30 4610 N 430.127 0.543554 -1.4793 0
M  V30 4611 C 431.538 1.12561 -1.48953 0
M  V30 4612 C 431.889 1.94578 -0.251754 0
M  V30 4613 O 431.014 2.0665 0.642255 0
M  V30 4614 C 431.609 2.04801 -2.69892 0
M  V30 4615 C 430.168 2.58251 -2.73831 0
M  V30 4616 C 429.315 1.34918 -2.42265 0
M  V30 4617 H 432.266 0.32947 -1.55242 0
M  V30 4618 H 432.287 2.88886 -2.47639 0
M  V30 4619 H 431.799 1.4508 -3.59963 0
M  V30 4620 H 429.9 3.21732 -1.87934 0
M  V30 4621 H 430.013 2.98312 -3.74895 0
M  V30 4622 H 428.377 1.66046 -1.93134 0
M  V30 4623 H 429.16 0.769693 -3.3456 0
M  V30 4624 N 431.605 1.3629 0.791371 0
M  V30 4625 C 432.515 1.32606 1.93527 0
M  V30 4626 C 433.531 0.228541 1.72493 0
M  V30 4627 O 434.707 0.460571 1.96063 0
M  V30 4628 C 431.772 1.11271 3.28359 0
M  V30 4629 C 430.833 2.3048 3.62185 0
M  V30 4630 C 430.066 2.10154 4.90583 0
M  V30 4631 O 430.289 1.07572 5.60165 0
M  V30 4632 O 429.223 2.97884 5.23019 0
M  V30 4633 H 433.049 2.28909 1.99585 0
M  V30 4634 H 430.634 1.16818 0.931344 0
M  V30 4635 H 432.516 1.01283 4.09047 0
M  V30 4636 H 431.191 0.180292 3.23198 0
M  V30 4637 H 430.098 2.46036 2.81811 0
M  V30 4638 H 431.431 3.22221 3.72068 0
M  V30 4639 N 433.083 -1.0153 1.20538 0
M  V30 4640 C 434.331 -1.74803 1.01432 0
M  V30 4641 C 434.652 -1.8963 -0.454456 0
M  V30 4642 O 433.922 -1.43975 -1.32846 0
M  V30 4643 H 432.502 -0.647598 0.372324 0
M  V30 4644 H 435.164 -1.22402 1.5167 0
M  V30 4645 H 434.26 -2.75114 1.47373 0
M  V30 4646 N 434.561 -1.01147 -1.20859 0
M  V30 4647 C 435.786 -0.716698 -1.94623 0
M  V30 4648 C 436.211 0.715415 -1.73964 0
M  V30 4649 O 435.569 1.49157 -1.03062 0
M  V30 4650 C 435.617 -1.0513 -3.44935 0
M  V30 4651 O 434.721 -0.160131 -4.12089 0
M  V30 4652 H 434.062 -0.266404 -0.608214 0
M  V30 4653 H 436.592 -1.35346 -1.53436 0
M  V30 4654 H 436.602 -1.00086 -3.95533 0
M  V30 4655 H 435.277 -2.09475 -3.59295 0
M  V30 4656 H 433.854 -0.267657 -3.71938 0
M  V30 4657 N 436.039 1.36541 -0.78704 0
M  V30 4658 C 436.949 2.3387 -0.184896 0
M  V30 4659 C 437.965 1.60927 0.661697 0
M  V30 4660 O 439.141 1.92927 0.57804 0
M  V30 4661 C 436.206 3.40122 0.672145 0
M  V30 4662 C 435.267 4.28867 -0.19267 0
M  V30 4663 C 434.5 5.30045 0.623561 0
M  V30 4664 O 434.723 5.39232 1.8597 0
M  V30 4665 O 433.657 6.01895 0.0247068 0
M  V30 4666 H 437.483 2.87126 -0.989562 0
M  V30 4667 H 435.068 1.38969 -0.548455 0
M  V30 4668 H 436.95 4.05093 1.16094 0
M  V30 4669 H 435.625 2.89169 1.45474 0
M  V30 4670 H 434.532 3.66945 -0.728166 0
M  V30 4671 H 435.865 4.83165 -0.938722 0
M  V30 4672 N 437.518 0.538854 1.48102 0
M  V30 4673 C 438.481 -0.208395 2.28251 0
M  V30 4674 C 439.481 -0.859656 1.35892 0
M  V30 4675 O 440.671 -0.71834 1.58699 0
M  V30 4676 C 437.803 -1.30252 3.15035 0
M  V30 4677 H 438.996 0.495407 2.9578 0
M  V30 4678 H 436.549 0.295112 1.53489 0
M  V30 4679 H 437.284 -2.0393 2.52157 0
M  V30 4680 H 437.069 -0.840551 3.82985 0
M  V30 4681 H 438.559 -1.82787 3.75471 0
M  V30 4682 N 438.996 -1.55193 0.274407 0
M  V30 4683 C 439.944 -2.23924 -0.629362 0
M  V30 4684 C 440.938 -1.23602 -1.1584 0
M  V30 4685 O 442.144 -1.41535 -1.11211 0
M  V30 4686 H 438.519 -0.718637 -0.221507 0
M  V30 4687 H 440.49 -2.98388 -0.0268322 0
M  V30 4688 C 439.239 -2.97329 -1.80252 0
M  V30 4689 H 438.562 -3.74313 -1.40462 0
M  V30 4690 H 440.002 -3.48743 -2.41152 0
M  V30 4691 C 438.461 -2.0276 -2.69054 0
M  V30 4692 O 438.991 -1.57836 -3.69392 0
M  V30 4693 N 437.197 -1.69275 -2.36208 0
M  V30 4694 H 436.744 -2.06004 -1.54661 0
M  V30 4695 H 436.702 -1.06271 -2.95895 0
M  V30 4696 N 440.474 -0.00167713 -1.576 0
M  V30 4697 C 441.384 1.00548 -2.1196 0
M  V30 4698 C 442.4 1.3758 -1.06526 0
M  V30 4699 O 443.576 1.46278 -1.38436 0
M  V30 4700 C 440.641 2.27809 -2.6135 0
M  V30 4701 C 439.702 1.97074 -3.81393 0
M  V30 4702 C 438.935 3.18267 -4.28417 0
M  V30 4703 O 439.158 4.30009 -3.74765 0
M  V30 4704 O 438.092 3.02167 -5.20556 0
M  V30 4705 H 441.918 0.573373 -2.98238 0
M  V30 4706 H 439.503 0.217255 -1.47812 0
M  V30 4707 H 441.385 3.02568 -2.93309 0
M  V30 4708 H 440.06 2.70254 -1.78169 0
M  V30 4709 H 438.967 1.19785 -3.54404 0
M  V30 4710 H 440.3 1.59464 -4.65652 0
M  V30 4711 N 441.952 1.55251 0.271103 0
M  V30 4712 C 442.862 1.9136 1.35714 0
M  V30 4713 C 443.878 0.811075 1.5394 0
M  V30 4714 O 445.054 1.11031 1.6803 0
M  V30 4715 C 442.119 2.1798 2.69603 0
M  V30 4716 C 441.18 3.4153 2.60107 0
M  V30 4717 C 440.413 3.66871 3.8761 0
M  V30 4718 O 440.636 2.94689 4.8838 0
M  V30 4719 O 439.57 4.60405 3.87699 0
M  V30 4720 H 443.396 2.83815 1.08088 0
M  V30 4721 H 440.981 1.41821 0.469792 0
M  V30 4722 H 442.863 2.36518 3.48765 0
M  V30 4723 H 441.538 1.28708 2.97012 0
M  V30 4724 H 440.445 3.28325 1.79314 0
M  V30 4725 H 441.778 4.31027 2.37647 0
M  V30 4726 N 443.43 -0.535701 1.48216 0
M  V30 4727 C 444.36 -1.65014 1.65204 0
M  V30 4728 C 445.341 -1.62554 0.501011 0
M  V30 4729 O 446.526 -1.7984 0.732886 0
M  V30 4730 C 443.656 -3.03616 1.68626 0
M  V30 4731 C 442.61 -3.20932 2.83172 0
M  V30 4732 C 441.936 -4.60537 2.71679 0
M  V30 4733 C 443.236 -3.04249 4.24535 0
M  V30 4734 H 444.93 -1.51053 2.58502 0
M  V30 4735 H 442.476 -0.725262 1.24402 0
M  V30 4736 H 444.429 -3.81446 1.79099 0
M  V30 4737 H 443.153 -3.18587 0.719026 0
M  V30 4738 H 441.812 -2.45517 2.72244 0
M  V30 4739 H 441.46 -4.72336 1.72937 0
M  V30 4740 H 441.16 -4.73069 3.48538 0
M  V30 4741 H 442.684 -5.40475 2.84112 0
M  V30 4742 H 444.098 -3.71877 4.36326 0
M  V30 4743 H 442.495 -3.28278 5.02348 0
M  V30 4744 H 443.565 -2.00739 4.41397 0
M  V30 4745 N 444.908 -1.36708 -0.784132 0
M  V30 4746 C 446.324 -1.17237 -1.08294 0
M  V30 4747 C 446.524 -5.93947e-05 -2.015 0
M  V30 4748 O 445.58 0.663686 -2.43622 0
M  V30 4749 C 446.893 -2.48557 -1.69233 0
M  V30 4750 C 448.441 -2.54968 -1.8155 0
M  V30 4751 C 448.916 -3.86388 -2.45904 0
M  V30 4752 N 450.407 -3.87762 -2.53367 0
M  V30 4753 C 451.142 -4.86191 -3.03983 0
M  V30 4754 N 450.638 -5.95015 -3.54866 0
M  V30 4755 N 452.431 -4.73606 -3.02743 0
M  V30 4756 H 444.582 -2.11758 -0.16501 0
M  V30 4757 H 446.845 -0.93822 -0.135822 0
M  V30 4758 H 446.551 -3.34638 -1.08215 0
M  V30 4759 H 446.425 -2.64748 -2.68679 0
M  V30 4760 H 448.812 -1.69302 -2.41704 0
M  V30 4761 H 448.893 -2.42672 -0.80895 0
M  V30 4762 H 448.537 -4.72462 -1.86392 0
M  V30 4763 H 448.467 -3.95982 -3.4714 0
M  V30 4764 H 450.958 -3.09145 -2.17343 0
M  V30 4765 H 451.271 -6.66086 -3.91854 0
M  V30 4766 H 449.616 -5.98676 -3.53003 0
M  V30 4767 H 452.807 -3.87717 -2.62284 0
M  V30 4768 H 452.98 -5.50473 -3.41881 0
M  V30 4769 N 446.386 1.0089 -1.21074 0
M  V30 4770 C 447.318 2.09737 -0.924291 0
M  V30 4771 C 448.331 1.62546 0.0909809 0
M  V30 4772 O 449.52 1.77942 -0.141021 0
M  V30 4773 C 446.62 3.36922 -0.36559 0
M  V30 4774 C 445.793 4.13216 -1.43426 0
M  V30 4775 C 444.852 5.18696 -0.885496 0
M  V30 4776 O 443.878 5.47176 -1.56801 0
M  V30 4777 N 445.08 5.79718 0.301227 0
M  V30 4778 H 447.845 2.34895 -1.8613 0
M  V30 4779 H 445.406 1.17341 -1.11546 0
M  V30 4780 H 447.398 4.04697 0.0158407 0
M  V30 4781 H 445.968 3.08952 0.476149 0
M  V30 4782 H 445.188 3.40301 -1.9897 0
M  V30 4783 H 446.476 4.60967 -2.15376 0
M  V30 4784 H 445.874 5.58926 0.872849 0
M  V30 4785 H 444.431 6.48804 0.624211 0
M  V30 4786 N 447.864 1.01787 1.20321 0
M  V30 4787 C 448.811 0.589197 2.23153 0
M  V30 4788 C 449.781 -0.391367 1.61423 0
M  V30 4789 O 450.966 -0.290518 1.88575 0
M  V30 4790 C 448.106 -0.0650747 3.45039 0
M  V30 4791 C 447.219 0.960207 4.21194 0
M  V30 4792 C 446.354 0.276854 5.30478 0
M  V30 4793 C 445.393 1.2888 5.98378 0
M  V30 4794 N 444.53 0.632031 6.99249 0
M  V30 4795 H 449.37 1.47071 2.59179 0
M  V30 4796 H 446.907 0.736192 1.27352 0
M  V30 4797 H 448.865 -0.461552 4.14639 0
M  V30 4798 H 447.495 -0.910233 3.09701 0
M  V30 4799 H 446.547 1.47484 3.50646 0
M  V30 4800 H 447.859 1.72977 4.67847 0
M  V30 4801 H 447.013 -0.175056 6.06447 0
M  V30 4802 H 445.752 -0.525004 4.84866 0
M  V30 4803 H 444.757 1.75109 5.21169 0
M  V30 4804 H 445.982 2.09196 6.46076 0
M  V30 4805 H 443.928 -0.149935 6.55829 0
M  V30 4806 H 443.845 1.33964 7.44036 0
M  V30 4807 H 445.113 0.203755 7.79234 0
M  V30 4808 N 449.342 -1.36122 0.79427 0
M  V30 4809 C 450.589 -1.99111 0.368905 0
M  V30 4810 C 450.917 -1.63032 -1.0607 0
M  V30 4811 O 450.172 -0.879303 -1.74833 0
M  V30 4812 C 450.471 -3.5409 0.48527 0
M  V30 4813 C 450.137 -4.10003 1.87638 0
M  V30 4814 C 448.799 -4.24986 2.257 0
M  V30 4815 C 451.151 -4.40423 2.78706 0
M  V30 4816 C 448.479 -4.67701 3.54221 0
M  V30 4817 C 450.831 -4.84573 4.0666 0
M  V30 4818 C 449.495 -4.97761 4.44737 0
M  V30 4819 H 448.765 -0.7286 0.134992 0
M  V30 4820 H 451.412 -1.62534 1.01267 0
M  V30 4821 H 449.717 -3.91052 -0.241984 0
M  V30 4822 H 451.414 -4.00766 0.137109 0
M  V30 4823 H 448.004 -3.98784 1.57064 0
M  V30 4824 H 452.188 -4.28412 2.50553 0
M  V30 4825 H 447.444 -4.761 3.83587 0
M  V30 4826 H 451.618 -5.07074 4.77336 0
M  V30 4827 H 449.245 -5.30618 5.44379 0
M  V30 4828 N 450.82 -0.546701 -1.47814 0
M  V30 4829 C 451.73 0.21026 -2.33656 0
M  V30 4830 C 452.746 0.922413 -1.47538 0
M  V30 4831 O 453.922 0.893652 -1.80488 0
M  V30 4832 C 450.987 1.23348 -3.24016 0
M  V30 4833 C 450.048 0.529883 -4.26017 0
M  V30 4834 C 449.281 1.50435 -5.12059 0
M  V30 4835 O 449.504 2.73837 -5.00369 0
M  V30 4836 O 448.438 1.03459 -5.92942 0
M  V30 4837 H 452.264 -0.493605 -2.99662 0
M  V30 4838 H 449.849 -0.307427 -1.46203 0
M  V30 4839 H 451.731 1.82438 -3.79861 0
M  V30 4840 H 450.406 1.91945 -2.60651 0
M  V30 4841 H 449.313 -0.101948 -3.73961 0
M  V30 4842 H 450.646 -0.11445 -4.92067 0
M  V30 4843 N 452.299 1.55045 -0.282633 0
M  V30 4844 C 453.715 1.59441 0.0712997 0
M  V30 4845 C 453.915 1.2998 1.53972 0
M  V30 4846 O 452.971 1.06431 2.28973 0
M  V30 4847 C 454.284 2.99097 -0.310104 0
M  V30 4848 C 455.832 3.1194 -0.257343 0
M  V30 4849 C 456.307 4.53875 -0.613297 0
M  V30 4850 N 457.798 4.5974 -0.565134 0
M  V30 4851 C 458.533 5.67603 -0.81326 0
M  V30 4852 N 458.029 6.83582 -1.1264 0
M  V30 4853 N 459.822 5.57187 -0.741553 0
M  V30 4854 H 451.973 1.72458 -1.23984 0
M  V30 4855 H 454.236 0.804549 -0.501403 0
M  V30 4856 H 453.942 3.25516 -1.33163 0
M  V30 4857 H 453.816 3.75616 0.345366 0
M  V30 4858 H 456.203 2.85281 0.754905 0
M  V30 4859 H 456.284 2.37618 -0.947178 0
M  V30 4860 H 455.928 4.81261 -1.62327 0
M  V30 4861 H 455.858 5.26508 0.09841 0
M  V30 4862 H 458.349 3.76427 -0.333294 0
M  V30 4863 H 458.662 7.6175 -1.30219 0
M  V30 4864 H 457.007 6.85179 -1.16425 0
M  V30 4865 H 460.198 4.65457 -0.496705 0
M  V30 4866 H 460.371 6.41171 -0.938306 0
M  V30 4867 N 453.777 0.010035 1.57597 0
M  V30 4868 C 454.74 -0.963029 2.07986 0
M  V30 4869 C 455.74 -1.26619 0.991173 0
M  V30 4870 O 456.93 -1.2097 1.25347 0
M  V30 4871 C 454.062 -2.2851 2.52974 0
M  V30 4872 H 455.255 -0.526971 2.95234 0
M  V30 4873 H 452.808 -0.237639 1.54483 0
M  V30 4874 H 453.543 -2.76784 1.69 0
M  V30 4875 H 453.328 -2.07824 3.32493 0
M  V30 4876 H 454.818 -2.98294 2.9225 0
M  V30 4877 N 455.255 -1.55392 -0.262866 0
M  V30 4878 C 456.202 -1.88966 -1.32516 0
M  V30 4879 C 457.172 -0.742187 -1.48596 0
M  V30 4880 O 458.357 -0.99439 -1.62839 0
M  V30 4881 C 455.497 -2.17592 -2.67858 0
M  V30 4882 C 454.61 -3.45061 -2.59917 0
M  V30 4883 C 453.745 -3.63336 -3.87505 0
M  V30 4884 C 452.784 -4.84462 -3.74116 0
M  V30 4885 N 451.921 -4.99342 -4.93561 0
M  V30 4886 H 456.761 -2.79566 -1.03184 0
M  V30 4887 H 454.298 -1.38404 -0.498285 0
M  V30 4888 H 456.256 -2.3219 -3.46617 0
M  V30 4889 H 454.886 -1.30215 -2.95371 0
M  V30 4890 H 453.938 -3.38881 -1.72812 0
M  V30 4891 H 455.25 -4.3396 -2.45926 0
M  V30 4892 H 454.404 -3.77807 -4.74707 0
M  V30 4893 H 453.143 -2.72641 -4.04374 0
M  V30 4894 H 452.148 -4.69985 -2.85297 0
M  V30 4895 H 453.373 -5.76603 -3.58757 0
M  V30 4896 H 451.319 -4.1158 -5.10821 0
M  V30 4897 H 451.236 -5.82303 -4.82141 0
M  V30 4898 H 452.504 -5.18208 -5.82306 0
M  V30 4899 N 456.733 0.527833 -1.48498 0
M  V30 4900 C 457.982 1.28003 -1.55878 0
M  V30 4901 C 458.295 1.9414 -0.238577 0
M  V30 4902 O 459.501 2.7083 -0.190643 0
M  V30 4903 C 457.957 2.32272 -2.74914 0
M  V30 4904 C 457.565 1.72196 -4.13585 0
M  V30 4905 C 459.309 3.08488 -2.91608 0
M  V30 4906 C 457.216 2.74417 -5.23879 0
M  V30 4907 H 456.146 0.481413 -0.580308 0
M  V30 4908 H 458.797 0.557195 -1.74836 0
M  V30 4909 H 457.179 3.07601 -2.49395 0
M  V30 4910 H 458.353 1.03041 -4.49132 0
M  V30 4911 H 456.668 1.08464 -4.02025 0
M  V30 4912 H 459.265 3.84879 -3.71177 0
M  V30 4913 H 459.608 3.64481 -2.01145 0
M  V30 4914 H 460.141 2.40274 -3.17038 0
M  V30 4915 H 456.88 2.23242 -6.16314 0
M  V30 4916 H 456.4 3.41893 -4.92818 0
M  V30 4917 H 458.079 3.37362 -5.52083 0
M  V30 4918 N 458.211 1.37122 0.776871 0
M  V30 4919 C 459.436 1.354 1.57104 0
M  V30 4920 C 459.861 -0.0595562 1.88006 0
M  V30 4921 O 459.219 -1.03514 1.48844 0
M  V30 4922 C 459.267 2.19472 2.8612 0
M  V30 4923 O 458.371 1.59582 3.80273 0
M  V30 4924 H 457.712 0.462869 0.476076 0
M  V30 4925 H 460.242 1.80577 0.961932 0
M  V30 4926 H 460.252 2.32502 3.35271 0
M  V30 4927 H 458.927 3.22222 2.62956 0
M  V30 4928 H 457.504 1.55564 3.38902 0
M  V30 4929 N 459.689 -1.00246 1.21608 0
M  V30 4930 C 460.621 -2.09244 0.935401 0
M  V30 4931 C 461.634 -1.62592 -0.0823594 0
M  V30 4932 O 462.823 -1.77865 0.150456 0
M  V30 4933 C 459.923 -3.36724 0.383453 0
M  V30 4934 C 459.096 -4.1245 1.45615 0
M  V30 4935 C 458.155 -5.18219 0.912991 0
M  V30 4936 O 457.181 -5.46337 1.59701 0
M  V30 4937 N 458.383 -5.7987 -0.270478 0
M  V30 4938 H 461.148 -2.33905 1.87373 0
M  V30 4939 H 458.709 -1.16748 1.12167 0
M  V30 4940 H 460.701 -4.047 0.00562157 0
M  V30 4941 H 459.271 -3.09201 -0.459758 0
M  V30 4942 H 458.491 -3.39241 2.00772 0
M  V30 4943 H 459.779 -4.59819 2.17817 0
M  V30 4944 H 459.177 -5.59381 -0.843195 0
M  V30 4945 H 457.734 -6.49126 -0.589794 0
M  V30 4946 N 461.167 -1.02423 -1.1978 0
M  V30 4947 C 462.415 -0.716569 -1.8897 0
M  V30 4948 C 462.736 0.756769 -1.79716 0
M  V30 4949 O 462.006 1.5449 -1.20456 0
M  V30 4950 H 460.586 -0.262062 -0.699523 0
M  V30 4951 H 463.248 -1.29747 -1.45436 0
M  V30 4952 H 462.344 -1.00675 -2.95417 0
M  V30 4953 N 462.645 1.35699 -0.801477 0
M  V30 4954 C 463.873 2.03157 -0.391768 0
M  V30 4955 C 464.288 1.60412 0.995668 0
M  V30 4956 O 463.645 0.799228 1.64069 0
M  V30 4957 C 463.696 3.58566 -0.459671 0
M  V30 4958 O 463.417 3.99756 -1.7924 0
M  V30 4959 C 464.918 4.4328 -0.0421205 0
M  V30 4960 H 462.138 0.651688 -0.159825 0
M  V30 4961 H 464.682 1.73426 -1.08368 0
M  V30 4962 H 462.837 3.86963 0.183939 0
M  V30 4963 H 463.251 4.94387 -1.75162 0
M  V30 4964 H 464.725 5.51821 -0.140754 0
M  V30 4965 H 465.202 4.27383 1.01196 0
M  V30 4966 H 465.808 4.20168 -0.658687 0
M  V30 4967 N 464.123 0.554532 1.47522 0
M  V30 4968 C 465.07 -0.19466 2.29978 0
M  V30 4969 C 466.04 -0.910882 1.38896 0
M  V30 4970 O 467.225 -0.907102 1.67858 0
M  V30 4971 C 464.365 -1.22035 3.22802 0
M  V30 4972 C 463.478 -0.510474 4.28973 0
M  V30 4973 C 462.613 -1.52123 5.08952 0
M  V30 4974 C 461.652 -0.796173 6.069 0
M  V30 4975 N 460.789 -1.75363 6.79847 0
M  V30 4976 H 465.629 0.51461 2.93523 0
M  V30 4977 H 463.166 0.265607 1.44682 0
M  V30 4978 H 465.124 -1.8276 3.7504 0
M  V30 4979 H 463.754 -1.89769 2.61127 0
M  V30 4980 H 462.806 0.211234 3.79813 0
M  V30 4981 H 464.118 0.0576503 4.98767 0
M  V30 4982 H 463.272 -2.20207 5.65326 0
M  V30 4983 H 462.011 -2.12327 4.39054 0
M  V30 4984 H 461.016 -0.101388 5.49707 0
M  V30 4985 H 462.241 -0.199911 6.78806 0
M  V30 4986 H 460.187 -2.3443 6.12682 0
M  V30 4987 H 460.104 -1.23759 7.45801 0
M  V30 4988 H 461.372 -2.4257 7.40797 0
M  V30 4989 N 465.601 -1.54893 0.290851 0
M  V30 4990 C 466.847 -2.0023 -0.321867 0
M  V30 4991 C 467.18 -1.179 -1.54316 0
M  V30 4992 O 466.455 -0.25293 -1.92848 0
M  V30 4993 C 466.738 -3.53456 -0.688515 0
M  V30 4994 C 466.591 -4.46532 0.541209 0
M  V30 4995 C 467.91 -4.13057 -1.51895 0
M  V30 4996 H 465.029 -0.727891 -0.115515 0
M  V30 4997 H 467.671 -1.85722 0.400931 0
M  V30 4998 H 465.821 -3.6595 -1.30433 0
M  V30 4999 H 467.493 -4.4596 1.17973 0
M  V30 5000 H 465.736 -4.17545 1.17636 0
M  V30 5001 H 466.407 -5.51475 0.240675 0
M  V30 5002 H 468.883 -4.03937 -0.99872 0
M  V30 5003 H 467.759 -5.20448 -1.74429 0
M  V30 5004 H 468.02 -3.64284 -2.50498 0
M  V30 5005 N 467.08 -0.0183926 -1.57589 0
M  V30 5006 C 468.491 0.521927 -1.79256 0
M  V30 5007 C 468.842 1.72885 -0.927636 0
M  V30 5008 O 467.967 2.15978 -0.135091 0
M  V30 5009 C 468.562 0.953632 -3.25102 0
M  V30 5010 C 467.121 1.43913 -3.47801 0
M  V30 5011 C 466.268 0.398837 -2.74417 0
M  V30 5012 H 469.219 -0.244485 -1.56805 0
M  V30 5013 H 469.24 1.81863 -3.34224 0
M  V30 5014 H 468.752 0.0750123 -3.88028 0
M  V30 5015 H 466.853 2.33804 -2.90115 0
M  V30 5016 H 466.966 1.45391 -4.56507 0
M  V30 5017 H 465.33 0.864572 -2.39577 0
M  V30 5018 H 466.113 -0.471132 -3.40052 0
M  V30 5019 N 468.558 1.5553 0.254621 0
M  V30 5020 C 469.468 1.92789 1.33677 0
M  V30 5021 C 470.484 0.827356 1.53071 0
M  V30 5022 O 471.66 1.12807 1.66843 0
M  V30 5023 C 468.725 2.20827 2.67275 0
M  V30 5024 C 467.786 3.4427 2.5647 0
M  V30 5025 C 467.019 3.70961 3.83697 0
M  V30 5026 O 467.242 2.99852 4.85227 0
M  V30 5027 O 466.176 4.64491 3.82794 0
M  V30 5028 H 470.002 2.84945 1.05071 0
M  V30 5029 H 467.587 1.42312 0.454723 0
M  V30 5030 H 469.469 2.40204 3.46237 0
M  V30 5031 H 468.144 1.31851 2.9563 0
M  V30 5032 H 467.051 3.30209 1.75821 0
M  V30 5033 H 468.384 4.33524 2.33062 0
M  V30 5034 N 470.036 -0.519951 1.48776 0
M  V30 5035 C 470.946 -1.65025 1.66745 0
M  V30 5036 C 471.962 -1.6508 0.549954 0
M  V30 5037 O 473.138 -1.83848 0.822295 0
M  V30 5038 C 470.203 -3.0146 1.71238 0
M  V30 5039 C 469.264 -3.12182 2.94688 0
M  V30 5040 C 468.497 -4.42109 2.98958 0
M  V30 5041 O 468.72 -5.29799 2.1135 0
M  V30 5042 O 467.654 -4.57406 3.91233 0
M  V30 5043 H 471.48 -1.52801 2.62461 0
M  V30 5044 H 469.065 -0.694157 1.32294 0
M  V30 5045 H 470.947 -3.82584 1.76657 0
M  V30 5046 H 469.622 -3.13988 0.786975 0
M  V30 5047 H 468.529 -2.30316 2.94797 0
M  V30 5048 H 469.862 -3.04574 3.86646 0
M  V30 5049 N 471.514 -1.37532 -0.769588 0
M  V30 5050 C 472.461 -1.3347 -1.88293 0
M  V30 5051 C 473.431 -0.199891 -1.64893 0
M  V30 5052 O 474.616 -0.389594 -1.8678 0
M  V30 5053 C 471.756 -1.14968 -3.25387 0
M  V30 5054 C 470.869 -2.37698 -3.60727 0
M  V30 5055 C 470.004 -2.12051 -4.8704 0
M  V30 5056 C 469.043 -3.30636 -5.15117 0
M  V30 5057 N 468.18 -3.04527 -6.3262 0
M  V30 5058 H 473.02 -2.28658 -1.911 0
M  V30 5059 H 470.557 -1.13622 -0.934257 0
M  V30 5060 H 472.515 -1.02261 -4.04473 0
M  V30 5061 H 471.145 -0.234263 -3.21949 0
M  V30 5062 H 470.197 -2.61137 -2.76608 0
M  V30 5063 H 471.509 -3.26131 -3.77413 0
M  V30 5064 H 470.663 -1.96388 -5.74035 0
M  V30 5065 H 469.402 -1.20959 -4.72462 0
M  V30 5066 H 468.407 -3.46836 -4.26597 0
M  V30 5067 H 469.632 -4.22582 -5.31603 0
M  V30 5068 H 467.578 -2.16067 -6.19396 0
M  V30 5069 H 467.495 -3.86503 -6.49732 0
M  V30 5070 H 468.763 -2.92485 -7.22546 0
M  V30 5071 N 472.992 0.995999 -1.22138 0
M  V30 5072 C 474.22 1.77066 -1.07029 0
M  V30 5073 C 474.635 1.8495 0.379357 0
M  V30 5074 O 473.992 1.3174 1.26297 0
M  V30 5075 C 474.043 3.20533 -1.67155 0
M  V30 5076 O 473.764 3.13082 -3.06449 0
M  V30 5077 C 475.265 4.14461 -1.5728 0
M  V30 5078 H 472.485 0.556179 -0.375374 0
M  V30 5079 H 475.029 1.25238 -1.61666 0
M  V30 5080 H 473.184 3.6944 -1.16589 0
M  V30 5081 H 473.598 4.03283 -3.35355 0
M  V30 5082 H 475.072 5.1289 -2.04078 0
M  V30 5083 H 475.549 4.36005 -0.528795 0
M  V30 5084 H 476.155 3.71449 -2.07136 0
M  V30 5085 N 474.47 1.03057 1.19235 0
M  V30 5086 C 475.698 0.747697 1.92917 0
M  V30 5087 C 476.113 -0.69372 1.75593 0
M  V30 5088 O 475.47 -1.47191 1.07894 0
M  V30 5089 C 475.521 1.09159 3.44625 0
M  V30 5090 O 475.242 2.47641 3.61394 0
M  V30 5091 C 476.743 0.831763 4.35427 0
M  V30 5092 H 473.963 0.273453 0.612751 0
M  V30 5093 H 476.507 1.37552 1.51327 0
M  V30 5094 H 474.662 0.508919 3.84043 0
M  V30 5095 H 475.076 2.60499 4.55237 0
M  V30 5096 H 476.55 1.12233 5.4047 0
M  V30 5097 H 477.027 -0.233769 4.38577 0
M  V30 5098 H 477.633 1.39725 4.01693 0
M  V30 5099 N 475.948 -1.35272 0.808662 0
M  V30 5100 C 476.896 -2.31663 0.208606 0
M  V30 5101 C 477.89 -1.56731 -0.642778 0
M  V30 5102 O 479.096 -1.71843 -0.53571 0
M  V30 5103 H 475.471 -0.750421 0.0486993 0
M  V30 5104 H 477.442 -2.79814 1.03666 0
M  V30 5105 C 476.191 -3.42008 -0.626573 0
M  V30 5106 H 475.514 -3.99795 0.0192103 0
M  V30 5107 H 476.954 -4.11727 -1.01278 0
M  V30 5108 C 475.413 -2.85226 -1.79298 0
M  V30 5109 O 475.943 -2.78945 -2.89055 0
M  V30 5110 N 474.149 -2.42245 -1.60516 0
M  V30 5111 H 473.696 -2.47554 -0.712375 0
M  V30 5112 H 473.654 -2.04603 -2.38715 0
M  V30 5113 N 477.426 -0.562348 -1.47226 0
M  V30 5114 C 478.654 -0.0452275 -2.06851 0
M  V30 5115 C 479.069 1.25078 -1.41424 0
M  V30 5116 O 478.426 1.75156 -0.512513 0
M  V30 5117 C 478.477 0.148674 -3.61194 0
M  V30 5118 O 478.198 -1.09602 -4.24169 0
M  V30 5119 C 479.699 0.702488 -4.37699 0
M  V30 5120 H 476.919 -0.0481775 -0.669268 0
M  V30 5121 H 479.463 -0.777223 -1.89155 0
M  V30 5122 H 477.618 0.830817 -3.78386 0
M  V30 5123 H 478.032 -0.896982 -5.16773 0
M  V30 5124 H 479.506 0.78743 -5.46355 0
M  V30 5125 H 479.983 1.71493 -4.04335 0
M  V30 5126 H 480.589 0.0558772 -4.25263 0
M  V30 5127 N 478.904 1.54736 -0.299062 0
M  V30 5128 C 480.15 2.00397 0.311244 0
M  V30 5129 C 480.483 1.18716 1.53688 0
M  V30 5130 O 479.758 0.263154 1.92712 0
M  V30 5131 C 480.041 3.53817 0.669761 0
M  V30 5132 C 479.894 4.46239 -0.564882 0
M  V30 5133 C 481.213 4.13856 1.49702 0
M  V30 5134 H 478.332 0.728493 0.111653 0
M  V30 5135 H 480.974 1.85506 -0.410774 0
M  V30 5136 H 479.124 3.66637 1.28491 0
M  V30 5137 H 480.796 4.45328 -1.20337 0
M  V30 5138 H 479.039 4.16916 -1.19849 0
M  V30 5139 H 479.71 5.5134 -0.269918 0
M  V30 5140 H 482.186 4.04461 0.977284 0
M  V30 5141 H 481.062 5.21365 1.71666 0
M  V30 5142 H 481.323 3.65608 2.48563 0
M  V30 5143 N 480.382 0.0267497 1.57577 0
M  V30 5144 C 481.607 -0.666227 1.96408 0
M  V30 5145 C 482.032 -1.65004 0.903071 0
M  V30 5146 O 481.39 -1.80787 -0.136263 0
M  V30 5147 C 481.438 -1.35101 3.34335 0
M  V30 5148 O 480.542 -2.46623 3.30531 0
M  V30 5149 H 479.883 -0.175206 0.640468 0
M  V30 5150 H 482.413 0.0878977 2.04411 0
M  V30 5151 H 482.423 -1.70834 3.70513 0
M  V30 5152 H 481.098 -0.629844 4.11103 0
M  V30 5153 H 479.675 -2.13019 3.06068 0
M  V30 5154 N 481.861 -1.55662 -0.24637 0
M  V30 5155 C 482.808 -1.90361 -1.30504 0
M  V30 5156 C 483.778 -0.757905 -1.47801 0
M  V30 5157 O 484.963 -1.01161 -1.61775 0
M  V30 5158 C 482.103 -2.2042 -2.65535 0
M  V30 5159 C 481.216 -3.47799 -2.56242 0
M  V30 5160 C 480.351 -3.67426 -3.8363 0
M  V30 5161 C 479.39 -4.88403 -3.68956 0
M  V30 5162 N 478.527 -5.04548 -4.88237 0
M  V30 5163 H 483.367 -2.80645 -1.00213 0
M  V30 5164 H 480.904 -1.38924 -0.483577 0
M  V30 5165 H 482.862 -2.35853 -3.44135 0
M  V30 5166 H 481.492 -1.3334 -2.93973 0
M  V30 5167 H 480.544 -3.40694 -1.69208 0
M  V30 5168 H 481.856 -4.36544 -2.4131 0
M  V30 5169 H 481.01 -3.82821 -4.70673 0
M  V30 5170 H 479.749 -2.76914 -4.01459 0
M  V30 5171 H 478.754 -4.72984 -2.80296 0
M  V30 5172 H 479.979 -5.80375 -3.52621 0
M  V30 5173 H 477.925 -4.16974 -5.06427 0
M  V30 5174 H 477.842 -5.87384 -4.75937 0
M  V30 5175 H 479.11 -5.24355 -5.76777 0
M  V30 5176 N 483.339 0.512053 -1.4905 0
M  V30 5177 C 484.586 1.26686 -1.57978 0
M  V30 5178 C 484.914 1.92733 -0.261553 0
M  V30 5179 O 484.169 1.80772 0.749667 0
M  V30 5180 C 484.468 2.36446 -2.68008 0
M  V30 5181 C 484.134 1.87932 -4.09869 0
M  V30 5182 C 482.796 1.74419 -4.48477 0
M  V30 5183 C 485.148 1.5149 -4.98698 0
M  V30 5184 C 482.476 1.22827 -5.73699 0
M  V30 5185 C 484.828 1.01355 -6.24428 0
M  V30 5186 C 483.492 0.864735 -6.61875 0
M  V30 5187 H 482.762 0.463577 -0.578081 0
M  V30 5188 H 485.409 0.569421 -1.82838 0
M  V30 5189 H 483.714 3.11933 -2.37076 0
M  V30 5190 H 485.411 2.9453 -2.72127 0
M  V30 5191 H 482.001 1.99405 -3.79389 0
M  V30 5192 H 486.185 1.60782 -4.69535 0
M  V30 5193 H 481.441 1.10008 -6.01422 0
M  V30 5194 H 485.615 0.722351 -6.92644 0
M  V30 5195 H 483.242 0.462777 -7.5879 0
M  V30 5196 N 484.817 1.37938 0.762283 0
M  V30 5197 C 486.094 1.24196 1.51112 0
M  V30 5198 C 486.474 -0.160409 2.1049 0
M  V30 5199 O 485.822 -1.16904 1.96331 0
M  V30 5200 C 486.032 2.34537 2.58445 0
M  V30 5201 C 487.38 2.7254 3.25588 0
M  V30 5202 O 488.404 2.33783 2.68745 0
M  V30 5203 O 487.263 3.39343 4.28379 0
M  V30 5204 H 484.357 0.485175 0.669727 0
M  V30 5205 H 486.903 1.49743 0.798438 0
M  V30 5206 H 485.675 3.28406 2.12756 0
M  V30 5207 H 485.298 2.10505 3.37303 0
M  V30 5208 N 486.295 -0.989507 1.22664 0
M  V30 5209 C 487.243 -2.10148 0.997035 0
M  V30 5210 C 488.237 -1.6929 -0.0609783 0
M  V30 5211 O 489.443 -1.79766 0.0917523 0
M  V30 5212 H 485.818 -0.687256 0.305259 0
M  V30 5213 H 487.789 -2.26685 1.94053 0
M  V30 5214 C 486.538 -3.4257 0.595085 0
M  V30 5215 H 485.861 -3.74453 1.40089 0
M  V30 5216 H 487.301 -4.21344 0.473869 0
M  V30 5217 C 485.76 -3.29638 -0.695725 0
M  V30 5218 O 486.29 -3.61709 -1.74727 0
M  V30 5219 N 484.496 -2.82814 -0.668173 0
M  V30 5220 H 484.043 -2.56914 0.18787 0
M  V30 5221 H 484.001 -2.74544 -1.5321 0
M  V30 5222 N 487.773 -1.03688 -1.18687 0
M  V30 5223 C 488.721 -0.618292 -2.24232 0
M  V30 5224 C 489.715 0.353045 -1.6568 0
M  V30 5225 O 490.921 0.220749 -1.78641 0
M  V30 5226 H 487.296 -0.181711 -0.729716 0
M  V30 5227 H 489.267 -1.51893 -2.56848 0
M  V30 5228 C 488.016 0.00677342 -3.47699 0
M  V30 5229 H 487.339 -0.731692 -3.93047 0
M  V30 5230 H 488.779 0.262492 -4.23187 0
M  V30 5231 C 487.238 1.25572 -3.12623 0
M  V30 5232 O 487.768 2.34691 -3.26011 0
M  V30 5233 N 485.974 1.14755 -2.66982 0
M  V30 5234 H 485.521 0.259601 -2.56289 0
M  V30 5235 H 485.479 1.98412 -2.43885 0
M  V30 5236 N 489.251 1.34841 -0.815825 0
M  V30 5237 C 490.499 1.98107 -0.399744 0
M  V30 5238 C 490.82 1.65019 1.03894 0
M  V30 5239 O 490.09 0.937311 1.72021 0
M  V30 5240 H 488.67 0.732827 -0.144823 0
M  V30 5241 H 491.332 1.64599 -1.0437 0
M  V30 5242 H 490.428 3.07856 -0.512965 0
M  V30 5243 N 490.729 0.570148 1.46925 0
M  V30 5244 C 491.677 -0.183181 2.31878 0
M  V30 5245 C 492.671 -0.896721 1.43719 0
M  V30 5246 O 493.877 -0.816536 1.60414 0
M  V30 5247 H 490.252 -0.077944 0.74795 0
M  V30 5248 H 492.223 0.552312 2.93244 0
M  V30 5249 C 490.972 -1.19172 3.2664 0
M  V30 5250 H 490.295 -0.652088 3.94446 0
M  V30 5251 H 491.735 -1.68946 3.88887 0
M  V30 5252 C 490.194 -2.24627 2.51086 0
M  V30 5253 O 490.724 -3.31773 2.26472 0
M  V30 5254 N 488.93 -1.98898 2.11867 0
M  V30 5255 H 488.477 -1.11777 2.32086 0
M  V30 5256 H 488.435 -2.6967 1.61634 0
M  V30 5257 N 492.207 -1.54576 0.307264 0
M  V30 5258 C 493.623 -1.59534 -0.0459251 0
M  V30 5259 C 493.823 -1.32414 -1.51884 0
M  V30 5260 O 492.879 -1.1006 -2.27251 0
M  V30 5261 C 494.192 -2.98566 0.357649 0
M  V30 5262 C 495.74 -3.11491 0.306937 0
M  V30 5263 C 496.215 -4.52842 0.685427 0
M  V30 5264 N 497.706 -4.58782 0.638203 0
M  V30 5265 C 498.441 -5.66238 0.903458 0
M  V30 5266 N 497.937 -6.81703 1.23501 0
M  V30 5267 N 499.73 -5.55937 0.830102 0
M  V30 5268 H 491.881 -1.70464 1.26712 0
M  V30 5269 H 494.144 -0.79647 0.514139 0
M  V30 5270 H 493.85 -3.23356 1.38325 0
M  V30 5271 H 493.724 -3.76117 -0.285565 0
M  V30 5272 H 496.111 -2.86446 -0.709424 0
M  V30 5273 H 496.192 -2.36081 0.984861 0
M  V30 5274 H 495.836 -4.78618 1.69963 0
M  V30 5275 H 495.766 -5.26598 -0.0146346 0
M  V30 5276 H 498.257 -3.75849 0.393138 0
M  V30 5277 H 498.57 -7.59582 1.42322 0
M  V30 5278 H 496.915 -6.8324 1.27311 0
M  V30 5279 H 500.106 -4.64608 0.570693 0
M  V30 5280 H 500.279 -6.39597 1.04019 0
M  V30 5281 N 493.685 -0.035106 -1.57561 0
M  V30 5282 C 494.962 0.681212 -1.83354 0
M  V30 5283 C 495.342 1.89986 -0.920252 0
M  V30 5284 O 494.69 2.28489 0.0226815 0
M  V30 5285 C 494.9 1.05376 -3.32712 0
M  V30 5286 C 496.248 1.44286 -3.99333 0
M  V30 5287 O 497.272 1.14656 -3.37242 0
M  V30 5288 O 496.131 1.99518 -5.08778 0
M  V30 5289 H 493.225 0.334741 -0.756226 0
M  V30 5290 H 495.771 -0.0632448 -1.69582 0
M  V30 5291 H 494.543 0.186668 -3.90854 0
M  V30 5292 H 494.166 1.85619 -3.51613 0
M  V30 5293 N 495.163 1.55791 0.238111 0
M  V30 5294 C 496.579 1.48411 0.587045 0
M  V30 5295 C 496.779 0.72702 1.87927 0
M  V30 5296 O 495.835 0.259942 2.51158 0
M  V30 5297 C 497.148 2.92873 0.681623 0
M  V30 5298 C 498.696 3.03295 0.773363 0
M  V30 5299 C 499.171 4.49082 0.899428 0
M  V30 5300 N 500.662 4.53056 0.964075 0
M  V30 5301 C 501.397 5.63117 1.08104 0
M  V30 5302 N 500.893 6.82969 1.16299 0
M  V30 5303 N 502.686 5.50933 1.11488 0
M  V30 5304 H 494.837 2.0345 -0.610076 0
M  V30 5305 H 497.1 0.924034 -0.211813 0
M  V30 5306 H 496.806 3.51142 -0.19802 0
M  V30 5307 H 496.68 3.43851 1.55069 0
M  V30 5308 H 499.067 2.45101 1.64346 0
M  V30 5309 H 499.148 2.55513 -0.121034 0
M  V30 5310 H 498.792 5.07889 0.0338586 0
M  V30 5311 H 498.722 4.94553 1.809 0
M  V30 5312 H 501.213 3.66737 0.91173 0
M  V30 5313 H 501.526 7.62598 1.25155 0
M  V30 5314 H 499.871 6.85712 1.13241 0
M  V30 5315 H 503.062 4.56231 1.0474 0
M  V30 5316 H 503.235 6.36743 1.20259 0
M  V30 5317 N 496.642 -0.504142 1.49319 0
M  V30 5318 C 497.575 -1.62361 1.60356 0
M  V30 5319 C 498.553 -1.56169 0.45277 0
M  V30 5320 O 499.737 -1.76271 0.667892 0
M  V30 5321 C 496.864 -3.00864 1.55559 0
M  V30 5322 C 495.91 -3.25328 2.75797 0
M  V30 5323 S 496.743 -3.08791 4.37503 0
M  V30 5324 C 497.899 -4.49695 4.35345 0
M  V30 5325 H 498.132 -1.52753 2.55056 0
M  V30 5326 H 495.665 -0.689065 1.38171 0
M  V30 5327 H 497.623 -3.8073 1.53477 0
M  V30 5328 H 496.284 -3.0789 0.621515 0
M  V30 5329 H 495.477 -4.2643 2.68651 0
M  V30 5330 H 495.079 -2.53179 2.75275 0
M  V30 5331 H 497.371 -5.41721 4.06871 0
M  V30 5332 H 498.314 -4.61891 5.36714 0
M  V30 5333 H 498.722 -4.30227 3.65465 0
M  V30 5334 N 498.12 -1.38341 -0.754957 0
M  V30 5335 C 499.067 -1.3546 -1.86867 0
M  V30 5336 C 500.037 -0.217369 -1.64672 0
M  V30 5337 O 501.222 -0.409383 -1.86356 0
M  V30 5338 C 498.362 -1.18413 -3.24149 0
M  V30 5339 C 497.475 -2.41511 -3.58185 0
M  V30 5340 C 496.61 -2.17205 -4.84763 0
M  V30 5341 C 495.649 -3.36081 -5.11582 0
M  V30 5342 N 494.786 -3.11219 -6.29354 0
M  V30 5343 H 499.626 -2.30672 -1.88664 0
M  V30 5344 H 497.163 -1.14607 -0.922154 0
M  V30 5345 H 499.121 -1.06545 -4.03366 0
M  V30 5346 H 497.751 -0.268397 -3.21682 0
M  V30 5347 H 496.803 -2.64056 -2.73822 0
M  V30 5348 H 498.115 -3.30115 -3.73932 0
M  V30 5349 H 497.269 -2.02465 -5.7192 0
M  V30 5350 H 496.008 -1.25964 -4.71152 0
M  V30 5351 H 495.013 -3.51341 -4.22894 0
M  V30 5352 H 496.238 -4.28196 -5.27091 0
M  V30 5353 H 494.184 -2.22624 -6.17069 0
M  V30 5354 H 494.101 -3.93373 -6.45596 0
M  V30 5355 H 495.369 -3.00132 -7.19403 0
M  V30 5356 N 499.598 0.982988 -1.23187 0
M  V30 5357 C 500.528 2.09301 -1.03515 0
M  V30 5358 C 501.509 1.70035 0.0471136 0
M  V30 5359 O 502.694 1.93847 -0.117029 0
M  V30 5360 C 499.824 3.4167 -0.622791 0
M  V30 5361 C 498.778 3.94828 -1.65211 0
M  V30 5362 C 498.104 5.23362 -1.09527 0
M  V30 5363 C 499.404 4.2439 -3.04451 0
M  V30 5364 H 501.098 2.26016 -1.96359 0
M  V30 5365 H 498.644 1.08611 -0.945501 0
M  V30 5366 H 500.597 4.18746 -0.472233 0
M  V30 5367 H 499.321 3.24811 0.341329 0
M  V30 5368 H 497.98 3.19895 -1.79061 0
M  V30 5369 H 497.628 5.02852 -0.122211 0
M  V30 5370 H 497.328 5.59895 -1.783 0
M  V30 5371 H 498.852 6.03062 -0.956511 0
M  V30 5372 H 500.266 4.92225 -2.93917 0
M  V30 5373 H 498.663 4.72118 -3.70438 0
M  V30 5374 H 499.733 3.31765 -3.53638 0
M  V30 5375 N 501.076 1.04316 1.18135 0
M  V30 5376 C 502.304 0.768117 1.92113 0
M  V30 5377 C 502.719 -0.675057 1.76319 0
M  V30 5378 O 502.076 -1.46038 1.09449 0
M  V30 5379 C 502.127 1.12808 3.43448 0
M  V30 5380 O 501.848 2.5146 3.58747 0
M  V30 5381 C 503.349 0.8779 4.3452 0
M  V30 5382 H 500.569 0.279937 0.609817 0
M  V30 5383 H 503.113 1.39149 1.49859 0
M  V30 5384 H 501.268 0.549623 3.83481 0
M  V30 5385 H 501.682 2.65313 4.52448 0
M  V30 5386 H 503.156 1.17959 5.39249 0
M  V30 5387 H 503.633 -0.187239 4.38801 0
M  V30 5388 H 504.239 1.43977 4.00188 0
M  V30 5389 N 502.554 -1.34406 0.822964 0
M  V30 5390 C 503.831 -1.92733 0.333641 0
M  V30 5391 C 504.211 -1.75107 -1.17901 0
M  V30 5392 O 503.559 -1.12983 -1.98613 0
M  V30 5393 C 503.769 -3.40557 0.763023 0
M  V30 5394 C 505.117 -4.17709 0.761879 0
M  V30 5395 O 506.141 -3.49141 0.705606 0
M  V30 5396 O 505 -5.40082 0.835109 0
M  V30 5397 H 502.094 -0.821964 0.0911249 0
M  V30 5398 H 504.64 -1.4338 0.907757 0
M  V30 5399 H 503.412 -3.47187 1.8049 0
M  V30 5400 H 503.035 -3.97259 0.164605 0
M  V30 5401 N 504.032 -0.577932 -1.46621 0
M  V30 5402 C 505.279 -0.0616879 -2.02406 0
M  V30 5403 C 505.607 1.29638 -1.44997 0
M  V30 5404 O 504.862 1.86176 -0.60308 0
M  V30 5405 C 505.161 0.0590832 -3.57351 0
M  V30 5406 C 504.827 -1.23077 -4.33777 0
M  V30 5407 C 503.489 -1.58416 -4.54376 0
M  V30 5408 C 505.841 -2.08457 -4.77698 0
M  V30 5409 C 503.169 -2.78943 -5.16147 0
M  V30 5410 C 505.521 -3.28204 -5.408 0
M  V30 5411 C 504.185 -3.63832 -5.59627 0
M  V30 5412 H 503.455 -0.0225732 -0.740656 0
M  V30 5413 H 506.102 -0.753609 -1.76048 0
M  V30 5414 H 504.407 0.834104 -3.82818 0
M  V30 5415 H 506.104 0.474202 -3.98186 0
M  V30 5416 H 502.694 -0.945652 -4.18038 0
M  V30 5417 H 506.878 -1.82459 -4.61544 0
M  V30 5418 H 502.134 -3.06689 -5.28916 0
M  V30 5419 H 506.308 -3.94634 -5.73792 0
M  V30 5420 H 503.935 -4.57315 -6.07262 0
M  V30 5421 N 505.51 1.54411 -0.315457 0
M  V30 5422 C 506.458 2.25514 0.569771 0
M  V30 5423 C 507.452 1.2663 1.12522 0
M  V30 5424 O 508.658 1.44434 1.07419 0
M  V30 5425 H 505.033 0.724257 0.202376 0
M  V30 5426 H 507.004 2.98354 -0.0522895 0
M  V30 5427 C 505.753 3.02004 1.72305 0
M  V30 5428 H 505.076 3.77906 1.30488 0
M  V30 5429 H 506.516 3.55014 2.31821 0
M  V30 5430 C 504.975 2.09822 2.63583 0
M  V30 5431 O 505.505 1.67574 3.65078 0
M  V30 5432 N 503.711 1.75478 2.31637 0
M  V30 5433 H 503.258 2.10032 1.49145 0
M  V30 5434 H 503.216 1.14079 2.92973 0
M  V30 5435 N 506.988 0.0434614 1.5754 0
M  V30 5436 C 508.235 -0.632035 1.92384 0
M  V30 5437 C 508.563 -1.71304 0.921157 0
M  V30 5438 O 507.818 -1.95583 -0.067744 0
M  V30 5439 C 508.117 -1.2738 3.3393 0
M  V30 5440 C 507.783 -0.321757 4.49751 0
M  V30 5441 C 506.445 -0.0597611 4.81163 0
M  V30 5442 C 508.797 0.331158 5.20147 0
M  V30 5443 C 506.125 0.862715 5.80322 0
M  V30 5444 C 508.477 1.24178 6.20292 0
M  V30 5445 C 507.141 1.51252 6.50138 0
M  V30 5446 H 506.411 -0.231278 0.703983 0
M  V30 5447 H 509.058 0.108294 1.91194 0
M  V30 5448 H 507.363 -2.08921 3.3145 0
M  V30 5449 H 509.06 -1.80326 3.58167 0
M  V30 5450 H 505.65 -0.53614 4.25233 0
M  V30 5451 H 509.834 0.141826 4.96097 0
M  V30 5452 H 505.09 1.08003 6.01785 0
M  V30 5453 H 509.264 1.75381 6.73954 0
M  V30 5454 H 506.891 2.22897 7.26788 0
M  V30 5455 N 508.466 -1.55915 -0.229846 0
M  V30 5456 C 509.396 -1.94754 -1.28815 0
M  V30 5457 C 510.377 -0.814657 -1.49323 0
M  V30 5458 O 511.562 -1.07631 -1.61645 0
M  V30 5459 C 508.692 -2.25705 -2.63959 0
M  V30 5460 C 507.646 -3.41406 -2.5812 0
M  V30 5461 C 506.972 -3.57941 -3.97218 0
M  V30 5462 C 508.272 -4.76616 -2.13623 0
M  V30 5463 H 509.966 -2.83404 -0.965547 0
M  V30 5464 H 507.512 -1.36353 -0.463028 0
M  V30 5465 H 509.465 -2.51467 -3.38146 0
M  V30 5466 H 508.189 -1.339 -2.9789 0
M  V30 5467 H 506.848 -3.1568 -1.86391 0
M  V30 5468 H 506.496 -2.63526 -4.28443 0
M  V30 5469 H 506.196 -4.35757 -3.94195 0
M  V30 5470 H 507.72 -3.86042 -4.73079 0
M  V30 5471 H 509.134 -5.01637 -2.77549 0
M  V30 5472 H 507.531 -5.57655 -2.21677 0
M  V30 5473 H 508.601 -4.7253 -1.08829 0
M  V30 5474 N 509.944 0.496216 -1.49584 0
M  V30 5475 C 510.877 1.61508 -1.61215 0
M  V30 5476 C 511.855 1.55927 -0.461045 0
M  V30 5477 O 513.039 1.75914 -0.677231 0
M  V30 5478 C 510.166 3.00035 -1.57152 0
M  V30 5479 C 509.212 3.23861 -2.77518 0
M  V30 5480 S 510.045 3.06466 -4.39134 0
M  V30 5481 C 511.201 4.4738 -4.37724 0
M  V30 5482 H 511.434 1.51398 -2.55863 0
M  V30 5483 H 508.967 0.681727 -1.38535 0
M  V30 5484 H 510.925 3.7991 -1.55494 0
M  V30 5485 H 509.586 3.07556 -0.637834 0
M  V30 5486 H 508.779 4.25 -2.70908 0
M  V30 5487 H 508.381 2.51716 -2.76614 0
M  V30 5488 H 510.673 5.39556 -4.09738 0
M  V30 5489 H 511.616 4.59038 -5.39156 0
M  V30 5490 H 512.024 4.28283 -3.67742 0
M  V30 5491 N 511.423 1.38739 0.74761 0
M  V30 5492 C 512.669 1.35475 1.50912 0
M  V30 5493 C 513.002 -0.0533093 1.94127 0
M  V30 5494 O 512.277 -1.01572 1.65871 0
M  V30 5495 C 512.56 2.31582 2.75757 0
M  V30 5496 C 512.413 3.81274 2.38642 0
M  V30 5497 C 513.732 2.25722 3.77806 0
M  V30 5498 H 510.851 0.493427 0.547447 0
M  V30 5499 H 513.493 1.69634 0.855823 0
M  V30 5500 H 511.643 2.02582 3.31501 0
M  V30 5501 H 513.315 4.20972 1.88626 0
M  V30 5502 H 511.558 3.98664 1.71025 0
M  V30 5503 H 512.229 4.4399 3.27989 0
M  V30 5504 H 514.705 2.51336 3.31616 0
M  V30 5505 H 513.581 2.95069 4.62845 0
M  V30 5506 H 513.842 1.25803 4.23823 0
M  V30 5507 N 512.901 -0.976442 1.23707 0
M  V30 5508 C 513.831 -2.08749 1.04624 0
M  V30 5509 C 514.812 -1.70057 -0.0380956 0
M  V30 5510 O 515.997 -1.93782 0.127308 0
M  V30 5511 C 513.127 -3.41335 0.640902 0
M  V30 5512 C 512.081 -3.93947 1.67302 0
M  V30 5513 C 511.407 -5.22774 1.12301 0
M  V30 5514 C 512.707 -4.22769 3.06697 0
M  V30 5515 H 514.401 -2.24972 1.97555 0
M  V30 5516 H 511.947 -1.08108 0.951247 0
M  V30 5517 H 513.9 -4.18489 0.494434 0
M  V30 5518 H 512.624 -3.24988 -0.324099 0
M  V30 5519 H 511.283 -3.18941 1.80755 0
M  V30 5520 H 510.931 -5.0278 0.148877 0
M  V30 5521 H 510.631 -5.58942 1.81267 0
M  V30 5522 H 512.155 -6.02546 0.988479 0
M  V30 5523 H 513.569 -4.90659 2.96524 0
M  V30 5524 H 511.966 -4.70147 3.72937 0
M  V30 5525 H 513.036 -3.29885 3.55392 0
M  V30 5526 N 514.379 -1.04941 -1.1758 0
M  V30 5527 C 515.627 -0.756492 -1.87408 0
M  V30 5528 C 515.948 0.718478 -1.81281 0
M  V30 5529 O 515.218 1.519 -1.23706 0
M  V30 5530 H 513.798 -0.276841 -0.693807 0
M  V30 5531 H 516.46 -1.32803 -1.42652 0
M  V30 5532 H 515.556 -1.06918 -2.93215 0
M  V30 5533 N 515.857 1.33968 -0.830081 0
M  V30 5534 C 516.804 2.29387 -0.255008 0
M  V30 5535 C 517.774 1.53923 0.624243 0
M  V30 5536 O 518.959 1.82262 0.564372 0
M  V30 5537 C 516.099 3.4034 0.571209 0
M  V30 5538 C 515.212 4.30729 -0.331083 0
M  V30 5539 C 514.347 5.2879 0.505389 0
M  V30 5540 C 513.386 6.10819 -0.395843 0
M  V30 5541 N 512.523 7.00948 0.401979 0
M  V30 5542 H 517.363 2.77972 -1.07404 0
M  V30 5543 H 514.9 1.36785 -0.541133 0
M  V30 5544 H 516.858 4.03361 1.06562 0
M  V30 5545 H 515.488 2.9297 1.35529 0
M  V30 5546 H 514.54 3.68507 -0.943759 0
M  V30 5547 H 515.852 4.88181 -1.02377 0
M  V30 5548 H 515.006 5.97297 1.06399 0
M  V30 5549 H 513.745 4.71894 1.23155 0
M  V30 5550 H 512.75 5.41238 -0.966529 0
M  V30 5551 H 513.975 6.69797 -1.12023 0
M  V30 5552 H 511.921 6.46512 1.11168 0
M  V30 5553 H 511.838 7.55643 -0.232167 0
M  V30 5554 H 513.106 7.73774 0.943102 0
M  V30 5555 N 517.335 0.585699 1.46312 0
M  V30 5556 C 518.583 0.072278 2.01971 0
M  V30 5557 C 518.904 -1.29345 1.45928 0
M  V30 5558 O 518.174 -1.84973 0.645109 0
M  V30 5559 H 516.754 0.023729 0.746623 0
M  V30 5560 H 519.416 0.762155 1.7938 0
M  V30 5561 H 518.512 0.00552767 3.121 0
M  V30 5562 N 518.813 -1.54241 0.323641 0
M  V30 5563 C 520.038 -2.05452 -0.283605 0
M  V30 5564 C 520.463 -1.19823 -1.44997 0
M  V30 5565 O 519.821 -0.207358 -1.8011 0
M  V30 5566 C 519.869 -3.53823 -0.695795 0
M  V30 5567 O 518.973 -3.71134 -1.79815 0
M  V30 5568 H 518.314 -0.662024 -0.0511917 0
M  V30 5569 H 520.844 -1.99079 0.472073 0
M  V30 5570 H 520.854 -3.96094 -0.978434 0
M  V30 5571 H 519.529 -4.15602 0.157287 0
M  V30 5572 H 518.106 -3.40768 -1.51431 0
M  V30 5573 N 520.291 -0.0518155 -1.57515 0
M  V30 5574 C 521.538 0.621823 -1.92716 0
M  V30 5575 C 521.866 1.70813 -0.930229 0
M  V30 5576 O 521.121 1.95616 0.0573708 0
M  V30 5577 C 521.42 1.25607 -3.34601 0
M  V30 5578 C 521.086 0.297901 -4.49915 0
M  V30 5579 C 519.748 0.034243 -4.81188 0
M  V30 5580 C 522.1 -0.358738 -5.19964 0
M  V30 5581 C 519.428 -0.893479 -5.79857 0
M  V30 5582 C 521.78 -1.27466 -6.19625 0
M  V30 5583 C 520.444 -1.54698 -6.49326 0
M  V30 5584 H 519.714 0.227541 -0.705199 0
M  V30 5585 H 522.361 -0.118432 -1.91133 0
M  V30 5586 H 520.666 2.07161 -3.32553 0
M  V30 5587 H 522.363 1.78424 -3.59118 0
M  V30 5588 H 518.953 0.513581 -4.25512 0
M  V30 5589 H 523.137 -0.168133 -4.96015 0
M  V30 5590 H 518.393 -1.11193 -6.01204 0
M  V30 5591 H 522.567 -1.78953 -6.73015 0
M  V30 5592 H 520.194 -2.26748 -7.25596 0
M  V30 5593 N 521.769 1.56035 0.221574 0
M  V30 5594 C 523.017 1.78693 0.944102 0
M  V30 5595 C 523.338 0.620317 1.8487 0
M  V30 5596 O 522.608 -0.362784 1.92512 0
M  V30 5597 H 521.188 0.659082 0.351597 0
M  V30 5598 H 523.85 1.93497 0.233435 0
M  V30 5599 H 522.946 2.70837 1.55093 0
M  V30 5600 N 523.247 -0.488276 1.49845 0
M  V30 5601 C 524.194 -1.58836 1.67451 0
M  V30 5602 C 525.164 -1.57886 0.515857 0
M  V30 5603 O 526.349 -1.75679 0.744403 0
M  V30 5604 C 523.489 -2.96915 1.75885 0
M  V30 5605 C 522.602 -3.07784 3.03138 0
M  V30 5606 C 521.737 -4.36673 3.02473 0
M  V30 5607 C 520.776 -4.41222 4.24252 0
M  V30 5608 N 519.913 -5.61557 4.21424 0
M  V30 5609 H 524.753 -1.43131 2.61376 0
M  V30 5610 H 522.29 -0.696186 1.29583 0
M  V30 5611 H 524.248 -3.76965 1.78755 0
M  V30 5612 H 522.878 -3.11295 0.85414 0
M  V30 5613 H 521.93 -2.20717 3.09819 0
M  V30 5614 H 523.242 -3.07005 3.93128 0
M  V30 5615 H 522.396 -5.25055 3.03977 0
M  V30 5616 H 521.135 -4.40037 2.10283 0
M  V30 5617 H 520.14 -3.5124 4.22978 0
M  V30 5618 H 521.365 -4.39564 5.17649 0
M  V30 5619 H 519.311 -5.65738 3.32078 0
M  V30 5620 H 519.228 -5.62447 5.05163 0
M  V30 5621 H 520.496 -6.52111 4.2705 0
M  V30 5622 N 524.725 -1.39134 -0.740242 0
M  V30 5623 C 525.971 -1.36273 -1.50192 0
M  V30 5624 C 526.304 0.0430136 -1.94152 0
M  V30 5625 O 525.579 1.00691 -1.66408 0
M  V30 5626 C 525.862 -2.33041 -2.74525 0
M  V30 5627 C 525.715 -3.82535 -2.36617 0
M  V30 5628 C 527.034 -2.27723 -3.76604 0
M  V30 5629 H 524.153 -0.496323 -0.544823 0
M  V30 5630 H 526.795 -1.70085 -0.846815 0
M  V30 5631 H 524.945 -2.04337 -3.30422 0
M  V30 5632 H 526.617 -4.21967 -1.86391 0
M  V30 5633 H 524.86 -3.99565 -1.68909 0
M  V30 5634 H 525.531 -4.45723 -3.2563 0
M  V30 5635 H 528.007 -2.53091 -3.30279 0
M  V30 5636 H 526.883 -2.97519 -4.61274 0
M  V30 5637 H 527.144 -1.28049 -4.2315 0
M  V30 5638 N 526.204 0.969867 -1.24223 0
M  V30 5639 C 527.137 2.06279 -0.975926 0
M  V30 5640 C 528.115 1.62353 0.0895385 0
M  V30 5641 O 529.299 1.88442 -0.0469418 0
M  V30 5642 C 526.426 3.35391 -0.472315 0
M  V30 5643 C 525.472 3.98266 -1.526 0
M  V30 5644 S 526.305 4.36172 -3.10667 0
M  V30 5645 C 527.461 5.68423 -2.62003 0
M  V30 5646 H 527.694 2.28551 -1.90137 0
M  V30 5647 H 525.227 1.10748 -1.07584 0
M  V30 5648 H 527.185 4.10068 -0.188376 0
M  V30 5649 H 525.846 3.1111 0.432378 0
M  V30 5650 H 525.039 4.91307 -1.12399 0
M  V30 5651 H 524.641 3.30009 -1.75983 0
M  V30 5652 H 526.933 6.45842 -2.0468 0
M  V30 5653 H 527.876 6.13478 -3.53625 0
M  V30 5654 H 528.284 5.26928 -2.02502 0
M  V30 5655 N 527.682 1.05563 1.17022 0
M  V30 5656 C 528.612 0.681026 2.23348 0
M  V30 5657 C 529.593 -0.322983 1.67005 0
M  V30 5658 O 530.778 -0.199746 1.9317 0
M  V30 5659 C 527.908 0.0589053 3.4725 0
M  V30 5660 C 526.862 0.988082 4.16438 0
M  V30 5661 C 526.188 0.229646 5.34207 0
M  V30 5662 C 527.488 2.31388 4.68249 0
M  V30 5663 H 529.182 1.56993 2.54938 0
M  V30 5664 H 526.728 0.756302 1.2254 0
M  V30 5665 H 528.681 -0.214982 4.20851 0
M  V30 5666 H 527.405 -0.864968 3.14938 0
M  V30 5667 H 526.064 1.24659 3.44754 0
M  V30 5668 H 525.712 -0.697111 4.98146 0
M  V30 5669 H 525.412 0.848815 5.81437 0
M  V30 5670 H 526.936 -0.0368694 6.10589 0
M  V30 5671 H 528.35 2.09964 5.33468 0
M  V30 5672 H 526.747 2.88736 5.26072 0
M  V30 5673 H 527.817 2.94982 3.84855 0
M  V30 5674 N 529.16 -1.33526 0.837174 0
M  V30 5675 C 530.385 -2.0258 0.444545 0
M  V30 5676 C 530.81 -1.6258 -0.946006 0
M  V30 5677 O 530.168 -0.817548 -1.6182 0
M  V30 5678 C 530.216 -3.5605 0.571006 0
M  V30 5679 O 529.32 -4.10422 -0.403431 0
M  V30 5680 H 528.661 -0.638866 0.180958 0
M  V30 5681 H 531.191 -1.70462 1.13154 0
M  V30 5682 H 531.201 -4.05488 0.452024 0
M  V30 5683 H 529.876 -3.84509 1.58512 0
M  V30 5684 H 528.453 -3.72113 -0.242147 0
M  V30 5685 N 530.638 -0.59345 -1.46 0
M  V30 5686 C 531.548 0.135817 -2.34207 0
M  V30 5687 C 532.564 0.875008 -1.50398 0
M  V30 5688 O 533.74 0.835778 -1.83239 0
M  V30 5689 C 530.805 1.12977 -3.27776 0
M  V30 5690 C 529.866 0.394081 -4.27487 0
M  V30 5691 C 529.099 1.34068 -5.16586 0
M  V30 5692 O 529.322 2.5778 -5.08828 0
M  V30 5693 O 528.256 0.845426 -5.95933 0
M  V30 5694 H 532.082 -0.588691 -2.9794 0
M  V30 5695 H 529.667 -0.353784 -1.45151 0
M  V30 5696 H 531.549 1.70261 -3.85473 0
M  V30 5697 H 530.224 1.83556 -2.66625 0
M  V30 5698 H 529.131 -0.220869 -3.73447 0
M  V30 5699 H 530.464 -0.270939 -4.91454 0
M  V30 5700 N 532.116 1.54067 -0.331816 0
M  V30 5701 C 533.532 1.59587 0.0205388 0
M  V30 5702 C 533.732 1.34813 1.49759 0
M  V30 5703 O 532.788 1.13661 2.25471 0
M  V30 5704 C 534.101 2.97959 -0.405103 0
M  V30 5705 C 535.649 3.10964 -0.356454 0
M  V30 5706 C 536.124 4.51694 -0.757384 0
M  V30 5707 N 537.615 4.57709 -0.71111 0
M  V30 5708 C 538.35 5.64729 -0.993427 0
M  V30 5709 N 537.846 6.79652 -1.3433 0
M  V30 5710 N 539.639 5.54546 -0.918442 0
M  V30 5711 H 531.79 1.68426 -1.29407 0
M  V30 5712 H 534.053 0.78819 -0.526745 0
M  V30 5713 H 533.759 3.21115 -1.43451 0
M  V30 5714 H 533.633 3.76524 0.225692 0
M  V30 5715 H 536.02 2.87538 0.663763 0
M  V30 5716 H 536.101 2.34484 -1.02229 0
M  V30 5717 H 535.745 4.75853 -1.77555 0
M  V30 5718 H 535.675 5.26555 -0.0691444 0
M  V30 5719 H 538.166 3.75176 -0.452883 0
M  V30 5720 H 538.479 7.57221 -1.54388 0
M  V30 5721 H 536.824 6.81128 -1.38164 0
M  V30 5722 H 540.015 4.63641 -0.644536 0
M  V30 5723 H 540.188 6.37861 -1.14181 0
M  V30 5724 N 533.594 0.0601682 1.57485 0
M  V30 5725 C 534.541 -0.91112 2.12055 0
M  V30 5726 C 535.511 -1.30298 1.03013 0
M  V30 5727 O 536.696 -1.39087 1.30612 0
M  V30 5728 C 533.836 -2.1775 2.67729 0
M  V30 5729 C 532.949 -1.83933 3.90887 0
M  V30 5730 C 532.084 -3.05096 4.34845 0
M  V30 5731 C 531.123 -2.67241 5.5068 0
M  V30 5732 N 530.26 -3.81127 5.8965 0
M  V30 5733 H 535.1 -0.43888 2.9475 0
M  V30 5734 H 532.637 -0.204995 1.45665 0
M  V30 5735 H 534.595 -2.91866 2.98111 0
M  V30 5736 H 533.225 -2.62535 1.87816 0
M  V30 5737 H 532.277 -0.999287 3.6704 0
M  V30 5738 H 533.589 -1.52074 4.75052 0
M  V30 5739 H 532.743 -3.87502 4.66827 0
M  V30 5740 H 531.482 -3.40139 3.49509 0
M  V30 5741 H 530.487 -1.83254 5.18361 0
M  V30 5742 H 531.712 -2.3338 6.37738 0
M  V30 5743 H 529.658 -4.15954 5.07266 0
M  V30 5744 H 529.575 -3.52997 6.68528 0
M  V30 5745 H 530.843 -4.64145 6.2625 0
M  V30 5746 N 535.072 -1.5615 -0.213296 0
M  V30 5747 C 536.32 -1.79191 -0.934612 0
M  V30 5748 C 536.641 -0.630112 -1.84539 0
M  V30 5749 O 535.911 0.35257 -1.92701 0
M  V30 5750 H 534.491 -0.660937 -0.348097 0
M  V30 5751 H 537.153 -1.93618 -0.22317 0
M  V30 5752 H 536.249 -2.71656 -1.53654 0
M  V30 5753 N 536.55 0.480323 -1.50102 0
M  V30 5754 C 537.778 1.25657 -1.64371 0
M  V30 5755 C 538.193 1.86011 -0.323316 0
M  V30 5756 O 537.55 1.68803 0.693682 0
M  V30 5757 C 537.601 2.37197 -2.728 0
M  V30 5758 O 537.322 1.7932 -3.9972 0
M  V30 5759 C 538.823 3.2823 -2.9796 0
M  V30 5760 H 536.043 0.380369 -0.552775 0
M  V30 5761 H 538.587 0.574379 -1.96268 0
M  V30 5762 H 536.742 3.01208 -2.43623 0
M  V30 5763 H 537.156 2.52701 -4.59611 0
M  V30 5764 H 538.63 4.02725 -3.77513 0
M  V30 5765 H 539.107 3.86462 -2.08671 0
M  V30 5766 H 539.713 2.69964 -3.28633 0
M  V30 5767 N 538.028 1.39524 0.732853 0
M  V30 5768 C 539.305 1.27373 1.48444 0
M  V30 5769 C 539.685 -0.115725 2.10783 0
M  V30 5770 O 539.033 -1.12713 1.98766 0
M  V30 5771 C 539.243 2.39966 2.53412 0
M  V30 5772 C 540.591 2.79384 3.19733 0
M  V30 5773 O 541.615 2.39431 2.63725 0
M  V30 5774 O 540.474 3.48353 4.21085 0
M  V30 5775 H 537.568 0.499272 0.659285 0
M  V30 5776 H 540.114 1.51403 0.766496 0
M  V30 5777 H 538.886 3.32845 2.05742 0
M  V30 5778 H 538.509 2.17612 3.32762 0
M  V30 5779 N 539.506 -0.963266 1.24736 0
M  V30 5780 C 540.416 -2.09246 1.06082 0
M  V30 5781 C 541.432 -1.74 0.000363101 0
M  V30 5782 O 542.608 -2.0041 0.199479 0
M  V30 5783 C 539.673 -3.40115 0.672498 0
M  V30 5784 C 538.734 -3.89282 1.80993 0
M  V30 5785 C 537.967 -5.13905 1.44004 0
M  V30 5786 O 538.19 -5.69434 0.331835 0
M  V30 5787 O 537.124 -5.57566 2.26723 0
M  V30 5788 H 540.95 -2.27881 2.00759 0
M  V30 5789 H 538.535 -1.07649 1.03595 0
M  V30 5790 H 540.417 -4.18797 0.467668 0
M  V30 5791 H 539.092 -3.22771 -0.245102 0
M  V30 5792 H 537.999 -3.11642 2.06955 0
M  V30 5793 H 539.332 -4.1111 2.70646 0
M  V30 5794 N 540.985 -1.06182 -1.16461 0
M  V30 5795 C 541.915 -0.692861 -2.22984 0
M  V30 5796 C 542.896 0.314122 -1.67174 0
M  V30 5797 O 544.081 0.189499 -1.93273 0
M  V30 5798 C 541.211 -0.07732 -3.47214 0
M  V30 5799 C 540.165 -1.01015 -4.15909 0
M  V30 5800 C 539.491 -0.257973 -5.34077 0
M  V30 5801 C 540.791 -2.33868 -4.67015 0
M  V30 5802 H 542.485 -1.58343 -2.54102 0
M  V30 5803 H 540.031 -0.76279 -1.22137 0
M  V30 5804 H 541.984 0.19266 -4.20959 0
M  V30 5805 H 540.708 0.848254 -3.15392 0
M  V30 5806 H 539.367 -1.26486 -3.44088 0
M  V30 5807 H 539.015 0.670684 -4.98509 0
M  V30 5808 H 538.715 -0.879638 -5.80979 0
M  V30 5809 H 540.239 0.00448788 -6.106 0
M  V30 5810 H 541.653 -2.1279 -5.32347 0
M  V30 5811 H 540.05 -2.91522 -5.24533 0
M  V30 5812 H 541.12 -2.97019 -3.83286 0
M  V30 5813 N 542.463 1.3308 -0.844243 0
M  V30 5814 C 543.693 2.01515 -0.455541 0
M  V30 5815 C 544.101 1.63655 0.949406 0
M  V30 5816 O 543.444 0.84848 1.62931 0
M  V30 5817 C 543.506 3.55967 -0.502801 0
M  V30 5818 C 543.17 4.17222 -1.86481 0
M  V30 5819 C 544.167 4.36205 -2.8288 0
M  V30 5820 C 541.852 4.53528 -2.15911 0
M  V30 5821 C 543.846 4.90649 -4.06869 0
M  V30 5822 C 541.533 5.07679 -3.40155 0
M  V30 5823 C 542.531 5.26186 -4.35451 0
M  V30 5824 O 542.219 5.79183 -5.57496 0
M  V30 5825 H 541.951 0.65199 -0.178565 0
M  V30 5826 H 544.505 1.70867 -1.1399 0
M  V30 5827 H 542.735 3.85965 0.23836 0
M  V30 5828 H 544.424 4.05688 -0.131169 0
M  V30 5829 H 545.19 4.085 -2.61444 0
M  V30 5830 H 541.069 4.38414 -1.42528 0
M  V30 5831 H 544.613 5.0501 -4.81259 0
M  V30 5832 H 540.51 5.34815 -3.61446 0
M  V30 5833 H 541.278 5.97591 -5.5931 0
M  V30 5834 N 543.941 0.601185 1.45683 0
M  V30 5835 C 544.904 -0.111398 2.28929 0
M  V30 5836 C 545.904 -0.801246 1.39416 0
M  V30 5837 O 547.094 -0.650383 1.61603 0
M  V30 5838 C 544.226 -1.16773 3.20276 0
M  V30 5839 H 545.419 0.620412 2.93413 0
M  V30 5840 H 542.972 0.359946 1.52099 0
M  V30 5841 H 543.707 -1.93051 2.60579 0
M  V30 5842 H 543.492 -0.677358 3.86205 0
M  V30 5843 H 544.982 -1.66698 3.82886 0
M  V30 5844 N 545.419 -1.53889 0.339982 0
M  V30 5845 C 546.665 -2.01152 -0.258003 0
M  V30 5846 C 546.998 -1.22749 -1.50487 0
M  V30 5847 O 546.273 -0.314156 -1.91946 0
M  V30 5848 C 546.556 -3.55468 -0.575717 0
M  V30 5849 C 546.409 -4.44584 0.682996 0
M  V30 5850 C 547.728 -4.1768 -1.38677 0
M  V30 5851 H 544.847 -0.731198 -0.0922992 0
M  V30 5852 H 547.489 -1.84352 0.459814 0
M  V30 5853 H 545.639 -3.69914 -1.18725 0
M  V30 5854 H 547.311 -4.41981 1.32102 0
M  V30 5855 H 545.554 -4.13592 1.3086 0
M  V30 5856 H 546.225 -5.5043 0.416001 0
M  V30 5857 H 548.701 -4.0691 -0.869705 0
M  V30 5858 H 547.577 -5.25734 -1.57783 0
M  V30 5859 H 547.838 -3.72069 -2.38782 0
M  V30 5860 N 546.897 -0.0685191 -1.57451 0
M  V30 5861 C 547.844 0.899861 -2.12535 0
M  V30 5862 C 548.814 1.29749 -1.03703 0
M  V30 5863 O 549.999 1.38392 -1.31348 0
M  V30 5864 C 547.139 2.16328 -2.6888 0
M  V30 5865 C 546.252 1.81857 -3.91857 0
M  V30 5866 C 545.387 3.02786 -4.36457 0
M  V30 5867 C 544.426 2.64317 -5.5209 0
M  V30 5868 N 543.563 3.77994 -5.91663 0
M  V30 5869 H 548.403 0.423243 -2.94979 0
M  V30 5870 H 545.94 0.197268 -1.45771 0
M  V30 5871 H 547.898 2.90281 -2.99655 0
M  V30 5872 H 546.528 2.61536 -1.89206 0
M  V30 5873 H 545.58 0.979808 -3.67565 0
M  V30 5874 H 546.892 1.49553 -4.75852 0
M  V30 5875 H 546.046 3.85021 -4.68875 0
M  V30 5876 H 544.785 3.38281 -3.51308 0
M  V30 5877 H 543.79 1.80503 -5.19325 0
M  V30 5878 H 545.015 2.29995 -6.38967 0
M  V30 5879 H 542.961 4.13258 -5.09464 0
M  V30 5880 H 542.878 3.49447 -6.7039 0
M  V30 5881 H 544.146 4.60818 -6.28703 0
M  V30 5882 N 548.375 1.56261 0.205012 0
M  V30 5883 C 549.624 1.79236 0.925058 0
M  V30 5884 C 549.937 0.640011 1.84833 0
M  V30 5885 O 551.143 0.753809 2.60826 0
M  V30 5886 C 549.599 3.17475 1.69522 0
M  V30 5887 C 549.207 4.40482 0.817269 0
M  V30 5888 C 550.951 3.49766 2.4055 0
M  V30 5889 C 548.858 5.69744 1.58573 0
M  V30 5890 H 547.788 0.668287 0.349153 0
M  V30 5891 H 550.439 1.82629 0.178544 0
M  V30 5892 H 548.821 3.08304 2.48526 0
M  V30 5893 H 549.995 4.60752 0.0665988 0
M  V30 5894 H 548.31 4.15827 0.218316 0
M  V30 5895 H 550.907 4.43573 2.98575 0
M  V30 5896 H 551.25 2.73041 3.14252 0
M  V30 5897 H 551.783 3.60341 1.68522 0
M  V30 5898 H 548.522 6.49407 0.891679 0
M  V30 5899 H 548.042 5.53509 2.31059 0
M  V30 5900 H 549.721 6.1051 2.14212 0
M  V30 5901 N 549.853 -0.472356 1.50355 0
M  V30 5902 C 550.783 -1.57859 1.72055 0
M  V30 5903 C 551.764 -1.60283 0.569505 0
M  V30 5904 O 552.949 -1.7657 0.808503 0
M  V30 5905 C 550.079 -2.96191 1.81351 0
M  V30 5906 C 549.033 -3.08633 2.96529 0
M  V30 5907 C 548.359 -4.486 2.90968 0
M  V30 5908 C 549.659 -2.85969 4.37057 0
M  V30 5909 H 551.353 -1.39953 2.64676 0
M  V30 5910 H 548.899 -0.671846 1.27367 0
M  V30 5911 H 550.852 -3.73507 1.95117 0
M  V30 5912 H 549.576 -3.15251 0.853502 0
M  V30 5913 H 548.235 -2.33749 2.82413 0
M  V30 5914 H 547.883 -4.64577 1.92815 0
M  V30 5915 H 547.583 -4.57861 3.68289 0
M  V30 5916 H 549.107 -5.27938 3.0678 0
M  V30 5917 H 550.521 -3.53036 4.51706 0
M  V30 5918 H 548.918 -3.06677 5.15819 0
M  V30 5919 H 549.988 -1.81838 4.49514 0
M  V30 5920 N 551.331 -1.39911 -0.725443 0
M  V30 5921 C 552.278 -1.39393 -1.83952 0
M  V30 5922 C 553.248 -0.252249 -1.64173 0
M  V30 5923 O 554.433 -0.44882 -1.85446 0
M  V30 5924 C 551.573 -1.25262 -3.21564 0
M  V30 5925 C 550.686 -2.49054 -3.52982 0
M  V30 5926 C 549.821 -2.27439 -4.80047 0
M  V30 5927 C 548.86 -3.46857 -5.04338 0
M  V30 5928 N 547.997 -3.24499 -6.22611 0
M  V30 5929 H 552.837 -2.34622 -1.83729 0
M  V30 5930 H 550.374 -1.16537 -0.897636 0
M  V30 5931 H 552.332 -1.15077 -4.01015 0
M  V30 5932 H 550.962 -0.33657 -3.21041 0
M  V30 5933 H 550.014 -2.69805 -2.6816 0
M  V30 5934 H 551.326 -3.37973 -3.66846 0
M  V30 5935 H 550.48 -2.14551 -5.67497 0
M  V30 5936 H 549.219 -1.35929 -4.68374 0
M  V30 5937 H 548.224 -3.60232 -4.15346 0
M  V30 5938 H 549.449 -4.3928 -5.17889 0
M  V30 5939 H 547.395 -2.35663 -6.12208 0
M  V30 5940 H 547.312 -4.06978 -6.37106 0
M  V30 5941 H 548.58 -3.15325 -7.12875 0
M  V30 5942 N 552.809 0.956637 -1.25245 0
M  V30 5943 C 553.756 2.053 -1.05454 0
M  V30 5944 C 554.726 1.66062 0.0356889 0
M  V30 5945 O 555.911 1.90415 -0.121099 0
M  V30 5946 C 553.051 3.38391 -0.677191 0
M  V30 5947 C 552.164 3.90758 -1.84206 0
M  V30 5948 C 551.299 5.12165 -1.40926 0
M  V30 5949 C 550.338 5.56757 -2.54338 0
M  V30 5950 N 549.475 6.69376 -2.11848 0
M  V30 5951 H 554.315 2.21562 -1.99284 0
M  V30 5952 H 551.852 1.08578 -0.992434 0
M  V30 5953 H 553.81 4.1488 -0.43938 0
M  V30 5954 H 552.44 3.22021 0.224127 0
M  V30 5955 H 551.492 3.10808 -2.19323 0
M  V30 5956 H 552.804 4.19802 -2.69383 0
M  V30 5957 H 551.958 5.96065 -1.13098 0
M  V30 5958 H 550.697 4.84832 -0.528175 0
M  V30 5959 H 549.702 4.71423 -2.82913 0
M  V30 5960 H 550.927 5.861 -3.43022 0
M  V30 5961 H 548.873 6.43756 -1.26153 0
M  V30 5962 H 548.79 6.97927 -2.90574 0
M  V30 5963 H 550.058 7.5669 -1.87191 0
M  V30 5964 N 554.287 1.06798 1.15896 0
M  V30 5965 C 555.564 0.701057 1.82605 0
M  V30 5966 C 555.944 -0.817066 1.94646 0
M  V30 5967 O 555.292 -1.72933 1.49353 0
M  V30 5968 C 555.502 1.40895 3.19296 0
M  V30 5969 C 556.85 1.55744 3.95005 0
M  V30 5970 O 557.874 1.36927 3.28831 0
M  V30 5971 O 556.733 1.86658 5.13635 0
M  V30 5972 H 553.827 0.248791 0.78869 0
M  V30 5973 H 556.373 1.16857 1.23055 0
M  V30 5974 H 555.145 2.4439 3.05596 0
M  V30 5975 H 554.768 0.931847 3.86526 0
M  V30 5976 N 555.766 -1.3263 0.851289 0
M  V30 5977 C 557.012 -1.9766 0.453694 0
M  V30 5978 C 557.345 -1.67225 -0.987396 0
M  V30 5979 O 556.62 -0.958693 -1.69232 0
M  V30 5980 C 556.903 -3.5344 0.68936 0
M  V30 5981 C 556.756 -3.93517 2.17862 0
M  V30 5982 C 558.075 -4.39866 0.143555 0
M  V30 5983 H 555.194 -0.717989 0.166314 0
M  V30 5984 H 557.836 -1.57068 1.06909 0
M  V30 5985 H 555.986 -3.88147 0.165546 0
M  V30 5986 H 557.658 -3.69006 2.76826 0
M  V30 5987 H 555.901 -3.42798 2.65841 0
M  V30 5988 H 556.572 -5.02065 2.29422 0
M  V30 5989 H 559.048 -4.11875 0.591451 0
M  V30 5990 H 557.924 -5.47858 0.338043 0
M  V30 5991 H 558.185 -4.31696 -0.953466 0
M  V30 5992 N 557.244 -0.608902 -1.45362 0
M  V30 5993 C 558.49 -0.104762 -2.02529 0
M  V30 5994 C 558.823 1.26191 -1.47613 0
M  V30 5995 O 558.098 1.8327 -0.65134 0
M  V30 5996 C 558.381 -0.0672661 -3.60037 0
M  V30 5997 C 558.234 -1.4647 -4.25284 0
M  V30 5998 C 559.553 0.619877 -4.35713 0
M  V30 5999 H 556.672 -0.0395438 -0.735938 0
M  V30 6000 H 559.314 -0.781126 -1.73201 0
M  V30 6001 H 557.464 0.50871 -3.85155 0
M  V30 6002 H 559.136 -2.08785 -4.11347 0
M  V30 6003 H 557.379 -2.02502 -3.83634 0
M  V30 6004 H 558.05 -1.39069 -5.34195 0
M  V30 6005 H 560.526 0.130297 -4.15896 0
M  V30 6006 H 559.402 0.615224 -5.45441 0
M  V30 6007 H 559.663 1.68621 -4.0868 0
M  V30 6008 N 558.722 1.53707 -0.348139 0
M  V30 6009 C 559.971 2.0017 0.247992 0
M  V30 6010 C 560.284 1.23983 1.51286 0
M  V30 6011 O 561.49 1.60946 2.18652 0
M  V30 6012 C 559.946 3.56515 0.492459 0
M  V30 6013 C 559.554 4.41562 -0.756777 0
M  V30 6014 C 561.298 4.11381 1.0472 0
M  V30 6015 C 559.205 5.89426 -0.482856 0
M  V30 6016 H 558.135 0.747806 0.0964452 0
M  V30 6017 H 560.786 1.77532 -0.464179 0
M  V30 6018 H 559.168 3.75236 1.26545 0
M  V30 6019 H 560.342 4.34615 -1.53122 0
M  V30 6020 H 558.657 3.97711 -1.23348 0
M  V30 6021 H 561.254 5.19468 1.26717 0
M  V30 6022 H 561.597 3.64885 2.00411 0
M  V30 6023 H 562.13 3.96389 0.334801 0
M  V30 6024 H 558.869 6.40164 -1.40962 0
M  V30 6025 H 558.389 5.99264 0.253416 0
M  V30 6026 H 560.068 6.4692 -0.101816 0
M  V30 6027 N 560.2 0.0768682 1.57412 0
M  V30 6028 C 561.132 -0.918248 2.10002 0
M  V30 6029 C 562.145 -1.25808 1.03325 0
M  V30 6030 O 563.334 -1.21438 1.30824 0
M  V30 6031 C 560.434 -2.23263 2.54964 0
M  V30 6032 C 559.607 -2.07088 3.8527 0
M  V30 6033 C 558.666 -3.21876 4.16272 0
M  V30 6034 O 557.692 -2.96643 4.8579 0
M  V30 6035 N 558.894 -4.4712 3.70221 0
M  V30 6036 H 561.659 -0.469209 2.96004 0
M  V30 6037 H 559.22 -0.108725 1.61535 0
M  V30 6038 H 561.212 -2.9897 2.72762 0
M  V30 6039 H 559.782 -2.59649 1.74072 0
M  V30 6040 H 559.002 -1.15818 3.76802 0
M  V30 6041 H 560.29 -1.93537 4.70554 0
M  V30 6042 H 559.688 -4.70506 3.1407 0
M  V30 6043 H 558.245 -5.19837 3.93209 0
M  V30 6044 N 561.678 -1.56367 -0.196722 0
M  V30 6045 C 562.955 -1.71359 -0.943159 0
M  V30 6046 C 563.335 -0.631192 -2.01443 0
M  V30 6047 O 562.683 0.358071 -2.25677 0
M  V30 6048 C 562.893 -3.13623 -1.53106 0
M  V30 6049 C 564.241 -3.73806 -2.01381 0
M  V30 6050 O 565.265 -3.16742 -1.62951 0
M  V30 6051 O 564.124 -4.73951 -2.7209 0
M  V30 6052 H 561.218 -0.698851 -0.442195 0
M  V30 6053 H 563.764 -1.68672 -0.186547 0
M  V30 6054 H 562.536 -3.83873 -0.758785 0
M  V30 6055 H 562.159 -3.20532 -2.35255 0
M  V30 6056 N 563.156 0.464375 -1.50603 0
M  V30 6057 C 564.433 1.22549 -1.5245 0
M  V30 6058 C 564.813 2.09327 -0.273035 0
M  V30 6059 O 564.161 2.16074 0.743242 0
M  V30 6060 C 564.371 2.05074 -2.82393 0
M  V30 6061 C 565.719 2.63036 -3.33313 0
M  V30 6062 O 566.743 2.1531 -2.8376 0
M  V30 6063 O 565.602 3.5001 -4.19709 0
M  V30 6064 H 562.696 0.556471 -0.611775 0
M  V30 6065 H 565.242 0.475648 -1.62898 0
M  V30 6066 H 564.014 1.41169 -3.64948 0
M  V30 6067 H 563.637 2.87179 -2.7498 0
M  V30 6068 N 564.634 1.40294 0.718013 0
M  V30 6069 C 565.911 1.2894 1.47084 0
M  V30 6070 C 566.291 -0.0933625 2.10893 0
M  V30 6071 O 565.639 -1.10598 1.99951 0
M  V30 6072 C 565.849 2.4264 2.50852 0
M  V30 6073 C 567.197 2.8276 3.16752 0
M  V30 6074 O 568.221 2.42215 2.61171 0
M  V30 6075 O 567.08 3.528 4.17366 0
M  V30 6076 H 564.174 0.506236 0.653952 0
M  V30 6077 H 566.72 1.52208 0.750394 0
M  V30 6078 H 565.492 3.35009 2.022 0
M  V30 6079 H 565.115 2.21129 3.30435 0
M  V30 6080 N 566.112 -0.949982 1.2575 0
M  V30 6081 C 567.358 -1.69766 1.10938 0
M  V30 6082 C 567.691 -1.91056 -0.348028 0
M  V30 6083 O 566.966 -1.48488 -1.25625 0
M  V30 6084 C 567.249 -3.07779 1.86933 0
M  V30 6085 C 567.102 -2.9387 3.4053 0
M  V30 6086 C 568.421 -4.07749 1.65616 0
M  V30 6087 H 565.54 -0.616144 0.404396 0
M  V30 6088 H 568.182 -1.10394 1.54639 0
M  V30 6089 H 566.332 -3.58462 1.4979 0
M  V30 6090 H 568.004 -2.50476 3.87375 0
M  V30 6091 H 566.247 -2.29686 3.68004 0
M  V30 6092 H 566.918 -3.91719 3.88922 0
M  V30 6093 H 569.394 -3.65994 1.97959 0
M  V30 6094 H 568.27 -5.02348 2.21218 0
M  V30 6095 H 568.531 -4.38029 0.598595 0
M  V30 6096 N 567.59 -1.07411 -1.15328 0
M  V30 6097 C 568.5 -0.706438 -2.23711 0
M  V30 6098 C 569.516 0.282586 -1.7169 0
M  V30 6099 O 570.692 0.129066 -2.00986 0
M  V30 6100 C 567.757 -0.11048 -3.46524 0
M  V30 6101 C 566.818 -1.15282 -4.13532 0
M  V30 6102 C 566.051 -0.585205 -5.30482 0
M  V30 6103 O 566.274 0.598549 -5.67251 0
M  V30 6104 O 565.208 -1.33039 -5.87013 0
M  V30 6105 H 569.034 -1.61031 -2.57493 0
M  V30 6106 H 566.619 -0.847113 -1.23062 0
M  V30 6107 H 568.501 0.21957 -4.20828 0
M  V30 6108 H 567.176 0.766703 -3.14489 0
M  V30 6109 H 566.083 -1.53523 -3.41147 0
M  V30 6110 H 567.416 -2.00192 -4.49649 0
M  V30 6111 N 569.068 1.32177 -0.85831 0
M  V30 6112 C 570.308 1.98927 -0.469822 0
M  V30 6113 C 570.672 1.66423 0.95746 0
M  V30 6114 O 571.873 2.26293 1.45069 0
M  V30 6115 C 570.144 3.50352 -0.706288 0
M  V30 6116 S 571.703 4.36824 -0.415918 0
M  V30 6117 H 568.521 0.688909 -0.175855 0
M  V30 6118 H 571.123 1.60807 -1.11181 0
M  V30 6119 H 569.827 3.71497 -1.74407 0
M  V30 6120 H 569.358 3.93367 -0.0508568 0
M  V30 6121 H 571.373 4.90398 0.756581 0
M  V30 6122 N 570.547 0.616602 1.45037 0
M  V30 6123 C 571.775 0.121968 2.0654 0
M  V30 6124 C 572.19 -1.19743 1.45969 0
M  V30 6125 O 571.547 -1.73133 0.577168 0
M  V30 6126 C 571.598 -0.0145171 3.61497 0
M  V30 6127 O 571.319 1.25269 4.19809 0
M  V30 6128 C 572.82 -0.539555 4.40004 0
M  V30 6129 H 570.04 0.0729837 0.667019 0
M  V30 6130 H 572.584 0.846891 1.8614 0
M  V30 6131 H 570.739 -0.689809 3.81209 0
M  V30 6132 H 571.153 1.08816 5.13088 0
M  V30 6133 H 572.627 -0.584112 5.48901 0
M  V30 6134 H 573.104 -1.56368 4.10421 0
M  V30 6135 H 573.71 0.101995 4.25178 0
M  V30 6136 N 572.025 -1.5352 0.356285 0
M  V30 6137 C 572.958 -2.2177 -0.537913 0
M  V30 6138 C 573.936 -1.20626 -1.09033 0
M  V30 6139 O 575.12 -1.49494 -1.1482 0
M  V30 6140 C 572.247 -2.90513 -1.74126 0
M  V30 6141 C 571.293 -4.05652 -1.31715 0
M  V30 6142 S 572.126 -5.34505 -0.326236 0
M  V30 6143 C 573.282 -6.06757 -1.53612 0
M  V30 6144 H 573.515 -2.97271 0.0417411 0
M  V30 6145 H 571.048 -1.53761 0.140372 0
M  V30 6146 H 573.006 -3.30735 -2.43155 0
M  V30 6147 H 571.667 -2.14754 -2.29215 0
M  V30 6148 H 570.86 -4.52733 -2.21471 0
M  V30 6149 H 570.462 -3.67272 -0.706183 0
M  V30 6150 H 572.754 -6.30924 -2.46863 0
M  V30 6151 H 573.697 -6.99395 -1.10687 0
M  V30 6152 H 574.105 -5.3708 -1.73796 0
M  V30 6153 N 573.503 -0.0852151 -1.57369 0
M  V30 6154 C 574.749 0.581666 -1.94279 0
M  V30 6155 C 575.082 1.68444 -0.966446 0
M  V30 6156 O 574.357 1.945 0.00215277 0
M  V30 6157 C 574.64 1.14609 -3.41375 0
M  V30 6158 C 574.493 0.0490414 -4.49773 0
M  V30 6159 C 575.812 2.04751 -3.8957 0
M  V30 6160 H 572.931 0.209972 -0.706456 0
M  V30 6161 H 575.573 -0.153915 -1.89376 0
M  V30 6162 H 573.723 1.77297 -3.45685 0
M  V30 6163 H 575.395 -0.584721 -4.57579 0
M  V30 6164 H 573.638 -0.618638 -4.29366 0
M  V30 6165 H 574.309 0.484601 -5.49869 0
M  V30 6166 H 576.785 1.51981 -3.87351 0
M  V30 6167 H 575.661 2.41173 -4.93079 0
M  V30 6168 H 575.922 2.96107 -3.28288 0
M  V30 6169 N 574.981 1.5647 0.188427 0
M  V30 6170 C 575.891 1.98285 1.2538 0
M  V30 6171 C 576.907 0.891535 1.49424 0
M  V30 6172 O 578.083 1.19782 1.61908 0
M  V30 6173 C 575.148 2.31965 2.57669 0
M  V30 6174 C 574.209 3.54838 2.41638 0
M  V30 6175 C 573.442 3.86901 3.67618 0
M  V30 6176 O 573.665 3.20163 4.72072 0
M  V30 6177 O 572.599 4.80309 3.62749 0
M  V30 6178 H 576.425 2.89145 0.928912 0
M  V30 6179 H 574.01 1.44112 0.393955 0
M  V30 6180 H 575.892 2.54673 3.35737 0
M  V30 6181 H 574.567 1.44271 2.89771 0
M  V30 6182 H 573.474 3.37369 1.61658 0
M  V30 6183 H 574.807 4.43019 2.14465 0
M  V30 6184 N 576.459 -0.456382 1.50847 0
M  V30 6185 C 577.406 -1.55249 1.70782 0
M  V30 6186 C 578.376 -1.56757 0.549231 0
M  V30 6187 O 579.561 -1.74061 0.7815 0
M  V30 6188 C 576.701 -2.93118 1.82143 0
M  V30 6189 C 575.814 -3.01285 3.09598 0
M  V30 6190 C 574.949 -4.30159 3.11667 0
M  V30 6191 C 573.988 -4.32124 4.33515 0
M  V30 6192 N 573.125 -5.52492 4.3324 0
M  V30 6193 H 577.965 -1.37555 2.64353 0
M  V30 6194 H 575.502 -0.668543 1.3103 0
M  V30 6195 H 577.46 -3.73088 1.86711 0
M  V30 6196 H 576.09 -3.09413 0.919978 0
M  V30 6197 H 575.142 -2.14096 3.14431 0
M  V30 6198 H 576.454 -2.98597 3.99551 0
M  V30 6199 H 575.608 -5.18489 3.15046 0
M  V30 6200 H 574.347 -4.35477 2.1957 0
M  V30 6201 H 573.352 -3.42189 4.30333 0
M  V30 6202 H 574.577 -4.28485 5.26856 0
M  V30 6203 H 572.523 -5.58567 3.44004 0
M  V30 6204 H 572.44 -5.51605 5.16979 0
M  V30 6205 H 573.708 -6.42906 4.40786 0
M  V30 6206 N 577.937 -1.40673 -0.710563 0
M  V30 6207 C 579.353 -1.22813 -1.01928 0
M  V30 6208 C 579.553 -0.10687 -2.01216 0
M  V30 6209 O 578.609 0.533614 -2.46797 0
M  V30 6210 C 579.922 -2.57178 -1.5582 0
M  V30 6211 C 581.47 -2.64233 -1.67779 0
M  V30 6212 C 581.945 -3.98879 -2.25076 0
M  V30 6213 N 583.436 -4.00647 -2.32456 0
M  V30 6214 C 584.171 -5.01621 -2.77784 0
M  V30 6215 N 583.667 -6.12989 -3.22826 0
M  V30 6216 N 585.46 -4.88988 -2.77213 0
M  V30 6217 H 577.611 -2.12335 -0.05253 0
M  V30 6218 H 579.874 -0.9441 -0.085898 0
M  V30 6219 H 579.58 -3.39903 -0.903249 0
M  V30 6220 H 579.454 -2.78618 -2.54267 0
M  V30 6221 H 581.841 -1.81876 -2.3239 0
M  V30 6222 H 581.922 -2.46619 -0.679178 0
M  V30 6223 H 581.566 -4.81678 -1.61086 0
M  V30 6224 H 581.496 -4.13826 -3.25661 0
M  V30 6225 H 583.987 -3.20231 -2.0065 0
M  V30 6226 H 584.3 -6.85921 -3.55995 0
M  V30 6227 H 582.645 -6.16547 -3.20773 0
M  V30 6228 H 585.836 -4.01075 -2.41363 0
M  V30 6229 H 586.009 -5.67822 -3.12221 0
M  V30 6230 N 579.415 0.9433 -1.26252 0
M  V30 6231 C 580.661 1.69175 -1.11837 0
M  V30 6232 C 580.994 1.91238 0.337891 0
M  V30 6233 O 580.269 1.49152 1.24836 0
M  V30 6234 C 580.552 3.06783 -1.88563 0
M  V30 6235 C 580.405 2.9206 -3.42083 0
M  V30 6236 C 581.724 4.06865 -1.67776 0
M  V30 6237 H 578.843 0.61399 -0.407658 0
M  V30 6238 H 581.485 1.09572 -1.55222 0
M  V30 6239 H 579.635 3.57663 -1.51689 0
M  V30 6240 H 581.307 2.48419 -3.88698 0
M  V30 6241 H 579.55 2.27731 -3.69217 0
M  V30 6242 H 580.221 3.89651 -3.90994 0
M  V30 6243 H 582.697 3.64939 -1.99897 0
M  V30 6244 H 581.573 5.01168 -2.23879 0
M  V30 6245 H 581.834 4.37705 -0.621816 0
M  V30 6246 N 580.893 1.08022 1.14757 0
M  V30 6247 C 581.823 0.728248 2.21853 0
M  V30 6248 C 582.804 -0.287486 1.67653 0
M  V30 6249 O 583.989 -0.158727 1.9355 0
M  V30 6250 C 581.119 0.132549 3.47047 0
M  V30 6251 C 580.073 1.07619 4.14249 0
M  V30 6252 C 579.399 0.342907 5.33599 0
M  V30 6253 C 580.699 2.41268 4.63235 0
M  V30 6254 H 582.393 1.62365 2.51551 0
M  V30 6255 H 579.939 0.782125 1.20908 0
M  V30 6256 H 581.892 -0.125665 4.21213 0
M  V30 6257 H 580.616 -0.797971 3.16702 0
M  V30 6258 H 579.275 1.31944 3.42033 0
M  V30 6259 H 578.923 -0.59129 4.99513 0
M  V30 6260 H 578.623 0.971955 5.79506 0
M  V30 6261 H 580.147 0.0926538 6.1053 0
M  V30 6262 H 581.561 2.21232 5.28894 0
M  V30 6263 H 579.958 2.9983 5.19829 0
M  V30 6264 H 581.028 3.03079 3.78512 0
M  V30 6265 N 582.371 -1.3172 0.865308 0
M  V30 6266 C 583.334 -2.26918 0.322627 0
M  V30 6267 C 584.334 -1.52031 -0.523751 0
M  V30 6268 O 585.524 -1.70973 -0.333727 0
M  V30 6269 C 582.656 -3.36558 -0.542338 0
M  V30 6270 H 583.849 -2.76432 1.16298 0
M  V30 6271 H 581.402 -1.42573 0.640512 0
M  V30 6272 H 582.137 -2.92329 -1.40407 0
M  V30 6273 H 581.922 -3.92048 0.0636395 0
M  V30 6274 H 583.412 -4.07465 -0.91446 0
M  V30 6275 N 583.85 -0.624285 -1.44708 0
M  V30 6276 C 584.779 0.0717025 -2.3339 0
M  V30 6277 C 585.76 0.841814 -1.47809 0
M  V30 6278 O 586.946 0.809056 -1.76544 0
M  V30 6279 C 584.076 1.05852 -3.30776 0
M  V30 6280 C 583.029 0.400503 -4.26122 0
M  V30 6281 C 582.356 1.49674 -5.13324 0
M  V30 6282 C 583.656 -0.688924 -5.17737 0
M  V30 6283 H 585.35 -0.668819 -2.91834 0
M  V30 6284 H 582.896 -0.32308 -1.40329 0
M  V30 6285 H 584.849 1.5541 -3.91696 0
M  V30 6286 H 583.572 1.82984 -2.70526 0
M  V30 6287 H 582.231 -0.0743687 -3.66525 0
M  V30 6288 H 581.88 2.25877 -4.49431 0
M  V30 6289 H 581.58 1.06188 -5.77926 0
M  V30 6290 H 583.104 1.99427 -5.77115 0
M  V30 6291 H 584.518 -0.276724 -5.72632 0
M  V30 6292 H 582.915 -1.04652 -5.90904 0
M  V30 6293 H 583.985 -1.55884 -4.5916 0
M  V30 6294 N 585.328 1.53329 -0.364422 0
M  V30 6295 C 586.739 1.86345 0.115039 0
M  V30 6296 C 587.09 1.28505 1.4826 0
M  V30 6297 O 586.215 0.606639 2.07723 0
M  V30 6298 C 586.81 3.38114 0.215522 0
M  V30 6299 C 585.369 3.70932 0.639237 0
M  V30 6300 C 584.516 2.76471 -0.214261 0
M  V30 6301 H 587.467 1.47593 -0.583258 0
M  V30 6302 H 587.488 3.66031 1.0393 0
M  V30 6303 H 587 3.80182 -0.779948 0
M  V30 6304 H 585.101 3.3442 1.64298 0
M  V30 6305 H 585.214 4.77302 0.41465 0
M  V30 6306 H 583.578 2.52724 0.316678 0
M  V30 6307 H 584.361 3.21373 -1.20725 0
M  V30 6308 N 586.806 0.0935595 1.57322 0
M  V30 6309 C 588.054 -0.569383 1.93913 0
M  V30 6310 C 588.375 -1.68817 0.976009 0
M  V30 6311 O 587.645 -1.9588 0.0278099 0
M  V30 6312 H 586.225 -0.21332 0.715894 0
M  V30 6313 H 588.887 0.156531 1.9427 0
M  V30 6314 H 587.983 -0.980577 2.96296 0
M  V30 6315 N 588.284 -1.56567 -0.180126 0
M  V30 6316 C 589.231 -1.95725 -1.22313 0
M  V30 6317 C 590.201 -0.819911 -1.44453 0
M  V30 6318 O 591.386 -1.07931 -1.57339 0
M  V30 6319 C 588.526 -2.31484 -2.55947 0
M  V30 6320 C 587.639 -3.58354 -2.4126 0
M  V30 6321 C 586.774 -3.83366 -3.67701 0
M  V30 6322 C 585.813 -5.03612 -3.47909 0
M  V30 6323 N 584.95 -5.24802 -4.66398 0
M  V30 6324 H 589.79 -2.84642 -0.882198 0
M  V30 6325 H 587.327 -1.4085 -0.42422 0
M  V30 6326 H 589.285 -2.50237 -3.33822 0
M  V30 6327 H 587.915 -1.45689 -2.88053 0
M  V30 6328 H 586.967 -3.47565 -1.54606 0
M  V30 6329 H 588.279 -4.46386 -2.22577 0
M  V30 6330 H 587.433 -4.02439 -4.54013 0
M  V30 6331 H 586.172 -2.93692 -3.89353 0
M  V30 6332 H 585.177 -4.84447 -2.59983 0
M  V30 6333 H 586.402 -5.94809 -3.27688 0
M  V30 6334 H 584.348 -4.38079 -4.88286 0
M  V30 6335 H 584.265 -6.07041 -4.50596 0
M  V30 6336 H 585.533 -5.48346 -5.54019 0
M  V30 6337 N 589.762 0.448376 -1.51087 0
M  V30 6338 C 591.173 1.0286 -1.5581 0
M  V30 6339 C 591.524 1.92583 -0.374989 0
M  V30 6340 O 590.649 2.10316 0.509533 0
M  V30 6341 C 591.244 1.87223 -2.8237 0
M  V30 6342 C 589.803 2.40314 -2.897 0
M  V30 6343 C 588.95 1.19238 -2.50355 0
M  V30 6344 H 591.901 0.230075 -1.57023 0
M  V30 6345 H 591.922 2.72553 -2.6551 0
M  V30 6346 H 591.434 1.21894 -3.68461 0
M  V30 6347 H 589.535 3.09129 -2.08014 0
M  V30 6348 H 589.648 2.73866 -3.93108 0
M  V30 6349 H 588.012 1.53428 -2.03303 0
M  V30 6350 H 588.795 0.555367 -3.38778 0
M  V30 6351 N 591.24 1.41047 0.703093 0
M  V30 6352 C 592.651 1.35657 1.28274 0
M  V30 6353 C 593.002 0.0360309 1.96167 0
M  V30 6354 O 592.127 -0.865833 1.98324 0
M  V30 6355 C 592.722 2.45707 2.33267 0
M  V30 6356 C 591.281 2.43738 2.86825 0
M  V30 6357 C 590.428 2.25941 1.60767 0
M  V30 6358 H 593.379 1.50672 0.49836 0
M  V30 6359 H 593.4 2.14333 3.14391 0
M  V30 6360 H 592.912 3.41805 1.83824 0
M  V30 6361 H 591.013 1.51375 3.40465 0
M  V30 6362 H 591.126 3.39779 3.37768 0
M  V30 6363 H 589.49 1.73681 1.86298 0
M  V30 6364 H 590.273 3.24054 1.1333 0
M  V30 6365 N 592.718 -0.936591 1.26751 0
M  V30 6366 C 593.965 -1.68331 1.12566 0
M  V30 6367 C 594.293 -1.91677 -0.330168 0
M  V30 6368 O 593.548 -1.49859 -1.2586 0
M  V30 6369 C 593.847 -3.06099 1.84494 0
M  V30 6370 C 593.513 -3.02493 3.34378 0
M  V30 6371 C 592.175 -3.01217 3.75262 0
M  V30 6372 C 594.527 -2.94453 4.30055 0
M  V30 6373 C 591.855 -2.89672 5.10203 0
M  V30 6374 C 594.207 -2.84449 5.65041 0
M  V30 6375 C 592.871 -2.81518 6.0523 0
M  V30 6376 H 592.141 -0.615965 0.411907 0
M  V30 6377 H 594.788 -1.09292 1.5725 0
M  V30 6378 H 593.093 -3.6879 1.32292 0
M  V30 6379 H 594.79 -3.62733 1.70955 0
M  V30 6380 H 591.38 -3.04269 3.01858 0
M  V30 6381 H 595.564 -2.94544 3.99447 0
M  V30 6382 H 590.82 -2.85783 5.40498 0
M  V30 6383 H 594.994 -2.77192 6.38856 0
M  V30 6384 H 592.621 -2.72329 7.09747 0
M  V30 6385 N 594.196 -1.08629 -1.14182 0
M  V30 6386 C 595.126 -0.740003 -2.21464 0
M  V30 6387 C 596.107 0.278591 -1.67803 0
M  V30 6388 O 597.292 0.148461 -1.93632 0
M  V30 6389 C 594.422 -0.150952 -3.46972 0
M  V30 6390 C 593.376 -1.09815 -4.13672 0
M  V30 6391 C 592.702 -0.3712 -5.3341 0
M  V30 6392 C 594.002 -2.43722 -4.61949 0
M  V30 6393 H 595.696 -1.63697 -2.50686 0
M  V30 6394 H 593.242 -0.788526 -1.20492 0
M  V30 6395 H 595.195 0.103325 -4.21273 0
M  V30 6396 H 593.919 0.781164 -3.1712 0
M  V30 6397 H 592.578 -1.33756 -3.41328 0
M  V30 6398 H 592.226 0.564792 -4.99819 0
M  V30 6399 H 591.926 -1.00267 -5.78982 0
M  V30 6400 H 593.45 -0.12503 -6.10472 0
M  V30 6401 H 594.864 -2.24034 -5.27714 0
M  V30 6402 H 593.261 -3.02582 -5.18232 0
M  V30 6403 H 594.331 -3.05082 -3.76899 0
M  V30 6404 N 595.674 1.31259 -0.872281 0
M  V30 6405 C 596.902 2.00795 -0.498907 0
M  V30 6406 C 597.317 1.65464 0.909238 0
M  V30 6407 O 596.674 0.885073 1.59602 0
M  V30 6408 C 596.725 3.55625 -0.649092 0
M  V30 6409 O 596.446 3.89692 -2.00179 0
M  V30 6410 C 597.947 4.42434 -0.277034 0
M  V30 6411 H 595.167 0.642299 -0.194145 0
M  V30 6412 H 597.711 1.67438 -1.17408 0
M  V30 6413 H 595.866 3.87394 -0.0214402 0
M  V30 6414 H 596.28 4.84407 -2.01122 0
M  V30 6415 H 597.754 5.50299 -0.433064 0
M  V30 6416 H 598.231 4.32146 0.783989 0
M  V30 6417 H 598.837 4.16086 -0.880483 0
M  V30 6418 N 597.152 0.631951 1.44375 0
M  V30 6419 C 598.084 -0.110911 2.28931 0
M  V30 6420 C 599.097 -0.808086 1.41329 0
M  V30 6421 O 600.286 -0.669396 1.65473 0
M  V30 6422 C 597.386 -1.17928 3.1772 0
M  V30 6423 C 596.559 -0.564458 4.33743 0
M  V30 6424 C 595.618 -1.5269 5.0356 0
M  V30 6425 O 594.644 -1.04372 5.59549 0
M  V30 6426 N 595.846 -2.86123 5.05088 0
M  V30 6427 H 598.611 0.614758 2.93327 0
M  V30 6428 H 596.172 0.473171 1.54831 0
M  V30 6429 H 598.164 -1.82348 3.61291 0
M  V30 6430 H 596.734 -1.80717 2.55069 0
M  V30 6431 H 595.954 0.258373 3.93352 0
M  V30 6432 H 597.242 -0.134355 5.08623 0
M  V30 6433 H 596.64 -3.27959 4.60933 0
M  V30 6434 H 595.197 -3.45901 5.52445 0
M  V30 6435 N 598.631 -1.53133 0.372548 0
M  V30 6436 C 599.561 -2.28876 -0.462412 0
M  V30 6437 C 600.542 -1.31583 -1.07796 0
M  V30 6438 O 601.727 -1.60461 -1.09389 0
M  V30 6439 C 598.857 -3.08317 -1.59868 0
M  V30 6440 C 597.811 -4.13355 -1.11003 0
M  V30 6441 C 597.137 -4.8092 -2.33708 0
M  V30 6442 C 598.437 -5.21955 -0.18983 0
M  V30 6443 H 600.131 -2.9892 0.169511 0
M  V30 6444 H 597.677 -1.43761 0.0829658 0
M  V30 6445 H 599.63 -3.60055 -2.18949 0
M  V30 6446 H 598.354 -2.35976 -2.25794 0
M  V30 6447 H 597.013 -3.62573 -0.541869 0
M  V30 6448 H 596.661 -4.05144 -2.98106 0
M  V30 6449 H 596.361 -5.51904 -2.01682 0
M  V30 6450 H 597.885 -5.35455 -2.93462 0
M  V30 6451 H 599.299 -5.69153 -0.688319 0
M  V30 6452 H 597.696 -6.00087 0.0398887 0
M  V30 6453 H 598.766 -4.78811 0.766057 0
M  V30 6454 N 600.109 -0.101901 -1.5727 0
M  V30 6455 C 601.059 0.865346 -2.1094 0
M  V30 6456 C 602.043 1.2394 -1.02605 0
M  V30 6457 O 603.235 1.21334 -1.28868 0
M  V30 6458 C 600.364 2.12187 -2.69874 0
M  V30 6459 C 599.45 1.77295 -3.85263 0
M  V30 6460 N 599.841 1.12993 -4.93017 0
M  V30 6461 C 598.139 2.06862 -3.95126 0
M  V30 6462 C 598.84 0.968631 -5.73579 0
M  V30 6463 N 597.816 1.48814 -5.22834 0
M  V30 6464 H 601.618 0.364368 -2.91633 0
M  V30 6465 H 599.132 0.101104 -1.62085 0
M  V30 6466 H 601.129 2.82431 -3.06657 0
M  V30 6467 H 599.789 2.62844 -1.90639 0
M  V30 6468 H 600.8 0.795935 -5.11747 0
M  V30 6469 H 597.477 2.59686 -3.26909 0
M  V30 6470 H 598.867 0.465231 -6.70287 0
M  V30 6471 N 601.587 1.56661 0.17182 0
M  V30 6472 C 602.812 1.86459 0.908165 0
M  V30 6473 C 603.237 0.688181 1.75059 0
M  V30 6474 O 602.595 -0.362753 1.77634 0
M  V30 6475 C 602.643 3.14669 1.76112 0
M  V30 6476 O 601.747 2.96858 2.86268 0
M  V30 6477 H 601.088 0.613318 0.254434 0
M  V30 6478 H 603.618 2.03892 0.170113 0
M  V30 6479 H 603.628 3.46061 2.16115 0
M  V30 6480 H 602.303 3.99905 1.14233 0
M  V30 6481 H 600.88 2.76819 2.49852 0
M  V30 6482 N 603.065 -0.440357 1.51323 0
M  V30 6483 C 604.305 -1.19956 1.65499 0
M  V30 6484 C 604.669 -1.88559 0.361878 0
M  V30 6485 O 605.87 -2.66109 0.379383 0
M  V30 6486 C 604.141 -2.1918 2.82303 0
M  V30 6487 S 605.7 -3.03627 3.1679 0
M  V30 6488 H 602.518 -0.406833 0.583102 0
M  V30 6489 H 605.12 -0.491596 1.89218 0
M  V30 6490 H 603.824 -1.67414 3.74701 0
M  V30 6491 H 603.355 -2.94561 2.60763 0
M  V30 6492 H 605.37 -4.20773 2.62991 0
M  V30 6493 N 604.543 -1.41418 -0.695603 0
M  V30 6494 C 605.79 -1.40774 -1.45564 0
M  V30 6495 C 606.118 -0.0168604 -1.94493 0
M  V30 6496 O 605.373 0.971259 -1.69897 0
M  V30 6497 C 605.672 -2.36112 -2.68302 0
M  V30 6498 C 605.338 -3.82952 -2.38031 0
M  V30 6499 C 604 -4.22954 -2.29486 0
M  V30 6500 C 606.352 -4.75662 -2.13061 0
M  V30 6501 C 603.68 -5.53674 -1.94067 0
M  V30 6502 C 606.032 -6.06702 -1.79151 0
M  V30 6503 C 604.696 -6.45725 -1.69102 0
M  V30 6504 H 603.966 -0.515128 -0.532658 0
M  V30 6505 H 606.613 -1.74216 -0.795047 0
M  V30 6506 H 604.918 -1.95924 -3.39295 0
M  V30 6507 H 606.615 -2.32887 -3.26442 0
M  V30 6508 H 603.205 -3.5127 -2.45576 0
M  V30 6509 H 607.389 -4.45561 -2.18608 0
M  V30 6510 H 602.645 -5.8279 -1.8484 0
M  V30 6511 H 606.819 -6.78041 -1.5885 0
M  V30 6512 H 604.446 -7.46929 -1.41426 0
M  V30 6513 N 606.021 0.929856 -1.27246 0
M  V30 6514 C 606.953 2.03434 -1.0558 0
M  V30 6515 C 607.966 1.62795 -0.0125762 0
M  V30 6516 O 609.155 1.76685 -0.2539 0
M  V30 6517 C 606.255 3.33915 -0.57912 0
M  V30 6518 C 605.428 4.03259 -1.69415 0
M  V30 6519 C 604.487 5.12014 -1.21357 0
M  V30 6520 O 603.513 5.36097 -1.91282 0
M  V30 6521 N 604.715 5.8046 -0.0680622 0
M  V30 6522 H 607.48 2.22583 -2.00691 0
M  V30 6523 H 605.041 1.1001 -1.18783 0
M  V30 6524 H 607.033 4.03978 -0.241563 0
M  V30 6525 H 605.603 3.11355 0.278703 0
M  V30 6526 H 604.823 3.26958 -2.20209 0
M  V30 6527 H 606.111 4.46337 -2.44255 0
M  V30 6528 H 605.509 5.63345 0.515626 0
M  V30 6529 H 604.066 6.51461 0.210332 0
M  V30 6530 N 607.499 1.09233 1.13605 0
M  V30 6531 C 608.727 0.848908 1.88683 0
M  V30 6532 C 609.142 -0.599667 1.79024 0
M  V30 6533 O 608.499 -1.41265 1.15544 0
M  V30 6534 C 608.55 1.27273 3.38355 0
M  V30 6535 O 608.271 2.66449 3.47759 0
M  V30 6536 C 609.772 1.0614 4.30406 0
M  V30 6537 H 606.992 0.305549 0.597395 0
M  V30 6538 H 609.536 1.4538 1.43823 0
M  V30 6539 H 607.691 0.711776 3.80805 0
M  V30 6540 H 608.105 2.84264 4.40788 0
M  V30 6541 H 609.579 1.40725 5.33761 0
M  V30 6542 H 610.056 -0.000960332 4.392 0
M  V30 6543 H 610.662 1.60821 3.93722 0
M  V30 6544 N 608.977 -1.30795 0.87923 0
M  V30 6545 C 609.91 -2.26396 0.286404 0
M  V30 6546 C 610.888 -1.51528 -0.589748 0
M  V30 6547 O 612.072 -1.80566 -0.541119 0
M  V30 6548 C 609.199 -3.33458 -0.593581 0
M  V30 6549 C 608.245 -4.2597 0.21247 0
M  V30 6550 S 609.078 -5.11132 1.59702 0
M  V30 6551 C 610.234 -6.21705 0.723408 0
M  V30 6552 H 610.467 -2.7633 1.09677 0
M  V30 6553 H 608 -1.38703 0.678305 0
M  V30 6554 H 609.958 -3.9561 -1.09557 0
M  V30 6555 H 608.619 -2.82259 -1.37799 0
M  V30 6556 H 607.812 -5.01907 -0.458822 0
M  V30 6557 H 607.414 -3.68363 0.646883 0
M  V30 6558 H 609.706 -6.77472 -0.0620739 0
M  V30 6559 H 610.649 -6.93007 1.4542 0
M  V30 6560 H 611.057 -5.63771 0.286855 0
M  V30 6561 N 610.455 -0.639598 -1.44038 0
M  V30 6562 C 611.732 -0.078012 -1.95444 0
M  V30 6563 C 612.112 1.39847 -1.58133 0
M  V30 6564 O 611.46 2.11714 -0.859614 0
M  V30 6565 C 611.67 -0.309832 -3.47622 0
M  V30 6566 C 613.018 -0.207521 -4.24093 0
M  V30 6567 O 614.042 -0.241653 -3.55379 0
M  V30 6568 O 612.901 -0.119641 -5.46369 0
M  V30 6569 H 609.995 0.0174534 -0.826816 0
M  V30 6570 H 612.541 -0.711891 -1.54046 0
M  V30 6571 H 611.313 -1.33401 -3.67858 0
M  V30 6572 H 610.936 0.357777 -3.95987 0
M  V30 6573 N 611.933 1.52934 -0.380664 0
M  V30 6574 C 613.349 1.59571 -0.0302429 0
M  V30 6575 C 613.549 1.39509 1.45394 0
M  V30 6576 O 612.605 1.20777 2.21741 0
M  V30 6577 C 613.918 2.96519 -0.499691 0
M  V30 6578 C 615.466 3.09672 -0.455204 0
M  V30 6579 C 615.941 4.49056 -0.900703 0
M  V30 6580 N 617.432 4.55215 -0.856367 0
M  V30 6581 C 618.167 5.61282 -1.17259 0
M  V30 6582 N 617.663 6.75035 -1.55885 0
M  V30 6583 N 619.456 5.51343 -1.0944 0
M  V30 6584 H 611.607 1.64224 -1.347 0
M  V30 6585 H 613.87 0.771033 -0.551554 0
M  V30 6586 H 613.576 3.16388 -1.53595 0
M  V30 6587 H 613.45 3.77052 0.105789 0
M  V30 6588 H 615.837 2.89504 0.571949 0
M  V30 6589 H 615.918 2.31113 -1.09638 0
M  V30 6590 H 615.562 4.69964 -1.92604 0
M  V30 6591 H 615.492 5.26068 -0.236629 0
M  V30 6592 H 617.983 3.73546 -0.572013 0
M  V30 6593 H 618.296 7.51926 -1.784 0
M  V30 6594 H 616.641 6.76388 -1.59764 0
M  V30 6595 H 619.832 4.61356 -0.791713 0
M  V30 6596 H 620.005 6.33905 -1.34417 0
M  V30 6597 N 613.412 0.11024 1.57214 0
M  V30 6598 C 614.342 -0.840002 2.17867 0
M  V30 6599 C 615.323 -1.28352 1.11624 0
M  V30 6600 O 616.508 -1.3477 1.39824 0
M  V30 6601 C 613.638 -2.09349 2.77111 0
M  V30 6602 C 612.592 -1.78807 3.8886 0
M  V30 6603 C 611.918 -3.11112 4.34872 0
M  V30 6604 C 613.218 -1.0632 5.11364 0
M  V30 6605 H 614.912 -0.334608 2.97524 0
M  V30 6606 H 612.458 -0.159502 1.43114 0
M  V30 6607 H 614.411 -2.76275 3.18198 0
M  V30 6608 H 613.135 -2.62198 1.9473 0
M  V30 6609 H 611.794 -1.14273 3.48335 0
M  V30 6610 H 611.442 -3.61877 3.49362 0
M  V30 6611 H 611.142 -2.91453 5.10224 0
M  V30 6612 H 612.666 -3.79171 4.78604 0
M  V30 6613 H 614.08 -1.63383 5.49526 0
M  V30 6614 H 612.477 -0.967876 5.92243 0
M  V30 6615 H 613.547 -0.0484569 4.84876 0
M  V30 6616 N 614.89 -1.56749 -0.16351 0
M  V30 6617 C 616.12 -1.86307 -0.892936 0
M  V30 6618 C 616.528 -0.6945 -1.75992 0
M  V30 6619 O 615.871 0.345384 -1.80424 0
M  V30 6620 C 615.933 -3.10372 -1.81409 0
M  V30 6621 C 615.597 -4.42913 -1.12593 0
M  V30 6622 C 616.594 -5.17608 -0.487661 0
M  V30 6623 C 614.279 -4.89646 -1.12035 0
M  V30 6624 C 616.273 -6.3723 0.14699 0
M  V30 6625 C 613.96 -6.09197 -0.481883 0
M  V30 6626 C 614.958 -6.82834 0.150678 0
M  V30 6627 O 614.646 -8.00116 0.779065 0
M  V30 6628 H 614.378 -0.622126 -0.264452 0
M  V30 6629 H 616.932 -2.04728 -0.166063 0
M  V30 6630 H 615.162 -2.87917 -2.58148 0
M  V30 6631 H 616.851 -3.26312 -2.41403 0
M  V30 6632 H 617.617 -4.8258 -0.483888 0
M  V30 6633 H 613.496 -4.32265 -1.60212 0
M  V30 6634 H 617.04 -6.94646 0.641325 0
M  V30 6635 H 612.937 -6.43688 -0.483266 0
M  V30 6636 H 613.705 -8.15678 0.679089 0
M  V30 6637 N 616.368 0.432326 -1.51554 0
M  V30 6638 C 617.615 1.18134 -1.64471 0
M  V30 6639 C 617.943 1.91076 -0.363349 0
M  V30 6640 O 617.198 1.84492 0.65279 0
M  V30 6641 C 617.497 2.21907 -2.80164 0
M  V30 6642 C 617.163 1.65941 -4.19255 0
M  V30 6643 C 615.825 1.50401 -4.57092 0
M  V30 6644 C 618.177 1.24843 -5.06027 0
M  V30 6645 C 615.505 0.922443 -5.79403 0
M  V30 6646 C 617.857 0.68113 -6.28922 0
M  V30 6647 C 616.521 0.512673 -6.65528 0
M  V30 6648 H 615.791 0.432283 -0.601841 0
M  V30 6649 H 618.438 0.471701 -1.856 0
M  V30 6650 H 616.743 2.98928 -2.53277 0
M  V30 6651 H 618.44 2.79691 -2.87357 0
M  V30 6652 H 615.03 1.79014 -3.89425 0
M  V30 6653 H 619.214 1.35667 -4.77397 0
M  V30 6654 H 614.47 0.779733 -6.06408 0
M  V30 6655 H 618.644 0.35418 -6.95499 0
M  V30 6656 H 616.271 0.0599084 -7.60176 0
M  V30 6657 N 617.846 1.41785 0.688094 0
M  V30 6658 C 619.092 1.41753 1.4503 0
M  V30 6659 C 619.425 0.0290745 1.94178 0
M  V30 6660 O 618.7 -0.944456 1.7003 0
M  V30 6661 C 618.983 2.43069 2.65686 0
M  V30 6662 C 618.836 3.91053 2.22256 0
M  V30 6663 C 620.155 2.41543 3.67893 0
M  V30 6664 H 617.274 0.516202 0.526027 0
M  V30 6665 H 619.916 1.73111 0.783105 0
M  V30 6666 H 618.066 2.1646 3.2261 0
M  V30 6667 H 619.738 4.28594 1.70602 0
M  V30 6668 H 617.981 4.05559 1.53963 0
M  V30 6669 H 618.652 4.57501 3.08863 0
M  V30 6670 H 621.128 2.65175 3.20658 0
M  V30 6671 H 620.004 3.14434 4.49914 0
M  V30 6672 H 620.265 1.43666 4.18106 0
M  V30 6673 N 619.324 -0.923095 1.27737 0
M  V30 6674 C 620.257 -2.02515 1.05181 0
M  V30 6675 C 621.235 -1.62574 -0.0292204 0
M  V30 6676 O 622.419 -1.88137 0.116848 0
M  V30 6677 C 619.546 -3.33407 0.596468 0
M  V30 6678 C 618.592 -3.92328 1.67276 0
M  V30 6679 S 619.425 -4.24342 3.26641 0
M  V30 6680 C 620.581 -5.58308 2.82919 0
M  V30 6681 H 620.814 -2.21336 1.98488 0
M  V30 6682 H 618.347 -1.06679 1.1162 0
M  V30 6683 H 620.305 -4.09086 0.34044 0
M  V30 6684 H 618.966 -3.125 -0.316614 0
M  V30 6685 H 618.159 -4.86797 1.30556 0
M  V30 6686 H 617.761 -3.2325 1.8811 0
M  V30 6687 H 620.053 -6.37801 2.28509 0
M  V30 6688 H 620.996 -5.99931 3.7615 0
M  V30 6689 H 621.404 -5.19049 2.21919 0
M  V30 6690 N 620.802 -1.09834 -1.13024 0
M  V30 6691 C 621.712 -0.753731 -2.22162 0
M  V30 6692 C 622.728 0.246105 -1.72251 0
M  V30 6693 O 623.904 0.0864051 -2.01215 0
M  V30 6694 C 620.969 -0.183958 -3.46212 0
M  V30 6695 C 620.03 -1.24028 -4.10993 0
M  V30 6696 C 619.263 -0.697597 -5.29121 0
M  V30 6697 O 619.486 0.478092 -5.68393 0
M  V30 6698 O 618.42 -1.4546 -5.84059 0
M  V30 6699 H 622.246 -1.66456 -2.5402 0
M  V30 6700 H 619.831 -0.873026 -1.21238 0
M  V30 6701 H 621.713 0.130257 -4.21199 0
M  V30 6702 H 620.388 0.699823 -3.16045 0
M  V30 6703 H 619.295 -1.60725 -3.37814 0
M  V30 6704 H 620.628 -2.09685 -4.45301 0
M  V30 6705 N 622.28 1.30327 -0.886154 0
M  V30 6706 C 623.51 1.99964 -0.519421 0
M  V30 6707 C 623.918 1.66593 0.89686 0
M  V30 6708 O 623.261 0.899886 1.60149 0
M  V30 6709 C 623.323 3.54187 -0.615795 0
M  V30 6710 C 622.987 4.11078 -1.9966 0
M  V30 6711 C 623.984 4.26985 -2.96614 0
M  V30 6712 C 621.669 4.46429 -2.30231 0
M  V30 6713 C 623.663 4.77456 -4.22273 0
M  V30 6714 C 621.35 4.966 -3.56135 0
M  V30 6715 C 622.348 5.12066 -4.5197 0
M  V30 6716 O 622.036 5.61154 -5.7564 0
M  V30 6717 H 621.768 0.645979 -0.199217 0
M  V30 6718 H 624.322 1.67154 -1.19368 0
M  V30 6719 H 622.552 3.86528 0.115448 0
M  V30 6720 H 624.241 4.05065 -0.26017 0
M  V30 6721 H 625.007 3.99975 -2.74308 0
M  V30 6722 H 620.886 4.33658 -1.56404 0
M  V30 6723 H 624.43 4.89444 -4.97082 0
M  V30 6724 H 620.327 5.23045 -3.78277 0
M  V30 6725 H 621.095 5.79494 -5.78039 0
M  V30 6726 N 623.758 0.647228 1.43697 0
M  V30 6727 C 625.004 0.158422 2.0218 0
M  V30 6728 C 625.337 -1.22233 1.50907 0
M  V30 6729 O 624.612 -1.81478 0.699702 0
M  V30 6730 C 624.895 0.1627 3.59732 0
M  V30 6731 C 624.748 1.57694 4.21251 0
M  V30 6732 C 626.067 -0.504138 4.37203 0
M  V30 6733 H 623.186 0.059042 0.734631 0
M  V30 6734 H 625.828 0.826772 1.71069 0
M  V30 6735 H 623.978 -0.406414 3.86368 0
M  V30 6736 H 625.65 2.19618 4.05667 0
M  V30 6737 H 623.893 2.12603 3.7813 0
M  V30 6738 H 624.564 1.53183 5.3032 0
M  V30 6739 H 627.04 -0.0199841 4.16095 0
M  V30 6740 H 625.916 -0.470394 5.46881 0
M  V30 6741 H 626.177 -1.57726 4.13007 0
M  V30 6742 N 625.236 -1.5273 0.388769 0
M  V30 6743 C 626.184 -2.27975 -0.461527 0
M  V30 6744 C 627.178 -1.31854 -1.06352 0
M  V30 6745 O 628.384 -1.49394 -1.00406 0
M  V30 6746 H 624.759 -0.733088 -0.16759 0
M  V30 6747 H 626.73 -2.97765 0.194579 0
M  V30 6748 C 625.479 -3.09881 -1.577 0
M  V30 6749 H 624.802 -3.83701 -1.12309 0
M  V30 6750 H 626.242 -3.6567 -2.14619 0
M  V30 6751 C 624.701 -2.22159 -2.53272 0
M  V30 6752 O 625.231 -1.84802 -3.56667 0
M  V30 6753 N 623.437 -1.8633 -2.23001 0
M  V30 6754 H 622.984 -2.16909 -1.38954 0
M  V30 6755 H 622.942 -1.27927 -2.87197 0
M  V30 6756 N 626.714 -0.118576 -1.57153 0
M  V30 6757 C 627.962 0.538461 -1.94795 0
M  V30 6758 C 628.283 1.67243 -1.00274 0
M  V30 6759 O 627.553 1.95811 -0.0589692 0
M  V30 6760 H 626.133 0.201904 -0.719197 0
M  V30 6761 H 628.795 -0.187418 -1.93997 0
M  V30 6762 H 627.891 0.933315 -2.97818 0
M  V30 6763 N 628.193 1.56834 0.155195 0
M  V30 6764 C 629.441 1.82536 0.867462 0
M  V30 6765 C 629.762 0.698168 1.82073 0
M  V30 6766 O 629.032 -0.280807 1.93877 0
M  V30 6767 H 627.612 0.673401 0.323327 0
M  V30 6768 H 630.274 1.94313 0.151156 0
M  V30 6769 H 629.37 2.77171 1.43466 0
M  V30 6770 N 629.671 -0.424282 1.51781 0
M  V30 6771 C 630.948 -1.18464 1.55646 0
M  V30 6772 C 631.328 -2.08529 0.328438 0
M  V30 6773 O 630.676 -2.17969 -0.685693 0
M  V30 6774 C 630.886 -1.97514 2.87731 0
M  V30 6775 C 632.234 -2.54106 3.40169 0
M  V30 6776 O 633.258 -2.07711 2.89369 0
M  V30 6777 O 632.117 -3.38759 4.28841 0
M  V30 6778 H 629.211 -0.540055 0.626314 0
M  V30 6779 H 631.757 -0.432291 1.64102 0
M  V30 6780 H 630.529 -1.31444 3.68562 0
M  V30 6781 H 630.152 -2.79787 2.82498 0
M  V30 6782 N 631.149 -1.42148 -0.680565 0
M  V30 6783 C 632.079 -1.4796 -1.80638 0
M  V30 6784 C 633.06 -0.336728 -1.66734 0
M  V30 6785 O 634.245 -0.550247 -1.86242 0
M  V30 6786 C 631.375 -1.37569 -3.18892 0
M  V30 6787 C 630.329 -2.49823 -3.47524 0
M  V30 6788 C 629.655 -2.24491 -4.85291 0
M  V30 6789 C 630.955 -3.92144 -3.44994 0
M  V30 6790 H 632.649 -2.42184 -1.76032 0
M  V30 6791 H 630.195 -1.16566 -0.845481 0
M  V30 6792 H 632.148 -1.40243 -3.97379 0
M  V30 6793 H 630.872 -0.398357 -3.24162 0
M  V30 6794 H 629.531 -2.46455 -2.71395 0
M  V30 6795 H 629.179 -1.25066 -4.87204 0
M  V30 6796 H 628.879 -2.99722 -5.05411 0
M  V30 6797 H 630.403 -2.28906 -5.66069 0
M  V30 6798 H 631.817 -3.97145 -4.13459 0
M  V30 6799 H 630.214 -4.67179 -3.76648 0
M  V30 6800 H 631.284 -4.19225 -2.43676 0
M  V30 6801 N 632.627 0.916307 -1.28225 0
M  V30 6802 C 633.56 2.01954 -1.06254 0
M  V30 6803 C 634.538 1.62587 0.0205983 0
M  V30 6804 O 635.722 1.88073 -0.126824 0
M  V30 6805 C 632.849 3.33086 -0.614141 0
M  V30 6806 C 631.895 3.91435 -1.69354 0
M  V30 6807 S 632.728 4.22603 -3.28887 0
M  V30 6808 C 633.884 5.568 -2.85876 0
M  V30 6809 H 634.117 2.20281 -1.99659 0
M  V30 6810 H 631.65 1.06085 -1.12184 0
M  V30 6811 H 633.608 4.089 -0.36213 0
M  V30 6812 H 632.269 3.12664 0.300036 0
M  V30 6813 H 631.462 4.86098 -1.33136 0
M  V30 6814 H 631.064 3.22248 -1.89821 0
M  V30 6815 H 633.356 6.3658 -2.31888 0
M  V30 6816 H 634.299 5.97927 -3.79326 0
M  V30 6817 H 634.707 5.17865 -2.24669 0
M  V30 6818 N 634.105 1.10431 1.1244 0
M  V30 6819 C 635.335 0.867612 1.87499 0
M  V30 6820 C 635.743 -0.585475 1.79913 0
M  V30 6821 O 635.086 -1.41539 1.171 0
M  V30 6822 C 635.148 1.2374 3.37533 0
M  V30 6823 C 634.812 2.69751 3.68895 0
M  V30 6824 C 635.809 3.67988 3.67261 0
M  V30 6825 C 633.494 3.06135 3.98229 0
M  V30 6826 C 635.488 5.00632 3.9452 0
M  V30 6827 C 633.175 4.38967 4.25149 0
M  V30 6828 C 634.173 5.36025 4.23281 0
M  V30 6829 O 633.861 6.66465 4.49533 0
M  V30 6830 H 633.593 0.311196 0.600111 0
M  V30 6831 H 636.147 1.47257 1.43194 0
M  V30 6832 H 634.377 0.575537 3.82393 0
M  V30 6833 H 636.066 0.978187 3.93937 0
M  V30 6834 H 636.832 3.41224 3.44661 0
M  V30 6835 H 632.711 2.31214 3.98825 0
M  V30 6836 H 636.255 5.7638 3.92978 0
M  V30 6837 H 632.152 4.6547 4.47223 0
M  V30 6838 H 632.92 6.72095 4.67152 0
M  V30 6839 N 635.583 -1.29855 0.893053 0
M  V30 6840 C 636.533 -2.25493 0.337211 0
M  V30 6841 C 637.517 -1.51606 -0.53894 0
M  V30 6842 O 638.709 -1.72828 -0.382043 0
M  V30 6843 C 635.838 -3.40467 -0.440117 0
M  V30 6844 C 634.924 -4.217 0.450578 0
M  V30 6845 N 635.315 -4.81312 1.55476 0
M  V30 6846 C 633.613 -4.45315 0.247154 0
M  V30 6847 C 634.314 -5.42241 2.10593 0
M  V30 6848 N 633.29 -5.25267 1.39982 0
M  V30 6849 H 637.092 -2.69137 1.18079 0
M  V30 6850 H 634.606 -1.44388 0.743359 0
M  V30 6851 H 636.603 -4.08038 -0.855021 0
M  V30 6852 H 635.263 -2.98361 -1.28104 0
M  V30 6853 H 636.274 -4.80291 1.93755 0
M  V30 6854 H 632.951 -4.13782 -0.555939 0
M  V30 6855 H 634.341 -5.99517 3.03362 0
M  V30 6856 N 637.061 -0.65484 -1.43351 0
M  V30 6857 C 638.31 -0.166215 -2.01014 0
M  V30 6858 C 638.623 1.22764 -1.52278 0
M  V30 6859 O 639.829 1.81156 -2.02224 0
M  V30 6860 C 638.285 -0.246341 -3.59056 0
M  V30 6861 C 637.893 -1.64299 -4.16785 0
M  V30 6862 C 639.637 0.184597 -4.24098 0
M  V30 6863 C 637.544 -1.67695 -5.67126 0
M  V30 6864 H 636.474 -0.0583769 -0.751737 0
M  V30 6865 H 639.125 -0.817111 -1.64303 0
M  V30 6866 H 637.507 0.472092 -3.93176 0
M  V30 6867 H 638.681 -2.3869 -3.94162 0
M  V30 6868 H 636.996 -2.02004 -3.6412 0
M  V30 6869 H 639.593 0.179088 -5.344 0
M  V30 6870 H 639.936 1.21632 -3.98135 0
M  V30 6871 H 640.469 -0.482141 -3.94867 0
M  V30 6872 H 637.208 -2.68783 -5.9786 0
M  V30 6873 H 636.728 -0.976313 -5.91801 0
M  V30 6874 H 638.407 -1.42142 -6.31193 0
M  V30 6875 N 638.539 1.52521 -0.396863 0
M  V30 6876 C 639.471 2.24333 0.469814 0
M  V30 6877 C 640.484 1.2685 1.02043 0
M  V30 6878 O 641.673 1.52876 0.92147 0
M  V30 6879 C 638.773 2.95202 1.66461 0
M  V30 6880 C 637.946 4.19454 1.24003 0
M  V30 6881 C 637.005 4.73255 2.30036 0
M  V30 6882 O 636.031 5.36151 1.91131 0
M  V30 6883 N 637.233 4.53765 3.62047 0
M  V30 6884 H 639.998 2.99347 -0.145468 0
M  V30 6885 H 637.559 1.60348 -0.223606 0
M  V30 6886 H 639.551 3.28092 2.36934 0
M  V30 6887 H 638.121 2.2345 2.18607 0
M  V30 6888 H 637.341 3.92517 0.363892 0
M  V30 6889 H 638.629 5.0017 0.933135 0
M  V30 6890 H 638.027 4.03576 3.96412 0
M  V30 6891 H 636.584 4.91124 4.28533 0
M  V30 6892 N 640.017 0.126909 1.57088 0
M  V30 6893 C 640.949 -0.850973 2.12817 0
M  V30 6894 C 641.962 -1.22457 1.07276 0
M  V30 6895 O 643.151 -1.17215 1.34622 0
M  V30 6896 C 640.251 -2.15039 2.61938 0
M  V30 6897 C 639.424 -1.94726 3.91664 0
M  V30 6898 C 638.483 -3.0847 4.26301 0
M  V30 6899 O 637.509 -2.81038 4.94981 0
M  V30 6900 N 638.711 -4.35116 3.84259 0
M  V30 6901 H 641.476 -0.3748 2.97347 0
M  V30 6902 H 639.037 -0.0572793 1.61799 0
M  V30 6903 H 641.029 -2.90141 2.82135 0
M  V30 6904 H 639.599 -2.5398 1.82244 0
M  V30 6905 H 638.819 -1.03772 3.80296 0
M  V30 6906 H 640.107 -1.78469 4.76473 0
M  V30 6907 H 639.505 -4.60276 3.2888 0
M  V30 6908 H 638.062 -5.07064 4.09548 0
M  V30 6909 N 641.495 -1.56914 -0.146875 0
M  V30 6910 C 642.741 -1.83628 -0.860741 0
M  V30 6911 C 643.074 -0.708528 -1.80813 0
M  V30 6912 O 642.349 0.287838 -1.92358 0
M  V30 6913 C 642.632 -3.20836 -1.63511 0
M  V30 6914 C 642.485 -4.44174 -0.709199 0
M  V30 6915 C 643.804 -3.55268 -2.59756 0
M  V30 6916 H 640.923 -0.667949 -0.311468 0
M  V30 6917 H 643.565 -1.89582 -0.125936 0
M  V30 6918 H 641.715 -3.15891 -2.26153 0
M  V30 6919 H 643.387 -4.61205 -0.0937781 0
M  V30 6920 H 641.63 -4.33796 -0.0187856 0
M  V30 6921 H 642.301 -5.36785 -1.28707 0
M  V30 6922 H 644.777 -3.60824 -2.07232 0
M  V30 6923 H 643.653 -4.52303 -3.10987 0
M  V30 6924 H 643.914 -2.81231 -3.41118 0
M  V30 6925 N 642.974 0.416227 -1.52004 0
M  V30 6926 C 644.222 1.16153 -1.65387 0
M  V30 6927 C 644.543 1.91208 -0.382669 0
M  V30 6928 O 643.813 1.86413 0.602231 0
M  V30 6929 H 642.393 0.431765 -0.60958 0
M  V30 6930 H 645.055 0.475151 -1.89019 0
M  V30 6931 H 644.151 1.87952 -2.4916 0
M  V30 6932 N 644.452 1.42507 0.673017 0
M  V30 6933 C 645.868 1.25472 0.986355 0
M  V30 6934 C 646.068 0.160181 2.00862 0
M  V30 6935 O 645.124 -0.467993 2.48125 0
M  V30 6936 C 646.437 2.61219 1.48947 0
M  V30 6937 C 647.985 2.68589 1.60715 0
M  V30 6938 C 648.46 4.04707 2.14422 0
M  V30 6939 N 649.951 4.0667 2.21752 0
M  V30 6940 C 650.686 5.0881 2.64386 0
M  V30 6941 N 650.182 6.21332 3.0646 0
M  V30 6942 N 651.975 4.96166 2.64151 0
M  V30 6943 H 644.126 2.124 -0.00378532 0
M  V30 6944 H 646.389 0.946046 0.0608367 0
M  V30 6945 H 646.095 3.42179 0.812812 0
M  V30 6946 H 645.969 2.85261 2.46791 0
M  V30 6947 H 648.356 1.87974 2.27486 0
M  V30 6948 H 648.437 2.48333 0.613552 0
M  V30 6949 H 648.081 4.8578 1.48258 0
M  V30 6950 H 648.011 4.22315 3.14575 0
M  V30 6951 H 650.502 3.25438 1.92089 0
M  V30 6952 H 650.815 6.95118 3.37684 0
M  V30 6953 H 649.16 6.24835 3.04313 0
M  V30 6954 H 652.351 4.07334 2.30644 0
M  V30 6955 H 652.524 5.759 2.97057 0
M  V30 6956 N 645.93 -0.909495 1.28709 0
M  V30 6957 C 647.177 -1.65905 1.16111 0
M  V30 6958 C 647.505 -1.92334 -0.289436 0
M  V30 6959 O 646.76 -1.52495 -1.22653 0
M  V30 6960 C 647.059 -3.02117 1.90945 0
M  V30 6961 C 646.725 -2.95332 3.40719 0
M  V30 6962 C 645.387 -2.93189 3.81567 0
M  V30 6963 C 647.739 -2.85264 4.36204 0
M  V30 6964 C 645.067 -2.78784 5.16233 0
M  V30 6965 C 647.419 -2.724 5.70948 0
M  V30 6966 C 646.083 -2.68617 6.11066 0
M  V30 6967 H 645.353 -0.60709 0.42488 0
M  V30 6968 H 648 -1.05932 1.59533 0
M  V30 6969 H 646.305 -3.65901 1.40085 0
M  V30 6970 H 648.002 -3.59026 1.7861 0
M  V30 6971 H 644.592 -2.97797 3.08245 0
M  V30 6972 H 648.776 -2.86005 4.05605 0
M  V30 6973 H 644.032 -2.74254 5.46438 0
M  V30 6974 H 648.206 -2.63579 6.44592 0
M  V30 6975 H 645.833 -2.57213 7.15364 0
M  V30 6976 N 647.408 -1.11026 -1.11852 0
M  V30 6977 C 648.355 -0.764662 -2.17765 0
M  V30 6978 C 649.325 0.261854 -1.64023 0
M  V30 6979 O 650.51 0.139748 -1.90288 0
M  V30 6980 C 647.65 -0.209317 -3.44465 0
M  V30 6981 C 646.763 -1.29187 -4.12231 0
M  V30 6982 C 645.898 -0.697523 -5.266 0
M  V30 6983 C 644.937 -1.76023 -5.86244 0
M  V30 6984 N 644.074 -1.18569 -6.92016 0
M  V30 6985 H 648.914 -1.67202 -2.46673 0
M  V30 6986 H 646.451 -0.835065 -1.21099 0
M  V30 6987 H 648.409 0.130599 -4.16996 0
M  V30 6988 H 647.039 0.661251 -3.15955 0
M  V30 6989 H 646.091 -1.74881 -3.37818 0
M  V30 6990 H 647.403 -2.09607 -4.52622 0
M  V30 6991 H 646.557 -0.307412 -6.05921 0
M  V30 6992 H 645.296 0.138044 -4.87505 0
M  V30 6993 H 644.301 -2.1597 -5.05606 0
M  V30 6994 H 645.526 -2.59875 -6.27409 0
M  V30 6995 H 643.472 -0.371695 -6.54946 0
M  V30 6996 H 643.389 -1.92666 -7.31038 0
M  V30 6997 H 644.657 -0.82233 -7.7515 0
M  V30 6998 N 648.886 1.2938 -0.899927 0
M  V30 6999 C 649.796 2.31462 -0.382437 0
M  V30 7000 C 650.812 1.65956 0.522929 0
M  V30 7001 O 651.988 1.97131 0.412454 0
M  V30 7002 C 649.053 3.44595 0.381472 0
M  V30 7003 C 648.114 4.25692 -0.555444 0
M  V30 7004 C 647.347 5.33422 0.172102 0
M  V30 7005 O 647.57 5.53053 1.396 0
M  V30 7006 O 646.504 5.99939 -0.485491 0
M  V30 7007 H 650.33 2.77706 -1.22934 0
M  V30 7008 H 647.915 1.33821 -0.664259 0
M  V30 7009 H 649.797 4.13474 0.813442 0
M  V30 7010 H 648.472 3.00458 1.20443 0
M  V30 7011 H 647.379 3.59453 -1.03653 0
M  V30 7012 H 648.712 4.73471 -1.34483 0
M  V30 7013 N 650.364 0.662433 1.43002 0
M  V30 7014 C 651.775 0.258315 1.84904 0
M  V30 7015 C 652.126 -1.19703 1.55453 0
M  V30 7016 O 651.251 -1.91484 1.00811 0
M  V30 7017 C 651.846 0.462047 3.35635 0
M  V30 7018 C 650.405 0.112165 3.76233 0
M  V30 7019 C 649.552 0.760479 2.66668 0
M  V30 7020 H 652.503 0.865467 1.33024 0
M  V30 7021 H 652.524 -0.289646 3.79396 0
M  V30 7022 H 652.036 1.52135 3.57039 0
M  V30 7023 H 650.137 -0.944179 3.60439 0
M  V30 7024 H 650.25 0.544058 4.76001 0
M  V30 7025 H 648.614 0.192887 2.53969 0
M  V30 7026 H 649.397 1.82299 2.90898 0
M  V30 7027 N 651.842 -1.52309 0.404946 0
M  V30 7028 C 652.792 -2.23717 -0.439864 0
M  V30 7029 C 653.776 -1.24692 -1.0169 0
M  V30 7030 O 654.968 -1.49951 -0.940409 0
M  V30 7031 C 652.097 -3.05898 -1.55825 0
M  V30 7032 C 651.183 -4.12331 -0.992188 0
M  V30 7033 N 651.574 -5.0557 -0.152424 0
M  V30 7034 C 649.872 -4.2774 -1.26312 0
M  V30 7035 C 650.573 -5.81474 0.162041 0
M  V30 7036 N 649.549 -5.41767 -0.44601 0
M  V30 7037 H 653.351 -2.93162 0.208084 0
M  V30 7038 H 650.865 -1.60969 0.215131 0
M  V30 7039 H 652.862 -3.55605 -2.17603 0
M  V30 7040 H 651.522 -2.37991 -2.20886 0
M  V30 7041 H 652.533 -5.17468 0.211556 0
M  V30 7042 H 649.21 -3.71062 -1.91362 0
M  V30 7043 H 650.6 -6.66585 0.843423 0
M  V30 7044 N 653.32 -0.135238 -1.57019 0
M  V30 7045 C 654.283 0.794707 -2.14981 0
M  V30 7046 C 655.283 1.18342 -1.08866 0
M  V30 7047 O 656.473 1.10627 -1.34563 0
M  V30 7048 C 653.605 2.07685 -2.70333 0
M  V30 7049 H 654.798 0.290696 -2.98488 0
M  V30 7050 H 652.351 0.114128 -1.55883 0
M  V30 7051 H 653.086 2.6248 -1.9046 0
M  V30 7052 H 652.871 1.80745 -3.47957 0
M  V30 7053 H 654.361 2.74127 -3.1503 0
M  V30 7054 N 654.798 1.5699 0.138552 0
M  V30 7055 C 656.044 1.84081 0.85099 0
M  V30 7056 C 656.377 0.718107 1.80435 0
M  V30 7057 O 655.652 -0.277633 1.92508 0
M  V30 7058 C 655.935 3.21699 1.61808 0
M  V30 7059 C 655.788 4.44544 0.685633 0
M  V30 7060 C 657.107 3.5664 2.57868 0
M  V30 7061 H 654.226 0.669592 0.307922 0
M  V30 7062 H 656.868 1.89646 0.11588 0
M  V30 7063 H 655.018 3.17086 2.24474 0
M  V30 7064 H 656.69 4.61248 0.0693179 0
M  V30 7065 H 654.933 4.338 -0.00421993 0
M  V30 7066 H 655.604 5.3746 1.25858 0
M  V30 7067 H 658.08 3.61918 2.05316 0
M  V30 7068 H 656.956 4.53946 3.08584 0
M  V30 7069 H 657.217 2.83036 3.39622 0
M  V30 7070 N 656.276 -0.40816 1.52223 0
M  V30 7071 C 657.523 -1.15502 1.66329 0
M  V30 7072 C 657.851 -1.90474 0.393701 0
M  V30 7073 O 657.106 -1.85507 -0.623356 0
M  V30 7074 C 657.405 -2.17422 2.83659 0
M  V30 7075 C 657.071 -1.5925 4.21841 0
M  V30 7076 C 655.733 -1.4311 4.59427 0
M  V30 7077 C 658.085 -1.16776 5.0795 0
M  V30 7078 C 655.413 -0.830148 5.80797 0
M  V30 7079 C 657.765 -0.580988 6.29926 0
M  V30 7080 C 656.429 -0.406729 6.6626 0
M  V30 7081 H 655.699 -0.422653 0.608642 0
M  V30 7082 H 658.346 -0.442114 1.86327 0
M  V30 7083 H 656.651 -2.94861 2.58001 0
M  V30 7084 H 658.348 -2.75084 2.9177 0
M  V30 7085 H 654.938 -1.72796 3.92224 0
M  V30 7086 H 659.122 -1.28055 4.79495 0
M  V30 7087 H 654.378 -0.68316 6.07571 0
M  V30 7088 H 658.552 -0.243488 6.95974 0
M  V30 7089 H 656.179 0.0610366 7.60175 0
M  V30 7090 N 657.755 -1.42862 -0.66545 0
M  V30 7091 C 658.985 -1.47032 -1.45138 0
M  V30 7092 C 659.393 -0.0829977 -1.89018 0
M  V30 7093 O 658.736 0.914551 -1.59316 0
M  V30 7094 C 658.798 -2.34302 -2.72659 0
M  V30 7095 C 658.462 -3.82034 -2.50796 0
M  V30 7096 C 659.459 -4.73453 -2.14799 0
M  V30 7097 C 657.144 -4.26397 -2.655 0
M  V30 7098 C 659.138 -6.07228 -1.93785 0
M  V30 7099 C 656.825 -5.6023 -2.44103 0
M  V30 7100 C 657.823 -6.50462 -2.08299 0
M  V30 7101 O 657.511 -7.8182 -1.87116 0
M  V30 7102 H 657.243 -0.501969 -0.452772 0
M  V30 7103 H 659.797 -1.88137 -0.82423 0
M  V30 7104 H 658.027 -1.88063 -3.37889 0
M  V30 7105 H 659.716 -2.29818 -3.34572 0
M  V30 7106 H 660.482 -4.4046 -2.03026 0
M  V30 7107 H 656.361 -3.56448 -2.92345 0
M  V30 7108 H 659.905 -6.7762 -1.65763 0
M  V30 7109 H 655.802 -5.92793 -2.55475 0
M  V30 7110 H 656.57 -7.93274 -2.01639 0
M  V30 7111 N 659.233 0.902656 -1.29189 0
M  V30 7112 C 660.196 1.98797 -1.14071 0
M  V30 7113 C 661.196 1.60615 -0.0770549 0
M  V30 7114 O 662.386 1.71165 -0.323753 0
M  V30 7115 C 659.518 3.32688 -0.743739 0
M  V30 7116 H 660.711 2.13637 -2.10473 0
M  V30 7117 H 658.264 1.08678 -1.12334 0
M  V30 7118 H 658.999 3.23549 0.220554 0
M  V30 7119 H 658.784 3.61765 -1.51223 0
M  V30 7120 H 660.274 4.12337 -0.660935 0
M  V30 7121 N 660.711 1.11618 1.11262 0
M  V30 7122 C 661.674 0.779447 2.15539 0
M  V30 7123 C 662.674 -0.202081 1.59525 0
M  V30 7124 O 663.864 0.0226356 1.74185 0
M  V30 7125 C 660.996 0.15674 3.40539 0
M  V30 7126 H 662.189 1.70324 2.4684 0
M  V30 7127 H 659.742 0.918298 1.26479 0
M  V30 7128 H 660.477 -0.777186 3.1485 0
M  V30 7129 H 660.262 0.863308 3.82478 0
M  V30 7130 H 661.752 -0.062661 4.17553 0
M  V30 7131 N 662.189 -1.289 0.906776 0
M  V30 7132 C 663.099 -2.31256 0.394707 0
M  V30 7133 C 664.115 -1.66231 -0.514121 0
M  V30 7134 O 665.291 -1.97347 -0.401994 0
M  V30 7135 C 662.356 -3.44792 -0.363191 0
M  V30 7136 C 661.417 -4.25391 0.578012 0
M  V30 7137 C 660.65 -5.33506 -0.143811 0
M  V30 7138 O 660.873 -5.53786 -1.36665 0
M  V30 7139 O 659.807 -5.99673 0.5173 0
M  V30 7140 H 663.633 -2.77051 1.24405 0
M  V30 7141 H 661.218 -1.33466 0.671346 0
M  V30 7142 H 663.1 -4.139 -0.791503 0
M  V30 7143 H 661.775 -3.01093 -1.18848 0
M  V30 7144 H 660.682 -3.58899 1.05558 0
M  V30 7145 H 662.015 -4.72752 1.36992 0
M  V30 7146 N 663.667 -0.670007 -1.42649 0
M  V30 7147 C 664.916 -0.187526 -2.00826 0
M  V30 7148 C 665.229 1.21142 -1.53571 0
M  V30 7149 O 666.435 1.79001 -2.04134 0
M  V30 7150 C 664.891 -0.284409 -3.58774 0
M  V30 7151 C 664.499 -1.6871 -4.15019 0
M  V30 7152 C 666.243 0.139605 -4.2427 0
M  V30 7153 C 664.15 -1.73701 -5.65316 0
M  V30 7154 H 663.08 -0.0663468 -0.751075 0
M  V30 7155 H 665.731 -0.834492 -1.63427 0
M  V30 7156 H 664.113 0.430364 -3.93655 0
M  V30 7157 H 665.287 -2.42857 -3.91608 0
M  V30 7158 H 663.602 -2.05855 -3.61957 0
M  V30 7159 H 666.199 0.122398 -5.3456 0
M  V30 7160 H 666.542 1.17403 -3.99402 0
M  V30 7161 H 667.075 -0.523995 -3.94334 0
M  V30 7162 H 663.814 -2.75109 -5.94975 0
M  V30 7163 H 663.334 -1.03903 -5.90732 0
M  V30 7164 H 665.013 -1.48829 -6.2965 0
M  V30 7165 N 665.145 1.52092 -0.413018 0
M  V30 7166 C 666.108 2.25706 0.398687 0
M  V30 7167 C 667.108 1.28221 0.970368 0
M  V30 7168 O 668.298 1.52131 0.848635 0
M  V30 7169 C 665.43 3.03029 1.5616 0
M  V30 7170 H 666.623 2.98888 -0.246131 0
M  V30 7171 H 664.176 1.5542 -0.165622 0
M  V30 7172 H 664.911 2.34205 2.24317 0
M  V30 7173 H 664.696 3.74606 1.15812 0
M  V30 7174 H 666.186 3.58857 2.13569 0
M  V30 7175 N 666.623 0.143563 1.56945 0
M  V30 7176 C 667.872 -0.50835 1.95189 0
M  V30 7177 C 668.185 -1.66239 1.03073 0
M  V30 7178 O 669.391 -2.3787 1.30882 0
M  V30 7179 C 667.847 -0.955735 3.46978 0
M  V30 7180 C 667.455 0.171183 4.47673 0
M  V30 7181 C 669.199 -1.57763 3.94095 0
M  V30 7182 C 667.106 -0.294279 5.90667 0
M  V30 7183 H 666.036 -0.193679 0.728701 0
M  V30 7184 H 668.687 0.227357 1.82086 0
M  V30 7185 H 667.069 -1.7466 3.55401 0
M  V30 7186 H 668.243 0.948049 4.50942 0
M  V30 7187 H 666.558 0.701273 4.10452 0
M  V30 7188 H 669.155 -1.93745 4.98364 0
M  V30 7189 H 669.498 -2.46531 3.35452 0
M  V30 7190 H 670.031 -0.851728 3.88575 0
M  V30 7191 H 666.77 0.557939 6.53121 0
M  V30 7192 H 666.29 -1.0371 5.90766 0
M  V30 7193 H 667.969 -0.747426 6.42668 0
M  V30 7194 N 668.101 -1.57061 -0.130224 0
M  V30 7195 C 669.349 -1.83893 -0.838313 0
M  V30 7196 C 669.67 -0.727046 -1.80939 0
M  V30 7197 O 668.94 0.249927 -1.94299 0
M  V30 7198 H 667.52 -0.67846 -0.312573 0
M  V30 7199 H 670.182 -1.94529 -0.120224 0
M  V30 7200 H 669.278 -2.79419 -1.39038 0
M  V30 7201 N 669.579 0.400081 -1.52437 0
M  V30 7202 C 670.509 1.4947 -1.7939 0
M  V30 7203 C 671.49 1.57383 -0.645329 0
M  V30 7204 O 672.675 1.72511 -0.891826 0
M  V30 7205 C 669.805 2.87201 -1.95276 0
M  V30 7206 C 668.759 2.94134 -3.10917 0
M  V30 7207 C 668.085 4.34207 -3.1204 0
M  V30 7208 C 669.385 2.64791 -4.50203 0
M  V30 7209 H 671.079 1.27165 -2.71052 0
M  V30 7210 H 668.625 0.610312 -1.30427 0
M  V30 7211 H 670.578 3.63772 -2.12715 0
M  V30 7212 H 669.302 3.10819 -1.00294 0
M  V30 7213 H 667.961 2.20009 -2.93243 0
M  V30 7214 H 667.609 4.54848 -2.14761 0
M  V30 7215 H 667.309 4.39768 -3.89715 0
M  V30 7216 H 668.833 5.127 -3.31619 0
M  V30 7217 H 670.247 3.31083 -4.68035 0
M  V30 7218 H 668.644 2.81717 -5.29864 0
M  V30 7219 H 669.714 1.60184 -4.57678 0
M  V30 7220 N 671.057 1.43213 0.657864 0
M  V30 7221 C 672.304 1.44584 1.41781 0
M  V30 7222 C 672.632 0.0684208 1.9438 0
M  V30 7223 O 671.887 -0.925872 1.72413 0
M  V30 7224 C 672.186 2.43143 2.61947 0
M  V30 7225 C 671.852 3.89128 2.27794 0
M  V30 7226 C 670.514 4.28889 2.18191 0
M  V30 7227 C 672.866 4.81144 2.00375 0
M  V30 7228 C 670.194 5.58625 1.79319 0
M  V30 7229 C 672.546 6.11239 1.63003 0
M  V30 7230 C 671.21 6.49981 1.51922 0
M  V30 7231 H 670.48 0.529069 0.518813 0
M  V30 7232 H 673.127 1.76263 0.748577 0
M  V30 7233 H 671.432 2.04851 3.33981 0
M  V30 7234 H 673.129 2.4146 3.20153 0
M  V30 7235 H 669.719 3.57657 2.36176 0
M  V30 7236 H 673.903 4.512 2.06718 0
M  V30 7237 H 669.159 5.87486 1.69323 0
M  V30 7238 H 673.333 6.82014 1.40817 0
M  V30 7239 H 670.96 7.50416 1.21572 0
M  V30 7240 N 672.536 -0.895792 1.29666 0
M  V30 7241 C 673.783 -1.64664 1.17864 0
M  V30 7242 C 674.111 -1.92631 -0.26902 0
M  V30 7243 O 673.366 -1.53787 -1.21029 0
M  V30 7244 C 673.665 -3.00075 1.94139 0
M  V30 7245 C 673.331 -2.91702 3.43833 0
M  V30 7246 C 671.993 -2.89126 3.84656 0
M  V30 7247 C 674.345 -2.80622 4.39205 0
M  V30 7248 C 671.673 -2.73293 5.1916 0
M  V30 7249 C 674.025 -2.66329 5.73805 0
M  V30 7250 C 672.689 -2.62121 6.1388 0
M  V30 7251 H 671.959 -0.602549 0.431295 0
M  V30 7252 H 674.606 -1.04234 1.60648 0
M  V30 7253 H 672.911 -3.64394 1.43958 0
M  V30 7254 H 674.608 -3.57111 1.82408 0
M  V30 7255 H 671.198 -2.94511 3.11386 0
M  V30 7256 H 675.382 -2.81686 4.08615 0
M  V30 7257 H 670.638 -2.68443 5.49316 0
M  V30 7258 H 674.812 -2.56727 6.47352 0
M  V30 7259 H 672.439 -2.49611 7.18052 0
M  V30 7260 N 674.014 -1.12206 -1.10668 0
M  V30 7261 C 674.944 -0.810086 -2.18997 0
M  V30 7262 C 675.925 0.225065 -1.68604 0
M  V30 7263 O 677.11 0.086783 -1.94006 0
M  V30 7264 C 674.24 -0.261262 -3.46316 0
M  V30 7265 C 673.194 -1.2292 -4.09969 0
M  V30 7266 C 672.52 -0.540713 -5.31959 0
M  V30 7267 C 673.82 -2.58295 -4.53962 0
M  V30 7268 H 675.514 -1.7159 -2.45352 0
M  V30 7269 H 673.06 -0.82646 -1.17922 0
M  V30 7270 H 675.013 -0.0307522 -4.21389 0
M  V30 7271 H 673.737 0.679879 -3.19445 0
M  V30 7272 H 672.396 -1.44548 -3.369 0
M  V30 7273 H 672.044 0.405492 -5.01363 0
M  V30 7274 H 671.744 -1.18637 -5.75499 0
M  V30 7275 H 673.268 -0.319184 -6.09765 0
M  V30 7276 H 674.682 -2.40709 -5.20319 0
M  V30 7277 H 673.079 -3.18916 -5.08343 0
M  V30 7278 H 674.149 -3.16918 -3.67002 0
M  V30 7279 N 675.492 1.28418 -0.913599 0
M  V30 7280 C 676.424 2.26368 -0.359169 0
M  V30 7281 C 677.437 1.54858 0.502285 0
M  V30 7282 O 678.626 1.75659 0.31719 0
M  V30 7283 C 675.726 3.35112 0.50526 0
M  V30 7284 C 674.899 4.36126 -0.333648 0
M  V30 7285 C 673.958 5.24134 0.465845 0
M  V30 7286 O 672.984 5.6907 -0.121538 0
M  V30 7287 N 674.186 5.52892 1.76891 0
M  V30 7288 H 676.951 2.74579 -1.2011 0
M  V30 7289 H 674.512 1.41898 -0.779532 0
M  V30 7290 H 676.504 3.90926 1.04684 0
M  V30 7291 H 675.074 2.86611 1.2479 0
M  V30 7292 H 674.294 3.79776 -1.0566 0
M  V30 7293 H 675.582 5.00638 -0.907669 0
M  V30 7294 H 674.98 5.18217 2.26865 0
M  V30 7295 H 673.537 6.11464 2.25732 0
M  V30 7296 N 676.97 0.677563 1.42291 0
M  V30 7297 C 678.195 0.207901 2.06355 0
M  V30 7298 C 678.62 -1.12723 1.50583 0
M  V30 7299 O 677.978 -1.70171 0.62543 0
M  V30 7300 C 678.026 0.156489 3.6026 0
M  V30 7301 O 677.13 -0.874162 4.03029 0
M  V30 7302 H 676.471 0.106056 0.655475 0
M  V30 7303 H 679.001 0.927354 1.82377 0
M  V30 7304 H 679.011 -0.0187258 4.07996 0
M  V30 7305 H 677.686 1.13101 4.00226 0
M  V30 7306 H 676.263 -0.669764 3.66836 0
M  V30 7307 N 678.448 -1.51871 0.421078 0
M  V30 7308 C 679.395 -2.27334 -0.398508 0
M  V30 7309 C 680.365 -1.30241 -1.03085 0
M  V30 7310 O 681.55 -1.59121 -1.05285 0
M  V30 7311 C 678.69 -3.10664 -1.50272 0
M  V30 7312 C 677.803 -4.2273 -0.890122 0
M  V30 7313 C 676.938 -4.93399 -1.96803 0
M  V30 7314 C 675.977 -5.97409 -1.333 0
M  V30 7315 N 675.114 -6.61548 -2.35156 0
M  V30 7316 H 679.954 -2.96938 0.251411 0
M  V30 7317 H 677.491 -1.46472 0.135825 0
M  V30 7318 H 679.449 -3.57292 -2.15403 0
M  V30 7319 H 678.079 -2.43207 -2.1225 0
M  V30 7320 H 677.131 -3.80186 -0.127537 0
M  V30 7321 H 678.443 -4.97302 -0.386349 0
M  V30 7322 H 677.597 -5.43491 -2.69633 0
M  V30 7323 H 676.336 -4.18421 -2.50549 0
M  V30 7324 H 675.341 -5.46624 -0.59008 0
M  V30 7325 H 676.566 -6.74335 -0.803076 0
M  V30 7326 H 674.512 -5.89394 -2.88012 0
M  V30 7327 H 674.429 -7.31832 -1.89624 0
M  V30 7328 H 675.697 -7.16276 -3.0752 0
M  V30 7329 N 679.926 -0.151884 -1.56866 0
M  V30 7330 C 681.174 0.497021 -1.95893 0
M  V30 7331 C 681.495 1.65078 -1.03799 0
M  V30 7332 O 680.765 1.95642 -0.10049 0
M  V30 7333 H 679.345 0.186603 -0.723318 0
M  V30 7334 H 682.007 -0.228525 -1.93556 0
M  V30 7335 H 681.103 0.869933 -2.99731 0
M  V30 7336 N 681.404 1.57128 0.121893 0
M  V30 7337 C 682.653 1.83888 0.828748 0
M  V30 7338 C 682.966 0.737087 1.81181 0
M  V30 7339 O 684.172 0.891007 2.56463 0
M  V30 7340 C 682.628 3.26014 1.52455 0
M  V30 7341 C 682.236 4.44195 0.58263 0
M  V30 7342 C 683.98 3.62025 2.21671 0
M  V30 7343 C 681.887 5.77349 1.28149 0
M  V30 7344 H 680.817 0.685856 0.313238 0
M  V30 7345 H 683.468 1.83319 0.0814851 0
M  V30 7346 H 681.85 3.21044 2.31834 0
M  V30 7347 H 683.024 4.60457 -0.177729 0
M  V30 7348 H 681.339 4.164 -0.00241228 0
M  V30 7349 H 683.936 4.58776 2.74643 0
M  V30 7350 H 684.279 2.89315 2.99337 0
M  V30 7351 H 684.812 3.68767 1.49184 0
M  V30 7352 H 681.551 6.53221 0.546189 0
M  V30 7353 H 681.071 5.64978 2.01394 0
M  V30 7354 H 682.75 6.21006 1.81549 0
M  V30 7355 N 682.882 -0.391992 1.52647 0
M  V30 7356 C 684.131 -1.13449 1.6677 0
M  V30 7357 C 684.444 -1.91203 0.412399 0
M  V30 7358 O 685.65 -2.68013 0.433707 0
M  V30 7359 C 684.106 -2.06577 2.9471 0
M  V30 7360 C 683.714 -1.3426 4.27409 0
M  V30 7361 C 685.458 -2.80981 3.18198 0
M  V30 7362 C 683.365 -2.26136 5.46458 0
M  V30 7363 H 682.295 -0.427211 0.621295 0
M  V30 7364 H 684.946 -0.397522 1.79142 0
M  V30 7365 H 683.328 -2.83898 2.76076 0
M  V30 7366 H 684.502 -0.621856 4.56585 0
M  V30 7367 H 682.817 -0.718279 4.10158 0
M  V30 7368 H 685.414 -3.49898 4.04321 0
M  V30 7369 H 685.757 -3.44891 2.33144 0
M  V30 7370 H 686.29 -2.10754 3.37383 0
M  V30 7371 H 683.029 -1.66846 6.33911 0
M  V30 7372 H 682.549 -2.96134 5.21598 0
M  V30 7373 H 684.228 -2.86286 5.80215 0
M  V30 7374 N 684.36 -1.4356 -0.65026 0
M  V30 7375 C 685.59 -1.48563 -1.4357 0
M  V30 7376 C 685.998 -0.103041 -1.88919 0
M  V30 7377 O 685.341 0.897602 -1.60277 0
M  V30 7378 C 685.403 -2.37181 -2.70158 0
M  V30 7379 C 685.067 -3.84673 -2.4673 0
M  V30 7380 C 686.064 -4.75704 -2.09765 0
M  V30 7381 C 683.749 -4.29189 -2.60963 0
M  V30 7382 C 685.743 -6.09249 -1.87334 0
M  V30 7383 C 683.43 -5.62787 -2.38147 0
M  V30 7384 C 684.428 -6.52634 -2.01389 0
M  V30 7385 O 684.116 -7.83761 -1.78813 0
M  V30 7386 H 683.848 -0.506743 -0.447423 0
M  V30 7387 H 686.402 -1.89001 -0.80423 0
M  V30 7388 H 684.632 -1.91636 -3.35876 0
M  V30 7389 H 686.321 -2.33354 -3.32116 0
M  V30 7390 H 687.087 -4.42589 -1.98343 0
M  V30 7391 H 682.966 -3.59529 -2.88548 0
M  V30 7392 H 686.51 -6.7934 -1.58567 0
M  V30 7393 H 682.407 -5.95469 -2.49173 0
M  V30 7394 H 683.175 -7.95368 -1.93214 0
M  V30 7395 N 685.838 0.888903 -1.30139 0
M  V30 7396 C 687.254 1.17153 -1.08385 0
M  V30 7397 C 687.454 2.0088 0.157925 0
M  V30 7398 O 686.51 2.37668 0.852652 0
M  V30 7399 C 687.823 1.882 -2.34523 0
M  V30 7400 C 689.371 2.00981 -2.39949 0
M  V30 7401 C 689.846 2.75441 -3.65918 0
M  V30 7402 N 691.337 2.82989 -3.66704 0
M  V30 7403 C 692.072 3.41167 -4.60861 0
M  V30 7404 N 691.568 4.00425 -5.6536 0
M  V30 7405 N 693.361 3.38944 -4.48412 0
M  V30 7406 H 685.512 0.33053 -2.09812 0
M  V30 7407 H 687.775 0.208964 -0.924683 0
M  V30 7408 H 687.481 1.34119 -3.25123 0
M  V30 7409 H 687.355 2.88609 -2.42868 0
M  V30 7410 H 689.742 2.54234 -1.4983 0
M  V30 7411 H 689.823 0.996725 -2.35582 0
M  V30 7412 H 689.467 2.22861 -4.56394 0
M  V30 7413 H 689.397 3.77118 -3.67546 0
M  V30 7414 H 691.888 2.40912 -2.91153 0
M  V30 7415 H 692.201 4.42871 -6.33313 0
M  V30 7416 H 690.546 3.98856 -5.69157 0
M  V30 7417 H 693.737 2.91875 -3.6596 0
M  V30 7418 H 693.91 3.83989 -5.21974 0
M  V30 7419 N 687.317 1.12792 1.10072 0
M  V30 7420 C 688.594 0.796867 1.78632 0
M  V30 7421 C 688.974 -0.712739 1.98704 0
M  V30 7422 O 688.322 -1.64773 1.5831 0
M  V30 7423 C 688.532 1.57622 3.11378 0
M  V30 7424 C 689.88 1.76463 3.86194 0
M  V30 7425 O 690.904 1.54165 3.2111 0
M  V30 7426 O 689.763 2.13623 5.03018 0
M  V30 7427 H 686.857 0.290248 0.774394 0
M  V30 7428 H 689.403 1.23215 1.16688 0
M  V30 7429 H 688.175 2.60246 2.92212 0
M  V30 7430 H 687.798 1.13543 3.81043 0
M  V30 7431 N 688.795 -1.27931 0.920396 0
M  V30 7432 C 689.725 -2.29487 0.431024 0
M  V30 7433 C 690.706 -1.62435 -0.504861 0
M  V30 7434 O 691.891 -1.89797 -0.411176 0
M  V30 7435 C 689.021 -3.45788 -0.323709 0
M  V30 7436 C 687.975 -4.24784 0.523658 0
M  V30 7437 C 687.301 -5.33488 -0.359809 0
M  V30 7438 C 688.601 -4.90874 1.78437 0
M  V30 7439 H 690.295 -2.70671 1.27975 0
M  V30 7440 H 687.841 -1.30121 0.616813 0
M  V30 7441 H 689.794 -4.15927 -0.676952 0
M  V30 7442 H 688.518 -3.03502 -1.2064 0
M  V30 7443 H 687.177 -3.56382 0.85951 0
M  V30 7444 H 686.825 -4.87445 -1.24124 0
M  V30 7445 H 686.525 -5.87247 0.203605 0
M  V30 7446 H 688.049 -6.06472 -0.708787 0
M  V30 7447 H 689.463 -5.53339 1.49963 0
M  V30 7448 H 687.86 -5.54659 2.29071 0
M  V30 7449 H 688.93 -4.14988 2.50824 0
M  V30 7450 N 690.273 -0.685099 -1.4193 0
M  V30 7451 C 691.22 -0.0131869 -2.30796 0
M  V30 7452 C 692.19 0.782129 -1.46533 0
M  V30 7453 O 693.375 0.75229 -1.75343 0
M  V30 7454 C 690.515 0.924768 -3.32479 0
M  V30 7455 C 689.628 0.122181 -4.31827 0
M  V30 7456 C 688.763 1.05682 -5.20581 0
M  V30 7457 C 687.802 0.246526 -6.11603 0
M  V30 7458 N 686.939 1.13442 -6.92875 0
M  V30 7459 H 691.779 -0.776789 -2.87698 0
M  V30 7460 H 689.316 -0.394791 -1.41703 0
M  V30 7461 H 691.274 1.48251 -3.89971 0
M  V30 7462 H 689.904 1.65488 -2.77152 0
M  V30 7463 H 688.956 -0.552335 -3.76369 0
M  V30 7464 H 690.268 -0.506473 -4.96222 0
M  V30 7465 H 689.422 1.68415 -5.82856 0
M  V30 7466 H 688.161 1.71935 -4.56388 0
M  V30 7467 H 687.166 -0.393944 -5.48387 0
M  V30 7468 H 688.391 -0.412053 -6.77849 0
M  V30 7469 H 686.337 1.78316 -6.313 0
M  V30 7470 H 686.254 0.561089 -7.53915 0
M  V30 7471 H 687.522 1.74889 -7.59628 0
M  V30 7472 N 691.751 1.51645 -0.429126 0
M  V30 7473 C 692.681 2.30434 0.377148 0
M  V30 7474 C 693.662 1.35493 1.02838 0
M  V30 7475 O 694.847 1.6441 1.03359 0
M  V30 7476 C 691.977 3.14038 1.48315 0
M  V30 7477 C 690.931 4.1719 0.955855 0
M  V30 7478 C 690.257 4.89263 2.15698 0
M  V30 7479 C 691.557 5.223 -0.00402136 0
M  V30 7480 H 693.251 2.98085 -0.280336 0
M  V30 7481 H 690.797 1.43354 -0.136265 0
M  V30 7482 H 692.75 3.67933 2.05435 0
M  V30 7483 H 691.474 2.44193 2.16881 0
M  V30 7484 H 690.133 3.64335 0.406929 0
M  V30 7485 H 689.781 4.15929 2.82864 0
M  V30 7486 H 689.481 5.59009 1.81059 0
M  V30 7487 H 691.005 5.45978 2.73387 0
M  V30 7488 H 692.419 5.71315 0.476607 0
M  V30 7489 H 690.816 5.99525 -0.26258 0
M  V30 7490 H 691.886 4.75638 -0.943236 0
M  V30 7491 N 693.229 0.160201 1.56784 0
M  V30 7492 C 694.506 -0.533355 1.88188 0
M  V30 7493 C 694.886 -1.82072 1.06831 0
M  V30 7494 O 694.234 -2.27946 0.158959 0
M  V30 7495 C 694.444 -0.786034 3.40033 0
M  V30 7496 C 695.792 -1.12097 4.09536 0
M  V30 7497 O 696.816 -0.874949 3.45287 0
M  V30 7498 O 695.675 -1.58457 5.23023 0
M  V30 7499 H 692.769 -0.273589 0.780434 0
M  V30 7500 H 695.315 0.197803 1.68543 0
M  V30 7501 H 694.087 0.124515 3.91102 0
M  V30 7502 H 693.71 -1.57091 3.65251 0
M  V30 7503 N 694.707 -1.5719 -0.113559 0
M  V30 7504 C 695.655 -2.01725 -1.158 0
M  V30 7505 C 696.649 -0.915105 -1.42556 0
M  V30 7506 O 697.855 -1.10031 -1.42454 0
M  V30 7507 H 694.23 -0.64262 -0.390569 0
M  V30 7508 H 696.201 -2.88666 -0.755926 0
M  V30 7509 C 694.95 -2.44203 -2.47507 0
M  V30 7510 H 694.273 -3.28582 -2.27758 0
M  V30 7511 H 695.713 -2.79158 -3.19135 0
M  V30 7512 C 694.172 -1.30785 -3.10478 0
M  V30 7513 O 694.702 -0.626807 -3.9678 0
M  V30 7514 N 692.908 -1.06352 -2.7044 0
M  V30 7515 H 692.455 -1.61913 -2.00355 0
M  V30 7516 H 692.413 -0.306614 -3.12901 0
M  V30 7517 N 696.185 0.383891 -1.52853 0
M  V30 7518 C 697.431 1.13009 -1.68395 0
M  V30 7519 C 697.764 1.89488 -0.425195 0
M  V30 7520 O 697.039 1.8574 0.577136 0
M  V30 7521 C 697.322 2.10419 -2.92226 0
M  V30 7522 C 697.175 1.3767 -4.28214 0
M  V30 7523 C 698.494 3.10781 -3.11614 0
M  V30 7524 H 695.613 0.409463 -0.612788 0
M  V30 7525 H 698.255 0.412895 -1.85459 0
M  V30 7526 H 696.405 2.71579 -2.77808 0
M  V30 7527 H 698.077 0.794352 -4.54409 0
M  V30 7528 H 696.32 0.678533 -4.2846 0
M  V30 7529 H 696.991 2.08874 -5.10956 0
M  V30 7530 H 699.467 2.59715 -3.25096 0
M  V30 7531 H 698.343 3.76179 -3.99725 0
M  V30 7532 H 698.604 3.79933 -2.2606 0
M  V30 7533 N 697.663 1.43903 0.642637 0
M  V30 7534 C 698.596 1.44339 1.76753 0
M  V30 7535 C 699.574 0.303558 1.59741 0
M  V30 7536 O 700.758 0.498775 1.81781 0
M  V30 7537 C 697.885 1.26508 3.14187 0
M  V30 7538 C 696.931 2.43905 3.49875 0
M  V30 7539 S 697.764 4.0645 3.48653 0
M  V30 7540 C 698.92 3.91021 4.88726 0
M  V30 7541 H 699.153 2.39523 1.76113 0
M  V30 7542 H 696.686 1.31061 0.81623 0
M  V30 7543 H 698.644 1.16908 3.93501 0
M  V30 7544 H 697.305 0.328548 3.12377 0
M  V30 7545 H 696.498 2.27262 4.49853 0
M  V30 7546 H 696.1 2.50186 2.77998 0
M  V30 7547 H 698.392 3.54 5.77659 0
M  V30 7548 H 699.335 4.9079 5.10423 0
M  V30 7549 H 699.743 3.23287 4.62759 0
M  V30 7550 N 699.141 -0.881989 1.30609 0
M  V30 7551 C 700.071 -2.00413 1.1982 0
M  V30 7552 C 701.052 -1.69871 0.0881538 0
M  V30 7553 O 702.237 -1.92304 0.2707 0
M  V30 7554 C 699.367 -3.35641 0.89233 0
M  V30 7555 C 698.321 -3.80451 1.96064 0
M  V30 7556 C 697.647 -5.13003 1.5077 0
M  V30 7557 C 698.947 -3.98855 3.37213 0
M  V30 7558 H 700.641 -2.09698 2.13699 0
M  V30 7559 H 698.187 -1.00754 1.02882 0
M  V30 7560 H 700.14 -4.13669 0.803497 0
M  V30 7561 H 698.864 -3.26497 -0.0821381 0
M  V30 7562 H 697.523 -3.04654 2.03916 0
M  V30 7563 H 697.171 -5.0029 0.521417 0
M  V30 7564 H 696.871 -5.43956 2.22229 0
M  V30 7565 H 698.395 -5.93554 1.43271 0
M  V30 7566 H 699.809 -4.67312 3.32103 0
M  V30 7567 H 698.206 -4.41188 4.06784 0
M  V30 7568 H 699.276 -3.02614 3.78883 0
M  V30 7569 N 700.619 -1.13374 -1.09472 0
M  V30 7570 C 701.896 -0.806329 -1.78207 0
M  V30 7571 C 702.276 0.702191 -1.99079 0
M  V30 7572 O 701.624 1.63931 -1.59182 0
M  V30 7573 C 701.834 -1.59271 -3.10538 0
M  V30 7574 C 703.182 -1.78509 -3.85253 0
M  V30 7575 O 704.206 -1.55866 -3.20288 0
M  V30 7576 O 703.065 -2.16287 -5.01879 0
M  V30 7577 H 700.159 -0.29435 -0.772843 0
M  V30 7578 H 702.705 -1.23833 -1.16033 0
M  V30 7579 H 701.477 -2.61792 -2.90828 0
M  V30 7580 H 701.1 -1.15562 -3.80436 0
M  V30 7581 N 702.098 1.27442 -0.927168 0
M  V30 7582 C 703.323 1.99036 -0.583042 0
M  V30 7583 C 703.748 1.68711 0.83176 0
M  V30 7584 O 703.106 0.927081 1.55804 0
M  V30 7585 C 703.154 3.51271 -0.814925 0
M  V30 7586 O 702.258 4.12226 0.119742 0
M  V30 7587 H 701.599 0.624883 -0.224538 0
M  V30 7588 H 704.129 1.62263 -1.24628 0
M  V30 7589 H 704.139 4.01411 -0.730282 0
M  V30 7590 H 702.814 3.72676 -1.84623 0
M  V30 7591 H 701.391 3.72897 -0.0147688 0
M  V30 7592 N 703.576 0.692616 1.41565 0
M  V30 7593 C 704.486 0.0258451 2.34586 0
M  V30 7594 C 705.502 -0.769324 1.56069 0
M  V30 7595 O 706.678 -0.707563 1.88562 0
M  V30 7596 C 703.743 -0.901289 3.3478 0
M  V30 7597 C 702.804 -0.0986579 4.29187 0
M  V30 7598 C 702.037 -0.981634 5.24595 0
M  V30 7599 O 702.26 -2.22115 5.25377 0
M  V30 7600 O 701.194 -0.432892 6.00341 0
M  V30 7601 H 705.02 0.792537 2.93177 0
M  V30 7602 H 702.605 0.452935 1.42369 0
M  V30 7603 H 704.487 -1.43302 3.96286 0
M  V30 7604 H 703.162 -1.64752 2.78637 0
M  V30 7605 H 702.069 0.477604 3.71039 0
M  V30 7606 H 703.402 0.608848 4.8842 0
M  V30 7607 N 705.054 -1.51416 0.437162 0
M  V30 7608 C 706.302 -2.01687 -0.129108 0
M  V30 7609 C 706.623 -1.32329 -1.43227 0
M  V30 7610 O 705.893 -0.457796 -1.90476 0
M  V30 7611 H 704.473 -0.745277 -0.0507023 0
M  V30 7612 H 707.135 -1.86075 0.579828 0
M  V30 7613 H 706.231 -3.10605 -0.305141 0
M  V30 7614 N 706.532 -0.168513 -1.56696 0
M  V30 7615 C 707.482 0.7751 -2.14421 0
M  V30 7616 C 708.466 1.19476 -1.07769 0
M  V30 7617 O 709.658 1.15759 -1.33898 0
M  V30 7618 C 706.787 2.00549 -2.7863 0
M  V30 7619 C 705.873 1.60795 -3.92436 0
M  V30 7620 N 706.264 0.919812 -4.97366 0
M  V30 7621 C 704.562 1.89917 -4.03544 0
M  V30 7622 C 705.263 0.724485 -5.77171 0
M  V30 7623 N 704.239 1.26505 -5.28675 0
M  V30 7624 H 708.041 0.240349 -2.92916 0
M  V30 7625 H 705.555 0.0322675 -1.62368 0
M  V30 7626 H 707.552 2.6917 -3.1836 0
M  V30 7627 H 706.212 2.54522 -2.01615 0
M  V30 7628 H 707.223 0.578169 -5.14663 0
M  V30 7629 H 703.9 2.45587 -3.37629 0
M  V30 7630 H 705.29 0.180521 -6.71657 0
M  V30 7631 N 708.01 1.57248 0.105221 0
M  V30 7632 C 709.259 1.84756 0.809198 0
M  V30 7633 C 709.572 0.756262 1.80389 0
M  V30 7634 O 710.778 0.918158 2.55504 0
M  V30 7635 C 709.234 3.27613 1.48989 0
M  V30 7636 C 708.842 4.44788 0.535484 0
M  V30 7637 C 710.586 3.64356 2.17819 0
M  V30 7638 C 708.493 5.78676 1.22019 0
M  V30 7639 H 707.423 0.689139 0.305946 0
M  V30 7640 H 710.074 1.83395 0.0620371 0
M  V30 7641 H 708.456 3.23485 2.28415 0
M  V30 7642 H 709.63 4.60243 -0.226557 0
M  V30 7643 H 707.945 4.16374 -0.0465769 0
M  V30 7644 H 710.542 4.61663 2.69761 0
M  V30 7645 H 710.885 2.92474 2.96251 0
M  V30 7646 H 711.418 3.70328 1.45264 0
M  V30 7647 H 708.157 6.53763 0.476875 0
M  V30 7648 H 707.677 5.67083 1.9539 0
M  V30 7649 H 709.356 6.22897 1.74952 0
M  V30 7650 N 709.488 -0.375779 1.53054 0
M  V30 7651 C 710.435 -1.45978 1.78771 0
M  V30 7652 C 711.405 -1.53625 0.631552 0
M  V30 7653 O 712.59 -1.69674 0.872667 0
M  V30 7654 C 709.73 -2.8305 1.97425 0
M  V30 7655 C 708.843 -2.84451 3.25134 0
M  V30 7656 C 707.978 -4.13034 3.34031 0
M  V30 7657 C 707.017 -4.08536 4.55812 0
M  V30 7658 N 706.154 -5.2875 4.61918 0
M  V30 7659 H 710.994 -1.23349 2.71273 0
M  V30 7660 H 708.531 -0.598147 1.3439 0
M  V30 7661 H 710.489 -3.62666 2.06225 0
M  V30 7662 H 709.119 -3.04101 1.0827 0
M  V30 7663 H 708.171 -1.97127 3.25338 0
M  V30 7664 H 709.483 -2.76998 4.14818 0
M  V30 7665 H 708.637 -5.0106 3.42087 0
M  V30 7666 H 707.376 -4.23226 2.42345 0
M  V30 7667 H 706.381 -3.18897 4.47867 0
M  V30 7668 H 707.606 -3.99955 5.48828 0
M  V30 7669 H 705.552 -5.39547 3.73129 0
M  V30 7670 H 705.469 -5.23426 5.45492 0
M  V30 7671 H 706.737 -6.18637 4.74245 0
M  V30 7672 N 710.966 -1.44241 -0.634997 0
M  V30 7673 C 712.215 -1.46102 -1.39058 0
M  V30 7674 C 712.528 -0.0959909 -1.95364 0
M  V30 7675 O 713.734 0.00788751 -2.71499 0
M  V30 7676 C 712.19 -2.57195 -2.51751 0
M  V30 7677 C 711.798 -3.99888 -2.01974 0
M  V30 7678 C 713.542 -2.68272 -3.28984 0
M  V30 7679 C 711.449 -5.02412 -3.11987 0
M  V30 7680 H 710.379 -0.543556 -0.522554 0
M  V30 7681 H 713.03 -1.70294 -0.683538 0
M  V30 7682 H 711.412 -2.26237 -3.25012 0
M  V30 7683 H 712.586 -4.40396 -1.35604 0
M  V30 7684 H 710.901 -3.93019 -1.37568 0
M  V30 7685 H 713.498 -3.42042 -4.10988 0
M  V30 7686 H 713.841 -1.73957 -3.78212 0
M  V30 7687 H 714.374 -2.98622 -2.62812 0
M  V30 7688 H 711.113 -5.98342 -2.67707 0
M  V30 7689 H 710.633 -4.66501 -3.77011 0
M  V30 7690 H 712.312 -5.25939 -3.76825 0
M  V30 7691 N 712.444 0.87505 -1.31075 0
M  V30 7692 C 713.407 1.96333 -1.18263 0
M  V30 7693 C 714.407 1.60416 -0.111106 0
M  V30 7694 O 715.597 1.7044 -0.359987 0
M  V30 7695 C 712.729 3.31036 -0.81414 0
M  V30 7696 H 713.922 2.09125 -2.14958 0
M  V30 7697 H 711.475 1.06271 -1.14614 0
M  V30 7698 H 712.21 3.23944 0.151875 0
M  V30 7699 H 711.995 3.58476 -1.58862 0
M  V30 7700 H 713.485 4.10842 -0.748249 0
M  V30 7701 N 713.922 1.13953 1.08869 0
M  V30 7702 C 715.199 0.815768 1.77777 0
M  V30 7703 C 715.579 -0.691624 1.99449 0
M  V30 7704 O 714.927 -1.63085 1.60049 0
M  V30 7705 C 715.137 1.60916 3.09689 0
M  V30 7706 C 716.485 1.80549 3.84301 0
M  V30 7707 O 717.509 1.57562 3.19457 0
M  V30 7708 O 716.368 2.18946 5.00724 0
M  V30 7709 H 713.462 0.298445 0.771271 0
M  V30 7710 H 716.008 1.24446 1.15374 0
M  V30 7711 H 714.78 2.6333 2.89435 0
M  V30 7712 H 714.403 1.17578 3.79817 0
M  V30 7713 N 715.4 -1.26948 0.933913 0
M  V30 7714 C 716.647 -1.94087 0.577625 0
M  V30 7715 C 716.975 -1.73345 -0.88214 0
M  V30 7716 O 716.23 -1.05945 -1.64542 0
M  V30 7717 C 716.529 -3.46963 0.857406 0
M  V30 7718 C 716.195 -3.87834 2.2999 0
M  V30 7719 C 714.857 -3.98704 2.69423 0
M  V30 7720 C 717.209 -4.08442 3.23766 0
M  V30 7721 C 714.537 -4.27573 4.01744 0
M  V30 7722 C 716.889 -4.38798 4.55675 0
M  V30 7723 C 715.553 -4.47881 4.94934 0
M  V30 7724 H 714.823 -0.710215 0.211368 0
M  V30 7725 H 717.47 -1.50899 1.17905 0
M  V30 7726 H 715.775 -3.91416 0.173369 0
M  V30 7727 H 717.472 -3.97062 0.560615 0
M  V30 7728 H 714.062 -3.79916 1.98399 0
M  V30 7729 H 718.246 -3.99479 2.94499 0
M  V30 7730 H 713.502 -4.32815 4.31834 0
M  V30 7731 H 717.676 -4.5369 5.28335 0
M  V30 7732 H 715.303 -4.70005 5.97495 0
M  V30 7733 N 716.879 -0.700114 -1.41195 0
M  V30 7734 C 718.127 -0.232546 -2.00758 0
M  V30 7735 C 718.448 1.1734 -1.55745 0
M  V30 7736 O 717.718 1.79262 -0.790058 0
M  V30 7737 H 716.298 -0.0829845 -0.742376 0
M  V30 7738 H 718.96 -0.902289 -1.72756 0
M  V30 7739 H 718.056 -0.253521 -3.11069 0
M  V30 7740 N 718.357 1.51182 -0.445186 0
M  V30 7741 C 719.29 2.24528 0.4077 0
M  V30 7742 C 720.268 1.26778 1.01814 0
M  V30 7743 O 721.452 1.55934 1.05909 0
M  V30 7744 C 718.579 3.00171 1.56892 0
M  V30 7745 C 717.625 4.12641 1.0784 0
M  V30 7746 S 718.458 5.35498 0.014049 0
M  V30 7747 C 719.614 6.14681 1.17975 0
M  V30 7748 H 719.847 2.96522 -0.214987 0
M  V30 7749 H 717.38 1.52681 -0.229781 0
M  V30 7750 H 719.338 3.44349 2.23459 0
M  V30 7751 H 717.999 2.27752 2.16304 0
M  V30 7752 H 717.192 4.64875 1.94698 0
M  V30 7753 H 716.794 3.70765 0.490852 0
M  V30 7754 H 719.086 6.44244 2.09658 0
M  V30 7755 H 720.029 7.04659 0.697222 0
M  V30 7756 H 720.437 5.46299 1.42187 0
M  V30 7757 N 719.835 0.176821 1.56605 0
M  V30 7758 C 721.075 -0.469104 1.98944 0
M  V30 7759 C 721.439 -1.60048 1.06059 0
M  V30 7760 O 722.64 -2.30934 1.3756 0
M  V30 7761 C 720.911 -0.934571 3.44965 0
M  V30 7762 S 722.47 -1.58091 4.09332 0
M  V30 7763 H 719.288 -0.150695 0.694847 0
M  V30 7764 H 721.89 0.27558 1.93548 0
M  V30 7765 H 720.594 -0.100814 4.10276 0
M  V30 7766 H 720.125 -1.71316 3.54139 0
M  V30 7767 H 722.14 -2.86922 4.04834 0
M  V30 7768 N 721.313 -1.57302 -0.09688 0
M  V30 7769 C 722.26 -2.01933 -1.11766 0
M  V30 7770 C 723.23 -0.895329 -1.39904 0
M  V30 7771 O 724.415 -1.16119 -1.51397 0
M  V30 7772 C 721.555 -2.44726 -2.43317 0
M  V30 7773 C 720.668 -3.70639 -2.21925 0
M  V30 7774 C 719.803 -4.02318 -3.46862 0
M  V30 7775 C 718.842 -5.21346 -3.20725 0
M  V30 7776 N 717.979 -5.48787 -4.37924 0
M  V30 7777 H 722.819 -2.88919 -0.730075 0
M  V30 7778 H 720.356 -1.42901 -0.348962 0
M  V30 7779 H 722.314 -2.6758 -3.20088 0
M  V30 7780 H 720.944 -1.60753 -2.79926 0
M  V30 7781 H 719.996 -3.55271 -1.35965 0
M  V30 7782 H 721.308 -4.57557 -1.98603 0
M  V30 7783 H 720.462 -4.25939 -4.32042 0
M  V30 7784 H 719.201 -3.13918 -3.73238 0
M  V30 7785 H 718.206 -4.97547 -2.33938 0
M  V30 7786 H 719.431 -6.11343 -2.95697 0
M  V30 7787 H 717.377 -4.63346 -4.64378 0
M  V30 7788 H 717.294 -6.30073 -4.17785 0
M  V30 7789 H 718.562 -5.76943 -5.24173 0
M  V30 7790 N 722.791 0.367657 -1.53252 0
M  V30 7791 C 723.701 1.47415 -1.82499 0
M  V30 7792 C 724.717 1.58711 -0.713222 0
M  V30 7793 O 725.893 1.74644 -1.00306 0
M  V30 7794 C 722.958 2.82706 -2.00694 0
M  V30 7795 C 722.019 2.80955 -3.24596 0
M  V30 7796 C 721.252 4.09793 -3.41914 0
M  V30 7797 O 721.475 5.05852 -2.63572 0
M  V30 7798 O 720.409 4.15731 -4.3526 0
M  V30 7799 H 724.235 1.25624 -2.765 0
M  V30 7800 H 721.82 0.557559 -1.38606 0
M  V30 7801 H 723.702 3.62873 -2.14246 0
M  V30 7802 H 722.377 3.04479 -1.09883 0
M  V30 7803 H 721.284 1.99494 -3.16469 0
M  V30 7804 H 722.617 2.64136 -4.15323 0
M  V30 7805 N 724.269 1.44576 0.627338 0
M  V30 7806 C 725.217 1.52039 1.76031 0
M  V30 7807 C 726.211 0.391796 1.64807 0
M  V30 7808 O 727.417 0.5669 1.7084 0
M  V30 7809 H 723.792 0.477165 0.581221 0
M  V30 7810 H 725.763 2.47387 1.6686 0
M  V30 7811 C 724.512 1.48539 3.14375 0
M  V30 7812 H 723.835 2.34699 3.23661 0
M  V30 7813 H 725.275 1.57821 3.93534 0
M  V30 7814 C 723.734 0.20672 3.36265 0
M  V30 7815 O 724.264 -0.72154 3.95167 0
M  V30 7816 N 722.47 0.108654 2.90397 0
M  V30 7817 H 722.017 0.864884 2.42647 0
M  V30 7818 H 721.975 -0.746121 3.05418 0
M  V30 7819 N 725.747 -0.868086 1.31537 0
M  V30 7820 C 726.996 -1.61607 1.20689 0
M  V30 7821 C 727.309 -1.94204 -0.233275 0
M  V30 7822 O 728.515 -2.67515 -0.463465 0
M  V30 7823 C 726.971 -2.91348 2.11292 0
M  V30 7824 C 726.579 -2.66227 3.60315 0
M  V30 7825 C 728.323 -3.69344 2.09249 0
M  V30 7826 C 726.23 -3.91887 4.42921 0
M  V30 7827 H 725.16 -0.606373 0.448138 0
M  V30 7828 H 727.811 -0.959666 1.56405 0
M  V30 7829 H 726.193 -3.58374 1.68477 0
M  V30 7830 H 727.367 -2.07597 4.11388 0
M  V30 7831 H 725.682 -2.01582 3.64354 0
M  V30 7832 H 728.279 -4.62567 2.68209 0
M  V30 7833 H 728.622 -4.02044 1.0801 0
M  V30 7834 H 729.155 -3.09205 2.50274 0
M  V30 7835 H 725.894 -3.64336 5.44922 0
M  V30 7836 H 725.414 -4.49961 3.96605 0
M  V30 7837 H 727.093 -4.59754 4.55231 0
M  V30 7838 N 727.225 -1.14528 -1.08264 0
M  V30 7839 C 728.471 -0.925721 -1.81113 0
M  V30 7840 C 728.826 0.54185 -1.84612 0
M  V30 7841 O 728.119 1.39628 -1.31205 0
M  V30 7842 C 728.313 -1.46226 -3.26117 0
M  V30 7843 C 728.142 -2.98047 -3.36746 0
M  V30 7844 C 726.912 -3.66508 -3.4785 0
M  V30 7845 C 729.11 -3.95903 -3.28277 0
M  V30 7846 N 727.092 -5.06227 -3.47285 0
M  V30 7847 C 728.463 -5.21883 -3.34721 0
M  V30 7848 C 730.518 -3.88002 -3.12024 0
M  V30 7849 C 729.221 -6.40886 -3.26585 0
M  V30 7850 C 731.247 -5.06553 -3.05219 0
M  V30 7851 C 730.609 -6.31403 -3.12266 0
M  V30 7852 H 726.708 -0.392294 -0.676483 0
M  V30 7853 H 729.292 -1.45567 -1.293 0
M  V30 7854 H 727.463 -0.959076 -3.76373 0
M  V30 7855 H 729.195 -1.18247 -3.8704 0
M  V30 7856 H 725.95 -3.17067 -3.51804 0
M  V30 7857 H 726.374 -5.79172 -3.50555 0
M  V30 7858 H 731.016 -2.9235 -3.05436 0
M  V30 7859 H 728.734 -7.36781 -3.31934 0
M  V30 7860 H 732.32 -5.02191 -2.93761 0
M  V30 7861 H 731.2 -7.21596 -3.07032 0
M  V30 7862 N 728.703 1.26451 -0.940633 0
M  V30 7863 C 729.98 1.88947 -0.505811 0
M  V30 7864 C 730.36 1.85011 1.01657 0
M  V30 7865 O 729.708 1.30406 1.87634 0
M  V30 7866 C 729.918 3.32304 -1.06654 0
M  V30 7867 C 731.266 4.09153 -1.13486 0
M  V30 7868 O 732.29 3.41371 -1.01708 0
M  V30 7869 O 731.149 5.30369 -1.31797 0
M  V30 7870 H 728.243 0.810422 -0.164759 0
M  V30 7871 H 730.789 1.34625 -1.03316 0
M  V30 7872 H 729.561 3.29527 -2.11015 0
M  V30 7873 H 729.184 3.94164 -0.521603 0
M  V30 7874 N 730.181 0.707592 1.40822 0
M  V30 7875 C 731.429 0.243189 2.00632 0
M  V30 7876 C 731.75 -1.16512 1.56365 0
M  V30 7877 O 731.02 -1.78841 0.799553 0
M  V30 7878 H 729.6 0.0869203 0.741926 0
M  V30 7879 H 732.262 0.911438 1.72275 0
M  V30 7880 H 731.358 0.270014 3.1093 0
M  V30 7881 N 731.66 -1.50943 0.453197 0
M  V30 7882 C 732.906 -2.02512 -0.108082 0
M  V30 7883 C 733.239 -1.33574 -1.40967 0
M  V30 7884 O 732.514 -0.455671 -1.89087 0
M  V30 7885 C 732.797 -3.58759 -0.310453 0
M  V30 7886 C 732.65 -4.38293 1.0109 0
M  V30 7887 C 733.969 -4.26816 -1.07313 0
M  V30 7888 H 731.088 -0.73603 -0.0378064 0
M  V30 7889 H 733.73 -1.80433 0.595295 0
M  V30 7890 H 731.88 -3.77702 -0.909582 0
M  V30 7891 H 733.552 -4.30964 1.64523 0
M  V30 7892 H 731.795 -4.02745 1.61179 0
M  V30 7893 H 732.466 -5.45828 0.82315 0
M  V30 7894 H 734.942 -4.1224 -0.565473 0
M  V30 7895 H 733.818 -5.35989 -1.1835 0
M  V30 7896 H 734.079 -3.88757 -2.10525 0
M  V30 7897 N 733.138 -0.185124 -1.56509 0
M  V30 7898 C 734.366 0.462139 -2.01673 0
M  V30 7899 C 734.781 1.55873 -1.06532 0
M  V30 7900 O 734.138 1.82371 -0.0684805 0
M  V30 7901 C 734.189 1.0277 -3.46584 0
M  V30 7902 O 733.91 -0.0251296 -4.38093 0
M  V30 7903 C 735.411 1.75183 -4.07217 0
M  V30 7904 H 732.631 0.117001 -0.660721 0
M  V30 7905 H 735.175 -0.290905 -2.0242 0
M  V30 7906 H 733.33 1.73118 -3.46568 0
M  V30 7907 H 733.744 0.394387 -5.23015 0
M  V30 7908 H 735.218 2.09999 -5.10494 0
M  V30 7909 H 735.695 2.6519 -3.50101 0
M  V30 7910 H 736.301 1.09445 -4.10977 0
M  V30 7911 N 734.616 1.57351 0.0885366 0
M  V30 7912 C 735.844 1.90631 0.804196 0
M  V30 7913 C 736.259 0.779474 1.71958 0
M  V30 7914 O 735.616 -0.248179 1.80805 0
M  V30 7915 C 735.667 3.23568 1.61202 0
M  V30 7916 O 735.388 4.31917 0.733447 0
M  V30 7917 C 736.889 3.70753 2.43016 0
M  V30 7918 H 734.109 0.630501 0.229585 0
M  V30 7919 H 736.653 2.044 0.0638092 0
M  V30 7920 H 734.808 3.11377 2.30485 0
M  V30 7921 H 735.222 5.08297 1.29361 0
M  V30 7922 H 736.696 4.66447 2.9518 0
M  V30 7923 H 737.173 2.98922 3.2178 0
M  V30 7924 H 737.779 3.85834 1.7892 0
M  V30 7925 N 736.094 -0.359525 1.53444 0
M  V30 7926 C 737.041 -1.44073 1.8031 0
M  V30 7927 C 738.011 -1.52946 0.647811 0
M  V30 7928 O 739.196 -1.68739 0.890614 0
M  V30 7929 C 736.336 -2.80941 2.00416 0
M  V30 7930 C 735.449 -2.80986 3.28132 0
M  V30 7931 C 734.584 -4.09468 3.38393 0
M  V30 7932 C 733.623 -4.03679 4.60119 0
M  V30 7933 N 732.76 -5.23821 4.675 0
M  V30 7934 H 737.6 -1.20464 2.72566 0
M  V30 7935 H 735.137 -0.583859 1.35017 0
M  V30 7936 H 737.095 -3.60459 2.1006 0
M  V30 7937 H 735.725 -3.02936 1.11489 0
M  V30 7938 H 734.777 -1.93666 3.27411 0
M  V30 7939 H 736.089 -2.72583 4.17732 0
M  V30 7940 H 735.243 -4.97404 3.47382 0
M  V30 7941 H 733.982 -4.20632 2.4682 0
M  V30 7942 H 732.987 -3.14129 4.51224 0
M  V30 7943 H 734.212 -3.94112 5.5304 0
M  V30 7944 H 732.158 -5.35559 3.7883 0
M  V30 7945 H 732.075 -5.17611 5.51013 0
M  V30 7946 H 733.343 -6.13572 4.8078 0
M  V30 7947 N 737.572 -1.44907 -0.619662 0
M  V30 7948 C 738.8 -1.51795 -1.40591 0
M  V30 7949 C 739.215 -0.146553 -1.8823 0
M  V30 7950 O 738.572 0.849698 -1.61513 0
M  V30 7951 C 738.623 -2.49229 -2.61853 0
M  V30 7952 O 738.344 -3.81039 -2.16197 0
M  V30 7953 C 739.845 -2.65696 -3.54853 0
M  V30 7954 H 737.065 -0.514463 -0.430777 0
M  V30 7955 H 739.609 -1.8998 -0.756813 0
M  V30 7956 H 737.764 -2.14149 -3.2283 0
M  V30 7957 H 738.178 -4.33747 -2.94896 0
M  V30 7958 H 739.652 -3.37874 -4.36515 0
M  V30 7959 H 740.129 -1.71316 -4.0441 0
M  V30 7960 H 740.735 -3.01724 -2.99737 0
M  V30 7961 N 739.05 0.861098 -1.31996 0
M  V30 7962 C 740.297 1.61481 -1.22188 0
M  V30 7963 C 740.625 1.93276 0.217853 0
M  V30 7964 O 739.88 1.56942 1.16909 0
M  V30 7965 C 740.179 2.94822 -2.02027 0
M  V30 7966 C 739.845 2.82483 -3.51446 0
M  V30 7967 C 738.507 2.78825 -3.92186 0
M  V30 7968 C 740.859 2.68878 -4.46491 0
M  V30 7969 C 738.187 2.59433 -5.26224 0
M  V30 7970 C 740.539 2.51022 -5.80664 0
M  V30 7971 C 739.203 2.45753 -6.20614 0
M  V30 7972 H 738.473 0.590902 -0.447119 0
M  V30 7973 H 741.12 0.999376 -1.63355 0
M  V30 7974 H 739.425 3.6045 -1.53569 0
M  V30 7975 H 741.122 3.52149 -1.91812 0
M  V30 7976 H 737.712 2.86152 -3.19085 0
M  V30 7977 H 741.896 2.70754 -4.1594 0
M  V30 7978 H 737.152 2.53784 -5.5624 0
M  V30 7979 H 741.326 2.39473 -6.53931 0
M  V30 7980 H 738.953 2.30485 -7.24417 0
M  V30 7981 N 740.528 1.15101 1.07655 0
M  V30 7982 C 741.768 0.934462 1.81789 0
M  V30 7983 C 742.132 -0.529101 1.84566 0
M  V30 7984 O 743.333 -0.863868 2.5454 0
M  V30 7985 C 741.604 1.52817 3.23082 0
M  V30 7986 S 743.163 1.45429 4.14 0
M  V30 7987 H 739.981 0.336379 0.626395 0
M  V30 7988 H 742.583 1.46593 1.29347 0
M  V30 7989 H 741.287 2.58635 3.18647 0
M  V30 7990 H 740.818 0.995432 3.80598 0
M  V30 7991 H 742.833 0.445058 4.942 0
M  V30 7992 N 742.006 -1.2595 0.947325 0
M  V30 7993 C 743.254 -1.93081 0.596996 0
M  V30 7994 C 743.575 -1.74632 -0.867672 0
M  V30 7995 O 742.845 -1.1056 -1.6172 0
M  V30 7996 H 741.425 -0.714542 0.217805 0
M  V30 7997 H 744.087 -1.53265 1.20398 0
M  V30 7998 H 743.183 -3.01134 0.82004 0
M  V30 7999 N 743.484 -0.715051 -1.40445 0
M  V30 8000 C 744.712 -0.263959 -2.05209 0
M  V30 8001 C 745.127 1.09403 -1.53871 0
M  V30 8002 O 744.484 1.68746 -0.695064 0
M  V30 8003 C 744.535 -0.234545 -3.60738 0
M  V30 8004 O 744.256 -1.53891 -4.10182 0
M  V30 8005 C 745.757 0.235164 -4.42676 0
M  V30 8006 H 742.977 -0.11876 -0.660407 0
M  V30 8007 H 745.521 -0.973107 -1.79864 0
M  V30 8008 H 743.676 0.425563 -3.85055 0
M  V30 8009 H 744.09 -1.43903 -5.04373 0
M  V30 8010 H 745.564 0.204598 -5.51621 0
M  V30 8011 H 746.041 1.27724 -4.20218 0
M  V30 8012 H 746.647 -0.394649 -4.23465 0
M  V30 8013 N 744.962 1.50701 -0.461195 0
M  V30 8014 C 746.373 1.867 -0.00370227 0
M  V30 8015 C 746.724 1.37673 1.39787 0
M  V30 8016 O 745.849 0.737515 2.03445 0
M  V30 8017 C 746.444 3.388 5.75786e-05 0
M  V30 8018 C 745.003 3.74247 0.402044 0
M  V30 8019 C 744.15 2.74549 -0.389652 0
M  V30 8020 H 747.101 1.43585 -0.675942 0
M  V30 8021 H 747.122 3.719 0.804414 0
M  V30 8022 H 746.634 3.74452 -1.02015 0
M  V30 8023 H 744.735 3.44192 1.42697 0
M  V30 8024 H 744.848 4.78973 0.110265 0
M  V30 8025 H 743.212 2.54226 0.155314 0
M  V30 8026 H 743.995 3.13044 -1.40919 0
M  V30 8027 N 746.441 0.193421 1.56409 0
M  V30 8028 C 747.718 -0.493318 1.89277 0
M  V30 8029 C 748.098 -1.79765 1.10669 0
M  V30 8030 O 747.446 -2.27558 0.207274 0
M  V30 8031 C 747.656 -0.713732 3.41624 0
M  V30 8032 C 749.004 -1.03385 4.11821 0
M  V30 8033 O 750.028 -0.801511 3.47065 0
M  V30 8034 O 748.887 -1.47327 5.26267 0
M  V30 8035 H 745.981 -0.256973 0.786062 0
M  V30 8036 H 748.527 0.23351 1.68086 0
M  V30 8037 H 747.299 0.207446 3.9075 0
M  V30 8038 H 746.922 -1.49308 3.68501 0
M  V30 8039 N 747.919 -1.57396 -0.0801906 0
M  V30 8040 C 749.149 -1.90778 -0.792924 0
M  V30 8041 C 749.557 -0.786814 -1.72064 0
M  V30 8042 O 748.9 0.249259 -1.82001 0
M  V30 8043 C 748.962 -3.19552 -1.64702 0
M  V30 8044 C 748.626 -4.48259 -0.889567 0
M  V30 8045 C 749.623 -5.19465 -0.212602 0
M  V30 8046 C 747.308 -4.94896 -0.859229 0
M  V30 8047 C 749.302 -6.35555 0.484566 0
M  V30 8048 C 746.989 -6.10895 -0.158284 0
M  V30 8049 C 747.987 -6.81075 0.512421 0
M  V30 8050 O 747.675 -7.94862 1.20209 0
M  V30 8051 H 747.407 -0.63527 -0.231103 0
M  V30 8052 H 749.961 -2.0532 -0.0573081 0
M  V30 8053 H 748.191 -3.01196 -2.42524 0
M  V30 8054 H 749.88 -3.38649 -2.23767 0
M  V30 8055 H 750.646 -4.84467 -0.227403 0
M  V30 8056 H 746.525 -4.4015 -1.37073 0
M  V30 8057 H 750.069 -6.9027 1.00864 0
M  V30 8058 H 745.966 -6.45345 -0.141381 0
M  V30 8059 H 746.734 -8.10932 1.11051 0
M  V30 8060 N 749.397 0.351382 -1.53633 0
M  V30 8061 C 750.646 1.08988 -1.69719 0
M  V30 8062 C 750.959 1.90043 -0.462948 0
M  V30 8063 O 752.165 2.66769 -0.504613 0
M  V30 8064 C 750.621 1.98691 -3.00083 0
M  V30 8065 C 750.229 1.22881 -4.30818 0
M  V30 8066 C 751.973 2.72446 -3.25536 0
M  V30 8067 C 749.88 2.11568 -5.52262 0
M  V30 8068 H 748.81 0.410588 -0.632403 0
M  V30 8069 H 751.461 0.349886 -1.80133 0
M  V30 8070 H 749.843 2.76478 -2.83506 0
M  V30 8071 H 751.017 0.500582 -4.58073 0
M  V30 8072 H 749.332 0.60928 -4.11918 0
M  V30 8073 H 751.929 3.39055 -4.13456 0
M  V30 8074 H 752.272 3.38588 -2.42206 0
M  V30 8075 H 752.805 2.01735 -3.42852 0
M  V30 8076 H 749.544 1.4998 -6.38111 0
M  V30 8077 H 749.064 2.82201 -5.29266 0
M  V30 8078 H 750.743 2.70802 -5.87601 0
M  V30 8079 N 750.875 1.45233 0.611969 0
M  V30 8080 C 751.838 1.53189 1.70487 0
M  V30 8081 C 752.838 0.411839 1.55437 0
M  V30 8082 O 754.028 0.675164 1.60584 0
M  V30 8083 C 751.16 1.42422 3.09723 0
M  V30 8084 H 752.353 2.5056 1.64802 0
M  V30 8085 H 749.906 1.32609 0.827318 0
M  V30 8086 H 750.641 0.462185 3.2099 0
M  V30 8087 H 750.426 2.23658 3.22055 0
M  V30 8088 H 751.916 1.51012 3.89339 0
M  V30 8089 N 752.353 -0.854086 1.3245 0
M  V30 8090 C 753.764 -1.42427 1.20712 0
M  V30 8091 C 754.115 -1.95371 -0.18013 0
M  V30 8092 O 753.24 -1.87587 -1.07889 0
M  V30 8093 C 753.835 -2.58897 2.18536 0
M  V30 8094 C 752.394 -3.11913 2.10683 0
M  V30 8095 C 751.541 -1.84661 2.06871 0
M  V30 8096 H 754.492 -0.661192 1.4427 0
M  V30 8097 H 754.513 -3.36074 1.78422 0
M  V30 8098 H 754.025 -2.20333 3.19492 0
M  V30 8099 H 752.126 -3.55059 1.12977 0
M  V30 8100 H 752.239 -3.73119 3.00532 0
M  V30 8101 H 750.603 -2.04285 1.52118 0
M  V30 8102 H 751.386 -1.48314 3.09609 0
M  V30 8103 N 753.831 -1.1567 -1.07043 0
M  V30 8104 C 754.741 -0.870435 -2.17855 0
M  V30 8105 C 755.757 0.154452 -1.73313 0
M  V30 8106 O 756.933 -0.0203759 -2.0139 0
M  V30 8107 C 753.998 -0.367219 -3.4475 0
M  V30 8108 C 753.059 -1.45639 -4.03841 0
M  V30 8109 C 752.292 -0.977092 -5.2468 0
M  V30 8110 O 752.515 0.176127 -5.70128 0
M  V30 8111 O 751.449 -1.76215 -5.75527 0
M  V30 8112 H 755.275 -1.79687 -2.44839 0
M  V30 8113 H 752.86 -0.936064 -1.1644 0
M  V30 8114 H 754.742 -0.0931947 -4.21297 0
M  V30 8115 H 753.417 0.53131 -3.1931 0
M  V30 8116 H 752.324 -1.78406 -3.28819 0
M  V30 8117 H 753.657 -2.32995 -4.3356 0
M  V30 8118 N 755.309 1.25446 -0.953992 0
M  V30 8119 C 756.558 1.92441 -0.604101 0
M  V30 8120 C 756.871 1.75543 0.862796 0
M  V30 8121 O 758.077 2.37106 1.32262 0
M  V30 8122 C 756.533 3.44854 -1.02974 0
M  V30 8123 C 756.141 3.70464 -2.51914 0
M  V30 8124 C 757.885 4.1778 -0.752352 0
M  V30 8125 C 755.792 5.1638 -2.88281 0
M  V30 8126 H 754.722 0.720508 -0.222227 0
M  V30 8127 H 757.373 1.42318 -1.15836 0
M  V30 8128 H 755.755 3.93935 -0.403904 0
M  V30 8129 H 756.929 3.32038 -3.19511 0
M  V30 8130 H 755.244 3.10797 -2.77117 0
M  V30 8131 H 757.841 5.25261 -1.00024 0
M  V30 8132 H 758.184 4.15135 0.311212 0
M  V30 8133 H 758.717 3.74605 -1.33851 0
M  V30 8134 H 755.456 5.24135 -3.93653 0
M  V30 8135 H 754.976 5.55855 -2.25357 0
M  V30 8136 H 756.655 5.84497 -2.77439 0
M  V30 8137 N 756.787 0.722489 1.40064 0
M  V30 8138 C 758.036 0.261932 1.99992 0
M  V30 8139 C 758.349 -1.15358 1.57961 0
M  V30 8140 O 759.555 -1.71301 2.10637 0
M  V30 8141 C 758.011 0.41737 3.57472 0
M  V30 8142 C 757.619 1.83997 4.08472 0
M  V30 8143 C 759.363 0.0179561 4.24496 0
M  V30 8144 C 757.27 1.94563 5.5848 0
M  V30 8145 H 756.2 0.0941768 0.748095 0
M  V30 8146 H 758.851 0.894572 1.60218 0
M  V30 8147 H 757.233 -0.283965 3.94981 0
M  V30 8148 H 758.407 2.57224 3.82325 0
M  V30 8149 H 756.722 2.19147 3.54067 0
M  V30 8150 H 759.319 0.076085 5.34646 0
M  V30 8151 H 759.662 -1.02498 4.03485 0
M  V30 8152 H 760.195 0.669988 3.92117 0
M  V30 8153 H 756.934 2.97001 5.84355 0
M  V30 8154 H 756.454 1.25756 5.86469 0
M  V30 8155 H 758.133 1.72095 6.23692 0
M  V30 8156 N 758.265 -1.50454 0.469181 0
M  V30 8157 C 759.228 -2.2703 -0.314643 0
M  V30 8158 C 760.228 -1.31734 -0.922111 0
M  V30 8159 O 761.418 -1.55176 -0.791588 0
M  V30 8160 C 758.55 -3.08616 -1.44806 0
M  V30 8161 H 759.743 -2.97769 0.356892 0
M  V30 8162 H 757.296 -1.54698 0.223191 0
M  V30 8163 H 758.031 -2.42369 -2.1547 0
M  V30 8164 H 757.816 -3.78647 -1.01829 0
M  V30 8165 H 759.306 -3.66536 -2.00103 0
M  V30 8166 N 759.743 -0.201713 -1.56304 0
M  V30 8167 C 760.973 0.440084 -2.01858 0
M  V30 8168 C 761.381 1.55279 -1.08098 0
M  V30 8169 O 760.724 1.83529 -0.0792216 0
M  V30 8170 C 760.786 1.05091 -3.43797 0
M  V30 8171 C 760.45 0.0761208 -4.56937 0
M  V30 8172 C 761.447 -0.716951 -5.14933 0
M  V30 8173 C 759.132 -0.0368815 -5.02286 0
M  V30 8174 C 761.126 -1.60993 -6.16733 0
M  V30 8175 C 758.813 -0.933409 -6.03929 0
M  V30 8176 C 759.811 -1.71849 -6.61027 0
M  V30 8177 O 759.499 -2.59998 -7.60695 0
M  V30 8178 H 759.231 0.114139 -0.666294 0
M  V30 8179 H 761.785 -0.309672 -2.03052 0
M  V30 8180 H 760.015 1.84938 -3.3961 0
M  V30 8181 H 761.704 1.59804 -3.73118 0
M  V30 8182 H 762.47 -0.63999 -4.80759 0
M  V30 8183 H 758.349 0.564034 -4.57537 0
M  V30 8184 H 761.893 -2.22315 -6.61227 0
M  V30 8185 H 757.79 -1.01146 -6.37526 0
M  V30 8186 H 758.558 -2.53851 -7.7814 0
M  V30 8187 N 761.222 1.57436 0.0718424 0
M  V30 8188 C 762.154 2.00412 1.1121 0
M  V30 8189 C 763.167 0.910074 1.34987 0
M  V30 8190 O 764.356 1.18796 1.33228 0
M  V30 8191 C 761.456 2.32786 2.46301 0
M  V30 8192 C 760.629 3.64036 2.4248 0
M  V30 8193 C 759.688 3.8408 3.59679 0
M  V30 8194 O 758.714 4.55667 3.4111 0
M  V30 8195 N 759.916 3.2643 4.80025 0
M  V30 8196 H 762.681 2.90264 0.746118 0
M  V30 8197 H 760.242 1.59791 0.260495 0
M  V30 8198 H 762.234 2.43368 3.23348 0
M  V30 8199 H 760.804 1.48824 2.74901 0
M  V30 8200 H 760.024 3.64208 1.50818 0
M  V30 8201 H 761.312 4.50217 2.37027 0
M  V30 8202 H 760.71 2.68325 4.98014 0
M  V30 8203 H 759.267 3.42461 5.54584 0
M  V30 8204 N 762.7 -0.34323 1.53817 0
M  V30 8205 C 764.111 -0.918823 1.62525 0
M  V30 8206 C 764.462 -1.89542 0.506765 0
M  V30 8207 O 763.587 -2.13326 -0.363441 0
M  V30 8208 C 764.182 -1.67326 2.94597 0
M  V30 8209 C 762.741 -2.19786 3.05567 0
M  V30 8210 C 761.888 -1.01708 2.57974 0
M  V30 8211 H 764.839 -0.121358 1.58235 0
M  V30 8212 H 764.86 -2.53615 2.83654 0
M  V30 8213 H 764.372 -0.962223 3.75983 0
M  V30 8214 H 762.473 -2.94065 2.28816 0
M  V30 8215 H 762.586 -2.46135 4.1104 0
M  V30 8216 H 760.95 -1.39058 2.13389 0
M  V30 8217 H 761.733 -0.320671 3.41799 0
M  V30 8218 N 764.178 -1.45556 -0.604258 0
M  V30 8219 C 765.408 -1.53056 -1.38771 0
M  V30 8220 C 765.816 -0.163092 -1.88496 0
M  V30 8221 O 765.159 0.846157 -1.63052 0
M  V30 8222 C 765.221 -2.45656 -2.62476 0
M  V30 8223 C 764.885 -3.92328 -2.34367 0
M  V30 8224 C 765.882 -4.82137 -1.94525 0
M  V30 8225 C 763.567 -4.37275 -2.47177 0
M  V30 8226 C 765.561 -6.14901 -1.67856 0
M  V30 8227 C 763.248 -5.70079 -2.20122 0
M  V30 8228 C 764.246 -6.58711 -1.80524 0
M  V30 8229 O 763.934 -7.89053 -1.53788 0
M  V30 8230 H 763.666 -0.520721 -0.431075 0
M  V30 8231 H 766.22 -1.91464 -0.743693 0
M  V30 8232 H 764.45 -2.02225 -3.29609 0
M  V30 8233 H 766.139 -2.43802 -3.24523 0
M  V30 8234 H 766.905 -4.48675 -1.84162 0
M  V30 8235 H 762.784 -3.68527 -2.76964 0
M  V30 8236 H 766.328 -6.8404 -1.36874 0
M  V30 8237 H 762.225 -6.03095 -2.30102 0
M  V30 8238 H 762.993 -8.01113 -1.67812 0
M  V30 8239 N 765.656 0.84705 -1.32902 0
M  V30 8240 C 766.904 1.5986 -1.2365 0
M  V30 8241 C 767.225 1.93974 0.199789 0
M  V30 8242 O 766.495 1.60273 1.12648 0
M  V30 8243 H 765.075 0.592696 -0.454665 0
M  V30 8244 H 767.737 1.01278 -1.66519 0
M  V30 8245 H 766.833 2.53218 -1.82448 0
M  V30 8246 N 767.134 1.16236 1.06428 0
M  V30 8247 C 768.081 0.86769 2.13869 0
M  V30 8248 C 769.051 -0.183298 1.65086 0
M  V30 8249 O 770.236 -0.0488002 1.90738 0
M  V30 8250 C 767.376 0.373427 3.43074 0
M  V30 8251 C 766.489 1.48708 4.05598 0
M  V30 8252 C 765.624 0.947977 5.22673 0
M  V30 8253 C 764.663 2.03793 5.77178 0
M  V30 8254 N 763.8 1.51451 6.85571 0
M  V30 8255 H 768.64 1.78781 2.38414 0
M  V30 8256 H 766.177 0.891892 1.16977 0
M  V30 8257 H 768.135 0.0685035 4.17144 0
M  V30 8258 H 766.765 -0.509752 3.1875 0
M  V30 8259 H 765.817 1.908 3.29089 0
M  V30 8260 H 767.129 2.30964 4.42105 0
M  V30 8261 H 766.283 0.596154 6.03764 0
M  V30 8262 H 765.022 0.0947081 4.87608 0
M  V30 8263 H 764.027 2.39847 4.94726 0
M  V30 8264 H 765.252 2.89514 6.14295 0
M  V30 8265 H 763.198 0.683755 6.52427 0
M  V30 8266 H 763.115 2.27325 7.21013 0
M  V30 8267 H 764.383 1.19123 7.70344 0
M  V30 8268 N 768.612 -1.24939 0.960631 0
M  V30 8269 C 769.837 -1.9742 0.635608 0
M  V30 8270 C 770.262 -1.70857 -0.786737 0
M  V30 8271 O 769.62 -0.968063 -1.53291 0
M  V30 8272 C 769.668 -3.48987 0.907771 0
M  V30 8273 O 768.772 -4.12399 -0.0104053 0
M  V30 8274 H 768.113 -0.61871 0.241027 0
M  V30 8275 H 770.643 -1.58901 1.28886 0
M  V30 8276 H 770.653 -3.99334 0.836453 0
M  V30 8277 H 769.328 -3.6765 1.94439 0
M  V30 8278 H 767.905 -3.72727 0.113631 0
M  V30 8279 N 770.09 -0.729906 -1.39679 0
M  V30 8280 C 771.336 -0.27603 -2.00913 0
M  V30 8281 C 771.669 1.13227 -1.57776 0
M  V30 8282 O 770.944 1.7709 -0.804319 0
M  V30 8283 C 771.227 -0.372157 -3.58172 0
M  V30 8284 C 771.08 -1.81986 -4.11341 0
M  V30 8285 C 772.399 0.248378 -4.39399 0
M  V30 8286 H 769.518 -0.101773 -0.729939 0
M  V30 8287 H 772.16 -0.925104 -1.65957 0
M  V30 8288 H 770.31 0.180459 -3.88081 0
M  V30 8289 H 771.982 -2.42896 -3.92172 0
M  V30 8290 H 770.225 -2.34287 -3.65092 0
M  V30 8291 H 770.896 -1.83842 -5.20486 0
M  V30 8292 H 773.372 -0.222645 -4.15504 0
M  V30 8293 H 772.248 0.150746 -5.48693 0
M  V30 8294 H 772.509 1.33378 -4.21501 0
M  V30 8295 N 771.568 1.50203 -0.477153 0
M  V30 8296 C 772.845 1.95115 0.137609 0
M  V30 8297 C 773.225 1.41778 1.56404 0
M  V30 8298 O 772.573 0.621333 2.1989 0
M  V30 8299 C 772.783 3.4892 0.0747168 0
M  V30 8300 C 774.131 4.238 0.260585 0
M  V30 8301 O 775.155 3.5588 0.151021 0
M  V30 8302 O 774.014 5.44366 0.482534 0
M  V30 8303 H 771.108 0.81987 0.108364 0
M  V30 8304 H 773.654 1.60946 -0.537989 0
M  V30 8305 H 772.426 3.80308 -0.920966 0
M  V30 8306 H 772.049 3.89642 0.791509 0
M  V30 8307 N 773.046 0.209999 1.56195 0
M  V30 8308 C 774.292 -0.418742 1.99043 0
M  V30 8309 C 774.647 -1.58201 1.095 0
M  V30 8310 O 773.94 -1.91069 0.1425 0
M  V30 8311 C 774.134 -0.91312 3.45539 0
M  V30 8312 C 773.963 0.200706 4.49252 0
M  V30 8313 C 772.733 0.663287 5.00928 0
M  V30 8314 C 774.931 1.01493 5.04186 0
M  V30 8315 N 772.913 1.75338 5.88328 0
M  V30 8316 C 774.284 1.95411 5.884 0
M  V30 8317 C 776.339 1.05567 4.8658 0
M  V30 8318 C 775.042 2.93069 6.56889 0
M  V30 8319 C 777.068 2.02037 5.55819 0
M  V30 8320 C 776.43 2.94697 6.39791 0
M  V30 8321 H 772.529 -0.120226 0.772703 0
M  V30 8322 H 775.113 0.319119 1.92067 0
M  V30 8323 H 773.284 -1.62038 3.52985 0
M  V30 8324 H 775.016 -1.51371 3.75325 0
M  V30 8325 H 771.771 0.253945 4.72919 0
M  V30 8326 H 772.195 2.30007 6.3673 0
M  V30 8327 H 776.837 0.353242 4.21322 0
M  V30 8328 H 774.555 3.6428 7.21336 0
M  V30 8329 H 778.141 2.05849 5.44167 0
M  V30 8330 H 777.021 3.68128 6.92425 0
M  V30 8331 N 774.524 -1.57472 -0.0634922 0
M  V30 8332 C 775.77 -1.88792 -0.756903 0
M  V30 8333 C 776.125 -0.804679 -1.74765 0
M  V30 8334 O 775.418 0.19033 -1.90652 0
M  V30 8335 C 775.612 -3.24521 -1.49736 0
M  V30 8336 C 775.441 -4.45946 -0.579833 0
M  V30 8337 C 774.211 -5.04848 -0.213667 0
M  V30 8338 C 776.409 -5.14143 0.12703 0
M  V30 8339 N 774.391 -6.09795 0.708712 0
M  V30 8340 C 775.762 -6.1334 0.906295 0
M  V30 8341 C 777.817 -4.97508 0.197625 0
M  V30 8342 C 776.52 -6.97697 1.74961 0
M  V30 8343 C 778.546 -5.82398 1.02794 0
M  V30 8344 C 777.908 -6.81139 1.79523 0
M  V30 8345 H 774.007 -0.740235 -0.252142 0
M  V30 8346 H 776.591 -1.94692 -0.0181026 0
M  V30 8347 H 774.762 -3.19615 -2.20683 0
M  V30 8348 H 776.494 -3.43464 -2.14044 0
M  V30 8349 H 773.249 -4.70177 -0.568357 0
M  V30 8350 H 773.673 -6.66929 1.16339 0
M  V30 8351 H 778.315 -4.21077 -0.381261 0
M  V30 8352 H 776.033 -7.73496 2.33943 0
M  V30 8353 H 779.619 -5.71581 1.08565 0
M  V30 8354 H 778.499 -7.45687 2.42736 0
M  V30 8355 N 776.003 0.335068 -1.53997 0
M  V30 8356 C 776.966 1.39481 -1.81872 0
M  V30 8357 C 777.966 1.4524 -0.690078 0
M  V30 8358 O 779.156 1.45467 -0.958377 0
M  V30 8359 C 776.288 2.78329 -1.9684 0
M  V30 8360 H 777.481 1.16024 -2.76547 0
M  V30 8361 H 775.034 0.569926 -1.45539 0
M  V30 8362 H 775.769 3.07058 -1.04337 0
M  V30 8363 H 775.554 2.75544 -2.78958 0
M  V30 8364 H 777.044 3.55016 -2.19894 0
M  V30 8365 N 777.481 1.45874 0.596531 0
M  V30 8366 C 778.728 1.50467 1.35521 0
M  V30 8367 C 779.056 0.150802 1.93915 0
M  V30 8368 O 778.311 -0.851913 1.76184 0
M  V30 8369 C 778.61 2.54034 2.51399 0
M  V30 8370 C 778.276 3.9844 2.11085 0
M  V30 8371 C 776.938 4.37758 1.99804 0
M  V30 8372 C 779.29 4.89209 1.79788 0
M  V30 8373 C 776.618 5.65727 1.55465 0
M  V30 8374 C 778.97 6.17602 1.36931 0
M  V30 8375 C 777.634 6.5584 1.24218 0
M  V30 8376 H 776.904 0.550597 0.495907 0
M  V30 8377 H 779.551 1.79279 0.673145 0
M  V30 8378 H 777.856 2.18832 3.24992 0
M  V30 8379 H 779.553 2.54822 3.09624 0
M  V30 8380 H 776.143 3.67353 2.20794 0
M  V30 8381 H 780.327 4.59562 1.87395 0
M  V30 8382 H 775.583 5.94139 1.44253 0
M  V30 8383 H 779.757 6.87373 1.11764 0
M  V30 8384 H 777.384 7.54897 0.896353 0
M  V30 8385 N 778.959 -0.83999 1.33349 0
M  V30 8386 C 780.207 -1.59202 1.24496 0
M  V30 8387 C 780.528 -1.94077 -0.189499 0
M  V30 8388 O 779.798 -1.60868 -1.11796 0
M  V30 8389 H 778.378 -0.590276 0.457802 0
M  V30 8390 H 781.04 -1.00394 1.67054 0
M  V30 8391 H 780.136 -2.52247 1.83788 0
M  V30 8392 N 780.437 -1.16799 -1.0581 0
M  V30 8393 C 781.683 -0.953935 -1.78963 0
M  V30 8394 C 782.016 0.516638 -1.87202 0
M  V30 8395 O 781.291 1.38338 -1.36721 0
M  V30 8396 C 781.574 -1.58808 -3.23191 0
M  V30 8397 C 781.427 -3.13032 -3.23003 0
M  V30 8398 C 782.746 -1.2868 -4.20867 0
M  V30 8399 H 779.865 -0.347972 -0.64968 0
M  V30 8400 H 782.507 -1.44204 -1.23715 0
M  V30 8401 H 780.657 -1.17303 -3.70368 0
M  V30 8402 H 782.329 -3.63553 -2.83949 0
M  V30 8403 H 780.572 -3.46108 -2.61518 0
M  V30 8404 H 781.243 -3.52527 -4.24769 0
M  V30 8405 H 783.719 -1.6461 -3.82155 0
M  V30 8406 H 782.595 -1.75645 -5.20038 0
M  V30 8407 H 782.856 -0.206491 -4.41618 0
M  V30 8408 N 781.915 1.24427 -0.967243 0
M  V30 8409 C 782.845 2.2773 -0.515899 0
M  V30 8410 C 783.826 1.64197 0.444227 0
M  V30 8411 O 785.011 1.91193 0.340451 0
M  V30 8412 C 782.141 3.46751 0.195149 0
M  V30 8413 C 781.095 4.22548 -0.680953 0
M  V30 8414 C 780.421 5.34456 0.161561 0
M  V30 8415 C 781.721 4.83914 -1.96532 0
M  V30 8416 H 783.415 2.65735 -1.37933 0
M  V30 8417 H 780.961 1.27742 -0.664681 0
M  V30 8418 H 782.914 4.18153 0.522117 0
M  V30 8419 H 781.638 3.07771 1.09292 0
M  V30 8420 H 780.297 3.52946 -0.991186 0
M  V30 8421 H 779.945 4.91716 1.05947 0
M  V30 8422 H 779.645 5.86087 -0.421418 0
M  V30 8423 H 781.169 6.08685 0.483211 0
M  V30 8424 H 782.583 5.47392 -1.70396 0
M  V30 8425 H 780.98 5.45775 -2.49499 0
M  V30 8426 H 782.05 4.05393 -2.66053 0
M  V30 8427 N 783.393 0.737304 1.3929 0
M  V30 8428 C 784.323 0.113988 2.33222 0
M  V30 8429 C 785.304 -0.721695 1.54031 0
M  V30 8430 O 786.489 -0.666206 1.82415 0
M  V30 8431 C 783.619 -0.792319 3.38141 0
M  V30 8432 C 782.573 -0.0606178 4.27957 0
M  V30 8433 C 781.899 -1.08409 5.23595 0
M  V30 8434 C 783.199 1.09817 5.10625 0
M  V30 8435 H 784.893 0.898611 2.85596 0
M  V30 8436 H 782.439 0.433571 1.37318 0
M  V30 8437 H 784.392 -1.23793 4.02807 0
M  V30 8438 H 783.116 -1.60908 2.84211 0
M  V30 8439 H 781.775 0.365393 3.64775 0
M  V30 8440 H 781.423 -1.89449 4.6596 0
M  V30 8441 H 781.123 -0.599269 5.84536 0
M  V30 8442 H 782.647 -1.52936 5.91137 0
M  V30 8443 H 784.061 0.730892 5.68622 0
M  V30 8444 H 782.458 1.51278 5.80719 0
M  V30 8445 H 783.528 1.91878 4.45321 0
M  V30 8446 N 784.871 -1.49948 0.485112 0
M  V30 8447 C 786.101 -2.06506 -0.0621921 0
M  V30 8448 C 786.509 -1.34756 -1.32806 0
M  V30 8449 O 785.852 -0.41466 -1.78959 0
M  V30 8450 C 785.914 -3.57243 -0.402182 0
M  V30 8451 C 785.578 -4.50574 0.763671 0
M  V30 8452 C 786.575 -4.93032 1.6497 0
M  V30 8453 C 784.26 -4.9308 0.957973 0
M  V30 8454 C 786.254 -5.76718 2.71432 0
M  V30 8455 C 783.941 -5.76546 2.0258 0
M  V30 8456 C 784.939 -6.18267 2.90232 0
M  V30 8457 O 784.627 -7.00066 3.95174 0
M  V30 8458 H 784.359 -0.675925 0.0100672 0
M  V30 8459 H 786.913 -1.93922 0.677023 0
M  V30 8460 H 785.143 -3.6778 -1.19478 0
M  V30 8461 H 786.832 -3.96107 -0.886219 0
M  V30 8462 H 787.598 -4.60851 1.51134 0
M  V30 8463 H 783.477 -4.60117 0.285144 0
M  V30 8464 H 787.021 -6.09203 3.39878 0
M  V30 8465 H 782.918 -6.0814 2.16417 0
M  V30 8466 H 783.686 -7.18343 3.92333 0
M  V30 8467 N 786.349 -0.21828 -1.56081 0
M  V30 8468 C 787.259 0.704602 -2.23769 0
M  V30 8469 C 788.275 1.21633 -1.24425 0
M  V30 8470 O 789.451 1.25862 -1.57228 0
M  V30 8471 C 786.516 1.89725 -2.90182 0
M  V30 8472 C 785.577 1.42782 -4.0486 0
M  V30 8473 C 784.81 2.56361 -4.68097 0
M  V30 8474 O 785.033 3.74417 -4.30312 0
M  V30 8475 O 783.967 2.2775 -5.57148 0
M  V30 8476 H 787.793 0.158007 -3.03289 0
M  V30 8477 H 785.378 0.0120279 -1.49395 0
M  V30 8478 H 787.26 2.59382 -3.32113 0
M  V30 8479 H 785.935 2.432 -2.13624 0
M  V30 8480 H 784.842 0.699359 -3.67505 0
M  V30 8481 H 786.175 0.939474 -4.83151 0
M  V30 8482 N 787.827 1.57504 0.0551401 0
M  V30 8483 C 788.76 2.00155 1.09604 0
M  V30 8484 C 789.738 0.881274 1.36647 0
M  V30 8485 O 790.922 1.14498 1.49742 0
M  V30 8486 C 788.049 2.35246 2.43674 0
M  V30 8487 C 787.095 3.57452 2.32659 0
M  V30 8488 S 787.928 5.07639 1.7048 0
M  V30 8489 C 789.084 5.45947 3.06093 0
M  V30 8490 H 789.317 2.88131 0.732635 0
M  V30 8491 H 786.85 1.52122 0.264252 0
M  V30 8492 H 788.808 2.56136 3.20787 0
M  V30 8493 H 787.469 1.47769 2.7717 0
M  V30 8494 H 786.662 3.79576 3.31569 0
M  V30 8495 H 786.264 3.36279 1.63685 0
M  V30 8496 H 788.556 5.45036 4.0242 0
M  V30 8497 H 789.499 6.4656 2.88732 0
M  V30 8498 H 789.907 4.73419 3.07466 0
M  V30 8499 N 789.305 -0.326896 1.54172 0
M  V30 8500 C 790.235 -1.40741 1.86317 0
M  V30 8501 C 791.216 -1.54125 0.719684 0
M  V30 8502 O 792.401 -1.6806 0.973117 0
M  V30 8503 C 789.531 -2.77557 2.08757 0
M  V30 8504 C 788.485 -2.78965 3.24596 0
M  V30 8505 C 787.811 -4.18824 3.32401 0
M  V30 8506 C 789.111 -2.4301 4.62324 0
M  V30 8507 H 790.805 -1.14088 2.76811 0
M  V30 8508 H 788.351 -0.547389 1.3319 0
M  V30 8509 H 790.304 -3.53209 2.29829 0
M  V30 8510 H 789.028 -3.0568 1.15009 0
M  V30 8511 H 787.687 -2.05767 3.03406 0
M  V30 8512 H 787.335 -4.44083 2.36218 0
M  V30 8513 H 787.035 -4.20673 4.10253 0
M  V30 8514 H 788.559 -4.96294 3.55703 0
M  V30 8515 H 789.973 -3.08375 4.83299 0
M  V30 8516 H 788.37 -2.56116 5.42701 0
M  V30 8517 H 789.44 -1.38165 4.64799 0
M  V30 8518 N 790.784 -1.46188 -0.588786 0
M  V30 8519 C 791.747 -1.55882 -1.68029 0
M  V30 8520 C 792.747 -0.436515 -1.54762 0
M  V30 8521 O 793.937 -0.700626 -1.59489 0
M  V30 8522 C 791.069 -1.47332 -3.07418 0
M  V30 8523 H 792.262 -2.5315 -1.60795 0
M  V30 8524 H 789.815 -1.33908 -0.806116 0
M  V30 8525 H 790.55 -0.513193 -3.20214 0
M  V30 8526 H 790.335 -2.28753 -3.18456 0
M  V30 8527 H 791.825 -1.57187 -3.86887 0
M  V30 8528 N 792.262 0.832906 -1.33792 0
M  V30 8529 C 793.51 1.58539 -1.25338 0
M  V30 8530 C 793.831 1.94175 0.179204 0
M  V30 8531 O 793.101 1.61458 1.10941 0
M  V30 8532 H 791.681 0.58784 -0.460926 0
M  V30 8533 H 794.343 0.995064 -1.67584 0
M  V30 8534 H 793.439 2.51268 -1.85123 0
M  V30 8535 N 793.74 1.17359 1.05189 0
M  V30 8536 C 794.672 0.848078 2.12933 0
M  V30 8537 C 795.685 -0.149521 1.62112 0
M  V30 8538 O 796.874 0.0767797 1.78335 0
M  V30 8539 C 793.974 0.243889 3.38021 0
M  V30 8540 C 793.147 1.28436 4.18118 0
M  V30 8541 C 792.206 0.697926 5.21551 0
M  V30 8542 O 791.232 1.36973 5.52473 0
M  V30 8543 N 792.434 -0.510024 5.78255 0
M  V30 8544 H 795.199 1.7754 2.41453 0
M  V30 8545 H 792.76 1.07244 1.21286 0
M  V30 8546 H 794.752 -0.161727 4.04377 0
M  V30 8547 H 793.322 -0.58722 3.07035 0
M  V30 8548 H 792.542 1.86573 3.47252 0
M  V30 8549 H 793.83 1.98617 4.68432 0
M  V30 8550 H 793.228 -1.07378 5.55416 0
M  V30 8551 H 791.785 -0.857705 6.46132 0
M  V30 8552 N 795.218 -1.23913 0.973828 0
M  V30 8553 C 796.181 -2.23367 0.51378 0
M  V30 8554 C 797.181 -1.55923 -0.39302 0
M  V30 8555 O 798.371 -1.73187 -0.187626 0
M  V30 8556 C 795.503 -3.39944 -0.255152 0
M  V30 8557 H 796.696 -2.65581 1.39307 0
M  V30 8558 H 794.249 -1.36632 0.759039 0
M  V30 8559 H 794.984 -3.03177 -1.15127 0
M  V30 8560 H 794.769 -3.90098 0.395673 0
M  V30 8561 H 796.259 -4.13749 -0.565842 0
M  V30 8562 N 796.696 -0.74468 -1.38897 0
M  V30 8563 C 798.107 -0.36568 -1.83084 0
M  V30 8564 C 798.458 1.10436 -1.62168 0
M  V30 8565 O 797.583 1.85281 -1.11804 0
M  V30 8566 C 798.178 -0.656946 -3.3237 0
M  V30 8567 C 796.737 -0.331329 -3.74939 0
M  V30 8568 C 795.884 -0.914661 -2.61781 0
M  V30 8569 H 798.835 -0.941551 -1.27752 0
M  V30 8570 H 798.856 0.0679546 -3.80439 0
M  V30 8571 H 798.368 -1.72693 -3.47561 0
M  V30 8572 H 796.469 0.732426 -3.6533 0
M  V30 8573 H 796.582 -0.820655 -4.72019 0
M  V30 8574 H 794.946 -0.34063 -2.52412 0
M  V30 8575 H 795.729 -1.98949 -2.79775 0
M  V30 8576 N 798.174 1.49689 -0.493057 0
M  V30 8577 C 799.421 2.02427 0.0542714 0
M  V30 8578 C 799.749 1.37339 1.37725 0
M  V30 8579 O 799.004 0.495523 1.89323 0
M  V30 8580 C 799.303 3.56427 0.263536 0
M  V30 8581 C 798.969 4.40111 -0.98046 0
M  V30 8582 C 797.631 4.62699 -1.32148 0
M  V30 8583 C 799.983 4.88847 -1.80771 0
M  V30 8584 C 797.311 5.31268 -2.48941 0
M  V30 8585 C 799.663 5.587 -2.96711 0
M  V30 8586 C 798.327 5.79536 -3.31202 0
M  V30 8587 H 797.597 0.740734 0.0198593 0
M  V30 8588 H 800.244 1.80073 -0.651603 0
M  V30 8589 H 798.549 3.77416 1.05186 0
M  V30 8590 H 800.246 3.94819 0.701348 0
M  V30 8591 H 796.836 4.22765 -0.704814 0
M  V30 8592 H 801.02 4.71231 -1.55741 0
M  V30 8593 H 796.276 5.45603 -2.75911 0
M  V30 8594 H 800.45 5.9544 -3.61143 0
M  V30 8595 H 798.077 6.32443 -4.21805 0
M  V30 8596 N 799.652 0.226554 1.55963 0
M  V30 8597 C 800.562 -0.692725 2.24139 0
M  V30 8598 C 801.578 -1.20971 1.25068 0
M  V30 8599 O 802.754 -1.25027 1.57893 0
M  V30 8600 C 799.819 -1.88183 2.91184 0
M  V30 8601 C 798.88 -1.40633 4.05612 0
M  V30 8602 C 798.113 -2.53875 4.6945 0
M  V30 8603 O 798.336 -3.72129 4.32292 0
M  V30 8604 O 797.27 -2.24792 5.58348 0
M  V30 8605 H 801.096 -0.141921 3.03368 0
M  V30 8606 H 798.681 -0.0041049 1.49399 0
M  V30 8607 H 800.563 -2.57617 3.33484 0
M  V30 8608 H 799.238 -2.42064 2.14911 0
M  V30 8609 H 798.145 -0.67986 3.67871 0
M  V30 8610 H 799.478 -0.913838 4.83642 0
M  V30 8611 N 801.13 -1.57531 -0.0467866 0
M  V30 8612 C 802.378 -1.88078 -0.739656 0
M  V30 8613 C 802.699 -0.821936 -1.76831 0
M  V30 8614 O 801.969 0.146582 -1.95351 0
M  V30 8615 H 800.549 -0.694075 -0.276169 0
M  V30 8616 H 803.211 -1.94893 -0.0169391 0
M  V30 8617 H 802.307 -2.86396 -1.24031 0
M  V30 8618 N 802.608 0.318715 -1.54344 0
M  V30 8619 C 803.518 1.41535 -1.87097 0
M  V30 8620 C 804.534 1.56361 -0.763353 0
M  V30 8621 O 805.71 1.71365 -1.05811 0
M  V30 8622 C 802.775 2.76178 -2.09587 0
M  V30 8623 C 801.836 2.70486 -3.3337 0
M  V30 8624 C 801.069 3.98708 -3.54778 0
M  V30 8625 O 801.292 4.9721 -2.79532 0
M  V30 8626 O 800.226 4.01674 -4.48266 0
M  V30 8627 H 804.052 1.16764 -2.80357 0
M  V30 8628 H 801.637 0.51318 -1.4031 0
M  V30 8629 H 803.519 3.55873 -2.25682 0
M  V30 8630 H 802.194 3.00829 -1.19514 0
M  V30 8631 H 801.101 1.89325 -3.22656 0
M  V30 8632 H 802.434 2.50789 -4.23516 0
M  V30 8633 N 804.086 1.46499 0.581025 0
M  V30 8634 C 805.363 1.42372 1.34125 0
M  V30 8635 C 805.743 0.108073 2.10823 0
M  V30 8636 O 805.091 -0.910366 2.09582 0
M  V30 8637 C 805.301 2.65445 2.26583 0
M  V30 8638 C 806.649 3.11664 2.88359 0
M  V30 8639 O 807.673 2.66006 2.36896 0
M  V30 8640 O 806.532 3.90974 3.81839 0
M  V30 8641 H 803.626 0.566262 0.602724 0
M  V30 8642 H 806.172 1.58667 0.601903 0
M  V30 8643 H 804.944 3.52756 1.69348 0
M  V30 8644 H 804.567 2.51618 3.07854 0
M  V30 8645 N 805.565 -0.825799 1.34232 0
M  V30 8646 C 806.475 -1.9684 1.27638 0
M  V30 8647 C 807.491 -1.73018 0.184569 0
M  V30 8648 O 808.667 -1.97172 0.410525 0
M  V30 8649 C 805.732 -3.31084 1.02879 0
M  V30 8650 C 804.793 -3.67933 2.21188 0
M  V30 8651 C 804.026 -4.95772 1.976 0
M  V30 8652 O 804.249 -5.62721 0.93281 0
M  V30 8653 O 803.183 -5.30431 2.84477 0
M  V30 8654 H 807.009 -2.05346 2.23756 0
M  V30 8655 H 804.594 -0.960772 1.1441 0
M  V30 8656 H 806.476 -4.11492 0.908406 0
M  V30 8657 H 805.151 -3.23552 0.0979821 0
M  V30 8658 H 804.058 -2.87981 2.38784 0
M  V30 8659 H 805.391 -3.80147 3.12648 0
M  V30 8660 N 807.043 -1.17915 -1.04565 0
M  V30 8661 C 808.32 -0.881187 -1.74627 0
M  V30 8662 C 808.7 0.617123 -2.01878 0
M  V30 8663 O 808.048 1.57032 -1.65991 0
M  V30 8664 C 808.258 -1.72299 -3.03503 0
M  V30 8665 C 809.606 -1.94688 -3.77335 0
M  V30 8666 O 810.63 -1.6931 -3.13389 0
M  V30 8667 O 809.489 -2.37379 -4.92253 0
M  V30 8668 H 806.583 -0.326864 -0.759664 0
M  V30 8669 H 809.129 -1.28642 -1.10676 0
M  V30 8670 H 807.901 -2.73891 -2.79462 0
M  V30 8671 H 807.524 -1.31593 -3.75192 0
M  V30 8672 N 808.521 1.23394 -0.980386 0
M  V30 8673 C 809.431 2.28561 -0.528864 0
M  V30 8674 C 810.447 1.68946 0.416329 0
M  V30 8675 O 811.623 1.99355 0.286251 0
M  V30 8676 C 808.688 3.46323 0.16155 0
M  V30 8677 C 807.749 4.21297 -0.825044 0
M  V30 8678 C 806.982 5.33437 -0.167483 0
M  V30 8679 O 807.205 5.60812 1.04146 0
M  V30 8680 O 806.139 5.95637 -0.866047 0
M  V30 8681 H 809.965 2.69326 -1.40346 0
M  V30 8682 H 807.55 1.29325 -0.748019 0
M  V30 8683 H 809.432 4.17811 0.548841 0
M  V30 8684 H 808.107 3.0751 1.01092 0
M  V30 8685 H 807.014 3.52134 -1.26303 0
M  V30 8686 H 808.347 4.6396 -1.64322 0
M  V30 8687 N 809.999 0.752036 1.385 0
M  V30 8688 C 810.929 0.138718 2.33088 0
M  V30 8689 C 811.91 -0.705318 1.54788 0
M  V30 8690 O 813.095 -0.646821 1.83112 0
M  V30 8691 C 810.225 -0.75641 3.38963 0
M  V30 8692 C 809.179 -0.0152239 4.27997 0
M  V30 8693 C 808.505 -1.0285 5.24715 0
M  V30 8694 C 809.805 1.15226 5.09431 0
M  V30 8695 H 811.499 0.928852 2.84627 0
M  V30 8696 H 809.045 0.448111 1.3685 0
M  V30 8697 H 810.998 -1.19513 4.04097 0
M  V30 8698 H 809.722 -1.57885 2.85902 0
M  V30 8699 H 808.381 0.404061 3.64366 0
M  V30 8700 H 808.029 -1.84496 4.67943 0
M  V30 8701 H 807.729 -0.537238 5.85139 0
M  V30 8702 H 809.253 -1.46657 5.92726 0
M  V30 8703 H 810.667 0.791161 5.67815 0
M  V30 8704 H 809.064 1.57428 5.79082 0
M  V30 8705 H 810.134 1.9659 4.43261 0
M  V30 8706 N 811.477 -1.49425 0.500989 0
M  V30 8707 C 812.724 -2.02453 -0.0435355 0
M  V30 8708 C 813.052 -1.38067 -1.36995 0
M  V30 8709 O 812.307 -0.505557 -1.89057 0
M  V30 8710 C 812.606 -3.56562 -0.24463 0
M  V30 8711 C 812.272 -4.39585 1.00379 0
M  V30 8712 C 810.934 -4.61992 1.346 0
M  V30 8713 C 813.286 -4.87881 1.83361 0
M  V30 8714 C 810.614 -5.2994 2.51755 0
M  V30 8715 C 812.966 -5.57119 2.99669 0
M  V30 8716 C 811.63 -5.77771 3.3427 0
M  V30 8717 H 810.9 -0.740829 -0.0159308 0
M  V30 8718 H 813.547 -1.79725 0.661143 0
M  V30 8719 H 811.852 -3.77969 -1.03183 0
M  V30 8720 H 813.549 -3.95185 -0.6804 0
M  V30 8721 H 810.139 -4.22385 0.727225 0
M  V30 8722 H 814.323 -4.70398 1.58237 0
M  V30 8723 H 809.579 -5.44133 2.788 0
M  V30 8724 H 813.753 -5.93516 3.64296 0
M  V30 8725 H 811.38 -6.30197 4.25154 0
M  V30 8726 N 812.955 -0.234822 -1.55841 0
M  V30 8727 C 813.887 0.702346 -2.18174 0
M  V30 8728 C 814.9 1.14776 -1.15457 0
M  V30 8729 O 816.089 1.07662 -1.42377 0
M  V30 8730 C 813.189 1.96483 -2.76129 0
M  V30 8731 C 812.362 1.67283 -4.04148 0
M  V30 8732 C 811.421 2.7837 -4.46539 0
M  V30 8733 O 810.447 2.46272 -5.13166 0
M  V30 8734 N 811.649 4.07611 -4.1332 0
M  V30 8735 H 814.414 0.169074 -2.99223 0
M  V30 8736 H 811.975 -0.0543164 -1.61809 0
M  V30 8737 H 813.967 2.70016 -3.01452 0
M  V30 8738 H 812.537 2.40822 -1.99307 0
M  V30 8739 H 811.757 0.773278 -3.86541 0
M  V30 8740 H 813.045 1.45222 -4.87635 0
M  V30 8741 H 812.443 4.36527 -3.59806 0
M  V30 8742 H 811 4.77646 -4.43506 0
M  V30 8743 N 814.433 1.57553 0.0384317 0
M  V30 8744 C 815.658 1.93485 0.746872 0
M  V30 8745 C 816.083 0.834069 1.68597 0
M  V30 8746 O 815.441 -0.210902 1.80069 0
M  V30 8747 C 815.489 3.28463 1.4881 0
M  V30 8748 O 814.593 3.20051 2.60079 0
M  V30 8749 H 813.934 0.632675 0.201539 0
M  V30 8750 H 816.464 2.046 -0.00329815 0
M  V30 8751 H 816.474 3.63132 1.86009 0
M  V30 8752 H 815.149 4.08147 0.799297 0
M  V30 8753 H 813.726 2.96998 2.25492 0
M  V30 8754 N 815.911 -0.310526 1.54511 0
M  V30 8755 C 817.16 -1.0445 1.72549 0
M  V30 8756 C 817.473 -1.88748 0.513172 0
M  V30 8757 O 818.679 -2.65338 0.575165 0
M  V30 8758 C 817.135 -1.90665 3.05246 0
M  V30 8759 C 816.743 -1.11415 4.33925 0
M  V30 8760 C 818.487 -2.63719 3.32645 0
M  V30 8761 C 816.394 -1.96852 5.57677 0
M  V30 8762 H 815.324 -0.393676 0.643067 0
M  V30 8763 H 817.975 -0.302003 1.80998 0
M  V30 8764 H 816.357 -2.68864 2.90737 0
M  V30 8765 H 817.531 -0.378956 4.59239 0
M  V30 8766 H 815.846 -0.499853 4.13389 0
M  V30 8767 H 818.443 -3.27974 4.223 0
M  V30 8768 H 818.786 -3.32047 2.51098 0
M  V30 8769 H 819.319 -1.92574 3.48081 0
M  V30 8770 H 816.058 -1.33009 6.41864 0
M  V30 8771 H 815.578 -2.68069 5.36562 0
M  V30 8772 H 817.257 -2.55127 5.94575 0
M  V30 8773 N 817.389 -1.46805 -0.573248 0
M  V30 8774 C 818.322 -1.52608 -1.69665 0
M  V30 8775 C 819.3 -0.379426 -1.58111 0
M  V30 8776 O 820.484 -0.584938 -1.79195 0
M  V30 8777 C 817.611 -1.41355 -3.07793 0
M  V30 8778 C 816.657 -2.60321 -3.37839 0
M  V30 8779 S 817.49 -4.22622 -3.28863 0
M  V30 8780 C 818.646 -4.13894 -4.69513 0
M  V30 8781 H 818.879 -2.47653 -1.64485 0
M  V30 8782 H 816.412 -1.34806 -0.752769 0
M  V30 8783 H 818.37 -1.35549 -3.87475 0
M  V30 8784 H 817.031 -0.477213 -3.10454 0
M  V30 8785 H 816.224 -2.48466 -4.38498 0
M  V30 8786 H 815.826 -2.63165 -2.65745 0
M  V30 8787 H 818.118 -3.81158 -5.60111 0
M  V30 8788 H 819.061 -5.14584 -4.86425 0
M  V30 8789 H 819.469 -3.44998 -4.46807 0
M  V30 8790 N 818.867 0.818669 -1.34668 0
M  V30 8791 C 819.777 1.9616 -1.2868 0
M  V30 8792 C 820.793 1.72918 -0.193742 0
M  V30 8793 O 821.969 1.96951 -0.420975 0
M  V30 8794 C 819.034 3.30534 -1.04633 0
M  V30 8795 C 818.095 3.66755 -2.23136 0
M  V30 8796 C 817.328 4.94717 -2.00227 0
M  V30 8797 O 817.551 5.62218 -0.96264 0
M  V30 8798 O 816.485 5.28915 -2.87286 0
M  V30 8799 H 820.311 2.04157 -2.24842 0
M  V30 8800 H 817.896 0.954691 -1.14917 0
M  V30 8801 H 819.778 4.11005 -0.930216 0
M  V30 8802 H 818.453 3.23495 -0.115139 0
M  V30 8803 H 817.36 2.8671 -2.40308 0
M  V30 8804 H 818.693 3.78484 -3.1466 0
M  V30 8805 N 820.346 1.18468 1.03938 0
M  V30 8806 C 821.296 0.880799 2.103 0
M  V30 8807 C 822.28 -0.150008 1.60199 0
M  V30 8808 O 823.472 0.054213 1.76917 0
M  V30 8809 C 820.601 0.409723 3.40846 0
M  V30 8810 C 819.687 1.47267 3.9771 0
M  V30 8811 N 820.078 2.68945 4.28371 0
M  V30 8812 C 818.376 1.33349 4.25598 0
M  V30 8813 C 819.077 3.37341 4.73894 0
M  V30 8814 N 818.053 2.64725 4.74786 0
M  V30 8815 H 821.855 1.80574 2.31884 0
M  V30 8816 H 819.369 1.07527 1.21703 0
M  V30 8817 H 821.366 0.17352 4.16539 0
M  V30 8818 H 820.026 -0.508862 3.20688 0
M  V30 8819 H 821.037 3.05801 4.17978 0
M  V30 8820 H 817.714 0.477548 4.1476 0
M  V30 8821 H 819.104 4.41338 5.06627 0
M  V30 8822 N 821.824 -1.22873 0.986916 0
M  V30 8823 C 822.772 -2.26597 0.525043 0
M  V30 8824 C 823.766 -1.64079 -0.421252 0
M  V30 8825 O 824.972 -1.77576 -0.294429 0
M  V30 8826 H 821.347 -0.736606 0.151381 0
M  V30 8827 H 823.318 -2.62909 1.41142 0
M  V30 8828 C 822.067 -3.47374 -0.150542 0
M  V30 8829 H 821.39 -3.95737 0.568541 0
M  V30 8830 H 822.83 -4.21739 -0.437256 0
M  V30 8831 C 821.289 -3.07163 -1.38392 0
M  V30 8832 O 821.819 -3.16028 -2.47971 0
M  V30 8833 N 820.025 -2.62009 -1.25697 0
M  V30 8834 H 819.572 -2.54996 -0.365355 0
M  V30 8835 H 819.53 -2.35472 -2.08327 0
M  V30 8836 N 823.302 -0.75937 -1.38099 0
M  V30 8837 C 824.548 -0.318584 -2.00282 0
M  V30 8838 C 824.881 1.09854 -1.60143 0
M  V30 8839 O 824.156 1.75344 -0.841702 0
M  V30 8840 C 824.439 -0.448047 -3.57302 0
M  V30 8841 C 824.292 -1.9067 -4.07388 0
M  V30 8842 C 825.611 0.155119 -4.39827 0
M  V30 8843 H 822.73 -0.117233 -0.727616 0
M  V30 8844 H 825.372 -0.960097 -1.63958 0
M  V30 8845 H 823.522 0.0981003 -3.88376 0
M  V30 8846 H 825.194 -2.5116 -3.86932 0
M  V30 8847 H 823.437 -2.41979 -3.6004 0
M  V30 8848 H 824.108 -1.94841 -5.1647 0
M  V30 8849 H 826.584 -0.31073 -4.14938 0
M  V30 8850 H 825.46 0.0343264 -5.48889 0
M  V30 8851 H 825.721 1.24407 -4.24235 0
M  V30 8852 N 824.78 1.49157 -0.508906 0
M  V30 8853 C 825.743 2.27784 0.25434 0
M  V30 8854 C 826.743 1.34132 0.88686 0
M  V30 8855 O 827.933 1.5722 0.750168 0
M  V30 8856 C 825.065 3.12347 1.36573 0
M  V30 8857 H 826.258 2.96718 -0.435714 0
M  V30 8858 H 823.811 1.54052 -0.264128 0
M  V30 8859 H 824.546 2.47997 2.08969 0
M  V30 8860 H 824.331 3.81213 0.917543 0
M  V30 8861 H 825.821 3.71712 1.90315 0
M  V30 8862 N 826.258 0.243083 1.55714 0
M  V30 8863 C 827.488 -0.38641 2.02954 0
M  V30 8864 C 827.896 -1.52358 1.12177 0
M  V30 8865 O 827.239 -1.83255 0.127853 0
M  V30 8866 C 827.301 -0.959388 3.46462 0
M  V30 8867 C 826.965 0.0450546 4.56978 0
M  V30 8868 C 827.962 0.853224 5.12851 0
M  V30 8869 C 825.647 0.170041 5.02012 0
M  V30 8870 C 827.641 1.77288 6.12248 0
M  V30 8871 C 825.328 1.0932 6.01242 0
M  V30 8872 C 826.326 1.89315 6.56238 0
M  V30 8873 O 826.014 2.80075 7.53534 0
M  V30 8874 H 825.746 -0.0964333 0.669086 0
M  V30 8875 H 828.3 0.363399 2.0216 0
M  V30 8876 H 826.53 -1.75869 3.44394 0
M  V30 8877 H 828.219 -1.49856 3.77224 0
M  V30 8878 H 828.985 0.767229 4.78893 0
M  V30 8879 H 824.864 -0.442528 4.58871 0
M  V30 8880 H 828.408 2.39768 6.55101 0
M  V30 8881 H 824.305 1.18013 6.3462 0
M  V30 8882 H 825.073 2.74393 7.71136 0
M  V30 8883 N 827.736 -1.57571 -0.0300757 0
M  V30 8884 C 829.147 -1.77567 -0.576802 0
M  V30 8885 C 829.498 -0.874034 -1.75656 0
M  V30 8886 O 828.623 -0.0686124 -2.16291 0
M  V30 8887 C 829.218 -3.22016 -1.05315 0
M  V30 8888 C 827.777 -3.43212 -1.5454 0
M  V30 8889 C 826.924 -2.73061 -0.483033 0
M  V30 8890 H 829.875 -1.57483 0.196151 0
M  V30 8891 H 829.896 -3.28474 -1.92055 0
M  V30 8892 H 829.408 -3.87613 -0.194298 0
M  V30 8893 H 827.509 -2.82788 -2.42615 0
M  V30 8894 H 827.622 -4.5182 -1.5936 0
M  V30 8895 H 825.986 -2.36805 -0.937835 0
M  V30 8896 H 826.769 -3.4134 0.366341 0
M  V30 8897 N 829.214 0.302327 -1.54673 0
M  V30 8898 C 830.161 1.37282 -1.85532 0
M  V30 8899 C 831.131 1.50437 -0.704129 0
M  V30 8900 O 832.316 1.65317 -0.952627 0
M  V30 8901 C 829.456 2.73309 -2.10704 0
M  V30 8902 C 828.569 2.68614 -3.38335 0
M  V30 8903 C 827.704 3.96626 -3.53357 0
M  V30 8904 C 826.743 3.86324 -4.74784 0
M  V30 8905 N 825.88 5.06109 -4.86619 0
M  V30 8906 H 830.72 1.10265 -2.76849 0
M  V30 8907 H 828.257 0.533346 -1.37091 0
M  V30 8908 H 830.215 3.52414 -2.23294 0
M  V30 8909 H 828.845 2.98589 -1.22656 0
M  V30 8910 H 827.897 1.81381 -3.34373 0
M  V30 8911 H 829.209 2.56891 -4.27561 0
M  V30 8912 H 828.363 4.84168 -3.65604 0
M  V30 8913 H 827.102 4.11182 -2.62261 0
M  V30 8914 H 826.107 2.97166 -4.62572 0
M  V30 8915 H 827.332 3.73315 -5.67286 0
M  V30 8916 H 825.278 5.2113 -3.98446 0
M  V30 8917 H 825.195 4.96804 -5.69844 0
M  V30 8918 H 826.463 5.95306 -5.03221 0
M  V30 8919 N 830.692 1.47107 0.565454 0
M  V30 8920 C 831.917 1.57153 1.35343 0
M  V30 8921 C 832.342 0.219247 1.86818 0
M  V30 8922 O 831.7 -0.803539 1.62521 0
M  V30 8923 C 831.748 2.59387 2.50501 0
M  V30 8924 O 830.852 2.14086 3.52478 0
M  V30 8925 H 830.193 0.528209 0.402357 0
M  V30 8926 H 832.723 1.92821 0.684189 0
M  V30 8927 H 832.733 2.79546 2.97184 0
M  V30 8928 H 831.408 3.57579 2.12391 0
M  V30 8929 H 829.985 2.03991 3.12157 0
M  V30 8930 N 832.17 -0.811516 1.35101 0
M  V30 8931 C 833.103 -1.92872 1.21966 0
M  V30 8932 C 834.081 -1.62236 0.108667 0
M  V30 8933 O 835.265 -1.8647 0.275875 0
M  V30 8934 C 832.392 -3.27152 0.876886 0
M  V30 8935 C 831.438 -3.7674 1.99924 0
M  V30 8936 S 832.271 -3.95132 3.61429 0
M  V30 8937 C 833.427 -5.32322 3.29218 0
M  V30 8938 H 833.66 -2.03718 2.16532 0
M  V30 8939 H 831.193 -0.968352 1.20259 0
M  V30 8940 H 833.151 -4.04729 0.685917 0
M  V30 8941 H 831.812 -3.14059 -0.0506289 0
M  V30 8942 H 831.005 -4.73981 1.71343 0
M  V30 8943 H 830.607 -3.06145 2.14829 0
M  V30 8944 H 832.899 -6.1614 2.8174 0
M  V30 8945 H 833.842 -5.65893 4.25641 0
M  V30 8946 H 834.25 -4.98374 2.65111 0
M  V30 8947 N 833.648 -1.19017 -1.03309 0
M  V30 8948 C 834.873 -1.01598 -1.80811 0
M  V30 8949 C 835.298 0.430773 -1.83101 0
M  V30 8950 O 834.656 1.30946 -1.25391 0
M  V30 8951 C 834.704 -1.5845 -3.23923 0
M  V30 8952 O 833.808 -0.810972 -4.04348 0
M  V30 8953 H 833.149 -0.359398 -0.558327 0
M  V30 8954 H 835.679 -1.57945 -1.30055 0
M  V30 8955 H 835.689 -1.61486 -3.74682 0
M  V30 8956 H 834.364 -2.63752 -3.21571 0
M  V30 8957 H 832.941 -0.85353 -3.63 0
M  V30 8958 N 835.127 1.22348 -0.993418 0
M  V30 8959 C 836.074 2.24294 -0.544118 0
M  V30 8960 C 837.044 1.60602 0.42381 0
M  V30 8961 O 838.229 1.87952 0.328453 0
M  V30 8962 C 835.369 3.44837 0.134578 0
M  V30 8963 C 834.482 4.23043 -0.875151 0
M  V30 8964 C 833.617 5.30928 -0.169919 0
M  V30 8965 C 832.656 6.00853 -1.16798 0
M  V30 8966 N 831.793 7.00381 -0.491021 0
M  V30 8967 H 836.633 2.6209 -1.4182 0
M  V30 8968 H 834.17 1.2881 -0.710384 0
M  V30 8969 H 836.128 4.13625 0.544998 0
M  V30 8970 H 834.758 3.07804 0.972446 0
M  V30 8971 H 833.81 3.53546 -1.40389 0
M  V30 8972 H 835.122 4.71237 -1.63516 0
M  V30 8973 H 834.276 6.05972 0.297205 0
M  V30 8974 H 833.015 4.8371 0.622586 0
M  V30 8975 H 832.02 5.24591 -1.64573 0
M  V30 8976 H 833.245 6.50159 -1.96137 0
M  V30 8977 H 831.191 6.55393 0.282037 0
M  V30 8978 H 831.108 7.46584 -1.18947 0
M  V30 8979 H 832.376 7.79486 -0.0467169 0
M  V30 8980 N 836.605 0.766683 1.37694 0
M  V30 8981 C 837.515 0.150158 2.34119 0
M  V30 8982 C 838.531 -0.685513 1.59927 0
M  V30 8983 O 839.707 -0.606616 1.92047 0
M  V30 8984 C 836.772 -0.722562 3.39087 0
M  V30 8985 C 835.833 0.128983 4.29106 0
M  V30 8986 C 835.066 -0.702178 5.29061 0
M  V30 8987 O 835.289 -1.93954 5.36412 0
M  V30 8988 O 834.223 -0.114056 6.01792 0
M  V30 8989 H 838.049 0.946829 2.88563 0
M  V30 8990 H 835.634 0.527765 1.39768 0
M  V30 8991 H 837.516 -1.22095 4.03325 0
M  V30 8992 H 836.191 -1.49751 2.86978 0
M  V30 8993 H 835.098 0.673612 3.67985 0
M  V30 8994 H 836.431 0.866892 4.84506 0
M  V30 8995 N 838.083 -1.48885 0.516809 0
M  V30 8996 C 839.046 -2.27916 -0.242256 0
M  V30 8997 C 840.046 -1.34601 -0.879735 0
M  V30 8998 O 841.236 -1.57616 -0.74182 0
M  V30 8999 C 838.368 -3.13067 -1.34914 0
M  V30 9000 H 839.561 -2.96483 0.451444 0
M  V30 9001 H 837.114 -1.5391 0.272294 0
M  V30 9002 H 837.849 -2.49102 -2.07651 0
M  V30 9003 H 837.634 -3.81695 -0.897313 0
M  V30 9004 H 839.124 -3.72716 -1.88341 0
M  V30 9005 N 839.561 -0.251338 -1.55583 0
M  V30 9006 C 840.807 0.37272 -1.99346 0
M  V30 9007 C 841.14 1.57266 -1.13934 0
M  V30 9008 O 840.415 1.9343 -0.20377 0
M  V30 9009 C 840.698 0.778245 -3.5159 0
M  V30 9010 C 840.551 -0.427394 -4.47765 0
M  V30 9011 C 841.87 1.62358 -4.09057 0
M  V30 9012 H 838.989 0.134002 -0.724715 0
M  V30 9013 H 841.631 -0.353536 -1.86682 0
M  V30 9014 H 839.781 1.39704 -3.62512 0
M  V30 9015 H 841.453 -1.06586 -4.48818 0
M  V30 9016 H 839.696 -1.06972 -4.20404 0
M  V30 9017 H 840.367 -0.10025 -5.51909 0
M  V30 9018 H 842.843 1.1012 -4.01264 0
M  V30 9019 H 841.719 1.87617 -5.1584 0
M  V30 9020 H 841.98 2.59688 -3.57791 0
M  V30 9021 N 841.039 1.57585 0.0217189 0
M  V30 9022 C 842.002 2.06004 1.00474 0
M  V30 9023 C 843.002 0.965461 1.2859 0
M  V30 9024 O 844.192 1.22884 1.23471 0
M  V30 9025 C 841.324 2.48319 2.33561 0
M  V30 9026 H 842.517 2.94112 0.586346 0
M  V30 9027 H 840.07 1.53973 0.268716 0
M  V30 9028 H 840.805 1.63389 2.80133 0
M  V30 9029 H 840.59 3.28239 2.1448 0
M  V30 9030 H 842.08 2.86181 3.04122 0
M  V30 9031 N 842.517 -0.29412 1.54831 0
M  V30 9032 C 843.766 -1.02614 1.73647 0
M  V30 9033 C 844.079 -1.88193 0.533162 0
M  V30 9034 O 845.285 -2.64713 0.603275 0
M  V30 9035 C 843.741 -1.87417 3.07251 0
M  V30 9036 C 843.349 -1.06806 4.35082 0
M  V30 9037 C 845.093 -2.60176 3.35423 0
M  V30 9038 C 843 -1.90926 5.59733 0
M  V30 9039 H 841.93 -0.386834 0.647206 0
M  V30 9040 H 844.581 -0.282789 1.81308 0
M  V30 9041 H 842.963 -2.65765 2.93572 0
M  V30 9042 H 844.137 -0.330226 4.59615 0
M  V30 9043 H 842.452 -0.455979 4.13896 0
M  V30 9044 H 845.049 -3.23476 4.25755 0
M  V30 9045 H 845.392 -3.29365 2.54606 0
M  V30 9046 H 845.925 -1.88871 3.50103 0
M  V30 9047 H 842.664 -1.26194 6.43238 0
M  V30 9048 H 842.184 -2.62363 5.39375 0
M  V30 9049 H 843.863 -2.48807 5.97247 0
M  V30 9050 N 843.995 -1.47404 -0.557645 0
M  V30 9051 C 845.235 -1.55585 -1.32562 0
M  V30 9052 C 845.599 -0.212926 -1.90816 0
M  V30 9053 O 846.8 -0.169574 -2.68265 0
M  V30 9054 C 845.071 -2.64249 -2.40639 0
M  V30 9055 S 846.63 -2.9201 -3.2753 0
M  V30 9056 H 843.448 -0.549409 -0.451298 0
M  V30 9057 H 846.05 -1.84782 -0.638438 0
M  V30 9058 H 844.754 -3.60421 -1.96277 0
M  V30 9059 H 844.285 -2.36866 -3.14099 0
M  V30 9060 H 846.3 -2.29191 -4.40098 0
M  V30 9061 N 845.473 0.80434 -1.35529 0
M  V30 9062 C 846.42 1.91629 -1.28635 0
M  V30 9063 C 847.39 1.65348 -0.157862 0
M  V30 9064 O 848.575 1.87711 -0.341934 0
M  V30 9065 C 845.715 3.28207 -1.0665 0
M  V30 9066 C 844.828 3.66659 -2.28441 0
M  V30 9067 C 843.963 4.92279 -1.99588 0
M  V30 9068 C 843.002 5.23365 -3.1742 0
M  V30 9069 N 842.139 6.40165 -2.88328 0
M  V30 9070 H 846.979 1.96858 -2.23721 0
M  V30 9071 H 844.516 0.962871 -1.11208 0
M  V30 9072 H 846.474 4.06945 -0.919343 0
M  V30 9073 H 845.104 3.22441 -0.152253 0
M  V30 9074 H 844.156 2.83164 -2.54013 0
M  V30 9075 H 845.468 3.8559 -3.1642 0
M  V30 9076 H 844.622 5.78847 -1.81715 0
M  V30 9077 H 843.361 4.75387 -1.08896 0
M  V30 9078 H 842.366 4.35285 -3.35867 0
M  V30 9079 H 843.591 5.42185 -4.08916 0
M  V30 9080 H 841.537 6.24694 -2.00233 0
M  V30 9081 H 841.454 6.59357 -3.69843 0
M  V30 9082 H 842.722 7.29755 -2.74002 0
M  V30 9083 N 846.951 1.19563 1.02676 0
M  V30 9084 C 848.199 0.997593 1.75763 0
M  V30 9085 C 848.52 -0.47253 1.89188 0
M  V30 9086 O 847.79 -1.34214 1.42701 0
M  V30 9087 H 846.37 0.366128 0.651122 0
M  V30 9088 H 849.032 1.50495 1.23844 0
M  V30 9089 H 848.128 1.44741 2.76508 0
M  V30 9090 N 848.429 -1.21819 0.999893 0
M  V30 9091 C 849.359 -2.26282 0.576096 0
M  V30 9092 C 850.34 -1.65317 -0.400537 0
M  V30 9093 O 851.525 -1.92028 -0.28964 0
M  V30 9094 C 848.655 -3.47147 -0.103145 0
M  V30 9095 C 847.609 -4.20594 0.792745 0
M  V30 9096 C 846.935 -5.34696 -0.0198026 0
M  V30 9097 C 848.235 -4.78533 2.09293 0
M  V30 9098 H 849.929 -2.61984 1.4493 0
M  V30 9099 H 847.475 -1.25935 0.698316 0
M  V30 9100 H 849.428 -4.1939 -0.411068 0
M  V30 9101 H 848.152 -3.1056 -1.01094 0
M  V30 9102 H 846.811 -3.50194 1.08442 0
M  V30 9103 H 846.459 -4.94352 -0.928729 0
M  V30 9104 H 846.159 -5.84764 0.576661 0
M  V30 9105 H 847.683 -6.09752 -0.321659 0
M  V30 9106 H 849.097 -5.42682 1.8485 0
M  V30 9107 H 847.494 -5.38968 2.63881 0
M  V30 9108 H 848.564 -3.98197 2.76708 0
M  V30 9109 N 849.908 -0.773975 -1.37286 0
M  V30 9110 C 850.841 -0.108019 -2.27944 0
M  V30 9111 C 851.819 0.706737 -1.46438 0
M  V30 9112 O 853.003 0.681025 -1.75768 0
M  V30 9113 C 850.13 0.853199 -3.27778 0
M  V30 9114 C 849.176 0.122164 -4.26325 0
M  V30 9115 S 850.009 -1.19136 -5.22079 0
M  V30 9116 C 851.165 -0.233737 -6.25463 0
M  V30 9117 H 851.398 -0.876743 -2.84078 0
M  V30 9118 H 848.931 -0.567468 -1.43594 0
M  V30 9119 H 850.889 1.40238 -3.85803 0
M  V30 9120 H 849.55 1.59505 -2.70586 0
M  V30 9121 H 848.743 0.850926 -4.96765 0
M  V30 9122 H 848.345 -0.356079 -3.72301 0
M  V30 9123 H 850.637 0.59305 -6.74899 0
M  V30 9124 H 851.58 -0.906373 -7.02275 0
M  V30 9125 H 851.988 0.156048 -5.64284 0
M  V30 9126 N 851.386 1.48609 -0.524698 0
M  V30 9127 C 852.614 2.06899 0.00742946 0
M  V30 9128 C 853.029 1.38196 1.28637 0
M  V30 9129 O 852.386 0.467771 1.76403 0
M  V30 9130 C 852.437 3.60699 0.240548 0
M  V30 9131 O 852.158 4.26821 -0.987715 0
M  V30 9132 C 853.659 4.35769 0.813652 0
M  V30 9133 H 850.879 0.670278 -0.0311294 0
M  V30 9134 H 853.423 1.91071 -0.728832 0
M  V30 9135 H 851.578 3.76149 0.926845 0
M  V30 9136 H 851.992 5.18889 -0.765175 0
M  V30 9137 H 853.466 5.44174 0.926219 0
M  V30 9138 H 853.943 3.9984 1.81728 0
M  V30 9139 H 854.549 4.24983 0.164086 0
M  V30 9140 N 852.864 0.259585 1.55447 0
M  V30 9141 C 853.811 -0.634578 2.21905 0
M  V30 9142 C 854.781 -1.16168 1.18719 0
M  V30 9143 O 855.966 -1.21383 1.4721 0
M  V30 9144 C 853.106 -1.82005 2.93203 0
M  V30 9145 C 852.219 -1.32828 4.11073 0
M  V30 9146 C 851.354 -2.47431 4.70055 0
M  V30 9147 C 850.393 -1.95179 5.80148 0
M  V30 9148 N 849.53 -3.03197 6.33258 0
M  V30 9149 H 854.37 -0.0611886 2.97937 0
M  V30 9150 H 851.907 -0.0184378 1.47088 0
M  V30 9151 H 853.865 -2.51664 3.32748 0
M  V30 9152 H 852.495 -2.36571 2.19622 0
M  V30 9153 H 851.547 -0.525301 3.76756 0
M  V30 9154 H 852.859 -0.905435 4.90513 0
M  V30 9155 H 852.013 -3.25111 5.12238 0
M  V30 9156 H 850.752 -2.93023 3.89857 0
M  V30 9157 H 849.757 -1.15974 5.37429 0
M  V30 9158 H 850.982 -1.50541 6.62204 0
M  V30 9159 H 848.928 -3.48199 5.55961 0
M  V30 9160 H 848.845 -2.65282 7.07928 0
M  V30 9161 H 850.113 -3.80898 6.80101 0
M  V30 9162 N 854.342 -1.57594 -0.0133615 0
M  V30 9163 C 855.292 -2.04048 -1.01726 0
M  V30 9164 C 856.276 -0.932682 -1.3111 0
M  V30 9165 O 857.468 -1.19652 -1.30432 0
M  V30 9166 C 854.597 -2.53637 -2.31351 0
M  V30 9167 C 853.683 -3.71269 -2.04989 0
M  V30 9168 N 854.074 -4.83436 -1.48739 0
M  V30 9169 C 852.372 -3.78943 -2.35198 0
M  V30 9170 C 853.073 -5.64961 -1.38542 0
M  V30 9171 N 852.049 -5.10554 -1.86643 0
M  V30 9172 H 855.851 -2.88188 -0.576623 0
M  V30 9173 H 853.365 -1.60912 -0.219344 0
M  V30 9174 H 855.362 -2.85186 -3.04096 0
M  V30 9175 H 854.022 -1.7091 -2.76079 0
M  V30 9176 H 855.033 -5.04558 -1.16798 0
M  V30 9177 H 851.71 -3.07047 -2.82893 0
M  V30 9178 H 853.1 -6.65092 -0.954075 0
M  V30 9179 N 855.82 0.285905 -1.54985 0
M  V30 9180 C 857.231 0.857869 -1.65824 0
M  V30 9181 C 857.582 1.87531 -0.576763 0
M  V30 9182 O 856.707 2.14528 0.284016 0
M  V30 9183 C 857.302 1.56277 -3.00604 0
M  V30 9184 C 855.861 2.08294 -3.13513 0
M  V30 9185 C 855.008 0.920633 -2.61571 0
M  V30 9186 H 857.959 0.0625463 -1.58577 0
M  V30 9187 H 857.98 2.42912 -2.92872 0
M  V30 9188 H 857.492 0.822017 -3.79295 0
M  V30 9189 H 855.593 2.8537 -2.39572 0
M  V30 9190 H 855.706 2.3071 -4.19892 0
M  V30 9191 H 854.07 1.31043 -2.18403 0
M  V30 9192 H 854.853 0.193594 -3.42754 0
M  V30 9193 N 857.298 1.47698 0.54982 0
M  V30 9194 C 858.546 1.54397 1.30407 0
M  V30 9195 C 858.867 0.211026 1.93855 0
M  V30 9196 O 858.137 -0.765701 1.80316 0
M  V30 9197 H 856.717 0.568747 0.484289 0
M  V30 9198 H 859.379 1.84042 0.641444 0
M  V30 9199 H 858.475 2.31449 2.09375 0
M  V30 9200 N 858.776 -0.797141 1.35954 0
M  V30 9201 C 859.723 -1.90944 1.2965 0
M  V30 9202 C 860.693 -1.65262 0.166628 0
M  V30 9203 O 861.878 -1.87527 0.351883 0
M  V30 9204 C 859.018 -3.27637 1.08389 0
M  V30 9205 C 858.131 -3.65442 2.30382 0
M  V30 9206 C 857.266 -4.91213 2.02195 0
M  V30 9207 C 856.305 -5.21674 3.20191 0
M  V30 9208 N 855.442 -6.38627 2.91719 0
M  V30 9209 H 860.282 -1.95668 2.24762 0
M  V30 9210 H 857.819 -0.95696 1.11717 0
M  V30 9211 H 859.777 -4.06451 0.940912 0
M  V30 9212 H 858.407 -3.22355 0.169351 0
M  V30 9213 H 857.459 -2.81813 2.55511 0
M  V30 9214 H 858.771 -3.83907 3.18461 0
M  V30 9215 H 857.925 -5.77876 1.84783 0
M  V30 9216 H 856.664 -4.74803 1.11416 0
M  V30 9217 H 855.669 -4.33498 3.38171 0
M  V30 9218 H 856.894 -5.40009 4.11786 0
M  V30 9219 H 854.84 -6.23623 2.03543 0
M  V30 9220 H 854.757 -6.57387 3.73334 0
M  V30 9221 H 856.025 -7.28292 2.77868 0
M  V30 9222 N 860.254 -1.20106 -1.0204 0
M  V30 9223 C 861.67 -0.955099 -1.27867 0
M  V30 9224 C 861.87 0.367595 -1.98119 0
M  V30 9225 O 860.926 1.09705 -2.27423 0
M  V30 9226 C 862.239 -2.13507 -2.11744 0
M  V30 9227 C 863.787 -2.17563 -2.25023 0
M  V30 9228 C 864.262 -3.35035 -3.12275 0
M  V30 9229 N 865.753 -3.35024 -3.19864 0
M  V30 9230 C 866.488 -4.22566 -3.8759 0
M  V30 9231 N 865.984 -5.20278 -4.57474 0
M  V30 9232 N 867.777 -4.10418 -3.84075 0
M  V30 9233 H 859.928 -2.05193 -0.54861 0
M  V30 9234 H 862.191 -0.897689 -0.304728 0
M  V30 9235 H 861.897 -3.09275 -1.67456 0
M  V30 9236 H 861.771 -2.11281 -3.12474 0
M  V30 9237 H 864.158 -1.22359 -2.68537 0
M  V30 9238 H 864.239 -2.23838 -1.23815 0
M  V30 9239 H 863.883 -4.30522 -2.69468 0
M  V30 9240 H 863.813 -3.25996 -4.13563 0
M  V30 9241 H 866.304 -2.64299 -2.701 0
M  V30 9242 H 866.617 -5.83408 -5.06809 0
M  V30 9243 H 864.962 -5.24219 -4.56311 0
M  V30 9244 H 868.153 -3.33353 -3.28623 0
M  V30 9245 H 868.326 -4.78854 -4.36581 0
M  V30 9246 N 861.732 1.21287 -1.00634 0
M  V30 9247 C 862.662 2.25973 -0.588089 0
M  V30 9248 C 863.643 1.65527 0.391764 0
M  V30 9249 O 864.828 1.92179 0.279452 0
M  V30 9250 C 861.958 3.47197 0.0847336 0
M  V30 9251 C 860.912 4.20168 -0.815039 0
M  V30 9252 C 860.238 5.34699 -0.00855393 0
M  V30 9253 C 861.538 4.77416 -2.11828 0
M  V30 9254 H 863.232 2.61212 -1.46317 0
M  V30 9255 H 860.778 1.25563 -0.704985 0
M  V30 9256 H 862.731 4.19602 0.388821 0
M  V30 9257 H 861.455 3.11092 0.994456 0
M  V30 9258 H 860.114 3.49614 -1.10297 0
M  V30 9259 H 859.762 4.94837 0.902499 0
M  V30 9260 H 859.462 5.84449 -0.607664 0
M  V30 9261 H 860.986 6.09914 0.289317 0
M  V30 9262 H 862.4 5.41694 -1.87725 0
M  V30 9263 H 860.797 5.37561 -2.66736 0
M  V30 9264 H 861.867 3.96724 -2.78816 0
M  V30 9265 N 863.21 0.781244 1.36873 0
M  V30 9266 C 864.458 0.349198 1.9906 0
M  V30 9267 C 864.779 -1.0806 1.62321 0
M  V30 9268 O 864.049 -1.74351 0.893229 0
M  V30 9269 H 862.629 0.126126 0.736275 0
M  V30 9270 H 865.291 1.00148 1.67202 0
M  V30 9271 H 864.387 0.434451 3.09061 0
M  V30 9272 N 864.689 -1.48329 0.532571 0
M  V30 9273 C 865.929 -2.044 0.00145618 0
M  V30 9274 C 866.293 -1.40053 -1.31336 0
M  V30 9275 O 867.494 -1.87026 -1.93066 0
M  V30 9276 C 865.765 -3.57214 -0.115376 0
M  V30 9277 S 867.324 -4.34731 -0.59618 0
M  V30 9278 H 864.142 -0.710876 0.0133038 0
M  V30 9279 H 866.744 -1.82006 0.71372 0
M  V30 9280 H 865.448 -4.01579 0.846335 0
M  V30 9281 H 864.979 -3.84065 -0.85194 0
M  V30 9282 H 866.994 -4.6001 -1.86025 0
M  V30 9283 N 866.167 -0.267825 -1.55308 0
M  V30 9284 C 867.415 0.350343 -1.9904 0
M  V30 9285 C 867.736 1.56924 -1.15758 0
M  V30 9286 O 867.006 1.94358 -0.245336 0
M  V30 9287 H 865.586 0.132435 -0.735167 0
M  V30 9288 H 868.248 -0.371471 -1.91327 0
M  V30 9289 H 867.344 0.645203 -3.05358 0
M  V30 9290 N 867.645 1.57599 0.00500368 0
M  V30 9291 C 869.056 1.78462 0.54848 0
M  V30 9292 C 869.407 0.901869 1.74243 0
M  V30 9293 O 868.532 0.103014 2.16155 0
M  V30 9294 C 869.127 3.2365 1.00179 0
M  V30 9295 C 867.686 3.45627 1.49061 0
M  V30 9296 C 866.833 2.73794 0.439531 0
M  V30 9297 H 869.784 1.57151 -0.22118 0
M  V30 9298 H 869.805 3.31488 1.86805 0
M  V30 9299 H 869.317 3.87873 0.132607 0
M  V30 9300 H 867.418 2.86612 2.38085 0
M  V30 9301 H 867.531 4.54298 1.52152 0
M  V30 9302 H 865.895 2.38267 0.900043 0
M  V30 9303 H 866.678 3.40714 -0.420599 0
M  V30 9304 N 869.123 -0.277682 1.55134 0
M  V30 9305 C 870.033 -1.36524 1.90783 0
M  V30 9306 C 871.049 -1.54283 0.804542 0
M  V30 9307 O 872.225 -1.68499 1.10318 0
M  V30 9308 C 869.29 -2.70524 2.16835 0
M  V30 9309 C 868.351 -2.61552 3.40424 0
M  V30 9310 C 867.584 -3.89162 3.65224 0
M  V30 9311 O 867.807 -4.89624 2.92616 0
M  V30 9312 O 866.741 -3.89647 4.58758 0
M  V30 9313 H 870.567 -1.0929 2.83354 0
M  V30 9314 H 868.152 -0.475799 1.41621 0
M  V30 9315 H 870.034 -3.49765 2.35038 0
M  V30 9316 H 868.709 -2.97555 1.27448 0
M  V30 9317 H 867.616 -1.80704 3.27562 0
M  V30 9318 H 868.949 -2.39472 4.30016 0
M  V30 9319 N 870.601 -1.47988 -0.541979 0
M  V30 9320 C 871.849 -1.55086 -1.29587 0
M  V30 9321 C 872.17 -0.221304 -1.9374 0
M  V30 9322 O 871.44 0.756128 -1.80719 0
M  V30 9323 H 870.02 -0.571307 -0.481266 0
M  V30 9324 H 872.682 -1.8438 -0.631675 0
M  V30 9325 H 871.778 -2.32556 -2.08144 0
M  V30 9326 N 872.079 0.78992 -1.36375 0
M  V30 9327 C 872.989 1.93386 -1.32812 0
M  V30 9328 C 874.005 1.72468 -0.230377 0
M  V30 9329 O 875.181 1.96014 -0.462657 0
M  V30 9330 C 872.246 3.2824 -1.11621 0
M  V30 9331 C 871.307 3.61939 -2.30865 0
M  V30 9332 C 870.54 4.90359 -2.10675 0
M  V30 9333 O 870.763 5.6005 -1.08168 0
M  V30 9334 O 869.697 5.22702 -2.9844 0
M  V30 9335 H 873.523 1.99342 -2.29121 0
M  V30 9336 H 871.108 0.9301 -1.16917 0
M  V30 9337 H 872.99 4.08939 -1.01719 0
M  V30 9338 H 871.665 3.23178 -0.183732 0
M  V30 9339 H 870.572 2.81549 -2.46335 0
M  V30 9340 H 871.905 3.71725 -3.22617 0
M  V30 9341 N 873.557 1.20646 1.01402 0
M  V30 9342 C 874.973 0.961866 1.27359 0
M  V30 9343 C 875.173 -0.357083 1.98311 0
M  V30 9344 O 874.229 -1.08498 2.28001 0
M  V30 9345 C 875.542 2.14627 2.10609 0
M  V30 9346 C 877.09 2.18753 2.23866 0
M  V30 9347 C 877.565 3.36686 3.10494 0
M  V30 9348 N 879.056 3.36716 3.18083 0
M  V30 9349 C 879.791 4.24615 3.85343 0
M  V30 9350 N 879.287 5.22697 4.54708 0
M  V30 9351 N 881.08 4.12449 3.81893 0
M  V30 9352 H 873.231 2.05481 0.537721 0
M  V30 9353 H 875.494 0.899292 0.299963 0
M  V30 9354 H 875.2 3.10159 1.65814 0
M  V30 9355 H 875.074 2.12935 3.11349 0
M  V30 9356 H 877.461 1.23782 2.67885 0
M  V30 9357 H 877.542 2.24492 1.22626 0
M  V30 9358 H 877.186 4.31945 2.67181 0
M  V30 9359 H 877.116 3.28185 4.11828 0
M  V30 9360 H 879.607 2.65728 2.68695 0
M  V30 9361 H 879.92 5.86087 5.03708 0
M  V30 9362 H 878.265 5.26631 4.53525 0
M  V30 9363 H 881.456 3.35091 3.26851 0
M  V30 9364 H 881.629 4.81162 4.34035 0
M  V30 9365 N 875.035 -1.20752 1.01276 0
M  V30 9366 C 876.312 -1.85676 0.615112 0
M  V30 9367 C 876.692 -1.90623 -0.906976 0
M  V30 9368 O 876.04 -1.41124 -1.79712 0
M  V30 9369 C 876.25 -3.2552 1.25847 0
M  V30 9370 C 877.598 -4.0184 1.37148 0
M  V30 9371 O 878.622 -3.3486 1.21438 0
M  V30 9372 O 877.481 -5.21783 1.62495 0
M  V30 9373 H 874.575 -0.799437 0.211729 0
M  V30 9374 H 877.121 -1.28372 1.10989 0
M  V30 9375 H 875.893 -3.16664 2.29869 0
M  V30 9376 H 875.516 -3.90452 0.750524 0
M  V30 9377 N 876.513 -0.788492 -1.36457 0
M  V30 9378 C 877.762 -0.357052 -1.98515 0
M  V30 9379 C 878.075 1.0769 -1.63285 0
M  V30 9380 O 879.281 1.61057 -2.1857 0
M  V30 9381 C 877.737 -0.587449 -3.55073 0
M  V30 9382 C 877.345 -2.03276 -3.99228 0
M  V30 9383 C 879.089 -0.220468 -4.23927 0
M  V30 9384 C 876.996 -2.20987 -5.48561 0
M  V30 9385 H 875.926 -0.129762 -0.74275 0
M  V30 9386 H 878.577 -0.969995 -1.55767 0
M  V30 9387 H 876.959 0.0951918 -3.95886 0
M  V30 9388 H 878.133 -2.75173 -3.69617 0
M  V30 9389 H 876.448 -2.3579 -3.43208 0
M  V30 9390 H 879.045 -0.331085 -5.33674 0
M  V30 9391 H 879.388 0.831306 -4.07915 0
M  V30 9392 H 879.921 -0.856309 -3.88474 0
M  V30 9393 H 876.66 -3.24543 -5.69519 0
M  V30 9394 H 876.18 -1.53594 -5.79801 0
M  V30 9395 H 877.859 -2.01656 -6.14771 0
M  V30 9396 N 877.991 1.48044 -0.54043 0
M  V30 9397 C 878.938 2.29781 0.216597 0
M  V30 9398 C 879.908 1.38021 0.924094 0
M  V30 9399 O 881.093 1.66985 0.923078 0
M  V30 9400 C 878.233 3.21623 1.2511 0
M  V30 9401 C 877.346 4.28467 0.551384 0
M  V30 9402 C 876.481 5.07477 1.56972 0
M  V30 9403 C 875.52 6.06113 0.854048 0
M  V30 9404 N 874.657 6.78143 1.81842 0
M  V30 9405 H 879.497 2.94001 -0.486578 0
M  V30 9406 H 877.034 1.44929 -0.251789 0
M  V30 9407 H 878.992 3.73279 1.8633 0
M  V30 9408 H 877.622 2.59305 1.92252 0
M  V30 9409 H 876.674 3.79997 -0.174982 0
M  V30 9410 H 877.986 4.98799 -0.0100542 0
M  V30 9411 H 877.14 5.63199 2.25592 0
M  V30 9412 H 875.879 4.37008 2.16507 0
M  V30 9413 H 874.884 5.49585 0.153838 0
M  V30 9414 H 876.109 6.78584 0.264675 0
M  V30 9415 H 874.055 6.10417 2.40265 0
M  V30 9416 H 873.972 7.44587 1.3087 0
M  V30 9417 H 875.24 7.38448 2.49628 0
M  V30 9418 N 879.47 0.276058 1.55163 0
M  V30 9419 C 880.38 -0.621066 2.2623 0
M  V30 9420 C 881.396 -1.16931 1.28853 0
M  V30 9421 O 882.572 -1.1994 1.61791 0
M  V30 9422 C 879.637 -1.78824 2.97023 0
M  V30 9423 C 878.698 -1.27657 4.09881 0
M  V30 9424 C 877.931 -2.38812 4.77289 0
M  V30 9425 O 878.154 -3.58188 4.43912 0
M  V30 9426 O 877.088 -2.06915 5.65217 0
M  V30 9427 H 880.914 -0.0453346 3.03666 0
M  V30 9428 H 878.499 0.0434275 1.49337 0
M  V30 9429 H 880.381 -2.46877 3.41511 0
M  V30 9430 H 879.056 -2.35104 2.22503 0
M  V30 9431 H 877.963 -0.56248 3.69847 0
M  V30 9432 H 879.296 -0.759509 4.86305 0
M  V30 9433 N 880.948 -1.576 0.00335426 0
M  V30 9434 C 881.898 -2.05116 -0.995562 0
M  V30 9435 C 882.882 -0.946535 -1.30113 0
M  V30 9436 O 884.074 -1.21028 -1.29156 0
M  V30 9437 C 881.203 -2.56077 -2.28648 0
M  V30 9438 C 880.289 -3.73422 -2.0104 0
M  V30 9439 N 880.68 -4.84986 -1.43603 0
M  V30 9440 C 878.978 -3.81416 -2.31166 0
M  V30 9441 C 879.679 -5.66399 -1.32542 0
M  V30 9442 N 878.655 -5.12505 -1.81218 0
M  V30 9443 H 882.457 -2.88783 -0.546025 0
M  V30 9444 H 879.971 -1.61135 -0.202265 0
M  V30 9445 H 881.968 -2.88395 -3.01055 0
M  V30 9446 H 880.628 -1.73829 -2.74251 0
M  V30 9447 H 881.639 -5.05768 -1.11439 0
M  V30 9448 H 878.316 -3.1003 -2.7962 0
M  V30 9449 H 879.706 -6.66066 -0.88348 0
M  V30 9450 N 882.426 0.269451 -1.5528 0
M  V30 9451 C 883.389 1.31642 -1.87625 0
M  V30 9452 C 884.389 1.42182 -0.751058 0
M  V30 9453 O 885.579 1.41272 -1.01921 0
M  V30 9454 C 882.711 2.6973 -2.08467 0
M  V30 9455 H 883.904 1.0419 -2.81219 0
M  V30 9456 H 881.457 0.507685 -1.47825 0
M  V30 9457 H 882.192 3.02356 -1.17266 0
M  V30 9458 H 881.977 2.63465 -2.90394 0
M  V30 9459 H 883.467 3.4537 -2.34753 0
M  V30 9460 N 883.904 1.48273 0.534124 0
M  V30 9461 C 885.151 1.56079 1.29017 0
M  V30 9462 C 885.479 0.232912 1.931 0
M  V30 9463 O 884.734 -0.77642 1.79639 0
M  V30 9464 C 885.033 2.64468 2.40398 0
M  V30 9465 C 884.699 4.07034 1.93995 0
M  V30 9466 C 883.361 4.45838 1.81058 0
M  V30 9467 C 885.713 4.96395 1.58877 0
M  V30 9468 C 883.041 5.71812 1.31331 0
M  V30 9469 C 885.393 6.22854 1.10614 0
M  V30 9470 C 884.057 6.60518 0.962895 0
M  V30 9471 H 883.327 0.571135 0.472108 0
M  V30 9472 H 885.974 1.81973 0.5965 0
M  V30 9473 H 884.279 2.32419 3.15418 0
M  V30 9474 H 885.976 2.67725 2.98537 0
M  V30 9475 H 882.566 3.76387 2.05015 0
M  V30 9476 H 886.75 4.67096 1.67734 0
M  V30 9477 H 882.006 5.99722 1.18924 0
M  V30 9478 H 886.18 6.91495 0.825095 0
M  V30 9479 H 883.807 7.58019 0.575369 0
M  V30 9480 N 885.382 -0.782676 1.36792 0
M  V30 9481 C 886.629 -1.54083 1.31395 0
M  V30 9482 C 886.957 -1.94217 -0.104797 0
M  V30 9483 O 886.212 -1.63491 -1.0756 0
M  V30 9484 C 886.511 -2.82542 2.18872 0
M  V30 9485 C 886.177 -2.61512 3.67317 0
M  V30 9486 C 884.839 -2.55486 4.07775 0
M  V30 9487 C 887.191 -2.42389 4.61407 0
M  V30 9488 C 884.519 -2.28311 5.40454 0
M  V30 9489 C 886.871 -2.1674 5.94312 0
M  V30 9490 C 885.535 -2.09151 6.33887 0
M  V30 9491 H 884.805 -0.563829 0.48081 0
M  V30 9492 H 887.452 -0.902436 1.68903 0
M  V30 9493 H 885.757 -3.50883 1.74323 0
M  V30 9494 H 887.454 -3.40367 2.12017 0
M  V30 9495 H 884.044 -2.67062 3.35225 0
M  V30 9496 H 888.228 -2.46043 4.31018 0
M  V30 9497 H 883.484 -2.20922 5.70091 0
M  V30 9498 H 887.658 -2.0094 6.6678 0
M  V30 9499 H 885.285 -1.87857 7.36623 0
M  V30 9500 N 886.86 -1.21182 -1.00761 0
M  V30 9501 C 888.276 -0.968607 -1.26847 0
M  V30 9502 C 888.476 0.346561 -1.98497 0
M  V30 9503 O 887.532 1.07287 -2.28573 0
M  V30 9504 C 888.845 -2.1574 -2.09467 0
M  V30 9505 C 890.393 -2.19937 -2.22703 0
M  V30 9506 C 890.868 -3.38328 -3.08704 0
M  V30 9507 N 892.359 -3.38398 -3.16293 0
M  V30 9508 C 893.094 -4.26653 -3.83086 0
M  V30 9509 N 892.59 -5.25101 -4.5193 0
M  V30 9510 N 894.383 -4.14469 -3.797 0
M  V30 9511 H 886.534 -2.05763 -0.526816 0
M  V30 9512 H 888.797 -0.90087 -0.29519 0
M  V30 9513 H 888.503 -3.11034 -1.64167 0
M  V30 9514 H 888.377 -2.14584 -3.10216 0
M  V30 9515 H 890.764 -1.25201 -2.67224 0
M  V30 9516 H 890.845 -2.25139 -1.21433 0
M  V30 9517 H 890.489 -4.33356 -2.64886 0
M  V30 9518 H 890.419 -3.30364 -4.10082 0
M  V30 9519 H 892.91 -2.67149 -2.67282 0
M  V30 9520 H 893.223 -5.8875 -5.00592 0
M  V30 9521 H 891.568 -5.29029 -4.50726 0
M  V30 9522 H 894.759 -3.3682 -3.25069 0
M  V30 9523 H 894.932 -4.83458 -4.31477 0
M  V30 9524 N 888.338 1.20213 -1.01915 0
M  V30 9525 C 889.568 1.93341 -0.728197 0
M  V30 9526 C 889.976 1.75151 0.715454 0
M  V30 9527 O 889.319 1.06437 1.49722 0
M  V30 9528 C 889.381 3.45677 -0.9873 0
M  V30 9529 C 889.045 3.8763 -2.42057 0
M  V30 9530 C 890.042 3.93184 -3.40151 0
M  V30 9531 C 887.727 4.19547 -2.76199 0
M  V30 9532 C 889.721 4.30069 -4.70446 0
M  V30 9533 C 887.408 4.56106 -4.06707 0
M  V30 9534 C 888.406 4.6134 -5.03641 0
M  V30 9535 O 888.094 4.97059 -6.31813 0
M  V30 9536 H 887.826 0.621258 -0.266485 0
M  V30 9537 H 890.38 1.53577 -1.36393 0
M  V30 9538 H 888.61 3.85578 -0.294405 0
M  V30 9539 H 890.299 4.00035 -0.687536 0
M  V30 9540 H 891.065 3.68687 -3.15111 0
M  V30 9541 H 886.944 4.14663 -2.01434 0
M  V30 9542 H 890.488 4.34069 -5.46105 0
M  V30 9543 H 886.385 4.80059 -4.31525 0
M  V30 9544 H 887.153 5.15043 -6.36139 0
M  V30 9545 N 889.816 0.795718 1.36037 0
M  V30 9546 C 891.065 0.367575 1.98322 0
M  V30 9547 C 891.378 -1.06823 1.63854 0
M  V30 9548 O 892.584 -1.59895 2.19421 0
M  V30 9549 C 891.04 0.606272 3.54757 0
M  V30 9550 C 890.648 2.0539 3.98144 0
M  V30 9551 C 892.392 0.242947 4.23804 0
M  V30 9552 C 890.299 2.23893 5.47381 0
M  V30 9553 H 889.229 0.133699 0.742052 0
M  V30 9554 H 891.88 0.978242 1.5525 0
M  V30 9555 H 890.262 -0.0741957 3.9593 0
M  V30 9556 H 891.436 2.77129 3.68152 0
M  V30 9557 H 889.751 2.37607 3.41953 0
M  V30 9558 H 892.348 0.359382 5.33491 0
M  V30 9559 H 892.691 -0.809661 4.08351 0
M  V30 9560 H 893.224 0.876899 3.88015 0
M  V30 9561 H 889.963 3.27559 5.6779 0
M  V30 9562 H 889.483 1.56666 5.78978 0
M  V30 9563 H 891.162 2.04914 6.13693 0
M  V30 9564 N 891.294 -1.47756 0.548274 0
M  V30 9565 C 892.571 -1.9555 -0.0443603 0
M  V30 9566 C 892.951 -1.49079 -1.49462 0
M  V30 9567 O 892.299 -0.725538 -2.16675 0
M  V30 9568 C 892.509 -3.48879 0.0918425 0
M  V30 9569 C 893.857 -4.2456 -0.0580879 0
M  V30 9570 O 894.881 -3.56195 0.018946 0
M  V30 9571 O 893.74 -5.46048 -0.222261 0
M  V30 9572 H 890.834 -0.824106 -0.0691235 0
M  V30 9573 H 893.38 -1.58196 0.614166 0
M  V30 9574 H 892.152 -3.7548 1.10137 0
M  V30 9575 H 891.775 -3.92975 -0.604704 0
M  V30 9576 N 892.772 -0.284283 -1.55015 0
M  V30 9577 C 894.018 0.3233 -2.00814 0
M  V30 9578 C 894.373 1.52796 -1.16923 0
M  V30 9579 O 893.666 1.90172 -0.233499 0
M  V30 9580 C 893.86 0.747219 -3.49502 0
M  V30 9581 C 893.689 -0.414821 -4.47783 0
M  V30 9582 C 892.459 -0.901531 -4.97193 0
M  V30 9583 C 894.657 -1.25433 -4.9877 0
M  V30 9584 N 892.639 -2.03208 -5.79292 0
M  V30 9585 C 894.01 -2.23262 -5.78406 0
M  V30 9586 C 896.065 -1.28662 -4.80989 0
M  V30 9587 C 894.768 -3.24077 -6.42158 0
M  V30 9588 C 896.794 -2.28326 -5.45547 0
M  V30 9589 C 896.156 -3.24887 -6.25002 0
M  V30 9590 H 892.255 0.0832226 -0.777559 0
M  V30 9591 H 894.839 -0.410393 -1.90326 0
M  V30 9592 H 893.01 1.45012 -3.60314 0
M  V30 9593 H 894.742 1.33292 -3.8212 0
M  V30 9594 H 891.497 -0.479291 -4.71169 0
M  V30 9595 H 891.921 -2.60125 -6.25031 0
M  V30 9596 H 896.563 -0.553858 -4.19157 0
M  V30 9597 H 894.281 -3.98281 -7.03134 0
M  V30 9598 H 897.867 -2.31578 -5.33726 0
M  V30 9599 H 896.747 -4.00745 -6.74072 0
M  V30 9600 N 894.251 1.57596 -0.0117121 0
M  V30 9601 C 895.161 2.12596 0.991964 0
M  V30 9602 C 896.177 1.07399 1.36899 0
M  V30 9603 O 897.353 1.39365 1.45394 0
M  V30 9604 C 894.418 2.62796 2.2614 0
M  V30 9605 C 893.479 3.8264 1.94642 0
M  V30 9606 C 892.712 4.30435 3.15533 0
M  V30 9607 O 892.935 3.77495 4.27614 0
M  V30 9608 O 891.869 5.22469 2.98847 0
M  V30 9609 H 895.695 2.98597 0.554371 0
M  V30 9610 H 893.28 1.47947 0.207839 0
M  V30 9611 H 895.162 2.9523 3.00695 0
M  V30 9612 H 893.837 1.79886 2.69114 0
M  V30 9613 H 892.744 3.5516 1.17526 0
M  V30 9614 H 894.077 4.66658 1.56496 0
M  V30 9615 N 895.729 -0.261212 1.5542 0
M  V30 9616 C 896.676 -1.32315 1.89107 0
M  V30 9617 C 897.646 -1.48517 0.743767 0
M  V30 9618 O 898.831 -1.62733 0.996123 0
M  V30 9619 C 895.971 -2.67626 2.17877 0
M  V30 9620 C 895.084 -2.59549 3.45338 0
M  V30 9621 C 894.219 -3.87118 3.63748 0
M  V30 9622 C 893.258 -3.736 4.8486 0
M  V30 9623 N 892.395 -4.93029 4.99867 0
M  V30 9624 H 897.235 -1.02886 2.79675 0
M  V30 9625 H 894.772 -0.496812 1.38456 0
M  V30 9626 H 896.73 -3.4637 2.32559 0
M  V30 9627 H 895.36 -2.95232 1.30529 0
M  V30 9628 H 894.412 -1.72452 3.39064 0
M  V30 9629 H 895.724 -2.45465 4.34222 0
M  V30 9630 H 894.878 -4.74305 3.78312 0
M  V30 9631 H 893.617 -4.04084 2.73071 0
M  V30 9632 H 892.622 -2.84797 4.70288 0
M  V30 9633 H 893.847 -3.58143 5.76984 0
M  V30 9634 H 891.793 -5.10383 4.12123 0
M  V30 9635 H 891.71 -4.81521 5.82815 0
M  V30 9636 H 892.978 -5.81754 5.18828 0
M  V30 9637 N 897.207 -1.48554 -0.526253 0
M  V30 9638 C 898.137 -1.66252 -1.63959 0
M  V30 9639 C 899.118 -0.511351 -1.62232 0
M  V30 9640 O 900.303 -0.744322 -1.7937 0
M  V30 9641 C 897.433 -1.70556 -3.02536 0
M  V30 9642 C 896.387 -2.8521 -3.19123 0
M  V30 9643 C 895.713 -2.74606 -4.58798 0
M  V30 9644 C 897.013 -4.26463 -3.0154 0
M  V30 9645 H 898.707 -2.59459 -1.49404 0
M  V30 9646 H 896.253 -1.24862 -0.717326 0
M  V30 9647 H 898.206 -1.81524 -3.80298 0
M  V30 9648 H 896.93 -0.739297 -3.18123 0
M  V30 9649 H 895.589 -2.73802 -2.43779 0
M  V30 9650 H 895.237 -1.75941 -4.71226 0
M  V30 9651 H 894.937 -3.51544 -4.70841 0
M  V30 9652 H 896.461 -2.87548 -5.38655 0
M  V30 9653 H 897.875 -4.38685 -3.69091 0
M  V30 9654 H 896.272 -5.04428 -3.25073 0
M  V30 9655 H 897.342 -4.42667 -1.97925 0
M  V30 9656 N 898.685 0.775411 -1.37205 0
M  V30 9657 C 899.595 1.91967 -1.34855 0
M  V30 9658 C 900.611 1.72214 -0.248656 0
M  V30 9659 O 901.787 1.95512 -0.483421 0
M  V30 9660 C 898.852 3.27038 -1.15096 0
M  V30 9661 C 897.913 3.5947 -2.34691 0
M  V30 9662 C 897.146 4.88097 -2.15865 0
M  V30 9663 O 897.369 5.58871 -1.14102 0
M  V30 9664 O 896.303 5.19507 -3.03967 0
M  V30 9665 H 900.129 1.969 -2.31223 0
M  V30 9666 H 897.714 0.917647 -1.17897 0
M  V30 9667 H 899.596 4.07837 -1.0605 0
M  V30 9668 H 898.271 3.22965 -0.217999 0
M  V30 9669 H 897.178 2.7892 -2.49308 0
M  V30 9670 H 898.511 3.68282 -3.26541 0
M  V30 9671 N 900.163 1.21714 1.00117 0
M  V30 9672 C 901.579 0.97532 1.26332 0
M  V30 9673 C 901.779 -0.336029 1.98678 0
M  V30 9674 O 900.835 -1.06073 2.29139 0
M  V30 9675 C 902.148 2.16848 2.0832 0
M  V30 9676 C 903.696 2.21115 2.21533 0
M  V30 9677 C 904.171 3.3996 3.06906 0
M  V30 9678 N 905.662 3.40071 3.14494 0
M  V30 9679 C 906.397 4.28678 3.80818 0
M  V30 9680 N 905.893 5.2749 4.49139 0
M  V30 9681 N 907.686 4.16476 3.77497 0
M  V30 9682 H 899.837 2.06039 0.515897 0
M  V30 9683 H 902.1 0.902423 0.290408 0
M  V30 9684 H 901.806 3.119 1.62515 0
M  V30 9685 H 901.68 2.16226 3.09073 0
M  V30 9686 H 904.067 1.26616 2.66557 0
M  V30 9687 H 904.148 2.2578 1.20238 0
M  V30 9688 H 903.792 4.34755 2.62585 0
M  V30 9689 H 903.722 3.32534 4.08324 0
M  V30 9690 H 906.213 2.68563 2.65861 0
M  V30 9691 H 906.526 5.91397 4.97463 0
M  V30 9692 H 904.871 5.31412 4.47914 0
M  V30 9693 H 908.062 3.38539 3.23278 0
M  V30 9694 H 908.235 4.85739 4.28908 0
M  V30 9695 N 901.641 -1.19671 1.02551 0
M  V30 9696 C 902.588 -2.22773 0.603394 0
M  V30 9697 C 903.558 -1.61669 -0.381081 0
M  V30 9698 O 904.743 -1.88756 -0.278505 0
M  V30 9699 C 901.883 -3.45073 -0.0431034 0
M  V30 9700 C 900.996 -4.20574 0.987006 0
M  V30 9701 C 900.131 -5.30291 0.310626 0
M  V30 9702 C 899.17 -5.97545 1.32688 0
M  V30 9703 N 898.307 -6.98833 0.676542 0
M  V30 9704 H 903.147 -2.58238 1.48719 0
M  V30 9705 H 900.684 -1.26881 0.744286 0
M  V30 9706 H 902.642 -4.14925 -0.435141 0
M  V30 9707 H 901.272 -3.10274 -0.890495 0
M  V30 9708 H 900.324 -3.497 1.49713 0
M  V30 9709 H 901.636 -4.66736 1.75952 0
M  V30 9710 H 900.79 -6.06547 -0.136438 0
M  V30 9711 H 899.529 -4.8519 -0.49412 0
M  V30 9712 H 898.534 -5.20043 1.78424 0
M  V30 9713 H 899.759 -6.4473 2.13306 0
M  V30 9714 H 897.705 -6.55911 -0.108172 0
M  V30 9715 H 897.622 -7.43168 1.38699 0
M  V30 9716 H 898.89 -7.79088 0.253367 0
M  V30 9717 N 903.119 -0.802921 -1.35613 0
M  V30 9718 C 904.029 -0.212177 -2.33639 0
M  V30 9719 C 905.045 0.642871 -1.61689 0
M  V30 9720 O 906.221 0.555485 -1.93588 0
M  V30 9721 C 903.286 0.632406 -3.40883 0
M  V30 9722 C 902.347 -0.242708 -4.28613 0
M  V30 9723 C 901.58 0.56166 -5.30736 0
M  V30 9724 O 901.803 1.79664 -5.41366 0
M  V30 9725 O 900.737 -0.0455387 -6.01883 0
M  V30 9726 H 904.563 -1.023 -2.85952 0
M  V30 9727 H 902.148 -0.564636 -1.38319 0
M  V30 9728 H 904.03 1.11358 -4.0642 0
M  V30 9729 H 902.705 1.42089 -2.90848 0
M  V30 9730 H 901.612 -0.77094 -3.6607 0
M  V30 9731 H 902.945 -0.995046 -4.82037 0
M  V30 9732 N 904.597 1.47463 -0.556102 0
M  V30 9733 C 905.846 2.01678 -0.029492 0
M  V30 9734 C 906.159 1.436 1.32809 0
M  V30 9735 O 907.365 1.89472 1.94455 0
M  V30 9736 C 905.821 3.599 -0.00223937 0
M  V30 9737 C 905.429 4.26969 -1.35651 0
M  V30 9738 C 907.173 4.2187 0.471822 0
M  V30 9739 C 905.08 5.77194 -1.28843 0
M  V30 9740 H 904.01 0.753965 -0.00725504 0
M  V30 9741 H 906.661 1.69467 -0.703789 0
M  V30 9742 H 905.043 3.89068 0.737682 0
M  V30 9743 H 906.217 4.09444 -2.11406 0
M  V30 9744 H 904.532 3.76983 -1.76842 0
M  V30 9745 H 907.129 5.31955 0.541139 0
M  V30 9746 H 907.472 3.88968 1.48356 0
M  V30 9747 H 908.005 3.97228 -0.213207 0
M  V30 9748 H 904.744 6.14713 -2.27613 0
M  V30 9749 H 904.264 5.9706 -0.572668 0
M  V30 9750 H 905.943 6.3938 -0.990031 0
M  V30 9751 N 906.075 0.2925 1.54862 0
M  V30 9752 C 907.007 -0.620889 2.2063 0
M  V30 9753 C 908.02 -1.10412 1.19637 0
M  V30 9754 O 909.209 -1.02304 1.46274 0
M  V30 9755 C 906.309 -1.861 2.83232 0
M  V30 9756 C 905.482 -1.52168 4.10078 0
M  V30 9757 C 904.541 -2.61605 4.56562 0
M  V30 9758 O 903.567 -2.27056 5.21952 0
M  V30 9759 N 904.769 -3.9199 4.28163 0
M  V30 9760 H 907.534 -0.0579028 2.99644 0
M  V30 9761 H 905.095 0.114333 1.61496 0
M  V30 9762 H 907.087 -2.58642 3.11266 0
M  V30 9763 H 905.657 -2.33259 2.08108 0
M  V30 9764 H 904.877 -0.629283 3.89145 0
M  V30 9765 H 906.165 -1.27023 4.92689 0
M  V30 9766 H 905.563 -4.22872 3.7576 0
M  V30 9767 H 904.12 -4.60857 4.60928 0
M  V30 9768 N 907.553 -1.57587 0.0200696 0
M  V30 9769 C 908.964 -1.79312 -0.520019 0
M  V30 9770 C 909.315 -0.929475 -1.72787 0
M  V30 9771 O 908.44 -0.137389 -2.15963 0
M  V30 9772 C 909.035 -3.25203 -0.950172 0
M  V30 9773 C 907.594 -3.47954 -1.43543 0
M  V30 9774 C 906.741 -2.74459 -0.395917 0
M  V30 9775 H 909.692 -1.56779 0.246153 0
M  V30 9776 H 909.713 -3.34418 -1.81508 0
M  V30 9777 H 909.225 -3.88035 -0.070883 0
M  V30 9778 H 907.326 -2.90363 -2.33495 0
M  V30 9779 H 907.439 -4.56661 -1.44905 0
M  V30 9780 H 905.803 -2.39669 -0.862022 0
M  V30 9781 H 906.586 -3.40001 0.47475 0
M  V30 9782 N 909.032 0.252966 -1.55557 0
M  V30 9783 C 910.443 0.822503 -1.67606 0
M  V30 9784 C 910.794 1.86265 -0.616411 0
M  V30 9785 O 909.919 2.15082 0.238447 0
M  V30 9786 C 910.514 1.49866 -3.03852 0
M  V30 9787 C 909.073 2.01597 -3.17861 0
M  V30 9788 C 908.22 0.864943 -2.63465 0
M  V30 9789 H 911.171 0.0288958 -1.58674 0
M  V30 9790 H 911.192 2.36646 -2.97958 0
M  V30 9791 H 910.704 0.741378 -3.80953 0
M  V30 9792 H 908.805 2.80224 -2.45571 0
M  V30 9793 H 908.918 2.21752 -4.24692 0
M  V30 9794 H 907.282 1.2638 -2.21134 0
M  V30 9795 H 908.065 0.120847 -3.43087 0
M  V30 9796 N 910.51 1.48831 0.518367 0
M  V30 9797 C 911.74 1.60886 1.29612 0
M  V30 9798 C 912.148 0.272713 1.87224 0
M  V30 9799 O 911.491 -0.749653 1.67708 0
M  V30 9800 C 911.553 2.60541 2.47707 0
M  V30 9801 C 911.217 4.05324 2.11095 0
M  V30 9802 C 912.214 4.92658 1.66084 0
M  V30 9803 C 909.899 4.50942 2.21262 0
M  V30 9804 C 911.893 6.23641 1.3172 0
M  V30 9805 C 909.58 5.81943 1.8651 0
M  V30 9806 C 910.578 6.68116 1.41812 0
M  V30 9807 O 910.266 7.96677 1.07522 0
M  V30 9808 H 909.998 0.544968 0.399982 0
M  V30 9809 H 912.552 1.95474 0.630799 0
M  V30 9810 H 910.782 2.21098 3.17258 0
M  V30 9811 H 912.471 2.62308 3.09757 0
M  V30 9812 H 913.237 4.58649 1.5769 0
M  V30 9813 H 909.116 3.84048 2.55007 0
M  V30 9814 H 912.66 6.90857 0.967598 0
M  V30 9815 H 908.557 6.15484 1.94549 0
M  V30 9816 H 909.325 8.09534 1.2082 0
M  V30 9817 N 911.988 -0.768124 1.37614 0
M  V30 9818 C 912.935 -1.88151 1.33671 0
M  V30 9819 C 913.905 -1.64871 0.201645 0
M  V30 9820 O 915.09 -1.86739 0.391582 0
M  V30 9821 C 912.23 -3.25264 1.15314 0
M  V30 9822 C 911.343 -3.60473 2.38082 0
M  V30 9823 C 910.478 -4.86814 2.12569 0
M  V30 9824 C 909.517 -5.14765 3.31184 0
M  V30 9825 N 908.654 -6.32295 3.052 0
M  V30 9826 H 913.494 -1.90857 2.28862 0
M  V30 9827 H 911.031 -0.933048 1.13722 0
M  V30 9828 H 912.989 -4.04364 1.02691 0
M  V30 9829 H 911.619 -3.21924 0.237689 0
M  V30 9830 H 910.671 -2.7633 2.61431 0
M  V30 9831 H 911.983 -3.77065 3.26532 0
M  V30 9832 H 911.137 -5.73826 1.96999 0
M  V30 9833 H 909.876 -4.72333 1.21462 0
M  V30 9834 H 908.881 -4.26227 3.4729 0
M  V30 9835 H 910.106 -5.31153 4.23147 0
M  V30 9836 H 908.052 -6.19166 2.16726 0
M  V30 9837 H 907.969 -6.4932 3.87195 0
M  V30 9838 H 909.237 -7.22234 2.93254 0
M  V30 9839 N 913.466 -1.22244 -0.994698 0
M  V30 9840 C 914.877 -1.043 -1.5485 0
M  V30 9841 C 915.228 0.394102 -1.92201 0
M  V30 9842 O 914.353 1.27883 -1.74571 0
M  V30 9843 C 914.948 -1.88708 -2.8138 0
M  V30 9844 C 913.507 -1.75067 -3.3321 0
M  V30 9845 C 912.654 -1.85286 -2.06312 0
M  V30 9846 H 915.605 -1.36115 -0.815988 0
M  V30 9847 H 915.626 -1.40342 -3.53673 0
M  V30 9848 H 915.138 -2.93296 -2.54164 0
M  V30 9849 H 913.239 -0.732047 -3.65338 0
M  V30 9850 H 913.352 -2.57632 -4.03934 0
M  V30 9851 H 911.716 -1.28706 -2.19788 0
M  V30 9852 H 912.499 -2.91401 -1.81494 0
M  V30 9853 N 914.944 1.19125 -1.03184 0
M  V30 9854 C 915.891 2.2245 -0.6152 0
M  V30 9855 C 916.861 1.61869 0.372502 0
M  V30 9856 O 918.046 1.88901 0.268491 0
M  V30 9857 C 915.186 3.45091 0.0248027 0
M  V30 9858 C 914.299 4.20044 -1.0093 0
M  V30 9859 C 913.434 5.30119 -0.338744 0
M  V30 9860 C 912.473 5.96833 -1.35855 0
M  V30 9861 N 911.61 6.98464 -0.713594 0
M  V30 9862 H 916.45 2.57445 -1.50086 0
M  V30 9863 H 913.987 1.26485 -0.751005 0
M  V30 9864 H 915.945 4.15149 0.413131 0
M  V30 9865 H 914.575 3.10742 0.874028 0
M  V30 9866 H 913.627 3.48901 -1.51566 0
M  V30 9867 H 914.939 4.65796 -1.78425 0
M  V30 9868 H 914.093 6.0661 0.104269 0
M  V30 9869 H 912.832 4.85446 0.468382 0
M  V30 9870 H 911.837 5.1909 -1.81179 0
M  V30 9871 H 913.062 6.4359 -2.16722 0
M  V30 9872 H 911.008 6.55959 0.0733863 0
M  V30 9873 H 910.925 7.42422 -1.42638 0
M  V30 9874 H 912.193 7.78943 -0.294681 0
M  V30 9875 N 916.422 0.810101 1.35185 0
M  V30 9876 C 917.385 0.22852 2.28058 0
M  V30 9877 C 918.385 -0.586168 1.49735 0
M  V30 9878 O 919.575 -0.40414 1.69447 0
M  V30 9879 C 916.707 -0.681041 3.34028 0
M  V30 9880 H 917.9 1.04768 2.81005 0
M  V30 9881 H 915.453 0.58101 1.451 0
M  V30 9882 H 916.188 -1.52375 2.86273 0
M  V30 9883 H 915.973 -0.0985276 3.91976 0
M  V30 9884 H 917.463 -1.08217 4.03335 0
M  V30 9885 N 917.9 -1.47166 0.563914 0
M  V30 9886 C 919.316 -1.58018 0.224173 0
M  V30 9887 C 919.516 -1.56163 -1.27339 0
M  V30 9888 O 918.572 -1.4686 -2.05398 0
M  V30 9889 C 919.885 -2.88236 0.856762 0
M  V30 9890 C 921.433 -3.01833 0.82861 0
M  V30 9891 C 921.908 -4.34761 1.44039 0
M  V30 9892 N 923.399 -4.41413 1.40388 0
M  V30 9893 C 924.134 -5.42845 1.84681 0
M  V30 9894 N 923.63 -6.51052 2.3686 0
M  V30 9895 N 925.423 -5.33931 1.75711 0
M  V30 9896 H 917.574 -1.46615 1.53681 0
M  V30 9897 H 919.837 -0.698195 0.64127 0
M  V30 9898 H 919.543 -2.95349 1.90949 0
M  V30 9899 H 919.417 -3.75537 0.353766 0
M  V30 9900 H 921.804 -2.94312 -0.215451 0
M  V30 9901 H 921.885 -2.16056 1.36943 0
M  V30 9902 H 921.529 -4.43037 2.48355 0
M  V30 9903 H 921.459 -5.1928 0.874953 0
M  V30 9904 H 923.95 -3.63811 1.02227 0
M  V30 9905 H 924.263 -7.24633 2.68564 0
M  V30 9906 H 922.608 -6.51924 2.40875 0
M  V30 9907 H 925.799 -4.48295 1.34718 0
M  V30 9908 H 925.972 -6.12841 2.10547 0
M  V30 9909 N 919.378 -0.300708 -1.54705 0
M  V30 9910 C 920.655 0.361757 -1.92226 0
M  V30 9911 C 921.035 1.71714 -1.2279 0
M  V30 9912 O 920.383 2.2559 -0.363542 0
M  V30 9913 C 920.593 0.476699 -3.45729 0
M  V30 9914 C 921.941 0.7477 -4.17965 0
M  V30 9915 O 922.965 0.560521 -3.51762 0
M  V30 9916 O 921.824 1.10724 -5.35166 0
M  V30 9917 H 918.918 0.202213 -0.801897 0
M  V30 9918 H 921.464 -0.348746 -1.66078 0
M  V30 9919 H 920.236 -0.476132 -3.88392 0
M  V30 9920 H 919.859 1.23568 -3.77911 0
M  V30 9921 N 920.856 1.57574 -0.0284266 0
M  V30 9922 C 921.803 2.10176 0.953658 0
M  V30 9923 C 922.773 1.00367 1.32347 0
M  V30 9924 O 923.958 1.27783 1.4169 0
M  V30 9925 C 921.098 2.63287 2.231 0
M  V30 9926 C 920.211 3.87102 1.91771 0
M  V30 9927 C 919.346 4.28609 3.13795 0
M  V30 9928 C 918.385 5.45184 2.78282 0
M  V30 9929 N 917.522 5.81851 3.92929 0
M  V30 9930 H 922.362 2.93806 0.498176 0
M  V30 9931 H 919.899 1.45222 0.234302 0
M  V30 9932 H 921.857 2.9217 2.97813 0
M  V30 9933 H 920.487 1.82489 2.66266 0
M  V30 9934 H 919.539 3.64952 1.07303 0
M  V30 9935 H 920.851 4.71892 1.61615 0
M  V30 9936 H 920.005 4.58925 3.96829 0
M  V30 9937 H 918.744 3.42585 3.47112 0
M  V30 9938 H 917.749 5.14563 1.93661 0
M  V30 9939 H 918.974 6.32907 2.46182 0
M  V30 9940 H 916.92 4.98782 4.2609 0
M  V30 9941 H 916.837 6.6128 3.66395 0
M  V30 9942 H 918.105 6.16772 4.76669 0
M  V30 9943 N 922.334 -0.244713 1.55689 0
M  V30 9944 C 923.75 -0.593331 1.48161 0
M  V30 9945 C 923.95 -1.88234 0.719047 0
M  V30 9946 O 923.006 -2.51266 0.249292 0
M  V30 9947 C 924.319 -0.694032 2.92581 0
M  V30 9948 C 925.867 -0.786213 3.02965 0
M  V30 9949 C 926.342 -0.918457 4.48696 0
M  V30 9950 N 927.833 -0.983272 4.52643 0
M  V30 9951 C 928.568 -1.1049 5.62654 0
M  V30 9952 N 928.064 -1.19193 6.8247 0
M  V30 9953 N 929.857 -1.13823 5.50455 0
M  V30 9954 H 922.008 0.601446 2.03707 0
M  V30 9955 H 924.271 0.207894 0.924924 0
M  V30 9956 H 923.977 0.183133 3.51223 0
M  V30 9957 H 923.851 -1.56525 3.4319 0
M  V30 9958 H 926.238 -1.65383 2.44402 0
M  V30 9959 H 926.319 0.110202 2.55563 0
M  V30 9960 H 925.963 -0.0553881 5.0787 0
M  V30 9961 H 925.893 -1.82994 4.93782 0
M  V30 9962 H 928.384 -0.927269 3.66347 0
M  V30 9963 H 928.697 -1.28387 7.62061 0
M  V30 9964 H 927.042 -1.16147 6.85226 0
M  V30 9965 H 930.233 -1.06673 4.55783 0
M  V30 9966 H 930.406 -1.22957 6.36228 0
M  V30 9967 N 923.813 -1.49104 -0.510467 0
M  V30 9968 C 925.09 -1.48609 -1.27179 0
M  V30 9969 C 925.47 -0.208537 -2.10067 0
M  V30 9970 O 924.818 0.809335 -2.13687 0
M  V30 9971 C 925.028 -2.75953 -2.1366 0
M  V30 9972 C 926.376 -3.25067 -2.73161 0
M  V30 9973 O 927.4 -2.77005 -2.23934 0
M  V30 9974 O 926.259 -4.08747 -3.62751 0
M  V30 9975 H 923.353 -0.594374 -0.57502 0
M  V30 9976 H 925.899 -1.61358 -0.525515 0
M  V30 9977 H 924.671 -3.60434 -1.52325 0
M  V30 9978 H 924.294 -2.66019 -2.95499 0
M  V30 9979 N 925.291 0.760815 -1.38019 0
M  V30 9980 C 926.519 1.55001 -1.37048 0
M  V30 9981 C 926.934 1.88754 0.0415261 0
M  V30 9982 O 926.291 1.52254 1.00624 0
M  V30 9983 C 926.342 2.8536 -2.21928 0
M  V30 9984 O 926.063 2.53049 -3.57628 0
M  V30 9985 C 927.564 3.79536 -2.29057 0
M  V30 9986 H 924.784 0.479844 -0.469032 0
M  V30 9987 H 927.328 0.942148 -1.81504 0
M  V30 9988 H 925.483 3.42542 -1.80953 0
M  V30 9989 H 925.897 3.36604 -4.02241 0
M  V30 9990 H 927.371 4.67977 -2.92749 0
M  V30 9991 H 927.848 4.19453 -1.30213 0
M  V30 9992 H 928.454 3.28281 -2.70392 0
M  V30 9993 N 926.769 1.22769 0.988202 0
M  V30 9994 C 927.994 1.08239 1.76915 0
M  V30 9995 C 928.419 -0.362519 1.84574 0
M  V30 9996 O 927.777 -1.26202 1.30165 0
M  V30 9997 C 927.825 1.70363 3.17819 0
M  V30 9998 O 926.929 0.960484 4.01059 0
M  V30 9999 H 926.27 0.379872 0.544604 0
M  V30 10000 H 928.8 1.62663 1.24104 0
M  V30 10001 H 928.81 1.7528 3.6843 0
M  V30 10002 H 927.485 2.75505 3.1156 0
M  V30 10003 H 926.062 0.987667 3.59582 0
M  V30 10004 N 928.247 -1.18576 1.03814 0
M  V30 10005 C 929.195 -2.24166 0.620678 0
M  V30 10006 C 930.189 -1.65718 -0.351282 0
M  V30 10007 O 931.395 -1.78665 -0.218848 0
M  V30 10008 H 927.77 -0.729522 0.182487 0
M  V30 10009 H 929.741 -2.56686 1.52166 0
M  V30 10010 C 928.49 -3.477 -0.00307331 0
M  V30 10011 H 927.813 -3.92969 0.735874 0
M  V30 10012 H 929.253 -4.23214 -0.257988 0
M  V30 10013 C 927.712 -3.12757 -1.2524 0
M  V30 10014 O 928.242 -3.26261 -2.34344 0
M  V30 10015 N 926.448 -2.67104 -1.14471 0
M  V30 10016 H 925.995 -2.56316 -0.256873 0
M  V30 10017 H 925.953 -2.44096 -1.98153 0
M  V30 10018 N 929.725 -0.817259 -1.34754 0
M  V30 10019 C 930.972 -0.402648 -1.98457 0
M  V30 10020 C 931.3 1.03287 -1.64809 0
M  V30 10021 O 930.555 1.73316 -0.908851 0
M  V30 10022 C 930.854 -0.5453 -3.53216 0
M  V30 10023 C 930.52 -1.9457 -4.06759 0
M  V30 10024 C 929.182 -2.32881 -4.21094 0
M  V30 10025 C 931.534 -2.86141 -4.35629 0
M  V30 10026 C 928.862 -3.62108 -4.61622 0
M  V30 10027 C 931.214 -4.14826 -4.776 0
M  V30 10028 C 929.878 -4.53121 -4.9014 0
M  V30 10029 H 929.148 -0.147339 -0.726204 0
M  V30 10030 H 931.795 -1.04011 -1.60791 0
M  V30 10031 H 930.1 0.175576 -3.91406 0
M  V30 10032 H 931.797 -0.205112 -4.00475 0
M  V30 10033 H 928.387 -1.6381 -3.96061 0
M  V30 10034 H 932.571 -2.57788 -4.24098 0
M  V30 10035 H 927.827 -3.91613 -4.69521 0
M  V30 10036 H 932.001 -4.85874 -4.98899 0
M  V30 10037 H 929.628 -5.53307 -5.21302 0
M  V30 10038 N 931.203 1.46865 -0.571711 0
M  V30 10039 C 932.48 1.95596 0.0132445 0
M  V30 10040 C 932.86 1.51438 1.47071 0
M  V30 10041 O 932.208 0.759917 2.15494 0
M  V30 10042 C 932.418 3.48689 -0.147335 0
M  V30 10043 C 933.766 4.24599 -0.00946329 0
M  V30 10044 O 934.79 3.5612 -0.0756112 0
M  V30 10045 O 933.649 5.46332 0.135361 0
M  V30 10046 H 930.743 0.825102 0.0560039 0
M  V30 10047 H 933.289 1.57199 -0.639256 0
M  V30 10048 H 932.061 3.73681 -1.16096 0
M  V30 10049 H 931.684 3.93887 0.542109 0
M  V30 10050 N 932.681 0.308908 1.54543 0
M  V30 10051 C 933.628 -0.563659 2.23811 0
M  V30 10052 C 934.598 -1.12332 1.22355 0
M  V30 10053 O 935.783 -1.16638 1.50997 0
M  V30 10054 C 932.923 -1.72585 2.98845 0
M  V30 10055 C 932.036 -1.19682 4.1509 0
M  V30 10056 C 931.171 -2.32351 4.77688 0
M  V30 10057 C 930.21 -1.76623 5.86064 0
M  V30 10058 N 929.347 -2.82896 6.42584 0
M  V30 10059 H 934.187 0.0336288 2.97981 0
M  V30 10060 H 931.724 0.0283666 1.47073 0
M  V30 10061 H 933.682 -2.40951 3.40586 0
M  V30 10062 H 932.312 -2.29464 2.27037 0
M  V30 10063 H 931.364 -0.405173 3.78236 0
M  V30 10064 H 932.676 -0.748923 4.93146 0
M  V30 10065 H 931.83 -3.0865 5.22322 0
M  V30 10066 H 930.569 -2.80472 3.98982 0
M  V30 10067 H 929.574 -0.988171 5.40847 0
M  V30 10068 H 930.799 -1.29398 6.66658 0
M  V30 10069 H 928.745 -3.30336 5.66758 0
M  V30 10070 H 928.662 -2.42626 7.16009 0
M  V30 10071 H 929.93 -3.59068 6.91875 0
M  V30 10072 N 934.159 -1.57557 0.0367827 0
M  V30 10073 C 935.069 -2.14148 -0.958017 0
M  V30 10074 C 936.085 -1.09564 -1.35173 0
M  V30 10075 O 937.261 -1.4166 -1.43158 0
M  V30 10076 C 934.326 -2.6636 -2.21931 0
M  V30 10077 C 933.387 -3.85688 -1.8853 0
M  V30 10078 C 932.62 -4.35401 -3.08645 0
M  V30 10079 O 932.843 -3.8425 -4.21554 0
M  V30 10080 O 931.777 -5.27158 -2.90497 0
M  V30 10081 H 935.603 -2.99442 -0.506797 0
M  V30 10082 H 933.188 -1.48259 -0.184275 0
M  V30 10083 H 935.07 -2.99976 -2.9596 0
M  V30 10084 H 933.745 -1.84145 -2.66219 0
M  V30 10085 H 932.652 -3.56985 -1.11861 0
M  V30 10086 H 933.985 -4.69089 -1.49052 0
M  V30 10087 N 935.637 0.236453 -1.55816 0
M  V30 10088 C 936.884 0.963012 -1.78136 0
M  V30 10089 C 937.212 1.84918 -0.602952 0
M  V30 10090 O 936.467 1.91285 0.413325 0
M  V30 10091 C 936.766 1.84549 -3.06066 0
M  V30 10092 C 936.432 1.11381 -4.36927 0
M  V30 10093 C 935.094 0.911635 -4.72486 0
M  V30 10094 C 937.446 0.596 -5.17781 0
M  V30 10095 C 934.774 0.179515 -5.86425 0
M  V30 10096 C 937.126 -0.122702 -6.32481 0
M  V30 10097 C 935.79 -0.336263 -6.66652 0
M  V30 10098 H 935.06 0.352391 -0.651845 0
M  V30 10099 H 937.707 0.232295 -1.90086 0
M  V30 10100 H 936.012 2.6436 -2.89173 0
M  V30 10101 H 937.709 2.40953 -3.20535 0
M  V30 10102 H 934.299 1.28134 -4.08998 0
M  V30 10103 H 938.483 0.73971 -4.90757 0
M  V30 10104 H 933.739 0.00368224 -6.114 0
M  V30 10105 H 937.913 -0.531516 -6.94369 0
M  V30 10106 H 935.54 -0.905507 -7.54788 0
M  V30 10107 N 937.115 1.49373 0.502552 0
M  V30 10108 C 938.343 1.62488 1.28084 0
M  V30 10109 C 938.758 0.295667 1.86471 0
M  V30 10110 O 938.115 -0.718664 1.67754 0
M  V30 10111 C 938.166 2.69249 2.4122 0
M  V30 10112 O 937.887 3.97014 1.85234 0
M  V30 10113 C 939.388 2.93054 3.32617 0
M  V30 10114 H 936.608 0.547068 0.388533 0
M  V30 10115 H 939.152 1.95394 0.603452 0
M  V30 10116 H 937.307 2.39125 3.04792 0
M  V30 10117 H 937.721 4.55809 2.59496 0
M  V30 10118 H 939.195 3.71493 4.08285 0
M  V30 10119 H 939.672 2.02911 3.89517 0
M  V30 10120 H 940.278 3.24589 2.74813 0
M  V30 10121 N 938.594 -0.753485 1.38421 0
M  V30 10122 C 940.01 -1.05656 1.1962 0
M  V30 10123 C 940.21 -2.0145 0.0449443 0
M  V30 10124 O 939.266 -2.45039 -0.609253 0
M  V30 10125 C 940.579 -1.63655 2.52265 0
M  V30 10126 C 942.127 -1.75825 2.58949 0
M  V30 10127 C 942.602 -2.37236 3.91769 0
M  V30 10128 N 944.093 -2.44666 3.9331 0
M  V30 10129 C 944.828 -2.93077 4.92842 0
M  V30 10130 N 944.324 -3.41523 6.02772 0
M  V30 10131 N 946.117 -2.92118 4.80232 0
M  V30 10132 H 938.268 -0.117799 2.12073 0
M  V30 10133 H 940.531 -0.114889 0.941012 0
M  V30 10134 H 940.237 -1.00734 3.36965 0
M  V30 10135 H 940.111 -2.62715 2.70667 0
M  V30 10136 H 942.498 -2.37873 1.74644 0
M  V30 10137 H 942.579 -0.754693 2.44414 0
M  V30 10138 H 942.223 -1.75822 4.76497 0
M  V30 10139 H 942.153 -3.38233 4.03616 0
M  V30 10140 H 944.644 -2.10403 3.1391 0
M  V30 10141 H 944.957 -3.76919 6.74649 0
M  V30 10142 H 943.302 -3.3958 6.06391 0
M  V30 10143 H 946.493 -2.53582 3.93464 0
M  V30 10144 H 946.666 -3.29535 5.57952 0
M  V30 10145 N 940.072 -1.23292 -0.981677 0
M  V30 10146 C 941.004 -0.970782 -2.07626 0
M  V30 10147 C 942.017 0.0547506 -1.62708 0
M  V30 10148 O 943.206 -0.180623 -1.77584 0
M  V30 10149 C 940.306 -0.44055 -3.36024 0
M  V30 10150 C 939.479 -1.52595 -4.09919 0
M  V30 10151 C 938.538 -1.00082 -5.16595 0
M  V30 10152 O 937.564 -1.68951 -5.43548 0
M  V30 10153 N 938.766 0.172017 -5.80245 0
M  V30 10154 H 941.531 -1.91316 -2.30691 0
M  V30 10155 H 939.092 -1.14133 -1.14828 0
M  V30 10156 H 941.084 -0.0743111 -4.04632 0
M  V30 10157 H 939.654 0.407211 -3.09936 0
M  V30 10158 H 938.874 -2.06501 -3.35784 0
M  V30 10159 H 940.162 -2.2559 -4.56055 0
M  V30 10160 H 939.56 0.748129 -5.60731 0
M  V30 10161 H 938.117 0.479532 -6.50034 0
M  V30 10162 N 941.55 1.18024 -1.04442 0
M  V30 10163 C 942.961 1.69749 -0.777312 0
M  V30 10164 C 943.312 1.83234 0.701399 0
M  V30 10165 O 942.437 1.51452 1.54568 0
M  V30 10166 C 943.032 3.08321 -1.40441 0
M  V30 10167 C 941.591 3.57243 -1.18553 0
M  V30 10168 C 940.738 2.33695 -1.49271 0
M  V30 10169 H 943.689 1.02647 -1.21035 0
M  V30 10170 H 943.71 3.71787 -0.809628 0
M  V30 10171 H 943.222 2.98474 -2.48062 0
M  V30 10172 H 941.323 3.72379 -0.128221 0
M  V30 10173 H 941.436 4.40451 -1.88519 0
M  V30 10174 H 939.8 2.37792 -0.912526 0
M  V30 10175 H 940.583 2.26464 -2.5801 0
M  V30 10176 N 943.028 0.824394 1.34319 0
M  V30 10177 C 944.274 0.413779 1.98534 0
M  V30 10178 C 944.607 -1.02089 1.65201 0
M  V30 10179 O 943.882 -1.71129 0.924402 0
M  V30 10180 C 944.165 0.61801 3.54757 0
M  V30 10181 C 944.018 2.0989 3.97827 0
M  V30 10182 C 945.337 0.0549041 4.40066 0
M  V30 10183 H 942.456 0.151815 0.721194 0
M  V30 10184 H 945.098 1.03723 1.5919 0
M  V30 10185 H 943.248 0.0873107 3.88402 0
M  V30 10186 H 944.92 2.69335 3.74508 0
M  V30 10187 H 943.163 2.58881 3.48085 0
M  V30 10188 H 943.834 2.1926 5.06586 0
M  V30 10189 H 946.31 0.508348 4.12983 0
M  V30 10190 H 945.186 0.227595 5.48428 0
M  V30 10191 H 945.447 -1.04025 4.29687 0
M  V30 10192 N 944.506 -1.46559 0.579492 0
M  V30 10193 C 945.416 -2.34066 -0.15816 0
M  V30 10194 C 946.432 -1.49556 -0.88932 0
M  V30 10195 O 947.608 -1.82434 -0.853226 0
M  V30 10196 C 944.673 -3.26683 -1.161 0
M  V30 10197 C 943.734 -4.27092 -0.434855 0
M  V30 10198 C 942.967 -5.15283 -1.38992 0
M  V30 10199 O 943.19 -5.06345 -2.62623 0
M  V30 10200 O 942.124 -5.95099 -0.902253 0
M  V30 10201 H 945.95 -2.98488 0.560234 0
M  V30 10202 H 943.535 -1.45482 0.339918 0
M  V30 10203 H 945.417 -3.8383 -1.73932 0
M  V30 10204 H 944.092 -2.64862 -1.86091 0
M  V30 10205 H 942.999 -3.73641 0.185224 0
M  V30 10206 H 944.332 -4.9169 0.224031 0
M  V30 10207 N 945.984 -0.3171 -1.54377 0
M  V30 10208 C 946.914 0.544623 -2.2706 0
M  V30 10209 C 947.895 1.12469 -1.27611 0
M  V30 10210 O 949.08 1.15103 -1.56413 0
M  V30 10211 C 946.21 1.70879 -3.02353 0
M  V30 10212 C 945.164 1.25833 -4.09084 0
M  V30 10213 C 944.49 2.50894 -4.72182 0
M  V30 10214 C 945.79 0.377876 -5.20931 0
M  V30 10215 H 947.484 -0.0616372 -2.99337 0
M  V30 10216 H 945.03 -0.0310848 -1.43966 0
M  V30 10217 H 946.983 2.31787 -3.51927 0
M  V30 10218 H 945.707 2.34155 -2.27682 0
M  V30 10219 H 944.366 0.672228 -3.60384 0
M  V30 10220 H 944.014 3.12518 -3.94134 0
M  V30 10221 H 943.714 2.21447 -5.44275 0
M  V30 10222 H 945.238 3.12575 -5.24528 0
M  V30 10223 H 946.652 0.893056 -5.66302 0
M  V30 10224 H 945.049 0.176474 -5.9984 0
M  V30 10225 H 946.119 -0.592943 -4.81261 0
M  V30 10226 N 947.462 1.57535 -0.0451378 0
M  V30 10227 C 948.69 1.96761 0.639742 0
M  V30 10228 C 949.105 0.922405 1.64734 0
M  V30 10229 O 948.462 -0.0940535 1.82257 0
M  V30 10230 C 948.513 3.36066 1.33199 0
M  V30 10231 O 948.234 4.36579 0.364757 0
M  V30 10232 C 949.735 3.90015 2.1072 0
M  V30 10233 H 946.955 0.64769 0.175324 0
M  V30 10234 H 949.499 2.04206 -0.109651 0
M  V30 10235 H 947.654 3.2979 2.03266 0
M  V30 10236 H 948.068 5.17432 0.858168 0
M  V30 10237 H 949.542 4.89785 2.54586 0
M  V30 10238 H 950.019 3.25117 2.95288 0
M  V30 10239 H 950.625 3.99609 1.45577 0
M  V30 10240 N 948.94 -0.228186 1.55939 0
M  V30 10241 C 950.351 -0.795734 1.68893 0
M  V30 10242 C 950.702 -1.85261 0.645967 0
M  V30 10243 O 949.827 -2.15434 -0.2042 0
M  V30 10244 C 950.422 -1.45013 3.06197 0
M  V30 10245 C 948.981 -1.96514 3.21028 0
M  V30 10246 C 948.128 -0.822918 2.64808 0
M  V30 10247 H 951.079 -0.0036485 1.587 0
M  V30 10248 H 951.1 -2.31875 3.01685 0
M  V30 10249 H 950.612 -0.680678 3.82084 0
M  V30 10250 H 948.713 -2.76282 2.49998 0
M  V30 10251 H 948.826 -2.14967 4.28166 0
M  V30 10252 H 947.19 -1.22846 2.23116 0
M  V30 10253 H 947.973 -0.0662493 3.43236 0
M  V30 10254 N 950.418 -1.49637 -0.494624 0
M  V30 10255 C 951.646 -1.63164 -1.2722 0
M  V30 10256 C 952.061 -0.305552 -1.86311 0
M  V30 10257 O 951.418 0.709758 -1.68133 0
M  V30 10258 C 951.469 -2.70524 -2.39789 0
M  V30 10259 O 951.19 -3.97991 -1.83126 0
M  V30 10260 C 952.691 -2.94814 -3.31058 0
M  V30 10261 H 949.911 -0.54912 -0.385627 0
M  V30 10262 H 952.455 -1.95711 -0.593081 0
M  V30 10263 H 950.61 -2.40738 -3.03519 0
M  V30 10264 H 951.024 -4.57179 -2.57075 0
M  V30 10265 H 952.498 -3.73653 -4.06309 0
M  V30 10266 H 952.975 -2.04974 -3.88436 0
M  V30 10267 H 953.581 -3.26042 -2.73088 0
M  V30 10268 N 951.896 0.746133 -1.38819 0
M  V30 10269 C 953.173 1.49652 -1.25951 0
M  V30 10270 C 953.553 2.10663 0.135833 0
M  V30 10271 O 952.901 1.97682 1.14604 0
M  V30 10272 C 953.111 2.5569 -2.37537 0
M  V30 10273 C 954.459 3.22385 -2.76321 0
M  V30 10274 O 955.483 2.65998 -2.36904 0
M  V30 10275 O 954.342 4.2439 -3.44319 0
M  V30 10276 H 951.436 0.664019 -0.492958 0
M  V30 10277 H 953.982 0.780908 -1.50665 0
M  V30 10278 H 952.754 2.08908 -3.30867 0
M  V30 10279 H 952.377 3.34823 -2.14427 0
M  V30 10280 N 953.375 1.23811 0.975125 0
M  V30 10281 C 954.322 1.02394 2.06843 0
M  V30 10282 C 955.292 -0.060337 1.6599 0
M  V30 10283 O 956.477 0.0928187 1.90574 0
M  V30 10284 C 953.617 0.626882 3.39359 0
M  V30 10285 C 952.73 1.78385 3.9345 0
M  V30 10286 C 951.865 1.33307 5.14201 0
M  V30 10287 C 950.904 2.46045 5.60471 0
M  V30 10288 N 950.041 2.01888 6.72448 0
M  V30 10289 H 954.881 1.95973 2.24496 0
M  V30 10290 H 952.418 0.976206 1.10039 0
M  V30 10291 H 954.376 0.377742 4.15486 0
M  V30 10292 H 953.006 -0.271907 3.21653 0
M  V30 10293 H 952.058 2.14685 3.14029 0
M  V30 10294 H 953.37 2.63122 4.23755 0
M  V30 10295 H 952.524 1.04237 5.97678 0
M  V30 10296 H 951.263 0.456143 4.85562 0
M  V30 10297 H 950.268 2.75884 4.75571 0
M  V30 10298 H 951.493 3.34283 5.91127 0
M  V30 10299 H 949.439 1.16583 6.45558 0
M  V30 10300 H 949.356 2.80182 7.02164 0
M  V30 10301 H 950.624 1.75937 7.59386 0
M  V30 10302 N 954.853 -1.17469 1.05066 0
M  V30 10303 C 955.783 -2.23635 0.671552 0
M  V30 10304 C 956.764 -1.66867 -0.33006 0
M  V30 10305 O 957.949 -1.93084 -0.207933 0
M  V30 10306 C 955.079 -3.47272 0.0441845 0
M  V30 10307 C 954.033 -4.16854 0.97042 0
M  V30 10308 C 953.359 -5.34299 0.206998 0
M  V30 10309 C 954.659 -4.69225 2.29401 0
M  V30 10310 H 956.353 -2.55602 1.55911 0
M  V30 10311 H 953.899 -1.2286 0.751101 0
M  V30 10312 H 955.852 -4.20756 -0.23282 0
M  V30 10313 H 954.576 -3.14568 -0.878311 0
M  V30 10314 H 953.235 -3.4528 1.23197 0
M  V30 10315 H 952.883 -4.97846 -0.718222 0
M  V30 10316 H 952.583 -5.81792 0.82416 0
M  V30 10317 H 954.107 -6.10568 -0.0627525 0
M  V30 10318 H 955.521 -5.34353 2.077 0
M  V30 10319 H 953.918 -5.27291 2.86503 0
M  V30 10320 H 954.988 -3.86102 2.93348 0
M  V30 10321 N 956.331 -0.831506 -1.3388 0
M  V30 10322 C 957.578 -0.423674 -1.98018 0
M  V30 10323 C 957.906 1.01533 -1.65895 0
M  V30 10324 O 957.161 1.72342 -0.927183 0
M  V30 10325 C 957.46 -0.582733 -3.52617 0
M  V30 10326 C 957.126 -1.98874 -4.04673 0
M  V30 10327 C 955.788 -2.37334 -4.186 0
M  V30 10328 C 958.14 -2.90745 -4.3257 0
M  V30 10329 C 955.468 -3.66984 -4.57755 0
M  V30 10330 C 957.82 -4.19868 -4.73174 0
M  V30 10331 C 956.484 -4.58294 -4.85307 0
M  V30 10332 H 955.754 -0.155033 -0.7246 0
M  V30 10333 H 958.401 -1.05711 -1.59679 0
M  V30 10334 H 956.706 0.134052 -3.91571 0
M  V30 10335 H 958.403 -0.247576 -4.00235 0
M  V30 10336 H 954.993 -1.68001 -3.94301 0
M  V30 10337 H 959.177 -2.62272 -4.2134 0
M  V30 10338 H 954.433 -3.9657 -4.65341 0
M  V30 10339 H 958.607 -4.91138 -4.93717 0
M  V30 10340 H 956.234 -5.58805 -5.15404 0
M  V30 10341 N 957.809 1.4625 -0.587256 0
M  V30 10342 C 959.058 2.01571 -0.0722643 0
M  V30 10343 C 959.371 1.46385 1.29733 0
M  V30 10344 O 960.577 1.93554 1.90392 0
M  V30 10345 C 959.033 3.59814 -0.078579 0
M  V30 10346 C 958.641 4.23996 -1.44678 0
M  V30 10347 C 960.385 4.22776 0.382231 0
M  V30 10348 C 958.292 5.74332 -1.41057 0
M  V30 10349 H 957.222 0.753642 -0.0232461 0
M  V30 10350 H 959.873 1.67936 -0.739577 0
M  V30 10351 H 958.255 3.90546 0.654988 0
M  V30 10352 H 959.429 4.04867 -2.20043 0
M  V30 10353 H 957.744 3.73147 -1.84799 0
M  V30 10354 H 960.341 5.32983 0.428182 0
M  V30 10355 H 960.684 3.92027 1.40072 0
M  V30 10356 H 961.217 3.96687 -0.297417 0
M  V30 10357 H 957.956 6.09747 -2.40601 0
M  V30 10358 H 957.476 5.95711 -0.699185 0
M  V30 10359 H 959.155 6.37137 -1.12543 0
M  V30 10360 N 959.287 0.325282 1.54207 0
M  V30 10361 C 960.22 -0.582485 2.20641 0
M  V30 10362 C 961.198 -1.11441 1.18405 0
M  V30 10363 O 962.382 -1.17809 1.4715 0
M  V30 10364 C 959.509 -1.79944 2.86946 0
M  V30 10365 C 958.555 -1.39861 4.02916 0
M  V30 10366 S 959.388 -0.433859 5.3374 0
M  V30 10367 C 960.544 -1.65806 6.03539 0
M  V30 10368 H 960.777 -0.0181601 2.97294 0
M  V30 10369 H 958.31 0.109365 1.54012 0
M  V30 10370 H 960.268 -2.4977 3.25769 0
M  V30 10371 H 958.929 -2.33495 2.10092 0
M  V30 10372 H 958.122 -2.30547 4.48179 0
M  V30 10373 H 957.724 -0.780036 3.65775 0
M  V30 10374 H 960.016 -2.59524 6.25822 0
M  V30 10375 H 960.959 -1.24756 6.97023 0
M  V30 10376 H 961.367 -1.84581 5.3347 0
M  V30 10377 N 960.765 -1.57509 0.0534917 0
M  V30 10378 C 961.713 -2.12851 -0.937931 0
M  V30 10379 C 962.707 -1.06088 -1.32067 0
M  V30 10380 O 963.913 -1.24494 -1.30005 0
M  V30 10381 H 960.288 -0.680357 -0.320342 0
M  V30 10382 H 962.259 -2.95047 -0.446077 0
M  V30 10383 C 961.008 -2.69034 -2.20264 0
M  V30 10384 H 960.331 -3.50848 -1.91693 0
M  V30 10385 H 961.771 -3.11375 -2.87788 0
M  V30 10386 C 960.23 -1.62919 -2.94888 0
M  V30 10387 O 960.76 -1.04334 -3.87914 0
M  V30 10388 N 958.966 -1.34385 -2.57661 0
M  V30 10389 H 958.513 -1.82214 -1.82088 0
M  V30 10390 H 958.471 -0.636149 -3.07897 0
M  V30 10391 N 962.243 0.219913 -1.56058 0
M  V30 10392 C 963.173 1.27572 -1.9557 0
M  V30 10393 C 964.154 1.48801 -0.824148 0
M  V30 10394 O 965.339 1.60957 -1.08658 0
M  V30 10395 C 962.469 2.62517 -2.27381 0
M  V30 10396 C 961.423 2.55941 -3.43042 0
M  V30 10397 C 960.749 3.94931 -3.60463 0
M  V30 10398 C 962.049 2.10584 -4.77966 0
M  V30 10399 H 963.743 0.947482 -2.84013 0
M  V30 10400 H 961.289 0.454337 -1.36645 0
M  V30 10401 H 963.242 3.36538 -2.53615 0
M  V30 10402 H 961.966 2.97031 -1.35794 0
M  V30 10403 H 960.625 1.84377 -3.1686 0
M  V30 10404 H 960.273 4.26756 -2.66249 0
M  V30 10405 H 959.973 3.91413 -4.38258 0
M  V30 10406 H 961.497 4.70611 -3.89046 0
M  V30 10407 H 962.911 2.74349 -5.03394 0
M  V30 10408 H 961.308 2.18122 -5.59055 0
M  V30 10409 H 962.378 1.05818 -4.73213 0
M  V30 10410 N 963.721 1.49897 0.486681 0
M  V30 10411 C 964.998 1.50614 1.24799 0
M  V30 10412 C 965.378 0.24193 2.09709 0
M  V30 10413 O 964.726 -0.775237 2.14947 0
M  V30 10414 C 964.936 2.79318 2.09243 0
M  V30 10415 C 966.284 3.29371 2.67955 0
M  V30 10416 O 967.308 2.80533 2.19499 0
M  V30 10417 O 966.167 4.14466 3.56202 0
M  V30 10418 H 963.261 0.603447 0.565491 0
M  V30 10419 H 965.807 1.62174 0.499778 0
M  V30 10420 H 964.579 3.62812 1.46572 0
M  V30 10421 H 964.202 2.70687 2.91229 0
M  V30 10422 N 965.199 -0.738761 1.39212 0
M  V30 10423 C 966.131 -1.86286 1.3353 0
M  V30 10424 C 967.144 -1.6095 0.244755 0
M  V30 10425 O 968.333 -1.71254 0.50343 0
M  V30 10426 C 965.433 -3.22234 1.04969 0
M  V30 10427 C 964.606 -3.74956 2.25226 0
M  V30 10428 C 963.665 -4.89457 1.9318 0
M  V30 10429 O 962.691 -5.03314 2.65826 0
M  V30 10430 N 963.893 -5.73548 0.895679 0
M  V30 10431 H 966.658 -1.91666 2.304 0
M  V30 10432 H 964.219 -0.919338 1.33266 0
M  V30 10433 H 966.211 -3.96397 0.815566 0
M  V30 10434 H 964.781 -3.12146 0.168451 0
M  V30 10435 H 964.001 -2.92188 2.64612 0
M  V30 10436 H 965.289 -4.06914 3.05448 0
M  V30 10437 H 964.687 -5.64938 0.293541 0
M  V30 10438 H 963.244 -6.47795 0.721451 0
M  V30 10439 N 966.677 -1.24326 -0.968545 0
M  V30 10440 C 967.625 -1.03256 -2.08425 0
M  V30 10441 C 968.619 0.0322356 -1.69369 0
M  V30 10442 O 969.825 -0.122251 -1.79584 0
M  V30 10443 H 966.2 -0.31688 -0.681976 0
M  V30 10444 H 968.171 -1.97873 -2.23358 0
M  V30 10445 C 966.92 -0.653144 -3.4151 0
M  V30 10446 H 966.243 -1.46424 -3.72021 0
M  V30 10447 H 967.683 -0.545316 -4.20479 0
M  V30 10448 C 966.142 0.639674 -3.30771 0
M  V30 10449 O 966.672 1.68563 -3.64622 0
M  V30 10450 N 964.878 0.620074 -2.83907 0
M  V30 10451 H 964.425 -0.231449 -2.56558 0
M  V30 10452 H 964.383 1.48528 -2.77104 0
M  V30 10453 N 968.156 1.1691 -1.05688 0
M  V30 10454 C 969.066 2.24735 -0.67315 0
M  V30 10455 C 970.082 1.71252 0.308043 0
M  V30 10456 O 971.258 2.00772 0.158889 0
M  V30 10457 C 968.323 3.4665 -0.059026 0
M  V30 10458 C 967.384 4.15198 -1.0913 0
M  V30 10459 C 966.617 5.31292 -0.50639 0
M  V30 10460 O 966.84 5.663 0.682692 0
M  V30 10461 O 965.774 5.88923 -1.2431 0
M  V30 10462 H 969.6 2.59855 -1.57191 0
M  V30 10463 H 967.185 1.24306 -0.828751 0
M  V30 10464 H 969.067 4.20455 0.282018 0
M  V30 10465 H 967.742 3.13316 0.813304 0
M  V30 10466 H 966.649 3.43389 -1.48442 0
M  V30 10467 H 967.982 4.52571 -1.93495 0
M  V30 10468 N 969.634 0.838594 1.33437 0
M  V30 10469 C 970.881 0.434169 1.97791 0
M  V30 10470 C 971.209 -1.00652 1.66431 0
M  V30 10471 O 970.464 -1.71848 0.936309 0
M  V30 10472 C 970.763 0.601425 3.52303 0
M  V30 10473 C 970.429 2.01017 4.03612 0
M  V30 10474 C 969.091 2.39551 4.17336 0
M  V30 10475 C 971.443 2.93035 4.31022 0
M  V30 10476 C 968.771 3.69406 4.55802 0
M  V30 10477 C 971.123 4.22372 4.7094 0
M  V30 10478 C 969.787 4.60862 4.82869 0
M  V30 10479 H 969.057 0.158874 0.723768 0
M  V30 10480 H 971.704 1.06556 1.59116 0
M  V30 10481 H 970.009 -0.113284 3.91636 0
M  V30 10482 H 971.706 0.268798 4.00098 0
M  V30 10483 H 968.296 1.7009 3.93405 0
M  V30 10484 H 972.48 2.64503 4.19943 0
M  V30 10485 H 967.736 3.99033 4.63231 0
M  V30 10486 H 971.91 4.93749 4.91106 0
M  V30 10487 H 969.537 5.6153 5.12433 0
M  V30 10488 N 971.112 -1.45937 0.595003 0
M  V30 10489 C 972.075 -2.2888 -0.121102 0
M  V30 10490 C 973.075 -1.39075 -0.807149 0
M  V30 10491 O 974.265 -1.61326 -0.657228 0
M  V30 10492 C 971.397 -3.19778 -1.1813 0
M  V30 10493 H 972.59 -2.93673 0.607968 0
M  V30 10494 H 970.143 -1.5225 0.353495 0
M  V30 10495 H 970.878 -2.59759 -1.94154 0
M  V30 10496 H 970.663 -3.85914 -0.693724 0
M  V30 10497 H 972.153 -3.82176 -1.68319 0
M  V30 10498 N 972.59 -0.333456 -1.54032 0
M  V30 10499 C 973.838 0.265608 -2.00347 0
M  V30 10500 C 974.159 1.51873 -1.2231 0
M  V30 10501 O 973.429 1.93142 -0.327549 0
M  V30 10502 H 972.009 0.101135 -0.740122 0
M  V30 10503 H 974.671 -0.452285 -1.8958 0
M  V30 10504 H 973.767 0.51511 -3.0782 0
M  V30 10505 N 974.068 1.57479 -0.061844 0
M  V30 10506 C 975.315 1.93108 0.60954 0
M  V30 10507 C 975.643 0.941086 1.70217 0
M  V30 10508 O 974.898 -0.044914 1.95648 0
M  V30 10509 C 975.197 3.35394 1.23474 0
M  V30 10510 C 974.863 4.50095 0.269247 0
M  V30 10511 C 973.525 4.812 0.00360316 0
M  V30 10512 C 975.877 5.19725 -0.391839 0
M  V30 10513 C 973.205 5.79276 -0.930383 0
M  V30 10514 C 975.557 6.18801 -1.31408 0
M  V30 10515 C 974.221 6.48328 -1.58829 0
M  V30 10516 H 973.491 0.706634 0.223046 0
M  V30 10517 H 976.138 1.91054 -0.1306 0
M  V30 10518 H 974.443 3.33866 2.05039 0
M  V30 10519 H 976.14 3.60247 1.76134 0
M  V30 10520 H 972.73 4.2583 0.486477 0
M  V30 10521 H 976.914 4.95898 -0.199713 0
M  V30 10522 H 972.17 6.00484 -1.15019 0
M  V30 10523 H 976.344 6.71862 -1.83234 0
M  V30 10524 H 973.971 7.24137 -2.31363 0
M  V30 10525 N 975.546 -0.211634 1.56173 0
M  V30 10526 C 976.771 -0.955324 1.84088 0
M  V30 10527 C 977.196 -1.76754 0.643407 0
M  V30 10528 O 976.554 -1.76653 -0.407842 0
M  V30 10529 C 976.602 -1.84063 3.10085 0
M  V30 10530 O 975.706 -2.9373 2.89476 0
M  V30 10531 H 975.047 -0.26996 0.606645 0
M  V30 10532 H 977.577 -0.221947 2.03393 0
M  V30 10533 H 977.587 -2.24852 3.40449 0
M  V30 10534 H 976.262 -1.24373 3.96868 0
M  V30 10535 H 974.839 -2.56816 2.7037 0
M  V30 10536 N 977.024 -1.50153 -0.478725 0
M  V30 10537 C 978.254 -1.64266 -1.253 0
M  V30 10538 C 978.662 -0.322256 -1.86435 0
M  V30 10539 O 978.005 0.704925 -1.69636 0
M  V30 10540 C 978.067 -2.67017 -2.40712 0
M  V30 10541 C 977.731 -4.10779 -2.00274 0
M  V30 10542 C 978.728 -4.96889 -1.52963 0
M  V30 10543 C 976.413 -4.5665 -2.09228 0
M  V30 10544 C 978.407 -6.26914 -1.15139 0
M  V30 10545 C 976.094 -5.86683 -1.71015 0
M  V30 10546 C 977.092 -6.71641 -1.24048 0
M  V30 10547 O 976.78 -7.99248 -0.863617 0
M  V30 10548 H 976.512 -0.555382 -0.385392 0
M  V30 10549 H 979.066 -1.97078 -0.578751 0
M  V30 10550 H 977.296 -2.29432 -3.11284 0
M  V30 10551 H 978.985 -2.70428 -3.02694 0
M  V30 10552 H 979.751 -4.62669 -1.45474 0
M  V30 10553 H 975.63 -3.90674 -2.44735 0
M  V30 10554 H 979.174 -6.93179 -0.784089 0
M  V30 10555 H 975.071 -6.20426 -1.78162 0
M  V30 10556 H 975.839 -8.12452 -0.993139 0
M  V30 10557 N 978.502 0.731368 -1.39602 0
M  V30 10558 C 979.73 1.52059 -1.40305 0
M  V30 10559 C 980.145 1.888 0.00147921 0
M  V30 10560 O 979.502 1.54354 0.973715 0
M  V30 10561 C 979.553 2.80588 -2.27931 0
M  V30 10562 O 979.274 2.45406 -3.62915 0
M  V30 10563 C 980.775 3.74592 -2.37056 0
M  V30 10564 H 977.995 0.469787 -0.479104 0
M  V30 10565 H 980.539 0.903436 -1.83462 0
M  V30 10566 H 978.694 3.38626 -1.88178 0
M  V30 10567 H 979.108 3.27996 -4.09291 0
M  V30 10568 H 980.582 4.61662 -3.02609 0
M  V30 10569 H 981.059 4.16597 -1.39081 0
M  V30 10570 H 981.665 3.22471 -2.77295 0
M  V30 10571 N 979.98 1.24838 0.961938 0
M  V30 10572 C 980.928 1.0436 2.07874 0
M  V30 10573 C 981.922 -0.0232531 1.69384 0
M  V30 10574 O 983.128 0.131773 1.79517 0
M  V30 10575 H 979.503 0.320492 0.680286 0
M  V30 10576 H 981.474 1.99055 2.22306 0
M  V30 10577 C 980.223 0.671246 3.41159 0
M  V30 10578 H 979.546 1.48395 3.7124 0
M  V30 10579 H 980.986 0.567608 4.20184 0
M  V30 10580 C 979.445 -0.622124 3.31106 0
M  V30 10581 O 979.975 -1.66627 3.65511 0
M  V30 10582 N 978.181 -0.605009 2.84232 0
M  V30 10583 H 977.728 0.245052 2.56432 0
M  V30 10584 H 977.686 -1.47056 2.77888 0
M  V30 10585 N 981.458 -1.16348 1.06306 0
M  V30 10586 C 982.869 -1.68491 0.80422 0
M  V30 10587 C 983.22 -1.84327 -0.672159 0
M  V30 10588 O 982.345 -1.53892 -1.52139 0
M  V30 10589 C 982.94 -3.06048 1.45328 0
M  V30 10590 C 981.499 -3.55311 1.24221 0
M  V30 10591 C 980.646 -2.31291 1.5297 0
M  V30 10592 H 983.597 -1.00708 1.22652 0
M  V30 10593 H 983.618 -3.70451 0.868674 0
M  V30 10594 H 983.13 -2.9449 2.52779 0
M  V30 10595 H 981.231 -3.72128 0.187447 0
M  V30 10596 H 981.344 -4.37397 1.95502 0
M  V30 10597 H 979.708 -2.3631 0.950241 0
M  V30 10598 H 980.491 -2.22331 2.6158 0
M  V30 10599 N 982.937 -0.845659 -1.3299 0
M  V30 10600 C 983.847 -0.2864 -2.32845 0
M  V30 10601 C 984.863 0.591105 -1.63652 0
M  V30 10602 O 986.039 0.493615 -1.95257 0
M  V30 10603 C 983.104 0.523636 -3.42723 0
M  V30 10604 C 982.165 -0.378945 -4.27624 0
M  V30 10605 C 981.398 0.392526 -5.32255 0
M  V30 10606 O 981.621 1.6235 -5.46808 0
M  V30 10607 O 980.555 -0.237 -6.01433 0
M  V30 10608 H 984.381 -1.11346 -2.82552 0
M  V30 10609 H 981.966 -0.608356 -1.36453 0
M  V30 10610 H 983.848 0.983718 -4.09757 0
M  V30 10611 H 982.523 1.32764 -2.95221 0
M  V30 10612 H 981.43 -0.887012 -3.63432 0
M  V30 10613 H 982.763 -1.1479 -4.78627 0
M  V30 10614 N 984.415 1.45619 -0.602734 0
M  V30 10615 C 985.662 2.02272 -0.0960337 0
M  V30 10616 C 985.99 1.47177 1.27159 0
M  V30 10617 O 985.245 0.634593 1.85125 0
M  V30 10618 C 985.544 3.574 -0.00157909 0
M  V30 10619 C 985.21 4.31626 -1.30422 0
M  V30 10620 C 983.872 4.51622 -1.66106 0
M  V30 10621 C 986.224 4.74091 -2.16535 0
M  V30 10622 C 983.552 5.11338 -2.87663 0
M  V30 10623 C 985.904 5.35151 -3.37336 0
M  V30 10624 C 984.568 5.53371 -3.73278 0
M  V30 10625 H 983.838 0.740166 -0.0351412 0
M  V30 10626 H 986.485 1.74744 -0.783382 0
M  V30 10627 H 984.79 3.84179 0.769008 0
M  V30 10628 H 986.487 3.98934 0.406549 0
M  V30 10629 H 983.077 4.16372 -1.01647 0
M  V30 10630 H 987.261 4.5838 -1.90266 0
M  V30 10631 H 982.517 5.23634 -3.15622 0
M  V30 10632 H 986.691 5.67011 -4.04316 0
M  V30 10633 H 984.318 5.99412 -4.67556 0
M  V30 10634 N 985.893 0.34162 1.53853 0
M  V30 10635 C 987.139 -0.255862 2.01179 0
M  V30 10636 C 987.472 -1.50356 1.22909 0
M  V30 10637 O 986.747 -1.91913 0.316198 0
M  V30 10638 C 987.03 -0.571934 3.55529 0
M  V30 10639 C 986.883 0.687727 4.44511 0
M  V30 10640 C 988.202 -1.38233 4.17827 0
M  V30 10641 H 985.321 -0.091521 0.731295 0
M  V30 10642 H 987.963 0.461775 1.84303 0
M  V30 10643 H 986.113 -1.18331 3.70041 0
M  V30 10644 H 987.785 1.32572 4.4184 0
M  V30 10645 H 986.028 1.313 4.13452 0
M  V30 10646 H 986.699 0.421858 5.50386 0
M  V30 10647 H 989.175 -0.865374 4.07002 0
M  V30 10648 H 988.051 -1.57223 5.25901 0
M  V30 10649 H 988.312 -2.38386 3.72323 0
M  V30 10650 N 987.371 -1.57444 0.0701946 0
M  V30 10651 C 988.62 -1.92605 -0.598849 0
M  V30 10652 C 988.933 -0.952058 -1.70866 0
M  V30 10653 O 990.139 -1.19643 -2.43716 0
M  V30 10654 C 988.595 -3.42142 -1.11655 0
M  V30 10655 C 988.203 -4.47984 -0.0378355 0
M  V30 10656 C 989.947 -3.86307 -1.75975 0
M  V30 10657 C 987.854 -5.88652 -0.569495 0
M  V30 10658 H 986.784 -0.718873 -0.22746 0
M  V30 10659 H 989.435 -1.82948 0.14217 0
M  V30 10660 H 987.817 -3.46866 -1.91049 0
M  V30 10661 H 988.991 -4.54874 0.736661 0
M  V30 10662 H 987.306 -4.13277 0.50904 0
M  V30 10663 H 989.903 -4.88784 -2.16782 0
M  V30 10664 H 990.246 -3.23587 -2.61911 0
M  V30 10665 H 990.779 -3.84179 -1.03206 0
M  V30 10666 H 987.518 -6.55013 0.252662 0
M  V30 10667 H 987.038 -5.85285 -1.31155 0
M  V30 10668 H 988.717 -6.38482 -1.04641 0
M  V30 10669 N 988.849 0.203349 -1.56283 0
M  V30 10670 C 989.797 1.27157 -1.94766 0
M  V30 10671 C 990.791 1.4756 -0.832005 0
M  V30 10672 O 991.997 1.48519 -1.01696 0
M  V30 10673 H 988.372 0.426712 -0.61921 0
M  V30 10674 H 990.343 0.919921 -2.83866 0
M  V30 10675 C 989.092 2.6108 -2.29636 0
M  V30 10676 H 988.415 2.46193 -3.15006 0
M  V30 10677 H 989.855 3.34591 -2.60433 0
M  V30 10678 C 988.314 3.17456 -1.12799 0
M  V30 10679 O 988.844 3.99717 -0.398661 0
M  V30 10680 N 987.05 2.76084 -0.906975 0
M  V30 10681 H 986.597 2.09294 -1.50179 0
M  V30 10682 H 986.555 3.14143 -0.127005 0
M  V30 10683 N 990.327 1.50405 0.470755 0
M  V30 10684 C 991.573 1.6165 1.22462 0
M  V30 10685 C 991.906 0.316034 1.91611 0
M  V30 10686 O 991.181 -0.682509 1.82132 0
M  V30 10687 C 991.464 2.79702 2.26801 0
M  V30 10688 C 991.317 4.19631 1.61955 0
M  V30 10689 C 992.636 2.93313 3.28109 0
M  V30 10690 H 989.755 0.588345 0.443868 0
M  V30 10691 H 992.397 1.82792 0.518376 0
M  V30 10692 H 990.547 2.61807 2.87036 0
M  V30 10693 H 992.219 4.49117 1.05316 0
M  V30 10694 H 990.462 4.23874 0.922674 0
M  V30 10695 H 991.133 4.98162 2.37779 0
M  V30 10696 H 993.609 3.09697 2.77897 0
M  V30 10697 H 992.485 3.77537 3.98443 0
M  V30 10698 H 992.746 2.03942 3.9225 0
M  V30 10699 O 991.844 -0.616299 1.49278 0
M  V30 10700 H 992.535 -1.27072 1.46193 0
M  V30 END ATOM
M  V30 BEGIN BOND
M  V30 END BOND
M  V30 END CTAB
M  END
$$$$
