drugbank_target|P23368 NAD-dependent malic enzyme, mitochondrial (DB00157; DB01677; DB03499; DB03589; DB03680)
 OpenBabel12092119253D

  0  0  0     0  0            999 V3000
M  V30 BEGIN CTAB
M  V30 COUNTS 9255 9353 0 0 0
M  V30 BEGIN ATOM
M  V30 1 H -0.908 1.98254 -0.117106 0
M  V30 2 N 0 1.576 0 0
M  V30 3 C 0.933 2.03868 1.02534 0
M  V30 4 C 1.911 0.928543 1.3348 0
M  V30 5 O 3.095 1.19667 1.45644 0
M  V30 6 C 0.222 2.43627 2.35294 0
M  V30 7 C -0.732 3.65373 2.2001 0
M  V30 8 S 0.101 5.13292 1.52614 0
M  V30 9 C 1.257 5.56322 2.86805 0
M  V30 10 H 1.49 2.90518 0.631377 0
M  V30 11 H -0.977 1.52953 0.210867 0
M  V30 12 H 0.981 2.67203 3.11629 0
M  V30 13 H -0.358 1.57376 2.7183 0
M  V30 14 H -1.165 3.90944 3.18086 0
M  V30 15 H -1.563 3.418 1.51819 0
M  V30 16 H 0.729 5.58782 3.83104 0
M  V30 17 H 1.672 6.56266 2.65933 0
M  V30 18 H 2.08 4.83886 2.90714 0
M  V30 19 N 1.4781 -0.272755 1.55222 0
M  V30 20 C 2.4081 -1.34136 1.91127 0
M  V30 21 C 3.3891 -1.51513 0.773168 0
M  V30 22 O 4.5741 -1.64552 1.03132 0
M  V30 23 C 1.7041 -2.70083 2.1834 0
M  V30 24 C 0.6581 -2.67437 3.34158 0
M  V30 25 C -0.0159 -4.06938 3.46851 0
M  V30 26 C 1.2841 -2.26686 4.70543 0
M  V30 27 H 2.9781 -1.04333 2.80633 0
M  V30 28 H 0.5241 -0.500454 1.35024 0
M  V30 29 H 2.4771 -3.44952 2.42046 0
M  V30 30 H 1.2011 -3.01469 1.25634 0
M  V30 31 H -0.1399 -1.95026 3.1042 0
M  V30 32 H -0.4919 -4.35547 2.51611 0
M  V30 33 H -0.7919 -4.06062 4.2472 0
M  V30 34 H 0.7321 -4.83545 3.72849 0
M  V30 35 H 2.1461 -2.91277 4.93792 0
M  V30 36 H 0.5431 -2.36971 5.5133 0
M  V30 37 H 1.6131 -1.21818 4.69349 0
M  V30 38 N 2.9562 -1.48159 -0.537278 0
M  V30 39 C 4.1812 -1.59707 -1.32319 0
M  V30 40 C 4.6062 -0.254859 -1.86365 0
M  V30 41 O 3.9642 0.772378 -1.64024 0
M  V30 42 C 4.0122 -2.6412 -2.45505 0
M  V30 43 O 3.1162 -2.20774 -3.48328 0
M  V30 44 H 2.4572 -0.535791 -0.392204 0
M  V30 45 H 4.9872 -1.94092 -0.647268 0
M  V30 46 H 4.9972 -2.85166 -2.91795 0
M  V30 47 H 3.6722 -3.61567 -2.05528 0
M  V30 48 H 2.2492 -2.09911 -3.08207 0
M  V30 49 N 4.4343 0.785586 -1.36625 0
M  V30 50 C 5.8503 1.08419 -1.17122 0
M  V30 51 C 6.0503 2.015 0.00208491 0
M  V30 52 O 5.1063 2.43551 0.666278 0
M  V30 53 C 6.4193 1.69498 -2.48377 0
M  V30 54 C 7.9673 1.81821 -2.54775 0
M  V30 55 C 8.4423 2.46315 -3.86126 0
M  V30 56 N 9.9333 2.53779 -3.87492 0
M  V30 57 C 10.6683 3.045 -4.85868 0
M  V30 58 N 10.1643 3.55499 -5.94637 0
M  V30 59 N 11.9573 3.03247 -4.73284 0
M  V30 60 H 4.1083 0.167264 -2.1174 0
M  V30 61 H 6.3713 0.13682 -0.938075 0
M  V30 62 H 6.0773 1.08571 -3.34522 0
M  V30 63 H 5.9513 2.6896 -2.64462 0
M  V30 64 H 8.3383 2.41884 -1.69045 0
M  V30 65 H 8.4193 0.811532 -2.42586 0
M  V30 66 H 8.0633 1.86895 -4.72263 0
M  V30 67 H 7.9933 3.47561 -3.95612 0
M  V30 68 H 10.4843 2.17672 -3.08913 0
M  V30 69 H 10.7973 3.92562 -6.65669 0
M  V30 70 H 9.1423 3.5364 -5.98301 0
M  V30 71 H 12.3333 2.62696 -3.87438 0
M  V30 72 H 12.5063 3.42467 -5.50109 0
M  V30 73 N 5.9124 1.20967 1.01018 0
M  V30 74 C 6.8424 0.988272 2.11555 0
M  V30 75 C 7.8234 -0.0849778 1.69888 0
M  V30 76 O 9.0084 0.0738202 1.9406 0
M  V30 77 C 6.1384 0.546528 3.42973 0
M  V30 78 C 5.0924 1.56375 3.9841 0
M  V30 79 C 4.4184 0.97842 5.25672 0
M  V30 80 C 5.7184 2.94922 4.31066 0
M  V30 81 H 7.4124 1.91276 2.30334 0
M  V30 82 H 4.9584 0.921073 1.1069 0
M  V30 83 H 6.9114 0.378839 4.19694 0
M  V30 84 H 5.6354 -0.413598 3.23971 0
M  V30 85 H 4.2944 1.71891 3.23804 0
M  V30 86 H 3.9424 0.0101688 5.02999 0
M  V30 87 H 3.6424 1.65784 5.63728 0
M  V30 88 H 5.1664 0.821939 6.05043 0
M  V30 89 H 6.5804 2.8288 4.9865 0
M  V30 90 H 4.9774 3.5983 4.80253 0
M  V30 91 H 6.0474 3.4616 3.39561 0
M  V30 92 N 7.3905 -1.2043 1.01659 0
M  V30 93 C 8.8065 -1.41852 0.731442 0
M  V30 94 C 9.0065 -1.89358 -0.688898 0
M  V30 95 O 8.0625 -2.06247 -1.45666 0
M  V30 96 C 9.3755 -2.44019 1.75714 0
M  V30 97 C 10.9235 -2.57785 1.77527 0
M  V30 98 C 11.3985 -3.63194 2.79023 0
M  V30 99 N 12.8895 -3.70678 2.77763 0
M  V30 100 C 13.6245 -4.51897 3.52954 0
M  V30 101 N 13.1205 -5.36921 4.37821 0
M  V30 102 N 14.9135 -4.4643 3.41551 0
M  V30 103 H 7.0645 -0.879093 1.93354 0
M  V30 104 H 9.3275 -0.448425 0.835236 0
M  V30 105 H 9.0335 -2.1611 2.77469 0
M  V30 106 H 8.9075 -3.43007 1.56927 0
M  V30 107 H 11.2945 -2.85023 0.764569 0
M  V30 108 H 11.3755 -1.58992 2.00387 0
M  V30 109 H 11.0195 -3.36699 3.80258 0
M  V30 110 H 10.9495 -4.61609 2.53425 0
M  V30 111 H 13.4405 -3.09944 2.16201 0
M  V30 112 H 13.7535 -5.95981 4.91962 0
M  V30 113 H 12.0985 -5.36424 4.41899 0
M  V30 114 H 15.2895 -3.79042 2.74672 0
M  V30 115 H 15.4625 -5.09491 4.00404 0
M  V30 116 N 8.8686 -0.792821 -1.36206 0
M  V30 117 C 10.1146 -0.36733 -1.99446 0
M  V30 118 C 10.4476 1.05917 -1.62774 0
M  V30 119 O 9.7226 1.7324 -0.88421 0
M  V30 120 C 10.0056 -0.535044 -3.56103 0
M  V30 121 C 9.8586 -2.00548 -4.02617 0
M  V30 122 C 11.1776 0.0478191 -4.40074 0
M  V30 123 H 8.2966 -0.134941 -0.724541 0
M  V30 124 H 10.9386 -0.999794 -1.61568 0
M  V30 125 H 9.0886 0.00336329 -3.885 0
M  V30 126 H 10.7606 -2.60521 -3.80692 0
M  V30 127 H 9.0036 -2.50686 -3.54032 0
M  V30 128 H 9.6746 -2.07377 -5.11565 0
M  V30 129 H 12.1506 -0.411822 -4.14057 0
M  V30 130 H 11.0266 -0.0995336 -5.4881 0
M  V30 131 H 11.2876 1.14025 -4.27142 0
M  V30 132 N 10.3467 1.47872 -0.545128 0
M  V30 133 C 11.5927 2.02793 -0.0166104 0
M  V30 134 C 11.9257 1.41987 1.32489 0
M  V30 135 O 11.2007 0.571045 1.85928 0
M  V30 136 C 11.4837 3.59989 0.0893294 0
M  V30 137 C 11.3367 4.3125 -1.27841 0
M  V30 138 C 12.6557 4.32606 0.808724 0
M  V30 139 H 9.7747 0.736962 -0.00751035 0
M  V30 140 H 12.4167 1.76433 -0.705085 0
M  V30 141 H 10.5667 3.82579 0.675681 0
M  V30 142 H 12.2387 4.20035 -1.90704 0
M  V30 143 H 10.4817 3.92076 -1.85632 0
M  V30 144 H 11.1527 5.39736 -1.15713 0
M  V30 145 H 13.6287 4.14936 0.310992 0
M  V30 146 H 12.5047 5.42251 0.851782 0
M  V30 147 H 12.7657 4.00963 1.86229 0
M  V30 148 N 11.8248 0.280983 1.55075 0
M  V30 149 C 13.0498 -0.340154 2.04592 0
M  V30 150 C 13.4748 -1.48246 1.15779 0
M  V30 151 O 12.8328 -1.80614 0.15761 0
M  V30 152 C 12.8808 -0.793104 3.5177 0
M  V30 153 O 11.9848 -1.89981 3.66034 0
M  V30 154 H 11.3258 -0.0694289 0.66036 0
M  V30 155 H 13.8558 0.416993 2.00306 0
M  V30 156 H 13.8658 -1.08729 3.93245 0
M  V30 157 H 12.5408 0.0426163 4.15878 0
M  V30 158 H 11.1178 -1.60771 3.36463 0
M  V30 159 N 13.3029 -1.57598 0.00835791 0
M  V30 160 C 14.5309 -1.95214 -0.68549 0
M  V30 161 C 14.9459 -0.883706 -1.66841 0
M  V30 162 O 14.3029 0.136565 -1.81988 0
M  V30 163 C 14.3539 -3.32865 -1.41007 0
M  V30 164 O 14.0749 -4.35609 -0.466552 0
M  V30 165 C 15.5759 -3.84991 -2.19765 0
M  V30 166 H 12.7959 -0.643422 -0.190392 0
M  V30 167 H 15.3399 -2.04406 0.0619607 0
M  V30 168 H 13.4949 -3.24956 -2.10908 0
M  V30 169 H 13.9089 -5.15288 -0.978699 0
M  V30 170 H 15.3829 -4.8371 -2.65948 0
M  V30 171 H 15.8599 -3.18137 -3.02796 0
M  V30 172 H 16.4659 -3.96103 -1.54864 0
M  V30 173 N 14.781 0.264519 -1.55364 0
M  V30 174 C 16.009 1.013 -1.80405 0
M  V30 175 C 16.424 1.79618 -0.581622 0
M  V30 176 O 15.781 1.76879 0.449468 0
M  V30 177 C 15.832 1.96487 -3.03439 0
M  V30 178 O 15.553 1.21341 -4.20961 0
M  V30 179 C 17.054 2.83079 -3.41147 0
M  V30 180 H 14.274 0.298875 -0.600762 0
M  V30 181 H 16.818 0.292736 -2.02394 0
M  V30 182 H 14.973 2.63965 -2.83551 0
M  V30 183 H 15.387 1.85573 -4.90574 0
M  V30 184 H 16.861 3.4565 -4.30384 0
M  V30 185 H 17.338 3.53286 -2.60932 0
M  V30 186 H 17.944 2.2108 -3.63323 0
M  V30 187 N 16.2591 1.48442 0.529413 0
M  V30 188 C 17.4991 1.58086 1.29569 0
M  V30 189 C 17.8631 0.249302 1.90375 0
M  V30 190 O 19.0641 0.220738 2.67892 0
M  V30 191 C 17.3351 2.68793 2.35552 0
M  V30 192 S 18.8941 2.98207 3.21898 0
M  V30 193 H 15.7121 0.557922 0.440732 0
M  V30 194 H 18.3141 1.85966 0.603059 0
M  V30 195 H 17.0181 3.64102 1.89363 0
M  V30 196 H 16.5491 2.42817 3.09522 0
M  V30 197 H 18.5641 2.37548 4.35644 0
M  V30 198 N 17.7372 -0.778329 1.37039 0
M  V30 199 C 18.9652 -1.56734 1.35063 0
M  V30 200 C 19.3802 -1.88686 -0.0655597 0
M  V30 201 O 18.7372 -1.5096 -1.02554 0
M  V30 202 C 18.7882 -2.88163 2.18276 0
M  V30 203 O 18.5092 -2.57583 3.54376 0
M  V30 204 C 20.0102 -3.82422 2.24206 0
M  V30 205 H 17.2302 -0.485778 0.462883 0
M  V30 206 H 19.7742 -0.965185 1.8029 0
M  V30 207 H 17.9292 -3.44818 1.76576 0
M  V30 208 H 18.3432 -3.41699 3.97922 0
M  V30 209 H 19.8172 -4.71667 2.86765 0
M  V30 210 H 20.2942 -4.21078 1.24861 0
M  V30 211 H 20.9002 -3.31697 2.6619 0
M  V30 212 N 19.2153 -1.21501 -1.00376 0
M  V30 213 C 20.1453 -0.999478 -2.11028 0
M  V30 214 C 21.1263 0.0759671 -1.6993 0
M  V30 215 O 22.3113 -0.0841106 -1.94018 0
M  V30 216 C 19.4413 -0.564709 -3.42678 0
M  V30 217 C 18.3953 -1.58486 -3.97576 0
M  V30 218 C 17.7213 -1.00628 -5.25146 0
M  V30 219 C 19.0213 -2.97204 -4.29496 0
M  V30 220 H 20.7153 -1.92495 -2.29317 0
M  V30 221 H 18.2613 -0.92693 -1.102 0
M  V30 222 H 20.2143 -0.401091 -4.19487 0
M  V30 223 H 18.9383 0.396411 -3.24185 0
M  V30 224 H 17.5973 -1.73606 -3.22888 0
M  V30 225 H 17.2453 -0.0368439 -5.02987 0
M  V30 226 H 16.9453 -1.68771 -5.62841 0
M  V30 227 H 18.4693 -0.854015 -6.04598 0
M  V30 228 H 19.8833 -2.8552 -4.97143 0
M  V30 229 H 18.2803 -3.62372 -4.78338 0
M  V30 230 H 19.3503 -3.47956 -3.3772 0
M  V30 231 N 20.6934 1.19889 -1.02296 0
M  V30 232 C 21.6564 2.21116 -0.603351 0
M  V30 233 C 22.6564 1.5738 0.329884 0
M  V30 234 O 23.8464 1.73802 0.117702 0
M  V30 235 C 20.9784 3.40696 0.117992 0
M  V30 236 H 22.1714 2.59754 -1.49893 0
M  V30 237 H 19.7244 1.33463 -0.813468 0
M  V30 238 H 20.4594 3.07569 1.0282 0
M  V30 239 H 20.2444 3.88188 -0.552511 0
M  V30 240 H 21.7344 4.15692 0.398696 0
M  V30 241 N 22.1715 0.800033 1.35784 0
M  V30 242 C 23.4115 0.382891 2.00782 0
M  V30 243 C 23.7755 -1.02891 1.62103 0
M  V30 244 O 24.9765 -1.54771 2.19771 0
M  V30 245 C 23.2475 0.553299 3.53091 0
M  V30 246 S 24.8065 0.225608 4.3822 0
M  V30 247 H 21.6245 0.145737 0.695904 0
M  V30 248 H 24.2265 1.04085 1.65489 0
M  V30 249 H 22.9305 1.58091 3.78729 0
M  V30 250 H 22.4615 -0.120214 3.93216 0
M  V30 251 H 24.4765 -0.969074 4.86645 0
M  V30 252 N 23.6496 -1.47581 0.552962 0
M  V30 253 C 25.0656 -1.5818 0.212424 0
M  V30 254 C 25.2656 -1.55213 -1.28496 0
M  V30 255 O 24.3216 -1.45329 -2.06484 0
M  V30 256 C 25.6346 -2.88865 0.835318 0
M  V30 257 C 27.1826 -3.0244 0.806156 0
M  V30 258 C 27.6576 -4.35819 1.40804 0
M  V30 259 N 29.1486 -4.42444 1.37103 0
M  V30 260 C 29.8836 -5.44202 1.80641 0
M  V30 261 N 29.3796 -6.52795 2.32015 0
M  V30 262 N 31.1726 -5.35222 1.71738 0
M  V30 263 H 23.3236 -1.47753 1.52587 0
M  V30 264 H 25.5866 -0.702941 0.636064 0
M  V30 265 H 25.2926 -2.9676 1.88749 0
M  V30 266 H 25.1666 -3.7579 0.325848 0
M  V30 267 H 27.5536 -2.94144 -0.237317 0
M  V30 268 H 27.6346 -2.17068 1.35334 0
M  V30 269 H 27.2786 -4.44871 2.45056 0
M  V30 270 H 27.2086 -5.19916 0.836338 0
M  V30 271 H 29.6996 -3.6456 0.995202 0
M  V30 272 H 30.0126 -7.26609 2.63171 0
M  V30 273 H 28.3576 -6.53696 2.36023 0
M  V30 274 H 31.5486 -4.49284 1.31382 0
M  V30 275 H 31.7216 -6.14389 2.05987 0
M  V30 276 N 25.1277 -0.289203 -1.54924 0
M  V30 277 C 26.0777 0.606939 -2.19773 0
M  V30 278 C 27.0617 1.10783 -1.16687 0
M  V30 279 O 28.2537 1.05057 -1.4245 0
M  V30 280 C 25.3827 1.78398 -2.93307 0
M  V30 281 C 24.4687 1.29961 -4.03697 0
M  V30 282 N 24.8597 0.532377 -5.0299 0
M  V30 283 C 23.1577 1.58136 -4.17024 0
M  V30 284 C 23.8587 0.275912 -5.81045 0
M  V30 285 N 22.8347 0.852365 -5.36876 0
M  V30 286 H 26.6367 0.0130779 -2.93897 0
M  V30 287 H 24.1507 -0.09341 -1.62131 0
M  V30 288 H 26.1477 2.43741 -3.38225 0
M  V30 289 H 24.8077 2.38166 -2.20697 0
M  V30 290 H 25.8187 0.17838 -5.17593 0
M  V30 291 H 22.4957 2.18738 -3.55612 0
M  V30 292 H 23.8857 -0.339502 -6.71042 0
M  V30 293 N 26.6058 1.57591 -0.0167156 0
M  V30 294 C 27.5358 2.12496 0.967858 0
M  V30 295 C 28.5168 1.03807 1.34752 0
M  V30 296 O 29.7018 1.31577 1.42833 0
M  V30 297 C 26.8318 2.64194 2.25431 0
M  V30 298 C 25.7858 3.77559 2.01576 0
M  V30 299 C 25.1118 4.15636 3.36379 0
M  V30 300 C 26.4118 5.04151 1.36489 0
M  V30 301 H 28.1058 2.95013 0.510643 0
M  V30 302 H 25.6518 1.41915 0.244181 0
M  V30 303 H 27.6048 3.01236 2.94678 0
M  V30 304 H 26.3288 1.78821 2.73296 0
M  V30 305 H 24.9878 3.40937 1.34751 0
M  V30 306 H 24.6358 3.27263 3.81979 0
M  V30 307 H 24.3358 4.92022 3.21229 0
M  V30 308 H 25.8598 4.5525 4.06915 0
M  V30 309 H 27.2738 5.38857 1.95718 0
M  V30 310 H 25.6708 5.85453 1.31776 0
M  V30 311 H 26.7408 4.83733 0.336219 0
M  V30 312 N 28.0839 -0.256276 1.55502 0
M  V30 313 C 29.0339 -1.31981 1.85916 0
M  V30 314 C 30.0179 -1.43927 0.719296 0
M  V30 315 O 31.2099 -1.47326 0.981019 0
M  V30 316 C 28.3389 -2.67703 2.14918 0
M  V30 317 C 27.4249 -2.59801 3.35208 0
M  V30 318 N 27.8159 -2.21524 4.54709 0
M  V30 319 C 26.1139 -2.90832 3.38131 0
M  V30 320 C 26.8149 -2.24024 5.36832 0
M  V30 321 N 25.7909 -2.63158 4.75656 0
M  V30 322 H 29.5929 -1.01423 2.75845 0
M  V30 323 H 27.1069 -0.464911 1.55603 0
M  V30 324 H 29.1039 -3.44445 2.34869 0
M  V30 325 H 27.7639 -2.99137 1.26282 0
M  V30 326 H 28.7749 -1.93223 4.80505 0
M  V30 327 H 25.4519 -3.26867 2.59739 0
M  V30 328 H 26.8419 -1.9685 6.42417 0
M  V30 329 N 29.562 -1.4872 -0.521534 0
M  V30 330 C 30.811 -1.56419 -1.27341 0
M  V30 331 C 31.124 -0.246805 -1.94037 0
M  V30 332 O 32.33 -0.202122 -2.70747 0
M  V30 333 C 30.786 -2.75896 -2.31105 0
M  V30 334 C 30.394 -4.14311 -1.70441 0
M  V30 335 C 32.138 -2.92913 -3.07249 0
M  V30 336 C 30.045 -5.25038 -2.72194 0
M  V30 337 H 28.975 -0.582344 -0.478949 0
M  V30 338 H 31.626 -1.75071 -0.549779 0
M  V30 339 H 30.008 -2.50697 -3.06541 0
M  V30 340 H 31.182 -4.49564 -1.01136 0
M  V30 341 H 29.497 -4.02482 -1.06759 0
M  V30 342 H 32.094 -3.72805 -3.83302 0
M  V30 343 H 32.437 -2.02689 -3.63625 0
M  V30 344 H 32.97 -3.18054 -2.38928 0
M  V30 345 H 29.709 -6.17255 -2.20627 0
M  V30 346 H 29.229 -4.94263 -3.39801 0
M  V30 347 H 30.908 -5.53508 -3.35019 0
M  V30 348 N 31.0401 0.771051 -1.3745 0
M  V30 349 C 31.9871 1.88435 -1.3327 0
M  V30 350 C 32.9571 1.64914 -0.198136 0
M  V30 351 O 34.1421 1.86821 -0.387606 0
M  V30 352 C 31.2821 3.25509 -1.14622 0
M  V30 353 C 30.3951 3.60979 -2.37314 0
M  V30 354 C 29.5301 4.87265 -2.11533 0
M  V30 355 C 28.5691 5.15469 -3.30088 0
M  V30 356 N 27.7061 6.32944 -3.03853 0
M  V30 357 H 32.5461 1.91344 -2.28455 0
M  V30 358 H 30.0831 0.935466 -1.13523 0
M  V30 359 H 32.0411 4.04582 -1.01831 0
M  V30 360 H 30.6711 3.21974 -0.230837 0
M  V30 361 H 29.7231 2.76885 -2.60842 0
M  V30 362 H 31.0351 3.77759 -3.25729 0
M  V30 363 H 30.1891 5.74244 -1.95777 0
M  V30 364 H 28.9281 4.7259 -1.20457 0
M  V30 365 H 27.9331 4.26966 -3.46382 0
M  V30 366 H 29.1581 5.32052 -4.22016 0
M  V30 367 H 27.1041 6.19625 -2.15407 0
M  V30 368 H 27.0211 6.50143 -3.85812 0
M  V30 369 H 28.2891 7.22857 -2.91716 0
M  V30 370 N 32.5182 1.22032 0.997298 0
M  V30 371 C 33.4282 1.00271 2.12092 0
M  V30 372 C 34.4442 -0.047621 1.73935 0
M  V30 373 O 35.6202 0.144136 2.00884 0
M  V30 374 C 32.6852 0.578449 3.4184 0
M  V30 375 C 31.7462 1.70189 3.94125 0
M  V30 376 C 30.9792 1.29778 5.17681 0
M  V30 377 O 31.2022 0.174676 5.70132 0
M  V30 378 O 30.1362 2.11261 5.63607 0
M  V30 379 H 33.9622 1.94398 2.3333 0
M  V30 380 H 31.5472 1.00587 1.10465 0
M  V30 381 H 33.4292 0.351998 4.19927 0
M  V30 382 H 32.1042 -0.334019 3.21972 0
M  V30 383 H 31.0112 1.98282 3.1723 0
M  V30 384 H 32.3442 2.59206 4.18417 0
M  V30 385 N 33.9963 -1.19345 1.0293 0
M  V30 386 C 34.9433 -2.2258 0.610464 0
M  V30 387 C 35.9133 -1.6179 -0.375946 0
M  V30 388 O 37.0983 -1.88844 -0.272511 0
M  V30 389 C 34.2383 -3.45085 -0.0321473 0
M  V30 390 C 33.3513 -4.20258 1.00035 0
M  V30 391 C 32.4863 -5.3019 0.32746 0
M  V30 392 C 31.5253 -5.97121 1.34584 0
M  V30 393 N 30.6623 -6.98615 0.698726 0
M  V30 394 H 35.5023 -2.57764 1.49538 0
M  V30 395 H 33.0393 -1.26644 0.748311 0
M  V30 396 H 34.9973 -4.15061 -0.421966 0
M  V30 397 H 33.6273 -3.10555 -0.88064 0
M  V30 398 H 32.6793 -3.49223 1.50823 0
M  V30 399 H 33.9913 -4.66175 1.77433 0
M  V30 400 H 33.1453 -6.06587 -0.11718 0
M  V30 401 H 31.8843 -4.85345 -0.478713 0
M  V30 402 H 30.8893 -5.19474 1.80074 0
M  V30 403 H 32.1143 -6.4405 2.15352 0
M  V30 404 H 30.0603 -6.55942 -0.0873471 0
M  V30 405 H 29.9773 -7.42724 1.41058 0
M  V30 406 H 31.2453 -7.79004 0.278102 0
M  V30 407 N 35.4744 -0.807222 -1.35358 0
M  V30 408 C 36.7224 -0.387122 -1.98358 0
M  V30 409 C 37.0434 1.04942 -1.64354 0
M  V30 410 O 36.3134 1.72615 -0.926339 0
M  V30 411 H 34.8934 -0.140154 -0.733734 0
M  V30 412 H 37.5554 -1.0332 -1.6526 0
M  V30 413 H 36.6514 -0.493352 -3.08176 0
M  V30 414 N 36.9525 1.47285 -0.560781 0
M  V30 415 C 37.8995 2.30058 0.18491 0
M  V30 416 C 38.8695 1.39281 0.904986 0
M  V30 417 O 40.0545 1.68241 0.899979 0
M  V30 418 C 37.1945 3.23317 1.20666 0
M  V30 419 C 36.3075 4.29186 0.492285 0
M  V30 420 C 35.4425 5.09592 1.49964 0
M  V30 421 C 34.4815 6.07232 0.770439 0
M  V30 422 N 33.6185 6.80584 1.72479 0
M  V30 423 H 38.4585 2.93302 -0.527048 0
M  V30 424 H 35.9955 1.44568 -0.271738 0
M  V30 425 H 37.9535 3.75811 1.81168 0
M  V30 426 H 36.5835 2.61929 1.88661 0
M  V30 427 H 35.6355 3.7972 -0.227333 0
M  V30 428 H 36.9475 4.98738 -0.0787929 0
M  V30 429 H 36.1015 5.66254 2.17809 0
M  V30 430 H 34.8405 4.3995 2.10464 0
M  V30 431 H 33.8455 5.49745 0.0780846 0
M  V30 432 H 35.0705 6.78884 0.171134 0
M  V30 433 H 33.0165 6.1367 2.3183 0
M  V30 434 H 32.9335 7.46319 1.20596 0
M  V30 435 H 34.2015 7.41818 2.39428 0
M  V30 436 N 38.4306 0.297415 1.54768 0
M  V30 437 C 39.8416 -0.195947 1.85669 0
M  V30 438 C 40.1926 -1.53707 1.21937 0
M  V30 439 O 39.3176 -2.10164 0.515754 0
M  V30 440 C 39.9126 -0.362318 3.36857 0
M  V30 441 C 38.4716 -0.799901 3.67802 0
M  V30 442 C 37.6186 0.0938578 2.77141 0
M  V30 443 H 40.5696 0.518538 1.4999 0
M  V30 444 H 40.5906 -1.19745 3.61167 0
M  V30 445 H 40.1026 0.613921 3.83214 0
M  V30 446 H 38.2036 -1.78682 3.26961 0
M  V30 447 H 38.3166 -0.621773 4.75048 0
M  V30 448 H 36.6806 -0.426254 2.51108 0
M  V30 449 H 37.4636 1.06639 3.26318 0
M  V30 450 N 39.9087 -1.5758 0.0250728 0
M  V30 451 C 40.8387 -2.13007 -0.956575 0
M  V30 452 C 41.8197 -1.0452 -1.342 0
M  V30 453 O 43.0047 -1.32332 -1.42133 0
M  V30 454 C 40.1347 -2.65386 -2.24026 0
M  V30 455 C 39.0887 -3.78623 -1.99571 0
M  V30 456 C 38.4147 -4.17414 -3.3417 0
M  V30 457 C 39.7147 -5.04867 -1.33814 0
M  V30 458 H 41.4087 -2.9528 -0.494991 0
M  V30 459 H 38.9547 -1.42042 -0.236651 0
M  V30 460 H 40.9077 -3.02794 -2.93076 0
M  V30 461 H 39.6317 -1.80268 -2.72343 0
M  V30 462 H 38.2907 -3.41646 -1.32941 0
M  V30 463 H 37.9387 -3.29284 -3.80238 0
M  V30 464 H 37.6387 -4.93719 -3.18615 0
M  V30 465 H 39.1627 -4.57402 -4.04495 0
M  V30 466 H 40.5767 -5.39888 -1.92857 0
M  V30 467 H 38.9737 -5.86144 -1.28669 0
M  V30 468 H 40.0437 -4.83904 -0.310561 0
M  V30 469 N 41.3868 0.248026 -1.55636 0
M  V30 470 C 42.3198 1.3334 -1.85191 0
M  V30 471 C 43.2978 1.46429 -0.706906 0
M  V30 472 O 44.4818 1.62662 -0.952544 0
M  V30 473 C 41.6088 2.70703 -2.03562 0
M  V30 474 C 40.6548 2.7477 -3.26196 0
M  V30 475 S 41.4878 2.31493 -4.82878 0
M  V30 476 C 42.6438 3.70783 -5.04253 0
M  V30 477 H 42.8768 1.08072 -2.76962 0
M  V30 478 H 40.4098 0.448952 -1.47729 0
M  V30 479 H 42.3678 3.49798 -2.1483 0
M  V30 480 H 41.0288 2.9321 -1.12635 0
M  V30 481 H 40.2218 3.75648 -3.36013 0
M  V30 482 H 39.8238 2.03719 -3.13647 0
M  V30 483 H 42.1158 4.6627 -4.91527 0
M  V30 484 H 43.0588 3.65901 -6.06236 0
M  V30 485 H 43.4668 3.63244 -4.32105 0
M  V30 486 N 42.8649 1.48995 0.513639 0
M  V30 487 C 43.7949 1.67636 1.62544 0
M  V30 488 C 44.7759 0.525087 1.61793 0
M  V30 489 O 45.9609 0.759502 1.78732 0
M  V30 490 C 43.0909 1.73114 3.01079 0
M  V30 491 C 42.0449 2.87905 3.16693 0
M  V30 492 C 41.3709 2.78486 4.56453 0
M  V30 493 C 42.6709 4.29005 2.97913 0
M  V30 494 H 44.3649 2.60716 1.47198 0
M  V30 495 H 41.9109 1.25465 0.706714 0
M  V30 496 H 43.8639 1.84742 3.78746 0
M  V30 497 H 42.5879 0.766241 3.17484 0
M  V30 498 H 41.2469 2.75859 2.41448 0
M  V30 499 H 40.8949 1.7993 4.69717 0
M  V30 500 H 40.5949 3.55523 4.67843 0
M  V30 501 H 42.1189 2.92104 5.36197 0
M  V30 502 H 43.5329 4.41798 3.65359 0
M  V30 503 H 41.9299 5.07166 3.20785 0
M  V30 504 H 42.9999 4.44329 1.94165 0
M  V30 505 N 44.343 -0.763751 1.37857 0
M  V30 506 C 45.291 -1.89864 1.34367 0
M  V30 507 C 46.285 -1.67816 0.231143 0
M  V30 508 O 47.491 -1.75508 0.399617 0
M  V30 509 H 43.866 -0.624501 0.41893 0
M  V30 510 H 45.837 -1.89925 2.30155 0
M  V30 511 C 44.586 -3.27227 1.1755 0
M  V30 512 H 43.909 -3.44773 2.02414 0
M  V30 513 H 45.349 -4.06911 1.1916 0
M  V30 514 C 43.808 -3.36692 -0.118311 0
M  V30 515 O 44.338 -3.86374 -1.09902 0
M  V30 516 N 42.544 -2.90092 -0.171717 0
M  V30 517 H 42.091 -2.49853 0.627012 0
M  V30 518 H 42.049 -2.96806 -1.03699 0
M  V30 519 N 45.8211 -1.22559 -0.990812 0
M  V30 520 C 47.2321 -1.04791 -1.54518 0
M  V30 521 C 47.5831 0.387998 -1.92325 0
M  V30 522 O 46.7081 1.27328 -1.74976 0
M  V30 523 C 47.3031 -1.896 -2.80779 0
M  V30 524 C 45.8621 -1.76124 -3.32652 0
M  V30 525 C 45.0091 -1.8594 -2.05722 0
M  V30 526 H 47.9601 -1.36374 -0.811662 0
M  V30 527 H 47.9811 -1.41464 -3.53225 0
M  V30 528 H 47.4931 -2.94101 -2.53231 0
M  V30 529 H 45.5941 -0.743643 -3.65104 0
M  V30 530 H 45.7071 -2.58913 -4.03114 0
M  V30 531 H 44.0711 -1.29403 -2.19379 0
M  V30 532 H 44.8541 -2.91976 -1.80568 0
M  V30 533 N 47.2992 1.18797 -1.03562 0
M  V30 534 C 48.7152 1.40671 -0.753917 0
M  V30 535 C 48.9152 1.9043 0.658686 0
M  V30 536 O 47.9712 2.08538 1.42366 0
M  V30 537 C 49.2842 2.41192 -1.79574 0
M  V30 538 C 50.8322 2.54928 -1.81606 0
M  V30 539 C 51.3072 3.58709 -2.84766 0
M  V30 540 N 52.7982 3.66212 -2.83625 0
M  V30 541 C 53.5332 4.46225 -3.60098 0
M  V30 542 N 53.0292 5.29888 -4.46308 0
M  V30 543 N 54.8222 4.40939 -3.4861 0
M  V30 544 H 46.9732 0.848221 -1.94728 0
M  V30 545 H 49.2362 0.435081 -0.842264 0
M  V30 546 H 48.9422 2.11669 -2.80872 0
M  V30 547 H 48.8162 3.40467 -1.62365 0
M  V30 548 H 51.2032 2.83771 -0.809817 0
M  V30 549 H 51.2842 1.55784 -2.02891 0
M  V30 550 H 50.9282 3.30607 -3.85566 0
M  V30 551 H 50.8582 4.57519 -2.60737 0
M  V30 552 H 53.3492 3.06466 -2.21105 0
M  V30 553 H 53.6622 5.88078 -5.01382 0
M  V30 554 H 52.0072 5.29326 -4.50377 0
M  V30 555 H 55.1982 3.74624 -2.80668 0
M  V30 556 H 55.3712 5.03056 -4.08459 0
M  V30 557 N 48.7773 0.814389 1.34928 0
M  V30 558 C 50.0053 0.411136 2.02774 0
M  V30 559 C 50.4203 -0.980316 1.61354 0
M  V30 560 O 49.7773 -1.63299 0.814847 0
M  V30 561 C 49.8283 0.493865 3.58111 0
M  V30 562 O 49.5493 1.83047 3.98027 0
M  V30 563 C 51.0503 0.0844174 4.4322 0
M  V30 564 H 48.2703 0.166037 0.650133 0
M  V30 565 H 50.8143 1.10018 1.72384 0
M  V30 566 H 48.9693 -0.147006 3.87121 0
M  V30 567 H 49.3833 1.79872 4.92693 0
M  V30 568 H 50.8573 0.193404 5.51661 0
M  V30 569 H 51.3343 -0.97113 4.28329 0
M  V30 570 H 51.9403 0.69875 4.19521 0
M  V30 571 N 50.2554 -1.46986 0.568584 0
M  V30 572 C 51.2034 -2.31858 -0.185649 0
M  V30 573 C 52.1974 -1.43624 -0.898249 0
M  V30 574 O 53.4034 -1.60327 -0.818242 0
M  V30 575 H 49.7784 -0.747866 -0.0787399 0
M  V30 576 H 51.7494 -2.93303 0.549191 0
M  V30 577 C 50.4984 -3.26513 -1.19519 0
M  V30 578 H 49.8214 -3.94377 -0.656285 0
M  V30 579 H 51.2614 -3.88707 -1.6936 0
M  V30 580 C 49.7204 -2.50847 -2.24894 0
M  V30 581 O 50.2504 -2.26119 -3.32014 0
M  V30 582 N 48.4564 -2.11656 -1.99124 0
M  V30 583 H 48.0034 -2.31966 -1.12024 0
M  V30 584 H 47.9614 -1.61347 -2.69842 0
M  V30 585 N 51.7335 -0.305618 -1.54608 0
M  V30 586 C 52.6805 0.568421 -2.23691 0
M  V30 587 C 53.6505 1.12592 -1.22116 0
M  V30 588 O 54.8355 1.16959 -1.50749 0
M  V30 589 C 51.9755 1.7322 -2.98477 0
M  V30 590 C 51.0885 1.20566 -4.14835 0
M  V30 591 C 50.2235 2.33368 -4.77193 0
M  V30 592 C 49.2625 1.7787 -5.85686 0
M  V30 593 N 48.3995 2.84263 -6.4198 0
M  V30 594 H 53.2395 -0.0272867 -2.97988 0
M  V30 595 H 50.7765 -0.0252363 -1.47078 0
M  V30 596 H 52.7345 2.41675 -3.40072 0
M  V30 597 H 51.3645 2.29947 -2.26548 0
M  V30 598 H 50.4165 0.413223 -3.78149 0
M  V30 599 H 51.7285 0.759417 -4.92985 0
M  V30 600 H 50.8825 3.09761 -5.21664 0
M  V30 601 H 49.6215 2.8132 -3.98385 0
M  V30 602 H 48.6265 0.99968 -5.40635 0
M  V30 603 H 49.8515 1.30816 -6.66381 0
M  V30 604 H 47.7975 3.31541 -5.66053 0
M  V30 605 H 47.7145 2.44149 -7.15491 0
M  V30 606 H 48.9825 3.6054 -6.91109 0
M  V30 607 N 53.2116 1.57565 -0.0334293 0
M  V30 608 C 54.4596 1.91598 0.642999 0
M  V30 609 C 54.7806 0.910847 1.7242 0
M  V30 610 O 54.0506 -0.0469931 1.95844 0
M  V30 611 H 52.6306 0.707228 0.240496 0
M  V30 612 H 55.2926 1.94726 -0.0822488 0
M  V30 613 H 54.3886 2.92336 1.09298 0
M  V30 614 N 54.6897 -0.239769 1.55765 0
M  V30 615 C 55.6227 -1.32356 1.85895 0
M  V30 616 C 56.6007 -1.46053 0.714662 0
M  V30 617 O 57.7847 -1.62154 0.961157 0
M  V30 618 C 54.9117 -2.6962 2.04994 0
M  V30 619 C 53.9577 -2.73036 3.27648 0
M  V30 620 S 54.7907 -2.28929 4.84099 0
M  V30 621 C 55.9467 -3.68103 5.06212 0
M  V30 622 H 56.1797 -1.06601 2.77531 0
M  V30 623 H 53.7127 -0.441112 1.47965 0
M  V30 624 H 55.6707 -3.48653 2.16682 0
M  V30 625 H 54.3317 -2.92609 1.14188 0
M  V30 626 H 53.5247 -3.7386 3.38 0
M  V30 627 H 53.1267 -2.02052 3.14723 0
M  V30 628 H 55.4187 -4.63656 4.93993 0
M  V30 629 H 56.3617 -3.6268 6.08168 0
M  V30 630 H 56.7697 -3.60947 4.34025 0
M  V30 631 N 56.1678 -1.49265 -0.50573 0
M  V30 632 C 57.1308 -1.65075 -1.59006 0
M  V30 633 C 58.1308 -0.522768 -1.52065 0
M  V30 634 O 59.3208 -0.789117 -1.55302 0
M  V30 635 C 56.4528 -1.64369 -2.98656 0
M  V30 636 H 57.6458 -2.61784 -1.46319 0
M  V30 637 H 55.1988 -1.38226 -0.729616 0
M  V30 638 H 55.9338 -0.692272 -3.16825 0
M  V30 639 H 55.7188 -2.46282 -3.05103 0
M  V30 640 H 57.2088 -1.78674 -3.77446 0
M  V30 641 N 57.6459 0.756429 -1.3826 0
M  V30 642 C 58.8929 1.51547 -1.34312 0
M  V30 643 C 59.2209 1.94382 0.0677144 0
M  V30 644 O 58.4759 1.65514 1.04421 0
M  V30 645 C 58.7749 2.78313 -2.24224 0
M  V30 646 C 58.4409 2.54455 -3.72241 0
M  V30 647 C 57.1029 2.47657 -4.12576 0
M  V30 648 C 59.4549 2.3354 -4.65949 0
M  V30 649 C 56.7829 2.17956 -5.44713 0
M  V30 650 C 59.1349 2.05359 -5.9834 0
M  V30 651 C 57.7989 1.97016 -6.37762 0
M  V30 652 H 57.0689 0.55455 -0.491482 0
M  V30 653 H 59.7159 0.870039 -1.70595 0
M  V30 654 H 58.0209 3.47492 -1.80987 0
M  V30 655 H 59.7179 3.36259 -2.18474 0
M  V30 656 H 56.3079 2.60616 -3.40261 0
M  V30 657 H 60.4919 2.37772 -4.35635 0
M  V30 658 H 55.7479 2.10003 -5.74203 0
M  V30 659 H 59.9219 1.88179 -6.70494 0
M  V30 660 H 57.5489 1.73766 -7.40074 0
M  V30 661 N 59.124 1.23083 0.984299 0
M  V30 662 C 60.352 1.08714 1.76037 0
M  V30 663 C 60.767 -0.361691 1.85303 0
M  V30 664 O 60.124 -1.25034 1.32939 0
M  V30 665 C 60.175 1.70206 3.18923 0
M  V30 666 O 59.896 3.09423 3.10144 0
M  V30 667 C 61.397 1.61227 4.12941 0
M  V30 668 H 58.617 0.380664 0.552572 0
M  V30 669 H 61.161 1.62853 1.23689 0
M  V30 670 H 59.316 1.20109 3.6831 0
M  V30 671 H 59.73 3.39188 4.00065 0
M  V30 672 H 61.204 2.08962 5.10919 0
M  V30 673 H 61.681 0.570375 4.35481 0
M  V30 674 H 62.287 2.10671 3.69456 0
M  V30 675 N 60.6021 -1.18246 1.0419 0
M  V30 676 C 61.5321 -2.24127 0.654914 0
M  V30 677 C 62.5131 -1.66617 -0.342451 0
M  V30 678 O 63.6981 -1.92924 -0.222277 0
M  V30 679 C 60.8281 -3.47295 0.0183757 0
M  V30 680 C 59.7821 -4.17563 0.939414 0
M  V30 681 C 59.1081 -5.34438 0.167286 0
M  V30 682 C 60.4081 -4.70917 2.25908 0
M  V30 683 H 62.1021 -2.56753 1.54007 0
M  V30 684 H 59.6481 -1.23414 0.74195 0
M  V30 685 H 61.6011 -4.20572 -0.264082 0
M  V30 686 H 60.3251 -3.13907 -0.901664 0
M  V30 687 H 58.9841 -3.46186 1.20628 0
M  V30 688 H 58.6321 -4.97298 -0.7552 0
M  V30 689 H 58.3321 -5.82388 0.780901 0
M  V30 690 H 59.8561 -6.10504 -0.108125 0
M  V30 691 H 61.2701 -5.35882 2.03724 0
M  V30 692 H 59.6671 -5.29406 2.82577 0
M  V30 693 H 60.7371 -3.88272 2.9047 0
M  V30 694 N 62.0802 -0.821533 -1.34494 0
M  V30 695 C 63.0122 -0.199946 -2.28326 0
M  V30 696 C 64.0252 0.609377 -1.50965 0
M  V30 697 O 65.2142 0.439285 -1.7301 0
M  V30 698 C 62.3142 0.738431 -3.30757 0
M  V30 699 C 61.4872 -0.0277632 -4.37391 0
M  V30 700 C 60.5462 0.831332 -5.19591 0
M  V30 701 O 59.5722 0.276822 -5.68526 0
M  V30 702 N 60.7742 2.15132 -5.39165 0
M  V30 703 H 63.5392 -1.00609 -2.82308 0
M  V30 704 H 61.1002 -0.678366 -1.47003 0
M  V30 705 H 63.0922 1.31773 -3.82646 0
M  V30 706 H 61.6622 1.44533 -2.7718 0
M  V30 707 H 60.8822 -0.788359 -3.86236 0
M  V30 708 H 62.1702 -0.555251 -5.05761 0
M  V30 709 H 61.5682 2.62559 -5.01078 0
M  V30 710 H 60.1252 2.6795 -5.94177 0
M  V30 711 N 63.5583 1.46682 -0.576371 0
M  V30 712 C 64.4683 2.34032 0.163141 0
M  V30 713 C 65.4843 1.49367 0.892501 0
M  V30 714 O 66.6603 1.82252 0.857106 0
M  V30 715 C 63.7253 3.26435 1.16795 0
M  V30 716 C 62.7863 4.26998 0.443944 0
M  V30 717 C 62.0193 5.14986 1.40088 0
M  V30 718 O 62.2423 5.05785 2.637 0
M  V30 719 O 61.1763 5.94906 0.914917 0
M  V30 720 H 65.0023 2.98607 -0.55388 0
M  V30 721 H 62.5873 1.45554 -0.336821 0
M  V30 722 H 64.4693 3.83459 1.74748 0
M  V30 723 H 63.1443 2.64465 1.86655 0
M  V30 724 H 62.0513 3.7368 -0.177271 0
M  V30 725 H 63.3843 4.91736 -0.213566 0
M  V30 726 N 65.0364 0.313813 1.54444 0
M  V30 727 C 66.4524 -0.0391619 1.59552 0
M  V30 728 C 66.6524 -1.51322 1.33056 0
M  V30 729 O 65.7084 -2.26782 1.11022 0
M  V30 730 C 67.0214 0.370302 2.98411 0
M  V30 731 C 68.5694 0.320139 3.11358 0
M  V30 732 C 69.0444 0.704617 4.52547 0
M  V30 733 N 70.5354 0.657645 4.58508 0
M  V30 734 C 71.2704 0.927453 5.6585 0
M  V30 735 N 70.7664 1.26389 6.81174 0
M  V30 736 N 72.5594 0.853662 5.5558 0
M  V30 737 H 64.7104 1.27433 1.69925 0
M  V30 738 H 66.9734 0.517511 0.794284 0
M  V30 739 H 66.6794 1.39694 3.22767 0
M  V30 740 H 66.5534 -0.269619 3.76235 0
M  V30 741 H 68.9404 -0.697275 2.86744 0
M  V30 742 H 69.0214 0.99486 2.35661 0
M  V30 743 H 68.6654 1.7199 4.77893 0
M  V30 744 H 68.5954 0.00768843 5.26599 0
M  V30 745 H 71.0864 0.409067 3.75679 0
M  V30 746 H 71.3994 1.4554 7.58972 0
M  V30 747 H 69.7444 1.30206 6.82694 0
M  V30 748 H 72.9354 0.590383 4.64362 0
M  V30 749 H 73.1084 1.0673 6.3915 0
M  V30 750 N 66.5145 -1.57545 0.0417849 0
M  V30 751 C 67.4465 -2.07904 -0.964799 0
M  V30 752 C 68.4595 -1.00497 -1.28079 0
M  V30 753 O 69.6485 -1.28087 -1.24322 0
M  V30 754 C 66.7485 -2.49928 -2.28887 0
M  V30 755 C 65.9215 -3.80562 -2.15619 0
M  V30 756 C 64.9805 -4.08999 -3.31069 0
M  V30 757 O 64.0065 -4.79061 -3.0739 0
M  V30 758 N 65.2085 -3.6017 -4.55256 0
M  V30 759 H 67.9735 -2.94886 -0.535029 0
M  V30 760 H 65.5345 -1.61252 -0.144681 0
M  V30 761 H 67.5265 -2.66034 -3.04972 0
M  V30 762 H 66.0965 -1.68245 -2.63463 0
M  V30 763 H 65.3165 -3.74129 -1.24183 0
M  V30 764 H 66.6045 -4.66126 -2.03971 0
M  V30 765 H 66.0025 -3.03512 -4.77386 0
M  V30 766 H 64.5595 -3.81532 -5.28466 0
M  V30 767 N 67.9926 0.231505 -1.5589 0
M  V30 768 C 68.9256 1.31369 -1.86595 0
M  V30 769 C 69.9036 1.45671 -0.722397 0
M  V30 770 O 71.0876 1.61642 -0.969743 0
M  V30 771 C 68.2146 2.68529 -2.06421 0
M  V30 772 C 67.2606 2.71295 -3.29092 0
M  V30 773 S 68.0936 2.26358 -4.85306 0
M  V30 774 C 69.2496 3.65414 -5.08157 0
M  V30 775 H 69.4826 1.05128 -2.78092 0
M  V30 776 H 67.0156 0.433259 -1.48197 0
M  V30 777 H 68.9736 3.47499 -2.18528 0
M  V30 778 H 67.6346 2.91999 -1.15738 0
M  V30 779 H 66.8276 3.72063 -3.39978 0
M  V30 780 H 66.4296 2.0038 -3.15791 0
M  V30 781 H 68.7216 4.6103 -4.96445 0
M  V30 782 H 69.6646 3.5945 -6.10083 0
M  V30 783 H 70.0726 3.5864 -4.35933 0
M  V30 784 N 69.4707 1.49531 0.497807 0
M  V30 785 C 70.4007 1.6935 1.60757 0
M  V30 786 C 71.3817 0.542218 1.61227 0
M  V30 787 O 72.5667 0.778417 1.77917 0
M  V30 788 C 69.6967 1.76298 2.99226 0
M  V30 789 C 68.6507 2.91248 3.13622 0
M  V30 790 C 67.9767 2.83312 4.53474 0
M  V30 791 C 69.2767 4.3214 2.93346 0
M  V30 792 H 70.9707 2.62263 1.44425 0
M  V30 793 H 68.5167 1.26208 0.693367 0
M  V30 794 H 70.4697 1.88749 3.76765 0
M  V30 795 H 69.1937 0.799871 3.16654 0
M  V30 796 H 67.8527 2.78404 2.38509 0
M  V30 797 H 67.5007 1.84902 4.67782 0
M  V30 798 H 67.2007 3.60465 4.64046 0
M  V30 799 H 68.7247 2.97775 5.33069 0
M  V30 800 H 70.1387 4.45649 3.60652 0
M  V30 801 H 68.5357 5.1054 3.15387 0
M  V30 802 H 69.6057 4.46363 1.89441 0
M  V30 803 N 70.9488 -0.749086 1.3866 0
M  V30 804 C 72.1968 -1.50535 1.34847 0
M  V30 805 C 72.5178 -1.94909 -0.0595016 0
M  V30 806 O 71.7878 -1.67973 -1.00806 0
M  V30 807 H 70.3678 -0.558395 0.49619 0
M  V30 808 H 73.0298 -0.890165 1.73384 0
M  V30 809 H 72.1258 -2.39413 2.00219 0
M  V30 810 N 72.4269 -1.23603 -0.977757 0
M  V30 811 C 73.3569 -1.04401 -2.0886 0
M  V30 812 C 74.3379 0.0399052 -1.70053 0
M  V30 813 O 75.5229 -0.125246 -1.93796 0
M  V30 814 C 72.6529 -0.637269 -3.41403 0
M  V30 815 C 71.6069 -1.66883 -3.94124 0
M  V30 816 C 70.9329 -1.11745 -5.22893 0
M  V30 817 C 72.2329 -3.06247 -4.23096 0
M  V30 818 H 73.9269 -1.97316 -2.25182 0
M  V30 819 H 71.4729 -0.950096 -1.08209 0
M  V30 820 H 73.4259 -0.48998 -4.18542 0
M  V30 821 H 72.1499 0.327557 -3.24953 0
M  V30 822 H 70.8089 -1.80416 -3.19133 0
M  V30 823 H 70.4569 -0.143527 -5.02795 0
M  V30 824 H 70.1569 -1.80672 -5.59134 0
M  V30 825 H 71.6809 -0.982067 -6.02651 0
M  V30 826 H 73.0949 -2.96001 -4.90975 0
M  V30 827 H 71.4919 -3.72436 -4.70544 0
M  V30 828 H 72.5619 -3.55041 -3.30263 0
M  V30 829 N 73.905 1.17692 -1.04816 0
M  V30 830 C 74.837 2.21103 -0.603822 0
M  V30 831 C 75.85 1.59411 0.33046 0
M  V30 832 O 77.039 1.7807 0.12379 0
M  V30 833 C 74.139 3.38623 0.136898 0
M  V30 834 C 73.312 4.29888 -0.807137 0
M  V30 835 C 72.371 5.26088 -0.10836 0
M  V30 836 O 71.397 5.64353 -0.741232 0
M  V30 837 N 72.599 5.68882 1.15558 0
M  V30 838 H 75.364 2.59848 -1.49329 0
M  V30 839 H 72.925 1.32553 -0.929587 0
M  V30 840 H 74.917 4.00009 0.614401 0
M  V30 841 H 73.487 2.98508 0.927993 0
M  V30 842 H 72.707 3.65993 -1.46434 0
M  V30 843 H 73.995 4.87759 -1.44807 0
M  V30 844 H 73.393 5.39861 1.69015 0
M  V30 845 H 71.95 6.32429 1.57722 0
M  V30 846 N 75.3831 0.828654 1.34056 0
M  V30 847 C 76.6311 0.41863 1.97717 0
M  V30 848 C 76.9521 -1.02314 1.66002 0
M  V30 849 O 76.2221 -1.71119 0.953683 0
M  V30 850 H 74.8021 0.151809 0.731412 0
M  V30 851 H 77.4641 1.05936 1.63596 0
M  V30 852 H 76.5601 0.542318 3.07352 0
M  V30 853 N 76.8612 -1.46375 0.584142 0
M  V30 854 C 77.7912 -2.33103 -0.136037 0
M  V30 855 C 78.7722 -1.45431 -0.882255 0
M  V30 856 O 79.9572 -1.74246 -0.857434 0
M  V30 857 C 77.0872 -3.27731 -1.14933 0
M  V30 858 C 76.0412 -4.24855 -0.517862 0
M  V30 859 C 75.3672 -5.09001 -1.63773 0
M  V30 860 C 76.6672 -5.19439 0.545886 0
M  V30 861 H 78.3612 -2.93568 0.588086 0
M  V30 862 H 75.9072 -1.41166 0.284259 0
M  V30 863 H 77.8602 -3.87261 -1.66153 0
M  V30 864 H 76.5842 -2.65377 -1.90375 0
M  V30 865 H 75.2432 -3.6659 -0.0267361 0
M  V30 866 H 74.8912 -4.43031 -2.38185 0
M  V30 867 H 74.5912 -5.74777 -1.22085 0
M  V30 868 H 76.1152 -5.71396 -2.15266 0
M  V30 869 H 77.5292 -5.73177 0.118704 0
M  V30 870 H 75.9262 -5.93566 0.88317 0
M  V30 871 H 76.9962 -4.63285 1.43162 0
M  V30 872 N 78.3393 -0.321999 -1.54275 0
M  V30 873 C 79.2693 0.537411 -2.27231 0
M  V30 874 C 80.2503 1.12064 -1.27968 0
M  V30 875 O 81.4353 1.14606 -1.56777 0
M  V30 876 C 78.5653 1.69919 -3.02894 0
M  V30 877 C 77.5193 1.24534 -4.09482 0
M  V30 878 C 76.8453 2.49394 -4.72977 0
M  V30 879 C 78.1453 0.361335 -5.21049 0
M  V30 880 H 79.8393 -0.0711406 -2.99315 0
M  V30 881 H 77.3853 -0.0356555 -1.43956 0
M  V30 882 H 79.3383 2.30668 -3.52662 0
M  V30 883 H 78.0623 2.33431 -2.28424 0
M  V30 884 H 76.7213 0.660782 -3.60596 0
M  V30 885 H 76.3693 3.11265 -3.95124 0
M  V30 886 H 76.0693 2.19718 -5.44975 0
M  V30 887 H 77.5933 3.10908 -5.25517 0
M  V30 888 H 79.0073 0.875072 -5.66582 0
M  V30 889 H 77.4043 0.157428 -5.99893 0
M  V30 890 H 78.4743 -0.60822 -4.8107 0
M  V30 891 N 79.8174 1.5752 -0.0501392 0
M  V30 892 C 81.2284 1.80271 0.485705 0
M  V30 893 C 81.5794 0.96228 1.70981 0
M  V30 894 O 80.7044 0.178578 2.15662 0
M  V30 895 C 81.2994 3.26957 0.887938 0
M  V30 896 C 79.8584 3.5063 1.36877 0
M  V30 897 C 79.0054 2.75165 0.343468 0
M  V30 898 H 81.9564 1.56281 -0.276028 0
M  V30 899 H 81.9774 3.37821 1.75093 0
M  V30 900 H 81.4894 3.881 -0.0031809 0
M  V30 901 H 79.5904 2.94766 2.27911 0
M  V30 902 H 79.7034 4.59343 1.36164 0
M  V30 903 H 78.0674 2.4127 0.816128 0
M  V30 904 H 78.8504 3.39034 -0.539548 0
M  V30 905 N 81.2955 -0.223234 1.56011 0
M  V30 906 C 82.7065 -0.790368 1.69145 0
M  V30 907 C 83.0575 -1.85055 0.651845 0
M  V30 908 O 82.1825 -2.15498 -0.197359 0
M  V30 909 C 82.7775 -1.4404 3.06656 0
M  V30 910 C 81.3365 -1.95494 3.2165 0
M  V30 911 C 80.4835 -0.814506 2.65068 0
M  V30 912 H 83.4345 0.00139011 1.587 0
M  V30 913 H 83.4555 -2.30916 3.0242 0
M  V30 914 H 82.9675 -0.668543 3.82298 0
M  V30 915 H 81.0685 -2.75487 2.50874 0
M  V30 916 H 81.1815 -2.13607 4.28846 0
M  V30 917 H 79.5455 -1.22137 2.23505 0
M  V30 918 H 80.3285 -0.0553515 3.43255 0
M  V30 919 N 82.7736 -1.49793 -0.48987 0
M  V30 920 C 83.7206 -1.67281 -1.59014 0
M  V30 921 C 84.6906 -0.514177 -1.57941 0
M  V30 922 O 85.8756 -0.742533 -1.75759 0
M  V30 923 C 83.0156 -1.75569 -2.97102 0
M  V30 924 C 82.1286 -3.0281 -3.08107 0
M  V30 925 C 81.2636 -3.02008 -4.36995 0
M  V30 926 C 80.3026 -4.23782 -4.41673 0
M  V30 927 N 79.4396 -4.20826 -5.62005 0
M  V30 928 H 84.2796 -2.61224 -1.43409 0
M  V30 929 H 81.8166 -1.29508 -0.697565 0
M  V30 930 H 83.7746 -1.78354 -3.77155 0
M  V30 931 H 82.4046 -0.850827 -3.11385 0
M  V30 932 H 81.4566 -3.09584 -2.21047 0
M  V30 933 H 82.7686 -3.92801 -3.07423 0
M  V30 934 H 81.9226 -3.03418 -5.25378 0
M  V30 935 H 80.6616 -2.09815 -4.4026 0
M  V30 936 H 79.6666 -4.22604 -3.5169 0
M  V30 937 H 80.8916 -5.17181 -4.40115 0
M  V30 938 H 78.8376 -3.31476 -5.66091 0
M  V30 939 H 78.7546 -5.04564 -5.62984 0
M  V30 940 H 80.0226 -4.26355 -6.52565 0
M  V30 941 N 84.2517 0.741722 -1.39055 0
M  V30 942 C 85.5007 1.49656 -1.35225 0
M  V30 943 C 85.8137 1.95533 0.0512708 0
M  V30 944 O 87.0197 2.7067 0.212138 0
M  V30 945 C 85.4757 2.70389 -2.37525 0
M  V30 946 C 85.0837 2.31489 -3.83558 0
M  V30 947 C 86.8277 3.48236 -2.42759 0
M  V30 948 C 84.7347 3.48903 -4.77515 0
M  V30 949 H 83.6647 0.56197 -0.502699 0
M  V30 950 H 86.3157 0.809727 -1.64668 0
M  V30 951 H 84.6977 3.41113 -2.01142 0
M  V30 952 H 85.8717 1.68354 -4.28945 0
M  V30 953 H 84.1867 1.66749 -3.81554 0
M  V30 954 H 86.7837 4.35558 -3.1015 0
M  V30 955 H 87.1267 3.90229 -1.45008 0
M  V30 956 H 87.6597 2.84535 -2.78002 0
M  V30 957 H 84.3987 3.11966 -5.76504 0
M  V30 958 H 83.9187 4.11041 -4.36813 0
M  V30 959 H 85.5977 4.15328 -4.96096 0
M  V30 960 N 85.7298 1.2412 0.971189 0
M  V30 961 C 86.6398 1.04747 2.09917 0
M  V30 962 C 87.6558 -0.0107162 1.73997 0
M  V30 963 O 88.8318 0.186714 2.00533 0
M  V30 964 C 85.8968 0.650828 3.40537 0
M  V30 965 C 84.9578 1.7851 3.90426 0
M  V30 966 C 84.1908 1.40729 5.14812 0
M  V30 967 O 84.4138 0.29557 5.69634 0
M  V30 968 O 83.3478 2.23168 5.58999 0
M  V30 969 H 87.1738 1.99304 2.29154 0
M  V30 970 H 84.7588 1.02908 1.08307 0
M  V30 971 H 86.6408 0.440992 4.19086 0
M  V30 972 H 85.3158 -0.265649 3.22608 0
M  V30 973 H 84.2228 2.04966 3.12953 0
M  V30 974 H 85.5558 2.68023 4.12825 0
M  V30 975 N 87.2079 -1.17134 1.05439 0
M  V30 976 C 88.4359 -1.91372 0.786414 0
M  V30 977 C 88.8509 -1.76955 -0.658202 0
M  V30 978 O 88.2079 -1.10838 -1.44987 0
M  V30 979 C 88.2589 -3.42356 1.1608 0
M  V30 980 O 87.9799 -3.56332 2.54871 0
M  V30 981 C 89.4809 -4.33663 0.919322 0
M  V30 982 H 86.7009 -0.607118 0.285743 0
M  V30 983 H 89.2449 -1.48525 1.40572 0
M  V30 984 H 87.3999 -3.82939 0.586191 0
M  V30 985 H 87.8139 -4.49896 2.69618 0
M  V30 986 H 89.2879 -5.38099 1.231 0
M  V30 987 H 89.7649 -4.38959 -0.145359 0
M  V30 988 H 90.3709 -3.98796 1.47789 0
M  V30 989 N 88.686 -0.835752 -1.33615 0
M  V30 990 C 89.618 -0.224151 -2.28101 0
M  V30 991 C 90.631 0.593331 -1.51603 0
M  V30 992 O 91.82 0.420911 -1.73466 0
M  V30 993 C 88.92 0.703309 -3.31522 0
M  V30 994 C 88.093 -0.0741528 -4.37337 0
M  V30 995 C 87.152 0.776176 -5.20444 0
M  V30 996 O 86.178 0.216506 -5.68788 0
M  V30 997 N 87.38 2.09401 -5.41416 0
M  V30 998 H 90.145 -1.03598 -2.81225 0
M  V30 999 H 87.706 -0.69392 -1.46275 0
M  V30 1000 H 89.698 1.27707 -3.84022 0
M  V30 1001 H 88.268 1.41585 -2.78698 0
M  V30 1002 H 87.488 -0.82928 -3.85378 0
M  V30 1003 H 88.776 -0.608863 -5.05144 0
M  V30 1004 H 88.174 2.57229 -5.03835 0
M  V30 1005 H 86.731 2.61633 -5.96985 0
M  V30 1006 N 90.1641 1.46063 -0.591896 0
M  V30 1007 C 91.4411 1.95595 -0.0137119 0
M  V30 1008 C 91.8211 1.5345 1.4497 0
M  V30 1009 O 91.1691 0.789543 2.14426 0
M  V30 1010 C 91.3791 3.48453 -0.195373 0
M  V30 1011 C 92.7271 4.24546 -0.0679765 0
M  V30 1012 O 93.7511 3.55982 -0.124681 0
M  V30 1013 O 92.6101 5.46467 0.0600579 0
M  V30 1014 H 89.7041 0.825795 0.0446279 0
M  V30 1015 H 92.2501 1.56303 -0.660859 0
M  V30 1016 H 91.0221 3.72045 -1.21235 0
M  V30 1017 H 90.6451 3.94597 0.487775 0
M  V30 1018 N 91.6422 0.330177 1.54103 0
M  V30 1019 C 92.8912 -0.271336 1.99867 0
M  V30 1020 C 93.2042 -1.52723 1.22209 0
M  V30 1021 O 94.4102 -2.20515 1.58383 0
M  V30 1022 C 92.8662 -0.534032 3.55916 0
M  V30 1023 C 92.4742 0.705193 4.42415 0
M  V30 1024 C 94.2182 -1.09514 4.1013 0
M  V30 1025 C 92.1252 0.414035 5.89949 0
M  V30 1026 H 91.0552 -0.105166 0.74663 0
M  V30 1027 H 93.7062 0.443429 1.78062 0
M  V30 1028 H 92.0882 -1.30915 3.73734 0
M  V30 1029 H 93.2622 1.4804 4.36372 0
M  V30 1030 H 91.5772 1.18698 3.99124 0
M  V30 1031 H 94.1742 -1.3277 5.17954 0
M  V30 1032 H 94.5172 -2.04656 3.62521 0
M  V30 1033 H 95.0502 -0.381038 3.95971 0
M  V30 1034 H 91.7892 1.33481 6.41766 0
M  V30 1035 H 91.3092 -0.323336 5.98928 0
M  V30 1036 H 92.9882 0.0263105 6.46995 0
M  V30 1037 N 93.1203 -1.57491 0.0584922 0
M  V30 1038 C 94.0523 -2.08916 -0.942694 0
M  V30 1039 C 95.0653 -1.0185 -1.27006 0
M  V30 1040 O 96.2543 -1.29398 -1.22957 0
M  V30 1041 C 93.3543 -2.52341 -2.26224 0
M  V30 1042 C 92.5273 -3.82827 -2.1157 0
M  V30 1043 C 91.5863 -4.12487 -3.26712 0
M  V30 1044 O 90.6123 -4.82295 -3.02292 0
M  V30 1045 N 91.8143 -3.64978 -4.5141 0
M  V30 1046 H 94.5793 -2.95437 -0.503722 0
M  V30 1047 H 92.1403 -1.61397 -0.12757 0
M  V30 1048 H 94.1323 -2.69254 -3.02133 0
M  V30 1049 H 92.7023 -1.7103 -2.61663 0
M  V30 1050 H 91.9223 -3.75425 -1.20208 0
M  V30 1051 H 93.2103 -4.68263 -1.99015 0
M  V30 1052 H 92.6083 -3.08558 -4.7414 0
M  V30 1053 H 91.1653 -3.87115 -5.2439 0
M  V30 1054 N 94.5984 0.214957 -1.56127 0
M  V30 1055 C 95.5614 1.24997 -1.92116 0
M  V30 1056 C 96.5614 1.39467 -0.800344 0
M  V30 1057 O 97.7514 1.37619 -1.06802 0
M  V30 1058 C 94.8834 2.62271 -2.17777 0
M  V30 1059 H 96.0764 0.942875 -2.84693 0
M  V30 1060 H 93.6294 0.455654 -1.49511 0
M  V30 1061 H 94.3644 2.98068 -1.27773 0
M  V30 1062 H 94.1494 2.53143 -2.99434 0
M  V30 1063 H 95.6394 3.36946 -2.46693 0
M  V30 1064 N 96.0765 1.50051 0.48192 0
M  V30 1065 C 97.0065 1.71046 1.58951 0
M  V30 1066 C 97.9875 0.559288 1.60642 0
M  V30 1067 O 99.1725 0.797243 1.77081 0
M  V30 1068 C 96.3025 1.79462 2.97339 0
M  V30 1069 C 95.2565 2.94558 3.10515 0
M  V30 1070 C 94.5825 2.88105 4.50444 0
M  V30 1071 C 95.8825 4.35227 2.88747 0
M  V30 1072 H 97.5765 2.6378 1.41635 0
M  V30 1073 H 95.1225 1.26936 0.679942 0
M  V30 1074 H 97.0755 1.92734 3.74742 0
M  V30 1075 H 95.7995 0.833412 3.15788 0
M  V30 1076 H 94.4585 2.80918 2.35543 0
M  V30 1077 H 94.1065 1.89853 4.65795 0
M  V30 1078 H 93.8065 3.65366 4.60197 0
M  V30 1079 H 95.3305 3.03412 5.29881 0
M  V30 1080 H 96.7445 4.49449 3.55905 0
M  V30 1081 H 95.1415 5.13856 3.09955 0
M  V30 1082 H 96.2115 4.48347 1.84696 0
M  V30 1083 N 97.5546 -0.734337 1.39446 0
M  V30 1084 C 98.9706 -1.03997 1.21065 0
M  V30 1085 C 99.1706 -2.01369 0.0727019 0
M  V30 1086 O 98.2266 -2.45856 -0.575426 0
M  V30 1087 C 99.5396 -1.60163 2.54496 0
M  V30 1088 C 101.088 -1.7224 2.61347 0
M  V30 1089 C 101.563 -2.31814 3.95002 0
M  V30 1090 N 103.054 -2.39223 3.96644 0
M  V30 1091 C 103.789 -2.86258 4.96834 0
M  V30 1092 N 103.285 -3.33184 6.07421 0
M  V30 1093 N 105.078 -2.85473 4.84213 0
M  V30 1094 H 97.2286 -0.0885624 2.12215 0
M  V30 1095 H 99.4916 -0.10191 0.942506 0
M  V30 1096 H 99.1976 -0.960811 3.38321 0
M  V30 1097 H 99.0716 -2.5896 2.74262 0
M  V30 1098 H 101.459 -2.35443 1.77906 0
M  V30 1099 H 101.54 -0.720939 2.4543 0
M  V30 1100 H 101.184 -1.69238 4.78875 0
M  V30 1101 H 101.114 -3.32638 4.08239 0
M  V30 1102 H 103.605 -2.06057 3.16779 0
M  V30 1103 H 103.918 -3.67586 6.7978 0
M  V30 1104 H 102.263 -3.31191 6.11013 0
M  V30 1105 H 105.454 -2.48136 3.96921 0
M  V30 1106 H 105.627 -3.21814 5.62441 0
M  V30 1107 N 99.0327 -1.24633 -0.964593 0
M  V30 1108 C 100.28 -1.08788 -1.70796 0
M  V30 1109 C 100.608 0.372783 -1.90894 0
M  V30 1110 O 99.8627 1.29167 -1.47018 0
M  V30 1111 C 100.162 -1.7763 -3.10133 0
M  V30 1112 C 99.8277 -3.27557 -3.09866 0
M  V30 1113 C 98.4897 -3.6846 -3.09501 0
M  V30 1114 C 100.842 -4.23389 -3.03959 0
M  V30 1115 C 98.1697 -5.03624 -3.00965 0
M  V30 1116 C 100.522 -5.58565 -2.96965 0
M  V30 1117 C 99.1857 -5.98809 -2.9493 0
M  V30 1118 H 98.4557 -0.398084 -0.624988 0
M  V30 1119 H 101.103 -1.54777 -1.12767 0
M  V30 1120 H 99.4077 -1.24044 -3.71645 0
M  V30 1121 H 101.105 -1.62832 -3.66451 0
M  V30 1122 H 97.6947 -2.95006 -3.10917 0
M  V30 1123 H 101.879 -3.92787 -3.03368 0
M  V30 1124 H 97.1347 -5.33998 -2.97752 0
M  V30 1125 H 101.309 -6.32523 -2.91354 0
M  V30 1126 H 98.9357 -7.03505 -2.88071 0
M  V30 1127 N 100.511 1.16574 -1.06058 0
M  V30 1128 C 101.461 2.18854 -0.63929 0
M  V30 1129 C 102.445 1.57505 0.328798 0
M  V30 1130 O 103.637 1.76408 0.144623 0
M  V30 1131 C 100.766 3.43291 -0.0247203 0
M  V30 1132 C 99.8518 4.11722 -1.01716 0
M  V30 1133 N 100.243 4.55841 -2.19186 0
M  V30 1134 C 98.5408 4.37872 -0.847569 0
M  V30 1135 C 99.2418 5.08751 -2.82042 0
M  V30 1136 N 98.2178 5.01489 -2.09784 0
M  V30 1137 H 102.02 2.5068 -1.53417 0
M  V30 1138 H 99.5338 1.32999 -0.931935 0
M  V30 1139 H 101.531 4.15856 0.294915 0
M  V30 1140 H 100.191 3.12954 0.865448 0
M  V30 1141 H 101.202 4.49649 -2.56975 0
M  V30 1142 H 97.8788 4.17499 -0.00918848 0
M  V30 1143 H 99.2688 5.52944 -3.81709 0
M  V30 1144 N 101.989 0.842826 1.3317 0
M  V30 1145 C 103.405 0.531128 1.50503 0
M  V30 1146 C 103.605 -0.940734 1.78192 0
M  V30 1147 O 102.661 -1.72436 1.84451 0
M  V30 1148 C 103.974 1.40789 2.65705 0
M  V30 1149 C 105.522 1.40708 2.79589 0
M  V30 1150 C 105.997 2.26878 3.97857 0
M  V30 1151 N 107.488 2.24609 4.05099 0
M  V30 1152 C 108.223 2.88019 4.95815 0
M  V30 1153 N 107.719 3.60496 5.9162 0
M  V30 1154 N 109.512 2.77469 4.88843 0
M  V30 1155 H 101.663 1.79557 1.1346 0
M  V30 1156 H 103.926 0.766267 0.558156 0
M  V30 1157 H 103.632 2.454 2.51936 0
M  V30 1158 H 103.506 1.08677 3.61205 0
M  V30 1159 H 105.893 0.368668 2.92788 0
M  V30 1160 H 105.974 1.76829 1.84838 0
M  V30 1161 H 105.618 3.3078 3.85418 0
M  V30 1162 H 105.548 1.88096 4.91861 0
M  V30 1163 H 108.039 1.71906 3.36536 0
M  V30 1164 H 108.352 4.06076 6.57512 0
M  V30 1165 H 106.697 3.64604 5.91683 0
M  V30 1166 H 109.888 2.20406 4.12963 0
M  V30 1167 H 110.061 3.2717 5.59342 0
M  V30 1168 N 103.467 -1.45747 0.599634 0
M  V30 1169 C 104.415 -2.322 -0.136426 0
M  V30 1170 C 105.409 -1.45497 -0.867583 0
M  V30 1171 O 106.615 -1.62027 -0.78405 0
M  V30 1172 H 102.99 -0.749368 -0.0628588 0
M  V30 1173 H 104.961 -2.92072 0.611281 0
M  V30 1174 C 103.71 -3.28974 -1.12567 0
M  V30 1175 H 103.033 -3.9568 -0.572484 0
M  V30 1176 H 104.473 -3.92212 -1.61077 0
M  V30 1177 C 102.932 -2.55561 -2.19523 0
M  V30 1178 O 103.462 -2.33111 -3.27143 0
M  V30 1179 N 101.668 -2.15832 -1.94589 0
M  V30 1180 H 101.215 -2.3429 -1.07078 0
M  V30 1181 H 101.173 -1.67034 -2.66359 0
M  V30 1182 N 104.945 -0.338344 -1.53925 0
M  V30 1183 C 105.875 0.51328 -2.27789 0
M  V30 1184 C 106.856 1.107 -1.29149 0
M  V30 1185 O 108.041 1.12937 -1.57984 0
M  V30 1186 C 105.171 1.66697 -3.04679 0
M  V30 1187 C 104.125 1.20183 -4.1078 0
M  V30 1188 C 103.451 2.44363 -4.75595 0
M  V30 1189 C 104.751 0.30605 -5.21403 0
M  V30 1190 H 106.445 -0.102883 -2.99223 0
M  V30 1191 H 103.991 -0.0509219 -1.4391 0
M  V30 1192 H 105.944 2.26915 -3.55088 0
M  V30 1193 H 104.668 2.30995 -2.30887 0
M  V30 1194 H 103.327 0.622499 -3.61276 0
M  V30 1195 H 102.975 3.07057 -3.98403 0
M  V30 1196 H 102.675 2.13925 -5.47275 0
M  V30 1197 H 104.199 3.05317 -5.28786 0
M  V30 1198 H 105.613 0.814929 -5.67478 0
M  V30 1199 H 104.01 0.0937929 -6.00027 0
M  V30 1200 H 105.08 -0.65921 -4.80398 0
M  V30 1201 N 106.423 1.57458 -0.0668435 0
M  V30 1202 C 107.37 2.12439 0.902122 0
M  V30 1203 C 108.34 1.03565 1.2986 0
M  V30 1204 O 109.525 1.312 1.38532 0
M  V30 1205 C 106.665 2.6865 2.16614 0
M  V30 1206 C 105.778 3.91663 1.82274 0
M  V30 1207 C 104.913 4.36134 3.0325 0
M  V30 1208 C 103.952 5.51808 2.64904 0
M  V30 1209 N 103.089 5.9126 3.78624 0
M  V30 1210 H 107.929 2.94934 0.426382 0
M  V30 1211 H 105.466 1.4575 0.198819 0
M  V30 1212 H 107.424 2.99346 2.90599 0
M  V30 1213 H 106.054 1.88928 2.61737 0
M  V30 1214 H 105.106 3.6746 0.983719 0
M  V30 1215 H 106.418 4.75693 1.50059 0
M  V30 1216 H 105.572 4.68465 3.85519 0
M  V30 1217 H 104.311 3.50948 3.38655 0
M  V30 1218 H 103.316 5.19133 1.81055 0
M  V30 1219 H 104.541 6.38722 2.30675 0
M  V30 1220 H 102.487 5.09024 4.138 0
M  V30 1221 H 102.404 6.70018 3.5016 0
M  V30 1222 H 103.672 6.28212 4.61486 0
M  V30 1223 N 107.901 -0.206675 1.56239 0
M  V30 1224 C 108.848 -1.25617 1.93621 0
M  V30 1225 C 109.818 -1.45824 0.795274 0
M  V30 1226 O 111.003 -1.59148 1.05245 0
M  V30 1227 C 108.143 -2.59839 2.27107 0
M  V30 1228 C 107.256 -2.47308 3.54207 0
M  V30 1229 C 106.391 -3.74155 3.7707 0
M  V30 1230 C 105.43 -3.56407 4.97635 0
M  V30 1231 N 104.567 -4.75238 5.1681 0
M  V30 1232 H 109.407 -0.930383 2.83104 0
M  V30 1233 H 106.944 -0.448065 1.4011 0
M  V30 1234 H 108.902 -3.38021 2.44535 0
M  V30 1235 H 107.532 -2.90485 1.40778 0
M  V30 1236 H 106.584 -1.60483 3.4489 0
M  V30 1237 H 107.896 -2.30122 4.42544 0
M  V30 1238 H 107.05 -4.60778 3.94675 0
M  V30 1239 H 105.789 -3.94282 2.87042 0
M  V30 1240 H 104.794 -2.68168 4.79964 0
M  V30 1241 H 106.019 -3.37736 5.89161 0
M  V30 1242 H 103.965 -4.95651 4.29728 0
M  V30 1243 H 103.882 -4.60835 5.99306 0
M  V30 1244 H 105.15 -5.63246 5.38864 0
M  V30 1245 N 109.379 -1.50304 -0.473955 0
M  V30 1246 C 110.312 -1.63595 -1.59097 0
M  V30 1247 C 111.29 -0.484142 -1.55225 0
M  V30 1248 O 112.474 -0.703271 -1.7489 0
M  V30 1249 C 109.601 -1.61589 -2.97669 0
M  V30 1250 C 108.647 -2.82295 -3.19705 0
M  V30 1251 S 109.48 -4.43635 -2.99913 0
M  V30 1252 C 110.636 -4.44317 -4.40832 0
M  V30 1253 H 110.869 -2.58082 -1.47583 0
M  V30 1254 H 108.402 -1.39531 -0.661087 0
M  V30 1255 H 110.36 -1.61116 -3.7756 0
M  V30 1256 H 109.021 -0.683421 -3.06575 0
M  V30 1257 H 108.214 -2.77188 -4.20931 0
M  V30 1258 H 107.816 -2.8032 -2.47582 0
M  V30 1259 H 110.108 -4.17703 -5.33414 0
M  V30 1260 H 111.051 -5.45911 -4.50984 0
M  V30 1261 H 111.459 -3.74059 -4.22777 0
M  V30 1262 N 110.857 0.726932 -1.39834 0
M  V30 1263 C 112.085 1.51613 -1.40787 0
M  V30 1264 C 112.5 1.88799 -0.00451505 0
M  V30 1265 O 111.857 1.54662 0.968809 0
M  V30 1266 C 111.908 2.79863 -2.28821 0
M  V30 1267 O 111.629 2.44253 -3.63692 0
M  V30 1268 C 113.13 3.73837 -2.38245 0
M  V30 1269 H 110.35 0.468264 -0.480593 0
M  V30 1270 H 112.894 0.897607 -1.83748 0
M  V30 1271 H 111.049 3.38027 -1.89252 0
M  V30 1272 H 111.463 3.26695 -4.1033 0
M  V30 1273 H 112.937 4.60699 -3.04073 0
M  V30 1274 H 113.414 4.16153 -1.40403 0
M  V30 1275 H 114.02 3.21589 -2.78317 0
M  V30 1276 N 112.336 1.25143 0.95797 0
M  V30 1277 C 113.561 1.12521 1.74223 0
M  V30 1278 C 113.986 -0.317402 1.85403 0
M  V30 1279 O 113.344 -1.2299 1.33204 0
M  V30 1280 C 113.392 1.78062 3.1357 0
M  V30 1281 O 112.496 1.058 3.98598 0
M  V30 1282 H 111.837 0.39304 0.535178 0
M  V30 1283 H 114.367 1.65641 1.201 0
M  V30 1284 H 114.377 1.84213 3.64046 0
M  V30 1285 H 113.052 2.83021 3.04749 0
M  V30 1286 H 111.629 1.07506 3.57067 0
M  V30 1287 N 113.814 -1.1601 1.06675 0
M  V30 1288 C 115.225 -1.68235 0.809565 0
M  V30 1289 C 115.576 -1.8454 -0.666303 0
M  V30 1290 O 114.701 -1.54374 -1.5165 0
M  V30 1291 C 115.296 -3.05585 1.46299 0
M  V30 1292 C 113.855 -3.54915 1.25349 0
M  V30 1293 C 113.002 -2.30804 1.53703 0
M  V30 1294 H 115.953 -1.00318 1.22971 0
M  V30 1295 H 115.974 -3.70174 0.880431 0
M  V30 1296 H 115.486 -2.93686 2.53713 0
M  V30 1297 H 113.587 -3.72067 0.199261 0
M  V30 1298 H 113.7 -4.36774 1.9689 0
M  V30 1299 H 112.064 -2.36007 0.957739 0
M  V30 1300 H 112.847 -2.21499 2.62284 0
M  V30 1301 N 115.292 -0.849877 -1.32721 0
M  V30 1302 C 116.222 -0.306308 -2.31482 0
M  V30 1303 C 117.203 0.591952 -1.59468 0
M  V30 1304 O 118.388 0.513199 -1.87296 0
M  V30 1305 C 115.518 0.510204 -3.43532 0
M  V30 1306 C 114.472 -0.293209 -4.26994 0
M  V30 1307 C 113.798 0.647743 -5.30762 0
M  V30 1308 C 115.098 -1.51634 -4.99804 0
M  V30 1309 H 116.792 -1.13153 -2.77195 0
M  V30 1310 H 114.338 -0.545553 -1.33266 0
M  V30 1311 H 116.291 0.900856 -4.11658 0
M  V30 1312 H 115.015 1.36874 -2.96535 0
M  V30 1313 H 113.674 -0.665555 -3.60508 0
M  V30 1314 H 113.322 1.50299 -4.8002 0
M  V30 1315 H 113.022 0.11422 -5.87489 0
M  V30 1316 H 114.546 1.03567 -6.01753 0
M  V30 1317 H 115.96 -1.19824 -5.60638 0
M  V30 1318 H 114.357 -1.98745 -5.66234 0
M  V30 1319 H 115.427 -2.28018 -4.27943 0
M  V30 1320 N 116.77 1.45427 -0.607355 0
M  V30 1321 C 117.68 2.34325 0.113463 0
M  V30 1322 C 118.696 1.51226 0.860617 0
M  V30 1323 O 119.872 1.84029 0.818255 0
M  V30 1324 C 116.937 3.28839 1.09844 0
M  V30 1325 C 115.998 4.27844 0.353271 0
M  V30 1326 C 115.231 5.17842 1.29133 0
M  V30 1327 O 115.454 5.11264 2.52913 0
M  V30 1328 O 114.388 5.96713 0.788523 0
M  V30 1329 H 118.214 2.97364 -0.617094 0
M  V30 1330 H 115.799 1.44807 -0.367619 0
M  V30 1331 H 117.681 3.8708 1.66575 0
M  V30 1332 H 116.356 2.68365 1.81003 0
M  V30 1333 H 115.263 3.7322 -0.256494 0
M  V30 1334 H 116.596 4.91173 -0.317822 0
M  V30 1335 N 118.248 0.346503 1.53744 0
M  V30 1336 C 119.195 -0.508914 2.25119 0
M  V30 1337 C 120.165 -1.09315 1.25058 0
M  V30 1338 O 121.35 -1.12921 1.53797 0
M  V30 1339 C 118.49 -1.65246 3.02965 0
M  V30 1340 C 117.603 -1.09525 4.17886 0
M  V30 1341 C 116.738 -2.20634 4.83212 0
M  V30 1342 C 115.777 -1.62279 5.90196 0
M  V30 1343 N 114.914 -2.67143 6.49291 0
M  V30 1344 H 119.754 0.106283 2.9781 0
M  V30 1345 H 117.291 0.0642227 1.4696 0
M  V30 1346 H 119.249 -2.32574 3.4636 0
M  V30 1347 H 117.879 -2.2386 2.32565 0
M  V30 1348 H 116.931 -0.312818 3.79112 0
M  V30 1349 H 118.243 -0.628444 4.94825 0
M  V30 1350 H 117.397 -2.95821 5.29693 0
M  V30 1351 H 116.136 -2.70659 4.05703 0
M  V30 1352 H 115.141 -0.855989 5.43096 0
M  V30 1353 H 116.366 -1.13102 6.69615 0
M  V30 1354 H 114.312 -3.16417 5.74645 0
M  V30 1355 H 114.229 -2.25093 7.21713 0
M  V30 1356 H 115.497 -3.4209 7.00425 0
M  V30 1357 N 119.726 -1.57421 0.075193 0
M  V30 1358 C 120.956 -1.97659 -0.601203 0
M  V30 1359 C 121.364 -0.952427 -1.63479 0
M  V30 1360 O 120.707 0.0688241 -1.83571 0
M  V30 1361 C 120.769 -3.34218 -1.32434 0
M  V30 1362 C 120.433 -4.5484 -0.443826 0
M  V30 1363 C 121.43 -5.19034 0.299969 0
M  V30 1364 C 119.115 -5.00952 -0.367709 0
M  V30 1365 C 121.109 -6.27695 1.10807 0
M  V30 1366 C 118.796 -6.09484 0.444058 0
M  V30 1367 C 119.794 -6.72719 1.18061 0
M  V30 1368 O 119.482 -7.79161 1.97898 0
M  V30 1369 H 119.214 -0.65494 -0.167422 0
M  V30 1370 H 121.768 -2.04886 0.145157 0
M  V30 1371 H 119.998 -3.23615 -2.11685 0
M  V30 1372 H 121.687 -3.59038 -1.89331 0
M  V30 1373 H 122.453 -4.84351 0.250776 0
M  V30 1374 H 118.332 -4.51509 -0.930638 0
M  V30 1375 H 121.876 -6.76982 1.68347 0
M  V30 1376 H 117.773 -6.43601 0.494803 0
M  V30 1377 H 118.541 -7.96055 1.90367 0
M  V30 1378 N 121.204 0.198386 -1.56346 0
M  V30 1379 C 122.453 0.917451 -1.79627 0
M  V30 1380 C 122.766 1.8456 -0.64784 0
M  V30 1381 O 123.972 2.60504 -0.764859 0
M  V30 1382 C 122.428 1.68175 -3.18191 0
M  V30 1383 C 122.036 0.798589 -4.40825 0
M  V30 1384 C 123.78 2.39065 -3.50782 0
M  V30 1385 C 121.687 1.56157 -5.70411 0
M  V30 1386 H 120.617 0.346317 -0.669762 0
M  V30 1387 H 123.268 0.170801 -1.82703 0
M  V30 1388 H 121.65 2.47216 -3.09354 0
M  V30 1389 H 122.824 0.0470665 -4.60776 0
M  V30 1390 H 121.139 0.200686 -4.15916 0
M  V30 1391 H 123.736 2.96692 -4.44835 0
M  V30 1392 H 124.079 3.13091 -2.74371 0
M  V30 1393 H 124.612 1.66993 -3.61052 0
M  V30 1394 H 121.351 0.864142 -6.49779 0
M  V30 1395 H 120.871 2.2871 -5.54483 0
M  V30 1396 H 122.55 2.11622 -6.11412 0
M  V30 1397 N 122.682 1.50554 0.465978 0
M  V30 1398 C 123.912 1.65323 1.23903 0
M  V30 1399 C 124.32 0.338051 1.86155 0
M  V30 1400 O 123.663 -0.690518 1.70228 0
M  V30 1401 C 123.725 2.69048 2.3844 0
M  V30 1402 C 123.389 4.12462 1.96784 0
M  V30 1403 C 124.386 4.98168 1.48745 0
M  V30 1404 C 122.071 4.58407 2.05349 0
M  V30 1405 C 124.065 6.27868 1.0982 0
M  V30 1406 C 121.752 5.88112 1.66035 0
M  V30 1407 C 122.75 6.72668 1.18349 0
M  V30 1408 O 122.438 7.99951 0.795825 0
M  V30 1409 H 122.17 0.558629 0.38067 0
M  V30 1410 H 124.724 1.97561 0.562022 0
M  V30 1411 H 122.954 2.32062 3.09328 0
M  V30 1412 H 124.643 2.72985 3.0039 0
M  V30 1413 H 125.409 4.63885 1.41546 0
M  V30 1414 H 121.288 3.92735 2.41414 0
M  V30 1415 H 124.832 6.93819 0.725293 0
M  V30 1416 H 120.729 6.21914 1.72895 0
M  V30 1417 H 121.497 8.13265 0.924222 0
M  V30 1418 N 124.16 -0.719506 1.40217 0
M  V30 1419 C 125.409 -1.47486 1.37589 0
M  V30 1420 C 125.722 -1.9559 -0.0201568 0
M  V30 1421 O 126.928 -2.70973 -0.169049 0
M  V30 1422 C 125.384 -2.66575 2.41796 0
M  V30 1423 C 124.992 -2.25358 3.87192 0
M  V30 1424 C 126.736 -3.4433 2.48269 0
M  V30 1425 C 124.643 -3.41262 4.83005 0
M  V30 1426 H 123.573 -0.553901 0.511576 0
M  V30 1427 H 126.224 -0.783427 1.65936 0
M  V30 1428 H 124.606 -3.3787 2.06543 0
M  V30 1429 H 125.78 -1.61509 4.31569 0
M  V30 1430 H 124.095 -1.60657 3.84159 0
M  V30 1431 H 126.692 -4.30569 3.17041 0
M  V30 1432 H 127.035 -3.87872 1.51198 0
M  V30 1433 H 127.568 -2.80076 2.82493 0
M  V30 1434 H 124.307 -3.02755 5.81394 0
M  V30 1435 H 123.827 -4.0404 4.43297 0
M  V30 1436 H 125.506 -4.07383 5.02641 0
M  V30 1437 N 125.638 -1.25649 -0.95132 0
M  V30 1438 C 126.571 -1.00644 -2.04807 0
M  V30 1439 C 127.549 0.0654271 -1.62468 0
M  V30 1440 O 128.733 -0.074911 -1.88351 0
M  V30 1441 C 125.86 -0.522052 -3.34653 0
M  V30 1442 C 124.906 -1.58495 -3.95957 0
M  V30 1443 S 125.739 -3.17108 -4.31512 0
M  V30 1444 C 126.895 -2.70412 -5.64471 0
M  V30 1445 H 127.128 -1.93508 -2.25703 0
M  V30 1446 H 124.661 -1.09216 -1.09139 0
M  V30 1447 H 126.619 -0.24923 -4.09743 0
M  V30 1448 H 125.28 0.386146 -3.11717 0
M  V30 1449 H 124.473 -1.1968 -4.89584 0
M  V30 1450 H 124.075 -1.80862 -3.2736 0
M  V30 1451 H 126.367 -2.14245 -6.42733 0
M  V30 1452 H 127.31 -3.62693 -6.08161 0
M  V30 1453 H 127.718 -2.10302 -5.23864 0
M  V30 1454 N 127.117 1.15442 -1.07289 0
M  V30 1455 C 128.365 1.85845 -0.794096 0
M  V30 1456 C 128.686 1.82692 0.681809 0
M  V30 1457 O 127.956 1.26741 1.49377 0
M  V30 1458 H 126.536 0.688089 -0.290763 0
M  V30 1459 H 129.198 1.39947 -1.3565 0
M  V30 1460 H 128.294 2.91001 -1.12804 0
M  V30 1461 N 128.595 0.856903 1.32268 0
M  V30 1462 C 129.844 0.457599 1.96441 0
M  V30 1463 C 130.157 -0.992426 1.68553 0
M  V30 1464 O 131.363 -1.49727 2.26482 0
M  V30 1465 C 129.819 0.767358 3.51624 0
M  V30 1466 C 129.427 2.23326 3.88367 0
M  V30 1467 C 131.171 0.435887 4.22256 0
M  V30 1468 C 129.078 2.48613 5.36606 0
M  V30 1469 H 128.008 0.167387 0.735185 0
M  V30 1470 H 130.659 1.048 1.5063 0
M  V30 1471 H 129.041 0.106367 3.95857 0
M  V30 1472 H 130.215 2.93623 3.55137 0
M  V30 1473 H 128.53 2.52948 3.30766 0
M  V30 1474 H 131.127 0.602202 5.31298 0
M  V30 1475 H 131.47 -0.622672 4.11617 0
M  V30 1476 H 132.003 1.05286 3.83614 0
M  V30 1477 H 128.742 3.53101 5.52268 0
M  V30 1478 H 128.262 1.82896 5.71235 0
M  V30 1479 H 129.941 2.32676 6.03714 0
M  V30 1480 N 130.073 -1.45103 0.615059 0
M  V30 1481 C 131.005 -2.28786 -0.13762 0
M  V30 1482 C 132.018 -1.40376 -0.824525 0
M  V30 1483 O 133.207 -1.64681 -0.688662 0
M  V30 1484 C 130.307 -3.16322 -1.21628 0
M  V30 1485 C 129.48 -4.33054 -0.615039 0
M  V30 1486 C 128.539 -5.01743 -1.58556 0
M  V30 1487 O 127.565 -5.58293 -1.10895 0
M  V30 1488 N 128.767 -5.01714 -2.91998 0
M  V30 1489 H 131.532 -2.94025 0.580483 0
M  V30 1490 H 129.093 -1.55373 0.45507 0
M  V30 1491 H 131.085 -3.59139 -1.86552 0
M  V30 1492 H 129.655 -2.52943 -1.83681 0
M  V30 1493 H 128.875 -3.93627 0.21245 0
M  V30 1494 H 130.163 -5.08431 -0.193704 0
M  V30 1495 H 129.561 -4.57075 -3.33316 0
M  V30 1496 H 128.118 -5.48371 -3.52325 0
M  V30 1497 N 131.551 -0.354651 -1.53558 0
M  V30 1498 C 132.461 0.50515 -2.29097 0
M  V30 1499 C 133.477 1.10223 -1.34636 0
M  V30 1500 O 134.653 1.11553 -1.67684 0
M  V30 1501 C 131.718 1.63479 -3.05738 0
M  V30 1502 C 130.779 1.06636 -4.15845 0
M  V30 1503 C 130.012 2.14217 -4.88822 0
M  V30 1504 O 130.235 3.35137 -4.61562 0
M  V30 1505 O 129.169 1.77887 -5.75013 0
M  V30 1506 H 132.995 -0.109237 -3.03503 0
M  V30 1507 H 130.58 -0.119357 -1.48922 0
M  V30 1508 H 132.462 2.2918 -3.5363 0
M  V30 1509 H 131.137 2.23478 -2.34178 0
M  V30 1510 H 130.044 0.373565 -3.7223 0
M  V30 1511 H 131.377 0.511081 -4.89539 0
M  V30 1512 N 133.029 1.57378 -0.0835403 0
M  V30 1513 C 134.445 1.57246 0.273109 0
M  V30 1514 C 134.645 1.09385 1.69225 0
M  V30 1515 O 133.701 0.765051 2.40631 0
M  V30 1516 C 135.014 3.00614 0.0720628 0
M  V30 1517 C 136.562 3.12684 0.1407 0
M  V30 1518 C 137.037 4.57989 -0.0322094 0
M  V30 1519 N 138.528 4.63194 0.0230085 0
M  V30 1520 C 139.263 5.73335 -0.0861941 0
M  V30 1521 N 138.759 6.9235 -0.24958 0
M  V30 1522 N 140.552 5.62093 -0.0282886 0
M  V30 1523 H 132.703 1.86801 -1.0109 0
M  V30 1524 H 134.966 0.861687 -0.395222 0
M  V30 1525 H 134.672 3.39786 -0.907662 0
M  V30 1526 H 134.546 3.68193 0.81936 0
M  V30 1527 H 136.933 2.73391 1.11092 0
M  V30 1528 H 137.014 2.47719 -0.637896 0
M  V30 1529 H 136.658 4.97973 -0.999247 0
M  V30 1530 H 136.588 5.21 0.765937 0
M  V30 1531 H 139.079 3.77613 0.14722 0
M  V30 1532 H 139.392 7.72117 -0.324733 0
M  V30 1533 H 137.737 6.94415 -0.285097 0
M  V30 1534 H 140.928 4.67997 0.0981408 0
M  V30 1535 H 141.101 6.47895 -0.116845 0
M  V30 1536 N 134.507 -0.190092 1.56449 0
M  V30 1537 C 135.455 -1.25501 1.95837 0
M  V30 1538 C 136.449 -1.4685 0.844485 0
M  V30 1539 O 137.655 -1.47651 1.02952 0
M  V30 1540 H 134.03 -0.421447 0.622805 0
M  V30 1541 H 136.001 -0.895821 2.84636 0
M  V30 1542 C 134.75 -2.59124 2.31841 0
M  V30 1543 H 134.073 -2.43514 3.17082 0
M  V30 1544 H 135.513 -3.32371 2.6326 0
M  V30 1545 C 133.972 -3.16488 1.15486 0
M  V30 1546 O 134.502 -3.99365 0.432535 0
M  V30 1547 N 132.708 -2.75305 0.930349 0
M  V30 1548 H 132.255 -2.08013 1.51948 0
M  V30 1549 H 132.213 -3.14024 0.153634 0
M  V30 1550 N 135.985 -1.50799 -0.457987 0
M  V30 1551 C 136.895 -1.73426 -1.57989 0
M  V30 1552 C 137.911 -0.617745 -1.62665 0
M  V30 1553 O 139.087 -0.897614 -1.80291 0
M  V30 1554 C 136.152 -1.83557 -2.94122 0
M  V30 1555 C 135.213 -3.07345 -2.99729 0
M  V30 1556 C 134.446 -3.16983 -4.29368 0
M  V30 1557 O 134.669 -2.33077 -5.20607 0
M  V30 1558 O 133.603 -4.09812 -4.40837 0
M  V30 1559 H 137.429 -2.68555 -1.41817 0
M  V30 1560 H 135.014 -1.35052 -0.638859 0
M  V30 1561 H 136.896 -1.92326 -3.74952 0
M  V30 1562 H 135.571 -0.916137 -3.10465 0
M  V30 1563 H 134.478 -3.04068 -2.1793 0
M  V30 1564 H 135.811 -3.9891 -2.88326 0
M  V30 1565 N 137.463 0.71206 -1.40597 0
M  V30 1566 C 138.41 1.82613 -1.41142 0
M  V30 1567 C 139.38 1.63925 -0.267903 0
M  V30 1568 O 140.565 1.85009 -0.466495 0
M  V30 1569 C 137.705 3.20354 -1.28324 0
M  V30 1570 C 136.818 3.50589 -2.52411 0
M  V30 1571 C 135.953 4.77855 -2.32009 0
M  V30 1572 C 134.992 5.01005 -3.51654 0
M  V30 1573 N 134.129 6.19487 -3.30425 0
M  V30 1574 H 138.969 1.81482 -2.36365 0
M  V30 1575 H 136.506 0.886475 -1.17388 0
M  V30 1576 H 138.464 3.99899 -1.18899 0
M  V30 1577 H 137.094 3.20705 -0.367189 0
M  V30 1578 H 136.146 2.65573 -2.72351 0
M  V30 1579 H 137.458 3.63604 -3.41458 0
M  V30 1580 H 136.612 5.65424 -2.19956 0
M  V30 1581 H 135.351 4.67056 -1.40392 0
M  V30 1582 H 134.356 4.1189 -3.64179 0
M  V30 1583 H 135.581 5.13674 -4.44202 0
M  V30 1584 H 133.527 6.09932 -2.41494 0
M  V30 1585 H 133.444 6.33194 -4.13039 0
M  V30 1586 H 134.712 7.09834 -3.22113 0
M  V30 1587 N 138.941 1.26152 0.944643 0
M  V30 1588 C 139.871 1.09902 2.06019 0
M  V30 1589 C 140.852 0.00519538 1.70099 0
M  V30 1590 O 142.037 0.176583 1.93396 0
M  V30 1591 C 139.167 0.727562 3.39594 0
M  V30 1592 C 138.121 1.77274 3.89561 0
M  V30 1593 C 137.447 1.25569 5.19747 0
M  V30 1594 C 138.747 3.17357 4.14827 0
M  V30 1595 H 140.441 2.03217 2.19871 0
M  V30 1596 H 137.987 0.978452 1.05652 0
M  V30 1597 H 139.94 0.600777 4.17095 0
M  V30 1598 H 138.664 -0.241287 3.25707 0
M  V30 1599 H 137.323 1.88814 3.14237 0
M  V30 1600 H 136.971 0.276783 5.02238 0
M  V30 1601 H 136.671 1.95433 5.54148 0
M  V30 1602 H 138.195 1.1415 5.99835 0
M  V30 1603 H 139.609 3.08914 4.82954 0
M  V30 1604 H 138.006 3.84781 4.60504 0
M  V30 1605 H 139.076 3.63673 3.20734 0
M  V30 1606 N 140.419 -1.14872 1.07899 0
M  V30 1607 C 141.666 -1.85789 0.805532 0
M  V30 1608 C 141.994 -1.82649 -0.668561 0
M  V30 1609 O 141.249 -1.24858 -1.50695 0
M  V30 1610 C 141.548 -3.34223 1.26609 0
M  V30 1611 C 141.214 -3.57555 2.74709 0
M  V30 1612 C 139.876 -3.63631 3.1516 0
M  V30 1613 C 142.228 -3.66803 3.70277 0
M  V30 1614 C 139.556 -3.76473 4.49983 0
M  V30 1615 C 141.908 -3.8117 5.04869 0
M  V30 1616 C 140.572 -3.85494 5.44932 0
M  V30 1617 H 139.842 -0.679849 0.294765 0
M  V30 1618 H 142.489 -1.3572 1.35101 0
M  V30 1619 H 140.794 -3.86536 0.640103 0
M  V30 1620 H 142.491 -3.87511 1.03132 0
M  V30 1621 H 139.081 -3.5347 2.42398 0
M  V30 1622 H 143.265 -3.61404 3.40149 0
M  V30 1623 H 138.521 -3.7808 4.80484 0
M  V30 1624 H 142.695 -3.87268 5.78789 0
M  V30 1625 H 140.322 -3.95197 6.49403 0
M  V30 1626 N 141.898 -0.863906 -1.31812 0
M  V30 1627 C 143.128 -0.485406 -2.00817 0
M  V30 1628 C 143.536 0.925007 -1.65046 0
M  V30 1629 O 142.879 1.61653 -0.872574 0
M  V30 1630 C 142.941 -0.555589 -3.55181 0
M  V30 1631 C 142.605 -1.92654 -4.14407 0
M  V30 1632 C 143.602 -2.89324 -4.31958 0
M  V30 1633 C 141.287 -2.2262 -4.50273 0
M  V30 1634 C 143.281 -4.14108 -4.84555 0
M  V30 1635 C 140.968 -3.47654 -5.02573 0
M  V30 1636 C 141.966 -4.43214 -5.19664 0
M  V30 1637 O 141.654 -5.66033 -5.70843 0
M  V30 1638 H 141.386 -0.188224 -0.649267 0
M  V30 1639 H 143.94 -1.16514 -1.69156 0
M  V30 1640 H 142.17 0.181037 -3.86276 0
M  V30 1641 H 143.859 -0.19138 -4.05449 0
M  V30 1642 H 144.625 -2.6748 -4.04573 0
M  V30 1643 H 140.504 -1.4902 -4.3625 0
M  V30 1644 H 144.048 -4.88703 -4.9781 0
M  V30 1645 H 139.945 -3.69345 -5.29391 0
M  V30 1646 H 140.713 -5.6812 -5.89222 0
M  V30 1647 N 143.376 1.44774 -0.622745 0
M  V30 1648 C 144.792 1.56986 -0.287652 0
M  V30 1649 C 144.992 1.61167 1.20944 0
M  V30 1650 O 144.048 1.55015 1.99315 0
M  V30 1651 C 145.361 2.84551 -0.972188 0
M  V30 1652 C 146.909 2.9825 -0.949536 0
M  V30 1653 C 147.384 4.28605 -1.61437 0
M  V30 1654 N 148.875 4.35399 -1.58057 0
M  V30 1655 C 149.61 5.34964 -2.064 0
M  V30 1656 N 149.106 6.40981 -2.62897 0
M  V30 1657 N 150.899 5.26419 -1.97078 0
M  V30 1658 H 143.05 1.40304 -1.59463 0
M  V30 1659 H 145.313 0.671794 -0.668878 0
M  V30 1660 H 145.019 2.87417 -2.02693 0
M  V30 1661 H 144.893 3.73807 -0.504771 0
M  V30 1662 H 147.28 2.94941 0.0967067 0
M  V30 1663 H 147.361 2.10364 -1.45536 0
M  V30 1664 H 147.005 4.32672 -2.66002 0
M  V30 1665 H 146.935 5.15334 -1.08344 0
M  V30 1666 H 149.426 3.59397 -1.16801 0
M  V30 1667 H 149.739 7.13225 -2.97539 0
M  V30 1668 H 148.084 6.4169 -2.66943 0
M  V30 1669 H 151.275 4.42504 -1.52669 0
M  V30 1670 H 151.448 6.03861 -2.35066 0
M  V30 1671 N 144.854 0.36279 1.53368 0
M  V30 1672 C 146.103 -0.22888 2.00397 0
M  V30 1673 C 146.416 -1.50096 1.25421 0
M  V30 1674 O 147.622 -2.17106 1.63025 0
M  V30 1675 C 146.078 -0.458417 3.56969 0
M  V30 1676 C 145.686 0.798877 4.4082 0
M  V30 1677 C 147.43 -1.00789 4.12361 0
M  V30 1678 C 145.337 0.539078 5.88938 0
M  V30 1679 H 144.267 -0.089305 0.748693 0
M  V30 1680 H 146.918 0.481099 1.77081 0
M  V30 1681 H 145.3 -1.22959 3.76427 0
M  V30 1682 H 146.474 1.57262 4.33134 0
M  V30 1683 H 144.789 1.27137 3.96516 0
M  V30 1684 H 147.386 -1.21754 5.20653 0
M  V30 1685 H 147.729 -1.9692 3.66781 0
M  V30 1686 H 148.262 -0.296961 3.9669 0
M  V30 1687 H 145.001 1.47064 6.3879 0
M  V30 1688 H 144.521 -0.196222 5.99479 0
M  V30 1689 H 146.2 0.163542 6.46793 0
M  V30 1690 N 146.332 -1.57332 0.0918853 0
M  V30 1691 C 147.262 -2.16872 -0.865371 0
M  V30 1692 C 148.243 -1.10118 -1.29646 0
M  V30 1693 O 149.428 -1.38242 -1.36392 0
M  V30 1694 C 146.558 -2.74649 -2.12569 0
M  V30 1695 C 145.512 -3.86747 -1.83333 0
M  V30 1696 C 144.838 -4.31212 -3.16166 0
M  V30 1697 C 146.138 -5.10089 -1.1228 0
M  V30 1698 H 147.832 -2.97114 -0.369307 0
M  V30 1699 H 145.378 -1.42918 -0.176194 0
M  V30 1700 H 147.331 -3.14952 -2.7997 0
M  V30 1701 H 146.055 -1.91657 -2.64452 0
M  V30 1702 H 144.714 -3.46978 -1.18331 0
M  V30 1703 H 144.362 -3.45115 -3.6593 0
M  V30 1704 H 144.062 -5.06788 -2.97388 0
M  V30 1705 H 145.586 -4.74146 -3.84731 0
M  V30 1706 H 147 -5.47582 -1.69785 0
M  V30 1707 H 145.397 -5.91073 -1.03693 0
M  V30 1708 H 146.467 -4.84786 -0.105041 0
M  V30 1709 N 147.81 0.181792 -1.56548 0
M  V30 1710 C 148.742 1.24956 -1.92142 0
M  V30 1711 C 149.755 1.41022 -0.813422 0
M  V30 1712 O 150.944 1.41212 -1.09186 0
M  V30 1713 C 148.044 2.61981 -2.14987 0
M  V30 1714 C 147.217 2.6735 -3.46183 0
M  V30 1715 C 146.276 3.85664 -3.5798 0
M  V30 1716 O 145.302 3.72148 -4.30691 0
M  V30 1717 N 146.504 5.01683 -2.92053 0
M  V30 1718 H 149.269 0.947329 -2.84334 0
M  V30 1719 H 146.83 0.371629 -1.57577 0
M  V30 1720 H 148.822 3.3958 -2.20154 0
M  V30 1721 H 147.392 2.84637 -1.2923 0
M  V30 1722 H 146.612 1.75925 -3.52766 0
M  V30 1723 H 147.9 2.67939 -4.32534 0
M  V30 1724 H 147.298 5.15564 -2.32832 0
M  V30 1725 H 145.855 5.77181 -3.0283 0
M  V30 1726 N 149.288 1.51039 0.449983 0
M  V30 1727 C 150.565 1.53612 1.21089 0
M  V30 1728 C 150.945 0.292997 2.09057 0
M  V30 1729 O 150.293 -0.72259 2.16774 0
M  V30 1730 C 150.503 2.84337 2.0237 0
M  V30 1731 C 151.851 3.35807 2.59843 0
M  V30 1732 O 152.875 2.85802 2.12593 0
M  V30 1733 O 151.734 4.23029 3.45989 0
M  V30 1734 H 148.828 0.617057 0.550608 0
M  V30 1735 H 151.374 1.63344 0.460082 0
M  V30 1736 H 150.146 3.66278 1.37681 0
M  V30 1737 H 149.769 2.77708 2.84542 0
M  V30 1738 N 150.766 -0.704594 1.40972 0
M  V30 1739 C 152.043 -1.45847 1.30338 0
M  V30 1740 C 152.423 -2.10973 -0.0732344 0
M  V30 1741 O 151.771 -2.00997 -1.08685 0
M  V30 1742 C 151.981 -2.48525 2.45023 0
M  V30 1743 C 153.329 -3.1404 2.8577 0
M  V30 1744 O 154.353 -2.58848 2.44696 0
M  V30 1745 O 153.212 -4.13981 3.56766 0
M  V30 1746 H 150.306 -0.649092 0.512454 0
M  V30 1747 H 152.852 -0.735836 1.52917 0
M  V30 1748 H 151.624 -1.98994 3.36923 0
M  V30 1749 H 151.247 -3.2831 2.24272 0
M  V30 1750 N 152.244 -1.26651 -0.937939 0
M  V30 1751 C 153.493 -1.11775 -1.67897 0
M  V30 1752 C 153.806 0.33794 -1.92659 0
M  V30 1753 O 155.012 0.607434 -2.64618 0
M  V30 1754 C 153.468 -1.9523 -3.02346 0
M  V30 1755 C 153.076 -3.45393 -2.8532 0
M  V30 1756 C 154.82 -1.88972 -3.80118 0
M  V30 1757 C 152.727 -4.21083 -4.15263 0
M  V30 1758 H 151.657 -0.414696 -0.629717 0
M  V30 1759 H 154.308 -1.50988 -1.04283 0
M  V30 1760 H 152.69 -1.48853 -3.66959 0
M  V30 1761 H 153.864 -3.99561 -2.29537 0
M  V30 1762 H 152.179 -3.52921 -2.20988 0
M  V30 1763 H 154.776 -2.42805 -4.76392 0
M  V30 1764 H 155.119 -0.86113 -4.07296 0
M  V30 1765 H 155.652 -2.33189 -3.22285 0
M  V30 1766 H 152.391 -5.24425 -3.93267 0
M  V30 1767 H 151.911 -3.71695 -4.70747 0
M  V30 1768 H 153.59 -4.29706 -4.83696 0
M  V30 1769 N 153.722 1.14298 -1.08507 0
M  V30 1770 C 154.632 2.23027 -0.727753 0
M  V30 1771 C 155.648 1.71952 0.26619 0
M  V30 1772 O 156.824 2.011 0.109882 0
M  V30 1773 C 153.889 3.46403 -0.143541 0
M  V30 1774 C 152.95 4.12413 -1.19223 0
M  V30 1775 C 152.183 5.29899 -0.635798 0
M  V30 1776 O 152.406 5.67796 0.544393 0
M  V30 1777 O 151.34 5.85717 -1.38634 0
M  V30 1778 H 155.166 2.55945 -1.63481 0
M  V30 1779 H 152.751 1.22248 -0.858817 0
M  V30 1780 H 154.633 4.21018 0.179404 0
M  V30 1781 H 153.308 3.15206 0.736659 0
M  V30 1782 H 152.215 3.39667 -1.56772 0
M  V30 1783 H 153.548 4.47718 -2.04474 0
M  V30 1784 N 155.201 0.870884 1.31352 0
M  V30 1785 C 156.426 0.495957 2.01383 0
M  V30 1786 C 156.851 -0.904324 1.64935 0
M  V30 1787 O 156.209 -1.59687 0.858466 0
M  V30 1788 C 156.257 0.661433 3.54482 0
M  V30 1789 O 155.361 -0.298851 4.11316 0
M  V30 1790 H 154.702 0.197158 0.634054 0
M  V30 1791 H 157.232 1.17455 1.67527 0
M  V30 1792 H 157.242 0.555072 4.04207 0
M  V30 1793 H 155.917 1.68246 3.8035 0
M  V30 1794 H 154.494 -0.147368 3.72609 0
M  V30 1795 N 156.679 -1.44442 0.630414 0
M  V30 1796 C 157.609 -2.33418 -0.0618083 0
M  V30 1797 C 158.59 -1.48165 -0.835541 0
M  V30 1798 O 159.775 -1.76886 -0.801564 0
M  V30 1799 C 156.905 -3.31222 -1.04449 0
M  V30 1800 C 155.859 -4.26288 -0.382436 0
M  V30 1801 C 155.185 -5.13954 -1.47497 0
M  V30 1802 C 156.485 -5.1744 0.710865 0
M  V30 1803 H 158.179 -2.91548 0.681184 0
M  V30 1804 H 155.725 -1.40191 0.329026 0
M  V30 1805 H 157.678 -3.92351 -1.53748 0
M  V30 1806 H 156.402 -2.71299 -1.81836 0
M  V30 1807 H 155.061 -3.6649 0.0899054 0
M  V30 1808 H 154.709 -4.50385 -2.2397 0
M  V30 1809 H 154.409 -5.7837 -1.03737 0
M  V30 1810 H 155.933 -5.77955 -1.96979 0
M  V30 1811 H 157.347 -5.72509 0.300996 0
M  V30 1812 H 155.744 -5.90455 1.07156 0
M  V30 1813 H 156.814 -4.58496 1.57829 0
M  V30 1814 N 158.157 -0.370918 -1.53173 0
M  V30 1815 C 159.09 0.516727 -2.22273 0
M  V30 1816 C 160.068 1.07877 -1.21661 0
M  V30 1817 O 161.252 1.13389 -1.50583 0
M  V30 1818 C 158.379 1.71346 -2.92161 0
M  V30 1819 C 157.425 1.27838 -4.0689 0
M  V30 1820 S 158.258 0.275217 -5.34792 0
M  V30 1821 C 159.414 1.47816 -6.08195 0
M  V30 1822 H 159.647 -0.0701054 -2.97217 0
M  V30 1823 H 157.18 -0.155038 -1.5362 0
M  V30 1824 H 159.138 2.39988 -3.3304 0
M  V30 1825 H 157.799 2.27156 -2.16931 0
M  V30 1826 H 156.992 2.17141 -4.54825 0
M  V30 1827 H 156.594 0.671105 -3.6793 0
M  V30 1828 H 158.886 2.40831 -6.33251 0
M  V30 1829 H 159.829 1.04008 -7.0042 0
M  V30 1830 H 160.237 1.68663 -5.38714 0
M  V30 1831 N 159.635 1.57281 -0.100228 0
M  V30 1832 C 161.046 1.81725 0.428107 0
M  V30 1833 C 161.397 1.01619 1.67833 0
M  V30 1834 O 160.522 0.247098 2.14985 0
M  V30 1835 C 161.117 3.29617 0.78347 0
M  V30 1836 C 159.676 3.54808 1.25653 0
M  V30 1837 C 158.823 2.76118 0.255752 0
M  V30 1838 H 161.774 1.55324 -0.325608 0
M  V30 1839 H 161.795 3.4322 1.64256 0
M  V30 1840 H 161.307 3.87893 -0.12665 0
M  V30 1841 H 159.408 3.01868 2.18418 0
M  V30 1842 H 159.521 4.63443 1.21482 0
M  V30 1843 H 157.885 2.43745 0.738956 0
M  V30 1844 H 158.668 3.37145 -0.647136 0
M  V30 1845 N 161.113 -0.173488 1.56642 0
M  V30 1846 C 162.362 -0.888758 1.81063 0
M  V30 1847 C 162.675 -1.83506 0.67712 0
M  V30 1848 O 163.881 -2.59254 0.806206 0
M  V30 1849 C 162.337 -1.63091 3.20826 0
M  V30 1850 C 161.945 -0.728357 4.4204 0
M  V30 1851 C 163.689 -2.33454 3.54541 0
M  V30 1852 C 161.596 -1.47062 5.72823 0
M  V30 1853 H 160.526 -0.335618 0.675186 0
M  V30 1854 H 163.177 -0.141712 1.82952 0
M  V30 1855 H 161.559 -2.42263 3.13248 0
M  V30 1856 H 162.733 0.0262449 4.60793 0
M  V30 1857 H 161.048 -0.134492 4.16183 0
M  V30 1858 H 163.645 -2.89578 4.49498 0
M  V30 1859 H 163.988 -3.08687 2.79317 0
M  V30 1860 H 164.521 -1.61227 3.63663 0
M  V30 1861 H 161.26 -0.760658 6.51072 0
M  V30 1862 H 160.78 -2.1986 5.58052 0
M  V30 1863 H 162.459 -2.01868 6.14702 0
M  V30 1864 N 162.591 -1.51276 -0.441967 0
M  V30 1865 C 163.837 -1.63958 -1.19355 0
M  V30 1866 C 164.17 -0.352543 -1.90973 0
M  V30 1867 O 163.445 0.647627 -1.83401 0
M  V30 1868 C 163.728 -2.83979 -2.21422 0
M  V30 1869 C 163.581 -4.22646 -1.53918 0
M  V30 1870 C 164.9 -2.99521 -3.22451 0
M  V30 1871 H 162.019 -0.596709 -0.432559 0
M  V30 1872 H 164.661 -1.83748 -0.483398 0
M  V30 1873 H 162.811 -2.67237 -2.81987 0
M  V30 1874 H 164.483 -4.51045 -0.967256 0
M  V30 1875 H 162.726 -4.25558 -0.841615 0
M  V30 1876 H 163.397 -5.02609 -2.28229 0
M  V30 1877 H 165.873 -3.14944 -2.71937 0
M  V30 1878 H 164.749 -3.85072 -3.91166 0
M  V30 1879 H 165.01 -2.11391 -3.88287 0
M  V30 1880 N 164.069 0.697108 -1.41344 0
M  V30 1881 C 165.299 1.48377 -1.43763 0
M  V30 1882 C 165.707 1.89156 -0.0408726 0
M  V30 1883 O 165.05 1.57239 0.949812 0
M  V30 1884 C 165.112 2.7781 -2.2817 0
M  V30 1885 C 164.776 2.59244 -3.76353 0
M  V30 1886 C 165.773 2.25292 -4.68551 0
M  V30 1887 C 163.458 2.74933 -4.20378 0
M  V30 1888 C 165.452 2.07264 -6.02761 0
M  V30 1889 C 163.139 2.56521 -5.54653 0
M  V30 1890 C 164.137 2.22737 -6.4566 0
M  V30 1891 O 163.825 2.04485 -7.77458 0
M  V30 1892 H 163.557 0.463842 -0.491759 0
M  V30 1893 H 166.111 0.865934 -1.86255 0
M  V30 1894 H 164.341 3.41995 -1.8049 0
M  V30 1895 H 166.03 3.39608 -2.22309 0
M  V30 1896 H 166.796 2.12787 -4.35829 0
M  V30 1897 H 162.675 3.00213 -3.49848 0
M  V30 1898 H 166.219 1.80817 -6.73759 0
M  V30 1899 H 162.116 2.68616 -5.86955 0
M  V30 1900 H 162.884 2.1926 -7.88586 0
M  V30 1901 N 165.547 1.27147 0.931209 0
M  V30 1902 C 166.775 1.16082 1.71267 0
M  V30 1903 C 167.19 -0.282772 1.8667 0
M  V30 1904 O 166.547 -1.19283 1.38122 0
M  V30 1905 C 166.598 1.8358 3.11417 0
M  V30 1906 O 166.319 3.22299 2.96741 0
M  V30 1907 C 167.82 1.78597 4.05732 0
M  V30 1908 H 165.04 0.403758 0.535929 0
M  V30 1909 H 167.584 1.67953 1.16671 0
M  V30 1910 H 165.739 1.35623 3.62885 0
M  V30 1911 H 166.153 3.55851 3.85319 0
M  V30 1912 H 167.627 2.30444 5.01597 0
M  V30 1913 H 168.104 0.754564 4.3267 0
M  V30 1914 H 168.71 2.26152 3.60188 0
M  V30 1915 N 167.025 -1.13721 1.09112 0
M  V30 1916 C 168.436 -1.6648 0.845068 0
M  V30 1917 C 168.787 -1.85911 -0.62701 0
M  V30 1918 O 167.912 -1.57556 -1.48341 0
M  V30 1919 C 168.507 -3.02413 1.52748 0
M  V30 1920 C 167.066 -3.52176 1.32849 0
M  V30 1921 C 166.213 -2.27492 1.58564 0
M  V30 1922 H 169.164 -0.976872 1.25072 0
M  V30 1923 H 169.185 -3.68223 0.958752 0
M  V30 1924 H 168.697 -2.88238 2.59885 0
M  V30 1925 H 166.798 -3.7156 0.278137 0
M  V30 1926 H 166.911 -4.32499 2.0611 0
M  V30 1927 H 165.275 -2.33923 1.00758 0
M  V30 1928 H 166.058 -2.15886 2.66924 0
M  V30 1929 N 168.503 -0.877838 -1.30888 0
M  V30 1930 C 169.731 -0.507414 -2.00581 0
M  V30 1931 C 170.146 0.902216 -1.65848 0
M  V30 1932 O 169.503 1.59225 -0.891831 0
M  V30 1933 C 169.554 -0.664162 -3.55347 0
M  V30 1934 O 169.275 -2.01829 -3.8884 0
M  V30 1935 C 170.776 -0.295787 -4.42312 0
M  V30 1936 H 167.996 -0.196866 -0.641471 0
M  V30 1937 H 170.54 -1.18117 -1.66939 0
M  V30 1938 H 168.695 -0.0378619 -3.87381 0
M  V30 1939 H 169.109 -2.03174 -4.8355 0
M  V30 1940 H 170.583 -0.456388 -5.5011 0
M  V30 1941 H 171.06 0.765663 -4.32475 0
M  V30 1942 H 171.666 -0.898113 -4.15709 0
M  V30 1943 N 169.982 1.44106 -0.638065 0
M  V30 1944 C 171.228 2.02277 -0.145546 0
M  V30 1945 C 171.561 1.50125 1.23191 0
M  V30 1946 O 170.836 0.688133 1.8192 0
M  V30 1947 C 171.119 3.59829 -0.139791 0
M  V30 1948 C 170.972 4.22247 -1.55008 0
M  V30 1949 C 172.291 4.36873 0.531966 0
M  V30 1950 H 169.41 0.734992 -0.0543632 0
M  V30 1951 H 172.052 1.71592 -0.815863 0
M  V30 1952 H 170.202 3.86102 0.431007 0
M  V30 1953 H 171.874 4.07057 -2.1703 0
M  V30 1954 H 170.117 3.79476 -2.10191 0
M  V30 1955 H 170.788 5.31284 -1.49804 0
M  V30 1956 H 173.264 4.16074 0.0464781 0
M  V30 1957 H 172.14 5.4657 0.505206 0
M  V30 1958 H 172.401 4.11995 1.60352 0
M  V30 1959 N 171.46 0.379036 1.52974 0
M  V30 1960 C 172.708 -0.206014 2.01047 0
M  V30 1961 C 173.029 -1.48175 1.26765 0
M  V30 1962 O 172.299 -1.92085 0.384743 0
M  V30 1963 H 170.879 -0.0791184 0.742798 0
M  V30 1964 H 173.541 0.508366 1.88153 0
M  V30 1965 H 172.637 -0.423501 3.09213 0
M  V30 1966 N 172.938 -1.57226 0.108567 0
M  V30 1967 C 173.868 -2.17778 -0.84232 0
M  V30 1968 C 174.849 -1.11487 -1.2847 0
M  V30 1969 O 176.034 -1.39681 -1.34918 0
M  V30 1970 C 173.164 -2.76888 -2.09644 0
M  V30 1971 C 172.118 -3.88669 -1.79221 0
M  V30 1972 C 171.444 -4.34541 -3.11574 0
M  V30 1973 C 172.744 -5.11251 -1.06864 0
M  V30 1974 H 174.438 -2.97489 -0.337774 0
M  V30 1975 H 171.984 -1.43097 -0.161025 0
M  V30 1976 H 173.937 -3.17904 -2.76614 0
M  V30 1977 H 172.661 -1.94451 -2.62405 0
M  V30 1978 H 171.32 -3.48213 -1.14644 0
M  V30 1979 H 170.968 -3.48977 -3.62249 0
M  V30 1980 H 170.668 -5.09914 -2.91996 0
M  V30 1981 H 172.192 -4.782 -3.7968 0
M  V30 1982 H 173.606 -5.49352 -1.63968 0
M  V30 1983 H 172.003 -5.9214 -0.974178 0
M  V30 1984 H 173.073 -4.8487 -0.0536168 0
M  V30 1985 N 174.416 0.165178 -1.56732 0
M  V30 1986 C 175.379 1.18822 -1.95995 0
M  V30 1987 C 176.379 1.3685 -0.84431 0
M  V30 1988 O 177.569 1.34152 -1.11126 0
M  V30 1989 C 174.701 2.5521 -2.26011 0
M  V30 1990 H 175.894 0.851825 -2.87548 0
M  V30 1991 H 173.447 0.407857 -1.50885 0
M  V30 1992 H 174.182 2.93852 -1.37191 0
M  V30 1993 H 173.967 2.43489 -3.07336 0
M  V30 1994 H 175.457 3.28927 -2.57288 0
M  V30 1995 N 175.894 1.51508 0.433938 0
M  V30 1996 C 177.134 1.66006 1.19253 0
M  V30 1997 C 177.498 0.369868 1.88404 0
M  V30 1998 O 178.699 0.39066 2.65946 0
M  V30 1999 C 176.97 2.83229 2.17981 0
M  V30 2000 S 178.529 3.18075 3.02281 0
M  V30 2001 H 175.347 0.584821 0.404358 0
M  V30 2002 H 177.949 1.89425 0.48357 0
M  V30 2003 H 176.653 3.75407 1.65824 0
M  V30 2004 H 176.184 2.6201 2.93453 0
M  V30 2005 H 178.199 2.64772 4.19655 0
M  V30 2006 N 177.372 -0.689602 1.41712 0
M  V30 2007 C 178.597 -1.48329 1.44959 0
M  V30 2008 C 179.022 -1.8801 0.0581283 0
M  V30 2009 O 178.38 -1.55026 -0.940035 0
M  V30 2010 C 178.428 -2.71835 2.36935 0
M  V30 2011 O 177.532 -3.69549 1.8305 0
M  V30 2012 H 176.873 -0.446199 0.491734 0
M  V30 2013 H 179.403 -0.847127 1.86239 0
M  V30 2014 H 179.413 -3.20076 2.53013 0
M  V30 2015 H 178.088 -2.42291 3.38035 0
M  V30 2016 H 176.665 -3.2851 1.76452 0
M  V30 2017 N 178.85 -1.27639 -0.924453 0
M  V30 2018 C 179.782 -1.06442 -2.02985 0
M  V30 2019 C 180.795 -0.0194771 -1.62788 0
M  V30 2020 O 181.984 -0.261388 -1.76576 0
M  V30 2021 C 179.084 -0.59327 -3.33667 0
M  V30 2022 C 178.257 -1.71123 -4.02537 0
M  V30 2023 C 177.316 -1.23527 -5.11495 0
M  V30 2024 O 176.342 -1.93553 -5.35281 0
M  V30 2025 N 177.544 -0.0926678 -5.80426 0
M  V30 2026 H 180.309 -2.01633 -2.2173 0
M  V30 2027 H 177.87 -1.19248 -1.09505 0
M  V30 2028 H 179.862 -0.258686 -4.03872 0
M  V30 2029 H 178.432 0.265502 -3.1147 0
M  V30 2030 H 177.652 -2.21593 -3.26022 0
M  V30 2031 H 178.94 -2.46145 -4.45298 0
M  V30 2032 H 178.338 0.491741 -5.63559 0
M  V30 2033 H 176.895 0.182714 -6.51544 0
M  V30 2034 N 180.328 1.1314 -1.09713 0
M  V30 2035 C 181.558 1.88048 -0.855656 0
M  V30 2036 C 181.966 1.79537 0.596919 0
M  V30 2037 O 181.309 1.16196 1.42282 0
M  V30 2038 C 181.371 3.38314 -1.21589 0
M  V30 2039 C 181.035 3.70605 -2.67397 0
M  V30 2040 C 182.032 3.69596 -3.65643 0
M  V30 2041 C 179.717 4.0017 -3.03593 0
M  V30 2042 C 181.711 3.977 -4.9811 0
M  V30 2043 C 179.398 4.27935 -4.36251 0
M  V30 2044 C 180.396 4.26685 -5.33318 0
M  V30 2045 O 180.084 4.53767 -6.63589 0
M  V30 2046 H 179.816 0.60208 -0.307368 0
M  V30 2047 H 182.37 1.44128 -1.46343 0
M  V30 2048 H 180.6 3.82752 -0.551177 0
M  V30 2049 H 182.289 3.94552 -0.953083 0
M  V30 2050 H 183.055 3.46826 -3.39023 0
M  V30 2051 H 178.934 4.00289 -2.2867 0
M  V30 2052 H 182.478 3.9664 -5.73866 0
M  V30 2053 H 178.375 4.50178 -4.62613 0
M  V30 2054 H 179.143 4.71422 -6.69107 0
M  V30 2055 N 181.806 0.884767 1.30421 0
M  V30 2056 C 183.054 0.502112 1.95763 0
M  V30 2057 C 183.375 -0.951815 1.70192 0
M  V30 2058 O 182.645 -1.6692 1.0254 0
M  V30 2059 H 181.225 0.182694 0.724315 0
M  V30 2060 H 183.887 1.1278 1.58955 0
M  V30 2061 H 182.983 0.672188 3.04775 0
M  V30 2062 N 183.284 -1.43765 0.645699 0
M  V30 2063 C 184.234 -2.27884 -0.0726442 0
M  V30 2064 C 185.218 -1.39483 -0.802086 0
M  V30 2065 O 186.41 -1.63174 -0.685791 0
M  V30 2066 C 183.539 -3.27055 -1.04356 0
M  V30 2067 C 182.625 -4.22944 -0.312985 0
M  V30 2068 N 183.016 -5.01391 0.666386 0
M  V30 2069 C 181.314 -4.42528 -0.55546 0
M  V30 2070 C 182.015 -5.71217 1.09935 0
M  V30 2071 N 180.991 -5.41856 0.435137 0
M  V30 2072 H 184.793 -2.85949 0.678988 0
M  V30 2073 H 182.307 -1.55378 0.472368 0
M  V30 2074 H 184.304 -3.86089 -1.57292 0
M  V30 2075 H 182.964 -2.70551 -1.79534 0
M  V30 2076 H 183.975 -5.07252 1.04481 0
M  V30 2077 H 180.652 -3.97104 -1.28899 0
M  V30 2078 H 182.042 -6.44202 1.90929 0
M  V30 2079 N 184.763 -0.387143 -1.52771 0
M  V30 2080 C 186.012 0.19697 -2.00736 0
M  V30 2081 C 186.325 1.48082 -1.27793 0
M  V30 2082 O 187.531 2.14485 -1.66458 0
M  V30 2083 C 185.987 0.401568 -3.57653 0
M  V30 2084 C 185.595 -0.868907 -4.39493 0
M  V30 2085 C 187.339 0.942164 -4.13912 0
M  V30 2086 C 185.246 -0.632705 -5.88006 0
M  V30 2087 H 184.176 0.0773827 -0.750019 0
M  V30 2088 H 186.827 -0.50921 -1.76293 0
M  V30 2089 H 185.209 1.16954 -3.78335 0
M  V30 2090 H 186.383 -1.64133 -4.30577 0
M  V30 2091 H 184.698 -1.33429 -3.94443 0
M  V30 2092 H 187.295 1.13455 -5.22525 0
M  V30 2093 H 187.638 1.9106 -3.69867 0
M  V30 2094 H 188.171 0.233814 -3.97112 0
M  V30 2095 H 184.91 -1.57208 -6.36369 0
M  V30 2096 H 184.43 0.100825 -5.99715 0
M  V30 2097 H 186.109 -0.26642 -6.46451 0
M  V30 2098 N 186.241 1.57166 -0.116904 0
M  V30 2099 C 187.488 1.95123 0.541603 0
M  V30 2100 C 187.816 1.00006 1.6682 0
M  V30 2101 O 187.071 0.0235658 1.95686 0
M  V30 2102 C 187.37 3.39508 1.11664 0
M  V30 2103 C 187.036 4.50762 0.111606 0
M  V30 2104 C 185.698 4.80918 -0.164758 0
M  V30 2105 C 188.05 5.18036 -0.573438 0
M  V30 2106 C 185.378 5.75666 -1.13249 0
M  V30 2107 C 187.73 6.13824 -1.52978 0
M  V30 2108 C 186.394 6.42374 -1.81415 0
M  V30 2109 H 185.664 0.714005 0.198187 0
M  V30 2110 H 188.311 1.9048 -0.197365 0
M  V30 2111 H 186.616 3.40835 1.93232 0
M  V30 2112 H 188.313 3.66189 1.63422 0
M  V30 2113 H 184.903 4.27272 0.337192 0
M  V30 2114 H 189.087 4.94896 -0.373092 0
M  V30 2115 H 184.343 5.96092 -1.35958 0
M  V30 2116 H 188.517 6.65039 -2.06629 0
M  V30 2117 H 186.144 7.15599 -2.56557 0
M  V30 2118 N 187.719 -0.156864 1.56817 0
M  V30 2119 C 189.135 -0.50916 1.5126 0
M  V30 2120 C 189.335 -1.83897 0.823658 0
M  V30 2121 O 188.391 -2.49469 0.390055 0
M  V30 2122 C 189.704 -0.52857 2.96018 0
M  V30 2123 C 191.252 -0.614771 3.06903 0
M  V30 2124 C 191.727 -0.664938 4.53147 0
M  V30 2125 N 193.218 -0.727433 4.57452 0
M  V30 2126 C 193.953 -0.787067 5.67973 0
M  V30 2127 N 193.449 -0.806649 6.88088 0
M  V30 2128 N 195.242 -0.827195 5.5598 0
M  V30 2129 H 187.393 0.714935 2.00006 0
M  V30 2130 H 189.656 0.259526 0.911784 0
M  V30 2131 H 189.362 0.380154 3.49639 0
M  V30 2132 H 189.236 -1.36998 3.51442 0
M  V30 2133 H 191.623 -1.51392 2.53307 0
M  V30 2134 H 191.704 0.253597 2.5454 0
M  V30 2135 H 191.348 0.230011 5.07379 0
M  V30 2136 H 191.278 -1.54966 5.03282 0
M  V30 2137 H 193.769 -0.719998 3.70978 0
M  V30 2138 H 194.082 -0.853727 7.6807 0
M  V30 2139 H 192.427 -0.774687 6.90669 0
M  V30 2140 H 195.618 -0.808998 4.61056 0
M  V30 2141 H 195.791 -0.870206 6.4213 0
M  V30 2142 N 189.197 -1.51736 -0.425897 0
M  V30 2143 C 190.613 -1.40166 -0.76326 0
M  V30 2144 C 190.813 -0.492962 -1.95377 0
M  V30 2145 O 189.869 0.0475815 -2.52455 0
M  V30 2146 C 191.182 -2.82403 -1.03291 0
M  V30 2147 C 192.73 -2.91632 -1.13665 0
M  V30 2148 C 193.205 -4.34801 -1.43916 0
M  V30 2149 N 194.696 -4.3796 -1.50816 0
M  V30 2150 C 195.431 -5.4578 -1.75817 0
M  V30 2151 N 194.927 -6.63744 -1.98534 0
M  V30 2152 N 196.72 -5.33274 -1.77694 0
M  V30 2153 H 188.871 -2.09361 0.358 0
M  V30 2154 H 191.134 -0.942941 0.0978094 0
M  V30 2155 H 190.84 -3.50943 -0.230696 0
M  V30 2156 H 190.714 -3.22428 -1.95754 0
M  V30 2157 H 193.101 -2.23284 -1.92947 0
M  V30 2158 H 193.182 -2.55088 -0.190756 0
M  V30 2159 H 192.826 -5.03703 -0.65157 0
M  V30 2160 H 192.756 -4.68868 -2.39729 0
M  V30 2161 H 195.247 -3.52919 -1.35118 0
M  V30 2162 H 195.56 -7.41704 -2.17013 0
M  V30 2163 H 193.905 -6.66839 -1.95832 0
M  V30 2164 H 197.096 -4.40098 -1.59473 0
M  V30 2165 H 197.269 -6.1738 -1.9684 0
M  V30 2166 N 190.675 0.682077 -1.42076 0
M  V30 2167 C 192.086 1.26246 -1.37546 0
M  V30 2168 C 192.437 1.96092 -0.0651481 0
M  V30 2169 O 191.562 1.99587 0.836297 0
M  V30 2170 C 192.157 2.29594 -2.49143 0
M  V30 2171 C 190.716 2.83175 -2.47969 0
M  V30 2172 C 189.863 1.57395 -2.28303 0
M  V30 2173 H 192.814 0.475937 -1.51395 0
M  V30 2174 H 192.835 3.11175 -2.18976 0
M  V30 2175 H 192.347 1.78729 -3.44496 0
M  V30 2176 H 190.448 3.3818 -1.56413 0
M  V30 2177 H 190.561 3.32687 -3.44755 0
M  V30 2178 H 188.925 1.83699 -1.76428 0
M  V30 2179 H 189.708 1.08507 -3.25701 0
M  V30 2180 N 192.153 1.28127 0.917671 0
M  V30 2181 C 193.1 1.11717 2.0196 0
M  V30 2182 C 194.07 0.0153929 1.66093 0
M  V30 2183 O 195.255 0.179596 1.89953 0
M  V30 2184 C 192.395 0.780927 3.36148 0
M  V30 2185 C 191.508 1.96135 3.84909 0
M  V30 2186 C 190.643 1.56609 5.0759 0
M  V30 2187 C 189.682 2.71339 5.48673 0
M  V30 2188 N 188.819 2.32332 6.62545 0
M  V30 2189 H 193.659 2.06003 2.15329 0
M  V30 2190 H 191.196 1.02535 1.05475 0
M  V30 2191 H 193.154 0.56675 4.13333 0
M  V30 2192 H 191.784 -0.124998 3.22558 0
M  V30 2193 H 190.836 2.28777 3.03916 0
M  V30 2194 H 192.148 2.82165 4.1132 0
M  V30 2195 H 191.302 1.31374 5.92305 0
M  V30 2196 H 190.041 0.677014 4.82978 0
M  V30 2197 H 189.046 2.97276 4.62501 0
M  V30 2198 H 190.271 3.60882 5.75274 0
M  V30 2199 H 188.217 1.45889 6.39572 0
M  V30 2200 H 188.134 3.11899 6.88662 0
M  V30 2201 H 189.402 2.10371 7.50576 0
M  V30 2202 N 193.631 -1.12557 1.10312 0
M  V30 2203 C 194.879 -1.83675 0.843091 0
M  V30 2204 C 195.2 -1.84435 -0.633131 0
M  V30 2205 O 194.47 -1.30657 -1.45964 0
M  V30 2206 H 193.05 -0.680138 0.308904 0
M  V30 2207 H 195.712 -1.36301 1.39313 0
M  V30 2208 H 194.808 -2.87908 1.2048 0
M  V30 2209 N 195.109 -0.891671 -1.2995 0
M  V30 2210 C 196.039 -0.379797 -2.30391 0
M  V30 2211 C 197.02 0.540919 -1.6127 0
M  V30 2212 O 198.205 0.453352 -1.88834 0
M  V30 2213 C 195.335 0.400654 -3.44981 0
M  V30 2214 C 194.289 -0.428905 -4.25846 0
M  V30 2215 C 193.615 0.478557 -5.32554 0
M  V30 2216 C 194.915 -1.67458 -4.94727 0
M  V30 2217 H 196.609 -1.21914 -2.73454 0
M  V30 2218 H 194.155 -0.587675 -1.31462 0
M  V30 2219 H 196.108 0.769434 -4.14316 0
M  V30 2220 H 194.832 1.27371 -3.0074 0
M  V30 2221 H 193.491 -0.779911 -3.58208 0
M  V30 2222 H 193.139 1.34951 -4.84559 0
M  V30 2223 H 192.839 -0.0727433 -5.87555 0
M  V30 2224 H 194.363 0.843705 -6.04743 0
M  V30 2225 H 195.777 -1.376 -5.56542 0
M  V30 2226 H 194.174 -2.16659 -5.59624 0
M  V30 2227 H 195.244 -2.41518 -4.20473 0
M  V30 2228 N 196.587 1.43421 -0.653314 0
M  V30 2229 C 197.834 2.01812 -0.166745 0
M  V30 2230 C 198.162 1.51535 1.21931 0
M  V30 2231 O 197.417 0.698975 1.82792 0
M  V30 2232 C 197.716 3.57176 -0.126623 0
M  V30 2233 C 197.382 4.26798 -1.45444 0
M  V30 2234 C 196.044 4.45534 -1.81805 0
M  V30 2235 C 198.396 4.66225 -2.32989 0
M  V30 2236 C 195.724 5.00961 -3.05377 0
M  V30 2237 C 198.076 5.23021 -3.55853 0
M  V30 2238 C 196.74 5.39973 -3.9241 0
M  V30 2239 H 196.01 0.738484 -0.0610162 0
M  V30 2240 H 198.657 1.71896 -0.84404 0
M  V30 2241 H 196.962 3.86634 0.634123 0
M  V30 2242 H 198.659 4.00112 0.266723 0
M  V30 2243 H 195.249 4.12561 -1.16153 0
M  V30 2244 H 199.433 4.51443 -2.06187 0
M  V30 2245 H 194.689 5.12271 -3.3375 0
M  V30 2246 H 198.863 5.52518 -4.23907 0
M  V30 2247 H 196.49 5.82687 -4.88242 0
M  V30 2248 N 198.065 0.39524 1.52563 0
M  V30 2249 C 199.314 -0.186321 2.00838 0
M  V30 2250 C 199.627 -1.47402 1.28577 0
M  V30 2251 O 200.833 -2.13599 1.67593 0
M  V30 2252 C 199.289 -0.382595 3.57861 0
M  V30 2253 C 198.897 0.892202 4.39026 0
M  V30 2254 C 200.641 -0.9202 4.14406 0
M  V30 2255 C 198.548 0.66388 5.87662 0
M  V30 2256 H 197.478 -0.0734041 0.750418 0
M  V30 2257 H 200.129 0.518552 1.76021 0
M  V30 2258 H 198.511 -1.14946 3.7895 0
M  V30 2259 H 199.685 1.66414 4.29701 0
M  V30 2260 H 198 1.35519 3.9373 0
M  V30 2261 H 200.597 -1.10683 5.23119 0
M  V30 2262 H 200.94 -1.89096 3.70875 0
M  V30 2263 H 201.473 -0.212751 3.97231 0
M  V30 2264 H 198.212 1.6058 6.35527 0
M  V30 2265 H 197.732 -0.0690193 5.9976 0
M  V30 2266 H 199.411 0.300699 6.46301 0
M  V30 2267 N 199.544 -1.57102 0.125237 0
M  V30 2268 C 200.769 -2.0019 -0.542101 0
M  V30 2269 C 201.194 -1.00449 -1.59034 0
M  V30 2270 O 200.552 0.0229423 -1.81285 0
M  V30 2271 C 200.6 -3.42129 -1.13929 0
M  V30 2272 O 199.704 -3.45307 -2.2547 0
M  V30 2273 H 199.045 -0.650171 -0.134812 0
M  V30 2274 H 201.575 -2.03461 0.215553 0
M  V30 2275 H 201.585 -3.80471 -1.4733 0
M  V30 2276 H 200.26 -4.14237 -0.371531 0
M  V30 2277 H 198.837 -3.1879 -1.93462 0
M  V30 2278 N 201.022 0.148545 -1.56898 0
M  V30 2279 C 202.271 0.85984 -1.82454 0
M  V30 2280 C 202.584 1.82406 -0.706229 0
M  V30 2281 O 203.79 2.57938 -0.847349 0
M  V30 2282 C 202.246 1.57967 -3.2338 0
M  V30 2283 C 201.854 0.65794 -4.43142 0
M  V30 2284 C 203.598 2.27784 -3.58211 0
M  V30 2285 C 201.505 1.3793 -5.75091 0
M  V30 2286 H 200.435 0.324834 -0.68044 0
M  V30 2287 H 203.086 0.112588 -1.83154 0
M  V30 2288 H 201.468 2.37249 -3.17063 0
M  V30 2289 H 202.642 -0.0995497 -4.60692 0
M  V30 2290 H 200.957 0.0682643 -4.16344 0
M  V30 2291 H 203.554 2.8239 -4.54048 0
M  V30 2292 H 203.897 3.04204 -2.84193 0
M  V30 2293 H 204.43 1.55421 -3.66182 0
M  V30 2294 H 201.169 0.656982 -6.52199 0
M  V30 2295 H 200.689 2.10954 -5.61479 0
M  V30 2296 H 202.368 1.92063 -6.17835 0
M  V30 2297 N 202.5 1.5196 0.417844 0
M  V30 2298 C 203.725 1.69717 1.1921 0
M  V30 2299 C 204.15 0.402148 1.83751 0
M  V30 2300 O 203.508 -0.639593 1.69643 0
M  V30 2301 C 203.556 2.82794 2.2374 0
M  V30 2302 O 202.66 2.47756 3.29683 0
M  V30 2303 H 202.001 0.565263 0.348387 0
M  V30 2304 H 204.531 1.98621 0.490985 0
M  V30 2305 H 204.541 3.07452 2.68212 0
M  V30 2306 H 203.216 3.76756 1.76146 0
M  V30 2307 H 201.793 2.33739 2.90552 0
M  V30 2308 N 203.978 -0.674533 1.42435 0
M  V30 2309 C 205.255 -1.4305 1.33402 0
M  V30 2310 C 205.635 -2.11081 -0.0284674 0
M  V30 2311 O 204.983 -2.03257 -1.04397 0
M  V30 2312 C 205.193 -2.43272 2.50239 0
M  V30 2313 C 206.541 -3.07907 2.92367 0
M  V30 2314 O 207.565 -2.53599 2.50132 0
M  V30 2315 O 206.424 -4.0632 3.65467 0
M  V30 2316 H 203.518 -0.638076 0.526106 0
M  V30 2317 H 206.064 -0.703235 1.54443 0
M  V30 2318 H 204.836 -1.91803 3.41068 0
M  V30 2319 H 204.459 -3.23479 2.31186 0
M  V30 2320 N 205.456 -1.28612 -0.910864 0
M  V30 2321 C 206.872 -1.06381 -1.18976 0
M  V30 2322 C 207.072 0.191998 -2.00583 0
M  V30 2323 O 206.128 0.892869 -2.36187 0
M  V30 2324 C 207.441 -2.31295 -1.92154 0
M  V30 2325 C 208.989 -2.36503 -2.05025 0
M  V30 2326 C 209.464 -3.61191 -2.81612 0
M  V30 2327 N 210.955 -3.61847 -2.89172 0
M  V30 2328 C 211.69 -4.55004 -3.4894 0
M  V30 2329 N 211.186 -5.58482 -4.09963 0
M  V30 2330 N 212.979 -4.42594 -3.46506 0
M  V30 2331 H 205.13 -2.09221 -0.366094 0
M  V30 2332 H 207.393 -0.921003 -0.224629 0
M  V30 2333 H 207.099 -3.228 -1.39618 0
M  V30 2334 H 206.973 -2.37934 -2.9269 0
M  V30 2335 H 209.36 -1.45494 -2.5674 0
M  V30 2336 H 209.441 -2.33857 -1.03657 0
M  V30 2337 H 209.085 -4.52545 -2.30576 0
M  V30 2338 H 209.015 -3.61092 -3.83302 0
M  V30 2339 H 211.506 -2.87022 -2.45819 0
M  V30 2340 H 211.819 -6.25704 -4.53557 0
M  V30 2341 H 210.164 -5.62305 -4.08459 0
M  V30 2342 H 213.355 -3.60953 -2.98045 0
M  V30 2343 H 213.528 -5.15381 -3.92793 0
M  V30 2344 N 206.934 1.1197 -1.10907 0
M  V30 2345 C 208.182 1.83225 -0.852819 0
M  V30 2346 C 208.503 1.84769 0.623341 0
M  V30 2347 O 207.773 1.3143 1.45269 0
M  V30 2348 H 206.353 0.67849 -0.312507 0
M  V30 2349 H 209.015 1.3556 -1.40033 0
M  V30 2350 H 208.111 2.87265 -1.22005 0
M  V30 2351 N 208.412 0.89855 1.29475 0
M  V30 2352 C 209.362 0.346767 2.25348 0
M  V30 2353 C 210.346 -0.532509 1.51833 0
M  V30 2354 O 211.538 -0.374714 1.72988 0
M  V30 2355 C 208.667 -0.425681 3.40651 0
M  V30 2356 C 207.753 0.46845 4.21505 0
M  V30 2357 N 208.144 1.57514 4.80648 0
M  V30 2358 C 206.442 0.26603 4.45206 0
M  V30 2359 C 207.143 2.12889 5.41344 0
M  V30 2360 N 206.119 1.42208 5.24669 0
M  V30 2361 H 209.921 1.19219 2.68634 0
M  V30 2362 H 207.435 0.749473 1.44072 0
M  V30 2363 H 209.432 -0.837716 4.08397 0
M  V30 2364 H 208.092 -1.26838 2.98902 0
M  V30 2365 H 209.103 1.95789 4.79465 0
M  V30 2366 H 205.78 -0.538394 4.14014 0
M  V30 2367 H 207.17 3.05901 5.98226 0
M  V30 2368 N 209.89 -1.43072 0.660911 0
M  V30 2369 C 211.136 -2.0202 0.177708 0
M  V30 2370 C 211.469 -1.52066 -1.20787 0
M  V30 2371 O 210.744 -0.716987 -1.80802 0
M  V30 2372 C 211.027 -3.59561 0.197019 0
M  V30 2373 C 210.88 -4.19727 1.61706 0
M  V30 2374 C 212.199 -4.37664 -0.462396 0
M  V30 2375 H 209.318 -0.734034 0.0660494 0
M  V30 2376 H 211.96 -1.70272 0.843058 0
M  V30 2377 H 210.11 -3.86739 -0.369527 0
M  V30 2378 H 211.782 -4.03553 2.23479 0
M  V30 2379 H 210.025 -3.76084 2.16201 0
M  V30 2380 H 210.696 -5.28834 1.58237 0
M  V30 2381 H 213.172 -4.16095 0.0197215 0
M  V30 2382 H 212.048 -5.47305 -0.418188 0
M  V30 2383 H 212.309 -4.14493 -1.53778 0
M  V30 2384 N 211.368 -0.403325 -1.52352 0
M  V30 2385 C 212.784 -0.0539281 -1.59509 0
M  V30 2386 C 212.984 1.43307 -1.41652 0
M  V30 2387 O 212.04 2.19924 -1.24056 0
M  V30 2388 C 213.353 -0.543654 -2.95745 0
M  V30 2389 C 214.901 -0.501125 -3.08962 0
M  V30 2390 C 215.376 -0.967267 -4.47669 0
M  V30 2391 N 216.867 -0.923849 -4.53893 0
M  V30 2392 C 217.602 -1.25578 -5.5948 0
M  V30 2393 N 217.098 -1.65889 -6.72646 0
M  V30 2394 N 218.891 -1.17613 -5.49658 0
M  V30 2395 H 211.042 -1.37123 -1.62206 0
M  V30 2396 H 213.305 -0.56294 -0.76276 0
M  V30 2397 H 213.011 -1.58275 -3.14073 0
M  V30 2398 H 212.885 0.0498042 -3.77167 0
M  V30 2399 H 215.272 0.528909 -2.90321 0
M  V30 2400 H 215.353 -1.13056 -2.2946 0
M  V30 2401 H 214.997 -1.9956 -4.67053 0
M  V30 2402 H 214.927 -0.314698 -5.25659 0
M  V30 2403 H 217.418 -0.627403 -3.72655 0
M  V30 2404 H 217.731 -1.89543 -7.49195 0
M  V30 2405 H 216.076 -1.69787 -6.73942 0
M  V30 2406 H 219.267 -0.860115 -4.6013 0
M  V30 2407 H 219.44 -1.43812 -6.3184 0
M  V30 2408 N 212.846 1.57033 -0.133567 0
M  V30 2409 C 214.071 2.00475 0.531477 0
M  V30 2410 C 214.496 1.01291 1.58499 0
M  V30 2411 O 213.854 -0.0133279 1.81295 0
M  V30 2412 C 213.902 3.42729 1.12113 0
M  V30 2413 O 213.006 3.46498 2.23636 0
M  V30 2414 H 212.347 0.650876 0.131362 0
M  V30 2415 H 214.877 2.03344 -0.22634 0
M  V30 2416 H 214.887 3.81246 1.4531 0
M  V30 2417 H 213.562 4.14428 0.349557 0
M  V30 2418 H 212.139 3.19811 1.91769 0
M  V30 2419 N 214.325 -0.140222 1.56975 0
M  V30 2420 C 215.574 -0.850152 1.82908 0
M  V30 2421 C 215.887 -1.82028 0.715892 0
M  V30 2422 O 217.093 -2.57485 0.861016 0
M  V30 2423 C 215.549 -1.5625 3.24213 0
M  V30 2424 C 215.157 -0.63443 4.43485 0
M  V30 2425 C 216.901 -2.25881 3.59413 0
M  V30 2426 C 214.808 -1.34879 5.75814 0
M  V30 2427 H 213.738 -0.321221 0.682153 0
M  V30 2428 H 216.389 -0.102874 1.83211 0
M  V30 2429 H 214.771 -2.35565 3.18316 0
M  V30 2430 H 215.945 0.12398 4.60633 0
M  V30 2431 H 214.26 -0.0461836 4.16374 0
M  V30 2432 H 216.857 -2.79978 4.5554 0
M  V30 2433 H 217.2 -3.02693 2.85802 0
M  V30 2434 H 217.733 -1.53477 3.67001 0
M  V30 2435 H 214.472 -0.622385 6.52539 0
M  V30 2436 H 213.992 -2.07974 5.6259 0
M  V30 2437 H 215.671 -1.88784 6.18845 0
M  V30 2438 N 215.803 -1.52179 -0.40978 0
M  V30 2439 C 217.049 -1.66453 -1.15851 0
M  V30 2440 C 217.382 -0.392972 -1.90182 0
M  V30 2441 O 216.657 0.608579 -1.84734 0
M  V30 2442 C 216.94 -2.88612 -2.15349 0
M  V30 2443 C 216.793 -4.25815 -1.44918 0
M  V30 2444 C 218.112 -3.06294 -3.16026 0
M  V30 2445 H 215.231 -0.60575 -0.419805 0
M  V30 2446 H 217.873 -1.84732 -0.444314 0
M  V30 2447 H 216.023 -2.73158 -2.76255 0
M  V30 2448 H 217.695 -4.52995 -0.871365 0
M  V30 2449 H 215.938 -4.27247 -0.751159 0
M  V30 2450 H 216.609 -5.07337 -2.17516 0
M  V30 2451 H 219.085 -3.20641 -2.65195 0
M  V30 2452 H 217.961 -3.93283 -3.8291 0
M  V30 2453 H 218.222 -2.19579 -3.83715 0
M  V30 2454 N 217.281 0.66697 -1.42791 0
M  V30 2455 C 218.558 1.4234 -1.34159 0
M  V30 2456 C 218.938 2.11093 0.0172729 0
M  V30 2457 O 218.286 2.03808 1.03318 0
M  V30 2458 C 218.496 2.41942 -2.51526 0
M  V30 2459 C 219.844 3.06353 -2.93995 0
M  V30 2460 O 220.868 2.52269 -2.51473 0
M  V30 2461 O 219.727 4.04376 -3.67617 0
M  V30 2462 H 216.821 0.635277 -0.529483 0
M  V30 2463 H 219.367 0.695034 -1.54814 0
M  V30 2464 H 218.139 1.89991 -3.42081 0
M  V30 2465 H 217.762 3.22249 -2.32898 0
M  V30 2466 N 218.759 1.29093 0.90403 0
M  V30 2467 C 219.707 1.13727 2.02901 0
M  V30 2468 C 220.701 0.0539853 1.69314 0
M  V30 2469 O 221.907 0.213469 1.7873 0
M  V30 2470 H 218.282 0.35117 0.664969 0
M  V30 2471 H 220.253 2.08982 2.13001 0
M  V30 2472 C 219.002 0.826066 3.37745 0
M  V30 2473 H 218.325 1.65164 3.64089 0
M  V30 2474 H 219.765 0.758559 4.17159 0
M  V30 2475 C 218.224 -0.470541 3.33598 0
M  V30 2476 O 218.754 -1.49792 3.72727 0
M  V30 2477 N 216.96 -0.474812 2.86695 0
M  V30 2478 H 216.507 0.361692 2.55048 0
M  V30 2479 H 216.465 -1.34236 2.84303 0
M  V30 2480 N 220.237 -1.11381 1.11499 0
M  V30 2481 C 221.483 -1.83597 0.875423 0
M  V30 2482 C 221.838 -1.83048 -0.592555 0
M  V30 2483 O 221.131 -1.27304 -1.43193 0
M  V30 2484 C 221.325 -3.30026 1.37177 0
M  V30 2485 C 221.154 -3.44837 2.88647 0
M  V30 2486 C 219.924 -3.57825 3.56776 0
M  V30 2487 C 222.122 -3.3907 3.86699 0
M  V30 2488 N 220.104 -3.61113 4.96458 0
M  V30 2489 C 221.475 -3.48986 5.12454 0
M  V30 2490 C 223.53 -3.22605 3.7925 0
M  V30 2491 C 222.233 -3.44135 6.31636 0
M  V30 2492 C 224.259 -3.19072 4.97943 0
M  V30 2493 C 223.621 -3.29559 6.22551 0
M  V30 2494 H 219.72 -0.687044 0.37349 0
M  V30 2495 H 222.304 -1.33265 1.41946 0
M  V30 2496 H 220.475 -3.78874 0.854919 0
M  V30 2497 H 222.207 -3.90153 1.07529 0
M  V30 2498 H 218.962 -3.60414 3.07244 0
M  V30 2499 H 219.386 -3.66394 5.69284 0
M  V30 2500 H 224.028 -3.13382 2.83816 0
M  V30 2501 H 221.746 -3.52126 7.27347 0
M  V30 2502 H 225.332 -3.07498 4.93899 0
M  V30 2503 H 224.212 -3.26815 7.12855 0
M  V30 2504 N 221.715 -0.905404 -1.28997 0
M  V30 2505 C 223.126 -0.581953 -1.77398 0
M  V30 2506 C 223.477 0.902552 -1.74208 0
M  V30 2507 O 222.602 1.70584 -1.33154 0
M  V30 2508 C 223.197 -1.04961 -3.22131 0
M  V30 2509 C 221.756 -0.777229 -3.68288 0
M  V30 2510 C 220.903 -1.22109 -2.48967 0
M  V30 2511 H 223.854 -1.08754 -1.15578 0
M  V30 2512 H 223.875 -0.387387 -3.78523 0
M  V30 2513 H 223.387 -2.13008 -3.24421 0
M  V30 2514 H 221.488 0.290383 -3.71467 0
M  V30 2515 H 221.601 -1.37911 -4.58822 0
M  V30 2516 H 219.965 -0.639971 -2.46529 0
M  V30 2517 H 220.748 -2.30972 -2.53982 0
M  V30 2518 N 223.193 1.4272 -0.668489 0
M  V30 2519 C 224.103 2.34596 0.0139753 0
M  V30 2520 C 225.119 1.5474 0.795703 0
M  V30 2521 O 226.295 1.87334 0.739466 0
M  V30 2522 C 223.36 3.33202 0.957982 0
M  V30 2523 C 222.421 4.28957 0.17149 0
M  V30 2524 C 221.654 5.22853 1.07053 0
M  V30 2525 O 221.877 5.21531 2.31001 0
M  V30 2526 O 220.811 5.9952 0.534727 0
M  V30 2527 H 224.637 2.9448 -0.742661 0
M  V30 2528 H 222.222 1.43117 -0.428705 0
M  V30 2529 H 224.104 3.93796 1.50008 0
M  V30 2530 H 222.779 2.758 1.69458 0
M  V30 2531 H 221.686 3.71796 -0.414558 0
M  V30 2532 H 223.019 4.89383 -0.52586 0
M  V30 2533 N 224.671 0.411399 1.52136 0
M  V30 2534 C 225.619 -0.427633 2.28635 0
M  V30 2535 C 226.613 -1.04383 1.33419 0
M  V30 2536 O 227.819 -0.981772 1.50868 0
M  V30 2537 H 224.194 -0.156689 0.735495 0
M  V30 2538 H 226.165 0.238761 2.97443 0
M  V30 2539 C 224.914 -1.53082 3.12188 0
M  V30 2540 H 224.237 -1.06601 3.85326 0
M  V30 2541 H 225.677 -2.09167 3.68816 0
M  V30 2542 C 224.136 -2.49946 2.25895 0
M  V30 2543 O 224.666 -3.53884 1.90076 0
M  V30 2544 N 222.872 -2.2021 1.8962 0
M  V30 2545 H 222.419 -1.35719 2.18948 0
M  V30 2546 H 222.377 -2.85266 1.32176 0
M  V30 2547 N 226.149 -1.5696 0.141893 0
M  V30 2548 C 227.099 -2.13074 -0.811383 0
M  V30 2549 C 228.083 -1.05726 -1.21288 0
M  V30 2550 O 229.275 -1.31914 -1.18015 0
M  V30 2551 C 226.404 -2.75186 -2.0525 0
M  V30 2552 C 225.49 -3.8965 -1.67432 0
M  V30 2553 N 225.881 -4.95733 -1.0041 0
M  V30 2554 C 224.179 -4.00262 -1.96739 0
M  V30 2555 C 224.88 -5.75858 -0.822345 0
M  V30 2556 N 223.856 -5.26452 -1.3546 0
M  V30 2557 H 227.658 -2.92465 -0.290031 0
M  V30 2558 H 225.172 -1.6229 -0.0598218 0
M  V30 2559 H 227.169 -3.13745 -2.74535 0
M  V30 2560 H 225.829 -1.97266 -2.57907 0
M  V30 2561 H 226.84 -5.13607 -0.665441 0
M  V30 2562 H 223.517 -3.33412 -2.51282 0
M  V30 2563 H 224.907 -6.71254 -0.294496 0
M  V30 2564 N 227.627 0.131896 -1.57047 0
M  V30 2565 C 228.873 0.843179 -1.84441 0
M  V30 2566 C 229.206 1.80129 -0.725749 0
M  V30 2567 O 228.481 1.92624 0.269469 0
M  V30 2568 C 228.764 1.60442 -3.22382 0
M  V30 2569 C 228.617 0.666782 -4.4483 0
M  V30 2570 C 229.936 2.56354 -3.5773 0
M  V30 2571 H 227.055 0.305081 -0.670891 0
M  V30 2572 H 229.697 0.107839 -1.89694 0
M  V30 2573 H 227.847 2.23128 -3.18035 0
M  V30 2574 H 229.519 0.0497646 -4.61273 0
M  V30 2575 H 227.762 -0.022609 -4.33794 0
M  V30 2576 H 228.433 1.23579 -5.37989 0
M  V30 2577 H 230.909 2.0378 -3.62785 0
M  V30 2578 H 229.785 3.06657 -4.5525 0
M  V30 2579 H 230.046 3.38419 -2.84473 0
M  V30 2580 N 229.106 1.52395 0.401703 0
M  V30 2581 C 230.053 1.76268 1.48991 0
M  V30 2582 C 231.023 0.605386 1.54675 0
M  V30 2583 O 232.208 0.843742 1.7113 0
M  V30 2584 C 229.348 1.92592 2.86361 0
M  V30 2585 C 228.461 3.20259 2.89928 0
M  V30 2586 C 227.596 3.26972 4.18644 0
M  V30 2587 C 226.635 4.48812 4.16214 0
M  V30 2588 N 225.772 4.52877 5.36514 0
M  V30 2589 H 230.612 2.6914 1.27935 0
M  V30 2590 H 228.149 1.33355 0.620871 0
M  V30 2591 H 230.107 2.0004 3.66115 0
M  V30 2592 H 228.737 1.03093 3.05895 0
M  V30 2593 H 227.789 3.21945 2.02621 0
M  V30 2594 H 229.101 4.10056 2.83999 0
M  V30 2595 H 228.255 3.33533 5.06794 0
M  V30 2596 H 226.994 2.35126 4.27278 0
M  V30 2597 H 225.999 4.4239 3.26453 0
M  V30 2598 H 227.224 5.41961 4.09213 0
M  V30 2599 H 225.17 3.63917 5.45802 0
M  V30 2600 H 225.087 5.36529 5.32609 0
M  V30 2601 H 226.355 4.63676 6.26597 0
M  V30 2602 N 230.584 -0.659388 1.43143 0
M  V30 2603 C 231.547 -1.75432 1.47501 0
M  V30 2604 C 232.547 -1.56707 0.360512 0
M  V30 2605 O 233.737 -1.62717 0.622002 0
M  V30 2606 C 230.869 -3.14239 1.32162 0
M  V30 2607 H 232.062 -1.7295 2.45006 0
M  V30 2608 H 229.615 -0.870469 1.29817 0
M  V30 2609 H 230.35 -3.22336 0.356401 0
M  V30 2610 H 230.135 -3.29235 2.12948 0
M  V30 2611 H 231.625 -3.94094 1.3813 0
M  V30 2612 N 232.062 -1.29571 -0.897171 0
M  V30 2613 C 233.308 -1.17863 -1.65034 0
M  V30 2614 C 233.641 0.268729 -1.92332 0
M  V30 2615 O 232.916 1.19378 -1.53555 0
M  V30 2616 C 233.199 -1.995 -2.99786 0
M  V30 2617 C 233.052 -3.5239 -2.79538 0
M  V30 2618 C 234.371 -1.82335 -4.00552 0
M  V30 2619 H 231.49 -0.429528 -0.598895 0
M  V30 2620 H 234.132 -1.59072 -1.03905 0
M  V30 2621 H 232.282 -1.64485 -3.51962 0
M  V30 2622 H 233.954 -3.97401 -2.34244 0
M  V30 2623 H 232.197 -3.77187 -2.14273 0
M  V30 2624 H 232.868 -4.04787 -3.75302 0
M  V30 2625 H 235.344 -2.12924 -3.57495 0
M  V30 2626 H 234.22 -2.41801 -4.92771 0
M  V30 2627 H 234.481 -0.779209 -4.35179 0
M  V30 2628 N 233.54 1.10788 -1.12088 0
M  V30 2629 C 234.786 1.82942 -0.875226 0
M  V30 2630 C 235.119 1.84779 0.597538 0
M  V30 2631 O 234.394 1.30578 1.44152 0
M  V30 2632 C 234.677 3.29789 -1.44606 0
M  V30 2633 C 234.53 3.36307 -2.98693 0
M  V30 2634 C 235.849 4.26064 -1.10261 0
M  V30 2635 H 232.968 0.664195 -0.319397 0
M  V30 2636 H 235.61 1.29867 -1.38689 0
M  V30 2637 H 233.76 3.75118 -1.01089 0
M  V30 2638 H 235.432 2.99487 -3.50864 0
M  V30 2639 H 233.675 2.76318 -3.34411 0
M  V30 2640 H 234.346 4.39694 -3.33726 0
M  V30 2641 H 236.822 3.88951 -1.4784 0
M  V30 2642 H 235.698 5.27183 -1.52869 0
M  V30 2643 H 235.959 4.42098 -0.0142953 0
M  V30 2644 N 235.018 0.912232 1.28515 0
M  V30 2645 C 236.264 0.545405 1.95328 0
M  V30 2646 C 236.597 -0.908313 1.71649 0
M  V30 2647 O 235.872 -1.64575 1.03659 0
M  V30 2648 C 236.155 0.853483 3.4984 0
M  V30 2649 C 236.008 2.35982 3.82926 0
M  V30 2650 C 237.327 0.348589 4.38717 0
M  V30 2651 H 234.446 0.199626 0.709449 0
M  V30 2652 H 237.088 1.1412 1.5191 0
M  V30 2653 H 235.238 0.34643 3.86952 0
M  V30 2654 H 236.91 2.93738 3.55691 0
M  V30 2655 H 235.153 2.81543 3.30024 0
M  V30 2656 H 235.824 2.52593 4.90816 0
M  V30 2657 H 238.3 0.78294 4.08668 0
M  V30 2658 H 237.176 0.593242 5.45685 0
M  V30 2659 H 237.437 -0.751049 4.35674 0
M  V30 2660 N 236.496 -1.42363 0.676048 0
M  V30 2661 C 237.724 -2.05859 0.207268 0
M  V30 2662 C 238.139 -1.50796 -1.13605 0
M  V30 2663 O 237.496 -0.648265 -1.70598 0
M  V30 2664 C 237.547 -3.61248 0.134975 0
M  V30 2665 O 237.268 -4.1427 1.42521 0
M  V30 2666 C 238.769 -4.41859 -0.357151 0
M  V30 2667 H 235.989 -0.663431 0.100503 0
M  V30 2668 H 238.533 -1.82479 0.923136 0
M  V30 2669 H 236.688 -3.83735 -0.531588 0
M  V30 2670 H 237.102 -5.0815 1.29939 0
M  V30 2671 H 238.576 -5.50847 -0.356641 0
M  V30 2672 H 239.053 -4.16536 -1.39264 0
M  V30 2673 H 239.659 -4.24392 0.27772 0
M  V30 2674 N 237.974 -0.419461 -1.51915 0
M  V30 2675 C 239.251 0.211999 -1.94448 0
M  V30 2676 C 239.631 1.61703 -1.35703 0
M  V30 2677 O 238.979 2.22102 -0.536931 0
M  V30 2678 C 239.189 0.207872 -3.4838 0
M  V30 2679 C 240.537 0.422192 -4.22496 0
M  V30 2680 O 241.561 0.286778 -3.55044 0
M  V30 2681 O 240.42 0.690009 -5.42126 0
M  V30 2682 H 237.514 0.139586 -0.815135 0
M  V30 2683 H 240.06 -0.476151 -1.62883 0
M  V30 2684 H 238.832 -0.775102 -3.83546 0
M  V30 2685 H 238.455 0.939688 -3.86336 0
M  V30 2686 N 239.452 1.56882 -0.150215 0
M  V30 2687 C 240.7 1.9584 0.499105 0
M  V30 2688 C 241.021 1.03623 1.65188 0
M  V30 2689 O 240.291 0.0984084 1.95653 0
M  V30 2690 H 238.871 0.723119 0.187373 0
M  V30 2691 H 241.533 1.9358 -0.226466 0
M  V30 2692 H 240.629 2.99638 0.873122 0
M  V30 2693 N 240.93 -0.123565 1.57115 0
M  V30 2694 C 241.84 -1.17074 2.033 0
M  V30 2695 C 242.856 -1.4561 0.952559 0
M  V30 2696 O 244.032 -1.56817 1.26374 0
M  V30 2697 C 241.097 -2.47857 2.42421 0
M  V30 2698 C 240.158 -2.26758 3.64526 0
M  V30 2699 C 239.391 -3.51305 4.01771 0
M  V30 2700 O 239.614 -4.5843 3.39409 0
M  V30 2701 O 238.548 -3.42578 4.94898 0
M  V30 2702 H 242.374 -0.808555 2.92739 0
M  V30 2703 H 239.959 -0.334027 1.45618 0
M  V30 2704 H 241.841 -3.2492 2.68338 0
M  V30 2705 H 240.516 -2.83558 1.5613 0
M  V30 2706 H 239.423 -1.47569 3.43765 0
M  V30 2707 H 240.756 -1.95963 4.51508 0
M  V30 2708 N 242.408 -1.52605 -0.393616 0
M  V30 2709 C 243.824 -1.41753 -0.733357 0
M  V30 2710 C 244.024 -0.534293 -1.94287 0
M  V30 2711 O 243.08 -0.0059787 -2.52499 0
M  V30 2712 C 244.393 -2.84531 -0.972772 0
M  V30 2713 C 245.941 -2.93978 -1.07453 0
M  V30 2714 C 246.416 -4.37756 -1.3466 0
M  V30 2715 N 247.907 -4.4106 -1.41492 0
M  V30 2716 C 248.642 -5.49387 -1.642 0
M  V30 2717 N 248.138 -6.67806 -1.8441 0
M  V30 2718 N 249.931 -5.36923 -1.66342 0
M  V30 2719 H 242.082 -2.08555 0.402328 0
M  V30 2720 H 244.345 -0.940654 0.117789 0
M  V30 2721 H 244.051 -3.51353 -0.156204 0
M  V30 2722 H 243.925 -3.26508 -1.88871 0
M  V30 2723 H 246.312 -2.27326 -1.88167 0
M  V30 2724 H 246.393 -2.55435 -0.136605 0
M  V30 2725 H 246.037 -5.04972 -0.544581 0
M  V30 2726 H 245.967 -4.73848 -2.2973 0
M  V30 2727 H 248.458 -3.55705 -1.27601 0
M  V30 2728 H 248.771 -7.46141 -2.01231 0
M  V30 2729 H 247.116 -6.70843 -1.81644 0
M  V30 2730 H 250.307 -4.43381 -1.50102 0
M  V30 2731 H 250.48 -6.21416 -1.837 0
M  V30 2732 N 243.887 0.651787 -1.4349 0
M  V30 2733 C 245.136 1.40754 -1.44469 0
M  V30 2734 C 245.449 1.95463 -0.0731845 0
M  V30 2735 O 246.655 2.71471 0.0395721 0
M  V30 2736 C 245.111 2.54735 -2.5424 0
M  V30 2737 C 244.719 2.06628 -3.97504 0
M  V30 2738 C 246.463 3.32092 -2.64414 0
M  V30 2739 C 244.37 3.17829 -4.98737 0
M  V30 2740 H 243.3 0.528862 -0.53742 0
M  V30 2741 H 245.951 0.703365 -1.69485 0
M  V30 2742 H 244.333 3.2763 -2.22428 0
M  V30 2743 H 245.507 1.40734 -4.38783 0
M  V30 2744 H 243.822 1.42146 -3.91387 0
M  V30 2745 H 246.419 4.14952 -3.37223 0
M  V30 2746 H 246.762 3.80217 -1.69532 0
M  V30 2747 H 247.295 2.66279 -2.95534 0
M  V30 2748 H 244.034 2.74671 -5.95177 0
M  V30 2749 H 243.554 3.82429 -4.62069 0
M  V30 2750 H 245.233 3.82937 -5.21505 0
M  V30 2751 N 245.365 1.30045 0.890287 0
M  V30 2752 C 246.295 1.18541 2.01172 0
M  V30 2753 C 247.276 0.0773356 1.69924 0
M  V30 2754 O 248.461 0.25845 1.92473 0
M  V30 2755 C 245.591 0.870941 3.36202 0
M  V30 2756 C 244.545 1.93637 3.81692 0
M  V30 2757 C 243.871 1.475 5.13953 0
M  V30 2758 C 245.171 3.34666 4.00994 0
M  V30 2759 H 246.865 2.12359 2.11054 0
M  V30 2760 H 244.411 1.02238 1.01407 0
M  V30 2761 H 246.364 0.777141 4.14172 0
M  V30 2762 H 245.088 -0.102926 3.26438 0
M  V30 2763 H 243.747 2.01972 3.05946 0
M  V30 2764 H 243.395 0.489551 5.00612 0
M  V30 2765 H 243.095 2.1876 5.4536 0
M  V30 2766 H 244.619 1.39489 5.94454 0
M  V30 2767 H 246.033 3.2912 4.69417 0
M  V30 2768 H 244.43 4.03966 4.43769 0
M  V30 2769 H 245.5 3.76949 3.05021 0
M  V30 2770 N 246.843 -1.10192 1.12674 0
M  V30 2771 C 248.091 -1.81845 0.881861 0
M  V30 2772 C 248.412 -1.85737 -0.593867 0
M  V30 2773 O 247.682 -1.33724 -1.4316 0
M  V30 2774 H 246.262 -0.673432 0.323261 0
M  V30 2775 H 248.924 -1.33316 1.42172 0
M  V30 2776 H 248.02 -2.85288 1.2656 0
M  V30 2777 N 248.321 -0.919034 -1.28029 0
M  V30 2778 C 249.251 -0.428581 -2.29533 0
M  V30 2779 C 250.232 0.50659 -1.62381 0
M  V30 2780 O 251.417 0.413195 -1.89753 0
M  V30 2781 C 248.547 0.327388 -3.45753 0
M  V30 2782 C 247.501 -0.519137 -4.2484 0
M  V30 2783 C 246.827 0.365486 -5.33449 0
M  V30 2784 C 248.127 -1.77914 -4.91064 0
M  V30 2785 H 249.821 -1.27687 -2.70807 0
M  V30 2786 H 247.367 -0.615428 -1.30186 0
M  V30 2787 H 249.32 0.681378 -4.15855 0
M  V30 2788 H 248.044 1.20963 -3.03374 0
M  V30 2789 H 246.703 -0.855717 -3.56473 0
M  V30 2790 H 246.351 1.24642 -4.87312 0
M  V30 2791 H 246.051 -0.197356 -5.87268 0
M  V30 2792 H 247.575 0.715241 -6.06396 0
M  V30 2793 H 248.989 -1.49374 -5.53498 0
M  V30 2794 H 247.386 -2.2848 -5.54903 0
M  V30 2795 H 248.456 -2.50382 -4.15255 0
M  V30 2796 N 249.799 1.42003 -0.683588 0
M  V30 2797 C 251.047 2.01015 -0.209101 0
M  V30 2798 C 251.368 1.54365 1.19149 0
M  V30 2799 O 250.638 0.769083 1.80172 0
M  V30 2800 H 249.218 0.743294 -0.074315 0
M  V30 2801 H 251.88 1.73798 -0.882066 0
M  V30 2802 H 250.976 3.11343 -0.2172 0
M  V30 2803 N 251.277 0.427512 1.51691 0
M  V30 2804 C 252.554 -0.201684 1.94557 0
M  V30 2805 C 252.934 -1.60981 1.36559 0
M  V30 2806 O 252.282 -2.21814 0.548702 0
M  V30 2807 C 252.492 -0.189394 3.48486 0
M  V30 2808 C 253.84 -0.39978 4.22714 0
M  V30 2809 O 254.864 -0.267945 3.55191 0
M  V30 2810 O 253.723 -0.661249 5.42485 0
M  V30 2811 H 250.817 -0.135261 0.815864 0
M  V30 2812 H 253.363 0.484782 1.62628 0
M  V30 2813 H 252.135 0.795431 3.8313 0
M  V30 2814 H 251.758 -0.919187 3.86829 0
M  V30 2815 N 252.755 -1.56801 0.158532 0
M  V30 2816 C 253.685 -2.20347 -0.772609 0
M  V30 2817 C 254.666 -1.15518 -1.24859 0
M  V30 2818 O 255.851 -1.43902 -1.30406 0
M  V30 2819 C 252.981 -2.83417 -2.00729 0
M  V30 2820 C 251.935 -3.94174 -1.66765 0
M  V30 2821 C 251.261 -4.44233 -2.97592 0
M  V30 2822 C 252.561 -5.14392 -0.905447 0
M  V30 2823 H 254.255 -2.98413 -0.242959 0
M  V30 2824 H 251.801 -1.43537 -0.115419 0
M  V30 2825 H 253.754 -3.26543 -2.6636 0
M  V30 2826 H 252.478 -2.02701 -2.56086 0
M  V30 2827 H 251.137 -3.51684 -1.03508 0
M  V30 2828 H 250.785 -3.60325 -3.50963 0
M  V30 2829 H 250.485 -5.18945 -2.75626 0
M  V30 2830 H 252.009 -4.90037 -3.64274 0
M  V30 2831 H 253.423 -5.5429 -1.46408 0
M  V30 2832 H 251.82 -5.9494 -0.7853 0
M  V30 2833 H 252.89 -4.84795 0.100668 0
M  V30 2834 N 254.233 0.115231 -1.57178 0
M  V30 2835 C 255.481 0.820727 -1.84685 0
M  V30 2836 C 255.802 1.80237 -0.744279 0
M  V30 2837 O 255.072 1.94529 0.231375 0
M  V30 2838 H 253.652 0.306084 -0.681411 0
M  V30 2839 H 256.314 0.101656 -1.94635 0
M  V30 2840 H 255.41 1.36366 -2.80733 0
M  V30 2841 N 255.711 1.52812 0.385517 0
M  V30 2842 C 256.957 1.68275 1.13188 0
M  V30 2843 C 257.29 0.423179 1.89533 0
M  V30 2844 O 256.565 -0.579113 1.85679 0
M  V30 2845 C 256.848 2.92001 2.1073 0
M  V30 2846 C 256.701 4.28067 1.38125 0
M  V30 2847 C 258.02 3.11283 3.11113 0
M  V30 2848 H 255.139 0.612352 0.410115 0
M  V30 2849 H 257.781 1.85415 0.414869 0
M  V30 2850 H 255.931 2.77519 2.71874 0
M  V30 2851 H 257.603 4.54324 0.799187 0
M  V30 2852 H 255.846 4.28388 0.683092 0
M  V30 2853 H 256.517 5.10733 2.09417 0
M  V30 2854 H 258.993 3.2482 2.6006 0
M  V30 2855 H 257.869 3.99325 3.76605 0
M  V30 2856 H 258.13 2.25656 3.80173 0
M  V30 2857 N 257.189 -0.644168 1.43834 0
M  V30 2858 C 258.419 -1.42939 1.49171 0
M  V30 2859 C 258.827 -1.88874 0.111048 0
M  V30 2860 O 258.17 -1.60656 -0.8908 0
M  V30 2861 C 258.232 -2.69151 2.38324 0
M  V30 2862 C 257.896 -2.45097 3.85715 0
M  V30 2863 C 258.893 -2.07747 4.76589 0
M  V30 2864 C 256.578 -2.59141 4.30292 0
M  V30 2865 C 258.572 -1.8475 6.10038 0
M  V30 2866 C 256.259 -2.35759 5.63792 0
M  V30 2867 C 257.257 -1.9862 6.53482 0
M  V30 2868 O 256.945 -1.75489 7.84512 0
M  V30 2869 H 256.677 -0.445271 0.508635 0
M  V30 2870 H 259.231 -0.79621 1.8934 0
M  V30 2871 H 257.461 -3.3506 1.93058 0
M  V30 2872 H 259.15 -3.31123 2.3476 0
M  V30 2873 H 259.916 -1.96465 4.43426 0
M  V30 2874 H 255.795 -2.87022 3.60749 0
M  V30 2875 H 259.339 -1.55686 6.80006 0
M  V30 2876 H 255.236 -2.46646 5.9652 0
M  V30 2877 H 256.004 -1.89841 7.9618 0
M  V30 2878 N 258.668 -1.30515 -0.883378 0
M  V30 2879 C 259.916 -1.19194 -1.63209 0
M  V30 2880 C 260.237 0.253205 -1.93349 0
M  V30 2881 O 259.507 1.17025 -1.57105 0
M  V30 2882 H 258.087 -0.438148 -0.605009 0
M  V30 2883 H 260.749 -1.63663 -1.05832 0
M  V30 2884 H 259.845 -1.75396 -2.58153 0
M  V30 2885 N 260.146 1.09593 -1.13257 0
M  V30 2886 C 261.079 2.15451 -0.752061 0
M  V30 2887 C 262.057 1.60493 0.260913 0
M  V30 2888 O 263.241 1.8788 0.152819 0
M  V30 2889 C 260.368 3.38506 -0.114594 0
M  V30 2890 C 259.414 4.12183 -1.09579 0
M  V30 2891 S 260.247 4.6661 -2.62745 0
M  V30 2892 C 261.403 5.92966 -2.00354 0
M  V30 2893 H 261.636 2.47395 -1.64872 0
M  V30 2894 H 259.169 1.21515 -0.952545 0
M  V30 2895 H 261.127 4.09757 0.246808 0
M  V30 2896 H 259.788 3.04784 0.759309 0
M  V30 2897 H 258.981 5.00445 -0.597545 0
M  V30 2898 H 258.583 3.46785 -1.40057 0
M  V30 2899 H 260.875 6.63882 -1.35156 0
M  V30 2900 H 261.818 6.47467 -2.86691 0
M  V30 2901 H 262.226 5.45405 -1.4558 0
M  V30 2902 N 261.624 0.925811 1.2754 0
M  V30 2903 C 262.872 0.564138 1.94067 0
M  V30 2904 C 263.193 -0.897188 1.73134 0
M  V30 2905 O 262.463 -1.63573 1.07799 0
M  V30 2906 H 261.043 0.205645 0.718136 0
M  V30 2907 H 263.705 1.1778 1.55287 0
M  V30 2908 H 262.801 0.76881 3.02483 0
M  V30 2909 N 263.102 -1.41638 0.69111 0
M  V30 2910 C 264.351 -2.00526 0.217318 0
M  V30 2911 C 264.664 -1.55353 -1.18848 0
M  V30 2912 O 265.87 -2.06769 -1.75951 0
M  V30 2913 C 264.326 -3.58313 0.337639 0
M  V30 2914 C 263.934 -4.12469 1.74852 0
M  V30 2915 C 265.678 -4.24431 -0.0766066 0
M  V30 2916 C 263.585 -5.62675 1.82074 0
M  V30 2917 H 262.515 -0.750008 0.0774893 0
M  V30 2918 H 265.166 -1.6217 0.858661 0
M  V30 2919 H 263.548 -3.9425 -0.371879 0
M  V30 2920 H 264.722 -3.8796 2.48644 0
M  V30 2921 H 263.037 -3.58861 2.11205 0
M  V30 2922 H 265.634 -5.34683 -0.0430284 0
M  V30 2923 H 265.977 -4.01101 -1.1146 0
M  V30 2924 H 266.51 -3.93512 0.582476 0
M  V30 2925 H 263.249 -5.90826 2.83911 0
M  V30 2926 H 262.769 -5.89124 1.12661 0
M  V30 2927 H 264.448 -6.27371 1.58159 0
M  V30 2928 N 264.58 -0.43555 -1.51462 0
M  V30 2929 C 265.991 0.0279871 -1.86679 0
M  V30 2930 C 266.342 1.42104 -1.35281 0
M  V30 2931 O 265.467 2.04667 -0.702878 0
M  V30 2932 C 266.062 0.0575626 -3.38751 0
M  V30 2933 C 264.621 0.465507 -3.7351 0
M  V30 2934 C 263.768 -0.342996 -2.75171 0
M  V30 2935 H 266.719 -0.651473 -1.44712 0
M  V30 2936 H 266.74 0.867421 -3.70481 0
M  V30 2937 H 266.252 -0.956448 -3.7613 0
M  V30 2938 H 264.353 1.48519 -3.41721 0
M  V30 2939 H 264.466 0.191546 -4.78717 0
M  V30 2940 H 262.83 0.198442 -2.53926 0
M  V30 2941 H 263.613 -1.35585 -3.15391 0
M  V30 2942 N 266.058 1.56714 -0.166846 0
M  V30 2943 C 267.304 1.97039 0.479962 0
M  V30 2944 C 267.637 1.05264 1.63197 0
M  V30 2945 O 266.912 0.0988833 1.94248 0
M  V30 2946 C 267.195 3.46867 0.967212 0
M  V30 2947 C 267.048 4.49421 -0.18466 0
M  V30 2948 C 268.367 3.9968 1.84238 0
M  V30 2949 H 265.486 0.71641 0.172992 0
M  V30 2950 H 268.128 1.8832 -0.252079 0
M  V30 2951 H 266.278 3.54428 1.59101 0
M  V30 2952 H 267.95 4.53924 -0.821621 0
M  V30 2953 H 266.193 4.25573 -0.840837 0
M  V30 2954 H 266.864 5.51644 0.198317 0
M  V30 2955 H 269.34 3.94723 1.31655 0
M  V30 2956 H 268.216 5.04941 2.15234 0
M  V30 2957 H 268.477 3.43226 2.78654 0
M  V30 2958 N 267.536 -0.106894 1.57237 0
M  V30 2959 C 268.784 -0.810921 1.85117 0
M  V30 2960 C 269.105 -1.7984 0.753827 0
M  V30 2961 O 268.375 -1.94649 -0.221056 0
M  V30 2962 H 266.955 -0.302466 0.683025 0
M  V30 2963 H 269.617 -0.0913324 1.94686 0
M  V30 2964 H 268.713 -1.34875 2.81452 0
M  V30 2965 N 269.014 -1.53014 -0.377408 0
M  V30 2966 C 269.961 -1.78616 -1.46168 0
M  V30 2967 C 270.931 -0.629917 -1.53692 0
M  V30 2968 O 272.116 -0.870861 -1.69766 0
M  V30 2969 C 269.256 -1.97123 -2.8326 0
M  V30 2970 C 268.369 -3.24831 -2.84796 0
M  V30 2971 C 267.504 -3.33591 -4.13389 0
M  V30 2972 C 266.543 -4.55377 -4.09021 0
M  V30 2973 N 265.68 -4.61355 -5.29241 0
M  V30 2974 H 270.52 -2.71142 -1.23637 0
M  V30 2975 H 268.057 -1.34326 -0.599577 0
M  V30 2976 H 270.015 -2.05839 -3.62886 0
M  V30 2977 H 268.645 -1.07946 -3.04216 0
M  V30 2978 H 267.697 -3.25128 -1.97474 0
M  V30 2979 H 269.009 -4.14523 -2.77439 0
M  V30 2980 H 268.163 -3.41554 -5.01424 0
M  V30 2981 H 266.902 -2.41894 -4.23484 0
M  V30 2982 H 265.907 -4.47527 -3.19373 0
M  V30 2983 H 267.132 -5.48402 -4.00539 0
M  V30 2984 H 265.078 -3.72554 -5.39944 0
M  V30 2985 H 264.995 -5.44935 -5.24006 0
M  V30 2986 H 266.263 -4.73586 -6.19141 0
M  V30 2987 N 270.492 0.636531 -1.44174 0
M  V30 2988 C 271.422 1.76003 -1.53444 0
M  V30 2989 C 272.403 1.65619 -0.387841 0
M  V30 2990 O 273.588 1.84461 -0.607257 0
M  V30 2991 C 270.718 3.14511 -1.4731 0
M  V30 2992 C 269.672 3.39677 -2.60391 0
M  V30 2993 C 268.998 4.78159 -2.39308 0
M  V30 2994 C 270.298 3.32772 -4.02567 0
M  V30 2995 H 271.992 1.68501 -2.47483 0
M  V30 2996 H 269.538 0.809237 -1.19111 0
M  V30 2997 H 271.491 3.92878 -1.52397 0
M  V30 2998 H 270.215 3.22783 -0.49785 0
M  V30 2999 H 268.874 2.63688 -2.54684 0
M  V30 3000 H 268.522 4.83128 -1.39988 0
M  V30 3001 H 268.222 4.95956 -3.15122 0
M  V30 3002 H 269.746 5.58762 -2.46205 0
M  V30 3003 H 271.16 4.01051 -4.09672 0
M  V30 3004 H 269.557 3.62104 -4.7854 0
M  V30 3005 H 270.627 2.30669 -4.2652 0
M  V30 3006 N 271.97 1.30982 0.876444 0
M  V30 3007 C 273.21 1.21589 1.64303 0
M  V30 3008 C 273.574 -0.223962 1.90689 0
M  V30 3009 O 274.775 -0.44128 2.65153 0
M  V30 3010 C 273.046 2.03007 2.94148 0
M  V30 3011 S 274.605 2.10405 3.85065 0
M  V30 3012 H 271.423 0.433161 0.563819 0
M  V30 3013 H 274.025 1.65565 1.03964 0
M  V30 3014 H 272.729 3.06719 2.72675 0
M  V30 3015 H 272.26 1.59725 3.59515 0
M  V30 3016 H 274.275 1.23765 4.80517 0
M  V30 3017 N 273.449 -1.08991 1.13837 0
M  V30 3018 C 274.379 -2.17771 0.842507 0
M  V30 3019 C 275.36 -1.6892 -0.20001 0
M  V30 3020 O 276.545 -1.94113 -0.0579731 0
M  V30 3021 C 273.675 -3.4589 0.312644 0
M  V30 3022 C 272.629 -4.08099 1.28992 0
M  V30 3023 C 271.955 -5.31098 0.619623 0
M  V30 3024 C 273.255 -4.50077 2.65005 0
M  V30 3025 H 274.949 -2.42777 1.75213 0
M  V30 3026 H 272.495 -1.16682 0.843875 0
M  V30 3027 H 274.448 -4.21297 0.0933043 0
M  V30 3028 H 273.172 -3.20419 -0.632382 0
M  V30 3029 H 271.831 -3.34717 1.49533 0
M  V30 3030 H 271.479 -5.0191 -0.33102 0
M  V30 3031 H 271.179 -5.73674 1.27167 0
M  V30 3032 H 272.703 -6.09224 0.409669 0
M  V30 3033 H 274.117 -5.16688 2.48407 0
M  V30 3034 H 272.514 -5.03553 3.26427 0
M  V30 3035 H 273.584 -3.62257 3.22332 0
M  V30 3036 N 274.927 -0.932562 -1.27047 0
M  V30 3037 C 276.157 -0.591173 -1.97961 0
M  V30 3038 C 276.565 0.836219 -1.69717 0
M  V30 3039 O 275.908 1.56801 -0.957036 0
M  V30 3040 C 275.97 -0.743082 -3.51736 0
M  V30 3041 C 275.634 -2.1435 -4.03613 0
M  V30 3042 C 276.631 -3.11815 -4.16014 0
M  V30 3043 C 274.316 -2.46175 -4.37839 0
M  V30 3044 C 276.31 -4.39211 -4.61923 0
M  V30 3045 C 273.997 -3.73806 -4.83438 0
M  V30 3046 C 274.995 -4.70137 -4.95439 0
M  V30 3047 O 274.683 -5.95496 -5.40037 0
M  V30 3048 H 274.415 -0.222375 -0.638377 0
M  V30 3049 H 276.969 -1.25317 -1.62742 0
M  V30 3050 H 275.199 -0.0239739 -3.86693 0
M  V30 3051 H 276.888 -0.40603 -4.03864 0
M  V30 3052 H 277.654 -2.88549 -3.89826 0
M  V30 3053 H 273.533 -1.71936 -4.27737 0
M  V30 3054 H 277.077 -5.14404 -4.71205 0
M  V30 3055 H 272.974 -3.96888 -5.09068 0
M  V30 3056 H 273.742 -5.98554 -5.58279 0
M  V30 3057 N 276.405 1.4127 -0.698611 0
M  V30 3058 C 277.633 2.05503 -0.239992 0
M  V30 3059 C 278.048 1.52584 1.11191 0
M  V30 3060 O 277.405 0.675323 1.69545 0
M  V30 3061 C 277.456 3.60987 -0.192429 0
M  V30 3062 O 277.177 4.1195 -1.49094 0
M  V30 3063 C 278.678 4.42371 0.28681 0
M  V30 3064 H 275.898 0.661748 -0.111045 0
M  V30 3065 H 278.442 1.80987 -0.95205 0
M  V30 3066 H 276.597 3.84533 0.470472 0
M  V30 3067 H 277.011 5.06018 -1.38007 0
M  V30 3068 H 278.485 5.51344 0.26896 0
M  V30 3069 H 278.962 4.18699 1.32619 0
M  V30 3070 H 279.568 4.23897 -0.345201 0
M  V30 3071 N 277.883 0.443576 1.51229 0
M  V30 3072 C 278.846 -0.353132 2.26463 0
M  V30 3073 C 279.846 -0.944338 1.3015 0
M  V30 3074 O 281.036 -0.817813 1.5381 0
M  V30 3075 C 278.168 -1.50023 3.06114 0
M  V30 3076 H 279.361 0.3063 2.98332 0
M  V30 3077 H 276.914 0.196902 1.55055 0
M  V30 3078 H 277.649 -2.19553 2.38677 0
M  V30 3079 H 277.434 -1.08241 3.76864 0
M  V30 3080 H 278.924 -2.06296 3.63087 0
M  V30 3081 N 279.361 -1.56624 0.175154 0
M  V30 3082 C 280.601 -1.98894 -0.471221 0
M  V30 3083 C 280.965 -1.05889 -1.60161 0
M  V30 3084 O 282.166 -1.37315 -2.3108 0
M  V30 3085 C 280.437 -3.44865 -0.938241 0
M  V30 3086 S 281.996 -4.09164 -1.58526 0
M  V30 3087 H 278.814 -0.694686 -0.151434 0
M  V30 3088 H 281.416 -1.93577 0.27352 0
M  V30 3089 H 280.12 -4.10265 -0.10518 0
M  V30 3090 H 279.651 -3.53956 -1.71693 0
M  V30 3091 H 281.666 -4.04528 -2.87352 0
M  V30 3092 N 280.839 0.0985539 -1.57292 0
M  V30 3093 C 281.802 1.10402 -2.00858 0
M  V30 3094 C 282.802 1.33146 -0.901593 0
M  V30 3095 O 283.992 1.29318 -1.16716 0
M  V30 3096 C 281.124 2.45394 -2.36632 0
M  V30 3097 H 282.317 0.729099 -2.90902 0
M  V30 3098 H 279.87 0.343495 -1.52479 0
M  V30 3099 H 280.605 2.87769 -1.49531 0
M  V30 3100 H 280.39 2.30235 -3.17387 0
M  V30 3101 H 281.88 3.17718 -2.71007 0
M  V30 3102 N 282.317 1.53212 0.369288 0
M  V30 3103 C 283.565 1.68881 1.11012 0
M  V30 3104 C 283.886 0.441285 1.89941 0
M  V30 3105 O 283.156 -0.544623 1.88177 0
M  V30 3106 H 281.736 0.622569 0.412816 0
M  V30 3107 H 284.398 1.90391 0.416802 0
M  V30 3108 H 283.494 2.54822 1.80201 0
M  V30 3109 N 283.795 -0.628877 1.44509 0
M  V30 3110 C 285.044 -1.38437 1.4669 0
M  V30 3111 C 285.357 -1.95322 0.104272 0
M  V30 3112 O 286.563 -2.715 0.00362163 0
M  V30 3113 C 285.019 -2.50659 2.5826 0
M  V30 3114 C 284.627 -2.00277 4.0074 0
M  V30 3115 C 286.371 -3.27844 2.69664 0
M  V30 3116 C 284.278 -3.09854 5.0373 0
M  V30 3117 H 283.208 -0.520245 0.545766 0
M  V30 3118 H 285.859 -0.676313 1.70582 0
M  V30 3119 H 284.241 -3.2405 2.27612 0
M  V30 3120 H 285.415 -1.33736 4.40966 0
M  V30 3121 H 283.73 -1.35901 3.93599 0
M  V30 3122 H 286.327 -4.09534 3.43781 0
M  V30 3123 H 286.67 -3.77471 1.75559 0
M  V30 3124 H 287.203 -2.61543 2.99733 0
M  V30 3125 H 283.942 -2.65168 5.99472 0
M  V30 3126 H 283.462 -3.7503 4.68095 0
M  V30 3127 H 285.141 -3.74592 5.27532 0
M  V30 3128 N 285.273 -1.31445 -0.869486 0
M  V30 3129 C 286.689 -1.10113 -1.15531 0
M  V30 3130 C 286.889 0.128087 -2.01092 0
M  V30 3131 O 285.945 0.817276 -2.38908 0
M  V30 3132 C 287.258 -2.37291 -1.84698 0
M  V30 3133 C 288.806 -2.42906 -1.97397 0
M  V30 3134 C 289.281 -3.69967 -2.69979 0
M  V30 3135 N 290.772 -3.70864 -2.77514 0
M  V30 3136 C 291.507 -4.65875 -3.34287 0
M  V30 3137 N 291.003 -5.71242 -3.91988 0
M  V30 3138 N 292.796 -4.53394 -3.3225 0
M  V30 3139 H 284.947 -2.1028 -0.299347 0
M  V30 3140 H 287.21 -0.927683 -0.195214 0
M  V30 3141 H 286.916 -3.27078 -1.29278 0
M  V30 3142 H 286.79 -2.47125 -2.84972 0
M  V30 3143 H 289.177 -1.53588 -2.51982 0
M  V30 3144 H 289.258 -2.37036 -0.961643 0
M  V30 3145 H 288.902 -4.59652 -2.16062 0
M  V30 3146 H 288.832 -3.73103 -3.7162 0
M  V30 3147 H 291.323 -2.94697 -2.36563 0
M  V30 3148 H 291.636 -6.39817 -4.33421 0
M  V30 3149 H 289.981 -5.75015 -3.90362 0
M  V30 3150 H 293.172 -3.70252 -2.8641 0
M  V30 3151 H 293.345 -5.27617 -3.76197 0
M  V30 3152 N 286.751 1.08385 -1.14413 0
M  V30 3153 C 288.162 1.62258 -0.923535 0
M  V30 3154 C 288.513 1.88691 0.537595 0
M  V30 3155 O 287.638 1.64454 1.40655 0
M  V30 3156 C 288.233 2.94781 -1.67002 0
M  V30 3157 C 286.792 3.45437 -1.495 0
M  V30 3158 C 285.939 2.19668 -1.69238 0
M  V30 3159 H 288.89 0.916086 -1.2959 0
M  V30 3160 H 288.911 3.63229 -1.13334 0
M  V30 3161 H 288.423 2.7551 -2.73342 0
M  V30 3162 H 286.524 3.6981 -0.455097 0
M  V30 3163 H 286.637 4.22173 -2.2651 0
M  V30 3164 H 285.001 2.28849 -1.11804 0
M  V30 3165 H 285.784 2.02905 -2.7692 0
M  V30 3166 N 288.23 0.939286 1.26551 0
M  V30 3167 C 289.507 0.5038 1.89001 0
M  V30 3168 C 289.887 -1.01854 1.84903 0
M  V30 3169 O 289.235 -1.87773 1.30206 0
M  V30 3170 C 289.445 1.063 3.32417 0
M  V30 3171 C 290.793 1.13051 4.09273 0
M  V30 3172 O 291.817 1.01345 3.41479 0
M  V30 3173 O 290.676 1.31233 5.30509 0
M  V30 3174 H 287.77 0.163897 0.810597 0
M  V30 3175 H 290.316 1.03173 1.34735 0
M  V30 3176 H 289.088 2.10665 3.29752 0
M  V30 3177 H 288.711 0.517408 3.94219 0
M  V30 3178 N 289.708 -1.40897 0.706093 0
M  V30 3179 C 291.124 -1.55042 0.37869 0
M  V30 3180 C 291.324 -1.67944 -1.11342 0
M  V30 3181 O 290.38 -1.66372 -1.89938 0
M  V30 3182 C 291.693 -2.78398 1.13643 0
M  V30 3183 C 293.241 -2.92206 1.12181 0
M  V30 3184 C 293.716 -4.18463 1.86152 0
M  V30 3185 N 295.207 -4.25443 1.83173 0
M  V30 3186 C 295.942 -5.2202 2.37239 0
M  V30 3187 N 295.438 -6.24563 2.99821 0
M  V30 3188 N 297.231 -5.14033 2.27435 0
M  V30 3189 H 289.382 -1.30769 1.67372 0
M  V30 3190 H 291.645 -0.631653 0.706907 0
M  V30 3191 H 291.351 -2.7511 2.19106 0
M  V30 3192 H 291.225 -3.70228 0.721853 0
M  V30 3193 H 293.612 -2.95004 0.0754171 0
M  V30 3194 H 293.693 -2.01521 1.57554 0
M  V30 3195 H 293.337 -4.16427 2.90776 0
M  V30 3196 H 293.267 -5.08141 1.38206 0
M  V30 3197 H 295.758 -3.51976 1.37556 0
M  V30 3198 H 296.071 -6.94665 3.38616 0
M  V30 3199 H 294.416 -6.25035 3.03902 0
M  V30 3200 H 297.607 -4.3285 1.78208 0
M  V30 3201 H 297.78 -5.89129 2.69873 0
M  V30 3202 N 291.186 -0.45159 -1.50991 0
M  V30 3203 C 292.426 0.109066 -2.04109 0
M  V30 3204 C 292.79 1.38716 -1.32747 0
M  V30 3205 O 293.991 2.02896 -1.76314 0
M  V30 3206 C 292.262 0.308354 -3.56067 0
M  V30 3207 S 293.821 0.830369 -4.30872 0
M  V30 3208 H 290.639 0.0251531 -0.710555 0
M  V30 3209 H 293.241 -0.614264 -1.85599 0
M  V30 3210 H 291.945 -0.627962 -4.05567 0
M  V30 3211 H 291.476 1.05836 -3.78896 0
M  V30 3212 H 293.491 2.10626 -4.49279 0
M  V30 3213 N 292.664 1.56529 -0.183458 0
M  V30 3214 C 293.594 2.21549 0.737456 0
M  V30 3215 C 294.575 1.17489 1.23005 0
M  V30 3216 O 295.76 1.45959 1.281 0
M  V30 3217 C 292.89 2.86575 1.96194 0
M  V30 3218 C 291.844 3.96778 1.60473 0
M  V30 3219 C 291.17 4.48911 2.90487 0
M  V30 3220 C 292.47 5.15767 0.823497 0
M  V30 3221 H 294.164 2.98761 0.195453 0
M  V30 3222 H 291.71 1.43702 0.0925686 0
M  V30 3223 H 293.663 3.30739 2.61131 0
M  V30 3224 H 292.387 2.06749 2.52828 0
M  V30 3225 H 291.046 3.53286 0.978997 0
M  V30 3226 H 290.694 3.65862 3.45186 0
M  V30 3227 H 290.394 5.23265 2.67335 0
M  V30 3228 H 291.918 4.95771 3.56432 0
M  V30 3229 H 293.332 5.56549 1.37571 0
M  V30 3230 H 291.729 5.96114 0.690551 0
M  V30 3231 H 292.799 4.84574 -0.177782 0
M  V30 3232 N 294.142 -0.090211 1.57342 0
M  V30 3233 C 295.553 -0.644173 1.75235 0
M  V30 3234 C 295.904 -1.78865 0.806335 0
M  V30 3235 O 295.029 -2.16395 -0.0140128 0
M  V30 3236 C 295.624 -1.17532 3.1776 0
M  V30 3237 C 294.183 -1.67531 3.37061 0
M  V30 3238 C 293.33 -0.58693 2.71017 0
M  V30 3239 H 296.281 0.135884 1.58117 0
M  V30 3240 H 296.302 -2.04455 3.20902 0
M  V30 3241 H 295.814 -0.342138 3.86589 0
M  V30 3242 H 293.915 -2.53234 2.73319 0
M  V30 3243 H 294.028 -1.76493 4.45406 0
M  V30 3244 H 292.392 -1.02756 2.33052 0
M  V30 3245 H 293.175 0.235758 3.4249 0
M  V30 3246 N 295.62 -1.53406 -0.361157 0
M  V30 3247 C 296.866 -1.70054 -1.10496 0
M  V30 3248 C 297.199 -0.453278 -1.88836 0
M  V30 3249 O 296.474 0.5495 -1.86576 0
M  V30 3250 C 296.757 -2.95317 -2.06058 0
M  V30 3251 C 296.61 -4.3021 -1.31298 0
M  V30 3252 C 297.929 -3.16193 -3.06121 0
M  V30 3253 H 295.048 -0.618799 -0.400321 0
M  V30 3254 H 297.69 -1.86052 -0.385318 0
M  V30 3255 H 295.84 -2.81809 -2.67425 0
M  V30 3256 H 297.512 -4.55538 -0.726807 0
M  V30 3257 H 295.755 -4.29421 -0.614853 0
M  V30 3258 H 296.426 -5.14 -2.01265 0
M  V30 3259 H 298.902 -3.28916 -2.5486 0
M  V30 3260 H 297.778 -4.05266 -3.70204 0
M  V30 3261 H 298.039 -2.31676 -3.76535 0
M  V30 3262 N 297.098 0.621204 -1.44841 0
M  V30 3263 C 298.338 1.39201 -1.49674 0
M  V30 3264 C 298.702 1.91561 -0.129764 0
M  V30 3265 O 299.903 2.68748 -0.0527814 0
M  V30 3266 C 298.174 2.519 -2.53537 0
M  V30 3267 S 299.733 3.39916 -2.77494 0
M  V30 3268 H 296.551 0.474758 -0.529269 0
M  V30 3269 H 299.153 0.718171 -1.81831 0
M  V30 3270 H 297.857 2.11761 -3.51547 0
M  V30 3271 H 297.388 3.241 -2.22986 0
M  V30 3272 H 299.403 4.49646 -2.0984 0
M  V30 3273 N 298.576 1.31904 0.862503 0
M  V30 3274 C 299.825 1.21373 1.61094 0
M  V30 3275 C 300.138 -0.22504 1.94301 0
M  V30 3276 O 301.344 -0.452121 2.67709 0
M  V30 3277 C 299.8 2.12525 2.9045 0
M  V30 3278 C 299.408 3.61441 2.64697 0
M  V30 3279 C 301.152 2.10813 3.68454 0
M  V30 3280 C 299.059 4.44578 3.90006 0
M  V30 3281 H 297.989 0.450705 0.604468 0
M  V30 3282 H 300.64 1.56811 0.953027 0
M  V30 3283 H 299.022 1.69994 3.57656 0
M  V30 3284 H 300.196 4.12264 2.05851 0
M  V30 3285 H 298.511 3.65205 2.00036 0
M  V30 3286 H 301.108 2.70167 4.61426 0
M  V30 3287 H 301.451 1.09713 4.01583 0
M  V30 3288 H 301.984 2.51583 3.08141 0
M  V30 3289 H 298.723 5.46461 3.62023 0
M  V30 3290 H 298.243 3.98508 4.48276 0
M  V30 3291 H 299.922 4.57176 4.5782 0
M  V30 3292 N 300.054 -1.07777 1.14986 0
M  V30 3293 C 301.331 -1.7699 0.832695 0
M  V30 3294 C 301.711 -2.001 -0.672561 0
M  V30 3295 O 301.059 -1.61598 -1.6155 0
M  V30 3296 C 301.269 -3.08139 1.63863 0
M  V30 3297 C 302.617 -3.8256 1.84208 0
M  V30 3298 O 303.641 -3.17939 1.60603 0
M  V30 3299 O 302.5 -4.98612 2.23714 0
M  V30 3300 H 299.594 -0.768389 0.305791 0
M  V30 3301 H 302.14 -1.14182 1.25541 0
M  V30 3302 H 300.912 -2.86909 2.6608 0
M  V30 3303 H 300.535 -3.78678 1.21197 0
M  V30 3304 N 301.532 -0.945985 -1.26051 0
M  V30 3305 C 302.778 -0.597002 -1.93814 0
M  V30 3306 C 303.111 0.862484 -1.73997 0
M  V30 3307 O 302.386 1.61769 -1.07986 0
M  V30 3308 C 302.669 -0.945937 -3.47454 0
M  V30 3309 C 302.522 -2.46052 -3.76535 0
M  V30 3310 C 303.841 -0.464785 -4.37639 0
M  V30 3311 H 300.96 -0.218366 -0.703907 0
M  V30 3312 H 303.602 -1.18107 -1.48831 0
M  V30 3313 H 301.752 -0.448902 -3.85898 0
M  V30 3314 H 303.424 -3.03065 -3.47778 0
M  V30 3315 H 301.667 -2.90194 -3.22444 0
M  V30 3316 H 302.338 -2.65517 -4.83947 0
M  V30 3317 H 304.814 -0.891016 -4.06448 0
M  V30 3318 H 303.69 -0.737712 -5.4392 0
M  V30 3319 H 303.951 0.635274 -4.37512 0
M  V30 3320 N 303.011 1.40521 -0.713556 0
M  V30 3321 C 304.259 2.00527 -0.251692 0
M  V30 3322 C 304.58 1.56857 1.15848 0
M  V30 3323 O 303.85 0.807127 1.785 0
M  V30 3324 H 302.43 0.741551 -0.0900646 0
M  V30 3325 H 305.092 1.71887 -0.918733 0
M  V30 3326 H 304.188 3.10813 -0.283192 0
M  V30 3327 N 304.489 0.459591 1.5075 0
M  V30 3328 C 305.717 -0.0973749 2.06671 0
M  V30 3329 C 306.132 -1.34524 1.32472 0
M  V30 3330 O 305.489 -1.7827 0.390634 0
M  V30 3331 C 305.54 -0.39714 3.59312 0
M  V30 3332 O 305.261 0.801214 4.30711 0
M  V30 3333 C 306.762 -1.00234 4.31819 0
M  V30 3334 H 303.982 0.00195854 0.670997 0
M  V30 3335 H 306.526 0.645072 1.94059 0
M  V30 3336 H 304.681 -1.08951 3.71764 0
M  V30 3337 H 305.095 0.538857 5.21725 0
M  V30 3338 H 306.569 -1.16193 5.39632 0
M  V30 3339 H 307.046 -1.98939 3.91561 0
M  V30 3340 H 307.652 -0.348699 4.23868 0
M  V30 3341 N 305.967 -1.56429 0.191757 0
M  V30 3342 C 307.244 -1.89224 -0.495332 0
M  V30 3343 C 307.624 -1.10478 -1.79883 0
M  V30 3344 O 306.972 -0.204852 -2.2758 0
M  V30 3345 C 307.182 -3.41548 -0.717367 0
M  V30 3346 C 308.53 -4.11711 -1.03823 0
M  V30 3347 O 309.554 -3.4698 -0.805204 0
M  V30 3348 O 308.413 -5.2611 -1.47887 0
M  V30 3349 H 305.507 -0.785788 -0.25781 0
M  V30 3350 H 308.053 -1.68111 0.231721 0
M  V30 3351 H 306.825 -3.90772 0.203287 0
M  V30 3352 H 306.448 -3.68342 -1.497 0
M  V30 3353 N 307.445 0.0818655 -1.57387 0
M  V30 3354 C 308.393 1.11712 -2.04018 0
M  V30 3355 C 309.387 1.40683 -0.94364 0
M  V30 3356 O 310.593 1.40209 -1.12878 0
M  V30 3357 H 306.968 0.377542 -0.650358 0
M  V30 3358 H 308.939 0.697614 -2.90131 0
M  V30 3359 C 307.688 2.42537 -2.49141 0
M  V30 3360 H 307.011 2.21092 -3.33104 0
M  V30 3361 H 308.451 3.13446 -2.85531 0
M  V30 3362 C 306.91 3.0778 -1.37014 0
M  V30 3363 O 307.44 3.95436 -0.706621 0
M  V30 3364 N 305.646 2.68242 -1.11779 0
M  V30 3365 H 305.193 1.97052 -1.65917 0
M  V30 3366 H 305.151 3.1222 -0.369594 0
M  V30 3367 N 308.923 1.53595 0.353017 0
M  V30 3368 C 310.172 1.69603 1.09168 0
M  V30 3369 C 310.485 0.460925 1.90092 0
M  V30 3370 O 311.691 0.501774 2.66823 0
M  V30 3371 C 310.147 2.99872 1.9901 0
M  V30 3372 C 309.755 4.30687 1.23339 0
M  V30 3373 C 311.499 3.25246 2.72792 0
M  V30 3374 C 309.406 5.52036 2.12156 0
M  V30 3375 H 308.336 0.631966 0.411261 0
M  V30 3376 H 310.987 1.80096 0.351802 0
M  V30 3377 H 309.369 2.83212 2.7678 0
M  V30 3378 H 310.543 4.58019 0.505456 0
M  V30 3379 H 308.858 4.11853 0.613663 0
M  V30 3380 H 311.455 4.13095 3.39495 0
M  V30 3381 H 311.798 2.41846 3.38846 0
M  V30 3382 H 312.331 3.42638 2.021 0
M  V30 3383 H 309.07 6.37951 1.50659 0
M  V30 3384 H 308.59 5.28966 2.82764 0
M  V30 3385 H 310.269 5.87313 2.71427 0
M  V30 3386 N 310.401 -0.613514 1.45168 0
M  V30 3387 C 311.364 -1.7065 1.53007 0
M  V30 3388 C 312.364 -1.5548 0.410184 0
M  V30 3389 O 313.554 -1.60656 0.673455 0
M  V30 3390 C 310.686 -3.09875 1.42093 0
M  V30 3391 H 311.879 -1.65068 2.50385 0
M  V30 3392 H 309.432 -0.828728 1.32521 0
M  V30 3393 H 310.167 -3.21039 0.458769 0
M  V30 3394 H 309.952 -3.22293 2.23315 0
M  V30 3395 H 311.442 -3.895 1.50598 0
M  V30 3396 N 311.879 -1.3236 -0.855495 0
M  V30 3397 C 312.809 -1.23833 -1.97958 0
M  V30 3398 C 313.79 -0.122361 -1.69659 0
M  V30 3399 O 314.975 -0.30939 -1.9172 0
M  V30 3400 C 312.105 -0.959772 -3.33775 0
M  V30 3401 C 311.059 -2.03689 -3.76424 0
M  V30 3402 C 310.385 -1.61075 -5.09862 0
M  V30 3403 C 311.685 -3.4518 -3.9198 0
M  V30 3404 H 313.379 -2.1788 -2.0535 0
M  V30 3405 H 310.925 -1.04891 -0.986605 0
M  V30 3406 H 312.878 -0.886678 -4.11966 0
M  V30 3407 H 311.602 0.0163404 -3.26596 0
M  V30 3408 H 310.261 -2.10012 -3.00484 0
M  V30 3409 H 309.909 -0.622107 -4.99138 0
M  V30 3410 H 309.609 -2.33143 -5.39368 0
M  V30 3411 H 311.133 -1.55201 -5.90546 0
M  V30 3412 H 312.547 -3.4145 -4.60526 0
M  V30 3413 H 310.944 -4.1559 -4.32903 0
M  V30 3414 H 312.014 -3.84903 -2.94919 0
M  V30 3415 N 313.357 1.07166 -1.15556 0
M  V30 3416 C 314.287 2.16403 -0.877046 0
M  V30 3417 C 315.268 1.69217 0.173111 0
M  V30 3418 O 316.453 1.94181 0.027084 0
M  V30 3419 C 313.583 3.45349 -0.367632 0
M  V30 3420 C 312.537 4.05995 -1.35468 0
M  V30 3421 C 311.863 5.30045 -0.704038 0
M  V30 3422 C 313.163 4.45804 -2.72132 0
M  V30 3423 H 314.857 2.39959 -1.79053 0
M  V30 3424 H 312.403 1.15325 -0.862331 0
M  V30 3425 H 314.356 4.21095 -0.160317 0
M  V30 3426 H 313.08 3.21385 0.581326 0
M  V30 3427 H 311.739 3.32296 -1.54839 0
M  V30 3428 H 311.387 5.02373 0.251128 0
M  V30 3429 H 311.087 5.71579 -1.36277 0
M  V30 3430 H 312.611 6.08495 -0.50654 0
M  V30 3431 H 314.025 5.12671 -2.56595 0
M  V30 3432 H 312.422 4.98296 -3.34397 0
M  V30 3433 H 313.492 3.57083 -3.28054 0
M  V30 3434 N 314.835 0.952656 1.25548 0
M  V30 3435 C 315.782 0.47008 2.25962 0
M  V30 3436 C 316.752 -0.476384 1.59122 0
M  V30 3437 O 317.937 -0.39007 1.8677 0
M  V30 3438 C 315.077 -0.247881 3.44209 0
M  V30 3439 C 314.19 0.735591 4.25691 0
M  V30 3440 C 313.325 -0.0047306 5.312 0
M  V30 3441 C 312.364 0.969805 6.04368 0
M  V30 3442 N 311.501 0.260486 7.01617 0
M  V30 3443 H 316.341 1.33126 2.66611 0
M  V30 3444 H 313.878 0.66765 1.31076 0
M  V30 3445 H 315.836 -0.680695 4.1161 0
M  V30 3446 H 314.466 -1.07312 3.0444 0
M  V30 3447 H 313.518 1.28689 3.57971 0
M  V30 3448 H 314.83 1.47934 4.76358 0
M  V30 3449 H 313.984 -0.496275 6.04667 0
M  V30 3450 H 312.723 -0.781282 4.81401 0
M  V30 3451 H 311.728 1.47237 5.29718 0
M  V30 3452 H 312.953 1.74655 6.56256 0
M  V30 3453 H 310.899 -0.497364 6.54112 0
M  V30 3454 H 310.816 0.943362 7.50091 0
M  V30 3455 H 312.084 -0.209587 7.79218 0
M  V30 3456 N 316.313 -1.40141 0.720998 0
M  V30 3457 C 317.59 -1.94677 0.189757 0
M  V30 3458 C 317.97 -1.65879 -1.30566 0
M  V30 3459 O 317.318 -0.979391 -2.06447 0
M  V30 3460 C 317.528 -3.45279 0.508304 0
M  V30 3461 C 318.876 -4.22209 0.449934 0
M  V30 3462 O 319.9 -3.53413 0.444677 0
M  V30 3463 O 318.759 -5.44788 0.432189 0
M  V30 3464 H 315.853 -0.826459 0.0299026 0
M  V30 3465 H 318.399 -1.49719 0.7989 0
M  V30 3466 H 317.171 -3.59619 1.54239 0
M  V30 3467 H 316.794 -3.97386 -0.130525 0
M  V30 3468 N 317.792 -0.46758 -1.50504 0
M  V30 3469 C 319.203 -0.0116166 -1.86696 0
M  V30 3470 C 319.554 1.39202 -1.38265 0
M  V30 3471 O 318.679 2.0313 -0.746132 0
M  V30 3472 C 319.274 -0.0143044 -3.38797 0
M  V30 3473 C 317.833 0.386175 -3.74414 0
M  V30 3474 C 316.98 -0.401287 -2.74381 0
M  V30 3475 H 319.931 -0.682022 -1.43297 0
M  V30 3476 H 319.952 0.788641 -3.72237 0
M  V30 3477 H 319.464 -1.03602 -3.74016 0
M  V30 3478 H 317.565 1.41237 -3.44794 0
M  V30 3479 H 317.678 0.0899596 -4.79016 0
M  V30 3480 H 316.042 0.144536 -2.5429 0
M  V30 3481 H 316.825 -1.42244 -3.12444 0
M  V30 3482 N 319.27 1.56325 -0.20005 0
M  V30 3483 C 320.517 1.97719 0.437411 0
M  V30 3484 C 320.845 1.08709 1.61284 0
M  V30 3485 O 320.1 0.127261 1.95286 0
M  V30 3486 C 320.399 3.4495 0.935103 0
M  V30 3487 C 320.065 4.5072 -0.12749 0
M  V30 3488 C 318.727 4.79368 -0.419451 0
M  V30 3489 C 321.079 5.14268 -0.847231 0
M  V30 3490 C 318.407 5.68854 -1.43604 0
M  V30 3491 C 320.759 6.04852 -1.85301 0
M  V30 3492 C 319.423 6.31855 -2.15211 0
M  V30 3493 H 318.693 0.723507 0.16006 0
M  V30 3494 H 321.34 1.89166 -0.298056 0
M  V30 3495 H 319.645 3.50599 1.74894 0
M  V30 3496 H 321.342 3.74337 1.43781 0
M  V30 3497 H 317.932 4.28458 0.11023 0
M  V30 3498 H 322.116 4.92222 -0.634901 0
M  V30 3499 H 317.372 5.88047 -1.67364 0
M  V30 3500 H 321.546 6.53152 -2.41591 0
M  V30 3501 H 319.173 7.00994 -2.94129 0
M  V30 3502 N 320.748 -0.0735177 1.57428 0
M  V30 3503 C 321.978 -0.78483 1.91112 0
M  V30 3504 C 322.386 -1.71729 0.7941 0
M  V30 3505 O 321.729 -1.82105 -0.241542 0
M  V30 3506 C 321.791 -1.63346 3.20247 0
M  V30 3507 C 321.455 -0.870557 4.48632 0
M  V30 3508 C 322.452 -0.19058 5.19551 0
M  V30 3509 C 320.137 -0.838242 4.95256 0
M  V30 3510 C 322.131 0.511503 6.35344 0
M  V30 3511 C 319.818 -0.132386 6.10957 0
M  V30 3512 C 320.816 0.541288 6.80852 0
M  V30 3513 O 320.504 1.23578 7.94345 0
M  V30 3514 H 320.236 -0.228408 0.636244 0
M  V30 3515 H 322.79 -0.0486039 2.05342 0
M  V30 3516 H 321.02 -2.41245 3.02222 0
M  V30 3517 H 322.709 -2.22329 3.39595 0
M  V30 3518 H 323.475 -0.206864 4.84559 0
M  V30 3519 H 319.354 -1.35206 4.40727 0
M  V30 3520 H 322.898 1.03789 6.89836 0
M  V30 3521 H 318.795 -0.114023 6.45399 0
M  V30 3522 H 319.563 1.14487 8.10454 0
M  V30 3523 N 322.226 -1.5378 -0.344866 0
M  V30 3524 C 323.159 -1.7649 -1.4466 0
M  V30 3525 C 324.137 -0.613954 -1.50563 0
M  V30 3526 O 325.321 -0.84896 -1.683 0
M  V30 3527 C 322.448 -1.86235 -2.82903 0
M  V30 3528 C 321.494 -3.08375 -2.94631 0
M  V30 3529 S 322.327 -4.67457 -2.61236 0
M  V30 3530 C 323.483 -4.80079 -4.0159 0
M  V30 3531 H 323.716 -2.69661 -1.2518 0
M  V30 3532 H 321.249 -1.44632 -0.540455 0
M  V30 3533 H 323.207 -1.92535 -3.62547 0
M  V30 3534 H 321.868 -0.940786 -2.9968 0
M  V30 3535 H 321.061 -3.11865 -3.95925 0
M  V30 3536 H 320.663 -3.00294 -2.22934 0
M  V30 3537 H 322.955 -4.61407 -4.96094 0
M  V30 3538 H 323.898 -5.82168 -4.03095 0
M  V30 3539 H 324.306 -4.08544 -3.89554 0
M  V30 3540 N 323.704 0.605807 -1.45491 0
M  V30 3541 C 324.952 1.36207 -1.49305 0
M  V30 3542 C 325.273 1.94519 -0.136863 0
M  V30 3543 O 324.543 1.77261 0.833983 0
M  V30 3544 H 323.123 0.50565 -0.549843 0
M  V30 3545 H 325.785 0.711239 -1.81459 0
M  V30 3546 H 324.881 2.18058 -2.23287 0
M  V30 3547 N 325.182 1.32811 0.848464 0
M  V30 3548 C 326.112 1.24882 1.97299 0
M  V30 3549 C 327.093 0.131357 1.69592 0
M  V30 3550 O 328.278 0.319553 1.91553 0
M  V30 3551 C 325.408 0.97746 3.33261 0
M  V30 3552 C 324.362 2.05682 3.75338 0
M  V30 3553 C 323.688 1.63777 5.09 0
M  V30 3554 C 324.988 3.47254 3.90144 0
M  V30 3555 H 326.682 2.18966 2.04191 0
M  V30 3556 H 324.228 1.05413 0.981029 0
M  V30 3557 H 326.181 0.908513 4.1149 0
M  V30 3558 H 324.905 0.000980011 3.266 0
M  V30 3559 H 323.564 2.11603 2.99366 0
M  V30 3560 H 323.212 0.648569 4.98801 0
M  V30 3561 H 322.912 2.36 5.38124 0
M  V30 3562 H 324.436 1.5833 5.89715 0
M  V30 3563 H 325.85 3.43888 4.58709 0
M  V30 3564 H 324.247 4.1788 4.30693 0
M  V30 3565 H 325.317 3.86462 2.92874 0
M  V30 3566 N 326.66 -1.06551 1.16123 0
M  V30 3567 C 327.89 -1.8274 0.963838 0
M  V30 3568 C 328.298 -1.82712 -0.491228 0
M  V30 3569 O 327.641 -1.24294 -1.35265 0
M  V30 3570 C 327.703 -3.3065 1.41106 0
M  V30 3571 C 327.367 -3.54384 2.88549 0
M  V30 3572 C 328.364 -3.4765 3.86569 0
M  V30 3573 C 326.049 -3.81789 3.26408 0
M  V30 3574 C 328.043 -3.67982 5.2045 0
M  V30 3575 C 325.73 -4.01772 4.60459 0
M  V30 3576 C 326.728 -3.94866 5.57288 0
M  V30 3577 O 326.416 -4.14306 6.88916 0
M  V30 3578 H 326.148 -0.583136 0.341948 0
M  V30 3579 H 328.702 -1.35351 1.54497 0
M  V30 3580 H 326.932 -3.78887 0.773394 0
M  V30 3581 H 328.621 -3.88324 1.1815 0
M  V30 3582 H 329.387 -3.2647 3.58667 0
M  V30 3583 H 325.266 -3.86276 2.51619 0
M  V30 3584 H 328.81 -3.62507 5.96015 0
M  V30 3585 H 324.707 -4.2244 4.88072 0
M  V30 3586 H 325.475 -4.31609 6.95454 0
M  V30 3587 N 328.138 -0.959301 -1.25041 0
M  V30 3588 C 329.07 -0.440543 -2.24926 0
M  V30 3589 C 330.083 0.446131 -1.56568 0
M  V30 3590 O 331.272 0.253657 -1.76689 0
M  V30 3591 C 328.372 0.38412 -3.36716 0
M  V30 3592 C 327.545 -0.490658 -4.34639 0
M  V30 3593 C 326.604 0.276587 -5.25473 0
M  V30 3594 O 325.63 -0.326614 -5.68262 0
M  V30 3595 N 326.832 1.56844 -5.5891 0
M  V30 3596 H 329.597 -1.29931 -2.70071 0
M  V30 3597 H 327.158 -0.830181 -1.38995 0
M  V30 3598 H 329.15 0.905228 -3.94446 0
M  V30 3599 H 327.72 1.14377 -2.90924 0
M  V30 3600 H 326.94 -1.19282 -3.7572 0
M  V30 3601 H 328.228 -1.08756 -4.97041 0
M  V30 3602 H 327.626 2.08036 -5.26059 0
M  V30 3603 H 326.183 2.03541 -6.19205 0
M  V30 3604 N 329.616 1.39756 -0.72842 0
M  V30 3605 C 330.563 2.30647 -0.0841519 0
M  V30 3606 C 331.533 1.48869 0.7367 0
M  V30 3607 O 332.718 1.77574 0.698015 0
M  V30 3608 C 329.858 3.35165 0.822091 0
M  V30 3609 C 328.971 4.31999 -0.0106663 0
M  V30 3610 C 328.106 5.23585 0.896241 0
M  V30 3611 C 327.145 6.12072 0.0583381 0
M  V30 3612 N 326.282 6.96035 0.920818 0
M  V30 3613 H 331.122 2.85173 -0.864891 0
M  V30 3614 H 328.659 1.40422 -0.438179 0
M  V30 3615 H 330.617 3.94345 1.36189 0
M  V30 3616 H 329.247 2.8211 1.56888 0
M  V30 3617 H 328.299 3.74492 -0.66781 0
M  V30 3618 H 329.611 4.9443 -0.658825 0
M  V30 3619 H 328.765 5.87759 1.50412 0
M  V30 3620 H 327.504 4.61459 1.57819 0
M  V30 3621 H 326.509 5.46916 -0.562389 0
M  V30 3622 H 327.734 6.76261 -0.6203 0
M  V30 3623 H 325.68 6.36485 1.58818 0
M  V30 3624 H 325.597 7.55284 0.32899 0
M  V30 3625 H 326.865 7.64646 1.51447 0
M  V30 3626 N 331.094 0.475555 1.50254 0
M  V30 3627 C 332.51 0.12997 1.5907 0
M  V30 3628 C 332.71 -1.36385 1.48328 0
M  V30 3629 O 331.766 -2.13754 1.34407 0
M  V30 3630 C 333.079 0.684139 2.92814 0
M  V30 3631 C 334.627 0.647965 3.0622 0
M  V30 3632 C 335.102 1.17975 4.42545 0
M  V30 3633 N 336.593 1.13936 4.48969 0
M  V30 3634 C 337.328 1.52129 5.52851 0
M  V30 3635 N 336.824 1.97793 6.63965 0
M  V30 3636 N 338.617 1.43704 5.4342 0
M  V30 3637 H 330.768 1.44706 1.55479 0
M  V30 3638 H 333.031 0.598691 0.735033 0
M  V30 3639 H 332.737 1.73079 3.06164 0
M  V30 3640 H 332.611 0.130204 3.76975 0
M  V30 3641 H 334.998 -0.38979 2.92514 0
M  V30 3642 H 335.079 1.23876 2.23805 0
M  V30 3643 H 334.723 2.21616 4.57 0
M  V30 3644 H 334.653 0.565138 5.23559 0
M  V30 3645 H 337.144 0.804488 3.69238 0
M  V30 3646 H 337.457 2.25072 7.39299 0
M  V30 3647 H 335.802 2.01749 6.65073 0
M  V30 3648 H 338.993 1.07867 4.55502 0
M  V30 3649 H 339.166 1.73794 6.24259 0
M  V30 3650 N 332.573 -1.56217 0.208337 0
M  V30 3651 C 333.85 -1.89739 -0.475234 0
M  V30 3652 C 334.23 -1.1238 -1.78701 0
M  V30 3653 O 333.578 -0.228979 -2.2735 0
M  V30 3654 C 333.788 -3.42289 -0.681101 0
M  V30 3655 C 335.136 -4.12789 -0.994507 0
M  V30 3656 O 336.16 -3.47814 -0.768357 0
M  V30 3657 O 335.019 -5.27649 -1.42299 0
M  V30 3658 H 332.113 -0.788478 -0.249461 0
M  V30 3659 H 334.659 -1.67855 0.249538 0
M  V30 3660 H 333.431 -3.90534 0.244722 0
M  V30 3661 H 333.054 -3.69909 -1.45785 0
M  V30 3662 N 334.051 0.0651679 -1.57465 0
M  V30 3663 C 335.467 0.420105 -1.53972 0
M  V30 3664 C 335.667 1.78782 -0.929474 0
M  V30 3665 O 334.723 2.46771 -0.534839 0
M  V30 3666 C 336.036 0.355084 -2.98596 0
M  V30 3667 C 337.584 0.434792 -3.09965 0
M  V30 3668 C 338.059 0.399609 -4.56253 0
M  V30 3669 N 339.55 0.459488 -4.60915 0
M  V30 3670 C 340.285 0.454584 -5.71595 0
M  V30 3671 N 339.781 0.404102 -6.9162 0
M  V30 3672 N 341.574 0.501635 -5.59857 0
M  V30 3673 H 333.725 -0.830328 -1.95498 0
M  V30 3674 H 335.988 -0.312244 -0.895102 0
M  V30 3675 H 335.694 -0.583357 -3.46828 0
M  V30 3676 H 335.568 1.16275 -3.58831 0
M  V30 3677 H 337.955 1.36366 -2.61703 0
M  V30 3678 H 338.036 -0.40157 -2.52628 0
M  V30 3679 H 337.68 -0.525436 -5.05175 0
M  V30 3680 H 337.61 1.25359 -5.11461 0
M  V30 3681 H 340.101 0.502482 -3.74544 0
M  V30 3682 H 340.414 0.404468 -7.71741 0
M  V30 3683 H 338.759 0.37069 -6.94011 0
M  V30 3684 H 341.95 0.538812 -4.64989 0
M  V30 3685 H 342.123 0.494345 -6.46112 0
M  V30 3686 N 335.529 1.53961 0.336706 0
M  V30 3687 C 336.757 1.75483 1.09605 0
M  V30 3688 C 337.172 0.4972 1.82136 0
M  V30 3689 O 336.529 -0.53149 1.74589 0
M  V30 3690 C 336.58 2.93943 2.10428 0
M  V30 3691 O 336.301 4.14842 1.40846 0
M  V30 3692 C 337.802 3.27571 2.98684 0
M  V30 3693 H 335.022 0.586166 0.326574 0
M  V30 3694 H 337.566 2.00808 0.38683 0
M  V30 3695 H 335.721 2.70929 2.76905 0
M  V30 3696 H 336.135 4.81383 2.08255 0
M  V30 3697 H 337.609 4.13791 3.6535 0
M  V30 3698 H 338.086 2.44168 3.65074 0
M  V30 3699 H 338.692 3.52615 2.37787 0
M  V30 3700 N 337.007 -0.598083 1.45811 0
M  V30 3701 C 337.939 -1.72231 1.51225 0
M  V30 3702 C 338.952 -1.57757 0.402059 0
M  V30 3703 O 340.141 -1.65464 0.669624 0
M  V30 3704 C 337.241 -3.10331 1.3619 0
M  V30 3705 C 336.414 -3.50955 2.61054 0
M  V30 3706 C 335.473 -4.68055 2.40439 0
M  V30 3707 O 334.499 -4.74691 3.14097 0
M  V30 3708 N 335.701 -5.61941 1.45612 0
M  V30 3709 H 338.466 -1.68046 2.48154 0
M  V30 3710 H 336.027 -0.783637 1.41671 0
M  V30 3711 H 338.019 -3.86439 1.20195 0
M  V30 3712 H 336.589 -3.0897 0.475015 0
M  V30 3713 H 335.809 -2.64711 2.92099 0
M  V30 3714 H 337.097 -3.74858 3.44034 0
M  V30 3715 H 336.495 -5.59301 0.848431 0
M  V30 3716 H 335.052 -6.37542 1.35585 0
M  V30 3717 N 338.485 -1.33259 -0.841409 0
M  V30 3718 C 339.417 -1.19136 -1.95804 0
M  V30 3719 C 340.43 -0.122965 -1.62335 0
M  V30 3720 O 341.619 -0.373154 -1.74556 0
M  V30 3721 C 338.719 -0.804268 -3.29218 0
M  V30 3722 C 337.892 -1.96376 -3.90839 0
M  V30 3723 C 336.951 -1.55806 -5.02604 0
M  V30 3724 O 335.977 -2.27203 -5.21888 0
M  V30 3725 N 337.179 -0.461609 -5.78662 0
M  V30 3726 H 339.944 -2.15326 -2.08458 0
M  V30 3727 H 337.505 -1.25971 -1.017 0
M  V30 3728 H 339.497 -0.51501 -4.0141 0
M  V30 3729 H 338.067 0.0668809 -3.12528 0
M  V30 3730 H 337.287 -2.41879 -3.11269 0
M  V30 3731 H 338.575 -2.73966 -4.28742 0
M  V30 3732 H 337.973 0.132343 -5.65545 0
M  V30 3733 H 336.53 -0.232013 -6.51387 0
M  V30 3734 N 339.963 1.05934 -1.16686 0
M  V30 3735 C 341.193 1.82226 -0.973515 0
M  V30 3736 C 341.601 1.8297 0.481532 0
M  V30 3737 O 340.944 1.25009 1.34604 0
M  V30 3738 C 341.006 3.29897 -1.42858 0
M  V30 3739 C 340.67 3.52849 -2.90425 0
M  V30 3740 C 341.667 3.45595 -3.88407 0
M  V30 3741 C 339.352 3.80053 -3.28428 0
M  V30 3742 C 341.346 3.65217 -5.22394 0
M  V30 3743 C 339.033 3.99325 -4.62583 0
M  V30 3744 C 340.031 3.91905 -5.59374 0
M  V30 3745 O 339.719 4.10647 -6.91104 0
M  V30 3746 H 339.451 0.581314 -0.345036 0
M  V30 3747 H 342.005 1.3453 -1.55212 0
M  V30 3748 H 340.235 3.78472 -0.793477 0
M  V30 3749 H 341.924 3.87692 -1.20207 0
M  V30 3750 H 342.69 3.24564 -3.60393 0
M  V30 3751 H 338.569 3.84936 -2.53664 0
M  V30 3752 H 342.113 3.59341 -5.9793 0
M  V30 3753 H 338.01 4.19846 -4.90306 0
M  V30 3754 H 338.778 4.27915 -6.97733 0
M  V30 3755 N 341.441 0.965919 1.2453 0
M  V30 3756 C 342.718 0.543777 1.87889 0
M  V30 3757 C 343.098 -0.97909 1.87021 0
M  V30 3758 O 342.446 -1.84969 1.3416 0
M  V30 3759 C 342.656 1.13327 3.30088 0
M  V30 3760 C 344.004 1.21707 4.06783 0
M  V30 3761 O 345.028 1.08566 3.39252 0
M  V30 3762 O 343.887 1.42456 5.27606 0
M  V30 3763 H 340.981 0.181054 0.806938 0
M  V30 3764 H 343.527 1.06007 1.32516 0
M  V30 3765 H 342.299 2.17612 3.25209 0
M  V30 3766 H 341.922 0.600911 3.93033 0
M  V30 3767 N 342.919 -1.39368 0.735821 0
M  V30 3768 C 344.196 -1.94465 0.210395 0
M  V30 3769 C 344.576 -1.67254 -1.28799 0
M  V30 3770 O 343.924 -1.00123 -2.05396 0
M  V30 3771 C 344.134 -3.4472 0.544897 0
M  V30 3772 C 345.482 -4.21708 0.494689 0
M  V30 3773 O 346.506 -3.52922 0.482136 0
M  V30 3774 O 345.365 -5.44299 0.489947 0
M  V30 3775 H 342.459 -0.826096 0.0386666 0
M  V30 3776 H 345.005 -1.48863 0.814735 0
M  V30 3777 H 343.777 -3.57963 1.58045 0
M  V30 3778 H 343.4 -3.97502 -0.08837 0
M  V30 3779 N 344.397 -0.483516 -1.5 0
M  V30 3780 C 345.327 0.293829 -2.31644 0
M  V30 3781 C 346.308 0.978864 -1.39112 0
M  V30 3782 O 347.493 0.973644 -1.68029 0
M  V30 3783 C 344.623 1.36897 -3.19181 0
M  V30 3784 C 343.577 0.804833 -4.20365 0
M  V30 3785 C 342.903 1.9792 -4.96721 0
M  V30 3786 C 344.203 -0.192313 -5.21946 0
M  V30 3787 H 345.897 -0.387616 -2.9688 0
M  V30 3788 H 343.443 -0.187856 -1.42769 0
M  V30 3789 H 345.396 1.92037 -3.751 0
M  V30 3790 H 344.12 2.07936 -2.51853 0
M  V30 3791 H 342.779 0.275319 -3.65565 0
M  V30 3792 H 342.427 2.67686 -4.25856 0
M  V30 3793 H 342.127 1.60789 -5.65173 0
M  V30 3794 H 343.651 2.53526 -5.55479 0
M  V30 3795 H 345.065 0.270333 -5.72662 0
M  V30 3796 H 343.462 -0.478543 -5.98189 0
M  V30 3797 H 344.532 -1.11409 -4.71928 0
M  V30 3798 N 345.875 1.56104 -0.216619 0
M  V30 3799 C 347.124 1.97348 0.416744 0
M  V30 3800 C 347.437 1.10715 1.6125 0
M  V30 3801 O 348.643 1.41836 2.31506 0
M  V30 3802 C 347.099 3.51059 0.792835 0
M  V30 3803 C 346.707 4.46387 -0.379828 0
M  V30 3804 C 348.451 4.01026 1.39208 0
M  V30 3805 C 346.358 5.91397 0.0184223 0
M  V30 3806 H 345.288 0.736942 0.159475 0
M  V30 3807 H 347.939 1.80827 -0.31205 0
M  V30 3808 H 346.321 3.63162 1.57891 0
M  V30 3809 H 347.495 4.46029 -1.15737 0
M  V30 3810 H 345.81 4.06734 -0.891979 0
M  V30 3811 H 348.407 5.0686 1.70286 0
M  V30 3812 H 348.75 3.46587 2.30614 0
M  V30 3813 H 349.283 3.92125 0.669537 0
M  V30 3814 H 346.022 6.49807 -0.862002 0
M  V30 3815 H 345.542 5.94961 0.760384 0
M  V30 3816 H 347.221 6.45455 0.446818 0
M  V30 3817 N 347.353 -0.0568162 1.57498 0
M  V30 3818 C 348.63 -0.786954 1.79071 0
M  V30 3819 C 349.01 -1.95028 0.80792 0
M  V30 3820 O 348.358 -2.27968 -0.155858 0
M  V30 3821 C 348.568 -1.24594 3.26002 0
M  V30 3822 C 349.916 -1.67323 3.90241 0
M  V30 3823 O 350.94 -1.34124 3.29984 0
M  V30 3824 O 349.799 -2.28842 4.9628 0
M  V30 3825 H 346.893 -0.378262 0.735423 0
M  V30 3826 H 349.439 -0.035734 1.69662 0
M  V30 3827 H 348.211 -0.41423 3.89101 0
M  V30 3828 H 347.834 -2.05803 3.40192 0
M  V30 3829 N 348.832 -1.54138 -0.328536 0
M  V30 3830 C 349.742 -1.86192 -1.42723 0
M  V30 3831 C 350.758 -0.753382 -1.56844 0
M  V30 3832 O 351.934 -1.04718 -1.72035 0
M  V30 3833 C 348.999 -2.07824 -2.77507 0
M  V30 3834 C 348.06 -3.31641 -2.72603 0
M  V30 3835 C 347.293 -3.52232 -4.00959 0
M  V30 3836 O 347.516 -2.7636 -4.9898 0
M  V30 3837 O 346.45 -4.45699 -4.0452 0
M  V30 3838 H 350.276 -2.79608 -1.18547 0
M  V30 3839 H 347.861 -1.3998 -0.522104 0
M  V30 3840 H 349.743 -2.23411 -3.57303 0
M  V30 3841 H 348.418 -1.17596 -3.01584 0
M  V30 3842 H 347.325 -3.21444 -1.91376 0
M  V30 3843 H 348.658 -4.2191 -2.53481 0
M  V30 3844 N 350.31 0.590341 -1.46126 0
M  V30 3845 C 351.557 1.34882 -1.5104 0
M  V30 3846 C 351.885 1.93849 -0.159021 0
M  V30 3847 O 351.14 1.76544 0.844436 0
M  V30 3848 C 351.439 2.5032 -2.55097 0
M  V30 3849 C 351.105 2.09394 -3.99331 0
M  V30 3850 C 349.767 1.97947 -4.38601 0
M  V30 3851 C 352.119 1.77712 -4.89967 0
M  V30 3852 C 349.447 1.53065 -5.66381 0
M  V30 3853 C 351.799 1.34312 -6.18177 0
M  V30 3854 C 350.463 1.21436 -6.56361 0
M  V30 3855 H 349.733 0.493568 -0.552695 0
M  V30 3856 H 352.38 0.665539 -1.79563 0
M  V30 3857 H 350.685 3.24062 -2.20207 0
M  V30 3858 H 352.382 3.08541 -2.56132 0
M  V30 3859 H 348.972 2.19235 -3.68285 0
M  V30 3860 H 353.156 1.85445 -4.60352 0
M  V30 3861 H 348.412 1.41733 -5.94745 0
M  V30 3862 H 352.586 1.08849 -6.87841 0
M  V30 3863 H 350.213 0.864345 -7.5527 0
M  V30 3864 N 351.788 1.33704 0.83433 0
M  V30 3865 C 352.721 1.18675 1.94914 0
M  V30 3866 C 353.699 0.0811145 1.62398 0
M  V30 3867 O 354.883 0.244186 1.86912 0
M  V30 3868 C 352.01 0.821231 3.28593 0
M  V30 3869 C 351.056 1.93501 3.80079 0
M  V30 3870 S 351.889 3.54671 4.01209 0
M  V30 3871 C 353.045 3.20136 5.37833 0
M  V30 3872 H 353.278 2.13043 2.07364 0
M  V30 3873 H 350.811 1.18598 0.988624 0
M  V30 3874 H 352.769 0.617123 4.05835 0
M  V30 3875 H 351.43 -0.103927 3.13928 0
M  V30 3876 H 350.623 1.63273 4.76821 0
M  V30 3877 H 350.225 2.09601 3.09747 0
M  V30 3878 H 352.517 2.71242 6.20833 0
M  V30 3879 H 353.46 4.15975 5.73036 0
M  V30 3880 H 353.868 2.56613 5.02802 0
M  V30 3881 N 353.266 -1.05314 1.17247 0
M  V30 3882 C 354.213 -2.13031 0.888058 0
M  V30 3883 C 355.183 -1.65253 -0.167537 0
M  V30 3884 O 356.368 -1.90775 -0.0305974 0
M  V30 3885 C 353.508 -3.42702 0.406147 0
M  V30 3886 C 352.621 -4.04161 1.52572 0
M  V30 3887 C 351.756 -5.21744 0.997808 0
M  V30 3888 C 350.795 -5.75207 2.09291 0
M  V30 3889 N 349.932 -6.84094 1.57986 0
M  V30 3890 H 354.772 -2.36698 1.81048 0
M  V30 3891 H 352.309 -1.16121 0.903013 0
M  V30 3892 H 354.267 -4.17059 0.108305 0
M  V30 3893 H 352.897 -3.19222 -0.479313 0
M  V30 3894 H 351.949 -3.27253 1.93931 0
M  V30 3895 H 353.261 -4.39881 2.35172 0
M  V30 3896 H 352.415 -6.03168 0.653739 0
M  V30 3897 H 351.154 -4.87495 0.141232 0
M  V30 3898 H 350.159 -4.92414 2.44557 0
M  V30 3899 H 351.384 -6.11505 2.95362 0
M  V30 3900 H 349.33 -6.51745 0.74598 0
M  V30 3901 H 349.247 -7.18811 2.34195 0
M  V30 3902 H 350.515 -7.69172 1.26468 0
M  V30 3903 N 354.744 -0.972509 -1.24016 0
M  V30 3904 C 355.707 -0.511403 -2.23422 0
M  V30 3905 C 356.707 0.394679 -1.55881 0
M  V30 3906 O 357.897 0.189469 -1.73167 0
M  V30 3907 C 355.029 0.258769 -3.39916 0
M  V30 3908 H 356.222 -1.39024 -2.6573 0
M  V30 3909 H 353.775 -0.757585 -1.36713 0
M  V30 3910 H 354.51 1.1545 -3.03054 0
M  V30 3911 H 354.295 -0.391522 -3.9014 0
M  V30 3912 H 355.785 0.570244 -4.13688 0
M  V30 3913 N 356.222 1.38976 -0.743202 0
M  V30 3914 C 357.471 1.99581 -0.291592 0
M  V30 3915 C 357.784 1.59656 1.13001 0
M  V30 3916 O 358.99 2.13157 1.68156 0
M  V30 3917 C 357.446 3.56813 -0.470391 0
M  V30 3918 C 357.054 4.05695 -1.90041 0
M  V30 3919 C 358.798 4.24423 -0.0809709 0
M  V30 3920 C 356.705 5.5553 -2.02832 0
M  V30 3921 H 355.635 0.746615 -0.105272 0
M  V30 3922 H 358.286 1.58872 -0.918258 0
M  V30 3923 H 356.668 3.95359 0.225299 0
M  V30 3924 H 357.842 3.78464 -2.62872 0
M  V30 3925 H 356.157 3.50775 -2.24379 0
M  V30 3926 H 358.754 5.34474 -0.155445 0
M  V30 3927 H 359.097 4.04962 0.96497 0
M  V30 3928 H 359.63 3.9108 -0.728124 0
M  V30 3929 H 356.369 5.79881 -3.05643 0
M  V30 3930 H 355.889 5.84537 -1.34448 0
M  V30 3931 H 357.568 6.21069 -1.81335 0
M  V30 3932 N 357.7 0.491464 1.49741 0
M  V30 3933 C 358.928 -0.0535151 2.06831 0
M  V30 3934 C 359.343 -1.31683 1.35296 0
M  V30 3935 O 358.7 -1.77402 0.42836 0
M  V30 3936 C 358.751 -0.320835 3.60073 0
M  V30 3937 O 358.472 0.892394 4.28915 0
M  V30 3938 C 359.973 -0.910519 4.33848 0
M  V30 3939 H 357.193 0.0161909 0.670805 0
M  V30 3940 H 359.737 0.68609 1.92647 0
M  V30 3941 H 357.892 -1.0104 3.73991 0
M  V30 3942 H 358.306 0.649401 5.20464 0
M  V30 3943 H 359.78 -1.04721 5.41976 0
M  V30 3944 H 360.257 -1.90589 3.95692 0
M  V30 3945 H 360.863 -0.258712 4.24512 0
M  V30 3946 N 359.178 -1.55987 0.224894 0
M  V30 3947 C 360.455 -1.90232 -0.455083 0
M  V30 3948 C 360.835 -1.14269 -1.77499 0
M  V30 3949 O 360.183 -0.253079 -2.27094 0
M  V30 3950 C 360.393 -3.42993 -0.644758 0
M  V30 3951 C 361.741 -4.13821 -0.950669 0
M  V30 3952 O 362.765 -3.4861 -0.731423 0
M  V30 3953 O 361.624 -5.29128 -1.36695 0
M  V30 3954 H 358.718 -0.79108 -0.241084 0
M  V30 3955 H 361.264 -1.67581 0.267327 0
M  V30 3956 H 360.036 -3.90252 0.28613 0
M  V30 3957 H 359.659 -3.71434 -1.41853 0
M  V30 3958 N 360.656 0.0484629 -1.57525 0
M  V30 3959 C 362.072 0.40375 -1.54409 0
M  V30 3960 C 362.272 1.77786 -0.948384 0
M  V30 3961 O 361.328 2.46189 -0.560983 0
M  V30 3962 C 362.641 0.323394 -2.98956 0
M  V30 3963 C 364.189 0.401892 -3.10409 0
M  V30 3964 C 364.664 0.351195 -4.56652 0
M  V30 3965 N 366.155 0.410576 -4.61377 0
M  V30 3966 C 366.89 0.393933 -5.72045 0
M  V30 3967 N 366.386 0.330724 -6.9201 0
M  V30 3968 N 368.179 0.442227 -5.60358 0
M  V30 3969 H 360.33 -0.851016 -1.94606 0
M  V30 3970 H 362.593 -0.321721 -0.89174 0
M  V30 3971 H 362.299 -0.62011 -3.4619 0
M  V30 3972 H 362.173 1.12463 -3.60044 0
M  V30 3973 H 364.56 1.33582 -2.63134 0
M  V30 3974 H 364.641 -0.428342 -2.52188 0
M  V30 3975 H 364.285 -0.578987 -5.04589 0
M  V30 3976 H 364.215 1.19928 -5.12762 0
M  V30 3977 H 366.706 0.462729 -3.75056 0
M  V30 3978 H 367.019 0.322592 -7.72126 0
M  V30 3979 H 365.364 0.29706 -6.94365 0
M  V30 3980 H 368.555 0.489464 -4.65534 0
M  V30 3981 H 368.728 0.425788 -6.466 0
M  V30 3982 N 362.134 1.5431 0.320358 0
M  V30 3983 C 363.364 1.7638 1.07582 0
M  V30 3984 C 363.772 0.513944 1.82086 0
M  V30 3985 O 363.115 -0.525123 1.76035 0
M  V30 3986 C 363.177 2.9055 2.1171 0
M  V30 3987 C 362.841 4.2934 1.56575 0
M  V30 3988 C 363.838 5.10077 1.00586 0
M  V30 3989 C 361.523 4.75893 1.60722 0
M  V30 3990 C 363.517 6.35477 0.494756 0
M  V30 3991 C 361.204 6.0126 1.09224 0
M  V30 3992 C 362.202 6.80886 0.53696 0
M  V30 3993 O 361.89 8.03894 0.0297371 0
M  V30 3994 H 361.622 0.592369 0.325692 0
M  V30 3995 H 364.176 2.02019 0.37116 0
M  V30 3996 H 362.406 2.60489 2.85801 0
M  V30 3997 H 364.095 3.00373 2.73003 0
M  V30 3998 H 364.861 4.75265 0.966869 0
M  V30 3999 H 360.74 4.13957 2.02882 0
M  V30 4000 H 364.284 6.97574 0.0606842 0
M  V30 4001 H 360.181 6.35562 1.12831 0
M  V30 4002 H 360.949 8.18372 0.14486 0
M  V30 4003 N 363.613 -0.582584 1.46437 0
M  V30 4004 C 364.861 -1.33814 1.51453 0
M  V30 4005 C 365.182 -1.94277 0.167792 0
M  V30 4006 O 364.452 -1.78566 -0.805677 0
M  V30 4007 H 363.032 -0.496838 0.557818 0
M  V30 4008 H 365.694 -0.682281 1.82568 0
M  V30 4009 H 364.79 -2.14479 2.26728 0
M  V30 4010 N 365.091 -1.34144 -0.827227 0
M  V30 4011 C 366.507 -1.13732 -1.11969 0
M  V30 4012 C 366.707 0.0640463 -2.01398 0
M  V30 4013 O 365.763 0.740856 -2.41387 0
M  V30 4014 C 367.076 -2.43047 -1.77055 0
M  V30 4015 C 368.624 -2.49063 -1.89569 0
M  V30 4016 C 369.099 -3.78369 -2.58072 0
M  V30 4017 N 370.59 -3.79505 -2.65575 0
M  V30 4018 C 371.325 -4.76274 -3.19297 0
M  V30 4019 N 370.821 -5.83424 -3.73616 0
M  V30 4020 N 372.614 -4.63735 -3.17658 0
M  V30 4021 H 364.765 -2.11126 -0.232296 0
M  V30 4022 H 367.028 -0.933424 -0.165602 0
M  V30 4023 H 366.734 -3.31025 -1.18807 0
M  V30 4024 H 366.608 -2.56066 -2.76966 0
M  V30 4025 H 368.995 -1.61527 -2.46968 0
M  V30 4026 H 369.076 -2.39975 -0.885745 0
M  V30 4027 H 368.72 -4.66293 -2.01329 0
M  V30 4028 H 368.65 -3.84737 -3.59562 0
M  V30 4029 H 371.141 -3.02074 -2.27068 0
M  V30 4030 H 371.454 -6.53282 -4.12846 0
M  V30 4031 H 369.799 -5.87143 -3.71871 0
M  V30 4032 H 372.99 -3.79177 -2.74486 0
M  V30 4033 H 373.163 -5.39318 -3.59221 0
M  V30 4034 N 366.569 1.04691 -1.17803 0
M  V30 4035 C 367.517 2.14665 -0.895635 0
M  V30 4036 C 368.511 1.68806 0.141679 0
M  V30 4037 O 369.717 1.79999 -0.00587914 0
M  V30 4038 H 366.092 0.701038 -0.272121 0
M  V30 4039 H 368.063 2.35685 -1.83017 0
M  V30 4040 C 366.812 3.45019 -0.430962 0
M  V30 4041 H 366.135 3.8071 -1.22064 0
M  V30 4042 H 367.575 4.23125 -0.272301 0
M  V30 4043 C 366.034 3.25943 0.852207 0
M  V30 4044 O 366.564 3.5296 1.91786 0
M  V30 4045 N 364.77 2.79304 0.802346 0
M  V30 4046 H 364.317 2.57518 -0.0650788 0
M  V30 4047 H 364.275 2.66921 1.66134 0
M  V30 4048 N 368.047 0.979072 1.23499 0
M  V30 4049 C 369.275 0.665202 1.95915 0
M  V30 4050 C 369.69 -0.767571 1.72493 0
M  V30 4051 O 369.047 -1.51635 1.01554 0
M  V30 4052 C 369.098 0.944438 3.48945 0
M  V30 4053 O 368.819 2.3209 3.71572 0
M  V30 4054 C 370.32 0.646336 4.38563 0
M  V30 4055 H 367.54 0.247218 0.623798 0
M  V30 4056 H 370.084 1.31009 1.57025 0
M  V30 4057 H 368.239 0.345575 3.85856 0
M  V30 4058 H 368.653 2.40957 4.65876 0
M  V30 4059 H 370.127 0.892091 5.44744 0
M  V30 4060 H 370.604 -0.419575 4.37191 0
M  V30 4061 H 371.21 1.22562 4.07258 0
M  V30 4062 N 369.525 -1.3858 0.750561 0
M  V30 4063 C 370.455 -2.33102 0.136237 0
M  V30 4064 C 371.436 -1.54713 -0.706965 0
M  V30 4065 O 372.621 -1.83043 -0.648769 0
M  V30 4066 C 369.751 -3.38882 -0.760017 0
M  V30 4067 C 368.705 -4.27995 -0.0197785 0
M  V30 4068 C 368.031 -5.24605 -1.03408 0
M  V30 4069 C 369.331 -5.09554 1.14684 0
M  V30 4070 H 371.025 -2.84726 0.925822 0
M  V30 4071 H 368.571 -1.36898 0.446654 0
M  V30 4072 H 370.524 -4.0397 -1.19943 0
M  V30 4073 H 369.248 -2.85734 -1.58189 0
M  V30 4074 H 367.907 -3.64409 0.400184 0
M  V30 4075 H 367.555 -4.67746 -1.84994 0
M  V30 4076 H 367.255 -5.85081 -0.543464 0
M  V30 4077 H 368.779 -5.9257 -1.47288 0
M  V30 4078 H 370.193 -5.67899 0.785118 0
M  V30 4079 H 368.59 -5.7925 1.56812 0
M  V30 4080 H 369.66 -4.4347 1.96118 0
M  V30 4081 N 371.003 -0.499398 -1.49478 0
M  V30 4082 C 372.252 0.0475259 -2.01644 0
M  V30 4083 C 372.565 1.38195 -1.38425 0
M  V30 4084 O 373.771 2.01547 -1.8191 0
M  V30 4085 C 372.227 0.135164 -3.59646 0
M  V30 4086 C 371.835 -1.19252 -4.31837 0
M  V30 4087 C 373.579 0.632538 -4.19761 0
M  V30 4088 C 371.486 -1.06713 -5.81693 0
M  V30 4089 H 370.416 0.0215349 -0.753692 0
M  V30 4090 H 373.067 -0.638577 -1.7203 0
M  V30 4091 H 371.449 0.885681 -3.85969 0
M  V30 4092 H 372.623 -1.9562 -4.17216 0
M  V30 4093 H 370.938 -1.62321 -3.83459 0
M  V30 4094 H 373.535 0.743833 -5.29501 0
M  V30 4095 H 373.878 1.63098 -3.83021 0
M  V30 4096 H 374.411 -0.0613987 -3.97753 0
M  V30 4097 H 371.15 -2.03979 -6.22955 0
M  V30 4098 H 370.67 -0.344307 -5.98811 0
M  V30 4099 H 372.349 -0.745208 -6.42694 0
M  V30 4100 N 372.481 1.55866 -0.233164 0
M  V30 4101 C 373.413 2.18099 0.704668 0
M  V30 4102 C 374.426 1.15334 1.14899 0
M  V30 4103 O 375.615 1.42262 1.07814 0
M  V30 4104 C 372.715 2.7592 1.96777 0
M  V30 4105 C 371.888 4.03969 1.67713 0
M  V30 4106 C 370.947 4.46242 2.78845 0
M  V30 4107 O 369.973 5.12903 2.46818 0
M  V30 4108 N 371.175 4.12886 4.08051 0
M  V30 4109 H 373.94 2.99205 0.172258 0
M  V30 4110 H 371.501 1.61815 -0.0525945 0
M  V30 4111 H 373.493 3.01165 2.70337 0
M  V30 4112 H 372.063 1.99051 2.41034 0
M  V30 4113 H 371.283 3.86459 0.777391 0
M  V30 4114 H 372.571 4.8748 1.4574 0
M  V30 4115 H 371.969 3.59342 4.3691 0
M  V30 4116 H 370.526 4.42997 4.78118 0
M  V30 4117 N 373.959 -0.0401083 1.57549 0
M  V30 4118 C 375.206 -0.733125 1.88763 0
M  V30 4119 C 375.534 -1.75946 0.829058 0
M  V30 4120 O 374.789 -1.94949 -0.171323 0
M  V30 4121 C 375.088 -1.44902 3.26708 0
M  V30 4122 C 374.754 -0.559707 4.47413 0
M  V30 4123 C 373.416 -0.314731 4.8017 0
M  V30 4124 C 375.768 0.0549743 5.21171 0
M  V30 4125 C 373.096 0.553886 5.8408 0
M  V30 4126 C 375.448 0.911229 6.26003 0
M  V30 4127 C 374.112 1.16577 6.57241 0
M  V30 4128 H 373.382 -0.268269 0.690733 0
M  V30 4129 H 376.029 0.00679408 1.91499 0
M  V30 4130 H 374.334 -2.26197 3.1991 0
M  V30 4131 H 376.031 -1.99058 3.48105 0
M  V30 4132 H 372.621 -0.760793 4.21794 0
M  V30 4133 H 376.805 -0.121344 4.96152 0
M  V30 4134 H 372.061 0.759518 6.06664 0
M  V30 4135 H 376.235 1.3941 6.82303 0
M  V30 4136 H 373.862 1.84058 7.37582 0
M  V30 4137 N 375.437 -1.54477 -0.31217 0
M  V30 4138 C 376.347 -1.87695 -1.4074 0
M  V30 4139 C 377.363 -0.769975 -1.56036 0
M  V30 4140 O 378.539 -1.06537 -1.70915 0
M  V30 4141 C 375.604 -2.10755 -2.75287 0
M  V30 4142 C 374.665 -3.34514 -2.69071 0
M  V30 4143 C 373.898 -3.56465 -3.97201 0
M  V30 4144 O 374.121 -2.81637 -4.96021 0
M  V30 4145 O 373.055 -4.49964 -3.9977 0
M  V30 4146 H 376.881 -2.80849 -1.15574 0
M  V30 4147 H 374.466 -1.40526 -0.507228 0
M  V30 4148 H 376.348 -2.27188 -3.54913 0
M  V30 4149 H 375.023 -1.20788 -3.0032 0
M  V30 4150 H 373.93 -3.23456 -1.87955 0
M  V30 4151 H 375.263 -4.24575 -2.48992 0
M  V30 4152 N 376.915 0.57481 -1.46744 0
M  V30 4153 C 378.192 1.3352 -1.4294 0
M  V30 4154 C 378.572 2.10775 -0.117009 0
M  V30 4155 O 377.92 2.09966 0.901474 0
M  V30 4156 C 378.13 2.25456 -2.66403 0
M  V30 4157 C 379.478 2.87035 -3.12883 0
M  V30 4158 O 380.502 2.35766 -2.67007 0
M  V30 4159 O 379.361 3.80179 -3.92589 0
M  V30 4160 H 376.455 0.600318 -0.568812 0
M  V30 4161 H 379.001 0.595171 -1.58921 0
M  V30 4162 H 377.773 1.67851 -3.53471 0
M  V30 4163 H 377.396 3.06785 -2.52921 0
M  V30 4164 N 378.394 1.34581 0.820102 0
M  V30 4165 C 379.641 1.27096 1.57648 0
M  V30 4166 C 379.969 -0.158317 1.93855 0
M  V30 4167 O 379.224 -1.12028 1.60463 0
M  V30 4168 C 379.523 2.10997 2.8847 0
M  V30 4169 C 379.189 3.59966 2.71543 0
M  V30 4170 C 377.851 4.00575 2.66634 0
M  V30 4171 C 380.203 4.54548 2.55021 0
M  V30 4172 C 377.531 5.33953 2.43128 0
M  V30 4173 C 379.883 5.88109 2.33047 0
M  V30 4174 C 378.547 6.27878 2.26552 0
M  V30 4175 H 377.817 0.465078 0.576874 0
M  V30 4176 H 380.464 1.6635 0.948671 0
M  V30 4177 H 378.769 1.6458 3.55557 0
M  V30 4178 H 380.466 2.0255 3.46084 0
M  V30 4179 H 377.056 3.27733 2.76205 0
M  V30 4180 H 381.24 4.24069 2.57835 0
M  V30 4181 H 376.496 5.63781 2.3656 0
M  V30 4182 H 380.67 6.60985 2.19251 0
M  V30 4183 H 378.297 7.31162 2.081 0
M  V30 4184 N 379.872 -1.04064 1.18357 0
M  V30 4185 C 381.12 -1.76915 0.977013 0
M  V30 4186 C 381.441 -1.88624 -0.494577 0
M  V30 4187 O 380.711 -1.41125 -1.3587 0
M  V30 4188 H 379.291 -0.65535 0.358504 0
M  V30 4189 H 381.953 -1.25592 1.49039 0
M  V30 4190 H 381.049 -2.78178 1.41504 0
M  V30 4191 N 381.35 -0.985608 -1.22978 0
M  V30 4192 C 382.298 -0.522631 -2.26652 0
M  V30 4193 C 383.292 0.422998 -1.64034 0
M  V30 4194 O 384.498 0.296319 -1.77544 0
M  V30 4195 H 380.873 -0.150597 -0.736766 0
M  V30 4196 H 382.844 -1.40863 -2.63059 0
M  V30 4197 C 381.593 0.154238 -3.47358 0
M  V30 4198 H 380.916 -0.564329 -3.95797 0
M  V30 4199 H 382.356 0.441744 -4.21693 0
M  V30 4200 C 380.815 1.38719 -3.07016 0
M  V30 4201 O 381.345 2.48307 -3.15764 0
M  V30 4202 N 379.551 1.25975 -2.61875 0
M  V30 4203 H 379.098 0.368068 -2.54957 0
M  V30 4204 H 379.056 2.08578 -2.3525 0
M  V30 4205 N 382.828 1.3818 -0.7579 0
M  V30 4206 C 383.778 2.27741 -0.108674 0
M  V30 4207 C 384.762 1.45415 0.688709 0
M  V30 4208 O 385.954 1.68108 0.553956 0
M  V30 4209 C 383.083 3.34313 0.780367 0
M  V30 4210 C 382.169 4.24093 -0.0240977 0
M  V30 4211 N 382.56 4.9451 -1.06271 0
M  V30 4212 C 380.858 4.45542 0.202049 0
M  V30 4213 C 381.559 5.60675 -1.54979 0
M  V30 4214 N 380.535 5.36684 -0.864348 0
M  V30 4215 H 384.337 2.79649 -0.904071 0
M  V30 4216 H 381.851 1.51133 -0.594346 0
M  V30 4217 H 383.848 3.97368 1.26114 0
M  V30 4218 H 382.508 2.83962 1.57467 0
M  V30 4219 H 383.519 4.97345 -1.44459 0
M  V30 4220 H 380.196 4.06091 0.96935 0
M  V30 4221 H 381.586 6.26992 -2.41517 0
M  V30 4222 N 384.306 0.507319 1.49211 0
M  V30 4223 C 385.254 -0.281364 2.30892 0
M  V30 4224 C 386.248 -0.95687 1.39787 0
M  V30 4225 O 387.454 -0.883838 1.56807 0
M  V30 4226 H 383.829 -0.109597 0.743971 0
M  V30 4227 H 385.8 0.42744 2.95323 0
M  V30 4228 C 384.549 -1.32918 3.21291 0
M  V30 4229 H 383.872 -0.818799 3.91326 0
M  V30 4230 H 385.312 -1.85288 3.81372 0
M  V30 4231 C 383.771 -2.35074 2.41333 0
M  V30 4232 O 384.301 -3.4108 2.12197 0
M  V30 4233 N 382.507 -2.07705 2.03241 0
M  V30 4234 H 382.054 -1.2152 2.27136 0
M  V30 4235 H 382.012 -2.76283 1.50051 0
M  V30 4236 N 385.784 -1.5574 0.241426 0
M  V30 4237 C 386.747 -2.19877 -0.647063 0
M  V30 4238 C 387.747 -1.16642 -1.10686 0
M  V30 4239 O 388.937 -1.41757 -1.01245 0
M  V30 4240 C 386.069 -2.83797 -1.88871 0
M  V30 4241 H 387.262 -2.99772 -0.087574 0
M  V30 4242 H 384.815 -1.56298 -0.00813574 0
M  V30 4243 H 385.55 -2.07824 -2.48957 0
M  V30 4244 H 385.335 -3.59414 -1.56728 0
M  V30 4245 H 386.825 -3.32898 -2.52129 0
M  V30 4246 N 387.262 0.0317525 -1.57568 0
M  V30 4247 C 388.509 0.723104 -1.89149 0
M  V30 4248 C 388.837 1.75504 -0.838377 0
M  V30 4249 O 388.092 1.95037 0.160982 0
M  V30 4250 C 388.391 1.43167 -3.27472 0
M  V30 4251 C 388.057 0.535972 -4.47703 0
M  V30 4252 C 386.719 0.289262 -4.8033 0
M  V30 4253 C 389.071 -0.0826125 -5.21135 0
M  V30 4254 C 386.399 -0.584853 -5.83778 0
M  V30 4255 C 388.751 -0.944414 -6.25511 0
M  V30 4256 C 387.415 -1.20061 -6.56614 0
M  V30 4257 H 386.685 0.264602 -0.692146 0
M  V30 4258 H 389.332 -0.0169496 -1.91492 0
M  V30 4259 H 387.637 2.24497 -3.21105 0
M  V30 4260 H 389.334 1.97209 -3.49155 0
M  V30 4261 H 385.924 0.738414 -4.22191 0
M  V30 4262 H 390.108 0.0950302 -4.96209 0
M  V30 4263 H 385.364 -0.79168 -6.06253 0
M  V30 4264 H 389.538 -1.43026 -6.81554 0
M  V30 4265 H 387.165 -1.87967 -7.36595 0
M  V30 4266 N 388.74 1.54641 0.303973 0
M  V30 4267 C 390.156 1.45788 0.649463 0
M  V30 4268 C 390.356 0.64666 1.90842 0
M  V30 4269 O 389.412 0.153183 2.52035 0
M  V30 4270 C 390.725 2.89718 0.805227 0
M  V30 4271 C 392.273 2.99742 0.901305 0
M  V30 4272 C 392.748 4.44863 1.08909 0
M  V30 4273 N 394.239 4.48559 1.15536 0
M  V30 4274 C 394.974 5.58026 1.3189 0
M  V30 4275 N 394.47 6.77422 1.45161 0
M  V30 4276 N 396.263 5.45708 1.34755 0
M  V30 4277 H 388.414 2.05854 -0.523237 0
M  V30 4278 H 390.677 0.932186 -0.172431 0
M  V30 4279 H 390.383 3.51666 -0.0489108 0
M  V30 4280 H 390.257 3.36964 1.69513 0
M  V30 4281 H 392.644 2.3791 1.74593 0
M  V30 4282 H 392.725 2.55797 -0.0125531 0
M  V30 4283 H 392.369 5.07288 0.249241 0
M  V30 4284 H 392.299 4.86436 2.01713 0
M  V30 4285 H 394.79 3.6254 1.06646 0
M  V30 4286 H 395.103 7.56604 1.57387 0
M  V30 4287 H 393.448 6.80292 1.42223 0
M  V30 4288 H 396.639 4.51378 1.23996 0
M  V30 4289 H 396.812 6.3107 1.47157 0
M  V30 4290 N 390.218 -0.567019 1.47046 0
M  V30 4291 C 391.465 -1.32462 1.53167 0
M  V30 4292 C 391.793 -1.93571 0.189841 0
M  V30 4293 O 391.048 -1.77865 -0.816243 0
M  V30 4294 C 391.347 -2.4623 2.59047 0
M  V30 4295 C 391.013 -2.03014 4.02612 0
M  V30 4296 C 389.675 -1.90944 4.41694 0
M  V30 4297 C 392.027 -1.69895 4.92732 0
M  V30 4298 C 389.355 -1.44035 5.68745 0
M  V30 4299 C 391.707 -1.2446 6.20236 0
M  V30 4300 C 390.371 -1.10979 6.5821 0
M  V30 4301 H 389.641 -0.484713 0.560477 0
M  V30 4302 H 392.288 -0.636888 1.80599 0
M  V30 4303 H 390.593 -3.20517 2.25335 0
M  V30 4304 H 392.29 -3.04427 2.61008 0
M  V30 4305 H 388.88 -2.13348 3.71726 0
M  V30 4306 H 393.064 -1.78098 4.63244 0
M  V30 4307 H 388.32 -1.32254 5.96925 0
M  V30 4308 H 392.494 -0.978924 6.89485 0
M  V30 4309 H 390.121 -0.744078 7.5655 0
M  V30 4310 N 391.696 -1.35014 -0.812953 0
M  V30 4311 C 392.626 -1.30069 -1.93919 0
M  V30 4312 C 393.607 -0.176275 -1.69184 0
M  V30 4313 O 394.792 -0.370227 -1.90638 0
M  V30 4314 C 391.922 -1.06547 -3.30552 0
M  V30 4315 C 390.876 -2.15561 -3.69753 0
M  V30 4316 C 390.202 -1.77214 -5.04479 0
M  V30 4317 C 391.502 -3.57476 -3.808 0
M  V30 4318 H 393.196 -2.24303 -1.98314 0
M  V30 4319 H 390.742 -1.07977 -0.952736 0
M  V30 4320 H 392.695 -1.01729 -4.08937 0
M  V30 4321 H 391.419 -0.0875719 -3.26483 0
M  V30 4322 H 390.078 -2.19466 -2.9365 0
M  V30 4323 H 389.726 -0.780589 -4.96906 0
M  V30 4324 H 389.426 -2.50184 -5.31678 0
M  V30 4325 H 390.95 -1.7391 -5.8531 0
M  V30 4326 H 392.364 -3.55929 -4.4943 0
M  V30 4327 H 390.761 -4.29152 -4.19462 0
M  V30 4328 H 391.831 -3.94091 -2.82525 0
M  V30 4329 N 393.175 1.03435 -1.18907 0
M  V30 4330 C 394.591 1.28973 -0.940111 0
M  V30 4331 C 394.791 1.97676 0.390691 0
M  V30 4332 O 393.847 2.26127 1.12352 0
M  V30 4333 C 395.16 2.14221 -2.11021 0
M  V30 4334 C 396.708 2.27547 -2.14922 0
M  V30 4335 C 397.183 3.16164 -3.31367 0
M  V30 4336 N 398.674 3.23752 -3.31269 0
M  V30 4337 C 399.409 3.92495 -4.18014 0
M  V30 4338 N 398.905 4.63515 -5.14904 0
M  V30 4339 N 400.698 3.88838 -4.05908 0
M  V30 4340 H 392.849 0.57252 -2.04538 0
M  V30 4341 H 395.112 0.315184 -0.894071 0
M  V30 4342 H 394.818 1.71054 -3.073 0
M  V30 4343 H 394.692 3.14919 -2.0762 0
M  V30 4344 H 397.079 2.69947 -1.19217 0
M  V30 4345 H 397.16 1.26418 -2.22378 0
M  V30 4346 H 396.804 2.74474 -4.27348 0
M  V30 4347 H 396.734 4.17339 -3.21148 0
M  V30 4348 H 399.225 2.73167 -2.61129 0
M  V30 4349 H 399.538 5.13583 -5.77453 0
M  V30 4350 H 397.883 4.62398 -5.18857 0
M  V30 4351 H 401.074 3.32491 -3.29495 0
M  V30 4352 H 401.247 4.4214 -4.73726 0
M  V30 4353 N 394.653 0.992116 1.22453 0
M  V30 4354 C 395.6 0.541731 2.24352 0
M  V30 4355 C 396.57 -0.425519 1.60557 0
M  V30 4356 O 397.755 -0.330453 1.87917 0
M  V30 4357 C 394.895 -0.138248 3.44823 0
M  V30 4358 C 394.008 0.870649 4.23136 0
M  V30 4359 C 393.143 0.164269 5.30946 0
M  V30 4360 C 392.182 1.16159 6.00977 0
M  V30 4361 N 391.319 0.483568 7.00433 0
M  V30 4362 H 396.159 1.41541 2.62241 0
M  V30 4363 H 393.696 0.709013 1.28885 0
M  V30 4364 H 395.654 -0.5494 4.13567 0
M  V30 4365 H 394.284 -0.975721 3.077 0
M  V30 4366 H 393.336 1.40013 3.53696 0
M  V30 4367 H 394.648 1.63014 4.7141 0
M  V30 4368 H 393.802 -0.303653 6.0594 0
M  V30 4369 H 392.541 -0.627733 4.83643 0
M  V30 4370 H 391.546 1.64015 5.24766 0
M  V30 4371 H 392.771 1.95445 6.50368 0
M  V30 4372 H 390.717 -0.289012 6.55363 0
M  V30 4373 H 390.634 1.18152 7.4671 0
M  V30 4374 H 391.902 0.0384219 7.79491 0
M  V30 4375 N 396.131 -1.37776 0.765217 0
M  V30 4376 C 397.361 -2.03828 0.337277 0
M  V30 4377 C 397.769 -1.57841 -1.04321 0
M  V30 4378 O 397.112 -0.752043 -1.67601 0
M  V30 4379 C 397.174 -3.58292 0.294407 0
M  V30 4380 C 396.838 -4.27384 1.61838 0
M  V30 4381 C 397.835 -4.51956 2.56967 0
M  V30 4382 C 395.52 -4.65345 1.89102 0
M  V30 4383 C 397.514 -5.13536 3.77571 0
M  V30 4384 C 395.201 -5.26647 3.09978 0
M  V30 4385 C 396.199 -5.50679 4.04032 0
M  V30 4386 O 395.887 -6.10702 5.2278 0
M  V30 4387 H 395.619 -0.661292 0.140248 0
M  V30 4388 H 398.173 -1.77222 1.03834 0
M  V30 4389 H 396.403 -3.83918 -0.462983 0
M  V30 4390 H 398.092 -4.05763 -0.105581 0
M  V30 4391 H 398.858 -4.23048 2.37183 0
M  V30 4392 H 394.737 -4.45978 1.16725 0
M  V30 4393 H 398.281 -5.3221 4.50997 0
M  V30 4394 H 394.178 -5.54979 3.29649 0
M  V30 4395 H 394.946 -6.29183 5.23517 0
M  V30 4396 N 397.609 -0.515225 -1.4894 0
M  V30 4397 C 399.025 -0.172099 -1.58669 0
M  V30 4398 C 399.225 1.32405 -1.51892 0
M  V30 4399 O 398.281 2.10116 -1.40027 0
M  V30 4400 C 399.594 -0.761533 -2.90897 0
M  V30 4401 C 401.142 -0.728926 -3.04394 0
M  V30 4402 C 401.617 -1.29667 -4.39261 0
M  V30 4403 N 403.108 -1.25799 -4.4579 0
M  V30 4404 C 403.843 -1.66733 -5.48623 0
M  V30 4405 N 403.339 -2.15327 -6.58488 0
M  V30 4406 N 405.132 -1.58061 -5.39419 0
M  V30 4407 H 397.283 -1.48778 -1.51588 0
M  V30 4408 H 399.546 -0.617968 -0.718901 0
M  V30 4409 H 399.252 -1.81136 -3.01468 0
M  V30 4410 H 399.126 -0.230106 -3.76497 0
M  V30 4411 H 401.513 0.312098 -2.93445 0
M  V30 4412 H 401.594 -1.29766 -2.20442 0
M  V30 4413 H 401.238 -2.33655 -4.50963 0
M  V30 4414 H 401.168 -0.703752 -5.21876 0
M  V30 4415 H 403.659 -0.902102 -3.66975 0
M  V30 4416 H 403.972 -2.44594 -7.33071 0
M  V30 4417 H 402.317 -2.19311 -6.59491 0
M  V30 4418 H 405.508 -1.19906 -4.52482 0
M  V30 4419 H 405.681 -1.90284 -6.19432 0
M  V30 4420 N 399.087 1.5561 -0.249682 0
M  V30 4421 C 399.997 2.25143 0.659375 0
M  V30 4422 C 401.013 1.2685 1.19101 0
M  V30 4423 O 402.189 1.59732 1.22669 0
M  V30 4424 C 399.254 2.93945 1.8384 0
M  V30 4425 C 398.315 4.07655 1.34596 0
M  V30 4426 C 397.548 4.73167 2.46878 0
M  V30 4427 O 397.771 4.37768 3.65671 0
M  V30 4428 O 396.705 5.61623 2.16478 0
M  V30 4429 H 400.531 3.03545 0.0968698 0
M  V30 4430 H 398.116 1.49389 -0.018074 0
M  V30 4431 H 399.998 3.37271 2.52638 0
M  V30 4432 H 398.673 2.18481 2.38847 0
M  V30 4433 H 397.58 3.68839 0.625174 0
M  V30 4434 H 398.913 4.84946 0.841941 0
M  V30 4435 N 400.565 -0.0233959 1.57583 0
M  V30 4436 C 401.512 -1.02224 2.06927 0
M  V30 4437 C 402.482 -1.35575 0.959617 0
M  V30 4438 O 403.667 -1.45815 1.23055 0
M  V30 4439 C 400.807 -2.31636 2.5581 0
M  V30 4440 C 399.92 -2.04394 3.80588 0
M  V30 4441 C 399.055 -3.27717 4.18061 0
M  V30 4442 C 398.094 -2.96056 5.3574 0
M  V30 4443 N 397.231 -4.11847 5.68618 0
M  V30 4444 H 402.071 -0.594504 2.9201 0
M  V30 4445 H 399.608 -0.281921 1.44373 0
M  V30 4446 H 401.566 -3.07258 2.82221 0
M  V30 4447 H 400.196 -2.72122 1.73636 0
M  V30 4448 H 399.248 -1.19244 3.61227 0
M  V30 4449 H 400.56 -1.77042 4.66323 0
M  V30 4450 H 399.714 -4.11702 4.4563 0
M  V30 4451 H 398.453 -3.58188 3.30988 0
M  V30 4452 H 397.458 -2.10474 5.07918 0
M  V30 4453 H 398.683 -2.66857 6.24471 0
M  V30 4454 H 396.629 -4.42258 4.84504 0
M  V30 4455 H 396.546 -3.87938 6.48876 0
M  V30 4456 H 397.814 -4.96689 6.00766 0
M  V30 4457 N 402.043 -1.548 -0.295768 0
M  V30 4458 C 403.273 -1.78069 -1.04762 0
M  V30 4459 C 403.681 -0.542847 -1.81245 0
M  V30 4460 O 403.024 0.497051 -1.76848 0
M  V30 4461 C 403.086 -2.93881 -2.07061 0
M  V30 4462 C 402.75 -4.31777 -1.49725 0
M  V30 4463 C 403.747 -5.11613 -0.924581 0
M  V30 4464 C 401.432 -4.78389 -1.5313 0
M  V30 4465 C 403.426 -6.36184 -0.393594 0
M  V30 4466 C 401.113 -6.02921 -0.996447 0
M  V30 4467 C 402.111 -6.81654 -0.428569 0
M  V30 4468 O 401.799 -8.0384 0.0981593 0
M  V30 4469 H 401.531 -0.597475 -0.316226 0
M  V30 4470 H 404.085 -2.02584 -0.338973 0
M  V30 4471 H 402.315 -2.65003 -2.81621 0
M  V30 4472 H 404.004 -3.04679 -2.6819 0
M  V30 4473 H 404.77 -4.76743 -0.891136 0
M  V30 4474 H 400.649 -4.17132 -1.9627 0
M  V30 4475 H 404.193 -6.97582 0.0503014 0
M  V30 4476 H 400.09 -6.37277 -1.02706 0
M  V30 4477 H 400.858 -8.18499 -0.0146455 0
M  V30 4478 N 403.521 0.559213 -1.47345 0
M  V30 4479 C 404.761 1.32728 -1.55444 0
M  V30 4480 C 405.125 1.90838 -0.210895 0
M  V30 4481 O 406.326 2.68282 -0.166719 0
M  V30 4482 C 404.597 2.4092 -2.63993 0
M  V30 4483 S 406.156 3.2784 -2.91661 0
M  V30 4484 H 402.974 0.451883 -0.548929 0
M  V30 4485 H 405.576 0.640404 -1.84714 0
M  V30 4486 H 404.28 1.9666 -3.60212 0
M  V30 4487 H 403.811 3.14351 -2.36531 0
M  V30 4488 H 405.826 4.40341 -2.28722 0
M  V30 4489 N 404.999 1.35443 0.805782 0
M  V30 4490 C 406.227 1.31878 1.59423 0
M  V30 4491 C 406.642 -0.103562 1.88516 0
M  V30 4492 O 405.999 -1.05575 1.48863 0
M  V30 4493 C 406.05 2.12426 2.92502 0
M  V30 4494 O 405.771 3.49115 2.6467 0
M  V30 4495 C 407.272 2.16455 3.86862 0
M  V30 4496 H 404.492 0.453002 0.495005 0
M  V30 4497 H 407.036 1.78309 1.00131 0
M  V30 4498 H 405.191 1.69593 3.48306 0
M  V30 4499 H 405.605 3.90957 3.49647 0
M  V30 4500 H 407.079 2.77204 4.77349 0
M  V30 4501 H 407.556 1.16352 4.23508 0
M  V30 4502 H 408.162 2.59453 3.36993 0
M  V30 4503 N 406.477 -1.02803 1.19454 0
M  V30 4504 C 407.724 -1.76217 0.997693 0
M  V30 4505 C 408.052 -1.887 -0.47144 0
M  V30 4506 O 407.307 -1.4011 -1.3663 0
M  V30 4507 C 407.606 -3.18941 1.6128 0
M  V30 4508 C 407.272 -3.26463 3.11019 0
M  V30 4509 C 405.934 -3.28223 3.51885 0
M  V30 4510 C 408.286 -3.25542 4.07028 0
M  V30 4511 C 405.614 -3.26719 4.8731 0
M  V30 4512 C 407.966 -3.25579 5.42385 0
M  V30 4513 C 406.63 -3.25637 5.82681 0
M  V30 4514 H 405.9 -0.644823 0.365082 0
M  V30 4515 H 408.547 -1.20655 1.4871 0
M  V30 4516 H 406.852 -3.77587 1.04572 0
M  V30 4517 H 408.549 -3.74415 1.43577 0
M  V30 4518 H 405.139 -3.25822 2.78457 0
M  V30 4519 H 409.323 -3.23362 3.76498 0
M  V30 4520 H 404.579 -3.25089 5.1781 0
M  V30 4521 H 408.753 -3.23817 6.16535 0
M  V30 4522 H 406.38 -3.24226 6.87591 0
M  V30 4523 N 407.956 -0.998596 -1.21925 0
M  V30 4524 C 408.904 -0.546641 -2.26085 0
M  V30 4525 C 409.898 0.405576 -1.64473 0
M  V30 4526 O 411.104 0.277471 -1.77849 0
M  V30 4527 H 407.479 -0.158403 -0.735127 0
M  V30 4528 H 409.45 -1.43645 -2.61551 0
M  V30 4529 C 408.199 0.117388 -3.47502 0
M  V30 4530 H 407.522 -0.606277 -3.95176 0
M  V30 4531 H 408.962 0.396993 -4.22137 0
M  V30 4532 C 407.421 1.35455 -3.0847 0
M  V30 4533 O 407.951 2.44944 -3.18379 0
M  V30 4534 N 406.157 1.23191 -2.63196 0
M  V30 4535 H 405.704 0.341006 -2.55333 0
M  V30 4536 H 405.662 2.06071 -2.37449 0
M  V30 4537 N 409.434 1.37368 -0.772513 0
M  V30 4538 C 410.711 1.93839 -0.26188 0
M  V30 4539 C 411.091 1.7061 1.24319 0
M  V30 4540 O 410.439 1.05534 2.02669 0
M  V30 4541 C 410.649 3.43154 -0.636102 0
M  V30 4542 C 411.997 4.20249 -0.606324 0
M  V30 4543 O 413.021 3.5152 -0.575538 0
M  V30 4544 O 411.88 5.42809 -0.634086 0
M  V30 4545 H 408.974 0.82478 -0.0605555 0
M  V30 4546 H 411.52 1.4665 -0.853917 0
M  V30 4547 H 410.292 3.53647 -1.6748 0
M  V30 4548 H 409.915 3.97596 -0.0170516 0
M  V30 4549 N 410.912 0.523116 1.48665 0
M  V30 4550 C 412.189 -0.0775449 1.95446 0
M  V30 4551 C 412.569 -1.5197 1.4652 0
M  V30 4552 O 411.917 -2.17876 0.688657 0
M  V30 4553 C 412.127 0.0326135 3.48985 0
M  V30 4554 C 413.475 -0.130141 4.24401 0
M  V30 4555 O 414.499 -0.0415142 3.56176 0
M  V30 4556 O 413.358 -0.31491 5.45592 0
M  V30 4557 H 410.452 -0.0831012 0.822814 0
M  V30 4558 H 412.998 0.587227 1.59216 0
M  V30 4559 H 411.77 1.03748 3.77296 0
M  V30 4560 H 411.393 -0.671317 3.91892 0
M  V30 4561 N 412.39 -1.55475 0.257931 0
M  V30 4562 C 413.639 -1.98383 -0.364275 0
M  V30 4563 C 413.952 -1.14952 -1.58258 0
M  V30 4564 O 415.158 -1.47924 -2.27664 0
M  V30 4565 C 413.614 -3.53037 -0.699479 0
M  V30 4566 C 413.222 -4.45223 0.498046 0
M  V30 4567 C 414.966 -4.04575 -1.28526 0
M  V30 4568 C 412.873 -5.91238 0.138383 0
M  V30 4569 H 411.803 -0.740911 -0.13988 0
M  V30 4570 H 414.454 -1.79936 0.359883 0
M  V30 4571 H 412.836 -3.6722 -1.48207 0
M  V30 4572 H 414.01 -4.42803 1.27522 0
M  V30 4573 H 412.325 -4.04226 0.999503 0
M  V30 4574 H 414.922 -5.11196 -1.56788 0
M  V30 4575 H 415.265 -3.5258 -2.21344 0
M  V30 4576 H 415.798 -3.93762 -0.565337 0
M  V30 4577 H 412.537 -6.47294 1.03398 0
M  V30 4578 H 412.057 -5.96768 -0.602374 0
M  V30 4579 H 413.736 -6.46413 -0.27553 0
M  V30 4580 N 413.868 0.0150385 -1.57593 0
M  V30 4581 C 414.8 1.03912 -2.04291 0
M  V30 4582 C 415.813 1.31618 -0.958146 0
M  V30 4583 O 417.002 1.28859 -1.23522 0
M  V30 4584 C 414.102 2.37749 -2.41514 0
M  V30 4585 C 413.275 2.29198 -3.72541 0
M  V30 4586 C 412.334 3.45598 -3.96797 0
M  V30 4587 O 411.36 3.24461 -4.67668 0
M  V30 4588 N 412.562 4.67945 -3.43523 0
M  V30 4589 H 415.327 0.64099 -2.92765 0
M  V30 4590 H 412.888 0.20272 -1.60626 0
M  V30 4591 H 414.88 3.14364 -2.54867 0
M  V30 4592 H 413.45 2.69357 -1.58637 0
M  V30 4593 H 412.67 1.3759 -3.69408 0
M  V30 4594 H 413.958 2.20642 -4.5847 0
M  V30 4595 H 413.356 4.88017 -2.86104 0
M  V30 4596 H 411.913 5.41878 -3.62232 0
M  V30 4597 N 415.346 1.54954 0.287554 0
M  V30 4598 C 416.594 1.74528 1.01904 0
M  V30 4599 C 416.915 0.541349 1.87335 0
M  V30 4600 O 416.185 -0.444108 1.908 0
M  V30 4601 H 414.765 0.643576 0.379235 0
M  V30 4602 H 417.427 1.92333 0.315294 0
M  V30 4603 H 416.523 2.64015 1.6644 0
M  V30 4604 N 416.824 -0.551391 1.4764 0
M  V30 4605 C 418.052 -1.33357 1.58189 0
M  V30 4606 C 418.467 -1.87342 0.234199 0
M  V30 4607 O 417.824 -1.65301 -0.77343 0
M  V30 4608 C 417.875 -2.49942 2.61173 0
M  V30 4609 O 417.596 -1.98187 3.90709 0
M  V30 4610 C 419.097 -3.42072 2.8196 0
M  V30 4611 H 416.317 -0.40631 0.533998 0
M  V30 4612 H 418.861 -0.667367 1.93304 0
M  V30 4613 H 417.016 -3.12489 2.28975 0
M  V30 4614 H 417.43 -2.74342 4.47031 0
M  V30 4615 H 418.904 -4.20278 3.57869 0
M  V30 4616 H 419.381 -3.95978 1.89995 0
M  V30 4617 H 419.987 -2.85336 3.15378 0
M  V30 4618 N 418.302 -1.35869 -0.798587 0
M  V30 4619 C 419.265 -1.29307 -1.89242 0
M  V30 4620 C 420.265 -0.202747 -1.59517 0
M  V30 4621 O 421.455 -0.456957 -1.681 0
M  V30 4622 C 418.587 -1.00229 -3.25833 0
M  V30 4623 H 419.78 -2.26576 -1.96478 0
M  V30 4624 H 417.333 -1.20509 -0.995358 0
M  V30 4625 H 418.068 -0.033801 -3.24282 0
M  V30 4626 H 417.853 -1.79121 -3.48795 0
M  V30 4627 H 419.343 -0.98219 -4.05885 0
M  V30 4628 N 419.78 1.02168 -1.19998 0
M  V30 4629 C 420.743 2.08765 -0.94604 0
M  V30 4630 C 421.743 1.60618 0.0763846 0
M  V30 4631 O 422.933 1.73472 -0.159135 0
M  V30 4632 C 420.065 3.38262 -0.423255 0
M  V30 4633 H 421.258 2.32726 -1.89153 0
M  V30 4634 H 418.811 1.1889 -1.01464 0
M  V30 4635 H 419.546 3.19974 0.527938 0
M  V30 4636 H 419.331 3.74532 -1.16053 0
M  V30 4637 H 420.821 4.16759 -0.264911 0
M  V30 4638 N 421.258 1.00505 1.21394 0
M  V30 4639 C 422.504 0.688793 1.90745 0
M  V30 4640 C 422.837 -0.778486 1.77914 0
M  V30 4641 O 422.112 -1.56433 1.15581 0
M  V30 4642 C 422.395 1.11063 3.42545 0
M  V30 4643 C 422.248 2.63737 3.64367 0
M  V30 4644 C 423.567 0.673059 4.34923 0
M  V30 4645 H 420.686 0.251702 0.692687 0
M  V30 4646 H 423.328 1.25074 1.43026 0
M  V30 4647 H 421.478 0.632508 3.83317 0
M  V30 4648 H 423.15 3.19313 3.32922 0
M  V30 4649 H 421.393 3.05248 3.08231 0
M  V30 4650 H 422.064 2.88305 4.70727 0
M  V30 4651 H 424.54 1.08392 4.01734 0
M  V30 4652 H 423.416 0.996383 5.39781 0
M  V30 4653 H 423.677 -0.425808 4.40045 0
M  V30 4654 N 422.737 -1.36956 0.779787 0
M  V30 4655 C 423.7 -2.2851 0.177662 0
M  V30 4656 C 424.7 -1.48393 -0.619377 0
M  V30 4657 O 425.89 -1.68505 -0.441785 0
M  V30 4658 C 423.022 -3.32428 -0.755279 0
M  V30 4659 H 424.215 -2.83269 0.984823 0
M  V30 4660 H 421.768 -1.46358 0.548544 0
M  V30 4661 H 422.503 -2.82808 -1.58714 0
M  V30 4662 H 422.288 -3.91659 -0.185817 0
M  V30 4663 H 423.778 -4.00824 -1.17174 0
M  V30 4664 N 424.215 -0.530993 -1.48385 0
M  V30 4665 C 425.145 0.219985 -2.32461 0
M  V30 4666 C 426.126 0.934111 -1.42156 0
M  V30 4667 O 427.311 0.919694 -1.71042 0
M  V30 4668 C 424.441 1.26674 -3.23375 0
M  V30 4669 C 423.395 0.67069 -4.22712 0
M  V30 4670 C 422.721 1.82017 -5.02766 0
M  V30 4671 C 424.021 -0.358268 -5.2107 0
M  V30 4672 H 425.715 -0.48187 -2.95497 0
M  V30 4673 H 423.261 -0.233182 -1.42099 0
M  V30 4674 H 425.214 1.80006 -3.81019 0
M  V30 4675 H 423.938 1.99818 -2.58341 0
M  V30 4676 H 422.597 0.158878 -3.66256 0
M  V30 4677 H 422.245 2.54002 -4.34157 0
M  V30 4678 H 421.945 1.42727 -5.70003 0
M  V30 4679 H 423.469 2.35725 -5.63264 0
M  V30 4680 H 424.883 0.0880081 -5.73232 0
M  V30 4681 H 423.28 -0.66861 -5.96364 0
M  V30 4682 H 424.35 -1.26367 -4.68145 0
M  V30 4683 N 425.693 1.55336 -0.266172 0
M  V30 4684 C 426.656 2.20878 0.612001 0
M  V30 4685 C 427.656 1.18388 1.08816 0
M  V30 4686 O 428.846 1.4335 0.989774 0
M  V30 4687 C 425.978 2.86765 1.84332 0
M  V30 4688 H 427.171 2.99873 0.0398718 0
M  V30 4689 H 424.724 1.56291 -0.0167309 0
M  V30 4690 H 425.459 2.11759 2.45619 0
M  V30 4691 H 425.244 3.61862 1.5099 0
M  V30 4692 H 426.734 3.36867 2.46801 0
M  V30 4693 N 427.171 -0.0066808 1.57599 0
M  V30 4694 C 428.419 -0.691552 1.899 0
M  V30 4695 C 428.74 -1.74682 0.866672 0
M  V30 4696 O 428.01 -1.95661 -0.0968189 0
M  V30 4697 H 426.59 -0.258416 0.700878 0
M  V30 4698 H 429.252 0.0326655 1.94873 0
M  V30 4699 H 428.348 -1.16702 2.8946 0
M  V30 4700 N 428.649 -1.55105 -0.279332 0
M  V30 4701 C 429.579 -1.90557 -1.34945 0
M  V30 4702 C 430.56 -0.766738 -1.51839 0
M  V30 4703 O 431.745 -1.02434 -1.64988 0
M  V30 4704 C 428.875 -2.17193 -2.71006 0
M  V30 4705 C 427.829 -3.33021 -2.68851 0
M  V30 4706 C 427.155 -3.45123 -4.08405 0
M  V30 4707 C 428.455 -4.69578 -2.28678 0
M  V30 4708 H 430.149 -2.80188 -1.05522 0
M  V30 4709 H 427.695 -1.34811 -0.506173 0
M  V30 4710 H 429.648 -2.40581 -3.45975 0
M  V30 4711 H 428.372 -1.24355 -3.01999 0
M  V30 4712 H 427.031 -3.0959 -1.9634 0
M  V30 4713 H 426.679 -2.49762 -4.3661 0
M  V30 4714 H 426.379 -4.22995 -4.07859 0
M  V30 4715 H 427.903 -3.70796 -4.85121 0
M  V30 4716 H 429.317 -4.92553 -2.93368 0
M  V30 4717 H 427.714 -5.5032 -2.39306 0
M  V30 4718 H 428.784 -4.68828 -1.23807 0
M  V30 4719 N 430.127 0.543554 -1.4793 0
M  V30 4720 C 431.057 1.65888 -1.64327 0
M  V30 4721 C 432.038 1.62818 -0.492383 0
M  V30 4722 O 433.223 1.80226 -0.723338 0
M  V30 4723 C 430.353 3.04506 -1.67013 0
M  V30 4724 C 429.307 3.2243 -2.81466 0
M  V30 4725 C 428.633 4.61972 -2.69233 0
M  V30 4726 C 429.933 3.06496 -4.22915 0
M  V30 4727 H 431.627 1.52421 -2.57698 0
M  V30 4728 H 429.173 0.731849 -1.24016 0
M  V30 4729 H 431.126 3.82391 -1.77074 0
M  V30 4730 H 429.85 3.18964 -0.70212 0
M  V30 4731 H 428.509 2.46957 -2.70938 0
M  V30 4732 H 428.157 4.73247 -1.7043 0
M  V30 4733 H 427.857 4.74911 -3.46025 0
M  V30 4734 H 429.381 5.41974 -2.81242 0
M  V30 4735 H 430.795 3.74186 -4.34348 0
M  V30 4736 H 429.192 3.30938 -5.006 0
M  V30 4737 H 430.262 2.03077 -4.40327 0
M  V30 4738 N 431.605 1.3629 0.791371 0
M  V30 4739 C 432.568 1.30309 1.88553 0
M  V30 4740 C 433.568 0.211204 1.59407 0
M  V30 4741 O 434.758 0.465865 1.67855 0
M  V30 4742 C 431.89 1.01956 3.25297 0
M  V30 4743 H 433.083 2.27614 1.95273 0
M  V30 4744 H 430.636 1.21035 0.988953 0
M  V30 4745 H 431.371 0.050998 3.2426 0
M  V30 4746 H 431.156 1.80968 3.4784 0
M  V30 4747 H 432.646 1.0037 4.05359 0
M  V30 4748 N 433.083 -1.0153 1.20538 0
M  V30 4749 C 434.046 -2.0826 0.957098 0
M  V30 4750 C 435.046 -1.60657 -0.0678655 0
M  V30 4751 O 436.236 -1.73385 0.168332 0
M  V30 4752 C 433.368 -3.38033 0.441188 0
M  V30 4753 H 434.561 -2.31719 1.90384 0
M  V30 4754 H 432.114 -1.1835 1.02093 0
M  V30 4755 H 432.849 -3.20249 -0.510961 0
M  V30 4756 H 432.634 -3.73911 1.18038 0
M  V30 4757 H 434.124 -4.16613 0.287009 0
M  V30 4758 N 434.561 -1.01147 -1.20859 0
M  V30 4759 C 435.493 -0.535546 -2.22855 0
M  V30 4760 C 436.506 0.379323 -1.58319 0
M  V30 4761 O 437.695 0.178489 -1.77605 0
M  V30 4762 C 434.795 0.240962 -3.38042 0
M  V30 4763 C 433.968 -0.674562 -4.32167 0
M  V30 4764 C 433.027 0.053467 -5.26173 0
M  V30 4765 O 432.053 -0.567339 -5.66366 0
M  V30 4766 N 433.255 1.32997 -5.65059 0
M  V30 4767 H 436.02 -1.41268 -2.64317 0
M  V30 4768 H 433.581 -0.888386 -1.35349 0
M  V30 4769 H 435.573 0.737115 -3.97931 0
M  V30 4770 H 434.143 1.01935 -2.95513 0
M  V30 4771 H 433.363 -1.35111 -3.70322 0
M  V30 4772 H 434.651 -1.2974 -4.91981 0
M  V30 4773 H 434.049 1.85536 -5.34409 0
M  V30 4774 H 432.606 1.77095 -6.2728 0
M  V30 4775 N 436.039 1.36541 -0.78704 0
M  V30 4776 C 436.986 2.30082 -0.181901 0
M  V30 4777 C 437.956 1.5186 0.672896 0
M  V30 4778 O 439.141 1.80374 0.622072 0
M  V30 4779 C 436.281 3.3835 0.679197 0
M  V30 4780 C 435.394 4.31565 -0.193882 0
M  V30 4781 C 434.529 5.26915 0.673364 0
M  V30 4782 C 433.568 6.11769 -0.201315 0
M  V30 4783 N 432.705 6.99315 0.624777 0
M  V30 4784 H 437.545 2.81248 -0.985064 0
M  V30 4785 H 435.082 1.38437 -0.497342 0
M  V30 4786 H 437.04 3.99767 1.19341 0
M  V30 4787 H 435.67 2.8851 1.44781 0
M  V30 4788 H 434.722 3.71323 -0.826044 0
M  V30 4789 H 436.034 4.91191 -0.867937 0
M  V30 4790 H 435.188 5.9361 1.25348 0
M  V30 4791 H 433.927 4.67737 1.38105 0
M  V30 4792 H 432.932 5.44039 -0.793849 0
M  V30 4793 H 434.157 6.73022 -0.906568 0
M  V30 4794 H 432.103 6.42648 1.3168 0
M  V30 4795 H 432.02 7.56 0.00835237 0
M  V30 4796 H 433.288 7.70382 1.18879 0
M  V30 4797 N 437.518 0.538854 1.48102 0
M  V30 4798 C 438.764 0.00801365 2.02798 0
M  V30 4799 C 439.097 -1.3309 1.41424 0
M  V30 4800 O 438.372 -1.86169 0.563158 0
M  V30 4801 C 438.655 -0.104589 3.59948 0
M  V30 4802 C 438.508 1.26012 4.31788 0
M  V30 4803 C 439.827 -0.827055 4.32259 0
M  V30 4804 H 436.946 0.00438624 0.736987 0
M  V30 4805 H 439.588 0.6976 1.7673 0
M  V30 4806 H 437.738 -0.691893 3.82289 0
M  V30 4807 H 439.41 1.88922 4.2084 0
M  V30 4808 H 437.653 1.83968 3.92859 0
M  V30 4809 H 438.324 1.13424 5.40221 0
M  V30 4810 H 440.8 -0.328578 4.14801 0
M  V30 4811 H 439.676 -0.87476 5.41885 0
M  V30 4812 H 439.937 -1.87927 4.0017 0
M  V30 4813 N 438.996 -1.55193 0.274407 0
M  V30 4814 C 440.245 -1.98758 -0.343213 0
M  V30 4815 C 440.558 -1.16624 -1.5703 0
M  V30 4816 O 441.764 -1.5033 -2.26082 0
M  V30 4817 C 440.22 -3.53759 -0.661996 0
M  V30 4818 C 439.828 -4.4467 0.54524 0
M  V30 4819 C 441.572 -4.05916 -1.24228 0
M  V30 4820 C 439.479 -5.91058 0.201084 0
M  V30 4821 H 438.409 -0.742353 -0.132014 0
M  V30 4822 H 441.06 -1.79545 0.378948 0
M  V30 4823 H 439.442 -3.68772 -1.44304 0
M  V30 4824 H 440.616 -4.41426 1.32212 0
M  V30 4825 H 438.931 -4.03143 1.04232 0
M  V30 4826 H 441.528 -5.12831 -1.51357 0
M  V30 4827 H 441.871 -3.54908 -2.17592 0
M  V30 4828 H 442.404 -3.9434 -0.523542 0
M  V30 4829 H 439.143 -6.46161 1.10258 0
M  V30 4830 H 438.663 -5.97373 -0.539045 0
M  V30 4831 H 440.342 -6.46669 -0.206954 0
M  V30 4832 N 440.474 -0.00167713 -1.576 0
M  V30 4833 C 441.699 0.69739 -1.95323 0
M  V30 4834 C 442.124 1.6642 -0.876706 0
M  V30 4835 O 441.482 1.80548 0.165007 0
M  V30 4836 C 441.53 1.40403 -3.32144 0
M  V30 4837 O 440.634 2.5185 -3.26566 0
M  V30 4838 H 439.975 0.185373 -0.637599 0
M  V30 4839 H 442.505 -0.0553665 -2.04525 0
M  V30 4840 H 442.515 1.76707 -3.67748 0
M  V30 4841 H 441.19 0.695167 -4.10049 0
M  V30 4842 H 439.767 2.17861 -3.0264 0
M  V30 4843 N 441.952 1.55251 0.271103 0
M  V30 4844 C 442.899 1.88261 1.33516 0
M  V30 4845 C 443.869 0.734296 1.48988 0
M  V30 4846 O 445.054 0.985741 1.63364 0
M  V30 4847 C 442.194 2.16168 2.69008 0
M  V30 4848 C 441.307 3.43678 2.61743 0
M  V30 4849 C 440.442 3.61276 3.89427 0
M  V30 4850 C 439.481 4.82472 3.7668 0
M  V30 4851 N 438.618 4.96717 4.96202 0
M  V30 4852 H 443.458 2.79015 1.04665 0
M  V30 4853 H 440.995 1.38137 0.505618 0
M  V30 4854 H 442.953 2.30349 3.47844 0
M  V30 4855 H 441.583 1.28646 2.96057 0
M  V30 4856 H 440.635 3.37959 1.74607 0
M  V30 4857 H 441.947 4.3265 2.48224 0
M  V30 4858 H 441.101 3.75284 4.76704 0
M  V30 4859 H 439.84 2.70492 4.05814 0
M  V30 4860 H 438.845 4.68465 2.87786 0
M  V30 4861 H 440.07 5.74692 3.61809 0
M  V30 4862 H 438.016 4.08865 5.12997 0
M  V30 4863 H 437.933 5.79738 4.85222 0
M  V30 4864 H 439.201 5.15113 5.85046 0
M  V30 4865 N 443.43 -0.535701 1.48216 0
M  V30 4866 C 444.841 -1.11769 1.49548 0
M  V30 4867 C 445.192 -1.94442 0.26207 0
M  V30 4868 O 444.317 -2.06987 -0.631287 0
M  V30 4869 C 444.912 -2.03367 2.70975 0
M  V30 4870 C 443.471 -2.56795 2.75196 0
M  V30 4871 C 442.618 -1.33631 2.42977 0
M  V30 4872 H 445.569 -0.321232 1.55415 0
M  V30 4873 H 445.59 -2.87569 2.49167 0
M  V30 4874 H 445.102 -1.43169 3.60727 0
M  V30 4875 H 443.203 -3.20731 1.89638 0
M  V30 4876 H 443.316 -2.9632 3.76472 0
M  V30 4877 H 441.68 -1.6502 1.94012 0
M  V30 4878 H 442.463 -0.75194 3.34964 0
M  V30 4879 N 444.908 -1.36708 -0.784132 0
M  V30 4880 C 446.157 -1.30559 -1.53744 0
M  V30 4881 C 446.47 0.111374 -1.95283 0
M  V30 4882 O 447.676 0.29527 -2.6989 0
M  V30 4883 C 446.132 -2.29098 -2.77565 0
M  V30 4884 C 445.74 -3.76258 -2.43174 0
M  V30 4885 C 447.484 -2.31936 -3.55536 0
M  V30 4886 C 445.391 -4.6656 -3.63422 0
M  V30 4887 H 444.321 -0.48518 -0.577162 0
M  V30 4888 H 446.972 -1.62101 -0.859981 0
M  V30 4889 H 445.354 -1.90557 -3.47137 0
M  V30 4890 H 446.528 -4.23565 -1.81465 0
M  V30 4891 H 444.843 -3.76246 -1.78403 0
M  V30 4892 H 447.44 -2.9661 -4.44889 0
M  V30 4893 H 447.783 -1.3294 -3.94503 0
M  V30 4894 H 448.316 -2.6912 -2.92949 0
M  V30 4895 H 445.055 -5.66638 -3.29547 0
M  V30 4896 H 444.575 -4.23966 -4.24279 0
M  V30 4897 H 446.254 -4.8309 -4.30387 0
M  V30 4898 N 446.386 1.0089 -1.21074 0
M  V30 4899 C 447.611 1.78727 -1.05221 0
M  V30 4900 C 448.036 1.83932 0.393795 0
M  V30 4901 O 447.394 1.28004 1.28393 0
M  V30 4902 C 447.442 3.20665 -1.64944 0
M  V30 4903 O 446.546 4.02632 -0.892273 0
M  V30 4904 H 445.887 0.550973 -0.370574 0
M  V30 4905 H 448.417 1.26847 -1.60534 0
M  V30 4906 H 448.427 3.71352 -1.69002 0
M  V30 4907 H 447.102 3.16191 -2.70177 0
M  V30 4908 H 445.679 3.61207 -0.926492 0
M  V30 4909 N 447.864 1.01787 1.20321 0
M  V30 4910 C 448.774 0.598898 2.26827 0
M  V30 4911 C 449.79 -0.36418 1.70146 0
M  V30 4912 O 450.966 -0.224812 2.00141 0
M  V30 4913 C 448.031 -0.0549769 3.46656 0
M  V30 4914 C 447.092 0.954205 4.18561 0
M  V30 4915 C 446.325 0.331439 5.3267 0
M  V30 4916 O 446.548 -0.86851 5.63749 0
M  V30 4917 O 445.482 1.0488 5.92692 0
M  V30 4918 H 449.308 1.48562 2.64883 0
M  V30 4919 H 446.893 0.787434 1.26964 0
M  V30 4920 H 448.775 -0.420102 4.19301 0
M  V30 4921 H 447.45 -0.915876 3.10473 0
M  V30 4922 H 446.357 1.37072 3.48083 0
M  V30 4923 H 447.69 1.78511 4.58688 0
M  V30 4924 N 449.342 -1.36122 0.79427 0
M  V30 4925 C 450.292 -2.27373 0.169017 0
M  V30 4926 C 451.276 -1.4719 -0.649913 0
M  V30 4927 O 452.468 -1.69518 -0.50919 0
M  V30 4928 C 449.597 -3.36264 -0.691455 0
M  V30 4929 C 448.683 -4.2388 0.13653 0
M  V30 4930 N 449.074 -4.91519 1.19345 0
M  V30 4931 C 447.372 -4.45921 -0.0838499 0
M  V30 4932 C 448.073 -5.56369 1.6979 0
M  V30 4933 N 447.049 -5.34204 1.00634 0
M  V30 4934 H 450.851 -2.77154 0.977897 0
M  V30 4935 H 448.365 -1.49504 0.634208 0
M  V30 4936 H 450.362 -4.00572 -1.15534 0
M  V30 4937 H 449.022 -2.88037 -1.49883 0
M  V30 4938 H 450.033 -4.9334 1.57594 0
M  V30 4939 H 446.71 -4.08518 -0.861341 0
M  V30 4940 H 448.1 -6.20368 2.58055 0
M  V30 4941 N 450.82 -0.546701 -1.47814 0
M  V30 4942 C 451.767 0.206854 -2.29871 0
M  V30 4943 C 452.737 0.918235 -1.38411 0
M  V30 4944 O 453.922 0.915991 -1.67375 0
M  V30 4945 C 451.062 1.23746 -3.22151 0
M  V30 4946 C 450.175 0.533216 -4.28697 0
M  V30 4947 C 449.31 1.5482 -5.08138 0
M  V30 4948 C 448.349 0.828347 -6.06469 0
M  V30 4949 N 447.486 1.78966 -6.78908 0
M  V30 4950 H 452.326 -0.499037 -2.93792 0
M  V30 4951 H 449.863 -0.25793 -1.44821 0
M  V30 4952 H 451.821 1.84746 -3.74065 0
M  V30 4953 H 450.451 1.91151 -2.60117 0
M  V30 4954 H 449.503 -0.191089 -3.7992 0
M  V30 4955 H 450.815 -0.0311987 -4.9879 0
M  V30 4956 H 449.969 2.23202 -5.6415 0
M  V30 4957 H 448.708 2.14652 -4.37922 0
M  V30 4958 H 447.713 0.130539 -5.49645 0
M  V30 4959 H 448.938 0.235907 -6.7869 0
M  V30 4960 H 446.884 2.37675 -6.1143 0
M  V30 4961 H 446.801 1.27712 -7.45135 0
M  V30 4962 H 448.069 2.46496 -7.395 0
M  V30 4963 N 452.299 1.55045 -0.282633 0
M  V30 4964 C 453.548 1.98938 0.332667 0
M  V30 4965 C 453.861 1.17455 1.56409 0
M  V30 4966 O 455.067 1.51527 2.25282 0
M  V30 4967 C 453.523 3.54105 0.643226 0
M  V30 4968 C 453.131 4.44374 -0.568814 0
M  V30 4969 C 454.875 4.06569 1.22074 0
M  V30 4970 C 452.782 5.90943 -0.232426 0
M  V30 4971 H 451.712 0.743043 0.128075 0
M  V30 4972 H 454.363 1.79341 -0.388464 0
M  V30 4973 H 452.745 3.69532 1.42346 0
M  V30 4974 H 453.919 4.40718 -1.34551 0
M  V30 4975 H 452.234 4.02585 -1.06369 0
M  V30 4976 H 454.831 5.13626 1.48635 0
M  V30 4977 H 455.174 3.56057 2.15707 0
M  V30 4978 H 455.707 3.94612 0.502621 0
M  V30 4979 H 452.446 6.45567 -1.13683 0
M  V30 4980 H 451.966 5.9765 0.507357 0
M  V30 4981 H 453.645 6.4677 0.172657 0
M  V30 4982 N 453.777 0.010035 1.57597 0
M  V30 4983 C 454.707 -0.976857 2.12084 0
M  V30 4984 C 455.688 -1.35191 1.03235 0
M  V30 4985 O 456.873 -1.43389 1.3097 0
M  V30 4986 C 454.003 -2.26548 2.63236 0
M  V30 4987 C 452.957 -2.03175 3.76701 0
M  V30 4988 C 452.283 -3.38138 4.14206 0
M  V30 4989 C 453.583 -1.38625 5.03568 0
M  V30 4990 H 455.277 -0.523145 2.94794 0
M  V30 4991 H 452.823 -0.250195 1.4181 0
M  V30 4992 H 454.776 -2.95952 2.99984 0
M  V30 4993 H 453.5 -2.74051 1.77661 0
M  V30 4994 H 452.159 -1.36195 3.40362 0
M  V30 4995 H 451.807 -3.83363 3.25641 0
M  V30 4996 H 451.507 -3.23312 4.90656 0
M  V30 4997 H 453.031 -4.08841 4.53521 0
M  V30 4998 H 454.445 -1.98 5.38023 0
M  V30 4999 H 452.842 -1.34256 5.84889 0
M  V30 5000 H 453.912 -0.356722 4.83586 0
M  V30 5001 N 455.255 -1.55392 -0.262866 0
M  V30 5002 C 456.502 -1.76476 -0.993109 0
M  V30 5003 C 456.83 -0.571479 -1.85915 0
M  V30 5004 O 456.085 0.445733 -1.90556 0
M  V30 5005 C 456.384 -3.02889 -1.89718 0
M  V30 5006 C 456.05 -4.34974 -1.18781 0
M  V30 5007 C 454.712 -4.7087 -0.991699 0
M  V30 5008 C 457.064 -5.16695 -0.683798 0
M  V30 5009 C 454.392 -5.86036 -0.279024 0
M  V30 5010 C 456.744 -6.32598 0.0153327 0
M  V30 5011 C 455.408 -6.67127 0.223062 0
M  V30 5012 H 454.678 -0.64577 -0.363404 0
M  V30 5013 H 457.325 -1.89664 -0.264525 0
M  V30 5014 H 455.63 -2.84644 -2.6923 0
M  V30 5015 H 457.327 -3.16399 -2.46359 0
M  V30 5016 H 453.917 -4.06765 -1.35058 0
M  V30 5017 H 458.101 -4.8943 -0.8229 0
M  V30 5018 H 453.357 -6.11306 -0.107456 0
M  V30 5019 H 457.531 -6.95171 0.413584 0
M  V30 5020 H 455.158 -7.56216 0.777265 0
M  V30 5021 N 456.733 0.527833 -1.48498 0
M  V30 5022 C 457.663 1.64136 -1.66077 0
M  V30 5023 C 458.644 1.62286 -0.509625 0
M  V30 5024 O 459.829 1.79449 -0.742413 0
M  V30 5025 C 456.959 3.02717 -1.70234 0
M  V30 5026 C 455.913 3.19426 -2.8487 0
M  V30 5027 C 455.239 4.5909 -2.74118 0
M  V30 5028 C 456.539 3.01993 -4.26142 0
M  V30 5029 H 458.233 1.4968 -2.593 0
M  V30 5030 H 455.779 0.718654 -1.24785 0
M  V30 5031 H 457.732 3.80491 -1.8112 0
M  V30 5032 H 456.456 3.18201 -0.735911 0
M  V30 5033 H 455.115 2.4407 -2.73542 0
M  V30 5034 H 454.763 4.71413 -1.7544 0
M  V30 5035 H 454.463 4.71214 -3.51042 0
M  V30 5036 H 455.987 5.3896 -2.86974 0
M  V30 5037 H 457.401 3.69558 -4.38292 0
M  V30 5038 H 455.798 3.2561 -5.04082 0
M  V30 5039 H 456.868 1.98396 -4.42456 0
M  V30 5040 N 458.211 1.37122 0.776871 0
M  V30 5041 C 459.459 1.31787 1.53221 0
M  V30 5042 C 459.78 -0.0987589 1.9475 0
M  V30 5043 O 459.05 -1.0417 1.65908 0
M  V30 5044 H 457.63 0.484839 0.568278 0
M  V30 5045 H 460.292 1.71556 0.924917 0
M  V30 5046 H 459.388 1.95355 2.43398 0
M  V30 5047 N 459.689 -1.00246 1.21608 0
M  V30 5048 C 460.652 -2.07233 0.979133 0
M  V30 5049 C 461.652 -1.6072 -0.0508219 0
M  V30 5050 O 462.842 -1.73196 0.186712 0
M  V30 5051 C 459.974 -3.37546 0.477016 0
M  V30 5052 H 461.167 -2.29687 1.92831 0
M  V30 5053 H 458.72 -1.17261 1.03342 0
M  V30 5054 H 459.455 -3.20773 -0.476966 0
M  V30 5055 H 459.24 -3.72638 1.21997 0
M  V30 5056 H 460.73 -4.16285 0.331181 0
M  V30 5057 N 461.167 -1.02423 -1.1978 0
M  V30 5058 C 462.415 -0.716569 -1.8897 0
M  V30 5059 C 462.736 0.756769 -1.79716 0
M  V30 5060 O 462.006 1.5449 -1.20456 0
M  V30 5061 H 460.586 -0.262062 -0.699523 0
M  V30 5062 H 463.248 -1.29747 -1.45436 0
M  V30 5063 H 462.344 -1.00675 -2.95417 0
M  V30 5064 N 462.645 1.35699 -0.801477 0
M  V30 5065 C 463.555 2.33661 -0.209691 0
M  V30 5066 C 464.571 1.6162 0.644591 0
M  V30 5067 O 465.747 1.93529 0.557545 0
M  V30 5068 C 462.812 3.40816 0.636033 0
M  V30 5069 C 461.873 4.28639 -0.238147 0
M  V30 5070 C 461.106 5.30676 0.567307 0
M  V30 5071 O 461.329 5.41174 1.8024 0
M  V30 5072 O 460.263 6.01887 -0.0391336 0
M  V30 5073 H 464.089 2.8606 -1.01996 0
M  V30 5074 H 461.674 1.38379 -0.563164 0
M  V30 5075 H 463.556 4.06301 1.11791 0
M  V30 5076 H 462.231 2.90696 1.42399 0
M  V30 5077 H 461.138 3.66152 -0.767044 0
M  V30 5078 H 462.471 4.82143 -0.989915 0
M  V30 5079 N 464.123 0.554532 1.47522 0
M  V30 5080 C 465.086 -0.184174 2.28459 0
M  V30 5081 C 466.086 -0.845195 1.36796 0
M  V30 5082 O 467.276 -0.701467 1.59452 0
M  V30 5083 C 464.408 -1.26903 3.16399 0
M  V30 5084 H 465.601 0.526751 2.95238 0
M  V30 5085 H 463.154 0.311375 1.53167 0
M  V30 5086 H 463.889 -2.01244 2.54306 0
M  V30 5087 H 463.674 -0.799883 3.83854 0
M  V30 5088 H 465.164 -1.78794 3.77389 0
M  V30 5089 N 465.601 -1.54893 0.290851 0
M  V30 5090 C 466.564 -2.21824 -0.576784 0
M  V30 5091 C 467.564 -1.20104 -1.06919 0
M  V30 5092 O 468.754 -1.44906 -0.966843 0
M  V30 5093 C 465.886 -2.89662 -1.79747 0
M  V30 5094 H 467.079 -2.99899 0.00784051 0
M  V30 5095 H 464.632 -1.56245 0.0415934 0
M  V30 5096 H 465.367 -2.15639 -2.42219 0
M  V30 5097 H 465.152 -3.64219 -1.45214 0
M  V30 5098 H 466.642 -3.4075 -2.4141 0
M  V30 5099 N 467.08 -0.0183926 -1.57589 0
M  V30 5100 C 468.01 0.965596 -2.12599 0
M  V30 5101 C 468.991 1.34641 -1.0395 0
M  V30 5102 O 470.176 1.42693 -1.31729 0
M  V30 5103 C 467.306 2.25149 -2.64434 0
M  V30 5104 C 466.26 2.01175 -3.77773 0
M  V30 5105 C 465.586 3.35937 -4.15994 0
M  V30 5106 C 466.886 1.35953 -5.04296 0
M  V30 5107 H 468.58 0.507504 -2.95067 0
M  V30 5108 H 466.126 0.242671 -1.41941 0
M  V30 5109 H 468.079 2.94357 -3.01549 0
M  V30 5110 H 466.803 2.73105 -1.79112 0
M  V30 5111 H 465.462 1.34388 -3.4108 0
M  V30 5112 H 465.11 3.81631 -3.27669 0
M  V30 5113 H 464.81 3.20705 -4.92364 0
M  V30 5114 H 466.334 4.0643 -4.55683 0
M  V30 5115 H 467.748 1.95144 -5.39065 0
M  V30 5116 H 466.145 1.31152 -5.85593 0
M  V30 5117 H 467.215 0.331071 -4.83768 0
M  V30 5118 N 468.558 1.5553 0.254621 0
M  V30 5119 C 469.806 1.7665 0.981793 0
M  V30 5120 C 470.127 0.580963 1.86145 0
M  V30 5121 O 469.397 -0.403537 1.91699 0
M  V30 5122 H 467.977 0.651475 0.365498 0
M  V30 5123 H 470.639 1.92958 0.274426 0
M  V30 5124 H 469.735 2.67486 1.60802 0
M  V30 5125 N 470.036 -0.519951 1.48776 0
M  V30 5126 C 471.285 -1.27175 1.56555 0
M  V30 5127 C 471.598 -1.9401 0.248869 0
M  V30 5128 O 472.804 -2.70725 0.205004 0
M  V30 5129 C 471.26 -2.30811 2.76142 0
M  V30 5130 C 470.868 -1.7 4.14493 0
M  V30 5131 C 472.612 -3.06937 2.9324 0
M  V30 5132 C 470.519 -2.71635 5.25327 0
M  V30 5133 H 469.449 -0.478329 0.582853 0
M  V30 5134 H 472.1 -0.547916 1.75129 0
M  V30 5135 H 470.482 -3.06274 2.51023 0
M  V30 5136 H 471.656 -1.00658 4.49672 0
M  V30 5137 H 469.971 -1.06331 4.02595 0
M  V30 5138 H 472.568 -3.82905 3.73213 0
M  V30 5139 H 472.911 -3.63409 2.03075 0
M  V30 5140 H 473.444 -2.38589 3.18308 0
M  V30 5141 H 470.183 -2.1997 6.1749 0
M  V30 5142 H 469.703 -3.39275 4.94624 0
M  V30 5143 H 471.382 -3.34429 5.53865 0
M  V30 5144 N 471.514 -1.37532 -0.769588 0
M  V30 5145 C 472.477 -1.33292 -1.86456 0
M  V30 5146 C 473.477 -0.236537 -1.59051 0
M  V30 5147 O 474.667 -0.492511 -1.67093 0
M  V30 5148 C 471.799 -1.07118 -3.23633 0
M  V30 5149 H 472.992 -2.30692 -1.91628 0
M  V30 5150 H 470.545 -1.22593 -0.969572 0
M  V30 5151 H 471.28 -0.102578 -3.24138 0
M  V30 5152 H 471.065 -1.86479 -3.44917 0
M  V30 5153 H 472.555 -1.06806 -4.03711 0
M  V30 5154 N 472.992 0.995999 -1.22138 0
M  V30 5155 C 473.94 2.10673 -0.985876 0
M  V30 5156 C 474.934 1.69255 0.0699553 0
M  V30 5157 O 476.14 1.79812 -0.0822176 0
M  V30 5158 H 472.515 0.688865 -0.30161 0
M  V30 5159 H 474.486 2.27711 -1.92848 0
M  V30 5160 C 473.235 3.42881 -0.576909 0
M  V30 5161 H 472.558 3.75191 -1.38101 0
M  V30 5162 H 473.998 4.21589 -0.451518 0
M  V30 5163 C 472.457 3.29265 0.713196 0
M  V30 5164 O 472.987 3.60777 1.76643 0
M  V30 5165 N 471.193 2.82456 0.683162 0
M  V30 5166 H 470.74 2.5701 -0.174242 0
M  V30 5167 H 470.698 2.73727 1.54663 0
M  V30 5168 N 474.47 1.03057 1.19235 0
M  V30 5169 C 475.4 0.633497 2.24742 0
M  V30 5170 C 476.381 -0.358335 1.66283 0
M  V30 5171 O 477.566 -0.240676 1.92703 0
M  V30 5172 C 474.696 -0.0147648 3.47297 0
M  V30 5173 C 473.65 0.899527 4.18441 0
M  V30 5174 C 472.976 0.116281 5.34574 0
M  V30 5175 C 474.276 2.21404 4.73051 0
M  V30 5176 H 475.97 1.5155 2.58211 0
M  V30 5177 H 473.516 0.73014 1.24117 0
M  V30 5178 H 475.469 -0.304202 4.20301 0
M  V30 5179 H 474.193 -0.931577 3.13032 0
M  V30 5180 H 472.852 1.17319 3.47321 0
M  V30 5181 H 472.5 -0.802619 4.96555 0
M  V30 5182 H 472.2 0.725293 5.83107 0
M  V30 5183 H 473.724 -0.166376 6.10373 0
M  V30 5184 H 475.138 1.98601 5.37802 0
M  V30 5185 H 473.535 2.77512 5.32078 0
M  V30 5186 H 474.605 2.86752 3.91026 0
M  V30 5187 N 475.948 -1.35272 0.808662 0
M  V30 5188 C 477.197 -1.97963 0.386483 0
M  V30 5189 C 477.51 -1.64866 -1.05255 0
M  V30 5190 O 478.716 -2.20937 -1.57794 0
M  V30 5191 C 477.172 -3.54162 0.640096 0
M  V30 5192 C 476.78 -3.96166 2.0918 0
M  V30 5193 C 478.524 -4.23553 0.283376 0
M  V30 5194 C 476.431 -5.4522 2.29106 0
M  V30 5195 H 475.361 -0.740742 0.140774 0
M  V30 5196 H 478.012 -1.5431 0.993012 0
M  V30 5197 H 476.394 -3.95983 -0.0364117 0
M  V30 5198 H 477.568 -3.65491 2.80629 0
M  V30 5199 H 475.883 -3.3967 2.40859 0
M  V30 5200 H 478.48 -5.33124 0.410273 0
M  V30 5201 H 478.823 -4.09105 -0.770659 0
M  V30 5202 H 479.356 -3.8716 0.913884 0
M  V30 5203 H 476.095 -5.64638 3.32962 0
M  V30 5204 H 475.615 -5.77457 1.62184 0
M  V30 5205 H 477.294 -6.1171 2.1076 0
M  V30 5206 N 477.426 -0.562348 -1.47226 0
M  V30 5207 C 478.672 -0.0402761 -2.0276 0
M  V30 5208 C 479.005 1.30823 -1.43523 0
M  V30 5209 O 478.28 1.85249 -0.592705 0
M  V30 5210 C 478.563 0.047311 -3.60069 0
M  V30 5211 C 478.416 -1.32865 -4.29729 0
M  V30 5212 C 479.735 0.758182 -4.3352 0
M  V30 5213 H 476.854 -0.0161105 -0.736824 0
M  V30 5214 H 479.496 -0.725628 -1.75598 0
M  V30 5215 H 477.646 0.630986 -3.83342 0
M  V30 5216 H 479.318 -1.95593 -4.17781 0
M  V30 5217 H 477.561 -1.90195 -3.89882 0
M  V30 5218 H 478.232 -1.22004 -5.38349 0
M  V30 5219 H 480.708 0.262546 -4.15271 0
M  V30 5220 H 479.584 0.78844 -5.43208 0
M  V30 5221 H 479.845 1.81537 -4.03109 0
M  V30 5222 N 478.904 1.54736 -0.299062 0
M  V30 5223 C 479.837 2.1962 0.619851 0
M  V30 5224 C 480.815 1.16496 1.13434 0
M  V30 5225 O 481.999 1.4513 1.2029 0
M  V30 5226 C 479.126 2.8385 1.84788 0
M  V30 5227 C 478.172 4.00484 1.46679 0
M  V30 5228 S 479.005 5.32926 0.524389 0
M  V30 5229 C 480.161 6.00638 1.76026 0
M  V30 5230 H 480.394 2.97221 0.0686177 0
M  V30 5231 H 477.927 1.54176 -0.0832085 0
M  V30 5232 H 479.885 3.21483 2.55263 0
M  V30 5233 H 478.546 2.06099 2.37028 0
M  V30 5234 H 477.739 4.44201 2.38121 0
M  V30 5235 H 477.341 3.64398 0.842008 0
M  V30 5236 H 479.633 6.21327 2.70109 0
M  V30 5237 H 480.576 6.94805 1.36569 0
M  V30 5238 H 480.984 5.3026 1.93609 0
M  V30 5239 N 480.382 0.0267497 1.57577 0
M  V30 5240 C 481.607 -0.666227 1.96408 0
M  V30 5241 C 482.032 -1.65004 0.903071 0
M  V30 5242 O 481.39 -1.80787 -0.136263 0
M  V30 5243 C 481.438 -1.35101 3.34335 0
M  V30 5244 O 480.542 -2.46623 3.30531 0
M  V30 5245 H 479.883 -0.175206 0.640468 0
M  V30 5246 H 482.413 0.0878977 2.04411 0
M  V30 5247 H 482.423 -1.70834 3.70513 0
M  V30 5248 H 481.098 -0.629844 4.11103 0
M  V30 5249 H 479.675 -2.13019 3.06068 0
M  V30 5250 N 481.861 -1.55662 -0.24637 0
M  V30 5251 C 482.794 -1.85332 -1.33143 0
M  V30 5252 C 483.772 -0.708464 -1.46354 0
M  V30 5253 O 484.956 -0.954274 -1.6256 0
M  V30 5254 C 482.083 -2.0385 -2.70487 0
M  V30 5255 C 481.129 -3.26488 -2.74423 0
M  V30 5256 S 481.962 -4.83124 -2.30979 0
M  V30 5257 C 483.118 -5.04647 -3.70246 0
M  V30 5258 H 483.351 -2.77077 -1.07777 0
M  V30 5259 H 480.884 -1.47776 -0.44738 0
M  V30 5260 H 482.842 -2.15202 -3.49569 0
M  V30 5261 H 481.503 -1.12947 -2.9309 0
M  V30 5262 H 480.696 -3.36413 -3.7529 0
M  V30 5263 H 480.298 -3.13864 -2.03385 0
M  V30 5264 H 482.59 -4.92023 -4.65746 0
M  V30 5265 H 483.533 -6.06625 -3.65255 0
M  V30 5266 H 483.941 -4.32491 -3.62784 0
M  V30 5267 N 483.339 0.512053 -1.4905 0
M  V30 5268 C 484.585 1.26874 -1.58212 0
M  V30 5269 C 484.918 1.9241 -0.263073 0
M  V30 5270 O 484.193 1.80181 0.732476 0
M  V30 5271 C 484.476 2.34428 -2.73341 0
M  V30 5272 C 484.329 1.73466 -4.15006 0
M  V30 5273 C 485.648 3.36073 -2.84154 0
M  V30 5274 H 482.767 0.459924 -0.575881 0
M  V30 5275 H 485.409 0.568587 -1.81293 0
M  V30 5276 H 483.559 2.94146 -2.53792 0
M  V30 5277 H 485.231 1.17661 -4.46042 0
M  V30 5278 H 483.474 1.03921 -4.21168 0
M  V30 5279 H 484.145 2.51426 -4.91415 0
M  V30 5280 H 486.621 2.86332 -3.01916 0
M  V30 5281 H 485.497 4.08703 -3.66406 0
M  V30 5282 H 485.758 3.97725 -1.93048 0
M  V30 5283 N 484.817 1.37938 0.762283 0
M  V30 5284 C 485.727 1.36681 1.90671 0
M  V30 5285 C 486.743 0.265078 1.71969 0
M  V30 5286 O 487.919 0.502055 1.95042 0
M  V30 5287 C 484.984 1.18211 3.25925 0
M  V30 5288 C 484.045 2.3811 3.57214 0
M  V30 5289 C 483.278 2.20512 4.86014 0
M  V30 5290 O 483.501 1.19429 5.57757 0
M  V30 5291 O 482.435 3.08911 5.16583 0
M  V30 5292 H 486.261 2.33091 1.94685 0
M  V30 5293 H 483.846 1.18767 0.906356 0
M  V30 5294 H 485.728 1.09937 4.06807 0
M  V30 5295 H 484.403 0.248807 3.22742 0
M  V30 5296 H 483.31 2.51958 2.76529 0
M  V30 5297 H 484.643 3.30041 3.65149 0
M  V30 5298 N 486.295 -0.989507 1.22664 0
M  V30 5299 C 487.243 -2.10148 0.997035 0
M  V30 5300 C 488.237 -1.6929 -0.0609783 0
M  V30 5301 O 489.443 -1.79766 0.0917523 0
M  V30 5302 H 485.818 -0.687256 0.305259 0
M  V30 5303 H 487.789 -2.26685 1.94053 0
M  V30 5304 C 486.538 -3.4257 0.595085 0
M  V30 5305 H 485.861 -3.74453 1.40089 0
M  V30 5306 H 487.301 -4.21344 0.473869 0
M  V30 5307 C 485.76 -3.29638 -0.695725 0
M  V30 5308 O 486.29 -3.61709 -1.74727 0
M  V30 5309 N 484.496 -2.82814 -0.668173 0
M  V30 5310 H 484.043 -2.56914 0.18787 0
M  V30 5311 H 484.001 -2.74544 -1.5321 0
M  V30 5312 N 487.773 -1.03688 -1.18687 0
M  V30 5313 C 489.021 -0.736572 -1.88199 0
M  V30 5314 C 489.342 0.737665 -1.80509 0
M  V30 5315 O 488.612 1.53204 -1.22088 0
M  V30 5316 H 487.192 -0.269466 -0.696704 0
M  V30 5317 H 489.854 -1.31282 -1.44052 0
M  V30 5318 H 488.95 -1.03802 -2.94332 0
M  V30 5319 N 489.251 1.34841 -0.815825 0
M  V30 5320 C 490.181 2.32187 -0.247298 0
M  V30 5321 C 491.162 1.5791 0.632344 0
M  V30 5322 O 492.347 1.8593 0.560698 0
M  V30 5323 C 489.477 3.42122 0.597466 0
M  V30 5324 C 488.431 4.27602 -0.184446 0
M  V30 5325 C 487.757 5.28942 0.782609 0
M  V30 5326 C 489.057 5.03502 -1.38865 0
M  V30 5327 H 490.751 2.79985 -1.06061 0
M  V30 5328 H 488.297 1.34611 -0.511461 0
M  V30 5329 H 490.25 4.09232 1.00533 0
M  V30 5330 H 488.974 2.92956 1.44376 0
M  V30 5331 H 487.633 3.62085 -0.573592 0
M  V30 5332 H 487.281 4.7604 1.62466 0
M  V30 5333 H 486.981 5.87008 0.263695 0
M  V30 5334 H 488.505 5.98922 1.18848 0
M  V30 5335 H 489.919 5.63506 -1.05518 0
M  V30 5336 H 488.316 5.71108 -1.8427 0
M  V30 5337 H 489.386 4.33608 -2.17054 0
M  V30 5338 N 490.729 0.570148 1.46925 0
M  V30 5339 C 491.954 0.0542592 2.07329 0
M  V30 5340 C 492.379 -1.23582 1.41806 0
M  V30 5341 O 491.737 -1.74341 0.497479 0
M  V30 5342 C 491.785 -0.111175 3.60429 0
M  V30 5343 O 490.889 -1.17071 3.95434 0
M  V30 5344 H 490.23 0.0571425 0.661537 0
M  V30 5345 H 492.76 0.789516 1.88753 0
M  V30 5346 H 492.77 -0.321315 4.06733 0
M  V30 5347 H 491.445 0.831012 4.07513 0
M  V30 5348 H 490.022 -0.940029 3.60857 0
M  V30 5349 N 492.207 -1.54576 0.307264 0
M  V30 5350 C 493.117 -2.27435 -0.57536 0
M  V30 5351 C 494.133 -1.31183 -1.14311 0
M  V30 5352 O 495.309 -1.64175 -1.16656 0
M  V30 5353 C 492.374 -3.00566 -1.72803 0
M  V30 5354 C 491.435 -4.12369 -1.19373 0
M  V30 5355 C 490.668 -4.82003 -2.29147 0
M  V30 5356 O 490.891 -4.51038 -3.49171 0
M  V30 5357 O 489.825 -5.69271 -1.95485 0
M  V30 5358 H 493.651 -3.03696 0.0158558 0
M  V30 5359 H 491.236 -1.49219 0.0735064 0
M  V30 5360 H 493.118 -3.46416 -2.39946 0
M  V30 5361 H 491.793 -2.27195 -2.30574 0
M  V30 5362 H 490.7 -3.70905 -0.487851 0
M  V30 5363 H 492.033 -4.87736 -0.661376 0
M  V30 5364 N 493.685 -0.035106 -1.57561 0
M  V30 5365 C 494.617 0.973604 -2.07494 0
M  V30 5366 C 495.63 1.28504 -0.999534 0
M  V30 5367 O 496.819 1.24864 -1.27559 0
M  V30 5368 C 493.919 2.29945 -2.48955 0
M  V30 5369 C 493.092 2.1723 -3.79644 0
M  V30 5370 C 492.151 3.328 -4.07592 0
M  V30 5371 O 491.177 3.09418 -4.77754 0
M  V30 5372 N 492.379 4.56779 -3.58236 0
M  V30 5373 H 495.144 0.547525 -2.94656 0
M  V30 5374 H 492.705 0.151515 -1.61189 0
M  V30 5375 H 494.697 3.06097 -2.64739 0
M  V30 5376 H 493.267 2.64173 -1.67126 0
M  V30 5377 H 492.487 1.25768 -3.73599 0
M  V30 5378 H 493.775 2.05945 -4.65257 0
M  V30 5379 H 493.173 4.78668 -3.01485 0
M  V30 5380 H 491.73 5.30079 -3.79288 0
M  V30 5381 N 495.163 1.55791 0.238111 0
M  V30 5382 C 496.073 1.94196 1.31625 0
M  V30 5383 C 497.089 0.843545 1.52185 0
M  V30 5384 O 498.265 1.1457 1.65637 0
M  V30 5385 C 495.33 2.2365 2.64918 0
M  V30 5386 C 494.391 3.46971 2.52804 0
M  V30 5387 C 493.624 3.7501 3.79741 0
M  V30 5388 O 493.847 3.04982 4.82019 0
M  V30 5389 O 492.781 4.68525 3.77846 0
M  V30 5390 H 496.607 2.86044 1.02043 0
M  V30 5391 H 494.192 1.42786 0.439603 0
M  V30 5392 H 496.074 2.43863 3.4367 0
M  V30 5393 H 494.749 1.34979 2.94215 0
M  V30 5394 H 493.656 3.32055 1.72309 0
M  V30 5395 H 494.989 4.35971 2.28451 0
M  V30 5396 N 496.642 -0.504142 1.49319 0
M  V30 5397 C 497.605 -1.5883 1.65244 0
M  V30 5398 C 498.605 -1.52009 0.524386 0
M  V30 5399 O 499.795 -1.55218 0.79077 0
M  V30 5400 C 496.927 -2.98481 1.64687 0
M  V30 5401 H 498.12 -1.4604 2.61939 0
M  V30 5402 H 495.673 -0.728144 1.38303 0
M  V30 5403 H 496.408 -3.16751 0.695644 0
M  V30 5404 H 496.193 -3.0484 2.46607 0
M  V30 5405 H 497.683 -3.77256 1.79075 0
M  V30 5406 N 498.12 -1.38341 -0.754957 0
M  V30 5407 C 499.052 -1.31347 -1.87831 0
M  V30 5408 C 500.065 -0.225955 -1.61224 0
M  V30 5409 O 501.254 -0.48341 -1.7183 0
M  V30 5410 C 498.354 -1.01201 -3.23437 0
M  V30 5411 C 497.527 -2.20834 -3.77559 0
M  V30 5412 C 496.586 -1.87454 -4.91678 0
M  V30 5413 O 495.612 -2.59934 -5.06382 0
M  V30 5414 N 496.814 -0.828682 -5.74555 0
M  V30 5415 H 499.579 -2.28147 -1.94342 0
M  V30 5416 H 497.14 -1.32184 -0.934828 0
M  V30 5417 H 499.132 -0.769249 -3.97322 0
M  V30 5418 H 497.702 -0.132011 -3.12321 0
M  V30 5419 H 496.922 -2.61184 -2.95256 0
M  V30 5420 H 498.21 -3.00678 -4.10451 0
M  V30 5421 H 497.608 -0.227591 -5.65242 0
M  V30 5422 H 496.165 -0.645802 -6.48593 0
M  V30 5423 N 499.598 0.982988 -1.23187 0
M  V30 5424 C 500.545 2.07491 -1.01075 0
M  V30 5425 C 501.515 1.65949 0.070905 0
M  V30 5426 O 502.7 1.90629 -0.0806822 0
M  V30 5427 C 499.84 3.39751 -0.605261 0
M  V30 5428 C 498.953 3.94578 -1.75876 0
M  V30 5429 C 498.088 5.15039 -1.3003 0
M  V30 5430 C 497.127 5.62027 -2.42472 0
M  V30 5431 N 496.264 6.73719 -1.97602 0
M  V30 5432 H 501.104 2.25739 -1.9454 0
M  V30 5433 H 498.641 1.10659 -0.969179 0
M  V30 5434 H 500.599 4.15719 -0.351279 0
M  V30 5435 H 499.229 3.21473 0.292382 0
M  V30 5436 H 498.281 3.1539 -2.12681 0
M  V30 5437 H 499.593 4.25422 -2.60418 0
M  V30 5438 H 498.747 5.9833 -1.00429 0
M  V30 5439 H 497.486 4.85843 -0.425216 0
M  V30 5440 H 496.491 4.77318 -2.7285 0
M  V30 5441 H 497.716 5.93244 -3.30512 0
M  V30 5442 H 495.662 6.46287 -1.1247 0
M  V30 5443 H 495.579 7.03934 -2.75705 0
M  V30 5444 H 496.847 7.6049 -1.71098 0
M  V30 5445 N 501.076 1.04316 1.18135 0
M  V30 5446 C 502.023 0.636398 2.21853 0
M  V30 5447 C 502.993 -0.357039 1.62217 0
M  V30 5448 O 504.178 -0.250453 1.89149 0
M  V30 5449 C 501.318 0.00812779 3.45099 0
M  V30 5450 C 500.431 1.04933 4.19062 0
M  V30 5451 C 499.566 0.389313 5.29771 0
M  V30 5452 C 498.605 1.41544 5.9551 0
M  V30 5453 N 497.742 0.78021 6.97751 0
M  V30 5454 H 502.582 1.52536 2.56002 0
M  V30 5455 H 500.119 0.76304 1.25762 0
M  V30 5456 H 502.077 -0.373497 4.15525 0
M  V30 5457 H 500.707 -0.844336 3.11562 0
M  V30 5458 H 499.759 1.54888 3.47439 0
M  V30 5459 H 501.071 1.82862 4.64072 0
M  V30 5460 H 500.225 -0.0463805 6.06682 0
M  V30 5461 H 498.964 -0.422038 4.8587 0
M  V30 5462 H 497.969 1.86124 5.17337 0
M  V30 5463 H 499.194 2.22854 6.41493 0
M  V30 5464 H 497.14 -0.0107899 6.55999 0
M  V30 5465 H 497.057 1.49716 7.41027 0
M  V30 5466 H 498.325 0.368996 7.78626 0
M  V30 5467 N 502.554 -1.34406 0.822964 0
M  V30 5468 C 503.803 -1.97542 0.407458 0
M  V30 5469 C 504.116 -1.65973 -1.035 0
M  V30 5470 O 505.322 -2.22598 -1.55442 0
M  V30 5471 C 503.778 -3.53463 0.677623 0
M  V30 5472 C 503.386 -3.93925 2.1337 0
M  V30 5473 C 505.13 -4.23229 0.328284 0
M  V30 5474 C 503.037 -5.42759 2.34876 0
M  V30 5475 H 501.967 -0.739207 0.148623 0
M  V30 5476 H 504.618 -1.53248 1.00932 0
M  V30 5477 H 503 -3.96 0.00558965 0
M  V30 5478 H 504.174 -3.62494 2.8449 0
M  V30 5479 H 502.489 -3.37097 2.44448 0
M  V30 5480 H 505.086 -5.32659 0.466794 0
M  V30 5481 H 505.429 -4.09899 -0.727224 0
M  V30 5482 H 505.962 -3.86169 0.954896 0
M  V30 5483 H 502.701 -5.61075 3.38932 0
M  V30 5484 H 502.221 -5.75704 1.68299 0
M  V30 5485 H 503.9 -6.0944 2.17236 0
M  V30 5486 N 504.032 -0.577932 -1.46621 0
M  V30 5487 C 505.278 -0.0700937 -2.03279 0
M  V30 5488 C 505.633 1.27376 -1.44198 0
M  V30 5489 O 504.926 1.82097 -0.595911 0
M  V30 5490 C 505.12 0.0590832 -3.57351 0
M  V30 5491 C 504.949 -1.2707 -4.31374 0
M  V30 5492 C 503.719 -1.84357 -4.70469 0
M  V30 5493 C 505.917 -2.19278 -4.65211 0
M  V30 5494 N 503.899 -3.11124 -5.29221 0
M  V30 5495 C 505.27 -3.30631 -5.24484 0
M  V30 5496 C 507.325 -2.19018 -4.47142 0
M  V30 5497 C 506.028 -4.41849 -5.67593 0
M  V30 5498 C 508.054 -3.29262 -4.91264 0
M  V30 5499 C 507.416 -4.39335 -5.50604 0
M  V30 5500 H 503.515 -0.0683127 -0.779011 0
M  V30 5501 H 506.099 -0.76978 -1.78836 0
M  V30 5502 H 504.27 0.727929 -3.81518 0
M  V30 5503 H 506.002 0.57087 -4.00653 0
M  V30 5504 H 502.757 -1.37906 -4.53077 0
M  V30 5505 H 503.181 -3.75794 -5.63123 0
M  V30 5506 H 507.823 -1.35191 -4.00604 0
M  V30 5507 H 505.541 -5.26421 -6.13112 0
M  V30 5508 H 509.127 -3.30172 -4.79038 0
M  V30 5509 H 508.007 -5.23233 -5.84121 0
M  V30 5510 N 505.51 1.54411 -0.315457 0
M  V30 5511 C 506.443 2.20265 0.596522 0
M  V30 5512 C 507.421 1.17693 1.12192 0
M  V30 5513 O 508.605 1.46397 1.18744 0
M  V30 5514 C 505.732 2.85794 1.81767 0
M  V30 5515 C 504.778 4.02017 1.42424 0
M  V30 5516 S 505.611 5.33452 0.467836 0
M  V30 5517 C 506.767 6.02471 1.69645 0
M  V30 5518 H 507 2.97277 0.0370896 0
M  V30 5519 H 504.533 1.54079 -0.0995562 0
M  V30 5520 H 506.491 3.24172 2.51839 0
M  V30 5521 H 505.152 2.08601 2.34828 0
M  V30 5522 H 504.345 4.46701 2.33396 0
M  V30 5523 H 503.947 3.65271 0.803311 0
M  V30 5524 H 506.239 6.24157 2.63504 0
M  V30 5525 H 507.182 6.96215 1.29192 0
M  V30 5526 H 507.59 5.32284 1.87974 0
M  V30 5527 N 506.988 0.0434614 1.5754 0
M  V30 5528 C 508.235 -0.632035 1.92384 0
M  V30 5529 C 508.563 -1.71304 0.921157 0
M  V30 5530 O 507.818 -1.95583 -0.067744 0
M  V30 5531 C 508.117 -1.2738 3.3393 0
M  V30 5532 C 507.783 -0.321757 4.49751 0
M  V30 5533 C 506.445 -0.0597611 4.81163 0
M  V30 5534 C 508.797 0.331158 5.20147 0
M  V30 5535 C 506.125 0.862715 5.80322 0
M  V30 5536 C 508.477 1.24178 6.20292 0
M  V30 5537 C 507.141 1.51252 6.50138 0
M  V30 5538 H 506.411 -0.231278 0.703983 0
M  V30 5539 H 509.058 0.108294 1.91194 0
M  V30 5540 H 507.363 -2.08921 3.3145 0
M  V30 5541 H 509.06 -1.80326 3.58167 0
M  V30 5542 H 505.65 -0.53614 4.25233 0
M  V30 5543 H 509.834 0.141826 4.96097 0
M  V30 5544 H 505.09 1.08003 6.01785 0
M  V30 5545 H 509.264 1.75381 6.73954 0
M  V30 5546 H 506.891 2.22897 7.26788 0
M  V30 5547 N 508.466 -1.55915 -0.229846 0
M  V30 5548 C 509.743 -1.6932 -0.979295 0
M  V30 5549 C 510.123 -0.588321 -2.02736 0
M  V30 5550 O 509.471 0.40586 -2.24867 0
M  V30 5551 C 509.681 -3.10305 -1.59724 0
M  V30 5552 C 511.029 -3.6945 -2.09264 0
M  V30 5553 O 512.053 -3.13214 -1.69633 0
M  V30 5554 O 510.912 -4.68072 -2.82082 0
M  V30 5555 H 508.006 -0.689314 -0.456919 0
M  V30 5556 H 510.552 -1.68238 -0.222283 0
M  V30 5557 H 509.324 -3.82177 -0.840039 0
M  V30 5558 H 508.947 -3.1547 -2.42001 0
M  V30 5559 N 509.944 0.496216 -1.49584 0
M  V30 5560 C 510.891 1.59722 -1.66606 0
M  V30 5561 C 511.861 1.58158 -0.507477 0
M  V30 5562 O 513.046 1.76072 -0.735076 0
M  V30 5563 C 510.186 2.97844 -1.74308 0
M  V30 5564 C 509.299 3.09388 -3.01502 0
M  V30 5565 C 508.434 4.38271 -3.00153 0
M  V30 5566 C 507.473 4.43466 -4.21906 0
M  V30 5567 N 506.61 5.63784 -4.1844 0
M  V30 5568 H 511.45 1.44515 -2.60613 0
M  V30 5569 H 508.987 0.703048 -1.29212 0
M  V30 5570 H 510.945 3.77907 -1.76754 0
M  V30 5571 H 509.575 3.11743 -0.837619 0
M  V30 5572 H 508.627 2.22357 -3.08645 0
M  V30 5573 H 509.939 3.09085 -3.91494 0
M  V30 5574 H 509.093 5.2666 -3.01188 0
M  V30 5575 H 507.832 4.41146 -2.07947 0
M  V30 5576 H 506.837 3.53478 -4.21109 0
M  V30 5577 H 508.062 4.42303 -5.1531 0
M  V30 5578 H 506.008 5.67491 -3.29074 0
M  V30 5579 H 505.925 5.65118 -5.02173 0
M  V30 5580 H 507.193 6.54367 -4.23585 0
M  V30 5581 N 511.423 1.38739 0.74761 0
M  V30 5582 C 512.653 1.3832 1.53464 0
M  V30 5583 C 513.061 -0.0273464 1.8918 0
M  V30 5584 O 512.404 -1.00588 1.53713 0
M  V30 5585 C 512.466 2.18007 2.85855 0
M  V30 5586 C 512.13 3.66762 2.72644 0
M  V30 5587 C 513.127 4.60124 2.42037 0
M  V30 5588 C 510.812 4.10193 2.89909 0
M  V30 5589 C 512.806 5.94897 2.28859 0
M  V30 5590 C 510.493 5.45045 2.7635 0
M  V30 5591 C 511.491 6.37211 2.45869 0
M  V30 5592 O 511.179 7.69581 2.3238 0
M  V30 5593 H 510.911 0.474718 0.481268 0
M  V30 5594 H 513.465 1.83012 0.932518 0
M  V30 5595 H 511.695 1.68043 3.48279 0
M  V30 5596 H 513.384 2.09921 3.47402 0
M  V30 5597 H 514.15 4.27874 2.28361 0
M  V30 5598 H 510.029 3.38797 3.1263 0
M  V30 5599 H 513.573 6.66802 2.04989 0
M  V30 5600 H 509.47 5.76889 2.89601 0
M  V30 5601 H 510.238 7.80169 2.47546 0
M  V30 5602 N 512.901 -0.976442 1.23707 0
M  V30 5603 C 514.149 -1.71487 1.06942 0
M  V30 5604 C 514.47 -1.9098 -0.393897 0
M  V30 5605 O 513.74 -1.48128 -1.28198 0
M  V30 5606 H 512.32 -0.635425 0.392739 0
M  V30 5607 H 514.982 -1.17515 1.55487 0
M  V30 5608 H 514.078 -2.70286 1.56051 0
M  V30 5609 N 514.379 -1.04941 -1.1758 0
M  V30 5610 C 515.309 -0.669172 -2.23706 0
M  V30 5611 C 516.29 0.331835 -1.66832 0
M  V30 5612 O 517.475 0.209988 -1.93061 0
M  V30 5613 C 514.605 -0.0404889 -3.47276 0
M  V30 5614 C 513.559 -0.965983 -4.16957 0
M  V30 5615 C 512.885 -0.201312 -5.34321 0
M  V30 5616 C 514.185 -2.28902 -4.69469 0
M  V30 5617 H 515.879 -1.55639 -2.55767 0
M  V30 5618 H 513.425 -0.749793 -1.22939 0
M  V30 5619 H 515.378 0.237298 -4.20731 0
M  V30 5620 H 514.102 0.881658 -3.14475 0
M  V30 5621 H 512.761 -1.22829 -3.45411 0
M  V30 5622 H 512.409 0.723519 -4.97769 0
M  V30 5623 H 512.109 -0.817968 -5.81879 0
M  V30 5624 H 513.633 0.0692499 -6.10561 0
M  V30 5625 H 515.047 -2.07132 -5.34574 0
M  V30 5626 H 513.444 -2.85942 -5.27596 0
M  V30 5627 H 514.514 -2.92937 -3.86414 0
M  V30 5628 N 515.857 1.33968 -0.830081 0
M  V30 5629 C 516.787 2.31911 -0.271911 0
M  V30 5630 C 517.768 1.58571 0.61556 0
M  V30 5631 O 518.953 1.86514 0.540946 0
M  V30 5632 C 516.083 3.42737 0.561146 0
M  V30 5633 C 515.037 4.27383 -0.229789 0
M  V30 5634 C 514.363 5.29742 0.726463 0
M  V30 5635 C 515.663 5.02 -1.44197 0
M  V30 5636 H 517.357 2.78844 -1.09025 0
M  V30 5637 H 514.903 1.34061 -0.52571 0
M  V30 5638 H 516.856 4.10276 0.961867 0
M  V30 5639 H 515.58 2.94471 1.41261 0
M  V30 5640 H 514.239 3.61456 -0.611964 0
M  V30 5641 H 513.887 4.77736 1.57408 0
M  V30 5642 H 513.587 5.87255 0.20142 0
M  V30 5643 H 515.111 6.00149 1.12489 0
M  V30 5644 H 516.525 5.62355 -1.11488 0
M  V30 5645 H 514.922 5.69122 -1.90317 0
M  V30 5646 H 515.992 4.31281 -2.2164 0
M  V30 5647 N 517.335 0.585699 1.46312 0
M  V30 5648 C 518.581 0.0725284 2.0267 0
M  V30 5649 C 518.914 -1.28523 1.45586 0
M  V30 5650 O 518.189 -1.84283 0.622101 0
M  V30 5651 C 518.472 0.0099788 3.60099 0
M  V30 5652 C 518.325 1.39685 4.27561 0
M  V30 5653 C 519.644 -0.689117 4.34671 0
M  V30 5654 H 516.763 0.0278307 0.736474 0
M  V30 5655 H 519.405 0.753472 1.74421 0
M  V30 5656 H 517.555 -0.56992 3.84297 0
M  V30 5657 H 519.227 2.02215 4.14617 0
M  V30 5658 H 517.47 1.96374 3.86807 0
M  V30 5659 H 518.141 1.30553 5.36339 0
M  V30 5660 H 520.617 -0.196446 4.15636 0
M  V30 5661 H 519.493 -0.701921 5.44393 0
M  V30 5662 H 519.754 -1.75101 4.05946 0
M  V30 5663 N 518.813 -1.54241 0.323641 0
M  V30 5664 C 519.76 -2.24339 -0.542277 0
M  V30 5665 C 520.73 -1.23421 -1.11159 0
M  V30 5666 O 521.915 -1.52104 -1.15192 0
M  V30 5667 C 519.055 -3.00479 -1.69725 0
M  V30 5668 C 518.168 -4.16214 -1.15716 0
M  V30 5669 C 517.303 -4.79884 -2.27783 0
M  V30 5670 C 516.342 -5.87722 -1.71023 0
M  V30 5671 N 515.479 -6.45254 -2.76752 0
M  V30 5672 H 520.319 -2.97935 0.0620613 0
M  V30 5673 H 517.856 -1.47039 0.0423993 0
M  V30 5674 H 519.814 -3.42869 -2.3769 0
M  V30 5675 H 518.444 -2.29217 -2.27288 0
M  V30 5676 H 517.496 -3.78605 -0.369063 0
M  V30 5677 H 518.808 -4.93838 -0.701832 0
M  V30 5678 H 517.962 -5.25243 -3.03651 0
M  V30 5679 H 516.701 -4.01641 -2.76652 0
M  V30 5680 H 515.706 -5.41765 -0.936518 0
M  V30 5681 H 516.931 -6.67863 -1.2303 0
M  V30 5682 H 514.877 -5.69884 -3.24912 0
M  V30 5683 H 514.794 -7.18292 -2.35782 0
M  V30 5684 H 516.062 -6.95269 -3.5245 0
M  V30 5685 N 520.291 -0.0518155 -1.57515 0
M  V30 5686 C 521.539 0.620595 -1.92336 0
M  V30 5687 C 521.86 1.71345 -0.930907 0
M  V30 5688 O 521.13 1.95885 0.0241341 0
M  V30 5689 H 519.71 0.232226 -0.709986 0
M  V30 5690 H 522.372 -0.104969 -1.94617 0
M  V30 5691 H 521.468 1.05879 -2.93592 0
M  V30 5692 N 521.769 1.56035 0.221574 0
M  V30 5693 C 523.185 1.49026 0.571271 0
M  V30 5694 C 523.385 0.746912 1.87146 0
M  V30 5695 O 522.441 0.286566 2.50869 0
M  V30 5696 C 523.754 2.93579 0.650522 0
M  V30 5697 C 525.302 3.04099 0.741151 0
M  V30 5698 C 525.777 4.5001 0.851747 0
M  V30 5699 N 527.268 4.54053 0.915968 0
M  V30 5700 C 528.003 5.64232 1.02125 0
M  V30 5701 N 527.499 6.84164 1.09049 0
M  V30 5702 N 529.292 5.52084 1.05639 0
M  V30 5703 H 521.443 2.02791 -0.63162 0
M  V30 5704 H 523.706 0.921736 -0.221602 0
M  V30 5705 H 523.412 3.50912 -0.235253 0
M  V30 5706 H 523.286 3.45476 1.51413 0
M  V30 5707 H 525.673 2.4683 1.61737 0
M  V30 5708 H 525.754 2.55371 -0.148128 0
M  V30 5709 H 525.398 5.07896 -0.0200117 0
M  V30 5710 H 525.328 4.96444 1.75644 0
M  V30 5711 H 527.819 3.67683 0.872782 0
M  V30 5712 H 528.132 7.63883 1.1706 0
M  V30 5713 H 526.477 6.86875 1.05962 0
M  V30 5714 H 529.668 4.57317 0.998953 0
M  V30 5715 H 529.841 6.37983 1.13498 0
M  V30 5716 N 523.247 -0.488276 1.49845 0
M  V30 5717 C 524.194 -1.58836 1.67451 0
M  V30 5718 C 525.164 -1.57886 0.515857 0
M  V30 5719 O 526.349 -1.75679 0.744403 0
M  V30 5720 C 523.489 -2.96915 1.75885 0
M  V30 5721 C 522.602 -3.07784 3.03138 0
M  V30 5722 C 521.737 -4.36673 3.02473 0
M  V30 5723 C 520.776 -4.41222 4.24252 0
M  V30 5724 N 519.913 -5.61557 4.21424 0
M  V30 5725 H 524.753 -1.43131 2.61376 0
M  V30 5726 H 522.29 -0.696186 1.29583 0
M  V30 5727 H 524.248 -3.76965 1.78755 0
M  V30 5728 H 522.878 -3.11295 0.85414 0
M  V30 5729 H 521.93 -2.20717 3.09819 0
M  V30 5730 H 523.242 -3.07005 3.93128 0
M  V30 5731 H 522.396 -5.25055 3.03977 0
M  V30 5732 H 521.135 -4.40037 2.10283 0
M  V30 5733 H 520.14 -3.5124 4.22978 0
M  V30 5734 H 521.365 -4.39564 5.17649 0
M  V30 5735 H 519.311 -5.65738 3.32078 0
M  V30 5736 H 519.228 -5.62447 5.05163 0
M  V30 5737 H 520.496 -6.52111 4.2705 0
M  V30 5738 N 524.725 -1.39134 -0.740242 0
M  V30 5739 C 525.688 -1.37217 -1.83587 0
M  V30 5740 C 526.688 -0.270221 -1.58513 0
M  V30 5741 O 527.878 -0.527843 -1.6601 0
M  V30 5742 C 525.01 -1.13959 -3.21288 0
M  V30 5743 H 526.203 -2.34705 -1.86691 0
M  V30 5744 H 523.756 -1.24622 -0.94335 0
M  V30 5745 H 524.491 -0.17131 -3.23847 0
M  V30 5746 H 524.276 -1.93754 -3.40884 0
M  V30 5747 H 525.766 -1.15346 -4.01354 0
M  V30 5748 N 526.204 0.969867 -1.24223 0
M  V30 5749 C 527.151 2.06407 -1.0327 0
M  V30 5750 C 528.121 1.66014 0.0533 0
M  V30 5751 O 529.306 1.90533 -0.100896 0
M  V30 5752 C 526.446 3.3909 -0.641262 0
M  V30 5753 C 525.559 3.9269 -1.80051 0
M  V30 5754 C 524.694 5.13631 -1.35486 0
M  V30 5755 C 523.733 5.59423 -2.48419 0
M  V30 5756 N 522.87 6.71586 -2.04737 0
M  V30 5757 H 527.71 2.23663 -1.96923 0
M  V30 5758 H 525.247 1.09624 -0.980862 0
M  V30 5759 H 527.205 4.15323 -0.395351 0
M  V30 5760 H 525.835 3.21765 0.258269 0
M  V30 5761 H 524.887 3.13116 -2.16014 0
M  V30 5762 H 526.199 4.22636 -2.64916 0
M  V30 5763 H 525.353 5.97231 -1.0677 0
M  V30 5764 H 524.092 4.85364 -0.476722 0
M  V30 5765 H 523.097 4.74398 -2.77897 0
M  V30 5766 H 524.322 5.89705 -3.36786 0
M  V30 5767 H 522.268 6.45058 -1.19318 0
M  V30 5768 H 522.185 7.0097 -2.83156 0
M  V30 5769 H 523.453 7.58633 -1.79154 0
M  V30 5770 N 527.682 1.05563 1.17022 0
M  V30 5771 C 528.931 0.763036 1.8671 0
M  V30 5772 C 529.244 -0.712857 1.82147 0
M  V30 5773 O 530.45 -1.11955 2.47343 0
M  V30 5774 C 528.906 1.31474 3.35026 0
M  V30 5775 C 528.514 2.82034 3.48081 0
M  V30 5776 C 530.258 1.09935 4.10018 0
M  V30 5777 C 528.165 3.30486 4.90442 0
M  V30 5778 H 527.095 0.281747 0.699382 0
M  V30 5779 H 529.746 1.2734 1.32124 0
M  V30 5780 H 528.128 0.732171 3.89173 0
M  V30 5781 H 529.302 3.46178 3.04133 0
M  V30 5782 H 527.617 3.02156 2.86515 0
M  V30 5783 H 530.214 1.43632 5.15048 0
M  V30 5784 H 530.557 0.0373072 4.16283 0
M  V30 5785 H 531.09 1.64732 3.62089 0
M  V30 5786 H 527.829 4.36137 4.89352 0
M  V30 5787 H 527.349 2.71086 5.35044 0
M  V30 5788 H 529.028 3.25382 5.59227 0
M  V30 5789 N 529.16 -1.33526 0.837174 0
M  V30 5790 C 530.437 -1.92369 0.354065 0
M  V30 5791 C 530.817 -1.76348 -1.16038 0
M  V30 5792 O 530.165 -1.15083 -1.97403 0
M  V30 5793 C 530.375 -3.39728 0.799101 0
M  V30 5794 C 531.723 -4.16877 0.806139 0
M  V30 5795 O 532.747 -3.48373 0.742597 0
M  V30 5796 O 531.606 -5.39166 0.892345 0
M  V30 5797 H 528.7 -0.820952 0.0998378 0
M  V30 5798 H 531.246 -1.42409 0.922913 0
M  V30 5799 H 530.018 -3.45254 1.84162 0
M  V30 5800 H 529.641 -3.97062 0.206731 0
M  V30 5801 N 530.638 -0.59345 -1.46 0
M  V30 5802 C 531.863 -0.0872365 -2.07216 0
M  V30 5803 C 532.288 1.2131 -1.43755 0
M  V30 5804 O 531.646 1.73528 -0.525152 0
M  V30 5805 C 531.694 0.0538197 -3.6056 0
M  V30 5806 O 530.798 1.10765 -3.97247 0
M  V30 5807 H 530.139 -0.0676598 -0.660544 0
M  V30 5808 H 532.669 -0.819445 -1.87473 0
M  V30 5809 H 532.679 0.256567 -4.07193 0
M  V30 5810 H 531.354 -0.895739 -4.0614 0
M  V30 5811 H 529.931 0.882501 -3.62307 0
M  V30 5812 N 532.116 1.54067 -0.331816 0
M  V30 5813 C 533.346 2.04833 0.269605 0
M  V30 5814 C 533.754 1.20714 1.45687 0
M  V30 5815 O 533.097 0.232539 1.82222 0
M  V30 5816 C 533.159 3.51386 0.759499 0
M  V30 5817 C 532.823 4.55971 -0.306557 0
M  V30 5818 C 533.82 5.07126 -1.14538 0
M  V30 5819 C 531.505 5.00216 -0.457116 0
M  V30 5820 C 533.499 6.01096 -2.12042 0
M  V30 5821 C 531.186 5.93999 -1.43556 0
M  V30 5822 C 532.184 6.44326 -2.26568 0
M  V30 5823 O 531.872 7.36267 -3.22749 0
M  V30 5824 H 531.604 0.673509 0.0579763 0
M  V30 5825 H 534.158 1.99748 -0.478521 0
M  V30 5826 H 532.388 3.53896 1.55867 0
M  V30 5827 H 534.077 3.85184 1.28017 0
M  V30 5828 H 534.843 4.73716 -1.04009 0
M  V30 5829 H 530.722 4.60652 0.179142 0
M  V30 5830 H 534.266 6.40302 -2.76873 0
M  V30 5831 H 530.163 6.26825 -1.54146 0
M  V30 5832 H 530.931 7.54165 -3.18083 0
M  V30 5833 N 533.594 0.0601682 1.57485 0
M  V30 5834 C 534.526 -0.94047 2.09016 0
M  V30 5835 C 535.539 -1.26897 1.01985 0
M  V30 5836 O 536.728 -1.22819 1.29529 0
M  V30 5837 C 533.828 -2.25955 2.52582 0
M  V30 5838 C 533.001 -2.11163 3.83052 0
M  V30 5839 C 532.06 -3.26273 4.12835 0
M  V30 5840 O 531.086 -3.01779 4.82616 0
M  V30 5841 N 532.288 -4.51022 3.65458 0
M  V30 5842 H 535.053 -0.500578 2.9549 0
M  V30 5843 H 532.614 -0.125852 1.6141 0
M  V30 5844 H 534.606 -3.01846 2.69575 0
M  V30 5845 H 533.176 -2.61481 1.71308 0
M  V30 5846 H 532.396 -1.19808 3.75552 0
M  V30 5847 H 533.684 -1.98517 4.68475 0
M  V30 5848 H 533.082 -4.73811 3.09062 0
M  V30 5849 H 531.639 -5.23978 3.87673 0
M  V30 5850 N 535.072 -1.5615 -0.213296 0
M  V30 5851 C 535.982 -1.96265 -1.28519 0
M  V30 5852 C 536.998 -0.86765 -1.50824 0
M  V30 5853 O 538.174 -1.17191 -1.63793 0
M  V30 5854 C 535.239 -2.27836 -2.61327 0
M  V30 5855 C 534.3 -3.50949 -2.47252 0
M  V30 5856 C 533.533 -3.81004 -3.73727 0
M  V30 5857 O 533.756 -3.12612 -4.77106 0
M  V30 5858 O 532.69 -4.74477 -3.70344 0
M  V30 5859 H 536.516 -2.87631 -0.974795 0
M  V30 5860 H 534.101 -1.43467 -0.416832 0
M  V30 5861 H 535.983 -2.49299 -3.39747 0
M  V30 5862 H 534.658 -1.39643 -2.9203 0
M  V30 5863 H 533.565 -3.34754 -1.67004 0
M  V30 5864 H 534.898 -4.39551 -2.21486 0
M  V30 5865 N 536.55 0.480323 -1.50102 0
M  V30 5866 C 537.961 1.06142 -1.53593 0
M  V30 5867 C 538.312 1.93335 -0.334055 0
M  V30 5868 O 537.437 2.09188 0.55403 0
M  V30 5869 C 538.032 1.9317 -2.78336 0
M  V30 5870 C 536.591 2.46405 -2.84538 0
M  V30 5871 C 535.738 1.24521 -2.4777 0
M  V30 5872 H 538.689 0.26333 -1.565 0
M  V30 5873 H 538.71 2.78123 -2.59669 0
M  V30 5874 H 538.222 1.29683 -3.65792 0
M  V30 5875 H 536.323 3.13472 -2.01411 0
M  V30 5876 H 536.436 2.82143 -3.87211 0
M  V30 5877 H 534.8 1.57706 -2.00003 0
M  V30 5878 H 535.583 0.627102 -3.37524 0
M  V30 5879 N 538.028 1.39524 0.732853 0
M  V30 5880 C 539.275 1.36865 1.49246 0
M  V30 5881 C 539.603 -0.0347118 1.94469 0
M  V30 5882 O 538.858 -1.01596 1.67262 0
M  V30 5883 C 539.157 2.28916 2.74468 0
M  V30 5884 C 538.823 3.76506 2.481 0
M  V30 5885 C 537.485 4.16721 2.40619 0
M  V30 5886 C 539.837 4.69846 2.25598 0
M  V30 5887 C 537.165 5.48334 2.08679 0
M  V30 5888 C 539.517 6.01739 1.95174 0
M  V30 5889 C 538.181 6.41015 1.86163 0
M  V30 5890 H 537.451 0.500824 0.546129 0
M  V30 5891 H 540.098 1.72047 0.840958 0
M  V30 5892 H 538.403 1.86859 3.4437 0
M  V30 5893 H 540.1 2.2415 3.32502 0
M  V30 5894 H 536.69 3.44635 2.54803 0
M  V30 5895 H 540.874 4.39608 2.30344 0
M  V30 5896 H 536.13 5.77685 2.00226 0
M  V30 5897 H 540.304 6.73591 1.76771 0
M  V30 5898 H 537.931 7.42917 1.61179 0
M  V30 5899 N 539.506 -0.963266 1.24736 0
M  V30 5900 C 540.734 -1.74166 1.11686 0
M  V30 5901 C 541.149 -1.8589 -0.330187 0
M  V30 5902 O 540.506 -1.35042 -1.2276 0
M  V30 5903 C 540.557 -3.15989 1.75595 0
M  V30 5904 O 540.278 -3.04847 3.14642 0
M  V30 5905 C 541.779 -4.10145 1.68213 0
M  V30 5906 H 538.999 -0.546031 0.389989 0
M  V30 5907 H 541.543 -1.20907 1.64929 0
M  V30 5908 H 539.698 -3.66219 1.26343 0
M  V30 5909 H 540.112 -3.9425 3.4593 0
M  V30 5910 H 541.586 -5.07299 2.17604 0
M  V30 5911 H 542.063 -4.3445 0.644208 0
M  V30 5912 H 542.669 -3.65827 2.16912 0
M  V30 5913 N 540.985 -1.06182 -1.16461 0
M  V30 5914 C 541.935 -0.641619 -2.18786 0
M  V30 5915 C 542.919 0.327122 -1.5754 0
M  V30 5916 O 544.111 0.142746 -1.76423 0
M  V30 5917 C 541.24 -0.0283734 -3.43288 0
M  V30 5918 C 540.326 -1.02154 -4.11613 0
M  V30 5919 N 540.717 -2.19671 -4.55608 0
M  V30 5920 C 539.015 -0.852229 -4.37782 0
M  V30 5921 C 539.716 -2.82583 -5.0845 0
M  V30 5922 N 538.692 -2.10318 -5.01266 0
M  V30 5923 H 542.494 -1.53684 -2.50516 0
M  V30 5924 H 540.008 -0.933349 -1.329 0
M  V30 5925 H 542.005 0.29049 -4.15887 0
M  V30 5926 H 540.665 0.862118 -3.13046 0
M  V30 5927 H 541.676 -2.57453 -4.49375 0
M  V30 5928 H 538.353 -0.0136314 -4.17498 0
M  V30 5929 H 539.743 -3.82298 -5.52538 0
M  V30 5930 N 542.463 1.3308 -0.844243 0
M  V30 5931 C 543.688 2.02341 -0.455282 0
M  V30 5932 C 544.113 1.6308 0.93737 0
M  V30 5933 O 543.471 0.826118 1.61385 0
M  V30 5934 C 543.519 3.55743 -0.58988 0
M  V30 5935 O 542.623 4.1063 0.38166 0
M  V30 5936 H 541.964 0.637898 -0.184343 0
M  V30 5937 H 544.494 1.6986 -1.14056 0
M  V30 5938 H 544.504 4.05243 -0.473522 0
M  V30 5939 H 543.179 3.83662 -1.60549 0
M  V30 5940 H 541.756 3.72236 0.22241 0
M  V30 5941 N 543.941 0.601185 1.45683 0
M  V30 5942 C 544.904 -0.111398 2.28929 0
M  V30 5943 C 545.904 -0.801246 1.39416 0
M  V30 5944 O 547.094 -0.650383 1.61603 0
M  V30 5945 C 544.226 -1.16773 3.20276 0
M  V30 5946 H 545.419 0.620412 2.93413 0
M  V30 5947 H 542.972 0.359946 1.52099 0
M  V30 5948 H 543.707 -1.93051 2.60579 0
M  V30 5949 H 543.492 -0.677358 3.86205 0
M  V30 5950 H 544.982 -1.66698 3.82886 0
M  V30 5951 N 545.419 -1.53889 0.339982 0
M  V30 5952 C 546.83 -1.86139 -0.144671 0
M  V30 5953 C 547.181 -1.2613 -1.50285 0
M  V30 5954 O 546.306 -0.573515 -2.08662 0
M  V30 5955 C 546.901 -3.37728 -0.269285 0
M  V30 5956 C 545.46 -3.69868 -0.698168 0
M  V30 5957 C 544.607 -2.76777 0.170249 0
M  V30 5958 H 547.558 -1.48503 0.559704 0
M  V30 5959 H 547.579 -3.64331 -1.0974 0
M  V30 5960 H 547.091 -3.81375 0.719366 0
M  V30 5961 H 545.192 -3.31764 -1.69597 0
M  V30 5962 H 545.305 -4.76582 -0.490533 0
M  V30 5963 H 543.669 -2.52188 -0.356844 0
M  V30 5964 H 544.452 -3.23253 1.15597 0
M  V30 5965 N 546.897 -0.0685191 -1.57451 0
M  V30 5966 C 547.807 0.914677 -2.16034 0
M  V30 5967 C 548.823 1.32938 -1.12265 0
M  V30 5968 O 549.999 1.40275 -1.44516 0
M  V30 5969 C 547.064 2.16519 -2.70777 0
M  V30 5970 C 546.125 1.80721 -3.89408 0
M  V30 5971 C 545.358 2.9981 -4.41531 0
M  V30 5972 O 545.581 4.13727 -3.92666 0
M  V30 5973 O 544.515 2.79817 -5.32903 0
M  V30 5974 H 548.341 0.446364 -3.00402 0
M  V30 5975 H 545.926 0.154367 -1.486 0
M  V30 5976 H 547.808 2.89856 -3.05878 0
M  V30 5977 H 546.483 2.62454 -1.89471 0
M  V30 5978 H 545.39 1.04646 -3.59166 0
M  V30 5979 H 546.723 1.39571 -4.71997 0
M  V30 5980 N 548.375 1.56261 0.205012 0
M  V30 5981 C 549.6 1.84491 0.947512 0
M  V30 5982 C 550.025 0.650894 1.76479 0
M  V30 5983 O 549.383 -0.40035 1.76824 0
M  V30 5984 C 549.431 3.10863 1.82747 0
M  V30 5985 O 548.535 2.90719 2.925 0
M  V30 5986 H 547.876 0.607783 0.267386 0
M  V30 5987 H 550.406 2.03485 0.213323 0
M  V30 5988 H 550.416 3.41399 2.23407 0
M  V30 5989 H 549.091 3.97392 1.2269 0
M  V30 5990 H 547.668 2.71457 2.55667 0
M  V30 5991 N 549.853 -0.472356 1.50355 0
M  V30 5992 C 551.102 -1.2213 1.60522 0
M  V30 5993 C 551.415 -1.9312 0.310466 0
M  V30 5994 O 552.621 -2.69936 0.291029 0
M  V30 5995 C 551.077 -2.21909 2.83345 0
M  V30 5996 C 550.685 -1.56727 4.19691 0
M  V30 5997 C 552.429 -2.97453 3.02856 0
M  V30 5998 C 550.336 -2.54785 5.33703 0
M  V30 5999 H 549.266 -0.459543 0.597776 0
M  V30 6000 H 551.917 -0.491922 1.76783 0
M  V30 6001 H 550.299 -2.98133 2.60639 0
M  V30 6002 H 551.473 -0.863007 4.52646 0
M  V30 6003 H 549.788 -0.934685 4.05774 0
M  V30 6004 H 552.385 -3.70838 3.85205 0
M  V30 6005 H 552.728 -3.56764 2.14534 0
M  V30 6006 H 553.261 -2.28342 3.25737 0
M  V30 6007 H 550 -2.00214 6.24175 0
M  V30 6008 H 549.52 -3.23367 5.05167 0
M  V30 6009 H 551.199 -3.16639 5.64224 0
M  V30 6010 N 551.331 -1.39911 -0.725443 0
M  V30 6011 C 552.742 -1.33599 -1.30415 0
M  V30 6012 C 553.093 -0.00481792 -1.96199 0
M  V30 6013 O 552.218 0.897275 -1.96921 0
M  V30 6014 C 552.813 -2.41965 -2.37146 0
M  V30 6015 C 551.372 -2.39144 -2.90667 0
M  V30 6016 C 550.519 -2.23355 -1.64341 0
M  V30 6017 H 553.47 -1.4986 -0.522267 0
M  V30 6018 H 553.491 -2.09304 -3.17761 0
M  V30 6019 H 553.003 -3.38837 -1.89238 0
M  V30 6020 H 551.104 -1.4594 -3.4283 0
M  V30 6021 H 551.217 -3.34362 -3.43131 0
M  V30 6022 H 549.581 -1.70696 -1.89037 0
M  V30 6023 H 550.364 -3.2221 -1.18471 0
M  V30 6024 N 552.809 0.956637 -1.25245 0
M  V30 6025 C 554.086 1.67716 -1.00651 0
M  V30 6026 C 554.466 2.0585 0.467866 0
M  V30 6027 O 553.814 1.77029 1.44475 0
M  V30 6028 C 554.024 2.90093 -1.94028 0
M  V30 6029 C 555.372 3.6209 -2.21756 0
M  V30 6030 O 556.396 3.00171 -1.9177 0
M  V30 6031 O 555.255 4.7358 -2.72735 0
M  V30 6032 H 552.349 0.733731 -0.381533 0
M  V30 6033 H 554.895 1.00974 -1.3639 0
M  V30 6034 H 553.667 2.58689 -2.93591 0
M  V30 6035 H 553.29 3.64566 -1.58674 0
M  V30 6036 N 554.287 1.06798 1.15896 0
M  V30 6037 C 555.515 0.808694 1.90441 0
M  V30 6038 C 555.93 -0.637506 1.77711 0
M  V30 6039 O 555.287 -1.43684 1.12522 0
M  V30 6040 C 555.338 1.20068 3.40978 0
M  V30 6041 O 555.059 2.59013 3.53333 0
M  V30 6042 C 556.56 0.96987 4.3256 0
M  V30 6043 H 553.78 0.292809 0.603742 0
M  V30 6044 H 556.324 1.42296 1.46874 0
M  V30 6045 H 554.479 0.630842 3.82229 0
M  V30 6046 H 554.893 2.7485 4.46719 0
M  V30 6047 H 556.367 1.29371 5.36626 0
M  V30 6048 H 556.844 -0.0941209 4.39099 0
M  V30 6049 H 557.45 1.52433 3.97044 0
M  V30 6050 N 555.766 -1.3263 0.851289 0
M  V30 6051 C 557.013 -1.97368 0.453023 0
M  V30 6052 C 557.341 -1.67384 -0.990596 0
M  V30 6053 O 556.596 -0.952665 -1.70947 0
M  V30 6054 C 556.895 -3.51713 0.635015 0
M  V30 6055 C 556.561 -4.01676 2.04859 0
M  V30 6056 C 555.223 -4.15031 2.43522 0
M  V30 6057 C 557.575 -4.28206 2.97135 0
M  V30 6058 C 554.903 -4.52257 3.73739 0
M  V30 6059 C 557.255 -4.66889 4.26846 0
M  V30 6060 C 555.919 -4.7845 4.65448 0
M  V30 6061 H 555.189 -0.722219 0.165773 0
M  V30 6062 H 557.836 -1.58092 1.0807 0
M  V30 6063 H 556.141 -3.91726 -0.0759081 0
M  V30 6064 H 557.838 -3.99823 0.306964 0
M  V30 6065 H 554.428 -3.91764 1.73836 0
M  V30 6066 H 558.612 -4.174 2.68498 0
M  V30 6067 H 553.868 -4.59402 4.03435 0
M  V30 6068 H 558.042 -4.86372 4.98413 0
M  V30 6069 H 555.669 -5.07052 5.66395 0
M  V30 6070 N 557.244 -0.608902 -1.45362 0
M  V30 6071 C 558.154 0.110969 -2.34337 0
M  V30 6072 C 559.17 0.859007 -1.51318 0
M  V30 6073 O 560.346 0.816296 -1.84116 0
M  V30 6074 C 557.411 1.09494 -3.28956 0
M  V30 6075 C 556.472 0.348718 -4.27881 0
M  V30 6076 C 555.705 1.28582 -5.17979 0
M  V30 6077 O 555.928 2.52369 -5.11533 0
M  V30 6078 O 554.862 0.782172 -5.96796 0
M  V30 6079 H 558.688 -0.620258 -2.97299 0
M  V30 6080 H 556.273 -0.36916 -1.44767 0
M  V30 6081 H 558.155 1.66163 -3.87257 0
M  V30 6082 H 556.83 1.80717 -2.68557 0
M  V30 6083 H 555.737 -0.260465 -3.73192 0
M  V30 6084 H 557.07 -0.323049 -4.91139 0
M  V30 6085 N 558.722 1.53707 -0.348139 0
M  V30 6086 C 559.999 1.93247 0.302475 0
M  V30 6087 C 560.379 1.28012 1.67857 0
M  V30 6088 O 559.727 0.43274 2.24365 0
M  V30 6089 C 559.937 3.47031 0.370159 0
M  V30 6090 C 561.285 4.20066 0.61882 0
M  V30 6091 O 562.309 3.53319 0.452087 0
M  V30 6092 O 561.168 5.38318 0.94215 0
M  V30 6093 H 558.262 0.807736 0.177458 0
M  V30 6094 H 560.808 1.64927 -0.399651 0
M  V30 6095 H 559.58 3.86745 -0.59534 0
M  V30 6096 H 559.203 3.81532 1.11888 0
M  V30 6097 N 560.2 0.0768682 1.57412 0
M  V30 6098 C 561.163 -0.873949 2.11884 0
M  V30 6099 C 562.163 -1.22301 1.04398 0
M  V30 6100 O 563.353 -1.15545 1.30365 0
M  V30 6101 C 560.485 -2.17575 2.62438 0
M  V30 6102 H 561.678 -0.401278 2.97203 0
M  V30 6103 H 559.231 -0.171904 1.55352 0
M  V30 6104 H 559.966 -2.69368 1.80587 0
M  V30 6105 H 559.751 -1.93534 3.41009 0
M  V30 6106 H 561.241 -2.85631 3.04639 0
M  V30 6107 N 561.678 -1.56367 -0.196722 0
M  V30 6108 C 562.924 -1.80796 -0.918725 0
M  V30 6109 C 563.257 -0.650645 -1.82976 0
M  V30 6110 O 562.532 0.348889 -1.91345 0
M  V30 6111 C 562.815 -3.15472 -1.73636 0
M  V30 6112 C 562.668 -4.41693 -0.85015 0
M  V30 6113 C 563.987 -3.46824 -2.70927 0
M  V30 6114 H 561.106 -0.657702 -0.332561 0
M  V30 6115 H 563.748 -1.89086 -0.186186 0
M  V30 6116 H 561.898 -3.08536 -2.36088 0
M  V30 6117 H 563.57 -4.60673 -0.240459 0
M  V30 6118 H 561.813 -4.33517 -0.156785 0
M  V30 6119 H 562.484 -5.32419 -1.45719 0
M  V30 6120 H 564.96 -3.54049 -2.18607 0
M  V30 6121 H 563.836 -4.4218 -3.25219 0
M  V30 6122 H 564.097 -2.70236 -3.49893 0
M  V30 6123 N 563.156 0.464375 -1.50603 0
M  V30 6124 C 564.104 1.58224 -1.70493 0
M  V30 6125 C 565.098 1.59492 -0.570836 0
M  V30 6126 O 566.304 1.63561 -0.751517 0
M  V30 6127 H 562.679 0.525161 -0.538247 0
M  V30 6128 H 564.65 1.38613 -2.64252 0
M  V30 6129 C 563.399 2.96113 -1.82243 0
M  V30 6130 H 562.722 2.95858 -2.68901 0
M  V30 6131 H 564.162 3.73769 -2.00182 0
M  V30 6132 C 562.621 3.31946 -0.575628 0
M  V30 6133 O 563.151 4.00708 0.282152 0
M  V30 6134 N 561.357 2.87436 -0.427665 0
M  V30 6135 H 560.904 2.31652 -1.12674 0
M  V30 6136 H 560.862 3.11776 0.405379 0
M  V30 6137 N 564.634 1.40294 0.718013 0
M  V30 6138 C 565.883 1.37746 1.4734 0
M  V30 6139 C 566.196 -0.0180754 1.95592 0
M  V30 6140 O 567.402 -0.166166 2.70991 0
M  V30 6141 C 565.858 2.4208 2.66318 0
M  V30 6142 C 565.466 3.87432 2.24945 0
M  V30 6143 C 567.21 2.48635 3.44065 0
M  V30 6144 C 565.117 4.83368 3.40748 0
M  V30 6145 H 564.047 0.512165 0.553356 0
M  V30 6146 H 566.698 1.66019 0.781661 0
M  V30 6147 H 565.08 2.06903 3.3765 0
M  V30 6148 H 566.254 4.3174 1.6105 0
M  V30 6149 H 564.569 3.8433 1.60249 0
M  V30 6150 H 567.166 3.17499 4.30231 0
M  V30 6151 H 567.509 1.51611 3.87711 0
M  V30 6152 H 568.042 2.82791 2.79775 0
M  V30 6153 H 564.781 5.81716 3.02136 0
M  V30 6154 H 564.301 4.43726 4.03568 0
M  V30 6155 H 565.98 5.03074 4.06848 0
M  V30 6156 N 566.112 -0.949982 1.2575 0
M  V30 6157 C 567.042 -2.06483 1.09028 0
M  V30 6158 C 568.023 -1.701 -0.00201532 0
M  V30 6159 O 569.208 -1.93469 0.168383 0
M  V30 6160 C 566.338 -3.39899 0.71316 0
M  V30 6161 C 565.292 -3.90309 1.75621 0
M  V30 6162 C 564.618 -5.20274 1.23365 0
M  V30 6163 C 565.918 -4.16169 3.15596 0
M  V30 6164 H 567.612 -2.20731 2.02283 0
M  V30 6165 H 565.158 -1.06066 0.973964 0
M  V30 6166 H 567.111 -4.17346 0.58309 0
M  V30 6167 H 565.835 -3.25602 -0.255091 0
M  V30 6168 H 564.494 -3.15035 1.8748 0
M  V30 6169 H 564.142 -5.02351 0.255491 0
M  V30 6170 H 563.842 -5.54971 1.93082 0
M  V30 6171 H 565.366 -6.00314 1.11607 0
M  V30 6172 H 566.78 -4.84259 3.06864 0
M  V30 6173 H 565.177 -4.62131 3.82825 0
M  V30 6174 H 566.247 -3.22273 3.6231 0
M  V30 6175 N 567.59 -1.07411 -1.15328 0
M  V30 6176 C 568.537 -0.694995 -2.20087 0
M  V30 6177 C 569.507 0.313904 -1.63107 0
M  V30 6178 O 570.692 0.200216 -1.89747 0
M  V30 6179 C 567.832 -0.0996218 -3.44956 0
M  V30 6180 C 566.945 -1.16007 -4.16133 0
M  V30 6181 C 566.08 -0.529636 -5.28553 0
M  V30 6182 C 565.119 -1.57283 -5.91548 0
M  V30 6183 N 564.256 -0.964932 -6.95438 0
M  V30 6184 H 569.096 -1.5927 -2.51867 0
M  V30 6185 H 566.633 -0.796115 -1.23695 0
M  V30 6186 H 568.591 0.263197 -4.16369 0
M  V30 6187 H 567.221 0.761435 -3.13691 0
M  V30 6188 H 566.273 -1.64045 -3.4321 0
M  V30 6189 H 567.585 -1.95101 -4.59061 0
M  V30 6190 H 566.739 -0.114487 -6.06592 0
M  V30 6191 H 565.478 0.29307 -4.86819 0
M  V30 6192 H 564.483 -1.99775 -5.12221 0
M  V30 6193 H 565.708 -2.39783 -6.35359 0
M  V30 6194 H 563.654 -0.16314 -6.55797 0
M  V30 6195 H 563.571 -1.69311 -7.36797 0
M  V30 6196 H 564.839 -0.575305 -7.77374 0
M  V30 6197 N 569.068 1.32177 -0.85831 0
M  V30 6198 C 570.479 1.79381 -0.517621 0
M  V30 6199 C 570.83 1.70841 0.964769 0
M  V30 6200 O 569.955 1.26917 1.75274 0
M  V30 6201 C 570.55 3.25706 -0.932801 0
M  V30 6202 C 569.109 3.70851 -0.643953 0
M  V30 6203 C 568.256 2.53208 -1.13054 0
M  V30 6204 H 571.207 1.19424 -1.04516 0
M  V30 6205 H 571.228 3.79673 -0.250674 0
M  V30 6206 H 570.74 3.31889 -2.01174 0
M  V30 6207 H 568.841 3.70178 0.424112 0
M  V30 6208 H 568.954 4.63495 -1.21281 0
M  V30 6209 H 567.318 2.48676 -0.550679 0
M  V30 6210 H 568.101 2.62143 -2.21666 0
M  V30 6211 N 570.547 0.616602 1.45037 0
M  V30 6212 C 571.772 0.120192 2.07051 0
M  V30 6213 C 572.197 -1.19008 1.45666 0
M  V30 6214 O 571.555 -1.7267 0.552692 0
M  V30 6215 C 571.603 0.00354901 3.606 0
M  V30 6216 O 570.707 -1.04431 3.98958 0
M  V30 6217 H 570.048 0.0781599 0.659384 0
M  V30 6218 H 572.578 0.849167 1.86146 0
M  V30 6219 H 572.588 -0.191754 4.07549 0
M  V30 6220 H 571.263 0.960239 4.04663 0
M  V30 6221 H 569.84 -0.824749 3.63665 0
M  V30 6222 N 572.025 -1.5352 0.356285 0
M  V30 6223 C 573.253 -2.05534 -0.237328 0
M  V30 6224 C 573.668 -1.23043 -1.43199 0
M  V30 6225 O 573.025 -0.268821 -1.80509 0
M  V30 6226 C 573.076 -3.55791 -0.639933 0
M  V30 6227 O 572.797 -4.35154 0.507233 0
M  V30 6228 C 574.298 -4.24027 -1.29292 0
M  V30 6229 H 571.518 -0.669585 -0.0435572 0
M  V30 6230 H 574.062 -1.97988 0.511963 0
M  V30 6231 H 572.217 -3.63518 -1.33915 0
M  V30 6232 H 572.631 -5.24178 0.18375 0
M  V30 6233 H 574.105 -5.30509 -1.52527 0
M  V30 6234 H 574.582 -3.77166 -2.25039 0
M  V30 6235 H 575.188 -4.20527 -0.63539 0
M  V30 6236 N 573.503 -0.0852151 -1.57369 0
M  V30 6237 C 574.752 0.580443 -1.93168 0
M  V30 6238 C 575.065 1.6995 -0.968319 0
M  V30 6239 O 576.271 2.42564 -1.21963 0
M  V30 6240 C 574.727 1.08386 -3.43192 0
M  V30 6241 C 574.335 -0.00491388 -4.48 0
M  V30 6242 C 576.079 1.72281 -3.87968 0
M  V30 6243 C 573.986 0.513299 -5.89168 0
M  V30 6244 H 572.916 0.22059 -0.72101 0
M  V30 6245 H 575.567 -0.159621 -1.82804 0
M  V30 6246 H 573.949 1.8773 -3.48674 0
M  V30 6247 H 575.123 -0.780032 -4.5415 0
M  V30 6248 H 573.438 -0.548453 -4.12772 0
M  V30 6249 H 576.035 2.12108 -4.9083 0
M  V30 6250 H 576.378 2.58811 -3.26071 0
M  V30 6251 H 576.911 0.995359 -3.85146 0
M  V30 6252 H 573.65 -0.315153 -6.54742 0
M  V30 6253 H 573.17 1.25564 -5.8651 0
M  V30 6254 H 574.849 0.985433 -6.39451 0
M  V30 6255 N 574.981 1.5647 0.188427 0
M  V30 6256 C 576.23 1.80207 0.905995 0
M  V30 6257 C 576.543 0.659579 1.84144 0
M  V30 6258 O 577.749 0.781431 2.60011 0
M  V30 6259 C 576.205 3.19255 1.66145 0
M  V30 6260 C 575.813 4.41324 0.770504 0
M  V30 6261 C 577.557 3.52298 2.36826 0
M  V30 6262 C 575.464 5.71394 1.52521 0
M  V30 6263 H 574.394 0.671953 0.342045 0
M  V30 6264 H 577.045 1.82808 0.159164 0
M  V30 6265 H 575.427 3.10922 2.45242 0
M  V30 6266 H 576.601 4.60797 0.0177261 0
M  V30 6267 H 574.916 4.16035 0.174199 0
M  V30 6268 H 577.513 4.46715 2.93854 0
M  V30 6269 H 577.856 2.76359 3.11338 0
M  V30 6270 H 578.389 3.62108 1.6469 0
M  V30 6271 H 575.128 6.50316 0.82275 0
M  V30 6272 H 574.648 5.55928 2.25175 0
M  V30 6273 H 576.327 6.12747 2.07725 0
M  V30 6274 N 576.459 -0.456382 1.50847 0
M  V30 6275 C 577.707 -1.20497 1.62249 0
M  V30 6276 C 578.028 -1.92156 0.331839 0
M  V30 6277 O 577.298 -1.84751 -0.651443 0
M  V30 6278 H 575.878 -0.447775 0.597918 0
M  V30 6279 H 578.54 -0.525099 1.87693 0
M  V30 6280 H 577.636 -1.94492 2.44089 0
M  V30 6281 N 577.937 -1.40673 -0.710563 0
M  V30 6282 C 579.183 -1.39428 -1.47267 0
M  V30 6283 C 579.516 0.00182129 -1.942 0
M  V30 6284 O 578.791 0.971387 -1.68506 0
M  V30 6285 C 579.074 -2.38812 -2.6952 0
M  V30 6286 C 578.927 -3.87467 -2.28449 0
M  V30 6287 C 580.246 -2.3566 -3.71689 0
M  V30 6288 H 577.365 -0.507768 -0.534173 0
M  V30 6289 H 580.007 -1.71843 -0.810547 0
M  V30 6290 H 578.157 -2.113 -3.26013 0
M  V30 6291 H 579.829 -4.25825 -1.77399 0
M  V30 6292 H 578.072 -4.03058 -1.60395 0
M  V30 6293 H 578.743 -4.5253 -3.16103 0
M  V30 6294 H 581.219 -2.6004 -3.24836 0
M  V30 6295 H 580.095 -3.07237 -4.54859 0
M  V30 6296 H 580.356 -1.36996 -4.20339 0
M  V30 6297 N 579.415 0.9433 -1.26252 0
M  V30 6298 C 580.378 2.02326 -1.07689 0
M  V30 6299 C 581.378 1.60779 -0.0259174 0
M  V30 6300 O 582.568 1.72108 -0.269134 0
M  V30 6301 C 579.7 3.34886 -0.63752 0
M  V30 6302 H 580.893 2.20225 -2.0357 0
M  V30 6303 H 578.446 1.12197 -1.08819 0
M  V30 6304 H 579.181 3.22684 0.323377 0
M  V30 6305 H 578.966 3.66393 -1.39637 0
M  V30 6306 H 580.456 4.14231 -0.529418 0
M  V30 6307 N 580.893 1.08022 1.14757 0
M  V30 6308 C 582.141 0.805913 1.85336 0
M  V30 6309 C 582.462 -0.670162 1.83122 0
M  V30 6310 O 581.732 -1.48567 1.2769 0
M  V30 6311 H 580.312 0.295138 0.686223 0
M  V30 6312 H 582.974 1.36538 1.3908 0
M  V30 6313 H 582.07 1.14655 2.90277 0
M  V30 6314 N 582.371 -1.3172 0.865308 0
M  V30 6315 C 583.334 -2.26918 0.322627 0
M  V30 6316 C 584.334 -1.52031 -0.523751 0
M  V30 6317 O 585.524 -1.70973 -0.333727 0
M  V30 6318 C 582.656 -3.36558 -0.542338 0
M  V30 6319 H 583.849 -2.76432 1.16298 0
M  V30 6320 H 581.402 -1.42573 0.640512 0
M  V30 6321 H 582.137 -2.92329 -1.40407 0
M  V30 6322 H 581.922 -3.92048 0.0636395 0
M  V30 6323 H 583.412 -4.07465 -0.91446 0
M  V30 6324 N 583.85 -0.624285 -1.44708 0
M  V30 6325 C 585.098 -0.125802 -2.01708 0
M  V30 6326 C 585.418 1.2543 -1.49306 0
M  V30 6327 O 584.689 1.83198 -0.693924 0
M  V30 6328 H 583.269 -0.0435161 -0.745731 0
M  V30 6329 H 585.931 -0.809446 -1.77296 0
M  V30 6330 H 585.027 -0.0882734 -3.11975 0
M  V30 6331 N 585.328 1.53329 -0.364422 0
M  V30 6332 C 586.744 1.59594 -0.0133165 0
M  V30 6333 C 586.944 1.37959 1.46865 0
M  V30 6334 O 586 1.18418 2.2301 0
M  V30 6335 C 587.313 2.97032 -0.468213 0
M  V30 6336 C 588.861 3.10138 -0.422334 0
M  V30 6337 C 589.336 4.49986 -0.853024 0
M  V30 6338 N 590.827 4.56098 -0.808037 0
M  V30 6339 C 591.562 5.62495 -1.11299 0
M  V30 6340 N 591.058 6.7665 -1.48717 0
M  V30 6341 N 592.851 5.52473 -1.03586 0
M  V30 6342 H 585.002 1.65644 -1.32951 0
M  V30 6343 H 587.265 0.77684 -0.543345 0
M  V30 6344 H 586.971 3.18 -1.5023 0
M  V30 6345 H 586.845 3.76918 0.145775 0
M  V30 6346 H 589.232 2.88881 0.602622 0
M  V30 6347 H 589.313 2.32263 -1.0718 0
M  V30 6348 H 588.957 4.7198 -1.87609 0
M  V30 6349 H 588.887 5.26289 -0.180819 0
M  V30 6350 H 591.378 3.74131 -0.532361 0
M  V30 6351 H 591.691 7.53776 -1.70415 0
M  V30 6352 H 590.036 6.78044 -1.52581 0
M  V30 6353 H 593.227 4.6217 -0.742736 0
M  V30 6354 H 593.4 6.35295 -1.27686 0
M  V30 6355 N 586.806 0.0935595 1.57322 0
M  V30 6356 C 587.736 -0.863062 2.16964 0
M  V30 6357 C 588.717 -1.29528 1.10256 0
M  V30 6358 O 589.902 -1.36245 1.38387 0
M  V30 6359 C 587.032 -2.12276 2.74875 0
M  V30 6360 C 585.986 -1.82921 3.86942 0
M  V30 6361 C 585.312 -3.15707 4.31548 0
M  V30 6362 C 586.612 -1.11737 5.10208 0
M  V30 6363 H 588.306 -0.366145 2.97153 0
M  V30 6364 H 585.852 -0.174673 1.42937 0
M  V30 6365 H 587.805 -2.79634 3.1525 0
M  V30 6366 H 586.529 -2.64248 1.91938 0
M  V30 6367 H 585.188 -1.17961 3.47103 0
M  V30 6368 H 584.836 -3.65563 3.45504 0
M  V30 6369 H 584.536 -2.96849 5.07104 0
M  V30 6370 H 586.06 -3.84226 4.74555 0
M  V30 6371 H 587.474 -1.69203 5.47762 0
M  V30 6372 H 585.871 -1.03064 5.91183 0
M  V30 6373 H 586.941 -0.0998818 4.84797 0
M  V30 6374 N 588.284 -1.56567 -0.180126 0
M  V30 6375 C 589.531 -1.81492 -0.898167 0
M  V30 6376 C 589.859 -0.669225 -1.82624 0
M  V30 6377 O 589.114 0.344096 -1.92651 0
M  V30 6378 C 589.413 -3.1252 -1.73395 0
M  V30 6379 C 589.079 -4.40658 -0.955567 0
M  V30 6380 C 587.741 -4.75465 -0.740707 0
M  V30 6381 C 590.093 -5.19593 -0.408948 0
M  V30 6382 C 587.421 -5.86691 0.0320128 0
M  V30 6383 C 589.773 -6.31627 0.350638 0
M  V30 6384 C 588.437 -6.65007 0.576378 0
M  V30 6385 H 587.707 -0.664125 -0.328662 0
M  V30 6386 H 590.354 -1.908 -0.163616 0
M  V30 6387 H 588.659 -2.98515 -2.53763 0
M  V30 6388 H 590.356 -3.29013 -2.29241 0
M  V30 6389 H 586.946 -4.13352 -1.13306 0
M  V30 6390 H 591.13 -4.93104 -0.562307 0
M  V30 6391 H 586.386 -6.11016 0.216735 0
M  V30 6392 H 590.56 -6.92001 0.781497 0
M  V30 6393 H 588.187 -7.51033 1.17703 0
M  V30 6394 N 589.762 0.448376 -1.51087 0
M  V30 6395 C 590.99 1.22143 -1.66999 0
M  V30 6396 C 591.405 1.85283 -0.362699 0
M  V30 6397 O 590.762 1.70236 0.65772 0
M  V30 6398 C 590.813 2.31357 -2.7777 0
M  V30 6399 O 590.534 1.70801 -4.03434 0
M  V30 6400 C 592.035 3.21836 -3.04855 0
M  V30 6401 H 589.255 0.368558 -0.560719 0
M  V30 6402 H 591.799 0.532618 -1.97442 0
M  V30 6403 H 589.954 2.95973 -2.49958 0
M  V30 6404 H 590.368 2.42895 -4.64868 0
M  V30 6405 H 591.842 3.94627 -3.85971 0
M  V30 6406 H 592.319 3.81949 -2.16821 0
M  V30 6407 H 592.925 2.62933 -3.34285 0
M  V30 6408 N 591.24 1.41047 0.703093 0
M  V30 6409 C 592.651 1.35657 1.28274 0
M  V30 6410 C 593.002 0.0360309 1.96167 0
M  V30 6411 O 592.127 -0.865833 1.98324 0
M  V30 6412 C 592.722 2.45707 2.33267 0
M  V30 6413 C 591.281 2.43738 2.86825 0
M  V30 6414 C 590.428 2.25941 1.60767 0
M  V30 6415 H 593.379 1.50672 0.49836 0
M  V30 6416 H 593.4 2.14333 3.14391 0
M  V30 6417 H 592.912 3.41805 1.83824 0
M  V30 6418 H 591.013 1.51375 3.40465 0
M  V30 6419 H 591.126 3.39779 3.37768 0
M  V30 6420 H 589.49 1.73681 1.86298 0
M  V30 6421 H 590.273 3.24054 1.1333 0
M  V30 6422 N 592.718 -0.936591 1.26751 0
M  V30 6423 C 593.995 -1.66094 1.03306 0
M  V30 6424 C 594.375 -2.06568 -0.435058 0
M  V30 6425 O 593.723 -1.79305 -1.41641 0
M  V30 6426 C 593.933 -2.86969 1.98619 0
M  V30 6427 C 595.281 -3.58516 2.27489 0
M  V30 6428 O 596.305 -2.97082 1.96522 0
M  V30 6429 O 595.164 -4.69181 2.80235 0
M  V30 6430 H 592.258 -0.727568 0.393158 0
M  V30 6431 H 594.804 -0.987914 1.3798 0
M  V30 6432 H 593.576 -2.53985 2.9767 0
M  V30 6433 H 593.199 -3.61996 1.64454 0
M  V30 6434 N 594.196 -1.08629 -1.14182 0
M  V30 6435 C 595.442 -0.818556 -1.85546 0
M  V30 6436 C 595.775 0.654076 -1.82854 0
M  V30 6437 O 595.05 1.48099 -1.26083 0
M  V30 6438 C 595.333 -1.34397 -3.3408 0
M  V30 6439 C 595.186 -2.8821 -3.45333 0
M  V30 6440 C 596.505 -0.971069 -4.29253 0
M  V30 6441 H 593.624 -0.298821 -0.673702 0
M  V30 6442 H 596.266 -1.34629 -1.34071 0
M  V30 6443 H 594.416 -0.895064 -3.78049 0
M  V30 6444 H 596.088 -3.41488 -3.10134 0
M  V30 6445 H 594.331 -3.25756 -2.86471 0
M  V30 6446 H 595.002 -3.20047 -4.49749 0
M  V30 6447 H 597.478 -1.35809 -3.93313 0
M  V30 6448 H 596.354 -1.36586 -5.31635 0
M  V30 6449 H 596.615 0.121659 -4.41933 0
M  V30 6450 N 595.674 1.31259 -0.872281 0
M  V30 6451 C 596.923 1.95893 -0.480493 0
M  V30 6452 C 597.236 1.697 0.972688 0
M  V30 6453 O 598.442 2.28214 1.47073 0
M  V30 6454 C 596.898 3.50705 -0.808342 0
M  V30 6455 C 596.506 3.85735 -2.27844 0
M  V30 6456 C 598.25 4.21719 -0.485136 0
M  V30 6457 C 596.157 5.33668 -2.54858 0
M  V30 6458 H 595.087 0.733182 -0.175955 0
M  V30 6459 H 597.738 1.49396 -1.0655 0
M  V30 6460 H 596.12 3.95706 -0.152558 0
M  V30 6461 H 597.294 3.51686 -2.97748 0
M  V30 6462 H 595.609 3.27792 -2.56791 0
M  V30 6463 H 598.206 5.30559 -0.664166 0
M  V30 6464 H 598.549 4.12316 0.574592 0
M  V30 6465 H 599.082 3.82359 -1.09756 0
M  V30 6466 H 595.821 5.48109 -3.59523 0
M  V30 6467 H 595.341 5.69061 -1.8955 0
M  V30 6468 H 597.02 6.00958 -2.39706 0
M  V30 6469 N 597.152 0.631951 1.44375 0
M  V30 6470 C 598.568 0.297642 1.568 0
M  V30 6471 C 598.768 -1.19916 1.61934 0
M  V30 6472 O 597.824 -1.98324 1.56281 0
M  V30 6473 C 599.137 0.990286 2.83926 0
M  V30 6474 C 600.685 0.968507 2.97639 0
M  V30 6475 C 601.16 1.64163 4.27568 0
M  V30 6476 N 602.651 1.60826 4.34384 0
M  V30 6477 C 603.386 2.09802 5.33639 0
M  V30 6478 N 602.882 2.66973 6.39294 0
M  V30 6479 N 604.675 2.00426 5.25153 0
M  V30 6480 H 596.826 1.60353 1.39286 0
M  V30 6481 H 599.089 0.673142 0.667521 0
M  V30 6482 H 598.795 2.04519 2.8612 0
M  V30 6483 H 598.669 0.528563 3.73478 0
M  V30 6484 H 601.056 -0.0779247 2.94997 0
M  V30 6485 H 601.137 1.46873 2.09433 0
M  V30 6486 H 600.781 2.68752 4.3097 0
M  V30 6487 H 600.711 1.11624 5.14634 0
M  V30 6488 H 603.202 1.19087 3.58646 0
M  V30 6489 H 603.515 3.02074 7.11316 0
M  V30 6490 H 601.86 2.71024 6.39977 0
M  V30 6491 H 605.051 1.55483 4.41523 0
M  V30 6492 H 605.224 2.38906 6.02352 0
M  V30 6493 N 598.631 -1.53133 0.372548 0
M  V30 6494 C 599.594 -2.24569 -0.458389 0
M  V30 6495 C 600.594 -1.25603 -1.00402 0
M  V30 6496 O 601.784 -1.49827 -0.888672 0
M  V30 6497 C 598.916 -2.98783 -1.6414 0
M  V30 6498 H 600.109 -2.99436 0.166799 0
M  V30 6499 H 597.662 -1.55805 0.124357 0
M  V30 6500 H 598.397 -2.28176 -2.30448 0
M  V30 6501 H 598.182 -3.71404 -1.25704 0
M  V30 6502 H 599.672 -3.53068 -2.23008 0
M  V30 6503 N 600.109 -0.101901 -1.5727 0
M  V30 6504 C 601.042 0.891377 -2.10071 0
M  V30 6505 C 602.02 1.27197 -1.01291 0
M  V30 6506 O 603.204 1.37602 -1.28833 0
M  V30 6507 C 600.331 2.19049 -2.58331 0
M  V30 6508 C 599.377 1.95925 -3.78834 0
M  V30 6509 S 600.21 1.19106 -5.22086 0
M  V30 6510 C 601.366 2.50234 -5.73702 0
M  V30 6511 H 601.599 0.442212 -2.93993 0
M  V30 6512 H 599.132 0.111529 -1.53997 0
M  V30 6513 H 601.09 2.937 -2.86793 0
M  V30 6514 H 599.751 2.61086 -1.74622 0
M  V30 6515 H 598.944 2.92143 -4.10693 0
M  V30 6516 H 598.546 1.29401 -3.50901 0
M  V30 6517 H 600.838 3.46173 -5.82384 0
M  V30 6518 H 601.781 2.22944 -6.72088 0
M  V30 6519 H 602.189 2.58818 -5.01671 0
M  V30 6520 N 601.587 1.56661 0.17182 0
M  V30 6521 C 602.55 1.9549 1.19651 0
M  V30 6522 C 603.55 0.838501 1.37207 0
M  V30 6523 O 604.74 1.10556 1.34622 0
M  V30 6524 C 601.872 2.24927 2.56166 0
M  V30 6525 H 603.065 2.87184 0.864007 0
M  V30 6526 H 600.618 1.50711 0.41425 0
M  V30 6527 H 601.353 1.35944 2.94431 0
M  V30 6528 H 601.138 3.06301 2.4479 0
M  V30 6529 H 602.628 2.55891 3.30014 0
M  V30 6530 N 603.065 -0.440357 1.51323 0
M  V30 6531 C 604.29 -1.21716 1.67928 0
M  V30 6532 C 604.715 -1.84328 0.374826 0
M  V30 6533 O 604.073 -1.68675 -0.664706 0
M  V30 6534 C 604.121 -2.27914 2.79442 0
M  V30 6535 O 603.225 -3.33325 2.42834 0
M  V30 6536 H 602.566 -0.35674 0.560029 0
M  V30 6537 H 605.096 -0.520417 1.97871 0
M  V30 6538 H 605.106 -2.72746 3.03436 0
M  V30 6539 H 603.781 -1.8172 3.741 0
M  V30 6540 H 602.358 -2.9399 2.294 0
M  V30 6541 N 604.543 -1.41418 -0.695603 0
M  V30 6542 C 605.792 -1.40073 -1.4513 0
M  V30 6543 C 606.105 -0.0130439 -1.95596 0
M  V30 6544 O 607.311 0.123032 -2.71221 0
M  V30 6545 C 605.767 -2.46286 -2.62433 0
M  V30 6546 C 605.375 -3.90962 -2.18753 0
M  V30 6547 C 607.119 -2.54077 -3.40066 0
M  V30 6548 C 605.026 -4.88728 -3.33015 0
M  V30 6549 H 603.956 -0.520903 -0.545138 0
M  V30 6550 H 606.607 -1.67242 -0.75515 0
M  V30 6551 H 604.989 -2.12248 -3.34315 0
M  V30 6552 H 606.163 -4.34248 -1.54161 0
M  V30 6553 H 604.478 -3.86831 -1.54114 0
M  V30 6554 H 607.075 -3.24303 -4.25125 0
M  V30 6555 H 607.418 -1.5776 -3.8525 0
M  V30 6556 H 607.951 -2.87206 -2.75241 0
M  V30 6557 H 604.69 -5.86449 -2.92844 0
M  V30 6558 H 604.21 -4.50091 -3.96457 0
M  V30 6559 H 605.889 -5.09483 -3.98793 0
M  V30 6560 N 606.021 0.929856 -1.27246 0
M  V30 6561 C 606.969 2.05151 -1.09616 0
M  V30 6562 C 607.963 1.69388 -0.0198617 0
M  V30 6563 O 609.169 1.79124 -0.177417 0
M  V30 6564 H 605.544 0.671909 -0.337701 0
M  V30 6565 H 607.515 2.17168 -2.04648 0
M  V30 6566 C 606.264 3.3934 -0.757851 0
M  V30 6567 H 605.587 3.67343 -1.57795 0
M  V30 6568 H 607.027 4.18603 -0.674358 0
M  V30 6569 C 605.486 3.32582 0.537658 0
M  V30 6570 O 606.016 3.69633 1.57271 0
M  V30 6571 N 604.222 2.8568 0.532478 0
M  V30 6572 H 603.769 2.55725 -0.310233 0
M  V30 6573 H 603.727 2.81541 1.39936 0
M  V30 6574 N 607.499 1.09233 1.13605 0
M  V30 6575 C 608.409 0.741939 2.22559 0
M  V30 6576 C 609.425 -0.255236 1.72118 0
M  V30 6577 O 610.601 -0.0970747 2.01166 0
M  V30 6578 C 607.666 0.165595 3.46304 0
M  V30 6579 C 606.727 1.21846 4.11645 0
M  V30 6580 C 605.96 0.669526 5.29484 0
M  V30 6581 O 606.183 -0.508228 5.68131 0
M  V30 6582 O 605.117 1.42361 5.84822 0
M  V30 6583 H 608.943 1.65107 2.54899 0
M  V30 6584 H 606.528 0.866584 1.21699 0
M  V30 6585 H 608.41 -0.152592 4.21124 0
M  V30 6586 H 607.085 -0.716573 3.15669 0
M  V30 6587 H 605.992 1.58931 3.38662 0
M  V30 6588 H 607.325 2.07321 4.46407 0
M  V30 6589 N 608.977 -1.30795 0.87923 0
M  V30 6590 C 610.393 -1.48981 0.57243 0
M  V30 6591 C 610.593 -1.80719 -0.891236 0
M  V30 6592 O 609.649 -1.89136 -1.67283 0
M  V30 6593 C 610.962 -2.61721 1.48063 0
M  V30 6594 C 612.51 -2.75603 1.48365 0
M  V30 6595 C 612.985 -3.91449 2.37763 0
M  V30 6596 N 614.476 -3.98751 2.35695 0
M  V30 6597 C 615.211 -4.87684 3.01583 0
M  V30 6598 N 614.707 -5.81454 3.76674 0
M  V30 6599 N 616.5 -4.81005 2.90844 0
M  V30 6600 H 608.651 -1.08465 1.82617 0
M  V30 6601 H 610.914 -0.536813 0.781368 0
M  V30 6602 H 610.62 -2.45073 2.52254 0
M  V30 6603 H 610.494 -3.58071 1.18596 0
M  V30 6604 H 612.881 -2.9166 0.44927 0
M  V30 6605 H 612.962 -1.79891 1.81859 0
M  V30 6606 H 612.606 -3.76149 3.41283 0
M  V30 6607 H 612.536 -4.86487 2.01589 0
M  V30 6608 H 615.027 -3.31668 1.81121 0
M  V30 6609 H 615.34 -6.46063 4.24054 0
M  V30 6610 H 613.685 -5.81403 3.80782 0
M  V30 6611 H 616.876 -4.06728 2.31711 0
M  V30 6612 H 617.049 -5.50107 3.42471 0
M  V30 6613 N 610.455 -0.639598 -1.44038 0
M  V30 6614 C 611.866 -0.228866 -1.85292 0
M  V30 6615 C 612.217 1.22161 -1.53529 0
M  V30 6616 O 611.342 1.93064 -0.977518 0
M  V30 6617 C 611.937 -0.408592 -3.36327 0
M  V30 6618 C 610.496 -0.0522953 -3.76364 0
M  V30 6619 C 609.643 -0.717959 -2.67844 0
M  V30 6620 H 612.594 -0.844194 -1.34384 0
M  V30 6621 H 612.615 0.349968 -3.78887 0
M  V30 6622 H 612.127 -1.46435 -3.59414 0
M  V30 6623 H 610.228 1.0014 -3.58891 0
M  V30 6624 H 610.341 -0.468261 -4.76806 0
M  V30 6625 H 608.705 -0.152459 -2.54243 0
M  V30 6626 H 609.488 -1.77648 -2.93762 0
M  V30 6627 N 611.933 1.52934 -0.380664 0
M  V30 6628 C 613.179 2.01765 0.20458 0
M  V30 6629 C 613.512 1.26696 1.47179 0
M  V30 6630 O 612.787 0.364936 1.91046 0
M  V30 6631 C 613.07 3.56869 0.481269 0
M  V30 6632 C 612.923 4.42617 -0.800629 0
M  V30 6633 C 614.242 4.2121 1.27554 0
M  V30 6634 H 611.361 0.733388 0.0728803 0
M  V30 6635 H 614.003 1.83068 -0.50853 0
M  V30 6636 H 612.153 3.72932 1.08875 0
M  V30 6637 H 613.825 4.38323 -1.43773 0
M  V30 6638 H 612.068 4.09977 -1.4178 0
M  V30 6639 H 612.739 5.49134 -0.561791 0
M  V30 6640 H 615.215 4.09072 0.761514 0
M  V30 6641 H 614.091 5.29732 1.43788 0
M  V30 6642 H 614.352 3.78269 2.28833 0
M  V30 6643 N 613.412 0.11024 1.57214 0
M  V30 6644 C 614.661 -0.549638 1.94067 0
M  V30 6645 C 614.974 -1.68388 0.995234 0
M  V30 6646 O 616.18 -2.40593 1.25807 0
M  V30 6647 C 614.636 -1.02912 3.44873 0
M  V30 6648 C 614.244 0.0761861 4.47935 0
M  V30 6649 C 615.988 -1.66087 3.9066 0
M  V30 6650 C 613.895 -0.419502 5.8991 0
M  V30 6651 H 612.825 -0.209092 0.724428 0
M  V30 6652 H 615.476 0.188683 1.82527 0
M  V30 6653 H 613.858 -1.82159 3.51616 0
M  V30 6654 H 615.032 0.852185 4.52851 0
M  V30 6655 H 613.347 0.614052 4.11847 0
M  V30 6656 H 615.944 -2.04272 4.94143 0
M  V30 6657 H 616.287 -2.53591 3.30148 0
M  V30 6658 H 616.82 -0.933959 3.86681 0
M  V30 6659 H 613.559 0.419277 6.54158 0
M  V30 6660 H 613.079 -1.16217 5.88433 0
M  V30 6661 H 614.758 -0.883577 6.40938 0
M  V30 6662 N 614.89 -1.56749 -0.16351 0
M  V30 6663 C 616.137 -1.82434 -0.878866 0
M  V30 6664 C 616.465 -0.688557 -1.81904 0
M  V30 6665 O 615.72 0.323644 -1.93005 0
M  V30 6666 C 616.019 -3.14342 -1.70071 0
M  V30 6667 C 615.685 -4.41647 -0.908775 0
M  V30 6668 C 614.347 -4.76224 -0.690236 0
M  V30 6669 C 616.699 -5.19998 -0.353815 0
M  V30 6670 C 614.027 -5.86624 0.0942374 0
M  V30 6671 C 616.379 -6.3122 0.41761 0
M  V30 6672 C 615.043 -6.64358 0.646879 0
M  V30 6673 H 614.313 -0.667574 -0.3216 0
M  V30 6674 H 616.96 -1.90963 -0.14337 0
M  V30 6675 H 615.265 -3.0119 -2.50583 0
M  V30 6676 H 616.962 -3.31426 -2.25738 0
M  V30 6677 H 613.552 -4.1453 -1.08916 0
M  V30 6678 H 617.736 -4.93673 -0.509975 0
M  V30 6679 H 612.992 -6.10751 0.281529 0
M  V30 6680 H 617.166 -6.91133 0.854849 0
M  V30 6681 H 614.793 -7.49742 1.25662 0
M  V30 6682 N 616.368 0.432326 -1.51554 0
M  V30 6683 C 617.331 1.50765 -1.72634 0
M  V30 6684 C 618.331 1.49334 -0.596314 0
M  V30 6685 O 619.521 1.51268 -0.863925 0
M  V30 6686 C 616.653 2.90284 -1.7874 0
M  V30 6687 H 617.846 1.33377 -2.68609 0
M  V30 6688 H 615.399 0.661329 -1.4162 0
M  V30 6689 H 616.134 3.13071 -0.845977 0
M  V30 6690 H 615.919 2.92727 -2.6087 0
M  V30 6691 H 617.409 3.68282 -1.96871 0
M  V30 6692 N 617.846 1.41785 0.688094 0
M  V30 6693 C 618.776 1.47 1.8142 0
M  V30 6694 C 619.757 0.327881 1.6691 0
M  V30 6695 O 620.942 0.540362 1.86531 0
M  V30 6696 C 618.072 1.35876 3.19617 0
M  V30 6697 C 617.026 2.47976 3.48844 0
M  V30 6698 C 616.352 2.21915 4.86475 0
M  V30 6699 C 617.652 3.90309 3.47068 0
M  V30 6700 H 619.346 2.41247 1.77314 0
M  V30 6701 H 616.892 1.16116 0.851651 0
M  V30 6702 H 618.845 1.38134 3.98117 0
M  V30 6703 H 617.569 0.38116 3.24368 0
M  V30 6704 H 616.228 2.45013 2.72698 0
M  V30 6705 H 615.876 1.2248 4.8786 0
M  V30 6706 H 615.576 2.97037 5.06994 0
M  V30 6707 H 617.1 2.25901 5.67275 0
M  V30 6708 H 618.514 3.94947 4.1556 0
M  V30 6709 H 616.911 4.65175 3.7912 0
M  V30 6710 H 617.981 4.17927 2.45896 0
M  V30 6711 N 619.324 -0.923095 1.27737 0
M  V30 6712 C 620.549 -1.71054 1.17283 0
M  V30 6713 C 620.974 -1.86208 -0.266153 0
M  V30 6714 O 620.332 -1.36545 -1.1927 0
M  V30 6715 C 620.38 -3.0854 1.86642 0
M  V30 6716 O 619.484 -3.95528 1.16752 0
M  V30 6717 H 618.825 -0.524136 0.407649 0
M  V30 6718 H 621.355 -1.15487 1.6889 0
M  V30 6719 H 621.365 -3.58828 1.94182 0
M  V30 6720 H 620.04 -2.96828 2.91317 0
M  V30 6721 H 618.617 -3.53967 1.17312 0
M  V30 6722 N 620.802 -1.09834 -1.13024 0
M  V30 6723 C 621.75 -0.736283 -2.20639 0
M  V30 6724 C 622.744 0.264725 -1.67319 0
M  V30 6725 O 623.95 0.125745 -1.7956 0
M  V30 6726 H 620.325 -0.220136 -0.719058 0
M  V30 6727 H 622.296 -1.65295 -2.48436 0
M  V30 6728 C 621.045 -0.177544 -3.47246 0
M  V30 6729 H 620.368 -0.939009 -3.88616 0
M  V30 6730 H 621.808 0.0378007 -4.23983 0
M  V30 6731 C 620.267 1.08824 -3.1884 0
M  V30 6732 O 620.797 2.1708 -3.37993 0
M  V30 6733 N 619.003 1.00442 -2.7269 0
M  V30 6734 H 618.55 0.123383 -2.57304 0
M  V30 6735 H 618.508 1.85206 -2.5406 0
M  V30 6736 N 622.28 1.30327 -0.886154 0
M  V30 6737 C 623.691 1.78243 -0.555554 0
M  V30 6738 C 624.042 1.72849 0.928314 0
M  V30 6739 O 623.167 1.30607 1.72542 0
M  V30 6740 C 623.762 3.23654 -1.00168 0
M  V30 6741 C 622.321 3.69401 -0.722471 0
M  V30 6742 C 621.468 2.50753 -1.18399 0
M  V30 6743 H 624.419 1.1718 -1.07026 0
M  V30 6744 H 624.44 3.79056 -0.331152 0
M  V30 6745 H 623.952 3.27548 -2.08169 0
M  V30 6746 H 622.053 3.70995 0.345496 0
M  V30 6747 H 622.166 4.60818 -1.31085 0
M  V30 6748 H 620.53 2.47452 -0.603303 0
M  V30 6749 H 621.313 2.57383 -2.27176 0
M  V30 6750 N 623.758 0.647228 1.43697 0
M  V30 6751 C 624.986 0.16575 2.06235 0
M  V30 6752 C 625.401 -1.1662 1.48476 0
M  V30 6753 O 624.758 -1.7187 0.613762 0
M  V30 6754 C 624.809 0.0621651 3.61447 0
M  V30 6755 O 624.53 1.34146 4.17057 0
M  V30 6756 C 626.031 -0.446102 4.4105 0
M  V30 6757 H 623.251 0.0871158 0.665321 0
M  V30 6758 H 625.795 0.886183 1.84301 0
M  V30 6759 H 623.95 -0.608794 3.82587 0
M  V30 6760 H 624.364 1.19675 5.10664 0
M  V30 6761 H 625.838 -0.46755 5.50016 0
M  V30 6762 H 626.315 -1.47627 4.13646 0
M  V30 6763 H 626.921 0.192159 4.24866 0
M  V30 6764 N 625.236 -1.5273 0.388769 0
M  V30 6765 C 626.199 -2.25043 -0.434544 0
M  V30 6766 C 627.199 -1.26661 -0.990644 0
M  V30 6767 O 628.389 -1.50762 -0.872731 0
M  V30 6768 C 625.521 -3.00507 -1.60961 0
M  V30 6769 H 626.714 -2.99242 0.198549 0
M  V30 6770 H 624.267 -1.55664 0.140875 0
M  V30 6771 H 625.002 -2.30607 -2.28015 0
M  V30 6772 H 624.787 -3.72716 -1.21757 0
M  V30 6773 H 626.277 -3.55413 -2.19251 0
M  V30 6774 N 626.714 -0.118576 -1.57153 0
M  V30 6775 C 627.646 0.862247 -2.12363 0
M  V30 6776 C 628.659 1.23025 -1.06625 0
M  V30 6777 O 629.848 1.17927 -1.33998 0
M  V30 6778 C 626.948 2.16425 -2.60794 0
M  V30 6779 C 626.121 1.96801 -3.90626 0
M  V30 6780 C 625.18 3.10726 -4.2466 0
M  V30 6781 O 624.206 2.83659 -4.93484 0
M  V30 6782 N 625.408 4.37147 -3.81946 0
M  V30 6783 H 628.173 0.390564 -2.97144 0
M  V30 6784 H 625.734 0.0658591 -1.61766 0
M  V30 6785 H 627.726 2.91633 -2.80593 0
M  V30 6786 H 626.296 2.54943 -1.80895 0
M  V30 6787 H 625.516 1.05787 -3.7974 0
M  V30 6788 H 626.804 1.80993 -4.7552 0
M  V30 6789 H 626.202 4.62014 -3.26435 0
M  V30 6790 H 624.759 5.09229 -4.06853 0
M  V30 6791 N 628.193 1.56834 0.155195 0
M  V30 6792 C 629.156 1.96748 1.17571 0
M  V30 6793 C 630.156 0.853006 1.3631 0
M  V30 6794 O 631.346 1.11978 1.33441 0
M  V30 6795 C 628.478 2.27631 2.53765 0
M  V30 6796 H 629.671 2.88085 0.833498 0
M  V30 6797 H 627.224 1.51141 0.398242 0
M  V30 6798 H 627.959 1.39059 2.92973 0
M  V30 6799 H 627.744 3.0888 2.41527 0
M  V30 6800 H 629.234 2.59377 3.27282 0
M  V30 6801 N 629.671 -0.424282 1.51781 0
M  V30 6802 C 630.581 -1.54087 1.76902 0
M  V30 6803 C 631.597 -1.61249 0.653826 0
M  V30 6804 O 632.773 -1.78247 0.937552 0
M  V30 6805 C 629.838 -2.8996 1.90063 0
M  V30 6806 C 628.899 -2.92809 3.13945 0
M  V30 6807 C 628.132 -4.22201 3.26469 0
M  V30 6808 O 628.355 -5.15286 2.44616 0
M  V30 6809 O 627.289 -4.31599 4.1953 0
M  V30 6810 H 631.115 -1.358 2.71647 0
M  V30 6811 H 628.7 -0.608618 1.36441 0
M  V30 6812 H 630.582 -3.70575 2.0063 0
M  V30 6813 H 629.257 -3.08347 0.985067 0
M  V30 6814 H 628.164 -2.11102 3.08847 0
M  V30 6815 H 629.497 -2.79369 4.05233 0
M  V30 6816 N 631.149 -1.42148 -0.680565 0
M  V30 6817 C 632.389 -1.4379 -1.45271 0
M  V30 6818 C 632.753 -0.0504426 -1.91934 0
M  V30 6819 O 633.954 0.0583916 -2.68737 0
M  V30 6820 C 632.225 -2.42904 -2.62168 0
M  V30 6821 S 633.784 -2.63201 -3.51099 0
M  V30 6822 H 630.602 -0.509185 -0.496237 0
M  V30 6823 H 633.204 -1.78706 -0.792744 0
M  V30 6824 H 631.908 -3.4249 -2.26116 0
M  V30 6825 H 631.439 -2.09394 -3.33043 0
M  V30 6826 H 633.454 -1.91068 -4.57938 0
M  V30 6827 N 632.627 0.916307 -1.28225 0
M  V30 6828 C 633.855 1.69901 -1.18073 0
M  V30 6829 C 634.27 1.86988 0.260968 0
M  V30 6830 O 633.627 1.39505 1.17663 0
M  V30 6831 C 633.678 3.09254 -1.87201 0
M  V30 6832 O 633.399 2.92959 -3.2574 0
M  V30 6833 C 634.9 4.0362 -1.83319 0
M  V30 6834 H 632.12 0.531181 -0.409985 0
M  V30 6835 H 634.664 1.14703 -1.69303 0
M  V30 6836 H 632.819 3.61277 -1.39848 0
M  V30 6837 H 633.233 3.81139 -3.60324 0
M  V30 6838 H 634.707 4.98873 -2.36282 0
M  V30 6839 H 635.184 4.3176 -0.805007 0
M  V30 6840 H 635.79 3.57524 -2.3034 0
M  V30 6841 N 634.105 1.10431 1.1244 0
M  V30 6842 C 635.068 0.756542 2.16354 0
M  V30 6843 C 636.068 -0.21899 1.59302 0
M  V30 6844 O 637.258 0.00415969 1.742 0
M  V30 6845 C 634.39 0.120612 3.40687 0
M  V30 6846 H 635.583 1.67696 2.48632 0
M  V30 6847 H 633.136 0.904832 1.27446 0
M  V30 6848 H 633.871 -0.810536 3.14008 0
M  V30 6849 H 633.656 0.822693 3.83372 0
M  V30 6850 H 635.146 -0.106945 4.17463 0
M  V30 6851 N 635.583 -1.29855 0.893053 0
M  V30 6852 C 636.493 -2.31661 0.370157 0
M  V30 6853 C 637.509 -1.65677 -0.531723 0
M  V30 6854 O 638.685 -1.9691 -0.422902 0
M  V30 6855 C 635.75 -3.44388 -0.399741 0
M  V30 6856 C 634.811 -4.2598 0.532861 0
M  V30 6857 C 634.044 -5.33324 -0.200388 0
M  V30 6858 O 634.267 -5.52305 -1.42531 0
M  V30 6859 O 633.201 -6.00188 0.453668 0
M  V30 6860 H 637.027 -2.78354 1.2146 0
M  V30 6861 H 634.612 -1.34171 0.657153 0
M  V30 6862 H 636.494 -4.13037 -0.835358 0
M  V30 6863 H 635.169 -2.99815 -1.22035 0
M  V30 6864 H 634.076 -3.59998 1.01746 0
M  V30 6865 H 635.409 -4.74178 1.3197 0
M  V30 6866 N 637.061 -0.65484 -1.43351 0
M  V30 6867 C 637.971 0.0363603 -2.34572 0
M  V30 6868 C 638.987 0.810432 -1.53974 0
M  V30 6869 O 640.163 0.757308 -1.86619 0
M  V30 6870 C 637.228 0.989733 -3.32273 0
M  V30 6871 C 636.289 0.212414 -4.28774 0
M  V30 6872 C 635.522 1.12038 -5.21808 0
M  V30 6873 O 635.745 2.35967 -5.19303 0
M  V30 6874 O 634.679 0.59191 -5.98982 0
M  V30 6875 H 638.505 -0.714527 -2.95175 0
M  V30 6876 H 636.09 -0.415029 -1.4352 0
M  V30 6877 H 637.972 1.53759 -3.92347 0
M  V30 6878 H 636.647 1.72082 -2.74171 0
M  V30 6879 H 635.554 -0.379062 -3.72175 0
M  V30 6880 H 636.887 -0.479138 -4.89862 0
M  V30 6881 N 638.539 1.52521 -0.396863 0
M  V30 6882 C 639.502 2.2527 0.422604 0
M  V30 6883 C 640.502 1.27184 0.983913 0
M  V30 6884 O 641.692 1.51222 0.864723 0
M  V30 6885 C 638.824 3.01356 1.59365 0
M  V30 6886 H 640.017 2.99133 -0.214416 0
M  V30 6887 H 637.57 1.55587 -0.149128 0
M  V30 6888 H 638.305 2.31813 2.26789 0
M  V30 6889 H 638.09 3.73357 1.19779 0
M  V30 6890 H 639.58 3.56571 2.17363 0
M  V30 6891 N 640.017 0.126909 1.57088 0
M  V30 6892 C 641.247 -0.535892 1.99529 0
M  V30 6893 C 641.655 -1.60259 1.00566 0
M  V30 6894 O 640.998 -1.83698 -0.00843269 0
M  V30 6895 C 641.06 -1.21374 3.38391 0
M  V30 6896 C 640.724 -0.294044 4.56053 0
M  V30 6897 C 641.721 0.470454 5.17767 0
M  V30 6898 C 639.406 -0.202808 5.0189 0
M  V30 6899 C 641.4 1.31384 6.23712 0
M  V30 6900 C 639.087 0.644203 6.07695 0
M  V30 6901 C 640.085 1.40115 6.68473 0
M  V30 6902 O 639.773 2.23408 7.72233 0
M  V30 6903 H 639.505 -0.145799 0.66009 0
M  V30 6904 H 642.059 0.212441 2.04298 0
M  V30 6905 H 640.289 -2.00931 3.30399 0
M  V30 6906 H 641.978 -1.77424 3.65069 0
M  V30 6907 H 642.744 0.409884 4.83265 0
M  V30 6908 H 638.623 -0.781688 4.54324 0
M  V30 6909 H 642.167 1.90514 6.71081 0
M  V30 6910 H 638.064 0.706137 6.41626 0
M  V30 6911 H 638.832 2.16436 7.89365 0
M  V30 6912 N 641.495 -1.56914 -0.146875 0
M  V30 6913 C 642.723 -1.87515 -0.874394 0
M  V30 6914 C 643.138 -0.715116 -1.74733 0
M  V30 6915 O 642.495 0.315113 -1.79759 0
M  V30 6916 C 642.546 -3.17362 -1.731 0
M  V30 6917 O 642.267 -4.28897 -0.893245 0
M  V30 6918 C 643.768 -3.61479 -2.56609 0
M  V30 6919 H 640.988 -0.621546 -0.252827 0
M  V30 6920 H 643.532 -2.04023 -0.139627 0
M  V30 6921 H 641.687 -3.02608 -2.41883 0
M  V30 6922 H 642.101 -5.03146 -1.48137 0
M  V30 6923 H 643.575 -4.5517 -3.12289 0
M  V30 6924 H 644.052 -2.86773 -3.32653 0
M  V30 6925 H 644.658 -3.78927 -1.93117 0
M  V30 6926 N 642.974 0.416227 -1.52004 0
M  V30 6927 C 643.904 1.51365 -1.77795 0
M  V30 6928 C 644.885 1.58059 -0.628601 0
M  V30 6929 O 646.07 1.73447 -0.873478 0
M  V30 6930 C 643.2 2.89256 -1.92219 0
M  V30 6931 C 642.154 2.97415 -3.0778 0
M  V30 6932 C 641.48 4.37492 -3.07417 0
M  V30 6933 C 642.78 2.69551 -4.47369 0
M  V30 6934 H 644.474 1.30033 -2.69688 0
M  V30 6935 H 642.02 0.624112 -1.29772 0
M  V30 6936 H 643.973 3.66008 -2.08845 0
M  V30 6937 H 642.697 3.11866 -0.969917 0
M  V30 6938 H 641.356 2.23107 -2.90893 0
M  V30 6939 H 641.004 4.571 -2.09925 0
M  V30 6940 H 640.704 4.43877 -3.85029 0
M  V30 6941 H 642.228 5.16188 -3.26162 0
M  V30 6942 H 643.642 3.36028 -4.64497 0
M  V30 6943 H 642.039 2.87321 -5.26846 0
M  V30 6944 H 643.109 1.65029 -4.55953 0
M  V30 6945 N 644.452 1.42507 0.673017 0
M  V30 6946 C 645.68 1.46473 1.46128 0
M  V30 6947 C 646.095 0.0765912 1.88645 0
M  V30 6948 O 645.452 -0.909057 1.58248 0
M  V30 6949 C 645.503 2.39339 2.70923 0
M  V30 6950 O 645.224 3.72752 2.3019 0
M  V30 6951 C 646.725 2.52343 3.64469 0
M  V30 6952 H 643.945 0.49812 0.449575 0
M  V30 6953 H 646.489 1.87041 0.826802 0
M  V30 6954 H 644.644 2.02019 3.30556 0
M  V30 6955 H 645.058 4.22503 3.10791 0
M  V30 6956 H 646.532 3.2144 4.48754 0
M  V30 6957 H 647.009 1.56189 4.1049 0
M  V30 6958 H 647.615 2.90392 3.10729 0
M  V30 6959 N 645.93 -0.909495 1.28709 0
M  V30 6960 C 646.84 -2.04558 1.14861 0
M  V30 6961 C 647.856 -1.73842 0.0741621 0
M  V30 6962 O 649.032 -1.99383 0.2843 0
M  V30 6963 C 646.097 -3.36957 0.816148 0
M  V30 6964 C 645.158 -3.81255 1.97341 0
M  V30 6965 C 644.391 -5.07335 1.65671 0
M  V30 6966 O 644.614 -5.67514 0.573053 0
M  V30 6967 O 643.548 -5.47449 2.50167 0
M  V30 6968 H 647.374 -2.19161 2.10243 0
M  V30 6969 H 644.959 -1.03159 1.08068 0
M  V30 6970 H 646.841 -4.16436 0.644873 0
M  V30 6971 H 645.516 -3.2352 -0.107983 0
M  V30 6972 H 644.423 -3.02584 2.19986 0
M  V30 6973 H 645.756 -3.99261 2.87839 0
M  V30 6974 N 647.408 -1.11026 -1.11852 0
M  V30 6975 C 648.656 -0.854769 -1.83134 0
M  V30 6976 C 648.977 0.621375 -1.84835 0
M  V30 6977 O 648.247 1.45129 -1.31584 0
M  V30 6978 H 646.827 -0.313229 -0.678157 0
M  V30 6979 H 649.489 -1.40178 -1.35411 0
M  V30 6980 H 648.585 -1.22311 -2.87135 0
M  V30 6981 N 648.886 1.2938 -0.899927 0
M  V30 6982 C 650.302 1.48052 -0.596059 0
M  V30 6983 C 650.502 1.82114 0.862372 0
M  V30 6984 O 649.558 1.91774 1.64253 0
M  V30 6985 C 650.871 2.59332 -1.52208 0
M  V30 6986 C 652.419 2.73208 -1.5273 0
M  V30 6987 C 652.894 3.87617 -2.43961 0
M  V30 6988 N 654.385 3.9495 -2.42009 0
M  V30 6989 C 655.12 4.82824 -3.09303 0
M  V30 6990 N 654.616 5.75387 -3.85877 0
M  V30 6991 N 656.409 4.76317 -2.98459 0
M  V30 6992 H 648.56 1.05546 -1.8432 0
M  V30 6993 H 650.823 0.524314 -0.78981 0
M  V30 6994 H 650.529 2.41029 -2.56121 0
M  V30 6995 H 650.403 3.56139 -1.24278 0
M  V30 6996 H 652.79 2.90908 -0.495614 0
M  V30 6997 H 652.871 1.76975 -1.84698 0
M  V30 6998 H 652.515 3.70672 -3.47224 0
M  V30 6999 H 652.445 4.83218 -2.09303 0
M  V30 7000 H 654.936 3.28744 -1.86375 0
M  V30 7001 H 655.249 6.39235 -4.34279 0
M  V30 7002 H 653.594 5.75272 -3.89984 0
M  V30 7003 H 656.785 4.0299 -2.38152 0
M  V30 7004 H 656.958 5.44589 -3.51179 0
M  V30 7005 N 650.364 0.662433 1.43002 0
M  V30 7006 C 651.604 0.183312 2.03576 0
M  V30 7007 C 651.968 -1.18354 1.51183 0
M  V30 7008 O 653.169 -1.7566 2.03462 0
M  V30 7009 C 651.44 0.202908 3.56824 0
M  V30 7010 S 652.999 -0.20702 4.38311 0
M  V30 7011 H 649.817 0.0765001 0.706872 0
M  V30 7012 H 652.419 0.872827 1.74934 0
M  V30 7013 H 651.123 1.20028 3.92456 0
M  V30 7014 H 650.654 -0.506845 3.90121 0
M  V30 7015 H 652.669 -1.44358 4.74737 0
M  V30 7016 N 651.842 -1.52309 0.404946 0
M  V30 7017 C 652.772 -2.29805 -0.41376 0
M  V30 7018 C 653.753 -1.3384 -1.0498 0
M  V30 7019 O 654.938 -1.62745 -1.05961 0
M  V30 7020 C 652.068 -3.11639 -1.53292 0
M  V30 7021 C 651.022 -4.15616 -1.02211 0
M  V30 7022 C 650.348 -4.8577 -2.23455 0
M  V30 7023 C 651.648 -5.2224 -0.0790725 0
M  V30 7024 H 653.342 -2.98493 0.232878 0
M  V30 7025 H 650.888 -1.43552 0.113441 0
M  V30 7026 H 652.841 -3.64618 -2.11262 0
M  V30 7027 H 651.565 -2.40712 -2.20738 0
M  V30 7028 H 650.224 -3.63641 -0.46484 0
M  V30 7029 H 649.872 -4.11376 -2.89445 0
M  V30 7030 H 649.572 -5.56058 -1.89929 0
M  V30 7031 H 651.096 -5.4156 -2.82038 0
M  V30 7032 H 652.51 -5.70485 -0.567438 0
M  V30 7033 H 650.907 -5.99867 0.167167 0
M  V30 7034 H 651.977 -4.77078 0.867447 0
M  V30 7035 N 653.32 -0.135238 -1.57019 0
M  V30 7036 C 654.567 0.518794 -1.95742 0
M  V30 7037 C 654.895 1.65642 -1.01947 0
M  V30 7038 O 654.15 1.95645 -0.0464016 0
M  V30 7039 C 654.449 1.07694 -3.40788 0
M  V30 7040 C 654.115 0.058992 -4.50861 0
M  V30 7041 C 652.777 -0.220872 -4.80693 0
M  V30 7042 C 655.129 -0.633856 -5.17331 0
M  V30 7043 C 652.457 -1.19959 -5.74305 0
M  V30 7044 C 654.809 -1.60131 -6.11997 0
M  V30 7045 C 653.473 -1.889 -6.40213 0
M  V30 7046 H 652.743 0.18984 -0.716269 0
M  V30 7047 H 655.39 -0.219581 -1.90237 0
M  V30 7048 H 653.695 1.89241 -3.43067 0
M  V30 7049 H 655.392 1.59137 -3.68071 0
M  V30 7050 H 651.982 0.287304 -4.27636 0
M  V30 7051 H 656.166 -0.430823 -4.94427 0
M  V30 7052 H 651.422 -1.42905 -5.94465 0
M  V30 7053 H 655.596 -2.14376 -6.62583 0
M  V30 7054 H 653.223 -2.64891 -7.12556 0
M  V30 7055 N 654.798 1.5699 0.138552 0
M  V30 7056 C 655.761 1.97984 1.15478 0
M  V30 7057 C 656.761 0.867416 1.35398 0
M  V30 7058 O 657.951 1.13387 1.32246 0
M  V30 7059 C 655.083 2.3031 2.51337 0
M  V30 7060 H 656.276 2.88953 0.802896 0
M  V30 7061 H 653.829 1.51555 0.382189 0
M  V30 7062 H 654.564 1.42159 2.91481 0
M  V30 7063 H 654.349 3.11425 2.38237 0
M  V30 7064 H 655.839 2.62834 3.24512 0
M  V30 7065 N 656.276 -0.40816 1.52223 0
M  V30 7066 C 657.501 -1.18127 1.70472 0
M  V30 7067 C 657.926 -1.83491 0.41384 0
M  V30 7068 O 657.284 -1.70047 -0.628778 0
M  V30 7069 C 657.332 -2.21935 2.84213 0
M  V30 7070 O 656.436 -3.28099 2.4985 0
M  V30 7071 H 655.777 -0.344781 0.56747 0
M  V30 7072 H 658.307 -0.478328 1.9893 0
M  V30 7073 H 658.317 -2.66248 3.09153 0
M  V30 7074 H 656.992 -1.73744 3.7787 0
M  V30 7075 H 655.569 -2.89058 2.35584 0
M  V30 7076 N 657.755 -1.42862 -0.66545 0
M  V30 7077 C 659.003 -1.43546 -1.42264 0
M  V30 7078 C 659.324 -0.0563116 -1.94919 0
M  V30 7079 O 658.594 0.906568 -1.73661 0
M  V30 7080 H 657.174 -0.528464 -0.527953 0
M  V30 7081 H 659.836 -1.78363 -0.785665 0
M  V30 7082 H 658.932 -2.14079 -2.27105 0
M  V30 7083 N 659.233 0.902656 -1.29189 0
M  V30 7084 C 660.458 1.69167 -1.19989 0
M  V30 7085 C 660.883 1.86607 0.236495 0
M  V30 7086 O 660.241 1.38425 1.17082 0
M  V30 7087 C 660.289 3.05532 -1.91527 0
M  V30 7088 O 659.393 3.93621 -1.2303 0
M  V30 7089 H 658.734 0.517584 -0.415936 0
M  V30 7090 H 661.264 1.12785 -1.70706 0
M  V30 7091 H 661.274 3.55693 -1.99866 0
M  V30 7092 H 659.949 2.92156 -2.96003 0
M  V30 7093 H 658.526 3.52055 -1.22928 0
M  V30 7094 N 660.711 1.11618 1.11262 0
M  V30 7095 C 662.122 0.881942 1.64556 0
M  V30 7096 C 662.473 -0.585442 1.87262 0
M  V30 7097 O 661.598 -1.44795 1.60821 0
M  V30 7098 C 662.193 1.59446 2.98935 0
M  V30 7099 C 660.752 1.40661 3.4913 0
M  V30 7100 C 659.899 1.63593 2.23903 0
M  V30 7101 H 662.85 1.27217 0.94877 0
M  V30 7102 H 662.871 1.04054 3.65996 0
M  V30 7103 H 662.383 2.66241 2.82378 0
M  V30 7104 H 660.484 0.360835 3.70849 0
M  V30 7105 H 660.597 2.15693 4.27801 0
M  V30 7106 H 658.961 1.05944 2.3162 0
M  V30 7107 H 659.744 2.71666 2.09886 0
M  V30 7108 N 662.189 -1.289 0.906776 0
M  V30 7109 C 663.436 -1.95269 0.536326 0
M  V30 7110 C 663.764 -1.71435 -0.918711 0
M  V30 7111 O 663.019 -1.02431 -1.66752 0
M  V30 7112 C 663.318 -3.48704 0.783617 0
M  V30 7113 C 662.984 -3.92626 2.21711 0
M  V30 7114 C 661.646 -4.04329 2.60906 0
M  V30 7115 C 663.998 -4.15218 3.15029 0
M  V30 7116 C 661.326 -4.35998 3.92584 0
M  V30 7117 C 663.678 -4.48365 4.46264 0
M  V30 7118 C 662.342 -4.58278 4.85322 0
M  V30 7119 H 661.612 -0.714538 0.196256 0
M  V30 7120 H 664.259 -1.53366 1.14678 0
M  V30 7121 H 662.564 -3.91696 0.0903048 0
M  V30 7122 H 664.261 -3.98162 0.476267 0
M  V30 7123 H 660.851 -3.84038 1.90296 0
M  V30 7124 H 665.035 -4.05636 2.8596 0
M  V30 7125 H 660.291 -4.41878 4.22557 0
M  V30 7126 H 664.465 -4.64795 5.18593 0
M  V30 7127 H 662.092 -4.82573 5.87391 0
M  V30 7128 N 663.667 -0.670007 -1.42649 0
M  V30 7129 C 664.915 -0.18991 -2.01206 0
M  V30 7130 C 665.236 1.20617 -1.53221 0
M  V30 7131 O 664.506 1.80898 -0.751856 0
M  V30 7132 H 663.086 -0.0672189 -0.743969 0
M  V30 7133 H 665.748 -0.865442 -1.74631 0
M  V30 7134 H 664.844 -0.187481 -3.11536 0
M  V30 7135 N 665.145 1.52092 -0.413018 0
M  V30 7136 C 666.556 1.86617 0.0556967 0
M  V30 7137 C 666.907 1.33156 1.44097 0
M  V30 7138 O 666.032 0.672417 2.05688 0
M  V30 7139 C 666.627 3.38628 0.107844 0
M  V30 7140 C 665.186 3.72778 0.520904 0
M  V30 7141 C 664.333 2.75649 -0.302109 0
M  V30 7142 H 667.284 1.45663 -0.629919 0
M  V30 7143 H 667.305 3.69152 0.922324 0
M  V30 7144 H 666.817 3.77508 -0.900506 0
M  V30 7145 H 664.918 3.39478 1.53575 0
M  V30 7146 H 665.031 4.7838 0.262591 0
M  V30 7147 H 663.395 2.53603 0.236115 0
M  V30 7148 H 664.178 3.17369 -1.30888 0
M  V30 7149 N 666.623 0.143563 1.56945 0
M  V30 7150 C 667.869 -0.50916 1.96304 0
M  V30 7151 C 668.202 -1.64741 1.0283 0
M  V30 7152 O 667.477 -1.94374 0.0700361 0
M  V30 7153 C 667.76 -1.0186 3.45393 0
M  V30 7154 C 667.613 0.117923 4.49645 0
M  V30 7155 C 668.932 -1.90151 3.96901 0
M  V30 7156 H 666.051 -0.183608 0.713763 0
M  V30 7157 H 668.693 0.224095 1.88674 0
M  V30 7158 H 666.843 -1.64345 3.52027 0
M  V30 7159 H 668.515 0.754145 4.55094 0
M  V30 7160 H 666.758 0.777568 4.26774 0
M  V30 7161 H 667.429 -0.280187 5.51288 0
M  V30 7162 H 669.905 -1.375 3.92725 0
M  V30 7163 H 668.781 -2.22707 5.0169 0
M  V30 7164 H 669.042 -2.83718 3.39052 0
M  V30 7165 N 668.101 -1.57061 -0.130224 0
M  V30 7166 C 669.048 -1.99517 -1.16024 0
M  V30 7167 C 670.018 -0.865452 -1.41771 0
M  V30 7168 O 671.203 -1.12882 -1.53826 0
M  V30 7169 C 668.343 -2.3951 -2.48453 0
M  V30 7170 C 667.456 -3.65848 -2.29737 0
M  V30 7171 C 666.591 -3.9487 -3.55318 0
M  V30 7172 C 665.63 -5.14426 -3.31711 0
M  V30 7173 N 664.767 -5.39375 -4.49466 0
M  V30 7174 H 669.607 -2.87305 -0.791194 0
M  V30 7175 H 667.144 -1.42129 -0.379195 0
M  V30 7176 H 669.102 -2.60731 -3.25692 0
M  V30 7177 H 667.732 -1.54779 -2.83272 0
M  V30 7178 H 666.784 -3.52307 -1.4347 0
M  V30 7179 H 668.096 -4.53241 -2.08263 0
M  V30 7180 H 667.25 -4.16679 -4.4098 0
M  V30 7181 H 665.989 -3.05931 -3.79813 0
M  V30 7182 H 664.994 -4.92473 -2.44439 0
M  V30 7183 H 666.219 -6.04933 -3.08598 0
M  V30 7184 H 664.165 -4.53391 -4.74102 0
M  V30 7185 H 664.082 -6.21069 -4.31055 0
M  V30 7186 H 665.35 -5.65694 -5.36293 0
M  V30 7187 N 669.579 0.400081 -1.52437 0
M  V30 7188 C 670.509 1.4947 -1.7939 0
M  V30 7189 C 671.49 1.57383 -0.645329 0
M  V30 7190 O 672.675 1.72511 -0.891826 0
M  V30 7191 C 669.805 2.87201 -1.95276 0
M  V30 7192 C 668.759 2.94134 -3.10917 0
M  V30 7193 C 668.085 4.34207 -3.1204 0
M  V30 7194 C 669.385 2.64791 -4.50203 0
M  V30 7195 H 671.079 1.27165 -2.71052 0
M  V30 7196 H 668.625 0.610312 -1.30427 0
M  V30 7197 H 670.578 3.63772 -2.12715 0
M  V30 7198 H 669.302 3.10819 -1.00294 0
M  V30 7199 H 667.961 2.20009 -2.93243 0
M  V30 7200 H 667.609 4.54848 -2.14761 0
M  V30 7201 H 667.309 4.39768 -3.89715 0
M  V30 7202 H 668.833 5.127 -3.31619 0
M  V30 7203 H 670.247 3.31083 -4.68035 0
M  V30 7204 H 668.644 2.81717 -5.29864 0
M  V30 7205 H 669.714 1.60184 -4.57678 0
M  V30 7206 N 671.057 1.43213 0.657864 0
M  V30 7207 C 672.285 1.48015 1.44566 0
M  V30 7208 C 672.7 0.0965951 1.88553 0
M  V30 7209 O 672.057 -0.892221 1.59203 0
M  V30 7210 C 672.108 2.42199 2.68369 0
M  V30 7211 O 671.829 3.75173 2.26223 0
M  V30 7212 C 673.33 2.56195 3.61772 0
M  V30 7213 H 670.55 0.502861 0.444266 0
M  V30 7214 H 673.094 1.87907 0.806917 0
M  V30 7215 H 671.249 2.05514 3.28394 0
M  V30 7216 H 671.663 4.25776 3.06293 0
M  V30 7217 H 673.137 3.26182 4.4532 0
M  V30 7218 H 673.614 1.60534 4.0881 0
M  V30 7219 H 674.22 2.93671 3.07632 0
M  V30 7220 N 672.536 -0.895792 1.29666 0
M  V30 7221 C 673.813 -1.62723 1.08538 0
M  V30 7222 C 674.193 -2.07848 -0.369119 0
M  V30 7223 O 673.541 -1.8372 -1.35864 0
M  V30 7224 C 673.751 -2.80505 2.07648 0
M  V30 7225 C 675.099 -3.51098 2.3878 0
M  V30 7226 O 676.123 -2.90679 2.05874 0
M  V30 7227 O 674.982 -4.60028 2.9502 0
M  V30 7228 H 672.076 -0.714692 0.416106 0
M  V30 7229 H 674.622 -0.943517 1.41053 0
M  V30 7230 H 673.394 -2.44386 3.05599 0
M  V30 7231 H 673.017 -3.5658 1.75887 0
M  V30 7232 N 674.014 -1.12206 -1.10668 0
M  V30 7233 C 675.262 -0.874144 -1.82217 0
M  V30 7234 C 675.583 0.601736 -1.85484 0
M  V30 7235 O 674.853 1.43725 -1.33116 0
M  V30 7236 H 673.433 -0.320404 -0.674797 0
M  V30 7237 H 676.095 -1.41606 -1.33917 0
M  V30 7238 H 675.191 -1.25349 -2.85822 0
M  V30 7239 N 675.492 1.28418 -0.913599 0
M  V30 7240 C 676.908 1.47411 -0.611728 0
M  V30 7241 C 677.108 1.83018 0.843008 0
M  V30 7242 O 676.164 1.93505 1.6221 0
M  V30 7243 C 677.477 2.57703 -1.5495 0
M  V30 7244 C 679.025 2.71572 -1.5562 0
M  V30 7245 C 679.5 3.85008 -2.48058 0
M  V30 7246 N 680.991 3.92361 -2.46184 0
M  V30 7247 C 681.726 4.79516 -3.14407 0
M  V30 7248 N 681.222 5.71262 -3.91958 0
M  V30 7249 N 683.015 4.73125 -3.03495 0
M  V30 7250 H 675.166 1.03585 -1.85429 0
M  V30 7251 H 677.429 0.515907 -0.795326 0
M  V30 7252 H 677.135 2.38298 -2.58663 0
M  V30 7253 H 677.009 3.54801 -1.28048 0
M  V30 7254 H 679.396 2.90366 -0.526441 0
M  V30 7255 H 679.477 1.75006 -1.86565 0
M  V30 7256 H 679.121 3.66969 -3.51136 0
M  V30 7257 H 679.051 4.80971 -2.14416 0
M  V30 7258 H 681.542 3.26749 -1.89851 0
M  V30 7259 H 681.855 6.34593 -4.41034 0
M  V30 7260 H 680.2 5.71103 -3.96063 0
M  V30 7261 H 683.391 4.00442 -2.42413 0
M  V30 7262 H 683.564 5.40834 -3.56935 0
M  V30 7263 N 676.97 0.677563 1.42291 0
M  V30 7264 C 678.216 0.201272 2.01799 0
M  V30 7265 C 678.549 -1.19004 1.53465 0
M  V30 7266 O 677.824 -1.79953 0.738039 0
M  V30 7267 C 678.107 0.238968 3.59306 0
M  V30 7268 C 677.96 1.66594 4.17812 0
M  V30 7269 C 679.279 -0.411287 4.38174 0
M  V30 7270 H 676.398 0.0746114 0.733214 0
M  V30 7271 H 679.04 0.862872 1.69276 0
M  V30 7272 H 677.19 -0.324368 3.87144 0
M  V30 7273 H 678.862 2.28173 4.00917 0
M  V30 7274 H 677.105 2.20576 3.73536 0
M  V30 7275 H 677.776 1.64398 5.26951 0
M  V30 7276 H 680.252 0.0682804 4.16044 0
M  V30 7277 H 679.128 -0.354286 5.47755 0
M  V30 7278 H 679.389 -1.4893 4.1626 0
M  V30 7279 N 678.448 -1.51871 0.421078 0
M  V30 7280 C 679.695 -2.01938 -0.15079 0
M  V30 7281 C 680.023 -1.30611 -1.44121 0
M  V30 7282 O 679.278 -0.404631 -1.91471 0
M  V30 7283 C 679.577 -3.54764 -0.433292 0
M  V30 7284 C 679.243 -4.44288 0.76936 0
M  V30 7285 C 677.905 -4.68477 1.09921 0
M  V30 7286 C 680.257 -4.96915 1.57242 0
M  V30 7287 C 677.585 -5.4254 2.2331 0
M  V30 7288 C 679.937 -5.7222 2.69716 0
M  V30 7289 C 678.601 -5.94678 3.03174 0
M  V30 7290 H 677.871 -0.738943 -0.0551781 0
M  V30 7291 H 680.518 -1.82977 0.564945 0
M  V30 7292 H 678.823 -3.71968 -1.23074 0
M  V30 7293 H 680.52 -3.91023 -0.888922 0
M  V30 7294 H 677.11 -4.25646 0.502305 0
M  V30 7295 H 681.294 -4.78125 1.3308 0
M  V30 7296 H 676.55 -5.58146 2.49565 0
M  V30 7297 H 680.724 -6.11992 3.32323 0
M  V30 7298 H 678.351 -6.51848 3.9115 0
M  V30 7299 N 679.926 -0.151884 -1.56866 0
M  V30 7300 C 681.154 0.504813 -2.00647 0
M  V30 7301 C 681.569 1.58098 -1.03201 0
M  V30 7302 O 680.926 1.82476 -0.0297814 0
M  V30 7303 C 680.977 1.10099 -3.44326 0
M  V30 7304 O 680.698 0.0678021 -4.38048 0
M  V30 7305 C 682.199 1.83782 -4.03409 0
M  V30 7306 H 679.419 0.130989 -0.65809 0
M  V30 7307 H 681.963 -0.247903 -2.02992 0
M  V30 7308 H 680.118 1.8043 -3.42817 0
M  V30 7309 H 680.532 0.505237 -5.22061 0
M  V30 7310 H 682.006 2.2078 -5.05925 0
M  V30 7311 H 682.483 2.72557 -3.44397 0
M  V30 7312 H 683.089 1.18138 -4.08563 0
M  V30 7313 N 681.404 1.57128 0.121893 0
M  V30 7314 C 682.815 1.73902 0.679348 0
M  V30 7315 C 683.166 0.770135 1.80453 0
M  V30 7316 O 682.291 -0.0576083 2.16323 0
M  V30 7317 C 682.886 3.15328 1.2391 0
M  V30 7318 C 681.445 3.33618 1.74288 0
M  V30 7319 C 680.592 2.6978 0.641414 0
M  V30 7320 H 683.543 1.58359 -0.104 0
M  V30 7321 H 683.564 3.16718 2.10879 0
M  V30 7322 H 683.076 3.85821 0.419957 0
M  V30 7323 H 681.177 2.68162 2.58689 0
M  V30 7324 H 681.29 4.4176 1.85432 0
M  V30 7325 H 679.654 2.30935 1.0743 0
M  V30 7326 H 680.437 3.42895 -0.166707 0
M  V30 7327 N 682.882 -0.391992 1.52647 0
M  V30 7328 C 684.13 -1.13507 1.67214 0
M  V30 7329 C 684.451 -1.90575 0.41304 0
M  V30 7330 O 683.721 -1.87348 -0.572498 0
M  V30 7331 H 682.301 -0.422013 0.616372 0
M  V30 7332 H 684.963 -0.44502 1.89751 0
M  V30 7333 H 684.059 -1.83964 2.52118 0
M  V30 7334 N 684.36 -1.4356 -0.65026 0
M  V30 7335 C 685.292 -1.44918 -1.77571 0
M  V30 7336 C 686.305 -0.344925 -1.59104 0
M  V30 7337 O 687.494 -0.609537 -1.6777 0
M  V30 7338 C 684.594 -1.24914 -3.15039 0
M  V30 7339 C 683.767 -2.48232 -3.60138 0
M  V30 7340 C 682.826 -2.23409 -4.76419 0
M  V30 7341 O 681.852 -2.9678 -4.85706 0
M  V30 7342 N 683.054 -1.25259 -5.66825 0
M  V30 7343 H 685.819 -2.41935 -1.76883 0
M  V30 7344 H 683.38 -1.38754 -0.834202 0
M  V30 7345 H 685.372 -1.06185 -3.90521 0
M  V30 7346 H 683.942 -0.363319 -3.10481 0
M  V30 7347 H 683.162 -2.82366 -2.75069 0
M  V30 7348 H 684.45 -3.30296 -3.87017 0
M  V30 7349 H 683.848 -0.646246 -5.61997 0
M  V30 7350 H 682.405 -1.12513 -6.42016 0
M  V30 7351 N 685.838 0.888903 -1.30139 0
M  V30 7352 C 687.086 1.63713 -1.18501 0
M  V30 7353 C 687.407 1.9324 0.261399 0
M  V30 7354 O 686.677 1.56608 1.17689 0
M  V30 7355 H 685.257 0.606861 -0.435579 0
M  V30 7356 H 687.919 1.06525 -1.63213 0
M  V30 7357 H 687.015 2.58894 -1.743 0
M  V30 7358 N 687.317 1.12792 1.10072 0
M  V30 7359 C 688.265 0.794523 2.18609 0
M  V30 7360 C 689.259 -0.220271 1.67962 0
M  V30 7361 O 690.465 -0.0780938 1.79831 0
M  V30 7362 H 686.84 0.239123 0.712969 0
M  V30 7363 H 688.811 1.71823 2.43966 0
M  V30 7364 C 687.56 0.269548 3.46654 0
M  V30 7365 H 686.883 1.04171 3.8599 0
M  V30 7366 H 688.323 0.0746242 4.23934 0
M  V30 7367 C 686.782 -1.00333 3.21613 0
M  V30 7368 O 687.312 -2.08042 3.4363 0
M  V30 7369 N 685.518 -0.931763 2.75257 0
M  V30 7370 H 685.065 -0.0551197 2.57541 0
M  V30 7371 H 685.023 -1.78405 2.58881 0
M  V30 7372 N 688.795 -1.27931 0.920396 0
M  V30 7373 C 689.743 -2.29061 0.404191 0
M  V30 7374 C 690.737 -1.61615 -0.507634 0
M  V30 7375 O 691.943 -1.75765 -0.388144 0
M  V30 7376 H 688.318 -0.743594 0.112123 0
M  V30 7377 H 690.289 -2.70021 1.27008 0
M  V30 7378 C 689.038 -3.46088 -0.334466 0
M  V30 7379 H 688.361 -3.98194 0.35797 0
M  V30 7380 H 689.801 -4.18829 -0.660196 0
M  V30 7381 C 688.26 -2.99396 -1.54479 0
M  V30 7382 O 688.79 -3.02439 -2.64374 0
M  V30 7383 N 686.996 -2.54978 -1.39408 0
M  V30 7384 H 686.543 -2.52701 -0.500009 0
M  V30 7385 H 686.501 -2.24098 -2.20516 0
M  V30 7386 N 690.273 -0.685099 -1.4193 0
M  V30 7387 C 691.519 -0.211971 -2.01689 0
M  V30 7388 C 691.852 1.18189 -1.54094 0
M  V30 7389 O 691.127 1.79559 -0.747572 0
M  V30 7390 C 691.41 -0.258019 -3.59174 0
M  V30 7391 C 691.263 -1.68807 -4.16922 0
M  V30 7392 C 692.582 0.388044 -4.38386 0
M  V30 7393 H 689.701 -0.0784987 -0.732808 0
M  V30 7394 H 692.343 -0.871837 -1.68816 0
M  V30 7395 H 690.493 0.303832 -3.8731 0
M  V30 7396 H 692.165 -2.30296 -3.99702 0
M  V30 7397 H 690.408 -2.22553 -3.72361 0
M  V30 7398 H 691.079 -1.6719 -5.26072 0
M  V30 7399 H 693.555 -0.0903432 -4.16002 0
M  V30 7400 H 692.431 0.325232 -5.47936 0
M  V30 7401 H 692.692 1.4672 -4.17044 0
M  V30 7402 N 691.751 1.51645 -0.429126 0
M  V30 7403 C 692.981 2.06133 0.138793 0
M  V30 7404 C 693.389 1.29735 1.37716 0
M  V30 7405 O 692.732 0.347955 1.80375 0
M  V30 7406 C 692.794 3.55504 0.534493 0
M  V30 7407 C 692.458 4.53098 -0.595917 0
M  V30 7408 C 693.455 4.98815 -1.46558 0
M  V30 7409 C 691.14 4.96296 -0.774309 0
M  V30 7410 C 693.134 5.86394 -2.4984 0
M  V30 7411 C 690.821 5.83667 -1.81042 0
M  V30 7412 C 691.819 6.28613 -2.67086 0
M  V30 7413 O 691.507 7.14251 -3.68919 0
M  V30 7414 H 691.239 0.675833 0.0150263 0
M  V30 7415 H 693.793 1.96301 -0.604584 0
M  V30 7416 H 692.023 3.63092 1.33045 0
M  V30 7417 H 693.712 3.92545 1.03262 0
M  V30 7418 H 694.478 4.66143 -1.33925 0
M  V30 7419 H 690.357 4.60859 -0.114178 0
M  V30 7420 H 693.901 6.21398 -3.17034 0
M  V30 7421 H 689.798 6.15753 -1.93698 0
M  V30 7422 H 690.566 7.3241 -3.65402 0
M  V30 7423 N 693.229 0.160201 1.56784 0
M  V30 7424 C 694.478 -0.487619 1.95717 0
M  V30 7425 C 694.791 -1.65136 1.0483 0
M  V30 7426 O 695.997 -2.36468 1.33398 0
M  V30 7427 C 694.453 -0.91888 3.47972 0
M  V30 7428 C 694.061 0.218655 4.47466 0
M  V30 7429 C 695.805 -1.53575 3.95746 0
M  V30 7430 C 693.712 -0.231614 5.90946 0
M  V30 7431 H 692.642 -0.185939 0.730714 0
M  V30 7432 H 695.293 0.246657 1.81835 0
M  V30 7433 H 693.675 -1.70881 3.57234 0
M  V30 7434 H 694.849 0.995825 4.49911 0
M  V30 7435 H 693.164 0.744767 4.09685 0
M  V30 7436 H 695.761 -1.88448 5.00391 0
M  V30 7437 H 696.104 -2.42959 3.38048 0
M  V30 7438 H 696.637 -0.810467 3.89456 0
M  V30 7439 H 693.376 0.62718 6.52493 0
M  V30 7440 H 692.896 -0.974379 5.91833 0
M  V30 7441 H 694.575 -0.67922 6.43425 0
M  V30 7442 N 694.707 -1.5719 -0.113559 0
M  V30 7443 C 695.954 -1.85138 -0.820382 0
M  V30 7444 C 696.282 -0.74608 -1.79622 0
M  V30 7445 O 695.537 0.262077 -1.93937 0
M  V30 7446 C 695.836 -3.19593 -1.59984 0
M  V30 7447 C 695.502 -4.44315 -0.767809 0
M  V30 7448 C 694.164 -4.78179 -0.538379 0
M  V30 7449 C 696.516 -5.2086 -0.188203 0
M  V30 7450 C 693.844 -5.86028 0.28082 0
M  V30 7451 C 696.196 -6.29572 0.618217 0
M  V30 7452 C 694.86 -6.61964 0.857912 0
M  V30 7453 H 694.13 -0.677467 -0.300199 0
M  V30 7454 H 696.777 -1.91322 -0.0825443 0
M  V30 7455 H 695.082 -3.0901 -2.40874 0
M  V30 7456 H 696.779 -3.3844 -2.1508 0
M  V30 7457 H 693.369 -4.17786 -0.956724 0
M  V30 7458 H 697.553 -4.95045 -0.352658 0
M  V30 7459 H 692.809 -6.09547 0.475693 0
M  V30 7460 H 696.983 -6.88064 1.0743 0
M  V30 7461 H 694.61 -7.45365 1.49451 0
M  V30 7462 N 696.185 0.383891 -1.52853 0
M  V30 7463 C 697.596 0.961591 -1.60032 0
M  V30 7464 C 697.947 1.90819 -0.456333 0
M  V30 7465 O 697.072 2.12288 0.419873 0
M  V30 7466 C 697.667 1.75078 -2.90057 0
M  V30 7467 C 696.226 2.2781 -2.99632 0
M  V30 7468 C 695.373 1.08512 -2.55187 0
M  V30 7469 H 698.324 0.163269 -1.57858 0
M  V30 7470 H 698.345 2.61046 -2.7683 0
M  V30 7471 H 697.857 1.06157 -3.73299 0
M  V30 7472 H 695.958 3.00028 -2.20939 0
M  V30 7473 H 696.071 2.56947 -4.0437 0
M  V30 7474 H 694.435 1.44667 -2.09627 0
M  V30 7475 H 695.218 0.41118 -3.40829 0
M  V30 7476 N 697.663 1.43903 0.642637 0
M  V30 7477 C 698.911 1.45791 1.39962 0
M  V30 7478 C 699.232 0.0873144 1.94804 0
M  V30 7479 O 698.502 -0.878825 1.75081 0
M  V30 7480 H 697.082 0.536797 0.519479 0
M  V30 7481 H 699.744 1.7959 0.757189 0
M  V30 7482 H 698.84 2.17665 2.2367 0
M  V30 7483 N 699.141 -0.881989 1.30609 0
M  V30 7484 C 700.387 -1.63647 1.19781 0
M  V30 7485 C 700.72 -1.92632 -0.246265 0
M  V30 7486 O 699.995 -1.54938 -1.17577 0
M  V30 7487 C 700.278 -2.97437 2.02985 0
M  V30 7488 C 700.131 -2.75406 3.55628 0
M  V30 7489 C 701.45 -3.98397 1.86997 0
M  V30 7490 H 698.569 -0.593841 0.436488 0
M  V30 7491 H 701.211 -1.02041 1.60273 0
M  V30 7492 H 699.361 -3.50018 1.68581 0
M  V30 7493 H 701.033 -2.2959 4.00107 0
M  V30 7494 H 699.276 -2.09856 3.79662 0
M  V30 7495 H 699.947 -3.70552 4.09139 0
M  V30 7496 H 702.423 -3.54986 2.17081 0
M  V30 7497 H 701.299 -4.89916 2.47536 0
M  V30 7498 H 701.56 -4.3424 0.829943 0
M  V30 7499 N 700.619 -1.13374 -1.09472 0
M  V30 7500 C 701.582 -0.813639 -2.14272 0
M  V30 7501 C 702.582 0.176677 -1.59826 0
M  V30 7502 O 703.772 -0.0503441 -1.74127 0
M  V30 7503 C 700.904 -0.210897 -3.40247 0
M  V30 7504 H 702.097 -1.74229 -2.44099 0
M  V30 7505 H 699.65 -0.938304 -1.25002 0
M  V30 7506 H 700.385 0.726998 -3.16046 0
M  V30 7507 H 700.17 -0.924048 -3.81056 0
M  V30 7508 H 701.66 -0.00377603 -4.176 0
M  V30 7509 N 702.098 1.27442 -0.927168 0
M  V30 7510 C 703.028 2.29256 -0.443188 0
M  V30 7511 C 704.009 1.62701 0.49624 0
M  V30 7512 O 705.194 1.90013 0.401105 0
M  V30 7513 C 702.324 3.45955 0.305366 0
M  V30 7514 C 701.278 4.24501 -0.546178 0
M  V30 7515 C 700.604 5.33671 0.331512 0
M  V30 7516 C 701.904 4.89921 -1.81037 0
M  V30 7517 H 703.598 2.69988 -1.29409 0
M  V30 7518 H 701.144 1.29792 -0.623705 0
M  V30 7519 H 703.097 4.1628 0.654885 0
M  V30 7520 H 701.821 3.04138 1.19029 0
M  V30 7521 H 700.48 3.55921 -0.878398 0
M  V30 7522 H 700.128 4.88096 1.21537 0
M  V30 7523 H 699.828 5.87131 -0.234746 0
M  V30 7524 H 701.352 6.0684 0.676614 0
M  V30 7525 H 702.766 5.52536 -1.52895 0
M  V30 7526 H 701.163 5.53436 -2.32009 0
M  V30 7527 H 702.233 4.13652 -2.53021 0
M  V30 7528 N 703.576 0.692616 1.41565 0
M  V30 7529 C 704.539 0.0344174 2.29174 0
M  V30 7530 C 705.539 -0.710961 1.44229 0
M  V30 7531 O 706.729 -0.546293 1.65412 0
M  V30 7532 C 703.861 -0.961682 3.27054 0
M  V30 7533 H 705.054 0.805755 2.88873 0
M  V30 7534 H 702.607 0.455947 1.49502 0
M  V30 7535 H 703.342 -1.76089 2.72329 0
M  V30 7536 H 703.127 -0.430375 3.89731 0
M  V30 7537 H 704.617 -1.4201 3.92712 0
M  V30 7538 N 705.054 -1.51416 0.437162 0
M  V30 7539 C 706.3 -2.02386 -0.129555 0
M  V30 7540 C 706.633 -1.32071 -1.42376 0
M  V30 7541 O 705.908 -0.43559 -1.8956 0
M  V30 7542 C 706.191 -3.5841 -0.348487 0
M  V30 7543 C 706.044 -4.39341 0.964352 0
M  V30 7544 C 707.363 -4.25654 -1.11834 0
M  V30 7545 H 704.482 -0.735587 -0.0456109 0
M  V30 7546 H 707.124 -1.81055 0.576124 0
M  V30 7547 H 705.274 -3.76716 -0.949592 0
M  V30 7548 H 706.946 -4.32685 1.59942 0
M  V30 7549 H 705.189 -4.04432 1.56898 0
M  V30 7550 H 705.86 -5.4667 0.765212 0
M  V30 7551 H 708.336 -4.11617 -0.609165 0
M  V30 7552 H 707.212 -5.34704 -1.24029 0
M  V30 7553 H 707.473 -3.86502 -2.14636 0
M  V30 7554 N 706.532 -0.168513 -1.56696 0
M  V30 7555 C 707.781 0.477233 -1.95973 0
M  V30 7556 C 708.094 1.64578 -1.05704 0
M  V30 7557 O 709.3 2.35758 -1.3465 0
M  V30 7558 C 707.756 0.900413 -3.48455 0
M  V30 7559 C 707.364 -0.242382 -4.47344 0
M  V30 7560 C 709.108 1.51474 -3.96555 0
M  V30 7561 C 707.015 0.200272 -5.91061 0
M  V30 7562 H 705.945 0.182061 -0.73169 0
M  V30 7563 H 708.596 -0.256297 -1.81701 0
M  V30 7564 H 706.978 1.68984 -3.58135 0
M  V30 7565 H 708.152 -1.01967 -4.49377 0
M  V30 7566 H 706.467 -0.766484 -4.09285 0
M  V30 7567 H 709.064 1.85792 -5.01384 0
M  V30 7568 H 709.407 2.41163 -3.39332 0
M  V30 7569 H 709.94 0.789802 -3.89881 0
M  V30 7570 H 706.679 -0.661775 -6.52151 0
M  V30 7571 H 706.199 0.942979 -5.92341 0
M  V30 7572 H 707.878 0.645088 -6.43776 0
M  V30 7573 N 708.01 1.57248 0.105221 0
M  V30 7574 C 708.94 2.04374 1.12931 0
M  V30 7575 C 709.921 0.93074 1.42377 0
M  V30 7576 O 711.106 1.20136 1.52581 0
M  V30 7577 C 708.236 2.45967 2.45189 0
M  V30 7578 C 707.19 3.60838 2.30174 0
M  V30 7579 C 706.516 3.88374 3.67518 0
M  V30 7580 C 707.816 4.92084 1.75073 0
M  V30 7581 H 709.51 2.9018 0.737287 0
M  V30 7582 H 707.056 1.39601 0.353211 0
M  V30 7583 H 709.009 2.77542 3.17094 0
M  V30 7584 H 707.733 1.57148 2.86308 0
M  V30 7585 H 706.392 3.29493 1.60716 0
M  V30 7586 H 706.04 2.96739 4.06147 0
M  V30 7587 H 705.74 4.65703 3.58321 0
M  V30 7588 H 707.264 4.22415 4.40906 0
M  V30 7589 H 708.678 5.22106 2.36809 0
M  V30 7590 H 707.075 5.73507 1.76662 0
M  V30 7591 H 708.145 4.79684 0.709347 0
M  V30 7592 N 709.488 -0.375779 1.53054 0
M  V30 7593 C 710.728 -1.12828 1.70438 0
M  V30 7594 C 711.092 -1.86854 0.441527 0
M  V30 7595 O 712.293 -2.64261 0.491908 0
M  V30 7596 C 710.564 -2.07009 2.91345 0
M  V30 7597 S 712.123 -2.89917 3.29383 0
M  V30 7598 H 708.941 -0.381736 0.599832 0
M  V30 7599 H 711.543 -0.4109 1.91133 0
M  V30 7600 H 710.247 -1.51371 3.81464 0
M  V30 7601 H 709.778 -2.83236 2.73022 0
M  V30 7602 H 711.793 -4.0924 2.80601 0
M  V30 7603 N 710.966 -1.44241 -0.634997 0
M  V30 7604 C 711.914 -1.51103 -1.76835 0
M  V30 7605 C 712.908 -0.383051 -1.65012 0
M  V30 7606 O 714.114 -0.557832 -1.71138 0
M  V30 7607 H 710.489 -0.474076 -0.583743 0
M  V30 7608 H 712.46 -2.46499 -1.68169 0
M  V30 7609 C 711.209 -1.4687 -3.15158 0
M  V30 7610 H 710.532 -2.32979 -3.24901 0
M  V30 7611 H 711.972 -1.55731 -3.94365 0
M  V30 7612 C 710.431 -0.188884 -3.3637 0
M  V30 7613 O 710.961 0.742487 -3.94778 0
M  V30 7614 N 709.167 -0.0932516 -2.9045 0
M  V30 7615 H 708.714 -0.852004 -2.43102 0
M  V30 7616 H 708.672 0.762308 -3.05018 0
M  V30 7617 N 712.444 0.87505 -1.31075 0
M  V30 7618 C 713.672 1.66058 -1.23419 0
M  V30 7619 C 714.087 1.87723 0.201347 0
M  V30 7620 O 713.444 1.43178 1.13165 0
M  V30 7621 C 713.495 3.03142 -1.96945 0
M  V30 7622 O 713.216 2.82448 -3.34895 0
M  V30 7623 C 714.717 3.97583 -1.96067 0
M  V30 7624 H 711.937 0.517868 -0.426677 0
M  V30 7625 H 714.481 1.09258 -1.72867 0
M  V30 7626 H 712.636 3.56645 -1.51271 0
M  V30 7627 H 713.05 3.69483 -3.72267 0
M  V30 7628 H 714.524 4.91104 -2.52034 0
M  V30 7629 H 715.001 4.2898 -0.941961 0
M  V30 7630 H 715.607 3.50015 -2.41597 0
M  V30 7631 N 713.922 1.13953 1.08869 0
M  V30 7632 C 715.338 0.878924 1.33218 0
M  V30 7633 C 715.538 -0.482478 1.95638 0
M  V30 7634 O 714.594 -1.22778 2.2064 0
M  V30 7635 C 715.907 2.00798 2.23832 0
M  V30 7636 C 717.455 2.04073 2.37325 0
M  V30 7637 C 717.93 3.16258 3.31278 0
M  V30 7638 N 719.421 3.15805 3.38853 0
M  V30 7639 C 720.156 3.99249 4.11567 0
M  V30 7640 N 719.652 4.92721 4.87029 0
M  V30 7641 N 721.445 3.87327 4.0735 0
M  V30 7642 H 713.596 2.01645 0.66731 0
M  V30 7643 H 715.859 0.878395 0.356547 0
M  V30 7644 H 715.565 2.98986 1.85203 0
M  V30 7645 H 715.439 1.92704 3.24261 0
M  V30 7646 H 717.826 1.06495 2.75214 0
M  V30 7647 H 717.907 2.16239 1.36654 0
M  V30 7648 H 717.551 4.14079 2.9411 0
M  V30 7649 H 717.481 3.0133 4.31866 0
M  V30 7650 H 719.972 2.48102 2.8505 0
M  V30 7651 H 720.285 5.52867 5.39961 0
M  V30 7652 H 718.63 4.96723 4.86098 0
M  V30 7653 H 721.821 3.13627 3.475 0
M  V30 7654 H 721.994 4.52585 4.63757 0
M  V30 7655 N 715.4 -1.26948 0.933913 0
M  V30 7656 C 716.35 -2.24306 0.408779 0
M  V30 7657 C 717.334 -1.53243 -0.490435 0
M  V30 7658 O 718.526 -1.73956 -0.326866 0
M  V30 7659 C 715.655 -3.41695 -0.331578 0
M  V30 7660 C 714.741 -4.20053 0.58451 0
M  V30 7661 N 715.132 -4.76122 1.70709 0
M  V30 7662 C 713.43 -4.44303 0.388703 0
M  V30 7663 C 714.131 -5.35267 2.27737 0
M  V30 7664 N 713.107 -5.20548 1.56622 0
M  V30 7665 H 716.909 -2.65244 1.26582 0
M  V30 7666 H 714.423 -1.4195 0.788919 0
M  V30 7667 H 716.42 -4.10552 -0.724774 0
M  V30 7668 H 715.08 -3.02286 -1.18547 0
M  V30 7669 H 716.091 -4.73884 2.08937 0
M  V30 7670 H 712.768 -4.15341 -0.424016 0
M  V30 7671 H 714.158 -5.89563 3.22282 0
M  V30 7672 N 716.879 -0.700114 -1.41195 0
M  V30 7673 C 718.128 -0.230082 -2.00383 0
M  V30 7674 C 718.441 1.17857 -1.56106 0
M  V30 7675 O 719.647 1.74631 -2.07885 0
M  V30 7676 C 718.103 -0.360447 -3.5809 0
M  V30 7677 C 717.711 -1.77475 -4.11347 0
M  V30 7678 C 719.455 0.0495799 -4.24471 0
M  V30 7679 C 717.362 -1.85653 -5.61504 0
M  V30 7680 H 716.292 -0.0822633 -0.749499 0
M  V30 7681 H 718.943 -0.868969 -1.6162 0
M  V30 7682 H 717.325 0.346768 -3.94479 0
M  V30 7683 H 718.499 -2.51109 -3.86369 0
M  V30 7684 H 716.814 -2.13486 -3.57509 0
M  V30 7685 H 719.411 0.00898219 -5.34699 0
M  V30 7686 H 719.754 1.08904 -4.01803 0
M  V30 7687 H 720.287 -0.607521 -3.93134 0
M  V30 7688 H 717.026 -2.87667 -5.89006 0
M  V30 7689 H 716.546 -1.1641 -5.88395 0
M  V30 7690 H 718.225 -1.62151 -6.26351 0
M  V30 7691 N 718.357 1.51182 -0.445186 0
M  V30 7692 C 719.582 2.07056 0.119445 0
M  V30 7693 C 720.007 1.30966 1.35016 0
M  V30 7694 O 719.365 0.349827 1.77893 0
M  V30 7695 C 719.413 3.58234 0.412428 0
M  V30 7696 O 718.517 3.84249 1.49754 0
M  V30 7697 H 717.858 0.663998 -0.00157797 0
M  V30 7698 H 720.388 1.94699 -0.628779 0
M  V30 7699 H 720.398 4.02617 0.660583 0
M  V30 7700 H 719.073 4.13038 -0.487049 0
M  V30 7701 H 717.65 3.51724 1.23873 0
M  V30 7702 N 719.835 0.176821 1.56605 0
M  V30 7703 C 721.112 -0.513365 1.88743 0
M  V30 7704 C 721.492 -1.80929 1.08757 0
M  V30 7705 O 720.84 -2.27765 0.183127 0
M  V30 7706 C 721.05 -0.749925 3.40848 0
M  V30 7707 C 722.398 -1.07747 4.10701 0
M  V30 7708 O 723.422 -0.838277 3.46196 0
M  V30 7709 O 722.281 -1.52901 5.24675 0
M  V30 7710 H 719.375 -0.265296 0.783292 0
M  V30 7711 H 721.921 0.215669 1.68324 0
M  V30 7712 H 720.693 0.16599 3.90948 0
M  V30 7713 H 720.316 -1.53208 3.66897 0
M  V30 7714 N 721.313 -1.57302 -0.09688 0
M  V30 7715 C 722.538 -1.9058 -0.818169 0
M  V30 7716 C 722.963 -0.770921 -1.71576 0
M  V30 7717 O 722.321 0.277588 -1.79162 0
M  V30 7718 C 722.369 -3.22714 -1.60898 0
M  V30 7719 O 721.473 -3.10178 -2.71779 0
M  V30 7720 H 720.814 -0.624759 -0.224882 0
M  V30 7721 H 723.344 -2.04471 -0.07264 0
M  V30 7722 H 723.354 -3.55978 -1.99358 0
M  V30 7723 H 722.029 -4.04899 -0.950227 0
M  V30 7724 H 720.606 -2.88424 -2.3636 0
M  V30 7725 N 722.791 0.367657 -1.53252 0
M  V30 7726 C 724.037 1.11216 -1.69584 0
M  V30 7727 C 724.37 1.89026 -0.445269 0
M  V30 7728 O 723.645 1.86342 0.557404 0
M  V30 7729 C 723.928 2.07308 -2.94441 0
M  V30 7730 C 723.781 1.3312 -4.2965 0
M  V30 7731 C 725.1 3.07459 -3.14892 0
M  V30 7732 H 722.219 0.40294 -0.617096 0
M  V30 7733 H 724.861 0.393201 -1.85887 0
M  V30 7734 H 723.011 2.68617 -2.80673 0
M  V30 7735 H 724.683 0.746111 -4.55226 0
M  V30 7736 H 722.926 0.633051 -4.29156 0
M  V30 7737 H 723.597 2.03443 -5.13142 0
M  V30 7738 H 726.073 2.56252 -3.27832 0
M  V30 7739 H 724.949 3.71919 -4.03693 0
M  V30 7740 H 725.21 3.77514 -2.30077 0
M  V30 7741 N 724.269 1.44576 0.627338 0
M  V30 7742 C 725.516 1.47558 1.38682 0
M  V30 7743 C 725.844 0.109636 1.94191 0
M  V30 7744 O 725.099 -0.889092 1.74338 0
M  V30 7745 C 725.398 2.48644 2.56731 0
M  V30 7746 C 725.064 3.93873 2.19489 0
M  V30 7747 C 723.726 4.33421 2.09045 0
M  V30 7748 C 726.078 4.85286 1.90124 0
M  V30 7749 C 723.406 5.62303 1.6743 0
M  V30 7750 C 725.758 6.14559 1.50001 0
M  V30 7751 C 724.422 6.53058 1.38101 0
M  V30 7752 H 723.692 0.539955 0.507474 0
M  V30 7753 H 726.339 1.77811 0.711021 0
M  V30 7754 H 724.644 2.11889 3.29561 0
M  V30 7755 H 726.341 2.48197 3.14959 0
M  V30 7756 H 722.931 3.62587 2.28537 0
M  V30 7757 H 727.115 4.55483 1.971 0
M  V30 7758 H 722.371 5.90945 1.56823 0
M  V30 7759 H 726.545 6.84848 1.26319 0
M  V30 7760 H 724.172 7.52826 1.05628 0
M  V30 7761 N 725.747 -0.868086 1.31537 0
M  V30 7762 C 726.677 -1.99131 1.21939 0
M  V30 7763 C 727.658 -1.69768 0.106166 0
M  V30 7764 O 728.843 -1.92006 0.291081 0
M  V30 7765 C 725.973 -3.34676 0.927879 0
M  V30 7766 C 724.927 -3.7835 2.00088 0
M  V30 7767 C 724.253 -5.11375 1.56203 0
M  V30 7768 C 725.553 -3.95256 3.41424 0
M  V30 7769 H 727.247 -2.07419 2.15911 0
M  V30 7770 H 724.793 -0.996569 1.03945 0
M  V30 7771 H 726.746 -4.12793 0.847327 0
M  V30 7772 H 725.47 -3.26565 -0.0475042 0
M  V30 7773 H 724.129 -3.02474 2.07135 0
M  V30 7774 H 723.777 -4.99709 0.57445 0
M  V30 7775 H 723.477 -5.41568 2.27985 0
M  V30 7776 H 725.001 -5.92001 1.49558 0
M  V30 7777 H 726.415 -4.63764 3.3704 0
M  V30 7778 H 724.812 -4.36849 4.1144 0
M  V30 7779 H 725.882 -2.98579 3.82072 0
M  V30 7780 N 727.225 -1.14528 -1.08264 0
M  V30 7781 C 728.135 -0.84728 -2.18765 0
M  V30 7782 C 729.151 0.172826 -1.7314 0
M  V30 7783 O 730.327 0.000985336 -2.014 0
M  V30 7784 C 727.392 -0.330633 -3.4512 0
M  V30 7785 C 726.453 -1.41348 -4.05363 0
M  V30 7786 C 725.686 -0.921387 -5.25686 0
M  V30 7787 O 725.909 0.236587 -5.69909 0
M  V30 7788 O 724.843 -1.70101 -5.77364 0
M  V30 7789 H 728.669 -1.7708 -2.46731 0
M  V30 7790 H 726.254 -0.923661 -1.17426 0
M  V30 7791 H 728.136 -0.0485053 -4.21372 0
M  V30 7792 H 726.811 0.565147 -3.18728 0
M  V30 7793 H 725.718 -1.74908 -3.30693 0
M  V30 7794 H 727.051 -2.28383 -4.36007 0
M  V30 7795 N 728.703 1.26451 -0.940633 0
M  V30 7796 C 729.666 2.24651 -0.454378 0
M  V30 7797 C 730.666 1.54826 0.434222 0
M  V30 7798 O 731.856 1.72628 0.233477 0
M  V30 7799 C 728.988 3.39148 0.345192 0
M  V30 7800 H 730.181 2.69182 -1.32217 0
M  V30 7801 H 727.734 1.38596 -0.722547 0
M  V30 7802 H 728.469 3.00018 1.23125 0
M  V30 7803 H 728.254 3.9101 -0.292107 0
M  V30 7804 H 729.744 4.12103 0.675341 0
M  V30 7805 N 730.181 0.707592 1.40822 0
M  V30 7806 C 731.144 0.0587224 2.29125 0
M  V30 7807 C 732.144 -0.695624 1.44975 0
M  V30 7808 O 733.334 -0.528718 1.65983 0
M  V30 7809 C 730.466 -0.926939 3.28056 0
M  V30 7810 H 731.659 0.836349 2.88002 0
M  V30 7811 H 729.212 0.471778 1.4901 0
M  V30 7812 H 729.947 -1.7319 2.74182 0
M  V30 7813 H 729.732 -0.389015 3.90165 0
M  V30 7814 H 731.222 -1.37837 3.94196 0
M  V30 7815 N 731.66 -1.50943 0.453197 0
M  V30 7816 C 732.607 -2.28128 -0.350197 0
M  V30 7817 C 733.577 -1.32398 -1.00299 0
M  V30 7818 O 734.762 -1.61319 -1.01887 0
M  V30 7819 C 731.902 -3.13782 -1.43649 0
M  V30 7820 C 731.015 -4.24523 -0.800255 0
M  V30 7821 C 730.15 -4.97462 -1.86293 0
M  V30 7822 C 729.189 -6.00102 -1.20598 0
M  V30 7823 N 728.326 -6.66387 -2.21071 0
M  V30 7824 H 733.166 -2.96337 0.31434 0
M  V30 7825 H 730.703 -1.46151 0.166863 0
M  V30 7826 H 732.661 -3.6178 -2.07776 0
M  V30 7827 H 731.291 -2.47655 -2.07044 0
M  V30 7828 H 730.343 -3.80371 -0.0468651 0
M  V30 7829 H 731.655 -4.98009 -0.280777 0
M  V30 7830 H 730.809 -5.49088 -2.58044 0
M  V30 7831 H 729.548 -4.23642 -2.41617 0
M  V30 7832 H 728.553 -5.47753 -0.474 0
M  V30 7833 H 729.778 -6.75887 -0.659859 0
M  V30 7834 H 727.724 -5.9537 -2.75446 0
M  V30 7835 H 727.641 -7.3569 -1.74058 0
M  V30 7836 H 728.909 -7.22638 -2.92257 0
M  V30 7837 N 733.138 -0.185124 -1.56509 0
M  V30 7838 C 734.101 0.72591 -2.17401 0
M  V30 7839 C 735.101 1.14819 -1.12575 0
M  V30 7840 O 736.291 1.0629 -1.38015 0
M  V30 7841 C 733.423 1.98979 -2.76803 0
M  V30 7842 H 734.616 0.195588 -2.99262 0
M  V30 7843 H 732.169 0.0644772 -1.56167 0
M  V30 7844 H 732.904 2.56287 -1.98714 0
M  V30 7845 H 732.689 1.69583 -3.53531 0
M  V30 7846 H 734.179 2.63966 -3.23592 0
M  V30 7847 N 734.616 1.57351 0.0885366 0
M  V30 7848 C 735.546 2.05561 1.10757 0
M  V30 7849 C 736.527 0.945789 1.41382 0
M  V30 7850 O 737.712 1.21747 1.51299 0
M  V30 7851 C 734.842 2.48554 2.42566 0
M  V30 7852 C 733.796 3.63259 2.26334 0
M  V30 7853 C 733.122 3.9225 3.63378 0
M  V30 7854 C 734.422 4.93913 1.69844 0
M  V30 7855 H 736.116 2.90946 0.706468 0
M  V30 7856 H 733.662 1.39968 0.338385 0
M  V30 7857 H 735.615 2.8089 3.14132 0
M  V30 7858 H 734.339 1.60176 2.84625 0
M  V30 7859 H 732.998 3.31179 1.57213 0
M  V30 7860 H 732.646 3.0103 4.02976 0
M  V30 7861 H 732.346 4.69478 3.53362 0
M  V30 7862 H 733.87 4.27067 4.36401 0
M  V30 7863 H 735.284 5.24588 2.31258 0
M  V30 7864 H 733.681 5.75349 1.70569 0
M  V30 7865 H 734.751 4.80409 0.65843 0
M  V30 7866 N 736.094 -0.359525 1.53444 0
M  V30 7867 C 737.322 -1.12198 1.73837 0
M  V30 7868 C 737.737 -1.82854 0.470107 0
M  V30 7869 O 737.094 -1.73781 -0.557349 0
M  V30 7870 C 737.145 -2.14769 2.90786 0
M  V30 7871 O 736.866 -1.46989 4.12706 0
M  V30 7872 C 738.367 -3.03514 3.231 0
M  V30 7873 H 735.587 -0.33524 0.581253 0
M  V30 7874 H 738.131 -0.416598 2.00212 0
M  V30 7875 H 736.286 -2.80896 2.66788 0
M  V30 7876 H 736.7 -2.15378 4.78239 0
M  V30 7877 H 738.174 -3.71453 4.08322 0
M  V30 7878 H 738.651 -3.68658 2.38721 0
M  V30 7879 H 739.257 -2.42996 3.49046 0
M  V30 7880 N 737.572 -1.44907 -0.619662 0
M  V30 7881 C 738.797 -1.52021 -1.41083 0
M  V30 7882 C 739.222 -0.14976 -1.87503 0
M  V30 7883 O 738.58 0.863303 -1.59426 0
M  V30 7884 C 738.628 -2.49911 -2.59955 0
M  V30 7885 O 737.732 -2.00857 -3.60181 0
M  V30 7886 H 737.073 -0.512912 -0.421684 0
M  V30 7887 H 739.603 -1.90149 -0.755282 0
M  V30 7888 H 739.613 -2.68323 -3.07354 0
M  V30 7889 H 738.288 -3.4945 -2.25516 0
M  V30 7890 H 736.865 -1.92265 -3.19513 0
M  V30 7891 N 739.05 0.861098 -1.31996 0
M  V30 7892 C 739.982 1.97551 -1.16216 0
M  V30 7893 C 740.995 1.625 -0.0988527 0
M  V30 7894 O 742.184 1.75091 -0.3472 0
M  V30 7895 C 739.284 3.30376 -0.755307 0
M  V30 7896 C 738.457 3.93711 -1.90552 0
M  V30 7897 C 737.516 5.04862 -1.48328 0
M  V30 7898 O 736.542 5.25204 -2.19431 0
M  V30 7899 N 737.744 5.79283 -0.375656 0
M  V30 7900 H 740.509 2.11632 -2.12208 0
M  V30 7901 H 738.07 1.03559 -1.24448 0
M  V30 7902 H 740.062 4.0213 -0.455364 0
M  V30 7903 H 738.632 3.12395 0.113269 0
M  V30 7904 H 737.852 3.14825 -2.37231 0
M  V30 7905 H 739.14 4.32762 -2.67571 0
M  V30 7906 H 738.538 5.65286 0.216284 0
M  V30 7907 H 737.095 6.5166 -0.135289 0
M  V30 7908 N 740.528 1.15101 1.07655 0
M  V30 7909 C 741.458 0.867864 2.16773 0
M  V30 7910 C 742.439 -0.180283 1.69142 0
M  V30 7911 O 743.624 -0.0353152 1.94168 0
M  V30 7912 C 740.754 0.35299 3.45501 0
M  V30 7913 C 739.708 1.33746 4.06566 0
M  V30 7914 C 739.034 0.681562 5.30338 0
M  V30 7915 C 740.334 2.7024 4.46954 0
M  V30 7916 H 742.028 1.78034 2.40716 0
M  V30 7917 H 739.574 0.857435 1.15689 0
M  V30 7918 H 741.527 0.142465 4.21159 0
M  V30 7919 H 740.251 -0.594945 3.21135 0
M  V30 7920 H 738.91 1.53429 3.32949 0
M  V30 7921 H 738.558 -0.272422 5.02262 0
M  V30 7922 H 738.258 1.33853 5.72151 0
M  V30 7923 H 739.782 0.48074 6.08705 0
M  V30 7924 H 741.196 2.5442 5.13754 0
M  V30 7925 H 739.593 3.32282 4.99709 0
M  V30 7926 H 740.663 3.26537 3.58471 0
M  V30 7927 N 742.006 -1.2595 0.947325 0
M  V30 7928 C 743.234 -1.97544 0.615127 0
M  V30 7929 C 743.649 -1.70484 -0.811221 0
M  V30 7930 O 743.006 -0.97662 -1.5417 0
M  V30 7931 C 743.057 -3.51236 0.855328 0
M  V30 7932 O 742.778 -3.77359 2.22558 0
M  V30 7933 C 744.279 -4.40066 0.534515 0
M  V30 7934 H 741.499 -0.629888 0.231263 0
M  V30 7935 H 744.043 -1.60308 1.26971 0
M  V30 7936 H 742.198 -3.8661 0.247266 0
M  V30 7937 H 742.612 -4.71857 2.29022 0
M  V30 7938 H 744.086 -5.46838 0.753168 0
M  V30 7939 H 744.563 -4.35982 -0.530701 0
M  V30 7940 H 745.169 -4.10245 1.12158 0
M  V30 7941 N 743.484 -0.715051 -1.40445 0
M  V30 7942 C 744.761 -0.181503 -1.94756 0
M  V30 7943 C 745.141 1.31268 -1.65324 0
M  V30 7944 O 744.489 2.0686 -0.970631 0
M  V30 7945 C 744.699 -0.493663 -3.45491 0
M  V30 7946 C 746.047 -0.432032 -4.22396 0
M  V30 7947 O 747.071 -0.429692 -3.53599 0
M  V30 7948 O 745.93 -0.409091 -5.44967 0
M  V30 7949 H 743.024 -0.0263989 -0.826579 0
M  V30 7950 H 745.57 -0.792546 -1.50056 0
M  V30 7951 H 744.342 -1.52713 -3.6027 0
M  V30 7952 H 743.965 0.14737 -3.97327 0
M  V30 7953 N 744.962 1.50701 -0.461195 0
M  V30 7954 C 745.872 2.32069 0.343661 0
M  V30 7955 C 746.888 1.42016 1.00535 0
M  V30 7956 O 748.064 1.75077 0.995498 0
M  V30 7957 C 745.129 3.16424 1.41692 0
M  V30 7958 C 744.19 4.22286 0.772869 0
M  V30 7959 C 743.423 5.02609 1.79499 0
M  V30 7960 O 743.646 4.83874 3.0203 0
M  V30 7961 O 742.58 5.86047 1.3723 0
M  V30 7962 H 746.406 3.01996 -0.321268 0
M  V30 7963 H 743.991 1.47723 -0.223235 0
M  V30 7964 H 745.873 3.68795 2.03883 0
M  V30 7965 H 744.548 2.49236 2.0655 0
M  V30 7966 H 743.455 3.73931 0.112277 0
M  V30 7967 H 744.788 4.91915 0.167399 0
M  V30 7968 N 746.441 0.193421 1.56409 0
M  V30 7969 C 747.351 -0.740112 2.2262 0
M  V30 7970 C 748.367 -1.23597 1.22474 0
M  V30 7971 O 749.543 -1.28348 1.55206 0
M  V30 7972 C 746.608 -1.94317 2.87127 0
M  V30 7973 C 745.669 -1.49205 4.02538 0
M  V30 7974 C 744.902 -2.63776 4.63959 0
M  V30 7975 O 745.125 -3.81215 4.24301 0
M  V30 7976 O 744.059 -2.36585 5.53454 0
M  V30 7977 H 747.885 -0.206238 3.02999 0
M  V30 7978 H 745.47 -0.0357938 1.49357 0
M  V30 7979 H 747.352 -2.64633 3.27944 0
M  V30 7980 H 746.027 -2.46568 2.09728 0
M  V30 7981 H 744.934 -0.757738 3.66346 0
M  V30 7982 H 746.267 -1.01622 4.81595 0
M  V30 7983 N 747.919 -1.57396 -0.0801906 0
M  V30 7984 C 748.849 -2.06145 -1.09665 0
M  V30 7985 C 749.83 -0.953273 -1.40878 0
M  V30 7986 O 751.015 -1.22548 -1.50651 0
M  V30 7987 C 748.145 -2.49836 -2.41245 0
M  V30 7988 C 747.099 -3.64454 -2.24405 0
M  V30 7989 C 746.425 -3.94172 -3.61293 0
M  V30 7990 C 747.725 -4.94807 -1.67223 0
M  V30 7991 H 749.419 -2.91316 -0.691028 0
M  V30 7992 H 746.965 -1.40145 -0.330957 0
M  V30 7993 H 748.918 -2.82552 -3.12638 0
M  V30 7994 H 747.642 -1.61683 -2.83771 0
M  V30 7995 H 746.301 -3.32008 -1.55454 0
M  V30 7996 H 745.949 -3.03163 -4.01374 0
M  V30 7997 H 745.649 -4.71345 -3.50867 0
M  V30 7998 H 747.173 -4.29376 -4.3413 0
M  V30 7999 H 748.587 -5.25807 -2.28472 0
M  V30 8000 H 746.984 -5.76245 -1.67515 0
M  V30 8001 H 748.054 -4.80751 -0.632944 0
M  V30 8002 N 749.397 0.351382 -1.53633 0
M  V30 8003 C 750.36 1.41403 -1.80383 0
M  V30 8004 C 751.36 1.45963 -0.674635 0
M  V30 8005 O 752.55 1.46476 -0.942895 0
M  V30 8006 C 749.682 2.80401 -1.93876 0
M  V30 8007 H 750.875 1.18951 -2.75301 0
M  V30 8008 H 748.428 0.58533 -1.44926 0
M  V30 8009 H 749.163 3.08147 -1.01074 0
M  V30 8010 H 748.948 2.78488 -2.7602 0
M  V30 8011 H 750.438 3.57329 -2.16116 0
M  V30 8012 N 750.875 1.45233 0.611969 0
M  V30 8013 C 751.807 1.49575 1.73666 0
M  V30 8014 C 752.82 0.386987 1.58134 0
M  V30 8015 O 754.009 0.653804 1.66095 0
M  V30 8016 C 751.109 1.33223 3.11617 0
M  V30 8017 C 750.282 2.57694 3.5343 0
M  V30 8018 C 749.341 2.35962 4.70328 0
M  V30 8019 O 748.367 3.09553 4.77667 0
M  V30 8020 N 749.569 1.40243 5.63305 0
M  V30 8021 H 752.334 2.46539 1.70407 0
M  V30 8022 H 749.895 1.40917 0.79712 0
M  V30 8023 H 751.887 1.16502 3.87569 0
M  V30 8024 H 750.457 0.44551 3.09409 0
M  V30 8025 H 749.677 2.8956 2.67486 0
M  V30 8026 H 750.965 3.40441 3.78124 0
M  V30 8027 H 750.363 0.795023 5.60086 0
M  V30 8028 H 748.92 1.29496 6.38807 0
M  V30 8029 N 752.353 -0.854086 1.3245 0
M  V30 8030 C 753.601 -1.60513 1.228 0
M  V30 8031 C 753.922 -1.93865 -0.210073 0
M  V30 8032 O 753.192 -1.59673 -1.13496 0
M  V30 8033 H 751.772 -0.595099 0.451516 0
M  V30 8034 H 754.434 -1.0216 1.6598 0
M  V30 8035 H 753.53 -2.54182 1.81102 0
M  V30 8036 N 753.831 -1.1567 -1.07043 0
M  V30 8037 C 755.247 -0.900006 -1.31803 0
M  V30 8038 C 755.447 0.451293 -1.96381 0
M  V30 8039 O 754.503 1.19252 -2.22565 0
M  V30 8040 C 755.816 -2.04334 -2.20609 0
M  V30 8041 C 757.364 -2.07823 -2.34048 0
M  V30 8042 C 757.839 -3.21488 -3.26204 0
M  V30 8043 N 759.33 -3.21156 -3.33786 0
M  V30 8044 C 760.065 -4.05746 -4.05163 0
M  V30 8045 N 759.561 -5.00407 -4.79129 0
M  V30 8046 N 761.354 -3.93759 -4.01136 0
M  V30 8047 H 753.505 -2.02681 -0.635146 0
M  V30 8048 H 755.768 -0.883956 -0.342528 0
M  V30 8049 H 755.474 -3.01895 -1.80423 0
M  V30 8050 H 755.348 -1.97838 -3.21154 0
M  V30 8051 H 757.735 -1.1086 -2.73485 0
M  V30 8052 H 757.816 -2.18386 -1.33197 0
M  V30 8053 H 757.46 -4.18706 -2.87485 0
M  V30 8054 H 757.39 -3.08162 -4.27017 0
M  V30 8055 H 759.881 -2.52606 -2.81067 0
M  V30 8056 H 760.194 -5.61387 -5.31097 0
M  V30 8057 H 758.539 -5.04393 -4.78135 0
M  V30 8058 H 761.73 -3.19115 -3.42466 0
M  V30 8059 H 761.903 -4.59906 -4.56498 0
M  V30 8060 N 755.309 1.25446 -0.953992 0
M  V30 8061 C 756.239 2.28264 -0.491717 0
M  V30 8062 C 757.22 1.63717 0.461617 0
M  V30 8063 O 758.405 1.90821 0.36071 0
M  V30 8064 C 755.535 3.46525 0.231915 0
M  V30 8065 C 754.489 4.23247 -0.636098 0
M  V30 8066 C 753.815 5.34254 0.218238 0
M  V30 8067 C 755.115 4.85971 -1.91389 0
M  V30 8068 H 756.809 2.67183 -1.35106 0
M  V30 8069 H 754.355 1.2844 -0.651095 0
M  V30 8070 H 756.308 4.17576 0.566439 0
M  V30 8071 H 755.032 3.06594 1.12551 0
M  V30 8072 H 753.691 3.53978 -0.953696 0
M  V30 8073 H 753.339 4.90564 1.11156 0
M  V30 8074 H 753.039 5.86501 -0.359232 0
M  V30 8075 H 754.563 6.08138 0.547743 0
M  V30 8076 H 755.977 5.49168 -1.64581 0
M  V30 8077 H 754.374 5.48391 -2.43696 0
M  V30 8078 H 755.444 4.08192 -2.61738 0
M  V30 8079 N 756.787 0.722489 1.40064 0
M  V30 8080 C 758.017 0.274439 2.04769 0
M  V30 8081 C 758.425 -1.09125 1.54559 0
M  V30 8082 O 757.768 -1.69834 0.700149 0
M  V30 8083 C 757.83 0.184091 3.59028 0
M  V30 8084 C 757.494 1.48619 4.32159 0
M  V30 8085 C 758.491 2.42947 4.59644 0
M  V30 8086 C 756.176 1.74703 4.7094 0
M  V30 8087 C 758.17 3.616 5.24904 0
M  V30 8088 C 755.857 2.93636 5.3593 0
M  V30 8089 C 756.855 3.86907 5.62843 0
M  V30 8090 O 756.543 5.03753 6.26489 0
M  V30 8091 H 756.275 0.119847 0.665292 0
M  V30 8092 H 758.829 0.983352 1.80331 0
M  V30 8093 H 757.059 -0.580821 3.82313 0
M  V30 8094 H 758.748 -0.230306 4.05246 0
M  V30 8095 H 759.514 2.24062 4.30141 0
M  V30 8096 H 755.393 1.02955 4.49356 0
M  V30 8097 H 758.937 4.34418 5.45827 0
M  V30 8098 H 754.834 3.12428 5.64853 0
M  V30 8099 H 755.602 5.03922 6.44984 0
M  V30 8100 N 758.265 -1.50454 0.469181 0
M  V30 8101 C 759.676 -1.86695 0.0136034 0
M  V30 8102 C 760.027 -1.38413 -1.39055 0
M  V30 8103 O 759.152 -0.748294 -2.03051 0
M  V30 8104 C 759.747 -3.38795 0.0179098 0
M  V30 8105 C 758.306 -3.74455 -0.382191 0
M  V30 8106 C 757.453 -2.74338 0.404207 0
M  V30 8107 H 760.404 -1.43225 0.683547 0
M  V30 8108 H 760.425 -3.72321 -0.78468 0
M  V30 8109 H 759.937 -3.73906 1.04 0
M  V30 8110 H 758.038 -3.44944 -1.4087 0
M  V30 8111 H 758.151 -4.79025 -0.084862 0
M  V30 8112 H 756.515 -2.54305 -0.141829 0
M  V30 8113 H 757.298 -3.12293 1.42577 0
M  V30 8114 N 759.743 -0.201713 -1.56304 0
M  V30 8115 C 761.154 0.309711 -1.84113 0
M  V30 8116 C 761.505 1.60912 -1.12258 0
M  V30 8117 O 760.63 2.12937 -0.385587 0
M  V30 8118 C 761.225 0.568706 -3.33993 0
M  V30 8119 C 759.784 1.02448 -3.6219 0
M  V30 8120 C 758.931 0.0766842 -2.77194 0
M  V30 8121 H 761.882 -0.425356 -1.52893 0
M  V30 8122 H 761.903 1.41721 -3.53122 0
M  V30 8123 H 761.415 -0.37719 -3.86263 0
M  V30 8124 H 759.516 1.98443 -3.15359 0
M  V30 8125 H 759.629 0.912619 -4.70328 0
M  V30 8126 H 757.993 0.579809 -2.48013 0
M  V30 8127 H 758.776 -0.863774 -3.32256 0
M  V30 8128 N 761.222 1.57436 0.0718424 0
M  V30 8129 C 762.152 2.06724 1.08571 0
M  V30 8130 C 763.133 0.960731 1.40371 0
M  V30 8131 O 764.318 1.23345 1.49999 0
M  V30 8132 C 761.448 2.51112 2.39916 0
M  V30 8133 C 760.402 3.65639 2.22469 0
M  V30 8134 C 759.728 3.96082 3.59198 0
M  V30 8135 C 761.028 4.95687 1.64596 0
M  V30 8136 H 762.722 2.91679 0.675569 0
M  V30 8137 H 760.268 1.40319 0.32352 0
M  V30 8138 H 762.221 2.84206 3.11135 0
M  V30 8139 H 760.945 1.63186 2.8291 0
M  V30 8140 H 759.604 3.32828 1.53691 0
M  V30 8141 H 759.252 3.05287 3.99761 0
M  V30 8142 H 758.952 4.73199 3.48362 0
M  V30 8143 H 760.476 4.31672 4.31847 0
M  V30 8144 H 761.89 5.27011 2.25681 0
M  V30 8145 H 760.287 5.77126 1.64457 0
M  V30 8146 H 761.357 4.8108 0.60744 0
M  V30 8147 N 762.7 -0.34323 1.53817 0
M  V30 8148 C 763.663 -1.40444 1.8113 0
M  V30 8149 C 764.663 -1.45604 0.682366 0
M  V30 8150 O 765.853 -1.45974 0.950649 0
M  V30 8151 C 762.985 -2.79369 1.95361 0
M  V30 8152 H 764.178 -1.17489 2.75928 0
M  V30 8153 H 761.731 -0.577636 1.45234 0
M  V30 8154 H 762.466 -3.07607 1.02707 0
M  V30 8155 H 762.251 -2.7702 2.77493 0
M  V30 8156 H 763.741 -3.56178 2.18008 0
M  V30 8157 N 764.178 -1.45556 -0.604258 0
M  V30 8158 C 765.126 -1.5482 -1.7359 0
M  V30 8159 C 766.12 -0.417966 -1.64163 0
M  V30 8160 O 767.326 -0.594007 -1.69916 0
M  V30 8161 H 763.701 -0.486352 -0.573556 0
M  V30 8162 H 765.672 -2.5001 -1.62903 0
M  V30 8163 C 764.421 -1.53521 -3.11972 0
M  V30 8164 H 763.744 -2.39818 -3.19886 0
M  V30 8165 H 765.184 -1.64061 -3.90973 0
M  V30 8166 C 763.643 -0.260191 -3.35894 0
M  V30 8167 O 764.173 0.658582 -3.96265 0
M  V30 8168 N 762.379 -0.154839 -2.90187 0
M  V30 8169 H 761.926 -0.903378 -2.4124 0
M  V30 8170 H 761.884 0.697437 -3.06567 0
M  V30 8171 N 765.656 0.84705 -1.32902 0
M  V30 8172 C 766.905 1.59667 -1.23245 0
M  V30 8173 C 767.218 1.94551 0.202349 0
M  V30 8174 O 768.424 2.68218 0.420847 0
M  V30 8175 C 766.88 2.8795 -2.15901 0
M  V30 8176 C 766.488 2.60461 -3.64505 0
M  V30 8177 C 768.232 3.65968 -2.15098 0
M  V30 8178 C 766.139 3.84791 -4.49099 0
M  V30 8179 H 765.069 0.599167 -0.457728 0
M  V30 8180 H 767.72 0.934662 -1.57912 0
M  V30 8181 H 766.102 3.55648 -1.74157 0
M  V30 8182 H 767.276 2.01026 -4.14639 0
M  V30 8183 H 765.591 1.9576 -3.67515 0
M  V30 8184 H 768.188 4.58241 -2.75534 0
M  V30 8185 H 768.531 4.00275 -1.14392 0
M  V30 8186 H 769.064 3.05184 -2.55162 0
M  V30 8187 H 765.803 3.55621 -5.50649 0
M  V30 8188 H 765.323 4.43594 -4.03713 0
M  V30 8189 H 767.002 4.52454 -4.62487 0
M  V30 8190 N 767.134 1.16236 1.06428 0
M  V30 8191 C 768.066 0.825446 2.1382 0
M  V30 8192 C 769.079 -0.166707 1.61944 0
M  V30 8193 O 770.268 0.0578606 1.78406 0
M  V30 8194 C 767.368 0.208023 3.38261 0
M  V30 8195 C 766.541 1.23994 4.19457 0
M  V30 8196 C 765.6 0.642569 5.22262 0
M  V30 8197 O 764.626 1.31106 5.53895 0
M  V30 8198 N 765.828 -0.571327 5.77682 0
M  V30 8199 H 768.593 1.7497 2.43322 0
M  V30 8200 H 766.154 1.05951 1.22417 0
M  V30 8201 H 768.146 -0.204608 4.04182 0
M  V30 8202 H 766.716 -0.619752 3.06395 0
M  V30 8203 H 765.936 1.82879 3.49212 0
M  V30 8204 H 767.224 1.93638 4.70512 0
M  V30 8205 H 766.622 -1.13263 5.54245 0
M  V30 8206 H 765.179 -0.926187 6.45186 0
M  V30 8207 N 768.612 -1.24939 0.960631 0
M  V30 8208 C 769.522 -2.29374 0.492435 0
M  V30 8209 C 770.538 -1.68262 -0.443154 0
M  V30 8210 O 771.714 -1.98875 -0.31793 0
M  V30 8211 C 768.779 -3.46023 -0.216626 0
M  V30 8212 C 767.84 -4.22557 0.757915 0
M  V30 8213 C 767.073 -5.33636 0.0825969 0
M  V30 8214 O 767.296 -5.59084 -1.13054 0
M  V30 8215 O 766.23 -5.96939 0.771177 0
M  V30 8216 H 770.056 -2.71525 1.36044 0
M  V30 8217 H 767.641 -1.30499 0.72735 0
M  V30 8218 H 769.523 -4.16885 -0.615241 0
M  V30 8219 H 768.198 -3.05862 -1.05971 0
M  V30 8220 H 767.105 -3.54099 1.20685 0
M  V30 8221 H 768.438 -4.66516 1.5692 0
M  V30 8222 N 770.09 -0.729906 -1.39679 0
M  V30 8223 C 771.336 -0.27603 -2.00913 0
M  V30 8224 C 771.669 1.13227 -1.57776 0
M  V30 8225 O 770.944 1.7709 -0.804319 0
M  V30 8226 C 771.227 -0.372157 -3.58172 0
M  V30 8227 C 771.08 -1.81986 -4.11341 0
M  V30 8228 C 772.399 0.248378 -4.39399 0
M  V30 8229 H 769.518 -0.101773 -0.729939 0
M  V30 8230 H 772.16 -0.925104 -1.65957 0
M  V30 8231 H 770.31 0.180459 -3.88081 0
M  V30 8232 H 771.982 -2.42896 -3.92172 0
M  V30 8233 H 770.225 -2.34287 -3.65092 0
M  V30 8234 H 770.896 -1.83842 -5.20486 0
M  V30 8235 H 773.372 -0.222645 -4.15504 0
M  V30 8236 H 772.248 0.150746 -5.48693 0
M  V30 8237 H 772.509 1.33378 -4.21501 0
M  V30 8238 N 771.568 1.50203 -0.477153 0
M  V30 8239 C 772.793 2.07263 0.0754986 0
M  V30 8240 C 773.218 1.33801 1.32208 0
M  V30 8241 O 772.576 0.387482 1.77111 0
M  V30 8242 C 772.624 3.59028 0.336348 0
M  V30 8243 O 771.728 3.87339 1.4157 0
M  V30 8244 H 771.069 0.663815 -0.015662 0
M  V30 8245 H 773.599 1.93321 -0.669936 0
M  V30 8246 H 773.609 4.03927 0.575034 0
M  V30 8247 H 772.284 4.11912 -0.574551 0
M  V30 8248 H 770.861 3.54272 1.16385 0
M  V30 8249 N 773.046 0.209999 1.56195 0
M  V30 8250 C 774.295 -0.425106 1.97169 0
M  V30 8251 C 774.608 -1.61718 1.10031 0
M  V30 8252 O 775.814 -2.32105 1.40853 0
M  V30 8253 C 774.27 -0.80771 3.50719 0
M  V30 8254 C 773.878 0.360902 4.46544 0
M  V30 8255 C 775.622 -1.40906 4.00432 0
M  V30 8256 C 773.529 -0.0434919 5.91384 0
M  V30 8257 H 772.459 -0.162598 0.736259 0
M  V30 8258 H 775.11 0.304382 1.80958 0
M  V30 8259 H 773.492 -1.59429 3.62489 0
M  V30 8260 H 774.666 1.13846 4.46515 0
M  V30 8261 H 772.981 0.874729 4.07109 0
M  V30 8262 H 775.578 -1.72433 5.06133 0
M  V30 8263 H 775.921 -2.32081 3.45607 0
M  V30 8264 H 776.454 -0.686154 3.91838 0
M  V30 8265 H 773.193 0.834448 6.50167 0
M  V30 8266 H 772.713 -0.785598 5.94633 0
M  V30 8267 H 774.392 -0.474176 6.4526 0
M  V30 8268 N 774.524 -1.57472 -0.0634922 0
M  V30 8269 C 775.472 -2.05307 -1.09323 0
M  V30 8270 C 776.466 -0.959995 -1.39572 0
M  V30 8271 O 777.672 -1.14507 -1.38882 0
M  V30 8272 H 774.047 -0.65472 -0.369927 0
M  V30 8273 H 776.018 -2.90925 -0.663707 0
M  V30 8274 C 774.767 -2.51954 -2.39613 0
M  V30 8275 H 774.09 -3.35662 -2.1719 0
M  V30 8276 H 775.53 -2.89169 -3.10092 0
M  V30 8277 C 773.989 -1.40596 -3.06161 0
M  V30 8278 O 774.519 -0.752722 -3.94585 0
M  V30 8279 N 772.725 -1.14902 -2.66919 0
M  V30 8280 H 772.272 -1.68205 -1.95102 0
M  V30 8281 H 772.23 -0.406006 -3.11767 0
M  V30 8282 N 776.003 0.335068 -1.53997 0
M  V30 8283 C 777.252 1.07182 -1.70865 0
M  V30 8284 C 777.565 1.89541 -0.483078 0
M  V30 8285 O 778.771 2.66219 -0.532879 0
M  V30 8286 C 777.227 1.95497 -3.02174 0
M  V30 8287 C 776.835 1.18304 -4.32097 0
M  V30 8288 C 778.579 2.68978 -3.28407 0
M  V30 8289 C 776.486 2.05699 -5.54474 0
M  V30 8290 H 775.416 0.403857 -0.636722 0
M  V30 8291 H 778.067 0.33076 -1.80494 0
M  V30 8292 H 776.449 2.73456 -2.86423 0
M  V30 8293 H 777.623 0.451969 -4.58578 0
M  V30 8294 H 775.938 0.565556 -4.12541 0
M  V30 8295 H 778.535 3.34651 -4.17029 0
M  V30 8296 H 778.878 3.36 -2.45784 0
M  V30 8297 H 779.411 1.98087 -3.44973 0
M  V30 8298 H 776.15 1.43204 -6.39666 0
M  V30 8299 H 775.67 2.76572 -5.32229 0
M  V30 8300 H 777.349 2.64554 -5.90441 0
M  V30 8301 N 777.481 1.45874 0.596531 0
M  V30 8302 C 778.444 1.54988 1.68853 0
M  V30 8303 C 779.444 0.428302 1.54991 0
M  V30 8304 O 780.634 0.692158 1.59859 0
M  V30 8305 C 777.766 1.457 3.08195 0
M  V30 8306 H 778.959 2.52294 1.62135 0
M  V30 8307 H 776.512 1.33479 0.813206 0
M  V30 8308 H 777.247 0.496204 3.20481 0
M  V30 8309 H 777.032 2.27061 3.19665 0
M  V30 8310 H 778.522 1.55133 3.87716 0
M  V30 8311 N 778.959 -0.83999 1.33349 0
M  V30 8312 C 780.208 -1.59011 1.2409 0
M  V30 8313 C 780.521 -1.94655 -0.192029 0
M  V30 8314 O 781.727 -2.68438 -0.406617 0
M  V30 8315 C 780.183 -2.86801 2.17425 0
M  V30 8316 C 779.791 -2.58525 3.65881 0
M  V30 8317 C 781.535 -3.64823 2.17036 0
M  V30 8318 C 779.442 -3.82404 4.51133 0
M  V30 8319 H 778.372 -0.596731 0.460899 0
M  V30 8320 H 781.023 -0.926274 1.58406 0
M  V30 8321 H 779.405 -3.54719 1.7604 0
M  V30 8322 H 780.579 -1.98824 4.15699 0
M  V30 8323 H 778.894 -1.93808 3.68548 0
M  V30 8324 H 781.491 -4.56774 2.7796 0
M  V30 8325 H 781.834 -3.99663 1.16513 0
M  V30 8326 H 782.367 -3.03826 2.56777 0
M  V30 8327 H 779.106 -3.52696 5.52527 0
M  V30 8328 H 778.626 -4.41447 4.0606 0
M  V30 8329 H 780.305 -4.49995 4.6488 0
M  V30 8330 N 780.437 -1.16799 -1.0581 0
M  V30 8331 C 781.384 -0.87902 -2.13405 0
M  V30 8332 C 782.354 0.174541 -1.6518 0
M  V30 8333 O 783.539 0.0386843 -1.90761 0
M  V30 8334 C 780.679 -0.391616 -3.42871 0
M  V30 8335 C 779.792 -1.50857 -4.04804 0
M  V30 8336 C 778.927 -0.975682 -5.22163 0
M  V30 8337 C 777.966 -2.06851 -5.76089 0
M  V30 8338 N 777.103 -1.55085 -6.84758 0
M  V30 8339 H 781.943 -1.80043 -2.37463 0
M  V30 8340 H 779.48 -0.898083 -1.16503 0
M  V30 8341 H 781.438 -0.0906247 -4.17102 0
M  V30 8342 H 780.068 0.49284 -3.19016 0
M  V30 8343 H 779.12 -1.92542 -3.28073 0
M  V30 8344 H 780.432 -2.33305 -4.40874 0
M  V30 8345 H 779.586 -0.628165 -6.03439 0
M  V30 8346 H 778.325 -0.120566 -4.87551 0
M  V30 8347 H 777.33 -2.42467 -4.93447 0
M  V30 8348 H 778.555 -2.92768 -6.12751 0
M  V30 8349 H 776.501 -0.718345 -6.52055 0
M  V30 8350 H 776.418 -2.31145 -7.19797 0
M  V30 8351 H 777.686 -1.23206 -7.69702 0
M  V30 8352 N 781.915 1.24427 -0.967243 0
M  V30 8353 C 783.161 1.92772 -0.629812 0
M  V30 8354 C 783.494 1.75436 0.832827 0
M  V30 8355 O 782.769 1.10716 1.59913 0
M  V30 8356 C 783.052 3.45798 -1.00477 0
M  V30 8357 C 782.905 3.72304 -2.52407 0
M  V30 8358 C 784.224 4.36787 -0.538999 0
M  V30 8359 H 781.343 0.700099 -0.230282 0
M  V30 8360 H 783.985 1.46805 -1.20616 0
M  V30 8361 H 782.135 3.8508 -0.514336 0
M  V30 8362 H 783.807 3.42584 -3.08924 0
M  V30 8363 H 782.05 3.17472 -2.95625 0
M  V30 8364 H 782.721 4.7937 -2.73693 0
M  V30 8365 H 785.197 4.04877 -0.959874 0
M  V30 8366 H 784.073 5.4259 -0.829926 0
M  V30 8367 H 784.334 4.38527 0.560923 0
M  V30 8368 N 783.393 0.737304 1.3929 0
M  V30 8369 C 784.621 0.296573 2.04763 0
M  V30 8370 C 785.036 -1.06941 1.55592 0
M  V30 8371 O 784.393 -1.67619 0.721822 0
M  V30 8372 C 784.444 0.291906 3.6032 0
M  V30 8373 O 784.165 1.60397 4.07682 0
M  V30 8374 C 785.666 -0.164708 4.42994 0
M  V30 8375 H 782.886 0.129251 0.658434 0
M  V30 8376 H 785.43 1.0016 1.78293 0
M  V30 8377 H 783.585 -0.364251 3.85684 0
M  V30 8378 H 783.999 1.51909 5.0202 0
M  V30 8379 H 785.473 -0.116814 5.51876 0
M  V30 8380 H 785.95 -1.21022 4.22197 0
M  V30 8381 H 786.556 0.461968 4.22784 0
M  V30 8382 N 784.871 -1.49948 0.485112 0
M  V30 8383 C 785.781 -2.32587 -0.306697 0
M  V30 8384 C 786.797 -1.43598 -0.982632 0
M  V30 8385 O 787.973 -1.76638 -0.967519 0
M  V30 8386 C 785.038 -3.18638 -1.3664 0
M  V30 8387 C 784.099 -4.23462 -0.705589 0
M  V30 8388 C 783.332 -5.05401 -1.7148 0
M  V30 8389 O 783.555 -4.88618 -2.94293 0
M  V30 8390 O 782.489 -5.88157 -1.27889 0
M  V30 8391 H 786.315 -3.01447 0.369272 0
M  V30 8392 H 783.9 -1.47349 0.246709 0
M  V30 8393 H 785.782 -3.71992 -1.9799 0
M  V30 8394 H 784.457 -2.52491 -2.02559 0
M  V30 8395 H 783.364 -3.74063 -0.0527733 0
M  V30 8396 H 784.697 -4.92119 -0.0891187 0
M  V30 8397 N 786.349 -0.21828 -1.56081 0
M  V30 8398 C 787.579 0.41865 -2.02314 0
M  V30 8399 C 787.987 1.54124 -1.09739 0
M  V30 8400 O 787.33 1.83435 -0.0986829 0
M  V30 8401 C 787.392 1.01439 -3.44892 0
M  V30 8402 C 787.056 0.0276523 -4.56992 0
M  V30 8403 C 788.053 -0.771526 -5.14143 0
M  V30 8404 C 785.738 -0.0901537 -5.02219 0
M  V30 8405 C 787.732 -1.67525 -6.14991 0
M  V30 8406 C 785.419 -0.997411 -6.02905 0
M  V30 8407 C 786.417 -1.78851 -6.59167 0
M  V30 8408 O 786.105 -2.68052 -7.57894 0
M  V30 8409 H 785.837 0.107066 -0.667468 0
M  V30 8410 H 788.391 -0.331191 -2.02712 0
M  V30 8411 H 786.621 1.81326 -3.41552 0
M  V30 8412 H 788.31 1.55838 -3.74792 0
M  V30 8413 H 789.076 -0.690945 -4.80053 0
M  V30 8414 H 784.955 0.515474 -4.58109 0
M  V30 8415 H 788.499 -2.29316 -6.58832 0
M  V30 8416 H 784.396 -1.07902 -6.36418 0
M  V30 8417 H 785.164 -2.6209 -7.75404 0
M  V30 8418 N 787.827 1.57504 0.0551401 0
M  V30 8419 C 788.757 2.07864 1.06372 0
M  V30 8420 C 789.738 0.975565 1.39344 0
M  V30 8421 O 790.923 1.24929 1.48682 0
M  V30 8422 C 788.053 2.53643 2.3724 0
M  V30 8423 C 787.007 3.67978 2.18578 0
M  V30 8424 C 786.333 3.9987 3.54976 0
M  V30 8425 C 787.633 4.97405 1.59329 0
M  V30 8426 H 789.327 2.92379 0.644595 0
M  V30 8427 H 786.873 1.40654 0.308619 0
M  V30 8428 H 788.826 2.8749 3.08103 0
M  V30 8429 H 787.55 1.66177 2.81163 0
M  V30 8430 H 786.209 3.3444 1.50152 0
M  V30 8431 H 785.857 3.0951 3.965 0
M  V30 8432 H 785.557 4.76867 3.43324 0
M  V30 8433 H 787.081 4.36228 4.27244 0
M  V30 8434 H 788.495 5.29375 2.20078 0
M  V30 8435 H 786.892 5.78837 1.58327 0
M  V30 8436 H 787.962 4.81697 0.55638 0
M  V30 8437 N 789.305 -0.326896 1.54172 0
M  V30 8438 C 790.535 -1.08328 1.75922 0
M  V30 8439 C 790.943 -1.82302 0.50622 0
M  V30 8440 O 790.286 -1.7581 -0.532581 0
M  V30 8441 C 790.348 -2.1294 2.8965 0
M  V30 8442 C 790.012 -1.58394 4.28673 0
M  V30 8443 C 791.009 -1.02747 5.09646 0
M  V30 8444 C 788.694 -1.62737 4.75207 0
M  V30 8445 C 790.688 -0.52169 6.35261 0
M  V30 8446 C 788.375 -1.11772 6.00791 0
M  V30 8447 C 789.373 -0.565819 6.80652 0
M  V30 8448 O 789.061 -0.0638146 8.03875 0
M  V30 8449 H 788.793 -0.3282 0.590983 0
M  V30 8450 H 791.347 -0.37972 2.0186 0
M  V30 8451 H 789.577 -2.86903 2.59275 0
M  V30 8452 H 791.266 -2.74274 2.99213 0
M  V30 8453 H 792.032 -0.987007 4.74851 0
M  V30 8454 H 787.911 -2.04635 4.13093 0
M  V30 8455 H 791.455 -0.0902544 6.97542 0
M  V30 8456 H 787.352 -1.15524 6.35078 0
M  V30 8457 H 788.12 -0.17955 8.18303 0
M  V30 8458 N 790.784 -1.46188 -0.588786 0
M  V30 8459 C 791.747 -1.55882 -1.68029 0
M  V30 8460 C 792.747 -0.436515 -1.54762 0
M  V30 8461 O 793.937 -0.700626 -1.59489 0
M  V30 8462 C 791.069 -1.47332 -3.07418 0
M  V30 8463 H 792.262 -2.5315 -1.60795 0
M  V30 8464 H 789.815 -1.33908 -0.806116 0
M  V30 8465 H 790.55 -0.513193 -3.20214 0
M  V30 8466 H 790.335 -2.28753 -3.18456 0
M  V30 8467 H 791.825 -1.57187 -3.86887 0
M  V30 8468 N 792.262 0.832906 -1.33792 0
M  V30 8469 C 793.21 1.96455 -1.24532 0
M  V30 8470 C 794.204 1.68774 -0.145455 0
M  V30 8471 O 795.41 1.77314 -0.309797 0
M  V30 8472 H 791.785 0.645008 -0.386611 0
M  V30 8473 H 793.756 2.01389 -2.20193 0
M  V30 8474 C 792.505 3.32784 -1.00748 0
M  V30 8475 H 791.828 3.54626 -1.84609 0
M  V30 8476 H 793.268 4.12447 -0.98301 0
M  V30 8477 C 791.727 3.35654 0.289475 0
M  V30 8478 O 792.257 3.80281 1.29419 0
M  V30 8479 N 790.463 2.88843 0.3191 0
M  V30 8480 H 790.01 2.52719 -0.499069 0
M  V30 8481 H 789.968 2.91145 1.18667 0
M  V30 8482 N 793.74 1.17359 1.05189 0
M  V30 8483 C 794.687 0.890325 2.12936 0
M  V30 8484 C 795.657 -0.165779 1.65271 0
M  V30 8485 O 796.842 -0.0285672 1.90779 0
M  V30 8486 C 793.982 0.409793 3.42658 0
M  V30 8487 C 793.095 1.53002 4.03998 0
M  V30 8488 C 792.23 1.00336 5.21638 0
M  V30 8489 C 791.269 2.09903 5.74984 0
M  V30 8490 N 790.406 1.58714 6.83926 0
M  V30 8491 H 795.246 1.81299 2.36505 0
M  V30 8492 H 792.783 0.904249 1.16025 0
M  V30 8493 H 794.741 0.112743 4.17048 0
M  V30 8494 H 793.371 -0.475915 3.19272 0
M  V30 8495 H 792.423 1.9428 3.27047 0
M  V30 8496 H 793.735 2.3564 4.39631 0
M  V30 8497 H 792.889 0.660158 6.03098 0
M  V30 8498 H 791.628 0.14642 4.8748 0
M  V30 8499 H 790.633 2.45081 4.92154 0
M  V30 8500 H 791.858 2.96013 6.1119 0
M  V30 8501 H 789.804 0.752915 6.51665 0
M  V30 8502 H 789.721 2.34959 7.18561 0
M  V30 8503 H 790.989 1.27287 7.69037 0
M  V30 8504 N 795.218 -1.23913 0.973828 0
M  V30 8505 C 796.151 -2.23647 0.45355 0
M  V30 8506 C 797.129 -1.55485 -0.475724 0
M  V30 8507 O 798.313 -1.84083 -0.405689 0
M  V30 8508 C 795.44 -3.36942 -0.344594 0
M  V30 8509 C 794.486 -4.23221 0.527859 0
M  V30 8510 S 795.319 -4.97877 1.97177 0
M  V30 8511 C 796.475 -6.14627 1.18258 0
M  V30 8512 H 796.708 -2.67433 1.29873 0
M  V30 8513 H 794.241 -1.33289 0.779322 0
M  V30 8514 H 796.199 -4.02647 -0.799103 0
M  V30 8515 H 794.86 -2.91703 -1.16482 0
M  V30 8516 H 794.053 -5.03928 -0.0852555 0
M  V30 8517 H 793.655 -3.6255 0.918344 0
M  V30 8518 H 795.947 -6.76066 0.440629 0
M  V30 8519 H 796.89 -6.80311 1.96425 0
M  V30 8520 H 797.298 -5.6009 0.704256 0
M  V30 8521 N 796.696 -0.74468 -1.38897 0
M  V30 8522 C 797.659 -0.11945 -2.28889 0
M  V30 8523 C 798.659 0.656942 -1.46768 0
M  V30 8524 O 799.849 0.484525 -1.67326 0
M  V30 8525 C 796.981 0.839635 -3.30398 0
M  V30 8526 H 798.174 -0.912414 -2.85683 0
M  V30 8527 H 795.727 -0.511119 -1.47707 0
M  V30 8528 H 796.462 1.6586 -2.78677 0
M  V30 8529 H 796.247 0.285432 -3.9106 0
M  V30 8530 H 797.737 1.27337 -3.97712 0
M  V30 8531 N 798.174 1.49689 -0.493057 0
M  V30 8532 C 799.421 2.02427 0.0542714 0
M  V30 8533 C 799.749 1.37339 1.37725 0
M  V30 8534 O 799.004 0.495523 1.89323 0
M  V30 8535 C 799.303 3.56427 0.263536 0
M  V30 8536 C 798.969 4.40111 -0.98046 0
M  V30 8537 C 797.631 4.62699 -1.32148 0
M  V30 8538 C 799.983 4.88847 -1.80771 0
M  V30 8539 C 797.311 5.31268 -2.48941 0
M  V30 8540 C 799.663 5.587 -2.96711 0
M  V30 8541 C 798.327 5.79536 -3.31202 0
M  V30 8542 H 797.597 0.740734 0.0198593 0
M  V30 8543 H 800.244 1.80073 -0.651603 0
M  V30 8544 H 798.549 3.77416 1.05186 0
M  V30 8545 H 800.246 3.94819 0.701348 0
M  V30 8546 H 796.836 4.22765 -0.704814 0
M  V30 8547 H 801.02 4.71231 -1.55741 0
M  V30 8548 H 796.276 5.45603 -2.75911 0
M  V30 8549 H 800.45 5.9544 -3.61143 0
M  V30 8550 H 798.077 6.32443 -4.21805 0
M  V30 8551 N 799.652 0.226554 1.55963 0
M  V30 8552 C 801.068 -0.128733 1.5908 0
M  V30 8553 C 801.268 -1.58558 1.24345 0
M  V30 8554 O 800.324 -2.32661 0.981069 0
M  V30 8555 C 801.637 0.202076 3.0002 0
M  V30 8556 C 803.185 0.144718 3.12665 0
M  V30 8557 C 803.66 0.449272 4.55791 0
M  V30 8558 N 805.151 0.399026 4.61478 0
M  V30 8559 C 805.886 0.608106 5.70166 0
M  V30 8560 N 805.382 0.879227 6.87198 0
M  V30 8561 N 807.175 0.5402 5.59498 0
M  V30 8562 H 799.326 1.17686 1.76816 0
M  V30 8563 H 801.589 0.472072 0.822102 0
M  V30 8564 H 801.295 1.21341 3.30105 0
M  V30 8565 H 801.169 -0.480554 3.74126 0
M  V30 8566 H 803.556 -0.857261 2.82374 0
M  V30 8567 H 803.637 0.860899 2.40878 0
M  V30 8568 H 803.281 1.44871 4.86801 0
M  V30 8569 H 803.211 -0.288157 5.25811 0
M  V30 8570 H 805.702 0.197372 3.77384 0
M  V30 8571 H 806.015 1.02673 7.65949 0
M  V30 8572 H 804.36 0.916477 6.88931 0
M  V30 8573 H 807.551 0.328581 4.66945 0
M  V30 8574 H 807.724 0.706548 6.44137 0
M  V30 8575 N 801.13 -1.57531 -0.0467866 0
M  V30 8576 C 802.36 -1.92417 -0.752279 0
M  V30 8577 C 802.768 -0.823134 -1.70356 0
M  V30 8578 O 802.111 0.210598 -1.82489 0
M  V30 8579 C 802.173 -3.22974 -1.57887 0
M  V30 8580 C 801.837 -4.50045 -0.794285 0
M  V30 8581 C 802.834 -5.19799 -0.102368 0
M  V30 8582 C 800.519 -4.96608 -0.754061 0
M  V30 8583 C 802.513 -6.34385 0.619267 0
M  V30 8584 C 800.2 -6.11093 -0.0286682 0
M  V30 8585 C 801.198 -6.79835 0.656772 0
M  V30 8586 O 800.886 -7.92133 1.37042 0
M  V30 8587 H 800.618 -0.640029 -0.217576 0
M  V30 8588 H 803.172 -2.05395 -0.0137438 0
M  V30 8589 H 801.402 -3.06273 -2.3608 0
M  V30 8590 H 803.091 -3.43319 -2.16533 0
M  V30 8591 H 803.857 -4.8484 -0.124589 0
M  V30 8592 H 799.736 -4.42958 -1.27706 0
M  V30 8593 H 803.28 -6.87975 1.15483 0
M  V30 8594 H 799.177 -6.455 -0.00446214 0
M  V30 8595 H 799.945 -8.08394 1.28227 0
M  V30 8596 N 802.608 0.318715 -1.54344 0
M  V30 8597 C 804.019 0.89285 -1.63967 0
M  V30 8598 C 804.37 1.88712 -0.536855 0
M  V30 8599 O 803.495 2.13877 0.329457 0
M  V30 8600 C 804.09 1.62618 -2.97222 0
M  V30 8601 C 802.649 2.14897 -3.09025 0
M  V30 8602 C 801.796 0.975909 -2.5956 0
M  V30 8603 H 804.747 0.0961687 -1.58408 0
M  V30 8604 H 804.768 2.4907 -2.87653 0
M  V30 8605 H 804.28 0.902286 -3.77466 0
M  V30 8606 H 802.381 2.90387 -2.33465 0
M  V30 8607 H 802.494 2.39565 -4.14904 0
M  V30 8608 H 800.858 1.35646 -2.15574 0
M  V30 8609 H 801.641 0.266253 -3.42266 0
M  V30 8610 N 804.086 1.46499 0.581025 0
M  V30 8611 C 804.996 1.59778 1.71779 0
M  V30 8612 C 806.012 0.481223 1.67213 0
M  V30 8613 O 807.188 0.74557 1.87091 0
M  V30 8614 C 804.253 1.58626 3.08283 0
M  V30 8615 C 803.314 2.81527 3.241 0
M  V30 8616 C 802.547 2.80421 4.54092 0
M  V30 8617 O 802.77 1.89262 5.38085 0
M  V30 8618 O 801.704 3.71984 4.73193 0
M  V30 8619 H 805.53 2.55918 1.63523 0
M  V30 8620 H 803.115 1.29311 0.748267 0
M  V30 8621 H 804.997 1.60686 3.89561 0
M  V30 8622 H 803.672 0.656467 3.16973 0
M  V30 8623 H 802.579 2.85021 2.42309 0
M  V30 8624 H 803.912 3.73721 3.20302 0
M  V30 8625 N 805.565 -0.825799 1.34232 0
M  V30 8626 C 806.976 -1.39835 1.23706 0
M  V30 8627 C 807.327 -1.95709 -0.138649 0
M  V30 8628 O 806.452 -1.89833 -1.03886 0
M  V30 8629 C 807.047 -2.54203 2.23978 0
M  V30 8630 C 805.606 -3.07374 2.17251 0
M  V30 8631 C 804.753 -1.80232 2.10741 0
M  V30 8632 H 807.704 -0.630442 1.4564 0
M  V30 8633 H 807.725 -3.32214 1.8551 0
M  V30 8634 H 807.237 -2.13506 3.24094 0
M  V30 8635 H 805.338 -3.52583 1.20483 0
M  V30 8636 H 805.451 -3.6666 3.08379 0
M  V30 8637 H 803.815 -2.01012 1.56417 0
M  V30 8638 H 804.598 -1.41713 3.12686 0
M  V30 8639 N 807.043 -1.17915 -1.04565 0
M  V30 8640 C 807.953 -0.916449 -2.15959 0
M  V30 8641 C 808.969 0.117655 -1.73602 0
M  V30 8642 O 810.145 -0.063089 -2.01301 0
M  V30 8643 C 807.21 -0.440262 -3.43893 0
M  V30 8644 C 806.271 -1.54172 -4.00661 0
M  V30 8645 C 805.504 -1.08816 -5.22489 0
M  V30 8646 O 805.727 0.0551547 -5.70373 0
M  V30 8647 O 804.661 -1.88383 -5.7166 0
M  V30 8648 H 808.487 -1.8484 -2.40972 0
M  V30 8649 H 806.072 -0.960552 -1.14428 0
M  V30 8650 H 807.954 -0.182537 -4.21004 0
M  V30 8651 H 806.629 0.46346 -3.20365 0
M  V30 8652 H 805.536 -1.85341 -3.24961 0
M  V30 8653 H 806.869 -2.42139 -4.2852 0
M  V30 8654 N 808.521 1.23394 -0.980386 0
M  V30 8655 C 809.798 1.87242 -0.565667 0
M  V30 8656 C 810.178 1.88151 0.957197 0
M  V30 8657 O 809.526 1.36309 1.8339 0
M  V30 8658 C 809.736 3.28743 -1.17172 0
M  V30 8659 C 811.084 4.05335 -1.26446 0
M  V30 8660 O 812.108 3.37962 -1.12517 0
M  V30 8661 O 810.967 5.25908 -1.48604 0
M  V30 8662 H 808.061 0.80477 -0.190459 0
M  V30 8663 H 810.607 1.3127 -1.07547 0
M  V30 8664 H 809.379 3.22647 -2.21392 0
M  V30 8665 H 809.002 3.92305 -0.646739 0
M  V30 8666 N 809.999 0.752036 1.385 0
M  V30 8667 C 810.946 0.123288 2.3047 0
M  V30 8668 C 811.916 -0.711326 1.50098 0
M  V30 8669 O 813.101 -0.667775 1.78733 0
M  V30 8670 C 810.241 -0.765085 3.36512 0
M  V30 8671 C 809.354 0.0839885 4.31918 0
M  V30 8672 C 808.489 -0.807243 5.25031 0
M  V30 8673 C 807.528 0.0455583 6.12083 0
M  V30 8674 N 806.665 -0.802547 6.97498 0
M  V30 8675 H 811.505 0.913169 2.83664 0
M  V30 8676 H 809.042 0.46195 1.39658 0
M  V30 8677 H 811 -1.29476 3.966 0
M  V30 8678 H 809.63 -1.52077 2.84732 0
M  V30 8679 H 808.682 0.731276 3.73305 0
M  V30 8680 H 809.994 0.74265 4.9324 0
M  V30 8681 H 809.148 -1.40414 5.90228 0
M  V30 8682 H 807.887 -1.49964 4.64071 0
M  V30 8683 H 806.892 0.655137 5.45883 0
M  V30 8684 H 808.117 0.734994 6.75111 0
M  V30 8685 H 806.063 -1.47992 6.39089 0
M  V30 8686 H 805.98 -0.200747 7.55733 0
M  V30 8687 H 807.248 -1.38447 7.67107 0
M  V30 8688 N 811.477 -1.49425 0.500989 0
M  V30 8689 C 812.44 -2.27646 -0.266416 0
M  V30 8690 C 813.44 -1.3366 -0.893961 0
M  V30 8691 O 814.63 -1.5682 -0.758495 0
M  V30 8692 C 811.762 -3.11618 -1.38227 0
M  V30 8693 H 812.955 -2.96945 0.419973 0
M  V30 8694 H 810.508 -1.5419 0.255954 0
M  V30 8695 H 811.243 -2.46885 -2.10281 0
M  V30 8696 H 811.028 -3.80721 -0.937746 0
M  V30 8697 H 812.518 -3.70698 -1.92283 0
M  V30 8698 N 812.955 -0.234822 -1.55841 0
M  V30 8699 C 813.902 0.6698 -2.20867 0
M  V30 8700 C 814.872 1.18042 -1.16856 0
M  V30 8701 O 816.057 1.23709 -1.45261 0
M  V30 8702 C 813.197 1.86646 -2.90271 0
M  V30 8703 C 812.31 1.39351 -4.08908 0
M  V30 8704 C 811.445 2.54878 -4.66059 0
M  V30 8705 C 810.484 2.04384 -5.76969 0
M  V30 8706 N 809.621 3.13233 -6.28355 0
M  V30 8707 H 814.461 0.10858 -2.97802 0
M  V30 8708 H 811.998 0.041836 -1.4704 0
M  V30 8709 H 813.956 2.56926 -3.28702 0
M  V30 8710 H 812.586 2.40035 -2.15831 0
M  V30 8711 H 811.638 0.585173 -3.75872 0
M  V30 8712 H 812.95 0.983356 -4.89011 0
M  V30 8713 H 812.104 3.33219 -5.07001 0
M  V30 8714 H 810.843 2.99188 -3.85146 0
M  V30 8715 H 809.848 1.24509 -5.35516 0
M  V30 8716 H 811.073 1.61057 -6.59725 0
M  V30 8717 H 809.019 3.57 -5.50352 0
M  V30 8718 H 808.936 2.76511 -7.03618 0
M  V30 8719 H 810.204 3.91669 -6.73955 0
M  V30 8720 N 814.433 1.57553 0.0384317 0
M  V30 8721 C 815.663 1.92813 0.742064 0
M  V30 8722 C 816.071 0.832157 1.69917 0
M  V30 8723 O 815.414 -0.200917 1.82598 0
M  V30 8724 C 815.476 3.23806 1.56172 0
M  V30 8725 C 815.14 4.50459 0.770407 0
M  V30 8726 C 816.137 5.19846 0.0748006 0
M  V30 8727 C 813.822 4.97001 0.727714 0
M  V30 8728 C 815.816 6.34047 -0.652902 0
M  V30 8729 C 813.503 6.111 -0.00373992 0
M  V30 8730 C 814.501 6.79477 -0.692816 0
M  V30 8731 O 814.189 7.91395 -1.41241 0
M  V30 8732 H 813.921 0.641174 0.214179 0
M  V30 8733 H 816.475 2.054 0.00285095 0
M  V30 8734 H 814.705 3.0752 2.34453 0
M  V30 8735 H 816.394 3.44463 2.14709 0
M  V30 8736 H 817.16 4.84899 0.098875 0
M  V30 8737 H 813.039 4.43629 1.25355 0
M  V30 8738 H 816.583 6.87353 -1.1913 0
M  V30 8739 H 812.48 6.45493 -0.0297703 0
M  V30 8740 H 813.248 8.07702 -1.32512 0
M  V30 8741 N 815.911 -0.310526 1.54511 0
M  V30 8742 C 817.157 -1.04846 1.73595 0
M  V30 8743 C 817.49 -1.87244 0.515118 0
M  V30 8744 O 816.765 -1.88282 -0.48786 0
M  V30 8745 C 817.048 -1.96237 3.01932 0
M  V30 8746 C 816.901 -1.17082 4.34295 0
M  V30 8747 C 818.22 -2.9556 3.26086 0
M  V30 8748 H 815.339 -0.37976 0.631626 0
M  V30 8749 H 817.981 -0.32394 1.87218 0
M  V30 8750 H 816.131 -2.58015 2.90449 0
M  V30 8751 H 817.803 -0.576643 4.57682 0
M  V30 8752 H 816.046 -0.473336 4.3121 0
M  V30 8753 H 816.717 -1.84257 5.20339 0
M  V30 8754 H 819.193 -2.43908 3.37117 0
M  V30 8755 H 818.069 -3.5668 4.17218 0
M  V30 8756 H 818.33 -3.68715 2.4393 0
M  V30 8757 N 817.389 -1.46805 -0.573248 0
M  V30 8758 C 818.336 -1.58084 -1.68161 0
M  V30 8759 C 819.306 -0.424636 -1.6058 0
M  V30 8760 O 820.491 -0.642623 -1.79652 0
M  V30 8761 C 817.631 -1.58601 -3.06496 0
M  V30 8762 C 816.744 -2.85023 -3.24632 0
M  V30 8763 C 815.879 -2.76981 -4.53271 0
M  V30 8764 C 814.918 -3.983 -4.64783 0
M  V30 8765 N 814.055 -3.88589 -5.84759 0
M  V30 8766 H 818.895 -2.52755 -1.57858 0
M  V30 8767 H 816.432 -1.25385 -0.769218 0
M  V30 8768 H 818.39 -1.56885 -3.86579 0
M  V30 8769 H 817.02 -0.674553 -3.15673 0
M  V30 8770 H 816.072 -2.96678 -2.38089 0
M  V30 8771 H 817.384 -3.7491 -3.29004 0
M  V30 8772 H 816.538 -2.73424 -5.41594 0
M  V30 8773 H 815.277 -1.84751 -4.51352 0
M  V30 8774 H 814.282 -4.02179 -3.74876 0
M  V30 8775 H 815.507 -4.91639 -4.68474 0
M  V30 8776 H 813.453 -2.99151 -5.83819 0
M  V30 8777 H 813.37 -4.7214 -5.90441 0
M  V30 8778 H 814.638 -3.89022 -6.75486 0
M  V30 8779 N 818.867 0.818669 -1.34668 0
M  V30 8780 C 819.777 1.9616 -1.2868 0
M  V30 8781 C 820.793 1.72918 -0.193742 0
M  V30 8782 O 821.969 1.96951 -0.420975 0
M  V30 8783 C 819.034 3.30534 -1.04633 0
M  V30 8784 C 818.095 3.66755 -2.23136 0
M  V30 8785 C 817.328 4.94717 -2.00227 0
M  V30 8786 O 817.551 5.62218 -0.96264 0
M  V30 8787 O 816.485 5.28915 -2.87286 0
M  V30 8788 H 820.311 2.04157 -2.24842 0
M  V30 8789 H 817.896 0.954691 -1.14917 0
M  V30 8790 H 819.778 4.11005 -0.930216 0
M  V30 8791 H 818.453 3.23495 -0.115139 0
M  V30 8792 H 817.36 2.8671 -2.40308 0
M  V30 8793 H 818.693 3.78484 -3.1466 0
M  V30 8794 N 820.346 1.18468 1.03938 0
M  V30 8795 C 821.762 0.934635 1.29371 0
M  V30 8796 C 821.962 -0.399067 1.97509 0
M  V30 8797 O 821.018 -1.13309 2.25648 0
M  V30 8798 C 822.331 2.10111 2.15114 0
M  V30 8799 C 823.879 2.13955 2.28456 0
M  V30 8800 C 824.354 3.30024 3.17566 0
M  V30 8801 N 825.845 3.29893 3.25153 0
M  V30 8802 C 826.58 4.16346 3.94263 0
M  V30 8803 N 826.076 5.12934 4.65693 0
M  V30 8804 N 827.869 4.04256 3.90556 0
M  V30 8805 H 820.02 2.04294 0.581185 0
M  V30 8806 H 822.283 0.892727 0.318971 0
M  V30 8807 H 821.989 3.06572 1.72355 0
M  V30 8808 H 821.863 2.06283 3.15796 0
M  V30 8809 H 824.25 1.18072 2.7045 0
M  V30 8810 H 824.331 2.2184 1.2736 0
M  V30 8811 H 823.975 4.26181 2.76283 0
M  V30 8812 H 823.905 3.19376 4.18697 0
M  V30 8813 H 826.396 2.59969 2.74271 0
M  V30 8814 H 826.709 5.75271 5.16026 0
M  V30 8815 H 825.054 5.16893 4.64593 0
M  V30 8816 H 828.245 3.28083 3.33885 0
M  V30 8817 H 828.418 4.71848 4.44144 0
M  V30 8818 N 821.824 -1.22873 0.986916 0
M  V30 8819 C 823.052 -1.95487 0.677663 0
M  V30 8820 C 823.467 -1.72978 -0.756572 0
M  V30 8821 O 822.824 -1.02517 -1.50985 0
M  V30 8822 C 822.875 -3.48337 0.966638 0
M  V30 8823 O 822.596 -3.70087 2.34451 0
M  V30 8824 C 824.097 -4.38142 0.674248 0
M  V30 8825 H 821.317 -0.622211 0.251185 0
M  V30 8826 H 823.861 -1.56187 1.32007 0
M  V30 8827 H 822.016 -3.85628 0.370137 0
M  V30 8828 H 822.43 -4.64332 2.43918 0
M  V30 8829 H 823.904 -5.44165 0.926759 0
M  V30 8830 H 824.381 -4.3745 -0.391728 0
M  V30 8831 H 824.987 -4.06469 1.25152 0
M  V30 8832 N 823.302 -0.75937 -1.38099 0
M  V30 8833 C 824.548 -0.327559 -2.00745 0
M  V30 8834 C 824.903 1.08042 -1.592 0
M  V30 8835 O 824.196 1.7306 -0.822236 0
M  V30 8836 C 824.39 -0.394999 -3.55211 0
M  V30 8837 C 824.219 -1.80798 -4.11755 0
M  V30 8838 C 822.989 -2.42585 -4.43262 0
M  V30 8839 C 825.187 -2.76556 -4.33614 0
M  V30 8840 N 823.169 -3.75784 -4.85448 0
M  V30 8841 C 824.54 -3.94532 -4.78273 0
M  V30 8842 C 826.595 -2.74004 -4.15724 0
M  V30 8843 C 825.298 -5.10322 -5.06916 0
M  V30 8844 C 827.324 -3.88957 -4.45496 0
M  V30 8845 C 826.686 -5.05672 -4.90383 0
M  V30 8846 H 822.785 -0.166644 -0.764038 0
M  V30 8847 H 825.369 -0.99056 -1.67619 0
M  V30 8848 H 823.54 0.237761 -3.87672 0
M  V30 8849 H 825.272 0.0576828 -4.04659 0
M  V30 8850 H 822.027 -1.94302 -4.31907 0
M  V30 8851 H 822.451 -4.44234 -5.10867 0
M  V30 8852 H 827.093 -1.84948 -3.80203 0
M  V30 8853 H 824.811 -5.99988 -5.41332 0
M  V30 8854 H 828.397 -3.88308 -4.33253 0
M  V30 8855 H 827.277 -5.93146 -5.1298 0
M  V30 8856 N 824.78 1.49157 -0.508906 0
M  V30 8857 C 826.196 1.58741 -0.165372 0
M  V30 8858 C 826.396 1.5133 1.33047 0
M  V30 8859 O 825.452 1.39135 2.10707 0
M  V30 8860 C 826.765 2.91217 -0.749194 0
M  V30 8861 C 828.313 3.047 -0.716015 0
M  V30 8862 C 828.788 4.39807 -1.27804 0
M  V30 8863 N 830.279 4.46319 -1.23908 0
M  V30 8864 C 831.014 5.49325 -1.64406 0
M  V30 8865 N 830.51 6.59395 -2.12534 0
M  V30 8866 N 832.303 5.40084 -1.55773 0
M  V30 8867 H 824.454 1.52217 -1.48134 0
M  V30 8868 H 826.717 0.721514 -0.614915 0
M  V30 8869 H 826.423 3.02233 -1.79856 0
M  V30 8870 H 826.297 3.76592 -0.214144 0
M  V30 8871 H 828.684 2.9331 0.324535 0
M  V30 8872 H 828.765 2.2099 -1.2883 0
M  V30 8873 H 828.409 4.5195 -2.31741 0
M  V30 8874 H 828.339 5.2217 -0.681623 0
M  V30 8875 H 830.83 3.67354 -0.886537 0
M  V30 8876 H 831.143 7.34102 -2.41485 0
M  V30 8877 H 829.488 6.60414 -2.16513 0
M  V30 8878 H 832.679 4.52986 -1.17987 0
M  V30 8879 H 832.852 6.20233 -1.87657 0
M  V30 8880 N 826.258 0.243083 1.55714 0
M  V30 8881 C 827.483 -0.389944 2.03701 0
M  V30 8882 C 827.908 -1.51025 1.12129 0
M  V30 8883 O 827.266 -1.80944 0.11352 0
M  V30 8884 C 827.314 -0.878649 3.49731 0
M  V30 8885 O 826.418 -1.98851 3.61292 0
M  V30 8886 H 825.759 -0.0855115 0.658471 0
M  V30 8887 H 828.289 0.368023 2.01263 0
M  V30 8888 H 828.299 -1.18287 3.90477 0
M  V30 8889 H 826.974 -0.0588107 4.15858 0
M  V30 8890 H 825.551 -1.68928 3.32442 0
M  V30 8891 N 827.736 -1.57571 -0.0300757 0
M  V30 8892 C 828.646 -2.09892 -1.04798 0
M  V30 8893 C 829.662 -1.03732 -1.39698 0
M  V30 8894 O 830.838 -1.35461 -1.49038 0
M  V30 8895 C 827.903 -2.56707 -2.33028 0
M  V30 8896 C 826.964 -3.77345 -2.04718 0
M  V30 8897 C 826.197 -4.21918 -3.26834 0
M  V30 8898 O 826.42 -3.66025 -4.37472 0
M  V30 8899 O 825.354 -5.14362 -3.12594 0
M  V30 8900 H 829.18 -2.97023 -0.633344 0
M  V30 8901 H 826.765 -1.47344 -0.246991 0
M  V30 8902 H 828.647 -2.87154 -3.08417 0
M  V30 8903 H 827.322 -1.72688 -2.73789 0
M  V30 8904 H 826.229 -3.51919 -1.26901 0
M  V30 8905 H 827.562 -4.62345 -1.68813 0
M  V30 8906 N 829.214 0.302327 -1.54673 0
M  V30 8907 C 830.444 1.05516 -1.77623 0
M  V30 8908 C 830.852 1.81474 -0.535159 0
M  V30 8909 O 830.195 1.76635 0.504543 0
M  V30 8910 C 830.257 2.08305 -2.93001 0
M  V30 8911 C 829.921 1.51554 -4.31139 0
M  V30 8912 C 830.918 0.946261 -5.11216 0
M  V30 8913 C 828.603 1.55157 -4.77736 0
M  V30 8914 C 830.597 0.420559 -6.36011 0
M  V30 8915 C 828.284 1.022 -6.02494 0
M  V30 8916 C 829.282 0.457461 -6.81466 0
M  V30 8917 O 828.97 -0.064083 -8.03874 0
M  V30 8918 H 828.702 0.318756 -0.59613 0
M  V30 8919 H 831.256 0.347558 -2.02438 0
M  V30 8920 H 829.486 2.82742 -2.63807 0
M  V30 8921 H 831.175 2.69479 -3.03539 0
M  V30 8922 H 831.941 0.911338 -4.76361 0
M  V30 8923 H 827.82 1.98037 -4.16296 0
M  V30 8924 H 831.364 -0.0207298 -6.97597 0
M  V30 8925 H 827.261 1.05406 -6.36836 0
M  V30 8926 H 828.029 0.0493422 -8.18485 0
M  V30 8927 N 830.692 1.47107 0.565454 0
M  V30 8928 C 831.969 1.43787 1.32607 0
M  V30 8929 C 832.349 0.130428 2.10697 0
M  V30 8930 O 831.697 -0.888086 2.10536 0
M  V30 8931 C 831.907 2.67833 2.23755 0
M  V30 8932 C 833.255 3.14704 2.85037 0
M  V30 8933 O 834.279 2.68503 2.34061 0
M  V30 8934 O 833.138 3.95002 3.77671 0
M  V30 8935 H 830.232 0.572623 0.596684 0
M  V30 8936 H 832.778 1.59296 0.58504 0
M  V30 8937 H 831.55 3.54532 1.65597 0
M  V30 8938 H 831.173 2.54869 3.05168 0
M  V30 8939 N 832.17 -0.811516 1.35101 0
M  V30 8940 C 833.395 -1.60499 1.31358 0
M  V30 8941 C 833.82 -1.87793 -0.107383 0
M  V30 8942 O 833.178 -1.46161 -1.07268 0
M  V30 8943 C 833.226 -2.91612 2.12119 0
M  V30 8944 O 832.33 -3.84211 1.49853 0
M  V30 8945 H 831.671 -0.487702 0.450603 0
M  V30 8946 H 834.201 -1.00758 1.7807 0
M  V30 8947 H 834.211 -3.4108 2.23894 0
M  V30 8948 H 832.886 -2.71071 3.15426 0
M  V30 8949 H 831.463 -3.42751 1.46889 0
M  V30 8950 N 833.648 -1.19017 -1.03309 0
M  V30 8951 C 834.578 -0.94772 -2.13402 0
M  V30 8952 C 835.559 0.117383 -1.69694 0
M  V30 8953 O 836.744 -0.0367733 -1.94165 0
M  V30 8954 C 833.874 -0.480977 -3.43953 0
M  V30 8955 C 832.828 -1.48743 -4.01322 0
M  V30 8956 C 832.154 -0.877924 -5.27443 0
M  V30 8957 C 833.454 -2.86642 -4.36616 0
M  V30 8958 H 835.148 -1.86846 -2.33942 0
M  V30 8959 H 832.694 -0.899781 -1.12427 0
M  V30 8960 H 834.647 -0.298677 -4.2034 0
M  V30 8961 H 833.371 0.475348 -3.23122 0
M  V30 8962 H 832.03 -1.65681 -3.27025 0
M  V30 8963 H 831.678 0.0858232 -5.02927 0
M  V30 8964 H 831.378 -1.54996 -5.66789 0
M  V30 8965 H 832.902 -0.706326 -6.06501 0
M  V30 8966 H 834.316 -2.73312 -5.03958 0
M  V30 8967 H 832.713 -3.50599 -4.87032 0
M  V30 8968 H 833.783 -3.39617 -3.46105 0
M  V30 8969 N 835.127 1.22348 -0.993418 0
M  V30 8970 C 836.057 2.26584 -0.564088 0
M  V30 8971 C 837.038 1.65102 0.409298 0
M  V30 8972 O 838.223 1.91872 0.299819 0
M  V30 8973 C 835.353 3.47087 0.121554 0
M  V30 8974 C 834.307 4.21009 -0.770429 0
M  V30 8975 C 833.633 5.34678 0.0481586 0
M  V30 8976 C 834.933 4.79636 -2.06752 0
M  V30 8977 H 836.627 2.62749 -1.43538 0
M  V30 8978 H 834.173 1.26303 -0.691628 0
M  V30 8979 H 836.126 4.19166 0.433303 0
M  V30 8980 H 834.85 3.1002 1.0274 0
M  V30 8981 H 833.509 3.50764 -1.06583 0
M  V30 8982 H 833.157 4.93852 0.954933 0
M  V30 8983 H 832.857 5.85061 -0.545641 0
M  V30 8984 H 834.381 6.09573 0.353991 0
M  V30 8985 H 835.795 5.43654 -1.81969 0
M  V30 8986 H 834.192 5.4036 -2.61019 0
M  V30 8987 H 835.262 3.99659 -2.74592 0
M  V30 8988 N 836.605 0.766683 1.37694 0
M  V30 8989 C 838.016 0.394761 1.82479 0
M  V30 8990 C 838.367 -1.07842 1.63904 0
M  V30 8991 O 837.492 -1.83479 1.14737 0
M  V30 8992 C 838.087 0.70974 3.31283 0
M  V30 8993 C 836.646 0.390936 3.74364 0
M  V30 8994 C 835.793 0.956192 2.60293 0
M  V30 8995 H 838.744 0.961756 1.26238 0
M  V30 8996 H 838.765 -0.00742144 3.80499 0
M  V30 8997 H 838.277 1.782 3.4477 0
M  V30 8998 H 836.378 -0.674213 3.66449 0
M  V30 8999 H 836.491 0.895645 4.70654 0
M  V30 9000 H 834.855 0.380744 2.51838 0
M  V30 9001 H 835.638 2.03375 2.76575 0
M  V30 9002 N 838.083 -1.48885 0.516809 0
M  V30 9003 C 839.36 -1.95412 -0.0858293 0
M  V30 9004 C 839.74 -1.45875 -1.5259 0
M  V30 9005 O 839.088 -0.679415 -2.18166 0
M  V30 9006 C 839.298 -3.48995 0.0178194 0
M  V30 9007 C 840.646 -4.24342 -0.14813 0
M  V30 9008 O 841.67 -3.56155 -0.0566125 0
M  V30 9009 O 840.529 -5.45454 -0.338035 0
M  V30 9010 H 837.623 -0.822455 -0.0865884 0
M  V30 9011 H 840.169 -1.59464 0.580472 0
M  V30 9012 H 838.941 -3.77732 1.02147 0
M  V30 9013 H 838.564 -3.91604 -0.687924 0
M  V30 9014 N 839.561 -0.251338 -1.55583 0
M  V30 9015 C 840.807 0.37272 -1.99346 0
M  V30 9016 C 841.14 1.57266 -1.13934 0
M  V30 9017 O 840.415 1.9343 -0.20377 0
M  V30 9018 C 840.698 0.778245 -3.5159 0
M  V30 9019 C 840.551 -0.427394 -4.47765 0
M  V30 9020 C 841.87 1.62358 -4.09057 0
M  V30 9021 H 838.989 0.134002 -0.724715 0
M  V30 9022 H 841.631 -0.353536 -1.86682 0
M  V30 9023 H 839.781 1.39704 -3.62512 0
M  V30 9024 H 841.453 -1.06586 -4.48818 0
M  V30 9025 H 839.696 -1.06972 -4.20404 0
M  V30 9026 H 840.367 -0.10025 -5.51909 0
M  V30 9027 H 842.843 1.1012 -4.01264 0
M  V30 9028 H 841.719 1.87617 -5.1584 0
M  V30 9029 H 841.98 2.59688 -3.57791 0
M  V30 9030 N 841.039 1.57585 0.0217189 0
M  V30 9031 C 842.269 1.9359 0.721572 0
M  V30 9032 C 842.677 0.850132 1.69025 0
M  V30 9033 O 842.02 -0.181539 1.82801 0
M  V30 9034 C 842.082 3.25445 1.52729 0
M  V30 9035 C 841.746 4.51251 0.722586 0
M  V30 9036 C 842.743 5.19896 0.0196598 0
M  V30 9037 C 840.428 4.97745 0.674959 0
M  V30 9038 C 842.422 6.33319 -0.720114 0
M  V30 9039 C 840.109 6.11062 -0.068555 0
M  V30 9040 C 841.107 6.78704 -0.764845 0
M  V30 9041 O 840.795 7.89852 -1.49627 0
M  V30 9042 H 840.527 0.643409 0.207366 0
M  V30 9043 H 843.081 2.05391 -0.0189346 0
M  V30 9044 H 841.311 3.0999 2.31178 0
M  V30 9045 H 843 3.46721 2.11044 0
M  V30 9046 H 843.766 4.84977 0.0474394 0
M  V30 9047 H 839.645 4.44934 1.20643 0
M  V30 9048 H 843.189 6.86051 -1.26413 0
M  V30 9049 H 839.086 6.45425 -0.0982318 0
M  V30 9050 H 839.854 8.06251 -1.41071 0
M  V30 9051 N 842.517 -0.29412 1.54831 0
M  V30 9052 C 843.427 -1.3854 1.89325 0
M  V30 9053 C 844.443 -1.55127 0.788133 0
M  V30 9054 O 845.619 -1.6966 1.08524 0
M  V30 9055 C 842.684 -2.72809 2.13954 0
M  V30 9056 C 841.745 -2.65148 3.37631 0
M  V30 9057 C 840.978 -3.93014 3.61076 0
M  V30 9058 O 841.201 -4.927 2.87406 0
M  V30 9059 O 840.135 -3.94491 4.54599 0
M  V30 9060 H 843.961 -1.12289 2.82179 0
M  V30 9061 H 841.546 -0.490793 1.41108 0
M  V30 9062 H 843.428 -3.52238 2.31315 0
M  V30 9063 H 842.103 -2.9889 1.24285 0
M  V30 9064 H 841.01 -1.84168 3.25627 0
M  V30 9065 H 842.343 -2.4402 4.27452 0
M  V30 9066 N 843.995 -1.47404 -0.557645 0
M  V30 9067 C 845.241 -1.55219 -1.31449 0
M  V30 9068 C 845.596 -0.211457 -1.91234 0
M  V30 9069 O 844.889 0.782795 -1.7488 0
M  V30 9070 C 845.083 -2.6061 -2.44575 0
M  V30 9071 C 844.912 -4.048 -1.95875 0
M  V30 9072 C 843.682 -4.72252 -1.79738 0
M  V30 9073 C 845.88 -4.91833 -1.50348 0
M  V30 9074 N 843.862 -6.00962 -1.25372 0
M  V30 9075 C 845.233 -6.10566 -1.07745 0
M  V30 9076 C 847.288 -4.78279 -1.38396 0
M  V30 9077 C 845.991 -7.17242 -0.543767 0
M  V30 9078 C 848.017 -5.8505 -0.864293 0
M  V30 9079 C 847.379 -7.02973 -0.44818 0
M  V30 9080 H 843.478 -0.622694 -0.47305 0
M  V30 9081 H 846.062 -1.84152 -0.632144 0
M  V30 9082 H 844.233 -2.33545 -3.10341 0
M  V30 9083 H 845.965 -2.5827 -3.11574 0
M  V30 9084 H 842.72 -4.28153 -2.0244 0
M  V30 9085 H 843.144 -6.69532 -1.00278 0
M  V30 9086 H 847.786 -3.87477 -1.69179 0
M  V30 9087 H 845.504 -8.07791 -0.223563 0
M  V30 9088 H 849.09 -5.7661 -0.775371 0
M  V30 9089 H 847.97 -7.84183 -0.0522964 0
M  V30 9090 N 845.473 0.80434 -1.35529 0
M  V30 9091 C 846.884 1.37849 -1.25915 0
M  V30 9092 C 847.235 1.95905 0.107495 0
M  V30 9093 O 846.36 1.91462 1.00852 0
M  V30 9094 C 846.955 2.50608 -2.27994 0
M  V30 9095 C 845.514 3.03879 -2.22114 0
M  V30 9096 C 844.661 1.76856 -2.13582 0
M  V30 9097 H 847.612 0.607192 -1.46625 0
M  V30 9098 H 847.633 3.29221 -1.90772 0
M  V30 9099 H 847.145 2.08323 -3.27449 0
M  V30 9100 H 845.246 3.50622 -1.26077 0
M  V30 9101 H 845.359 3.61707 -3.14173 0
M  V30 9102 H 843.723 1.98498 -1.59595 0
M  V30 9103 H 844.506 1.36721 -3.14901 0
M  V30 9104 N 846.951 1.19563 1.02676 0
M  V30 9105 C 847.861 0.950691 2.14474 0
M  V30 9106 C 848.877 -0.0900219 1.73767 0
M  V30 9107 O 850.053 0.0951063 2.01175 0
M  V30 9108 C 847.118 0.494917 3.43149 0
M  V30 9109 C 846.179 1.60527 3.98158 0
M  V30 9110 C 845.412 1.17115 5.20692 0
M  V30 9111 O 845.635 0.0355937 5.70389 0
M  V30 9112 O 844.569 1.97454 5.68591 0
M  V30 9113 H 848.395 1.88651 2.38001 0
M  V30 9114 H 845.98 0.978635 1.12885 0
M  V30 9115 H 847.862 0.249492 4.20661 0
M  V30 9116 H 846.537 -0.412434 3.21062 0
M  V30 9117 H 845.444 1.90487 3.21971 0
M  V30 9118 H 846.777 2.48925 4.24614 0
M  V30 9119 N 848.429 -1.21819 0.999893 0
M  V30 9120 C 849.654 -1.95298 0.698094 0
M  V30 9121 C 850.079 -1.73273 -0.731982 0
M  V30 9122 O 849.437 -1.01634 -1.50134 0
M  V30 9123 C 849.485 -3.45922 1.01834 0
M  V30 9124 O 848.589 -4.12223 0.120801 0
M  V30 9125 H 847.93 -0.610729 0.260588 0
M  V30 9126 H 850.46 -1.5472 1.33876 0
M  V30 9127 H 850.47 -3.96471 0.963074 0
M  V30 9128 H 849.145 -3.61278 2.06037 0
M  V30 9129 H 847.722 -3.72177 0.232153 0
M  V30 9130 N 849.908 -0.773975 -1.37286 0
M  V30 9131 C 850.871 -0.167974 -2.28584 0
M  V30 9132 C 851.871 0.625662 -1.48129 0
M  V30 9133 O 853.061 0.448924 -1.68316 0
M  V30 9134 C 850.193 0.769364 -3.32105 0
M  V30 9135 H 851.386 -0.972806 -2.83684 0
M  V30 9136 H 848.939 -0.542335 -1.46589 0
M  V30 9137 H 849.674 1.59912 -2.82132 0
M  V30 9138 H 849.459 0.202419 -3.91577 0
M  V30 9139 H 850.949 1.18872 -4.00324 0
M  V30 9140 N 851.386 1.48609 -0.524698 0
M  V30 9141 C 852.611 2.07398 0.00952139 0
M  V30 9142 C 853.036 1.37939 1.27884 0
M  V30 9143 O 852.394 0.443633 1.75788 0
M  V30 9144 C 852.442 3.59916 0.221956 0
M  V30 9145 O 851.546 3.91647 1.29175 0
M  V30 9146 H 850.887 0.662981 -0.0367729 0
M  V30 9147 H 853.417 1.91092 -0.7311 0
M  V30 9148 H 853.427 4.05552 0.446236 0
M  V30 9149 H 852.102 4.09876 -0.705306 0
M  V30 9150 H 850.679 3.57796 1.05055 0
M  V30 9151 N 852.864 0.259585 1.55447 0
M  V30 9152 C 854.089 -0.368317 2.04103 0
M  V30 9153 C 854.514 -1.49827 1.13725 0
M  V30 9154 O 853.872 -1.80814 0.132705 0
M  V30 9155 C 853.92 -0.841506 3.50644 0
M  V30 9156 O 853.024 -1.95008 3.63381 0
M  V30 9157 H 852.365 -0.0785227 0.659341 0
M  V30 9158 H 854.895 0.389349 2.00861 0
M  V30 9159 H 854.905 -1.14138 3.9171 0
M  V30 9160 H 853.58 -0.0147001 4.15897 0
M  V30 9161 H 852.157 -1.65393 3.34215 0
M  V30 9162 N 854.342 -1.57594 -0.0133615 0
M  V30 9163 C 855.753 -1.78168 -0.557937 0
M  V30 9164 C 856.104 -0.892616 -1.74719 0
M  V30 9165 O 855.229 -0.0915491 -2.16206 0
M  V30 9166 C 855.824 -3.23115 -1.01894 0
M  V30 9167 C 854.383 -3.44831 -1.50892 0
M  V30 9168 C 853.53 -2.73558 -0.454044 0
M  V30 9169 H 856.481 -1.57266 0.212843 0
M  V30 9170 H 856.502 -3.30493 -1.8856 0
M  V30 9171 H 856.014 -3.87798 -0.153175 0
M  V30 9172 H 854.115 -2.85345 -2.39602 0
M  V30 9173 H 854.228 -4.53485 -1.54559 0
M  V30 9174 H 852.592 -2.37787 -0.912666 0
M  V30 9175 H 853.375 -3.40932 0.402524 0
M  V30 9176 N 855.82 0.285905 -1.54985 0
M  V30 9177 C 857.231 0.857869 -1.65824 0
M  V30 9178 C 857.582 1.87531 -0.576763 0
M  V30 9179 O 856.707 2.14528 0.284016 0
M  V30 9180 C 857.302 1.56277 -3.00604 0
M  V30 9181 C 855.861 2.08294 -3.13513 0
M  V30 9182 C 855.008 0.920633 -2.61571 0
M  V30 9183 H 857.959 0.0625463 -1.58577 0
M  V30 9184 H 857.98 2.42912 -2.92872 0
M  V30 9185 H 857.492 0.822017 -3.79295 0
M  V30 9186 H 855.593 2.8537 -2.39572 0
M  V30 9187 H 855.706 2.3071 -4.19892 0
M  V30 9188 H 854.07 1.31043 -2.18403 0
M  V30 9189 H 854.853 0.193594 -3.42754 0
M  V30 9190 N 857.298 1.47698 0.54982 0
M  V30 9191 C 858.544 1.54931 1.30859 0
M  V30 9192 C 858.877 0.214021 1.93017 0
M  V30 9193 O 858.152 -0.778093 1.78258 0
M  V30 9194 C 858.435 2.67286 2.41309 0
M  V30 9195 C 858.288 4.10457 1.83971 0
M  V30 9196 C 859.607 2.75509 3.43195 0
M  V30 9197 H 856.726 0.56399 0.474431 0
M  V30 9198 H 859.368 1.79787 0.614541 0
M  V30 9199 H 857.518 2.46224 3.0051 0
M  V30 9200 H 859.19 4.42903 1.28974 0
M  V30 9201 H 857.433 4.18387 1.14606 0
M  V30 9202 H 858.104 4.84857 2.63851 0
M  V30 9203 H 860.58 2.94531 2.93923 0
M  V30 9204 H 859.456 3.55886 4.17895 0
M  V30 9205 H 859.717 1.82863 4.02509 0
M  V30 9206 N 858.776 -0.797141 1.35954 0
M  V30 9207 C 860.025 -1.54983 1.29086 0
M  V30 9208 C 860.338 -1.95167 -0.130003 0
M  V30 9209 O 861.544 -2.69596 -0.32101 0
M  V30 9210 C 860 -2.79738 2.26439 0
M  V30 9211 C 859.608 -2.46753 3.73921 0
M  V30 9212 C 861.352 -3.57733 2.28533 0
M  V30 9213 C 859.259 -3.67858 4.63071 0
M  V30 9214 H 858.189 -0.581766 0.479651 0
M  V30 9215 H 860.84 -0.87541 1.61273 0
M  V30 9216 H 859.222 -3.48939 1.87236 0
M  V30 9217 H 860.396 -1.85499 4.21814 0
M  V30 9218 H 858.711 -1.81985 3.74527 0
M  V30 9219 H 861.308 -4.47699 2.92351 0
M  V30 9220 H 861.651 -3.95754 1.29169 0
M  V30 9221 H 862.184 -2.95504 2.66313 0
M  V30 9222 H 858.923 -3.34939 5.63468 0
M  V30 9223 H 858.443 -4.28305 4.19898 0
M  V30 9224 H 860.122 -4.34977 4.78961 0
M  V30 9225 N 860.254 -1.20106 -1.0204 0
M  V30 9226 C 861.482 -1.0344 -1.79186 0
M  V30 9227 C 861.897 0.416542 -1.84148 0
M  V30 9228 O 861.254 1.28925 -1.29168 0
M  V30 9229 C 861.305 -1.60663 -3.23836 0
M  V30 9230 O 861.026 -3.00079 -3.19193 0
M  V30 9231 C 862.527 -1.48897 -4.17546 0
M  V30 9232 H 859.747 -0.364093 -0.563629 0
M  V30 9233 H 862.291 -1.5911 -1.28469 0
M  V30 9234 H 860.446 -1.09122 -3.71714 0
M  V30 9235 H 860.86 -3.27162 -4.09958 0
M  V30 9236 H 862.334 -1.93703 -5.16898 0
M  V30 9237 H 862.811 -0.440843 -4.36982 0
M  V30 9238 H 863.417 -1.9961 -3.75547 0
M  V30 9239 N 861.732 1.21287 -1.00634 0
M  V30 9240 C 862.642 2.27388 -0.577226 0
M  V30 9241 C 863.658 1.69791 0.380399 0
M  V30 9242 O 864.834 1.99918 0.2439 0
M  V30 9243 C 861.899 3.46588 0.0880532 0
M  V30 9244 C 860.96 4.19453 -0.914222 0
M  V30 9245 C 860.193 5.32962 -0.280596 0
M  V30 9246 O 860.416 5.62895 0.922265 0
M  V30 9247 O 859.35 5.93666 -0.992196 0
M  V30 9248 H 863.176 2.66289 -1.46028 0
M  V30 9249 H 860.761 1.2771 -0.775283 0
M  V30 9250 H 862.643 4.18881 0.460094 0
M  V30 9251 H 861.318 3.09585 0.945461 0
M  V30 9252 H 860.225 3.49376 -1.33744 0
M  V30 9253 H 861.558 4.6037 -1.74126 0
M  V30 9254 O 863.249 0.917748 1.3289 0
M  V30 9255 H 863.94 0.536038 1.86135 0
M  V30 END ATOM
M  V30 BEGIN BOND
M  V30 END BOND
M  V30 END CTAB
M  END
$$$$
