drugbank_target|Q05603 Nicotinate-nucleotide--dimethylbenzimidazole phosphoribosyltransferase (DB00173; DB01688; DB01726; DB02030; DB02163; DB02382; DB02591; DB02770; DB02819; DB02905; DB02962; DB03018; DB03079; DB03177; DB03180; DB03200; DB03366; DB03887; DB04052; DB04120; DB04130; DB04176; DB04532; DB04533)
 OpenBabel12092119503D

  0  0  0     0  0            999 V3000
M  V30 BEGIN CTAB
M  V30 COUNTS 5172 5213 0 0 0
M  V30 BEGIN ATOM
M  V30 1 H -0.908 1.98254 -0.117106 0
M  V30 2 N 0 1.576 0 0
M  V30 3 C 0.933 2.03868 1.02534 0
M  V30 4 C 1.911 0.928543 1.3348 0
M  V30 5 O 3.095 1.19667 1.45644 0
M  V30 6 C 0.222 2.43627 2.35294 0
M  V30 7 C -0.732 3.65373 2.2001 0
M  V30 8 S 0.101 5.13292 1.52614 0
M  V30 9 C 1.257 5.56322 2.86805 0
M  V30 10 H 1.49 2.90518 0.631377 0
M  V30 11 H -0.977 1.52953 0.210867 0
M  V30 12 H 0.981 2.67203 3.11629 0
M  V30 13 H -0.358 1.57376 2.7183 0
M  V30 14 H -1.165 3.90944 3.18086 0
M  V30 15 H -1.563 3.418 1.51819 0
M  V30 16 H 0.729 5.58782 3.83104 0
M  V30 17 H 1.672 6.56266 2.65933 0
M  V30 18 H 2.08 4.83886 2.90714 0
M  V30 19 N 1.4781 -0.272755 1.55222 0
M  V30 20 C 2.4101 -1.35946 1.8453 0
M  V30 21 C 3.4231 -1.45525 0.729818 0
M  V30 22 O 4.6121 -1.47337 1.00767 0
M  V30 23 C 1.7121 -2.74069 1.99347 0
M  V30 24 C 0.8851 -2.87079 3.30007 0
M  V30 25 C -0.0559 -4.05879 3.34886 0
M  V30 26 O -1.0299 -3.96626 4.08261 0
M  V30 27 N 0.1721 -5.17857 2.62307 0
M  V30 28 H 2.9371 -1.11149 2.78327 0
M  V30 29 H 0.4981 -0.462869 1.55142 0
M  V30 30 H 2.4901 -3.51838 1.99981 0
M  V30 31 H 1.0601 -2.91688 1.12415 0
M  V30 32 H 0.2801 -1.96193 3.41909 0
M  V30 33 H 1.5681 -2.92701 4.16177 0
M  V30 34 H 0.9661 -5.28261 2.02377 0
M  V30 35 H -0.4769 -5.93855 2.68663 0
M  V30 36 N 2.9562 -1.48159 -0.537278 0
M  V30 37 C 4.1842 -1.59454 -1.31841 0
M  V30 38 C 4.5992 -0.252065 -1.8711 0
M  V30 39 O 3.9562 0.757621 -1.66031 0
M  V30 40 C 4.0072 -2.63546 -2.47439 0
M  V30 41 O 3.7282 -3.92583 -1.94449 0
M  V30 42 C 5.2292 -2.85212 -3.39366 0
M  V30 43 H 2.4492 -0.53785 -0.401196 0
M  V30 44 H 4.9932 -1.93932 -0.648891 0
M  V30 45 H 3.1482 -2.31946 -3.1029 0
M  V30 46 H 3.5622 -4.49629 -2.70063 0
M  V30 47 H 5.0362 -3.61863 -4.16844 0
M  V30 48 H 5.5132 -1.93765 -3.94147 0
M  V30 49 H 6.1192 -3.18086 -2.82314 0
M  V30 50 N 4.4343 0.785586 -1.36625 0
M  V30 51 C 5.3643 1.91259 -1.33949 0
M  V30 52 C 6.3453 1.68795 -0.210325 0
M  V30 53 O 7.5303 1.89854 -0.408561 0
M  V30 54 C 4.6603 3.28339 -1.13186 0
M  V30 55 C 3.6143 3.65335 -2.22967 0
M  V30 56 C 2.9403 5.00806 -1.87342 0
M  V30 57 C 4.2403 3.7352 -3.65075 0
M  V30 58 H 5.9343 1.93755 -2.28253 0
M  V30 59 H 3.4803 0.930788 -1.09874 0
M  V30 60 H 5.4333 4.06804 -1.09948 0
M  V30 61 H 4.1573 3.2624 -0.153332 0
M  V30 62 H 2.8163 2.89169 -2.25337 0
M  V30 63 H 2.4643 4.95233 -0.880545 0
M  V30 64 H 2.1643 5.26529 -2.60846 0
M  V30 65 H 3.6883 5.81687 -1.85667 0
M  V30 66 H 5.1023 4.42168 -3.64911 0
M  V30 67 H 3.4993 4.10731 -4.37516 0
M  V30 68 H 4.5693 2.74527 -3.99703 0
M  V30 69 N 5.9124 1.20967 1.01018 0
M  V30 70 C 6.8624 0.93182 2.08089 0
M  V30 71 C 7.8464 -0.110898 1.60517 0
M  V30 72 O 9.0384 0.0973392 1.76732 0
M  V30 73 C 6.1674 0.492719 3.39746 0
M  V30 74 C 5.2534 1.56922 3.94 0
M  V30 75 N 5.6444 2.79312 4.21686 0
M  V30 76 C 3.9424 1.43688 4.2222 0
M  V30 77 C 4.6434 3.48797 4.65527 0
M  V30 78 N 3.6194 2.76224 4.68189 0
M  V30 79 H 7.4214 1.86175 2.27412 0
M  V30 80 H 4.9354 1.10463 1.19045 0
M  V30 81 H 6.9324 0.275044 4.15992 0
M  V30 82 H 5.5924 -0.430509 3.21833 0
M  V30 83 H 6.6034 3.15903 4.10397 0
M  V30 84 H 3.2804 0.578548 4.13472 0
M  V30 85 H 4.6704 4.53561 4.95714 0
M  V30 86 N 7.3905 -1.2043 1.01659 0
M  V30 87 C 8.3535 -2.21433 0.591616 0
M  V30 88 C 9.3535 -1.57203 -0.338226 0
M  V30 89 O 10.5435 -1.73737 -0.126918 0
M  V30 90 C 7.6755 -3.40628 -0.136058 0
M  V30 91 H 8.8685 -2.60545 1.48514 0
M  V30 92 H 6.4215 -1.33893 0.806379 0
M  V30 93 H 7.1565 -3.07019 -1.04449 0
M  V30 94 H 6.9415 -3.88475 0.531917 0
M  V30 95 H 8.4315 -4.15475 -0.420735 0
M  V30 96 N 8.8686 -0.792821 -1.36206 0
M  V30 97 C 9.7986 -0.207853 -2.32573 0
M  V30 98 C 10.7796 0.659055 -1.56813 0
M  V30 99 O 11.9646 0.592176 -1.84951 0
M  V30 100 C 9.0946 0.655449 -3.41059 0
M  V30 101 C 8.0486 -0.111842 -4.27854 0
M  V30 102 C 7.3746 0.872274 -5.27537 0
M  V30 103 C 8.6746 -1.30299 -5.05786 0
M  V30 104 H 10.3686 -1.01294 -2.81744 0
M  V30 105 H 7.9146 -0.48854 -1.3546 0
M  V30 106 H 9.8676 1.07464 -4.07467 0
M  V30 107 H 8.5916 1.49328 -2.90463 0
M  V30 108 H 7.2506 -0.512053 -3.63006 0
M  V30 109 H 6.8986 1.70523 -4.73214 0
M  V30 110 H 6.5986 0.363291 -5.86476 0
M  V30 111 H 8.1226 1.28996 -5.96818 0
M  V30 112 H 9.5366 -0.959379 -5.65216 0
M  V30 113 H 7.9336 -1.7455 -5.74154 0
M  V30 114 H 9.0036 -2.09663 -4.37229 0
M  V30 115 N 10.3467 1.47872 -0.545128 0
M  V30 116 C 11.2767 2.32661 0.197793 0
M  V30 117 C 12.2577 1.43041 0.920504 0
M  V30 118 O 13.4427 1.71912 0.90333 0
M  V30 119 C 10.5727 3.24569 1.23582 0
M  V30 120 C 9.5267 4.23333 0.630323 0
M  V30 121 C 8.8527 5.0448 1.77211 0
M  V30 122 C 10.1527 5.20704 -0.407974 0
M  V30 123 H 11.8467 2.95024 -0.510045 0
M  V30 124 H 9.3927 1.4187 -0.246731 0
M  V30 125 H 11.3457 3.8272 1.76362 0
M  V30 126 H 10.0697 2.60236 1.97344 0
M  V30 127 H 8.7287 3.6639 0.123922 0
M  V30 128 H 8.3767 4.36561 2.49847 0
M  V30 129 H 8.0767 5.71339 1.37281 0
M  V30 130 H 9.6007 5.65487 2.3034 0
M  V30 131 H 11.0147 5.7329 0.033305 0
M  V30 132 H 9.4117 5.95699 -0.725486 0
M  V30 133 H 10.4817 4.66917 -1.30828 0
M  V30 134 N 11.8248 0.280983 1.55075 0
M  V30 135 C 13.2408 -0.0729964 1.59433 0
M  V30 136 C 13.4408 -1.5411 1.29817 0
M  V30 137 O 12.4968 -2.29086 1.06187 0
M  V30 138 C 13.8098 0.306921 2.9913 0
M  V30 139 C 15.3578 0.254023 3.11968 0
M  V30 140 C 15.8328 0.608467 4.5394 0
M  V30 141 N 17.3238 0.560241 4.59799 0
M  V30 142 C 18.0588 0.80722 5.6769 0
M  V30 143 N 17.5548 1.11912 6.83701 0
M  V30 144 N 19.3478 0.735623 5.57266 0
M  V30 145 H 11.4988 1.238 1.7259 0
M  V30 146 H 13.7618 0.500547 0.805082 0
M  V30 147 H 13.4678 1.32816 3.25657 0
M  V30 148 H 13.3418 -0.349363 3.75579 0
M  V30 149 H 15.7288 -0.75794 2.852 0
M  V30 150 H 15.8098 0.944649 2.37718 0
M  V30 151 H 15.4538 1.61814 4.81434 0
M  V30 152 H 15.3838 -0.104013 5.26497 0
M  V30 153 H 17.8748 0.329288 3.76463 0
M  V30 154 H 18.1878 1.29409 7.61888 0
M  V30 155 H 16.5328 1.15695 6.85303 0
M  V30 156 H 19.7238 0.491752 4.6551 0
M  V30 157 H 19.8968 0.931482 6.4127 0
M  V30 158 N 13.3029 -1.57598 0.00835791 0
M  V30 159 C 14.5799 -1.82172 -0.712235 0
M  V30 160 C 14.9599 -0.887873 -1.9152 0
M  V30 161 O 14.3079 0.06146 -2.28417 0
M  V30 162 C 14.5179 -3.30875 -1.11008 0
M  V30 163 C 15.8659 -3.96826 -1.51044 0
M  V30 164 O 16.8899 -3.35248 -1.20364 0
M  V30 165 O 15.7489 -5.05318 -2.08125 0
M  V30 166 H 12.8429 -0.750435 -0.347529 0
M  V30 167 H 15.3889 -1.69665 0.0344523 0
M  V30 168 H 14.1609 -3.90481 -0.252982 0
M  V30 169 H 13.7839 -3.48412 -1.9156 0
M  V30 170 N 14.781 0.264519 -1.55364 0
M  V30 171 C 16.03 0.992812 -1.75574 0
M  V30 172 C 16.343 1.87142 -0.568979 0
M  V30 173 O 17.549 2.63513 -0.653682 0
M  V30 174 C 16.005 1.81519 -3.10771 0
M  V30 175 C 15.613 0.984839 -4.37041 0
M  V30 176 C 17.357 2.53727 -3.40327 0
M  V30 177 C 15.264 1.80209 -5.63275 0
M  V30 178 H 14.194 0.374412 -0.65447 0
M  V30 179 H 16.845 0.248138 -1.81815 0
M  V30 180 H 15.227 2.60115 -2.98591 0
M  V30 181 H 16.401 0.242455 -4.60162 0
M  V30 182 H 14.716 0.37691 -4.14691 0
M  V30 183 H 17.313 3.15292 -4.3185 0
M  V30 184 H 17.656 3.24447 -2.60845 0
M  V30 185 H 18.189 1.82156 -3.53644 0
M  V30 186 H 14.928 1.13896 -6.45529 0
M  V30 187 H 14.448 2.52022 -5.44284 0
M  V30 188 H 16.127 2.37364 -6.01887 0
M  V30 189 N 16.2591 1.48442 0.529413 0
M  V30 190 C 17.6701 1.5002 1.11134 0
M  V30 191 C 18.0211 0.27031 1.94329 0
M  V30 192 O 17.1461 -0.622507 2.07253 0
M  V30 193 C 17.7411 2.71834 2.02217 0
M  V30 194 C 16.3001 2.76283 2.55627 0
M  V30 195 C 15.4471 2.43542 1.326 0
M  V30 196 H 18.3981 1.5555 0.314641 0
M  V30 197 H 18.4191 2.50384 2.8651 0
M  V30 198 H 17.9311 3.61331 1.41639 0
M  V30 199 H 16.0321 1.90995 3.19924 0
M  V30 200 H 16.1451 3.77725 2.94721 0
M  V30 201 H 14.5091 1.94709 1.64196 0
M  V30 202 H 15.2921 3.3528 0.737734 0
M  V30 203 N 17.7372 -0.778329 1.37039 0
M  V30 204 C 18.7002 -1.87301 1.32102 0
M  V30 205 C 19.7002 -1.59198 0.226405 0
M  V30 206 O 20.8902 -1.67403 0.481861 0
M  V30 207 C 18.0222 -3.24309 1.05055 0
M  V30 208 H 19.2152 -1.93093 2.29467 0
M  V30 209 H 16.7682 -0.977358 1.21973 0
M  V30 210 H 17.5032 -3.24196 0.0819373 0
M  V30 211 H 17.2882 -3.46098 1.84279 0
M  V30 212 H 18.7782 -4.04382 1.04234 0
M  V30 213 N 19.2153 -1.21501 -1.00376 0
M  V30 214 C 20.6263 -1.03146 -1.55621 0
M  V30 215 C 20.9773 0.408375 -1.91903 0
M  V30 216 O 20.1023 1.29177 -1.73616 0
M  V30 217 C 20.6973 -1.86612 -2.82775 0
M  V30 218 C 19.2563 -1.72586 -3.34501 0
M  V30 219 C 18.4033 -1.83747 -2.07683 0
M  V30 220 H 21.3543 -1.35505 -0.826081 0
M  V30 221 H 21.3753 -1.3771 -3.54706 0
M  V30 222 H 20.8873 -2.91399 -2.56336 0
M  V30 223 H 18.9883 -0.704877 -3.65872 0
M  V30 224 H 19.1013 -2.54623 -4.05837 0
M  V30 225 H 17.4653 -1.27069 -2.20739 0
M  V30 226 H 18.2483 -2.90044 -1.83655 0
M  V30 227 N 20.6934 1.19889 -1.02296 0
M  V30 228 C 21.9704 1.85148 -0.630832 0
M  V30 229 C 22.3504 1.91385 0.890782 0
M  V30 230 O 21.6984 1.42642 1.78509 0
M  V30 231 C 21.9084 3.24442 -1.28602 0
M  V30 232 C 23.2564 4.00663 -1.4055 0
M  V30 233 O 24.2804 3.33818 -1.24273 0
M  V30 234 O 23.1394 5.20387 -1.66913 0
M  V30 235 H 20.2334 0.797613 -0.218499 0
M  V30 236 H 22.7794 1.27427 -1.12074 0
M  V30 237 H 21.5514 3.14704 -2.32545 0
M  V30 238 H 21.1744 3.89802 -0.7836 0
M  V30 239 N 22.1715 0.800033 1.35784 0
M  V30 240 C 23.1345 0.211565 2.28221 0
M  V30 241 C 24.1345 -0.59728 1.49296 0
M  V30 242 O 25.3245 -0.416721 1.69142 0
M  V30 243 C 22.4565 -0.705846 3.33513 0
M  V30 244 H 23.6495 1.02677 2.81776 0
M  V30 245 H 21.2025 0.570211 1.45528 0
M  V30 246 H 21.9375 -1.54498 2.85133 0
M  V30 247 H 21.7225 -0.127655 3.91892 0
M  V30 248 H 23.2125 -1.11211 4.02519 0
M  V30 249 N 23.6496 -1.47581 0.552962 0
M  V30 250 C 24.5596 -2.33743 -0.200353 0
M  V30 251 C 25.5756 -1.47928 -0.916151 0
M  V30 252 O 26.7516 -1.80865 -0.885993 0
M  V30 253 C 23.8166 -3.24536 -1.21973 0
M  V30 254 C 22.8776 -4.26238 -0.511819 0
M  V30 255 C 22.1106 -5.12693 -1.48263 0
M  V30 256 O 22.3336 -5.01525 -2.71714 0
M  V30 257 O 21.2676 -5.93375 -1.00945 0
M  V30 258 H 25.0936 -2.9945 0.506304 0
M  V30 259 H 22.6786 -1.46071 0.313622 0
M  V30 260 H 24.5606 -3.80631 -1.80827 0
M  V30 261 H 23.2356 -2.61462 -1.90839 0
M  V30 262 H 22.1426 -3.73914 0.117799 0
M  V30 263 H 23.4756 -4.92014 0.135308 0
M  V30 264 N 25.1277 -0.289203 -1.54924 0
M  V30 265 C 26.0907 0.579144 -2.21762 0
M  V30 266 C 27.0907 1.07047 -1.1999 0
M  V30 267 O 28.2807 0.968384 -1.44803 0
M  V30 268 C 25.4127 1.80055 -2.8947 0
M  V30 269 H 26.6057 -0.00464908 -2.999 0
M  V30 270 H 24.1587 -0.0399306 -1.56249 0
M  V30 271 H 24.8937 2.42449 -2.15381 0
M  V30 272 H 24.6787 1.45602 -3.64064 0
M  V30 273 H 26.1687 2.41773 -3.40493 0
M  V30 274 N 26.6058 1.57591 -0.0167156 0
M  V30 275 C 27.5388 2.04944 1.00366 0
M  V30 276 C 28.5168 0.942648 1.32487 0
M  V30 277 O 29.7008 1.21205 1.44367 0
M  V30 278 C 26.8278 2.46109 2.32697 0
M  V30 279 C 25.8738 3.67686 2.16123 0
M  V30 280 S 26.7068 5.14882 1.47161 0
M  V30 281 C 27.8628 5.59332 2.80888 0
M  V30 282 H 28.0958 2.91172 0.600528 0
M  V30 283 H 25.6288 1.53168 0.194632 0
M  V30 284 H 27.5868 2.70493 3.08778 0
M  V30 285 H 26.2478 1.6025 2.70146 0
M  V30 286 H 25.4408 3.94296 3.13922 0
M  V30 287 H 25.0428 3.43391 1.48185 0
M  V30 288 H 27.3348 5.62814 3.77156 0
M  V30 289 H 28.2778 6.5905 2.58958 0
M  V30 290 H 28.6858 4.86942 2.85565 0
M  V30 291 N 28.0839 -0.256276 1.55502 0
M  V30 292 C 29.0469 -1.30047 1.88734 0
M  V30 293 C 30.0469 -1.4154 0.763086 0
M  V30 294 O 31.2369 -1.40403 1.03115 0
M  V30 295 C 28.3689 -2.67953 2.10747 0
M  V30 296 H 29.5619 -1.01802 2.82093 0
M  V30 297 H 27.1149 -0.495134 1.4825 0
M  V30 298 H 27.8499 -3.01351 1.19825 0
M  V30 299 H 27.6349 -2.60993 2.92617 0
M  V30 300 H 29.1249 -3.43368 2.37673 0
M  V30 301 N 29.562 -1.4872 -0.521534 0
M  V30 302 C 30.978 -1.35028 -0.850855 0
M  V30 303 C 31.178 -0.367712 -1.98116 0
M  V30 304 O 30.234 0.208037 -2.51642 0
M  V30 305 C 31.547 -2.75263 -1.21041 0
M  V30 306 C 33.095 -2.83813 -1.31981 0
M  V30 307 C 33.57 -4.24769 -1.71276 0
M  V30 308 N 35.061 -4.27482 -1.78363 0
M  V30 309 C 35.796 -5.33494 -2.1017 0
M  V30 310 N 35.292 -6.49775 -2.40343 0
M  V30 311 N 37.085 -5.20894 -2.11248 0
M  V30 312 H 29.236 -2.11214 0.22413 0
M  V30 313 H 31.499 -0.947252 0.0376439 0
M  V30 314 H 31.205 -3.48765 -0.453415 0
M  V30 315 H 31.079 -3.09327 -2.15863 0
M  V30 316 H 33.466 -2.10561 -2.06756 0
M  V30 317 H 33.547 -2.53358 -0.352596 0
M  V30 318 H 33.191 -4.9854 -0.970588 0
M  V30 319 H 33.121 -4.52673 -2.69062 0
M  V30 320 H 35.612 -3.43611 -1.57288 0
M  V30 321 H 35.925 -7.26402 -2.63743 0
M  V30 322 H 34.27 -6.53035 -2.37844 0
M  V30 323 H 37.461 -4.29065 -1.87139 0
M  V30 324 H 37.634 -6.03612 -2.35704 0
M  V30 325 N 31.0401 0.771051 -1.3745 0
M  V30 326 C 32.0031 1.86598 -1.33093 0
M  V30 327 C 33.0031 1.59076 -0.234845 0
M  V30 328 O 34.1931 1.67145 -0.490732 0
M  V30 329 C 31.3251 3.23747 -1.06773 0
M  V30 330 H 32.5181 1.91873 -2.30488 0
M  V30 331 H 30.0711 0.970876 -1.2249 0
M  V30 332 H 30.8061 3.24148 -0.099129 0
M  V30 333 H 30.5911 3.45115 -1.86112 0
M  V30 334 H 32.0811 4.03824 -1.06377 0
M  V30 335 N 32.5182 1.22032 0.997298 0
M  V30 336 C 33.4502 0.944263 2.08845 0
M  V30 337 C 34.4632 -0.0754663 1.62625 0
M  V30 338 O 35.6522 0.157994 1.77799 0
M  V30 339 C 32.7522 0.397723 3.36558 0
M  V30 340 C 31.9252 1.47362 4.11829 0
M  V30 341 C 30.9842 0.934951 5.17827 0
M  V30 342 O 30.0102 1.62016 5.45655 0
M  V30 343 N 31.2122 -0.245895 5.79979 0
M  V30 344 H 33.9772 1.88363 2.33109 0
M  V30 345 H 31.5382 1.12661 1.16272 0
M  V30 346 H 33.5302 0.0227771 4.04694 0
M  V30 347 H 32.1002 -0.446646 3.09393 0
M  V30 348 H 31.3202 2.02208 3.38386 0
M  V30 349 H 32.6082 2.19764 4.58891 0
M  V30 350 H 32.0062 -0.819475 5.59733 0
M  V30 351 H 30.5632 -0.562272 6.4937 0
M  V30 352 N 33.9963 -1.19345 1.0293 0
M  V30 353 C 34.9283 -2.22036 0.56857 0
M  V30 354 C 35.9413 -1.58865 -0.355779 0
M  V30 355 O 37.1303 -1.77851 -0.152103 0
M  V30 356 C 34.2303 -3.38363 -0.190752 0
M  V30 357 C 33.4033 -4.31118 0.738643 0
M  V30 358 C 32.4623 -5.26194 0.0246497 0
M  V30 359 O 31.4883 -5.65461 0.651354 0
M  V30 360 N 32.6903 -5.66971 -1.24594 0
M  V30 361 H 35.4553 -2.6219 1.45177 0
M  V30 362 H 33.0163 -1.34015 0.908381 0
M  V30 363 H 35.0083 -3.98981 -0.677961 0
M  V30 364 H 33.5783 -2.96994 -0.975366 0
M  V30 365 H 32.7983 -3.68276 1.40593 0
M  V30 366 H 34.0863 -4.90001 1.37029 0
M  V30 367 H 33.4843 -5.37104 -1.77583 0
M  V30 368 H 32.0413 -6.2984 -1.67764 0
M  V30 369 N 35.4744 -0.807222 -1.35358 0
M  V30 370 C 36.4244 -0.190706 -2.27201 0
M  V30 371 C 37.4084 0.635838 -1.47804 0
M  V30 372 O 38.6004 0.492991 -1.69996 0
M  V30 373 C 35.7294 0.659337 -3.36909 0
M  V30 374 C 34.8154 -0.176971 -4.23731 0
M  V30 375 N 35.2064 -1.24029 -4.90357 0
M  V30 376 C 33.5044 0.0412953 -4.45981 0
M  V30 377 C 34.2054 -1.75092 -5.54723 0
M  V30 378 N 33.1814 -1.05727 -5.33219 0
M  V30 379 H 36.9834 -1.0043 -2.76208 0
M  V30 380 H 34.4974 -0.648445 -1.48892 0
M  V30 381 H 36.4944 1.11706 -4.01656 0
M  V30 382 H 35.1544 1.47127 -2.89454 0
M  V30 383 H 36.1654 -1.62295 -4.91814 0
M  V30 384 H 32.8424 0.82232 -4.09322 0
M  V30 385 H 34.2324 -2.63963 -6.17878 0
M  V30 386 N 36.9525 1.47285 -0.560781 0
M  V30 387 C 38.2015 2.01668 -0.035895 0
M  V30 388 C 38.5145 1.44021 1.32353 0
M  V30 389 O 39.7205 1.90088 1.93853 0
M  V30 390 C 38.1765 3.59897 -0.0136659 0
M  V30 391 C 37.7845 4.26536 -1.37006 0
M  V30 392 C 39.5285 4.22017 0.458425 0
M  V30 393 C 37.4355 5.76782 -1.30675 0
M  V30 394 H 36.3655 0.753938 -0.00964879 0
M  V30 395 H 39.0165 1.69243 -0.709166 0
M  V30 396 H 37.3985 3.89301 0.725325 0
M  V30 397 H 38.5725 4.0877 -2.12705 0
M  V30 398 H 36.8875 3.76419 -1.78038 0
M  V30 399 H 39.4845 5.32124 0.524247 0
M  V30 400 H 39.8275 3.89437 1.4712 0
M  V30 401 H 40.3605 3.97159 -0.225818 0
M  V30 402 H 37.0995 6.13988 -2.29564 0
M  V30 403 H 36.6195 5.96875 -0.591622 0
M  V30 404 H 38.2985 6.39063 -1.01033 0
M  V30 405 N 38.4306 0.297415 1.54768 0
M  V30 406 C 39.7076 -0.365847 1.92148 0
M  V30 407 C 40.0876 -1.71975 1.22424 0
M  V30 408 O 39.4356 -2.25666 0.358739 0
M  V30 409 C 39.6456 -0.484056 3.45627 0
M  V30 410 C 40.9936 -0.756594 4.17805 0
M  V30 411 O 42.0176 -0.568007 3.51642 0
M  V30 412 O 40.8766 -1.11863 5.34929 0
M  V30 413 H 37.9706 -0.203919 0.801465 0
M  V30 414 H 40.5166 0.34521 1.66152 0
M  V30 415 H 39.2886 0.467865 3.88493 0
M  V30 416 H 38.9116 -1.24372 3.77647 0
M  V30 417 N 39.9087 -1.5758 0.0250728 0
M  V30 418 C 41.1567 -1.91255 -0.653151 0
M  V30 419 C 41.4777 -0.901691 -1.729 0
M  V30 420 O 40.7477 0.0573785 -1.95816 0
M  V30 421 H 39.3277 -0.705942 -0.244243 0
M  V30 422 H 41.9897 -1.94767 0.0719209 0
M  V30 423 H 41.0857 -2.91752 -1.10847 0
M  V30 424 N 41.3868 0.248026 -1.55636 0
M  V30 425 C 42.3168 1.31079 -1.93237 0
M  V30 426 C 43.2978 1.50264 -0.797174 0
M  V30 427 O 44.4828 1.62891 -1.05737 0
M  V30 428 C 41.6128 2.66575 -2.22609 0
M  V30 429 C 40.5668 2.62087 -3.3837 0
M  V30 430 C 39.8928 4.01369 -3.53281 0
M  V30 431 C 41.1928 2.19171 -4.7409 0
M  V30 432 H 42.8868 0.998556 -2.82257 0
M  V30 433 H 40.4328 0.47891 -1.35803 0
M  V30 434 H 42.3858 3.41057 -2.47503 0
M  V30 435 H 41.1098 2.99432 -1.30414 0
M  V30 436 H 39.7688 1.90063 -3.13483 0
M  V30 437 H 39.4168 4.31489 -2.58508 0
M  V30 438 H 39.1168 3.99254 -4.31127 0
M  V30 439 H 40.6408 4.77552 -3.80495 0
M  V30 440 H 42.0548 2.83384 -4.98363 0
M  V30 441 H 40.4518 2.2817 -5.5503 0
M  V30 442 H 41.5218 1.14336 -4.71227 0
M  V30 443 N 42.8649 1.48995 0.513639 0
M  V30 444 C 43.7949 1.67636 1.62544 0
M  V30 445 C 44.7759 0.525087 1.61793 0
M  V30 446 O 45.9609 0.759502 1.78732 0
M  V30 447 C 43.0909 1.73114 3.01079 0
M  V30 448 C 42.0449 2.87905 3.16693 0
M  V30 449 C 41.3709 2.78486 4.56453 0
M  V30 450 C 42.6709 4.29005 2.97913 0
M  V30 451 H 44.3649 2.60716 1.47198 0
M  V30 452 H 41.9109 1.25465 0.706714 0
M  V30 453 H 43.8639 1.84742 3.78746 0
M  V30 454 H 42.5879 0.766241 3.17484 0
M  V30 455 H 41.2469 2.75859 2.41448 0
M  V30 456 H 40.8949 1.7993 4.69717 0
M  V30 457 H 40.5949 3.55523 4.67843 0
M  V30 458 H 42.1189 2.92104 5.36197 0
M  V30 459 H 43.5329 4.41798 3.65359 0
M  V30 460 H 41.9299 5.07166 3.20785 0
M  V30 461 H 42.9999 4.44329 1.94165 0
M  V30 462 N 44.343 -0.763751 1.37857 0
M  V30 463 C 45.29 -1.87726 1.34267 0
M  V30 464 C 46.26 -1.64807 0.206879 0
M  V30 465 O 47.445 -1.86613 0.397508 0
M  V30 466 C 44.585 -3.24896 1.16346 0
M  V30 467 C 43.698 -3.59716 2.39225 0
M  V30 468 C 42.833 -4.86137 2.14114 0
M  V30 469 C 41.872 -5.13711 3.32817 0
M  V30 470 N 41.009 -6.31323 3.07206 0
M  V30 471 H 45.849 -1.90129 2.29466 0
M  V30 472 H 43.386 -0.929433 1.14017 0
M  V30 473 H 45.344 -4.04036 1.03975 0
M  V30 474 H 43.974 -3.21847 0.247909 0
M  V30 475 H 43.026 -2.75498 2.62307 0
M  V30 476 H 44.338 -3.76027 3.27728 0
M  V30 477 H 43.492 -5.73198 1.9882 0
M  V30 478 H 42.231 -4.71945 1.22961 0
M  V30 479 H 41.236 -4.25123 3.48641 0
M  V30 480 H 42.461 -5.29807 4.24832 0
M  V30 481 H 40.407 -6.18474 2.1869 0
M  V30 482 H 40.324 -6.48087 3.89254 0
M  V30 483 H 41.592 -7.213 2.95546 0
M  V30 484 N 45.8211 -1.22559 -0.990812 0
M  V30 485 C 47.2321 -1.04791 -1.54518 0
M  V30 486 C 47.5831 0.387998 -1.92325 0
M  V30 487 O 46.7081 1.27328 -1.74976 0
M  V30 488 C 47.3031 -1.896 -2.80779 0
M  V30 489 C 45.8621 -1.76124 -3.32652 0
M  V30 490 C 45.0091 -1.8594 -2.05722 0
M  V30 491 H 47.9601 -1.36374 -0.811662 0
M  V30 492 H 47.9811 -1.41464 -3.53225 0
M  V30 493 H 47.4931 -2.94101 -2.53231 0
M  V30 494 H 45.5941 -0.743643 -3.65104 0
M  V30 495 H 45.7071 -2.58913 -4.03114 0
M  V30 496 H 44.0711 -1.29403 -2.19379 0
M  V30 497 H 44.8541 -2.91976 -1.80568 0
M  V30 498 N 47.2992 1.18797 -1.03562 0
M  V30 499 C 48.7102 1.70322 -0.764676 0
M  V30 500 C 49.0612 1.82708 0.714996 0
M  V30 501 O 48.1862 1.50299 1.55689 0
M  V30 502 C 48.7812 3.09356 -1.38145 0
M  V30 503 C 47.3402 3.58114 -1.15895 0
M  V30 504 C 46.4872 2.34798 -1.4753 0
M  V30 505 H 49.4382 1.03543 -1.20268 0
M  V30 506 H 49.4592 3.72378 -0.781977 0
M  V30 507 H 48.9712 3.00309 -2.45837 0
M  V30 508 H 47.0722 3.72464 -0.100544 0
M  V30 509 H 47.1852 4.4184 -1.8524 0
M  V30 510 H 45.5492 2.38464 -0.894829 0
M  V30 511 H 46.3322 2.28375 -2.56319 0
M  V30 512 N 48.7773 0.814389 1.34928 0
M  V30 513 C 50.0253 0.397636 1.9815 0
M  V30 514 C 50.3463 -1.04069 1.64908 0
M  V30 515 O 49.6163 -1.72121 0.93548 0
M  V30 516 H 48.1963 0.144043 0.732981 0
M  V30 517 H 50.8583 1.04195 1.6471 0
M  V30 518 H 49.9543 0.509688 3.0791 0
M  V30 519 N 50.2554 -1.46986 0.568584 0
M  V30 520 C 51.4804 -2.07335 0.0520528 0
M  V30 521 C 51.9054 -1.41675 -1.23733 0
M  V30 522 O 51.2634 -0.495623 -1.74394 0
M  V30 523 C 51.3114 -3.60417 -0.11501 0
M  V30 524 O 50.4154 -3.95309 -1.17492 0
M  V30 525 H 49.7564 -0.661597 0.0564385 0
M  V30 526 H 52.2864 -1.88837 0.787507 0
M  V30 527 H 52.2964 -4.06698 -0.325644 0
M  V30 528 H 50.9714 -4.07601 0.826675 0
M  V30 529 H 49.5484 -3.60757 -0.943869 0
M  V30 530 N 51.7335 -0.305618 -1.54608 0
M  V30 531 C 52.6635 0.561482 -2.26649 0
M  V30 532 C 53.6445 1.13415 -1.26772 0
M  V30 533 O 54.8295 1.16262 -1.55553 0
M  V30 534 C 51.9595 1.73122 -3.01075 0
M  V30 535 C 50.9135 1.2887 -4.08138 0
M  V30 536 C 50.2395 2.54396 -4.70305 0
M  V30 537 C 51.5395 0.416578 -5.20636 0
M  V30 538 H 53.2335 -0.0393902 -2.99374 0
M  V30 539 H 50.7795 -0.020385 -1.43986 0
M  V30 540 H 52.7325 2.34396 -3.50195 0
M  V30 541 H 51.4565 2.3584 -2.25936 0
M  V30 542 H 50.1155 0.698991 -3.59875 0
M  V30 543 H 49.7635 3.15439 -3.918 0
M  V30 544 H 49.4635 2.25486 -5.42614 0
M  V30 545 H 50.9875 3.16464 -5.2219 0
M  V30 546 H 52.4015 0.935116 -5.65622 0
M  V30 547 H 50.7985 0.221046 -5.99693 0
M  V30 548 H 51.8685 -0.557162 -4.81688 0
M  V30 549 N 53.2116 1.57565 -0.0334293 0
M  V30 550 C 54.4596 1.91598 0.642999 0
M  V30 551 C 54.7806 0.910847 1.7242 0
M  V30 552 O 54.0506 -0.0469931 1.95844 0
M  V30 553 H 52.6306 0.707228 0.240496 0
M  V30 554 H 55.2926 1.94726 -0.0822488 0
M  V30 555 H 54.3886 2.92336 1.09298 0
M  V30 556 N 54.6897 -0.239769 1.55765 0
M  V30 557 C 56.1057 -0.588624 1.48349 0
M  V30 558 C 56.3057 -1.88005 0.72502 0
M  V30 559 O 55.3617 -2.51186 0.257269 0
M  V30 560 C 56.6747 -0.68474 2.928 0
M  V30 561 C 58.2227 -0.77659 3.03213 0
M  V30 562 C 58.6977 -0.904207 4.48986 0
M  V30 563 N 60.1887 -0.968896 4.52953 0
M  V30 564 C 60.9237 -1.08703 5.63002 0
M  V30 565 N 60.4197 -1.17026 6.82845 0
M  V30 566 N 62.2127 -1.12074 5.50814 0
M  V30 567 H 54.3637 0.607911 2.03515 0
M  V30 568 H 56.6267 0.21083 0.924259 0
M  V30 569 H 56.3327 0.194284 3.51163 0
M  V30 570 H 56.2067 -1.55435 3.43686 0
M  V30 571 H 58.5937 -1.64606 2.44926 0
M  V30 572 H 58.6747 0.118315 2.55526 0
M  V30 573 H 58.3187 -0.0392633 5.07885 0
M  V30 574 H 58.2487 -1.81426 4.9436 0
M  V30 575 H 60.7397 -0.915633 3.6664 0
M  V30 576 H 61.0527 -1.25966 7.62465 0
M  V30 577 H 59.3977 -1.13971 6.85591 0
M  V30 578 H 62.5887 -1.05226 4.5612 0
M  V30 579 H 62.7617 -1.20936 6.36615 0
M  V30 580 N 56.1678 -1.49265 -0.50573 0
M  V30 581 C 57.0978 -1.68495 -1.61653 0
M  V30 582 C 58.0788 -0.53366 -1.61512 0
M  V30 583 O 59.2638 -0.76897 -1.78327 0
M  V30 584 C 56.3938 -1.74709 -3.00157 0
M  V30 585 C 55.3478 -2.89581 -3.15162 0
M  V30 586 C 54.6738 -2.80903 -4.5497 0
M  V30 587 C 55.9738 -4.30578 -2.95634 0
M  V30 588 H 57.6678 -2.61493 -1.45814 0
M  V30 589 H 55.2138 -1.25838 -0.70005 0
M  V30 590 H 57.1668 -1.86748 -3.77761 0
M  V30 591 H 55.8908 -0.783067 -3.17074 0
M  V30 592 H 54.5498 -2.77136 -2.39982 0
M  V30 593 H 54.1978 -1.82419 -4.68756 0
M  V30 594 H 53.8978 -3.57999 -4.65951 0
M  V30 595 H 55.4218 -2.94944 -5.34641 0
M  V30 596 H 56.8358 -4.4373 -3.63011 0
M  V30 597 H 55.2328 -5.0886 -3.18091 0
M  V30 598 H 56.3028 -4.45352 -1.91806 0
M  V30 599 N 57.6459 0.756429 -1.3826 0
M  V30 600 C 58.5559 1.9009 -1.37488 0
M  V30 601 C 59.5719 1.71855 -0.272366 0
M  V30 602 O 60.7479 1.94827 -0.510318 0
M  V30 603 C 57.8129 3.25421 -1.19592 0
M  V30 604 C 56.8739 3.56202 -2.39622 0
M  V30 605 C 56.1069 4.85075 -2.2257 0
M  V30 606 O 56.3299 5.57246 -1.21793 0
M  V30 607 O 55.2639 5.15269 -3.11098 0
M  V30 608 H 59.0899 1.93695 -2.33914 0
M  V30 609 H 56.6749 0.901313 -1.1915 0
M  V30 610 H 58.5569 4.06337 -1.11661 0
M  V30 611 H 57.2319 3.22634 -0.262486 0
M  V30 612 H 56.1389 2.75458 -2.53128 0
M  V30 613 H 57.4719 3.63747 -3.31586 0
M  V30 614 N 59.124 1.23083 0.984299 0
M  V30 615 C 60.352 1.08714 1.76037 0
M  V30 616 C 60.767 -0.361691 1.85303 0
M  V30 617 O 60.124 -1.25034 1.32939 0
M  V30 618 C 60.175 1.70206 3.18923 0
M  V30 619 O 59.896 3.09423 3.10144 0
M  V30 620 C 61.397 1.61227 4.12941 0
M  V30 621 H 58.617 0.380664 0.552572 0
M  V30 622 H 61.161 1.62853 1.23689 0
M  V30 623 H 59.316 1.20109 3.6831 0
M  V30 624 H 59.73 3.39188 4.00065 0
M  V30 625 H 61.204 2.08962 5.10919 0
M  V30 626 H 61.681 0.570375 4.35481 0
M  V30 627 H 62.287 2.10671 3.69456 0
M  V30 628 N 60.6021 -1.18246 1.0419 0
M  V30 629 C 61.5321 -2.24127 0.654914 0
M  V30 630 C 62.5131 -1.66617 -0.342451 0
M  V30 631 O 63.6981 -1.92924 -0.222277 0
M  V30 632 C 60.8281 -3.47295 0.0183757 0
M  V30 633 C 59.7821 -4.17563 0.939414 0
M  V30 634 C 59.1081 -5.34438 0.167286 0
M  V30 635 C 60.4081 -4.70917 2.25908 0
M  V30 636 H 62.1021 -2.56753 1.54007 0
M  V30 637 H 59.6481 -1.23414 0.74195 0
M  V30 638 H 61.6011 -4.20572 -0.264082 0
M  V30 639 H 60.3251 -3.13907 -0.901664 0
M  V30 640 H 58.9841 -3.46186 1.20628 0
M  V30 641 H 58.6321 -4.97298 -0.7552 0
M  V30 642 H 58.3321 -5.82388 0.780901 0
M  V30 643 H 59.8561 -6.10504 -0.108125 0
M  V30 644 H 61.2701 -5.35882 2.03724 0
M  V30 645 H 59.6671 -5.29406 2.82577 0
M  V30 646 H 60.7371 -3.88272 2.9047 0
M  V30 647 N 62.0802 -0.821533 -1.34494 0
M  V30 648 C 63.0432 -0.247847 -2.27856 0
M  V30 649 C 64.0432 0.573453 -1.50227 0
M  V30 650 O 65.2332 0.389759 -1.69784 0
M  V30 651 C 62.3652 0.652698 -3.34593 0
M  V30 652 H 63.5582 -1.07146 -2.80107 0
M  V30 653 H 61.1112 -0.593291 -1.44602 0
M  V30 654 H 61.8462 1.49943 -2.87555 0
M  V30 655 H 61.6312 0.065292 -3.92046 0
M  V30 656 H 63.1212 1.04793 -4.04238 0
M  V30 657 N 63.5583 1.46682 -0.576371 0
M  V30 658 C 64.8043 2.02712 -0.0596221 0
M  V30 659 C 65.1373 1.44765 1.29448 0
M  V30 660 O 64.4123 0.610355 1.84675 0
M  V30 661 C 64.6953 3.60098 0.0129503 0
M  V30 662 C 64.5483 4.28441 -1.3696 0
M  V30 663 C 65.8673 4.34224 0.71678 0
M  V30 664 H 62.9863 0.736637 -0.0231407 0
M  V30 665 H 65.6283 1.74898 -0.742351 0
M  V30 666 H 63.7783 3.83926 0.594378 0
M  V30 667 H 65.4503 4.15896 -1.9957 0
M  V30 668 H 63.6933 3.8805 -1.93907 0
M  V30 669 H 64.3643 5.3716 -1.27135 0
M  V30 670 H 66.8403 4.15503 0.222908 0
M  V30 671 H 65.7163 5.43936 0.73657 0
M  V30 672 H 65.9773 4.04823 1.77682 0
M  V30 673 N 65.0364 0.313813 1.54444 0
M  V30 674 C 65.9684 -0.590425 2.21465 0
M  V30 675 C 66.9814 -1.08753 1.21147 0
M  V30 676 O 68.1704 -1.00278 1.4767 0
M  V30 677 C 65.2704 -1.82179 2.85769 0
M  V30 678 C 64.4434 -1.46502 4.12136 0
M  V30 679 C 63.5024 -2.55288 4.60124 0
M  V30 680 O 62.5284 -2.19842 5.25032 0
M  V30 681 N 63.7304 -3.86053 4.33525 0
M  V30 682 H 66.4954 -0.0166033 2.99695 0
M  V30 683 H 64.0564 0.136578 1.61323 0
M  V30 684 H 66.0484 -2.54328 3.14801 0
M  V30 685 H 64.6184 -2.30369 2.11303 0
M  V30 686 H 63.8384 -0.575595 3.89975 0
M  V30 687 H 65.1264 -1.20221 4.94393 0
M  V30 688 H 64.5244 -4.17654 3.81552 0
M  V30 689 H 63.0814 -4.54461 4.67235 0
M  V30 690 N 66.5145 -1.57545 0.0417849 0
M  V30 691 C 67.4445 -2.14009 -0.933929 0
M  V30 692 C 68.4255 -1.05938 -1.33083 0
M  V30 693 O 69.6105 -1.33833 -1.40721 0
M  V30 694 C 66.7405 -2.67747 -2.21199 0
M  V30 695 C 65.6945 -3.80718 -1.95544 0
M  V30 696 C 65.0205 -4.20935 -3.29724 0
M  V30 697 C 66.3205 -5.06258 -1.28452 0
M  V30 698 H 68.0145 -2.95788 -0.463645 0
M  V30 699 H 65.5605 -1.42285 -0.221573 0
M  V30 700 H 67.5135 -3.05886 -2.89848 0
M  V30 701 H 66.2375 -1.83147 -2.70416 0
M  V30 702 H 64.8965 -3.43037 -1.2931 0
M  V30 703 H 64.5445 -3.33298 -3.76724 0
M  V30 704 H 64.2445 -4.9707 -3.13361 0
M  V30 705 H 65.7685 -4.61666 -3.9962 0
M  V30 706 H 67.1825 -5.41903 -1.8712 0
M  V30 707 H 65.5795 -5.87475 -1.22445 0
M  V30 708 H 66.6495 -4.84207 -0.259219 0
M  V30 709 N 67.9926 0.231505 -1.5589 0
M  V30 710 C 68.9556 1.27028 -1.90779 0
M  V30 711 C 69.9556 1.40308 -0.785507 0
M  V30 712 O 71.1456 1.38744 -1.05336 0
M  V30 713 C 68.2776 2.64566 -2.14983 0
M  V30 714 H 69.4706 0.973017 -2.83677 0
M  V30 715 H 67.0236 0.471486 -1.49019 0
M  V30 716 H 67.7586 2.99406 -1.24604 0
M  V30 717 H 67.5436 2.56305 -2.96732 0
M  V30 718 H 69.0336 3.39543 -2.43105 0
M  V30 719 N 69.4707 1.49531 0.497807 0
M  V30 720 C 70.7187 1.58865 1.24926 0
M  V30 721 C 71.0397 0.278721 1.92998 0
M  V30 722 O 70.3097 -0.702144 1.82885 0
M  V30 723 H 68.8897 0.585343 0.464094 0
M  V30 724 H 71.5517 1.86174 0.57666 0
M  V30 725 H 70.6477 2.38633 2.01149 0
M  V30 726 N 70.9488 -0.749086 1.3866 0
M  V30 727 C 71.8818 -1.87111 1.30631 0
M  V30 728 C 72.8598 -1.61572 0.18251 0
M  V30 729 O 74.0438 -1.85019 0.360592 0
M  V30 730 C 71.1708 -3.22815 1.02511 0
M  V30 731 C 70.2168 -3.67234 2.1689 0
M  V30 732 S 71.0498 -3.78245 3.79066 0
M  V30 733 C 72.2058 -5.16761 3.53142 0
M  V30 734 H 72.4388 -1.93636 2.25594 0
M  V30 735 H 69.9718 -0.912525 1.24549 0
M  V30 736 H 71.9298 -4.01181 0.869701 0
M  V30 737 H 70.5908 -3.13964 0.0925884 0
M  V30 738 H 69.7838 -4.65677 1.92771 0
M  V30 739 H 69.3858 -2.96034 2.28561 0
M  V30 740 H 71.6778 -6.02656 3.09534 0
M  V30 741 H 72.6208 -5.45902 4.50995 0
M  V30 742 H 73.0288 -4.85771 2.87554 0
M  V30 743 N 72.4269 -1.23603 -0.977757 0
M  V30 744 C 73.8379 -1.06424 -1.53398 0
M  V30 745 C 74.1889 0.367578 -1.92726 0
M  V30 746 O 73.3139 1.25465 -1.76316 0
M  V30 747 C 73.9089 -1.92568 -2.78753 0
M  V30 748 C 72.4679 -1.79642 -3.30765 0
M  V30 749 C 71.6149 -1.88111 -2.03739 0
M  V30 750 H 74.5659 -1.37227 -0.797152 0
M  V30 751 H 74.5869 -1.45203 -3.51705 0
M  V30 752 H 74.0989 -2.96771 -2.50098 0
M  V30 753 H 72.1999 -0.782325 -3.64294 0
M  V30 754 H 72.3129 -2.63174 -4.00345 0
M  V30 755 H 70.6769 -1.31723 -2.17994 0
M  V30 756 H 71.4599 -2.93875 -1.77461 0
M  V30 757 N 73.905 1.17692 -1.04816 0
M  V30 758 C 75.153 1.87488 -0.754497 0
M  V30 759 C 75.474 1.81205 0.720407 0
M  V30 760 O 74.744 1.23544 1.52032 0
M  V30 761 H 73.324 0.694101 -0.276102 0
M  V30 762 H 75.986 1.42793 -1.32651 0
M  V30 763 H 75.082 2.93328 -1.06606 0
M  V30 764 N 75.3831 0.828654 1.34056 0
M  V30 765 C 76.3131 0.269443 2.3194 0
M  V30 766 C 77.2941 -0.617247 1.58506 0
M  V30 767 O 78.4791 -0.542931 1.86456 0
M  V30 768 C 75.6091 -0.564793 3.42677 0
M  V30 769 C 74.5631 0.225241 4.27407 0
M  V30 770 C 73.8891 -0.7321 5.29664 0
M  V30 771 C 75.1891 1.43663 5.02154 0
M  V30 772 H 76.8831 1.08728 2.7896 0
M  V30 773 H 74.4291 0.524283 1.34117 0
M  V30 774 H 76.3821 -0.966233 4.10173 0
M  V30 775 H 75.1061 -1.41574 2.9432 0
M  V30 776 H 73.7651 0.608117 3.61521 0
M  V30 777 H 73.4131 -1.57916 4.77568 0
M  V30 778 H 73.1131 -0.20767 5.87233 0
M  V30 779 H 74.6371 -1.13128 6.00029 0
M  V30 780 H 76.0511 1.1089 5.62473 0
M  V30 781 H 74.4481 1.89711 5.69324 0
M  V30 782 H 75.5181 2.21181 4.31517 0
M  V30 783 N 76.8612 -1.46375 0.584142 0
M  V30 784 C 77.8092 -2.32042 -0.161047 0
M  V30 785 C 78.8032 -1.44569 -0.882966 0
M  V30 786 O 80.0092 -1.61186 -0.801191 0
M  V30 787 H 76.3842 -0.748659 -0.0708033 0
M  V30 788 H 78.3552 -2.92704 0.580269 0
M  V30 789 C 77.1042 -3.27762 -1.1605 0
M  V30 790 H 76.4272 -3.95051 -0.614419 0
M  V30 791 H 77.8672 -3.90481 -1.65228 0
M  V30 792 C 76.3262 -2.53218 -2.22221 0
M  V30 793 O 76.8562 -2.29628 -3.29597 0
M  V30 794 N 75.0622 -2.13756 -1.96868 0
M  V30 795 H 74.6092 -2.33142 -1.09557 0
M  V30 796 H 74.5672 -1.642 -2.68115 0
M  V30 797 N 78.3393 -0.321999 -1.54275 0
M  V30 798 C 79.5873 0.280489 -2.00144 0
M  V30 799 C 79.9083 1.52777 -1.21178 0
M  V30 800 O 79.1783 1.9338 -0.313187 0
M  V30 801 H 77.7583 0.106632 -0.73935 0
M  V30 802 H 80.4203 -0.438184 -1.8991 0
M  V30 803 H 79.5163 0.537972 -3.07428 0
M  V30 804 N 79.8174 1.5752 -0.0501392 0
M  V30 805 C 81.0454 1.96963 0.633492 0
M  V30 806 C 81.4604 0.927631 1.6444 0
M  V30 807 O 80.8174 -0.0882665 1.82286 0
M  V30 808 C 80.8684 3.36487 1.32132 0
M  V30 809 O 80.5894 4.36693 0.350894 0
M  V30 810 C 82.0904 3.90682 2.09481 0
M  V30 811 H 79.3104 0.648244 0.173266 0
M  V30 812 H 81.8544 2.0417 -0.116134 0
M  V30 813 H 80.0094 3.30434 2.02218 0
M  V30 814 H 80.4234 5.17702 0.841735 0
M  V30 815 H 81.8974 4.90591 2.5303 0
M  V30 816 H 82.3744 3.26053 2.94255 0
M  V30 817 H 82.9804 4.00069 1.44307 0
M  V30 818 N 81.2955 -0.223234 1.56011 0
M  V30 819 C 82.7065 -0.790368 1.69145 0
M  V30 820 C 83.0575 -1.85055 0.651845 0
M  V30 821 O 82.1825 -2.15498 -0.197359 0
M  V30 822 C 82.7775 -1.4404 3.06656 0
M  V30 823 C 81.3365 -1.95494 3.2165 0
M  V30 824 C 80.4835 -0.814506 2.65068 0
M  V30 825 H 83.4345 0.00139011 1.587 0
M  V30 826 H 83.4555 -2.30916 3.0242 0
M  V30 827 H 82.9675 -0.668543 3.82298 0
M  V30 828 H 81.0685 -2.75487 2.50874 0
M  V30 829 H 81.1815 -2.13607 4.28846 0
M  V30 830 H 79.5455 -1.22137 2.23505 0
M  V30 831 H 80.3285 -0.0553515 3.43255 0
M  V30 832 N 82.7736 -1.49793 -0.48987 0
M  V30 833 C 83.7056 -1.63413 -1.60713 0
M  V30 834 C 84.7186 -0.516329 -1.54395 0
M  V30 835 O 85.9076 -0.788812 -1.60125 0
M  V30 836 C 83.0076 -1.58516 -2.99543 0
M  V30 837 C 82.1806 -2.86016 -3.30928 0
M  V30 838 C 81.2396 -2.74018 -4.49222 0
M  V30 839 O 80.2656 -3.47964 -4.50455 0
M  V30 840 N 81.4676 -1.86309 -5.4979 0
M  V30 841 H 84.2326 -2.59777 -1.49452 0
M  V30 842 H 81.7936 -1.47022 -0.677955 0
M  V30 843 H 83.7856 -1.48128 -3.76617 0
M  V30 844 H 82.3556 -0.69965 -3.0467 0
M  V30 845 H 81.5756 -3.10672 -2.42645 0
M  V30 846 H 82.8636 -3.70521 -3.487 0
M  V30 847 H 82.2616 -1.2551 -5.51601 0
M  V30 848 H 80.8186 -1.81837 -6.25922 0
M  V30 849 N 84.2517 0.741722 -1.39055 0
M  V30 850 C 85.4977 1.50336 -1.36113 0
M  V30 851 C 85.8307 1.94148 0.0450796 0
M  V30 852 O 85.1057 1.66301 1.00868 0
M  V30 853 C 85.3887 2.74773 -2.32749 0
M  V30 854 C 85.2417 2.37023 -3.82283 0
M  V30 855 C 86.5607 3.76846 -2.27322 0
M  V30 856 H 83.6797 0.545351 -0.495743 0
M  V30 857 H 86.3217 0.848624 -1.69995 0
M  V30 858 H 84.4717 3.30639 -2.03986 0
M  V30 859 H 86.1437 1.8684 -4.21768 0
M  V30 860 H 84.3867 1.69334 -3.99385 0
M  V30 861 H 85.0577 3.26104 -4.45376 0
M  V30 862 H 87.5337 3.30548 -2.5274 0
M  V30 863 H 86.4097 4.6159 -2.97028 0
M  V30 864 H 86.6707 4.23286 -1.27599 0
M  V30 865 N 85.7298 1.2412 0.971189 0
M  V30 866 C 86.9778 1.07668 1.71032 0
M  V30 867 C 87.2988 -0.385797 1.91146 0
M  V30 868 O 86.5688 -1.27569 1.4867 0
M  V30 869 H 85.1488 0.395429 0.633755 0
M  V30 870 H 87.8108 1.55984 1.16855 0
M  V30 871 H 86.9068 1.57195 2.69622 0
M  V30 872 N 87.2079 -1.17134 1.05439 0
M  V30 873 C 88.1179 -2.24878 0.668365 0
M  V30 874 C 89.1339 -1.71186 -0.311687 0
M  V30 875 O 90.3099 -2.00738 -0.163161 0
M  V30 876 C 87.3749 -3.46662 0.051648 0
M  V30 877 C 86.4359 -4.15429 1.08246 0
M  V30 878 C 85.6689 -5.31399 0.495082 0
M  V30 879 O 85.8919 -5.66153 -0.694743 0
M  V30 880 O 84.8259 -5.89187 1.23056 0
M  V30 881 H 88.6519 -2.60189 1.56637 0
M  V30 882 H 86.2369 -1.24482 0.826104 0
M  V30 883 H 88.1189 -4.20394 -0.290966 0
M  V30 884 H 86.7939 -3.13142 -0.819971 0
M  V30 885 H 85.7009 -3.43704 1.47711 0
M  V30 886 H 87.0339 -4.52982 1.92532 0
M  V30 887 N 88.686 -0.835752 -1.33615 0
M  V30 888 C 89.633 -0.26473 -2.29277 0
M  V30 889 C 90.603 0.617712 -1.54187 0
M  V30 890 O 91.788 0.556641 -1.825 0
M  V30 891 C 88.928 0.556777 -3.40579 0
M  V30 892 C 88.041 -0.349339 -4.30585 0
M  V30 893 C 87.176 0.482969 -5.29 0
M  V30 894 C 86.215 -0.421732 -6.10645 0
M  V30 895 N 85.352 0.372262 -7.01112 0
M  V30 896 H 90.192 -1.08582 -2.77514 0
M  V30 897 H 87.729 -0.546927 -1.36554 0
M  V30 898 H 89.687 1.04852 -4.03809 0
M  V30 899 H 88.317 1.34286 -2.93542 0
M  V30 900 H 87.369 -0.959372 -3.68104 0
M  V30 901 H 88.681 -1.04445 -4.87742 0
M  V30 902 H 87.835 1.03866 -5.97743 0
M  V30 903 H 86.574 1.21153 -4.72412 0
M  V30 904 H 85.579 -0.989464 -5.40823 0
M  V30 905 H 86.804 -1.14861 -6.69316 0
M  V30 906 H 84.75 1.08426 -6.46977 0
M  V30 907 H 84.667 -0.264198 -7.55538 0
M  V30 908 H 85.935 0.910293 -7.74167 0
M  V30 909 N 90.1641 1.46063 -0.591896 0
M  V30 910 C 91.1271 2.28854 0.125973 0
M  V30 911 C 92.1271 1.38903 0.810107 0
M  V30 912 O 93.3171 1.61186 0.66066 0
M  V30 913 C 90.4491 3.19526 1.1881 0
M  V30 914 H 91.6421 2.93802 -0.601717 0
M  V30 915 H 89.1951 1.52325 -0.350254 0
M  V30 916 H 89.9301 2.59345 1.94707 0
M  V30 917 H 89.7151 3.85766 0.701936 0
M  V30 918 H 91.2051 3.81817 1.69132 0
M  V30 919 N 91.6422 0.330177 1.54103 0
M  V30 920 C 92.8882 -0.270806 2.00984 0
M  V30 921 C 93.2212 -1.51265 1.21789 0
M  V30 922 O 92.4962 -1.92142 0.301927 0
M  V30 923 C 92.7792 -0.598339 3.55094 0
M  V30 924 C 92.6322 0.654674 4.4501 0
M  V30 925 C 93.9512 -1.41334 4.16789 0
M  V30 926 H 91.0702 -0.0969531 0.730595 0
M  V30 927 H 93.7122 0.448066 1.84641 0
M  V30 928 H 91.8622 -1.21078 3.69151 0
M  V30 929 H 93.5342 1.29285 4.42813 0
M  V30 930 H 91.7772 1.28224 4.14416 0
M  V30 931 H 92.4482 0.380944 5.50684 0
M  V30 932 H 94.9242 -0.895597 4.06347 0
M  V30 933 H 93.8002 -1.61127 5.24718 0
M  V30 934 H 94.0612 -2.41146 3.70541 0
M  V30 935 N 93.1203 -1.57491 0.0584922 0
M  V30 936 C 94.0503 -2.14988 -0.911178 0
M  V30 937 C 95.0313 -1.07343 -1.31952 0
M  V30 938 O 96.2163 -1.35318 -1.39294 0
M  V30 939 C 93.3463 -2.70078 -2.18347 0
M  V30 940 C 92.3003 -3.82771 -1.91495 0
M  V30 941 C 91.6263 -4.24408 -3.25241 0
M  V30 942 C 92.9263 -5.07592 -1.23075 0
M  V30 943 H 94.6203 -2.96263 -0.432246 0
M  V30 944 H 92.1663 -1.42512 -0.206469 0
M  V30 945 H 94.1193 -3.08943 -2.86587 0
M  V30 946 H 92.8433 -1.86005 -2.68458 0
M  V30 947 H 91.5023 -3.44389 -1.25664 0
M  V30 948 H 91.1503 -3.37275 -3.73168 0
M  V30 949 H 90.8503 -5.00366 -3.08071 0
M  V30 950 H 92.3743 -4.65879 -3.94701 0
M  V30 951 H 93.7883 -5.43857 -1.81362 0
M  V30 952 H 92.1853 -5.88741 -1.16207 0
M  V30 953 H 93.2553 -4.84454 -0.207847 0
M  V30 954 N 94.5984 0.214957 -1.56127 0
M  V30 955 C 95.8444 0.939762 -1.79712 0
M  V30 956 C 96.1774 1.83723 -0.629247 0
M  V30 957 O 95.4524 1.90925 0.371197 0
M  V30 958 C 95.7354 1.77306 -3.13424 0
M  V30 959 C 95.5884 0.90164 -4.40671 0
M  V30 960 C 96.9074 2.74956 -3.43638 0
M  V30 961 H 94.0264 0.340214 -0.653776 0
M  V30 962 H 96.6684 0.20824 -1.88855 0
M  V30 963 H 94.8184 2.39673 -3.0576 0
M  V30 964 H 96.4904 0.294206 -4.60361 0
M  V30 965 H 94.7334 0.207368 -4.33304 0
M  V30 966 H 95.4044 1.51923 -5.30682 0
M  V30 967 H 97.8804 2.22724 -3.51473 0
M  V30 968 H 96.7564 3.30358 -4.38355 0
M  V30 969 H 97.0174 3.53023 -2.66134 0
M  V30 970 N 96.0765 1.50051 0.48192 0
M  V30 971 C 97.0095 1.62749 1.59963 0
M  V30 972 C 97.9875 0.475903 1.5548 0
M  V30 973 O 99.1715 0.693986 1.7526 0
M  V30 974 C 96.2985 1.60008 2.98522 0
M  V30 975 C 95.3445 2.80596 3.21198 0
M  V30 976 S 96.1775 4.42038 3.02262 0
M  V30 977 C 97.3335 4.41973 4.43182 0
M  V30 978 H 97.5665 2.57296 1.4895 0
M  V30 979 H 95.0995 1.39179 0.668477 0
M  V30 980 H 97.0575 1.59112 3.78409 0
M  V30 981 H 95.7185 0.667153 3.06933 0
M  V30 982 H 94.9115 2.74952 4.22395 0
M  V30 983 H 94.5135 2.79003 2.49065 0
M  V30 984 H 96.8055 4.14868 5.35622 0
M  V30 985 H 97.7485 5.43512 4.53873 0
M  V30 986 H 98.1565 3.71812 4.24755 0
M  V30 987 N 97.5546 -0.734337 1.39446 0
M  V30 988 C 98.7946 -1.50655 1.38139 0
M  V30 989 C 99.1586 -1.91986 -0.0228701 0
M  V30 990 O 100.36 -2.68318 -0.160947 0
M  V30 991 C 98.6306 -2.71251 2.32718 0
M  V30 992 S 100.19 -3.60892 2.49605 0
M  V30 993 H 97.0076 -0.515315 0.489869 0
M  V30 994 H 99.6096 -0.860392 1.75549 0
M  V30 995 H 98.3136 -2.39027 3.33608 0
M  V30 996 H 97.8446 -3.40795 1.96526 0
M  V30 997 H 99.8596 -4.64899 1.73446 0
M  V30 998 N 99.0327 -1.24633 -0.964593 0
M  V30 999 C 99.9957 -1.0424 -2.04124 0
M  V30 1000 C 100.996 0.00137563 -1.608 0
M  V30 1001 O 102.186 -0.239883 -1.7254 0
M  V30 1002 C 99.3177 -0.580588 -3.3592 0
M  V30 1003 H 100.511 -1.99803 -2.23649 0
M  V30 1004 H 98.0637 -1.06899 -1.14027 0
M  V30 1005 H 98.7987 0.3781 -3.22088 0
M  V30 1006 H 98.5837 -1.33398 -3.6871 0
M  V30 1007 H 100.074 -0.459034 -4.15069 0
M  V30 1008 N 100.511 1.16574 -1.06058 0
M  V30 1009 C 101.788 1.83048 -0.689416 0
M  V30 1010 C 102.168 1.94122 0.829443 0
M  V30 1011 O 101.516 1.48249 1.7388 0
M  V30 1012 C 101.726 3.20186 -1.38859 0
M  V30 1013 C 103.074 3.95989 -1.53226 0
M  V30 1014 O 104.098 3.29696 -1.3483 0
M  V30 1015 O 102.957 5.14813 -1.83384 0
M  V30 1016 H 100.051 0.790258 -0.243764 0
M  V30 1017 H 102.597 1.23797 -1.16071 0
M  V30 1018 H 101.369 3.07146 -2.4244 0
M  V30 1019 H 100.992 3.87112 -0.907216 0
M  V30 1020 N 101.989 0.842826 1.3317 0
M  V30 1021 C 102.939 0.250877 2.26616 0
M  V30 1022 C 103.923 -0.596427 1.49437 0
M  V30 1023 O 105.115 -0.447747 1.71243 0
M  V30 1024 C 102.244 -0.569779 3.38539 0
M  V30 1025 C 101.33 0.289254 4.23112 0
M  V30 1026 N 101.721 1.36987 4.86897 0
M  V30 1027 C 100.019 0.0769631 4.45934 0
M  V30 1028 C 100.72 1.89737 5.49886 0
M  V30 1029 N 99.6959 1.19827 5.30229 0
M  V30 1030 H 103.498 1.07718 2.73448 0
M  V30 1031 H 101.012 0.687693 1.47121 0
M  V30 1032 H 103.009 -1.01018 4.04476 0
M  V30 1033 H 101.669 -1.39401 2.93253 0
M  V30 1034 H 102.68 1.75277 4.87338 0
M  V30 1035 H 99.3569 -0.713507 4.11358 0
M  V30 1036 H 100.747 2.80253 6.10662 0
M  V30 1037 N 103.467 -1.45747 0.599634 0
M  V30 1038 C 104.715 -2.01893 0.0915472 0
M  V30 1039 C 105.036 -1.47155 -1.27946 0
M  V30 1040 O 104.306 -0.66273 -1.84349 0
M  V30 1041 H 102.886 -0.746363 0.0308524 0
M  V30 1042 H 105.548 -1.78645 0.779237 0
M  V30 1043 H 104.644 -3.1208 0.0353086 0
M  V30 1044 N 104.945 -0.338344 -1.53925 0
M  V30 1045 C 106.191 0.260143 -2.01125 0
M  V30 1046 C 106.524 1.50617 -1.22589 0
M  V30 1047 O 105.799 1.91979 -0.312113 0
M  V30 1048 C 106.082 0.579499 -3.55407 0
M  V30 1049 C 105.935 -0.678264 -4.44657 0
M  V30 1050 C 107.254 1.39122 -4.17532 0
M  V30 1051 H 104.373 0.0930772 -0.731099 0
M  V30 1052 H 107.015 -0.457852 -1.84401 0
M  V30 1053 H 105.165 1.19118 -3.69788 0
M  V30 1054 H 106.837 -1.31631 -4.42121 0
M  V30 1055 H 105.08 -1.3042 -4.13731 0
M  V30 1056 H 105.751 -0.410143 -5.50474 0
M  V30 1057 H 108.227 0.874035 -4.06817 0
M  V30 1058 H 107.103 1.58342 -5.25565 0
M  V30 1059 H 107.364 2.39178 -3.71815 0
M  V30 1060 N 106.423 1.57458 -0.0668435 0
M  V30 1061 C 107.669 1.94401 0.598316 0
M  V30 1062 C 108.024 0.946335 1.67518 0
M  V30 1063 O 107.317 -0.0321442 1.91573 0
M  V30 1064 C 107.511 3.35784 1.22409 0
M  V30 1065 C 107.34 4.49212 0.209367 0
M  V30 1066 C 106.11 5.04887 -0.204218 0
M  V30 1067 C 108.308 5.11335 -0.551431 0
M  V30 1068 N 106.29 6.01854 -1.21016 0
M  V30 1069 C 107.661 6.03754 -1.41 0
M  V30 1070 C 109.716 4.94173 -0.608038 0
M  V30 1071 C 108.419 6.80854 -2.32013 0
M  V30 1072 C 110.445 5.71912 -1.50566 0
M  V30 1073 C 109.807 6.63976 -2.35191 0
M  V30 1074 H 105.906 0.758538 0.190114 0
M  V30 1075 H 108.49 1.94175 -0.142832 0
M  V30 1076 H 106.661 3.36757 1.93518 0
M  V30 1077 H 108.393 3.59976 1.84931 0
M  V30 1078 H 105.148 4.73266 0.177908 0
M  V30 1079 H 105.572 6.55035 -1.71049 0
M  V30 1080 H 110.214 4.22788 0.032022 0
M  V30 1081 H 107.932 7.5152 -2.97057 0
M  V30 1082 H 111.518 5.60656 -1.55423 0
M  V30 1083 H 110.398 7.2308 -3.03522 0
M  V30 1084 N 107.901 -0.206675 1.56239 0
M  V30 1085 C 109.178 -0.954051 1.70755 0
M  V30 1086 C 109.558 -2.01841 0.618353 0
M  V30 1087 O 108.906 -2.25444 -0.372434 0
M  V30 1088 C 109.116 -1.551 3.12642 0
M  V30 1089 C 110.464 -2.03757 3.72516 0
M  V30 1090 O 111.488 -1.64965 3.15698 0
M  V30 1091 O 110.347 -2.75103 4.72208 0
M  V30 1092 H 107.441 -0.446636 0.696021 0
M  V30 1093 H 109.987 -0.197283 1.68549 0
M  V30 1094 H 108.759 -0.783212 3.83382 0
M  V30 1095 H 108.382 -2.37291 3.19028 0
M  V30 1096 N 109.379 -1.50304 -0.473955 0
M  V30 1097 C 110.289 -1.7174 -1.5982 0
M  V30 1098 C 111.305 -0.600457 -1.63311 0
M  V30 1099 O 112.481 -0.878441 -1.81233 0
M  V30 1100 C 109.546 -1.80427 -2.96052 0
M  V30 1101 C 108.607 -3.04148 -3.02972 0
M  V30 1102 C 107.84 -3.12411 -4.32706 0
M  V30 1103 O 108.063 -2.27542 -5.23049 0
M  V30 1104 O 106.997 -4.05113 -4.45159 0
M  V30 1105 H 110.823 -2.67035 -1.44657 0
M  V30 1106 H 108.408 -1.34366 -0.653148 0
M  V30 1107 H 110.29 -1.88338 -3.7697 0
M  V30 1108 H 108.965 -0.883156 -3.11419 0
M  V30 1109 H 107.872 -3.0174 -2.21142 0
M  V30 1110 H 109.205 -3.95829 -2.92541 0
M  V30 1111 N 110.857 0.726932 -1.39834 0
M  V30 1112 C 112.105 1.4837 -1.37225 0
M  V30 1113 C 112.426 1.94979 0.0284857 0
M  V30 1114 O 111.696 1.69555 0.981213 0
M  V30 1115 H 110.276 0.55043 -0.505011 0
M  V30 1116 H 112.938 0.862468 -1.74778 0
M  V30 1117 H 112.034 2.36198 -2.04003 0
M  V30 1118 N 112.336 1.25143 0.95797 0
M  V30 1119 C 113.582 1.09855 1.70469 0
M  V30 1120 C 113.915 -0.360187 1.90831 0
M  V30 1121 O 113.19 -1.26568 1.47685 0
M  V30 1122 C 113.473 1.8497 3.08963 0
M  V30 1123 C 113.326 3.38652 2.96032 0
M  V30 1124 C 114.645 1.63016 4.08795 0
M  V30 1125 H 111.764 0.400465 0.618706 0
M  V30 1126 H 114.406 1.53933 1.11376 0
M  V30 1127 H 112.556 1.47505 3.59409 0
M  V30 1128 H 114.228 3.85772 2.52938 0
M  V30 1129 H 112.471 3.66534 2.32025 0
M  V30 1130 H 113.142 3.8642 3.94187 0
M  V30 1131 H 115.618 1.95625 3.67247 0
M  V30 1132 H 114.494 2.18015 5.03747 0
M  V30 1133 H 114.755 0.570692 4.38401 0
M  V30 1134 N 113.814 -1.1601 1.06675 0
M  V30 1135 C 114.777 -2.18724 0.685001 0
M  V30 1136 C 115.777 -1.58496 -0.271246 0
M  V30 1137 O 116.967 -1.74119 -0.0531156 0
M  V30 1138 C 114.099 -3.40899 0.00853648 0
M  V30 1139 H 115.292 -2.54011 1.59431 0
M  V30 1140 H 112.845 -1.30352 0.862441 0
M  V30 1141 H 113.58 -3.11173 -0.913337 0
M  V30 1142 H 113.365 -3.8587 0.696204 0
M  V30 1143 H 114.855 -4.16886 -0.24414 0
M  V30 1144 N 115.292 -0.849877 -1.32721 0
M  V30 1145 C 116.538 -0.451591 -1.97708 0
M  V30 1146 C 116.871 0.989175 -1.6712 0
M  V30 1147 O 116.146 1.69334 -0.956891 0
M  V30 1148 C 116.429 -0.685598 -3.53513 0
M  V30 1149 C 116.282 -2.17444 -3.93749 0
M  V30 1150 C 117.601 -0.138874 -4.39881 0
M  V30 1151 H 114.72 -0.16555 -0.718166 0
M  V30 1152 H 117.362 -1.06742 -1.57182 0
M  V30 1153 H 115.512 -0.161416 -3.88165 0
M  V30 1154 H 117.184 -2.76433 -3.693 0
M  V30 1155 H 115.427 -2.65476 -3.43081 0
M  V30 1156 H 116.098 -2.28888 -5.02309 0
M  V30 1157 H 118.574 -0.587068 -4.11938 0
M  V30 1158 H 117.45 -0.332213 -5.47894 0
M  V30 1159 H 117.711 0.95806 -4.31594 0
M  V30 1160 N 116.77 1.45427 -0.607355 0
M  V30 1161 C 117.995 2.07124 -0.107006 0
M  V30 1162 C 118.42 1.44906 1.19933 0
M  V30 1163 O 117.778 0.541687 1.73019 0
M  V30 1164 C 117.826 3.60595 0.0194119 0
M  V30 1165 O 116.93 3.98285 1.0697 0
M  V30 1166 H 116.271 0.659868 -0.0739597 0
M  V30 1167 H 118.801 1.86683 -0.837297 0
M  V30 1168 H 118.811 4.07419 0.2177 0
M  V30 1169 H 117.486 4.05266 -0.934453 0
M  V30 1170 H 116.063 3.63133 0.847889 0
M  V30 1171 N 118.248 0.346503 1.53744 0
M  V30 1172 C 119.659 -0.136779 1.86198 0
M  V30 1173 C 120.01 -1.49749 1.26766 0
M  V30 1174 O 119.135 -2.08417 0.582355 0
M  V30 1175 C 119.73 -0.254966 3.37839 0
M  V30 1176 C 118.289 -0.682482 3.70161 0
M  V30 1177 C 117.436 0.181981 2.76702 0
M  V30 1178 H 120.387 0.565994 1.48264 0
M  V30 1179 H 120.408 -1.08195 3.64793 0
M  V30 1180 H 119.92 0.735526 3.81066 0
M  V30 1181 H 118.021 -1.68189 3.3248 0
M  V30 1182 H 118.134 -0.470326 4.76786 0
M  V30 1183 H 116.498 -0.34615 2.52337 0
M  V30 1184 H 117.281 1.16966 3.2276 0
M  V30 1185 N 119.726 -1.57421 0.075193 0
M  V30 1186 C 120.673 -2.12915 -0.890843 0
M  V30 1187 C 121.643 -1.04252 -1.29309 0
M  V30 1188 O 122.828 -1.31933 -1.37834 0
M  V30 1189 C 119.968 -2.69795 -2.15186 0
M  V30 1190 C 119.081 -3.92624 -1.80194 0
M  V30 1191 C 118.216 -4.37736 -3.00933 0
M  V30 1192 C 117.255 -5.53205 -2.61974 0
M  V30 1193 N 116.392 -5.9326 -3.75483 0
M  V30 1194 H 121.232 -2.95156 -0.410735 0
M  V30 1195 H 118.769 -1.45854 -0.191086 0
M  V30 1196 H 120.727 -3.00883 -2.89008 0
M  V30 1197 H 119.357 -1.90313 -2.60731 0
M  V30 1198 H 118.409 -3.67977 -0.964218 0
M  V30 1199 H 119.721 -4.76482 -1.47534 0
M  V30 1200 H 118.875 -4.70503 -3.8303 0
M  V30 1201 H 117.614 -3.52739 -3.36789 0
M  V30 1202 H 116.619 -5.20086 -1.783 0
M  V30 1203 H 117.844 -6.39936 -2.27284 0
M  V30 1204 H 115.79 -5.11212 -4.11094 0
M  V30 1205 H 115.707 -6.71865 -3.46602 0
M  V30 1206 H 116.975 -6.30651 -4.58148 0
M  V30 1207 N 121.204 0.198386 -1.56346 0
M  V30 1208 C 122.453 0.917451 -1.79627 0
M  V30 1209 C 122.766 1.8456 -0.64784 0
M  V30 1210 O 123.972 2.60504 -0.764859 0
M  V30 1211 C 122.428 1.68175 -3.18191 0
M  V30 1212 C 122.036 0.798589 -4.40825 0
M  V30 1213 C 123.78 2.39065 -3.50782 0
M  V30 1214 C 121.687 1.56157 -5.70411 0
M  V30 1215 H 120.617 0.346317 -0.669762 0
M  V30 1216 H 123.268 0.170801 -1.82703 0
M  V30 1217 H 121.65 2.47216 -3.09354 0
M  V30 1218 H 122.824 0.0470665 -4.60776 0
M  V30 1219 H 121.139 0.200686 -4.15916 0
M  V30 1220 H 123.736 2.96692 -4.44835 0
M  V30 1221 H 124.079 3.13091 -2.74371 0
M  V30 1222 H 124.612 1.66993 -3.61052 0
M  V30 1223 H 121.351 0.864142 -6.49779 0
M  V30 1224 H 120.871 2.2871 -5.54483 0
M  V30 1225 H 122.55 2.11622 -6.11412 0
M  V30 1226 N 122.682 1.50554 0.465978 0
M  V30 1227 C 123.928 1.62038 1.21949 0
M  V30 1228 C 124.261 0.322116 1.9151 0
M  V30 1229 O 123.536 -0.676723 1.82348 0
M  V30 1230 C 123.819 2.80421 2.25912 0
M  V30 1231 C 123.672 4.20144 1.60622 0
M  V30 1232 C 124.991 2.94354 3.27176 0
M  V30 1233 H 122.11 0.589752 0.441998 0
M  V30 1234 H 124.752 1.82956 0.51257 0
M  V30 1235 H 122.902 2.62717 2.86203 0
M  V30 1236 H 124.574 4.49449 1.03889 0
M  V30 1237 H 122.817 4.24165 0.909211 0
M  V30 1238 H 123.488 4.98914 2.36196 0
M  V30 1239 H 125.964 3.10578 2.76913 0
M  V30 1240 H 124.84 3.788 3.97242 0
M  V30 1241 H 125.101 2.05186 3.916 0
M  V30 1242 N 124.16 -0.719506 1.40217 0
M  V30 1243 C 125.388 -1.50864 1.41589 0
M  V30 1244 C 125.803 -1.88794 0.0145275 0
M  V30 1245 O 125.16 -1.55174 -0.960594 0
M  V30 1246 C 125.211 -2.78646 2.30302 0
M  V30 1247 O 124.932 -2.42321 3.64983 0
M  V30 1248 C 126.433 -3.72569 2.40224 0
M  V30 1249 H 123.653 -0.465709 0.48307 0
M  V30 1250 H 126.197 -0.88785 1.84221 0
M  V30 1251 H 124.352 -3.37019 1.91042 0
M  V30 1252 H 124.766 -3.24514 4.12057 0
M  V30 1253 H 126.24 -4.5908 3.06512 0
M  V30 1254 H 126.717 -4.15403 1.42608 0
M  V30 1255 H 127.323 -3.20109 2.80019 0
M  V30 1256 N 125.638 -1.25649 -0.95132 0
M  V30 1257 C 126.601 -1.06399 -2.03007 0
M  V30 1258 C 127.601 -0.0156794 -1.60792 0
M  V30 1259 O 128.791 -0.25817 -1.72276 0
M  V30 1260 C 125.923 -0.616184 -3.35285 0
M  V30 1261 H 127.116 -2.02164 -2.21517 0
M  V30 1262 H 124.669 -1.08103 -1.12887 0
M  V30 1263 H 125.404 0.343917 -3.22471 0
M  V30 1264 H 125.189 -1.37301 -3.67275 0
M  V30 1265 H 126.679 -0.503032 -4.14559 0
M  V30 1266 N 127.117 1.15442 -1.07289 0
M  V30 1267 C 128.366 1.85557 -0.790669 0
M  V30 1268 C 128.679 1.83186 0.685739 0
M  V30 1269 O 129.885 2.48977 1.0827 0
M  V30 1270 C 128.341 3.33038 -1.36433 0
M  V30 1271 C 127.949 3.43856 -2.8717 0
M  V30 1272 C 129.693 4.0834 -1.1601 0
M  V30 1273 C 127.6 4.85482 -3.3773 0
M  V30 1274 H 126.53 0.695122 -0.292098 0
M  V30 1275 H 129.181 1.30219 -1.29287 0
M  V30 1276 H 127.563 3.88043 -0.789864 0
M  V30 1277 H 128.737 2.98961 -3.50655 0
M  V30 1278 H 127.052 2.81998 -3.06376 0
M  V30 1279 H 129.649 5.12859 -1.51262 0
M  V30 1280 H 129.992 4.16182 -0.0991007 0
M  V30 1281 H 130.525 3.59603 -1.70089 0
M  V30 1282 H 127.264 4.82823 -4.43353 0
M  V30 1283 H 126.784 5.30961 -2.78999 0
M  V30 1284 H 128.463 5.54335 -3.33648 0
M  V30 1285 N 128.595 0.856903 1.32268 0
M  V30 1286 C 129.527 0.260412 2.27716 0
M  V30 1287 C 130.54 -0.569137 1.52528 0
M  V30 1288 O 131.729 -0.39326 1.74114 0
M  V30 1289 C 128.829 -0.650477 3.32599 0
M  V30 1290 C 128.002 0.14372 4.37164 0
M  V30 1291 C 127.061 -0.69328 5.21613 0
M  V30 1292 O 126.087 -0.12599 5.69061 0
M  V30 1293 N 127.289 -2.00761 5.44679 0
M  V30 1294 H 130.054 1.08059 2.79541 0
M  V30 1295 H 127.615 0.717103 1.45152 0
M  V30 1296 H 129.607 -1.21581 3.86005 0
M  V30 1297 H 128.177 -1.37133 2.80915 0
M  V30 1298 H 127.397 0.890486 3.8401 0
M  V30 1299 H 128.685 0.68915 5.04111 0
M  V30 1300 H 128.083 -2.49181 5.07863 0
M  V30 1301 H 126.64 -2.52103 6.01072 0
M  V30 1302 N 130.073 -1.45103 0.615059 0
M  V30 1303 C 131.036 -2.29025 -0.0895485 0
M  V30 1304 C 132.036 -1.40174 -0.787906 0
M  V30 1305 O 133.226 -1.62217 -0.634933 0
M  V30 1306 C 130.358 -3.21376 -1.13711 0
M  V30 1307 H 131.551 -2.92807 0.648382 0
M  V30 1308 H 129.104 -1.51749 0.374444 0
M  V30 1309 H 129.839 -2.6241 -1.90556 0
M  V30 1310 H 129.624 -3.86834 -0.640475 0
M  V30 1311 H 131.114 -3.84459 -1.63036 0
M  V30 1312 N 131.551 -0.354651 -1.53558 0
M  V30 1313 C 132.514 0.484566 -2.24019 0
M  V30 1314 C 133.514 1.01861 -1.24422 0
M  V30 1315 O 134.704 0.906097 -1.4878 0
M  V30 1316 C 131.836 1.67615 -2.96847 0
M  V30 1317 H 133.029 -0.131843 -2.9961 0
M  V30 1318 H 130.582 -0.106165 -1.55939 0
M  V30 1319 H 131.317 2.33095 -2.25471 0
M  V30 1320 H 131.102 1.30029 -3.69912 0
M  V30 1321 H 132.592 2.27114 -3.50441 0
M  V30 1322 N 133.029 1.57378 -0.0835403 0
M  V30 1323 C 133.977 2.14602 0.89714 0
M  V30 1324 C 134.971 1.08589 1.30018 0
M  V30 1325 O 136.177 1.26952 1.27606 0
M  V30 1326 H 132.552 0.686346 0.3073 0
M  V30 1327 H 134.523 2.95845 0.38969 0
M  V30 1328 C 133.272 2.73188 2.15089 0
M  V30 1329 H 132.595 3.54442 1.84962 0
M  V30 1330 H 134.035 3.1681 2.81793 0
M  V30 1331 C 132.494 1.68517 2.91725 0
M  V30 1332 O 133.024 1.11718 3.85852 0
M  V30 1333 N 131.23 1.39277 2.55049 0
M  V30 1334 H 130.777 1.85655 1.78577 0
M  V30 1335 H 130.735 0.694791 3.06627 0
M  V30 1336 N 134.507 -0.190092 1.56449 0
M  V30 1337 C 135.44 -1.26375 1.90012 0
M  V30 1338 C 136.418 -1.43705 0.760765 0
M  V30 1339 O 137.602 -1.59014 1.01226 0
M  V30 1340 C 134.729 -2.62962 2.13468 0
M  V30 1341 C 133.775 -2.62474 3.36169 0
M  V30 1342 S 134.608 -2.13412 4.91137 0
M  V30 1343 C 135.764 -3.51812 5.17667 0
M  V30 1344 H 135.997 -0.977181 2.80782 0
M  V30 1345 H 133.53 -0.393814 1.49293 0
M  V30 1346 H 135.488 -3.41583 2.27664 0
M  V30 1347 H 134.149 -2.88828 1.23439 0
M  V30 1348 H 133.342 -3.62918 3.49723 0
M  V30 1349 H 132.944 -1.91937 3.20992 0
M  V30 1350 H 135.236 -4.47706 5.08494 0
M  V30 1351 H 136.179 -3.43148 6.19399 0
M  V30 1352 H 136.587 -3.46956 4.45288 0
M  V30 1353 N 135.985 -1.50799 -0.457987 0
M  V30 1354 C 137.213 -1.66218 -1.23203 0
M  V30 1355 C 137.628 -0.350894 -1.85511 0
M  V30 1356 O 136.985 0.668546 -1.69814 0
M  V30 1357 C 137.036 -2.76291 -2.33121 0
M  V30 1358 O 136.757 -4.02338 -1.73366 0
M  V30 1359 C 138.258 -3.028 -3.2377 0
M  V30 1360 H 135.478 -0.558361 -0.372121 0
M  V30 1361 H 138.022 -1.97099 -0.545179 0
M  V30 1362 H 136.177 -2.48068 -2.97558 0
M  V30 1363 H 136.591 -4.63312 -2.4585 0
M  V30 1364 H 138.065 -3.8345 -3.97077 0
M  V30 1365 H 138.542 -2.14385 -3.83322 0
M  V30 1366 H 139.148 -3.32604 -2.65056 0
M  V30 1367 N 137.463 0.71206 -1.40597 0
M  V30 1368 C 138.879 1.02058 -1.22704 0
M  V30 1369 C 139.079 2.01228 -0.104729 0
M  V30 1370 O 138.135 2.4674 0.53624 0
M  V30 1371 C 139.448 1.56094 -2.57012 0
M  V30 1372 C 140.996 1.6806 -2.64054 0
M  V30 1373 C 141.471 2.25501 -3.9864 0
M  V30 1374 N 142.962 2.32882 -4.004 0
M  V30 1375 C 143.697 2.78317 -5.01325 0
M  V30 1376 N 143.193 3.23478 -6.12645 0
M  V30 1377 N 144.986 2.77733 -4.88693 0
M  V30 1378 H 137.137 0.0547896 -2.12329 0
M  V30 1379 H 139.4 0.0869027 -0.944008 0
M  V30 1380 H 139.106 0.906865 -3.39807 0
M  V30 1381 H 138.98 2.54564 -2.78347 0
M  V30 1382 H 141.367 2.32583 -1.81629 0
M  V30 1383 H 141.448 0.681802 -2.46546 0
M  V30 1384 H 141.092 1.61598 -4.81506 0
M  V30 1385 H 141.022 3.26102 -4.13479 0
M  V30 1386 H 143.513 2.00991 -3.20017 0
M  V30 1387 H 143.826 3.56725 -6.85542 0
M  V30 1388 H 142.171 3.21429 -6.16205 0
M  V30 1389 H 145.362 2.4179 -4.00818 0
M  V30 1390 H 145.535 3.12826 -5.67489 0
M  V30 1391 N 138.941 1.26152 0.944643 0
M  V30 1392 C 140.189 1.11271 1.6871 0
M  V30 1393 C 140.51 -0.345166 1.91921 0
M  V30 1394 O 139.78 -1.24387 1.51343 0
M  V30 1395 H 138.36 0.408783 0.625224 0
M  V30 1396 H 141.022 1.58427 1.1352 0
M  V30 1397 H 140.118 1.62879 2.66227 0
M  V30 1398 N 140.419 -1.14872 1.07899 0
M  V30 1399 C 141.647 -1.89661 0.82683 0
M  V30 1400 C 142.062 -1.78312 -0.620519 0
M  V30 1401 O 141.419 -1.13888 -1.42604 0
M  V30 1402 C 141.47 -3.39817 1.23316 0
M  V30 1403 O 141.191 -3.50845 2.62372 0
M  V30 1404 C 142.692 -4.31615 1.0111 0
M  V30 1405 H 139.912 -0.60092 0.298557 0
M  V30 1406 H 142.456 -1.4551 1.43691 0
M  V30 1407 H 140.611 -3.8161 0.667286 0
M  V30 1408 H 141.025 -4.44076 2.79101 0
M  V30 1409 H 142.499 -5.35367 1.34486 0
M  V30 1410 H 142.976 -4.39169 -0.0522168 0
M  V30 1411 H 143.582 -3.95572 1.56215 0
M  V30 1412 N 141.898 -0.863906 -1.31812 0
M  V30 1413 C 143.126 -0.486111 -2.01108 0
M  V30 1414 C 143.541 0.919755 -1.64882 0
M  V30 1415 O 142.898 1.60162 -0.874893 0
M  V30 1416 C 142.949 -0.626435 -3.56031 0
M  V30 1417 O 142.67 -1.97693 -3.90959 0
M  V30 1418 C 144.171 -0.248857 -4.42601 0
M  V30 1419 H 141.391 -0.190052 -0.643523 0
M  V30 1420 H 143.935 -1.1634 -1.68182 0
M  V30 1421 H 142.09 0.00322717 -3.874 0
M  V30 1422 H 142.504 -1.98034 -4.85678 0
M  V30 1423 H 143.978 -0.398016 -5.50563 0
M  V30 1424 H 144.455 0.811489 -4.31638 0
M  V30 1425 H 145.061 -0.853971 -4.16638 0
M  V30 1426 N 143.376 1.44774 -0.622745 0
M  V30 1427 C 144.624 2.01721 -0.123655 0
M  V30 1428 C 144.945 1.49172 1.25589 0
M  V30 1429 O 144.215 0.691974 1.83272 0
M  V30 1430 H 142.795 0.745777 -0.0427225 0
M  V30 1431 H 145.457 1.77382 -0.807559 0
M  V30 1432 H 144.553 3.11984 -0.0849534 0
M  V30 1433 N 144.854 0.36279 1.53368 0
M  V30 1434 C 146.1 -0.228113 2.01513 0
M  V30 1435 C 146.433 -1.48648 1.2497 0
M  V30 1436 O 145.708 -1.91459 0.342616 0
M  V30 1437 C 145.991 -0.522884 3.56284 0
M  V30 1438 C 145.844 0.74892 4.43521 0
M  V30 1439 C 147.163 -1.32461 4.19693 0
M  V30 1440 H 144.282 -0.0814343 0.732487 0
M  V30 1441 H 146.924 0.48713 1.83649 0
M  V30 1442 H 145.074 -1.1322 3.71636 0
M  V30 1443 H 146.746 1.38648 4.39971 0
M  V30 1444 H 144.989 1.36986 4.11603 0
M  V30 1445 H 145.66 0.497667 5.49752 0
M  V30 1446 H 148.136 -0.809203 4.08156 0
M  V30 1447 H 147.012 -1.49961 5.28018 0
M  V30 1448 H 147.273 -2.33232 3.75573 0
M  V30 1449 N 146.332 -1.57332 0.0918853 0
M  V30 1450 C 147.572 -1.96117 -0.575988 0
M  V30 1451 C 147.936 -0.972499 -1.65549 0
M  V30 1452 O 149.137 -1.24872 -2.38034 0
M  V30 1453 C 147.408 -3.39407 -1.11973 0
M  V30 1454 S 148.967 -4.00185 -1.79992 0
M  V30 1455 H 145.785 -0.685682 -0.188045 0
M  V30 1456 H 148.387 -1.94755 0.170525 0
M  V30 1457 H 147.091 -4.09131 -0.322504 0
M  V30 1458 H 146.622 -3.44358 -1.90214 0
M  V30 1459 H 148.637 -3.88728 -3.08391 0
M  V30 1460 N 147.81 0.181792 -1.56548 0
M  V30 1461 C 149.056 0.901431 -1.81665 0
M  V30 1462 C 149.389 1.82347 -0.668075 0
M  V30 1463 O 148.664 1.91669 0.330615 0
M  V30 1464 C 148.947 1.70618 -3.17115 0
M  V30 1465 C 148.8 0.807964 -4.42484 0
M  V30 1466 C 150.119 2.67605 -3.49393 0
M  V30 1467 H 147.238 0.32627 -0.660846 0
M  V30 1468 H 149.88 0.168134 -1.89255 0
M  V30 1469 H 148.03 2.33133 -3.10775 0
M  V30 1470 H 149.702 0.19649 -4.60881 0
M  V30 1471 H 147.945 0.115411 -4.33646 0
M  V30 1472 H 148.616 1.40632 -5.33785 0
M  V30 1473 H 151.092 2.15218 -3.56118 0
M  V30 1474 H 149.968 3.20985 -4.45264 0
M  V30 1475 H 150.229 3.47298 -2.73563 0
M  V30 1476 N 149.288 1.51039 0.449983 0
M  V30 1477 C 150.218 1.74379 1.55288 0
M  V30 1478 C 151.199 0.593236 1.5942 0
M  V30 1479 O 152.384 0.834625 1.7535 0
M  V30 1480 C 149.514 1.85728 2.93466 0
M  V30 1481 C 148.468 3.01078 3.04197 0
M  V30 1482 C 147.794 2.97595 4.44231 0
M  V30 1483 C 149.094 4.41254 2.7945 0
M  V30 1484 H 150.788 2.66725 1.36008 0
M  V30 1485 H 148.334 1.2835 0.652864 0
M  V30 1486 H 150.287 2.0064 3.70569 0
M  V30 1487 H 149.011 0.900207 3.13949 0
M  V30 1488 H 147.67 2.85851 2.29531 0
M  V30 1489 H 147.318 1.99691 4.61663 0
M  V30 1490 H 147.018 3.75046 4.52343 0
M  V30 1491 H 148.542 3.14583 5.23326 0
M  V30 1492 H 149.956 4.56897 3.46292 0
M  V30 1493 H 148.353 5.20315 2.98985 0
M  V30 1494 H 149.423 4.52164 1.75144 0
M  V30 1495 N 150.766 -0.704594 1.40972 0
M  V30 1496 C 151.729 -1.80035 1.41845 0
M  V30 1497 C 152.729 -1.57774 0.310474 0
M  V30 1498 O 153.919 -1.64613 0.56992 0
M  V30 1499 C 151.051 -3.18284 1.22098 0
M  V30 1500 H 152.244 -1.80658 2.3938 0
M  V30 1501 H 149.797 -0.911329 1.26982 0
M  V30 1502 H 150.532 -3.23306 0.253672 0
M  V30 1503 H 150.317 -3.35843 2.02366 0
M  V30 1504 H 151.807 -3.98289 1.25522 0
M  V30 1505 N 152.244 -1.26651 -0.937939 0
M  V30 1506 C 153.207 -1.08546 -2.01867 0
M  V30 1507 C 154.207 -0.0327327 -1.60767 0
M  V30 1508 O 155.397 -0.276427 -1.71993 0
M  V30 1509 C 152.529 -0.651711 -3.34613 0
M  V30 1510 H 153.722 -2.04502 -2.1936 0
M  V30 1511 H 151.275 -1.09294 -1.11734 0
M  V30 1512 H 152.01 0.309696 -3.22818 0
M  V30 1513 H 151.795 -1.41189 -3.65798 0
M  V30 1514 H 153.285 -0.546973 -4.14002 0
M  V30 1515 N 153.722 1.14298 -1.08507 0
M  V30 1516 C 154.654 2.1907 -0.673859 0
M  V30 1517 C 155.667 1.60381 0.279577 0
M  V30 1518 O 156.856 1.78374 0.0670754 0
M  V30 1519 C 153.956 3.38888 0.0290979 0
M  V30 1520 C 153.129 4.27103 -0.943494 0
M  V30 1521 C 152.188 5.25477 -0.275676 0
M  V30 1522 O 151.214 5.61709 -0.920401 0
M  V30 1523 N 152.416 5.7227 0.974013 0
M  V30 1524 H 155.181 2.54965 -1.57521 0
M  V30 1525 H 152.742 1.29528 -0.971287 0
M  V30 1526 H 154.734 4.01761 0.48683 0
M  V30 1527 H 153.304 3.01309 0.832555 0
M  V30 1528 H 152.524 3.61149 -1.58004 0
M  V30 1529 H 153.812 4.82905 -1.60251 0
M  V30 1530 H 153.21 5.44965 1.51755 0
M  V30 1531 H 151.767 6.37127 1.37522 0
M  V30 1532 N 155.201 0.870884 1.31352 0
M  V30 1533 C 156.164 0.332243 2.26779 0
M  V30 1534 C 157.164 -0.517302 1.52252 0
M  V30 1535 O 158.354 -0.326477 1.71113 0
M  V30 1536 C 155.486 -0.528066 3.36785 0
M  V30 1537 H 156.679 1.17469 2.75937 0
M  V30 1538 H 154.232 0.64655 1.423 0
M  V30 1539 H 154.967 -1.39167 2.92922 0
M  V30 1540 H 154.752 0.0802582 3.92018 0
M  V30 1541 H 156.242 -0.897179 4.07849 0
M  V30 1542 N 156.679 -1.44442 0.630414 0
M  V30 1543 C 157.927 -2.01653 0.134351 0
M  V30 1544 C 158.248 -1.49836 -1.24796 0
M  V30 1545 O 157.518 -0.701684 -1.82902 0
M  V30 1546 H 156.098 -0.74554 0.0466769 0
M  V30 1547 H 158.76 -1.76952 0.816955 0
M  V30 1548 H 157.856 -3.11935 0.101498 0
M  V30 1549 N 158.157 -0.370918 -1.53173 0
M  V30 1550 C 159.12 0.460778 -2.24521 0
M  V30 1551 C 160.12 1.00536 -1.25496 0
M  V30 1552 O 161.31 0.890266 -1.49733 0
M  V30 1553 C 158.442 1.64457 -2.98608 0
M  V30 1554 H 159.635 -0.163613 -2.99453 0
M  V30 1555 H 157.188 -0.122699 -1.55818 0
M  V30 1556 H 157.923 2.30691 -2.2793 0
M  V30 1557 H 157.708 1.26099 -3.7127 0
M  V30 1558 H 159.198 2.23384 -3.5283 0
M  V30 1559 N 159.635 1.57281 -0.100228 0
M  V30 1560 C 160.582 2.14305 0.856858 0
M  V30 1561 C 161.552 1.06296 1.27634 0
M  V30 1562 O 162.737 1.34109 1.35718 0
M  V30 1563 C 159.877 2.73184 2.10866 0
M  V30 1564 C 158.99 3.95442 1.73925 0
M  V30 1565 C 158.125 4.42468 2.93931 0
M  V30 1566 C 157.164 5.57303 2.5314 0
M  V30 1567 N 156.301 5.99158 3.65997 0
M  V30 1568 H 161.141 2.95772 0.363726 0
M  V30 1569 H 158.678 1.46139 0.167858 0
M  V30 1570 H 160.636 3.05442 2.84185 0
M  V30 1571 H 159.266 1.94437 2.57671 0
M  V30 1572 H 158.318 3.69464 0.905554 0
M  V30 1573 H 159.63 4.78769 1.39935 0
M  V30 1574 H 158.784 4.76537 3.75496 0
M  V30 1575 H 157.523 3.58052 3.31134 0
M  V30 1576 H 156.528 5.22857 1.70003 0
M  V30 1577 H 157.753 6.43471 2.17075 0
M  V30 1578 H 155.699 5.17687 4.02909 0
M  V30 1579 H 155.616 6.77295 3.35869 0
M  V30 1580 H 156.884 6.3786 4.48057 0
M  V30 1581 N 161.113 -0.173488 1.56642 0
M  V30 1582 C 162.359 -0.891784 1.8214 0
M  V30 1583 C 162.692 -1.8199 0.677736 0
M  V30 1584 O 161.967 -1.91842 -0.320446 0
M  V30 1585 C 162.25 -1.68933 3.18015 0
M  V30 1586 C 162.103 -0.784487 4.42906 0
M  V30 1587 C 163.422 -2.65748 3.50808 0
M  V30 1588 H 160.541 -0.322761 0.662567 0
M  V30 1589 H 163.183 -0.158095 1.89341 0
M  V30 1590 H 161.333 -2.31482 3.12007 0
M  V30 1591 H 163.005 -0.172046 4.60979 0
M  V30 1592 H 161.248 -0.0924117 4.33702 0
M  V30 1593 H 161.919 -1.37799 5.34524 0
M  V30 1594 H 164.395 -2.13327 3.57255 0
M  V30 1595 H 163.271 -3.18619 4.4696 0
M  V30 1596 H 163.532 -3.45842 2.75401 0
M  V30 1597 N 162.591 -1.51276 -0.441967 0
M  V30 1598 C 163.541 -1.6864 -1.53442 0
M  V30 1599 C 164.525 -0.540444 -1.51552 0
M  V30 1600 O 165.717 -0.796157 -1.58083 0
M  V30 1601 C 162.846 -1.8106 -2.91672 0
M  V30 1602 C 161.932 -3.01424 -2.98336 0
M  V30 1603 N 162.323 -4.2467 -2.74752 0
M  V30 1604 C 160.621 -3.00584 -3.29493 0
M  V30 1605 C 161.322 -5.05891 -2.87139 0
M  V30 1606 N 160.298 -4.40442 -3.18609 0
M  V30 1607 H 164.1 -2.61598 -1.33954 0
M  V30 1608 H 161.614 -1.4886 -0.6492 0
M  V30 1609 H 163.611 -1.91609 -3.70259 0
M  V30 1610 H 162.271 -0.892795 -3.12185 0
M  V30 1611 H 163.282 -4.53691 -2.49769 0
M  V30 1612 H 159.959 -2.18417 -3.55809 0
M  V30 1613 H 161.349 -6.13983 -2.72899 0
M  V30 1614 N 164.069 0.697108 -1.41344 0
M  V30 1615 C 165.315 1.4593 -1.40827 0
M  V30 1616 C 165.648 1.94193 -0.0167098 0
M  V30 1617 O 164.923 1.69425 0.955263 0
M  V30 1618 C 165.206 2.67229 -2.41373 0
M  V30 1619 C 165.059 2.24741 -3.8963 0
M  V30 1620 C 166.378 3.69423 -2.39196 0
M  V30 1621 H 163.497 0.529303 -0.512842 0
M  V30 1622 H 166.139 0.794112 -1.72609 0
M  V30 1623 H 164.289 3.23982 -2.14401 0
M  V30 1624 H 165.961 1.73327 -4.27499 0
M  V30 1625 H 164.204 1.56542 -4.0457 0
M  V30 1626 H 164.875 3.1177 -4.55525 0
M  V30 1627 H 167.351 3.2234 -2.63128 0
M  V30 1628 H 166.227 4.51907 -3.11563 0
M  V30 1629 H 166.488 4.19012 -1.41001 0
M  V30 1630 N 165.547 1.27147 0.931209 0
M  V30 1631 C 166.796 1.12664 1.67302 0
M  V30 1632 C 167.109 -0.327718 1.92835 0
M  V30 1633 O 168.315 -0.593392 2.64936 0
M  V30 1634 C 166.771 1.9683 3.01307 0
M  V30 1635 C 166.379 3.46901 2.83485 0
M  V30 1636 C 168.123 1.90985 3.79111 0
M  V30 1637 C 166.03 4.23279 4.13024 0
M  V30 1638 H 164.96 0.41803 0.627509 0
M  V30 1639 H 167.611 1.51539 1.03481 0
M  V30 1640 H 165.993 1.50797 3.66164 0
M  V30 1641 H 167.167 4.00773 2.27415 0
M  V30 1642 H 165.482 3.54088 2.19113 0
M  V30 1643 H 168.079 2.45328 4.75098 0
M  V30 1644 H 168.422 0.882718 4.06834 0
M  V30 1645 H 168.955 2.34895 3.21044 0
M  V30 1646 H 165.694 5.26503 3.90481 0
M  V30 1647 H 165.214 3.74186 4.6877 0
M  V30 1648 H 166.893 4.32265 4.81411 0
M  V30 1649 N 167.025 -1.13721 1.09112 0
M  V30 1650 C 168.302 -1.81155 0.737706 0
M  V30 1651 C 168.682 -1.96253 -0.777683 0
M  V30 1652 O 168.03 -1.52807 -1.69889 0
M  V30 1653 C 168.24 -3.16392 1.47299 0
M  V30 1654 C 169.588 -3.91787 1.63671 0
M  V30 1655 O 170.612 -3.26005 1.43524 0
M  V30 1656 O 169.471 -5.0977 1.96969 0
M  V30 1657 H 166.565 -0.783518 0.26463 0
M  V30 1658 H 169.111 -1.20676 1.19312 0
M  V30 1659 H 167.883 -3.0061 2.50498 0
M  V30 1660 H 167.506 -3.8457 1.00953 0
M  V30 1661 N 168.503 -0.877838 -1.30888 0
M  V30 1662 C 169.749 -0.493426 -1.96706 0
M  V30 1663 C 170.082 0.953504 -1.6918 0
M  V30 1664 O 169.357 1.67266 -0.992594 0
M  V30 1665 C 169.64 -0.760429 -3.51979 0
M  V30 1666 C 169.493 -2.25747 -3.89048 0
M  V30 1667 C 170.812 -0.232148 -4.39487 0
M  V30 1668 H 167.931 -0.180746 -0.714493 0
M  V30 1669 H 170.573 -1.10052 -1.54882 0
M  V30 1670 H 168.723 -0.243715 -3.87735 0
M  V30 1671 H 170.395 -2.84204 -3.63354 0
M  V30 1672 H 168.638 -2.72694 -3.37373 0
M  V30 1673 H 169.309 -2.39491 -4.97341 0
M  V30 1674 H 171.785 -0.674314 -4.106 0
M  V30 1675 H 170.661 -0.448355 -5.47066 0
M  V30 1676 H 170.922 0.866297 -4.33529 0
M  V30 1677 N 169.982 1.44106 -0.638065 0
M  V30 1678 C 171.23 2.01579 -0.145043 0
M  V30 1679 C 171.551 1.50496 1.24 0
M  V30 1680 O 170.821 0.711374 1.82527 0
M  V30 1681 H 169.401 0.745282 -0.05063 0
M  V30 1682 H 172.063 1.76516 -0.826327 0
M  V30 1683 H 171.159 3.11877 -0.118039 0
M  V30 1684 N 171.46 0.379036 1.52974 0
M  V30 1685 C 172.709 -0.207612 2.00629 0
M  V30 1686 C 173.022 -1.48758 1.27006 0
M  V30 1687 O 174.228 -2.15365 1.65318 0
M  V30 1688 C 172.684 -0.42053 3.57435 0
M  V30 1689 C 172.292 0.845587 4.39948 0
M  V30 1690 C 174.036 -0.964102 4.13407 0
M  V30 1691 C 171.943 0.601513 5.88333 0
M  V30 1692 H 170.873 -0.0813591 0.749598 0
M  V30 1693 H 173.524 0.499853 1.76561 0
M  V30 1694 H 171.906 -1.18959 3.7771 0
M  V30 1695 H 173.08 1.61848 4.31442 0
M  V30 1696 H 171.395 1.31336 3.95145 0
M  V30 1697 H 173.992 -1.16225 5.21916 0
M  V30 1698 H 174.335 -1.93019 3.68849 0
M  V30 1699 H 174.868 -0.25487 3.96983 0
M  V30 1700 H 171.607 1.53831 6.37194 0
M  V30 1701 H 171.127 -0.132628 5.99653 0
M  V30 1702 H 172.806 0.232134 6.46583 0
M  V30 1703 N 172.938 -1.57226 0.108567 0
M  V30 1704 C 174.215 -1.86333 -0.594939 0
M  V30 1705 C 174.595 -1.00788 -1.85486 0
M  V30 1706 O 173.943 -0.0839293 -2.28346 0
M  V30 1707 C 174.153 -3.37265 -0.897405 0
M  V30 1708 C 175.501 -4.05629 -1.25501 0
M  V30 1709 O 176.525 -3.42224 -0.987998 0
M  V30 1710 O 175.384 -5.17531 -1.75567 0
M  V30 1711 H 172.478 -0.771018 -0.2991 0
M  V30 1712 H 175.024 -1.69102 0.142283 0
M  V30 1713 H 173.796 -3.913 -0.00413806 0
M  V30 1714 H 173.419 -3.59889 -1.69014 0
M  V30 1715 N 174.416 0.165178 -1.56732 0
M  V30 1716 C 175.379 1.18822 -1.95995 0
M  V30 1717 C 176.379 1.3685 -0.84431 0
M  V30 1718 O 177.569 1.34152 -1.11126 0
M  V30 1719 C 174.701 2.5521 -2.26011 0
M  V30 1720 H 175.894 0.851825 -2.87548 0
M  V30 1721 H 173.447 0.407857 -1.50885 0
M  V30 1722 H 174.182 2.93852 -1.37191 0
M  V30 1723 H 173.967 2.43489 -3.07336 0
M  V30 1724 H 175.457 3.28927 -2.57288 0
M  V30 1725 N 175.894 1.51508 0.433938 0
M  V30 1726 C 176.804 1.75917 1.5521 0
M  V30 1727 C 177.82 0.643545 1.61662 0
M  V30 1728 O 178.996 0.926183 1.7884 0
M  V30 1729 C 176.061 1.88213 2.91164 0
M  V30 1730 C 175.122 3.12074 2.94802 0
M  V30 1731 C 174.355 3.23774 4.24271 0
M  V30 1732 O 174.578 2.4133 5.16833 0
M  V30 1733 O 173.512 4.16774 4.34262 0
M  V30 1734 H 177.338 2.70777 1.37527 0
M  V30 1735 H 174.923 1.36051 0.617293 0
M  V30 1736 H 176.805 1.98267 3.71845 0
M  V30 1737 H 175.48 0.965413 3.08968 0
M  V30 1738 H 174.387 3.07497 2.13065 0
M  V30 1739 H 175.72 4.03446 2.81943 0
M  V30 1740 N 177.372 -0.689602 1.41712 0
M  V30 1741 C 178.783 -1.26973 1.36875 0
M  V30 1742 C 179.134 -1.96124 0.054748 0
M  V30 1743 O 178.259 -1.99141 -0.84687 0
M  V30 1744 C 178.854 -2.30912 2.47922 0
M  V30 1745 C 177.413 -2.84486 2.46464 0
M  V30 1746 C 176.56 -1.58603 2.27465 0
M  V30 1747 H 179.511 -0.48396 1.51141 0
M  V30 1748 H 179.532 -3.12331 2.17323 0
M  V30 1749 H 179.044 -1.80554 3.43543 0
M  V30 1750 H 177.145 -3.39005 1.54617 0
M  V30 1751 H 177.258 -3.34511 3.42986 0
M  V30 1752 H 175.622 -1.84632 1.75451 0
M  V30 1753 H 176.405 -1.10233 3.25121 0
M  V30 1754 N 178.85 -1.27639 -0.924453 0
M  V30 1755 C 180.099 -1.13549 -1.66702 0
M  V30 1756 C 180.412 0.317487 -1.93006 0
M  V30 1757 O 181.618 0.579333 -2.65247 0
M  V30 1758 C 180.074 -1.98426 -3.00259 0
M  V30 1759 C 179.682 -3.484 -2.81641 0
M  V30 1760 C 181.426 -1.92993 -3.78092 0
M  V30 1761 C 179.333 -4.25464 -4.10773 0
M  V30 1762 H 178.263 -0.421351 -0.625283 0
M  V30 1763 H 180.914 -1.52085 -1.02676 0
M  V30 1764 H 179.296 -1.52736 -3.6536 0
M  V30 1765 H 180.47 -4.01973 -2.25287 0
M  V30 1766 H 178.785 -3.55245 -2.17232 0
M  V30 1767 H 181.382 -2.47844 -4.7379 0
M  V30 1768 H 181.725 -0.904281 -4.0636 0
M  V30 1769 H 182.258 -2.36595 -3.19793 0
M  V30 1770 H 178.997 -5.28566 -3.87683 0
M  V30 1771 H 178.517 -3.76667 -4.66779 0
M  V30 1772 H 180.196 -4.34812 -4.79111 0
M  V30 1773 N 180.328 1.1314 -1.09713 0
M  V30 1774 C 181.739 1.66029 -0.853885 0
M  V30 1775 C 182.09 1.86241 0.617142 0
M  V30 1776 O 181.215 1.5834 1.47503 0
M  V30 1777 C 181.81 3.01599 -1.5435 0
M  V30 1778 C 180.369 3.51467 -1.34714 0
M  V30 1779 C 179.516 2.26648 -1.59769 0
M  V30 1780 H 182.467 0.970226 -1.25588 0
M  V30 1781 H 182.488 3.67709 -0.978267 0
M  V30 1782 H 182 2.86856 -2.6141 0
M  V30 1783 H 180.101 3.71408 -0.297838 0
M  V30 1784 H 180.214 4.314 -2.08401 0
M  V30 1785 H 178.578 2.33385 -1.01998 0
M  V30 1786 H 179.361 2.14467 -2.68065 0
M  V30 1787 N 181.806 0.884767 1.30421 0
M  V30 1788 C 183.054 0.502112 1.95763 0
M  V30 1789 C 183.375 -0.951815 1.70192 0
M  V30 1790 O 182.645 -1.6692 1.0254 0
M  V30 1791 H 181.225 0.182694 0.724315 0
M  V30 1792 H 183.887 1.1278 1.58955 0
M  V30 1793 H 182.983 0.672188 3.04775 0
M  V30 1794 N 183.284 -1.43765 0.645699 0
M  V30 1795 C 184.53 -2.02197 0.156271 0
M  V30 1796 C 184.863 -1.50776 -1.22393 0
M  V30 1797 O 184.138 -0.697771 -1.81553 0
M  V30 1798 C 184.421 -3.59749 0.158872 0
M  V30 1799 C 184.274 -4.21419 1.57245 0
M  V30 1800 C 185.593 -4.37149 -0.50879 0
M  V30 1801 H 182.712 -0.734694 0.0582602 0
M  V30 1802 H 185.354 -1.71157 0.824951 0
M  V30 1803 H 183.504 -3.86325 -0.410525 0
M  V30 1804 H 185.176 -4.059 2.19186 0
M  V30 1805 H 183.419 -3.78356 2.122 0
M  V30 1806 H 184.09 -5.30482 1.52619 0
M  V30 1807 H 186.566 -4.16093 -0.024412 0
M  V30 1808 H 185.442 -5.4683 -0.476213 0
M  V30 1809 H 185.703 -4.12839 -1.58165 0
M  V30 1810 N 184.763 -0.387143 -1.52771 0
M  V30 1811 C 186.009 0.196025 -2.0185 0
M  V30 1812 C 186.342 1.46641 -1.27319 0
M  V30 1813 O 185.617 1.90889 -0.373032 0
M  V30 1814 C 185.9 0.466136 -3.5707 0
M  V30 1815 C 185.753 -0.819385 -4.42274 0
M  V30 1816 C 187.072 1.25768 -4.21747 0
M  V30 1817 H 184.191 0.0697708 -0.73369 0
M  V30 1818 H 186.833 -0.516286 -1.82851 0
M  V30 1819 H 184.983 1.07293 -3.7339 0
M  V30 1820 H 186.655 -1.4563 -4.37709 0
M  V30 1821 H 184.898 -1.43517 -4.09372 0
M  V30 1822 H 185.569 -0.585065 -5.48891 0
M  V30 1823 H 188.045 0.744167 -4.09391 0
M  V30 1824 H 186.921 1.41541 -5.30337 0
M  V30 1825 H 187.182 2.27228 -3.79236 0
M  V30 1826 N 186.241 1.57166 -0.116904 0
M  V30 1827 C 187.189 2.16457 0.851418 0
M  V30 1828 C 188.183 1.11323 1.27686 0
M  V30 1829 O 189.389 1.2963 1.24884 0
M  V30 1830 H 185.764 0.69271 0.292672 0
M  V30 1831 H 187.735 2.96605 0.32685 0
M  V30 1832 C 186.484 2.77689 2.09246 0
M  V30 1833 H 185.807 3.58285 1.77402 0
M  V30 1834 H 187.247 3.22716 2.7501 0
M  V30 1835 C 185.706 1.74667 2.88085 0
M  V30 1836 O 186.236 1.19877 3.83396 0
M  V30 1837 N 184.442 1.44656 2.52038 0
M  V30 1838 H 183.989 1.89402 1.74599 0
M  V30 1839 H 183.947 0.759675 3.05084 0
M  V30 1840 N 187.719 -0.156864 1.56817 0
M  V30 1841 C 188.652 -1.22316 1.9265 0
M  V30 1842 C 189.63 -1.42059 0.791076 0
M  V30 1843 O 190.814 -1.56831 1.04576 0
M  V30 1844 C 187.941 -2.58375 2.18998 0
M  V30 1845 C 186.987 -2.55284 3.41661 0
M  V30 1846 S 187.82 -2.02946 4.95553 0
M  V30 1847 C 188.976 -3.40753 5.25013 0
M  V30 1848 H 189.209 -0.917403 2.82791 0
M  V30 1849 H 186.742 -0.362059 1.50095 0
M  V30 1850 H 188.7 -3.36677 2.34859 0
M  V30 1851 H 187.361 -2.86145 1.29538 0
M  V30 1852 H 186.554 -3.55418 3.57343 0
M  V30 1853 H 186.156 -1.85086 3.24991 0
M  V30 1854 H 188.448 -4.36819 5.17876 0
M  V30 1855 H 189.391 -3.29933 6.26538 0
M  V30 1856 H 189.799 -3.37433 4.52548 0
M  V30 1857 N 189.197 -1.51736 -0.425897 0
M  V30 1858 C 190.613 -1.40166 -0.76326 0
M  V30 1859 C 190.813 -0.492962 -1.95377 0
M  V30 1860 O 189.869 0.0475815 -2.52455 0
M  V30 1861 C 191.182 -2.82403 -1.03291 0
M  V30 1862 C 192.73 -2.91632 -1.13665 0
M  V30 1863 C 193.205 -4.34801 -1.43916 0
M  V30 1864 N 194.696 -4.3796 -1.50816 0
M  V30 1865 C 195.431 -5.4578 -1.75817 0
M  V30 1866 N 194.927 -6.63744 -1.98534 0
M  V30 1867 N 196.72 -5.33274 -1.77694 0
M  V30 1868 H 188.871 -2.09361 0.358 0
M  V30 1869 H 191.134 -0.942941 0.0978094 0
M  V30 1870 H 190.84 -3.50943 -0.230696 0
M  V30 1871 H 190.714 -3.22428 -1.95754 0
M  V30 1872 H 193.101 -2.23284 -1.92947 0
M  V30 1873 H 193.182 -2.55088 -0.190756 0
M  V30 1874 H 192.826 -5.03703 -0.65157 0
M  V30 1875 H 192.756 -4.68868 -2.39729 0
M  V30 1876 H 195.247 -3.52919 -1.35118 0
M  V30 1877 H 195.56 -7.41704 -2.17013 0
M  V30 1878 H 193.905 -6.66839 -1.95832 0
M  V30 1879 H 197.096 -4.40098 -1.59473 0
M  V30 1880 H 197.269 -6.1738 -1.9684 0
M  V30 1881 N 190.675 0.682077 -1.42076 0
M  V30 1882 C 191.921 1.44428 -1.42367 0
M  V30 1883 C 192.254 1.94164 -0.0373056 0
M  V30 1884 O 191.529 1.70429 0.937239 0
M  V30 1885 C 191.812 2.64654 -2.44194 0
M  V30 1886 C 191.665 2.20596 -3.91991 0
M  V30 1887 C 192.984 3.66865 -2.431 0
M  V30 1888 H 190.103 0.523834 -0.518428 0
M  V30 1889 H 192.745 0.77576 -1.73442 0
M  V30 1890 H 190.895 3.2169 -2.17826 0
M  V30 1891 H 192.567 1.68783 -4.29313 0
M  V30 1892 H 190.81 1.52242 -4.06208 0
M  V30 1893 H 191.481 3.06921 -4.58807 0
M  V30 1894 H 193.957 3.19531 -2.66532 0
M  V30 1895 H 192.833 4.48577 -3.16339 0
M  V30 1896 H 193.094 4.17493 -1.45437 0
M  V30 1897 N 192.153 1.28127 0.917671 0
M  V30 1898 C 193.116 1.11744 2.00115 0
M  V30 1899 C 194.116 0.0583052 1.60694 0
M  V30 1900 O 195.306 0.303755 1.71531 0
M  V30 1901 C 192.438 0.704862 3.33533 0
M  V30 1902 H 193.631 2.07966 2.16079 0
M  V30 1903 H 191.184 1.11058 1.09981 0
M  V30 1904 H 191.919 -0.258299 3.2327 0
M  V30 1905 H 191.704 1.4699 3.63505 0
M  V30 1906 H 193.194 0.612768 4.1308 0
M  V30 1907 N 193.631 -1.12557 1.10312 0
M  V30 1908 C 195.047 -1.36036 0.834649 0
M  V30 1909 C 195.247 -1.93946 -0.546539 0
M  V30 1910 O 194.303 -2.16484 -1.29966 0
M  V30 1911 C 195.616 -2.30312 1.9333 0
M  V30 1912 C 197.164 -2.43906 1.9616 0
M  V30 1913 C 197.639 -3.41496 3.05195 0
M  V30 1914 N 199.13 -3.49053 3.04494 0
M  V30 1915 C 199.865 -4.24471 3.85502 0
M  V30 1916 N 199.361 -5.02966 4.76442 0
M  V30 1917 N 201.154 -4.19864 3.73725 0
M  V30 1918 H 193.305 -0.733246 1.99342 0
M  V30 1919 H 195.568 -0.385234 0.866198 0
M  V30 1920 H 195.274 -1.94933 2.92735 0
M  V30 1921 H 195.148 -3.30421 1.81939 0
M  V30 1922 H 197.535 -2.78567 0.973886 0
M  V30 1923 H 197.616 -1.4369 2.11629 0
M  V30 1924 H 197.26 -3.07565 4.04186 0
M  V30 1925 H 197.19 -4.41539 2.86968 0
M  V30 1926 H 199.681 -2.93053 2.38596 0
M  V30 1927 H 199.994 -5.57846 5.34815 0
M  V30 1928 H 198.339 -5.02167 4.80472 0
M  V30 1929 H 201.53 -3.57623 3.02032 0
M  V30 1930 H 201.703 -4.78386 4.37093 0
M  V30 1931 N 195.109 -0.891671 -1.2995 0
M  V30 1932 C 196.357 -0.512486 -1.95494 0
M  V30 1933 C 196.678 0.942776 -1.70695 0
M  V30 1934 O 195.948 1.66374 -1.03424 0
M  V30 1935 H 194.528 -0.186533 -0.723336 0
M  V30 1936 H 197.19 -1.13621 -1.58355 0
M  V30 1937 H 196.286 -0.688342 -3.04415 0
M  V30 1938 N 196.587 1.43421 -0.653314 0
M  V30 1939 C 197.827 2.03689 -0.170346 0
M  V30 1940 C 198.191 1.50427 1.19314 0
M  V30 1941 O 199.392 2.0234 1.76952 0
M  V30 1942 C 197.663 3.56946 -0.180183 0
M  V30 1943 S 199.222 4.38171 0.234925 0
M  V30 1944 H 196.04 0.707345 -0.0719976 0
M  V30 1945 H 198.642 1.75486 -0.86167 0
M  V30 1946 H 197.346 3.93212 -1.17526 0
M  V30 1947 H 196.877 3.89791 0.531675 0
M  V30 1948 H 198.892 4.73808 1.47378 0
M  V30 1949 N 198.065 0.39524 1.52563 0
M  V30 1950 C 199.313 -0.184678 2.01254 0
M  V30 1951 C 199.634 -1.46822 1.28329 0
M  V30 1952 O 198.904 -1.91666 0.405094 0
M  V30 1953 H 197.484 -0.0712355 0.743596 0
M  V30 1954 H 200.146 0.528293 1.87603 0
M  V30 1955 H 199.242 -0.390681 3.09645 0
M  V30 1956 N 199.544 -1.57102 0.125237 0
M  V30 1957 C 200.492 -2.16905 -0.839927 0
M  V30 1958 C 201.486 -1.11998 -1.27094 0
M  V30 1959 O 202.692 -1.3029 -1.24195 0
M  V30 1960 H 199.067 -0.694252 -0.288995 0
M  V30 1961 H 201.038 -2.96774 -0.311115 0
M  V30 1962 C 199.787 -2.78795 -2.07771 0
M  V30 1963 H 199.11 -3.59221 -1.755 0
M  V30 1964 H 200.55 -3.2417 -2.73295 0
M  V30 1965 C 199.009 -1.76193 -2.87155 0
M  V30 1966 O 199.539 -1.21909 -3.82755 0
M  V30 1967 N 197.745 -1.45991 -2.51267 0
M  V30 1968 H 197.292 -1.90325 -1.73592 0
M  V30 1969 H 197.25 -0.775844 -3.04677 0
M  V30 1970 N 201.022 0.148545 -1.56898 0
M  V30 1971 C 202.271 0.85984 -1.82454 0
M  V30 1972 C 202.584 1.82406 -0.706229 0
M  V30 1973 O 203.79 2.57938 -0.847349 0
M  V30 1974 C 202.246 1.57967 -3.2338 0
M  V30 1975 C 201.854 0.65794 -4.43142 0
M  V30 1976 C 203.598 2.27784 -3.58211 0
M  V30 1977 C 201.505 1.3793 -5.75091 0
M  V30 1978 H 200.435 0.324834 -0.68044 0
M  V30 1979 H 203.086 0.112588 -1.83154 0
M  V30 1980 H 201.468 2.37249 -3.17063 0
M  V30 1981 H 202.642 -0.0995497 -4.60692 0
M  V30 1982 H 200.957 0.0682643 -4.16344 0
M  V30 1983 H 203.554 2.8239 -4.54048 0
M  V30 1984 H 203.897 3.04204 -2.84193 0
M  V30 1985 H 204.43 1.55421 -3.66182 0
M  V30 1986 H 201.169 0.656982 -6.52199 0
M  V30 1987 H 200.689 2.10954 -5.61479 0
M  V30 1988 H 202.368 1.92063 -6.17835 0
M  V30 1989 N 202.5 1.5196 0.417844 0
M  V30 1990 C 203.463 1.74065 1.49111 0
M  V30 1991 C 204.463 0.610537 1.48758 0
M  V30 1992 O 205.653 0.87832 1.50437 0
M  V30 1993 C 202.785 1.81502 2.88565 0
M  V30 1994 H 203.978 2.69869 1.30807 0
M  V30 1995 H 201.531 1.42244 0.647785 0
M  V30 1996 H 202.266 0.875813 3.1225 0
M  V30 1997 H 202.051 2.63651 2.90225 0
M  V30 1998 H 203.541 2.00376 3.66387 0
M  V30 1999 N 203.978 -0.674533 1.42435 0
M  V30 2000 C 205.224 -1.43671 1.43131 0
M  V30 2001 C 205.557 -1.94142 0.0476021 0
M  V30 2002 O 204.832 -1.70924 -0.928188 0
M  V30 2003 C 205.115 -2.63355 2.45594 0
M  V30 2004 C 204.968 -2.18514 3.93156 0
M  V30 2005 C 206.287 -3.65571 2.45043 0
M  V30 2006 H 203.406 -0.521077 0.521198 0
M  V30 2007 H 206.048 -0.766551 1.7385 0
M  V30 2008 H 204.198 -3.2053 2.19528 0
M  V30 2009 H 205.87 -1.66504 4.30202 0
M  V30 2010 H 204.113 -1.50086 4.07009 0
M  V30 2011 H 204.784 -3.04484 4.60428 0
M  V30 2012 H 207.26 -3.18113 2.68223 0
M  V30 2013 H 206.136 -4.46893 3.18713 0
M  V30 2014 H 206.397 -4.16716 1.47649 0
M  V30 2015 N 205.456 -1.28612 -0.910864 0
M  V30 2016 C 206.704 -1.15705 -1.65701 0
M  V30 2017 C 207.025 0.29416 -1.92769 0
M  V30 2018 O 206.295 1.20331 -1.54588 0
M  V30 2019 H 204.875 -0.425216 -0.614167 0
M  V30 2020 H 207.537 -1.61381 -1.0928 0
M  V30 2021 H 206.633 -1.6988 -2.61815 0
M  V30 2022 N 206.934 1.1197 -1.10907 0
M  V30 2023 C 208.345 1.65114 -0.871446 0
M  V30 2024 C 208.696 1.86885 0.597353 0
M  V30 2025 O 207.821 1.59896 1.45816 0
M  V30 2026 C 208.416 2.99944 -1.5754 0
M  V30 2027 C 206.975 3.50018 -1.38435 0
M  V30 2028 C 206.122 2.24941 -1.62164 0
M  V30 2029 H 209.073 0.956851 -1.2661 0
M  V30 2030 H 209.094 3.66651 -1.01721 0
M  V30 2031 H 208.606 2.84067 -2.64438 0
M  V30 2032 H 206.707 3.71071 -0.337214 0
M  V30 2033 H 206.82 4.29165 -2.12965 0
M  V30 2034 H 205.184 2.3229 -1.04467 0
M  V30 2035 H 205.967 2.11612 -2.70324 0
M  V30 2036 N 208.412 0.89855 1.29475 0
M  V30 2037 C 209.375 0.380272 2.26023 0
M  V30 2038 C 210.375 -0.484891 1.53315 0
M  V30 2039 O 211.565 -0.290108 1.71767 0
M  V30 2040 C 208.697 -0.45651 3.3783 0
M  V30 2041 H 209.89 1.23295 2.73383 0
M  V30 2042 H 207.443 0.676589 1.40897 0
M  V30 2043 H 208.178 -1.32922 2.95808 0
M  V30 2044 H 207.963 0.163393 3.91759 0
M  V30 2045 H 209.453 -0.810466 4.0966 0
M  V30 2046 N 209.89 -1.43072 0.660911 0
M  V30 2047 C 210.823 -2.28074 -0.0758862 0
M  V30 2048 C 211.801 -1.40271 -0.822362 0
M  V30 2049 O 212.985 -1.69713 -0.820352 0
M  V30 2050 C 210.112 -3.19843 -1.11437 0
M  V30 2051 C 209.158 -4.23957 -0.465069 0
M  V30 2052 S 209.991 -5.29978 0.767078 0
M  V30 2053 C 211.147 -6.25314 -0.270682 0
M  V30 2054 H 211.38 -2.90216 0.645139 0
M  V30 2055 H 208.913 -1.47697 0.449995 0
M  V30 2056 H 210.871 -3.73257 -1.70849 0
M  V30 2057 H 209.532 -2.56863 -1.80776 0
M  V30 2058 H 208.725 -4.88299 -1.24819 0
M  V30 2059 H 208.327 -3.73959 0.0551242 0
M  V30 2060 H 210.619 -6.67932 -1.13459 0
M  V30 2061 H 211.562 -7.07293 0.337916 0
M  V30 2062 H 211.97 -5.61195 -0.609937 0
M  V30 2063 N 211.368 -0.403325 -1.52352 0
M  V30 2064 C 212.593 0.176499 -2.06648 0
M  V30 2065 C 213.018 1.38577 -1.27193 0
M  V30 2066 O 212.376 1.7879 -0.300637 0
M  V30 2067 C 212.424 0.511061 -3.5696 0
M  V30 2068 O 211.528 1.60294 -3.79973 0
M  V30 2069 H 210.869 0.0167337 -0.663789 0
M  V30 2070 H 213.399 -0.574848 -1.96359 0
M  V30 2071 H 213.409 0.771362 -4.00642 0
M  V30 2072 H 212.084 -0.37296 -4.14224 0
M  V30 2073 H 210.661 1.33526 -3.48174 0
M  V30 2074 N 212.846 1.57033 -0.133567 0
M  V30 2075 C 214.262 1.58035 0.222944 0
M  V30 2076 C 214.462 1.14713 1.6566 0
M  V30 2077 O 213.518 0.841218 2.38075 0
M  V30 2078 C 214.831 3.00691 -0.0236116 0
M  V30 2079 C 216.379 3.12973 0.0411512 0
M  V30 2080 C 216.854 4.57654 -0.177899 0
M  V30 2081 N 218.345 4.63033 -0.124365 0
M  V30 2082 C 219.08 5.72771 -0.268553 0
M  V30 2083 N 218.576 6.91206 -0.46972 0
M  V30 2084 N 220.369 5.61718 -0.2071 0
M  V30 2085 H 212.52 1.8349 -1.06981 0
M  V30 2086 H 214.783 0.848677 -0.422436 0
M  V30 2087 H 214.489 3.36726 -1.0153 0
M  V30 2088 H 214.363 3.70614 0.701808 0
M  V30 2089 H 216.75 2.76787 1.02338 0
M  V30 2090 H 216.831 2.45564 -0.716383 0
M  V30 2091 H 216.475 4.94542 -1.15717 0
M  V30 2092 H 216.405 5.23173 0.599797 0
M  V30 2093 H 218.896 3.7789 0.027011 0
M  V30 2094 H 219.209 7.70693 -0.570212 0
M  V30 2095 H 217.554 6.93156 -0.505876 0
M  V30 2096 H 220.745 4.68072 -0.0507986 0
M  V30 2097 H 220.918 6.47195 -0.322909 0
M  V30 2098 N 214.325 -0.140222 1.56975 0
M  V30 2099 C 215.255 -1.17456 2.01808 0
M  V30 2100 C 216.236 -1.44415 0.898794 0
M  V30 2101 O 217.421 -1.5522 1.16707 0
M  V30 2102 C 214.551 -2.50607 2.40444 0
M  V30 2103 C 213.505 -2.38155 3.55621 0
M  V30 2104 C 212.831 -3.76078 3.80091 0
M  V30 2105 C 214.131 -1.85991 4.88062 0
M  V30 2106 H 215.825 -0.801743 2.88466 0
M  V30 2107 H 213.371 -0.38422 1.38779 0
M  V30 2108 H 215.324 -3.23197 2.7041 0
M  V30 2109 H 214.048 -2.89737 1.50732 0
M  V30 2110 H 212.707 -1.68016 3.25832 0
M  V30 2111 H 212.355 -4.12656 2.87618 0
M  V30 2112 H 212.055 -3.68606 4.57606 0
M  V30 2113 H 213.579 -4.50206 4.12488 0
M  V30 2114 H 214.993 -2.4838 5.16701 0
M  V30 2115 H 213.39 -1.89393 5.6943 0
M  V30 2116 H 214.46 -0.816023 4.77984 0
M  V30 2117 N 215.803 -1.52179 -0.40978 0
M  V30 2118 C 216.735 -1.71703 -1.51825 0
M  V30 2119 C 217.748 -0.597445 -1.51441 0
M  V30 2120 O 218.937 -0.872582 -1.55719 0
M  V30 2121 C 216.037 -1.74171 -2.90719 0
M  V30 2122 C 215.21 -3.03156 -3.15302 0
M  V30 2123 C 214.269 -2.97445 -4.34065 0
M  V30 2124 O 213.295 -3.71352 -4.31377 0
M  V30 2125 N 214.497 -2.15191 -5.39141 0
M  V30 2126 H 217.262 -2.67334 -1.35472 0
M  V30 2127 H 214.823 -1.50409 -0.599069 0
M  V30 2128 H 216.815 -1.67884 -3.68235 0
M  V30 2129 H 215.385 -0.860166 -3.00533 0
M  V30 2130 H 214.605 -3.23097 -2.25836 0
M  V30 2131 H 215.893 -3.88484 -3.28569 0
M  V30 2132 H 215.291 -1.54573 -5.44173 0
M  V30 2133 H 213.848 -2.1476 -6.15403 0
M  V30 2134 N 217.281 0.66697 -1.42791 0
M  V30 2135 C 218.244 1.76211 -1.46568 0
M  V30 2136 C 219.244 1.56896 -0.352196 0
M  V30 2137 O 220.434 1.63044 -0.613364 0
M  V30 2138 C 217.566 3.14935 -1.30494 0
M  V30 2139 H 218.759 1.74247 -2.44086 0
M  V30 2140 H 216.312 0.877342 -1.29354 0
M  V30 2141 H 217.047 3.2252 -0.339301 0
M  V30 2142 H 216.832 3.30359 -2.11199 0
M  V30 2143 H 218.322 3.94821 -1.36038 0
M  V30 2144 N 218.759 1.29093 0.90403 0
M  V30 2145 C 219.669 1.15727 2.0407 0
M  V30 2146 C 220.685 0.0815308 1.73809 0
M  V30 2147 O 221.861 0.292749 1.99261 0
M  V30 2148 C 218.926 0.830424 3.36608 0
M  V30 2149 C 217.987 1.98955 3.80415 0
M  V30 2150 C 217.22 1.6782 5.06628 0
M  V30 2151 O 217.443 0.597105 5.67266 0
M  V30 2152 O 216.377 2.52486 5.46383 0
M  V30 2153 H 220.203 2.11171 2.18267 0
M  V30 2154 H 217.788 1.08504 1.027 0
M  V30 2155 H 219.67 0.662521 4.16159 0
M  V30 2156 H 218.345 -0.0942678 3.23563 0
M  V30 2157 H 217.252 2.21267 3.01648 0
M  V30 2158 H 218.585 2.89529 3.98037 0
M  V30 2159 N 220.237 -1.11381 1.11499 0
M  V30 2160 C 221.2 -2.15622 0.777153 0
M  V30 2161 C 222.2 -1.59504 -0.203779 0
M  V30 2162 O 223.39 -1.74188 0.020782 0
M  V30 2163 C 220.522 -3.40556 0.153116 0
M  V30 2164 H 221.715 -2.47021 1.70061 0
M  V30 2165 H 219.268 -1.26577 0.916952 0
M  V30 2166 H 220.003 -3.14767 -0.780536 0
M  V30 2167 H 219.788 -3.8257 0.859238 0
M  V30 2168 H 221.278 -4.17546 -0.0671044 0
M  V30 2169 N 221.715 -0.905404 -1.28997 0
M  V30 2170 C 222.645 -0.404212 -2.29975 0
M  V30 2171 C 223.626 0.523784 -1.61835 0
M  V30 2172 O 224.811 0.433298 -1.89304 0
M  V30 2173 C 221.941 0.364042 -3.45387 0
M  V30 2174 C 220.895 -0.474048 -4.25367 0
M  V30 2175 C 220.221 0.422045 -5.33032 0
M  V30 2176 C 221.521 -1.72696 -4.92923 0
M  V30 2177 H 223.215 -1.24807 -2.72146 0
M  V30 2178 H 220.761 -0.601585 -1.30832 0
M  V30 2179 H 222.714 0.725447 -4.15109 0
M  V30 2180 H 221.438 1.24174 -3.02074 0
M  V30 2181 H 220.097 -0.81786 -3.57361 0
M  V30 2182 H 219.745 1.29804 -4.85963 0
M  V30 2183 H 219.445 -0.135057 -5.87445 0
M  V30 2184 H 220.969 0.779517 -6.05604 0
M  V30 2185 H 222.383 -1.43495 -5.55051 0
M  V30 2186 H 220.78 -2.22582 -5.57295 0
M  V30 2187 H 221.85 -2.45964 -4.17887 0
M  V30 2188 N 223.193 1.4272 -0.668489 0
M  V30 2189 C 224.123 2.335 -0.000100175 0
M  V30 2190 C 225.104 1.50328 0.795964 0
M  V30 2191 O 226.289 1.78949 0.754385 0
M  V30 2192 C 223.419 3.33874 0.956302 0
M  V30 2193 C 222.373 4.27152 0.269278 0
M  V30 2194 C 221.699 5.17684 1.33818 0
M  V30 2195 C 222.999 5.15373 -0.847805 0
M  V30 2196 H 224.693 2.89639 -0.758244 0
M  V30 2197 H 222.239 1.39269 -0.366079 0
M  V30 2198 H 224.192 3.9629 1.43292 0
M  V30 2199 H 222.916 2.76025 1.74579 0
M  V30 2200 H 221.575 3.66123 -0.187042 0
M  V30 2201 H 221.223 4.56165 2.1195 0
M  V30 2202 H 220.923 5.80918 0.883659 0
M  V30 2203 H 222.447 5.82974 1.81586 0
M  V30 2204 H 223.861 5.7151 -0.452681 0
M  V30 2205 H 222.258 5.87407 -1.22773 0
M  V30 2206 H 223.328 4.5415 -1.69929 0
M  V30 2207 N 224.671 0.411399 1.52136 0
M  V30 2208 C 225.601 -0.404015 2.29978 0
M  V30 2209 C 226.582 -1.04412 1.34284 0
M  V30 2210 O 227.767 -1.0527 1.63192 0
M  V30 2211 C 224.897 -1.5197 3.12286 0
M  V30 2212 C 223.851 -1.00448 4.16046 0
M  V30 2213 C 223.177 -2.21393 4.86712 0
M  V30 2214 C 224.477 -0.0569336 5.22269 0
M  V30 2215 H 226.171 0.245529 2.98392 0
M  V30 2216 H 223.717 0.119525 1.43503 0
M  V30 2217 H 225.67 -2.09715 3.6551 0
M  V30 2218 H 224.394 -2.19716 2.41646 0
M  V30 2219 H 223.053 -0.449421 3.63835 0
M  V30 2220 H 222.701 -2.87699 4.12599 0
M  V30 2221 H 222.401 -1.87571 5.56858 0
M  V30 2222 H 223.925 -2.7974 5.4275 0
M  V30 2223 H 225.339 -0.54325 5.7072 0
M  V30 2224 H 223.736 0.192594 5.99791 0
M  V30 2225 H 224.806 0.887663 4.76706 0
M  V30 2226 N 226.149 -1.5696 0.141893 0
M  V30 2227 C 227.059 -2.20066 -0.812905 0
M  V30 2228 C 228.075 -1.18344 -1.27557 0
M  V30 2229 O 229.251 -1.50902 -1.33381 0
M  V30 2230 C 226.316 -2.80583 -2.03652 0
M  V30 2231 C 225.377 -3.97414 -1.62359 0
M  V30 2232 C 224.61 -4.55036 -2.78887 0
M  V30 2233 O 224.833 -4.11538 -3.94959 0
M  V30 2234 O 223.767 -5.45376 -2.54653 0
M  V30 2235 H 227.593 -3.02157 -0.305746 0
M  V30 2236 H 225.178 -1.49159 -0.0848799 0
M  V30 2237 H 227.06 -3.19067 -2.75272 0
M  V30 2238 H 225.735 -2.01508 -2.5333 0
M  V30 2239 H 224.642 -3.63656 -0.877775 0
M  V30 2240 H 225.975 -4.77994 -1.17401 0
M  V30 2241 N 227.627 0.131896 -1.57047 0
M  V30 2242 C 228.873 0.843179 -1.84441 0
M  V30 2243 C 229.206 1.80129 -0.725749 0
M  V30 2244 O 228.481 1.92624 0.269469 0
M  V30 2245 C 228.764 1.60442 -3.22382 0
M  V30 2246 C 228.617 0.666782 -4.4483 0
M  V30 2247 C 229.936 2.56354 -3.5773 0
M  V30 2248 H 227.055 0.305081 -0.670891 0
M  V30 2249 H 229.697 0.107839 -1.89694 0
M  V30 2250 H 227.847 2.23128 -3.18035 0
M  V30 2251 H 229.519 0.0497646 -4.61273 0
M  V30 2252 H 227.762 -0.022609 -4.33794 0
M  V30 2253 H 228.433 1.23579 -5.37989 0
M  V30 2254 H 230.909 2.0378 -3.62785 0
M  V30 2255 H 229.785 3.06657 -4.5525 0
M  V30 2256 H 230.046 3.38419 -2.84473 0
M  V30 2257 N 229.106 1.52395 0.401703 0
M  V30 2258 C 230.331 1.70972 1.17403 0
M  V30 2259 C 230.756 0.421615 1.83314 0
M  V30 2260 O 230.114 -0.621564 1.70312 0
M  V30 2261 C 230.162 2.85151 2.20728 0
M  V30 2262 O 229.266 2.51238 3.27037 0
M  V30 2263 H 228.607 0.568927 0.342372 0
M  V30 2264 H 231.137 1.99131 0.469891 0
M  V30 2265 H 231.147 3.10279 2.64936 0
M  V30 2266 H 229.822 3.78603 1.7214 0
M  V30 2267 H 228.399 2.36808 2.88057 0
M  V30 2268 N 230.584 -0.659388 1.43143 0
M  V30 2269 C 232 -0.974337 1.26407 0
M  V30 2270 C 232.2 -2.007 0.179341 0
M  V30 2271 O 231.256 -2.4856 -0.444295 0
M  V30 2272 C 232.569 -1.46447 2.62628 0
M  V30 2273 C 234.117 -1.58144 2.7011 0
M  V30 2274 C 234.592 -2.1055 4.06734 0
M  V30 2275 N 236.083 -2.17861 4.08767 0
M  V30 2276 C 236.818 -2.59519 5.1131 0
M  V30 2277 N 236.314 -3.00518 6.24228 0
M  V30 2278 N 238.107 -2.59404 4.98664 0
M  V30 2279 H 230.258 0.0240528 2.12386 0
M  V30 2280 H 232.521 -0.0518065 0.946583 0
M  V30 2281 H 232.227 -0.780123 3.42939 0
M  V30 2282 H 232.101 -2.44058 2.87603 0
M  V30 2283 H 234.488 -2.25682 1.90136 0
M  V30 2284 H 234.569 -0.589828 2.48907 0
M  V30 2285 H 234.213 -1.43616 4.87172 0
M  V30 2286 H 234.143 -3.10531 4.25298 0
M  V30 2287 H 236.634 -1.88975 3.27257 0
M  V30 2288 H 236.947 -3.31036 6.98309 0
M  V30 2289 H 235.292 -2.98337 6.2771 0
M  V30 2290 H 238.483 -2.26747 4.09516 0
M  V30 2291 H 238.656 -2.91548 5.78709 0
M  V30 2292 N 232.062 -1.29571 -0.897171 0
M  V30 2293 C 233.292 -1.20408 -1.67886 0
M  V30 2294 C 233.7 0.237429 -1.87704 0
M  V30 2295 O 233.043 1.17048 -1.41582 0
M  V30 2296 C 233.105 -1.84887 -3.08314 0
M  V30 2297 C 232.769 -3.34189 -3.11716 0
M  V30 2298 C 233.766 -4.30374 -2.91675 0
M  V30 2299 C 231.451 -3.75431 -3.33701 0
M  V30 2300 C 233.445 -5.65776 -2.93557 0
M  V30 2301 C 231.132 -5.10955 -3.35214 0
M  V30 2302 C 232.13 -6.05938 -3.15164 0
M  V30 2303 O 231.818 -7.38987 -3.1647 0
M  V30 2304 H 231.55 -0.418289 -0.531046 0
M  V30 2305 H 234.104 -1.71514 -1.13014 0
M  V30 2306 H 232.334 -1.28295 -3.64798 0
M  V30 2307 H 234.023 -1.70011 -3.6858 0
M  V30 2308 H 234.789 -3.99844 -2.74499 0
M  V30 2309 H 230.668 -3.01953 -3.48347 0
M  V30 2310 H 234.212 -6.39889 -2.77826 0
M  V30 2311 H 230.109 -5.4113 -3.51922 0
M  V30 2312 H 230.877 -7.47823 -3.3272 0
M  V30 2313 N 233.54 1.10788 -1.12088 0
M  V30 2314 C 234.768 1.86461 -0.896651 0
M  V30 2315 C 235.183 1.80492 0.553912 0
M  V30 2316 O 234.54 1.19102 1.38278 0
M  V30 2317 C 234.591 3.35006 -1.35843 0
M  V30 2318 O 234.312 3.40866 -2.75213 0
M  V30 2319 C 235.813 4.27565 -1.1706 0
M  V30 2320 H 233.033 0.589425 -0.320654 0
M  V30 2321 H 235.577 1.40076 -1.48993 0
M  V30 2322 H 233.732 3.7887 -0.808458 0
M  V30 2323 H 234.146 4.33411 -2.9539 0
M  V30 2324 H 235.62 5.30007 -1.54263 0
M  V30 2325 H 236.097 4.3906 -0.110814 0
M  V30 2326 H 236.703 3.89501 -1.70789 0
M  V30 2327 N 235.018 0.912232 1.28515 0
M  V30 2328 C 236.258 0.551677 1.96814 0
M  V30 2329 C 236.622 -0.887825 1.7024 0
M  V30 2330 O 237.823 -1.35588 2.32098 0
M  V30 2331 C 236.094 0.850555 3.47132 0
M  V30 2332 S 237.653 0.59619 4.34731 0
M  V30 2333 H 234.471 0.204191 0.681049 0
M  V30 2334 H 237.073 1.17736 1.56072 0
M  V30 2335 H 235.777 1.8962 3.63968 0
M  V30 2336 H 235.308 0.213471 3.9282 0
M  V30 2337 H 237.323 -0.553154 4.93107 0
M  V30 2338 N 236.496 -1.42363 0.676048 0
M  V30 2339 C 237.773 -1.95183 0.127726 0
M  V30 2340 C 238.153 -1.61641 -1.35777 0
M  V30 2341 O 237.501 -0.913216 -2.09458 0
M  V30 2342 C 237.711 -3.46721 0.398199 0
M  V30 2343 C 239.059 -4.23427 0.315383 0
M  V30 2344 O 240.083 -3.54649 0.332016 0
M  V30 2345 O 238.942 -5.45888 0.25865 0
M  V30 2346 H 236.036 -0.826992 0.00359427 0
M  V30 2347 H 238.582 -1.52184 0.750864 0
M  V30 2348 H 237.354 -3.64344 1.4272 0
M  V30 2349 H 236.977 -3.96769 -0.256885 0
M  V30 2350 N 237.974 -0.419461 -1.51915 0
M  V30 2351 C 238.904 0.391813 -2.30189 0
M  V30 2352 C 239.885 1.03699 -1.34836 0
M  V30 2353 O 241.07 1.04403 -1.63748 0
M  V30 2354 C 238.2 1.50312 -3.13087 0
M  V30 2355 C 237.154 0.9824 -4.16573 0
M  V30 2356 C 236.48 2.18809 -4.8788 0
M  V30 2357 C 237.78 0.0292356 -5.22292 0
M  V30 2358 H 239.474 -0.26135 -2.98257 0
M  V30 2359 H 237.02 -0.127134 -1.43438 0
M  V30 2360 H 238.973 2.07773 -3.66617 0
M  V30 2361 H 237.697 2.18431 -2.42807 0
M  V30 2362 H 236.356 0.430119 -3.64068 0
M  V30 2363 H 236.004 2.85507 -4.14119 0
M  V30 2364 H 235.704 1.84615 -5.57845 0
M  V30 2365 H 237.228 2.76858 -5.44226 0
M  V30 2366 H 238.642 0.512976 -5.71 0
M  V30 2367 H 237.039 -0.2244 -5.9968 0
M  V30 2368 H 238.109 -0.912931 -4.76228 0
M  V30 2369 N 239.452 1.56882 -0.150215 0
M  V30 2370 C 240.415 2.1573 0.774157 0
M  V30 2371 C 241.415 1.0999 1.17298 0
M  V30 2372 O 242.605 1.35613 1.09338 0
M  V30 2373 C 239.737 2.72302 2.05096 0
M  V30 2374 H 240.93 2.98752 0.262201 0
M  V30 2375 H 238.483 1.55985 0.099248 0
M  V30 2376 H 239.218 1.92956 2.6065 0
M  V30 2377 H 239.003 3.49665 1.77416 0
M  V30 2378 H 240.493 3.17632 2.71109 0
M  V30 2379 N 240.93 -0.123565 1.57115 0
M  V30 2380 C 241.862 -1.17739 1.96648 0
M  V30 2381 C 242.875 -1.37906 0.865201 0
M  V30 2382 O 244.064 -1.37062 1.14351 0
M  V30 2383 C 241.164 -2.53821 2.24562 0
M  V30 2384 C 240.337 -2.54317 3.55867 0
M  V30 2385 C 239.396 -3.72112 3.72047 0
M  V30 2386 O 238.422 -3.55907 4.44206 0
M  V30 2387 N 239.624 -4.90498 3.10471 0
M  V30 2388 H 242.389 -0.841147 2.87654 0
M  V30 2389 H 239.95 -0.31289 1.58848 0
M  V30 2390 H 241.942 -3.31175 2.32606 0
M  V30 2391 H 240.512 -2.79645 1.39705 0
M  V30 2392 H 239.732 -1.62711 3.59053 0
M  V30 2393 H 241.02 -2.51701 4.42181 0
M  V30 2394 H 240.418 -5.06567 2.51806 0
M  V30 2395 H 238.975 -5.65544 3.24043 0
M  V30 2396 N 242.408 -1.52605 -0.393616 0
M  V30 2397 C 243.824 -1.41753 -0.733357 0
M  V30 2398 C 244.024 -0.534293 -1.94287 0
M  V30 2399 O 243.08 -0.0059787 -2.52499 0
M  V30 2400 C 244.393 -2.84531 -0.972772 0
M  V30 2401 C 245.941 -2.93978 -1.07453 0
M  V30 2402 C 246.416 -4.37756 -1.3466 0
M  V30 2403 N 247.907 -4.4106 -1.41492 0
M  V30 2404 C 248.642 -5.49387 -1.642 0
M  V30 2405 N 248.138 -6.67806 -1.8441 0
M  V30 2406 N 249.931 -5.36923 -1.66342 0
M  V30 2407 H 242.082 -2.08555 0.402328 0
M  V30 2408 H 244.345 -0.940654 0.117789 0
M  V30 2409 H 244.051 -3.51353 -0.156204 0
M  V30 2410 H 243.925 -3.26508 -1.88871 0
M  V30 2411 H 246.312 -2.27326 -1.88167 0
M  V30 2412 H 246.393 -2.55435 -0.136605 0
M  V30 2413 H 246.037 -5.04972 -0.544581 0
M  V30 2414 H 245.967 -4.73848 -2.2973 0
M  V30 2415 H 248.458 -3.55705 -1.27601 0
M  V30 2416 H 248.771 -7.46141 -2.01231 0
M  V30 2417 H 247.116 -6.70843 -1.81644 0
M  V30 2418 H 250.307 -4.43381 -1.50102 0
M  V30 2419 H 250.48 -6.21416 -1.837 0
M  V30 2420 N 243.887 0.651787 -1.4349 0
M  V30 2421 C 245.135 1.40888 -1.44897 0
M  V30 2422 C 245.456 1.94856 -0.0749086 0
M  V30 2423 O 244.726 1.74518 0.889956 0
M  V30 2424 H 243.306 0.522887 -0.533478 0
M  V30 2425 H 245.968 0.768609 -1.79104 0
M  V30 2426 H 245.064 2.25052 -2.16236 0
M  V30 2427 N 245.365 1.30045 0.890287 0
M  V30 2428 C 246.611 1.18737 1.64406 0
M  V30 2429 C 246.944 -0.258525 1.92472 0
M  V30 2430 O 246.219 -1.18562 1.54186 0
M  V30 2431 C 246.502 2.01087 2.98724 0
M  V30 2432 C 246.355 3.53867 2.77665 0
M  V30 2433 C 247.674 1.84457 3.9958 0
M  V30 2434 H 244.793 0.432698 0.596608 0
M  V30 2435 H 247.435 1.5962 1.0306 0
M  V30 2436 H 245.585 1.66349 3.51084 0
M  V30 2437 H 247.257 3.98637 2.32133 0
M  V30 2438 H 245.5 3.78318 2.12269 0
M  V30 2439 H 246.171 4.06772 3.7315 0
M  V30 2440 H 248.647 2.14817 3.56361 0
M  V30 2441 H 247.523 2.44411 4.91482 0
M  V30 2442 H 247.784 0.802276 4.3476 0
M  V30 2443 N 246.843 -1.10192 1.12674 0
M  V30 2444 C 248.071 -1.85983 0.906527 0
M  V30 2445 C 248.486 -1.80783 -0.544333 0
M  V30 2446 O 247.843 -1.19834 -1.37645 0
M  V30 2447 C 247.894 -3.34281 1.37618 0
M  V30 2448 O 247.615 -3.39401 2.77017 0
M  V30 2449 C 249.116 -4.26938 1.19325 0
M  V30 2450 H 246.336 -0.587716 0.323775 0
M  V30 2451 H 248.88 -1.39284 1.49734 0
M  V30 2452 H 247.035 -3.78436 0.828539 0
M  V30 2453 H 247.449 -4.31838 2.97684 0
M  V30 2454 H 248.923 -5.29181 1.57071 0
M  V30 2455 H 249.4 -4.38995 0.134097 0
M  V30 2456 H 250.006 -3.8859 1.72852 0
M  V30 2457 N 248.321 -0.919034 -1.28029 0
M  V30 2458 C 249.251 -0.428581 -2.29533 0
M  V30 2459 C 250.232 0.50659 -1.62381 0
M  V30 2460 O 251.417 0.413195 -1.89753 0
M  V30 2461 C 248.547 0.327388 -3.45753 0
M  V30 2462 C 247.501 -0.519137 -4.2484 0
M  V30 2463 C 246.827 0.365486 -5.33449 0
M  V30 2464 C 248.127 -1.77914 -4.91064 0
M  V30 2465 H 249.821 -1.27687 -2.70807 0
M  V30 2466 H 247.367 -0.615428 -1.30186 0
M  V30 2467 H 249.32 0.681378 -4.15855 0
M  V30 2468 H 248.044 1.20963 -3.03374 0
M  V30 2469 H 246.703 -0.855717 -3.56473 0
M  V30 2470 H 246.351 1.24642 -4.87312 0
M  V30 2471 H 246.051 -0.197356 -5.87268 0
M  V30 2472 H 247.575 0.715241 -6.06396 0
M  V30 2473 H 248.989 -1.49374 -5.53498 0
M  V30 2474 H 247.386 -2.2848 -5.54903 0
M  V30 2475 H 248.456 -2.50382 -4.15255 0
M  V30 2476 N 249.799 1.42003 -0.683588 0
M  V30 2477 C 251.046 2.01413 -0.209514 0
M  V30 2478 C 251.374 1.54088 1.1869 0
M  V30 2479 O 250.629 0.737591 1.81268 0
M  V30 2480 C 250.928 3.56827 -0.202357 0
M  V30 2481 C 250.594 4.23617 -1.54464 0
M  V30 2482 C 249.256 4.41577 -1.91215 0
M  V30 2483 C 251.608 4.61178 -2.42826 0
M  V30 2484 C 248.936 4.9437 -3.15935 0
M  V30 2485 C 251.288 5.15355 -3.66867 0
M  V30 2486 C 249.952 5.31528 -4.03776 0
M  V30 2487 H 249.222 0.737023 -0.0766668 0
M  V30 2488 H 251.869 1.70067 -0.880312 0
M  V30 2489 H 250.174 3.87892 0.551969 0
M  V30 2490 H 251.871 4.00588 0.181793 0
M  V30 2491 H 248.461 4.10004 -1.24877 0
M  V30 2492 H 252.645 4.46968 -2.15717 0
M  V30 2493 H 247.901 5.05076 -3.44541 0
M  V30 2494 H 252.075 5.43402 -4.35531 0
M  V30 2495 H 249.702 5.72199 -5.00492 0
M  V30 2496 N 251.277 0.427512 1.51691 0
M  V30 2497 C 252.525 -0.141948 2.01601 0
M  V30 2498 C 252.846 -1.44067 1.31414 0
M  V30 2499 O 252.116 -1.90763 0.445658 0
M  V30 2500 H 250.696 -0.0554468 0.744939 0
M  V30 2501 H 253.358 0.567968 1.86441 0
M  V30 2502 H 252.454 -0.324913 3.10404 0
M  V30 2503 N 252.755 -1.56801 0.158532 0
M  V30 2504 C 254.001 -1.96781 -0.490405 0
M  V30 2505 C 254.334 -1.04397 -1.63753 0
M  V30 2506 O 253.609 -0.0885805 -1.94298 0
M  V30 2507 C 253.892 -3.4635 -0.985594 0
M  V30 2508 C 253.745 -4.49512 0.160824 0
M  V30 2509 C 255.064 -3.98697 -1.86355 0
M  V30 2510 H 252.183 -0.715482 -0.176788 0
M  V30 2511 H 254.825 -1.88451 0.242088 0
M  V30 2512 H 252.975 -3.53579 -1.60978 0
M  V30 2513 H 254.647 -4.54353 0.797537 0
M  V30 2514 H 252.89 -4.26013 0.818256 0
M  V30 2515 H 253.561 -5.51531 -0.227569 0
M  V30 2516 H 256.037 -3.94019 -1.33746 0
M  V30 2517 H 254.913 -5.03792 -2.17909 0
M  V30 2518 H 255.174 -3.41744 -2.8047 0
M  V30 2519 N 254.233 0.115231 -1.57178 0
M  V30 2520 C 255.481 0.820727 -1.84685 0
M  V30 2521 C 255.802 1.80237 -0.744279 0
M  V30 2522 O 255.072 1.94529 0.231375 0
M  V30 2523 H 253.652 0.306084 -0.681411 0
M  V30 2524 H 256.314 0.101656 -1.94635 0
M  V30 2525 H 255.41 1.36366 -2.80733 0
M  V30 2526 N 255.711 1.52812 0.385517 0
M  V30 2527 C 256.621 1.80766 1.49535 0
M  V30 2528 C 257.637 0.694651 1.59532 0
M  V30 2529 O 258.813 0.982611 1.75803 0
M  V30 2530 C 255.878 1.97381 2.85029 0
M  V30 2531 C 254.939 3.21295 2.84724 0
M  V30 2532 C 254.172 3.37108 4.13756 0
M  V30 2533 O 254.395 2.5765 5.08893 0
M  V30 2534 O 253.329 4.30378 4.20783 0
M  V30 2535 H 257.155 2.75015 1.28842 0
M  V30 2536 H 254.74 1.37946 0.573697 0
M  V30 2537 H 256.622 2.09996 3.65349 0
M  V30 2538 H 255.297 1.06322 3.05741 0
M  V30 2539 H 254.204 3.1412 2.03174 0
M  V30 2540 H 255.537 4.12212 2.68965 0
M  V30 2541 N 257.189 -0.644168 1.43834 0
M  V30 2542 C 258.119 -1.76814 1.52509 0
M  V30 2543 C 259.1 -1.65823 0.379052 0
M  V30 2544 O 260.285 -1.84781 0.597466 0
M  V30 2545 C 257.415 -3.15288 1.4564 0
M  V30 2546 C 256.369 -3.41053 2.58586 0
M  V30 2547 C 255.695 -4.79421 2.36769 0
M  V30 2548 C 256.995 -3.34902 4.00797 0
M  V30 2549 H 258.689 -1.69812 2.46586 0
M  V30 2550 H 256.235 -0.815542 1.1868 0
M  V30 2551 H 258.188 -3.93681 1.50311 0
M  V30 2552 H 256.912 -3.23043 0.480725 0
M  V30 2553 H 255.571 -2.65035 2.53282 0
M  V30 2554 H 255.219 -4.83863 1.37424 0
M  V30 2555 H 254.919 -4.9762 3.12487 0
M  V30 2556 H 256.443 -5.6006 2.43238 0
M  V30 2557 H 257.857 -4.03218 4.07539 0
M  V30 2558 H 256.254 -3.64637 4.76613 0
M  V30 2559 H 257.324 -2.32928 4.25291 0
M  V30 2560 N 258.668 -1.30515 -0.883378 0
M  V30 2561 C 259.916 -1.19194 -1.63209 0
M  V30 2562 C 260.237 0.253205 -1.93349 0
M  V30 2563 O 259.507 1.17025 -1.57105 0
M  V30 2564 H 258.087 -0.438148 -0.605009 0
M  V30 2565 H 260.749 -1.63663 -1.05832 0
M  V30 2566 H 259.845 -1.75396 -2.58153 0
M  V30 2567 N 260.146 1.09593 -1.13257 0
M  V30 2568 C 261.079 2.15451 -0.752061 0
M  V30 2569 C 262.057 1.60493 0.260913 0
M  V30 2570 O 263.241 1.8788 0.152819 0
M  V30 2571 C 260.368 3.38506 -0.114594 0
M  V30 2572 C 259.414 4.12183 -1.09579 0
M  V30 2573 S 260.247 4.6661 -2.62745 0
M  V30 2574 C 261.403 5.92966 -2.00354 0
M  V30 2575 H 261.636 2.47395 -1.64872 0
M  V30 2576 H 259.169 1.21515 -0.952545 0
M  V30 2577 H 261.127 4.09757 0.246808 0
M  V30 2578 H 259.788 3.04784 0.759309 0
M  V30 2579 H 258.981 5.00445 -0.597545 0
M  V30 2580 H 258.583 3.46785 -1.40057 0
M  V30 2581 H 260.875 6.63882 -1.35156 0
M  V30 2582 H 261.818 6.47467 -2.86691 0
M  V30 2583 H 262.226 5.45405 -1.4558 0
M  V30 2584 N 261.624 0.925811 1.2754 0
M  V30 2585 C 262.587 0.428129 2.25166 0
M  V30 2586 C 263.587 -0.452261 1.54309 0
M  V30 2587 O 264.777 -0.253608 1.72344 0
M  V30 2588 C 261.909 -0.384749 3.38722 0
M  V30 2589 H 263.102 1.29066 2.70706 0
M  V30 2590 H 260.655 0.706323 1.3943 0
M  V30 2591 H 261.39 -1.26618 2.98561 0
M  V30 2592 H 261.175 0.246454 3.91325 0
M  V30 2593 H 262.665 -0.723389 4.11287 0
M  V30 2594 N 263.102 -1.41638 0.69111 0
M  V30 2595 C 264.05 -2.32597 0.0115199 0
M  V30 2596 C 265.044 -1.5072 -0.773296 0
M  V30 2597 O 266.25 -1.66685 -0.67942 0
M  V30 2598 H 262.625 -0.751849 -0.0150746 0
M  V30 2599 H 264.596 -2.87593 0.795791 0
M  V30 2600 C 263.345 -3.35467 -0.914172 0
M  V30 2601 H 262.668 -3.9852 -0.319687 0
M  V30 2602 H 264.108 -4.01662 -1.35808 0
M  V30 2603 C 262.567 -2.69004 -2.02826 0
M  V30 2604 O 263.097 -2.53444 -3.11655 0
M  V30 2605 N 261.303 -2.2777 -1.80469 0
M  V30 2606 H 260.85 -2.40626 -0.919615 0
M  V30 2607 H 260.808 -1.83635 -2.55197 0
M  V30 2608 N 264.58 -0.43555 -1.51462 0
M  V30 2609 C 265.808 0.130242 -2.0649 0
M  V30 2610 C 266.223 1.36614 -1.30315 0
M  V30 2611 O 265.58 1.78869 -0.362223 0
M  V30 2612 C 265.631 0.454253 -3.58635 0
M  V30 2613 O 265.352 -0.73259 -4.31931 0
M  V30 2614 C 266.853 1.07091 -4.3017 0
M  V30 2615 H 264.073 0.00871669 -0.670943 0
M  V30 2616 H 266.617 -0.614117 -1.95061 0
M  V30 2617 H 264.772 1.14851 -3.69984 0
M  V30 2618 H 265.186 -0.455787 -5.22516 0
M  V30 2619 H 266.66 1.24764 -5.37716 0
M  V30 2620 H 267.137 2.05144 -3.88346 0
M  V30 2621 H 267.743 0.416089 -4.2326 0
M  V30 2622 N 266.058 1.56714 -0.166846 0
M  V30 2623 C 267.286 2.0112 0.485644 0
M  V30 2624 C 267.701 1.04705 1.57106 0
M  V30 2625 O 267.058 0.0471923 1.82439 0
M  V30 2626 C 267.109 3.45361 1.06808 0
M  V30 2627 O 266.83 4.38092 0.0259995 0
M  V30 2628 C 268.331 4.05145 1.79924 0
M  V30 2629 H 265.551 0.65931 0.124704 0
M  V30 2630 H 268.095 2.02746 -0.267262 0
M  V30 2631 H 266.25 3.44524 1.7715 0
M  V30 2632 H 266.664 5.22519 0.455398 0
M  V30 2633 H 268.138 5.08009 2.15942 0
M  V30 2634 H 268.615 3.46982 2.69258 0
M  V30 2635 H 269.221 4.09672 1.14234 0
M  V30 2636 N 267.536 -0.106894 1.57237 0
M  V30 2637 C 268.947 -0.662723 1.74542 0
M  V30 2638 C 269.298 -1.7971 0.787319 0
M  V30 2639 O 268.423 -2.16368 -0.0369636 0
M  V30 2640 C 269.018 -1.20896 3.16496 0
M  V30 2641 C 267.577 -1.71096 3.35266 0
M  V30 2642 C 266.724 -0.615642 2.7038 0
M  V30 2643 H 269.675 0.119106 1.58252 0
M  V30 2644 H 269.696 -2.07847 3.18716 0
M  V30 2645 H 269.208 -0.383122 3.86204 0
M  V30 2646 H 267.309 -2.56119 2.70618 0
M  V30 2647 H 267.422 -1.81208 4.43509 0
M  V30 2648 H 265.786 -1.05222 2.31949 0
M  V30 2649 H 266.569 0.199419 3.4272 0
M  V30 2650 N 269.014 -1.53014 -0.377408 0
M  V30 2651 C 269.977 -1.77957 -1.44444 0
M  V30 2652 C 270.977 -0.649763 -1.47087 0
M  V30 2653 O 272.167 -0.917897 -1.48055 0
M  V30 2654 C 269.299 -1.89089 -2.83651 0
M  V30 2655 H 270.492 -2.73243 -1.23606 0
M  V30 2656 H 268.045 -1.43912 -0.609844 0
M  V30 2657 H 268.78 -0.958293 -3.09818 0
M  V30 2658 H 268.565 -2.71254 -2.83132 0
M  V30 2659 H 270.055 -2.1002 -3.60945 0
M  V30 2660 N 270.492 0.636531 -1.44174 0
M  V30 2661 C 271.455 1.73063 -1.50273 0
M  V30 2662 C 272.455 1.56113 -0.385397 0
M  V30 2663 O 273.645 1.61707 -0.64781 0
M  V30 2664 C 270.777 3.12096 -1.37145 0
M  V30 2665 H 271.97 1.69031 -2.47727 0
M  V30 2666 H 269.523 0.849706 -1.31186 0
M  V30 2667 H 270.258 3.21728 -0.407636 0
M  V30 2668 H 270.043 3.25805 -2.18159 0
M  V30 2669 H 271.533 3.91846 -1.44382 0
M  V30 2670 N 271.97 1.30982 0.876444 0
M  V30 2671 C 272.933 1.18054 1.96459 0
M  V30 2672 C 273.933 0.109399 1.60427 0
M  V30 2673 O 275.123 0.358173 1.70478 0
M  V30 2674 C 272.255 0.810616 3.31122 0
M  V30 2675 H 273.448 2.14735 2.09354 0
M  V30 2676 H 271.001 1.145 1.06392 0
M  V30 2677 H 271.736 -0.155322 3.23928 0
M  V30 2678 H 271.521 1.58481 3.58645 0
M  V30 2679 H 273.011 0.743876 4.10921 0
M  V30 2680 N 273.449 -1.08991 1.13837 0
M  V30 2681 C 274.382 -2.15049 0.763477 0
M  V30 2682 C 275.36 -1.60629 -0.252398 0
M  V30 2683 O 276.544 -1.87958 -0.142853 0
M  V30 2684 C 273.671 -3.38441 0.132545 0
M  V30 2685 C 272.717 -4.11596 1.11763 0
M  V30 2686 S 273.55 -4.6521 2.65216 0
M  V30 2687 C 274.706 -5.91896 2.03495 0
M  V30 2688 H 274.939 -2.46518 1.66182 0
M  V30 2689 H 272.472 -1.21008 0.958976 0
M  V30 2690 H 274.43 -4.09883 -0.225074 0
M  V30 2691 H 273.091 -3.05182 -0.743135 0
M  V30 2692 H 272.284 -5.00121 0.624076 0
M  V30 2693 H 271.886 -3.46038 1.41894 0
M  V30 2694 H 274.178 -6.63156 1.38675 0
M  V30 2695 H 275.121 -6.45938 2.9012 0
M  V30 2696 H 275.529 -5.44625 1.48471 0
M  V30 2697 N 274.927 -0.932562 -1.27047 0
M  V30 2698 C 276.173 -0.576412 -1.94436 0
M  V30 2699 C 276.506 0.880891 -1.73072 0
M  V30 2700 O 275.781 1.62905 -1.06264 0
M  V30 2701 C 276.064 -0.909031 -3.48437 0
M  V30 2702 C 275.917 -2.42044 -3.79123 0
M  V30 2703 C 277.236 -0.418341 -4.38107 0
M  V30 2704 H 274.355 -0.210888 -0.706184 0
M  V30 2705 H 276.997 -1.16522 -1.50075 0
M  V30 2706 H 275.147 -0.407947 -3.86352 0
M  V30 2707 H 276.819 -2.99359 -3.50973 0
M  V30 2708 H 275.062 -2.86758 -3.25503 0
M  V30 2709 H 275.733 -2.6037 -4.86736 0
M  V30 2710 H 278.209 -0.847856 -4.0737 0
M  V30 2711 H 277.085 -0.679981 -5.44672 0
M  V30 2712 H 277.346 0.681642 -4.36814 0
M  V30 2713 N 276.405 1.4127 -0.698611 0
M  V30 2714 C 277.63 2.06024 -0.238512 0
M  V30 2715 C 278.055 1.5224 1.10475 0
M  V30 2716 O 277.413 0.650623 1.69223 0
M  V30 2717 C 277.461 3.59988 -0.209952 0
M  V30 2718 O 276.565 4.04282 0.814235 0
M  V30 2719 H 275.906 0.653829 -0.115775 0
M  V30 2720 H 278.436 1.8098 -0.954326 0
M  V30 2721 H 278.446 4.07979 -0.0418436 0
M  V30 2722 H 277.121 3.98503 -1.1903 0
M  V30 2723 H 275.698 3.6779 0.615234 0
M  V30 2724 N 277.883 0.443576 1.51229 0
M  V30 2725 C 279.129 -0.120975 2.02439 0
M  V30 2726 C 279.462 -1.41815 1.32674 0
M  V30 2727 O 278.737 -1.89373 0.443622 0
M  V30 2728 C 279.02 -0.333291 3.58554 0
M  V30 2729 C 278.873 0.982968 4.38928 0
M  V30 2730 C 280.192 -1.10028 4.26124 0
M  V30 2731 H 277.311 -0.0424923 0.735774 0
M  V30 2732 H 279.953 0.583794 1.80809 0
M  V30 2733 H 278.103 -0.933614 3.77115 0
M  V30 2734 H 279.775 1.61775 4.32003 0
M  V30 2735 H 278.018 1.58611 4.03763 0
M  V30 2736 H 278.689 0.788379 5.46341 0
M  V30 2737 H 281.165 -0.591711 4.11871 0
M  V30 2738 H 280.041 -1.21761 5.35225 0
M  V30 2739 H 280.302 -2.12996 3.87408 0
M  V30 2740 N 279.361 -1.56624 0.175154 0
M  V30 2741 C 280.608 -1.96999 -0.468811 0
M  V30 2742 C 280.936 -1.06129 -1.62994 0
M  V30 2743 O 280.191 -0.0961771 -1.95464 0
M  V30 2744 C 280.49 -3.43419 -0.989864 0
M  V30 2745 C 280.156 -4.50866 0.0557687 0
M  V30 2746 C 278.818 -4.79975 0.343134 0
M  V30 2747 C 281.17 -5.15551 0.765308 0
M  V30 2748 C 278.498 -5.71066 1.34536 0
M  V30 2749 C 280.85 -6.07724 1.75654 0
M  V30 2750 C 279.514 -6.35199 2.05132 0
M  V30 2751 H 278.784 -0.720869 -0.17155 0
M  V30 2752 H 281.431 -1.89616 0.267924 0
M  V30 2753 H 279.736 -3.47772 -1.80449 0
M  V30 2754 H 281.433 -3.72002 -1.49719 0
M  V30 2755 H 278.023 -4.28229 -0.178381 0
M  V30 2756 H 282.207 -4.9317 0.556513 0
M  V30 2757 H 277.463 -5.90635 1.57988 0
M  V30 2758 H 281.637 -6.56912 2.31169 0
M  V30 2759 H 279.264 -7.05584 2.8294 0
M  V30 2760 N 280.839 0.0985539 -1.57292 0
M  V30 2761 C 282.067 0.816318 -1.90115 0
M  V30 2762 C 282.482 1.72451 -0.768509 0
M  V30 2763 O 281.839 1.80643 0.259687 0
M  V30 2764 C 281.89 1.63259 -3.22535 0
M  V30 2765 O 281.611 0.760934 -4.31441 0
M  V30 2766 C 283.112 2.45372 -3.69199 0
M  V30 2767 H 280.332 0.233595 -0.629027 0
M  V30 2768 H 282.876 0.0768229 -2.04356 0
M  V30 2769 H 281.031 2.32463 -3.09903 0
M  V30 2770 H 281.445 1.32595 -5.07463 0
M  V30 2771 H 282.919 2.98144 -4.64558 0
M  V30 2772 H 283.396 3.23677 -2.96867 0
M  V30 2773 H 284.002 1.81373 -3.84687 0
M  V30 2774 N 282.317 1.53212 0.369288 0
M  V30 2775 C 283.565 1.68881 1.11012 0
M  V30 2776 C 283.886 0.441285 1.89941 0
M  V30 2777 O 283.156 -0.544623 1.88177 0
M  V30 2778 H 281.736 0.622569 0.412816 0
M  V30 2779 H 284.398 1.90391 0.416802 0
M  V30 2780 H 283.494 2.54822 1.80201 0
M  V30 2781 N 283.795 -0.628877 1.44509 0
M  V30 2782 C 285.02 -1.42048 1.5112 0
M  V30 2783 C 285.445 -1.87594 0.137818 0
M  V30 2784 O 284.803 -1.58873 -0.873437 0
M  V30 2785 C 284.851 -2.61541 2.48251 0
M  V30 2786 O 283.955 -3.61453 1.98559 0
M  V30 2787 H 283.296 -0.424942 0.510216 0
M  V30 2788 H 285.826 -0.767374 1.89664 0
M  V30 2789 H 285.836 -3.09057 2.66361 0
M  V30 2790 H 284.511 -2.27736 3.48007 0
M  V30 2791 H 283.088 -3.20731 1.90227 0
M  V30 2792 N 285.273 -1.31445 -0.869486 0
M  V30 2793 C 286.55 -1.11795 -1.60503 0
M  V30 2794 C 286.93 0.327168 -2.08549 0
M  V30 2795 O 286.278 1.32135 -1.8642 0
M  V30 2796 C 286.488 -2.13258 -2.76265 0
M  V30 2797 C 287.836 -2.45805 -3.46215 0
M  V30 2798 O 288.86 -2.11688 -2.86473 0
M  V30 2799 O 287.719 -3.04228 -4.5399 0
M  V30 2800 H 284.813 -0.430421 -0.706163 0
M  V30 2801 H 287.359 -1.42925 -0.914907 0
M  V30 2802 H 286.131 -3.10461 -2.3818 0
M  V30 2803 H 285.754 -1.83035 -3.52964 0
M  V30 2804 N 286.751 1.08385 -1.14413 0
M  V30 2805 C 287.714 2.13486 -0.834048 0
M  V30 2806 C 288.714 1.59988 0.161418 0
M  V30 2807 O 289.904 1.74071 -0.0669575 0
M  V30 2808 C 287.036 3.4003 -0.243354 0
M  V30 2809 H 288.229 2.42425 -1.7655 0
M  V30 2810 H 285.782 1.24101 -0.950189 0
M  V30 2811 H 286.517 3.16726 0.696807 0
M  V30 2812 H 286.302 3.80157 -0.960367 0
M  V30 2813 H 287.792 4.17577 -0.0436242 0
M  V30 2814 N 288.23 0.939286 1.26551 0
M  V30 2815 C 289.177 0.446088 2.26448 0
M  V30 2816 C 290.147 -0.493234 1.58608 0
M  V30 2817 O 291.332 -0.409857 1.86346 0
M  V30 2818 C 288.472 -0.284375 3.43926 0
M  V30 2819 C 287.585 0.690399 4.26448 0
M  V30 2820 C 286.72 -0.0610712 5.31165 0
M  V30 2821 C 285.759 0.905649 6.05363 0
M  V30 2822 N 284.896 0.186055 7.01853 0
M  V30 2823 H 289.736 1.30291 2.68008 0
M  V30 2824 H 287.273 0.65371 1.31776 0
M  V30 2825 H 289.231 -0.724313 4.10864 0
M  V30 2826 H 287.861 -1.10535 3.03285 0
M  V30 2827 H 286.913 1.24885 3.59316 0
M  V30 2828 H 288.225 1.42873 4.779 0
M  V30 2829 H 287.379 -0.56038 6.04106 0
M  V30 2830 H 286.118 -0.832297 4.80546 0
M  V30 2831 H 285.123 1.4161 5.3125 0
M  V30 2832 H 286.348 1.67685 6.58072 0
M  V30 2833 H 284.294 -0.566714 6.53548 0
M  V30 2834 H 284.211 0.863752 7.51049 0
M  V30 2835 H 285.479 -0.292221 7.78952 0
M  V30 2836 N 289.708 -1.40897 0.706093 0
M  V30 2837 C 290.618 -2.3455 0.0482286 0
M  V30 2838 C 291.634 -1.56796 -0.754396 0
M  V30 2839 O 292.81 -1.89228 -0.689538 0
M  V30 2840 C 289.875 -3.35625 -0.869303 0
M  V30 2841 C 288.936 -4.29261 -0.0576994 0
M  V30 2842 C 288.169 -5.25508 -0.931531 0
M  V30 2843 O 288.392 -5.27472 -2.17092 0
M  V30 2844 O 287.326 -6.00727 -0.375587 0
M  V30 2845 H 291.152 -2.92407 0.820476 0
M  V30 2846 H 288.737 -1.4193 0.4665 0
M  V30 2847 H 290.619 -3.97635 -1.39514 0
M  V30 2848 H 289.294 -2.80196 -1.62086 0
M  V30 2849 H 288.201 -3.70566 0.512988 0
M  V30 2850 H 289.534 -4.87817 0.655426 0
M  V30 2851 N 291.186 -0.45159 -1.50991 0
M  V30 2852 C 292.432 0.110237 -2.025 0
M  V30 2853 C 292.765 1.41109 -1.33424 0
M  V30 2854 O 292.04 1.89135 -0.453659 0
M  V30 2855 C 292.323 0.314271 -3.58726 0
M  V30 2856 C 292.176 -1.00623 -4.38401 0
M  V30 2857 C 293.495 1.07767 -4.26702 0
M  V30 2858 H 290.614 0.0385897 -0.735989 0
M  V30 2859 H 293.256 -0.593374 -1.80497 0
M  V30 2860 H 291.406 0.913601 -3.77605 0
M  V30 2861 H 293.078 -1.64064 -4.31139 0
M  V30 2862 H 291.321 -1.6075 -4.02917 0
M  V30 2863 H 291.992 -0.817341 -5.45915 0
M  V30 2864 H 294.468 0.56986 -4.12179 0
M  V30 2865 H 293.344 1.18921 -5.35863 0
M  V30 2866 H 293.605 2.10939 -3.88532 0
M  V30 2867 N 292.664 1.56529 -0.183458 0
M  V30 2868 C 293.91 1.97537 0.459036 0
M  V30 2869 C 294.243 1.06989 1.62071 0
M  V30 2870 O 293.518 0.11948 1.94133 0
M  V30 2871 C 293.801 3.47874 0.930368 0
M  V30 2872 C 293.654 4.492 -0.232317 0
M  V30 2873 C 294.973 4.01612 1.79989 0
M  V30 2874 H 292.092 0.718204 0.165383 0
M  V30 2875 H 294.734 1.88042 -0.272038 0
M  V30 2876 H 292.884 3.56095 1.55333 0
M  V30 2877 H 294.556 4.53027 -0.86972 0
M  V30 2878 H 292.799 4.24657 -0.885928 0
M  V30 2879 H 293.47 5.51823 0.139796 0
M  V30 2880 H 295.946 3.96097 1.27461 0
M  V30 2881 H 294.822 5.07195 2.09867 0
M  V30 2882 H 295.083 3.46163 2.74998 0
M  V30 2883 N 294.142 -0.090211 1.57342 0
M  V30 2884 C 295.39 -0.791241 1.85967 0
M  V30 2885 C 295.711 -1.7903 0.772859 0
M  V30 2886 O 294.981 -1.94872 -0.200398 0
M  V30 2887 H 293.561 -0.295205 0.686195 0
M  V30 2888 H 296.223 -0.0706782 1.94772 0
M  V30 2889 H 295.319 -1.31882 2.82867 0
M  V30 2890 N 295.62 -1.53406 -0.361157 0
M  V30 2891 C 296.869 -1.69022 -1.10066 0
M  V30 2892 C 297.182 -0.450838 -1.90333 0
M  V30 2893 O 298.388 -0.487617 -2.67085 0
M  V30 2894 C 296.844 -2.98812 -2.00598 0
M  V30 2895 C 296.452 -4.30027 -1.25621 0
M  V30 2896 C 298.196 -3.23795 -2.74513 0
M  V30 2897 C 296.103 -5.50903 -2.1508 0
M  V30 2898 H 295.033 -0.629776 -0.414606 0
M  V30 2899 H 297.684 -1.79907 -0.361348 0
M  V30 2900 H 296.066 -2.8174 -2.78278 0
M  V30 2901 H 297.24 -4.57745 -0.529739 0
M  V30 2902 H 295.555 -4.11522 -0.635496 0
M  V30 2903 H 298.152 -4.11289 -3.41681 0
M  V30 2904 H 298.495 -2.40045 -3.40123 0
M  V30 2905 H 299.028 -3.41561 -2.03914 0
M  V30 2906 H 295.767 -6.37143 -1.54041 0
M  V30 2907 H 295.287 -5.27459 -2.85565 0
M  V30 2908 H 296.966 -5.85865 -2.74538 0
M  V30 2909 N 297.098 0.621204 -1.44841 0
M  V30 2910 C 298.346 1.37783 -1.47852 0
M  V30 2911 C 298.667 1.94653 -0.116224 0
M  V30 2912 O 297.937 1.76367 0.852737 0
M  V30 2913 H 296.517 0.511453 -0.544449 0
M  V30 2914 H 299.179 0.730446 -1.80694 0
M  V30 2915 H 298.275 2.20414 -2.20961 0
M  V30 2916 N 298.576 1.31904 0.862503 0
M  V30 2917 C 299.539 1.20131 1.95195 0
M  V30 2918 C 300.539 0.126409 1.60302 0
M  V30 2919 O 301.729 0.376234 1.70089 0
M  V30 2920 C 298.861 0.845691 3.30244 0
M  V30 2921 H 300.054 2.16943 2.07064 0
M  V30 2922 H 297.607 1.15622 1.05172 0
M  V30 2923 H 298.342 -0.120957 3.24074 0
M  V30 2924 H 298.127 1.62276 3.56944 0
M  V30 2925 H 299.617 0.787418 4.10109 0
M  V30 2926 N 300.054 -1.07777 1.14986 0
M  V30 2927 C 301.002 -2.16964 0.838406 0
M  V30 2928 C 301.996 -1.68372 -0.186386 0
M  V30 2929 O 303.202 -1.79951 -0.0418465 0
M  V30 2930 H 299.577 -0.708006 0.253439 0
M  V30 2931 H 301.548 -2.40454 1.76704 0
M  V30 2932 C 300.297 -3.4604 0.339335 0
M  V30 2933 H 299.62 -3.83813 1.11927 0
M  V30 2934 H 301.06 -4.23698 0.160021 0
M  V30 2935 C 299.519 -3.23569 -0.938325 0
M  V30 2936 O 300.049 -3.47752 -2.01077 0
M  V30 2937 N 298.255 -2.77079 -0.876117 0
M  V30 2938 H 297.802 -2.576 -0.00322037 0
M  V30 2939 H 297.76 -2.62422 -1.73153 0
M  V30 2940 N 301.532 -0.945985 -1.26051 0
M  V30 2941 C 302.462 -0.477172 -2.28572 0
M  V30 2942 C 303.443 0.472032 -1.63419 0
M  V30 2943 O 304.628 0.372853 -1.90587 0
M  V30 2944 C 301.758 0.253975 -3.4637 0
M  V30 2945 C 300.712 -0.609135 -4.23643 0
M  V30 2946 C 300.038 0.252252 -5.34105 0
M  V30 2947 C 301.338 -1.8829 -4.8718 0
M  V30 2948 H 303.032 -1.33402 -2.68038 0
M  V30 2949 H 300.578 -0.642904 -1.28852 0
M  V30 2950 H 302.531 0.593016 -4.17207 0
M  V30 2951 H 301.255 1.145 -3.05871 0
M  V30 2952 H 299.914 -0.931138 -3.54578 0
M  V30 2953 H 299.562 1.14278 -4.89846 0
M  V30 2954 H 299.262 -0.32188 -5.86718 0
M  V30 2955 H 300.786 0.586454 -6.07777 0
M  V30 2956 H 302.2 -1.61081 -5.50205 0
M  V30 2957 H 300.597 -2.40199 -5.49931 0
M  V30 2958 H 301.667 -2.59134 -4.09851 0
M  V30 2959 N 303.011 1.40521 -0.713556 0
M  V30 2960 C 304.422 1.83853 -0.324807 0
M  V30 2961 C 304.773 1.59667 1.14021 0
M  V30 2962 O 303.898 1.07649 1.87725 0
M  V30 2963 C 304.493 3.33751 -0.582746 0
M  V30 2964 C 303.052 3.75584 -0.247727 0
M  V30 2965 C 302.199 2.63753 -0.856121 0
M  V30 2966 H 305.15 1.29817 -0.91286 0
M  V30 2967 H 305.171 3.80194 0.152682 0
M  V30 2968 H 304.683 3.51322 -1.64908 0
M  V30 2969 H 302.784 3.63608 0.813624 0
M  V30 2970 H 302.897 4.7373 -0.715307 0
M  V30 2971 H 301.261 2.53108 -0.28432 0
M  V30 2972 H 302.044 2.84137 -1.92668 0
M  V30 2973 N 304.489 0.459591 1.5075 0
M  V30 2974 C 305.9 0.00171547 1.867 0
M  V30 2975 C 306.251 -1.39934 1.37525 0
M  V30 2976 O 305.376 -2.03523 0.735349 0
M  V30 2977 C 305.971 -0.00366298 3.388 0
M  V30 2978 C 304.53 -0.406026 3.74204 0
M  V30 2979 C 303.677 0.38673 2.7459 0
M  V30 2980 H 306.628 0.674413 1.43657 0
M  V30 2981 H 306.649 -0.808371 3.71814 0
M  V30 2982 H 306.161 1.01617 3.74561 0
M  V30 2983 H 304.262 -1.43063 3.4404 0
M  V30 2984 H 304.375 -0.115362 4.78961 0
M  V30 2985 H 302.739 -0.158019 2.54209 0
M  V30 2986 H 303.522 1.40585 3.13194 0
M  V30 2987 N 305.967 -1.56429 0.191757 0
M  V30 2988 C 307.192 -2.02309 -0.456706 0
M  V30 2989 C 307.617 -1.07103 -1.5463 0
M  V30 2990 O 306.975 -0.0539677 -1.8122 0
M  V30 2991 C 307.023 -3.46654 -0.993159 0
M  V30 2992 O 306.127 -3.54559 -2.10622 0
M  V30 2993 H 305.468 -0.655303 -0.107114 0
M  V30 2994 H 307.998 -2.02364 0.301653 0
M  V30 2995 H 308.008 -3.86377 -1.31061 0
M  V30 2996 H 306.683 -4.1544 -0.195504 0
M  V30 2997 H 305.26 -3.26708 -1.79767 0
M  V30 2998 N 307.445 0.0818655 -1.57387 0
M  V30 2999 C 308.861 0.436412 -1.53517 0
M  V30 3000 C 309.061 1.79758 -0.910459 0
M  V30 3001 O 308.117 2.47324 -0.508636 0
M  V30 3002 C 309.43 0.386734 -2.98203 0
M  V30 3003 C 310.978 0.467644 -3.09487 0
M  V30 3004 C 311.453 0.447978 -4.55804 0
M  V30 3005 N 312.944 0.508348 -4.60402 0
M  V30 3006 C 313.679 0.515184 -5.71081 0
M  V30 3007 N 313.175 0.477435 -6.91153 0
M  V30 3008 N 314.968 0.560988 -5.59294 0
M  V30 3009 H 307.119 -0.809546 -1.96367 0
M  V30 3010 H 309.382 -0.302733 -0.898363 0
M  V30 3011 H 309.088 -0.546539 -3.47427 0
M  V30 3012 H 308.962 1.20075 -3.57578 0
M  V30 3013 H 311.349 1.39134 -2.60242 0
M  V30 3014 H 311.43 -0.374753 -2.5304 0
M  V30 3015 H 311.074 -0.471826 -5.05704 0
M  V30 3016 H 311.004 1.30777 -5.10103 0
M  V30 3017 H 313.495 0.54218 -3.7399 0
M  V30 3018 H 313.808 0.486299 -7.71268 0
M  V30 3019 H 312.153 0.444278 -6.93579 0
M  V30 3020 H 315.344 0.5881 -4.64391 0
M  V30 3021 H 315.517 0.562846 -6.45551 0
M  V30 3022 N 308.923 1.53595 0.353017 0
M  V30 3023 C 310.172 1.69603 1.09168 0
M  V30 3024 C 310.485 0.460925 1.90092 0
M  V30 3025 O 311.691 0.501774 2.66823 0
M  V30 3026 C 310.147 2.99872 1.9901 0
M  V30 3027 C 309.755 4.30687 1.23339 0
M  V30 3028 C 311.499 3.25246 2.72792 0
M  V30 3029 C 309.406 5.52036 2.12156 0
M  V30 3030 H 308.336 0.631966 0.411261 0
M  V30 3031 H 310.987 1.80096 0.351802 0
M  V30 3032 H 309.369 2.83212 2.7678 0
M  V30 3033 H 310.543 4.58019 0.505456 0
M  V30 3034 H 308.858 4.11853 0.613663 0
M  V30 3035 H 311.455 4.13095 3.39495 0
M  V30 3036 H 311.798 2.41846 3.38846 0
M  V30 3037 H 312.331 3.42638 2.021 0
M  V30 3038 H 309.07 6.37951 1.50659 0
M  V30 3039 H 308.59 5.28966 2.82764 0
M  V30 3040 H 310.269 5.87313 2.71427 0
M  V30 3041 N 310.401 -0.613514 1.45168 0
M  V30 3042 C 311.678 -1.37263 1.39349 0
M  V30 3043 C 312.058 -2.11012 0.0610848 0
M  V30 3044 O 311.406 -2.07502 -0.956825 0
M  V30 3045 C 311.616 -2.3244 2.60332 0
M  V30 3046 C 312.964 -2.9523 3.05163 0
M  V30 3047 O 313.988 -2.42762 2.60663 0
M  V30 3048 O 312.847 -3.90454 3.82372 0
M  V30 3049 H 309.941 -0.615188 0.552696 0
M  V30 3050 H 312.487 -0.637097 1.57287 0
M  V30 3051 H 311.259 -1.77164 3.48896 0
M  V30 3052 H 310.882 -3.13383 2.44698 0
M  V30 3053 N 311.879 -1.3236 -0.855495 0
M  V30 3054 C 312.827 -1.2118 -1.9854 0
M  V30 3055 C 313.821 -0.116788 -1.68997 0
M  V30 3056 O 315.027 -0.279657 -1.77814 0
M  V30 3057 H 311.402 -0.375608 -0.651477 0
M  V30 3058 H 313.373 -2.16743 -2.05098 0
M  V30 3059 C 312.122 -0.950849 -3.34446 0
M  V30 3060 H 311.445 -1.78563 -3.57708 0
M  V30 3061 H 312.885 -0.912863 -4.14057 0
M  V30 3062 C 311.344 0.346404 -3.35114 0
M  V30 3063 O 311.874 1.35855 -3.7803 0
M  V30 3064 N 310.08 0.36808 -2.88259 0
M  V30 3065 H 309.627 -0.456102 -2.5353 0
M  V30 3066 H 309.585 1.23591 -2.89089 0
M  V30 3067 N 313.357 1.07166 -1.15556 0
M  V30 3068 C 314.304 2.14417 -0.854055 0
M  V30 3069 C 315.274 1.64965 0.193806 0
M  V30 3070 O 316.459 1.90703 0.0609443 0
M  V30 3071 C 313.599 3.43304 -0.351574 0
M  V30 3072 C 312.712 4.06537 -1.46123 0
M  V30 3073 C 311.847 5.23266 -0.914677 0
M  V30 3074 C 310.886 5.78464 -2.00114 0
M  V30 3075 N 310.023 6.86521 -1.47083 0
M  V30 3076 H 314.863 2.39548 -1.77259 0
M  V30 3077 H 312.4 1.17543 -0.884425 0
M  V30 3078 H 314.358 4.17179 -0.0419409 0
M  V30 3079 H 312.988 3.18419 0.530037 0
M  V30 3080 H 312.04 3.30297 -1.88701 0
M  V30 3081 H 313.352 4.43567 -2.28144 0
M  V30 3082 H 312.506 6.04131 -0.557698 0
M  V30 3083 H 311.245 4.87658 -0.0636583 0
M  V30 3084 H 310.25 4.96243 -2.36692 0
M  V30 3085 H 311.475 6.16126 -2.85597 0
M  V30 3086 H 309.421 6.52849 -0.642198 0
M  V30 3087 H 309.338 7.22446 -2.22729 0
M  V30 3088 H 310.606 7.71087 -1.14215 0
M  V30 3089 N 314.835 0.952656 1.25548 0
M  V30 3090 C 316.081 0.607272 1.93494 0
M  V30 3091 C 316.414 -0.853245 1.74452 0
M  V30 3092 O 315.689 -1.61194 1.08843 0
M  V30 3093 C 315.972 0.96435 3.46947 0
M  V30 3094 C 315.825 2.48045 3.75225 0
M  V30 3095 C 317.144 0.487987 4.37386 0
M  V30 3096 H 314.263 0.222096 0.702739 0
M  V30 3097 H 316.905 1.18895 1.48203 0
M  V30 3098 H 315.055 0.469361 3.85654 0
M  V30 3099 H 316.727 3.04905 3.46166 0
M  V30 3100 H 314.97 2.919 3.209 0
M  V30 3101 H 315.641 2.6808 4.82532 0
M  V30 3102 H 318.117 0.912558 4.0597 0
M  V30 3103 H 316.993 0.766547 5.43521 0
M  V30 3104 H 317.254 -0.612063 4.37843 0
M  V30 3105 N 316.313 -1.40141 0.720998 0
M  V30 3106 C 317.59 -1.94677 0.189757 0
M  V30 3107 C 317.97 -1.65879 -1.30566 0
M  V30 3108 O 317.318 -0.979391 -2.06447 0
M  V30 3109 C 317.528 -3.45279 0.508304 0
M  V30 3110 C 318.876 -4.22209 0.449934 0
M  V30 3111 O 319.9 -3.53413 0.444677 0
M  V30 3112 O 318.759 -5.44788 0.432189 0
M  V30 3113 H 315.853 -0.826459 0.0299026 0
M  V30 3114 H 318.399 -1.49719 0.7989 0
M  V30 3115 H 317.171 -3.59619 1.54239 0
M  V30 3116 H 316.794 -3.97386 -0.130525 0
M  V30 3117 N 317.792 -0.46758 -1.50504 0
M  V30 3118 C 319.038 0.0887532 -2.02606 0
M  V30 3119 C 319.371 1.39686 -1.34913 0
M  V30 3120 O 318.646 1.88644 -0.473694 0
M  V30 3121 C 318.929 0.276206 -3.59039 0
M  V30 3122 C 318.782 -1.05267 -4.37309 0
M  V30 3123 C 320.101 1.03235 -4.27821 0
M  V30 3124 H 317.22 0.0307814 -0.736357 0
M  V30 3125 H 319.862 -0.612485 -1.79857 0
M  V30 3126 H 318.012 0.8735 -3.78553 0
M  V30 3127 H 319.684 -1.68628 -4.29374 0
M  V30 3128 H 317.927 -1.65015 -4.01189 0
M  V30 3129 H 318.598 -0.875197 -5.45018 0
M  V30 3130 H 321.074 0.526111 -4.12761 0
M  V30 3131 H 319.95 1.1323 -5.37094 0
M  V30 3132 H 320.211 2.06806 -3.90748 0
M  V30 3133 N 319.27 1.56325 -0.20005 0
M  V30 3134 C 320.516 1.98012 0.438059 0
M  V30 3135 C 320.849 1.08702 1.60927 0
M  V30 3136 O 320.124 0.140064 1.93995 0
M  V30 3137 C 320.407 3.48841 0.893419 0
M  V30 3138 C 320.26 4.48928 -0.279947 0
M  V30 3139 C 321.579 4.03498 1.75719 0
M  V30 3140 H 318.698 0.719918 0.157757 0
M  V30 3141 H 321.34 1.87743 -0.291968 0
M  V30 3142 H 319.49 3.57723 1.51547 0
M  V30 3143 H 321.162 4.52079 -0.91772 0
M  V30 3144 H 319.405 4.23694 -0.930919 0
M  V30 3145 H 320.076 5.5194 0.0812601 0
M  V30 3146 H 322.552 3.97427 1.23253 0
M  V30 3147 H 321.428 5.09393 2.04476 0
M  V30 3148 H 321.689 3.4906 2.71311 0
M  V30 3149 N 320.748 -0.0735177 1.57428 0
M  V30 3150 C 322.164 -0.428264 1.53747 0
M  V30 3151 C 322.364 -1.79272 0.91998 0
M  V30 3152 O 321.42 -2.47051 0.521745 0
M  V30 3153 C 322.733 -0.370914 2.98404 0
M  V30 3154 C 324.281 -0.451224 3.0973 0
M  V30 3155 C 324.756 -0.4238 4.56035 0
M  V30 3156 N 326.247 -0.483925 4.60665 0
M  V30 3157 C 326.982 -0.484891 5.71346 0
M  V30 3158 N 326.478 -0.440775 6.91396 0
M  V30 3159 N 328.271 -0.531319 5.59583 0
M  V30 3160 H 320.422 0.819949 1.95935 0
M  V30 3161 H 322.685 0.307493 0.896745 0
M  V30 3162 H 322.391 0.564956 3.47133 0
M  V30 3163 H 322.265 -1.18176 3.5821 0
M  V30 3164 H 324.652 -1.37752 2.60976 0
M  V30 3165 H 324.733 0.388167 2.52838 0
M  V30 3166 H 324.377 0.498638 5.05446 0
M  V30 3167 H 324.307 -1.2807 5.10789 0
M  V30 3168 H 326.798 -0.522338 3.74273 0
M  V30 3169 H 327.111 -0.44539 7.71515 0
M  V30 3170 H 325.456 -0.40749 6.93804 0
M  V30 3171 H 328.647 -0.563464 4.64696 0
M  V30 3172 H 328.82 -0.528603 6.4584 0
M  V30 3173 N 322.226 -1.5378 -0.344866 0
M  V30 3174 C 323.642 -1.44015 -0.687888 0
M  V30 3175 C 323.842 -0.595834 -1.92489 0
M  V30 3176 O 322.898 -0.0863064 -2.52352 0
M  V30 3177 C 324.211 -2.87481 -0.881758 0
M  V30 3178 C 325.759 -2.97247 -0.980459 0
M  V30 3179 C 326.234 -4.41819 -1.20665 0
M  V30 3180 N 327.725 -4.45339 -1.27389 0
M  V30 3181 C 328.46 -5.54333 -1.46639 0
M  V30 3182 N 327.956 -6.73335 -1.63071 0
M  V30 3183 N 329.749 -5.41944 -1.49176 0
M  V30 3184 H 321.9 -2.07169 0.468475 0
M  V30 3185 H 324.163 -0.93643 0.147655 0
M  V30 3186 H 323.869 -3.51672 -0.0443444 0
M  V30 3187 H 323.743 -3.32352 -1.78388 0
M  V30 3188 H 326.13 -2.33197 -1.8084 0
M  V30 3189 H 326.211 -2.5574 -0.0552713 0
M  V30 3190 H 325.855 -5.06449 -0.383652 0
M  V30 3191 H 325.785 -4.80917 -2.14539 0
M  V30 3192 H 328.276 -3.59585 -1.1622 0
M  V30 3193 H 328.589 -7.52165 -1.77391 0
M  V30 3194 H 326.934 -6.76282 -1.60209 0
M  V30 3195 H 330.125 -4.47932 -1.3592 0
M  V30 3196 H 330.298 -6.26946 -1.63837 0
M  V30 3197 N 323.704 0.605807 -1.45491 0
M  V30 3198 C 324.667 1.69836 -1.5391 0
M  V30 3199 C 325.667 1.55261 -0.418424 0
M  V30 3200 O 326.857 1.60296 -0.681965 0
M  V30 3201 C 323.989 3.09117 -1.43734 0
M  V30 3202 H 325.182 1.63738 -2.51257 0
M  V30 3203 H 322.735 0.821689 -1.32959 0
M  V30 3204 H 323.47 3.20791 -0.475788 0
M  V30 3205 H 323.255 3.21104 -2.25021 0
M  V30 3206 H 324.745 3.88696 -1.52661 0
M  V30 3207 N 325.182 1.32811 0.848464 0
M  V30 3208 C 326.431 1.23075 1.59798 0
M  V30 3209 C 326.744 -0.204419 1.94529 0
M  V30 3210 O 327.95 -0.423701 2.68173 0
M  V30 3211 C 326.406 2.15594 2.88179 0
M  V30 3212 C 326.014 3.64228 2.60849 0
M  V30 3213 C 327.758 2.14709 3.66197 0
M  V30 3214 C 325.665 4.48689 3.85269 0
M  V30 3215 H 324.595 0.457091 0.599653 0
M  V30 3216 H 327.246 1.57813 0.936342 0
M  V30 3217 H 325.628 1.73778 3.55833 0
M  V30 3218 H 326.802 4.14424 2.01467 0
M  V30 3219 H 325.117 3.67306 1.96151 0
M  V30 3220 H 327.714 2.75046 4.58534 0
M  V30 3221 H 328.057 1.13966 4.00397 0
M  V30 3222 H 328.59 2.54837 3.05455 0
M  V30 3223 H 325.329 5.5027 3.56207 0
M  V30 3224 H 324.849 4.03241 4.44024 0
M  V30 3225 H 326.528 4.62006 4.52946 0
M  V30 3226 N 326.66 -1.06551 1.16123 0
M  V30 3227 C 327.623 -2.12132 0.867906 0
M  V30 3228 C 328.623 -1.60224 -0.135944 0
M  V30 3229 O 329.813 -1.73943 0.0946422 0
M  V30 3230 C 326.945 -3.396 0.297419 0
M  V30 3231 H 328.138 -2.39586 1.80385 0
M  V30 3232 H 325.691 -1.22574 0.969812 0
M  V30 3233 H 326.426 -3.17794 -0.64633 0
M  V30 3234 H 326.211 -3.78581 1.02073 0
M  V30 3235 H 327.701 -4.17455 0.110052 0
M  V30 3236 N 328.138 -0.959301 -1.25041 0
M  V30 3237 C 329.387 -0.612254 -1.92183 0
M  V30 3238 C 329.7 0.855347 -1.75907 0
M  V30 3239 O 330.906 1.31256 -2.37664 0
M  V30 3240 C 329.362 -1.04435 -3.44414 0
M  V30 3241 C 328.97 -2.53482 -3.69393 0
M  V30 3242 C 330.714 -0.770055 -4.17457 0
M  V30 3243 C 328.621 -2.90468 -5.15153 0
M  V30 3244 H 327.551 -0.225279 -0.719559 0
M  V30 3245 H 330.202 -1.16438 -1.41825 0
M  V30 3246 H 328.584 -0.4206 -3.9376 0
M  V30 3247 H 329.758 -3.20916 -3.30681 0
M  V30 3248 H 328.073 -2.78432 -3.0962 0
M  V30 3249 H 330.67 -1.02249 -5.24832 0
M  V30 3250 H 331.013 0.293611 -4.15263 0
M  V30 3251 H 331.546 -1.35437 -3.74034 0
M  V30 3252 H 328.285 -3.95871 -5.22462 0
M  V30 3253 H 327.805 -2.27711 -5.54894 0
M  V30 3254 H 329.484 -2.79914 -5.83315 0
M  V30 3255 N 329.616 1.39756 -0.72842 0
M  V30 3256 C 330.564 2.32485 -0.0731849 0
M  V30 3257 C 331.558 1.52717 0.733063 0
M  V30 3258 O 332.764 1.68428 0.634988 0
M  V30 3259 H 329.139 0.751984 -0.00486469 0
M  V30 3260 H 331.11 2.85382 -0.871761 0
M  V30 3261 C 329.859 3.37773 0.824908 0
M  V30 3262 H 329.182 3.99227 0.213915 0
M  V30 3263 H 330.622 4.05121 1.25111 0
M  V30 3264 C 329.081 2.74287 1.95622 0
M  V30 3265 O 329.611 2.61618 3.04826 0
M  V30 3266 N 327.817 2.32475 1.74367 0
M  V30 3267 H 327.364 2.4298 0.855494 0
M  V30 3268 H 327.322 1.90337 2.50238 0
M  V30 3269 N 331.094 0.475555 1.50254 0
M  V30 3270 C 332.026 -0.352649 2.26471 0
M  V30 3271 C 333.039 -0.953165 1.3198 0
M  V30 3272 O 334.228 -0.840815 1.57457 0
M  V30 3273 C 331.328 -1.50902 3.0345 0
M  V30 3274 C 330.501 -1.02047 4.25329 0
M  V30 3275 C 329.56 -2.05142 4.84565 0
M  V30 3276 O 328.586 -1.63023 5.45355 0
M  V30 3277 N 329.788 -3.37987 4.71959 0
M  V30 3278 H 332.553 0.300767 2.98187 0
M  V30 3279 H 330.114 0.306598 1.5897 0
M  V30 3280 H 332.106 -2.19572 3.39956 0
M  V30 3281 H 330.676 -2.06705 2.34504 0
M  V30 3282 H 329.896 -0.159507 3.93877 0
M  V30 3283 H 331.184 -0.672061 5.04342 0
M  V30 3284 H 330.582 -3.74913 4.23623 0
M  V30 3285 H 329.139 -4.02443 5.12721 0
M  V30 3286 N 332.573 -1.56217 0.208337 0
M  V30 3287 C 333.984 -1.84243 -0.301904 0
M  V30 3288 C 334.335 -1.12939 -1.60434 0
M  V30 3289 O 333.46 -0.39461 -2.12772 0
M  V30 3290 C 334.055 -3.34231 -0.554543 0
M  V30 3291 C 332.614 -3.62621 -1.00912 0
M  V30 3292 C 331.761 -2.77224 -0.064933 0
M  V30 3293 H 334.712 -1.52712 0.431833 0
M  V30 3294 H 334.733 -3.5372 -1.40223 0
M  V30 3295 H 334.245 -3.86099 0.393561 0
M  V30 3296 H 332.346 -3.16197 -1.97104 0
M  V30 3297 H 332.459 -4.7071 -0.892674 0
M  V30 3298 H 330.823 -2.48256 -0.56929 0
M  V30 3299 H 331.606 -3.31887 0.877851 0
M  V30 3300 N 334.051 0.0651679 -1.57465 0
M  V30 3301 C 334.999 1.09542 -2.05191 0
M  V30 3302 C 335.993 1.39675 -0.958509 0
M  V30 3303 O 337.199 1.39003 -1.14359 0
M  V30 3304 H 333.574 0.370623 -0.654326 0
M  V30 3305 H 335.545 0.666802 -2.90854 0
M  V30 3306 C 334.294 2.39881 -2.51699 0
M  V30 3307 H 333.617 2.17547 -3.3543 0
M  V30 3308 H 335.057 3.104 -2.88839 0
M  V30 3309 C 333.516 3.0631 -1.40271 0
M  V30 3310 O 334.046 3.94664 -0.748523 0
M  V30 3311 N 332.252 2.67041 -1.14618 0
M  V30 3312 H 331.799 1.95281 -1.67997 0
M  V30 3313 H 331.757 3.1181 -0.402688 0
M  V30 3314 N 335.529 1.53961 0.336706 0
M  V30 3315 C 336.94 1.62914 0.911925 0
M  V30 3316 C 337.291 0.514795 1.89326 0
M  V30 3317 O 336.416 -0.354395 2.13478 0
M  V30 3318 C 337.011 2.95304 1.66076 0
M  V30 3319 C 335.57 3.06496 2.18489 0
M  V30 3320 C 334.717 2.58403 1.00613 0
M  V30 3321 H 337.668 1.58285 0.114649 0
M  V30 3322 H 337.689 2.84727 2.5241 0
M  V30 3323 H 337.201 3.76387 0.946276 0
M  V30 3324 H 335.302 2.3006 2.93092 0
M  V30 3325 H 335.415 4.1208 2.44391 0
M  V30 3326 H 333.779 2.13977 1.38152 0
M  V30 3327 H 334.562 3.41932 0.306179 0
M  V30 3328 N 337.007 -0.598083 1.45811 0
M  V30 3329 C 338.423 -0.919847 1.30426 0
M  V30 3330 C 338.623 -1.99759 0.264303 0
M  V30 3331 O 337.679 -2.50221 -0.338472 0
M  V30 3332 C 338.992 -1.35176 2.68603 0
M  V30 3333 C 340.54 -1.46546 2.76574 0
M  V30 3334 C 341.015 -1.9311 4.15298 0
M  V30 3335 N 342.506 -2.00328 4.1764 0
M  V30 3336 C 343.241 -2.37599 5.21856 0
M  V30 3337 N 342.737 -2.73771 6.36413 0
M  V30 3338 N 344.53 -2.38021 5.09218 0
M  V30 3339 H 336.681 0.114111 2.12093 0
M  V30 3340 H 338.944 -0.0116121 0.947929 0
M  V30 3341 H 338.65 -0.633969 3.45939 0
M  V30 3342 H 338.524 -2.3164 2.97696 0
M  V30 3343 H 340.911 -2.17415 1.99537 0
M  V30 3344 H 340.992 -0.483727 2.51185 0
M  V30 3345 H 340.636 -1.22824 4.92825 0
M  V30 3346 H 340.566 -2.92213 4.38086 0
M  V30 3347 H 343.057 -1.74925 3.34977 0
M  V30 3348 H 343.37 -3.0112 7.11721 0
M  V30 3349 H 341.715 -2.71445 6.39799 0
M  V30 3350 H 344.906 -2.09174 4.18765 0
M  V30 3351 H 345.079 -2.66741 5.90554 0
M  V30 3352 N 338.485 -1.33259 -0.841409 0
M  V30 3353 C 339.762 -1.15174 -1.58096 0
M  V30 3354 C 340.142 0.282858 -2.09196 0
M  V30 3355 O 339.49 1.28151 -1.89181 0
M  V30 3356 C 339.7 -2.1907 -2.71679 0
M  V30 3357 C 341.048 -2.53093 -3.40924 0
M  V30 3358 O 342.072 -2.17717 -2.81918 0
M  V30 3359 O 340.931 -3.1379 -4.47435 0
M  V30 3360 H 338.025 -0.445303 -0.696875 0
M  V30 3361 H 340.571 -1.44833 -0.884385 0
M  V30 3362 H 339.343 -3.15443 -2.31541 0
M  V30 3363 H 338.966 -1.90481 -3.49002 0
M  V30 3364 N 339.963 1.05934 -1.16686 0
M  V30 3365 C 341.211 1.78447 -0.948744 0
M  V30 3366 C 341.532 1.87813 0.524523 0
M  V30 3367 O 340.802 1.38945 1.38098 0
M  V30 3368 H 339.382 0.660971 -0.348033 0
M  V30 3369 H 342.044 1.27947 -1.47022 0
M  V30 3370 H 341.14 2.80394 -1.37061 0
M  V30 3371 N 341.441 0.965919 1.2453 0
M  V30 3372 C 342.69 0.622437 1.91856 0
M  V30 3373 C 343.003 -0.846006 1.76358 0
M  V30 3374 O 344.209 -1.29993 2.38357 0
M  V30 3375 C 342.665 1.0626 3.43856 0
M  V30 3376 C 342.273 2.55437 3.68043 0
M  V30 3377 C 344.017 0.792183 4.17043 0
M  V30 3378 C 341.924 2.93196 5.13605 0
M  V30 3379 H 340.854 0.229092 0.718354 0
M  V30 3380 H 343.505 1.17189 1.41206 0
M  V30 3381 H 341.887 0.441476 3.93531 0
M  V30 3382 H 343.061 3.22665 3.28974 0
M  V30 3383 H 341.376 2.8007 3.08139 0
M  V30 3384 H 343.973 1.05031 5.24283 0
M  V30 3385 H 344.316 -0.271584 4.15413 0
M  V30 3386 H 344.849 1.37419 3.73311 0
M  V30 3387 H 341.588 3.98636 5.20355 0
M  V30 3388 H 341.108 2.30651 5.53679 0
M  V30 3389 H 342.787 2.83004 5.81823 0
M  V30 3390 N 342.919 -1.39368 0.735821 0
M  V30 3391 C 344.196 -1.94465 0.210395 0
M  V30 3392 C 344.576 -1.67254 -1.28799 0
M  V30 3393 O 343.924 -1.00123 -2.05396 0
M  V30 3394 C 344.134 -3.4472 0.544897 0
M  V30 3395 C 345.482 -4.21708 0.494689 0
M  V30 3396 O 346.506 -3.52922 0.482136 0
M  V30 3397 O 345.365 -5.44299 0.489947 0
M  V30 3398 H 342.459 -0.826096 0.0386666 0
M  V30 3399 H 345.005 -1.48863 0.814735 0
M  V30 3400 H 343.777 -3.57963 1.58045 0
M  V30 3401 H 343.4 -3.97502 -0.08837 0
M  V30 3402 N 344.397 -0.483516 -1.5 0
M  V30 3403 C 345.643 0.0672592 -2.02688 0
M  V30 3404 C 345.976 1.38247 -1.36387 0
M  V30 3405 O 345.251 1.88131 -0.493675 0
M  V30 3406 C 345.534 0.238109 -3.59312 0
M  V30 3407 C 345.387 -1.099 -4.36168 0
M  V30 3408 C 346.706 0.986916 -4.28892 0
M  V30 3409 H 343.825 0.0229696 -0.736642 0
M  V30 3410 H 346.467 -0.631527 -1.79197 0
M  V30 3411 H 344.617 0.8333 -3.79458 0
M  V30 3412 H 346.289 -1.73172 -4.27562 0
M  V30 3413 H 344.532 -1.69261 -3.99416 0
M  V30 3414 H 345.203 -0.932954 -5.44059 0
M  V30 3415 H 347.679 0.482302 -4.13295 0
M  V30 3416 H 346.555 1.07527 -5.38265 0
M  V30 3417 H 346.816 2.0265 -3.92919 0
M  V30 3418 N 345.875 1.56104 -0.216619 0
M  V30 3419 C 346.805 2.23063 0.690296 0
M  V30 3420 C 347.786 1.20072 1.20485 0
M  V30 3421 O 348.971 1.48643 1.24976 0
M  V30 3422 C 346.101 2.90672 1.90072 0
M  V30 3423 C 345.055 4.00092 1.5202 0
M  V30 3424 C 344.381 4.54972 2.80899 0
M  V30 3425 C 345.681 5.17398 0.71391 0
M  V30 3426 H 347.375 2.99109 0.132038 0
M  V30 3427 H 344.921 1.43866 0.0620664 0
M  V30 3428 H 346.874 3.36204 2.54057 0
M  V30 3429 H 345.598 2.12066 2.48386 0
M  V30 3430 H 344.257 3.55283 0.903839 0
M  V30 3431 H 343.905 3.73102 3.37348 0
M  V30 3432 H 343.605 5.28817 2.56176 0
M  V30 3433 H 345.129 5.0322 3.45836 0
M  V30 3434 H 346.543 5.59342 1.25735 0
M  V30 3435 H 344.94 5.97444 0.563951 0
M  V30 3436 H 346.01 4.84088 -0.280527 0
M  V30 3437 N 347.353 -0.0568162 1.57498 0
M  V30 3438 C 348.578 -0.769402 1.92601 0
M  V30 3439 C 349.003 -1.69559 0.814336 0
M  V30 3440 O 348.361 -1.79811 -0.231903 0
M  V30 3441 C 348.409 -1.52634 3.26704 0
M  V30 3442 O 347.513 -2.63797 3.16994 0
M  V30 3443 H 346.854 -0.208909 0.63028 0
M  V30 3444 H 349.384 -0.0205798 2.0459 0
M  V30 3445 H 349.394 -1.90234 3.60936 0
M  V30 3446 H 348.069 -0.846875 4.07186 0
M  V30 3447 H 346.646 -2.28943 2.94346 0
M  V30 3448 N 348.832 -1.54138 -0.328536 0
M  V30 3449 C 349.779 -1.83176 -1.40411 0
M  V30 3450 C 350.749 -0.678494 -1.5161 0
M  V30 3451 O 351.934 -0.92443 -1.6691 0
M  V30 3452 C 349.074 -2.06035 -2.76846 0
M  V30 3453 C 348.187 -3.33727 -2.74318 0
M  V30 3454 C 347.322 -3.46574 -4.02567 0
M  V30 3455 C 346.361 -4.68159 -3.94327 0
M  V30 3456 N 345.498 -4.77959 -5.14296 0
M  V30 3457 H 350.338 -2.74938 -1.14948 0
M  V30 3458 H 347.875 -1.36166 -0.556538 0
M  V30 3459 H 349.833 -2.1728 -3.56153 0
M  V30 3460 H 348.463 -1.1757 -3.00628 0
M  V30 3461 H 347.515 -3.31246 -1.8703 0
M  V30 3462 H 348.827 -4.23139 -2.64111 0
M  V30 3463 H 347.981 -3.57333 -4.90304 0
M  V30 3464 H 346.72 -2.55245 -4.15574 0
M  V30 3465 H 345.725 -4.57461 -3.04974 0
M  V30 3466 H 346.95 -5.60868 -3.82889 0
M  V30 3467 H 344.896 -3.89544 -5.27818 0
M  V30 3468 H 344.813 -5.6133 -5.06404 0
M  V30 3469 H 346.081 -4.93044 -6.03761 0
M  V30 3470 N 350.31 0.590341 -1.46126 0
M  V30 3471 C 351.556 1.35082 -1.51264 0
M  V30 3472 C 351.889 1.93534 -0.160711 0
M  V30 3473 O 351.164 1.76045 0.826956 0
M  V30 3474 C 351.447 2.48588 -2.6053 0
M  V30 3475 C 351.3 1.95221 -4.05227 0
M  V30 3476 C 352.619 3.50662 -2.6594 0
M  V30 3477 H 349.738 0.489803 -0.550692 0
M  V30 3478 H 352.38 0.663887 -1.78024 0
M  V30 3479 H 350.53 3.07186 -2.37843 0
M  V30 3480 H 352.202 1.41139 -4.39178 0
M  V30 3481 H 350.445 1.26101 -4.15068 0
M  V30 3482 H 351.116 2.77121 -4.77397 0
M  V30 3483 H 353.592 3.01934 -2.86313 0
M  V30 3484 H 352.468 4.27551 -3.44226 0
M  V30 3485 H 352.729 4.07399 -1.71694 0
M  V30 3486 N 351.788 1.33704 0.83433 0
M  V30 3487 C 353.036 1.25169 1.58673 0
M  V30 3488 C 353.357 -0.18127 1.94156 0
M  V30 3489 O 352.627 -1.11113 1.6134 0
M  V30 3490 H 351.207 0.4603 0.58833 0
M  V30 3491 H 353.869 1.67478 0.996847 0
M  V30 3492 H 352.965 1.84856 2.51465 0
M  V30 3493 N 353.266 -1.05314 1.17247 0
M  V30 3494 C 354.514 -1.77941 0.958194 0
M  V30 3495 C 354.835 -1.88089 -0.514556 0
M  V30 3496 O 354.105 -1.39676 -1.37359 0
M  V30 3497 H 352.685 -0.659116 0.351533 0
M  V30 3498 H 355.347 -1.27166 1.47699 0
M  V30 3499 H 354.443 -2.79663 1.38546 0
M  V30 3500 N 354.744 -0.972509 -1.24016 0
M  V30 3501 C 355.991 -0.637034 -1.92219 0
M  V30 3502 C 356.319 0.828418 -1.75976 0
M  V30 3503 O 355.574 1.61206 -1.10955 0
M  V30 3504 C 355.873 -0.963694 -3.44162 0
M  V30 3505 C 355.539 -2.41807 -3.80579 0
M  V30 3506 C 354.201 -2.81556 -3.9023 0
M  V30 3507 C 356.553 -3.36172 -3.98293 0
M  V30 3508 C 353.881 -4.14702 -4.15017 0
M  V30 3509 C 356.233 -4.68952 -4.24578 0
M  V30 3510 C 354.897 -5.08472 -4.32449 0
M  V30 3511 H 354.167 -0.233107 -0.703379 0
M  V30 3512 H 356.814 -1.2249 -1.47202 0
M  V30 3513 H 355.119 -0.29365 -3.90698 0
M  V30 3514 H 356.816 -0.682449 -3.9515 0
M  V30 3515 H 353.406 -2.09988 -3.73635 0
M  V30 3516 H 357.59 -3.06644 -3.90234 0
M  V30 3517 H 352.846 -4.4494 -4.19331 0
M  V30 3518 H 357.02 -5.42037 -4.37229 0
M  V30 3519 H 354.647 -6.11665 -4.51409 0
M  V30 3520 N 356.222 1.38976 -0.743202 0
M  V30 3521 C 357.499 1.94351 -0.220705 0
M  V30 3522 C 357.879 1.67935 1.2791 0
M  V30 3523 O 357.227 1.01211 2.04862 0
M  V30 3524 C 357.437 3.44426 -0.563171 0
M  V30 3525 C 358.785 4.2144 -0.517046 0
M  V30 3526 O 359.809 3.52661 -0.500846 0
M  V30 3527 O 358.668 5.44032 -0.518806 0
M  V30 3528 H 355.762 0.825879 -0.043047 0
M  V30 3529 H 358.308 1.48429 -0.822618 0
M  V30 3530 H 357.08 3.5712 -1.59941 0
M  V30 3531 H 356.703 3.97543 0.0672883 0
M  V30 3532 N 357.7 0.491464 1.49741 0
M  V30 3533 C 358.63 -0.28154 2.31796 0
M  V30 3534 C 359.611 -0.971473 1.3963 0
M  V30 3535 O 360.796 -0.964719 1.68543 0
M  V30 3536 C 357.926 -1.35203 3.19902 0
M  V30 3537 C 356.88 -0.782529 4.20786 0
M  V30 3538 C 356.206 -1.95283 4.97764 0
M  V30 3539 C 357.506 0.21999 5.21837 0
M  V30 3540 H 359.2 0.403355 2.96671 0
M  V30 3541 H 356.746 0.195425 1.42668 0
M  V30 3542 H 358.699 -1.90045 3.76113 0
M  V30 3543 H 357.423 -2.06598 2.52953 0
M  V30 3544 H 356.082 -0.255928 3.65706 0
M  V30 3545 H 355.73 -2.65423 4.2727 0
M  V30 3546 H 355.43 -1.57789 5.66018 0
M  V30 3547 H 356.954 -2.50577 5.56816 0
M  V30 3548 H 358.368 -0.23996 5.72798 0
M  V30 3549 H 356.765 0.51026 5.97927 0
M  V30 3550 H 357.835 1.13911 4.7133 0
M  V30 3551 N 359.178 -1.55987 0.224894 0
M  V30 3552 C 360.424 -1.98684 -0.406502 0
M  V30 3553 C 360.757 -1.11248 -1.59177 0
M  V30 3554 O 360.032 -0.170909 -1.93748 0
M  V30 3555 C 360.315 -3.50218 -0.837808 0
M  V30 3556 C 360.168 -4.48426 0.351332 0
M  V30 3557 C 361.487 -4.06243 -1.69278 0
M  V30 3558 H 358.606 -0.722337 -0.146283 0
M  V30 3559 H 361.248 -1.87255 0.321799 0
M  V30 3560 H 359.398 -3.60089 -1.45837 0
M  V30 3561 H 361.07 -4.50562 0.989526 0
M  V30 3562 H 359.313 -4.22159 0.998207 0
M  V30 3563 H 359.984 -5.52 0.00655905 0
M  V30 3564 H 362.46 -3.99337 -1.16914 0
M  V30 3565 H 361.336 -5.12581 -1.96346 0
M  V30 3566 H 361.597 -3.53332 -2.65723 0
M  V30 3567 N 360.656 0.0484629 -1.57525 0
M  V30 3568 C 361.904 0.741657 -1.88 0
M  V30 3569 C 362.225 1.76918 -0.820054 0
M  V30 3570 O 361.495 1.95335 0.148661 0
M  V30 3571 H 360.075 0.276908 -0.69378 0
M  V30 3572 H 362.737 0.019013 -1.94891 0
M  V30 3573 H 361.833 1.24336 -2.86264 0
M  V30 3574 N 362.134 1.5431 0.320358 0
M  V30 3575 C 363.067 1.78769 1.41834 0
M  V30 3576 C 364.045 0.63783 1.49568 0
M  V30 3577 O 365.229 0.875628 1.66928 0
M  V30 3578 C 362.356 1.90712 2.79905 0
M  V30 3579 C 361.402 3.13023 2.89687 0
M  V30 3580 S 362.235 4.71554 2.53766 0
M  V30 3581 C 363.391 4.86408 3.93902 0
M  V30 3582 H 363.624 2.71619 1.20874 0
M  V30 3583 H 361.157 1.45474 0.517377 0
M  V30 3584 H 363.115 1.98279 3.59438 0
M  V30 3585 H 361.776 0.988343 2.98145 0
M  V30 3586 H 360.969 3.18124 3.90913 0
M  V30 3587 H 360.571 3.03803 2.18128 0
M  V30 3588 H 362.863 4.69241 4.88691 0
M  V30 3589 H 363.806 5.88508 3.93782 0
M  V30 3590 H 364.214 4.14689 3.83005 0
M  V30 3591 N 363.613 -0.582584 1.46437 0
M  V30 3592 C 364.841 -1.36682 1.55324 0
M  V30 3593 C 365.256 -1.87796 0.194409 0
M  V30 3594 O 364.613 -1.63623 -0.808318 0
M  V30 3595 C 364.664 -2.55426 2.55812 0
M  V30 3596 O 364.385 -2.0643 3.86417 0
M  V30 3597 C 365.886 -3.47976 2.74641 0
M  V30 3598 H 363.106 -0.417545 0.525259 0
M  V30 3599 H 365.65 -0.708219 1.91845 0
M  V30 3600 H 363.805 -3.17275 2.22295 0
M  V30 3601 H 364.219 -2.83762 4.41111 0
M  V30 3602 H 365.693 -4.27775 3.48874 0
M  V30 3603 H 366.17 -3.99919 1.81553 0
M  V30 3604 H 366.776 -2.91962 3.09255 0
M  V30 3605 N 365.091 -1.34144 -0.827227 0
M  V30 3606 C 366.339 -1.26009 -1.58007 0
M  V30 3607 C 366.66 0.170971 -1.94249 0
M  V30 3608 O 365.93 1.10256 -1.61927 0
M  V30 3609 H 364.51 -0.463414 -0.585881 0
M  V30 3610 H 367.172 -1.68005 -0.987951 0
M  V30 3611 H 366.268 -1.86187 -2.50481 0
M  V30 3612 N 366.569 1.04691 -1.17803 0
M  V30 3613 C 367.815 1.78045 -0.970969 0
M  V30 3614 C 368.148 1.87686 0.498751 0
M  V30 3615 O 367.423 1.38035 1.37027 0
M  V30 3616 C 367.706 3.2166 -1.61884 0
M  V30 3617 C 367.559 3.20001 -3.161 0
M  V30 3618 C 368.878 4.1962 -1.3269 0
M  V30 3619 H 365.997 0.64633 -0.354155 0
M  V30 3620 H 368.639 1.22333 -1.45378 0
M  V30 3621 H 366.789 3.69232 -1.20831 0
M  V30 3622 H 368.461 2.80467 -3.66246 0
M  V30 3623 H 366.704 2.58203 -3.48588 0
M  V30 3624 H 367.375 4.21386 -3.56564 0
M  V30 3625 H 369.851 3.80567 -1.68249 0
M  V30 3626 H 368.727 5.18339 -1.80599 0
M  V30 3627 H 368.988 4.414 -0.248622 0
M  V30 3628 N 368.047 0.979072 1.23499 0
M  V30 3629 C 368.98 0.463027 2.23453 0
M  V30 3630 C 369.958 -0.469128 1.55685 0
M  V30 3631 O 371.142 -0.397882 1.84253 0
M  V30 3632 C 368.269 -0.330308 3.37086 0
M  V30 3633 C 367.315 0.545795 4.22993 0
M  V30 3634 S 368.148 1.99285 4.97037 0
M  V30 3635 C 369.304 1.20862 6.1412 0
M  V30 3636 H 369.537 1.31005 2.6688 0
M  V30 3637 H 367.07 0.784965 1.32957 0
M  V30 3638 H 369.028 -0.782027 4.02982 0
M  V30 3639 H 367.689 -1.15244 2.92194 0
M  V30 3640 H 366.882 -0.0638928 5.03959 0
M  V30 3641 H 366.484 0.933705 3.62157 0
M  V30 3642 H 368.776 0.469284 6.75873 0
M  V30 3643 H 369.719 1.99307 6.79472 0
M  V30 3644 H 370.127 0.727992 5.59786 0
M  V30 3645 N 369.525 -1.3858 0.750561 0
M  V30 3646 C 370.455 -2.33102 0.136237 0
M  V30 3647 C 371.436 -1.54713 -0.706965 0
M  V30 3648 O 372.621 -1.83043 -0.648769 0
M  V30 3649 C 369.751 -3.38882 -0.760017 0
M  V30 3650 C 368.705 -4.27995 -0.0197785 0
M  V30 3651 C 368.031 -5.24605 -1.03408 0
M  V30 3652 C 369.331 -5.09554 1.14684 0
M  V30 3653 H 371.025 -2.84726 0.925822 0
M  V30 3654 H 368.571 -1.36898 0.446654 0
M  V30 3655 H 370.524 -4.0397 -1.19943 0
M  V30 3656 H 369.248 -2.85734 -1.58189 0
M  V30 3657 H 367.907 -3.64409 0.400184 0
M  V30 3658 H 367.555 -4.67746 -1.84994 0
M  V30 3659 H 367.255 -5.85081 -0.543464 0
M  V30 3660 H 368.779 -5.9257 -1.47288 0
M  V30 3661 H 370.193 -5.67899 0.785118 0
M  V30 3662 H 368.59 -5.7925 1.56812 0
M  V30 3663 H 369.66 -4.4347 1.96118 0
M  V30 3664 N 371.003 -0.499398 -1.49478 0
M  V30 3665 C 372.251 0.0455996 -2.02049 0
M  V30 3666 C 372.572 1.37633 -1.38138 0
M  V30 3667 O 371.842 1.8842 -0.536166 0
M  V30 3668 H 370.422 0.0198416 -0.746736 0
M  V30 3669 H 373.084 -0.656274 -1.83519 0
M  V30 3670 H 372.18 0.176445 -3.11601 0
M  V30 3671 N 372.481 1.55866 -0.233164 0
M  V30 3672 C 373.444 2.1953 0.658715 0
M  V30 3673 C 374.444 1.16053 1.11303 0
M  V30 3674 O 375.634 1.41218 1.01996 0
M  V30 3675 C 372.766 2.82791 1.90373 0
M  V30 3676 H 373.959 2.99721 0.10347 0
M  V30 3677 H 371.512 1.56291 0.0164245 0
M  V30 3678 H 372.247 2.06501 2.50056 0
M  V30 3679 H 372.032 3.58578 1.58632 0
M  V30 3680 H 373.522 3.31556 2.53891 0
M  V30 3681 N 373.959 -0.0401083 1.57549 0
M  V30 3682 C 374.922 -1.02871 2.04817 0
M  V30 3683 C 375.922 -1.29708 0.950388 0
M  V30 3684 O 377.112 -1.24897 1.21435 0
M  V30 3685 C 374.244 -2.36443 2.45576 0
M  V30 3686 H 375.437 -0.620631 2.93408 0
M  V30 3687 H 372.99 -0.286667 1.53649 0
M  V30 3688 H 373.725 -2.82021 1.60108 0
M  V30 3689 H 373.51 -2.18296 3.25713 0
M  V30 3690 H 375 -3.07441 2.82612 0
M  V30 3691 N 375.437 -1.54477 -0.31217 0
M  V30 3692 C 376.853 -1.45442 -0.657185 0
M  V30 3693 C 377.053 -0.63653 -1.91182 0
M  V30 3694 O 376.109 -0.139815 -2.52113 0
M  V30 3695 C 377.422 -2.89287 -0.82058 0
M  V30 3696 C 378.97 -2.9926 -0.917188 0
M  V30 3697 C 379.445 -4.44279 -1.11267 0
M  V30 3698 N 380.936 -4.4794 -1.17914 0
M  V30 3699 C 381.671 -5.57318 -1.34848 0
M  V30 3700 N 381.167 -6.76642 -1.48752 0
M  V30 3701 N 382.96 -5.44986 -1.37647 0
M  V30 3702 H 375.111 -2.06129 0.512313 0
M  V30 3703 H 377.374 -0.933088 0.167485 0
M  V30 3704 H 377.08 -3.51687 0.0302604 0
M  V30 3705 H 376.954 -3.36061 -1.71298 0
M  V30 3706 H 379.341 -2.36981 -1.75852 0
M  V30 3707 H 379.422 -2.558 -0.00101257 0
M  V30 3708 H 379.066 -5.07149 -0.27614 0
M  V30 3709 H 378.996 -4.85359 -2.04289 0
M  V30 3710 H 381.487 -3.61969 -1.08567 0
M  V30 3711 H 381.8 -7.55758 -1.61397 0
M  V30 3712 H 380.145 -6.79529 -1.45828 0
M  V30 3713 H 383.336 -4.50715 -1.26388 0
M  V30 3714 H 383.509 -6.3028 -1.50501 0
M  V30 3715 N 376.915 0.57481 -1.46744 0
M  V30 3716 C 378.155 1.34369 -1.54027 0
M  V30 3717 C 378.519 1.91051 -0.190642 0
M  V30 3718 O 379.72 2.68444 -0.138255 0
M  V30 3719 C 377.991 2.43706 -2.61423 0
M  V30 3720 S 379.55 3.30915 -2.88167 0
M  V30 3721 H 376.368 0.45768 -0.544105 0
M  V30 3722 H 378.97 0.659959 -1.84024 0
M  V30 3723 H 377.674 2.0047 -3.58106 0
M  V30 3724 H 377.205 3.16842 -2.33184 0
M  V30 3725 H 379.22 4.42742 -2.24039 0
M  V30 3726 N 378.394 1.34581 0.820102 0
M  V30 3727 C 379.642 1.26845 1.57336 0
M  V30 3728 C 379.963 -0.160667 1.94337 0
M  V30 3729 O 379.233 -1.09396 1.6251 0
M  V30 3730 H 377.813 0.466514 0.583415 0
M  V30 3731 H 380.475 1.68526 0.979027 0
M  V30 3732 H 379.571 1.87513 2.4949 0
M  V30 3733 N 379.872 -1.04064 1.18357 0
M  V30 3734 C 380.802 -2.14001 0.934113 0
M  V30 3735 C 381.783 -1.69616 -0.128186 0
M  V30 3736 O 382.968 -1.94185 0.0244093 0
M  V30 3737 C 380.098 -3.44253 0.459066 0
M  V30 3738 C 379.052 -4.02261 1.46185 0
M  V30 3739 C 378.378 -5.27992 0.844322 0
M  V30 3740 C 379.678 -4.38432 2.83856 0
M  V30 3741 H 381.372 -2.35127 1.85352 0
M  V30 3742 H 378.918 -1.12998 0.892604 0
M  V30 3743 H 380.871 -4.20522 0.271907 0
M  V30 3744 H 379.595 -3.22813 -0.495912 0
M  V30 3745 H 378.254 -3.28074 1.63595 0
M  V30 3746 H 377.902 -5.02862 -0.117845 0
M  V30 3747 H 377.602 -5.67765 1.51384 0
M  V30 3748 H 379.126 -6.06938 0.667693 0
M  V30 3749 H 380.54 -5.05688 2.70098 0
M  V30 3750 H 378.937 -4.89254 3.47491 0
M  V30 3751 H 380.007 -3.4826 3.37406 0
M  V30 3752 N 381.35 -0.985608 -1.22978 0
M  V30 3753 C 382.761 -0.693593 -1.73338 0
M  V30 3754 C 383.112 0.789935 -1.79595 0
M  V30 3755 O 382.237 1.61771 -1.43733 0
M  V30 3756 C 382.832 -1.25235 -3.14804 0
M  V30 3757 C 381.391 -1.00987 -3.626 0
M  V30 3758 C 380.538 -1.37695 -2.40698 0
M  V30 3759 H 383.489 -1.15884 -1.08428 0
M  V30 3760 H 383.51 -0.627329 -3.75293 0
M  V30 3761 H 383.022 -2.33209 -3.10218 0
M  V30 3762 H 381.123 0.0535565 -3.72562 0
M  V30 3763 H 381.236 -1.66812 -4.49122 0
M  V30 3764 H 379.6 -0.795459 -2.4196 0
M  V30 3765 H 380.383 -2.46657 -2.38779 0
M  V30 3766 N 382.828 1.3818 -0.7579 0
M  V30 3767 C 384.074 2.00316 -0.316453 0
M  V30 3768 C 384.407 1.60026 1.10025 0
M  V30 3769 O 383.682 0.839835 1.75434 0
M  V30 3770 C 383.965 3.57349 -0.444245 0
M  V30 3771 C 383.818 4.07591 -1.90236 0
M  V30 3772 C 385.137 4.3981 0.1598 0
M  V30 3773 H 382.256 0.727741 -0.116459 0
M  V30 3774 H 384.898 1.6406 -0.958352 0
M  V30 3775 H 383.048 3.88365 0.102233 0
M  V30 3776 H 384.72 3.87199 -2.50748 0
M  V30 3777 H 382.963 3.60297 -2.41595 0
M  V30 3778 H 383.634 5.16677 -1.94291 0
M  V30 3779 H 386.11 4.14971 -0.306314 0
M  V30 3780 H 384.986 5.48885 0.0401675 0
M  V30 3781 H 385.247 4.24102 1.24859 0
M  V30 3782 N 384.306 0.507319 1.49211 0
M  V30 3783 C 385.236 -0.256939 2.32082 0
M  V30 3784 C 386.217 -0.956609 1.40652 0
M  V30 3785 O 387.402 -0.946788 1.69557 0
M  V30 3786 C 384.532 -1.31802 3.21318 0
M  V30 3787 C 383.486 -0.737855 4.21592 0
M  V30 3788 C 382.812 -1.89992 4.99807 0
M  V30 3789 C 384.112 0.275325 5.21574 0
M  V30 3790 H 385.806 0.434798 2.96226 0
M  V30 3791 H 383.352 0.210546 1.42452 0
M  V30 3792 H 385.305 -1.86045 3.78107 0
M  V30 3793 H 384.029 -2.03903 2.5513 0
M  V30 3794 H 382.688 -0.217126 3.65956 0
M  V30 3795 H 382.336 -2.60877 4.30061 0
M  V30 3796 H 382.036 -1.51777 5.6766 0
M  V30 3797 H 383.56 -2.44657 5.59442 0
M  V30 3798 H 384.974 -0.179193 5.7302 0
M  V30 3799 H 383.371 0.573649 5.97352 0
M  V30 3800 H 384.441 1.18903 4.70096 0
M  V30 3801 N 385.784 -1.5574 0.241426 0
M  V30 3802 C 386.714 -2.24133 -0.654722 0
M  V30 3803 C 387.695 -1.21974 -1.1856 0
M  V30 3804 O 388.88 -1.50612 -1.22595 0
M  V30 3805 C 386.01 -2.93659 -1.85423 0
M  V30 3806 C 384.964 -4.0246 -1.45636 0
M  V30 3807 C 384.29 -4.59383 -2.73626 0
M  V30 3808 C 385.59 -5.18468 -0.631506 0
M  V30 3809 H 387.284 -2.99281 -0.0844353 0
M  V30 3810 H 384.83 -1.43947 -0.0391707 0
M  V30 3811 H 386.783 -3.40203 -2.48676 0
M  V30 3812 H 385.507 -2.15991 -2.44981 0
M  V30 3813 H 384.166 -3.56676 -0.847202 0
M  V30 3814 H 383.814 -3.78422 -3.3137 0
M  V30 3815 H 383.514 -5.32826 -2.4773 0
M  V30 3816 H 385.038 -5.08658 -3.37786 0
M  V30 3817 H 386.452 -5.61272 -1.1682 0
M  V30 3818 H 384.849 -5.98266 -0.468831 0
M  V30 3819 H 385.919 -4.8358 0.357506 0
M  V30 3820 N 387.262 0.0317525 -1.57568 0
M  V30 3821 C 388.539 0.758366 -1.803 0
M  V30 3822 C 388.919 1.93718 -0.838845 0
M  V30 3823 O 388.267 2.28187 0.119571 0
M  V30 3824 C 388.477 1.19392 -3.27943 0
M  V30 3825 C 389.825 1.61094 -3.92854 0
M  V30 3826 O 390.849 1.28857 -3.32076 0
M  V30 3827 O 389.708 2.20918 -4.99858 0
M  V30 3828 H 386.802 0.366514 -0.741348 0
M  V30 3829 H 389.348 0.00873765 -1.69698 0
M  V30 3830 H 388.12 0.352275 -3.89711 0
M  V30 3831 H 387.743 2.00365 -3.43424 0
M  V30 3832 N 388.74 1.54641 0.303973 0
M  V30 3833 C 389.988 1.73437 1.0375 0
M  V30 3834 C 390.309 0.521449 1.87899 0
M  V30 3835 O 389.579 -0.46432 1.90318 0
M  V30 3836 H 388.159 0.639518 0.386039 0
M  V30 3837 H 390.821 1.91988 0.335675 0
M  V30 3838 H 389.917 2.62235 1.69231 0
M  V30 3839 N 390.218 -0.567019 1.47046 0
M  V30 3840 C 391.465 -1.32462 1.53167 0
M  V30 3841 C 391.793 -1.93571 0.189841 0
M  V30 3842 O 391.048 -1.77865 -0.816243 0
M  V30 3843 C 391.347 -2.4623 2.59047 0
M  V30 3844 C 391.013 -2.03014 4.02612 0
M  V30 3845 C 389.675 -1.90944 4.41694 0
M  V30 3846 C 392.027 -1.69895 4.92732 0
M  V30 3847 C 389.355 -1.44035 5.68745 0
M  V30 3848 C 391.707 -1.2446 6.20236 0
M  V30 3849 C 390.371 -1.10979 6.5821 0
M  V30 3850 H 389.641 -0.484713 0.560477 0
M  V30 3851 H 392.288 -0.636888 1.80599 0
M  V30 3852 H 390.593 -3.20517 2.25335 0
M  V30 3853 H 392.29 -3.04427 2.61008 0
M  V30 3854 H 388.88 -2.13348 3.71726 0
M  V30 3855 H 393.064 -1.78098 4.63244 0
M  V30 3856 H 388.32 -1.32254 5.96925 0
M  V30 3857 H 392.494 -0.978924 6.89485 0
M  V30 3858 H 390.121 -0.744078 7.5655 0
M  V30 3859 N 391.696 -1.35014 -0.812953 0
M  V30 3860 C 392.626 -1.30069 -1.93919 0
M  V30 3861 C 393.607 -0.176275 -1.69184 0
M  V30 3862 O 394.792 -0.370227 -1.90638 0
M  V30 3863 C 391.922 -1.06547 -3.30552 0
M  V30 3864 C 390.876 -2.15561 -3.69753 0
M  V30 3865 C 390.202 -1.77214 -5.04479 0
M  V30 3866 C 391.502 -3.57476 -3.808 0
M  V30 3867 H 393.196 -2.24303 -1.98314 0
M  V30 3868 H 390.742 -1.07977 -0.952736 0
M  V30 3869 H 392.695 -1.01729 -4.08937 0
M  V30 3870 H 391.419 -0.0875719 -3.26483 0
M  V30 3871 H 390.078 -2.19466 -2.9365 0
M  V30 3872 H 389.726 -0.780589 -4.96906 0
M  V30 3873 H 389.426 -2.50184 -5.31678 0
M  V30 3874 H 390.95 -1.7391 -5.8531 0
M  V30 3875 H 392.364 -3.55929 -4.4943 0
M  V30 3876 H 390.761 -4.29152 -4.19462 0
M  V30 3877 H 391.831 -3.94091 -2.82525 0
M  V30 3878 N 393.175 1.03435 -1.18907 0
M  V30 3879 C 394.4 1.80919 -1.01406 0
M  V30 3880 C 394.825 1.83055 0.432721 0
M  V30 3881 O 394.183 1.25252 1.31079 0
M  V30 3882 C 394.231 3.24091 -1.58105 0
M  V30 3883 O 393.335 4.04434 -0.806669 0
M  V30 3884 H 392.676 0.558709 -0.358803 0
M  V30 3885 H 395.206 1.30223 -1.57807 0
M  V30 3886 H 395.216 3.74853 -1.61087 0
M  V30 3887 H 393.891 3.21851 -2.6341 0
M  V30 3888 H 392.468 3.63091 -0.849666 0
M  V30 3889 N 394.653 0.992116 1.22453 0
M  V30 3890 C 395.883 0.684949 1.94915 0
M  V30 3891 C 396.291 -0.754292 1.73514 0
M  V30 3892 O 395.634 -1.52056 1.03076 0
M  V30 3893 C 395.696 0.910054 3.47791 0
M  V30 3894 C 395.36 2.33363 3.92926 0
M  V30 3895 C 396.357 3.31308 4.00663 0
M  V30 3896 C 394.042 2.66785 4.25595 0
M  V30 3897 C 396.036 4.6075 4.40441 0
M  V30 3898 C 393.723 3.96446 4.65053 0
M  V30 3899 C 394.721 4.9324 4.72444 0
M  V30 3900 O 394.409 6.20584 5.1101 0
M  V30 3901 H 394.141 0.25258 0.62704 0
M  V30 3902 H 396.695 1.32939 1.56577 0
M  V30 3903 H 394.925 0.208443 3.86138 0
M  V30 3904 H 396.614 0.598257 4.01467 0
M  V30 3905 H 397.38 3.0682 3.75615 0
M  V30 3906 H 393.259 1.92148 4.19047 0
M  V30 3907 H 396.803 5.363 4.46126 0
M  V30 3908 H 392.7 4.20724 4.89552 0
M  V30 3909 H 393.468 6.24509 5.29085 0
M  V30 3910 N 396.131 -1.37776 0.765217 0
M  V30 3911 C 397.356 -2.04651 0.336537 0
M  V30 3912 C 397.781 -1.57337 -1.03086 0
M  V30 3913 O 397.139 -0.730621 -1.65927 0
M  V30 3914 C 397.187 -3.58577 0.381468 0
M  V30 3915 O 396.291 -4.07706 -0.62042 0
M  V30 3916 H 395.632 -0.64756 0.146838 0
M  V30 3917 H 398.162 -1.76221 1.03959 0
M  V30 3918 H 398.172 -4.07314 0.236448 0
M  V30 3919 H 396.847 -3.9237 1.37907 0
M  V30 3920 H 395.424 -3.70306 -0.439056 0
M  V30 3921 N 397.609 -0.515225 -1.4894 0
M  V30 3922 C 398.572 0.244681 -2.2789 0
M  V30 3923 C 399.572 0.881166 -1.34507 0
M  V30 3924 O 400.762 0.743497 -1.57537 0
M  V30 3925 C 397.894 1.35247 -3.12923 0
M  V30 3926 H 399.087 -0.448289 -2.96531 0
M  V30 3927 H 396.64 -0.270656 -1.53939 0
M  V30 3928 H 397.375 2.07916 -2.48881 0
M  V30 3929 H 397.16 0.901374 -3.81599 0
M  V30 3930 H 398.65 1.88737 -3.72516 0
M  V30 3931 N 399.087 1.5561 -0.249682 0
M  V30 3932 C 400.05 2.20217 0.635394 0
M  V30 3933 C 401.05 1.17227 1.10066 0
M  V30 3934 O 402.24 1.42292 1.00492 0
M  V30 3935 C 399.372 2.84794 1.87363 0
M  V30 3936 H 400.565 2.99814 0.0716752 0
M  V30 3937 H 398.118 1.563 -0.000153234 0
M  V30 3938 H 398.853 2.09142 2.47851 0
M  V30 3939 H 398.638 3.60241 1.5482 0
M  V30 3940 H 400.128 3.3423 2.5036 0
M  V30 3941 N 400.565 -0.0233959 1.57583 0
M  V30 3942 C 401.495 -1.02162 2.09965 0
M  V30 3943 C 402.476 -1.3735 1.00344 0
M  V30 3944 O 403.661 -1.46135 1.27899 0
M  V30 3945 C 400.791 -2.32081 2.58371 0
M  V30 3946 C 399.745 -2.1112 3.72307 0
M  V30 3947 C 399.071 -3.46848 4.06941 0
M  V30 3948 C 400.371 -1.49276 5.00514 0
M  V30 3949 H 402.065 -0.585557 2.93618 0
M  V30 3950 H 399.611 -0.280218 1.41247 0
M  V30 3951 H 401.564 -3.02249 2.93639 0
M  V30 3952 H 400.288 -2.77758 1.71808 0
M  V30 3953 H 398.947 -1.43384 3.37397 0
M  V30 3954 H 398.595 -3.90184 3.17436 0
M  V30 3955 H 398.295 -3.33646 4.83688 0
M  V30 3956 H 399.819 -4.18369 4.44747 0
M  V30 3957 H 401.233 -2.09368 5.33702 0
M  V30 3958 H 399.63 -1.46632 5.8191 0
M  V30 3959 H 400.7 -0.459217 4.82721 0
M  V30 3960 N 402.043 -1.548 -0.295768 0
M  V30 3961 C 403.006 -1.85363 -1.34808 0
M  V30 3962 C 404.006 -0.726817 -1.43436 0
M  V30 3963 O 405.196 -0.995088 -1.42981 0
M  V30 3964 C 402.328 -2.03859 -2.73229 0
M  V30 3965 H 403.521 -2.7941 -1.08949 0
M  V30 3966 H 401.074 -1.46942 -0.532702 0
M  V30 3967 H 401.809 -1.12117 -3.04303 0
M  V30 3968 H 401.594 -2.8588 -2.68356 0
M  V30 3969 H 403.084 -2.28857 -3.49305 0
M  V30 3970 N 403.521 0.559213 -1.47345 0
M  V30 3971 C 404.484 1.64854 -1.59235 0
M  V30 3972 C 405.484 1.53851 -0.467607 0
M  V30 3973 O 406.674 1.58045 -0.732617 0
M  V30 3974 C 403.806 3.04388 -1.53496 0
M  V30 3975 H 404.999 1.55662 -2.56339 0
M  V30 3976 H 402.552 0.778973 -1.35505 0
M  V30 3977 H 403.287 3.19115 -0.577604 0
M  V30 3978 H 403.072 3.13783 -2.35123 0
M  V30 3979 H 404.562 3.83642 -1.6495 0
M  V30 3980 N 404.999 1.35443 0.805782 0
M  V30 3981 C 406.239 1.30127 1.57627 0
M  V30 3982 C 406.603 -0.122567 1.91608 0
M  V30 3983 O 407.804 -0.300107 2.67119 0
M  V30 3984 C 406.075 2.18314 2.82973 0
M  V30 3985 S 407.634 2.30521 3.7337 0
M  V30 3986 H 404.452 0.462439 0.540066 0
M  V30 3987 H 407.054 1.70843 0.95042 0
M  V30 3988 H 405.758 3.20741 2.56034 0
M  V30 3989 H 405.289 1.78558 3.50543 0
M  V30 3990 H 407.304 1.49062 4.73281 0
M  V30 3991 N 406.477 -1.02803 1.19454 0
M  V30 3992 C 407.409 -2.11181 0.890807 0
M  V30 3993 C 408.422 -1.6238 -0.116829 0
M  V30 3994 O 409.611 -1.78144 0.112694 0
M  V30 3995 C 406.711 -3.37461 0.311942 0
M  V30 3996 C 405.884 -4.15446 1.36834 0
M  V30 3997 C 404.943 -5.20039 0.802864 0
M  V30 3998 O 403.969 -5.49602 1.48077 0
M  V30 3999 N 405.171 -5.79165 -0.393417 0
M  V30 4000 H 407.936 -2.37827 1.82369 0
M  V30 4001 H 405.497 -1.19101 1.09666 0
M  V30 4002 H 407.489 -4.0462 -0.0802225 0
M  V30 4003 H 406.059 -3.08156 -0.52524 0
M  V30 4004 H 405.279 -3.43423 1.93531 0
M  V30 4005 H 406.567 -4.64335 2.08015 0
M  V30 4006 H 405.965 -5.57466 -0.961658 0
M  V30 4007 H 404.522 -6.47729 -0.727351 0
M  V30 4008 N 407.956 -0.998596 -1.21925 0
M  V30 4009 C 409.205 -0.673085 -1.90138 0
M  V30 4010 C 409.518 0.79895 -1.78539 0
M  V30 4011 O 410.724 1.23628 -2.4172 0
M  V30 4012 C 409.18 -1.15339 -3.40918 0
M  V30 4013 C 408.788 -2.65106 -3.61141 0
M  V30 4014 C 410.532 -0.902476 -4.14796 0
M  V30 4015 C 408.439 -3.0671 -5.05651 0
M  V30 4016 H 407.369 -0.248057 -0.712028 0
M  V30 4017 H 410.02 -1.20891 -1.38049 0
M  V30 4018 H 408.402 -0.545658 -3.92223 0
M  V30 4019 H 409.576 -3.31274 -3.20304 0
M  V30 4020 H 407.891 -2.88142 -3.00605 0
M  V30 4021 H 410.488 -1.18895 -5.21314 0
M  V30 4022 H 410.831 0.161349 -4.15987 0
M  V30 4023 H 411.364 -1.47269 -3.69536 0
M  V30 4024 H 408.103 -4.12292 -5.09603 0
M  V30 4025 H 407.623 -2.45249 -5.47369 0
M  V30 4026 H 409.302 -2.9833 -5.74115 0
M  V30 4027 N 409.434 1.37368 -0.772513 0
M  V30 4028 C 410.397 2.28601 -0.165541 0
M  V30 4029 C 411.397 1.48062 0.627238 0
M  V30 4030 O 412.587 1.68268 0.450715 0
M  V30 4031 C 409.719 3.32023 0.772897 0
M  V30 4032 H 410.912 2.83787 -0.969787 0
M  V30 4033 H 408.465 1.46647 -0.540775 0
M  V30 4034 H 409.2 2.81962 1.60212 0
M  V30 4035 H 408.985 3.91555 0.206585 0
M  V30 4036 H 410.475 4.00197 1.19298 0
M  V30 4037 N 410.912 0.523116 1.48665 0
M  V30 4038 C 412.323 0.0808997 1.86525 0
M  V30 4039 C 412.674 -1.33975 1.43336 0
M  V30 4040 O 411.799 -2.00221 0.821009 0
M  V30 4041 C 412.394 0.140037 3.3851 0
M  V30 4042 C 410.953 -0.246948 3.75589 0
M  V30 4043 C 410.1 0.502845 2.72703 0
M  V30 4044 H 413.051 0.734736 1.40667 0
M  V30 4045 H 413.072 -0.649945 3.74908 0
M  V30 4046 H 412.584 1.17412 3.69914 0
M  V30 4047 H 410.685 -1.28343 3.49798 0
M  V30 4048 H 410.798 0.0878859 4.79019 0
M  V30 4049 H 409.162 -0.0500581 2.54651 0
M  V30 4050 H 409.945 1.53743 3.0695 0
M  V30 4051 N 412.39 -1.55475 0.257931 0
M  V30 4052 C 413.353 -2.20551 -0.623706 0
M  V30 4053 C 414.353 -1.17809 -1.09443 0
M  V30 4054 O 415.543 -1.42823 -0.997362 0
M  V30 4055 C 412.675 -2.85784 -1.8585 0
M  V30 4056 H 413.868 -2.99848 -0.0557743 0
M  V30 4057 H 411.421 -1.56298 0.0084422 0
M  V30 4058 H 412.156 -2.10453 -2.46739 0
M  V30 4059 H 411.941 -3.61057 -1.52907 0
M  V30 4060 H 413.431 -3.35553 -2.48584 0
M  V30 4061 N 413.868 0.0150385 -1.57593 0
M  V30 4062 C 415.114 0.704043 -1.90187 0
M  V30 4063 C 415.447 1.74249 -0.857366 0
M  V30 4064 O 414.722 1.94092 0.125843 0
M  V30 4065 C 415.005 1.36087 -3.33395 0
M  V30 4066 C 414.858 0.334981 -4.48551 0
M  V30 4067 C 416.177 2.29112 -3.7576 0
M  V30 4068 H 413.296 0.254475 -0.691673 0
M  V30 4069 H 415.938 -0.0331678 -1.89971 0
M  V30 4070 H 414.088 1.98922 -3.3371 0
M  V30 4071 H 415.76 -0.292534 -4.60372 0
M  V30 4072 H 414.003 -0.344325 -4.32431 0
M  V30 4073 H 414.674 0.833316 -5.45674 0
M  V30 4074 H 417.15 1.76308 -3.76902 0
M  V30 4075 H 416.026 2.72043 -4.76743 0
M  V30 4076 H 416.287 3.16385 -3.08793 0
M  V30 4077 N 415.346 1.54954 0.287554 0
M  V30 4078 C 416.762 1.46469 0.633964 0
M  V30 4079 C 416.962 0.666865 1.90145 0
M  V30 4080 O 416.018 0.179906 2.51858 0
M  V30 4081 C 417.331 2.90556 0.774454 0
M  V30 4082 C 418.879 3.00681 0.869462 0
M  V30 4083 C 419.354 4.45993 1.04184 0
M  V30 4084 N 420.845 4.4976 1.10772 0
M  V30 4085 C 421.58 5.59393 1.25964 0
M  V30 4086 N 421.076 6.78923 1.37968 0
M  V30 4087 N 422.869 5.47107 1.28959 0
M  V30 4088 H 415.02 2.05288 -0.545041 0
M  V30 4089 H 417.283 0.930305 -0.182308 0
M  V30 4090 H 416.989 3.51594 -0.086207 0
M  V30 4091 H 416.863 3.38743 1.6593 0
M  V30 4092 H 419.25 2.39749 1.7206 0
M  V30 4093 H 419.331 2.55769 -0.0396831 0
M  V30 4094 H 418.975 5.07524 0.195422 0
M  V30 4095 H 418.905 4.88548 1.96542 0
M  V30 4096 H 421.396 3.63651 1.02794 0
M  V30 4097 H 421.709 7.58231 1.49353 0
M  V30 4098 H 420.054 6.81763 1.34999 0
M  V30 4099 H 423.245 4.52668 1.19202 0
M  V30 4100 H 423.418 6.32595 1.40455 0
M  V30 4101 N 416.824 -0.551391 1.4764 0
M  V30 4102 C 418.235 -1.13349 1.48354 0
M  V30 4103 C 418.586 -1.94709 0.241432 0
M  V30 4104 O 417.711 -2.06306 -0.653205 0
M  V30 4105 C 418.306 -2.0623 2.68802 0
M  V30 4106 C 416.865 -2.597 2.72457 0
M  V30 4107 C 416.012 -1.36201 2.41546 0
M  V30 4108 H 418.963 -0.337698 1.55065 0
M  V30 4109 H 418.984 -2.90196 2.46103 0
M  V30 4110 H 418.496 -1.46987 3.59188 0
M  V30 4111 H 416.597 -3.22724 1.86225 0
M  V30 4112 H 416.71 -3.00296 3.73308 0
M  V30 4113 H 415.074 -1.67068 1.9225 0
M  V30 4114 H 415.857 -0.787425 3.34147 0
M  V30 4115 N 418.302 -1.35869 -0.798587 0
M  V30 4116 C 419.532 -1.32529 -1.58491 0
M  V30 4117 C 419.94 0.0975405 -1.88948 0
M  V30 4118 O 419.283 1.06224 -1.49874 0
M  V30 4119 C 419.345 -2.07247 -2.9375 0
M  V30 4120 C 419.009 -3.56391 -2.86068 0
M  V30 4121 C 420.006 -4.50824 -2.58947 0
M  V30 4122 C 417.691 -3.9915 -3.04933 0
M  V30 4123 C 419.685 -5.85993 -2.5078 0
M  V30 4124 C 417.372 -5.34413 -2.96389 0
M  V30 4125 C 418.37 -6.27646 -2.69349 0
M  V30 4126 O 418.058 -7.60426 -2.60782 0
M  V30 4127 H 417.79 -0.456529 -0.498556 0
M  V30 4128 H 420.344 -1.79425 -0.999799 0
M  V30 4129 H 418.574 -1.55001 -3.54276 0
M  V30 4130 H 420.263 -1.96883 -3.54954 0
M  V30 4131 H 421.029 -4.19104 -2.44084 0
M  V30 4132 H 416.908 -3.26961 -3.24989 0
M  V30 4133 H 420.452 -6.58735 -2.29595 0
M  V30 4134 H 416.349 -5.65743 -3.10813 0
M  V30 4135 H 417.117 -7.70444 -2.76331 0
M  V30 4136 N 419.78 1.02168 -1.19998 0
M  V30 4137 C 420.71 2.12488 -0.96804 0
M  V30 4138 C 421.691 1.69799 0.101185 0
M  V30 4139 O 422.876 1.94121 -0.0552993 0
M  V30 4140 C 420.006 3.43479 -0.513776 0
M  V30 4141 C 418.96 3.99884 -1.52566 0
M  V30 4142 C 418.286 5.26582 -0.928214 0
M  V30 4143 C 419.586 4.33861 -2.90795 0
M  V30 4144 H 421.28 2.32149 -1.89069 0
M  V30 4145 H 418.826 1.11564 -0.910468 0
M  V30 4146 H 420.779 4.20036 -0.338774 0
M  V30 4147 H 419.503 3.23561 0.444493 0
M  V30 4148 H 418.162 3.25429 -1.68794 0
M  V30 4149 H 417.81 5.02986 0.0378289 0
M  V30 4150 H 417.51 5.65284 -1.60397 0
M  V30 4151 H 419.034 6.05799 -0.764167 0
M  V30 4152 H 420.448 5.01327 -2.78109 0
M  V30 4153 H 418.845 4.83664 -3.55231 0
M  V30 4154 H 419.915 3.42848 -3.42904 0
M  V30 4155 N 421.258 1.00505 1.21394 0
M  V30 4156 C 422.507 0.683159 1.89778 0
M  V30 4157 C 422.82 -0.789471 1.7896 0
M  V30 4158 O 424.026 -1.22344 2.42372 0
M  V30 4159 C 422.482 1.17146 3.40301 0
M  V30 4160 C 422.09 2.67017 3.5973 0
M  V30 4161 C 423.834 0.924461 4.14311 0
M  V30 4162 C 421.741 3.09387 5.04017 0
M  V30 4163 H 420.671 0.25183 0.710702 0
M  V30 4164 H 423.322 1.21622 1.37406 0
M  V30 4165 H 421.704 0.566451 3.91928 0
M  V30 4166 H 422.878 3.32968 3.18542 0
M  V30 4167 H 421.193 2.89732 2.99073 0
M  V30 4168 H 423.79 1.21658 5.20676 0
M  V30 4169 H 424.133 -0.139286 4.16067 0
M  V30 4170 H 424.666 1.49226 3.6875 0
M  V30 4171 H 421.405 4.14989 5.07409 0
M  V30 4172 H 420.925 2.48149 5.46061 0
M  V30 4173 H 422.604 3.01371 5.72525 0
M  V30 4174 N 422.737 -1.36956 0.779787 0
M  V30 4175 C 424.148 -1.82094 0.412156 0
M  V30 4176 C 424.499 -1.64926 -1.06273 0
M  V30 4177 O 423.624 -1.16483 -1.82375 0
M  V30 4178 C 424.219 -3.3059 0.741319 0
M  V30 4179 C 422.778 -3.73974 0.426641 0
M  V30 4180 C 421.925 -2.59368 0.980987 0
M  V30 4181 H 424.876 -1.25314 0.973758 0
M  V30 4182 H 424.897 -3.80489 0.028887 0
M  V30 4183 H 424.409 -3.43054 1.81482 0
M  V30 4184 H 422.51 -3.67076 -0.639215 0
M  V30 4185 H 422.623 -4.69778 0.940515 0
M  V30 4186 H 420.987 -2.51463 0.404757 0
M  V30 4187 H 421.77 -2.74621 2.06005 0
M  V30 4188 N 424.215 -0.530993 -1.48385 0
M  V30 4189 C 425.44 0.000729535 -2.074 0
M  V30 4190 C 425.865 1.27298 -1.3848 0
M  V30 4191 O 425.223 1.75599 -0.451081 0
M  V30 4192 C 425.271 0.206697 -3.60007 0
M  V30 4193 O 424.375 1.27514 -3.92191 0
M  V30 4194 H 423.716 -0.039583 -0.662819 0
M  V30 4195 H 426.246 -0.739194 -1.9078 0
M  V30 4196 H 426.256 0.42904 -4.05738 0
M  V30 4197 H 424.931 -0.722675 -4.09573 0
M  V30 4198 H 423.508 1.03537 -3.58238 0
M  V30 4199 N 425.693 1.55336 -0.266172 0
M  V30 4200 C 426.643 2.18848 0.639497 0
M  V30 4201 C 427.627 1.1503 1.12503 0
M  V30 4202 O 428.819 1.40875 1.0716 0
M  V30 4203 C 425.948 2.90626 1.82733 0
M  V30 4204 C 425.034 4.01723 1.35939 0
M  V30 4205 N 425.425 5.02145 0.606988 0
M  V30 4206 C 423.723 4.1463 1.6431 0
M  V30 4207 C 424.424 5.80572 0.362138 0
M  V30 4208 N 423.4 5.35551 0.931971 0
M  V30 4209 H 427.202 2.93845 0.0567057 0
M  V30 4210 H 424.716 1.62252 -0.0693312 0
M  V30 4211 H 426.713 3.34569 2.48735 0
M  V30 4212 H 425.373 2.17137 2.41416 0
M  V30 4213 H 426.384 5.17271 0.255198 0
M  V30 4214 H 423.061 3.52326 2.23993 0
M  V30 4215 H 424.451 6.71472 -0.239848 0
M  V30 4216 N 427.171 -0.0066808 1.57599 0
M  V30 4217 C 428.418 -0.69292 1.90276 0
M  V30 4218 C 428.746 -1.74148 0.866192 0
M  V30 4219 O 428.001 -1.95268 -0.129933 0
M  V30 4220 C 428.3 -1.37939 3.29708 0
M  V30 4221 C 427.966 -0.464679 4.48499 0
M  V30 4222 C 426.628 -0.212809 4.80729 0
M  V30 4223 C 428.98 0.16551 5.20937 0
M  V30 4224 C 426.308 0.677653 5.82773 0
M  V30 4225 C 428.66 1.04381 6.23929 0
M  V30 4226 C 427.324 1.30492 6.54621 0
M  V30 4227 H 426.594 -0.253558 0.696268 0
M  V30 4228 H 429.241 0.0474123 1.91441 0
M  V30 4229 H 427.546 -2.1936 3.24636 0
M  V30 4230 H 429.243 -1.9163 3.52249 0
M  V30 4231 H 425.833 -0.671153 4.23313 0
M  V30 4232 H 430.017 -0.0160756 4.96297 0
M  V30 4233 H 425.273 0.88803 6.04917 0
M  V30 4234 H 429.447 1.53851 6.79193 0
M  V30 4235 H 427.074 1.99662 7.33512 0
M  V30 4236 N 428.649 -1.55105 -0.279332 0
M  V30 4237 C 429.874 -1.7976 -1.03446 0
M  V30 4238 C 430.299 -0.565952 -1.79384 0
M  V30 4239 O 429.657 0.484259 -1.74713 0
M  V30 4240 C 429.705 -3.0179 -1.97371 0
M  V30 4241 O 428.809 -2.76432 -3.06038 0
M  V30 4242 H 428.15 -0.594334 -0.29608 0
M  V30 4243 H 430.68 -2.02235 -0.310165 0
M  V30 4244 H 430.69 -3.30351 -2.39441 0
M  V30 4245 H 429.365 -3.91085 -1.4151 0
M  V30 4246 H 427.942 -2.58949 -2.68328 0
M  V30 4247 N 430.127 0.543554 -1.4793 0
M  V30 4248 C 431.09 1.63156 -1.60975 0
M  V30 4249 C 432.09 1.53346 -0.483899 0
M  V30 4250 O 433.28 1.5726 -0.749339 0
M  V30 4251 C 430.412 3.02743 -1.56716 0
M  V30 4252 H 431.605 1.52934 -2.57975 0
M  V30 4253 H 429.158 0.764557 -1.36324 0
M  V30 4254 H 429.893 3.18484 -0.611418 0
M  V30 4255 H 429.678 3.11272 -2.38438 0
M  V30 4256 H 431.168 3.81871 -1.6901 0
M  V30 4257 N 431.605 1.3629 0.791371 0
M  V30 4258 C 432.515 1.32606 1.93527 0
M  V30 4259 C 433.531 0.228541 1.72493 0
M  V30 4260 O 434.707 0.460571 1.96063 0
M  V30 4261 C 431.772 1.11271 3.28359 0
M  V30 4262 C 430.833 2.3048 3.62185 0
M  V30 4263 C 430.066 2.10154 4.90583 0
M  V30 4264 O 430.289 1.07572 5.60165 0
M  V30 4265 O 429.223 2.97884 5.23019 0
M  V30 4266 H 433.049 2.28909 1.99585 0
M  V30 4267 H 430.634 1.16818 0.931344 0
M  V30 4268 H 432.516 1.01283 4.09047 0
M  V30 4269 H 431.191 0.180292 3.23198 0
M  V30 4270 H 430.098 2.46036 2.81811 0
M  V30 4271 H 431.431 3.22221 3.72068 0
M  V30 4272 N 433.083 -1.0153 1.20538 0
M  V30 4273 C 434.03 -2.10098 0.955383 0
M  V30 4274 C 435 -1.65702 -0.114878 0
M  V30 4275 O 436.185 -1.90776 0.0301118 0
M  V30 4276 C 433.325 -3.41236 0.514969 0
M  V30 4277 C 432.438 -3.99102 1.65353 0
M  V30 4278 C 431.573 -5.18306 1.16329 0
M  V30 4279 C 430.612 -5.68258 2.27485 0
M  V30 4280 N 429.749 -6.78722 1.7967 0
M  V30 4281 H 434.589 -2.30818 1.88486 0
M  V30 4282 H 432.126 -1.13189 0.939499 0
M  V30 4283 H 434.084 -4.16504 0.240935 0
M  V30 4284 H 432.714 -3.20585 -0.377512 0
M  V30 4285 H 431.766 -3.20918 2.04245 0
M  V30 4286 H 433.078 -4.32177 2.49047 0
M  V30 4287 H 432.232 -6.00782 0.845302 0
M  V30 4288 H 430.971 -4.86799 0.296254 0
M  V30 4289 H 429.976 -4.84385 2.60099 0
M  V30 4290 H 431.201 -6.01798 3.14667 0
M  V30 4291 H 429.147 -6.49042 0.95295 0
M  V30 4292 H 429.064 -7.10996 2.56944 0
M  V30 4293 H 430.332 -7.64759 1.50875 0
M  V30 4294 N 434.561 -1.01147 -1.20859 0
M  V30 4295 C 435.809 -0.696486 -1.89719 0
M  V30 4296 C 436.13 0.775788 -1.78904 0
M  V30 4297 O 435.4 1.55759 -1.18811 0
M  V30 4298 H 433.98 -0.254628 -0.702263 0
M  V30 4299 H 436.642 -1.28197 -1.46804 0
M  V30 4300 H 435.738 -0.975357 -2.96468 0
M  V30 4301 N 436.039 1.36541 -0.78704 0
M  V30 4302 C 437.002 2.28413 -0.189778 0
M  V30 4303 C 438.002 1.48719 0.611499 0
M  V30 4304 O 439.192 1.68737 0.432842 0
M  V30 4305 C 436.324 3.32824 0.737638 0
M  V30 4306 H 437.517 2.82743 -0.999831 0
M  V30 4307 H 435.07 1.46065 -0.556298 0
M  V30 4308 H 435.805 2.83646 1.57212 0
M  V30 4309 H 435.59 3.91752 0.165044 0
M  V30 4310 H 437.08 4.0144 1.15047 0
M  V30 4311 N 437.518 0.538854 1.48102 0
M  V30 4312 C 438.934 0.19732 1.58376 0
M  V30 4313 C 439.134 -1.29971 1.5398 0
M  V30 4314 O 438.19 -2.07861 1.43352 0
M  V30 4315 C 439.503 0.807716 2.89649 0
M  V30 4316 C 441.051 0.77726 3.03196 0
M  V30 4317 C 441.526 1.36639 4.37143 0
M  V30 4318 N 443.017 1.32875 4.43732 0
M  V30 4319 C 443.752 1.7544 5.45901 0
M  V30 4320 N 443.248 2.25776 6.54979 0
M  V30 4321 N 445.041 1.66623 5.36836 0
M  V30 4322 H 437.192 1.5117 1.49202 0
M  V30 4323 H 439.455 0.629327 0.708979 0
M  V30 4324 H 439.161 1.85909 2.98548 0
M  V30 4325 H 439.035 0.289975 3.76084 0
M  V30 4326 H 441.422 -0.265374 2.93904 0
M  V30 4327 H 441.503 1.33256 2.18349 0
M  V30 4328 H 441.147 2.408 4.47189 0
M  V30 4329 H 441.077 0.786689 5.20691 0
M  V30 4330 H 443.568 0.96037 3.65493 0
M  V30 4331 H 443.881 2.56226 7.29087 0
M  V30 4332 H 442.226 2.29775 6.55918 0
M  V30 4333 H 445.417 1.27089 4.50517 0
M  V30 4334 H 445.59 2.00115 6.16326 0
M  V30 4335 N 438.996 -1.55193 0.274407 0
M  V30 4336 C 440.245 -1.98758 -0.343213 0
M  V30 4337 C 440.558 -1.16624 -1.5703 0
M  V30 4338 O 441.764 -1.5033 -2.26082 0
M  V30 4339 C 440.22 -3.53759 -0.661996 0
M  V30 4340 C 439.828 -4.4467 0.54524 0
M  V30 4341 C 441.572 -4.05916 -1.24228 0
M  V30 4342 C 439.479 -5.91058 0.201084 0
M  V30 4343 H 438.409 -0.742353 -0.132014 0
M  V30 4344 H 441.06 -1.79545 0.378948 0
M  V30 4345 H 439.442 -3.68772 -1.44304 0
M  V30 4346 H 440.616 -4.41426 1.32212 0
M  V30 4347 H 438.931 -4.03143 1.04232 0
M  V30 4348 H 441.528 -5.12831 -1.51357 0
M  V30 4349 H 441.871 -3.54908 -2.17592 0
M  V30 4350 H 442.404 -3.9434 -0.523542 0
M  V30 4351 H 439.143 -6.46161 1.10258 0
M  V30 4352 H 438.663 -5.97373 -0.539045 0
M  V30 4353 H 440.342 -6.46669 -0.206954 0
M  V30 4354 N 440.474 -0.00167713 -1.576 0
M  V30 4355 C 441.437 0.974046 -2.07473 0
M  V30 4356 C 442.437 1.27143 -0.984444 0
M  V30 4357 O 443.627 1.21633 -1.24703 0
M  V30 4358 C 440.759 2.29849 -2.51759 0
M  V30 4359 H 441.952 0.54262 -2.9495 0
M  V30 4360 H 439.505 0.245829 -1.54355 0
M  V30 4361 H 440.24 2.77677 -1.67529 0
M  V30 4362 H 440.025 2.09584 -3.31386 0
M  V30 4363 H 441.515 2.9984 -2.90664 0
M  V30 4364 N 441.952 1.55251 0.271103 0
M  V30 4365 C 442.882 1.9127 1.33933 0
M  V30 4366 C 443.863 0.77478 1.5143 0
M  V30 4367 O 445.048 1.03307 1.64442 0
M  V30 4368 C 442.178 2.18627 2.69851 0
M  V30 4369 C 441.132 3.34442 2.67081 0
M  V30 4370 C 440.458 3.47284 4.06569 0
M  V30 4371 C 441.758 4.70784 2.26185 0
M  V30 4372 H 443.452 2.80744 1.04035 0
M  V30 4373 H 440.998 1.35077 0.499017 0
M  V30 4374 H 442.951 2.42413 3.44694 0
M  V30 4375 H 441.675 1.25955 3.01335 0
M  V30 4376 H 440.334 3.10627 1.94695 0
M  V30 4377 H 439.982 2.52074 4.35279 0
M  V30 4378 H 439.682 4.25152 4.0561 0
M  V30 4379 H 441.206 3.73363 4.83148 0
M  V30 4380 H 442.62 4.94102 2.90751 0
M  V30 4381 H 441.017 5.51582 2.36384 0
M  V30 4382 H 442.087 4.69478 1.21319 0
M  V30 4383 N 443.43 -0.535701 1.48216 0
M  V30 4384 C 444.393 -1.623 1.61838 0
M  V30 4385 C 445.393 -1.53087 0.492024 0
M  V30 4386 O 446.583 -1.5686 0.757668 0
M  V30 4387 C 443.715 -3.01907 1.58319 0
M  V30 4388 H 444.908 -1.51564 2.58783 0
M  V30 4389 H 442.461 -0.757317 1.36727 0
M  V30 4390 H 443.196 -3.18155 0.628299 0
M  V30 4391 H 442.981 -3.10003 2.40085 0
M  V30 4392 H 444.471 -3.80969 1.71033 0
M  V30 4393 N 444.908 -1.36708 -0.784132 0
M  V30 4394 C 445.858 -1.2799 -1.88686 0
M  V30 4395 C 446.842 -0.170282 -1.59996 0
M  V30 4396 O 448.034 -0.403571 -1.72338 0
M  V30 4397 C 445.163 -1.07674 -3.25977 0
M  V30 4398 C 444.249 -2.23127 -3.60659 0
M  V30 4399 N 444.64 -3.48467 -3.66612 0
M  V30 4400 C 442.938 -2.15009 -3.90752 0
M  V30 4401 C 443.639 -4.24525 -3.97685 0
M  V30 4402 N 442.615 -3.53524 -4.12943 0
M  V30 4403 H 446.417 -2.22927 -1.91522 0
M  V30 4404 H 443.931 -1.29503 -0.979933 0
M  V30 4405 H 445.928 -0.995151 -4.04849 0
M  V30 4406 H 444.588 -0.13643 -3.24413 0
M  V30 4407 H 445.599 -3.82534 -3.49125 0
M  V30 4408 H 442.276 -1.28963 -3.97083 0
M  V30 4409 H 443.666 -5.32944 -4.0917 0
M  V30 4410 N 446.386 1.0089 -1.21074 0
M  V30 4411 C 447.316 2.1145 -0.990523 0
M  V30 4412 C 448.297 1.69897 0.0831699 0
M  V30 4413 O 449.482 1.94052 -0.0758853 0
M  V30 4414 C 446.612 3.42914 -0.550177 0
M  V30 4415 C 445.566 3.98244 -1.56799 0
M  V30 4416 C 444.892 5.25568 -0.984013 0
M  V30 4417 C 446.192 4.30752 -2.95381 0
M  V30 4418 H 447.886 2.3013 -1.91521 0
M  V30 4419 H 445.432 1.10592 -0.92225 0
M  V30 4420 H 447.385 4.19653 -0.383305 0
M  V30 4421 H 446.109 3.24014 0.41015 0
M  V30 4422 H 444.768 3.23621 -1.72236 0
M  V30 4423 H 444.416 5.02998 -0.0155216 0
M  V30 4424 H 444.116 5.63551 -1.66384 0
M  V30 4425 H 445.64 6.04955 -0.828378 0
M  V30 4426 H 447.054 4.98349 -2.8341 0
M  V30 4427 H 445.451 4.79869 -3.60341 0
M  V30 4428 H 446.521 3.39192 -3.46521 0
M  V30 4429 N 447.864 1.01787 1.20321 0
M  V30 4430 C 449.089 0.727009 1.9424 0
M  V30 4431 C 449.514 -0.706179 1.74341 0
M  V30 4432 O 448.872 -1.48609 1.03852 0
M  V30 4433 C 448.92 1.06958 3.44372 0
M  V30 4434 O 448.024 0.181983 4.11998 0
M  V30 4435 H 447.365 0.269626 0.606793 0
M  V30 4436 H 449.895 1.36158 1.52716 0
M  V30 4437 H 449.905 1.02182 3.94997 0
M  V30 4438 H 448.58 2.11378 3.58179 0
M  V30 4439 H 447.157 0.287378 3.71791 0
M  V30 4440 N 449.342 -1.36122 0.79427 0
M  V30 4441 C 450.275 -2.27759 0.141845 0
M  V30 4442 C 451.253 -1.47471 -0.684921 0
M  V30 4443 O 452.437 -1.76759 -0.654857 0
M  V30 4444 C 449.564 -3.29008 -0.804446 0
M  V30 4445 C 448.61 -4.26459 -0.0588617 0
M  V30 4446 S 449.443 -5.20253 1.26873 0
M  V30 4447 C 450.599 -6.25048 0.326562 0
M  V30 4448 H 450.832 -2.82746 0.918818 0
M  V30 4449 H 448.365 -1.42736 0.588722 0
M  V30 4450 H 450.323 -3.87842 -1.34495 0
M  V30 4451 H 448.984 -2.72924 -1.5547 0
M  V30 4452 H 448.177 -4.97973 -0.777087 0
M  V30 4453 H 447.779 -3.71731 0.411309 0
M  V30 4454 H 450.071 -6.75705 -0.492795 0
M  V30 4455 H 451.014 -7.00852 1.01053 0
M  V30 4456 H 451.422 -5.64454 -0.0722627 0
M  V30 4457 N 450.82 -0.546701 -1.47814 0
M  V30 4458 C 451.73 0.21026 -2.33656 0
M  V30 4459 C 452.746 0.922413 -1.47538 0
M  V30 4460 O 453.922 0.893652 -1.80488 0
M  V30 4461 C 450.987 1.23348 -3.24016 0
M  V30 4462 C 450.048 0.529883 -4.26017 0
M  V30 4463 C 449.281 1.50435 -5.12059 0
M  V30 4464 O 449.504 2.73837 -5.00369 0
M  V30 4465 O 448.438 1.03459 -5.92942 0
M  V30 4466 H 452.264 -0.493605 -2.99662 0
M  V30 4467 H 449.849 -0.307427 -1.46203 0
M  V30 4468 H 451.731 1.82438 -3.79861 0
M  V30 4469 H 450.406 1.91945 -2.60651 0
M  V30 4470 H 449.313 -0.101948 -3.73961 0
M  V30 4471 H 450.646 -0.11445 -4.92067 0
M  V30 4472 N 452.299 1.55045 -0.282633 0
M  V30 4473 C 453.71 1.85473 0.213655 0
M  V30 4474 C 454.061 1.20465 1.54863 0
M  V30 4475 O 453.186 0.495676 2.10647 0
M  V30 4476 C 453.781 3.36496 0.394445 0
M  V30 4477 C 452.34 3.67022 0.834961 0
M  V30 4478 C 451.487 2.77218 -0.0674081 0
M  V30 4479 H 454.438 1.50478 -0.504202 0
M  V30 4480 H 454.459 3.60007 1.23186 0
M  V30 4481 H 453.971 3.83782 -0.577326 0
M  V30 4482 H 452.072 3.25241 1.81794 0
M  V30 4483 H 452.185 4.74433 0.667075 0
M  V30 4484 H 450.549 2.5069 0.450196 0
M  V30 4485 H 451.332 3.2732 -1.0352 0
M  V30 4486 N 453.777 0.010035 1.57597 0
M  V30 4487 C 455.007 -0.682422 1.95004 0
M  V30 4488 C 455.415 -1.67278 0.884014 0
M  V30 4489 O 454.758 -1.83129 -0.144672 0
M  V30 4490 C 454.82 -1.46141 3.28456 0
M  V30 4491 C 454.484 -0.631523 4.52615 0
M  V30 4492 C 455.481 0.0850905 5.1983 0
M  V30 4493 C 453.166 -0.574539 4.99003 0
M  V30 4494 C 455.16 0.847566 6.3174 0
M  V30 4495 C 452.847 0.191655 6.10799 0
M  V30 4496 C 453.845 0.901432 6.77025 0
M  V30 4497 O 453.533 1.65511 7.86677 0
M  V30 4498 H 453.265 -0.194361 0.647456 0
M  V30 4499 H 455.819 0.060312 2.05311 0
M  V30 4500 H 454.049 -2.24885 3.14585 0
M  V30 4501 H 455.738 -2.04016 3.50902 0
M  V30 4502 H 456.504 0.0502812 4.84974 0
M  V30 4503 H 452.383 -1.11654 4.47274 0
M  V30 4504 H 455.927 1.4021 6.83364 0
M  V30 4505 H 451.824 0.228249 6.45096 0
M  V30 4506 H 452.592 1.57287 8.03245 0
M  V30 4507 N 455.255 -1.55392 -0.262866 0
M  V30 4508 C 456.185 -1.91978 -1.32917 0
M  V30 4509 C 457.166 -0.7828 -1.51017 0
M  V30 4510 O 458.351 -1.04178 -1.63892 0
M  V30 4511 C 455.481 -2.20055 -2.68687 0
M  V30 4512 C 454.435 -3.35854 -2.65304 0
M  V30 4513 C 453.761 -3.49435 -4.04721 0
M  V30 4514 C 455.061 -4.71977 -2.23685 0
M  V30 4515 H 456.755 -2.81292 -1.02544 0
M  V30 4516 H 454.301 -1.3534 -0.491846 0
M  V30 4517 H 456.254 -2.44237 -3.43404 0
M  V30 4518 H 454.978 -1.27551 -3.00663 0
M  V30 4519 H 453.637 -3.11655 -1.93045 0
M  V30 4520 H 453.285 -2.54379 -4.33936 0
M  V30 4521 H 452.985 -4.27297 -4.0335 0
M  V30 4522 H 454.509 -3.7592 -4.81161 0
M  V30 4523 H 455.923 -4.95637 -2.88127 0
M  V30 4524 H 454.32 -5.52828 -2.33456 0
M  V30 4525 H 455.39 -4.70115 -1.18827 0
M  V30 4526 N 456.733 0.527833 -1.48498 0
M  V30 4527 C 457.683 1.62844 -1.5958 0
M  V30 4528 C 458.667 1.54397 -0.452809 0
M  V30 4529 O 459.859 1.62381 -0.704364 0
M  V30 4530 C 456.988 3.01557 -1.64067 0
M  V30 4531 C 456.074 3.151 -2.83853 0
M  V30 4532 N 456.465 2.9861 -4.08247 0
M  V30 4533 C 454.763 3.46158 -2.8123 0
M  V30 4534 C 455.464 3.15626 -4.88626 0
M  V30 4535 N 454.44 3.43298 -4.21483 0
M  V30 4536 H 458.242 1.48708 -2.53502 0
M  V30 4537 H 455.756 0.733343 -1.44899 0
M  V30 4538 H 457.753 3.8062 -1.70101 0
M  V30 4539 H 456.413 3.16783 -0.712636 0
M  V30 4540 H 457.424 2.75329 -4.3865 0
M  V30 4541 H 454.101 3.67728 -1.97692 0
M  V30 4542 H 455.491 3.07596 -5.97356 0
M  V30 4543 N 458.211 1.37122 0.776871 0
M  V30 4544 C 459.144 1.26835 1.89705 0
M  V30 4545 C 460.122 0.14992 1.61907 0
M  V30 4546 O 461.306 0.323242 1.85708 0
M  V30 4547 C 458.433 0.95986 3.24814 0
M  V30 4548 C 457.479 2.09447 3.7153 0
M  V30 4549 S 458.312 3.71368 3.85806 0
M  V30 4550 C 459.468 3.42659 5.23771 0
M  V30 4551 H 459.701 2.21647 1.98141 0
M  V30 4552 H 457.234 1.22685 0.937433 0
M  V30 4553 H 459.192 0.788696 4.02852 0
M  V30 4554 H 457.853 0.0293137 3.14086 0
M  V30 4555 H 457.046 1.8335 4.69467 0
M  V30 4556 H 456.648 2.2255 3.00578 0
M  V30 4557 H 458.94 2.9733 6.0877 0
M  V30 4558 H 459.883 4.39905 5.54878 0
M  V30 4559 H 460.291 2.77708 4.91466 0
M  V30 4560 N 459.689 -1.00246 1.21608 0
M  V30 4561 C 460.652 -2.07233 0.979133 0
M  V30 4562 C 461.652 -1.6072 -0.0508219 0
M  V30 4563 O 462.842 -1.73196 0.186712 0
M  V30 4564 C 459.974 -3.37546 0.477016 0
M  V30 4565 H 461.167 -2.29687 1.92831 0
M  V30 4566 H 458.72 -1.17261 1.03342 0
M  V30 4567 H 459.455 -3.20773 -0.476966 0
M  V30 4568 H 459.24 -3.72638 1.21997 0
M  V30 4569 H 460.73 -4.16285 0.331181 0
M  V30 4570 N 461.167 -1.02423 -1.1978 0
M  V30 4571 C 462.1 -0.545641 -2.21581 0
M  V30 4572 C 463.078 0.411024 -1.57319 0
M  V30 4573 O 464.262 0.329223 -1.85603 0
M  V30 4574 C 461.389 0.204973 -3.38079 0
M  V30 4575 C 460.435 -0.70241 -4.20676 0
M  V30 4576 S 461.268 -2.17595 -4.89298 0
M  V30 4577 C 462.424 -1.43572 -6.09211 0
M  V30 4578 H 462.657 -1.4082 -2.61834 0
M  V30 4579 H 460.19 -0.833771 -1.29952 0
M  V30 4580 H 462.148 0.631924 -4.05607 0
M  V30 4581 H 460.809 1.0432 -2.9627 0
M  V30 4582 H 460.002 -0.123193 -5.03849 0
M  V30 4583 H 459.604 -1.06747 -3.58442 0
M  V30 4584 H 461.896 -0.719806 -6.73665 0
M  V30 4585 H 462.839 -2.24388 -6.71607 0
M  V30 4586 H 463.247 -0.935252 -5.56699 0
M  V30 4587 N 462.645 1.35699 -0.801477 0
M  V30 4588 C 464.061 1.52065 -0.484596 0
M  V30 4589 C 464.261 1.75215 0.995084 0
M  V30 4590 O 463.317 1.79061 1.78026 0
M  V30 4591 C 464.63 2.69908 -1.32552 0
M  V30 4592 C 466.178 2.83784 -1.32044 0
M  V30 4593 C 466.653 4.04646 -2.14536 0
M  V30 4594 N 468.144 4.11814 -2.12046 0
M  V30 4595 C 468.879 5.04437 -2.72636 0
M  V30 4596 N 468.375 6.02426 -3.42133 0
M  V30 4597 N 470.168 4.97144 -2.62305 0
M  V30 4598 H 462.319 1.18928 -1.75983 0
M  V30 4599 H 464.582 0.581455 -0.748741 0
M  V30 4600 H 464.288 2.59363 -2.37537 0
M  V30 4601 H 464.162 3.64376 -0.975181 0
M  V30 4602 H 466.549 2.93783 -0.27846 0
M  V30 4603 H 466.63 1.90188 -1.71062 0
M  V30 4604 H 466.274 3.95407 -3.18772 0
M  V30 4605 H 466.204 4.97413 -1.72882 0
M  V30 4606 H 468.695 3.41664 -1.61476 0
M  V30 4607 H 469.008 6.69688 -3.85666 0
M  V30 4608 H 467.353 6.02615 -3.46237 0
M  V30 4609 H 470.544 4.19546 -2.07603 0
M  V30 4610 H 470.717 5.69138 -3.09815 0
M  V30 4611 N 464.123 0.554532 1.47522 0
M  V30 4612 C 465.053 -0.182974 2.32782 0
M  V30 4613 C 466.034 -0.911377 1.43624 0
M  V30 4614 O 467.219 -0.892366 1.72483 0
M  V30 4615 C 464.349 -1.21513 3.25349 0
M  V30 4616 C 463.303 -0.603355 4.23726 0
M  V30 4617 C 462.629 -1.73995 5.05598 0
M  V30 4618 C 463.929 0.441121 5.20434 0
M  V30 4619 H 465.623 0.52882 2.94693 0
M  V30 4620 H 463.169 0.255759 1.41711 0
M  V30 4621 H 465.122 -1.73922 3.83835 0
M  V30 4622 H 463.846 -1.95683 2.61487 0
M  V30 4623 H 462.505 -0.10059 3.66462 0
M  V30 4624 H 462.153 -2.47063 4.38143 0
M  V30 4625 H 461.853 -1.3364 5.72201 0
M  V30 4626 H 463.377 -2.26735 5.66942 0
M  V30 4627 H 464.791 0.00319931 5.733 0
M  V30 4628 H 463.188 0.763402 5.95224 0
M  V30 4629 H 464.258 1.33799 4.66075 0
M  V30 4630 N 465.601 -1.54893 0.290851 0
M  V30 4631 C 466.849 -1.99538 -0.320756 0
M  V30 4632 C 467.17 -1.18075 -1.55188 0
M  V30 4633 O 466.44 -0.274162 -1.93972 0
M  V30 4634 H 465.02 -0.737052 -0.121507 0
M  V30 4635 H 467.682 -1.90755 0.399832 0
M  V30 4636 H 466.778 -3.06282 -0.599802 0
M  V30 4637 N 467.08 -0.0183926 -1.57589 0
M  V30 4638 C 467.99 0.982943 -2.13015 0
M  V30 4639 C 469.006 1.36443 -1.07979 0
M  V30 4640 O 470.182 1.44802 -1.3998 0
M  V30 4641 C 467.247 2.25024 -2.63752 0
M  V30 4642 C 466.308 1.93018 -3.83461 0
M  V30 4643 C 465.541 3.13706 -4.31769 0
M  V30 4644 O 465.764 4.2601 -3.79305 0
M  V30 4645 O 464.698 2.96629 -5.23732 0
M  V30 4646 H 468.524 0.541709 -2.9883 0
M  V30 4647 H 466.109 0.201565 -1.48034 0
M  V30 4648 H 467.991 2.99441 -2.96502 0
M  V30 4649 H 466.666 2.68349 -1.81026 0
M  V30 4650 H 465.573 1.16019 -3.55655 0
M  V30 4651 H 466.906 1.54516 -4.67317 0
M  V30 4652 N 468.558 1.5553 0.254621 0
M  V30 4653 C 469.806 1.7665 0.981793 0
M  V30 4654 C 470.127 0.580963 1.86145 0
M  V30 4655 O 469.397 -0.403537 1.91699 0
M  V30 4656 H 467.977 0.651475 0.365498 0
M  V30 4657 H 470.639 1.92958 0.274426 0
M  V30 4658 H 469.735 2.67486 1.60802 0
M  V30 4659 N 470.036 -0.519951 1.48776 0
M  V30 4660 C 471.261 -1.30447 1.6124 0
M  V30 4661 C 471.686 -1.86055 0.276591 0
M  V30 4662 O 471.044 -1.64915 -0.753183 0
M  V30 4663 C 471.092 -2.42406 2.66967 0
M  V30 4664 O 470.196 -3.45728 2.24824 0
M  V30 4665 H 469.537 -0.385924 0.540332 0
M  V30 4666 H 472.067 -0.624572 1.94834 0
M  V30 4667 H 472.077 -2.88447 2.88552 0
M  V30 4668 H 470.752 -2.01294 3.63941 0
M  V30 4669 H 469.329 -3.05737 2.13494 0
M  V30 4670 N 471.514 -1.37532 -0.769588 0
M  V30 4671 C 472.762 -1.32597 -1.5252 0
M  V30 4672 C 473.083 0.0884294 -1.94799 0
M  V30 4673 O 472.353 1.03289 -1.66458 0
M  V30 4674 H 470.933 -0.487846 -0.565699 0
M  V30 4675 H 473.595 -1.72044 -0.915806 0
M  V30 4676 H 472.691 -1.96643 -2.42359 0
M  V30 4677 N 472.992 0.995999 -1.22138 0
M  V30 4678 C 473.955 2.06711 -0.990109 0
M  V30 4679 C 474.955 1.60744 0.0422978 0
M  V30 4680 O 476.145 1.73095 -0.195895 0
M  V30 4681 C 473.277 3.37288 -0.49491 0
M  V30 4682 H 474.47 2.28661 -1.94047 0
M  V30 4683 H 472.023 1.16711 -1.03963 0
M  V30 4684 H 472.758 3.21022 0.459948 0
M  V30 4685 H 472.543 3.71986 -1.23971 0
M  V30 4686 H 474.033 4.16103 -0.353253 0
M  V30 4687 N 474.47 1.03057 1.19235 0
M  V30 4688 C 475.433 0.617418 2.20727 0
M  V30 4689 C 476.433 -0.319856 1.57587 0
M  V30 4690 O 477.623 -0.106633 1.73873 0
M  V30 4691 C 474.755 -0.096296 3.40764 0
M  V30 4692 H 475.948 1.51544 2.58794 0
M  V30 4693 H 473.501 0.821949 1.32942 0
M  V30 4694 H 474.236 -1.00859 3.08217 0
M  V30 4695 H 474.021 0.577217 3.87828 0
M  V30 4696 H 475.511 -0.372219 4.15938 0
M  V30 4697 N 475.948 -1.35272 0.808662 0
M  V30 4698 C 476.878 -2.32315 0.234981 0
M  V30 4699 C 477.859 -1.57572 -0.64071 0
M  V30 4700 O 479.044 -1.8563 -0.570551 0
M  V30 4701 C 476.174 -3.41801 -0.615601 0
M  V30 4702 C 475.128 -4.27694 0.161767 0
M  V30 4703 C 474.454 -5.28519 -0.810649 0
M  V30 4704 C 475.754 -5.04231 1.36193 0
M  V30 4705 H 477.448 -2.80543 1.04575 0
M  V30 4706 H 474.994 -1.3488 0.504315 0
M  V30 4707 H 476.947 -4.08693 -1.02702 0
M  V30 4708 H 475.671 -2.92186 -1.45928 0
M  V30 4709 H 474.33 -3.62384 0.554382 0
M  V30 4710 H 473.978 -4.75171 -1.64988 0
M  V30 4711 H 473.678 -5.8686 -0.294822 0
M  V30 4712 H 475.202 -5.98283 -1.22023 0
M  V30 4713 H 476.616 -5.64058 1.02528 0
M  V30 4714 H 475.013 -5.72077 1.81239 0
M  V30 4715 H 476.083 -4.34753 2.14751 0
M  V30 4716 N 477.426 -0.562348 -1.47226 0
M  V30 4717 C 478.389 0.172056 -2.28553 0
M  V30 4718 C 479.389 0.837928 -1.37242 0
M  V30 4719 O 480.579 0.693001 -1.59822 0
M  V30 4720 C 477.711 1.25223 -3.17068 0
M  V30 4721 H 478.904 -0.542401 -2.94954 0
M  V30 4722 H 476.457 -0.319493 -1.53 0
M  V30 4723 H 477.192 1.99892 -2.55369 0
M  V30 4724 H 476.977 0.779515 -3.84273 0
M  V30 4725 H 478.467 1.76791 -3.78332 0
M  V30 4726 N 478.904 1.54736 -0.299062 0
M  V30 4727 C 479.837 2.1962 0.619851 0
M  V30 4728 C 480.815 1.16496 1.13434 0
M  V30 4729 O 481.999 1.4513 1.2029 0
M  V30 4730 C 479.126 2.8385 1.84788 0
M  V30 4731 C 478.172 4.00484 1.46679 0
M  V30 4732 S 479.005 5.32926 0.524389 0
M  V30 4733 C 480.161 6.00638 1.76026 0
M  V30 4734 H 480.394 2.97221 0.0686177 0
M  V30 4735 H 477.927 1.54176 -0.0832085 0
M  V30 4736 H 479.885 3.21483 2.55263 0
M  V30 4737 H 478.546 2.06099 2.37028 0
M  V30 4738 H 477.739 4.44201 2.38121 0
M  V30 4739 H 477.341 3.64398 0.842008 0
M  V30 4740 H 479.633 6.21327 2.70109 0
M  V30 4741 H 480.576 6.94805 1.36569 0
M  V30 4742 H 480.984 5.3026 1.93609 0
M  V30 4743 N 480.382 0.0267497 1.57577 0
M  V30 4744 C 481.793 -0.512413 1.79531 0
M  V30 4745 C 482.144 -1.72391 0.936791 0
M  V30 4746 O 481.269 -2.15903 0.146543 0
M  V30 4747 C 481.864 -0.936378 3.25603 0
M  V30 4748 C 480.423 -1.42067 3.4856 0
M  V30 4749 C 479.57 -0.384278 2.74624 0
M  V30 4750 H 482.521 0.252797 1.56674 0
M  V30 4751 H 482.542 -1.80088 3.35184 0
M  V30 4752 H 482.054 -0.0544332 3.88062 0
M  V30 4753 H 480.155 -2.32262 2.9135 0
M  V30 4754 H 480.268 -1.42968 4.57271 0
M  V30 4755 H 478.632 -0.851855 2.40032 0
M  V30 4756 H 479.415 0.489159 3.39797 0
M  V30 4757 N 481.861 -1.55662 -0.24637 0
M  V30 4758 C 483.11 -1.7672 -0.972254 0
M  V30 4759 C 483.423 -0.59078 -1.86465 0
M  V30 4760 O 484.629 -0.684391 -2.62732 0
M  V30 4761 C 483.085 -3.12869 -1.7788 0
M  V30 4762 C 482.693 -4.38161 -0.933768 0
M  V30 4763 C 484.437 -3.43265 -2.49738 0
M  V30 4764 C 482.344 -5.6534 -1.73623 0
M  V30 4765 H 481.274 -0.658795 -0.366749 0
M  V30 4766 H 483.925 -1.82092 -0.226902 0
M  V30 4767 H 482.307 -3.01606 -2.56612 0
M  V30 4768 H 483.481 -4.60413 -0.188736 0
M  V30 4769 H 481.796 -4.15102 -0.328488 0
M  V30 4770 H 484.393 -4.35501 -3.10231 0
M  V30 4771 H 484.736 -2.64614 -3.2138 0
M  V30 4772 H 485.269 -3.55746 -1.78016 0
M  V30 4773 H 482.008 -6.46814 -1.06354 0
M  V30 4774 H 481.528 -5.47188 -2.45653 0
M  V30 4775 H 483.207 -6.04616 -2.30323 0
M  V30 4776 N 483.339 0.512053 -1.4905 0
M  V30 4777 C 484.585 1.26874 -1.58212 0
M  V30 4778 C 484.918 1.9241 -0.263073 0
M  V30 4779 O 484.193 1.80181 0.732476 0
M  V30 4780 C 484.476 2.34428 -2.73341 0
M  V30 4781 C 484.329 1.73466 -4.15006 0
M  V30 4782 C 485.648 3.36073 -2.84154 0
M  V30 4783 H 482.767 0.459924 -0.575881 0
M  V30 4784 H 485.409 0.568587 -1.81293 0
M  V30 4785 H 483.559 2.94146 -2.53792 0
M  V30 4786 H 485.231 1.17661 -4.46042 0
M  V30 4787 H 483.474 1.03921 -4.21168 0
M  V30 4788 H 484.145 2.51426 -4.91415 0
M  V30 4789 H 486.621 2.86332 -3.01916 0
M  V30 4790 H 485.497 4.08703 -3.66406 0
M  V30 4791 H 485.758 3.97725 -1.93048 0
M  V30 4792 N 484.817 1.37938 0.762283 0
M  V30 4793 C 485.727 1.36681 1.90671 0
M  V30 4794 C 486.743 0.265078 1.71969 0
M  V30 4795 O 487.919 0.502055 1.95042 0
M  V30 4796 C 484.984 1.18211 3.25925 0
M  V30 4797 C 484.045 2.3811 3.57214 0
M  V30 4798 C 483.278 2.20512 4.86014 0
M  V30 4799 O 483.501 1.19429 5.57757 0
M  V30 4800 O 482.435 3.08911 5.16583 0
M  V30 4801 H 486.261 2.33091 1.94685 0
M  V30 4802 H 483.846 1.18767 0.906356 0
M  V30 4803 H 485.728 1.09937 4.06807 0
M  V30 4804 H 484.403 0.248807 3.22742 0
M  V30 4805 H 483.31 2.51958 2.76529 0
M  V30 4806 H 484.643 3.30041 3.65149 0
M  V30 4807 N 486.295 -0.989507 1.22664 0
M  V30 4808 C 487.258 -2.06183 1.00106 0
M  V30 4809 C 488.258 -1.60765 -0.0337726 0
M  V30 4810 O 489.448 -1.72989 0.205072 0
M  V30 4811 C 486.58 -3.37021 0.51279 0
M  V30 4812 H 487.773 -2.27629 1.95256 0
M  V30 4813 H 485.326 -1.16158 1.0458 0
M  V30 4814 H 486.061 -3.21261 -0.442917 0
M  V30 4815 H 485.846 -3.71323 1.25942 0
M  V30 4816 H 487.336 -4.1591 0.375315 0
M  V30 4817 N 487.773 -1.03688 -1.18687 0
M  V30 4818 C 488.736 -0.629115 -2.20397 0
M  V30 4819 C 489.736 0.311495 -1.57754 0
M  V30 4820 O 490.926 0.0974107 -1.73927 0
M  V30 4821 C 488.058 0.0782231 -3.4081 0
M  V30 4822 H 489.251 -1.52915 -2.57987 0
M  V30 4823 H 486.804 -0.828988 -1.32505 0
M  V30 4824 H 487.539 0.992233 -3.08748 0
M  V30 4825 H 487.324 -0.597776 -3.87517 0
M  V30 4826 H 488.814 0.350156 -4.16129 0
M  V30 4827 N 489.251 1.34841 -0.815825 0
M  V30 4828 C 490.491 2.00321 -0.406297 0
M  V30 4829 C 490.855 1.63293 1.00992 0
M  V30 4830 O 492.056 2.21563 1.52195 0
M  V30 4831 C 490.327 3.52421 -0.594469 0
M  V30 4832 S 491.886 4.37926 -0.276735 0
M  V30 4833 H 488.704 0.694155 -0.153848 0
M  V30 4834 H 491.306 1.64263 -1.06009 0
M  V30 4835 H 490.01 3.76858 -1.625 0
M  V30 4836 H 489.541 3.9333 0.0743157 0
M  V30 4837 H 491.556 4.87743 0.912215 0
M  V30 4838 N 490.729 0.570148 1.46925 0
M  V30 4839 C 491.692 -0.159933 2.28641 0
M  V30 4840 C 492.692 -0.830638 1.37685 0
M  V30 4841 O 493.882 -0.684516 1.60187 0
M  V30 4842 C 491.014 -1.2354 3.17727 0
M  V30 4843 H 492.207 0.558035 2.94662 0
M  V30 4844 H 489.76 0.327603 1.52828 0
M  V30 4845 H 490.495 -1.98535 2.56426 0
M  V30 4846 H 490.28 -0.759125 3.84681 0
M  V30 4847 H 491.77 -1.74782 3.79264 0
M  V30 4848 N 492.207 -1.54576 0.307264 0
M  V30 4849 C 493.14 -2.19946 -0.608195 0
M  V30 4850 C 494.118 -1.17096 -1.12815 0
M  V30 4851 O 495.302 -1.45766 -1.19518 0
M  V30 4852 C 492.429 -2.84826 -1.8328 0
M  V30 4853 C 491.475 -4.01256 -1.44554 0
M  V30 4854 S 492.308 -5.33197 -0.49612 0
M  V30 4855 C 493.464 -6.01563 -1.72838 0
M  V30 4856 H 493.697 -2.97253 -0.0528544 0
M  V30 4857 H 491.23 -1.54129 0.0913837 0
M  V30 4858 H 493.188 -3.22832 -2.53554 0
M  V30 4859 H 491.849 -2.07353 -2.35931 0
M  V30 4860 H 491.042 -4.45457 -2.35762 0
M  V30 4861 H 490.644 -3.6484 -0.822671 0
M  V30 4862 H 492.936 -6.22751 -2.6681 0
M  V30 4863 H 493.879 -6.9552 -1.32882 0
M  V30 4864 H 494.287 -5.31279 -1.90795 0
M  V30 4865 N 493.685 -0.035106 -1.57561 0
M  V30 4866 C 494.932 0.642229 -1.92046 0
M  V30 4867 C 495.26 1.7179 -0.91206 0
M  V30 4868 O 494.515 1.95544 0.0781153 0
M  V30 4869 C 494.814 1.29149 -3.3325 0
M  V30 4870 C 494.48 0.345604 -4.49574 0
M  V30 4871 C 493.142 0.0852775 -4.81124 0
M  V30 4872 C 495.494 -0.303569 -5.20315 0
M  V30 4873 C 492.822 -0.831927 -5.80772 0
M  V30 4874 C 495.174 -1.20886 -6.20942 0
M  V30 4875 C 493.838 -1.47802 -6.50931 0
M  V30 4876 H 493.108 0.235008 -0.702746 0
M  V30 4877 H 495.755 -0.0981529 -1.91248 0
M  V30 4878 H 494.06 2.10676 -3.30337 0
M  V30 4879 H 495.757 1.82223 -3.57205 0
M  V30 4880 H 492.347 0.558683 -4.24943 0
M  V30 4881 H 496.531 -0.115515 -4.96166 0
M  V30 4882 H 491.787 -1.0481 -6.02349 0
M  V30 4883 H 495.961 -1.71804 -6.74875 0
M  V30 4884 H 493.588 -2.19039 -7.2796 0
M  V30 4885 N 495.163 1.55791 0.238111 0
M  V30 4886 C 496.113 1.87444 1.29803 0
M  V30 4887 C 497.097 0.736043 1.43078 0
M  V30 4888 O 498.289 0.998146 1.46171 0
M  V30 4889 C 495.418 2.18028 2.65177 0
M  V30 4890 C 494.504 3.38217 2.55871 0
M  V30 4891 N 494.895 4.57264 2.16202 0
M  V30 4892 C 493.193 3.41502 2.86866 0
M  V30 4893 C 493.894 5.3941 2.17744 0
M  V30 4894 N 492.87 4.78695 2.57589 0
M  V30 4895 H 496.672 2.7701 0.981965 0
M  V30 4896 H 494.186 1.56135 0.44672 0
M  V30 4897 H 496.183 2.38873 3.4168 0
M  V30 4898 H 494.843 1.29765 2.97643 0
M  V30 4899 H 495.854 4.82727 1.87602 0
M  V30 4900 H 492.531 2.63536 3.23813 0
M  V30 4901 H 493.921 6.44671 1.89339 0
M  V30 4902 N 496.642 -0.504142 1.49319 0
M  V30 4903 C 497.59 -1.62689 1.66238 0
M  V30 4904 C 498.584 -1.6095 0.528349 0
M  V30 4905 O 499.79 -1.65496 0.707887 0
M  V30 4906 H 496.165 -0.539247 0.524134 0
M  V30 4907 H 498.136 -1.45571 2.60484 0
M  V30 4908 C 496.885 -3.00841 1.74328 0
M  V30 4909 H 496.208 -3.02884 2.60963 0
M  V30 4910 H 497.648 -3.78945 1.90202 0
M  V30 4911 C 496.107 -3.33355 0.487416 0
M  V30 4912 O 496.637 -3.99819 -0.388294 0
M  V30 4913 N 494.843 -2.88469 0.351306 0
M  V30 4914 H 494.39 -2.34557 1.06492 0
M  V30 4915 H 494.348 -3.10591 -0.487899 0
M  V30 4916 N 498.12 -1.38341 -0.754957 0
M  V30 4917 C 499.053 -1.29837 -1.87663 0
M  V30 4918 C 500.031 -0.175659 -1.61648 0
M  V30 4919 O 501.215 -0.352745 -1.8517 0
M  V30 4920 C 498.342 -1.01141 -3.23246 0
M  V30 4921 C 497.388 -2.15331 -3.6815 0
M  V30 4922 S 498.221 -3.77459 -3.79849 0
M  V30 4923 C 499.377 -3.50948 -5.18253 0
M  V30 4924 H 499.61 -2.24771 -1.9459 0
M  V30 4925 H 497.143 -1.24161 -0.917796 0
M  V30 4926 H 499.101 -0.852687 -4.01546 0
M  V30 4927 H 497.762 -0.0792784 -3.14 0
M  V30 4928 H 496.955 -1.90795 -4.6649 0
M  V30 4929 H 496.557 -2.27304 -2.97 0
M  V30 4930 H 498.849 -3.06977 -6.03963 0
M  V30 4931 H 499.792 -4.48677 -5.47809 0
M  V30 4932 H 500.2 -2.85492 -4.86985 0
M  V30 4933 N 499.598 0.982988 -1.23187 0
M  V30 4934 C 500.846 1.72052 -1.06031 0
M  V30 4935 C 501.167 1.90769 0.404019 0
M  V30 4936 O 500.437 1.47446 1.28982 0
M  V30 4937 H 499.017 0.637499 -0.389363 0
M  V30 4938 H 501.679 1.18338 -1.54862 0
M  V30 4939 H 500.775 2.7111 -1.54615 0
M  V30 4940 N 501.076 1.04316 1.18135 0
M  V30 4941 C 501.986 0.646876 2.25505 0
M  V30 4942 C 503.002 -0.328008 1.7088 0
M  V30 4943 O 504.178 -0.182309 2.00573 0
M  V30 4944 C 501.243 0.0185664 3.46695 0
M  V30 4945 C 500.304 1.04277 4.16443 0
M  V30 4946 C 499.537 0.444352 5.31847 0
M  V30 4947 O 499.76 -0.748735 5.65465 0
M  V30 4948 O 498.694 1.17428 5.90334 0
M  V30 4949 H 502.52 1.54147 2.61672 0
M  V30 4950 H 500.105 0.814188 1.25265 0
M  V30 4951 H 501.987 -0.331068 4.20097 0
M  V30 4952 H 500.662 -0.849814 3.12346 0
M  V30 4953 H 499.569 1.44425 3.45098 0
M  V30 4954 H 500.902 1.882 4.54798 0
M  V30 4955 N 502.554 -1.34406 0.822964 0
M  V30 4956 C 503.484 -2.32052 0.259608 0
M  V30 4957 C 504.465 -1.58243 -0.623961 0
M  V30 4958 O 505.65 -1.86224 -0.55083 0
M  V30 4959 C 502.78 -3.42434 -0.579314 0
M  V30 4960 C 501.734 -4.27499 0.20712 0
M  V30 4961 C 501.06 -5.29349 -0.754547 0
M  V30 4962 C 502.36 -5.02758 1.41533 0
M  V30 4963 H 504.054 -2.79418 1.07545 0
M  V30 4964 H 501.6 -1.34338 0.518593 0
M  V30 4965 H 503.553 -4.0976 -0.983612 0
M  V30 4966 H 502.277 -2.93717 -1.4282 0
M  V30 4967 H 500.936 -3.61776 0.592787 0
M  V30 4968 H 500.584 -4.76895 -1.59939 0
M  V30 4969 H 500.284 -5.8714 -0.232561 0
M  V30 4970 H 501.808 -5.99544 -1.1567 0
M  V30 4971 H 503.222 -5.62938 1.08504 0
M  V30 4972 H 501.619 -5.70123 1.87296 0
M  V30 4973 H 502.689 -4.32451 2.1935 0
M  V30 4974 N 504.032 -0.577932 -1.46621 0
M  V30 4975 C 504.995 0.147805 -2.28723 0
M  V30 4976 C 505.995 0.823325 -1.38123 0
M  V30 4977 O 507.185 0.676011 -1.60548 0
M  V30 4978 C 504.317 1.21853 -3.18378 0
M  V30 4979 H 505.51 -0.573654 -2.94362 0
M  V30 4980 H 503.063 -0.335703 -1.52652 0
M  V30 4981 H 503.798 1.97173 -2.57475 0
M  V30 4982 H 503.583 0.738714 -3.85078 0
M  V30 4983 H 505.073 1.72768 -3.80186 0
M  V30 4984 N 505.51 1.54411 -0.315457 0
M  V30 4985 C 506.473 2.22713 0.54142 0
M  V30 4986 C 507.473 1.2179 1.04995 0
M  V30 4987 O 508.663 1.46426 0.943667 0
M  V30 4988 C 505.795 2.92485 1.75116 0
M  V30 4989 H 506.988 2.99849 -0.0555508 0
M  V30 4990 H 504.541 1.56159 -0.0664453 0
M  V30 4991 H 505.276 2.19466 2.38758 0
M  V30 4992 H 505.061 3.66483 1.39401 0
M  V30 4993 H 506.551 3.44548 2.35959 0
M  V30 4994 N 506.988 0.0434614 1.5754 0
M  V30 4995 C 508.213 -0.645358 1.97104 0
M  V30 4996 C 508.638 -1.64037 0.920521 0
M  V30 4997 O 507.996 -1.80922 -0.11708 0
M  V30 4998 C 508.044 -1.31547 3.35749 0
M  V30 4999 O 507.148 -2.43103 3.33129 0
M  V30 5000 H 506.489 -0.168403 0.64229 0
M  V30 5001 H 509.019 0.109573 2.04306 0
M  V30 5002 H 509.029 -1.66895 3.72304 0
M  V30 5003 H 507.704 -0.586205 4.11748 0
M  V30 5004 H 506.281 -2.0976 3.0831 0
M  V30 5005 N 508.466 -1.55915 -0.229846 0
M  V30 5006 C 509.414 -1.9258 -1.30444 0
M  V30 5007 C 510.408 -0.806839 -1.48951 0
M  V30 5008 O 511.614 -0.991606 -1.50224 0
M  V30 5009 H 507.989 -0.611878 -0.437161 0
M  V30 5010 H 509.96 -2.82264 -0.96797 0
M  V30 5011 C 508.709 -2.25171 -2.6494 0
M  V30 5012 H 508.032 -3.10782 -2.51504 0
M  V30 5013 H 509.472 -2.54716 -3.38963 0
M  V30 5014 C 507.931 -1.07394 -3.19324 0
M  V30 5015 O 508.461 -0.330759 -4.00336 0
M  V30 5016 N 506.667 -0.859984 -2.77584 0
M  V30 5017 H 506.214 -1.46605 -2.11813 0
M  V30 5018 H 506.172 -0.0736671 -3.14314 0
M  V30 5019 N 509.944 0.496216 -1.49584 0
M  V30 5020 C 511.193 1.24668 -1.58558 0
M  V30 5021 C 511.506 1.9359 -0.279703 0
M  V30 5022 O 512.712 2.70365 -0.248048 0
M  V30 5023 C 511.168 2.26388 -2.79779 0
M  V30 5024 C 510.776 1.63384 -4.17145 0
M  V30 5025 C 512.52 3.02233 -2.98086 0
M  V30 5026 C 510.427 2.63243 -5.29582 0
M  V30 5027 H 509.357 0.468995 -0.590389 0
M  V30 5028 H 512.008 0.519985 -1.75978 0
M  V30 5029 H 510.39 3.02241 -2.55863 0
M  V30 5030 H 511.564 0.93491 -4.51216 0
M  V30 5031 H 509.879 0.999121 -4.04236 0
M  V30 5032 H 512.476 3.76919 -3.79257 0
M  V30 5033 H 512.819 3.60132 -2.08831 0
M  V30 5034 H 513.352 2.33495 -3.22063 0
M  V30 5035 H 510.091 2.10119 -6.20911 0
M  V30 5036 H 509.611 3.31363 -4.99959 0
M  V30 5037 H 511.29 3.25575 -5.59115 0
M  V30 5038 N 511.423 1.38739 0.74761 0
M  V30 5039 C 512.669 1.35475 1.50912 0
M  V30 5040 C 513.002 -0.0533093 1.94127 0
M  V30 5041 O 512.277 -1.01572 1.65871 0
M  V30 5042 C 512.56 2.31582 2.75757 0
M  V30 5043 C 512.413 3.81274 2.38642 0
M  V30 5044 C 513.732 2.25722 3.77806 0
M  V30 5045 H 510.851 0.493427 0.547447 0
M  V30 5046 H 513.493 1.69634 0.855823 0
M  V30 5047 H 511.643 2.02582 3.31501 0
M  V30 5048 H 513.315 4.20972 1.88626 0
M  V30 5049 H 511.558 3.98664 1.71025 0
M  V30 5050 H 512.229 4.4399 3.27989 0
M  V30 5051 H 514.705 2.51336 3.31616 0
M  V30 5052 H 513.581 2.95069 4.62845 0
M  V30 5053 H 513.842 1.25803 4.23823 0
M  V30 5054 N 512.901 -0.976442 1.23707 0
M  V30 5055 C 513.831 -2.08749 1.04624 0
M  V30 5056 C 514.812 -1.70057 -0.0380956 0
M  V30 5057 O 515.997 -1.93782 0.127308 0
M  V30 5058 C 513.127 -3.41335 0.640902 0
M  V30 5059 C 512.081 -3.93947 1.67302 0
M  V30 5060 C 511.407 -5.22774 1.12301 0
M  V30 5061 C 512.707 -4.22769 3.06697 0
M  V30 5062 H 514.401 -2.24972 1.97555 0
M  V30 5063 H 511.947 -1.08108 0.951247 0
M  V30 5064 H 513.9 -4.18489 0.494434 0
M  V30 5065 H 512.624 -3.24988 -0.324099 0
M  V30 5066 H 511.283 -3.18941 1.80755 0
M  V30 5067 H 510.931 -5.0278 0.148877 0
M  V30 5068 H 510.631 -5.58942 1.81267 0
M  V30 5069 H 512.155 -6.02546 0.988479 0
M  V30 5070 H 513.569 -4.90659 2.96524 0
M  V30 5071 H 511.966 -4.70147 3.72937 0
M  V30 5072 H 513.036 -3.29885 3.55392 0
M  V30 5073 N 514.379 -1.04941 -1.1758 0
M  V30 5074 C 515.79 -0.784501 -1.69418 0
M  V30 5075 C 516.141 0.693625 -1.8353 0
M  V30 5076 O 515.266 1.53925 -1.52106 0
M  V30 5077 C 515.861 -1.41746 -3.07723 0
M  V30 5078 C 514.42 -1.20066 -3.56737 0
M  V30 5079 C 513.567 -1.5026 -2.33061 0
M  V30 5080 H 516.518 -1.21469 -1.02133 0
M  V30 5081 H 516.539 -0.825381 -3.7144 0
M  V30 5082 H 516.051 -2.49325 -2.9742 0
M  V30 5083 H 514.152 -0.144006 -3.72322 0
M  V30 5084 H 514.265 -1.90384 -4.39648 0
M  V30 5085 H 512.629 -0.922598 -2.37403 0
M  V30 5086 H 513.412 -2.58967 -2.25368 0
M  V30 5087 N 515.857 1.33968 -0.830081 0
M  V30 5088 C 516.767 2.33164 -0.259207 0
M  V30 5089 C 517.783 1.62951 0.610164 0
M  V30 5090 O 518.959 1.94668 0.516369 0
M  V30 5091 C 516.024 3.42088 0.563598 0
M  V30 5092 C 515.085 4.28037 -0.329014 0
M  V30 5093 C 514.318 5.3176 0.454616 0
M  V30 5094 O 514.541 5.44876 1.6872 0
M  V30 5095 O 513.475 6.01669 -0.166794 0
M  V30 5096 H 517.301 2.83832 -1.08041 0
M  V30 5097 H 514.886 1.37154 -0.59239 0
M  V30 5098 H 516.768 4.08581 1.03147 0
M  V30 5099 H 515.443 2.93651 1.36201 0
M  V30 5100 H 514.35 3.64443 -0.844538 0
M  V30 5101 H 515.683 4.79934 -1.09196 0
M  V30 5102 N 517.335 0.585699 1.46312 0
M  V30 5103 C 518.583 0.072278 2.01971 0
M  V30 5104 C 518.904 -1.29345 1.45928 0
M  V30 5105 O 518.174 -1.84973 0.645109 0
M  V30 5106 H 516.754 0.023729 0.746623 0
M  V30 5107 H 519.416 0.762155 1.7938 0
M  V30 5108 H 518.512 0.00552767 3.121 0
M  V30 5109 N 518.813 -1.54241 0.323641 0
M  V30 5110 C 519.761 -2.25813 -0.557804 0
M  V30 5111 C 520.755 -1.27225 -1.11849 0
M  V30 5112 O 521.961 -1.45001 -1.06652 0
M  V30 5113 H 518.336 -0.72532 -0.198532 0
M  V30 5114 H 520.307 -2.98322 0.0681112 0
M  V30 5115 C 519.056 -3.02913 -1.70701 0
M  V30 5116 H 518.379 -3.78593 -1.28482 0
M  V30 5117 H 519.819 -3.56238 -2.29935 0
M  V30 5118 C 518.278 -2.11217 -2.62467 0
M  V30 5119 O 518.808 -1.69508 -3.64184 0
M  V30 5120 N 517.014 -1.76704 -2.30703 0
M  V30 5121 H 516.561 -2.1082 -1.48029 0
M  V30 5122 H 516.519 -1.15631 -2.92364 0
M  V30 5123 N 520.291 -0.0518155 -1.57515 0
M  V30 5124 C 521.254 0.907547 -2.10467 0
M  V30 5125 C 522.254 1.23947 -1.02439 0
M  V30 5126 O 523.444 1.17604 -1.2851 0
M  V30 5127 C 520.576 2.21723 -2.58944 0
M  V30 5128 H 521.769 0.44851 -2.96527 0
M  V30 5129 H 519.322 0.196598 -1.55059 0
M  V30 5130 H 520.057 2.72206 -1.76279 0
M  V30 5131 H 519.842 1.98935 -3.37886 0
M  V30 5132 H 521.332 2.90441 -3.00056 0
M  V30 5133 N 521.769 1.56035 0.221574 0
M  V30 5134 C 522.717 1.93269 1.29421 0
M  V30 5135 C 523.711 0.814727 1.48521 0
M  V30 5136 O 524.917 0.999559 1.49696 0
M  V30 5137 H 521.292 0.614188 0.43391 0
M  V30 5138 H 523.263 2.82773 0.952987 0
M  V30 5139 C 522.012 2.26573 2.63742 0
M  V30 5140 H 521.335 3.12112 2.49853 0
M  V30 5141 H 522.775 2.5651 3.37607 0
M  V30 5142 C 521.234 1.09086 3.1875 0
M  V30 5143 O 521.764 0.351985 4.00155 0
M  V30 5144 N 519.97 0.874693 2.77124 0
M  V30 5145 H 519.517 1.47726 2.11033 0
M  V30 5146 H 519.475 0.0903349 3.1427 0
M  V30 5147 N 523.247 -0.488276 1.49845 0
M  V30 5148 C 524.21 -1.57069 1.66919 0
M  V30 5149 C 525.21 -1.51445 0.540479 0
M  V30 5150 O 526.4 -1.5437 0.807188 0
M  V30 5151 C 523.532 -2.96718 1.67844 0
M  V30 5152 H 524.725 -1.43254 2.63474 0
M  V30 5153 H 522.278 -0.713435 1.39068 0
M  V30 5154 H 523.013 -3.15996 0.7292 0
M  V30 5155 H 522.798 -3.02208 2.49826 0
M  V30 5156 H 524.288 -3.75335 1.83066 0
M  V30 5157 N 524.725 -1.39134 -0.740242 0
M  V30 5158 C 525.953 -1.39334 -1.5295 0
M  V30 5159 C 526.368 0.0135008 -1.88795 0
M  V30 5160 O 525.725 0.983524 -1.5373 0
M  V30 5161 C 525.776 -2.2614 -2.82034 0
M  V30 5162 O 525.497 -3.61345 -2.47712 0
M  V30 5163 C 526.998 -2.34666 -3.76094 0
M  V30 5164 H 524.218 -0.476103 -0.472828 0
M  V30 5165 H 526.762 -1.82883 -0.9151 0
M  V30 5166 H 524.917 -1.86018 -3.39818 0
M  V30 5167 H 525.331 -4.07194 -3.30595 0
M  V30 5168 H 526.805 -2.99663 -4.63579 0
M  V30 5169 H 527.282 -1.36426 -4.17474 0
M  V30 5170 H 527.888 -2.75236 -3.2423 0
M  V30 5171 O 526.242 0.881206 -1.3534 0
M  V30 5172 H 526.933 1.51869 -1.20231 0
M  V30 END ATOM
M  V30 BEGIN BOND
M  V30 END BOND
M  V30 END CTAB
M  END
$$$$
