drugbank_target|P15273 Tyrosine-protein phosphatase YopH (DB01800; DB08433)
 OpenBabel12092119523D

  0  0  0     0  0            999 V3000
M  V30 BEGIN CTAB
M  V30 COUNTS 7129 7179 0 0 0
M  V30 BEGIN ATOM
M  V30 1 H -0.908 1.98254 -0.117106 0
M  V30 2 N 0 1.576 0 0
M  V30 3 C 0.933 2.03868 1.02534 0
M  V30 4 C 1.911 0.928543 1.3348 0
M  V30 5 O 3.095 1.19667 1.45644 0
M  V30 6 C 0.222 2.43627 2.35294 0
M  V30 7 C -0.732 3.65373 2.2001 0
M  V30 8 S 0.101 5.13292 1.52614 0
M  V30 9 C 1.257 5.56322 2.86805 0
M  V30 10 H 1.49 2.90518 0.631377 0
M  V30 11 H -0.977 1.52953 0.210867 0
M  V30 12 H 0.981 2.67203 3.11629 0
M  V30 13 H -0.358 1.57376 2.7183 0
M  V30 14 H -1.165 3.90944 3.18086 0
M  V30 15 H -1.563 3.418 1.51819 0
M  V30 16 H 0.729 5.58782 3.83104 0
M  V30 17 H 1.672 6.56266 2.65933 0
M  V30 18 H 2.08 4.83886 2.90714 0
M  V30 19 N 1.4781 -0.272755 1.55222 0
M  V30 20 C 2.4261 -1.35705 1.88909 0
M  V30 21 C 3.4201 -1.5112 0.765456 0
M  V30 22 O 4.6261 -1.52901 0.949802 0
M  V30 23 H 1.0011 -0.453868 0.59959 0
M  V30 24 H 2.9721 -1.04544 2.79487 0
M  V30 25 C 1.7211 -2.71049 2.17779 0
M  V30 26 H 1.0441 -2.59979 3.03728 0
M  V30 27 H 2.4841 -3.45858 2.45272 0
M  V30 28 C 0.9431 -3.22165 0.985473 0
M  V30 29 O 1.4731 -4.01096 0.220233 0
M  V30 30 N -0.3209 -2.7985 0.783108 0
M  V30 31 H -0.7739 -2.15775 1.40708 0
M  V30 32 H -0.8159 -3.14397 -0.0130392 0
M  V30 33 N 2.9562 -1.48159 -0.537278 0
M  V30 34 C 3.8862 -1.65029 -1.6519 0
M  V30 35 C 4.8672 -0.499281 -1.62607 0
M  V30 36 O 6.0522 -0.730972 -1.79918 0
M  V30 37 C 3.1822 -1.68303 -3.03795 0
M  V30 38 C 2.1362 -2.8283 -3.21234 0
M  V30 39 C 1.4622 -2.71189 -4.60826 0
M  V30 40 C 2.7622 -4.24211 -3.04701 0
M  V30 41 H 4.4562 -2.58341 -1.51328 0
M  V30 42 H 2.0022 -1.24325 -0.726585 0
M  V30 43 H 3.9552 -1.78693 -3.81637 0
M  V30 44 H 2.6792 -0.715635 -3.18663 0
M  V30 45 H 1.3382 -2.71983 -2.45807 0
M  V30 46 H 0.9862 -1.72435 -4.7252 0
M  V30 47 H 0.6862 -3.48035 -4.7344 0
M  V30 48 H 2.2102 -2.83537 -5.40777 0
M  V30 49 H 3.6242 -4.3593 -3.72341 0
M  V30 50 H 2.0212 -5.01998 -3.28813 0
M  V30 51 H 3.0912 -4.41184 -2.01209 0
M  V30 52 N 4.4343 0.785586 -1.36625 0
M  V30 53 C 5.6593 1.57963 -1.34397 0
M  V30 54 C 6.0843 1.87964 0.071526 0
M  V30 55 O 5.4423 1.48182 1.0446 0
M  V30 56 C 5.4903 2.87511 -2.17646 0
M  V30 57 O 4.5943 3.81281 -1.57158 0
M  V30 58 H 3.9353 0.479014 -0.459828 0
M  V30 59 H 6.4653 0.973411 -1.79961 0
M  V30 60 H 6.4753 3.36745 -2.30362 0
M  V30 61 H 5.1503 2.65002 -3.20541 0
M  V30 62 H 3.7273 3.39885 -1.53403 0
M  V30 63 N 5.9124 1.20967 1.01018 0
M  V30 64 C 6.8424 0.988272 2.11555 0
M  V30 65 C 7.8234 -0.0849778 1.69888 0
M  V30 66 O 9.0084 0.0738202 1.9406 0
M  V30 67 C 6.1384 0.546528 3.42973 0
M  V30 68 C 5.0924 1.56375 3.9841 0
M  V30 69 C 4.4184 0.97842 5.25672 0
M  V30 70 C 5.7184 2.94922 4.31066 0
M  V30 71 H 7.4124 1.91276 2.30334 0
M  V30 72 H 4.9584 0.921073 1.1069 0
M  V30 73 H 6.9114 0.378839 4.19694 0
M  V30 74 H 5.6354 -0.413598 3.23971 0
M  V30 75 H 4.2944 1.71891 3.23804 0
M  V30 76 H 3.9424 0.0101688 5.02999 0
M  V30 77 H 3.6424 1.65784 5.63728 0
M  V30 78 H 5.1664 0.821939 6.05043 0
M  V30 79 H 6.5804 2.8288 4.9865 0
M  V30 80 H 4.9774 3.5983 4.80253 0
M  V30 81 H 6.0474 3.4616 3.39561 0
M  V30 82 N 7.3905 -1.2043 1.01659 0
M  V30 83 C 8.6155 -1.94318 0.724942 0
M  V30 84 C 9.0405 -1.74266 -0.708034 0
M  V30 85 O 8.3985 -1.03694 -1.48719 0
M  V30 86 C 8.4465 -3.44486 1.06591 0
M  V30 87 O 7.5505 -4.12017 0.177599 0
M  V30 88 H 6.8915 -0.60708 0.26898 0
M  V30 89 H 9.4215 -1.52861 1.35995 0
M  V30 90 H 9.4315 -3.95106 1.01762 0
M  V30 91 H 8.1065 -3.58404 2.10997 0
M  V30 92 H 6.6835 -3.71821 0.283421 0
M  V30 93 N 8.8686 -0.792821 -1.36206 0
M  V30 94 C 10.1456 -0.290627 -1.93429 0
M  V30 95 C 10.5256 1.21773 -1.72437 0
M  V30 96 O 9.8736 2.0108 -1.08531 0
M  V30 97 C 10.0836 -0.686973 -3.42172 0
M  V30 98 C 11.4316 -0.668643 -4.19302 0
M  V30 99 O 12.4556 -0.627658 -3.50626 0
M  V30 100 O 11.3146 -0.714597 -5.41808 0
M  V30 101 H 8.4086 -0.0727927 -0.82379 0
M  V30 102 H 10.9546 -0.875593 -1.45367 0
M  V30 103 H 9.7266 -1.72711 -3.51122 0
M  V30 104 H 9.3496 -0.0760733 -3.97527 0
M  V30 105 N 10.3467 1.47872 -0.545128 0
M  V30 106 C 11.2767 2.32661 0.197793 0
M  V30 107 C 12.2577 1.43041 0.920504 0
M  V30 108 O 13.4427 1.71912 0.90333 0
M  V30 109 C 10.5727 3.24569 1.23582 0
M  V30 110 C 9.5267 4.23333 0.630323 0
M  V30 111 C 8.8527 5.0448 1.77211 0
M  V30 112 C 10.1527 5.20704 -0.407974 0
M  V30 113 H 11.8467 2.95024 -0.510045 0
M  V30 114 H 9.3927 1.4187 -0.246731 0
M  V30 115 H 11.3457 3.8272 1.76362 0
M  V30 116 H 10.0697 2.60236 1.97344 0
M  V30 117 H 8.7287 3.6639 0.123922 0
M  V30 118 H 8.3767 4.36561 2.49847 0
M  V30 119 H 8.0767 5.71339 1.37281 0
M  V30 120 H 9.6007 5.65487 2.3034 0
M  V30 121 H 11.0147 5.7329 0.033305 0
M  V30 122 H 9.4117 5.95699 -0.725486 0
M  V30 123 H 10.4817 4.66917 -1.30828 0
M  V30 124 N 11.8248 0.280983 1.55075 0
M  V30 125 C 12.7748 -0.618585 2.19448 0
M  V30 126 C 13.7588 -1.11401 1.16098 0
M  V30 127 O 14.9508 -1.0581 1.41891 0
M  V30 128 C 12.0798 -1.79951 2.92357 0
M  V30 129 C 11.1658 -1.321 4.03002 0
M  V30 130 N 11.5568 -0.559044 5.02701 0
M  V30 131 C 9.8548 -1.60346 4.16179 0
M  V30 132 C 10.5558 -0.306722 5.80891 0
M  V30 133 N 9.5318 -0.880825 5.36416 0
M  V30 134 H 13.3338 -0.0286638 2.93886 0
M  V30 135 H 10.8478 0.0848104 1.62178 0
M  V30 136 H 12.8448 -2.45531 3.36927 0
M  V30 137 H 11.5048 -2.39333 2.19431 0
M  V30 138 H 12.5158 -0.205827 5.17491 0
M  V30 139 H 9.1928 -2.20621 3.54447 0
M  V30 140 H 10.5828 0.30391 6.71212 0
M  V30 141 N 13.3029 -1.57598 0.00835791 0
M  V30 142 C 14.7189 -1.55764 -0.347822 0
M  V30 143 C 14.9189 -1.01186 -1.74252 0
M  V30 144 O 13.9749 -0.649371 -2.44007 0
M  V30 145 C 15.2879 -2.99927 -0.215407 0
M  V30 146 C 16.8359 -3.11656 -0.289725 0
M  V30 147 C 17.3109 -4.57621 -0.18634 0
M  V30 148 N 18.8019 -4.62557 -0.243978 0
M  V30 149 C 19.5369 -5.73094 -0.18745 0
M  V30 150 N 19.0329 -6.92753 -0.0810331 0
M  V30 151 N 20.8259 -5.61588 -0.239925 0
M  V30 152 H 12.9769 -1.91411 0.92062 0
M  V30 153 H 15.2399 -0.879562 0.353659 0
M  V30 154 H 14.9459 -3.43729 0.744512 0
M  V30 155 H 14.8199 -3.63865 -0.994097 0
M  V30 156 H 17.2069 -2.67779 -1.24009 0
M  V30 157 H 17.2879 -2.5048 0.51898 0
M  V30 158 H 16.9319 -5.02174 0.760519 0
M  V30 159 H 16.8619 -5.16752 -1.01364 0
M  V30 160 H 19.3529 -3.76481 -0.327217 0
M  V30 161 H 19.6659 -7.72787 -0.0440241 0
M  V30 162 H 18.0109 -6.94984 -0.0465419 0
M  V30 163 H 21.2019 -4.66996 -0.321317 0
M  V30 164 H 21.3749 -6.47714 -0.192407 0
M  V30 165 N 14.781 0.264519 -1.55364 0
M  V30 166 C 15.713 1.34965 -1.85248 0
M  V30 167 C 16.726 1.45136 -0.737525 0
M  V30 168 O 17.915 1.46801 -1.01547 0
M  V30 169 C 15.015 2.73008 -2.00797 0
M  V30 170 C 14.188 2.85324 -3.31525 0
M  V30 171 C 13.247 4.04097 -3.37034 0
M  V30 172 O 12.273 3.94455 -4.10358 0
M  V30 173 N 13.475 5.16458 -2.65049 0
M  V30 174 H 16.24 1.09672 -2.78913 0
M  V30 175 H 13.801 0.454635 -1.55386 0
M  V30 176 H 15.793 3.50772 -2.01844 0
M  V30 177 H 14.363 2.91087 -1.1396 0
M  V30 178 H 13.583 1.94377 -3.42945 0
M  V30 179 H 14.871 2.9049 -4.17724 0
M  V30 180 H 14.269 5.27181 -2.05175 0
M  V30 181 H 12.826 5.92422 -2.71809 0
M  V30 182 N 16.2591 1.48442 0.529413 0
M  V30 183 C 17.5051 1.5672 1.28711 0
M  V30 184 C 17.8381 0.2406 1.92704 0
M  V30 185 O 17.1131 -0.753454 1.79313 0
M  V30 186 C 17.3961 2.70587 2.37603 0
M  V30 187 C 17.2491 4.12953 1.78297 0
M  V30 188 C 18.5681 2.80212 3.39366 0
M  V30 189 H 15.6871 0.570474 0.466613 0
M  V30 190 H 18.3291 1.80617 0.589706 0
M  V30 191 H 16.4791 2.50342 2.97088 0
M  V30 192 H 18.1511 4.44639 1.22858 0
M  V30 193 H 16.3941 4.19927 1.0883 0
M  V30 194 H 17.0651 4.88448 2.57144 0
M  V30 195 H 19.5411 2.98553 2.89836 0
M  V30 196 H 18.4171 3.61611 4.12951 0
M  V30 197 H 18.6781 1.88393 3.99951 0
M  V30 198 N 17.7372 -0.778329 1.37039 0
M  V30 199 C 18.9622 -1.57248 1.35233 0
M  V30 200 C 19.3872 -1.87999 -0.0615568 0
M  V30 201 O 18.7452 -1.48734 -1.03672 0
M  V30 202 C 18.7932 -2.86353 2.19167 0
M  V30 203 O 17.8972 -3.80442 1.59178 0
M  V30 204 H 17.2382 -0.476569 0.462362 0
M  V30 205 H 19.7682 -0.963853 1.80474 0
M  V30 206 H 19.7782 -3.35519 2.32145 0
M  V30 207 H 18.4532 -2.63299 3.21942 0
M  V30 208 H 17.0302 -3.39067 1.55203 0
M  V30 209 N 19.2153 -1.21501 -1.00376 0
M  V30 210 C 20.6313 -0.972629 -1.26539 0
M  V30 211 C 20.8313 0.340257 -1.98606 0
M  V30 212 O 19.8873 1.06561 -2.28913 0
M  V30 213 C 21.2003 -2.16404 -2.08781 0
M  V30 214 C 22.7483 -2.20643 -2.22004 0
M  V30 215 C 23.2233 -3.39306 -3.07629 0
M  V30 216 N 24.7143 -3.39401 -3.15217 0
M  V30 217 C 25.4493 -4.27867 -3.81729 0
M  V30 218 N 24.9453 -5.26533 -4.5026 0
M  V30 219 N 26.7383 -4.15672 -3.78382 0
M  V30 220 H 18.8893 -2.05929 -0.520281 0
M  V30 221 H 21.1523 -0.901803 -0.292328 0
M  V30 222 H 20.8583 -3.11554 -1.63178 0
M  V30 223 H 20.7323 -2.15567 -3.09533 0
M  V30 224 H 23.1193 -1.26048 -2.66825 0
M  V30 225 H 23.2003 -2.25523 -1.20718 0
M  V30 226 H 22.8443 -4.34195 -2.63509 0
M  V30 227 H 22.7743 -3.31665 -4.09031 0
M  V30 228 H 25.2653 -2.67997 -2.66432 0
M  V30 229 H 25.5783 -5.90337 -4.98721 0
M  V30 230 H 23.9233 -5.30457 -4.49044 0
M  V30 231 H 27.1143 -3.3785 -3.23998 0
M  V30 232 H 27.2873 -4.84825 -4.2994 0
M  V30 233 N 20.6934 1.19889 -1.02296 0
M  V30 234 C 21.6234 2.25141 -0.619174 0
M  V30 235 C 22.6044 1.66051 0.368915 0
M  V30 236 O 23.7894 1.92546 0.252941 0
M  V30 237 C 20.9194 3.4728 0.0368783 0
M  V30 238 C 19.8734 4.19005 -0.872865 0
M  V30 239 C 19.1994 5.34637 -0.0822402 0
M  V30 240 C 20.4994 4.74452 -2.18387 0
M  V30 241 H 22.1934 2.59171 -1.49903 0
M  V30 242 H 19.7394 1.24579 -0.722222 0
M  V30 243 H 21.6924 4.20098 0.330958 0
M  V30 244 H 20.4164 3.12433 0.95149 0
M  V30 245 H 19.0754 3.48061 -1.15105 0
M  V30 246 H 18.7234 4.96034 0.83422 0
M  V30 247 H 18.4234 5.83557 -0.688149 0
M  V30 248 H 19.9474 6.10255 0.205238 0
M  V30 249 H 21.3614 5.39055 -1.95172 0
M  V30 250 H 19.7584 5.33834 -2.74119 0
M  V30 251 H 20.8284 3.92844 -2.84257 0
M  V30 252 N 22.1715 0.800033 1.35784 0
M  V30 253 C 23.4175 0.377901 1.99248 0
M  V30 254 C 23.7505 -1.05052 1.63333 0
M  V30 255 O 23.0255 -1.72768 0.893385 0
M  V30 256 C 23.3085 0.553922 3.55814 0
M  V30 257 C 23.1615 2.0268 4.01548 0
M  V30 258 C 24.4805 -0.0244802 4.40093 0
M  V30 259 H 21.5995 0.138782 0.723815 0
M  V30 260 H 24.2415 1.00835 1.61035 0
M  V30 261 H 22.3915 0.0172398 3.88496 0
M  V30 262 H 24.0635 2.62536 3.79305 0
M  V30 263 H 22.3065 2.5256 3.52698 0
M  V30 264 H 22.9775 2.10087 5.10458 0
M  V30 265 H 25.4535 0.433775 4.13833 0
M  V30 266 H 24.3295 0.128637 5.48749 0
M  V30 267 H 24.5905 -1.11758 4.27741 0
M  V30 268 N 23.6496 -1.47581 0.552962 0
M  V30 269 C 24.5816 -2.27997 -0.234533 0
M  V30 270 C 25.5946 -1.36753 -0.883321 0
M  V30 271 O 26.7836 -1.61612 -0.757889 0
M  V30 272 C 23.8836 -3.10879 -1.34935 0
M  V30 273 C 23.0566 -4.30056 -0.798158 0
M  V30 274 C 22.1156 -4.94567 -1.79694 0
M  V30 275 O 21.1416 -5.53087 -1.34474 0
M  V30 276 N 22.3436 -4.88878 -3.13015 0
M  V30 277 H 25.1086 -2.96222 0.455255 0
M  V30 278 H 22.6696 -1.57163 0.388761 0
M  V30 279 H 24.6616 -3.50903 -2.01616 0
M  V30 280 H 23.2316 -2.44924 -1.94244 0
M  V30 281 H 22.4516 -3.94174 0.0453079 0
M  V30 282 H 23.7396 -5.07152 -0.409173 0
M  V30 283 H 23.1376 -4.42526 -3.52402 0
M  V30 284 H 21.6946 -5.32934 -3.75266 0
M  V30 285 N 25.1277 -0.289203 -1.54924 0
M  V30 286 C 26.0597 0.625583 -2.20497 0
M  V30 287 C 27.0727 1.10667 -1.19402 0
M  V30 288 O 28.2617 1.02615 -1.46056 0
M  V30 289 C 25.3617 1.86702 -2.82835 0
M  V30 290 C 24.5347 1.5304 -4.09753 0
M  V30 291 C 23.5937 2.62576 -4.56005 0
M  V30 292 O 22.6197 2.28167 -5.21468 0
M  V30 293 N 23.8217 3.92901 -4.27328 0
M  V30 294 H 26.5867 0.0642801 -2.99631 0
M  V30 295 H 24.1477 -0.110896 -1.6152 0
M  V30 296 H 26.1397 2.59304 -3.10715 0
M  V30 297 H 24.7097 2.33702 -2.07611 0
M  V30 298 H 23.9297 0.637564 -3.8901 0
M  V30 299 H 25.2177 1.28072 -4.92418 0
M  V30 300 H 24.6157 4.23671 -3.74859 0
M  V30 301 H 23.1727 4.61837 -4.59946 0
M  V30 302 N 26.6058 1.57591 -0.0167156 0
M  V30 303 C 27.5158 2.1291 0.98521 0
M  V30 304 C 28.5318 1.07834 1.36557 0
M  V30 305 O 29.7078 1.39826 1.44951 0
M  V30 306 C 26.7728 2.63512 2.25305 0
M  V30 307 C 25.8338 3.83256 1.93426 0
M  V30 308 C 25.0668 4.31435 3.14165 0
M  V30 309 O 25.2898 3.78851 4.26413 0
M  V30 310 O 24.2238 5.23416 2.97186 0
M  V30 311 H 28.0498 2.98772 0.544888 0
M  V30 312 H 25.6348 1.48012 0.203141 0
M  V30 313 H 27.5168 2.96183 2.99756 0
M  V30 314 H 26.1918 1.8074 2.68542 0
M  V30 315 H 25.0988 3.55531 1.16398 0
M  V30 316 H 26.4318 4.67153 1.55013 0
M  V30 317 N 28.0839 -0.256276 1.55502 0
M  V30 318 C 29.3089 -1.00766 1.81276 0
M  V30 319 C 29.7339 -1.78524 0.59252 0
M  V30 320 O 29.0919 -1.75413 -0.45827 0
M  V30 321 C 29.1399 -1.92869 3.04687 0
M  V30 322 O 28.2439 -3.019 2.80945 0
M  V30 323 H 27.5849 -0.287224 0.598664 0
M  V30 324 H 30.1149 -0.280109 2.02674 0
M  V30 325 H 30.1249 -2.34511 3.33869 0
M  V30 326 H 28.7999 -1.35689 3.93143 0
M  V30 327 H 27.3769 -2.64454 2.62904 0
M  V30 328 N 29.562 -1.4872 -0.521534 0
M  V30 329 C 30.81 -1.56857 -1.27437 0
M  V30 330 C 31.131 -0.247982 -1.93417 0
M  V30 331 O 30.401 0.731151 -1.81744 0
M  V30 332 H 28.981 -0.577885 -0.473347 0
M  V30 333 H 31.643 -1.85233 -0.606205 0
M  V30 334 H 30.739 -2.35402 -2.0492 0
M  V30 335 N 31.0401 0.771051 -1.3745 0
M  V30 336 C 32.3171 1.519 -1.23231 0
M  V30 337 C 32.6971 2.10383 0.173809 0
M  V30 338 O 32.0451 1.95583 1.18151 0
M  V30 339 C 32.2551 2.59933 -2.32886 0
M  V30 340 C 33.6031 3.27316 -2.70461 0
M  V30 341 O 34.6271 2.70228 -2.32068 0
M  V30 342 O 33.4861 4.30531 -3.36608 0
M  V30 343 H 30.5801 0.672803 -0.480901 0
M  V30 344 H 33.1261 0.807957 -1.49232 0
M  V30 345 H 31.8981 2.14842 -3.27045 0
M  V30 346 H 31.5211 3.38637 -2.08353 0
M  V30 347 N 32.5182 1.22032 0.997298 0
M  V30 348 C 33.7582 1.05375 1.75144 0
M  V30 349 C 34.1222 -0.404696 1.87686 0
M  V30 350 O 35.3232 -0.691998 2.5974 0
M  V30 351 C 33.5942 1.74046 3.12158 0
M  V30 352 S 35.1532 1.72745 4.03366 0
M  V30 353 H 31.9712 0.377449 0.602539 0
M  V30 354 H 34.5732 1.54902 1.19272 0
M  V30 355 H 33.2772 2.79332 3.00669 0
M  V30 356 H 32.8082 1.24731 3.73103 0
M  V30 357 H 34.8232 0.774015 4.90126 0
M  V30 358 N 33.9963 -1.19345 1.0293 0
M  V30 359 C 35.2243 -1.92997 0.745644 0
M  V30 360 C 35.6393 -1.75519 -0.695589 0
M  V30 361 O 34.9963 -1.07737 -1.47306 0
M  V30 362 C 35.0473 -3.44741 1.08792 0
M  V30 363 O 34.7683 -3.61658 2.47256 0
M  V30 364 C 36.2693 -4.35515 0.827129 0
M  V30 365 H 33.4893 -0.613042 0.272801 0
M  V30 366 H 36.0333 -1.51473 1.3739 0
M  V30 367 H 34.1883 -3.84097 0.504832 0
M  V30 368 H 34.6023 -4.55514 2.60015 0
M  V30 369 H 36.0763 -5.40589 1.11658 0
M  V30 370 H 36.5533 -4.38552 -0.238436 0
M  V30 371 H 37.1593 -4.01841 1.39297 0
M  V30 372 N 35.4744 -0.807222 -1.35358 0
M  V30 373 C 36.7224 -0.387122 -1.98358 0
M  V30 374 C 37.0434 1.04942 -1.64354 0
M  V30 375 O 36.3134 1.72615 -0.926339 0
M  V30 376 H 34.8934 -0.140154 -0.733734 0
M  V30 377 H 37.5554 -1.0332 -1.6526 0
M  V30 378 H 36.6514 -0.493352 -3.08176 0
M  V30 379 N 36.9525 1.47285 -0.560781 0
M  V30 380 C 37.8995 2.30058 0.18491 0
M  V30 381 C 38.8695 1.39281 0.904986 0
M  V30 382 O 40.0545 1.68241 0.899979 0
M  V30 383 C 37.1945 3.23317 1.20666 0
M  V30 384 C 36.3075 4.29186 0.492285 0
M  V30 385 C 35.4425 5.09592 1.49964 0
M  V30 386 C 34.4815 6.07232 0.770439 0
M  V30 387 N 33.6185 6.80584 1.72479 0
M  V30 388 H 38.4585 2.93302 -0.527048 0
M  V30 389 H 35.9955 1.44568 -0.271738 0
M  V30 390 H 37.9535 3.75811 1.81168 0
M  V30 391 H 36.5835 2.61929 1.88661 0
M  V30 392 H 35.6355 3.7972 -0.227333 0
M  V30 393 H 36.9475 4.98738 -0.0787929 0
M  V30 394 H 36.1015 5.66254 2.17809 0
M  V30 395 H 34.8405 4.3995 2.10464 0
M  V30 396 H 33.8455 5.49745 0.0780846 0
M  V30 397 H 35.0705 6.78884 0.171134 0
M  V30 398 H 33.0165 6.1367 2.3183 0
M  V30 399 H 32.9335 7.46319 1.20596 0
M  V30 400 H 34.2015 7.41818 2.39428 0
M  V30 401 N 38.4306 0.297415 1.54768 0
M  V30 402 C 39.3606 -0.573494 2.26348 0
M  V30 403 C 40.3416 -1.14085 1.26169 0
M  V30 404 O 41.5266 -1.17086 1.54934 0
M  V30 405 C 38.6566 -1.74716 3.00153 0
M  V30 406 C 37.6106 -1.31032 4.07449 0
M  V30 407 C 36.9366 -2.56887 4.68949 0
M  V30 408 C 38.2366 -0.444183 5.20408 0
M  V30 409 H 39.9306 0.0235131 2.99391 0
M  V30 410 H 37.4766 0.0127488 1.43994 0
M  V30 411 H 39.4296 -2.3625 3.48947 0
M  V30 412 H 38.1536 -2.37035 2.24682 0
M  V30 413 H 36.8126 -0.718066 3.59499 0
M  V30 414 H 36.4606 -3.17512 3.90122 0
M  V30 415 H 36.1606 -2.2836 5.41411 0
M  V30 416 H 37.6846 -3.19229 5.20505 0
M  V30 417 H 39.0986 -0.9651 5.65118 0
M  V30 418 H 37.4956 -0.252846 5.99567 0
M  V30 419 H 38.5656 0.531609 4.81977 0
M  V30 420 N 39.9087 -1.5758 0.0250728 0
M  V30 421 C 41.3247 -1.56124 -0.331282 0
M  V30 422 C 41.5247 -1.03029 -1.73169 0
M  V30 423 O 40.5807 -0.675215 -2.43305 0
M  V30 424 C 41.8937 -3.00139 -0.183584 0
M  V30 425 C 43.4417 -3.11946 -0.256654 0
M  V30 426 C 43.9167 -4.57793 -0.137792 0
M  V30 427 N 45.4077 -4.6279 -0.194904 0
M  V30 428 C 46.1427 -5.7326 -0.126655 0
M  V30 429 N 45.6387 -6.928 -0.00755288 0
M  V30 430 N 47.4317 -5.61811 -0.180348 0
M  V30 431 H 39.5827 -1.90424 0.94087 0
M  V30 432 H 41.8457 -0.875761 0.362968 0
M  V30 433 H 41.5517 -3.4292 0.780927 0
M  V30 434 H 41.4257 -3.64899 -0.955448 0
M  V30 435 H 43.8127 -2.69079 -1.21162 0
M  V30 436 H 43.8937 -2.49915 0.545517 0
M  V30 437 H 43.5377 -5.01339 0.813739 0
M  V30 438 H 43.4677 -5.17798 -0.958775 0
M  V30 439 H 45.9587 -3.76807 -0.287267 0
M  V30 440 H 46.2717 -7.72791 0.0379428 0
M  V30 441 H 44.6167 -6.94995 0.0271731 0
M  V30 442 H 47.8077 -4.6731 -0.271767 0
M  V30 443 H 47.9807 -6.47882 -0.123697 0
M  V30 444 N 41.3868 0.248026 -1.55636 0
M  V30 445 C 42.6348 0.974295 -1.77065 0
M  V30 446 C 42.9558 1.85897 -0.588849 0
M  V30 447 O 42.2258 1.91868 0.395407 0
M  V30 448 H 40.8058 0.362733 -0.653019 0
M  V30 449 H 43.4678 0.266244 -1.93073 0
M  V30 450 H 42.5638 1.59667 -2.68166 0
M  V30 451 N 42.8649 1.48995 0.513639 0
M  V30 452 C 43.8129 1.65199 1.63744 0
M  V30 453 C 44.8069 0.51809 1.61283 0
M  V30 454 O 46.0129 0.697335 1.65943 0
M  V30 455 H 42.3879 0.52069 0.542574 0
M  V30 456 H 44.3589 2.59552 1.47226 0
M  V30 457 C 43.1079 1.72409 3.01945 0
M  V30 458 H 42.4309 2.59029 3.04539 0
M  V30 459 H 43.8709 1.87785 3.80148 0
M  V30 460 C 42.3299 0.46618 3.33659 0
M  V30 461 O 42.8599 -0.413744 3.99564 0
M  V30 462 N 41.0659 0.332931 2.88687 0
M  V30 463 H 40.6129 1.04996 2.35231 0
M  V30 464 H 40.5709 -0.507665 3.10274 0
M  V30 465 N 44.343 -0.763751 1.37857 0
M  V30 466 C 45.589 -1.52483 1.33704 0
M  V30 467 C 45.922 -1.94051 -0.0759612 0
M  V30 468 O 45.197 -1.64675 -1.03501 0
M  V30 469 C 45.48 -2.78441 2.28348 0
M  V30 470 C 45.333 -2.43075 3.78463 0
M  V30 471 C 46.652 -3.80415 2.21298 0
M  V30 472 H 43.771 -0.553169 0.487005 0
M  V30 473 H 46.413 -0.875562 1.68624 0
M  V30 474 H 44.563 -3.33842 1.987 0
M  V30 475 H 46.235 -1.93527 4.18742 0
M  V30 476 H 44.478 -1.75666 3.96641 0
M  V30 477 H 45.149 -3.33149 4.40132 0
M  V30 478 H 47.625 -3.34527 2.47449 0
M  V30 479 H 46.501 -4.66257 2.89647 0
M  V30 480 H 46.762 -4.25262 1.20849 0
M  V30 481 N 45.8211 -1.22559 -0.990812 0
M  V30 482 C 46.7841 -0.998863 -2.0629 0
M  V30 483 C 47.7841 0.0354834 -1.60761 0
M  V30 484 O 48.9741 -0.203231 -1.7301 0
M  V30 485 C 46.1061 -0.509203 -3.37076 0
M  V30 486 H 47.2991 -1.95014 -2.27837 0
M  V30 487 H 44.8521 -1.04456 -1.16269 0
M  V30 488 H 45.5871 0.446335 -3.21214 0
M  V30 489 H 45.3721 -1.25547 -3.71457 0
M  V30 490 H 46.8621 -0.370888 -4.1595 0
M  V30 491 N 47.2992 1.18797 -1.03562 0
M  V30 492 C 48.2622 2.20464 -0.626769 0
M  V30 493 C 49.2622 1.57721 0.313173 0
M  V30 494 O 50.4522 1.73917 0.0992615 0
M  V30 495 C 47.5842 3.40802 0.0818498 0
M  V30 496 H 48.7772 2.58149 -1.5264 0
M  V30 497 H 46.3302 1.32593 -0.827578 0
M  V30 498 H 47.0652 3.08642 0.995518 0
M  V30 499 H 46.8502 3.8758 -0.593652 0
M  V30 500 H 48.3402 4.16092 0.354584 0
M  V30 501 N 48.7773 0.814389 1.34928 0
M  V30 502 C 49.7253 0.218424 2.31572 0
M  V30 503 C 50.7193 -0.636128 1.57002 0
M  V30 504 O 51.9253 -0.52842 1.72069 0
M  V30 505 H 48.3003 0.0518799 0.750208 0
M  V30 506 H 50.2713 1.04852 2.79372 0
M  V30 507 C 49.0203 -0.61207 3.4227 0
M  V30 508 H 48.3433 0.0361578 3.99784 0
M  V30 509 H 49.7833 -0.995317 4.12152 0
M  V30 510 C 48.2423 -1.78087 2.85984 0
M  V30 511 O 48.7723 -2.8787 2.80168 0
M  V30 512 N 46.9783 -1.59488 2.42924 0
M  V30 513 H 46.5253 -0.701874 2.47854 0
M  V30 514 H 46.4833 -2.37846 2.05613 0
M  V30 515 N 50.2554 -1.46986 0.568584 0
M  V30 516 C 51.2024 -2.30153 -0.172707 0
M  V30 517 C 52.1724 -1.39759 -0.897586 0
M  V30 518 O 53.3574 -1.68716 -0.891044 0
M  V30 519 C 50.4974 -3.23952 -1.1895 0
M  V30 520 C 49.6104 -4.29441 -0.469517 0
M  V30 521 C 48.7454 -5.1038 -1.47259 0
M  V30 522 C 47.7844 -6.07632 -0.738225 0
M  V30 523 N 46.9214 -6.8149 -1.68868 0
M  V30 524 H 51.7614 -2.93019 0.542596 0
M  V30 525 H 49.2984 -1.44422 0.279401 0
M  V30 526 H 51.2564 -3.76767 -1.79173 0
M  V30 527 H 49.8864 -2.62926 -1.87269 0
M  V30 528 H 48.9384 -3.79594 0.247467 0
M  V30 529 H 50.2504 -4.98689 0.105241 0
M  V30 530 H 49.4044 -5.67402 -2.14803 0
M  V30 531 H 48.1434 -4.4106 -2.08128 0
M  V30 532 H 47.1484 -5.49778 -0.0489293 0
M  V30 533 H 48.3734 -6.78966 -0.135129 0
M  V30 534 H 46.3194 -6.14891 -2.28573 0
M  V30 535 H 46.2364 -7.46948 -1.16636 0
M  V30 536 H 47.5044 -7.43078 -2.3549 0
M  V30 537 N 51.7335 -0.305618 -1.54608 0
M  V30 538 C 52.6435 0.57778 -2.27374 0
M  V30 539 C 53.6595 1.14451 -1.31061 0
M  V30 540 O 54.8355 1.16831 -1.6405 0
M  V30 541 C 51.9005 1.73123 -3.00382 0
M  V30 542 C 50.9615 1.19812 -4.12242 0
M  V30 543 C 50.1945 2.2966 -4.81759 0
M  V30 544 O 50.4175 3.49651 -4.50666 0
M  V30 545 O 49.3515 1.96091 -5.69062 0
M  V30 546 H 53.1775 -0.012624 -3.03697 0
M  V30 547 H 50.7625 -0.0719184 -1.49227 0
M  V30 548 H 52.6445 2.40315 -3.4616 0
M  V30 549 H 51.3195 2.30815 -2.26949 0
M  V30 550 H 50.2265 0.491798 -3.70853 0
M  V30 551 H 51.5595 0.666566 -4.87666 0
M  V30 552 N 53.2116 1.57565 -0.0334293 0
M  V30 553 C 54.4396 1.9628 0.654347 0
M  V30 554 C 54.8546 0.910138 1.65414 0
M  V30 555 O 54.2116 -0.107595 1.82183 0
M  V30 556 C 54.2626 3.35067 1.35693 0
M  V30 557 O 53.9836 4.36296 0.397191 0
M  V30 558 C 55.4846 3.88439 2.13613 0
M  V30 559 H 52.7046 0.646369 0.180132 0
M  V30 560 H 55.2486 2.04282 -0.0944721 0
M  V30 561 H 53.4036 3.2827 2.05712 0
M  V30 562 H 53.8176 5.1678 0.896597 0
M  V30 563 H 55.2916 4.8788 2.58219 0
M  V30 564 H 55.7686 3.22914 2.97696 0
M  V30 565 H 56.3746 3.98516 1.48543 0
M  V30 566 N 54.6897 -0.239769 1.55765 0
M  V30 567 C 55.9177 -0.98417 1.81994 0
M  V30 568 C 56.3327 -1.7867 0.610124 0
M  V30 569 O 55.6897 -1.77571 -0.421271 0
M  V30 570 C 55.7407 -1.91635 3.06526 0
M  V30 571 O 55.4617 -1.14629 4.22838 0
M  V30 572 C 56.9627 -2.77616 3.45607 0
M  V30 573 H 54.1827 -0.28928 0.605441 0
M  V30 574 H 56.7267 -0.260499 2.02834 0
M  V30 575 H 54.8817 -2.5942 2.87715 0
M  V30 576 H 55.2957 -1.77745 4.93464 0
M  V30 577 H 56.7697 -3.38759 4.35828 0
M  V30 578 H 57.2467 -3.4909 2.6652 0
M  V30 579 H 57.8527 -2.15271 3.66795 0
M  V30 580 N 56.1678 -1.49265 -0.50573 0
M  V30 581 C 57.4148 -1.58513 -1.26015 0
M  V30 582 C 57.7428 -0.26972 -1.92621 0
M  V30 583 O 56.9978 0.741997 -1.81088 0
M  V30 584 C 57.2968 -2.69008 -2.35308 0
M  V30 585 C 56.9628 -4.10662 -1.86192 0
M  V30 586 C 55.6248 -4.49212 -1.72516 0
M  V30 587 C 57.9768 -4.99336 -1.49375 0
M  V30 588 C 55.3048 -5.74214 -1.20394 0
M  V30 589 C 57.6568 -6.24852 -0.987072 0
M  V30 590 C 56.3208 -6.62236 -0.836669 0
M  V30 591 H 55.5908 -0.580041 -0.461122 0
M  V30 592 H 58.2378 -1.83078 -0.561665 0
M  V30 593 H 56.5428 -2.38396 -3.10926 0
M  V30 594 H 58.2398 -2.73373 -2.93374 0
M  V30 595 H 54.8298 -3.8023 -1.97795 0
M  V30 596 H 59.0138 -4.70212 -1.5879 0
M  V30 597 H 54.2698 -6.01883 -1.07458 0
M  V30 598 H 58.4438 -6.92944 -0.692983 0
M  V30 599 H 56.0708 -7.58979 -0.430607 0
M  V30 600 N 57.6459 0.756429 -1.3826 0
M  V30 601 C 58.5779 1.87971 -1.31147 0
M  V30 602 C 59.5909 1.61248 -0.224239 0
M  V30 603 O 60.7799 1.71881 -0.481581 0
M  V30 604 C 57.8799 3.23545 -1.00857 0
M  V30 605 C 57.0529 3.77794 -2.20432 0
M  V30 606 C 56.1119 4.91877 -1.86931 0
M  V30 607 O 55.1379 5.06659 -2.59395 0
M  V30 608 N 56.3399 5.74643 -0.822568 0
M  V30 609 H 59.1049 1.94585 -2.2794 0
M  V30 610 H 56.6659 0.936234 -1.32084 0
M  V30 611 H 58.6579 3.97403 -0.765021 0
M  V30 612 H 57.2279 3.12335 -0.128687 0
M  V30 613 H 56.4479 2.95534 -2.6087 0
M  V30 614 H 57.7359 4.10771 -3.00241 0
M  V30 615 H 57.1339 5.65266 -0.221575 0
M  V30 616 H 55.6909 6.48661 -0.638899 0
M  V30 617 N 59.124 1.23083 0.984299 0
M  V30 618 C 60.372 1.05848 1.72165 0
M  V30 619 C 60.693 -0.406049 1.90726 0
M  V30 620 O 59.963 -1.29139 1.47309 0
M  V30 621 H 58.543 0.388685 0.637913 0
M  V30 622 H 61.205 1.54736 1.18503 0
M  V30 623 H 60.301 1.54327 2.71274 0
M  V30 624 N 60.6021 -1.18246 1.0419 0
M  V30 625 C 61.5321 -2.24127 0.654914 0
M  V30 626 C 62.5131 -1.66617 -0.342451 0
M  V30 627 O 63.6981 -1.92924 -0.222277 0
M  V30 628 C 60.8281 -3.47295 0.0183757 0
M  V30 629 C 59.7821 -4.17563 0.939414 0
M  V30 630 C 59.1081 -5.34438 0.167286 0
M  V30 631 C 60.4081 -4.70917 2.25908 0
M  V30 632 H 62.1021 -2.56753 1.54007 0
M  V30 633 H 59.6481 -1.23414 0.74195 0
M  V30 634 H 61.6011 -4.20572 -0.264082 0
M  V30 635 H 60.3251 -3.13907 -0.901664 0
M  V30 636 H 58.9841 -3.46186 1.20628 0
M  V30 637 H 58.6321 -4.97298 -0.7552 0
M  V30 638 H 58.3321 -5.82388 0.780901 0
M  V30 639 H 59.8561 -6.10504 -0.108125 0
M  V30 640 H 61.2701 -5.35882 2.03724 0
M  V30 641 H 59.6671 -5.29406 2.82577 0
M  V30 642 H 60.7371 -3.88272 2.9047 0
M  V30 643 N 62.0802 -0.821533 -1.34494 0
M  V30 644 C 63.3082 -0.421884 -2.02553 0
M  V30 645 C 63.7232 0.971745 -1.61872 0
M  V30 646 O 63.0802 1.62864 -0.823496 0
M  V30 647 C 63.1312 -0.51285 -3.57844 0
M  V30 648 O 62.8522 -1.85155 -3.97051 0
M  V30 649 C 64.3532 -0.107921 -4.43169 0
M  V30 650 H 61.5732 -0.169482 -0.649243 0
M  V30 651 H 64.1172 -1.1093 -1.71798 0
M  V30 652 H 62.2722 0.126474 -3.87193 0
M  V30 653 H 62.6862 -1.82482 -4.91732 0
M  V30 654 H 64.1602 -0.222657 -5.51551 0
M  V30 655 H 64.6372 0.948401 -4.28838 0
M  V30 656 H 65.2432 -0.720989 -4.19144 0
M  V30 657 N 63.5583 1.46682 -0.576371 0
M  V30 658 C 64.8073 2.01619 -0.0572825 0
M  V30 659 C 65.1203 1.45417 1.30818 0
M  V30 660 O 66.3263 1.92133 1.91825 0
M  V30 661 C 64.7823 3.59863 -0.0518371 0
M  V30 662 C 64.3903 4.25059 -1.41523 0
M  V30 663 C 66.1343 4.2248 0.413639 0
M  V30 664 C 64.0413 5.75364 -1.36785 0
M  V30 665 H 62.9713 0.753794 -0.0176448 0
M  V30 666 H 65.6223 1.68481 -0.727076 0
M  V30 667 H 64.0043 3.90048 0.683994 0
M  V30 668 H 65.1783 4.06491 -2.17029 0
M  V30 669 H 63.4933 3.7451 -1.8202 0
M  V30 670 H 66.0903 5.3265 0.467779 0
M  V30 671 H 66.4333 3.90976 1.42982 0
M  V30 672 H 66.9663 3.96897 -0.267929 0
M  V30 673 H 63.7053 6.11518 -2.36063 0
M  V30 674 H 63.2253 5.96214 -0.654895 0
M  V30 675 H 64.9043 6.37955 -1.07805 0
M  V30 676 N 65.0364 0.313813 1.54444 0
M  V30 677 C 65.9994 -0.54379 2.22656 0
M  V30 678 C 66.9994 -1.05124 1.21678 0
M  V30 679 O 68.1894 -0.945225 1.46325 0
M  V30 680 C 65.3214 -1.75427 2.92298 0
M  V30 681 H 66.5144 0.0523599 2.99854 0
M  V30 682 H 64.0674 0.0647834 1.56166 0
M  V30 683 H 64.8024 -2.38991 2.19211 0
M  V30 684 H 64.5874 -1.39791 3.66334 0
M  V30 685 H 66.0774 -2.36325 3.44297 0
M  V30 686 N 66.5145 -1.57545 0.0417849 0
M  V30 687 C 67.7395 -1.97035 -0.647455 0
M  V30 688 C 68.1645 -0.918775 -1.64135 0
M  V30 689 O 67.5225 0.119006 -1.80909 0
M  V30 690 C 67.5705 -3.35609 -1.31905 0
M  V30 691 O 66.6745 -3.3287 -2.43457 0
M  V30 692 H 66.0155 -0.64211 -0.169086 0
M  V30 693 H 68.5455 -2.04318 0.107399 0
M  V30 694 H 68.5555 -3.72126 -1.67291 0
M  V30 695 H 67.2305 -4.11685 -0.590586 0
M  V30 696 H 65.8075 -3.08087 -2.10088 0
M  V30 697 N 67.9926 0.231505 -1.5589 0
M  V30 698 C 69.2406 0.955461 -1.78088 0
M  V30 699 C 69.5616 1.85262 -0.608533 0
M  V30 700 O 68.8316 1.92277 0.375035 0
M  V30 701 H 67.4116 0.355787 -0.656829 0
M  V30 702 H 70.0736 0.245751 -1.93344 0
M  V30 703 H 69.1696 1.56814 -2.69844 0
M  V30 704 N 69.4707 1.49531 0.497807 0
M  V30 705 C 70.4337 1.65916 1.58128 0
M  V30 706 C 71.4337 0.530825 1.51786 0
M  V30 707 O 72.6237 0.797342 1.54881 0
M  V30 708 C 69.7557 1.65951 2.9778 0
M  V30 709 H 70.9487 2.62556 1.44929 0
M  V30 710 H 68.5017 1.38611 0.722275 0
M  V30 711 H 69.2367 0.709065 3.16453 0
M  V30 712 H 69.0217 2.47897 3.03792 0
M  V30 713 H 70.5117 1.80673 3.76493 0
M  V30 714 N 70.9488 -0.749086 1.3866 0
M  V30 715 C 72.3648 -1.05276 1.19955 0
M  V30 716 C 72.5648 -2.01435 0.05134 0
M  V30 717 O 71.6208 -2.45232 -0.60147 0
M  V30 718 C 72.9338 -1.62853 2.52783 0
M  V30 719 C 74.4818 -1.75002 2.59506 0
M  V30 720 C 74.9568 -2.35991 3.92521 0
M  V30 721 N 76.4478 -2.43416 3.94085 0
M  V30 722 C 77.1828 -2.91511 4.9377 0
M  V30 723 N 76.6788 -3.39608 6.03853 0
M  V30 724 N 78.4718 -2.90592 4.81157 0
M  V30 725 H 70.6228 -0.111066 2.12109 0
M  V30 726 H 72.8858 -0.111901 0.941373 0
M  V30 727 H 72.5918 -0.99664 3.37283 0
M  V30 728 H 72.4658 -2.61854 2.715 0
M  V30 729 H 74.8528 -2.37317 1.75398 0
M  V30 730 H 74.9338 -0.74693 2.44652 0
M  V30 731 H 74.5778 -1.74308 4.77053 0
M  V30 732 H 74.5078 -3.3695 4.04688 0
M  V30 733 H 76.9988 -2.09405 3.14576 0
M  V30 734 H 77.3118 -3.74775 6.75843 0
M  V30 735 H 75.6568 -3.37653 6.07466 0
M  V30 736 H 78.8478 -2.52332 3.94267 0
M  V30 737 H 79.0208 -3.27762 5.58996 0
M  V30 738 N 72.4269 -1.23603 -0.977757 0
M  V30 739 C 73.3369 -1.03632 -2.1047 0
M  V30 740 C 74.3529 0.0199435 -1.73989 0
M  V30 741 O 75.5289 -0.176076 -2.00629 0
M  V30 742 C 72.5939 -0.63276 -3.40877 0
M  V30 743 C 71.6549 -1.76437 -3.91367 0
M  V30 744 C 70.8879 -1.37997 -5.15551 0
M  V30 745 O 71.1109 -0.265357 -5.69782 0
M  V30 746 O 70.0449 -2.20201 -5.60174 0
M  V30 747 H 73.8709 -1.98086 -2.30208 0
M  V30 748 H 71.4559 -1.02332 -1.08851 0
M  V30 749 H 73.3379 -0.418761 -4.19314 0
M  V30 750 H 72.0129 0.282754 -3.22463 0
M  V30 751 H 70.9199 -2.03304 -3.14036 0
M  V30 752 H 72.2529 -2.6583 -4.14241 0
M  V30 753 N 73.905 1.17692 -1.04816 0
M  V30 754 C 75.13 1.92327 -0.776207 0
M  V30 755 C 75.555 1.76082 0.661581 0
M  V30 756 O 74.913 1.076 1.45917 0
M  V30 757 C 74.961 3.41539 -1.15687 0
M  V30 758 O 74.065 4.11402 -0.286775 0
M  V30 759 H 73.406 0.599735 -0.284981 0
M  V30 760 H 75.936 1.49201 -1.4 0
M  V30 761 H 75.946 3.92269 -1.12202 0
M  V30 762 H 74.621 3.52684 -2.20425 0
M  V30 763 H 73.198 3.70939 -0.381903 0
M  V30 764 N 75.3831 0.828654 1.34056 0
M  V30 765 C 76.2931 0.256725 2.33191 0
M  V30 766 C 77.3091 -0.611898 1.62886 0
M  V30 767 O 78.4851 -0.51844 1.94613 0
M  V30 768 C 75.5501 -0.567238 3.42028 0
M  V30 769 C 74.6111 0.324458 4.28072 0
M  V30 770 C 73.8441 -0.460274 5.31712 0
M  V30 771 O 74.0671 -1.693 5.44696 0
M  V30 772 O 73.0011 0.160391 6.01686 0
M  V30 773 H 76.8271 1.07739 2.83947 0
M  V30 774 H 74.4121 0.59093 1.37217 0
M  V30 775 H 76.2941 -1.03582 4.08471 0
M  V30 776 H 74.9691 -1.36513 2.93506 0
M  V30 777 H 73.8761 0.840659 3.64532 0
M  V30 778 H 75.2091 1.08685 4.8005 0
M  V30 779 N 76.8612 -1.46375 0.584142 0
M  V30 780 C 77.8082 -2.30323 -0.148286 0
M  V30 781 C 78.7782 -1.40703 -0.882713 0
M  V30 782 O 79.9632 -1.69651 -0.873099 0
M  V30 783 C 77.1032 -3.25196 -1.15507 0
M  V30 784 C 76.2162 -4.29915 -0.423943 0
M  V30 785 C 75.3512 -5.11914 -1.41838 0
M  V30 786 C 74.3902 -6.08381 -0.673736 0
M  V30 787 N 73.5272 -6.83242 -1.6163 0
M  V30 788 H 78.3672 -2.92427 0.573644 0
M  V30 789 H 75.9042 -1.44118 0.294703 0
M  V30 790 H 77.8622 -3.78646 -1.75166 0
M  V30 791 H 76.4922 -2.64898 -1.8447 0
M  V30 792 H 75.5442 -3.7931 0.287714 0
M  V30 793 H 76.8562 -4.98549 0.158128 0
M  V30 794 H 76.0102 -5.69648 -2.08773 0
M  V30 795 H 74.7492 -4.43243 -2.03438 0
M  V30 796 H 73.7542 -5.49799 0.00938483 0
M  V30 797 H 74.9792 -6.79071 -0.0631082 0
M  V30 798 H 72.9252 -6.1728 -2.22038 0
M  V30 799 H 72.8422 -7.48144 -1.08707 0
M  V30 800 H 74.1102 -7.45534 -2.27596 0
M  V30 801 N 78.3393 -0.321999 -1.54275 0
M  V30 802 C 79.5853 0.281461 -2.00837 0
M  V30 803 C 79.9183 1.51909 -1.20985 0
M  V30 804 O 79.1933 1.923 -0.291733 0
M  V30 805 C 79.4763 0.617162 -3.54772 0
M  V30 806 C 79.3293 -0.631064 -4.45351 0
M  V30 807 C 80.6483 1.43542 -4.16033 0
M  V30 808 H 77.7673 0.100826 -0.730071 0
M  V30 809 H 80.4093 -0.438268 -1.84876 0
M  V30 810 H 78.5593 1.23034 -3.68504 0
M  V30 811 H 80.2313 -1.26934 -4.43492 0
M  V30 812 H 78.4743 -1.26025 -4.15091 0
M  V30 813 H 79.1453 -0.351735 -5.50878 0
M  V30 814 H 81.6213 0.917134 -4.05867 0
M  V30 815 H 80.4973 1.63907 -5.23856 0
M  V30 816 H 80.7583 2.43108 -3.69257 0
M  V30 817 N 79.8174 1.5752 -0.0501392 0
M  V30 818 C 81.0644 1.9265 0.623874 0
M  V30 819 C 81.3924 0.928411 1.70912 0
M  V30 820 O 80.6474 -0.0594525 1.9561 0
M  V30 821 C 80.9464 3.34467 1.25963 0
M  V30 822 C 80.6124 4.49883 0.302689 0
M  V30 823 C 79.2744 4.81184 0.0393636 0
M  V30 824 C 81.6264 5.20002 -0.353205 0
M  V30 825 C 78.9544 5.79951 -0.887308 0
M  V30 826 C 81.3064 6.1976 -1.26806 0
M  V30 827 C 79.9704 6.49491 -1.54007 0
M  V30 828 H 79.2404 0.704957 0.228292 0
M  V30 829 H 81.8874 1.91146 -0.116398 0
M  V30 830 H 80.1924 3.32333 2.07514 0
M  V30 831 H 81.8894 3.58928 1.78806 0
M  V30 832 H 78.4794 4.25457 0.518109 0
M  V30 833 H 82.6634 4.96033 -0.162854 0
M  V30 834 H 77.9194 6.01322 -1.10553 0
M  V30 835 H 82.0934 6.73205 -1.78236 0
M  V30 836 H 79.7204 7.25837 -2.25976 0
M  V30 837 N 81.2955 -0.223234 1.56011 0
M  V30 838 C 82.2585 -1.26014 1.9145 0
M  V30 839 C 83.2585 -1.3989 0.792937 0
M  V30 840 O 84.4485 -1.38184 1.0607 0
M  V30 841 C 81.5805 -2.63422 2.16383 0
M  V30 842 H 82.7735 -0.95796 2.84189 0
M  V30 843 H 80.3265 -0.463576 1.49267 0
M  V30 844 H 81.0615 -2.98741 1.2619 0
M  V30 845 H 80.8465 -2.54728 2.98088 0
M  V30 846 H 82.3365 -3.38249 2.44903 0
M  V30 847 N 82.7736 -1.49793 -0.48987 0
M  V30 848 C 83.7056 -1.63413 -1.60713 0
M  V30 849 C 84.7186 -0.516329 -1.54395 0
M  V30 850 O 85.9076 -0.788812 -1.60125 0
M  V30 851 C 83.0076 -1.58516 -2.99543 0
M  V30 852 C 82.1806 -2.86016 -3.30928 0
M  V30 853 C 81.2396 -2.74018 -4.49222 0
M  V30 854 O 80.2656 -3.47964 -4.50455 0
M  V30 855 N 81.4676 -1.86309 -5.4979 0
M  V30 856 H 84.2326 -2.59777 -1.49452 0
M  V30 857 H 81.7936 -1.47022 -0.677955 0
M  V30 858 H 83.7856 -1.48128 -3.76617 0
M  V30 859 H 82.3556 -0.69965 -3.0467 0
M  V30 860 H 81.5756 -3.10672 -2.42645 0
M  V30 861 H 82.8636 -3.70521 -3.487 0
M  V30 862 H 82.2616 -1.2551 -5.51601 0
M  V30 863 H 80.8186 -1.81837 -6.25922 0
M  V30 864 N 84.2517 0.741722 -1.39055 0
M  V30 865 C 85.4797 1.53098 -1.39171 0
M  V30 866 C 85.8947 1.88794 0.0155099 0
M  V30 867 O 85.2517 1.53626 0.985159 0
M  V30 868 C 85.3027 2.82274 -2.2584 0
M  V30 869 O 85.0237 2.48097 -3.61081 0
M  V30 870 C 86.5247 3.76343 -2.34266 0
M  V30 871 H 83.7447 0.473335 -0.4756 0
M  V30 872 H 86.2887 0.917045 -1.82785 0
M  V30 873 H 84.4437 3.40015 -1.85656 0
M  V30 874 H 84.8577 3.31029 -4.06842 0
M  V30 875 H 86.3317 4.63898 -2.9917 0
M  V30 876 H 86.8087 4.17619 -1.35982 0
M  V30 877 H 87.4147 3.24523 -2.74891 0
M  V30 878 N 85.7298 1.2412 0.971189 0
M  V30 879 C 86.9758 1.08041 1.71625 0
M  V30 880 C 87.3088 -0.380407 1.90438 0
M  V30 881 O 86.5838 -1.28127 1.46334 0
M  V30 882 C 86.8668 1.81682 3.10908 0
M  V30 883 C 86.7198 3.35493 2.99608 0
M  V30 884 C 88.0388 1.58671 4.10501 0
M  V30 885 H 85.1578 0.39388 0.622919 0
M  V30 886 H 87.7998 1.52743 1.13003 0
M  V30 887 H 85.9498 1.43684 3.60953 0
M  V30 888 H 87.6218 3.83068 2.57015 0
M  V30 889 H 85.8648 3.64052 2.35899 0
M  V30 890 H 86.5358 3.82217 3.98264 0
M  V30 891 H 89.0118 1.91719 3.69301 0
M  V30 892 H 87.8878 2.1266 5.06031 0
M  V30 893 H 88.1488 0.524161 4.38982 0
M  V30 894 N 87.2079 -1.17134 1.05439 0
M  V30 895 C 88.1379 -2.2342 0.678649 0
M  V30 896 C 89.1189 -1.66971 -0.32476 0
M  V30 897 O 90.3039 -1.93149 -0.201802 0
M  V30 898 C 87.4339 -3.47256 0.0552099 0
M  V30 899 C 86.3879 -4.16543 0.98365 0
M  V30 900 C 85.7139 -5.34231 0.223961 0
M  V30 901 C 87.0139 -4.68495 2.3089 0
M  V30 902 H 88.7079 -2.55105 1.56722 0
M  V30 903 H 86.2539 -1.2262 0.754998 0
M  V30 904 H 88.2069 -4.20828 -0.21946 0
M  V30 905 H 86.9309 -3.14846 -0.868319 0
M  V30 906 H 85.5899 -3.44887 1.24293 0
M  V30 907 H 85.2379 -4.98071 -0.702412 0
M  V30 908 H 84.9379 -5.81527 0.842627 0
M  V30 909 H 86.4619 -6.10585 -0.0433671 0
M  V30 910 H 87.8759 -5.33691 2.09396 0
M  V30 911 H 86.2729 -5.26379 2.88176 0
M  V30 912 H 87.3429 -3.85169 2.94572 0
M  V30 913 N 88.686 -0.835752 -1.33615 0
M  V30 914 C 89.911 -0.442389 -2.02627 0
M  V30 915 C 90.336 0.947735 -1.62479 0
M  V30 916 O 89.694 1.61907 -0.815826 0
M  V30 917 C 89.742 -0.567216 -3.56111 0
M  V30 918 O 88.846 0.407799 -4.10379 0
M  V30 919 H 88.187 -0.180278 -0.639059 0
M  V30 920 H 90.717 -1.12972 -1.70583 0
M  V30 921 H 90.727 -0.447708 -4.05536 0
M  V30 922 H 89.402 -1.58103 -3.84677 0
M  V30 923 H 87.979 0.246107 -3.72087 0
M  V30 924 N 90.1641 1.46063 -0.591896 0
M  V30 925 C 91.1141 2.27458 0.157172 0
M  V30 926 C 92.0981 1.3641 0.853301 0
M  V30 927 O 93.2901 1.60517 0.74588 0
M  V30 928 C 90.4191 3.22956 1.16423 0
M  V30 929 C 89.5051 4.2149 0.469742 0
M  V30 930 N 89.8961 5.03519 -0.479839 0
M  V30 931 C 88.1941 4.40161 0.719319 0
M  V30 932 C 88.8951 5.74904 -0.886591 0
M  V30 933 N 87.8711 5.43097 -0.233731 0
M  V30 934 H 91.6731 2.88272 -0.572392 0
M  V30 935 H 89.1871 1.57024 -0.414375 0
M  V30 936 H 91.1841 3.79986 1.71513 0
M  V30 937 H 89.8441 2.63701 1.89451 0
M  V30 938 H 90.8551 5.1078 -0.855823 0
M  V30 939 H 87.5321 3.92046 1.43548 0
M  V30 940 H 88.9221 6.50844 -1.66888 0
M  V30 941 N 91.6422 0.330177 1.54103 0
M  V30 942 C 92.8882 -0.270806 2.00984 0
M  V30 943 C 93.2212 -1.51265 1.21789 0
M  V30 944 O 92.4962 -1.92142 0.301927 0
M  V30 945 C 92.7792 -0.598339 3.55094 0
M  V30 946 C 92.6322 0.654674 4.4501 0
M  V30 947 C 93.9512 -1.41334 4.16789 0
M  V30 948 H 91.0702 -0.0969531 0.730595 0
M  V30 949 H 93.7122 0.448066 1.84641 0
M  V30 950 H 91.8622 -1.21078 3.69151 0
M  V30 951 H 93.5342 1.29285 4.42813 0
M  V30 952 H 91.7772 1.28224 4.14416 0
M  V30 953 H 92.4482 0.380944 5.50684 0
M  V30 954 H 94.9242 -0.895597 4.06347 0
M  V30 955 H 93.8002 -1.61127 5.24718 0
M  V30 956 H 94.0612 -2.41146 3.70541 0
M  V30 957 N 93.1203 -1.57491 0.0584922 0
M  V30 958 C 94.0833 -2.1085 -0.898617 0
M  V30 959 C 95.0833 -1.02964 -1.23511 0
M  V30 960 O 96.2733 -1.29007 -1.17059 0
M  V30 961 C 93.4053 -2.59881 -2.20623 0
M  V30 962 H 94.5983 -2.96715 -0.435936 0
M  V30 963 H 92.1513 -1.55141 -0.190023 0
M  V30 964 H 92.8863 -1.77431 -2.71457 0
M  V30 965 H 92.6713 -3.38727 -1.97501 0
M  V30 966 H 94.1613 -3.01285 -2.89166 0
M  V30 967 N 94.5984 0.214957 -1.56127 0
M  V30 968 C 95.5464 1.28601 -1.93816 0
M  V30 969 C 96.5404 1.48175 -0.821016 0
M  V30 970 O 97.7464 1.49271 -1.0059 0
M  V30 971 H 94.1214 0.431302 -0.616022 0
M  V30 972 H 96.0924 0.940991 -2.83175 0
M  V30 973 C 94.8414 2.62779 -2.27689 0
M  V30 974 H 94.1644 2.48527 -3.13168 0
M  V30 975 H 95.6044 3.36517 -2.57939 0
M  V30 976 C 94.0634 3.18285 -1.10436 0
M  V30 977 O 94.5934 4.00002 -0.368945 0
M  V30 978 N 92.7994 2.7675 -0.886433 0
M  V30 979 H 92.3464 2.10404 -1.48619 0
M  V30 980 H 92.3044 3.14229 -0.103656 0
M  V30 981 N 96.0765 1.50051 0.48192 0
M  V30 982 C 97.3255 1.59741 1.23149 0
M  V30 983 C 97.6385 0.298163 1.93314 0
M  V30 984 O 98.8445 0.273835 2.70116 0
M  V30 985 C 97.3005 2.81926 2.23708 0
M  V30 986 C 96.9085 4.18685 1.59396 0
M  V30 987 C 98.6525 3.00956 2.99375 0
M  V30 988 C 96.5595 5.3207 2.58178 0
M  V30 989 H 95.4895 0.594838 0.46334 0
M  V30 990 H 98.1405 1.76467 0.503169 0
M  V30 991 H 96.5225 2.58736 2.99786 0
M  V30 992 H 97.6965 4.52088 0.891811 0
M  V30 993 H 96.0115 4.05171 0.960503 0
M  V30 994 H 98.6085 3.82836 3.73283 0
M  V30 995 H 98.9515 2.12258 3.58123 0
M  V30 996 H 99.4845 3.24277 2.30411 0
M  V30 997 H 96.2235 6.22888 2.04184 0
M  V30 998 H 95.7435 5.03098 3.26577 0
M  V30 999 H 97.4225 5.62196 3.20225 0
M  V30 1000 N 97.5546 -0.734337 1.39446 0
M  V30 1001 C 98.8006 -1.49613 1.36908 0
M  V30 1002 C 99.1336 -1.94169 -0.0347829 0
M  V30 1003 O 98.4086 -1.66833 -0.999847 0
M  V30 1004 C 98.6916 -2.73534 2.34203 0
M  V30 1005 C 98.5446 -2.34993 3.83534 0
M  V30 1006 C 99.8636 -3.75635 2.29317 0
M  V30 1007 H 96.9826 -0.542714 0.498629 0
M  V30 1008 H 99.6246 -0.839597 1.70443 0
M  V30 1009 H 97.7746 -3.29553 2.05736 0
M  V30 1010 H 99.4466 -1.84601 4.22753 0
M  V30 1011 H 97.6896 -1.67213 4.00278 0
M  V30 1012 H 98.3606 -3.23738 4.47099 0
M  V30 1013 H 100.837 -3.29203 2.54489 0
M  V30 1014 H 99.7126 -4.60008 2.99472 0
M  V30 1015 H 99.9736 -4.22603 1.29842 0
M  V30 1016 N 99.0327 -1.24633 -0.964593 0
M  V30 1017 C 99.9627 -1.06611 -2.07741 0
M  V30 1018 C 100.944 0.0218666 -1.70086 0
M  V30 1019 O 102.129 -0.145793 -1.93652 0
M  V30 1020 C 99.2587 -0.673444 -3.40708 0
M  V30 1021 C 98.2127 -1.71054 -3.92332 0
M  V30 1022 C 97.5387 -1.17285 -5.21678 0
M  V30 1023 C 98.8387 -3.10718 -4.19824 0
M  V30 1024 H 100.533 -1.99693 -2.23076 0
M  V30 1025 H 98.0787 -0.96152 -1.07195 0
M  V30 1026 H 100.032 -0.534345 -4.17998 0
M  V30 1027 H 98.7557 0.293073 -3.25282 0
M  V30 1028 H 97.4147 -1.83791 -3.17201 0
M  V30 1029 H 97.0627 -0.196847 -5.02615 0
M  V30 1030 H 96.7627 -1.86592 -5.57187 0
M  V30 1031 H 98.2867 -1.04593 -6.01575 0
M  V30 1032 H 99.7007 -3.01192 -4.87808 0
M  V30 1033 H 98.0977 -3.77406 -4.66567 0
M  V30 1034 H 99.1677 -3.58524 -3.26479 0
M  V30 1035 N 100.511 1.16574 -1.06058 0
M  V30 1036 C 101.739 1.90952 -0.796552 0
M  V30 1037 C 102.154 1.77302 0.648808 0
M  V30 1038 O 101.511 1.11605 1.44397 0
M  V30 1039 C 101.562 3.41736 -1.17894 0
M  V30 1040 O 101.283 3.54975 -2.56758 0
M  V30 1041 C 102.784 4.33169 -0.942308 0
M  V30 1042 H 100.004 0.605594 -0.288959 0
M  V30 1043 H 102.548 1.47777 -1.41358 0
M  V30 1044 H 100.703 3.82623 -0.606491 0
M  V30 1045 H 101.117 4.4846 -2.72 0
M  V30 1046 H 102.591 5.37439 -1.25952 0
M  V30 1047 H 103.068 4.3903 0.122078 0
M  V30 1048 H 103.674 3.98007 -1.49902 0
M  V30 1049 N 101.989 0.842826 1.3317 0
M  V30 1050 C 102.921 0.236245 2.27979 0
M  V30 1051 C 103.934 -0.585282 1.51915 0
M  V30 1052 O 105.123 -0.411705 1.73687 0
M  V30 1053 C 102.223 -0.685717 3.3189 0
M  V30 1054 C 101.396 0.0973448 4.37292 0
M  V30 1055 C 100.455 -0.748565 5.20848 0
M  V30 1056 O 99.4809 -0.186339 5.68895 0
M  V30 1057 N 100.683 -2.06527 5.42519 0
M  V30 1058 H 103.448 1.05088 2.80672 0
M  V30 1059 H 101.009 0.701667 1.45905 0
M  V30 1060 H 103.001 -1.25669 3.84694 0
M  V30 1061 H 101.571 -1.40105 2.79445 0
M  V30 1062 H 100.791 0.849706 3.84933 0
M  V30 1063 H 102.079 0.635643 5.04814 0
M  V30 1064 H 101.477 -2.54554 5.05192 0
M  V30 1065 H 100.034 -2.58464 5.98364 0
M  V30 1066 N 103.467 -1.45747 0.599634 0
M  V30 1067 C 104.377 -2.34262 -0.125888 0
M  V30 1068 C 105.393 -1.50768 -0.868625 0
M  V30 1069 O 106.569 -1.83592 -0.828003 0
M  V30 1070 C 103.634 -3.28252 -1.11587 0
M  V30 1071 C 102.695 -4.27651 -0.375956 0
M  V30 1072 C 101.928 -5.1715 -1.31877 0
M  V30 1073 O 102.151 -5.09916 -2.55621 0
M  V30 1074 O 101.085 -5.96286 -0.820157 0
M  V30 1075 H 104.911 -2.97688 0.601315 0
M  V30 1076 H 102.496 -1.44999 0.359934 0
M  V30 1077 H 104.378 -3.86191 -1.68626 0
M  V30 1078 H 103.053 -2.67401 -1.82424 0
M  V30 1079 H 101.96 -3.7335 0.236698 0
M  V30 1080 H 103.293 -4.91334 0.29177 0
M  V30 1081 N 104.945 -0.338344 -1.53925 0
M  V30 1082 C 106.222 0.314774 -1.93051 0
M  V30 1083 C 106.602 1.68669 -1.26941 0
M  V30 1084 O 105.95 2.24636 -0.418445 0
M  V30 1085 C 106.16 0.392249 -3.46789 0
M  V30 1086 C 107.508 0.645554 -4.19664 0
M  V30 1087 O 108.532 0.474575 -3.53024 0
M  V30 1088 O 107.391 0.976408 -5.37707 0
M  V30 1089 H 104.485 0.182598 -0.80659 0
M  V30 1090 H 107.031 -0.389141 -1.65178 0
M  V30 1091 H 105.803 -0.570702 -3.87116 0
M  V30 1092 H 105.426 1.14316 -3.80812 0
M  V30 1093 N 106.423 1.57458 -0.0668435 0
M  V30 1094 C 107.651 1.97624 0.612565 0
M  V30 1095 C 108.066 0.94502 1.63447 0
M  V30 1096 O 107.423 -0.0689276 1.8237 0
M  V30 1097 C 107.474 3.37869 1.28555 0
M  V30 1098 O 107.195 4.3704 0.304557 0
M  V30 1099 C 108.696 3.92882 2.05325 0
M  V30 1100 H 105.916 0.650045 0.166381 0
M  V30 1101 H 108.46 2.04035 -0.137782 0
M  V30 1102 H 106.615 3.3256 1.98702 0
M  V30 1103 H 107.029 5.18565 0.786779 0
M  V30 1104 H 108.503 4.93247 2.47812 0
M  V30 1105 H 108.98 3.29156 2.9078 0
M  V30 1106 H 109.586 4.01577 1.40056 0
M  V30 1107 N 107.901 -0.206675 1.56239 0
M  V30 1108 C 108.864 -1.23976 1.92776 0
M  V30 1109 C 109.864 -1.39041 0.807729 0
M  V30 1110 O 111.054 -1.37051 1.0753 0
M  V30 1111 C 108.186 -2.61112 2.19165 0
M  V30 1112 H 109.379 -0.927764 2.85189 0
M  V30 1113 H 106.932 -0.447718 1.4975 0
M  V30 1114 H 107.667 -2.97386 1.29352 0
M  V30 1115 H 107.452 -2.51552 3.00772 0
M  V30 1116 H 108.942 -3.35633 2.48476 0
M  V30 1117 N 109.379 -1.50304 -0.473955 0
M  V30 1118 C 110.326 -1.68959 -1.57231 0
M  V30 1119 C 111.296 -0.530899 -1.57387 0
M  V30 1120 O 112.481 -0.761133 -1.74961 0
M  V30 1121 C 109.621 -1.7871 -2.95223 0
M  V30 1122 C 108.734 -3.06061 -3.04878 0
M  V30 1123 C 107.869 -3.06626 -4.33767 0
M  V30 1124 C 106.908 -4.28443 -4.37154 0
M  V30 1125 N 106.045 -4.26763 -5.5751 0
M  V30 1126 H 110.885 -2.6273 -1.40631 0
M  V30 1127 H 108.422 -1.30241 -0.683789 0
M  V30 1128 H 110.38 -1.82344 -3.75242 0
M  V30 1129 H 109.01 -0.883806 -3.10465 0
M  V30 1130 H 108.062 -3.11911 -2.17751 0
M  V30 1131 H 109.374 -3.96039 -3.0324 0
M  V30 1132 H 108.528 -3.08973 -5.22131 0
M  V30 1133 H 107.267 -2.14473 -4.3801 0
M  V30 1134 H 106.272 -4.2631 -3.47188 0
M  V30 1135 H 107.497 -5.2182 -4.34605 0
M  V30 1136 H 105.443 -3.37462 -5.62544 0
M  V30 1137 H 105.36 -5.10507 -5.57601 0
M  V30 1138 H 106.628 -4.33253 -6.48006 0
M  V30 1139 N 110.857 0.726932 -1.39834 0
M  V30 1140 C 111.787 1.85405 -1.41941 0
M  V30 1141 C 112.768 1.67751 -0.281728 0
M  V30 1142 O 113.953 1.8795 -0.488717 0
M  V30 1143 C 111.083 3.23243 -1.2701 0
M  V30 1144 C 110.037 3.55549 -2.38262 0
M  V30 1145 C 109.363 4.9241 -2.08415 0
M  V30 1146 C 110.663 3.577 -3.80589 0
M  V30 1147 H 112.357 1.83899 -2.36266 0
M  V30 1148 H 109.903 0.883349 -1.13723 0
M  V30 1149 H 111.856 4.01775 -1.27103 0
M  V30 1150 H 110.58 3.25296 -0.291564 0
M  V30 1151 H 109.239 2.79351 -2.37399 0
M  V30 1152 H 108.887 4.91052 -1.0898 0
M  V30 1153 H 108.587 5.14992 -2.82943 0
M  V30 1154 H 110.111 5.73289 -2.10171 0
M  V30 1155 H 111.525 4.26293 -3.83337 0
M  V30 1156 H 109.922 3.91804 -4.54543 0
M  V30 1157 H 110.992 2.57328 -4.10987 0
M  V30 1158 N 112.336 1.25143 0.95797 0
M  V30 1159 C 113.266 1.07711 2.07173 0
M  V30 1160 C 114.247 -0.0128462 1.70095 0
M  V30 1161 O 115.432 0.156061 1.93572 0
M  V30 1162 C 112.562 0.691503 3.40346 0
M  V30 1163 C 111.516 1.73132 3.9142 0
M  V30 1164 C 110.842 1.20049 5.21049 0
M  V30 1165 C 112.142 3.1294 4.1817 0
M  V30 1166 H 113.836 2.00873 2.22014 0
M  V30 1167 H 111.382 0.967191 1.06684 0
M  V30 1168 H 113.335 0.556505 4.17709 0
M  V30 1169 H 112.059 -0.275819 3.25433 0
M  V30 1170 H 110.718 1.8547 3.16222 0
M  V30 1171 H 110.366 0.223499 5.02503 0
M  V30 1172 H 110.066 1.89545 5.56189 0
M  V30 1173 H 111.59 1.07782 6.01012 0
M  V30 1174 H 113.004 3.03775 4.86203 0
M  V30 1175 H 111.401 3.79875 4.64559 0
M  V30 1176 H 112.471 3.6025 3.24573 0
M  V30 1177 N 113.814 -1.1601 1.06675 0
M  V30 1178 C 114.746 -2.20115 0.638921 0
M  V30 1179 C 115.759 -1.59916 -0.305057 0
M  V30 1180 O 116.948 -1.78245 -0.0954446 0
M  V30 1181 C 114.048 -3.38798 -0.0830083 0
M  V30 1182 C 113.221 -4.2855 0.875426 0
M  V30 1183 C 112.28 -5.25849 0.192042 0
M  V30 1184 O 111.306 -5.63102 0.830921 0
M  V30 1185 N 112.508 -5.70648 -1.06493 0
M  V30 1186 H 115.273 -2.57439 1.53444 0
M  V30 1187 H 112.834 -1.31057 0.950557 0
M  V30 1188 H 114.826 -4.00936 -0.550685 0
M  V30 1189 H 113.396 -2.99947 -0.880386 0
M  V30 1190 H 112.616 -3.63617 1.52238 0
M  V30 1191 H 113.904 -4.85393 1.52548 0
M  V30 1192 H 113.302 -5.42482 -1.60405 0
M  V30 1193 H 111.859 -6.34859 -1.47641 0
M  V30 1194 N 115.292 -0.849877 -1.32721 0
M  V30 1195 C 116.517 -0.463856 -2.02146 0
M  V30 1196 C 116.942 0.930449 -1.63476 0
M  V30 1197 O 116.3 1.61033 -0.832952 0
M  V30 1198 C 116.348 -0.604955 -3.55489 0
M  V30 1199 O 115.452 0.36425 -4.10788 0
M  V30 1200 H 114.793 -0.187046 -0.637111 0
M  V30 1201 H 117.323 -1.14775 -1.69375 0
M  V30 1202 H 117.333 -0.490696 -4.05038 0
M  V30 1203 H 116.008 -1.62174 -3.82978 0
M  V30 1204 H 114.585 0.206628 -3.72327 0
M  V30 1205 N 116.77 1.45427 -0.607355 0
M  V30 1206 C 117.998 2.06614 -0.108814 0
M  V30 1207 C 118.413 1.45204 1.2067 0
M  V30 1208 O 117.77 0.566132 1.73497 0
M  V30 1209 C 117.821 3.61481 0.0375347 0
M  V30 1210 O 117.542 4.20598 -1.22593 0
M  V30 1211 C 119.043 4.39652 0.567561 0
M  V30 1212 H 116.263 0.66747 -0.0687351 0
M  V30 1213 H 118.807 1.86675 -0.835022 0
M  V30 1214 H 116.962 3.80762 0.714068 0
M  V30 1215 H 117.376 5.1377 -1.05547 0
M  V30 1216 H 118.85 5.48518 0.61905 0
M  V30 1217 H 119.327 4.09417 1.58978 0
M  V30 1218 H 119.933 4.25234 -0.0749202 0
M  V30 1219 N 118.248 0.346503 1.53744 0
M  V30 1220 C 119.494 -0.249473 2.0126 0
M  V30 1221 C 119.827 -1.49965 1.23386 0
M  V30 1222 O 119.102 -1.91811 0.32229 0
M  V30 1223 C 119.385 -0.560643 3.55709 0
M  V30 1224 C 119.238 0.701836 4.44291 0
M  V30 1225 C 120.557 -1.36905 4.18264 0
M  V30 1226 H 117.676 -0.0891987 0.731582 0
M  V30 1227 H 120.318 0.467624 1.84156 0
M  V30 1228 H 118.468 -1.17156 3.70414 0
M  V30 1229 H 120.14 1.33974 4.41417 0
M  V30 1230 H 118.383 1.32612 4.13033 0
M  V30 1231 H 119.054 0.43933 5.50249 0
M  V30 1232 H 121.53 -0.852448 4.07275 0
M  V30 1233 H 120.406 -1.55553 5.26398 0
M  V30 1234 H 120.667 -2.37203 3.73078 0
M  V30 1235 N 119.726 -1.57421 0.075193 0
M  V30 1236 C 120.673 -2.12915 -0.890843 0
M  V30 1237 C 121.643 -1.04252 -1.29309 0
M  V30 1238 O 122.828 -1.31933 -1.37834 0
M  V30 1239 C 119.968 -2.69795 -2.15186 0
M  V30 1240 C 119.081 -3.92624 -1.80194 0
M  V30 1241 C 118.216 -4.37736 -3.00933 0
M  V30 1242 C 117.255 -5.53205 -2.61974 0
M  V30 1243 N 116.392 -5.9326 -3.75483 0
M  V30 1244 H 121.232 -2.95156 -0.410735 0
M  V30 1245 H 118.769 -1.45854 -0.191086 0
M  V30 1246 H 120.727 -3.00883 -2.89008 0
M  V30 1247 H 119.357 -1.90313 -2.60731 0
M  V30 1248 H 118.409 -3.67977 -0.964218 0
M  V30 1249 H 119.721 -4.76482 -1.47534 0
M  V30 1250 H 118.875 -4.70503 -3.8303 0
M  V30 1251 H 117.614 -3.52739 -3.36789 0
M  V30 1252 H 116.619 -5.20086 -1.783 0
M  V30 1253 H 117.844 -6.39936 -2.27284 0
M  V30 1254 H 115.79 -5.11212 -4.11094 0
M  V30 1255 H 115.707 -6.71865 -3.46602 0
M  V30 1256 H 116.975 -6.30651 -4.58148 0
M  V30 1257 N 121.204 0.198386 -1.56346 0
M  V30 1258 C 122.154 1.2499 -1.90687 0
M  V30 1259 C 123.138 1.41158 -0.772217 0
M  V30 1260 O 124.33 1.43584 -1.03502 0
M  V30 1261 C 121.459 2.59542 -2.24706 0
M  V30 1262 C 120.545 2.47181 -3.44619 0
M  V30 1263 N 120.936 2.04495 -4.62618 0
M  V30 1264 C 119.234 2.78082 -3.48692 0
M  V30 1265 C 119.935 2.03945 -5.44776 0
M  V30 1266 N 118.911 2.45323 -4.85095 0
M  V30 1267 H 122.713 0.911149 -2.7942 0
M  V30 1268 H 120.227 0.40684 -1.57221 0
M  V30 1269 H 122.224 3.3549 -2.47491 0
M  V30 1270 H 120.884 2.94244 -1.37298 0
M  V30 1271 H 121.895 1.75256 -4.87345 0
M  V30 1272 H 118.572 3.17002 -2.71691 0
M  V30 1273 H 119.962 1.72872 -6.4928 0
M  V30 1274 N 122.682 1.50554 0.465978 0
M  V30 1275 C 123.63 1.70324 1.58406 0
M  V30 1276 C 124.624 0.569139 1.59553 0
M  V30 1277 O 125.83 0.749776 1.63641 0
M  V30 1278 H 122.205 0.537688 0.525734 0
M  V30 1279 H 124.176 2.64104 1.38894 0
M  V30 1280 C 122.925 1.81928 2.96307 0
M  V30 1281 H 122.248 2.68586 2.96144 0
M  V30 1282 H 123.688 1.99784 3.73982 0
M  V30 1283 C 122.147 0.572095 3.32007 0
M  V30 1284 O 122.677 -0.286416 4.00678 0
M  V30 1285 N 120.883 0.424606 2.87481 0
M  V30 1286 H 120.43 1.12427 2.31771 0
M  V30 1287 H 120.388 -0.408697 3.11732 0
M  V30 1288 N 124.16 -0.719506 1.40217 0
M  V30 1289 C 125.09 -1.8465 1.42922 0
M  V30 1290 C 126.071 -1.67599 0.29062 0
M  V30 1291 O 127.256 -1.87688 0.498677 0
M  V30 1292 C 124.386 -3.22565 1.28722 0
M  V30 1293 C 123.34 -3.54281 2.40144 0
M  V30 1294 C 122.666 -4.91298 2.11023 0
M  V30 1295 C 123.966 -3.55676 3.82481 0
M  V30 1296 H 125.66 -1.82644 2.37237 0
M  V30 1297 H 123.206 -0.877305 1.1419 0
M  V30 1298 H 125.159 -4.01095 1.29232 0
M  V30 1299 H 123.883 -3.25137 0.308811 0
M  V30 1300 H 122.542 -2.78088 2.38877 0
M  V30 1301 H 122.19 -4.90468 1.11582 0
M  V30 1302 H 121.89 -5.13485 2.8567 0
M  V30 1303 H 123.414 -5.72166 2.13209 0
M  V30 1304 H 124.828 -4.24254 3.85592 0
M  V30 1305 H 123.225 -3.89388 4.56614 0
M  V30 1306 H 124.295 -2.55144 4.12346 0
M  V30 1307 N 125.638 -1.25649 -0.95132 0
M  V30 1308 C 126.586 -1.06118 -2.06982 0
M  V30 1309 C 127.58 0.00889169 -1.69398 0
M  V30 1310 O 128.786 -0.146988 -1.79399 0
M  V30 1311 H 125.161 -0.326248 -0.677544 0
M  V30 1312 H 127.132 -2.00932 -2.2061 0
M  V30 1313 C 125.881 -0.700145 -3.40578 0
M  V30 1314 H 125.204 -1.51537 -3.69968 0
M  V30 1315 H 126.644 -0.603211 -4.19687 0
M  V30 1316 C 125.103 0.59403 -3.31622 0
M  V30 1317 O 125.633 1.63522 -3.66911 0
M  V30 1318 N 123.839 0.58089 -2.84735 0
M  V30 1319 H 123.386 -0.266783 -2.56215 0
M  V30 1320 H 123.344 1.44695 -2.79125 0
M  V30 1321 N 127.117 1.15442 -1.07289 0
M  V30 1322 C 128.065 2.22225 -0.686952 0
M  V30 1323 C 129.059 1.66688 0.30193 0
M  V30 1324 O 130.265 1.79236 0.165712 0
M  V30 1325 H 126.64 0.723783 -0.204064 0
M  V30 1326 H 128.611 2.52056 -1.5972 0
M  V30 1327 C 127.36 3.47556 -0.100149 0
M  V30 1328 H 126.683 3.90612 -0.852211 0
M  V30 1329 H 128.123 4.23794 0.132235 0
M  V30 1330 C 126.582 3.16337 1.159 0
M  V30 1331 O 127.112 3.33074 2.24555 0
M  V30 1332 N 125.318 2.70385 1.06491 0
M  V30 1333 H 124.865 2.56966 0.180668 0
M  V30 1334 H 124.823 2.49871 1.90819 0
M  V30 1335 N 128.595 0.856903 1.32268 0
M  V30 1336 C 129.825 0.47475 2.01071 0
M  V30 1337 C 130.233 -0.933746 1.64553 0
M  V30 1338 O 129.576 -1.62114 0.863989 0
M  V30 1339 C 129.638 0.536746 3.55471 0
M  V30 1340 C 129.302 1.90453 4.15423 0
M  V30 1341 C 130.299 2.87029 4.33486 0
M  V30 1342 C 127.984 2.20229 4.51447 0
M  V30 1343 C 129.978 4.11532 4.86744 0
M  V30 1344 C 127.665 3.44984 5.0441 0
M  V30 1345 C 128.663 4.40452 5.22007 0
M  V30 1346 O 128.351 5.62998 5.73837 0
M  V30 1347 H 128.083 0.184778 0.650256 0
M  V30 1348 H 130.637 1.15615 1.69771 0
M  V30 1349 H 128.867 -0.20152 3.86175 0
M  V30 1350 H 130.556 0.169875 4.05544 0
M  V30 1351 H 131.322 2.6533 4.05986 0
M  V30 1352 H 127.201 1.46705 4.37034 0
M  V30 1353 H 130.745 4.86056 5.00395 0
M  V30 1354 H 126.642 3.66532 5.31342 0
M  V30 1355 H 127.41 5.64987 5.92226 0
M  V30 1356 N 130.073 -1.45103 0.615059 0
M  V30 1357 C 130.983 -2.34382 -0.101034 0
M  V30 1358 C 131.999 -1.51681 -0.852585 0
M  V30 1359 O 133.175 -1.8446 -0.808484 0
M  V30 1360 C 130.24 -3.29417 -1.08099 0
M  V30 1361 C 129.301 -4.28025 -0.330577 0
M  V30 1362 C 128.534 -5.1852 -1.26385 0
M  V30 1363 O 128.757 -5.12598 -2.50198 0
M  V30 1364 O 127.691 -5.97122 -0.756866 0
M  V30 1365 H 131.517 -2.97033 0.632855 0
M  V30 1366 H 129.102 -1.4461 0.375293 0
M  V30 1367 H 130.984 -3.87958 -1.6452 0
M  V30 1368 H 129.659 -2.69321 -1.79577 0
M  V30 1369 H 128.566 -3.73078 0.276283 0
M  V30 1370 H 129.899 -4.90997 0.343866 0
M  V30 1371 N 131.551 -0.354651 -1.53558 0
M  V30 1372 C 132.481 0.489091 -2.2832 0
M  V30 1373 C 133.462 1.09324 -1.30316 0
M  V30 1374 O 134.647 1.11255 -1.59173 0
M  V30 1375 C 131.777 1.63456 -3.0643 0
M  V30 1376 C 130.731 1.1582 -4.12031 0
M  V30 1377 C 130.057 2.39305 -4.7816 0
M  V30 1378 C 131.357 0.250731 -5.21698 0
M  V30 1379 H 133.051 -0.134614 -2.99097 0
M  V30 1380 H 130.597 -0.0661826 -1.43848 0
M  V30 1381 H 132.55 2.23136 -3.57475 0
M  V30 1382 H 131.274 2.28533 -2.33325 0
M  V30 1383 H 129.933 0.584146 -3.61916 0
M  V30 1384 H 129.581 3.02814 -4.01637 0
M  V30 1385 H 129.281 2.08109 -5.49513 0
M  V30 1386 H 130.805 2.99691 -5.31994 0
M  V30 1387 H 132.219 0.754695 -5.68311 0
M  V30 1388 H 130.616 0.0301468 -6.00092 0
M  V30 1389 H 131.686 -0.710125 -4.79672 0
M  V30 1390 N 133.029 1.57378 -0.0835403 0
M  V30 1391 C 134.445 1.57246 0.273109 0
M  V30 1392 C 134.645 1.09385 1.69225 0
M  V30 1393 O 133.701 0.765051 2.40631 0
M  V30 1394 C 135.014 3.00614 0.0720628 0
M  V30 1395 C 136.562 3.12684 0.1407 0
M  V30 1396 C 137.037 4.57989 -0.0322094 0
M  V30 1397 N 138.528 4.63194 0.0230085 0
M  V30 1398 C 139.263 5.73335 -0.0861941 0
M  V30 1399 N 138.759 6.9235 -0.24958 0
M  V30 1400 N 140.552 5.62093 -0.0282886 0
M  V30 1401 H 132.703 1.86801 -1.0109 0
M  V30 1402 H 134.966 0.861687 -0.395222 0
M  V30 1403 H 134.672 3.39786 -0.907662 0
M  V30 1404 H 134.546 3.68193 0.81936 0
M  V30 1405 H 136.933 2.73391 1.11092 0
M  V30 1406 H 137.014 2.47719 -0.637896 0
M  V30 1407 H 136.658 4.97973 -0.999247 0
M  V30 1408 H 136.588 5.21 0.765937 0
M  V30 1409 H 139.079 3.77613 0.14722 0
M  V30 1410 H 139.392 7.72117 -0.324733 0
M  V30 1411 H 137.737 6.94415 -0.285097 0
M  V30 1412 H 140.928 4.67997 0.0981408 0
M  V30 1413 H 141.101 6.47895 -0.116845 0
M  V30 1414 N 134.507 -0.190092 1.56449 0
M  V30 1415 C 135.732 -0.929864 1.85387 0
M  V30 1416 C 136.157 -1.7585 0.667704 0
M  V30 1417 O 135.515 -1.77198 -0.383459 0
M  V30 1418 C 135.563 -1.79773 3.12593 0
M  V30 1419 O 134.667 -2.89713 2.93496 0
M  V30 1420 H 134.008 -0.261574 0.610307 0
M  V30 1421 H 136.538 -0.193896 2.03679 0
M  V30 1422 H 136.548 -2.20139 3.43515 0
M  V30 1423 H 135.223 -1.18892 3.98544 0
M  V30 1424 H 133.8 -2.53065 2.73884 0
M  V30 1425 N 135.985 -1.50799 -0.457987 0
M  V30 1426 C 137.231 -1.62683 -1.21088 0
M  V30 1427 C 137.564 -0.332268 -1.91336 0
M  V30 1428 O 136.839 0.667043 -1.82704 0
M  V30 1429 C 137.122 -2.81615 -2.24422 0
M  V30 1430 C 136.975 -4.20989 -1.58392 0
M  V30 1431 C 138.294 -2.96085 -3.2561 0
M  V30 1432 H 135.413 -0.592087 -0.438864 0
M  V30 1433 H 138.055 -1.83225 -0.50286 0
M  V30 1434 H 136.205 -2.64231 -2.84806 0
M  V30 1435 H 137.877 -4.49994 -1.01504 0
M  V30 1436 H 136.12 -4.24641 -0.886704 0
M  V30 1437 H 136.791 -5.0016 -2.33547 0
M  V30 1438 H 139.267 -3.12042 -2.75262 0
M  V30 1439 H 138.143 -3.80902 -3.95228 0
M  V30 1440 H 138.404 -2.0726 -3.90507 0
M  V30 1441 N 137.463 0.71206 -1.40597 0
M  V30 1442 C 138.711 1.46907 -1.38791 0
M  V30 1443 C 139.032 1.94998 0.00780391 0
M  V30 1444 O 138.302 1.70587 0.963174 0
M  V30 1445 H 136.882 0.545043 -0.51082 0
M  V30 1446 H 139.544 0.843882 -1.75683 0
M  V30 1447 H 138.64 2.34021 -2.06496 0
M  V30 1448 N 138.941 1.26152 0.944643 0
M  V30 1449 C 139.889 1.07215 2.06417 0
M  V30 1450 C 140.883 9.2007e-05 1.694 0
M  V30 1451 O 142.089 0.1565 1.79318 0
M  V30 1452 H 138.464 0.329837 0.675805 0
M  V30 1453 H 140.435 2.02099 2.19541 0
M  V30 1454 C 139.184 0.718197 3.40202 0
M  V30 1455 H 138.507 1.53497 3.69159 0
M  V30 1456 H 139.947 0.625459 4.19361 0
M  V30 1457 C 138.406 -0.576435 3.31932 0
M  V30 1458 O 138.936 -1.61574 3.67773 0
M  V30 1459 N 137.142 -0.565781 2.85039 0
M  V30 1460 H 136.689 0.280367 2.5607 0
M  V30 1461 H 136.647 -1.43213 2.79888 0
M  V30 1462 N 140.419 -1.14872 1.07899 0
M  V30 1463 C 141.667 -1.85422 0.803941 0
M  V30 1464 C 141.988 -1.83051 -0.67211 0
M  V30 1465 O 141.258 -1.27532 -1.48703 0
M  V30 1466 H 139.838 -0.686537 0.294408 0
M  V30 1467 H 142.5 -1.39226 1.3639 0
M  V30 1468 H 141.596 -2.90399 1.14346 0
M  V30 1469 N 141.898 -0.863906 -1.31812 0
M  V30 1470 C 142.846 -0.30422 -2.30602 0
M  V30 1471 C 143.84 0.577419 -1.59255 0
M  V30 1472 O 145.046 0.464194 -1.73912 0
M  V30 1473 H 141.421 -0.0796877 -0.747766 0
M  V30 1474 H 143.392 -1.15148 -2.75288 0
M  V30 1475 C 142.141 0.484617 -3.44306 0
M  V30 1476 H 141.464 -0.18451 -3.99374 0
M  V30 1477 H 142.904 0.841664 -4.15562 0
M  V30 1478 C 141.363 1.6735 -2.92396 0
M  V30 1479 O 141.893 2.77273 -2.90659 0
M  V30 1480 N 140.099 1.50362 -2.48676 0
M  V30 1481 H 139.646 0.609402 -2.50288 0
M  V30 1482 H 139.604 2.30051 -2.14299 0
M  V30 1483 N 143.376 1.44774 -0.622745 0
M  V30 1484 C 144.601 2.06999 -0.128968 0
M  V30 1485 C 145.026 1.4617 1.1839 0
M  V30 1486 O 144.384 0.560007 1.72434 0
M  V30 1487 C 144.432 3.60595 -0.0188351 0
M  V30 1488 O 143.536 3.99398 1.02739 0
M  V30 1489 H 142.877 0.659047 -0.0809544 0
M  V30 1490 H 145.407 1.85784 -0.85705 0
M  V30 1491 H 145.417 4.07627 0.174476 0
M  V30 1492 H 144.092 4.04252 -0.977384 0
M  V30 1493 H 142.669 3.64011 0.809326 0
M  V30 1494 N 144.854 0.36279 1.53368 0
M  V30 1495 C 146.1 -0.228113 2.01513 0
M  V30 1496 C 146.433 -1.48648 1.2497 0
M  V30 1497 O 145.708 -1.91459 0.342616 0
M  V30 1498 C 145.991 -0.522884 3.56284 0
M  V30 1499 C 145.844 0.74892 4.43521 0
M  V30 1500 C 147.163 -1.32461 4.19693 0
M  V30 1501 H 144.282 -0.0814343 0.732487 0
M  V30 1502 H 146.924 0.48713 1.83649 0
M  V30 1503 H 145.074 -1.1322 3.71636 0
M  V30 1504 H 146.746 1.38648 4.39971 0
M  V30 1505 H 144.989 1.36986 4.11603 0
M  V30 1506 H 145.66 0.497667 5.49752 0
M  V30 1507 H 148.136 -0.809203 4.08156 0
M  V30 1508 H 147.012 -1.49961 5.28018 0
M  V30 1509 H 147.273 -2.33232 3.75573 0
M  V30 1510 N 146.332 -1.57332 0.0918853 0
M  V30 1511 C 147.262 -2.16872 -0.865371 0
M  V30 1512 C 148.243 -1.10118 -1.29646 0
M  V30 1513 O 149.428 -1.38242 -1.36392 0
M  V30 1514 C 146.558 -2.74649 -2.12569 0
M  V30 1515 C 145.512 -3.86747 -1.83333 0
M  V30 1516 C 144.838 -4.31212 -3.16166 0
M  V30 1517 C 146.138 -5.10089 -1.1228 0
M  V30 1518 H 147.832 -2.97114 -0.369307 0
M  V30 1519 H 145.378 -1.42918 -0.176194 0
M  V30 1520 H 147.331 -3.14952 -2.7997 0
M  V30 1521 H 146.055 -1.91657 -2.64452 0
M  V30 1522 H 144.714 -3.46978 -1.18331 0
M  V30 1523 H 144.362 -3.45115 -3.6593 0
M  V30 1524 H 144.062 -5.06788 -2.97388 0
M  V30 1525 H 145.586 -4.74146 -3.84731 0
M  V30 1526 H 147 -5.47582 -1.69785 0
M  V30 1527 H 145.397 -5.91073 -1.03693 0
M  V30 1528 H 146.467 -4.84786 -0.105041 0
M  V30 1529 N 147.81 0.181792 -1.56548 0
M  V30 1530 C 149.056 0.901431 -1.81665 0
M  V30 1531 C 149.389 1.82347 -0.668075 0
M  V30 1532 O 148.664 1.91669 0.330615 0
M  V30 1533 C 148.947 1.70618 -3.17115 0
M  V30 1534 C 148.8 0.807964 -4.42484 0
M  V30 1535 C 150.119 2.67605 -3.49393 0
M  V30 1536 H 147.238 0.32627 -0.660846 0
M  V30 1537 H 149.88 0.168134 -1.89255 0
M  V30 1538 H 148.03 2.33133 -3.10775 0
M  V30 1539 H 149.702 0.19649 -4.60881 0
M  V30 1540 H 147.945 0.115411 -4.33646 0
M  V30 1541 H 148.616 1.40632 -5.33785 0
M  V30 1542 H 151.092 2.15218 -3.56118 0
M  V30 1543 H 149.968 3.20985 -4.45264 0
M  V30 1544 H 150.229 3.47298 -2.73563 0
M  V30 1545 N 149.288 1.51039 0.449983 0
M  V30 1546 C 150.513 1.6715 1.22783 0
M  V30 1547 C 150.938 0.363081 1.84563 0
M  V30 1548 O 150.296 -0.675433 1.68249 0
M  V30 1549 C 150.344 2.77985 2.29689 0
M  V30 1550 O 149.448 2.40707 3.34864 0
M  V30 1551 H 148.789 0.557746 0.360299 0
M  V30 1552 H 151.319 1.97535 0.533005 0
M  V30 1553 H 151.329 3.01693 2.74673 0
M  V30 1554 H 150.004 3.72935 1.84098 0
M  V30 1555 H 148.581 2.27523 2.95445 0
M  V30 1556 N 150.766 -0.704594 1.40972 0
M  V30 1557 C 151.696 -1.83124 1.44872 0
M  V30 1558 C 152.677 -1.67281 0.30838 0
M  V30 1559 O 153.862 -1.87149 0.518556 0
M  V30 1560 C 150.992 -3.21181 1.32136 0
M  V30 1561 C 149.946 -3.51714 2.43888 0
M  V30 1562 C 149.272 -4.89032 2.16222 0
M  V30 1563 C 150.572 -3.516 3.86232 0
M  V30 1564 H 152.266 -1.80117 2.39161 0
M  V30 1565 H 149.812 -0.865145 1.15114 0
M  V30 1566 H 151.765 -3.99702 1.33479 0
M  V30 1567 H 150.489 -3.24791 0.343279 0
M  V30 1568 H 149.148 -2.75539 2.41813 0
M  V30 1569 H 148.796 -4.89256 1.16778 0
M  V30 1570 H 148.496 -5.10426 2.911 0
M  V30 1571 H 150.02 -5.69873 2.19265 0
M  V30 1572 H 151.434 -4.2014 3.9007 0
M  V30 1573 H 149.831 -3.84523 4.60719 0
M  V30 1574 H 150.901 -2.50757 4.15029 0
M  V30 1575 N 152.244 -1.26651 -0.937939 0
M  V30 1576 C 153.66 -1.03834 -1.21205 0
M  V30 1577 C 153.86 0.234502 -2.00131 0
M  V30 1578 O 152.916 0.942767 -2.3424 0
M  V30 1579 C 154.229 -2.27167 -1.97017 0
M  V30 1580 C 155.777 -2.32101 -2.09996 0
M  V30 1581 C 156.252 -3.55136 -2.8921 0
M  V30 1582 N 157.743 -3.55632 -2.96783 0
M  V30 1583 C 158.478 -4.475 -3.58512 0
M  V30 1584 N 157.974 -5.4966 -4.21717 0
M  V30 1585 N 159.767 -4.35145 -3.55816 0
M  V30 1586 H 151.918 -2.08398 -0.410391 0
M  V30 1587 H 154.181 -0.916031 -0.244114 0
M  V30 1588 H 153.887 -3.19765 -1.46434 0
M  V30 1589 H 153.761 -2.31672 -2.97671 0
M  V30 1590 H 156.148 -1.40015 -2.59769 0
M  V30 1591 H 156.229 -2.31605 -1.08594 0
M  V30 1592 H 155.873 -4.47553 -2.40123 0
M  V30 1593 H 155.803 -3.5288 -3.90875 0
M  V30 1594 H 158.294 -2.81743 -2.51852 0
M  V30 1595 H 158.607 -6.15943 -4.66727 0
M  V30 1596 H 156.952 -5.53514 -4.20294 0
M  V30 1597 H 160.143 -3.5455 -3.05634 0
M  V30 1598 H 160.316 -5.06934 -4.03636 0
M  V30 1599 N 153.722 1.14298 -1.08507 0
M  V30 1600 C 154.947 1.8976 -0.837001 0
M  V30 1601 C 155.372 1.78097 0.605228 0
M  V30 1602 O 154.73 1.12188 1.4242 0
M  V30 1603 C 154.778 3.37685 -1.26495 0
M  V30 1604 O 153.882 4.10281 -0.417514 0
M  V30 1605 H 153.223 0.590365 -0.303917 0
M  V30 1606 H 155.753 1.44672 -1.44676 0
M  V30 1607 H 155.763 3.88501 -1.24625 0
M  V30 1608 H 154.438 3.45492 -2.31534 0
M  V30 1609 H 153.015 3.69536 -0.499722 0
M  V30 1610 N 155.201 0.870884 1.31352 0
M  V30 1611 C 156.478 0.402907 1.91405 0
M  V30 1612 C 156.858 -1.11512 1.79244 0
M  V30 1613 O 156.206 -1.94411 1.2007 0
M  V30 1614 C 156.416 0.885301 3.37585 0
M  V30 1615 C 157.764 0.911971 4.14691 0
M  V30 1616 O 158.788 0.831016 3.46371 0
M  V30 1617 O 157.647 1.02927 5.3672 0
M  V30 1618 H 154.741 0.120698 0.818145 0
M  V30 1619 H 157.287 0.958857 1.40014 0
M  V30 1620 H 156.059 1.92889 3.40455 0
M  V30 1621 H 155.682 0.307714 3.96407 0
M  V30 1622 N 156.679 -1.44442 0.630414 0
M  V30 1623 C 157.611 -2.2892 -0.113347 0
M  V30 1624 C 158.624 -1.41243 -0.80959 0
M  V30 1625 O 159.813 -1.65402 -0.671156 0
M  V30 1626 C 156.913 -3.17594 -1.18266 0
M  V30 1627 C 156.086 -4.33682 -0.569073 0
M  V30 1628 C 155.145 -5.03397 -1.53226 0
M  V30 1629 O 154.171 -5.59438 -1.04967 0
M  V30 1630 N 155.373 -5.04783 -2.86661 0
M  V30 1631 H 158.138 -2.93392 0.611636 0
M  V30 1632 H 155.699 -1.54881 0.471523 0
M  V30 1633 H 157.691 -3.61097 -1.82732 0
M  V30 1634 H 156.261 -2.54876 -1.80988 0
M  V30 1635 H 155.481 -3.9338 0.254187 0
M  V30 1636 H 156.769 -5.08608 -0.139767 0
M  V30 1637 H 156.167 -4.60584 -3.28449 0
M  V30 1638 H 154.724 -5.52077 -3.46489 0
M  V30 1639 N 158.157 -0.370918 -1.53173 0
M  V30 1640 C 159.09 0.516727 -2.22273 0
M  V30 1641 C 160.068 1.07877 -1.21661 0
M  V30 1642 O 161.252 1.13389 -1.50583 0
M  V30 1643 C 158.379 1.71346 -2.92161 0
M  V30 1644 C 157.425 1.27838 -4.0689 0
M  V30 1645 S 158.258 0.275217 -5.34792 0
M  V30 1646 C 159.414 1.47816 -6.08195 0
M  V30 1647 H 159.647 -0.0701054 -2.97217 0
M  V30 1648 H 157.18 -0.155038 -1.5362 0
M  V30 1649 H 159.138 2.39988 -3.3304 0
M  V30 1650 H 157.799 2.27156 -2.16931 0
M  V30 1651 H 156.992 2.17141 -4.54825 0
M  V30 1652 H 156.594 0.671105 -3.6793 0
M  V30 1653 H 158.886 2.40831 -6.33251 0
M  V30 1654 H 159.829 1.04008 -7.0042 0
M  V30 1655 H 160.237 1.68663 -5.38714 0
M  V30 1656 N 159.635 1.57281 -0.100228 0
M  V30 1657 C 160.863 1.98879 0.570509 0
M  V30 1658 C 161.278 0.979476 1.61405 0
M  V30 1659 O 160.635 -0.0302288 1.82475 0
M  V30 1660 C 160.686 3.4052 1.2136 0
M  V30 1661 O 160.407 4.37588 0.211786 0
M  V30 1662 C 161.908 3.97149 1.96945 0
M  V30 1663 H 159.128 0.653428 0.152555 0
M  V30 1664 H 161.672 2.03697 -0.18103 0
M  V30 1665 H 159.827 3.367 1.91603 0
M  V30 1666 H 160.241 5.20118 0.676607 0
M  V30 1667 H 161.715 4.98393 2.37294 0
M  V30 1668 H 162.192 3.3525 2.83733 0
M  V30 1669 H 162.798 4.04458 1.31506 0
M  V30 1670 N 161.113 -0.173488 1.56642 0
M  V30 1671 C 162.043 -1.2171 1.99271 0
M  V30 1672 C 163.024 -1.46289 0.867959 0
M  V30 1673 O 164.209 -1.5766 1.13388 0
M  V30 1674 C 161.339 -2.55651 2.35074 0
M  V30 1675 C 160.293 -2.45645 3.50489 0
M  V30 1676 C 159.619 -3.84056 3.72028 0
M  V30 1677 C 160.919 -1.96302 4.84007 0
M  V30 1678 H 162.613 -0.86275 2.867 0
M  V30 1679 H 160.159 -0.413571 1.37933 0
M  V30 1680 H 162.112 -3.2886 2.63494 0
M  V30 1681 H 160.836 -2.92869 1.44552 0
M  V30 1682 H 159.495 -1.7489 3.22194 0
M  V30 1683 H 159.143 -4.18664 2.788 0
M  V30 1684 H 158.843 -3.7823 4.49684 0
M  V30 1685 H 160.367 -4.58854 4.02846 0
M  V30 1686 H 161.781 -2.59284 5.11317 0
M  V30 1687 H 160.178 -2.01429 5.65284 0
M  V30 1688 H 161.248 -0.917226 4.76146 0
M  V30 1689 N 162.591 -1.51276 -0.441967 0
M  V30 1690 C 163.523 -1.68444 -1.55433 0
M  V30 1691 C 164.536 -0.565187 -1.52674 0
M  V30 1692 O 165.725 -0.839356 -1.57534 0
M  V30 1693 C 162.825 -1.67966 -2.94348 0
M  V30 1694 C 161.998 -2.964 -3.21661 0
M  V30 1695 C 161.057 -2.88171 -4.40277 0
M  V30 1696 O 160.083 -3.62119 -4.39157 0
M  V30 1697 N 161.285 -2.03706 -5.43584 0
M  V30 1698 H 164.05 -2.644 -1.41112 0
M  V30 1699 H 161.611 -1.49104 -0.630838 0
M  V30 1700 H 163.603 -1.60035 -3.71713 0
M  V30 1701 H 162.173 -0.796225 -3.0229 0
M  V30 1702 H 161.393 -3.18234 -2.32638 0
M  V30 1703 H 162.681 -3.81427 -3.36736 0
M  V30 1704 H 162.079 -1.42995 -5.47329 0
M  V30 1705 H 160.636 -2.01658 -6.1982 0
M  V30 1706 N 164.069 0.697108 -1.41344 0
M  V30 1707 C 165.346 1.45154 -1.31109 0
M  V30 1708 C 165.726 2.11009 0.0620449 0
M  V30 1709 O 165.074 2.01571 1.07618 0
M  V30 1710 C 165.284 2.47223 -2.46337 0
M  V30 1711 C 166.632 3.1252 -2.87431 0
M  V30 1712 O 167.656 2.57547 -2.46065 0
M  V30 1713 O 166.515 4.12083 -3.58957 0
M  V30 1714 H 163.609 0.646365 -0.515889 0
M  V30 1715 H 166.155 0.727716 -1.53305 0
M  V30 1716 H 164.927 1.97204 -3.37974 0
M  V30 1717 H 164.55 3.27116 -2.2601 0
M  V30 1718 N 165.547 1.27147 0.931209 0
M  V30 1719 C 166.51 1.09615 2.01289 0
M  V30 1720 C 167.51 0.0412581 1.60747 0
M  V30 1721 O 168.7 0.285545 1.71844 0
M  V30 1722 C 165.832 0.669447 3.34262 0
M  V30 1723 H 167.025 2.05662 2.18273 0
M  V30 1724 H 164.578 1.09885 1.11153 0
M  V30 1725 H 165.313 -0.292572 3.22978 0
M  V30 1726 H 165.098 1.43127 3.65044 0
M  V30 1727 H 166.588 0.568921 4.13706 0
M  V30 1728 N 167.025 -1.13721 1.09112 0
M  V30 1729 C 167.972 -2.19031 0.727591 0
M  V30 1730 C 168.942 -1.63555 -0.289656 0
M  V30 1731 O 170.127 -1.90023 -0.172026 0
M  V30 1732 C 167.267 -3.4477 0.15082 0
M  V30 1733 C 166.38 -4.14365 1.22172 0
M  V30 1734 C 165.515 -5.27709 0.608042 0
M  V30 1735 C 164.554 -5.89147 1.66047 0
M  V30 1736 N 163.691 -6.93929 1.06806 0
M  V30 1737 H 168.531 -2.49475 1.62991 0
M  V30 1738 H 166.068 -1.22499 0.81439 0
M  V30 1739 H 168.026 -4.16714 -0.201358 0
M  V30 1740 H 166.656 -3.14787 -0.714783 0
M  V30 1741 H 165.708 -3.40737 1.69122 0
M  V30 1742 H 167.02 -4.56114 2.01895 0
M  V30 1743 H 166.174 -6.06355 0.204523 0
M  V30 1744 H 164.913 -4.872 -0.220769 0
M  V30 1745 H 163.918 -5.09198 2.07357 0
M  V30 1746 H 165.143 -6.31729 2.49189 0
M  V30 1747 H 163.089 -6.55483 0.260476 0
M  V30 1748 H 163.006 -7.34202 1.8023 0
M  V30 1749 H 164.274 -7.76434 0.690644 0
M  V30 1750 N 168.503 -0.877838 -1.30888 0
M  V30 1751 C 169.749 -0.493426 -1.96706 0
M  V30 1752 C 170.082 0.953504 -1.6918 0
M  V30 1753 O 169.357 1.67266 -0.992594 0
M  V30 1754 C 169.64 -0.760429 -3.51979 0
M  V30 1755 C 169.493 -2.25747 -3.89048 0
M  V30 1756 C 170.812 -0.232148 -4.39487 0
M  V30 1757 H 167.931 -0.180746 -0.714493 0
M  V30 1758 H 170.573 -1.10052 -1.54882 0
M  V30 1759 H 168.723 -0.243715 -3.87735 0
M  V30 1760 H 170.395 -2.84204 -3.63354 0
M  V30 1761 H 168.638 -2.72694 -3.37373 0
M  V30 1762 H 169.309 -2.39491 -4.97341 0
M  V30 1763 H 171.785 -0.674314 -4.106 0
M  V30 1764 H 170.661 -0.448355 -5.47066 0
M  V30 1765 H 170.922 0.866297 -4.33529 0
M  V30 1766 N 169.982 1.44106 -0.638065 0
M  V30 1767 C 170.912 2.33448 0.0494287 0
M  V30 1768 C 171.893 1.48606 0.827672 0
M  V30 1769 O 173.078 1.77308 0.792173 0
M  V30 1770 C 170.208 3.31771 1.02691 0
M  V30 1771 C 169.162 4.26485 0.359823 0
M  V30 1772 C 168.488 5.14729 1.44769 0
M  V30 1773 C 169.788 5.17056 -0.738296 0
M  V30 1774 H 171.482 2.91183 -0.696636 0
M  V30 1775 H 169.028 1.40014 -0.336456 0
M  V30 1776 H 170.981 3.93161 1.51666 0
M  V30 1777 H 169.705 2.7226 1.80395 0
M  V30 1778 H 168.364 3.66437 -0.10934 0
M  V30 1779 H 168.012 4.51566 2.21578 0
M  V30 1780 H 167.712 5.78913 1.00668 0
M  V30 1781 H 169.236 5.78991 1.93911 0
M  V30 1782 H 170.65 5.72342 -0.331354 0
M  V30 1783 H 169.047 5.89879 -1.10286 0
M  V30 1784 H 170.117 4.57652 -1.60258 0
M  V30 1785 N 171.46 0.379036 1.52974 0
M  V30 1786 C 172.39 -0.452706 2.29069 0
M  V30 1787 C 173.371 -1.07237 1.32039 0
M  V30 1788 O 174.556 -1.08708 1.60923 0
M  V30 1789 C 171.686 -1.5856 3.08992 0
M  V30 1790 C 170.64 -1.0925 4.13822 0
M  V30 1791 C 169.966 -2.31668 4.81907 0
M  V30 1792 C 171.266 -0.167702 5.22031 0
M  V30 1793 H 172.96 0.182181 2.98845 0
M  V30 1794 H 170.506 0.0890592 1.43724 0
M  V30 1795 H 172.459 -2.1742 3.6098 0
M  V30 1796 H 171.183 -2.24792 2.36931 0
M  V30 1797 H 169.842 -0.526494 3.628 0
M  V30 1798 H 169.49 -2.96386 4.06404 0
M  V30 1799 H 169.19 -1.9934 5.52754 0
M  V30 1800 H 170.714 -2.91189 5.36695 0
M  V30 1801 H 172.128 -0.664186 5.6944 0
M  V30 1802 H 170.525 0.0653265 6.00064 0
M  V30 1803 H 171.595 0.786347 4.78482 0
M  V30 1804 N 172.938 -1.57226 0.108567 0
M  V30 1805 C 173.848 -2.18292 -0.859401 0
M  V30 1806 C 174.864 -1.15612 -1.30038 0
M  V30 1807 O 176.04 -1.48039 -1.36552 0
M  V30 1808 C 173.105 -2.762 -2.09558 0
M  V30 1809 C 172.166 -3.93881 -1.70752 0
M  V30 1810 C 171.399 -4.49018 -2.88477 0
M  V30 1811 O 171.622 -4.03068 -4.036 0
M  V30 1812 O 170.556 -5.39852 -2.66164 0
M  V30 1813 H 174.382 -3.01441 -0.369769 0
M  V30 1814 H 171.967 -1.48945 -0.1165 0
M  V30 1815 H 173.849 -3.13156 -2.81978 0
M  V30 1816 H 172.524 -1.96089 -2.57548 0
M  V30 1817 H 171.431 -3.61713 -0.954714 0
M  V30 1818 H 172.764 -4.75396 -1.27513 0
M  V30 1819 N 174.416 0.165178 -1.56732 0
M  V30 1820 C 175.379 1.18822 -1.95995 0
M  V30 1821 C 176.379 1.3685 -0.84431 0
M  V30 1822 O 177.569 1.34152 -1.11126 0
M  V30 1823 C 174.701 2.5521 -2.26011 0
M  V30 1824 H 175.894 0.851825 -2.87548 0
M  V30 1825 H 173.447 0.407857 -1.50885 0
M  V30 1826 H 174.182 2.93852 -1.37191 0
M  V30 1827 H 173.967 2.43489 -3.07336 0
M  V30 1828 H 175.457 3.28927 -2.57288 0
M  V30 1829 N 175.894 1.51508 0.433938 0
M  V30 1830 C 176.857 1.72473 1.50949 0
M  V30 1831 C 177.857 0.594725 1.49398 0
M  V30 1832 O 179.047 0.862315 1.5136 0
M  V30 1833 C 176.179 1.78431 2.90474 0
M  V30 1834 H 177.372 2.68467 1.33662 0
M  V30 1835 H 174.925 1.41549 0.662836 0
M  V30 1836 H 175.66 0.842645 3.13161 0
M  V30 1837 H 175.445 2.60558 2.93005 0
M  V30 1838 H 176.935 1.96479 3.68491 0
M  V30 1839 N 177.372 -0.689602 1.41712 0
M  V30 1840 C 178.302 -1.81577 1.46806 0
M  V30 1841 C 179.283 -1.66945 0.326105 0
M  V30 1842 O 180.468 -1.86588 0.538377 0
M  V30 1843 C 177.598 -3.19762 1.35535 0
M  V30 1844 C 176.552 -3.49107 2.47605 0
M  V30 1845 C 175.878 -4.86711 2.21397 0
M  V30 1846 C 177.178 -3.47483 3.89939 0
M  V30 1847 H 178.872 -1.7757 2.41058 0
M  V30 1848 H 176.418 -0.852887 1.16025 0
M  V30 1849 H 178.371 -3.98263 1.3771 0
M  V30 1850 H 177.095 -3.24409 0.377708 0
M  V30 1851 H 175.754 -2.72959 2.44722 0
M  V30 1852 H 175.402 -4.8799 1.21961 0
M  V30 1853 H 175.102 -5.0731 2.96497 0
M  V30 1854 H 176.626 -5.67515 2.25297 0
M  V30 1855 H 178.04 -4.1598 3.94505 0
M  V30 1856 H 176.437 -3.79615 4.64771 0
M  V30 1857 H 177.507 -2.46341 4.17665 0
M  V30 1858 N 178.85 -1.27639 -0.924453 0
M  V30 1859 C 180.266 -1.05113 -1.20097 0
M  V30 1860 C 180.466 0.213262 -2.00368 0
M  V30 1861 O 179.522 0.91787 -2.35226 0
M  V30 1862 C 180.835 -2.29244 -1.94596 0
M  V30 1863 C 182.383 -2.34315 -2.07522 0
M  V30 1864 C 182.858 -3.58183 -2.85427 0
M  V30 1865 N 184.349 -3.5876 -2.92994 0
M  V30 1866 C 185.084 -4.51277 -3.53746 0
M  V30 1867 N 184.58 -5.54102 -4.15863 0
M  V30 1868 N 186.373 -4.38894 -3.51181 0
M  V30 1869 H 178.524 -2.08821 -0.388264 0
M  V30 1870 H 180.787 -0.918568 -0.234385 0
M  V30 1871 H 180.493 -3.21301 -1.43034 0
M  V30 1872 H 180.367 -2.34816 -2.95197 0
M  V30 1873 H 182.754 -1.42762 -2.58269 0
M  V30 1874 H 182.835 -2.32744 -1.06131 0
M  V30 1875 H 182.479 -4.50074 -2.35363 0
M  V30 1876 H 182.409 -3.57006 -3.8711 0
M  V30 1877 H 184.9 -2.84398 -2.4885 0
M  V30 1878 H 185.213 -6.20859 -4.60168 0
M  V30 1879 H 183.558 -5.57941 -4.144 0
M  V30 1880 H 186.749 -3.57772 -3.01856 0
M  V30 1881 H 186.922 -5.11186 -3.98237 0
M  V30 1882 N 180.328 1.1314 -1.09713 0
M  V30 1883 C 181.26 2.18343 -0.697056 0
M  V30 1884 C 182.273 1.60669 0.262551 0
M  V30 1885 O 183.462 1.78435 0.0481527 0
M  V30 1886 C 180.562 3.38899 -0.00684728 0
M  V30 1887 C 179.735 4.26078 -0.988741 0
M  V30 1888 C 178.794 5.25155 -0.331394 0
M  V30 1889 O 177.82 5.60701 -0.979926 0
M  V30 1890 N 179.022 5.73271 0.913261 0
M  V30 1891 H 181.787 2.5328 -1.60216 0
M  V30 1892 H 179.348 1.28491 -0.984971 0
M  V30 1893 H 181.34 4.02255 0.444191 0
M  V30 1894 H 179.91 3.02175 0.800551 0
M  V30 1895 H 179.13 3.59453 -1.61826 0
M  V30 1896 H 180.418 4.81178 -1.65364 0
M  V30 1897 H 179.816 5.46544 1.45966 0
M  V30 1898 H 178.373 6.3855 1.30757 0
M  V30 1899 N 181.806 0.884767 1.30421 0
M  V30 1900 C 182.716 0.355398 2.31892 0
M  V30 1901 C 183.732 -0.542261 1.65335 0
M  V30 1902 O 184.908 -0.435432 1.96637 0
M  V30 1903 C 181.973 -0.421661 3.44126 0
M  V30 1904 C 181.034 0.505727 4.26311 0
M  V30 1905 C 180.267 -0.234343 5.33185 0
M  V30 1906 O 180.49 -1.46045 5.51386 0
M  V30 1907 O 179.424 0.415443 6.00465 0
M  V30 1908 H 183.25 1.19685 2.79122 0
M  V30 1909 H 180.835 0.648596 1.34587 0
M  V30 1910 H 182.717 -0.861641 4.12497 0
M  V30 1911 H 181.392 -1.23942 2.99032 0
M  V30 1912 H 180.299 0.994513 3.60639 0
M  V30 1913 H 181.632 1.28948 4.75009 0
M  V30 1914 N 183.284 -1.43765 0.645699 0
M  V30 1915 C 184.509 -2.06767 0.161883 0
M  V30 1916 C 184.934 -1.48034 -1.16049 0
M  V30 1917 O 184.292 -0.587369 -1.71522 0
M  V30 1918 C 184.34 -3.60519 0.0762003 0
M  V30 1919 O 183.444 -4.00982 -0.963721 0
M  V30 1920 H 182.785 -0.657675 0.091429 0
M  V30 1921 H 185.315 -1.84397 0.886499 0
M  V30 1922 H 185.325 -4.07853 -0.109604 0
M  V30 1923 H 184 -4.02646 1.04157 0
M  V30 1924 H 182.577 -3.65253 -0.751312 0
M  V30 1925 N 184.763 -0.387143 -1.52771 0
M  V30 1926 C 186.011 0.195349 -2.01154 0
M  V30 1927 C 186.332 1.475 -1.27549 0
M  V30 1928 O 185.602 1.91878 -0.394924 0
M  V30 1929 H 184.182 0.075178 -0.743207 0
M  V30 1930 H 186.844 -0.518337 -1.87881 0
M  V30 1931 H 185.94 0.407096 -3.09434 0
M  V30 1932 N 186.241 1.57166 -0.116904 0
M  V30 1933 C 187.204 2.14039 0.819742 0
M  V30 1934 C 188.204 1.07477 1.19605 0
M  V30 1935 O 189.394 1.33263 1.1219 0
M  V30 1936 C 186.526 2.67891 2.10826 0
M  V30 1937 H 187.719 2.98128 0.325511 0
M  V30 1938 H 185.272 1.55739 0.132312 0
M  V30 1939 H 186.007 1.87384 2.64685 0
M  V30 1940 H 185.792 3.45823 1.84793 0
M  V30 1941 H 187.282 3.11809 2.77785 0
M  V30 1942 N 187.719 -0.156864 1.56817 0
M  V30 1943 C 189.135 -0.50916 1.5126 0
M  V30 1944 C 189.335 -1.83897 0.823658 0
M  V30 1945 O 188.391 -2.49469 0.390055 0
M  V30 1946 C 189.704 -0.52857 2.96018 0
M  V30 1947 C 191.252 -0.614771 3.06903 0
M  V30 1948 C 191.727 -0.664938 4.53147 0
M  V30 1949 N 193.218 -0.727433 4.57452 0
M  V30 1950 C 193.953 -0.787067 5.67973 0
M  V30 1951 N 193.449 -0.806649 6.88088 0
M  V30 1952 N 195.242 -0.827195 5.5598 0
M  V30 1953 H 187.393 0.714935 2.00006 0
M  V30 1954 H 189.656 0.259526 0.911784 0
M  V30 1955 H 189.362 0.380154 3.49639 0
M  V30 1956 H 189.236 -1.36998 3.51442 0
M  V30 1957 H 191.623 -1.51392 2.53307 0
M  V30 1958 H 191.704 0.253597 2.5454 0
M  V30 1959 H 191.348 0.230011 5.07379 0
M  V30 1960 H 191.278 -1.54966 5.03282 0
M  V30 1961 H 193.769 -0.719998 3.70978 0
M  V30 1962 H 194.082 -0.853727 7.6807 0
M  V30 1963 H 192.427 -0.774687 6.90669 0
M  V30 1964 H 195.618 -0.808998 4.61056 0
M  V30 1965 H 195.791 -0.870206 6.4213 0
M  V30 1966 N 189.197 -1.51736 -0.425897 0
M  V30 1967 C 190.445 -1.64644 -1.17204 0
M  V30 1968 C 190.766 -0.370486 -1.91448 0
M  V30 1969 O 190.036 0.614088 -1.86026 0
M  V30 1970 H 188.616 -0.606819 -0.435638 0
M  V30 1971 H 191.278 -1.88713 -0.487177 0
M  V30 1972 H 190.374 -2.47958 -1.89534 0
M  V30 1973 N 190.675 0.682077 -1.42076 0
M  V30 1974 C 191.625 1.78823 -1.41444 0
M  V30 1975 C 192.609 1.58323 -0.28681 0
M  V30 1976 O 193.801 1.68926 -0.528498 0
M  V30 1977 C 190.93 3.17232 -1.3122 0
M  V30 1978 C 190.016 3.4338 -2.489 0
M  V30 1979 N 190.407 3.40152 -3.7434 0
M  V30 1980 C 188.705 3.73986 -2.43003 0
M  V30 1981 C 189.406 3.65581 -4.52466 0
M  V30 1982 N 188.382 3.85989 -3.8277 0
M  V30 1983 H 192.184 1.7471 -2.36334 0
M  V30 1984 H 189.698 0.882622 -1.36321 0
M  V30 1985 H 191.695 3.96489 -1.2885 0
M  V30 1986 H 190.355 3.22547 -0.373263 0
M  V30 1987 H 191.366 3.20221 -4.07037 0
M  V30 1988 H 188.043 3.86591 -1.57651 0
M  V30 1989 H 189.433 3.69108 -5.61435 0
M  V30 1990 N 192.153 1.28127 0.917671 0
M  V30 1991 C 193.399 1.15223 1.66888 0
M  V30 1992 C 193.732 -0.299293 1.9188 0
M  V30 1993 O 193.007 -1.21805 1.51637 0
M  V30 1994 C 193.29 1.94706 3.02922 0
M  V30 1995 C 193.143 3.47898 2.85109 0
M  V30 1996 C 194.462 1.75939 4.03402 0
M  V30 1997 H 191.581 0.419946 0.605652 0
M  V30 1998 H 194.223 1.57398 1.06423 0
M  V30 1999 H 192.373 1.58864 3.54534 0
M  V30 2000 H 194.045 3.93624 2.40537 0
M  V30 2001 H 192.288 3.7373 2.20246 0
M  V30 2002 H 192.959 3.98765 3.81694 0
M  V30 2003 H 195.435 2.07209 3.60837 0
M  V30 2004 H 194.311 2.33931 4.96556 0
M  V30 2005 H 194.572 0.709877 4.36364 0
M  V30 2006 N 193.631 -1.12557 1.10312 0
M  V30 2007 C 194.856 -1.88405 0.867085 0
M  V30 2008 C 195.281 -1.79038 -0.576817 0
M  V30 2009 O 194.639 -1.14439 -1.40618 0
M  V30 2010 C 194.687 -3.3563 1.31851 0
M  V30 2011 O 193.791 -4.09565 0.482734 0
M  V30 2012 H 193.132 -0.585455 0.313271 0
M  V30 2013 H 195.662 -1.42352 1.4696 0
M  V30 2014 H 195.672 -3.86469 1.3079 0
M  V30 2015 H 194.347 -3.41765 2.37001 0
M  V30 2016 H 192.924 -3.68695 0.558448 0
M  V30 2017 N 195.109 -0.891671 -1.2995 0
M  V30 2018 C 196.334 -0.527932 -2.00568 0
M  V30 2019 C 196.759 0.877969 -1.66353 0
M  V30 2020 O 196.117 1.58301 -0.883762 0
M  V30 2021 C 196.165 -0.717745 -3.53385 0
M  V30 2022 O 195.269 0.233376 -4.11739 0
M  V30 2023 H 194.61 -0.20722 -0.630837 0
M  V30 2024 H 197.14 -1.20105 -1.65638 0
M  V30 2025 H 197.15 -0.619307 -4.03272 0
M  V30 2026 H 195.825 -1.74276 -3.77625 0
M  V30 2027 H 194.402 0.0880706 -3.72796 0
M  V30 2028 N 196.587 1.43421 -0.653314 0
M  V30 2029 C 197.537 2.2792 0.060558 0
M  V30 2030 C 198.521 1.39906 0.794677 0
M  V30 2031 O 199.713 1.63536 0.677128 0
M  V30 2032 C 196.842 3.27603 1.0262 0
M  V30 2033 C 195.928 4.23104 0.290551 0
M  V30 2034 N 196.319 5.01031 -0.692967 0
M  V30 2035 C 194.617 4.42816 0.531984 0
M  V30 2036 C 195.318 5.70626 -1.12963 0
M  V30 2037 N 194.294 5.41617 -0.463867 0
M  V30 2038 H 198.096 2.85585 -0.694143 0
M  V30 2039 H 195.61 1.55126 -0.480602 0
M  V30 2040 H 197.607 3.86918 1.55242 0
M  V30 2041 H 196.267 2.71499 1.78096 0
M  V30 2042 H 197.278 5.0669 -1.07169 0
M  V30 2043 H 193.955 3.97782 1.26791 0
M  V30 2044 H 195.345 6.4318 -1.94343 0
M  V30 2045 N 198.065 0.39524 1.52563 0
M  V30 2046 C 199.29 -0.187456 2.06551 0
M  V30 2047 C 199.715 -1.39249 1.26457 0
M  V30 2048 O 199.073 -1.78947 0.291151 0
M  V30 2049 C 199.121 -0.529985 3.56684 0
M  V30 2050 O 198.225 -1.62307 3.79118 0
M  V30 2051 H 197.566 -0.0202537 0.663691 0
M  V30 2052 H 200.096 0.564426 1.96661 0
M  V30 2053 H 200.106 -0.792598 4.00227 0
M  V30 2054 H 198.781 0.350987 4.14416 0
M  V30 2055 H 197.358 -1.3537 3.47461 0
M  V30 2056 N 199.544 -1.57102 0.125237 0
M  V30 2057 C 200.494 -2.12202 -0.833936 0
M  V30 2058 C 201.478 -1.04433 -1.22403 0
M  V30 2059 O 202.67 -1.30655 -1.19408 0
M  V30 2060 C 199.799 -2.72994 -2.08157 0
M  V30 2061 C 198.885 -3.87852 -1.71556 0
M  V30 2062 N 199.276 -4.9464 -1.05662 0
M  V30 2063 C 197.574 -3.98153 -2.00973 0
M  V30 2064 C 198.275 -5.74953 -0.883376 0
M  V30 2065 N 197.251 -5.24985 -1.41036 0
M  V30 2066 H 201.053 -2.92141 -0.321035 0
M  V30 2067 H 198.567 -1.62217 -0.0770315 0
M  V30 2068 H 200.564 -3.10816 -2.77847 0
M  V30 2069 H 199.224 -1.9452 -2.59985 0
M  V30 2070 H 200.235 -5.12872 -0.719878 0
M  V30 2071 H 196.912 -3.30728 -2.54804 0
M  V30 2072 H 198.302 -6.70904 -0.365675 0
M  V30 2073 N 201.022 0.148545 -1.56898 0
M  V30 2074 C 202.247 0.880385 -1.87787 0
M  V30 2075 C 202.672 1.74018 -0.714093 0
M  V30 2076 O 202.03 1.78153 0.336343 0
M  V30 2077 C 202.078 1.71422 -3.17249 0
M  V30 2078 O 201.182 2.8183 -3.01074 0
M  V30 2079 H 200.523 0.245301 -0.617028 0
M  V30 2080 H 203.053 0.139826 -2.04122 0
M  V30 2081 H 203.063 2.10954 -3.49231 0
M  V30 2082 H 201.738 1.08284 -4.01556 0
M  V30 2083 H 200.315 2.45715 -2.80497 0
M  V30 2084 N 202.5 1.5196 0.417844 0
M  V30 2085 C 203.746 1.65836 1.16732 0
M  V30 2086 C 204.079 0.382881 1.90388 0
M  V30 2087 O 203.354 -0.618368 1.84408 0
M  V30 2088 C 203.637 2.87466 2.16876 0
M  V30 2089 C 203.49 4.25041 1.47174 0
M  V30 2090 C 204.809 3.04613 3.17646 0
M  V30 2091 H 201.928 0.603515 0.423011 0
M  V30 2092 H 204.57 1.84494 0.454105 0
M  V30 2093 H 202.72 2.71689 2.777 0
M  V30 2094 H 204.392 4.52527 0.895376 0
M  V30 2095 H 202.635 4.26843 0.773806 0
M  V30 2096 H 203.306 5.06176 2.20204 0
M  V30 2097 H 205.782 3.1923 2.66892 0
M  V30 2098 H 204.658 3.91247 3.8499 0
M  V30 2099 H 204.919 2.17541 3.84874 0
M  V30 2100 N 203.978 -0.674533 1.42435 0
M  V30 2101 C 204.908 -1.80009 1.48724 0
M  V30 2102 C 205.889 -1.6659 0.343793 0
M  V30 2103 O 207.074 -1.86007 0.558137 0
M  V30 2104 C 204.204 -3.18306 1.38919 0
M  V30 2105 C 203.158 -3.46461 2.51294 0
M  V30 2106 C 202.484 -4.84335 2.26547 0
M  V30 2107 C 203.784 -3.43328 3.93603 0
M  V30 2108 H 205.478 -1.75004 2.42928 0
M  V30 2109 H 203.024 -0.840533 1.16923 0
M  V30 2110 H 204.977 -3.9678 1.41927 0
M  V30 2111 H 203.701 -3.2399 0.412094 0
M  V30 2112 H 202.36 -2.70348 2.47604 0
M  V30 2113 H 202.008 -4.86669 1.2713 0
M  V30 2114 H 201.708 -5.04136 3.01861 0
M  V30 2115 H 203.232 -5.65094 2.31304 0
M  V30 2116 H 204.646 -4.11772 3.98894 0
M  V30 2117 H 203.043 -3.74664 4.68771 0
M  V30 2118 H 204.113 -2.41897 4.20255 0
M  V30 2119 N 205.456 -1.28612 -0.910864 0
M  V30 2120 C 206.406 -1.09423 -2.00026 0
M  V30 2121 C 207.39 -0.0170079 -1.60891 0
M  V30 2122 O 208.582 -0.237472 -1.754 0
M  V30 2123 C 205.711 -0.76114 -3.34756 0
M  V30 2124 C 204.797 -1.87735 -3.80285 0
M  V30 2125 N 205.188 -3.11938 -3.98156 0
M  V30 2126 C 203.486 -1.76786 -4.09467 0
M  V30 2127 C 204.187 -3.84687 -4.36338 0
M  V30 2128 N 203.163 -3.12555 -4.44759 0
M  V30 2129 H 206.965 -2.03658 -2.11898 0
M  V30 2130 H 204.479 -1.19573 -1.09891 0
M  V30 2131 H 206.476 -0.604743 -4.12491 0
M  V30 2132 H 205.136 0.173403 -3.24237 0
M  V30 2133 H 206.147 -3.47516 -3.83996 0
M  V30 2134 H 202.824 -0.905284 -4.07567 0
M  V30 2135 H 204.214 -4.91518 -4.58104 0
M  V30 2136 N 206.934 1.1197 -1.10907 0
M  V30 2137 C 207.897 2.16031 -0.765707 0
M  V30 2138 C 208.897 1.59393 0.212235 0
M  V30 2139 O 210.087 1.74196 -0.0115441 0
M  V30 2140 C 207.219 3.40632 -0.135053 0
M  V30 2141 H 208.412 2.47919 -1.68748 0
M  V30 2142 H 205.965 1.27061 -0.910226 0
M  V30 2143 H 206.7 3.14348 0.797218 0
M  V30 2144 H 206.485 3.8302 -0.838937 0
M  V30 2145 H 207.975 4.17505 0.0892469 0
M  V30 2146 N 208.412 0.89855 1.29475 0
M  V30 2147 C 209.823 0.572537 1.77705 0
M  V30 2148 C 210.174 -0.911778 1.73727 0
M  V30 2149 O 209.299 -1.71288 1.32247 0
M  V30 2150 C 209.894 1.03252 3.22683 0
M  V30 2151 C 208.453 0.757687 3.68695 0
M  V30 2152 C 207.6 1.20787 2.49612 0
M  V30 2153 H 210.551 1.08139 1.16153 0
M  V30 2154 H 210.572 0.367307 3.78723 0
M  V30 2155 H 210.084 2.11285 3.25546 0
M  V30 2156 H 208.185 -0.310079 3.71308 0
M  V30 2157 H 208.298 1.35476 4.59547 0
M  V30 2158 H 206.662 0.626888 2.46865 0
M  V30 2159 H 207.445 2.29622 2.55203 0
M  V30 2160 N 209.89 -1.43072 0.660911 0
M  V30 2161 C 211.138 -2.01323 0.177094 0
M  V30 2162 C 211.459 -1.5245 -1.2159 0
M  V30 2163 O 210.729 -0.740322 -1.81373 0
M  V30 2164 H 209.309 -0.744382 0.0624804 0
M  V30 2165 H 211.971 -1.75179 0.854305 0
M  V30 2166 H 211.067 -3.11649 0.167641 0
M  V30 2167 N 211.368 -0.403325 -1.52352 0
M  V30 2168 C 212.596 0.174012 -2.06167 0
M  V30 2169 C 213.011 1.39347 -1.27388 0
M  V30 2170 O 212.368 1.79597 -0.324201 0
M  V30 2171 C 212.419 0.530223 -3.5759 0
M  V30 2172 O 212.14 -0.640806 -4.33388 0
M  V30 2173 C 213.641 1.16192 -4.27802 0
M  V30 2174 H 210.861 0.0229464 -0.670608 0
M  V30 2175 H 213.405 -0.572604 -1.9632 0
M  V30 2176 H 211.56 1.22673 -3.67464 0
M  V30 2177 H 211.974 -0.344851 -5.23365 0
M  V30 2178 H 213.448 1.36141 -5.34948 0
M  V30 2179 H 213.925 2.13335 -3.83907 0
M  V30 2180 H 214.531 0.505775 -4.22282 0
M  V30 2181 N 212.846 1.57033 -0.133567 0
M  V30 2182 C 214.257 1.82593 0.389464 0
M  V30 2183 C 214.608 1.05156 1.6564 0
M  V30 2184 O 213.733 0.292644 2.14412 0
M  V30 2185 C 214.328 3.31204 0.713377 0
M  V30 2186 C 212.887 3.57393 1.18098 0
M  V30 2187 C 212.034 2.76598 0.197126 0
M  V30 2188 H 214.985 1.54598 -0.358481 0
M  V30 2189 H 215.006 3.46627 1.56939 0
M  V30 2190 H 214.518 3.87537 -0.2089 0
M  V30 2191 H 212.619 3.06433 2.11966 0
M  V30 2192 H 212.732 4.65915 1.11624 0
M  V30 2193 H 211.096 2.45257 0.687088 0
M  V30 2194 H 211.879 3.35697 -0.718504 0
M  V30 2195 N 214.325 -0.140222 1.56975 0
M  V30 2196 C 215.571 -0.852949 1.83991 0
M  V30 2197 C 215.904 -1.80512 0.716187 0
M  V30 2198 O 215.179 -1.92479 -0.279681 0
M  V30 2199 C 215.462 -1.6215 3.21527 0
M  V30 2200 C 215.315 -0.690363 4.4447 0
M  V30 2201 C 216.634 -2.58247 3.56366 0
M  V30 2202 H 213.753 -0.308634 0.669264 0
M  V30 2203 H 216.395 -0.117898 1.89634 0
M  V30 2204 H 214.545 -2.24812 3.16847 0
M  V30 2205 H 216.217 -0.0742264 4.6124 0
M  V30 2206 H 214.46 -0.000396433 4.338 0
M  V30 2207 H 215.131 -1.2643 5.37326 0
M  V30 2208 H 217.607 -2.05701 3.61699 0
M  V30 2209 H 216.483 -3.09067 4.53617 0
M  V30 2210 H 216.744 -3.39923 2.82674 0
M  V30 2211 N 215.803 -1.52179 -0.40978 0
M  V30 2212 C 217.219 -1.40968 -0.74835 0
M  V30 2213 C 217.419 -0.513657 -1.94843 0
M  V30 2214 O 216.475 0.0208026 -2.52491 0
M  V30 2215 C 217.788 -2.83483 -1.0029 0
M  V30 2216 C 219.336 -2.92821 -1.10565 0
M  V30 2217 C 219.811 -4.36303 -1.39296 0
M  V30 2218 N 221.302 -4.39535 -1.46162 0
M  V30 2219 C 222.037 -5.47614 -1.70018 0
M  V30 2220 N 221.533 -6.65812 -1.91483 0
M  V30 2221 N 223.326 -5.35129 -1.72027 0
M  V30 2222 H 215.477 -2.0897 0.380186 0
M  V30 2223 H 217.74 -0.94185 0.107805 0
M  V30 2224 H 217.446 -3.51168 -0.193461 0
M  V30 2225 H 217.32 -3.24487 -1.92323 0
M  V30 2226 H 219.707 -2.25318 -1.90568 0
M  V30 2227 H 219.788 -2.55276 -0.16369 0
M  V30 2228 H 219.432 -5.04366 -0.598109 0
M  V30 2229 H 219.362 -4.71385 -2.34743 0
M  V30 2230 H 221.853 -3.54332 -1.31367 0
M  V30 2231 H 222.166 -7.43964 -2.09134 0
M  V30 2232 H 220.511 -6.68879 -1.88749 0
M  V30 2233 H 223.702 -4.41764 -1.54796 0
M  V30 2234 H 223.875 -6.19433 -1.9028 0
M  V30 2235 N 217.281 0.66697 -1.42791 0
M  V30 2236 C 218.191 1.80962 -1.49299 0
M  V30 2237 C 219.207 1.69775 -0.381108 0
M  V30 2238 O 220.383 1.91188 -0.633188 0
M  V30 2239 C 217.448 3.17156 -1.40045 0
M  V30 2240 C 216.509 3.40242 -2.6179 0
M  V30 2241 C 215.742 4.69939 -2.52969 0
M  V30 2242 O 215.965 5.48372 -1.56985 0
M  V30 2243 O 214.899 4.94441 -3.43237 0
M  V30 2244 H 218.725 1.78427 -2.45759 0
M  V30 2245 H 216.31 0.823713 -1.24641 0
M  V30 2246 H 218.192 3.98413 -1.37276 0
M  V30 2247 H 216.867 3.20312 -0.467138 0
M  V30 2248 H 215.774 2.58802 -2.70134 0
M  V30 2249 H 217.107 3.41923 -3.54047 0
M  V30 2250 N 218.759 1.29093 0.90403 0
M  V30 2251 C 220.007 1.16583 1.65085 0
M  V30 2252 C 220.328 -0.283933 1.92922 0
M  V30 2253 O 219.598 -1.19509 1.55224 0
M  V30 2254 H 218.178 0.428467 0.611903 0
M  V30 2255 H 220.84 1.61959 1.08422 0
M  V30 2256 H 219.936 1.71266 2.6091 0
M  V30 2257 N 220.237 -1.11381 1.11499 0
M  V30 2258 C 221.167 -2.19509 0.796125 0
M  V30 2259 C 222.148 -1.68458 -0.235796 0
M  V30 2260 O 223.333 -1.93947 -0.0991344 0
M  V30 2261 C 220.463 -3.46475 0.239205 0
M  V30 2262 C 219.417 -4.10744 1.20307 0
M  V30 2263 C 218.743 -5.32293 0.50683 0
M  V30 2264 C 220.043 -4.55597 2.55399 0
M  V30 2265 H 221.737 -2.46439 1.70024 0
M  V30 2266 H 219.283 -1.18446 0.818935 0
M  V30 2267 H 221.236 -4.214 0.00392006 0
M  V30 2268 H 219.96 -3.19006 -0.700206 0
M  V30 2269 H 218.619 -3.37813 1.42399 0
M  V30 2270 H 218.267 -5.01095 -0.437408 0
M  V30 2271 H 217.967 -5.76243 1.1497 0
M  V30 2272 H 219.491 -6.09956 0.280351 0
M  V30 2273 H 220.905 -5.21841 2.37391 0
M  V30 2274 H 219.302 -5.10363 3.15673 0
M  V30 2275 H 220.372 -3.69013 3.14575 0
M  V30 2276 N 221.715 -0.905404 -1.28997 0
M  V30 2277 C 223.131 -0.60233 -1.47798 0
M  V30 2278 C 223.331 0.854645 -1.82478 0
M  V30 2279 O 222.387 1.63439 -1.92468 0
M  V30 2280 C 223.7 -1.53306 -2.58685 0
M  V30 2281 C 225.248 -1.53887 -2.72558 0
M  V30 2282 C 225.723 -2.45602 -3.86579 0
M  V30 2283 N 227.214 -2.43681 -3.93921 0
M  V30 2284 C 227.949 -3.11347 -4.81509 0
M  V30 2285 N 227.445 -3.88313 -5.73746 0
M  V30 2286 N 229.238 -3.00476 -4.75048 0
M  V30 2287 H 221.389 -1.84765 -1.04764 0
M  V30 2288 H 223.652 -0.792025 -0.520961 0
M  V30 2289 H 223.358 -2.57141 -2.39941 0
M  V30 2290 H 223.232 -1.25787 -3.55609 0
M  V30 2291 H 225.619 -0.507941 -2.90696 0
M  V30 2292 H 225.7 -1.85447 -1.76191 0
M  V30 2293 H 225.344 -3.48792 -3.69197 0
M  V30 2294 H 225.274 -2.11349 -4.82327 0
M  V30 2295 H 227.765 -1.87767 -3.27951 0
M  V30 2296 H 228.078 -4.36985 -6.37389 0
M  V30 2297 H 226.423 -3.92419 -5.73614 0
M  V30 2298 H 229.614 -2.39858 -4.01977 0
M  V30 2299 H 229.787 -3.53485 -5.43095 0
M  V30 2300 N 223.193 1.4272 -0.668489 0
M  V30 2301 C 224.418 2.06484 -0.194758 0
M  V30 2302 C 224.843 1.49862 1.13679 0
M  V30 2303 O 224.201 0.614582 1.70565 0
M  V30 2304 C 224.249 3.60353 -0.133546 0
M  V30 2305 O 223.353 4.02464 0.899806 0
M  V30 2306 H 222.694 0.656137 -0.10188 0
M  V30 2307 H 225.224 1.82964 -0.915722 0
M  V30 2308 H 225.234 4.07976 0.0447041 0
M  V30 2309 H 223.909 4.00938 -1.1055 0
M  V30 2310 H 222.486 3.66402 0.693109 0
M  V30 2311 N 224.671 0.411399 1.52136 0
M  V30 2312 C 225.621 -0.430376 2.23901 0
M  V30 2313 C 226.605 -1.0116 1.25121 0
M  V30 2314 O 227.797 -0.934044 1.50348 0
M  V30 2315 C 224.926 -1.54527 3.06556 0
M  V30 2316 C 224.012 -0.9747 4.12747 0
M  V30 2317 N 224.403 -0.130991 5.0563 0
M  V30 2318 C 222.701 -1.24497 4.28271 0
M  V30 2319 C 223.402 0.186689 5.814 0
M  V30 2320 N 222.378 -0.42304 5.41951 0
M  V30 2321 H 226.18 0.220509 2.93072 0
M  V30 2322 H 223.694 0.221952 1.60876 0
M  V30 2323 H 225.691 -2.16093 3.56524 0
M  V30 2324 H 224.351 -2.19875 2.38925 0
M  V30 2325 H 225.362 0.23349 5.17373 0
M  V30 2326 H 222.039 -1.89787 3.7187 0
M  V30 2327 H 223.429 0.871673 6.66222 0
M  V30 2328 N 226.149 -1.5696 0.141893 0
M  V30 2329 C 227.079 -2.19516 -0.795936 0
M  V30 2330 C 228.06 -1.14187 -1.26077 0
M  V30 2331 O 229.245 -1.42511 -1.31925 0
M  V30 2332 C 226.375 -2.81272 -2.03723 0
M  V30 2333 C 225.329 -3.92384 -1.70936 0
M  V30 2334 C 224.655 -4.41052 -3.02287 0
M  V30 2335 C 225.955 -5.13403 -0.959954 0
M  V30 2336 H 227.649 -2.98138 -0.274596 0
M  V30 2337 H 225.195 -1.43406 -0.130636 0
M  V30 2338 H 227.148 -3.237 -2.69808 0
M  V30 2339 H 225.872 -1.99973 -2.58221 0
M  V30 2340 H 224.531 -3.50566 -1.07232 0
M  V30 2341 H 224.179 -3.56582 -3.54765 0
M  V30 2342 H 223.879 -5.15993 -2.81114 0
M  V30 2343 H 225.403 -4.86146 -3.69451 0
M  V30 2344 H 226.817 -5.52706 -1.52279 0
M  V30 2345 H 225.214 -5.94073 -0.848357 0
M  V30 2346 H 226.284 -4.84875 0.0492434 0
M  V30 2347 N 227.627 0.131896 -1.57047 0
M  V30 2348 C 228.904 0.871495 -1.75112 0
M  V30 2349 C 229.284 1.9866 -0.713949 0
M  V30 2350 O 228.632 2.26965 0.264447 0
M  V30 2351 C 228.842 1.40007 -3.19686 0
M  V30 2352 C 230.19 1.85752 -3.81813 0
M  V30 2353 O 231.214 1.49715 -3.23209 0
M  V30 2354 O 230.073 2.5226 -4.84796 0
M  V30 2355 H 227.167 0.412919 -0.716538 0
M  V30 2356 H 229.713 0.116641 -1.69299 0
M  V30 2357 H 228.485 0.599404 -3.86682 0
M  V30 2358 H 228.108 2.218 -3.29986 0
M  V30 2359 N 229.106 1.52395 0.401703 0
M  V30 2360 C 230.517 1.58899 0.980202 0
M  V30 2361 C 230.868 0.434032 1.91339 0
M  V30 2362 O 229.993 -0.444619 2.11783 0
M  V30 2363 C 230.588 2.87994 1.78451 0
M  V30 2364 C 229.147 2.96953 2.31292 0
M  V30 2365 C 228.294 2.53903 1.11483 0
M  V30 2366 H 231.245 1.57657 0.18168 0
M  V30 2367 H 231.266 2.73765 2.64259 0
M  V30 2368 H 230.778 3.72035 1.10506 0
M  V30 2369 H 228.879 2.17422 3.02586 0
M  V30 2370 H 228.992 4.01344 2.61649 0
M  V30 2371 H 227.356 2.07925 1.47104 0
M  V30 2372 H 228.139 3.40326 0.450928 0
M  V30 2373 N 230.584 -0.659388 1.43143 0
M  V30 2374 C 232 -0.974337 1.26407 0
M  V30 2375 C 232.2 -2.007 0.179341 0
M  V30 2376 O 231.256 -2.4856 -0.444295 0
M  V30 2377 C 232.569 -1.46447 2.62628 0
M  V30 2378 C 234.117 -1.58144 2.7011 0
M  V30 2379 C 234.592 -2.1055 4.06734 0
M  V30 2380 N 236.083 -2.17861 4.08767 0
M  V30 2381 C 236.818 -2.59519 5.1131 0
M  V30 2382 N 236.314 -3.00518 6.24228 0
M  V30 2383 N 238.107 -2.59404 4.98664 0
M  V30 2384 H 230.258 0.0240528 2.12386 0
M  V30 2385 H 232.521 -0.0518065 0.946583 0
M  V30 2386 H 232.227 -0.780123 3.42939 0
M  V30 2387 H 232.101 -2.44058 2.87603 0
M  V30 2388 H 234.488 -2.25682 1.90136 0
M  V30 2389 H 234.569 -0.589828 2.48907 0
M  V30 2390 H 234.213 -1.43616 4.87172 0
M  V30 2391 H 234.143 -3.10531 4.25298 0
M  V30 2392 H 236.634 -1.88975 3.27257 0
M  V30 2393 H 236.947 -3.31036 6.98309 0
M  V30 2394 H 235.292 -2.98337 6.2771 0
M  V30 2395 H 238.483 -2.26747 4.09516 0
M  V30 2396 H 238.656 -2.91548 5.78709 0
M  V30 2397 N 232.062 -1.29571 -0.897171 0
M  V30 2398 C 233.29 -1.20583 -1.68129 0
M  V30 2399 C 233.705 0.233181 -1.87354 0
M  V30 2400 O 233.062 1.15579 -1.41236 0
M  V30 2401 C 233.113 -1.91772 -3.06441 0
M  V30 2402 O 232.834 -3.30053 -2.88091 0
M  V30 2403 C 234.335 -1.89291 -4.00854 0
M  V30 2404 H 231.555 -0.417826 -0.525036 0
M  V30 2405 H 234.099 -1.70987 -1.12177 0
M  V30 2406 H 232.254 -1.45196 -3.59161 0
M  V30 2407 H 232.668 -3.65942 -3.75748 0
M  V30 2408 H 234.142 -2.43662 -4.95311 0
M  V30 2409 H 234.619 -0.869014 -4.30517 0
M  V30 2410 H 235.225 -2.35622 -3.54066 0
M  V30 2411 N 233.54 1.10788 -1.12088 0
M  V30 2412 C 234.951 1.64181 -0.88891 0
M  V30 2413 C 235.302 1.87508 0.577498 0
M  V30 2414 O 234.427 1.61434 1.44112 0
M  V30 2415 C 235.022 2.98257 -1.60712 0
M  V30 2416 C 233.581 3.4853 -1.42139 0
M  V30 2417 C 232.728 2.23208 -1.6454 0
M  V30 2418 H 235.679 0.943368 -1.27618 0
M  V30 2419 H 235.7 3.65552 -1.05604 0
M  V30 2420 H 235.212 2.81246 -2.67436 0
M  V30 2421 H 233.313 3.70692 -0.376552 0
M  V30 2422 H 233.426 4.26882 -2.17505 0
M  V30 2423 H 231.79 2.31169 -1.06925 0
M  V30 2424 H 232.573 2.08733 -2.72554 0
M  V30 2425 N 235.018 0.912232 1.28515 0
M  V30 2426 C 236.429 0.591352 1.77087 0
M  V30 2427 C 236.78 -0.8933 1.74684 0
M  V30 2428 O 235.905 -1.69876 1.34056 0
M  V30 2429 C 236.5 1.06668 3.2157 0
M  V30 2430 C 235.059 0.79675 3.67871 0
M  V30 2431 C 234.206 1.23427 2.48316 0
M  V30 2432 H 237.157 1.09365 1.15 0
M  V30 2433 H 237.178 0.407455 3.78312 0
M  V30 2434 H 236.69 2.14726 3.23287 0
M  V30 2435 H 234.791 -0.270679 3.71616 0
M  V30 2436 H 234.904 1.40343 4.58084 0
M  V30 2437 H 233.268 0.653036 2.46186 0
M  V30 2438 H 234.051 2.32316 2.52753 0
M  V30 2439 N 236.496 -1.42363 0.676048 0
M  V30 2440 C 237.426 -2.33497 0.0124832 0
M  V30 2441 C 238.407 -1.50748 -0.787981 0
M  V30 2442 O 239.592 -1.79346 -0.744884 0
M  V30 2443 C 236.722 -3.34377 -0.938582 0
M  V30 2444 C 235.676 -4.27289 -0.246622 0
M  V30 2445 C 235.002 -5.18386 -1.31071 0
M  V30 2446 C 236.302 -5.14916 0.875125 0
M  V30 2447 H 237.996 -2.89233 0.773593 0
M  V30 2448 H 235.542 -1.39073 0.37346 0
M  V30 2449 H 237.495 -3.97044 -1.41188 0
M  V30 2450 H 236.219 -2.76947 -1.73113 0
M  V30 2451 H 234.878 -3.66018 0.206456 0
M  V30 2452 H 234.526 -4.57282 -2.09528 0
M  V30 2453 H 234.226 -5.81378 -0.852839 0
M  V30 2454 H 235.75 -5.83929 -1.78492 0
M  V30 2455 H 237.164 -5.71262 0.482983 0
M  V30 2456 H 235.561 -5.86747 1.25887 0
M  V30 2457 H 236.631 -4.53242 1.72335 0
M  V30 2458 N 237.974 -0.419461 -1.51915 0
M  V30 2459 C 239.385 0.0477853 -1.86639 0
M  V30 2460 C 239.736 1.43531 -1.33766 0
M  V30 2461 O 238.861 2.05401 -0.68113 0
M  V30 2462 C 239.456 0.0934885 -3.38671 0
M  V30 2463 C 238.015 0.505097 -3.72996 0
M  V30 2464 C 237.162 -0.313792 -2.75519 0
M  V30 2465 H 240.113 -0.636088 -1.45395 0
M  V30 2466 H 240.134 0.906667 -3.6954 0
M  V30 2467 H 239.646 -0.916501 -3.77123 0
M  V30 2468 H 237.747 1.52135 -3.40126 0
M  V30 2469 H 237.86 0.242309 -4.78487 0
M  V30 2470 H 236.224 0.225363 -2.53701 0
M  V30 2471 H 237.007 -1.32232 -3.16812 0
M  V30 2472 N 239.452 1.56882 -0.150215 0
M  V30 2473 C 240.863 1.82995 0.370076 0
M  V30 2474 C 241.214 1.06907 1.64515 0
M  V30 2475 O 240.339 0.315369 2.1409 0
M  V30 2476 C 240.934 3.31942 0.678208 0
M  V30 2477 C 239.493 3.58625 1.14301 0
M  V30 2478 C 238.64 2.76792 0.167778 0
M  V30 2479 H 241.591 1.54209 -0.374858 0
M  V30 2480 H 241.612 3.48272 1.53254 0
M  V30 2481 H 241.124 3.87294 -0.249991 0
M  V30 2482 H 239.225 3.08664 2.08704 0
M  V30 2483 H 239.338 4.67073 1.06676 0
M  V30 2484 H 237.702 2.45972 0.661037 0
M  V30 2485 H 238.485 3.34916 -0.754069 0
M  V30 2486 N 240.93 -0.123565 1.57115 0
M  V30 2487 C 242.346 -0.476961 1.52306 0
M  V30 2488 C 242.546 -1.82109 0.86248 0
M  V30 2489 O 241.602 -2.48586 0.442884 0
M  V30 2490 C 242.915 -0.465661 2.97073 0
M  V30 2491 C 244.463 -0.549534 3.08138 0
M  V30 2492 C 244.938 -0.568669 4.54456 0
M  V30 2493 N 246.429 -0.630237 4.58892 0
M  V30 2494 C 247.164 -0.666415 5.69514 0
M  V30 2495 N 246.66 -0.660514 6.89644 0
M  V30 2496 N 248.453 -0.709077 5.5761 0
M  V30 2497 H 240.604 0.757198 1.98445 0
M  V30 2498 H 242.867 0.278808 0.906074 0
M  V30 2499 H 242.573 0.454232 3.48754 0
M  V30 2500 H 242.447 -1.29513 3.54269 0
M  V30 2501 H 244.834 -1.45985 2.56461 0
M  V30 2502 H 244.915 0.307532 2.53945 0
M  V30 2503 H 244.559 0.337581 5.06777 0
M  V30 2504 H 244.489 -1.44256 5.06456 0
M  V30 2505 H 246.98 -0.641146 3.72421 0
M  V30 2506 H 247.293 -0.690616 7.69708 0
M  V30 2507 H 245.638 -0.628012 6.92157 0
M  V30 2508 H 248.829 -0.711019 4.62668 0
M  V30 2509 H 249.002 -0.733804 6.43832 0
M  V30 2510 N 242.408 -1.52605 -0.393616 0
M  V30 2511 C 243.318 -1.79971 -1.50492 0
M  V30 2512 C 244.334 -0.686181 -1.59899 0
M  V30 2513 O 245.51 -0.973274 -1.76322 0
M  V30 2514 C 242.575 -1.95867 -2.86072 0
M  V30 2515 C 241.636 -3.19781 -2.86424 0
M  V30 2516 C 240.869 -3.34909 -4.15538 0
M  V30 2517 O 241.092 -2.54948 -5.10253 0
M  V30 2518 O 240.026 -4.28141 -4.23059 0
M  V30 2519 H 243.852 -2.74328 -1.30299 0
M  V30 2520 H 241.437 -1.3764 -0.581005 0
M  V30 2521 H 243.319 -2.08056 -3.66457 0
M  V30 2522 H 241.994 -1.04699 -3.063 0
M  V30 2523 H 240.901 -3.13038 -2.04837 0
M  V30 2524 H 242.234 -4.1078 -2.71147 0
M  V30 2525 N 243.887 0.651787 -1.4349 0
M  V30 2526 C 245.303 0.96762 -1.26922 0
M  V30 2527 C 245.503 2.00602 -0.189982 0
M  V30 2528 O 244.559 2.48793 0.431107 0
M  V30 2529 C 245.872 1.45052 -2.63401 0
M  V30 2530 C 247.42 1.5671 -2.70945 0
M  V30 2531 C 247.895 2.0839 -4.07845 0
M  V30 2532 N 249.386 2.1569 -4.09917 0
M  V30 2533 C 250.121 2.56804 -5.12679 0
M  V30 2534 N 249.617 2.97203 -6.25813 0
M  V30 2535 N 251.41 2.56756 -5.00033 0
M  V30 2536 H 243.561 -0.0353158 -2.12371 0
M  V30 2537 H 245.824 0.0467858 -0.946845 0
M  V30 2538 H 245.53 0.761926 -3.43348 0
M  V30 2539 H 245.404 2.42529 -2.88894 0
M  V30 2540 H 247.791 2.2467 -1.9133 0
M  V30 2541 H 247.872 0.57662 -2.49216 0
M  V30 2542 H 247.516 1.41031 -4.87927 0
M  V30 2543 H 247.446 3.08271 -4.26938 0
M  V30 2544 H 249.937 1.87237 -3.28254 0
M  V30 2545 H 250.25 3.27328 -7.00055 0
M  V30 2546 H 248.595 2.95004 -6.29283 0
M  V30 2547 H 251.786 2.24572 -4.10713 0
M  V30 2548 H 251.959 2.88475 -5.80247 0
M  V30 2549 N 245.365 1.30045 0.890287 0
M  V30 2550 C 246.776 1.16738 1.45702 0
M  V30 2551 C 247.127 -0.233939 1.948 0
M  V30 2552 O 246.252 -1.13021 1.84541 0
M  V30 2553 C 246.847 2.11313 2.64825 0
M  V30 2554 C 245.406 2.02001 3.17604 0
M  V30 2555 C 244.553 2.01699 1.90296 0
M  V30 2556 H 247.504 1.42392 0.700726 0
M  V30 2557 H 247.525 1.69086 3.40867 0
M  V30 2558 H 247.037 3.13294 2.2906 0
M  V30 2559 H 245.138 1.03142 3.5804 0
M  V30 2560 H 245.251 2.90128 3.81264 0
M  V30 2561 H 243.615 1.46427 2.08402 0
M  V30 2562 H 244.398 3.05402 1.56795 0
M  V30 2563 N 246.843 -1.10192 1.12674 0
M  V30 2564 C 247.793 -2.14754 0.765801 0
M  V30 2565 C 248.777 -1.59154 -0.236409 0
M  V30 2566 O 249.969 -1.76951 -0.0415261 0
M  V30 2567 C 247.098 -3.42563 0.224827 0
M  V30 2568 C 246.184 -4.05091 1.25548 0
M  V30 2569 N 246.575 -4.42287 2.4539 0
M  V30 2570 C 244.873 -4.32186 1.10142 0
M  V30 2571 C 245.574 -4.91441 3.11224 0
M  V30 2572 N 244.55 -4.88405 2.38666 0
M  V30 2573 H 248.352 -2.41309 1.67772 0
M  V30 2574 H 245.866 -1.27339 1.00789 0
M  V30 2575 H 247.863 -4.16868 -0.0519578 0
M  V30 2576 H 246.523 -3.17467 -0.681515 0
M  V30 2577 H 247.534 -4.33902 2.82754 0
M  V30 2578 H 244.211 -4.16735 0.252587 0
M  V30 2579 H 245.601 -5.29749 4.13298 0
M  V30 2580 N 248.321 -0.919034 -1.28029 0
M  V30 2581 C 249.549 -0.570971 -1.98866 0
M  V30 2582 C 249.964 0.848996 -1.68634 0
M  V30 2583 O 249.321 1.56307 -0.942036 0
M  V30 2584 C 249.372 -0.776876 -3.53054 0
M  V30 2585 O 249.093 -2.14097 -3.82222 0
M  V30 2586 C 250.594 -0.436356 -4.41147 0
M  V30 2587 H 247.814 -0.217175 -0.634883 0
M  V30 2588 H 250.358 -1.23368 -1.63097 0
M  V30 2589 H 248.513 -0.161085 -3.87065 0
M  V30 2590 H 248.927 -2.18455 -4.76841 0
M  V30 2591 H 250.401 -0.63117 -5.4838 0
M  V30 2592 H 250.878 0.627686 -4.34692 0
M  V30 2593 H 251.484 -1.02991 -4.12641 0
M  V30 2594 N 249.799 1.42003 -0.683588 0
M  V30 2595 C 251.024 2.06265 -0.216647 0
M  V30 2596 C 251.449 1.51059 1.12083 0
M  V30 2597 O 250.807 0.632638 1.69904 0
M  V30 2598 C 250.855 3.60191 -0.171759 0
M  V30 2599 O 249.959 4.03396 0.857069 0
M  V30 2600 H 249.3 0.65502 -0.108834 0
M  V30 2601 H 251.83 1.81982 -0.935077 0
M  V30 2602 H 251.84 4.08 0.0014303 0
M  V30 2603 H 250.515 3.99743 -1.14796 0
M  V30 2604 H 249.092 3.67117 0.654208 0
M  V30 2605 N 251.277 0.427512 1.51691 0
M  V30 2606 C 252.525 -0.141948 2.01601 0
M  V30 2607 C 252.846 -1.44067 1.31414 0
M  V30 2608 O 252.116 -1.90763 0.445658 0
M  V30 2609 H 250.696 -0.0554468 0.744939 0
M  V30 2610 H 253.358 0.567968 1.86441 0
M  V30 2611 H 252.454 -0.324913 3.10404 0
M  V30 2612 N 252.755 -1.56801 0.158532 0
M  V30 2613 C 253.705 -2.13923 -0.788738 0
M  V30 2614 C 254.689 -1.07006 -1.2016 0
M  V30 2615 O 255.881 -1.33159 -1.1661 0
M  V30 2616 C 253.01 -2.77348 -2.02319 0
M  V30 2617 C 252.096 -3.91404 -1.6329 0
M  V30 2618 N 252.487 -4.9677 -0.951463 0
M  V30 2619 C 250.785 -4.02326 -1.92482 0
M  V30 2620 C 251.486 -5.76698 -0.761221 0
M  V30 2621 N 250.462 -5.27859 -1.29869 0
M  V30 2622 H 254.264 -2.92757 -0.258995 0
M  V30 2623 H 251.778 -1.62344 -0.0426055 0
M  V30 2624 H 253.775 -3.16639 -2.71192 0
M  V30 2625 H 252.435 -1.99991 -2.558 0
M  V30 2626 H 253.446 -5.14284 -0.610928 0
M  V30 2627 H 250.123 -3.36059 -2.47732 0
M  V30 2628 H 251.513 -6.71529 -0.223284 0
M  V30 2629 N 254.233 0.115231 -1.57178 0
M  V30 2630 C 255.183 1.14707 -1.97044 0
M  V30 2631 C 256.167 1.36866 -0.845957 0
M  V30 2632 O 257.359 1.37895 -1.10968 0
M  V30 2633 C 254.488 2.47266 -2.38148 0
M  V30 2634 C 253.574 2.28566 -3.57237 0
M  V30 2635 N 253.965 1.79685 -4.72807 0
M  V30 2636 C 252.263 2.59208 -3.62943 0
M  V30 2637 C 252.964 1.74781 -5.54821 0
M  V30 2638 N 251.94 2.19264 -4.97417 0
M  V30 2639 H 255.742 0.761754 -2.83857 0
M  V30 2640 H 253.256 0.322928 -1.59157 0
M  V30 2641 H 255.253 3.219 -2.64927 0
M  V30 2642 H 253.913 2.86552 -1.52702 0
M  V30 2643 H 254.924 1.49177 -4.9595 0
M  V30 2644 H 251.601 3.02154 -2.88113 0
M  V30 2645 H 252.991 1.38212 -6.57531 0
M  V30 2646 N 255.711 1.52812 0.385517 0
M  V30 2647 C 256.959 1.67694 1.12797 0
M  V30 2648 C 257.28 0.421115 1.90399 0
M  V30 2649 O 256.55 -0.564551 1.87589 0
M  V30 2650 H 255.13 0.618155 0.419396 0
M  V30 2651 H 257.792 1.89938 0.436972 0
M  V30 2652 H 256.888 2.52896 1.82894 0
M  V30 2653 N 257.189 -0.644168 1.43834 0
M  V30 2654 C 258.152 -1.73857 1.49353 0
M  V30 2655 C 259.152 -1.56315 0.377112 0
M  V30 2656 O 260.342 -1.62048 0.639226 0
M  V30 2657 C 257.474 -3.12819 1.35488 0
M  V30 2658 H 258.667 -1.70342 2.46827 0
M  V30 2659 H 256.22 -0.856652 1.30733 0
M  V30 2660 H 256.955 -3.2194 0.390569 0
M  V30 2661 H 256.74 -3.26958 2.16428 0
M  V30 2662 H 258.23 -3.92606 1.42302 0
M  V30 2663 N 258.668 -1.30515 -0.883378 0
M  V30 2664 C 259.916 -1.19194 -1.63209 0
M  V30 2665 C 260.237 0.253205 -1.93349 0
M  V30 2666 O 259.507 1.17025 -1.57105 0
M  V30 2667 H 258.087 -0.438148 -0.605009 0
M  V30 2668 H 260.749 -1.63663 -1.05832 0
M  V30 2669 H 259.845 -1.75396 -2.58153 0
M  V30 2670 N 260.146 1.09593 -1.13257 0
M  V30 2671 C 261.056 2.19739 -0.821691 0
M  V30 2672 C 262.072 1.72926 0.19302 0
M  V30 2673 O 263.248 2.01385 0.0244895 0
M  V30 2674 C 260.313 3.45482 -0.290333 0
M  V30 2675 C 259.374 4.06985 -1.36607 0
M  V30 2676 C 258.607 5.26726 -0.859975 0
M  V30 2677 O 258.83 5.69594 0.303082 0
M  V30 2678 O 257.764 5.7931 -1.63351 0
M  V30 2679 H 261.59 2.48781 -1.74189 0
M  V30 2680 H 259.175 1.18496 -0.909894 0
M  V30 2681 H 261.057 4.214 0.000674022 0
M  V30 2682 H 259.732 3.18047 0.602306 0
M  V30 2683 H 258.639 3.32712 -1.71037 0
M  V30 2684 H 259.972 4.38643 -2.23279 0
M  V30 2685 N 261.624 0.925811 1.2754 0
M  V30 2686 C 262.587 0.428129 2.25166 0
M  V30 2687 C 263.587 -0.452261 1.54309 0
M  V30 2688 O 264.777 -0.253608 1.72344 0
M  V30 2689 C 261.909 -0.384749 3.38722 0
M  V30 2690 H 263.102 1.29066 2.70706 0
M  V30 2691 H 260.655 0.706323 1.3943 0
M  V30 2692 H 261.39 -1.26618 2.98561 0
M  V30 2693 H 261.175 0.246454 3.91325 0
M  V30 2694 H 262.665 -0.723389 4.11287 0
M  V30 2695 N 263.102 -1.41638 0.69111 0
M  V30 2696 C 264.518 -1.55435 0.362224 0
M  V30 2697 C 264.718 -1.66754 -1.13117 0
M  V30 2698 O 263.774 -1.64348 -1.91692 0
M  V30 2699 C 265.087 -2.79588 1.10684 0
M  V30 2700 C 266.635 -2.9338 1.09075 0
M  V30 2701 C 267.11 -4.20414 1.81703 0
M  V30 2702 N 268.601 -4.27362 1.7865 0
M  V30 2703 C 269.336 -5.24507 2.31689 0
M  V30 2704 N 268.832 -6.27708 2.93179 0
M  V30 2705 N 270.625 -5.16416 2.2197 0
M  V30 2706 H 262.776 -1.32536 1.65976 0
M  V30 2707 H 265.039 -0.639115 0.700168 0
M  V30 2708 H 264.745 -2.77419 2.16175 0
M  V30 2709 H 264.619 -3.70973 0.682545 0
M  V30 2710 H 267.006 -2.95067 0.0441238 0
M  V30 2711 H 267.087 -2.0318 1.55407 0
M  V30 2712 H 266.731 -4.19488 2.86343 0
M  V30 2713 H 266.661 -5.09578 1.32808 0
M  V30 2714 H 269.152 -3.53415 1.33815 0
M  V30 2715 H 269.465 -6.98217 3.31229 0
M  V30 2716 H 267.81 -6.28223 2.97255 0
M  V30 2717 H 271.001 -4.34716 1.73607 0
M  V30 2718 H 271.174 -5.91958 2.63609 0
M  V30 2719 N 264.58 -0.43555 -1.51462 0
M  V30 2720 C 265.543 0.365137 -2.26273 0
M  V30 2721 C 266.543 0.951227 -1.29647 0
M  V30 2722 O 267.733 0.825958 -1.53374 0
M  V30 2723 C 264.865 1.51645 -3.05314 0
M  V30 2724 H 266.058 -0.290474 -2.9849 0
M  V30 2725 H 263.611 -0.188676 -1.55157 0
M  V30 2726 H 264.346 2.20816 -2.3751 0
M  V30 2727 H 264.131 1.10238 -3.76284 0
M  V30 2728 H 265.621 2.08218 -3.61987 0
M  V30 2729 N 266.058 1.56714 -0.166846 0
M  V30 2730 C 267.286 2.0112 0.485644 0
M  V30 2731 C 267.701 1.04705 1.57106 0
M  V30 2732 O 267.058 0.0471923 1.82439 0
M  V30 2733 C 267.109 3.45361 1.06808 0
M  V30 2734 O 266.83 4.38092 0.0259995 0
M  V30 2735 C 268.331 4.05145 1.79924 0
M  V30 2736 H 265.551 0.65931 0.124704 0
M  V30 2737 H 268.095 2.02746 -0.267262 0
M  V30 2738 H 266.25 3.44524 1.7715 0
M  V30 2739 H 266.664 5.22519 0.455398 0
M  V30 2740 H 268.138 5.08009 2.15942 0
M  V30 2741 H 268.615 3.46982 2.69258 0
M  V30 2742 H 269.221 4.09672 1.14234 0
M  V30 2743 N 267.536 -0.106894 1.57237 0
M  V30 2744 C 268.499 -1.11466 2.0027 0
M  V30 2745 C 269.499 -1.33623 0.894519 0
M  V30 2746 O 270.689 -1.29935 1.16028 0
M  V30 2747 C 267.821 -2.46646 2.35327 0
M  V30 2748 H 269.014 -0.744516 2.90512 0
M  V30 2749 H 266.567 -0.351576 1.52295 0
M  V30 2750 H 267.302 -2.88558 1.48003 0
M  V30 2751 H 267.087 -2.31915 3.16161 0
M  V30 2752 H 268.577 -3.19151 2.69318 0
M  V30 2753 N 269.014 -1.53014 -0.377408 0
M  V30 2754 C 270.425 -1.60438 -0.954798 0
M  V30 2755 C 270.776 -0.464418 -1.90624 0
M  V30 2756 O 269.901 0.41087 -2.12464 0
M  V30 2757 C 270.496 -2.90797 -1.73847 0
M  V30 2758 C 269.055 -3.00595 -2.26538 0
M  V30 2759 C 268.202 -2.55645 -1.07429 0
M  V30 2760 H 271.153 -1.57926 -0.156575 0
M  V30 2761 H 271.174 -2.77935 -2.5987 0
M  V30 2762 H 270.686 -3.73746 -1.04574 0
M  V30 2763 H 268.787 -2.22208 -2.99089 0
M  V30 2764 H 268.9 -4.05456 -2.5523 0
M  V30 2765 H 267.264 -2.10239 -1.43777 0
M  V30 2766 H 268.047 -3.41 -0.396728 0
M  V30 2767 N 270.492 0.636531 -1.44174 0
M  V30 2768 C 271.717 1.42847 -1.50364 0
M  V30 2769 C 272.142 1.87665 -0.127867 0
M  V30 2770 O 271.5 1.58408 0.88185 0
M  V30 2771 C 271.548 2.62854 -2.4686 0
M  V30 2772 O 270.652 3.62501 -1.9664 0
M  V30 2773 H 269.993 0.427642 -0.507955 0
M  V30 2774 H 272.523 0.777422 -1.89255 0
M  V30 2775 H 272.533 3.10465 -2.64718 0
M  V30 2776 H 271.208 2.29578 -3.46795 0
M  V30 2777 H 269.785 3.21735 -1.88523 0
M  V30 2778 N 271.97 1.30982 0.876444 0
M  V30 2779 C 273.198 1.23242 1.6619 0
M  V30 2780 C 273.613 -0.203345 1.87702 0
M  V30 2781 O 272.97 -1.13317 1.43057 0
M  V30 2782 C 273.021 1.96623 3.03351 0
M  V30 2783 O 272.742 3.34594 2.82804 0
M  V30 2784 C 274.243 1.95644 3.97792 0
M  V30 2785 H 271.463 0.426126 0.518322 0
M  V30 2786 H 274.007 1.7275 1.09442 0
M  V30 2787 H 272.162 1.50892 3.56806 0
M  V30 2788 H 272.576 3.71873 3.69879 0
M  V30 2789 H 274.05 2.51511 4.91372 0
M  V30 2790 H 274.527 0.937395 4.2908 0
M  V30 2791 H 275.133 2.41225 3.50272 0
M  V30 2792 N 273.449 -1.08991 1.13837 0
M  V30 2793 C 274.695 -1.81526 0.90422 0
M  V30 2794 C 275.028 -1.85706 -0.568066 0
M  V30 2795 O 274.303 -1.32855 -1.42056 0
M  V30 2796 C 274.586 -3.27447 1.49835 0
M  V30 2797 C 274.439 -3.31512 3.04006 0
M  V30 2798 C 275.758 -4.24256 1.17025 0
M  V30 2799 H 272.877 -0.659029 0.329923 0
M  V30 2800 H 275.519 -1.27644 1.40737 0
M  V30 2801 H 273.669 -3.73462 1.07044 0
M  V30 2802 H 275.341 -2.93867 3.55584 0
M  V30 2803 H 273.584 -2.70963 3.38765 0
M  V30 2804 H 274.255 -4.34329 3.40679 0
M  V30 2805 H 276.731 -3.86549 1.54009 0
M  V30 2806 H 275.607 -5.24684 1.61237 0
M  V30 2807 H 275.868 -4.42019 0.0846274 0
M  V30 2808 N 274.927 -0.932562 -1.27047 0
M  V30 2809 C 276.152 -0.591474 -1.98787 0
M  V30 2810 C 276.577 0.824601 -1.69062 0
M  V30 2811 O 275.935 1.5541 -0.933677 0
M  V30 2812 C 275.983 -0.829808 -3.50922 0
M  V30 2813 O 275.087 0.102266 -4.12273 0
M  V30 2814 H 274.428 -0.227185 -0.623926 0
M  V30 2815 H 276.958 -1.25314 -1.61733 0
M  V30 2816 H 276.968 -0.747292 -4.01098 0
M  V30 2817 H 275.643 -1.86201 -3.7189 0
M  V30 2818 H 274.22 -0.0305761 -3.72887 0
M  V30 2819 N 276.405 1.4127 -0.698611 0
M  V30 2820 C 277.816 1.84187 -0.305289 0
M  V30 2821 C 278.167 1.58449 1.15708 0
M  V30 2822 O 277.292 1.05651 1.88856 0
M  V30 2823 C 277.887 3.3435 -0.547314 0
M  V30 2824 C 276.446 3.75826 -0.207878 0
M  V30 2825 C 275.593 2.64647 -0.828099 0
M  V30 2826 H 278.544 1.30778 -0.89904 0
M  V30 2827 H 278.565 3.8001 0.192998 0
M  V30 2828 H 278.077 3.53051 -1.61172 0
M  V30 2829 H 276.178 3.62725 0.852143 0
M  V30 2830 H 276.291 4.74462 -0.665021 0
M  V30 2831 H 274.655 2.53395 -0.257458 0
M  V30 2832 H 275.438 2.86165 -1.89643 0
M  V30 2833 N 277.883 0.443576 1.51229 0
M  V30 2834 C 279.113 -0.119117 2.06256 0
M  V30 2835 C 279.521 -1.36471 1.31043 0
M  V30 2836 O 278.864 -1.80034 0.365151 0
M  V30 2837 C 278.926 -0.500546 3.55998 0
M  V30 2838 C 278.59 0.639125 4.52509 0
M  V30 2839 C 279.587 1.51311 4.97394 0
M  V30 2840 C 277.272 0.821632 4.95535 0
M  V30 2841 C 279.266 2.55425 5.83984 0
M  V30 2842 C 276.953 1.86603 5.81913 0
M  V30 2843 C 277.951 2.73072 6.26036 0
M  V30 2844 O 277.639 3.75718 7.10698 0
M  V30 2845 H 277.371 -0.00857665 0.675946 0
M  V30 2846 H 279.925 0.623288 1.95715 0
M  V30 2847 H 278.155 -1.29575 3.64345 0
M  V30 2848 H 279.844 -0.995116 3.93513 0
M  V30 2849 H 280.61 1.38367 4.64844 0
M  V30 2850 H 276.489 0.158149 4.60729 0
M  V30 2851 H 280.033 3.22949 6.18344 0
M  V30 2852 H 275.93 1.99564 6.13876 0
M  V30 2853 H 276.698 3.72374 7.2889 0
M  V30 2854 N 279.361 -1.56624 0.175154 0
M  V30 2855 C 280.609 -1.96609 -0.467885 0
M  V30 2856 C 280.93 -1.06238 -1.63519 0
M  V30 2857 O 280.2 -0.129523 -1.95471 0
M  V30 2858 H 278.78 -0.726008 -0.175845 0
M  V30 2859 H 281.442 -1.93195 0.257234 0
M  V30 2860 H 280.538 -3.00989 -0.825342 0
M  V30 2861 N 280.839 0.0985539 -1.57292 0
M  V30 2862 C 282.25 0.653457 -1.74891 0
M  V30 2863 C 282.601 1.7929 -0.796838 0
M  V30 2864 O 281.726 2.16385 0.0254886 0
M  V30 2865 C 282.321 1.19216 -3.17133 0
M  V30 2866 C 280.88 1.69316 -3.36168 0
M  V30 2867 C 280.027 0.601294 -2.70702 0
M  V30 2868 H 282.978 -0.127497 -1.58187 0
M  V30 2869 H 282.999 2.06154 -3.19814 0
M  V30 2870 H 282.511 0.362635 -3.86402 0
M  V30 2871 H 280.612 2.5468 -2.71972 0
M  V30 2872 H 280.725 1.78853 -4.44464 0
M  V30 2873 H 279.089 1.0399 -2.32504 0
M  V30 2874 H 279.872 -0.217592 -3.4261 0
M  V30 2875 N 282.317 1.53212 0.369288 0
M  V30 2876 C 283.227 1.82342 1.47609 0
M  V30 2877 C 284.243 0.711532 1.58787 0
M  V30 2878 O 285.419 1.0012 1.74751 0
M  V30 2879 C 282.484 2.00393 2.8292 0
M  V30 2880 C 281.545 3.24297 2.81301 0
M  V30 2881 C 280.778 3.41478 4.10157 0
M  V30 2882 O 281.001 2.63033 5.06132 0
M  V30 2883 O 279.935 4.34817 4.16194 0
M  V30 2884 H 283.761 2.76366 1.25918 0
M  V30 2885 H 281.346 1.38547 0.559034 0
M  V30 2886 H 283.228 2.13859 3.63101 0
M  V30 2887 H 281.903 1.09559 3.04596 0
M  V30 2888 H 280.81 3.16257 1.99831 0
M  V30 2889 H 282.143 4.15041 2.64578 0
M  V30 2890 N 283.795 -0.628877 1.44509 0
M  V30 2891 C 284.758 -1.72263 1.51188 0
M  V30 2892 C 285.758 -1.55907 0.39367 0
M  V30 2893 O 286.948 -1.61361 0.656377 0
M  V30 2894 C 284.08 -3.11365 1.38798 0
M  V30 2895 H 285.273 -1.67714 2.4862 0
M  V30 2896 H 282.826 -0.842737 1.31634 0
M  V30 2897 H 283.561 -3.21507 0.424693 0
M  V30 2898 H 283.346 -3.24644 2.19884 0
M  V30 2899 H 284.836 -3.91075 1.46458 0
M  V30 2900 N 285.273 -1.31445 -0.869486 0
M  V30 2901 C 286.689 -1.10113 -1.15531 0
M  V30 2902 C 286.889 0.128087 -2.01092 0
M  V30 2903 O 285.945 0.817276 -2.38908 0
M  V30 2904 C 287.258 -2.37291 -1.84698 0
M  V30 2905 C 288.806 -2.42906 -1.97397 0
M  V30 2906 C 289.281 -3.69967 -2.69979 0
M  V30 2907 N 290.772 -3.70864 -2.77514 0
M  V30 2908 C 291.507 -4.65875 -3.34287 0
M  V30 2909 N 291.003 -5.71242 -3.91988 0
M  V30 2910 N 292.796 -4.53394 -3.3225 0
M  V30 2911 H 284.947 -2.1028 -0.299347 0
M  V30 2912 H 287.21 -0.927683 -0.195214 0
M  V30 2913 H 286.916 -3.27078 -1.29278 0
M  V30 2914 H 286.79 -2.47125 -2.84972 0
M  V30 2915 H 289.177 -1.53588 -2.51982 0
M  V30 2916 H 289.258 -2.37036 -0.961643 0
M  V30 2917 H 288.902 -4.59652 -2.16062 0
M  V30 2918 H 288.832 -3.73103 -3.7162 0
M  V30 2919 H 291.323 -2.94697 -2.36563 0
M  V30 2920 H 291.636 -6.39817 -4.33421 0
M  V30 2921 H 289.981 -5.75015 -3.90362 0
M  V30 2922 H 293.172 -3.70252 -2.8641 0
M  V30 2923 H 293.345 -5.27617 -3.76197 0
M  V30 2924 N 286.751 1.08385 -1.14413 0
M  V30 2925 C 287.714 2.13486 -0.834048 0
M  V30 2926 C 288.714 1.59988 0.161418 0
M  V30 2927 O 289.904 1.74071 -0.0669575 0
M  V30 2928 C 287.036 3.4003 -0.243354 0
M  V30 2929 H 288.229 2.42425 -1.7655 0
M  V30 2930 H 285.782 1.24101 -0.950189 0
M  V30 2931 H 286.517 3.16726 0.696807 0
M  V30 2932 H 286.302 3.80157 -0.960367 0
M  V30 2933 H 287.792 4.17577 -0.0436242 0
M  V30 2934 N 288.23 0.939286 1.26551 0
M  V30 2935 C 289.14 0.453432 2.30176 0
M  V30 2936 C 290.156 -0.471649 1.67486 0
M  V30 2937 O 291.332 -0.35164 1.98306 0
M  V30 2938 C 288.397 -0.275326 3.45605 0
M  V30 2939 C 287.458 0.686084 4.23782 0
M  V30 2940 C 286.691 -0.00798994 5.33699 0
M  V30 2941 O 286.914 -1.22528 5.57085 0
M  V30 2942 O 285.848 0.669746 5.98162 0
M  V30 2943 H 289.674 1.31416 2.73795 0
M  V30 2944 H 287.259 0.705095 1.31715 0
M  V30 2945 H 289.141 -0.685911 4.1578 0
M  V30 2946 H 287.816 -1.11147 3.0402 0
M  V30 2947 H 286.723 1.14658 3.56096 0
M  V30 2948 H 288.056 1.48979 4.69112 0
M  V30 2949 N 289.708 -1.40897 0.706093 0
M  V30 2950 C 290.638 -2.33418 0.0620085 0
M  V30 2951 C 291.619 -1.52385 -0.755827 0
M  V30 2952 O 292.804 -1.80886 -0.706674 0
M  V30 2953 C 289.934 -3.36293 -0.867445 0
M  V30 2954 C 288.888 -4.27716 -0.155932 0
M  V30 2955 C 288.214 -5.2105 -1.20046 0
M  V30 2956 C 289.514 -5.12944 0.984149 0
M  V30 2957 H 291.208 -2.87527 0.83477 0
M  V30 2958 H 288.754 -1.38249 0.402875 0
M  V30 2959 H 290.707 -3.99949 -1.32735 0
M  V30 2960 H 289.431 -2.80556 -1.67199 0
M  V30 2961 H 288.09 -3.65498 0.284047 0
M  V30 2962 H 287.738 -4.61624 -1.99781 0
M  V30 2963 H 287.438 -5.83056 -0.729328 0
M  V30 2964 H 288.962 -5.87584 -1.66066 0
M  V30 2965 H 290.376 -5.70109 0.604048 0
M  V30 2966 H 288.773 -5.83945 1.38304 0
M  V30 2967 H 289.843 -4.49485 1.81911 0
M  V30 2968 N 291.186 -0.45159 -1.50991 0
M  V30 2969 C 292.411 0.110667 -2.07105 0
M  V30 2970 C 292.836 1.3446 -1.31538 0
M  V30 2971 O 292.194 1.77743 -0.357365 0
M  V30 2972 C 292.242 0.397238 -3.58405 0
M  V30 2973 O 291.346 1.48124 -3.84881 0
M  V30 2974 H 290.687 -0.00439271 -0.663985 0
M  V30 2975 H 293.217 -0.637026 -1.9443 0
M  V30 2976 H 293.227 0.64351 -4.02893 0
M  V30 2977 H 291.902 -0.504553 -4.12828 0
M  V30 2978 H 290.479 1.22381 -3.52246 0
M  V30 2979 N 292.664 1.56529 -0.183458 0
M  V30 2980 C 293.889 2.02064 0.467428 0
M  V30 2981 C 294.314 1.06282 1.55196 0
M  V30 2982 O 293.672 0.0443565 1.81246 0
M  V30 2983 C 293.72 3.46122 1.01153 0
M  V30 2984 O 292.824 3.53437 2.12499 0
M  V30 2985 H 292.165 0.654726 0.110588 0
M  V30 2986 H 294.695 2.02521 -0.290917 0
M  V30 2987 H 294.705 3.85676 1.33108 0
M  V30 2988 H 293.38 4.15331 0.217533 0
M  V30 2989 H 291.957 3.2575 1.81497 0
M  V30 2990 N 294.142 -0.090211 1.57342 0
M  V30 2991 C 295.558 -0.444547 1.53284 0
M  V30 2992 C 295.758 -1.80238 0.900914 0
M  V30 2993 O 294.814 -2.4759 0.495513 0
M  V30 2994 C 296.127 -0.402543 2.97993 0
M  V30 2995 C 297.675 -0.48405 3.09234 0
M  V30 2996 C 298.15 -0.472144 4.5556 0
M  V30 2997 N 299.641 -0.532757 4.60126 0
M  V30 2998 C 300.376 -0.545462 5.708 0
M  V30 2999 N 299.872 -0.514082 6.9089 0
M  V30 3000 N 301.665 -0.59064 5.58988 0
M  V30 3001 H 293.816 0.799121 1.96794 0
M  V30 3002 H 296.079 0.297965 0.899956 0
M  V30 3003 H 295.785 0.528106 3.47712 0
M  V30 3004 H 295.659 -1.21969 3.56936 0
M  V30 3005 H 298.046 -1.40512 2.595 0
M  V30 3006 H 298.127 0.361328 2.53235 0
M  V30 3007 H 297.771 0.445 5.05947 0
M  V30 3008 H 297.701 -1.3348 5.09402 0
M  V30 3009 H 300.192 -0.562006 3.73698 0
M  V30 3010 H 300.505 -0.527195 7.71 0
M  V30 3011 H 298.85 -0.481054 6.93333 0
M  V30 3012 H 302.041 -0.61272 4.64073 0
M  V30 3013 H 302.214 -0.597073 6.45243 0
M  V30 3014 N 295.62 -1.53406 -0.361157 0
M  V30 3015 C 296.55 -1.83136 -1.44857 0
M  V30 3016 C 297.531 -0.685174 -1.5569 0
M  V30 3017 O 298.716 -0.93544 -1.70186 0
M  V30 3018 C 295.846 -2.02522 -2.82138 0
M  V30 3019 C 294.8 -3.18302 -2.86126 0
M  V30 3020 C 294.126 -3.22989 -4.26125 0
M  V30 3021 C 295.426 -4.56796 -2.53248 0
M  V30 3022 H 297.12 -2.74201 -1.20226 0
M  V30 3023 H 294.666 -1.31938 -0.576922 0
M  V30 3024 H 296.619 -2.21904 -3.58241 0
M  V30 3025 H 295.343 -1.08172 -3.08166 0
M  V30 3026 H 294.002 -2.98747 -2.12475 0
M  V30 3027 H 293.65 -2.26267 -4.49235 0
M  V30 3028 H 293.35 -4.00781 -4.29708 0
M  V30 3029 H 294.874 -3.44559 -5.04094 0
M  V30 3030 H 296.288 -4.7631 -3.19064 0
M  V30 3031 H 294.685 -5.36862 -2.68141 0
M  V30 3032 H 295.755 -4.61606 -1.48484 0
M  V30 3033 N 297.098 0.621204 -1.44841 0
M  V30 3034 C 298.326 1.40752 -1.51646 0
M  V30 3035 C 298.741 1.88246 -0.144549 0
M  V30 3036 O 298.098 1.61422 0.851416 0
M  V30 3037 C 298.149 2.62119 -2.4895 0
M  V30 3038 O 297.87 2.16602 -3.80808 0
M  V30 3039 C 299.371 3.55135 -2.65319 0
M  V30 3040 H 296.591 0.431325 -0.514004 0
M  V30 3041 H 299.135 0.758835 -1.899 0
M  V30 3042 H 297.29 3.23058 -2.13805 0
M  V30 3043 H 297.704 2.95358 -4.33433 0
M  V30 3044 H 299.178 4.36874 -3.37409 0
M  V30 3045 H 299.655 4.04592 -1.70886 0
M  V30 3046 H 300.261 3.00058 -3.01405 0
M  V30 3047 N 298.576 1.31904 0.862503 0
M  V30 3048 C 299.804 1.24998 1.64873 0
M  V30 3049 C 300.219 -0.183425 1.87907 0
M  V30 3050 O 299.576 -1.11794 1.44251 0
M  V30 3051 C 299.627 1.99829 3.01248 0
M  V30 3052 O 299.348 3.37575 2.79239 0
M  V30 3053 C 300.849 1.99852 3.95694 0
M  V30 3054 H 298.069 0.431599 0.513773 0
M  V30 3055 H 300.613 1.73901 1.07604 0
M  V30 3056 H 298.768 1.54668 3.55185 0
M  V30 3057 H 299.182 3.75776 3.65914 0
M  V30 3058 H 300.656 2.56709 4.88676 0
M  V30 3059 H 301.133 0.982852 4.28062 0
M  V30 3060 H 301.739 2.44926 3.47694 0
M  V30 3061 N 300.054 -1.07777 1.14986 0
M  V30 3062 C 300.984 -2.16865 0.865557 0
M  V30 3063 C 301.965 -1.69123 -0.182083 0
M  V30 3064 O 303.15 -1.94164 -0.0373815 0
M  V30 3065 C 300.28 -3.45539 0.349313 0
M  V30 3066 C 299.234 -4.06708 1.33313 0
M  V30 3067 C 298.56 -5.30411 0.675918 0
M  V30 3068 C 299.86 -4.47241 2.69764 0
M  V30 3069 H 301.554 -2.40905 1.77778 0
M  V30 3070 H 299.1 -1.15781 0.856203 0
M  V30 3071 H 301.053 -4.21174 0.137983 0
M  V30 3072 H 299.777 -3.21072 -0.598362 0
M  V30 3073 H 298.436 -3.33112 1.53075 0
M  V30 3074 H 298.084 -5.02232 -0.277767 0
M  V30 3075 H 297.784 -5.72293 1.33244 0
M  V30 3076 H 299.308 -6.08755 0.474262 0
M  V30 3077 H 300.722 -5.14025 2.53873 0
M  V30 3078 H 299.119 -5.00062 3.3175 0
M  V30 3079 H 300.189 -3.58818 3.26156 0
M  V30 3080 N 301.532 -0.945985 -1.26051 0
M  V30 3081 C 302.948 -0.649045 -1.45807 0
M  V30 3082 C 303.148 0.796158 -1.85104 0
M  V30 3083 O 302.204 1.57233 -1.97571 0
M  V30 3084 C 303.517 -1.61458 -2.53677 0
M  V30 3085 C 305.065 -1.62481 -2.67524 0
M  V30 3086 C 305.54 -2.57776 -3.7857 0
M  V30 3087 N 307.031 -2.5609 -3.85969 0
M  V30 3088 C 307.766 -3.26508 -4.7136 0
M  V30 3089 N 307.262 -4.0637 -5.61102 0
M  V30 3090 N 309.055 -3.15437 -4.65248 0
M  V30 3091 H 301.206 -1.88005 -0.988328 0
M  V30 3092 H 303.469 -0.808198 -0.4955 0
M  V30 3093 H 303.175 -2.64644 -2.31638 0
M  V30 3094 H 303.049 -1.37036 -3.51427 0
M  V30 3095 H 305.436 -0.600167 -2.88933 0
M  V30 3096 H 305.517 -1.90958 -1.70202 0
M  V30 3097 H 305.161 -3.60361 -3.57913 0
M  V30 3098 H 305.091 -2.26587 -4.75359 0
M  V30 3099 H 307.582 -1.98105 -3.21812 0
M  V30 3100 H 307.895 -4.57042 -6.23164 0
M  V30 3101 H 306.24 -4.10469 -5.60839 0
M  V30 3102 H 309.431 -2.52525 -3.94143 0
M  V30 3103 H 309.604 -3.70584 -5.31575 0
M  V30 3104 N 303.011 1.40521 -0.713556 0
M  V30 3105 C 303.959 2.32549 -0.0485227 0
M  V30 3106 C 304.953 1.51931 0.74922 0
M  V30 3107 O 306.159 1.67745 0.652816 0
M  V30 3108 H 302.534 0.751994 0.00311138 0
M  V30 3109 H 304.505 2.86291 -0.841443 0
M  V30 3110 C 303.254 3.36879 0.860687 0
M  V30 3111 H 302.577 3.98978 0.256246 0
M  V30 3112 H 304.017 4.03772 1.294 0
M  V30 3113 C 302.476 2.72197 1.9852 0
M  V30 3114 O 303.006 2.5837 3.07584 0
M  V30 3115 N 301.212 2.30612 1.76823 0
M  V30 3116 H 300.759 2.42059 0.881217 0
M  V30 3117 H 300.717 1.87672 2.52243 0
M  V30 3118 N 304.489 0.459591 1.5075 0
M  V30 3119 C 305.717 -0.0973749 2.06671 0
M  V30 3120 C 306.132 -1.34524 1.32472 0
M  V30 3121 O 305.489 -1.7827 0.390634 0
M  V30 3122 C 305.54 -0.39714 3.59312 0
M  V30 3123 O 305.261 0.801214 4.30711 0
M  V30 3124 C 306.762 -1.00234 4.31819 0
M  V30 3125 H 303.982 0.00195854 0.670997 0
M  V30 3126 H 306.526 0.645072 1.94059 0
M  V30 3127 H 304.681 -1.08951 3.71764 0
M  V30 3128 H 305.095 0.538857 5.21725 0
M  V30 3129 H 306.569 -1.16193 5.39632 0
M  V30 3130 H 307.046 -1.98939 3.91561 0
M  V30 3131 H 307.652 -0.348699 4.23868 0
M  V30 3132 N 305.967 -1.56429 0.191757 0
M  V30 3133 C 306.897 -2.21937 -0.725696 0
M  V30 3134 C 307.878 -1.1814 -1.2238 0
M  V30 3135 O 309.063 -1.46636 -1.27325 0
M  V30 3136 C 306.193 -2.87611 -1.94672 0
M  V30 3137 C 305.147 -3.97623 -1.58366 0
M  V30 3138 C 304.473 -4.50446 -2.88102 0
M  V30 3139 C 305.773 -5.16197 -0.796133 0
M  V30 3140 H 307.467 -2.98861 -0.179606 0
M  V30 3141 H 305.013 -1.43749 -0.0849464 0
M  V30 3142 H 306.966 -3.3212 -2.59373 0
M  V30 3143 H 305.69 -2.08087 -2.51728 0
M  V30 3144 H 304.349 -3.53801 -0.960247 0
M  V30 3145 H 303.997 -3.67688 -3.43241 0
M  V30 3146 H 303.697 -5.24675 -2.64556 0
M  V30 3147 H 305.221 -4.97654 -3.53798 0
M  V30 3148 H 306.635 -5.57271 -1.34618 0
M  V30 3149 H 305.032 -5.96471 -0.658928 0
M  V30 3150 H 306.102 -4.84473 0.203478 0
M  V30 3151 N 307.445 0.0818655 -1.57387 0
M  V30 3152 C 308.408 1.08265 -2.02018 0
M  V30 3153 C 309.408 1.32183 -0.915664 0
M  V30 3154 O 310.598 1.28073 -1.18081 0
M  V30 3155 C 307.73 2.42871 -2.39221 0
M  V30 3156 H 308.923 0.698204 -2.91659 0
M  V30 3157 H 306.476 0.327303 -1.52835 0
M  V30 3158 H 307.211 2.86167 -1.52575 0
M  V30 3159 H 306.996 2.26855 -3.19811 0
M  V30 3160 H 308.486 3.14826 -2.74362 0
M  V30 3161 N 308.923 1.53595 0.353017 0
M  V30 3162 C 310.334 1.61937 0.929153 0
M  V30 3163 C 310.685 0.494686 1.89861 0
M  V30 3164 O 309.81 -0.377017 2.1309 0
M  V30 3165 C 310.405 2.93526 1.69199 0
M  V30 3166 C 308.964 3.04161 2.21727 0
M  V30 3167 C 308.111 2.57322 1.03348 0
M  V30 3168 H 311.062 1.58155 0.131431 0
M  V30 3169 H 311.083 2.82034 2.55416 0
M  V30 3170 H 310.595 3.75362 0.986144 0
M  V30 3171 H 308.696 2.26938 2.95516 0
M  V30 3172 H 308.809 4.09465 2.48748 0
M  V30 3173 H 307.173 2.12499 1.40414 0
M  V30 3174 H 307.956 3.41588 0.342428 0
M  V30 3175 N 310.401 -0.613514 1.45168 0
M  V30 3176 C 311.364 -1.7065 1.53007 0
M  V30 3177 C 312.364 -1.5548 0.410184 0
M  V30 3178 O 313.554 -1.60656 0.673455 0
M  V30 3179 C 310.686 -3.09875 1.42093 0
M  V30 3180 H 311.879 -1.65068 2.50385 0
M  V30 3181 H 309.432 -0.828728 1.32521 0
M  V30 3182 H 310.167 -3.21039 0.458769 0
M  V30 3183 H 309.952 -3.22293 2.23315 0
M  V30 3184 H 311.442 -3.895 1.50598 0
M  V30 3185 N 311.879 -1.3236 -0.855495 0
M  V30 3186 C 313.107 -1.2587 -1.64208 0
M  V30 3187 C 313.522 0.173457 -1.88002 0
M  V30 3188 O 312.879 1.11027 -1.44842 0
M  V30 3189 C 312.93 -2.01424 -3.00184 0
M  V30 3190 O 312.651 -3.39051 -2.77445 0
M  V30 3191 C 314.152 -2.01948 -3.94629 0
M  V30 3192 H 311.372 -0.434318 -0.511477 0
M  V30 3193 H 313.916 -1.74469 -1.0668 0
M  V30 3194 H 312.071 -1.56549 -3.5436 0
M  V30 3195 H 312.485 -3.77711 -3.63916 0
M  V30 3196 H 313.959 -2.59297 -4.87308 0
M  V30 3197 H 314.436 -1.00554 -4.27534 0
M  V30 3198 H 315.042 -2.46767 -3.4639 0
M  V30 3199 N 313.357 1.07166 -1.15556 0
M  V30 3200 C 314.305 2.16517 -0.8499 0
M  V30 3201 C 315.299 1.68468 0.177454 0
M  V30 3202 O 316.505 1.79971 0.0323026 0
M  V30 3203 H 312.88 0.706652 -0.25719 0
M  V30 3204 H 314.851 2.39514 -1.77976 0
M  V30 3205 C 313.6 3.45855 -0.357682 0
M  V30 3206 H 312.923 3.83214 -1.13961 0
M  V30 3207 H 314.363 4.23607 -0.182489 0
M  V30 3208 C 312.822 3.24062 0.921152 0
M  V30 3209 O 313.352 3.48813 1.9923 0
M  V30 3210 N 311.558 2.77539 0.86141 0
M  V30 3211 H 311.105 2.57598 -0.0104408 0
M  V30 3212 H 311.063 2.63337 1.71758 0
M  V30 3213 N 314.835 0.952656 1.25548 0
M  V30 3214 C 316.112 0.523818 1.88456 0
M  V30 3215 C 316.492 -0.998871 1.85973 0
M  V30 3216 O 315.84 -1.86381 1.3219 0
M  V30 3217 C 316.05 1.0982 3.31271 0
M  V30 3218 C 317.398 1.17385 4.08051 0
M  V30 3219 O 318.422 1.04961 3.40384 0
M  V30 3220 O 317.281 1.36852 5.29088 0
M  V30 3221 H 314.375 0.172485 0.808813 0
M  V30 3222 H 316.921 1.04596 1.33633 0
M  V30 3223 H 315.693 2.1415 3.27499 0
M  V30 3224 H 315.316 0.559191 3.93648 0
M  V30 3225 N 316.313 -1.40141 0.720998 0
M  V30 3226 C 317.724 -1.83678 0.334553 0
M  V30 3227 C 318.075 -1.6027 -1.13173 0
M  V30 3228 O 317.2 -1.08643 -1.87152 0
M  V30 3229 C 317.795 -3.33437 0.600437 0
M  V30 3230 C 316.354 -3.75447 0.267642 0
M  V30 3231 C 315.501 -2.63296 0.870097 0
M  V30 3232 H 318.452 -1.29331 0.919732 0
M  V30 3233 H 318.473 -3.80269 -0.132517 0
M  V30 3234 H 317.985 -3.50442 1.66768 0
M  V30 3235 H 316.086 -3.64035 -0.794329 0
M  V30 3236 H 316.199 -4.73344 0.74042 0
M  V30 3237 H 314.563 -2.52954 0.297739 0
M  V30 3238 H 315.346 -2.83112 1.94172 0
M  V30 3239 N 317.792 -0.46758 -1.50504 0
M  V30 3240 C 319.208 -0.121533 -1.59137 0
M  V30 3241 C 319.408 1.3717 -1.47603 0
M  V30 3242 O 318.464 2.14464 -1.33272 0
M  V30 3243 C 319.777 -0.6686 -2.93173 0
M  V30 3244 C 321.325 -0.631716 -3.06559 0
M  V30 3245 C 321.8 -1.15627 -4.43164 0
M  V30 3246 N 323.291 -1.11553 -4.49567 0
M  V30 3247 C 324.026 -1.49195 -5.5365 0
M  V30 3248 N 323.522 -1.94269 -6.65005 0
M  V30 3249 N 325.315 -1.4082 -5.44175 0
M  V30 3250 H 317.466 -1.4388 -1.56245 0
M  V30 3251 H 319.729 -0.594784 -0.738198 0
M  V30 3252 H 319.435 -1.71453 -3.07078 0
M  V30 3253 H 319.309 -0.11021 -3.77039 0
M  V30 3254 H 321.696 0.405297 -2.92304 0
M  V30 3255 H 321.777 -1.22687 -2.24458 0
M  V30 3256 H 321.421 -2.1919 -4.58168 0
M  V30 3257 H 321.351 -0.537365 -5.23851 0
M  V30 3258 H 323.842 -0.784895 -3.69659 0
M  V30 3259 H 324.155 -2.21148 -7.40482 0
M  V30 3260 H 322.5 -1.98219 -6.66134 0
M  V30 3261 H 325.691 -1.0545 -4.56068 0
M  V30 3262 H 325.864 -1.70481 -6.25172 0
M  V30 3263 N 319.27 1.56325 -0.20005 0
M  V30 3264 C 320.5 2.01811 0.442232 0
M  V30 3265 C 320.908 1.07932 1.55394 0
M  V30 3266 O 320.251 0.0772685 1.83537 0
M  V30 3267 C 320.313 3.43685 1.05457 0
M  V30 3268 C 319.977 4.56928 0.0809833 0
M  V30 3269 C 320.974 5.15009 -0.711471 0
M  V30 3270 C 318.659 5.0229 -0.0315364 0
M  V30 3271 C 320.653 6.16904 -1.60336 0
M  V30 3272 C 318.34 6.04028 -0.926981 0
M  V30 3273 C 319.338 6.6121 -1.71146 0
M  V30 3274 O 319.026 7.60971 -2.59189 0
M  V30 3275 H 318.758 0.666173 0.114848 0
M  V30 3276 H 321.312 2.03085 -0.307511 0
M  V30 3277 H 319.542 3.39413 1.85299 0
M  V30 3278 H 321.231 3.72948 1.60201 0
M  V30 3279 H 321.997 4.80827 -0.634873 0
M  V30 3280 H 317.876 4.57476 0.568902 0
M  V30 3281 H 321.42 6.61464 -2.21611 0
M  V30 3282 H 317.317 6.37634 -1.00468 0
M  V30 3283 H 318.085 7.7841 -2.53023 0
M  V30 3284 N 320.748 -0.0735177 1.57428 0
M  V30 3285 C 321.678 -1.0879 2.06608 0
M  V30 3286 C 322.659 -1.40473 0.959237 0
M  V30 3287 O 323.844 -1.5013 1.23185 0
M  V30 3288 C 320.974 -2.40183 2.50857 0
M  V30 3289 C 319.928 -2.22858 3.65402 0
M  V30 3290 C 319.254 -3.59619 3.957 0
M  V30 3291 C 320.554 -1.65123 4.95511 0
M  V30 3292 H 322.248 -0.678673 2.91607 0
M  V30 3293 H 319.794 -0.325013 1.40284 0
M  V30 3294 H 321.747 -3.11437 2.83874 0
M  V30 3295 H 320.471 -2.83083 1.62885 0
M  V30 3296 H 319.13 -1.54045 3.32664 0
M  V30 3297 H 318.778 -4.00086 3.04861 0
M  V30 3298 H 318.478 -3.48866 4.72828 0
M  V30 3299 H 320.002 -4.32306 4.31212 0
M  V30 3300 H 321.416 -2.26241 5.26771 0
M  V30 3301 H 319.813 -1.65071 5.7695 0
M  V30 3302 H 320.883 -0.612559 4.81015 0
M  V30 3303 N 322.226 -1.5378 -0.344866 0
M  V30 3304 C 323.158 -1.77988 -1.44406 0
M  V30 3305 C 324.171 -0.661138 -1.48771 0
M  V30 3306 O 325.36 -0.937842 -1.51877 0
M  V30 3307 C 322.46 -1.86345 -2.8307 0
M  V30 3308 C 321.633 -3.16256 -3.0216 0
M  V30 3309 C 320.692 -3.15588 -4.21059 0
M  V30 3310 O 319.718 -3.89314 -4.15239 0
M  V30 3311 N 320.92 -2.37864 -5.29529 0
M  V30 3312 H 323.685 -2.72839 -1.24012 0
M  V30 3313 H 321.246 -1.52814 -0.534737 0
M  V30 3314 H 323.238 -1.83351 -3.60783 0
M  V30 3315 H 321.808 -0.986858 -2.96614 0
M  V30 3316 H 321.028 -3.32385 -2.11929 0
M  V30 3317 H 322.316 -4.0207 -3.11797 0
M  V30 3318 H 321.714 -1.77514 -5.37127 0
M  V30 3319 H 320.271 -2.40668 -6.05741 0
M  V30 3320 N 323.704 0.605807 -1.45491 0
M  V30 3321 C 324.667 1.69836 -1.5391 0
M  V30 3322 C 325.667 1.55261 -0.418424 0
M  V30 3323 O 326.857 1.60296 -0.681965 0
M  V30 3324 C 323.989 3.09117 -1.43734 0
M  V30 3325 H 325.182 1.63738 -2.51257 0
M  V30 3326 H 322.735 0.821689 -1.32959 0
M  V30 3327 H 323.47 3.20791 -0.475788 0
M  V30 3328 H 323.255 3.21104 -2.25021 0
M  V30 3329 H 324.745 3.88696 -1.52661 0
M  V30 3330 N 325.182 1.32811 0.848464 0
M  V30 3331 C 326.422 1.25046 1.61687 0
M  V30 3332 C 326.786 -0.183464 1.91121 0
M  V30 3333 O 327.987 -0.384937 2.66029 0
M  V30 3334 C 326.258 2.09201 2.89775 0
M  V30 3335 S 327.817 2.18526 3.80515 0
M  V30 3336 H 324.635 0.445023 0.554505 0
M  V30 3337 H 327.237 1.67733 1.00429 0
M  V30 3338 H 325.941 3.12433 2.66108 0
M  V30 3339 H 325.472 1.67315 3.56047 0
M  V30 3340 H 327.487 1.3393 4.77784 0
M  V30 3341 N 326.66 -1.06551 1.16123 0
M  V30 3342 C 327.908 -1.78947 0.939267 0
M  V30 3343 C 328.229 -1.87532 -0.534476 0
M  V30 3344 O 327.499 -1.38211 -1.38833 0
M  V30 3345 H 326.079 -0.662807 0.344523 0
M  V30 3346 H 328.741 -1.28725 1.46342 0
M  V30 3347 H 327.837 -2.81117 1.35572 0
M  V30 3348 N 328.138 -0.959301 -1.25041 0
M  V30 3349 C 329.386 -0.615393 -1.92503 0
M  V30 3350 C 329.707 0.850969 -1.75452 0
M  V30 3351 O 328.977 1.60658 -1.12098 0
M  V30 3352 H 327.557 -0.224613 -0.712431 0
M  V30 3353 H 330.219 -1.21855 -1.5211 0
M  V30 3354 H 329.315 -0.848738 -3.00338 0
M  V30 3355 N 329.616 1.39756 -0.72842 0
M  V30 3356 C 330.526 2.34444 -0.0855374 0
M  V30 3357 C 331.542 1.57976 0.729356 0
M  V30 3358 O 332.718 1.90301 0.659346 0
M  V30 3359 C 329.783 3.36965 0.815798 0
M  V30 3360 C 328.844 4.29299 -0.0105996 0
M  V30 3361 C 328.077 5.26923 0.84781 0
M  V30 3362 O 328.3 5.30859 2.08673 0
M  V30 3363 O 327.234 6.01249 0.279969 0
M  V30 3364 H 331.06 2.91065 -0.866892 0
M  V30 3365 H 328.645 1.4117 -0.48902 0
M  V30 3366 H 330.527 3.99804 1.33171 0
M  V30 3367 H 329.202 2.82739 1.57608 0
M  V30 3368 H 328.109 3.69703 -0.571877 0
M  V30 3369 H 329.442 4.86712 -0.73295 0
M  V30 3370 N 331.094 0.475555 1.50254 0
M  V30 3371 C 332.041 -0.316293 2.28622 0
M  V30 3372 C 333.011 -0.983227 1.33873 0
M  V30 3373 O 334.196 -0.994805 1.62814 0
M  V30 3374 C 331.336 -1.38975 3.1588 0
M  V30 3375 C 330.449 -0.737146 4.25664 0
M  V30 3376 C 329.584 -1.78887 5.00173 0
M  V30 3377 C 328.623 -1.11676 6.01826 0
M  V30 3378 N 327.76 -2.11154 6.69596 0
M  V30 3379 H 332.6 0.358297 2.95838 0
M  V30 3380 H 330.137 0.188541 1.45887 0
M  V30 3381 H 332.095 -2.02383 3.64825 0
M  V30 3382 H 330.725 -2.03344 2.50701 0
M  V30 3383 H 329.777 0.0096065 3.80399 0
M  V30 3384 H 331.089 -0.206816 4.98371 0
M  V30 3385 H 330.243 -2.49865 5.52859 0
M  V30 3386 H 328.982 -2.35302 4.27182 0
M  V30 3387 H 327.987 -0.392633 5.48396 0
M  V30 3388 H 329.212 -0.55945 6.76792 0
M  V30 3389 H 327.158 -2.66577 5.99394 0
M  V30 3390 H 327.075 -1.63118 7.38193 0
M  V30 3391 H 328.343 -2.81497 7.26897 0
M  V30 3392 N 332.573 -1.56217 0.208337 0
M  V30 3393 C 333.503 -2.22694 -0.702116 0
M  V30 3394 C 334.484 -1.19432 -1.2112 0
M  V30 3395 O 335.669 -1.47978 -1.25762 0
M  V30 3396 C 332.799 -2.8966 -1.9161 0
M  V30 3397 C 331.753 -3.9928 -1.5414 0
M  V30 3398 C 331.079 -4.53476 -2.83308 0
M  V30 3399 C 332.379 -5.17012 -0.741339 0
M  V30 3400 H 334.073 -2.99034 -0.147898 0
M  V30 3401 H 331.619 -1.43831 -0.0696951 0
M  V30 3402 H 333.572 -3.34852 -2.55836 0
M  V30 3403 H 332.296 -2.10746 -2.49507 0
M  V30 3404 H 330.955 -3.54799 -0.922668 0
M  V30 3405 H 330.603 -3.71308 -3.39322 0
M  V30 3406 H 330.303 -5.27451 -2.58976 0
M  V30 3407 H 331.827 -5.01378 -3.485 0
M  V30 3408 H 333.241 -5.58667 -1.28699 0
M  V30 3409 H 331.638 -5.97137 -0.595627 0
M  V30 3410 H 332.708 -4.8423 0.254851 0
M  V30 3411 N 334.051 0.0651679 -1.57465 0
M  V30 3412 C 334.999 1.09542 -2.05191 0
M  V30 3413 C 335.993 1.39675 -0.958509 0
M  V30 3414 O 337.199 1.39003 -1.14359 0
M  V30 3415 H 333.574 0.370623 -0.654326 0
M  V30 3416 H 335.545 0.666802 -2.90854 0
M  V30 3417 C 334.294 2.39881 -2.51699 0
M  V30 3418 H 333.617 2.17547 -3.3543 0
M  V30 3419 H 335.057 3.104 -2.88839 0
M  V30 3420 C 333.516 3.0631 -1.40271 0
M  V30 3421 O 334.046 3.94664 -0.748523 0
M  V30 3422 N 332.252 2.67041 -1.14618 0
M  V30 3423 H 331.799 1.95281 -1.67997 0
M  V30 3424 H 331.757 3.1181 -0.402688 0
M  V30 3425 N 335.529 1.53961 0.336706 0
M  V30 3426 C 336.945 1.44378 0.680241 0
M  V30 3427 C 337.145 0.606034 1.9217 0
M  V30 3428 O 336.201 0.099688 2.52303 0
M  V30 3429 C 337.514 2.87945 0.8665 0
M  V30 3430 C 339.062 2.97763 0.964682 0
M  V30 3431 C 339.537 4.42453 1.18321 0
M  V30 3432 N 341.028 4.46008 1.25025 0
M  V30 3433 C 341.763 5.55102 1.43697 0
M  V30 3434 N 341.259 6.7419 1.59498 0
M  V30 3435 N 343.052 5.42727 1.463 0
M  V30 3436 H 335.203 2.06918 -0.479455 0
M  V30 3437 H 337.466 0.935634 -0.152619 0
M  V30 3438 H 337.172 3.51691 0.0256937 0
M  V30 3439 H 337.046 3.33293 1.76623 0
M  V30 3440 H 339.433 2.34153 1.796 0
M  V30 3441 H 339.514 2.55766 0.041708 0
M  V30 3442 H 339.158 5.06645 0.356788 0
M  V30 3443 H 339.088 4.82048 2.11985 0
M  V30 3444 H 341.579 3.60196 1.14312 0
M  V30 3445 H 341.892 7.53095 1.734 0
M  V30 3446 H 340.237 6.77123 1.56621 0
M  V30 3447 H 343.428 4.48647 1.33543 0
M  V30 3448 H 343.601 6.27806 1.6051 0
M  V30 3449 N 337.007 -0.598083 1.45811 0
M  V30 3450 C 338.254 -1.35681 1.50323 0
M  V30 3451 C 338.582 -1.9393 0.148739 0
M  V30 3452 O 337.837 -1.76094 -0.853787 0
M  V30 3453 C 338.136 -2.51669 2.53766 0
M  V30 3454 C 337.802 -2.11508 3.98215 0
M  V30 3455 C 336.464 -2.0027 4.37545 0
M  V30 3456 C 338.816 -1.80308 4.89018 0
M  V30 3457 C 336.144 -1.56067 5.65562 0
M  V30 3458 C 338.496 -1.37589 6.17456 0
M  V30 3459 C 337.16 -1.24916 6.55708 0
M  V30 3460 H 336.43 -0.496492 0.550069 0
M  V30 3461 H 339.077 -0.675052 1.79207 0
M  V30 3462 H 337.382 -3.25225 2.18486 0
M  V30 3463 H 339.079 -3.09895 2.54492 0
M  V30 3464 H 335.669 -2.21185 3.67117 0
M  V30 3465 H 339.853 -1.87884 4.59362 0
M  V30 3466 H 335.109 -1.44886 5.93985 0
M  V30 3467 H 339.283 -1.12495 6.87254 0
M  V30 3468 H 336.91 -0.904386 7.54801 0
M  V30 3469 N 338.485 -1.33259 -0.841409 0
M  V30 3470 C 339.901 -1.12538 -1.13169 0
M  V30 3471 C 340.101 0.0854037 -2.01319 0
M  V30 3472 O 339.157 0.766417 -2.40587 0
M  V30 3473 C 340.47 -2.41156 -1.79623 0
M  V30 3474 C 342.018 -2.47038 -1.922 0
M  V30 3475 C 342.493 -3.7561 -2.6207 0
M  V30 3476 N 343.984 -3.76667 -2.69585 0
M  V30 3477 C 344.719 -4.72861 -3.2433 0
M  V30 3478 N 344.215 -5.79428 -3.79783 0
M  V30 3479 N 346.008 -4.6034 -3.22558 0
M  V30 3480 H 338.159 -2.10868 -0.254676 0
M  V30 3481 H 340.422 -0.931615 -0.175493 0
M  V30 3482 H 340.128 -3.29747 -1.22311 0
M  V30 3483 H 340.002 -2.53114 -2.79666 0
M  V30 3484 H 342.389 -1.58898 -2.48667 0
M  V30 3485 H 342.47 -2.39022 -0.911148 0
M  V30 3486 H 342.114 -4.64131 -2.06263 0
M  V30 3487 H 342.044 -3.80902 -3.63622 0
M  V30 3488 H 344.535 -2.99648 -2.30259 0
M  V30 3489 H 344.848 -6.48867 -4.19752 0
M  V30 3490 H 343.193 -5.83166 -3.78078 0
M  V30 3491 H 346.384 -3.76244 -2.78492 0
M  V30 3492 H 346.557 -5.35478 -3.64921 0
M  V30 3493 N 339.963 1.05934 -1.16686 0
M  V30 3494 C 341.24 1.75643 -0.860747 0
M  V30 3495 C 341.62 2.01144 0.640641 0
M  V30 3496 O 340.968 1.64147 1.58959 0
M  V30 3497 C 341.178 3.05493 -1.68745 0
M  V30 3498 C 342.526 3.79581 -1.90271 0
M  V30 3499 O 343.55 3.15344 -1.65641 0
M  V30 3500 O 342.409 4.9499 -2.31618 0
M  V30 3501 H 339.503 0.763426 -0.317977 0
M  V30 3502 H 342.049 1.1217 -1.27342 0
M  V30 3503 H 340.821 2.8264 -2.70611 0
M  V30 3504 H 340.444 3.76702 -1.27206 0
M  V30 3505 N 341.441 0.965919 1.2453 0
M  V30 3506 C 342.69 0.622437 1.91856 0
M  V30 3507 C 343.003 -0.846006 1.76358 0
M  V30 3508 O 344.209 -1.29993 2.38357 0
M  V30 3509 C 342.665 1.0626 3.43856 0
M  V30 3510 C 342.273 2.55437 3.68043 0
M  V30 3511 C 344.017 0.792183 4.17043 0
M  V30 3512 C 341.924 2.93196 5.13605 0
M  V30 3513 H 340.854 0.229092 0.718354 0
M  V30 3514 H 343.505 1.17189 1.41206 0
M  V30 3515 H 341.887 0.441476 3.93531 0
M  V30 3516 H 343.061 3.22665 3.28974 0
M  V30 3517 H 341.376 2.8007 3.08139 0
M  V30 3518 H 343.973 1.05031 5.24283 0
M  V30 3519 H 344.316 -0.271584 4.15413 0
M  V30 3520 H 344.849 1.37419 3.73311 0
M  V30 3521 H 341.588 3.98636 5.20355 0
M  V30 3522 H 341.108 2.30651 5.53679 0
M  V30 3523 H 342.787 2.83004 5.81823 0
M  V30 3524 N 342.919 -1.39368 0.735821 0
M  V30 3525 C 343.851 -2.2913 0.0567723 0
M  V30 3526 C 344.864 -1.46859 -0.702589 0
M  V30 3527 O 346.053 -1.69925 -0.546616 0
M  V30 3528 C 343.153 -3.25492 -0.943823 0
M  V30 3529 C 342.326 -4.36709 -0.24581 0
M  V30 3530 C 341.385 -5.13376 -1.15463 0
M  V30 3531 O 340.411 -5.65683 -0.631803 0
M  V30 3532 N 341.613 -5.24656 -2.48427 0
M  V30 3533 H 344.378 -2.88047 0.827582 0
M  V30 3534 H 341.939 -1.50957 0.585112 0
M  V30 3535 H 343.931 -3.73657 -1.55443 0
M  V30 3536 H 342.501 -2.676 -1.61583 0
M  V30 3537 H 341.721 -3.9041 0.545286 0
M  V30 3538 H 343.009 -5.08244 0.237891 0
M  V30 3539 H 342.407 -4.83679 -2.93379 0
M  V30 3540 H 340.964 -5.76258 -3.04582 0
M  V30 3541 N 344.397 -0.483516 -1.5 0
M  V30 3542 C 345.637 0.0657469 -2.04294 0
M  V30 3543 C 346.001 1.35869 -1.35659 0
M  V30 3544 O 347.202 1.99111 -1.80578 0
M  V30 3545 C 345.473 0.232758 -3.56641 0
M  V30 3546 S 347.032 0.738788 -4.32536 0
M  V30 3547 H 343.85 0.0100755 -0.710929 0
M  V30 3548 H 346.452 -0.653494 -1.84254 0
M  V30 3549 H 345.156 -0.713847 -4.04144 0
M  V30 3550 H 344.687 0.977751 -3.81056 0
M  V30 3551 H 346.702 2.01048 -4.53645 0
M  V30 3552 N 345.875 1.56104 -0.216619 0
M  V30 3553 C 347.115 2.00074 0.418322 0
M  V30 3554 C 347.479 1.10098 1.57297 0
M  V30 3555 O 348.68 1.43393 2.27359 0
M  V30 3556 C 346.951 3.47231 0.846477 0
M  V30 3557 S 348.51 4.13223 1.47622 0
M  V30 3558 H 345.328 0.698457 0.132962 0
M  V30 3559 H 347.93 1.92784 -0.324748 0
M  V30 3560 H 346.634 4.104 -0.0036319 0
M  V30 3561 H 346.165 3.58384 1.62248 0
M  V30 3562 H 348.18 4.12005 2.76526 0
M  V30 3563 N 347.353 -0.0568162 1.57498 0
M  V30 3564 C 348.769 -0.411933 1.54192 0
M  V30 3565 C 348.969 -1.78287 0.938942 0
M  V30 3566 O 348.025 -2.46483 0.547919 0
M  V30 3567 C 349.338 -0.339244 2.9878 0
M  V30 3568 C 350.886 -0.418348 3.10192 0
M  V30 3569 C 351.361 -0.375407 4.56459 0
M  V30 3570 N 352.852 -0.435038 4.61153 0
M  V30 3571 C 353.587 -0.424265 5.71828 0
M  V30 3572 N 353.083 -0.367418 6.91825 0
M  V30 3573 N 354.876 -0.471938 5.60115 0
M  V30 3574 H 347.027 0.840684 1.95055 0
M  V30 3575 H 349.29 0.316987 0.893433 0
M  V30 3576 H 348.996 0.601742 3.46514 0
M  V30 3577 H 348.87 -1.14371 3.59443 0
M  V30 3578 H 351.257 -1.34976 2.62422 0
M  V30 3579 H 351.338 0.414962 2.52412 0
M  V30 3580 H 350.982 0.552219 5.04889 0
M  V30 3581 H 350.912 -1.22645 5.12119 0
M  V30 3582 H 353.403 -0.482612 3.74806 0
M  V30 3583 H 353.716 -0.363535 7.71944 0
M  V30 3584 H 352.061 -0.333879 6.94198 0
M  V30 3585 H 355.252 -0.514145 4.65268 0
M  V30 3586 H 355.425 -0.460073 6.46365 0
M  V30 3587 N 348.832 -1.54138 -0.328536 0
M  V30 3588 C 349.764 -1.79509 -1.4251 0
M  V30 3589 C 350.777 -0.67688 -1.48061 0
M  V30 3590 O 351.966 -0.953898 -1.50874 0
M  V30 3591 C 349.066 -1.89337 -2.81078 0
M  V30 3592 C 348.239 -3.19443 -2.98789 0
M  V30 3593 C 347.298 -3.20036 -4.17688 0
M  V30 3594 O 346.324 -3.93697 -4.11086 0
M  V30 3595 N 347.526 -2.43467 -5.26976 0
M  V30 3596 H 350.291 -2.74139 -1.21111 0
M  V30 3597 H 347.852 -1.53373 -0.518499 0
M  V30 3598 H 349.844 -1.87167 -3.58818 0
M  V30 3599 H 348.414 -1.01826 -2.95551 0
M  V30 3600 H 347.634 -3.34614 -2.08391 0
M  V30 3601 H 348.922 -4.05354 -3.07515 0
M  V30 3602 H 348.32 -1.83201 -5.35214 0
M  V30 3603 H 346.877 -2.4708 -6.03154 0
M  V30 3604 N 350.31 0.590341 -1.46126 0
M  V30 3605 C 351.538 1.37504 -1.54597 0
M  V30 3606 C 351.953 1.87897 -0.184447 0
M  V30 3607 O 351.31 1.63192 0.816984 0
M  V30 3608 C 351.361 2.56779 -2.54454 0
M  V30 3609 O 351.082 2.08476 -3.85317 0
M  V30 3610 C 352.583 3.49427 -2.72792 0
M  V30 3611 H 349.803 0.420325 -0.523037 0
M  V30 3612 H 352.347 0.718383 -1.91467 0
M  V30 3613 H 350.502 3.1845 -2.20609 0
M  V30 3614 H 350.916 2.86097 -4.396 0
M  V30 3615 H 352.39 4.29619 -3.466 0
M  V30 3616 H 352.867 4.00876 -1.79429 0
M  V30 3617 H 353.473 2.93598 -3.07702 0
M  V30 3618 N 351.788 1.33704 0.83433 0
M  V30 3619 C 352.751 1.24244 1.92603 0
M  V30 3620 C 353.751 0.160383 1.59998 0
M  V30 3621 O 354.941 0.412228 1.69252 0
M  V30 3622 C 352.073 0.91555 3.28376 0
M  V30 3623 H 353.266 2.21287 2.02416 0
M  V30 3624 H 350.819 1.17827 1.02696 0
M  V30 3625 H 351.554 -0.0521886 3.24258 0
M  V30 3626 H 351.339 1.69811 3.53422 0
M  V30 3627 H 352.829 0.874231 4.08347 0
M  V30 3628 N 353.266 -1.05314 1.17247 0
M  V30 3629 C 354.512 -1.78557 0.961513 0
M  V30 3630 C 354.845 -1.87419 -0.508697 0
M  V30 3631 O 354.12 -1.37307 -1.37757 0
M  V30 3632 C 354.403 -3.22514 1.60176 0
M  V30 3633 C 354.256 -3.21673 3.14399 0
M  V30 3634 C 355.575 -4.20318 1.30463 0
M  V30 3635 H 352.694 -0.6482 0.350723 0
M  V30 3636 H 355.336 -1.23102 1.44727 0
M  V30 3637 H 353.486 -3.69867 1.18871 0
M  V30 3638 H 355.158 -2.82405 3.64753 0
M  V30 3639 H 353.401 -2.60048 3.47214 0
M  V30 3640 H 354.072 -4.23271 3.54324 0
M  V30 3641 H 356.548 -3.81454 1.66229 0
M  V30 3642 H 355.424 -5.19289 1.77848 0
M  V30 3643 H 355.685 -4.41526 0.22521 0
M  V30 3644 N 354.744 -0.972509 -1.24016 0
M  V30 3645 C 356.16 -0.679827 -1.44397 0
M  V30 3646 C 356.36 0.756716 -1.86751 0
M  V30 3647 O 355.416 1.53007 -2.00861 0
M  V30 3648 C 356.729 -1.66803 -2.50195 0
M  V30 3649 C 358.277 -1.68119 -2.64017 0
M  V30 3650 C 358.752 -2.65748 -3.73017 0
M  V30 3651 N 360.243 -2.64219 -3.8045 0
M  V30 3652 C 360.978 -3.36433 -4.64328 0
M  V30 3653 N 360.474 -4.1818 -5.52356 0
M  V30 3654 N 362.267 -3.25235 -4.58453 0
M  V30 3655 H 354.418 -1.90059 -0.948228 0
M  V30 3656 H 356.681 -0.818527 -0.478245 0
M  V30 3657 H 356.387 -2.69498 -2.25973 0
M  V30 3658 H 356.261 -1.4446 -3.48441 0
M  V30 3659 H 358.648 -0.661319 -2.87594 0
M  V30 3660 H 358.729 -1.94525 -1.66113 0
M  V30 3661 H 358.373 -3.67872 -3.50189 0
M  V30 3662 H 358.303 -2.36619 -4.70446 0
M  V30 3663 H 360.794 -2.04887 -3.17537 0
M  V30 3664 H 361.107 -4.70157 -6.13329 0
M  V30 3665 H 359.452 -4.22273 -5.52006 0
M  V30 3666 H 362.643 -2.60829 -3.88698 0
M  V30 3667 H 362.816 -3.81776 -5.23594 0
M  V30 3668 N 356.222 1.38976 -0.743202 0
M  V30 3669 C 357.185 2.28901 -0.117014 0
M  V30 3670 C 358.185 1.46698 0.658503 0
M  V30 3671 O 359.375 1.67274 0.486305 0
M  V30 3672 C 356.507 3.30309 0.84315 0
M  V30 3673 H 357.7 2.8578 -0.909373 0
M  V30 3674 H 355.253 1.47761 -0.509547 0
M  V30 3675 H 355.988 2.785 1.66157 0
M  V30 3676 H 355.773 3.91029 0.289594 0
M  V30 3677 H 357.263 3.97577 1.2776 0
M  V30 3678 N 357.7 0.491464 1.49741 0
M  V30 3679 C 358.977 -0.118984 1.95238 0
M  V30 3680 C 359.357 -1.55044 1.43264 0
M  V30 3681 O 358.705 -2.19287 0.642287 0
M  V30 3682 C 358.915 -0.0414187 3.48975 0
M  V30 3683 C 360.263 -0.220133 4.24029 0
M  V30 3684 O 361.287 -0.117055 3.56008 0
M  V30 3685 O 360.146 -0.430567 5.44801 0
M  V30 3686 H 357.24 -0.100536 0.820866 0
M  V30 3687 H 359.786 0.553322 1.60426 0
M  V30 3688 H 358.558 0.957214 3.79412 0
M  V30 3689 H 358.181 -0.754292 3.9038 0
M  V30 3690 N 359.178 -1.55987 0.224894 0
M  V30 3691 C 360.108 -2.23426 -0.678457 0
M  V30 3692 C 361.089 -1.20709 -1.19847 0
M  V30 3693 O 362.274 -1.49304 -1.24186 0
M  V30 3694 C 359.404 -2.91676 -1.88527 0
M  V30 3695 C 358.358 -4.00893 -1.49896 0
M  V30 3696 C 357.684 -4.56455 -2.78483 0
M  V30 3697 C 358.984 -5.17769 -0.686461 0
M  V30 3698 H 360.678 -2.99175 -0.116173 0
M  V30 3699 H 358.224 -1.43897 -0.054436 0
M  V30 3700 H 360.177 -3.37547 -2.5227 0
M  V30 3701 H 358.901 -2.1338 -2.47258 0
M  V30 3702 H 357.56 -3.55758 -0.884985 0
M  V30 3703 H 357.208 -3.74886 -3.35365 0
M  V30 3704 H 356.908 -5.30169 -2.53368 0
M  V30 3705 H 358.432 -5.05047 -3.43162 0
M  V30 3706 H 359.846 -5.60001 -1.22767 0
M  V30 3707 H 358.243 -5.97735 -0.532259 0
M  V30 3708 H 359.313 -4.83932 0.306196 0
M  V30 3709 N 360.656 0.0484629 -1.57525 0
M  V30 3710 C 361.604 1.07359 -2.06341 0
M  V30 3711 C 362.598 1.3865 -0.973269 0
M  V30 3712 O 363.804 1.37783 -1.15827 0
M  V30 3713 H 360.179 0.363662 -0.65822 0
M  V30 3714 H 362.15 0.635916 -2.91545 0
M  V30 3715 C 360.899 2.37198 -2.54229 0
M  V30 3716 H 360.222 2.13977 -3.37719 0
M  V30 3717 H 361.662 3.07319 -2.92115 0
M  V30 3718 C 360.121 3.04805 -1.43511 0
M  V30 3719 O 360.651 3.93848 -0.79034 0
M  V30 3720 N 358.857 2.65811 -1.17444 0
M  V30 3721 H 358.404 1.93488 -1.70059 0
M  V30 3722 H 358.362 3.11366 -0.435737 0
M  V30 3723 N 362.134 1.5431 0.320358 0
M  V30 3724 C 363.097 1.83195 1.3774 0
M  V30 3725 C 364.097 0.703906 1.44575 0
M  V30 3726 O 365.287 0.972214 1.44546 0
M  V30 3727 C 362.419 1.99487 2.76438 0
M  V30 3728 H 363.612 2.77642 1.1338 0
M  V30 3729 H 361.165 1.46076 0.556012 0
M  V30 3730 H 361.9 1.07262 3.06048 0
M  V30 3731 H 361.685 2.81575 2.7287 0
M  V30 3732 H 363.175 2.23271 3.52902 0
M  V30 3733 N 363.613 -0.582584 1.46437 0
M  V30 3734 C 364.561 -1.71272 1.5738 0
M  V30 3735 C 365.555 -1.63524 0.44229 0
M  V30 3736 O 366.761 -1.69016 0.619166 0
M  V30 3737 H 363.136 -0.566273 0.494813 0
M  V30 3738 H 365.107 -1.59174 2.52401 0
M  V30 3739 C 363.856 -3.09658 1.58136 0
M  V30 3740 H 363.179 -3.16291 2.44541 0
M  V30 3741 H 364.619 -3.88494 1.69847 0
M  V30 3742 C 363.078 -3.3547 0.310026 0
M  V30 3743 O 363.608 -3.97199 -0.599683 0
M  V30 3744 N 361.814 -2.89925 0.197901 0
M  V30 3745 H 361.361 -2.39873 0.93909 0
M  V30 3746 H 361.319 -3.07568 -0.65185 0
M  V30 3747 N 365.091 -1.34144 -0.827227 0
M  V30 3748 C 366.321 -1.29138 -1.61267 0
M  V30 3749 C 366.729 0.137597 -1.88699 0
M  V30 3750 O 366.072 1.09379 -1.47587 0
M  V30 3751 C 366.134 -2.0097 -2.9808 0
M  V30 3752 C 365.798 -3.50242 -2.93563 0
M  V30 3753 C 366.795 -4.4523 -2.68452 0
M  V30 3754 C 364.48 -3.92592 -3.13331 0
M  V30 3755 C 366.474 -5.80542 -2.63154 0
M  V30 3756 C 364.161 -5.28005 -3.07658 0
M  V30 3757 C 365.159 -6.21792 -2.82602 0
M  V30 3758 O 364.847 -7.54723 -2.76853 0
M  V30 3759 H 364.579 -0.445851 -0.508127 0
M  V30 3760 H 367.133 -1.77263 -1.03763 0
M  V30 3761 H 365.363 -1.47451 -3.57484 0
M  V30 3762 H 367.052 -1.89309 -3.5905 0
M  V30 3763 H 367.818 -4.13832 -2.52919 0
M  V30 3764 H 363.697 -3.19994 -3.31851 0
M  V30 3765 H 367.241 -6.53717 -2.43516 0
M  V30 3766 H 363.138 -5.59023 -3.22743 0
M  V30 3767 H 363.906 -7.64409 -2.92611 0
M  V30 3768 N 366.569 1.04691 -1.17803 0
M  V30 3769 C 367.818 1.77176 -0.963931 0
M  V30 3770 C 368.131 1.88888 0.508015 0
M  V30 3771 O 369.337 2.58164 0.840465 0
M  V30 3772 C 367.793 3.18518 -1.67555 0
M  V30 3773 C 367.401 3.14919 -3.18637 0
M  V30 3774 C 369.145 3.95424 -1.54402 0
M  V30 3775 C 367.052 4.51081 -3.82466 0
M  V30 3776 H 365.982 0.664116 -0.357023 0
M  V30 3777 H 368.633 1.17303 -1.4111 0
M  V30 3778 H 367.015 3.78748 -1.15613 0
M  V30 3779 H 368.189 2.64178 -3.77554 0
M  V30 3780 H 366.504 2.51512 -3.31859 0
M  V30 3781 H 369.101 4.96106 -1.99456 0
M  V30 3782 H 369.444 4.13343 -0.495329 0
M  V30 3783 H 369.977 3.41754 -2.0359 0
M  V30 3784 H 366.716 4.38368 -4.87354 0
M  V30 3785 H 366.236 5.01951 -3.28337 0
M  V30 3786 H 367.915 5.2001 -3.84965 0
M  V30 3787 N 368.047 0.979072 1.23499 0
M  V30 3788 C 368.979 0.476271 2.24197 0
M  V30 3789 C 369.992 -0.421166 1.57258 0
M  V30 3790 O 371.181 -0.225515 1.7707 0
M  V30 3791 C 368.281 -0.330503 3.37285 0
M  V30 3792 C 367.454 0.559744 4.33804 0
M  V30 3793 C 366.513 -0.192954 5.25846 0
M  V30 3794 O 365.539 0.416978 5.67671 0
M  V30 3795 N 366.741 -1.47932 5.61334 0
M  V30 3796 H 369.506 1.34211 2.67969 0
M  V30 3797 H 367.067 0.852189 1.37657 0
M  V30 3798 H 369.059 -0.842361 3.95836 0
M  V30 3799 H 367.629 -1.09734 2.92707 0
M  V30 3800 H 366.849 1.25245 3.73775 0
M  V30 3801 H 368.137 1.1665 4.95248 0
M  V30 3802 H 367.535 -1.9964 5.29302 0
M  V30 3803 H 366.092 -1.93664 6.22364 0
M  V30 3804 N 369.525 -1.3858 0.750561 0
M  V30 3805 C 370.771 -2.00481 0.305825 0
M  V30 3806 C 371.104 -1.5944 -1.10872 0
M  V30 3807 O 370.379 -0.83052 -1.75877 0
M  V30 3808 C 370.662 -3.5758 0.425287 0
M  V30 3809 C 370.515 -4.08594 1.88072 0
M  V30 3810 C 371.834 -4.39719 -0.183122 0
M  V30 3811 H 368.953 -0.728348 0.112598 0
M  V30 3812 H 371.595 -1.64566 0.949638 0
M  V30 3813 H 369.745 -3.88306 -0.122828 0
M  V30 3814 H 371.417 -3.88523 2.48691 0
M  V30 3815 H 369.66 -3.61574 2.39681 0
M  V30 3816 H 370.331 -5.177 1.91548 0
M  V30 3817 H 372.807 -4.15128 0.284303 0
M  V30 3818 H 371.683 -5.48856 -0.0692757 0
M  V30 3819 H 371.944 -4.23434 -1.27106 0
M  V30 3820 N 371.003 -0.499398 -1.49478 0
M  V30 3821 C 372.251 0.0455996 -2.02049 0
M  V30 3822 C 372.572 1.37633 -1.38138 0
M  V30 3823 O 371.842 1.8842 -0.536166 0
M  V30 3824 H 370.422 0.0198416 -0.746736 0
M  V30 3825 H 373.084 -0.656274 -1.83519 0
M  V30 3826 H 372.18 0.176445 -3.11601 0
M  V30 3827 N 372.481 1.55866 -0.233164 0
M  V30 3828 C 373.429 2.22176 0.68851 0
M  V30 3829 C 374.423 1.20487 1.19076 0
M  V30 3830 O 375.629 1.38536 1.14925 0
M  V30 3831 H 372.004 0.712511 0.240483 0
M  V30 3832 H 373.975 2.98212 0.105935 0
M  V30 3833 C 372.724 2.92446 1.88071 0
M  V30 3834 H 372.047 3.70458 1.50337 0
M  V30 3835 H 373.487 3.42226 2.50314 0
M  V30 3836 C 371.946 1.95555 2.74335 0
M  V30 3837 O 372.476 1.47986 3.73447 0
M  V30 3838 N 370.682 1.62953 2.40613 0
M  V30 3839 H 370.229 2.01831 1.60069 0
M  V30 3840 H 370.187 0.983886 2.98609 0
M  V30 3841 N 373.959 -0.0401083 1.57549 0
M  V30 3842 C 375.187 -0.745196 1.93014 0
M  V30 3843 C 375.602 -1.6948 0.831984 0
M  V30 3844 O 374.959 -1.81482 -0.192463 0
M  V30 3845 C 375.01 -1.51176 3.28372 0
M  V30 3846 O 374.731 -0.600284 4.33968 0
M  V30 3847 C 376.232 -2.315 3.78051 0
M  V30 3848 H 373.452 -0.210088 0.637263 0
M  V30 3849 H 375.996 -0.000924689 2.045 0
M  V30 3850 H 374.151 -2.20801 3.18317 0
M  V30 3851 H 374.565 -1.13669 5.12035 0
M  V30 3852 H 376.039 -2.80697 4.75303 0
M  V30 3853 H 376.516 -3.12436 3.08675 0
M  V30 3854 H 377.122 -1.66971 3.91153 0
M  V30 3855 N 375.437 -1.54477 -0.31217 0
M  V30 3856 C 376.853 -1.45442 -0.657185 0
M  V30 3857 C 377.053 -0.63653 -1.91182 0
M  V30 3858 O 376.109 -0.139815 -2.52113 0
M  V30 3859 C 377.422 -2.89287 -0.82058 0
M  V30 3860 C 378.97 -2.9926 -0.917188 0
M  V30 3861 C 379.445 -4.44279 -1.11267 0
M  V30 3862 N 380.936 -4.4794 -1.17914 0
M  V30 3863 C 381.671 -5.57318 -1.34848 0
M  V30 3864 N 381.167 -6.76642 -1.48752 0
M  V30 3865 N 382.96 -5.44986 -1.37647 0
M  V30 3866 H 375.111 -2.06129 0.512313 0
M  V30 3867 H 377.374 -0.933088 0.167485 0
M  V30 3868 H 377.08 -3.51687 0.0302604 0
M  V30 3869 H 376.954 -3.36061 -1.71298 0
M  V30 3870 H 379.341 -2.36981 -1.75852 0
M  V30 3871 H 379.422 -2.558 -0.00101257 0
M  V30 3872 H 379.066 -5.07149 -0.27614 0
M  V30 3873 H 378.996 -4.85359 -2.04289 0
M  V30 3874 H 381.487 -3.61969 -1.08567 0
M  V30 3875 H 381.8 -7.55758 -1.61397 0
M  V30 3876 H 380.145 -6.79529 -1.45828 0
M  V30 3877 H 383.336 -4.50715 -1.26388 0
M  V30 3878 H 383.509 -6.3028 -1.50501 0
M  V30 3879 N 376.915 0.57481 -1.46744 0
M  V30 3880 C 378.143 1.35856 -1.56047 0
M  V30 3881 C 378.558 1.87691 -0.204365 0
M  V30 3882 O 377.915 1.64049 0.79963 0
M  V30 3883 C 377.966 2.54066 -2.57163 0
M  V30 3884 O 377.687 2.04377 -3.87507 0
M  V30 3885 C 379.188 3.46514 -2.76483 0
M  V30 3886 H 376.408 0.414754 -0.527466 0
M  V30 3887 H 378.952 0.698035 -1.92218 0
M  V30 3888 H 377.107 3.16092 -2.23974 0
M  V30 3889 H 377.521 2.81419 -4.4261 0
M  V30 3890 H 378.995 4.25919 -3.51137 0
M  V30 3891 H 379.472 3.98951 -1.83671 0
M  V30 3892 H 380.078 2.90318 -3.10799 0
M  V30 3893 N 378.394 1.34581 0.820102 0
M  V30 3894 C 379.643 1.26437 1.57151 0
M  V30 3895 C 379.956 -0.163111 1.94919 0
M  V30 3896 O 381.162 -0.366722 2.69012 0
M  V30 3897 C 379.618 2.21658 2.83541 0
M  V30 3898 C 379.226 3.69679 2.53065 0
M  V30 3899 C 380.97 2.22428 3.61561 0
M  V30 3900 C 378.877 4.56761 3.75664 0
M  V30 3901 H 377.807 0.469707 0.589823 0
M  V30 3902 H 380.458 1.59763 0.902656 0
M  V30 3903 H 378.84 1.81287 3.52067 0
M  V30 3904 H 380.014 4.18605 1.92631 0
M  V30 3905 H 378.329 3.71384 1.88316 0
M  V30 3906 H 380.926 2.8471 4.52597 0
M  V30 3907 H 381.269 1.22434 3.97889 0
M  V30 3908 H 381.802 2.61259 2.99981 0
M  V30 3909 H 378.541 5.57702 3.44454 0
M  V30 3910 H 378.061 4.12568 4.35371 0
M  V30 3911 H 379.74 4.71509 4.43044 0
M  V30 3912 N 379.872 -1.04064 1.18357 0
M  V30 3913 C 380.835 -2.10243 0.912707 0
M  V30 3914 C 381.835 -1.60477 -0.101928 0
M  V30 3915 O 383.025 -1.73703 0.131517 0
M  V30 3916 C 380.157 -3.38893 0.369387 0
M  V30 3917 H 381.35 -2.35706 1.85426 0
M  V30 3918 H 378.903 -1.20489 0.995594 0
M  V30 3919 H 379.638 -3.19094 -0.578776 0
M  V30 3920 H 379.423 -3.76331 1.1008 0
M  V30 3921 H 380.913 -4.17128 0.198575 0
M  V30 3922 N 381.35 -0.985608 -1.22978 0
M  V30 3923 C 382.59 -0.665487 -1.93263 0
M  V30 3924 C 382.954 0.78706 -1.75127 0
M  V30 3925 O 384.155 1.21826 -2.39608 0
M  V30 3926 C 382.426 -1.0515 -3.41582 0
M  V30 3927 S 383.985 -0.848637 -4.30516 0
M  V30 3928 H 380.803 -0.24355 -0.667985 0
M  V30 3929 H 383.405 -1.26635 -1.48942 0
M  V30 3930 H 382.109 -2.10517 -3.52293 0
M  V30 3931 H 381.64 -0.442134 -3.90908 0
M  V30 3932 H 383.655 0.264717 -4.95493 0
M  V30 3933 N 382.828 1.3818 -0.7579 0
M  V30 3934 C 383.76 2.2901 -0.0932177 0
M  V30 3935 C 384.773 1.47958 0.679136 0
M  V30 3936 O 385.962 1.70773 0.519514 0
M  V30 3937 C 383.062 3.26953 0.89192 0
M  V30 3938 C 382.235 4.37045 0.176303 0
M  V30 3939 C 381.294 5.15148 1.07281 0
M  V30 3940 O 380.32 5.66616 0.541728 0
M  V30 3941 N 381.522 5.28542 2.40049 0
M  V30 3942 H 384.287 2.86694 -0.873303 0
M  V30 3943 H 381.848 1.50007 -0.609054 0
M  V30 3944 H 383.84 3.76083 1.49479 0
M  V30 3945 H 382.41 2.70136 1.57306 0
M  V30 3946 H 381.63 3.89493 -0.607328 0
M  V30 3947 H 382.918 5.07801 -0.318718 0
M  V30 3948 H 382.316 4.88285 2.85647 0
M  V30 3949 H 380.873 5.8103 2.95376 0
M  V30 3950 N 384.306 0.507319 1.49211 0
M  V30 3951 C 385.536 -0.0315292 2.06576 0
M  V30 3952 C 385.944 -1.30791 1.36713 0
M  V30 3953 O 385.287 -1.78324 0.441181 0
M  V30 3954 C 385.349 -0.349104 3.57801 0
M  V30 3955 C 385.013 0.830475 4.49391 0
M  V30 3956 C 386.01 1.72271 4.90529 0
M  V30 3957 C 383.695 1.03107 4.91604 0
M  V30 3958 C 385.689 2.79964 5.72625 0
M  V30 3959 C 383.376 2.11116 5.73475 0
M  V30 3960 C 384.374 2.99379 6.1389 0
M  V30 3961 O 384.062 4.05523 6.94123 0
M  V30 3962 H 383.794 0.0201002 0.675701 0
M  V30 3963 H 386.348 0.705737 1.92895 0
M  V30 3964 H 384.578 -1.14005 3.69513 0
M  V30 3965 H 386.267 -0.827319 3.97379 0
M  V30 3966 H 387.033 1.57958 4.58557 0
M  V30 3967 H 382.912 0.353417 4.59643 0
M  V30 3968 H 386.456 3.48884 6.04091 0
M  V30 3969 H 382.353 2.25421 6.0486 0
M  V30 3970 H 383.121 4.02953 7.1244 0
M  V30 3971 N 385.784 -1.5574 0.241426 0
M  V30 3972 C 387.195 -1.84842 -0.262755 0
M  V30 3973 C 387.546 -1.16317 -1.58003 0
M  V30 3974 O 386.671 -0.439653 -2.11887 0
M  V30 3975 C 387.266 -3.35332 -0.483523 0
M  V30 3976 C 385.825 -3.6468 -0.931977 0
M  V30 3977 C 384.972 -2.77299 -0.0061151 0
M  V30 3978 H 387.923 -1.51761 0.464129 0
M  V30 3979 H 387.944 -3.56615 -1.32688 0
M  V30 3980 H 387.456 -3.85178 0.47537 0
M  V30 3981 H 385.557 -3.20307 -1.90353 0
M  V30 3982 H 385.67 -4.72498 -0.792628 0
M  V30 3983 H 384.034 -2.49408 -0.516503 0
M  V30 3984 H 384.817 -3.2995 0.948052 0
M  V30 3985 N 387.262 0.0317525 -1.57568 0
M  V30 3986 C 388.192 1.03274 -2.0942 0
M  V30 3987 C 389.173 1.3788 -0.996143 0
M  V30 3988 O 390.358 1.46811 -1.27122 0
M  V30 3989 C 387.488 2.33448 -2.57137 0
M  V30 3990 C 386.442 2.13091 -3.71182 0
M  V30 3991 C 385.768 3.49001 -4.05095 0
M  V30 3992 C 387.068 1.51928 -4.99715 0
M  V30 3993 H 388.762 0.60112 -2.93303 0
M  V30 3994 H 386.308 0.287705 -1.41097 0
M  V30 3995 H 388.261 3.03802 -2.92032 0
M  V30 3996 H 386.985 2.78665 -1.70333 0
M  V30 3997 H 385.644 1.45171 -3.36632 0
M  V30 3998 H 385.292 3.91862 -3.15362 0
M  V30 3999 H 384.992 3.36207 -4.81911 0
M  V30 4000 H 386.516 4.20721 -4.42522 0
M  V30 4001 H 387.93 2.12196 -5.32584 0
M  V30 4002 H 386.327 1.49716 -5.81124 0
M  V30 4003 H 387.397 0.484811 -4.8247 0
M  V30 4004 N 388.74 1.54641 0.303973 0
M  V30 4005 C 389.672 1.81754 1.39636 0
M  V30 4006 C 390.685 0.70035 1.46966 0
M  V30 4007 O 391.874 0.97778 1.49338 0
M  V30 4008 C 388.974 1.93785 2.7803 0
M  V30 4009 C 388.147 3.24156 2.93669 0
M  V30 4010 C 387.206 3.26641 4.12544 0
M  V30 4011 O 386.232 4.00187 4.04771 0
M  V30 4012 N 387.434 2.5182 5.23036 0
M  V30 4013 H 390.199 2.76031 1.16734 0
M  V30 4014 H 387.76 1.54178 0.494033 0
M  V30 4015 H 389.752 1.92852 3.55795 0
M  V30 4016 H 388.322 1.06515 2.93893 0
M  V30 4017 H 387.542 3.37887 2.03042 0
M  V30 4018 H 388.83 4.10195 3.01027 0
M  V30 4019 H 388.228 1.91692 5.32232 0
M  V30 4020 H 386.785 2.56644 5.99147 0
M  V30 4021 N 390.218 -0.567019 1.47046 0
M  V30 4022 C 391.443 -1.3551 1.57009 0
M  V30 4023 C 391.868 -1.86841 0.217259 0
M  V30 4024 O 391.226 -1.62435 -0.805268 0
M  V30 4025 C 391.274 -2.50777 2.5912 0
M  V30 4026 O 390.378 -3.52706 2.13711 0
M  V30 4027 H 389.719 -0.402919 0.52778 0
M  V30 4028 H 392.249 -0.686241 1.92748 0
M  V30 4029 H 392.259 -2.97481 2.79229 0
M  V30 4030 H 390.934 -2.12771 3.57353 0
M  V30 4031 H 389.511 -3.12374 2.03659 0
M  V30 4032 N 391.696 -1.35014 -0.812953 0
M  V30 4033 C 392.628 -1.23262 -1.93233 0
M  V30 4034 C 393.641 -0.157371 -1.62038 0
M  V30 4035 O 394.83 -0.410096 -1.73725 0
M  V30 4036 C 391.93 -0.87392 -3.27438 0
M  V30 4037 C 391.103 -2.04622 -3.86586 0
M  V30 4038 C 390.162 -1.66432 -4.99186 0
M  V30 4039 O 389.188 -2.38222 -5.16951 0
M  V30 4040 N 390.39 -0.584248 -5.77552 0
M  V30 4041 H 393.155 -2.19699 -2.03844 0
M  V30 4042 H 390.716 -1.281 -0.99005 0
M  V30 4043 H 392.708 -0.600039 -4.00227 0
M  V30 4044 H 391.278 0.00057392 -3.126 0
M  V30 4045 H 390.498 -2.48427 -3.06068 0
M  V30 4046 H 391.786 -2.82999 -4.22835 0
M  V30 4047 H 391.184 0.0123526 -5.65699 0
M  V30 4048 H 389.741 -0.37013 -6.50748 0
M  V30 4049 N 393.175 1.03435 -1.18907 0
M  V30 4050 C 394.105 2.13503 -0.945448 0
M  V30 4051 C 395.086 1.69682 0.119189 0
M  V30 4052 O 396.271 1.94169 -0.034707 0
M  V30 4053 C 393.401 3.44004 -0.477316 0
M  V30 4054 C 392.355 4.0148 -1.48316 0
M  V30 4055 C 391.681 5.27537 -0.872311 0
M  V30 4056 C 392.981 4.36921 -2.86177 0
M  V30 4057 H 394.675 2.34141 -1.86597 0
M  V30 4058 H 392.221 1.12523 -0.898584 0
M  V30 4059 H 394.174 4.20372 -0.294204 0
M  V30 4060 H 392.898 3.23072 0.478786 0
M  V30 4061 H 391.557 3.27201 -1.65332 0
M  V30 4062 H 391.205 5.02917 0.0911752 0
M  V30 4063 H 390.905 5.66954 -1.54393 0
M  V30 4064 H 392.429 6.06576 -0.699871 0
M  V30 4065 H 393.843 5.04248 -2.72776 0
M  V30 4066 H 392.24 4.87405 -3.50081 0
M  V30 4067 H 393.31 3.46466 -3.39248 0
M  V30 4068 N 394.653 0.992116 1.22453 0
M  V30 4069 C 395.563 0.55065 2.28046 0
M  V30 4070 C 396.579 -0.400189 1.69335 0
M  V30 4071 O 397.755 -0.267215 1.99619 0
M  V30 4072 C 394.82 -0.128496 3.46462 0
M  V30 4073 C 393.881 0.865208 4.20491 0
M  V30 4074 C 393.114 0.218377 5.33253 0
M  V30 4075 O 393.337 -0.987894 5.6178 0
M  V30 4076 O 392.271 0.922845 5.94783 0
M  V30 4077 H 396.097 1.4291 2.67975 0
M  V30 4078 H 393.682 0.760326 1.28606 0
M  V30 4079 H 395.564 -0.508947 4.18315 0
M  V30 4080 H 394.239 -0.981526 3.0846 0
M  V30 4081 H 393.146 1.29658 3.50913 0
M  V30 4082 H 394.479 1.68741 4.62371 0
M  V30 4083 N 396.131 -1.37776 0.765217 0
M  V30 4084 C 397.356 -2.04651 0.336537 0
M  V30 4085 C 397.781 -1.57337 -1.03086 0
M  V30 4086 O 397.139 -0.730621 -1.65927 0
M  V30 4087 C 397.187 -3.58577 0.381468 0
M  V30 4088 O 396.291 -4.07706 -0.62042 0
M  V30 4089 H 395.632 -0.64756 0.146838 0
M  V30 4090 H 398.162 -1.76221 1.03959 0
M  V30 4091 H 398.172 -4.07314 0.236448 0
M  V30 4092 H 396.847 -3.9237 1.37907 0
M  V30 4093 H 395.424 -3.70306 -0.439056 0
M  V30 4094 N 397.609 -0.515225 -1.4894 0
M  V30 4095 C 398.559 0.275113 -2.26334 0
M  V30 4096 C 399.543 0.923007 -1.31793 0
M  V30 4097 O 400.735 0.828254 -1.56426 0
M  V30 4098 C 397.864 1.33041 -3.16473 0
M  V30 4099 C 396.95 0.688051 -4.18481 0
M  V30 4100 N 397.341 -0.217638 -5.05332 0
M  V30 4101 C 395.639 0.94699 -4.3583 0
M  V30 4102 C 396.34 -0.58676 -5.78733 0
M  V30 4103 N 395.316 0.0486966 -5.43578 0
M  V30 4104 H 399.118 -0.421876 -2.90856 0
M  V30 4105 H 396.632 -0.332249 -1.58965 0
M  V30 4106 H 398.629 1.9102 -3.70563 0
M  V30 4107 H 397.289 2.02894 -2.53504 0
M  V30 4108 H 398.3 -0.589343 -5.14536 0
M  V30 4109 H 394.977 1.63719 -3.8406 0
M  V30 4110 H 396.367 -1.32855 -6.58634 0
M  V30 4111 N 399.087 1.5561 -0.249682 0
M  V30 4112 C 400.334 1.99011 0.374287 0
M  V30 4113 C 400.662 1.13785 1.57744 0
M  V30 4114 O 399.917 0.189326 1.94782 0
M  V30 4115 C 400.216 3.4775 0.824887 0
M  V30 4116 C 399.882 4.50086 -0.270819 0
M  V30 4117 C 398.544 4.77791 -0.571746 0
M  V30 4118 C 400.896 5.11312 -1.01041 0
M  V30 4119 C 398.224 5.63997 -1.61629 0
M  V30 4120 C 400.576 5.98651 -2.0445 0
M  V30 4121 C 399.24 6.24688 -2.35204 0
M  V30 4122 H 398.51 0.728233 0.136961 0
M  V30 4123 H 401.157 1.88122 -0.358087 0
M  V30 4124 H 399.462 3.55985 1.63651 0
M  V30 4125 H 401.159 3.78721 1.31799 0
M  V30 4126 H 397.749 4.28592 -0.026136 0
M  V30 4127 H 401.933 4.89953 -0.791177 0
M  V30 4128 H 397.189 5.82425 -1.85988 0
M  V30 4129 H 401.363 6.45135 -2.62248 0
M  V30 4130 H 398.99 6.91281 -3.16282 0
M  V30 4131 N 400.565 -0.0233959 1.57583 0
M  V30 4132 C 401.981 -0.379134 1.55031 0
M  V30 4133 C 402.181 -1.76255 0.976548 0
M  V30 4134 O 401.237 -2.45266 0.600078 0
M  V30 4135 C 402.55 -0.275792 2.99433 0
M  V30 4136 C 404.098 -0.352458 3.11009 0
M  V30 4137 C 404.573 -0.278501 4.57152 0
M  V30 4138 N 406.064 -0.337123 4.61972 0
M  V30 4139 C 406.799 -0.302876 5.726 0
M  V30 4140 N 406.295 -0.220589 6.92449 0
M  V30 4141 N 408.088 -0.353023 5.6099 0
M  V30 4142 H 400.239 0.881869 1.93227 0
M  V30 4143 H 402.502 0.335867 0.886509 0
M  V30 4144 H 402.208 0.675108 3.4516 0
M  V30 4145 H 402.082 -1.06721 3.61788 0
M  V30 4146 H 404.469 -1.29379 2.65226 0
M  V30 4147 H 404.55 0.468409 2.51475 0
M  V30 4148 H 404.194 0.659189 5.03604 0
M  V30 4149 H 404.124 -1.11755 5.14605 0
M  V30 4150 H 406.615 -0.403002 3.75745 0
M  V30 4151 H 406.928 -0.199713 7.72542 0
M  V30 4152 H 405.273 -0.186555 6.9475 0
M  V30 4153 H 408.464 -0.415339 4.66254 0
M  V30 4154 H 408.637 -0.322866 6.47195 0
M  V30 4155 N 402.043 -1.548 -0.295768 0
M  V30 4156 C 402.976 -1.81003 -1.38972 0
M  V30 4157 C 403.954 -0.661544 -1.48534 0
M  V30 4158 O 405.138 -0.902074 -1.65514 0
M  V30 4159 C 402.265 -1.95141 -2.76835 0
M  V30 4160 C 401.311 -3.17592 -2.84671 0
M  V30 4161 S 402.144 -4.75531 -2.46232 0
M  V30 4162 C 403.3 -4.92613 -3.86114 0
M  V30 4163 H 403.533 -2.73507 -1.16537 0
M  V30 4164 H 401.066 -1.46278 -0.494168 0
M  V30 4165 H 403.024 -2.03972 -3.56238 0
M  V30 4166 H 401.685 -1.03565 -2.96535 0
M  V30 4167 H 400.878 -3.24303 -3.85803 0
M  V30 4168 H 400.48 -3.07235 -2.13267 0
M  V30 4169 H 402.772 -4.76957 -4.81164 0
M  V30 4170 H 403.715 -5.94698 -3.8437 0
M  V30 4171 H 404.123 -4.2073 -3.76359 0
M  V30 4172 N 403.521 0.559213 -1.47345 0
M  V30 4173 C 404.451 1.67622 -1.62558 0
M  V30 4174 C 405.432 1.63331 -0.475087 0
M  V30 4175 O 406.617 1.80983 -0.704182 0
M  V30 4176 C 403.747 3.0626 -1.63774 0
M  V30 4177 C 402.701 3.25397 -2.7803 0
M  V30 4178 C 402.027 4.64801 -2.64318 0
M  V30 4179 C 403.327 3.10965 -4.19641 0
M  V30 4180 H 405.021 1.55146 -2.56067 0
M  V30 4181 H 402.567 0.744961 -1.23233 0
M  V30 4182 H 404.52 3.84247 -1.73008 0
M  V30 4183 H 403.244 3.1969 -0.66825 0
M  V30 4184 H 401.903 2.49817 -2.68304 0
M  V30 4185 H 401.551 4.75028 -1.65401 0
M  V30 4186 H 401.251 4.78555 -3.40968 0
M  V30 4187 H 402.775 5.44926 -2.75478 0
M  V30 4188 H 404.189 3.78772 -4.30354 0
M  V30 4189 H 402.586 3.36229 -4.97062 0
M  V30 4190 H 403.656 2.07736 -4.38148 0
M  V30 4191 N 404.999 1.35443 0.805782 0
M  V30 4192 C 405.962 1.28301 1.89925 0
M  V30 4193 C 406.962 0.194285 1.59622 0
M  V30 4194 O 408.152 0.448036 1.6834 0
M  V30 4195 C 405.284 0.984997 3.2636 0
M  V30 4196 H 406.477 2.2553 1.97677 0
M  V30 4197 H 404.03 1.19979 1.00173 0
M  V30 4198 H 404.765 0.016603 3.24296 0
M  V30 4199 H 404.55 1.77269 3.4974 0
M  V30 4200 H 406.04 0.960651 4.064 0
M  V30 4201 N 406.477 -1.02803 1.19454 0
M  V30 4202 C 407.387 -2.14575 0.948408 0
M  V30 4203 C 408.403 -1.73757 -0.091871 0
M  V30 4204 O 409.579 -2.01185 0.0929654 0
M  V30 4205 C 406.644 -3.43202 0.491265 0
M  V30 4206 C 405.705 -3.98328 1.60103 0
M  V30 4207 C 404.938 -5.20816 1.16561 0
M  V30 4208 O 405.161 -5.70392 0.0295238 0
M  V30 4209 O 404.095 -5.68801 1.96849 0
M  V30 4210 H 407.921 -2.38202 1.88397 0
M  V30 4211 H 405.506 -1.12989 0.977433 0
M  V30 4212 H 407.388 -4.20687 0.245015 0
M  V30 4213 H 406.063 -3.21018 -0.415851 0
M  V30 4214 H 404.97 -3.22174 1.90144 0
M  V30 4215 H 406.303 -4.24879 2.48473 0
M  V30 4216 N 407.956 -0.998596 -1.21925 0
M  V30 4217 C 408.904 -0.546641 -2.26085 0
M  V30 4218 C 409.898 0.405576 -1.64473 0
M  V30 4219 O 411.104 0.277471 -1.77849 0
M  V30 4220 H 407.479 -0.158403 -0.735127 0
M  V30 4221 H 409.45 -1.43645 -2.61551 0
M  V30 4222 C 408.199 0.117388 -3.47502 0
M  V30 4223 H 407.522 -0.606277 -3.95176 0
M  V30 4224 H 408.962 0.396993 -4.22137 0
M  V30 4225 C 407.421 1.35455 -3.0847 0
M  V30 4226 O 407.951 2.44944 -3.18379 0
M  V30 4227 N 406.157 1.23191 -2.63196 0
M  V30 4228 H 405.704 0.341006 -2.55333 0
M  V30 4229 H 405.662 2.06071 -2.37449 0
M  V30 4230 N 409.434 1.37368 -0.772513 0
M  V30 4231 C 410.85 1.53059 -0.452231 0
M  V30 4232 C 411.05 1.73065 1.03203 0
M  V30 4233 O 410.106 1.75245 1.81784 0
M  V30 4234 C 411.419 2.72659 -1.26797 0
M  V30 4235 C 412.967 2.86521 -1.25995 0
M  V30 4236 C 413.442 4.09105 -2.05905 0
M  V30 4237 N 414.933 4.16219 -2.03263 0
M  V30 4238 C 415.668 5.10107 -2.61875 0
M  V30 4239 N 415.164 6.09547 -3.29278 0
M  V30 4240 N 416.957 5.02596 -2.51701 0
M  V30 4241 H 409.108 1.22634 -1.7342 0
M  V30 4242 H 411.371 0.597206 -0.736239 0
M  V30 4243 H 411.077 2.64343 -2.31982 0
M  V30 4244 H 410.951 3.66363 -0.897672 0
M  V30 4245 H 413.338 2.94308 -0.216081 0
M  V30 4246 H 413.419 1.93774 -1.66989 0
M  V30 4247 H 413.063 4.0208 -3.10313 0
M  V30 4248 H 412.993 5.00968 -1.62292 0
M  V30 4249 H 415.484 3.45012 -1.54192 0
M  V30 4250 H 415.797 6.77718 -3.71374 0
M  V30 4251 H 414.142 6.09824 -3.33377 0
M  V30 4252 H 417.333 4.23855 -1.98657 0
M  V30 4253 H 417.506 5.75582 -2.97673 0
M  V30 4254 N 410.912 0.523116 1.48665 0
M  V30 4255 C 412.14 -0.0096312 2.06898 0
M  V30 4256 C 412.555 -1.28784 1.38059 0
M  V30 4257 O 411.912 -1.76453 0.465893 0
M  V30 4258 C 411.963 -0.244386 3.60673 0
M  V30 4259 O 411.684 0.983172 4.26925 0
M  V30 4260 C 413.185 -0.818289 4.35682 0
M  V30 4261 H 410.405 0.0304161 0.67031 0
M  V30 4262 H 412.949 0.726799 1.91149 0
M  V30 4263 H 411.104 -0.930847 3.76051 0
M  V30 4264 H 411.518 0.759653 5.1897 0
M  V30 4265 H 412.992 -0.93201 5.44075 0
M  V30 4266 H 413.469 -1.82153 3.99646 0
M  V30 4267 H 414.075 -0.168609 4.24966 0
M  V30 4268 N 412.39 -1.55475 0.257931 0
M  V30 4269 C 413.801 -1.8511 -0.243135 0
M  V30 4270 C 414.152 -1.17986 -1.5676 0
M  V30 4271 O 413.277 -0.462102 -2.11409 0
M  V30 4272 C 413.872 -3.35826 -0.447929 0
M  V30 4273 C 412.431 -3.65647 -0.893245 0
M  V30 4274 C 411.578 -2.7729 0.0232965 0
M  V30 4275 H 414.529 -1.51261 0.480199 0
M  V30 4276 H 414.55 -3.58002 -1.28898 0
M  V30 4277 H 414.062 -3.84652 0.516196 0
M  V30 4278 H 412.163 -3.22308 -1.86945 0
M  V30 4279 H 412.276 -4.73312 -0.742469 0
M  V30 4280 H 410.64 -2.49942 -0.490021 0
M  V30 4281 H 411.423 -3.28926 0.982994 0
M  V30 4282 N 413.868 0.0150385 -1.57593 0
M  V30 4283 C 415.114 0.704043 -1.90187 0
M  V30 4284 C 415.447 1.74249 -0.857366 0
M  V30 4285 O 414.722 1.94092 0.125843 0
M  V30 4286 C 415.005 1.36087 -3.33395 0
M  V30 4287 C 414.858 0.334981 -4.48551 0
M  V30 4288 C 416.177 2.29112 -3.7576 0
M  V30 4289 H 413.296 0.254475 -0.691673 0
M  V30 4290 H 415.938 -0.0331678 -1.89971 0
M  V30 4291 H 414.088 1.98922 -3.3371 0
M  V30 4292 H 415.76 -0.292534 -4.60372 0
M  V30 4293 H 414.003 -0.344325 -4.32431 0
M  V30 4294 H 414.674 0.833316 -5.45674 0
M  V30 4295 H 417.15 1.76308 -3.76902 0
M  V30 4296 H 416.026 2.72043 -4.76743 0
M  V30 4297 H 416.287 3.16385 -3.08793 0
M  V30 4298 N 415.346 1.54954 0.287554 0
M  V30 4299 C 416.276 1.89839 1.35954 0
M  V30 4300 C 417.257 0.758675 1.52244 0
M  V30 4301 O 418.442 1.01557 1.65529 0
M  V30 4302 C 415.572 2.15753 2.72154 0
M  V30 4303 C 414.526 3.3159 2.70614 0
M  V30 4304 C 413.852 3.42952 4.10229 0
M  V30 4305 C 415.152 4.68359 2.31165 0
M  V30 4306 H 416.846 2.79625 1.07007 0
M  V30 4307 H 414.392 1.3454 0.513316 0
M  V30 4308 H 416.345 2.38743 3.47246 0
M  V30 4309 H 415.069 1.22752 3.02654 0
M  V30 4310 H 413.728 3.08545 1.97979 0
M  V30 4311 H 413.376 2.47443 4.37928 0
M  V30 4312 H 413.076 4.20826 4.10097 0
M  V30 4313 H 414.6 3.68218 4.87081 0
M  V30 4314 H 416.014 4.9099 2.95976 0
M  V30 4315 H 414.411 5.49044 2.42221 0
M  V30 4316 H 415.481 4.68165 1.26291 0
M  V30 4317 N 416.824 -0.551391 1.4764 0
M  V30 4318 C 417.787 -1.64007 1.60107 0
M  V30 4319 C 418.787 -1.53601 0.47576 0
M  V30 4320 O 419.977 -1.57655 0.740988 0
M  V30 4321 C 417.109 -3.03569 1.55108 0
M  V30 4322 H 418.302 -1.543 2.57161 0
M  V30 4323 H 415.855 -0.771776 1.35917 0
M  V30 4324 H 416.59 -3.18804 0.594519 0
M  V30 4325 H 416.375 -3.12532 2.36783 0
M  V30 4326 H 417.865 -3.82762 1.66982 0
M  V30 4327 N 418.302 -1.35869 -0.798587 0
M  V30 4328 C 419.548 -1.2978 -1.55836 0
M  V30 4329 C 419.881 0.125322 -1.93795 0
M  V30 4330 O 419.156 1.07658 -1.61987 0
M  V30 4331 C 419.439 -2.21188 -2.84162 0
M  V30 4332 C 419.292 -3.72155 -2.52628 0
M  V30 4333 C 420.611 -2.11545 -3.85923 0
M  V30 4334 H 417.73 -0.472769 -0.565383 0
M  V30 4335 H 420.372 -1.66341 -0.918192 0
M  V30 4336 H 418.522 -1.90139 -3.38791 0
M  V30 4337 H 420.194 -4.13682 -2.04121 0
M  V30 4338 H 418.437 -3.92042 -1.85704 0
M  V30 4339 H 419.108 -4.31511 -3.44242 0
M  V30 4340 H 421.584 -2.38855 -3.40716 0
M  V30 4341 H 420.46 -2.77688 -4.73477 0
M  V30 4342 H 420.721 -1.09987 -4.282 0
M  V30 4343 N 419.78 1.02168 -1.19998 0
M  V30 4344 C 420.71 2.12488 -0.96804 0
M  V30 4345 C 421.691 1.69799 0.101185 0
M  V30 4346 O 422.876 1.94121 -0.0552993 0
M  V30 4347 C 420.006 3.43479 -0.513776 0
M  V30 4348 C 418.96 3.99884 -1.52566 0
M  V30 4349 C 418.286 5.26582 -0.928214 0
M  V30 4350 C 419.586 4.33861 -2.90795 0
M  V30 4351 H 421.28 2.32149 -1.89069 0
M  V30 4352 H 418.826 1.11564 -0.910468 0
M  V30 4353 H 420.779 4.20036 -0.338774 0
M  V30 4354 H 419.503 3.23561 0.444493 0
M  V30 4355 H 418.162 3.25429 -1.68794 0
M  V30 4356 H 417.81 5.02986 0.0378289 0
M  V30 4357 H 417.51 5.65284 -1.60397 0
M  V30 4358 H 419.034 6.05799 -0.764167 0
M  V30 4359 H 420.448 5.01327 -2.78109 0
M  V30 4360 H 418.845 4.83664 -3.55231 0
M  V30 4361 H 419.915 3.42848 -3.42904 0
M  V30 4362 N 421.258 1.00505 1.21394 0
M  V30 4363 C 422.221 0.570459 2.21987 0
M  V30 4364 C 423.221 -0.353211 1.56873 0
M  V30 4365 O 424.411 -0.14349 1.73608 0
M  V30 4366 C 421.543 -0.168555 3.40483 0
M  V30 4367 H 422.736 1.46021 2.6195 0
M  V30 4368 H 420.289 0.793565 1.34656 0
M  V30 4369 H 421.024 -1.07374 3.06009 0
M  V30 4370 H 420.809 0.494823 3.88965 0
M  V30 4371 H 422.299 -0.460362 4.15055 0
M  V30 4372 N 422.737 -1.36956 0.779787 0
M  V30 4373 C 423.962 -2.04283 0.358224 0
M  V30 4374 C 424.387 -1.58422 -1.01411 0
M  V30 4375 O 423.745 -0.748179 -1.65142 0
M  V30 4376 C 423.793 -3.58152 0.419479 0
M  V30 4377 O 422.897 -4.08342 -0.577142 0
M  V30 4378 H 422.238 -0.645967 0.153698 0
M  V30 4379 H 424.768 -1.75108 1.05822 0
M  V30 4380 H 424.778 -4.07041 0.279636 0
M  V30 4381 H 423.453 -3.90886 1.42061 0
M  V30 4382 H 422.03 -3.70751 -0.399755 0
M  V30 4383 N 424.215 -0.530993 -1.48385 0
M  V30 4384 C 425.44 0.000729535 -2.074 0
M  V30 4385 C 425.865 1.27298 -1.3848 0
M  V30 4386 O 425.223 1.75599 -0.451081 0
M  V30 4387 C 425.271 0.206697 -3.60007 0
M  V30 4388 O 424.375 1.27514 -3.92191 0
M  V30 4389 H 423.716 -0.039583 -0.662819 0
M  V30 4390 H 426.246 -0.739194 -1.9078 0
M  V30 4391 H 426.256 0.42904 -4.05738 0
M  V30 4392 H 424.931 -0.722675 -4.09573 0
M  V30 4393 H 423.508 1.03537 -3.58238 0
M  V30 4394 N 425.693 1.55336 -0.266172 0
M  V30 4395 C 426.918 2.04258 0.359661 0
M  V30 4396 C 427.343 1.14359 1.49344 0
M  V30 4397 O 426.701 0.140369 1.80756 0
M  V30 4398 C 426.749 3.50997 0.826635 0
M  V30 4399 O 425.853 3.64204 1.93466 0
M  V30 4400 H 425.194 0.659668 0.075727 0
M  V30 4401 H 427.724 2.00694 -0.39786 0
M  V30 4402 H 427.734 3.9219 1.12477 0
M  V30 4403 H 426.409 4.159 -0.00293032 0
M  V30 4404 H 424.986 3.34913 1.63974 0
M  V30 4405 N 427.171 -0.0066808 1.57599 0
M  V30 4406 C 428.081 -1.01671 2.11424 0
M  V30 4407 C 429.097 -1.38143 1.05795 0
M  V30 4408 O 430.273 -1.47011 1.37658 0
M  V30 4409 C 427.338 -2.29192 2.60139 0
M  V30 4410 C 426.399 -1.99094 3.80342 0
M  V30 4411 C 425.632 -3.20535 4.26724 0
M  V30 4412 O 425.855 -4.3199 3.72479 0
M  V30 4413 O 424.789 -3.04924 5.18946 0
M  V30 4414 H 428.615 -0.589181 2.9793 0
M  V30 4415 H 426.2 -0.225091 1.47695 0
M  V30 4416 H 428.082 -3.0412 2.917 0
M  V30 4417 H 426.757 -2.71195 1.76733 0
M  V30 4418 H 425.664 -1.21663 3.53764 0
M  V30 4419 H 426.997 -1.61931 4.648 0
M  V30 4420 N 428.649 -1.55105 -0.279332 0
M  V30 4421 C 429.898 -1.74618 -1.00952 0
M  V30 4422 C 430.211 -0.551096 -1.87676 0
M  V30 4423 O 431.417 -0.628507 -2.64125 0
M  V30 4424 C 429.873 -3.09025 -1.84476 0
M  V30 4425 C 429.481 -4.36081 -1.0265 0
M  V30 4426 C 431.225 -3.37891 -2.56963 0
M  V30 4427 C 429.132 -5.6153 -1.85576 0
M  V30 4428 H 428.062 -0.650868 -0.38064 0
M  V30 4429 H 430.713 -1.81569 -0.265475 0
M  V30 4430 H 429.095 -2.96095 -2.62952 0
M  V30 4431 H 430.269 -4.59909 -0.286354 0
M  V30 4432 H 428.584 -4.14312 -0.416464 0
M  V30 4433 H 431.181 -4.28822 -3.19399 0
M  V30 4434 H 431.524 -2.57737 -3.26921 0
M  V30 4435 H 432.057 -3.5189 -1.85522 0
M  V30 4436 H 428.796 -6.44413 -1.2005 0
M  V30 4437 H 428.316 -5.41854 -2.57204 0
M  V30 4438 H 429.995 -5.99594 -2.43096 0
M  V30 4439 N 430.127 0.543554 -1.4793 0
M  V30 4440 C 431.09 1.63156 -1.60975 0
M  V30 4441 C 432.09 1.53346 -0.483899 0
M  V30 4442 O 433.28 1.5726 -0.749339 0
M  V30 4443 C 430.412 3.02743 -1.56716 0
M  V30 4444 H 431.605 1.52934 -2.57975 0
M  V30 4445 H 429.158 0.764557 -1.36324 0
M  V30 4446 H 429.893 3.18484 -0.611418 0
M  V30 4447 H 429.678 3.11272 -2.38438 0
M  V30 4448 H 431.168 3.81871 -1.6901 0
M  V30 4449 N 431.605 1.3629 0.791371 0
M  V30 4450 C 432.553 1.30514 1.92533 0
M  V30 4451 C 433.547 0.197285 1.68247 0
M  V30 4452 O 434.753 0.364176 1.76278 0
M  V30 4453 H 431.128 0.406263 0.632815 0
M  V30 4454 H 433.099 2.26282 1.94523 0
M  V30 4455 C 431.848 1.10933 3.29529 0
M  V30 4456 H 431.171 1.95427 3.48781 0
M  V30 4457 H 432.611 1.10937 4.0923 0
M  V30 4458 C 431.07 -0.186123 3.36385 0
M  V30 4459 O 431.6 -1.17664 3.84081 0
M  V30 4460 N 429.806 -0.230128 2.89687 0
M  V30 4461 H 429.353 0.576545 2.51065 0
M  V30 4462 H 429.311 -1.09658 2.94657 0
M  V30 4463 N 433.083 -1.0153 1.20538 0
M  V30 4464 C 434.015 -2.10224 0.913155 0
M  V30 4465 C 435.028 -1.62495 -0.0995998 0
M  V30 4466 O 436.217 -1.78014 0.131582 0
M  V30 4467 C 433.317 -3.37111 0.347717 0
M  V30 4468 C 432.49 -4.13971 1.41233 0
M  V30 4469 C 431.549 -5.19158 0.857976 0
M  V30 4470 O 430.575 -5.48 1.53897 0
M  V30 4471 N 431.777 -5.7955 -0.331966 0
M  V30 4472 H 434.542 -2.35879 1.84881 0
M  V30 4473 H 432.103 -1.17931 1.10923 0
M  V30 4474 H 434.095 -4.04683 -0.0373026 0
M  V30 4475 H 432.665 -3.08696 -0.492527 0
M  V30 4476 H 431.885 -3.41351 1.97163 0
M  V30 4477 H 433.173 -4.62103 2.12928 0
M  V30 4478 H 432.571 -5.58455 -0.902478 0
M  V30 4479 H 431.128 -6.48464 -0.65861 0
M  V30 4480 N 434.561 -1.01147 -1.20859 0
M  V30 4481 C 435.977 -0.725422 -1.42161 0
M  V30 4482 C 436.177 0.696919 -1.89064 0
M  V30 4483 O 435.233 1.46539 -2.05627 0
M  V30 4484 C 436.546 -1.74678 -2.44761 0
M  V30 4485 C 438.094 -1.76433 -2.58535 0
M  V30 4486 C 438.569 -2.77481 -3.64374 0
M  V30 4487 N 440.06 -2.76189 -3.71852 0
M  V30 4488 C 440.795 -3.51035 -4.53389 0
M  V30 4489 N 440.291 -4.35541 -5.38773 0
M  V30 4490 N 442.084 -3.39655 -4.47873 0
M  V30 4491 H 434.235 -1.92979 -0.887282 0
M  V30 4492 H 436.498 -0.833327 -0.451962 0
M  V30 4493 H 436.204 -2.76551 -2.17285 0
M  V30 4494 H 436.078 -1.55472 -3.43669 0
M  V30 4495 H 438.465 -0.75248 -2.85345 0
M  V30 4496 H 438.546 -1.99712 -1.5984 0
M  V30 4497 H 438.19 -3.78827 -3.38308 0
M  V30 4498 H 438.12 -2.51466 -4.6268 0
M  V30 4499 H 440.611 -2.14885 -3.10858 0
M  V30 4500 H 440.924 -4.89432 -5.98061 0
M  V30 4501 H 439.269 -4.39621 -5.38292 0
M  V30 4502 H 442.46 -2.73063 -3.80203 0
M  V30 4503 H 442.633 -3.9824 -5.11184 0
M  V30 4504 N 436.039 1.36541 -0.78704 0
M  V30 4505 C 437.286 1.99304 -0.358341 0
M  V30 4506 C 437.614 1.62467 1.06933 0
M  V30 4507 O 436.869 0.870019 1.75297 0
M  V30 4508 C 437.168 3.54343 -0.466485 0
M  V30 4509 C 436.834 4.10993 -1.85461 0
M  V30 4510 C 435.496 4.26177 -2.23443 0
M  V30 4511 C 437.848 4.41895 -2.76366 0
M  V30 4512 C 435.176 4.69573 -3.51736 0
M  V30 4513 C 437.528 4.86722 -4.04084 0
M  V30 4514 C 436.192 5.00112 -4.42091 0
M  V30 4515 H 435.462 0.729306 -0.131126 0
M  V30 4516 H 438.109 1.63068 -1.00404 0
M  V30 4517 H 436.414 3.90918 0.262719 0
M  V30 4518 H 438.111 4.00833 -0.115854 0
M  V30 4519 H 434.701 3.99612 -1.54946 0
M  V30 4520 H 438.885 4.29735 -2.48277 0
M  V30 4521 H 434.141 4.78127 -3.81057 0
M  V30 4522 H 438.315 5.09598 -4.7464 0
M  V30 4523 H 435.942 5.33498 -5.41557 0
M  V30 4524 N 437.518 0.538854 1.48102 0
M  V30 4525 C 438.766 0.00798599 2.02098 0
M  V30 4526 C 439.087 -1.33922 1.41739 0
M  V30 4527 O 438.357 -1.86932 0.585934 0
M  V30 4528 H 436.937 -3.62179e-05 0.747 0
M  V30 4529 H 439.599 0.7047 1.81714 0
M  V30 4530 H 438.695 -0.0937672 3.11959 0
M  V30 4531 N 438.996 -1.55193 0.274407 0
M  V30 4532 C 439.929 -2.18606 -0.654712 0
M  V30 4533 C 440.907 -1.14677 -1.15273 0
M  V30 4534 O 442.091 -1.43198 -1.22583 0
M  V30 4535 C 439.218 -2.80875 -1.89281 0
M  V30 4536 C 438.264 -3.981 -1.53032 0
M  V30 4537 S 439.097 -5.32025 -0.609107 0
M  V30 4538 C 440.253 -5.97761 -1.85559 0
M  V30 4539 H 440.486 -2.97074 -0.115894 0
M  V30 4540 H 438.019 -1.54288 0.05867 0
M  V30 4541 H 439.977 -3.17381 -2.60345 0
M  V30 4542 H 438.638 -2.02302 -2.40277 0
M  V30 4543 H 437.831 -4.40356 -2.45158 0
M  V30 4544 H 437.433 -3.63013 -0.899874 0
M  V30 4545 H 439.725 -6.16951 -2.7996 0
M  V30 4546 H 440.668 -6.92545 -1.47605 0
M  V30 4547 H 441.076 -5.27113 -2.02021 0
M  V30 4548 N 440.474 -0.00167713 -1.576 0
M  V30 4549 C 441.885 0.54091 -1.78693 0
M  V30 4550 C 442.236 1.7386 -0.909247 0
M  V30 4551 O 441.361 2.16109 -0.112176 0
M  V30 4552 C 441.956 0.98806 -3.24072 0
M  V30 4553 C 440.515 1.47594 -3.46256 0
M  V30 4554 C 439.662 0.42792 -2.73978 0
M  V30 4555 H 442.613 -0.22784 -1.57056 0
M  V30 4556 H 442.634 1.85398 -3.32277 0
M  V30 4557 H 442.146 0.116164 -3.87926 0
M  V30 4558 H 440.247 2.36868 -2.87618 0
M  V30 4559 H 440.36 1.50225 -4.54939 0
M  V30 4560 H 438.724 0.889934 -2.38647 0
M  V30 4561 H 439.507 -0.435038 -3.40532 0
M  V30 4562 N 441.952 1.55251 0.271103 0
M  V30 4563 C 443.229 1.66664 1.02384 0
M  V30 4564 C 443.609 0.534363 2.04225 0
M  V30 4565 O 442.957 -0.465337 2.23712 0
M  V30 4566 C 443.167 3.05961 1.67895 0
M  V30 4567 C 444.515 3.63772 2.18986 0
M  V30 4568 O 445.539 3.08606 1.77878 0
M  V30 4569 O 444.398 4.60429 2.94393 0
M  V30 4570 H 441.492 0.676957 0.475035 0
M  V30 4571 H 444.038 1.67589 0.26681 0
M  V30 4572 H 442.81 3.79815 0.941071 0
M  V30 4573 H 442.433 3.08943 2.5028 0
M  V30 4574 N 443.43 -0.535701 1.48216 0
M  V30 4575 C 444.66 -1.3148 1.59363 0
M  V30 4576 C 445.068 -1.8753 0.250844 0
M  V30 4577 O 444.411 -1.66821 -0.769174 0
M  V30 4578 C 444.473 -2.50731 2.57632 0
M  V30 4579 C 444.137 -2.15811 4.02833 0
M  V30 4580 C 445.134 -1.71822 4.90686 0
M  V30 4581 C 442.819 -2.26509 4.48329 0
M  V30 4582 C 444.813 -1.3899 6.22062 0
M  V30 4583 C 442.5 -1.93289 5.79726 0
M  V30 4584 C 443.498 -1.49599 6.66415 0
M  V30 4585 O 443.186 -1.16812 7.95368 0
M  V30 4586 H 442.918 -0.406315 0.540263 0
M  V30 4587 H 445.472 -0.653569 1.94725 0
M  V30 4588 H 443.702 -3.19817 2.1738 0
M  V30 4589 H 445.391 -3.12797 2.58675 0
M  V30 4590 H 446.157 -1.63031 4.56778 0
M  V30 4591 H 442.036 -2.59471 3.81045 0
M  V30 4592 H 445.58 -1.04816 6.89681 0
M  V30 4593 H 441.477 -2.01718 6.13172 0
M  V30 4594 H 442.245 -1.30259 8.08069 0
M  V30 4595 N 444.908 -1.36708 -0.784132 0
M  V30 4596 C 446.155 -1.31231 -1.54222 0
M  V30 4597 C 446.483 0.106864 -1.94206 0
M  V30 4598 O 445.738 1.07734 -1.63376 0
M  V30 4599 C 446.037 -2.18571 -2.82774 0
M  V30 4600 C 445.703 -3.67039 -2.61903 0
M  V30 4601 C 444.365 -4.07503 -2.55919 0
M  V30 4602 C 446.717 -4.61149 -2.4288 0
M  V30 4603 C 444.045 -5.40211 -2.28886 0
M  V30 4604 C 446.397 -5.94081 -2.17373 0
M  V30 4605 C 445.061 -6.33664 -2.09825 0
M  V30 4606 H 444.331 -0.48021 -0.56434 0
M  V30 4607 H 446.978 -1.68807 -0.904233 0
M  V30 4608 H 445.283 -1.73949 -3.51068 0
M  V30 4609 H 446.98 -2.11655 -3.40592 0
M  V30 4610 H 443.57 -3.34941 -2.67418 0
M  V30 4611 H 447.754 -4.30756 -2.46501 0
M  V30 4612 H 443.01 -5.69855 -2.21529 0
M  V30 4613 H 447.184 -6.66566 -2.01649 0
M  V30 4614 H 444.811 -7.36423 -1.88641 0
M  V30 4615 N 446.386 1.0089 -1.21074 0
M  V30 4616 C 447.802 1.2695 -0.967257 0
M  V30 4617 C 448.002 1.9846 0.348673 0
M  V30 4618 O 447.058 2.28459 1.0753 0
M  V30 4619 C 448.371 2.09697 -2.15517 0
M  V30 4620 C 449.919 2.22937 -2.197 0
M  V30 4621 C 450.394 3.09064 -3.37999 0
M  V30 4622 N 451.885 3.16653 -3.38061 0
M  V30 4623 C 452.62 3.8354 -4.26245 0
M  V30 4624 N 452.116 4.52488 -5.2462 0
M  V30 4625 N 453.909 3.80141 -4.14064 0
M  V30 4626 H 446.06 0.529005 -2.05707 0
M  V30 4627 H 448.323 0.296148 -0.900556 0
M  V30 4628 H 448.029 1.64497 -3.10859 0
M  V30 4629 H 447.903 3.10444 -2.14253 0
M  V30 4630 H 450.29 2.67357 -1.24916 0
M  V30 4631 H 450.371 1.21673 -2.2501 0
M  V30 4632 H 450.015 2.65347 -4.33074 0
M  V30 4633 H 449.945 4.10433 -3.29928 0
M  V30 4634 H 452.436 2.67566 -2.66865 0
M  V30 4635 H 452.749 5.01219 -5.88217 0
M  V30 4636 H 451.094 4.51288 -5.28549 0
M  V30 4637 H 454.285 3.25427 -3.36474 0
M  V30 4638 H 454.458 4.31992 -4.82998 0
M  V30 4639 N 447.864 1.01787 1.20321 0
M  V30 4640 C 448.796 0.547357 2.22568 0
M  V30 4641 C 449.809 -0.370922 1.58518 0
M  V30 4642 O 450.998 -0.169067 1.77698 0
M  V30 4643 C 448.098 -0.223031 3.38165 0
M  V30 4644 C 447.271 0.697472 4.31803 0
M  V30 4645 C 446.33 -0.025562 5.26194 0
M  V30 4646 O 445.356 0.597367 5.66057 0
M  V30 4647 N 446.558 -1.29999 5.65757 0
M  V30 4648 H 449.323 1.42668 2.63564 0
M  V30 4649 H 446.884 0.895552 1.34876 0
M  V30 4650 H 448.876 -0.716002 3.98316 0
M  V30 4651 H 447.446 -1.00366 2.9605 0
M  V30 4652 H 446.666 1.37073 3.69601 0
M  V30 4653 H 447.954 1.32347 4.91286 0
M  V30 4654 H 447.352 -1.827 5.35385 0
M  V30 4655 H 445.909 -1.73766 6.28211 0
M  V30 4656 N 449.342 -1.36122 0.79427 0
M  V30 4657 C 450.567 -2.03891 0.379871 0
M  V30 4658 C 450.992 -1.59488 -0.997251 0
M  V30 4659 O 450.35 -0.765652 -1.64339 0
M  V30 4660 C 450.398 -3.57687 0.457442 0
M  V30 4661 O 449.502 -4.08931 -0.5338 0
M  V30 4662 H 448.843 -0.6443 0.160541 0
M  V30 4663 H 451.373 -1.73976 1.07673 0
M  V30 4664 H 451.383 -4.06721 0.322792 0
M  V30 4665 H 450.058 -3.89357 1.46199 0
M  V30 4666 H 448.635 -3.71154 -0.360409 0
M  V30 4667 N 450.82 -0.546701 -1.47814 0
M  V30 4668 C 452.068 -0.0187037 -2.02091 0
M  V30 4669 C 452.389 1.33168 -1.42447 0
M  V30 4670 O 451.659 1.86619 -0.595839 0
M  V30 4671 H 450.239 -0.00392531 -0.74699 0
M  V30 4672 H 452.901 -0.714327 -1.81338 0
M  V30 4673 H 451.997 0.0772219 -3.12004 0
M  V30 4674 N 452.299 1.55045 -0.282633 0
M  V30 4675 C 453.527 2.04168 0.33512 0
M  V30 4676 C 453.942 1.16071 1.48906 0
M  V30 4677 O 453.299 0.182391 1.81586 0
M  V30 4678 C 453.35 3.52332 0.808957 0
M  V30 4679 O 453.071 4.37078 -0.299038 0
M  V30 4680 C 454.572 4.17375 1.49375 0
M  V30 4681 H 451.792 0.666744 0.0754543 0
M  V30 4682 H 454.336 2.00205 -0.416918 0
M  V30 4683 H 452.491 3.56715 1.51106 0
M  V30 4684 H 452.905 5.24458 0.0665514 0
M  V30 4685 H 454.379 5.22627 1.77664 0
M  V30 4686 H 454.856 3.65999 2.42778 0
M  V30 4687 H 455.462 4.17016 0.835305 0
M  V30 4688 N 453.777 0.010035 1.57597 0
M  V30 4689 C 455.007 -0.682422 1.95004 0
M  V30 4690 C 455.415 -1.67278 0.884014 0
M  V30 4691 O 454.758 -1.83129 -0.144672 0
M  V30 4692 C 454.82 -1.46141 3.28456 0
M  V30 4693 C 454.484 -0.631523 4.52615 0
M  V30 4694 C 455.481 0.0850905 5.1983 0
M  V30 4695 C 453.166 -0.574539 4.99003 0
M  V30 4696 C 455.16 0.847566 6.3174 0
M  V30 4697 C 452.847 0.191655 6.10799 0
M  V30 4698 C 453.845 0.901432 6.77025 0
M  V30 4699 O 453.533 1.65511 7.86677 0
M  V30 4700 H 453.265 -0.194361 0.647456 0
M  V30 4701 H 455.819 0.060312 2.05311 0
M  V30 4702 H 454.049 -2.24885 3.14585 0
M  V30 4703 H 455.738 -2.04016 3.50902 0
M  V30 4704 H 456.504 0.0502812 4.84974 0
M  V30 4705 H 452.383 -1.11654 4.47274 0
M  V30 4706 H 455.927 1.4021 6.83364 0
M  V30 4707 H 451.824 0.228249 6.45096 0
M  V30 4708 H 452.592 1.57287 8.03245 0
M  V30 4709 N 455.255 -1.55392 -0.262866 0
M  V30 4710 C 456.503 -1.76127 -0.991147 0
M  V30 4711 C 456.824 -0.571083 -1.8645 0
M  V30 4712 O 456.094 0.413698 -1.91482 0
M  V30 4713 H 454.674 -0.649528 -0.368948 0
M  V30 4714 H 457.336 -1.9281 -0.284655 0
M  V30 4715 H 456.432 -2.6663 -1.62219 0
M  V30 4716 N 456.733 0.527833 -1.48498 0
M  V30 4717 C 457.958 1.313 -1.60546 0
M  V30 4718 C 458.383 1.86199 -0.26672 0
M  V30 4719 O 457.741 1.64513 0.761918 0
M  V30 4720 C 457.789 2.43818 -2.65678 0
M  V30 4721 O 456.893 3.46916 -2.22987 0
M  V30 4722 H 456.234 0.388784 -0.538277 0
M  V30 4723 H 458.764 0.634896 -1.945 0
M  V30 4724 H 458.774 2.89973 -2.87018 0
M  V30 4725 H 457.449 2.03222 -3.62869 0
M  V30 4726 H 456.026 3.06864 -2.11869 0
M  V30 4727 N 458.211 1.37122 0.776871 0
M  V30 4728 C 459.46 1.31373 1.53049 0
M  V30 4729 C 459.773 -0.101016 1.95339 0
M  V30 4730 O 460.979 -0.280953 2.70042 0
M  V30 4731 C 459.435 2.30567 2.76346 0
M  V30 4732 C 459.043 3.77543 2.41175 0
M  V30 4733 C 460.787 2.33818 3.54301 0
M  V30 4734 C 458.694 4.68481 3.60943 0
M  V30 4735 H 457.624 0.488234 0.574581 0
M  V30 4736 H 460.275 1.62554 0.851372 0
M  V30 4737 H 458.657 1.92396 3.46121 0
M  V30 4738 H 459.831 4.24521 1.79216 0
M  V30 4739 H 458.146 3.77187 1.76405 0
M  V30 4740 H 460.743 2.98965 4.4331 0
M  V30 4741 H 461.086 1.3503 3.93793 0
M  V30 4742 H 461.619 2.7067 2.91518 0
M  V30 4743 H 458.358 5.68378 3.26537 0
M  V30 4744 H 457.878 4.2621 4.22025 0
M  V30 4745 H 459.557 4.85366 4.27819 0
M  V30 4746 N 459.689 -1.00246 1.21608 0
M  V30 4747 C 460.917 -1.77631 1.06089 0
M  V30 4748 C 461.332 -1.84746 -0.38916 0
M  V30 4749 O 460.689 -1.31068 -1.26994 0
M  V30 4750 C 460.74 -3.21415 1.65453 0
M  V30 4751 O 460.461 -3.14703 3.04785 0
M  V30 4752 C 461.962 -4.15289 1.55079 0
M  V30 4753 H 459.182 -0.558162 0.37242 0
M  V30 4754 H 461.726 -1.26093 1.60999 0
M  V30 4755 H 459.881 -3.70053 1.14629 0
M  V30 4756 H 460.295 -4.05056 3.33212 0
M  V30 4757 H 461.769 -5.13965 2.01355 0
M  V30 4758 H 462.246 -4.36279 0.505665 0
M  V30 4759 H 462.852 -3.72543 2.05163 0
M  V30 4760 N 461.167 -1.02423 -1.1978 0
M  V30 4761 C 462.413 -0.719051 -1.89625 0
M  V30 4762 C 462.746 0.750083 -1.7913 0
M  V30 4763 O 462.021 1.54574 -1.18056 0
M  V30 4764 C 462.304 -1.16499 -3.40735 0
M  V30 4765 C 462.157 -2.695 -3.60125 0
M  V30 4766 C 463.476 -0.742166 -4.33797 0
M  V30 4767 H 460.595 -0.26269 -0.688595 0
M  V30 4768 H 463.237 -1.27333 -1.41018 0
M  V30 4769 H 461.387 -0.69341 -3.82262 0
M  V30 4770 H 463.059 -3.24569 -3.278 0
M  V30 4771 H 461.302 -3.10113 -3.03336 0
M  V30 4772 H 461.973 -2.95757 -4.66081 0
M  V30 4773 H 464.449 -1.1477 -3.99959 0
M  V30 4774 H 463.325 -1.08213 -5.38127 0
M  V30 4775 H 463.586 0.355747 -4.40666 0
M  V30 4776 N 462.645 1.35699 -0.801477 0
M  V30 4777 C 463.555 2.33661 -0.209691 0
M  V30 4778 C 464.571 1.6162 0.644591 0
M  V30 4779 O 465.747 1.93529 0.557545 0
M  V30 4780 C 462.812 3.40816 0.636033 0
M  V30 4781 C 461.873 4.28639 -0.238147 0
M  V30 4782 C 461.106 5.30676 0.567307 0
M  V30 4783 O 461.329 5.41174 1.8024 0
M  V30 4784 O 460.263 6.01887 -0.0391336 0
M  V30 4785 H 464.089 2.8606 -1.01996 0
M  V30 4786 H 461.674 1.38379 -0.563164 0
M  V30 4787 H 463.556 4.06301 1.11791 0
M  V30 4788 H 462.231 2.90696 1.42399 0
M  V30 4789 H 461.138 3.66152 -0.767044 0
M  V30 4790 H 462.471 4.82143 -0.989915 0
M  V30 4791 N 464.123 0.554532 1.47522 0
M  V30 4792 C 465.348 0.0322661 2.07375 0
M  V30 4793 C 465.773 -1.25079 1.40488 0
M  V30 4794 O 465.131 -1.74859 0.47896 0
M  V30 4795 C 465.179 -0.149397 3.6029 0
M  V30 4796 O 464.283 -1.21259 3.9417 0
M  V30 4797 H 463.624 0.0501228 0.662106 0
M  V30 4798 H 466.154 0.769452 1.8958 0
M  V30 4799 H 466.164 -0.364437 4.06369 0
M  V30 4800 H 464.839 0.787743 4.08372 0
M  V30 4801 H 463.416 -0.97825 3.5984 0
M  V30 4802 N 465.601 -1.54893 0.290851 0
M  V30 4803 C 466.548 -2.23138 -0.58974 0
M  V30 4804 C 467.518 -1.21036 -1.13752 0
M  V30 4805 O 468.703 -1.49626 -1.18392 0
M  V30 4806 C 465.843 -2.96811 -1.76061 0
M  V30 4807 C 464.956 -4.13665 -1.24519 0
M  V30 4808 C 464.091 -4.74944 -2.3791 0
M  V30 4809 C 463.13 -5.83963 -1.83451 0
M  V30 4810 N 462.267 -6.39239 -2.90376 0
M  V30 4811 H 467.107 -2.98 -0.00114915 0
M  V30 4812 H 464.644 -1.47096 0.0112006 0
M  V30 4813 H 466.602 -3.37751 -2.44909 0
M  V30 4814 H 465.232 -2.24344 -2.32098 0
M  V30 4815 H 464.284 -3.77737 -0.449288 0
M  V30 4816 H 465.596 -4.92238 -0.806424 0
M  V30 4817 H 464.75 -5.18684 -3.14724 0
M  V30 4818 H 463.489 -3.95682 -2.85109 0
M  V30 4819 H 462.494 -5.39657 -1.05122 0
M  V30 4820 H 463.719 -6.65103 -1.37169 0
M  V30 4821 H 461.665 -5.62864 -3.36927 0
M  V30 4822 H 461.582 -7.13129 -2.50965 0
M  V30 4823 H 462.85 -6.87637 -3.67118 0
M  V30 4824 N 467.08 -0.0183926 -1.57589 0
M  V30 4825 C 468.013 1.00148 -2.0505 0
M  V30 4826 C 468.991 1.32387 -0.944058 0
M  V30 4827 O 470.175 1.44237 -1.21358 0
M  V30 4828 C 467.302 2.32435 -2.46357 0
M  V30 4829 C 466.348 2.15731 -3.67916 0
M  V30 4830 S 467.181 1.46613 -5.15039 0
M  V30 4831 C 468.337 2.80293 -5.59631 0
M  V30 4832 H 468.57 0.597429 -2.91235 0
M  V30 4833 H 466.103 0.193002 -1.53189 0
M  V30 4834 H 468.061 3.0849 -2.70822 0
M  V30 4835 H 466.722 2.69975 -1.60537 0
M  V30 4836 H 465.915 3.13502 -3.9463 0
M  V30 4837 H 465.517 1.4782 -3.43548 0
M  V30 4838 H 467.809 3.76557 -5.63215 0
M  V30 4839 H 468.752 2.58256 -6.59325 0
M  V30 4840 H 469.16 2.85047 -4.87246 0
M  V30 4841 N 468.558 1.5553 0.254621 0
M  V30 4842 C 469.786 1.81046 1.00149 0
M  V30 4843 C 470.201 0.593047 1.79244 0
M  V30 4844 O 469.558 -0.438196 1.77161 0
M  V30 4845 C 469.609 3.04684 1.94551 0
M  V30 4846 O 469.33 4.21725 1.18658 0
M  V30 4847 C 470.831 3.42943 2.80901 0
M  V30 4848 H 468.051 0.602653 0.295044 0
M  V30 4849 H 470.595 2.02576 0.279842 0
M  V30 4850 H 468.75 2.85226 2.62154 0
M  V30 4851 H 469.164 4.91746 1.82445 0
M  V30 4852 H 470.638 4.32576 3.42902 0
M  V30 4853 H 471.115 2.63176 3.51617 0
M  V30 4854 H 471.721 3.64724 2.18762 0
M  V30 4855 N 470.036 -0.519951 1.48776 0
M  V30 4856 C 470.968 -1.63973 1.60142 0
M  V30 4857 C 471.981 -1.55404 0.485117 0
M  V30 4858 O 473.17 -1.61682 0.756391 0
M  V30 4859 C 470.27 -3.02676 1.52449 0
M  V30 4860 C 469.443 -3.36624 2.79291 0
M  V30 4861 C 468.502 -4.54652 2.64912 0
M  V30 4862 O 467.528 -4.57374 3.38818 0
M  V30 4863 N 468.73 -5.53432 1.75195 0
M  V30 4864 H 471.495 -1.54656 2.56713 0
M  V30 4865 H 469.056 -0.707439 1.45626 0
M  V30 4866 H 471.048 -3.79525 1.4051 0
M  V30 4867 H 469.618 -3.06018 0.638125 0
M  V30 4868 H 468.838 -2.48855 3.0572 0
M  V30 4869 H 470.126 -3.56094 3.6342 0
M  V30 4870 H 469.524 -5.54018 1.14371 0
M  V30 4871 H 468.081 -6.29459 1.69189 0
M  V30 4872 N 471.514 -1.37532 -0.769588 0
M  V30 4873 C 472.446 -1.29347 -1.89214 0
M  V30 4874 C 473.459 -0.208842 -1.61455 0
M  V30 4875 O 474.648 -0.465158 -1.72333 0
M  V30 4876 C 471.748 -0.977649 -3.24492 0
M  V30 4877 C 470.921 -2.16817 -3.7988 0
M  V30 4878 C 469.98 -1.82229 -4.93639 0
M  V30 4879 O 469.006 -2.54548 -5.09111 0
M  V30 4880 N 470.208 -0.767696 -5.75401 0
M  V30 4881 H 472.973 -2.26073 -1.96751 0
M  V30 4882 H 470.534 -1.31185 -0.948795 0
M  V30 4883 H 472.526 -0.727065 -3.98115 0
M  V30 4884 H 471.096 -0.0988777 -3.12444 0
M  V30 4885 H 470.316 -2.58038 -2.9801 0
M  V30 4886 H 471.604 -2.96308 -4.13617 0
M  V30 4887 H 471.002 -0.167626 -5.65452 0
M  V30 4888 H 469.559 -0.576973 -6.49241 0
M  V30 4889 N 472.992 0.995999 -1.22138 0
M  V30 4890 C 474.238 1.73767 -1.04561 0
M  V30 4891 C 474.571 1.89633 0.418698 0
M  V30 4892 O 473.846 1.43723 1.3105 0
M  V30 4893 C 474.129 3.14505 -1.75382 0
M  V30 4894 C 473.982 3.06306 -3.29388 0
M  V30 4895 C 475.301 4.13615 -1.50369 0
M  V30 4896 H 472.42 0.630728 -0.38125 0
M  V30 4897 H 475.062 1.16057 -1.50435 0
M  V30 4898 H 473.212 3.63775 -1.36383 0
M  V30 4899 H 474.884 2.64681 -3.77812 0
M  V30 4900 H 473.127 2.43186 -3.59226 0
M  V30 4901 H 473.798 4.05884 -3.74116 0
M  V30 4902 H 476.274 3.73089 -1.84239 0
M  V30 4903 H 475.15 5.10212 -2.02421 0
M  V30 4904 H 475.411 4.39949 -0.435611 0
M  V30 4905 N 474.47 1.03057 1.19235 0
M  V30 4906 C 475.718 0.726581 1.88587 0
M  V30 4907 C 476.039 -0.747227 1.80115 0
M  V30 4908 O 475.309 -1.53849 1.21274 0
M  V30 4909 H 473.889 0.265768 0.698124 0
M  V30 4910 H 476.551 1.30516 1.44746 0
M  V30 4911 H 475.647 1.0224 2.94879 0
M  V30 4912 N 475.948 -1.35272 0.808662 0
M  V30 4913 C 476.878 -2.32315 0.234981 0
M  V30 4914 C 477.859 -1.57572 -0.64071 0
M  V30 4915 O 479.044 -1.8563 -0.570551 0
M  V30 4916 C 476.174 -3.41801 -0.615601 0
M  V30 4917 C 475.128 -4.27694 0.161767 0
M  V30 4918 C 474.454 -5.28519 -0.810649 0
M  V30 4919 C 475.754 -5.04231 1.36193 0
M  V30 4920 H 477.448 -2.80543 1.04575 0
M  V30 4921 H 474.994 -1.3488 0.504315 0
M  V30 4922 H 476.947 -4.08693 -1.02702 0
M  V30 4923 H 475.671 -2.92186 -1.45928 0
M  V30 4924 H 474.33 -3.62384 0.554382 0
M  V30 4925 H 473.978 -4.75171 -1.64988 0
M  V30 4926 H 473.678 -5.8686 -0.294822 0
M  V30 4927 H 475.202 -5.98283 -1.22023 0
M  V30 4928 H 476.616 -5.64058 1.02528 0
M  V30 4929 H 475.013 -5.72077 1.81239 0
M  V30 4930 H 476.083 -4.34753 2.14751 0
M  V30 4931 N 477.426 -0.562348 -1.47226 0
M  V30 4932 C 478.674 -0.0401371 -2.0206 0
M  V30 4933 C 478.995 1.3165 -1.43852 0
M  V30 4934 O 478.265 1.85976 -0.615599 0
M  V30 4935 H 476.845 -0.0118479 -0.746906 0
M  V30 4936 H 479.507 -0.73352 -1.8057 0
M  V30 4937 H 478.603 0.0441254 -3.12069 0
M  V30 4938 N 478.904 1.54736 -0.299062 0
M  V30 4939 C 480.181 1.92187 0.363802 0
M  V30 4940 C 480.561 1.22607 1.71845 0
M  V30 4941 O 479.909 0.361141 2.25628 0
M  V30 4942 C 480.119 3.45678 0.480377 0
M  V30 4943 C 481.467 4.17885 0.752147 0
M  V30 4944 O 482.491 3.51702 0.564264 0
M  V30 4945 O 481.35 5.35048 1.11294 0
M  V30 4946 H 478.444 0.801681 0.203066 0
M  V30 4947 H 480.99 1.66115 -0.346978 0
M  V30 4948 H 479.762 3.88443 -0.471999 0
M  V30 4949 H 479.385 3.77779 1.2397 0
M  V30 4950 N 480.382 0.0267497 1.57577 0
M  V30 4951 C 481.63 -0.651116 1.91324 0
M  V30 4952 C 481.951 -1.72804 0.90353 0
M  V30 4953 O 481.221 -1.95822 -0.0552946 0
M  V30 4954 H 479.801 -0.243491 0.706202 0
M  V30 4955 H 482.463 0.0739935 1.94759 0
M  V30 4956 H 481.559 -1.10536 2.9187 0
M  V30 4957 N 481.861 -1.55662 -0.24637 0
M  V30 4958 C 483.11 -1.7672 -0.972254 0
M  V30 4959 C 483.423 -0.59078 -1.86465 0
M  V30 4960 O 484.629 -0.684391 -2.62732 0
M  V30 4961 C 483.085 -3.12869 -1.7788 0
M  V30 4962 C 482.693 -4.38161 -0.933768 0
M  V30 4963 C 484.437 -3.43265 -2.49738 0
M  V30 4964 C 482.344 -5.6534 -1.73623 0
M  V30 4965 H 481.274 -0.658795 -0.366749 0
M  V30 4966 H 483.925 -1.82092 -0.226902 0
M  V30 4967 H 482.307 -3.01606 -2.56612 0
M  V30 4968 H 483.481 -4.60413 -0.188736 0
M  V30 4969 H 481.796 -4.15102 -0.328488 0
M  V30 4970 H 484.393 -4.35501 -3.10231 0
M  V30 4971 H 484.736 -2.64614 -3.2138 0
M  V30 4972 H 485.269 -3.55746 -1.78016 0
M  V30 4973 H 482.008 -6.46814 -1.06354 0
M  V30 4974 H 481.528 -5.47188 -2.45653 0
M  V30 4975 H 483.207 -6.04616 -2.30323 0
M  V30 4976 N 483.339 0.512053 -1.4905 0
M  V30 4977 C 484.272 1.63209 -1.59493 0
M  V30 4978 C 485.25 1.56407 -0.444481 0
M  V30 4979 O 486.434 1.76623 -0.658535 0
M  V30 4980 C 483.561 3.01685 -1.53961 0
M  V30 4981 C 482.607 3.26786 -2.74068 0
M  V30 4982 S 483.44 3.11107 -4.35859 0
M  V30 4983 C 484.596 4.51997 -4.32954 0
M  V30 4984 H 484.829 1.54104 -2.54243 0
M  V30 4985 H 482.362 0.696382 -1.37804 0
M  V30 4986 H 484.32 3.81538 -1.51455 0
M  V30 4987 H 482.981 3.08215 -0.605178 0
M  V30 4988 H 482.174 4.27849 -2.66386 0
M  V30 4989 H 481.776 2.54635 -2.73928 0
M  V30 4990 H 484.068 5.43871 -4.03993 0
M  V30 4991 H 485.011 4.64731 -5.34257 0
M  V30 4992 H 485.419 4.32159 -3.63178 0
M  V30 4993 N 484.817 1.37938 0.762283 0
M  V30 4994 C 485.78 1.34279 1.85747 0
M  V30 4995 C 486.78 0.244969 1.58923 0
M  V30 4996 O 487.97 0.501365 1.66829 0
M  V30 4997 C 485.102 1.08833 3.23061 0
M  V30 4998 H 486.295 2.31705 1.90401 0
M  V30 4999 H 483.848 1.23105 0.963057 0
M  V30 5000 H 484.583 0.119767 3.24079 0
M  V30 5001 H 484.368 1.88306 3.43923 0
M  V30 5002 H 485.858 1.08946 4.03138 0
M  V30 5003 N 486.295 -0.989507 1.22664 0
M  V30 5004 C 487.572 -1.70326 0.961688 0
M  V30 5005 C 487.952 -2.04537 -0.522279 0
M  V30 5006 O 487.3 -1.73136 -1.49118 0
M  V30 5007 C 487.51 -2.95135 1.86269 0
M  V30 5008 C 488.858 -3.67842 2.12078 0
M  V30 5009 O 489.882 -3.0515 1.83745 0
M  V30 5010 O 488.741 -4.80644 2.60083 0
M  V30 5011 H 485.835 -0.743589 0.361946 0
M  V30 5012 H 488.381 -1.04555 1.33665 0
M  V30 5013 H 487.153 -2.66382 2.8663 0
M  V30 5014 H 486.776 -3.68645 1.48952 0
M  V30 5015 N 487.773 -1.03688 -1.18687 0
M  V30 5016 C 488.706 -0.569112 -2.2099 0
M  V30 5017 C 489.684 0.394315 -1.57746 0
M  V30 5018 O 490.868 0.309519 -1.85941 0
M  V30 5019 C 487.995 0.169104 -3.38278 0
M  V30 5020 C 487.041 -0.746989 -4.19908 0
M  V30 5021 S 487.874 -2.22773 -4.86963 0
M  V30 5022 C 489.03 -1.50025 -6.07654 0
M  V30 5023 H 489.263 -1.43589 -2.60326 0
M  V30 5024 H 486.796 -0.847507 -1.29061 0
M  V30 5025 H 488.754 0.588868 -4.06254 0
M  V30 5026 H 487.415 1.01172 -2.9736 0
M  V30 5027 H 486.608 -0.176626 -5.0369 0
M  V30 5028 H 486.21 -1.10543 -3.5729 0
M  V30 5029 H 488.502 -0.791217 -6.72864 0
M  V30 5030 H 489.445 -2.31498 -6.69189 0
M  V30 5031 H 489.853 -0.994245 -5.55675 0
M  V30 5032 N 489.251 1.34841 -0.815825 0
M  V30 5033 C 490.481 2.02436 -0.412695 0
M  V30 5034 C 490.889 1.61604 0.983906 0
M  V30 5035 O 490.232 0.813729 1.64694 0
M  V30 5036 C 490.294 3.56953 -0.427182 0
M  V30 5037 C 489.958 4.21083 -1.77589 0
M  V30 5038 C 490.955 4.42107 -2.73564 0
M  V30 5039 C 488.64 4.58006 -2.06243 0
M  V30 5040 C 490.634 4.99169 -3.9637 0
M  V30 5041 C 488.321 5.1478 -3.2931 0
M  V30 5042 C 489.319 5.35304 -4.24191 0
M  V30 5043 O 489.007 5.90878 -5.45086 0
M  V30 5044 H 488.739 0.655631 -0.164695 0
M  V30 5045 H 491.293 1.73246 -1.1034 0
M  V30 5046 H 489.523 3.85372 0.320175 0
M  V30 5047 H 491.212 4.05875 -0.0450875 0
M  V30 5048 H 491.978 4.13953 -2.52721 0
M  V30 5049 H 487.857 4.41339 -1.33196 0
M  V30 5050 H 491.401 5.15105 -4.70439 0
M  V30 5051 H 487.298 5.42362 -3.5002 0
M  V30 5052 H 488.066 6.0932 -5.46508 0
M  V30 5053 N 490.729 0.570148 1.46925 0
M  V30 5054 C 491.957 0.0561966 2.06824 0
M  V30 5055 C 492.372 -1.24326 1.42086 0
M  V30 5056 O 491.729 -1.74882 0.521794 0
M  V30 5057 C 491.78 -0.129517 3.61268 0
M  V30 5058 O 491.501 1.1185 4.23581 0
M  V30 5059 C 493.002 -0.679266 4.38065 0
M  V30 5060 H 490.222 0.0517261 0.669003 0
M  V30 5061 H 492.766 0.787243 1.8874 0
M  V30 5062 H 490.921 -0.810739 3.78822 0
M  V30 5063 H 491.335 0.924375 5.1629 0
M  V30 5064 H 492.809 -0.758445 5.46765 0
M  V30 5065 H 493.286 -1.69346 4.05239 0
M  V30 5066 H 493.892 -0.0333237 4.25287 0
M  V30 5067 N 492.207 -1.54576 0.307264 0
M  V30 5068 C 493.137 -2.26708 -0.55907 0
M  V30 5069 C 494.118 -1.26893 -1.1328 0
M  V30 5070 O 495.303 -1.55677 -1.16097 0
M  V30 5071 C 492.433 -3.01259 -1.72801 0
M  V30 5072 C 491.387 -4.08275 -1.28435 0
M  V30 5073 C 490.713 -4.70575 -2.53895 0
M  V30 5074 C 492.013 -5.2068 -0.411038 0
M  V30 5075 H 493.707 -2.9937 0.042576 0
M  V30 5076 H 491.253 -1.43983 0.0219173 0
M  V30 5077 H 493.206 -3.50444 -2.34023 0
M  V30 5078 H 491.93 -2.26187 -2.356 0
M  V30 5079 H 490.589 -3.59949 -0.695161 0
M  V30 5080 H 490.237 -3.92136 -3.15021 0
M  V30 5081 H 489.937 -5.42854 -2.24908 0
M  V30 5082 H 491.461 -5.22527 -3.15908 0
M  V30 5083 H 492.875 -5.65721 -0.929097 0
M  V30 5084 H 491.272 -5.99716 -0.214664 0
M  V30 5085 H 492.342 -4.81629 0.562287 0
M  V30 5086 N 493.685 -0.035106 -1.57561 0
M  V30 5087 C 494.913 0.652258 -1.9635 0
M  V30 5088 C 495.328 1.65317 -0.911897 0
M  V30 5089 O 494.685 1.82194 0.105657 0
M  V30 5090 C 494.736 1.35337 -3.35211 0
M  V30 5091 O 494.457 0.392548 -4.36338 0
M  V30 5092 C 495.958 2.13199 -3.88666 0
M  V30 5093 H 493.178 0.179444 -0.646561 0
M  V30 5094 H 495.722 -0.0966459 -2.04271 0
M  V30 5095 H 493.877 2.05362 -3.28489 0
M  V30 5096 H 494.291 0.891097 -5.16875 0
M  V30 5097 H 495.765 2.577 -4.88154 0
M  V30 5098 H 496.242 2.97353 -3.23231 0
M  V30 5099 H 496.848 1.48118 -3.98674 0
M  V30 5100 N 495.163 1.55791 0.238111 0
M  V30 5101 C 496.412 1.77234 0.962868 0
M  V30 5102 C 496.725 0.600661 1.86149 0
M  V30 5103 O 497.931 0.698315 2.62366 0
M  V30 5104 C 496.387 3.13808 1.76218 0
M  V30 5105 C 495.995 4.3865 0.910518 0
M  V30 5106 C 497.739 3.44585 2.47914 0
M  V30 5107 C 495.646 5.66252 1.70623 0
M  V30 5108 H 494.576 0.660731 0.36325 0
M  V30 5109 H 497.227 1.8221 0.217242 0
M  V30 5110 H 495.609 3.02963 2.55009 0
M  V30 5111 H 496.783 4.60507 0.164316 0
M  V30 5112 H 495.098 4.15271 0.30647 0
M  V30 5113 H 497.695 4.3714 3.07917 0
M  V30 5114 H 498.038 2.66314 3.19973 0
M  V30 5115 H 498.571 3.56685 1.76127 0
M  V30 5116 H 495.31 6.47369 1.02923 0
M  V30 5117 H 494.83 5.48483 2.42748 0
M  V30 5118 H 496.509 6.05829 2.27114 0
M  V30 5119 N 496.642 -0.504142 1.49319 0
M  V30 5120 C 498.058 -0.835039 1.36012 0
M  V30 5121 C 498.258 -1.97674 0.390808 0
M  V30 5122 O 497.314 -2.51867 -0.178655 0
M  V30 5123 C 498.627 -1.17821 2.76656 0
M  V30 5124 C 500.175 -1.2866 2.85334 0
M  V30 5125 C 500.65 -1.66307 4.26739 0
M  V30 5126 N 502.141 -1.73362 4.29534 0
M  V30 5127 C 502.876 -2.0393 5.35911 0
M  V30 5128 N 502.372 -2.32744 6.52535 0
M  V30 5129 N 504.165 -2.05155 5.23324 0
M  V30 5130 H 496.316 0.248764 2.10938 0
M  V30 5131 H 498.579 0.0486962 0.946748 0
M  V30 5132 H 498.285 -0.412682 3.4927 0
M  V30 5133 H 498.159 -2.12239 3.11825 0
M  V30 5134 H 500.546 -2.04285 2.1296 0
M  V30 5135 H 500.627 -0.323004 2.53752 0
M  V30 5136 H 500.271 -0.91234 4.99639 0
M  V30 5137 H 500.201 -2.63761 4.55782 0
M  V30 5138 H 502.692 -1.53268 3.45424 0
M  V30 5139 H 503.005 -2.55248 7.2943 0
M  V30 5140 H 501.35 -2.30207 6.55767 0
M  V30 5141 H 504.541 -1.82119 4.3122 0
M  V30 5142 H 504.714 -2.28644 6.06322 0
M  V30 5143 N 498.12 -1.38341 -0.754957 0
M  V30 5144 C 499.03 -1.3769 -1.89944 0
M  V30 5145 C 500.046 -0.274194 -1.71826 0
M  V30 5146 O 501.222 -0.512391 -1.94773 0
M  V30 5147 C 498.287 -1.19938 -3.25293 0
M  V30 5148 C 497.348 -2.40001 -3.55946 0
M  V30 5149 C 496.581 -2.23087 -4.84838 0
M  V30 5150 O 496.804 -1.22386 -5.57116 0
M  V30 5151 O 495.738 -3.11646 -5.14937 0
M  V30 5152 H 499.564 -2.3412 -1.93446 0
M  V30 5153 H 497.149 -1.19246 -0.900044 0
M  V30 5154 H 499.031 -1.12093 -4.06218 0
M  V30 5155 H 497.706 -0.265919 -3.22606 0
M  V30 5156 H 496.613 -2.53421 -2.75188 0
M  V30 5157 H 497.946 -3.31973 -3.63394 0
M  V30 5158 N 499.598 0.982988 -1.23187 0
M  V30 5159 C 500.561 2.05649 -1.01198 0
M  V30 5160 C 501.561 1.6078 0.0252464 0
M  V30 5161 O 502.751 1.72878 -0.214243 0
M  V30 5162 C 499.883 3.36744 -0.530656 0
M  V30 5163 H 501.076 2.2659 -1.96461 0
M  V30 5164 H 498.629 1.15602 -1.05195 0
M  V30 5165 H 499.364 3.21492 0.425873 0
M  V30 5166 H 499.149 3.7065 -1.2791 0
M  V30 5167 H 500.639 4.15705 -0.397366 0
M  V30 5168 N 501.076 1.04316 1.18135 0
M  V30 5169 C 502.324 0.746542 1.87806 0
M  V30 5170 C 502.645 -0.728082 1.80898 0
M  V30 5171 O 501.915 -1.52554 1.22899 0
M  V30 5172 H 500.495 0.273157 0.695265 0
M  V30 5173 H 503.157 1.32044 1.43354 0
M  V30 5174 H 502.253 1.05362 2.93778 0
M  V30 5175 N 502.554 -1.34406 0.822964 0
M  V30 5176 C 503.486 -2.28305 0.202375 0
M  V30 5177 C 504.499 -1.5103 -0.60777 0
M  V30 5178 O 505.688 -1.73057 -0.437444 0
M  V30 5179 C 502.788 -3.30836 -0.734911 0
M  V30 5180 C 501.961 -4.37388 0.0324177 0
M  V30 5181 C 501.02 -5.1968 -0.825803 0
M  V30 5182 O 500.046 -5.68556 -0.270771 0
M  V30 5183 N 501.248 -5.39393 -2.14558 0
M  V30 5184 H 504.013 -2.82201 1.00909 0
M  V30 5185 H 501.574 -1.4693 0.67993 0
M  V30 5186 H 503.566 -3.82786 -1.31365 0
M  V30 5187 H 502.136 -2.77334 -1.44238 0
M  V30 5188 H 501.356 -3.86152 0.792469 0
M  V30 5189 H 502.644 -5.05702 0.560633 0
M  V30 5190 H 502.042 -5.01357 -2.62025 0
M  V30 5191 H 500.599 -5.94461 -2.67318 0
M  V30 5192 N 504.032 -0.577932 -1.46621 0
M  V30 5193 C 504.979 0.158048 -2.30258 0
M  V30 5194 C 505.949 0.888669 -1.40328 0
M  V30 5195 O 507.134 0.880283 -1.6928 0
M  V30 5196 C 504.274 1.16884 -3.24703 0
M  V30 5197 C 503.387 0.442163 -4.29731 0
M  V30 5198 C 502.522 1.44007 -5.11308 0
M  V30 5199 C 501.561 0.69952 -6.0809 0
M  V30 5200 N 500.698 1.64525 -6.82551 0
M  V30 5201 H 505.538 -0.561242 -2.92667 0
M  V30 5202 H 503.075 -0.288591 -1.44241 0
M  V30 5203 H 505.033 1.7677 -3.779 0
M  V30 5204 H 503.663 1.85591 -2.64113 0
M  V30 5205 H 502.715 -0.271632 -3.79429 0
M  V30 5206 H 504.027 -0.136992 -4.98612 0
M  V30 5207 H 503.181 2.11186 -5.68758 0
M  V30 5208 H 501.92 2.05315 -4.42377 0
M  V30 5209 H 500.925 0.0139217 -5.49798 0
M  V30 5210 H 502.15 0.091894 -6.79038 0
M  V30 5211 H 500.096 2.24653 -6.16334 0
M  V30 5212 H 500.013 1.11878 -7.47676 0
M  V30 5213 H 501.281 2.30754 -7.44562 0
M  V30 5214 N 505.51 1.54411 -0.315457 0
M  V30 5215 C 506.738 2.04833 0.291738 0
M  V30 5216 C 507.153 1.19203 1.46411 0
M  V30 5217 O 506.51 0.220867 1.81159 0
M  V30 5218 C 506.561 3.53969 0.73404 0
M  V30 5219 O 506.282 4.36346 -0.391682 0
M  V30 5220 C 507.783 4.2045 1.40489 0
M  V30 5221 H 505.003 0.668195 0.0612947 0
M  V30 5222 H 507.547 1.99276 -0.45929 0
M  V30 5223 H 505.702 3.5984 1.43506 0
M  V30 5224 H 506.116 5.24481 -0.0447088 0
M  V30 5225 H 507.59 5.26278 1.66539 0
M  V30 5226 H 508.067 3.71067 2.3496 0
M  V30 5227 H 508.673 4.18694 0.746662 0
M  V30 5228 N 506.988 0.0434614 1.5754 0
M  V30 5229 C 508.237 -0.631454 1.91561 0
M  V30 5230 C 508.55 -1.72457 0.92292 0
M  V30 5231 O 509.756 -2.45712 1.15489 0
M  V30 5232 C 508.212 -1.17447 3.40197 0
M  V30 5233 C 507.82 -0.113867 4.47855 0
M  V30 5234 C 509.564 -1.82507 3.83264 0
M  V30 5235 C 507.471 -0.669326 5.876 0
M  V30 5236 H 506.401 -0.239629 0.714908 0
M  V30 5237 H 509.052 0.111097 1.83163 0
M  V30 5238 H 507.434 -1.96909 3.43574 0
M  V30 5239 H 508.608 0.659348 4.56058 0
M  V30 5240 H 506.923 0.438821 4.14081 0
M  V30 5241 H 509.52 -2.25047 4.85034 0
M  V30 5242 H 509.863 -2.67365 3.19095 0
M  V30 5243 H 510.396 -1.09712 3.82372 0
M  V30 5244 H 507.135 0.141449 6.55347 0
M  V30 5245 H 506.655 -1.4107 5.82974 0
M  V30 5246 H 508.334 -1.15463 6.36614 0
M  V30 5247 N 508.466 -1.55915 -0.229846 0
M  V30 5248 C 509.691 -1.8296 -0.976743 0
M  V30 5249 C 510.116 -0.622735 -1.77493 0
M  V30 5250 O 509.474 0.428431 -1.76165 0
M  V30 5251 C 509.522 -3.07916 -1.8767 0
M  V30 5252 O 508.626 -2.86028 -2.97088 0
M  V30 5253 H 507.967 -0.603453 -0.277021 0
M  V30 5254 H 510.497 -2.0312 -0.245669 0
M  V30 5255 H 510.507 -3.37802 -2.2881 0
M  V30 5256 H 509.182 -3.95389 -1.28996 0
M  V30 5257 H 507.759 -2.67355 -2.59954 0
M  V30 5258 N 509.944 0.496216 -1.49584 0
M  V30 5259 C 511.19 1.25189 -1.59548 0
M  V30 5260 C 511.523 1.9212 -0.283466 0
M  V30 5261 O 510.798 1.80947 0.713324 0
M  V30 5262 C 511.081 2.31516 -2.75812 0
M  V30 5263 C 510.934 1.69054 -4.16822 0
M  V30 5264 C 512.253 3.3304 -2.87702 0
M  V30 5265 H 509.372 0.45379 -0.580727 0
M  V30 5266 H 512.014 0.549327 -1.81886 0
M  V30 5267 H 510.164 2.91438 -2.56897 0
M  V30 5268 H 511.836 1.12923 -4.47265 0
M  V30 5269 H 510.079 0.994485 -4.22247 0
M  V30 5270 H 510.75 2.462 -4.94054 0
M  V30 5271 H 513.226 2.83114 -3.04936 0
M  V30 5272 H 512.102 4.04794 -3.7072 0
M  V30 5273 H 512.363 3.95655 -1.97255 0
M  V30 5274 N 511.423 1.38739 0.74761 0
M  V30 5275 C 512.834 1.31507 1.32524 0
M  V30 5276 C 513.185 -0.0263963 1.96182 0
M  V30 5277 O 512.31 -0.92849 1.95469 0
M  V30 5278 C 512.905 2.38162 2.40966 0
M  V30 5279 C 511.464 2.34489 2.94434 0
M  V30 5280 C 510.611 2.20712 1.67873 0
M  V30 5281 H 513.562 1.4901 0.546043 0
M  V30 5282 H 513.583 2.04222 3.21051 0
M  V30 5283 H 513.095 3.35783 1.94605 0
M  V30 5284 H 511.196 1.40467 3.45108 0
M  V30 5285 H 511.309 3.28861 3.48407 0
M  V30 5286 H 509.673 1.67667 1.91729 0
M  V30 5287 H 510.456 3.20285 1.23582 0
M  V30 5288 N 512.901 -0.976442 1.23707 0
M  V30 5289 C 514.147 -1.72081 1.07312 0
M  V30 5290 C 514.48 -1.90275 -0.388476 0
M  V30 5291 O 513.755 -1.4579 -1.28746 0
M  V30 5292 C 514.038 -3.11675 1.80363 0
M  V30 5293 C 513.891 -3.01027 3.3422 0
M  V30 5294 C 515.21 -4.1117 1.5693 0
M  V30 5295 H 512.329 -0.624583 0.391236 0
M  V30 5296 H 514.971 -1.13649 1.52263 0
M  V30 5297 H 513.121 -3.61559 1.42153 0
M  V30 5298 H 514.793 -2.58637 3.81975 0
M  V30 5299 H 513.036 -2.3744 3.63049 0
M  V30 5300 H 513.707 -3.9988 3.80525 0
M  V30 5301 H 516.183 -3.7011 1.90151 0
M  V30 5302 H 515.059 -5.06928 2.10513 0
M  V30 5303 H 515.32 -4.392 0.505548 0
M  V30 5304 N 514.379 -1.04941 -1.1758 0
M  V30 5305 C 515.625 -0.759112 -1.88057 0
M  V30 5306 C 515.958 0.711918 -1.8068 0
M  V30 5307 O 515.233 1.52035 -1.21308 0
M  V30 5308 C 515.516 -1.237 -3.38187 0
M  V30 5309 C 515.369 -2.77078 -3.54327 0
M  V30 5310 C 516.688 -0.834014 -4.32125 0
M  V30 5311 H 513.807 -0.277237 -0.682868 0
M  V30 5312 H 516.449 -1.30296 -1.38286 0
M  V30 5313 H 514.599 -0.774337 -3.80705 0
M  V30 5314 H 516.271 -3.31449 -3.20842 0
M  V30 5315 H 514.514 -3.16477 -2.96689 0
M  V30 5316 H 515.185 -3.05577 -4.59703 0
M  V30 5317 H 517.661 -1.23228 -3.97434 0
M  V30 5318 H 516.537 -1.19603 -5.35711 0
M  V30 5319 H 516.798 0.262195 -4.41322 0
M  V30 5320 N 515.857 1.33968 -0.830081 0
M  V30 5321 C 516.807 2.26845 -0.229242 0
M  V30 5322 C 517.791 1.48862 0.610659 0
M  V30 5323 O 518.983 1.70808 0.464067 0
M  V30 5324 C 516.112 3.3798 0.602057 0
M  V30 5325 C 515.198 4.23369 -0.248866 0
M  V30 5326 N 515.589 4.88182 -1.32334 0
M  V30 5327 C 513.887 4.45987 -0.0344077 0
M  V30 5328 C 514.588 5.51671 -1.84482 0
M  V30 5329 N 513.564 5.31348 -1.14762 0
M  V30 5330 H 517.366 2.74464 -1.05104 0
M  V30 5331 H 514.88 1.4777 -0.673623 0
M  V30 5332 H 516.877 4.03494 1.04873 0
M  V30 5333 H 515.537 2.9191 1.42193 0
M  V30 5334 H 516.548 4.88988 -1.70619 0
M  V30 5335 H 513.225 4.10658 0.752727 0
M  V30 5336 H 514.615 6.13308 -2.74413 0
M  V30 5337 N 517.335 0.585699 1.46312 0
M  V30 5338 C 518.581 0.0725284 2.0267 0
M  V30 5339 C 518.914 -1.28523 1.45586 0
M  V30 5340 O 518.189 -1.84283 0.622101 0
M  V30 5341 C 518.472 0.0099788 3.60099 0
M  V30 5342 C 518.325 1.39685 4.27561 0
M  V30 5343 C 519.644 -0.689117 4.34671 0
M  V30 5344 H 516.763 0.0278307 0.736474 0
M  V30 5345 H 519.405 0.753472 1.74421 0
M  V30 5346 H 517.555 -0.56992 3.84297 0
M  V30 5347 H 519.227 2.02215 4.14617 0
M  V30 5348 H 517.47 1.96374 3.86807 0
M  V30 5349 H 518.141 1.30553 5.36339 0
M  V30 5350 H 520.617 -0.196446 4.15636 0
M  V30 5351 H 519.493 -0.701921 5.44393 0
M  V30 5352 H 519.754 -1.75101 4.05946 0
M  V30 5353 N 518.813 -1.54241 0.323641 0
M  V30 5354 C 520.061 -2.00174 -0.278359 0
M  V30 5355 C 520.382 -1.2134 -1.52648 0
M  V30 5356 O 519.652 -0.315244 -1.93347 0
M  V30 5357 H 518.232 -0.739463 -0.105845 0
M  V30 5358 H 520.894 -1.89864 0.440204 0
M  V30 5359 H 519.99 -3.07486 -0.5347 0
M  V30 5360 N 520.291 -0.0518155 -1.57515 0
M  V30 5361 C 521.239 0.940195 -2.12751 0
M  V30 5362 C 522.233 1.3218 -1.05948 0
M  V30 5363 O 523.439 1.30138 -1.24355 0
M  V30 5364 H 519.814 0.321066 -0.680015 0
M  V30 5365 H 521.785 0.449217 -2.94999 0
M  V30 5366 C 520.534 2.2055 -2.68799 0
M  V30 5367 H 519.857 1.92066 -3.50643 0
M  V30 5368 H 521.297 2.88119 -3.11068 0
M  V30 5369 C 519.756 2.95061 -1.62605 0
M  V30 5370 O 520.286 3.88025 -1.03921 0
M  V30 5371 N 518.492 2.57804 -1.34111 0
M  V30 5372 H 518.039 1.82281 -1.8202 0
M  V30 5373 H 517.997 3.07964 -0.632872 0
M  V30 5374 N 521.769 1.56035 0.221574 0
M  V30 5375 C 523.015 1.80221 0.942973 0
M  V30 5376 C 523.37 0.624799 1.81973 0
M  V30 5377 O 522.663 -0.381145 1.87771 0
M  V30 5378 C 522.857 3.07813 1.8162 0
M  V30 5379 C 522.686 4.37852 1.02548 0
M  V30 5380 C 521.456 5.00138 0.720418 0
M  V30 5381 C 523.654 5.12813 0.390799 0
M  V30 5382 N 521.636 6.13831 -0.0917139 0
M  V30 5383 C 523.007 6.19346 -0.284728 0
M  V30 5384 C 525.062 4.96972 0.303828 0
M  V30 5385 C 523.765 7.11758 -1.03891 0
M  V30 5386 C 525.791 5.89784 -0.436883 0
M  V30 5387 C 525.153 6.95743 -1.10095 0
M  V30 5388 H 521.252 0.711117 0.325325 0
M  V30 5389 H 523.836 1.93522 0.213854 0
M  V30 5390 H 522.007 2.95795 2.51714 0
M  V30 5391 H 523.739 3.20191 2.47508 0
M  V30 5392 H 520.494 4.62075 1.03843 0
M  V30 5393 H 520.918 6.75249 -0.486615 0
M  V30 5394 H 525.56 4.15107 0.802896 0
M  V30 5395 H 523.278 7.93105 -1.54949 0
M  V30 5396 H 526.864 5.79603 -0.505181 0
M  V30 5397 H 525.744 7.66322 -1.66495 0
M  V30 5398 N 523.247 -0.488276 1.49845 0
M  V30 5399 C 524.658 -1.06955 1.53028 0
M  V30 5400 C 525.009 -1.9351 0.323797 0
M  V30 5401 O 524.134 -2.08891 -0.565116 0
M  V30 5402 C 524.729 -1.94643 2.77307 0
M  V30 5403 C 523.288 -2.4791 2.83227 0
M  V30 5404 C 522.435 -1.25833 2.47106 0
M  V30 5405 H 525.386 -0.271626 1.56358 0
M  V30 5406 H 525.407 -2.79496 2.5819 0
M  V30 5407 H 524.919 -1.31621 3.65099 0
M  V30 5408 H 523.02 -3.14535 1.99745 0
M  V30 5409 H 523.133 -2.84193 3.85709 0
M  V30 5410 H 521.497 -1.58764 1.99163 0
M  V30 5411 H 522.28 -0.644993 3.37186 0
M  V30 5412 N 524.725 -1.39134 -0.740242 0
M  V30 5413 C 526.002 -1.26584 -1.49117 0
M  V30 5414 C 526.382 0.126902 -2.10718 0
M  V30 5415 O 525.73 1.13765 -1.98166 0
M  V30 5416 C 525.94 -2.38619 -2.54681 0
M  V30 5417 C 527.288 -2.77685 -3.21211 0
M  V30 5418 O 528.312 -2.38029 -2.64991 0
M  V30 5419 O 527.171 -3.46115 -4.22926 0
M  V30 5420 H 524.265 -0.495769 -0.661923 0
M  V30 5421 H 526.811 -1.50995 -0.774514 0
M  V30 5422 H 525.583 -3.3175 -2.07504 0
M  V30 5423 H 525.206 -2.15845 -3.33911 0
M  V30 5424 N 526.204 0.969867 -1.24223 0
M  V30 5425 C 527.136 2.0669 -0.99055 0
M  V30 5426 C 528.149 1.62753 0.0392222 0
M  V30 5427 O 529.338 1.77403 -0.197561 0
M  V30 5428 C 526.438 3.35589 -0.472594 0
M  V30 5429 C 525.611 4.08444 -1.56499 0
M  V30 5430 C 524.67 5.15616 -1.05007 0
M  V30 5431 O 523.696 5.41911 -1.7413 0
M  V30 5432 N 524.898 5.80383 0.116641 0
M  V30 5433 H 527.663 2.28855 -1.93508 0
M  V30 5434 H 525.224 1.13733 -1.15223 0
M  V30 5435 H 527.216 4.04542 -0.112919 0
M  V30 5436 H 525.786 3.10311 0.377617 0
M  V30 5437 H 525.006 3.33798 -2.09696 0
M  V30 5438 H 526.294 4.53882 -2.29932 0
M  V30 5439 H 525.692 5.6142 0.694589 0
M  V30 5440 H 524.249 6.50462 0.417483 0
M  V30 5441 N 527.682 1.05563 1.17022 0
M  V30 5442 C 528.91 0.78845 1.91288 0
M  V30 5443 C 529.325 -0.656318 1.77025 0
M  V30 5444 O 528.682 -1.44869 1.10992 0
M  V30 5445 C 528.733 1.16444 3.42232 0
M  V30 5446 O 528.454 2.5525 3.5606 0
M  V30 5447 C 529.955 0.923937 4.33565 0
M  V30 5448 H 527.175 0.286389 0.606813 0
M  V30 5449 H 529.719 1.4073 1.48375 0
M  V30 5450 H 527.874 0.590266 3.82877 0
M  V30 5451 H 528.288 2.70097 4.49609 0
M  V30 5452 H 529.762 1.23672 5.37968 0
M  V30 5453 H 530.239 -0.140688 4.38975 0
M  V30 5454 H 530.845 1.48214 3.98639 0
M  V30 5455 N 529.16 -1.33526 0.837174 0
M  V30 5456 C 530.123 -2.27551 0.274421 0
M  V30 5457 C 531.123 -1.50886 -0.555881 0
M  V30 5458 O 532.313 -1.70227 -0.369918 0
M  V30 5459 C 529.445 -3.35332 -0.613605 0
M  V30 5460 H 530.638 -2.78837 1.10408 0
M  V30 5461 H 528.191 -1.439 0.610126 0
M  V30 5462 H 528.926 -2.89285 -1.46577 0
M  V30 5463 H 528.711 -3.92095 -0.0195341 0
M  V30 5464 H 530.201 -4.05433 -1.00068 0
M  V30 5465 N 530.638 -0.59345 -1.46 0
M  V30 5466 C 531.884 -0.0832754 -2.02629 0
M  V30 5467 C 532.217 1.27749 -1.46266 0
M  V30 5468 O 531.492 1.8395 -0.631866 0
M  V30 5469 C 531.775 -0.0290756 -3.60088 0
M  V30 5470 C 531.628 -1.41951 -4.26814 0
M  V30 5471 C 532.947 0.666055 -4.35031 0
M  V30 5472 H 530.066 -0.031736 -0.736316 0
M  V30 5473 H 532.708 -0.762711 -1.74019 0
M  V30 5474 H 530.858 0.549532 -3.84594 0
M  V30 5475 H 532.53 -2.04411 -4.13538 0
M  V30 5476 H 530.773 -1.98422 -3.8576 0
M  V30 5477 H 531.444 -1.33395 -5.3564 0
M  V30 5478 H 533.92 0.174401 -4.15734 0
M  V30 5479 H 532.796 0.673041 -5.44758 0
M  V30 5480 H 533.057 1.72946 -4.06869 0
M  V30 5481 N 532.116 1.54067 -0.331816 0
M  V30 5482 C 533.341 2.05599 0.272705 0
M  V30 5483 C 533.766 1.2059 1.44359 0
M  V30 5484 O 533.124 0.216907 1.79998 0
M  V30 5485 C 533.172 3.54188 0.677021 0
M  V30 5486 O 532.276 3.72082 1.77844 0
M  V30 5487 H 531.617 0.662286 0.0476801 0
M  V30 5488 H 534.147 1.98826 -0.482624 0
M  V30 5489 H 534.157 3.96608 0.957415 0
M  V30 5490 H 532.832 4.15513 -0.179325 0
M  V30 5491 H 531.409 3.41566 1.49622 0
M  V30 5492 N 533.594 0.0601682 1.57485 0
M  V30 5493 C 534.819 -0.624416 1.97777 0
M  V30 5494 C 535.244 -1.63051 0.937867 0
M  V30 5495 O 534.602 -1.81036 -0.0978845 0
M  V30 5496 C 534.65 -1.27979 3.37126 0
M  V30 5497 O 533.754 -2.39556 3.35688 0
M  V30 5498 H 533.095 -0.161581 0.64404 0
M  V30 5499 H 535.625 0.131237 2.04179 0
M  V30 5500 H 535.635 -1.62937 3.74053 0
M  V30 5501 H 534.31 -0.542501 4.12347 0
M  V30 5502 H 532.887 -2.06478 3.10517 0
M  V30 5503 N 535.072 -1.5615 -0.213296 0
M  V30 5504 C 535.982 -1.96265 -1.28519 0
M  V30 5505 C 536.998 -0.86765 -1.50824 0
M  V30 5506 O 538.174 -1.17191 -1.63793 0
M  V30 5507 C 535.239 -2.27836 -2.61327 0
M  V30 5508 C 534.3 -3.50949 -2.47252 0
M  V30 5509 C 533.533 -3.81004 -3.73727 0
M  V30 5510 O 533.756 -3.12612 -4.77106 0
M  V30 5511 O 532.69 -4.74477 -3.70344 0
M  V30 5512 H 536.516 -2.87631 -0.974795 0
M  V30 5513 H 534.101 -1.43467 -0.416832 0
M  V30 5514 H 535.983 -2.49299 -3.39747 0
M  V30 5515 H 534.658 -1.39643 -2.9203 0
M  V30 5516 H 533.565 -3.34754 -1.67004 0
M  V30 5517 H 534.898 -4.39551 -2.21486 0
M  V30 5518 N 536.55 0.480323 -1.50102 0
M  V30 5519 C 537.796 1.23489 -1.60867 0
M  V30 5520 C 538.129 1.91809 -0.303827 0
M  V30 5521 O 537.404 1.81694 0.694092 0
M  V30 5522 C 537.687 2.28578 -2.78252 0
M  V30 5523 C 537.54 1.64624 -4.18592 0
M  V30 5524 C 538.859 3.2997 -2.91218 0
M  V30 5525 H 535.978 0.447605 -0.585507 0
M  V30 5526 H 538.62 0.530005 -1.82458 0
M  V30 5527 H 536.77 2.88697 -2.59974 0
M  V30 5528 H 538.442 1.08173 -4.48438 0
M  V30 5529 H 536.685 0.949645 -4.23278 0
M  V30 5530 H 537.356 2.40946 -4.96638 0
M  V30 5531 H 539.832 2.79864 -3.07921 0
M  V30 5532 H 538.708 4.00839 -3.74993 0
M  V30 5533 H 538.969 3.93541 -2.0144 0
M  V30 5534 N 538.028 1.39524 0.732853 0
M  V30 5535 C 539.256 1.40143 1.52209 0
M  V30 5536 C 539.671 -0.00348836 1.888 0
M  V30 5537 O 539.028 -0.975357 1.5425 0
M  V30 5538 C 539.079 2.27632 2.8083 0
M  V30 5539 O 538.8 3.62654 2.45792 0
M  V30 5540 C 540.301 2.36658 3.74844 0
M  V30 5541 H 537.521 0.478604 0.470297 0
M  V30 5542 H 540.065 1.83366 0.905388 0
M  V30 5543 H 538.22 1.87818 3.38826 0
M  V30 5544 H 538.634 4.08941 3.28431 0
M  V30 5545 H 540.108 3.02118 4.61984 0
M  V30 5546 H 540.585 1.38638 4.16745 0
M  V30 5547 H 541.191 2.76951 3.22766 0
M  V30 5548 N 539.506 -0.963266 1.24736 0
M  V30 5549 C 540.453 -2.05857 1.04363 0
M  V30 5550 C 541.423 -1.6604 -0.0444951 0
M  V30 5551 O 542.608 -1.90477 0.110999 0
M  V30 5552 C 539.748 -3.38745 0.659235 0
M  V30 5553 C 538.861 -3.9173 1.82131 0
M  V30 5554 C 537.996 -5.12906 1.38208 0
M  V30 5555 C 537.035 -5.58098 2.51382 0
M  V30 5556 N 536.172 -6.7049 2.08295 0
M  V30 5557 H 541.012 -2.22616 1.98107 0
M  V30 5558 H 538.549 -1.09103 0.986661 0
M  V30 5559 H 540.507 -4.15107 0.417371 0
M  V30 5560 H 539.137 -3.21898 -0.241201 0
M  V30 5561 H 538.189 -3.11966 2.17672 0
M  V30 5562 H 539.501 -4.21225 2.67153 0
M  V30 5563 H 538.655 -5.96657 1.09935 0
M  V30 5564 H 537.394 -4.85105 0.502456 0
M  V30 5565 H 536.399 -4.72917 2.80409 0
M  V30 5566 H 537.624 -5.87911 3.39909 0
M  V30 5567 H 535.57 -6.44416 1.22737 0
M  V30 5568 H 535.487 -6.99458 2.86869 0
M  V30 5569 H 536.755 -7.57672 1.83175 0
M  V30 5570 N 540.985 -1.06182 -1.16461 0
M  V30 5571 C 541.948 -0.675723 -2.19013 0
M  V30 5572 C 542.948 0.277963 -1.58379 0
M  V30 5573 O 544.138 0.0604962 -1.74095 0
M  V30 5574 C 541.27 0.00591459 -3.40899 0
M  V30 5575 H 542.463 -1.58353 -2.54685 0
M  V30 5576 H 540.016 -0.856908 -1.30716 0
M  V30 5577 H 540.751 0.92652 -3.10783 0
M  V30 5578 H 540.536 -0.67984 -3.86161 0
M  V30 5579 H 542.026 0.26181 -4.16778 0
M  V30 5580 N 542.463 1.3308 -0.844243 0
M  V30 5581 C 543.393 2.3161 -0.296493 0
M  V30 5582 C 544.374 1.59215 0.598707 0
M  V30 5583 O 545.559 1.87077 0.521134 0
M  V30 5584 C 542.689 3.43313 0.524762 0
M  V30 5585 C 541.643 4.27115 -0.275106 0
M  V30 5586 C 540.969 5.30483 0.670236 0
M  V30 5587 C 542.269 5.00443 -1.49514 0
M  V30 5588 H 543.963 2.77672 -1.11976 0
M  V30 5589 H 541.509 1.33496 -0.539899 0
M  V30 5590 H 543.462 4.11273 0.918298 0
M  V30 5591 H 542.186 2.95952 1.3813 0
M  V30 5592 H 540.845 3.60787 -0.650267 0
M  V30 5593 H 540.493 4.79379 1.52332 0
M  V30 5594 H 540.193 5.87435 0.139123 0
M  V30 5595 H 541.717 6.01308 1.06117 0
M  V30 5596 H 543.131 5.61141 -1.17447 0
M  V30 5597 H 541.528 5.67071 -1.96343 0
M  V30 5598 H 542.598 4.28906 -2.26202 0
M  V30 5599 N 543.941 0.601185 1.45683 0
M  V30 5600 C 544.904 -0.111398 2.28929 0
M  V30 5601 C 545.904 -0.801246 1.39416 0
M  V30 5602 O 547.094 -0.650383 1.61603 0
M  V30 5603 C 544.226 -1.16773 3.20276 0
M  V30 5604 H 545.419 0.620412 2.93413 0
M  V30 5605 H 542.972 0.359946 1.52099 0
M  V30 5606 H 543.707 -1.93051 2.60579 0
M  V30 5607 H 543.492 -0.677358 3.86205 0
M  V30 5608 H 544.982 -1.66698 3.82886 0
M  V30 5609 N 545.419 -1.53889 0.339982 0
M  V30 5610 C 546.644 -2.05741 -0.261798 0
M  V30 5611 C 547.069 -1.21354 -1.43718 0
M  V30 5612 O 546.427 -0.22645 -1.7988 0
M  V30 5613 C 546.475 -3.54542 -0.658228 0
M  V30 5614 O 545.579 -3.7302 -1.75869 0
M  V30 5615 H 544.92 -0.662529 -0.0441672 0
M  V30 5616 H 547.45 -1.98568 0.493161 0
M  V30 5617 H 547.46 -3.9711 -0.936368 0
M  V30 5618 H 546.135 -4.15412 0.201358 0
M  V30 5619 H 544.712 -3.42355 -1.47809 0
M  V30 5620 N 546.897 -0.0685191 -1.57451 0
M  V30 5621 C 547.827 0.89747 -2.15564 0
M  V30 5622 C 548.808 1.31266 -1.08181 0
M  V30 5623 O 549.993 1.38429 -1.36202 0
M  V30 5624 C 547.123 2.16623 -2.71463 0
M  V30 5625 C 546.077 1.89054 -3.83982 0
M  V30 5626 C 545.403 3.22532 -4.26471 0
M  V30 5627 C 546.703 1.1984 -5.08366 0
M  V30 5628 H 548.397 0.413373 -2.96533 0
M  V30 5629 H 545.943 0.197391 -1.42641 0
M  V30 5630 H 547.896 2.84614 -3.10761 0
M  V30 5631 H 546.62 2.67269 -1.8771 0
M  V30 5632 H 545.279 1.23469 -3.45183 0
M  V30 5633 H 544.927 3.71013 -3.39644 0
M  V30 5634 H 544.627 3.04879 -5.02317 0
M  V30 5635 H 546.151 3.91727 -4.68383 0
M  V30 5636 H 547.565 1.77896 -5.45001 0
M  V30 5637 H 545.962 1.12456 -5.89469 0
M  V30 5638 H 547.032 0.176996 -4.84577 0
M  V30 5639 N 548.375 1.56261 0.205012 0
M  V30 5640 C 549.621 1.80306 0.9283 0
M  V30 5641 C 549.954 0.640932 1.83319 0
M  V30 5642 O 549.229 -0.359032 1.91158 0
M  V30 5643 C 549.512 3.14547 1.75306 0
M  V30 5644 C 549.365 4.41236 0.873562 0
M  V30 5645 C 550.684 3.45382 2.72762 0
M  V30 5646 H 547.803 0.655929 0.336044 0
M  V30 5647 H 550.445 1.88984 0.196211 0
M  V30 5648 H 548.595 3.0728 2.37721 0
M  V30 5649 H 550.267 4.60539 0.264887 0
M  V30 5650 H 548.51 4.33427 0.179773 0
M  V30 5651 H 549.181 5.31639 1.48541 0
M  V30 5652 H 551.657 3.52884 2.20481 0
M  V30 5653 H 550.533 4.40449 3.2756 0
M  V30 5654 H 550.794 2.68377 3.51321 0
M  V30 5655 N 549.853 -0.472356 1.50355 0
M  V30 5656 C 551.13 -1.23356 1.51798 0
M  V30 5657 C 551.51 -2.09469 0.26193 0
M  V30 5658 O 550.858 -2.15677 -0.754691 0
M  V30 5659 C 551.068 -2.06568 2.81302 0
M  V30 5660 C 552.416 -2.648 3.31913 0
M  V30 5661 O 553.44 -2.16812 2.82614 0
M  V30 5662 O 552.299 -3.52231 4.17846 0
M  V30 5663 H 549.393 -0.559707 0.608816 0
M  V30 5664 H 551.939 -0.48428 1.62643 0
M  V30 5665 H 550.711 -1.43103 3.64194 0
M  V30 5666 H 550.334 -2.88633 2.73454 0
M  V30 5667 N 551.331 -1.39911 -0.725443 0
M  V30 5668 C 552.263 -1.35301 -1.85003 0
M  V30 5669 C 553.276 -0.260102 -1.60709 0
M  V30 5670 O 554.465 -0.519749 -1.70766 0
M  V30 5671 C 551.565 -1.08039 -3.21218 0
M  V30 5672 C 550.738 -2.28793 -3.7279 0
M  V30 5673 C 549.797 -1.97841 -4.87591 0
M  V30 5674 O 548.823 -2.70616 -5.00755 0
M  V30 5675 N 550.025 -0.950367 -5.72668 0
M  V30 5676 H 552.79 -2.32218 -1.89459 0
M  V30 5677 H 550.351 -1.34137 -0.90658 0
M  V30 5678 H 552.343 -0.853354 -3.95601 0
M  V30 5679 H 550.913 -0.198229 -3.11971 0
M  V30 5680 H 550.133 -2.67388 -2.8965 0
M  V30 5681 H 551.421 -3.09317 -4.03981 0
M  V30 5682 H 550.819 -0.347436 -5.64632 0
M  V30 5683 H 549.376 -0.783232 -6.47077 0
M  V30 5684 N 552.809 0.956637 -1.25245 0
M  V30 5685 C 554.037 1.73571 -1.12608 0
M  V30 5686 C 554.452 1.86063 0.320324 0
M  V30 5687 O 553.809 1.35691 1.22042 0
M  V30 5688 C 553.86 3.15053 -1.77268 0
M  V30 5689 O 553.581 3.03174 -3.16255 0
M  V30 5690 C 555.082 4.09248 -1.70386 0
M  V30 5691 H 552.302 0.543955 -0.392879 0
M  V30 5692 H 554.846 1.20031 -1.65568 0
M  V30 5693 H 553.001 3.65543 -1.28284 0
M  V30 5694 H 553.415 3.9241 -3.48015 0
M  V30 5695 H 554.889 5.06138 -2.20291 0
M  V30 5696 H 555.366 4.34102 -0.667239 0
M  V30 5697 H 555.972 3.64672 -2.18849 0
M  V30 5698 N 554.287 1.06798 1.15896 0
M  V30 5699 C 555.25 0.687328 2.18651 0
M  V30 5700 C 556.25 -0.269559 1.58524 0
M  V30 5701 O 557.44 -0.0512627 1.74125 0
M  V30 5702 C 554.572 0.0121642 3.40898 0
M  V30 5703 H 555.765 1.59701 2.53842 0
M  V30 5704 H 553.318 0.863828 1.3026 0
M  V30 5705 H 554.053 -0.910025 3.1127 0
M  V30 5706 H 553.838 0.700309 3.85795 0
M  V30 5707 H 555.328 -0.239703 4.16911 0
M  V30 5708 N 555.766 -1.3263 0.851289 0
M  V30 5709 C 556.676 -2.32722 0.296268 0
M  V30 5710 C 557.692 -1.63901 -0.584162 0
M  V30 5711 O 558.868 -1.95465 -0.485334 0
M  V30 5712 C 555.933 -3.42942 -0.509103 0
M  V30 5713 C 554.994 -4.2746 0.397069 0
M  V30 5714 C 554.227 -5.32416 -0.36996 0
M  V30 5715 O 554.45 -5.47491 -1.6003 0
M  V30 5716 O 553.384 -6.01327 0.262493 0
M  V30 5717 H 557.21 -2.82078 1.12543 0
M  V30 5718 H 554.795 -1.36194 0.614135 0
M  V30 5719 H 556.677 -4.1017 -0.96634 0
M  V30 5720 H 555.352 -2.95781 -1.31512 0
M  V30 5721 H 554.259 -3.63053 0.902411 0
M  V30 5722 H 555.592 -4.78136 1.16818 0
M  V30 5723 N 557.244 -0.608902 -1.45362 0
M  V30 5724 C 558.472 -0.111013 -2.06602 0
M  V30 5725 C 558.887 1.20516 -1.45332 0
M  V30 5726 O 558.244 1.73437 -0.567978 0
M  V30 5727 C 558.295 0.033688 -3.61484 0
M  V30 5728 O 558.016 -1.23041 -4.20467 0
M  V30 5729 C 559.517 0.562882 -4.39712 0
M  V30 5730 H 556.737 -0.0694453 -0.667397 0
M  V30 5731 H 559.281 -0.837008 -1.86586 0
M  V30 5732 H 557.436 0.710016 -3.80838 0
M  V30 5733 H 557.85 -1.06094 -5.13658 0
M  V30 5734 H 559.324 0.613213 -5.48583 0
M  V30 5735 H 559.801 1.58543 -4.09586 0
M  V30 5736 H 560.407 -0.0794454 -4.25226 0
M  V30 5737 N 558.722 1.53707 -0.348139 0
M  V30 5738 C 559.669 2.25173 0.506518 0
M  V30 5739 C 560.639 1.25174 1.09182 0
M  V30 5740 O 561.824 1.53917 1.12757 0
M  V30 5741 C 558.964 3.03141 1.64923 0
M  V30 5742 C 558.077 4.18002 1.0908 0
M  V30 5743 C 557.212 4.83447 2.20119 0
M  V30 5744 C 556.251 5.90369 1.61651 0
M  V30 5745 N 555.388 6.49575 2.66451 0
M  V30 5746 H 560.228 2.97799 -0.109452 0
M  V30 5747 H 557.765 1.46953 -0.0657866 0
M  V30 5748 H 559.723 3.46607 2.32205 0
M  V30 5749 H 558.353 2.32803 2.23612 0
M  V30 5750 H 557.405 3.79145 0.308783 0
M  V30 5751 H 558.717 4.94892 0.623178 0
M  V30 5752 H 557.871 5.30008 2.95257 0
M  V30 5753 H 556.61 4.05991 2.70227 0
M  V30 5754 H 555.615 5.43186 0.850209 0
M  V30 5755 H 556.84 6.69735 1.1239 0
M  V30 5756 H 554.786 5.74981 3.15805 0
M  V30 5757 H 554.703 7.21952 2.24325 0
M  V30 5758 H 555.971 7.00789 3.41344 0
M  V30 5759 N 560.2 0.0768682 1.57412 0
M  V30 5760 C 561.616 -0.279772 1.57129 0
M  V30 5761 C 561.816 -1.69688 1.08666 0
M  V30 5762 O 560.872 -2.40953 0.754843 0
M  V30 5763 C 562.185 -0.0848055 3.0058 0
M  V30 5764 C 563.733 -0.153954 3.12621 0
M  V30 5765 C 564.208 0.0127946 4.57998 0
M  V30 5766 N 565.699 -0.0426435 4.6318 0
M  V30 5767 C 566.434 0.0618892 5.73367 0
M  V30 5768 N 565.93 0.220229 6.9245 0
M  V30 5769 N 567.723 0.00446072 5.621 0
M  V30 5770 H 559.874 1.00297 1.87228 0
M  V30 5771 H 562.137 0.391565 0.863354 0
M  V30 5772 H 561.843 0.89325 3.40168 0
M  V30 5773 H 561.717 -0.834961 3.67843 0
M  V30 5774 H 564.104 -1.1225 2.72917 0
M  V30 5775 H 564.185 0.627389 2.47987 0
M  V30 5776 H 563.829 0.978128 4.98392 0
M  V30 5777 H 563.759 -0.788016 5.20671 0
M  V30 5778 H 566.25 -0.163226 3.77547 0
M  V30 5779 H 566.563 0.291999 7.72248 0
M  V30 5780 H 564.908 0.255658 6.9453 0
M  V30 5781 H 568.099 -0.117979 4.67951 0
M  V30 5782 H 568.272 0.0893796 6.47938 0
M  V30 5783 N 561.678 -1.56367 -0.196722 0
M  V30 5784 C 562.626 -1.95304 -1.2633 0
M  V30 5785 C 563.62 -0.838252 -1.47206 0
M  V30 5786 O 564.826 -1.02325 -1.48087 0
M  V30 5787 H 561.201 -0.621013 -0.424083 0
M  V30 5788 H 563.172 -2.84254 -0.907879 0
M  V30 5789 C 561.921 -2.3074 -2.60104 0
M  V30 5790 H 561.244 -3.16047 -2.44856 0
M  V30 5791 H 562.684 -2.61849 -3.33484 0
M  V30 5792 C 561.143 -1.14143 -3.16975 0
M  V30 5793 O 561.673 -0.415602 -3.99544 0
M  V30 5794 N 559.879 -0.91867 -2.75697 0
M  V30 5795 H 559.426 -1.51065 -2.08656 0
M  V30 5796 H 559.384 -0.140321 -3.14087 0
M  V30 5797 N 563.156 0.464375 -1.50603 0
M  V30 5798 C 564.089 1.58052 -1.64605 0
M  V30 5799 C 565.067 1.54914 -0.494016 0
M  V30 5800 O 566.251 1.74438 -0.714393 0
M  V30 5801 C 563.378 2.96634 -1.63481 0
M  V30 5802 C 562.424 3.17901 -2.84325 0
M  V30 5803 S 563.257 2.97083 -4.45536 0
M  V30 5804 C 564.413 4.37994 -4.47115 0
M  V30 5805 H 564.646 1.45937 -2.59017 0
M  V30 5806 H 562.179 0.652189 -1.39949 0
M  V30 5807 H 564.137 3.76527 -1.63517 0
M  V30 5808 H 562.798 3.06134 -0.702928 0
M  V30 5809 H 561.991 4.19158 -2.79862 0
M  V30 5810 H 561.593 2.45792 -2.81891 0
M  V30 5811 H 563.885 5.30743 -4.21091 0
M  V30 5812 H 564.828 4.47499 -5.48772 0
M  V30 5813 H 565.236 4.20386 -3.76743 0
M  V30 5814 N 564.634 1.40294 0.718013 0
M  V30 5815 C 565.864 1.41544 1.50495 0
M  V30 5816 C 566.272 0.0127877 1.89196 0
M  V30 5817 O 565.615 -0.97305 1.55812 0
M  V30 5818 C 565.677 2.24021 2.81167 0
M  V30 5819 C 565.341 3.72463 2.64803 0
M  V30 5820 C 566.338 4.65154 2.32223 0
M  V30 5821 C 564.023 4.1625 2.81143 0
M  V30 5822 C 566.017 5.99618 2.16189 0
M  V30 5823 C 563.704 5.50784 2.64727 0
M  V30 5824 C 564.702 6.42283 2.32297 0
M  V30 5825 O 564.39 7.74337 2.16004 0
M  V30 5826 H 564.122 0.484819 0.471091 0
M  V30 5827 H 566.676 1.84948 0.893488 0
M  V30 5828 H 564.906 1.75393 3.44636 0
M  V30 5829 H 566.595 2.17243 3.42871 0
M  V30 5830 H 567.361 4.32622 2.19234 0
M  V30 5831 H 563.24 3.45352 3.05373 0
M  V30 5832 H 566.784 6.71 1.90799 0
M  V30 5833 H 562.681 5.82902 2.773 0
M  V30 5834 H 563.449 7.85244 2.30942 0
M  V30 5835 N 566.112 -0.949982 1.2575 0
M  V30 5836 C 567.022 -2.08109 1.08295 0
M  V30 5837 C 568.038 -1.7399 0.0188181 0
M  V30 5838 O 569.214 -2.00187 0.220724 0
M  V30 5839 C 566.279 -3.39383 0.708534 0
M  V30 5840 C 565.34 -3.8734 1.85111 0
M  V30 5841 C 564.573 -5.12349 1.49447 0
M  V30 5842 O 564.796 -5.6905 0.392212 0
M  V30 5843 O 563.73 -5.5513 2.32624 0
M  V30 5844 H 567.556 -2.25738 2.03165 0
M  V30 5845 H 565.141 -1.06545 1.04731 0
M  V30 5846 H 567.023 -4.18277 0.512061 0
M  V30 5847 H 565.698 -3.23013 -0.210854 0
M  V30 5848 H 564.605 -3.09429 2.10248 0
M  V30 5849 H 565.938 -4.08216 2.74991 0
M  V30 5850 N 567.59 -1.07411 -1.15328 0
M  V30 5851 C 568.815 -0.818856 -1.90551 0
M  V30 5852 C 569.24 0.622194 -1.77512 0
M  V30 5853 O 568.598 1.43484 -1.10824 0
M  V30 5854 C 568.646 -1.23267 -3.38877 0
M  V30 5855 O 567.75 -0.378345 -4.10661 0
M  V30 5856 H 567.091 -0.29827 -0.593238 0
M  V30 5857 H 569.621 -1.43289 -1.46046 0
M  V30 5858 H 569.631 -1.20912 -3.89672 0
M  V30 5859 H 568.306 -2.28226 -3.47686 0
M  V30 5860 H 566.883 -0.464437 -3.69996 0
M  V30 5861 N 569.068 1.32177 -0.85831 0
M  V30 5862 C 570.015 2.28794 -0.303607 0
M  V30 5863 C 570.985 1.55213 0.591453 0
M  V30 5864 O 572.17 1.83418 0.525585 0
M  V30 5865 C 569.31 3.41475 0.49889 0
M  V30 5866 C 568.423 4.2993 -0.422373 0
M  V30 5867 C 567.558 5.29743 0.393111 0
M  V30 5868 C 566.597 6.09842 -0.525317 0
M  V30 5869 N 565.734 7.01643 0.253208 0
M  V30 5870 H 570.574 2.75631 -1.13276 0
M  V30 5871 H 568.111 1.35606 -0.570026 0
M  V30 5872 H 570.069 4.05531 0.979826 0
M  V30 5873 H 568.699 2.95779 1.29284 0
M  V30 5874 H 567.751 3.66422 -1.02171 0
M  V30 5875 H 569.063 4.85899 -1.12709 0
M  V30 5876 H 568.217 5.9942 0.937056 0
M  V30 5877 H 566.956 4.744 1.13117 0
M  V30 5878 H 565.961 5.39066 -1.08112 0
M  V30 5879 H 567.186 6.6727 -1.26205 0
M  V30 5880 H 565.132 6.48725 0.974295 0
M  V30 5881 H 565.049 7.54981 -0.392398 0
M  V30 5882 H 566.317 7.756 0.778761 0
M  V30 5883 N 570.547 0.616602 1.45037 0
M  V30 5884 C 571.795 0.115103 2.01772 0
M  V30 5885 C 572.116 -1.2622 1.48639 0
M  V30 5886 O 571.386 -1.83563 0.684199 0
M  V30 5887 H 569.966 0.0395607 0.745952 0
M  V30 5888 H 572.628 0.800032 1.77723 0
M  V30 5889 H 571.724 0.0717274 3.12018 0
M  V30 5890 N 572.025 -1.5352 0.356285 0
M  V30 5891 C 573.25 -2.06007 -0.239961 0
M  V30 5892 C 573.675 -1.22872 -1.42422 0
M  V30 5893 O 573.033 -0.245516 -1.7963 0
M  V30 5894 C 573.081 -3.5522 -0.620587 0
M  V30 5895 O 572.185 -3.74864 -1.71902 0
M  V30 5896 H 571.526 -0.662961 -0.0371377 0
M  V30 5897 H 574.056 -1.98033 0.514194 0
M  V30 5898 H 574.066 -3.98081 -0.894197 0
M  V30 5899 H 572.741 -4.15175 0.245407 0
M  V30 5900 H 571.318 -3.43904 -1.44169 0
M  V30 5901 N 573.503 -0.0852151 -1.57369 0
M  V30 5902 C 574.728 0.592872 -1.98746 0
M  V30 5903 C 575.153 1.61538 -0.963689 0
M  V30 5904 O 574.511 1.81168 0.069071 0
M  V30 5905 C 574.559 1.22599 -3.39119 0
M  V30 5906 O 573.663 2.34185 -3.39457 0
M  V30 5907 H 573.004 0.151314 -0.646529 0
M  V30 5908 H 575.534 -0.163703 -2.03944 0
M  V30 5909 H 575.544 1.56965 -3.76598 0
M  V30 5910 H 574.219 0.476831 -4.13158 0
M  V30 5911 H 572.796 2.01512 -3.13763 0
M  V30 5912 N 574.981 1.5647 0.188427 0
M  V30 5913 C 575.944 1.9421 1.21718 0
M  V30 5914 C 576.944 0.823901 1.38089 0
M  V30 5915 O 578.134 1.09122 1.35787 0
M  V30 5916 C 575.266 2.22197 2.58537 0
M  V30 5917 H 576.459 2.86252 0.894418 0
M  V30 5918 H 574.012 1.50263 0.430211 0
M  V30 5919 H 574.747 1.32814 2.95856 0
M  V30 5920 H 574.532 3.03688 2.48025 0
M  V30 5921 H 576.022 2.52376 3.3271 0
M  V30 5922 N 576.459 -0.456382 1.50847 0
M  V30 5923 C 577.705 -1.20914 1.62811 0
M  V30 5924 C 578.038 -1.91301 0.334304 0
M  V30 5925 O 577.313 -1.82775 -0.665098 0
M  V30 5926 C 577.596 -2.24122 2.81853 0
M  V30 5927 C 577.449 -1.57944 4.21158 0
M  V30 5928 C 578.768 -3.25295 2.96431 0
M  V30 5929 H 575.887 -0.438233 0.592554 0
M  V30 5930 H 578.529 -0.50091 1.83278 0
M  V30 5931 H 576.679 -2.84524 2.64534 0
M  V30 5932 H 578.351 -1.01025 4.50102 0
M  V30 5933 H 576.594 -0.882185 4.24735 0
M  V30 5934 H 577.265 -2.33014 5.00408 0
M  V30 5935 H 579.741 -2.7493 3.12335 0
M  V30 5936 H 578.617 -3.94822 3.81322 0
M  V30 5937 H 578.878 -3.90286 2.07676 0
M  V30 5938 N 577.937 -1.40673 -0.710563 0
M  V30 5939 C 578.9 -1.4108 -1.80635 0
M  V30 5940 C 579.9 -0.303783 -1.57904 0
M  V30 5941 O 581.09 -0.562937 -1.64853 0
M  V30 5942 C 578.222 -1.20748 -3.18799 0
M  V30 5943 H 579.415 -2.38612 -1.81671 0
M  V30 5944 H 576.968 -1.26595 -0.916704 0
M  V30 5945 H 577.703 -0.239964 -3.23411 0
M  V30 5946 H 577.488 -2.00941 -3.36698 0
M  V30 5947 H 578.978 -1.23833 -3.98817 0
M  V30 5948 N 579.415 0.9433 -1.26252 0
M  V30 5949 C 580.692 1.66639 -1.02424 0
M  V30 5950 C 581.072 2.06335 0.446006 0
M  V30 5951 O 580.42 1.78551 1.42589 0
M  V30 5952 C 580.63 2.88019 -1.97094 0
M  V30 5953 C 581.978 3.59718 -2.25584 0
M  V30 5954 O 583.002 2.9812 -1.94943 0
M  V30 5955 O 581.861 4.7066 -2.77743 0
M  V30 5956 H 578.955 0.729643 -0.389294 0
M  V30 5957 H 581.501 0.995218 -1.37454 0
M  V30 5958 H 580.273 2.5556 -2.96319 0
M  V30 5959 H 579.896 3.62863 -1.62532 0
M  V30 5960 N 580.893 1.08022 1.14757 0
M  V30 5961 C 582.17 0.720386 1.81851 0
M  V30 5962 C 582.55 -0.796375 1.95502 0
M  V30 5963 O 581.898 -1.71339 1.51179 0
M  V30 5964 C 582.108 1.44273 3.17783 0
M  V30 5965 C 583.456 1.59925 3.93331 0
M  V30 5966 O 584.48 1.40407 3.2736 0
M  V30 5967 O 583.339 1.92096 5.11626 0
M  V30 5968 H 580.433 0.257142 0.786007 0
M  V30 5969 H 582.979 1.18155 1.21809 0
M  V30 5970 H 581.751 2.47618 3.02987 0
M  V30 5971 H 581.374 0.97279 3.85516 0
M  V30 5972 N 582.371 -1.3172 0.865308 0
M  V30 5973 C 583.596 -2.01591 0.487415 0
M  V30 5974 C 584.021 -1.6455 -0.911307 0
M  V30 5975 O 583.379 -0.851689 -1.6005 0
M  V30 5976 C 583.427 -3.54759 0.646401 0
M  V30 5977 O 582.531 -4.11185 -0.316284 0
M  V30 5978 H 581.872 -0.634884 0.194468 0
M  V30 5979 H 584.402 -1.68024 1.16744 0
M  V30 5980 H 584.412 -4.04438 0.537932 0
M  V30 5981 H 583.087 -3.8106 1.66632 0
M  V30 5982 H 581.664 -3.72543 -0.163162 0
M  V30 5983 N 583.85 -0.624285 -1.44708 0
M  V30 5984 C 584.797 0.0847135 -2.30644 0
M  V30 5985 C 585.767 0.843575 -1.43084 0
M  V30 5986 O 586.952 0.825982 -1.71995 0
M  V30 5987 C 584.091 1.06495 -3.28257 0
M  V30 5988 C 583.205 0.305224 -4.3092 0
M  V30 5989 C 582.34 1.27667 -5.1563 0
M  V30 5990 C 581.379 0.505706 -6.10007 0
M  V30 5991 N 580.516 1.42727 -6.8744 0
M  V30 5992 H 585.356 -0.654068 -2.90733 0
M  V30 5993 H 582.893 -0.334334 -1.4325 0
M  V30 5994 H 584.851 1.64658 -3.83332 0
M  V30 5995 H 583.481 1.77094 -2.69884 0
M  V30 5996 H 582.533 -0.392207 -3.78373 0
M  V30 5997 H 583.845 -0.295553 -4.97924 0
M  V30 5998 H 582.999 1.92984 -5.75189 0
M  V30 5999 H 581.738 1.91137 -4.48685 0
M  V30 6000 H 580.743 -0.160999 -5.49564 0
M  V30 6001 H 581.968 -0.124183 -6.78986 0
M  V30 6002 H 579.913 2.04931 -6.23169 0
M  V30 6003 H 579.831 0.880345 -7.50857 0
M  V30 6004 H 581.099 2.0695 -7.51526 0
M  V30 6005 N 585.328 1.53329 -0.364422 0
M  V30 6006 C 586.258 2.28627 0.474543 0
M  V30 6007 C 587.239 1.31009 1.08492 0
M  V30 6008 O 588.424 1.59878 1.10239 0
M  V30 6009 C 585.554 3.07465 1.61501 0
M  V30 6010 C 584.508 4.1276 1.13194 0
M  V30 6011 C 583.834 4.79674 2.36255 0
M  V30 6012 C 585.134 5.21847 0.217507 0
M  V30 6013 H 586.828 2.99005 -0.153656 0
M  V30 6014 H 584.374 1.43803 -0.0753406 0
M  V30 6015 H 586.327 3.58889 2.20855 0
M  V30 6016 H 585.051 2.34775 2.27042 0
M  V30 6017 H 583.71 3.62281 0.56109 0
M  V30 6018 H 583.358 4.03557 3.00251 0
M  V30 6019 H 583.058 5.50827 2.04606 0
M  V30 6020 H 584.582 5.33892 2.96297 0
M  V30 6021 H 585.996 5.6878 0.718493 0
M  V30 6022 H 584.393 6.00099 -0.00806408 0
M  V30 6023 H 585.463 4.7921 -0.740653 0
M  V30 6024 N 586.806 0.0935595 1.57322 0
M  V30 6025 C 588.222 -0.263091 1.57417 0
M  V30 6026 C 588.422 -1.68526 1.1046 0
M  V30 6027 O 587.478 -2.40139 0.780357 0
M  V30 6028 C 588.791 -0.0529201 3.00653 0
M  V30 6029 C 590.339 -0.120788 3.12767 0
M  V30 6030 C 590.814 0.0613707 4.57959 0
M  V30 6031 N 592.305 0.00648534 4.632 0
M  V30 6032 C 593.04 0.122699 5.73269 0
M  V30 6033 N 592.536 0.29366 6.92177 0
M  V30 6034 N 594.329 0.0640787 5.62063 0
M  V30 6035 H 586.48 1.02277 1.86154 0
M  V30 6036 H 588.743 0.4007 0.859153 0
M  V30 6037 H 588.449 0.929279 3.39201 0
M  V30 6038 H 588.323 -0.795899 3.68708 0
M  V30 6039 H 590.71 -1.09349 2.74093 0
M  V30 6040 H 590.791 0.653656 2.47307 0
M  V30 6041 H 590.435 1.03093 4.97327 0
M  V30 6042 H 590.365 -0.732748 5.21477 0
M  V30 6043 H 592.856 -0.123173 3.77699 0
M  V30 6044 H 593.169 0.37389 7.71895 0
M  V30 6045 H 591.514 0.329307 6.94219 0
M  V30 6046 H 594.705 -0.0683396 4.6805 0
M  V30 6047 H 594.878 0.158097 6.47807 0
M  V30 6048 N 588.284 -1.56567 -0.180126 0
M  V30 6049 C 589.695 -1.7126 -0.743422 0
M  V30 6050 C 590.046 -0.70263 -1.83187 0
M  V30 6051 O 589.171 0.137856 -2.1596 0
M  V30 6052 C 589.766 -3.10512 -1.35528 0
M  V30 6053 C 588.325 -3.26919 -1.8655 0
M  V30 6054 C 587.472 -2.67213 -0.741099 0
M  V30 6055 H 590.423 -1.58636 0.0451543 0
M  V30 6056 H 590.444 -3.08673 -2.22489 0
M  V30 6057 H 589.956 -3.83997 -0.562862 0
M  V30 6058 H 588.057 -2.58376 -2.68464 0
M  V30 6059 H 588.17 -4.34574 -2.01699 0
M  V30 6060 H 586.534 -2.26788 -1.15927 0
M  V30 6061 H 587.317 -3.43277 0.0393291 0
M  V30 6062 N 589.762 0.448376 -1.51087 0
M  V30 6063 C 591.008 1.20049 -1.6345 0
M  V30 6064 C 591.341 1.91121 -0.344444 0
M  V30 6065 O 590.616 1.83125 0.655396 0
M  V30 6066 C 590.899 2.22624 -2.83038 0
M  V30 6067 C 590.752 1.55708 -4.21989 0
M  V30 6068 C 592.071 3.23718 -2.98152 0
M  V30 6069 H 589.19 0.435085 -0.59487 0
M  V30 6070 H 591.832 0.491183 -1.83541 0
M  V30 6071 H 589.982 2.83117 -2.66039 0
M  V30 6072 H 591.654 0.986367 -4.50631 0
M  V30 6073 H 589.897 0.859647 -4.25197 0
M  V30 6074 H 590.568 2.30357 -5.01637 0
M  V30 6075 H 593.044 2.73269 -3.13788 0
M  V30 6076 H 591.92 3.92795 -3.83411 0
M  V30 6077 H 592.181 3.89179 -2.09743 0
M  V30 6078 N 591.24 1.41047 0.703093 0
M  V30 6079 C 592.489 1.39301 1.4587 0
M  V30 6080 C 592.802 0.00267077 1.956 0
M  V30 6081 O 594.008 -0.137414 2.71152 0
M  V30 6082 C 592.464 2.44891 2.63735 0
M  V30 6083 C 592.072 3.89796 2.20824 0
M  V30 6084 C 593.816 2.5227 3.41409 0
M  V30 6085 C 591.723 4.86955 3.35602 0
M  V30 6086 H 590.653 0.518005 0.547893 0
M  V30 6087 H 593.304 1.66839 0.764009 0
M  V30 6088 H 591.686 2.10472 3.35436 0
M  V30 6089 H 592.86 4.33424 1.56461 0
M  V30 6090 H 591.175 3.86008 1.56163 0
M  V30 6091 H 593.772 3.22044 4.26839 0
M  V30 6092 H 594.115 1.55714 3.86081 0
M  V30 6093 H 594.648 2.85742 2.7676 0
M  V30 6094 H 591.387 5.84888 2.9595 0
M  V30 6095 H 590.907 4.47982 3.98839 0
M  V30 6096 H 592.586 5.07361 4.01489 0
M  V30 6097 N 592.718 -0.936591 1.26751 0
M  V30 6098 C 593.668 -2.0219 1.05371 0
M  V30 6099 C 594.652 -1.60893 -0.0154112 0
M  V30 6100 O 595.844 -1.75843 0.202085 0
M  V30 6101 C 592.973 -3.36222 0.693541 0
M  V30 6102 C 592.059 -3.8399 1.80035 0
M  V30 6103 N 592.45 -4.0436 3.03852 0
M  V30 6104 C 590.748 -4.12945 1.685 0
M  V30 6105 C 591.449 -4.44 3.75818 0
M  V30 6106 N 590.425 -4.50966 3.03531 0
M  V30 6107 H 594.227 -2.15958 1.99347 0
M  V30 6108 H 591.741 -1.12277 1.17335 0
M  V30 6109 H 593.738 -4.13625 0.521513 0
M  V30 6110 H 592.398 -3.23821 -0.238693 0
M  V30 6111 H 593.409 -3.9092 3.39709 0
M  V30 6112 H 590.086 -4.09308 0.822986 0
M  V30 6113 H 591.476 -4.67914 4.82189 0
M  V30 6114 N 594.196 -1.08629 -1.14182 0
M  V30 6115 C 595.436 -0.826884 -1.86928 0
M  V30 6116 C 595.8 0.635808 -1.81167 0
M  V30 6117 O 597.001 1.0108 -2.49071 0
M  V30 6118 C 595.272 -1.33721 -3.31442 0
M  V30 6119 S 596.831 -1.21045 -4.21774 0
M  V30 6120 H 593.649 -0.299286 -0.644941 0
M  V30 6121 H 596.251 -1.38802 -1.37674 0
M  V30 6122 H 594.955 -2.39617 -3.33184 0
M  V30 6123 H 594.486 -0.771839 -3.85754 0
M  V30 6124 H 596.501 -0.156168 -4.95954 0
M  V30 6125 N 595.674 1.31259 -0.872281 0
M  V30 6126 C 597.09 1.49283 -0.564521 0
M  V30 6127 C 597.29 1.80243 0.900807 0
M  V30 6128 O 596.346 1.88246 1.68284 0
M  V30 6129 C 597.659 2.62503 -1.46673 0
M  V30 6130 C 599.207 2.76386 -1.46901 0
M  V30 6131 C 599.682 3.92705 -2.35684 0
M  V30 6132 N 601.173 3.99995 -2.33577 0
M  V30 6133 C 601.908 4.89276 -2.98992 0
M  V30 6134 N 601.404 5.83443 -3.73585 0
M  V30 6135 N 603.197 4.82541 -2.88289 0
M  V30 6136 H 595.348 1.09432 -1.82039 0
M  V30 6137 H 597.611 0.540949 -0.77851 0
M  V30 6138 H 597.317 2.46407 -2.50951 0
M  V30 6139 H 597.191 3.58695 -1.16696 0
M  V30 6140 H 599.578 2.91894 -0.433796 0
M  V30 6141 H 599.659 1.80853 -1.80903 0
M  V30 6142 H 599.303 3.77954 -3.39283 0
M  V30 6143 H 599.233 4.87549 -1.99006 0
M  V30 6144 H 601.724 3.32624 -1.7936 0
M  V30 6145 H 602.037 6.48303 -4.20622 0
M  V30 6146 H 600.382 5.83415 -3.77694 0
M  V30 6147 H 603.573 4.07951 -2.2955 0
M  V30 6148 H 603.746 5.51916 -3.39549 0
M  V30 6149 N 597.152 0.631951 1.44375 0
M  V30 6150 C 598.115 -0.0628142 2.29114 0
M  V30 6151 C 599.115 -0.771494 1.41084 0
M  V30 6152 O 600.305 -0.615959 1.62947 0
M  V30 6153 C 597.437 -1.09953 3.22681 0
M  V30 6154 H 598.63 0.682509 2.92031 0
M  V30 6155 H 596.183 0.392128 1.51301 0
M  V30 6156 H 596.918 -1.87481 2.64616 0
M  V30 6157 H 596.703 -0.595286 3.87555 0
M  V30 6158 H 598.193 -1.58538 3.86336 0
M  V30 6159 N 598.631 -1.53133 0.372548 0
M  V30 6160 C 599.879 -2.00958 -0.214534 0
M  V30 6161 C 600.2 -1.26135 -1.48711 0
M  V30 6162 O 599.47 -0.376597 -1.92246 0
M  V30 6163 H 598.05 -0.742456 -0.0822664 0
M  V30 6164 H 600.712 -1.88367 0.500385 0
M  V30 6165 H 599.808 -3.09031 -0.436605 0
M  V30 6166 N 600.109 -0.101901 -1.5727 0
M  V30 6167 C 601.355 0.561027 -1.94885 0
M  V30 6168 C 601.688 1.6741 -0.984258 0
M  V30 6169 O 600.963 1.94491 -0.0184767 0
M  V30 6170 C 601.246 1.10982 -3.42571 0
M  V30 6171 C 601.099 0.00133418 -4.498 0
M  V30 6172 C 602.418 2.00608 -3.9172 0
M  V30 6173 H 599.537 0.202467 -0.708644 0
M  V30 6174 H 602.179 -0.173992 -1.89202 0
M  V30 6175 H 600.329 1.73621 -3.47546 0
M  V30 6176 H 602.001 -0.63322 -4.56933 0
M  V30 6177 H 600.244 -0.664143 -4.28686 0
M  V30 6178 H 600.915 0.426253 -5.50352 0
M  V30 6179 H 603.391 1.47864 -3.88941 0
M  V30 6180 H 602.267 2.3593 -4.95609 0
M  V30 6181 H 602.528 2.92608 -3.3141 0
M  V30 6182 N 601.587 1.56661 0.17182 0
M  V30 6183 C 602.835 1.81606 0.886774 0
M  V30 6184 C 603.156 0.678818 1.82803 0
M  V30 6185 O 602.426 -0.301354 1.93568 0
M  V30 6186 H 601.006 0.669934 0.330451 0
M  V30 6187 H 603.668 1.94142 0.171757 0
M  V30 6188 H 602.764 2.75634 1.46398 0
M  V30 6189 N 603.065 -0.440357 1.51323 0
M  V30 6190 C 604.481 -0.7766 1.39431 0
M  V30 6191 C 604.681 -1.95838 0.474296 0
M  V30 6192 O 603.737 -2.52398 -0.0716692 0
M  V30 6193 C 605.05 -1.05981 2.81405 0
M  V30 6194 C 606.598 -1.16442 2.90534 0
M  V30 6195 C 607.073 -1.48058 4.33408 0
M  V30 6196 N 608.564 -1.54988 4.36501 0
M  V30 6197 C 609.299 -1.81017 5.44078 0
M  V30 6198 N 608.795 -2.04858 6.61819 0
M  V30 6199 N 610.588 -1.82774 5.31554 0
M  V30 6200 H 602.739 0.338006 2.09693 0
M  V30 6201 H 605.002 0.0888072 0.943831 0
M  V30 6202 H 604.708 -0.264173 3.50706 0
M  V30 6203 H 604.582 -1.98822 3.20546 0
M  V30 6204 H 606.969 -1.95068 2.21432 0
M  V30 6205 H 607.05 -0.215088 2.54894 0
M  V30 6206 H 606.694 -0.699605 5.03059 0
M  V30 6207 H 606.624 -2.44192 4.66559 0
M  V30 6208 H 609.115 -1.38479 3.51613 0
M  V30 6209 H 609.428 -2.2408 7.396 0
M  V30 6210 H 607.773 -2.02187 6.6494 0
M  V30 6211 H 610.964 -1.63665 4.38556 0
M  V30 6212 H 611.137 -2.02722 6.15474 0
M  V30 6213 N 604.543 -1.41418 -0.695603 0
M  V30 6214 C 605.771 -1.4413 -1.48439 0
M  V30 6215 C 606.186 -0.0465698 -1.88743 0
M  V30 6216 O 605.543 0.934117 -1.56782 0
M  V30 6217 C 605.594 -2.34998 -2.74696 0
M  V30 6218 O 605.315 -3.69043 -2.36091 0
M  V30 6219 C 606.816 -2.46513 -3.68438 0
M  V30 6220 H 604.036 -0.490905 -0.457442 0
M  V30 6221 H 606.58 -1.85702 -0.856454 0
M  V30 6222 H 604.735 -1.96735 -3.33728 0
M  V30 6223 H 605.149 -4.17505 -3.17474 0
M  V30 6224 H 606.623 -3.1426 -4.53811 0
M  V30 6225 H 607.1 -1.49638 -4.12922 0
M  V30 6226 H 607.706 -2.85412 -3.1531 0
M  V30 6227 N 606.021 0.929856 -1.27246 0
M  V30 6228 C 606.984 2.01172 -1.09829 0
M  V30 6229 C 607.984 1.60743 -0.0429687 0
M  V30 6230 O 609.174 1.71813 -0.287373 0
M  V30 6231 C 606.306 3.34191 -0.673003 0
M  V30 6232 H 607.499 2.18054 -2.05895 0
M  V30 6233 H 605.052 1.11036 -1.10003 0
M  V30 6234 H 605.787 3.23009 0.289134 0
M  V30 6235 H 605.572 3.64892 -1.43515 0
M  V30 6236 H 607.062 4.13646 -0.573323 0
M  V30 6237 N 607.499 1.09233 1.13605 0
M  V30 6238 C 608.431 0.687794 2.18637 0
M  V30 6239 C 609.444 -0.26936 1.60556 0
M  V30 6240 O 610.633 -0.0557162 1.78413 0
M  V30 6241 C 607.733 -0.00751901 3.38899 0
M  V30 6242 C 606.906 0.97067 4.26494 0
M  V30 6243 C 605.965 0.309129 5.25291 0
M  V30 6244 O 604.991 0.956149 5.61112 0
M  V30 6245 N 606.193 -0.937555 5.72879 0
M  V30 6246 H 608.958 1.59141 2.53957 0
M  V30 6247 H 606.519 0.979515 1.28907 0
M  V30 6248 H 608.511 -0.461238 4.02063 0
M  V30 6249 H 607.081 -0.813353 3.01833 0
M  V30 6250 H 606.301 1.603 3.60135 0
M  V30 6251 H 607.589 1.63323 4.81875 0
M  V30 6252 H 606.987 -1.48281 5.4592 0
M  V30 6253 H 605.544 -1.33463 6.3799 0
M  V30 6254 N 608.977 -1.30795 0.87923 0
M  V30 6255 C 609.907 -2.30742 0.357796 0
M  V30 6256 C 610.888 -1.60747 -0.556283 0
M  V30 6257 O 612.073 -1.88393 -0.47135 0
M  V30 6258 C 609.203 -3.44583 -0.433555 0
M  V30 6259 C 608.157 -4.26235 0.388251 0
M  V30 6260 C 607.483 -5.32073 -0.529352 0
M  V30 6261 C 608.783 -4.96303 1.62729 0
M  V30 6262 H 610.477 -2.74605 1.19299 0
M  V30 6263 H 608.023 -1.32017 0.575104 0
M  V30 6264 H 609.976 -4.13563 -0.808934 0
M  V30 6265 H 608.7 -2.99511 -1.30234 0
M  V30 6266 H 607.359 -3.58936 0.745695 0
M  V30 6267 H 607.007 -4.83249 -1.39569 0
M  V30 6268 H 606.707 -5.87598 0.0166741 0
M  V30 6269 H 608.231 -6.0391 -0.901373 0
M  V30 6270 H 609.645 -5.5783 1.32283 0
M  V30 6271 H 608.042 -5.61666 2.11309 0
M  V30 6272 H 609.112 -4.22758 2.37494 0
M  V30 6273 N 610.455 -0.639598 -1.44038 0
M  V30 6274 C 611.704 -0.144885 -2.01179 0
M  V30 6275 C 612.017 1.24372 -1.50967 0
M  V30 6276 O 613.223 1.83291 -2.00292 0
M  V30 6277 C 611.679 -0.208244 -3.59297 0
M  V30 6278 C 611.287 -1.59869 -4.18504 0
M  V30 6279 C 613.031 0.229568 -4.23879 0
M  V30 6280 C 610.938 -1.61671 -5.68873 0
M  V30 6281 H 609.868 -0.0504005 -0.752314 0
M  V30 6282 H 612.519 -0.799639 -1.65161 0
M  V30 6283 H 610.901 0.513767 -3.92653 0
M  V30 6284 H 612.075 -2.34496 -3.96671 0
M  V30 6285 H 610.39 -1.98131 -3.66242 0
M  V30 6286 H 612.987 0.235758 -5.3418 0
M  V30 6287 H 613.33 1.25848 -3.96822 0
M  V30 6288 H 613.863 -0.440233 -3.95357 0
M  V30 6289 H 610.602 -2.62427 -6.00677 0
M  V30 6290 H 610.122 -0.913489 -5.92803 0
M  V30 6291 H 611.801 -1.35439 -6.32665 0
M  V30 6292 N 611.933 1.52934 -0.380664 0
M  V30 6293 C 613.181 2.01069 0.203874 0
M  V30 6294 C 613.502 1.26922 1.4804 0
M  V30 6295 O 612.772 0.386787 1.92044 0
M  V30 6296 H 611.352 0.742882 0.0783279 0
M  V30 6297 H 614.014 1.88099 -0.510368 0
M  V30 6298 H 613.11 3.09258 0.42021 0
M  V30 6299 N 613.412 0.11024 1.57214 0
M  V30 6300 C 614.375 -0.828808 2.1369 0
M  V30 6301 C 615.375 -1.20059 1.06969 0
M  V30 6302 O 616.565 -1.12754 1.32786 0
M  V30 6303 C 613.697 -2.11959 2.66994 0
M  V30 6304 H 614.89 -0.338146 2.97988 0
M  V30 6305 H 612.443 -0.138913 1.55681 0
M  V30 6306 H 613.178 -2.65476 1.8626 0
M  V30 6307 H 612.963 -1.86258 3.45037 0
M  V30 6308 H 614.453 -2.79105 3.10629 0
M  V30 6309 N 614.89 -1.56749 -0.16351 0
M  V30 6310 C 615.823 -1.9213 -1.23132 0
M  V30 6311 C 616.801 -0.785047 -1.42393 0
M  V30 6312 O 617.985 -1.0391 -1.57273 0
M  V30 6313 C 615.112 -2.17901 -2.59301 0
M  V30 6314 C 614.158 -3.40576 -2.5673 0
M  V30 6315 S 614.991 -4.94689 -2.05045 0
M  V30 6316 C 616.147 -5.23564 -3.42975 0
M  V30 6317 H 616.38 -2.824 -0.929383 0
M  V30 6318 H 613.913 -1.4994 -0.368418 0
M  V30 6319 H 615.871 -2.33429 -3.3767 0
M  V30 6320 H 614.532 -1.28324 -2.86691 0
M  V30 6321 H 613.725 -3.55833 -3.5693 0
M  V30 6322 H 613.327 -3.24204 -1.86462 0
M  V30 6323 H 615.619 -5.16019 -4.3901 0
M  V30 6324 H 616.562 -6.25134 -3.32586 0
M  V30 6325 H 616.97 -4.51113 -3.39348 0
M  V30 6326 N 616.368 0.432326 -1.51554 0
M  V30 6327 C 617.608 1.19076 -1.66133 0
M  V30 6328 C 617.972 1.88364 -0.371873 0
M  V30 6329 O 619.173 2.65904 -0.39349 0
M  V30 6330 C 617.444 2.1768 -2.83461 0
M  V30 6331 S 619.003 3.01943 -3.18396 0
M  V30 6332 H 615.821 0.403735 -0.585251 0
M  V30 6333 H 618.423 0.481554 -1.89476 0
M  V30 6334 H 617.127 1.65424 -3.75583 0
M  V30 6335 H 616.658 2.93174 -2.62322 0
M  V30 6336 H 618.673 4.19373 -2.65219 0
M  V30 6337 N 617.846 1.41785 0.688094 0
M  V30 6338 C 618.779 1.38643 1.81255 0
M  V30 6339 C 619.757 0.252583 1.60626 0
M  V30 6340 O 620.941 0.440691 1.83276 0
M  V30 6341 C 618.068 1.16449 3.18053 0
M  V30 6342 C 617.114 2.32651 3.57457 0
M  V30 6343 S 617.947 3.95152 3.61407 0
M  V30 6344 C 619.103 3.75275 5.00919 0
M  V30 6345 H 619.336 2.33799 1.83644 0
M  V30 6346 H 616.869 1.28398 0.857513 0
M  V30 6347 H 618.827 1.0433 3.97021 0
M  V30 6348 H 617.488 0.229002 3.13264 0
M  V30 6349 H 616.681 2.12835 4.56856 0
M  V30 6350 H 616.283 2.41215 2.85817 0
M  V30 6351 H 618.575 3.35443 5.88629 0
M  V30 6352 H 619.518 4.74302 5.25778 0
M  V30 6353 H 619.926 3.08401 4.7281 0
M  V30 6354 N 619.324 -0.923095 1.27737 0
M  V30 6355 C 620.272 -2.04567 1.10703 0
M  V30 6356 C 621.266 -1.69375 0.0288445 0
M  V30 6357 O 622.472 -1.79027 0.186913 0
M  V30 6358 H 618.847 -0.670109 0.34126 0
M  V30 6359 H 620.818 -2.1608 2.05796 0
M  V30 6360 C 619.567 -3.38934 0.775837 0
M  V30 6361 H 618.89 -3.66501 1.59741 0
M  V30 6362 H 620.33 -4.18239 0.696548 0
M  V30 6363 C 618.789 -3.32863 -0.520012 0
M  V30 6364 O 619.319 -3.70462 -1.55308 0
M  V30 6365 N 617.525 -2.85958 -0.51732 0
M  V30 6366 H 617.072 -2.55557 0.32379 0
M  V30 6367 H 617.03 -2.82279 -1.38441 0
M  V30 6368 N 620.802 -1.09834 -1.13024 0
M  V30 6369 C 622.079 -0.749225 -1.80682 0
M  V30 6370 C 622.459 0.765171 -1.96744 0
M  V30 6371 O 621.807 1.68912 -1.53886 0
M  V30 6372 C 622.017 -1.49311 -3.15448 0
M  V30 6373 C 623.365 -1.66162 -3.90737 0
M  V30 6374 O 624.389 -1.45597 -3.25085 0
M  V30 6375 O 623.248 -2.00211 -5.08505 0
M  V30 6376 H 620.342 -0.269614 -0.781817 0
M  V30 6377 H 622.888 -1.20078 -1.19914 0
M  V30 6378 H 621.66 -2.52407 -2.99009 0
M  V30 6379 H 621.283 -1.034 -3.8392 0
M  V30 6380 N 622.28 1.30327 -0.886154 0
M  V30 6381 C 623.505 2.0079 -0.519425 0
M  V30 6382 C 623.93 1.65979 0.885013 0
M  V30 6383 O 623.288 0.877043 1.58675 0
M  V30 6384 C 623.336 3.53686 -0.702758 0
M  V30 6385 O 622.44 4.11637 0.250828 0
M  V30 6386 H 621.781 0.63171 -0.204544 0
M  V30 6387 H 624.311 1.66145 -1.19402 0
M  V30 6388 H 624.321 4.03531 -0.602207 0
M  V30 6389 H 622.996 3.78361 -1.72673 0
M  V30 6390 H 621.573 3.72755 0.103873 0
M  V30 6391 N 623.758 0.647228 1.43697 0
M  V30 6392 C 625.174 0.314256 1.56476 0
M  V30 6393 C 625.374 -1.18191 1.63196 0
M  V30 6394 O 624.43 -1.96655 1.58376 0
M  V30 6395 C 625.743 1.02034 2.82859 0
M  V30 6396 C 627.291 1.00002 2.96595 0
M  V30 6397 C 627.766 1.68689 4.25803 0
M  V30 6398 N 629.257 1.65424 4.32654 0
M  V30 6399 C 629.992 2.1545 5.31384 0
M  V30 6400 N 629.488 2.73738 6.36427 0
M  V30 6401 N 631.281 2.05985 5.22998 0
M  V30 6402 H 623.432 1.61821 1.37578 0
M  V30 6403 H 625.695 0.680184 0.660344 0
M  V30 6404 H 625.401 2.07542 2.83935 0
M  V30 6405 H 625.275 0.568146 3.72897 0
M  V30 6406 H 627.662 -0.0466319 2.95063 0
M  V30 6407 H 627.743 1.49086 2.07863 0
M  V30 6408 H 627.387 2.73308 4.28095 0
M  V30 6409 H 627.317 1.17076 5.13421 0
M  V30 6410 H 629.808 1.22884 3.57363 0
M  V30 6411 H 630.121 3.09602 7.08072 0
M  V30 6412 H 628.466 2.77796 6.37067 0
M  V30 6413 H 631.657 1.60157 4.39849 0
M  V30 6414 H 631.83 2.45281 5.99784 0
M  V30 6415 N 625.236 -1.5273 0.388769 0
M  V30 6416 C 626.184 -2.27975 -0.461527 0
M  V30 6417 C 627.178 -1.31854 -1.06352 0
M  V30 6418 O 628.384 -1.49394 -1.00406 0
M  V30 6419 H 624.759 -0.733088 -0.16759 0
M  V30 6420 H 626.73 -2.97765 0.194579 0
M  V30 6421 C 625.479 -3.09881 -1.577 0
M  V30 6422 H 624.802 -3.83701 -1.12309 0
M  V30 6423 H 626.242 -3.6567 -2.14619 0
M  V30 6424 C 624.701 -2.22159 -2.53272 0
M  V30 6425 O 625.231 -1.84802 -3.56667 0
M  V30 6426 N 623.437 -1.8633 -2.23001 0
M  V30 6427 H 622.984 -2.16909 -1.38954 0
M  V30 6428 H 622.942 -1.27927 -2.87197 0
M  V30 6429 N 626.714 -0.118576 -1.57153 0
M  V30 6430 C 627.939 0.550582 -1.99958 0
M  V30 6431 C 628.364 1.59458 -0.997736 0
M  V30 6432 O 627.722 1.81274 0.0306269 0
M  V30 6433 C 627.77 1.15379 -3.41643 0
M  V30 6434 O 626.874 2.26932 -3.44348 0
M  V30 6435 H 626.215 0.137567 -0.649593 0
M  V30 6436 H 628.745 -0.206926 -2.03551 0
M  V30 6437 H 628.755 1.48942 -3.79843 0
M  V30 6438 H 627.43 0.389087 -4.14076 0
M  V30 6439 H 626.007 1.94812 -3.17967 0
M  V30 6440 N 628.193 1.56834 0.155195 0
M  V30 6441 C 629.125 1.94235 1.21677 0
M  V30 6442 C 630.138 0.83724 1.39621 0
M  V30 6443 O 631.327 1.11567 1.39338 0
M  V30 6444 C 628.427 2.19402 2.58294 0
M  V30 6445 C 627.6 3.50671 2.61436 0
M  V30 6446 C 626.659 3.64475 3.79532 0
M  V30 6447 O 625.685 4.36945 3.64784 0
M  V30 6448 N 626.887 3.00526 4.96653 0
M  V30 6449 H 629.652 2.85901 0.898932 0
M  V30 6450 H 627.213 1.58185 0.34483 0
M  V30 6451 H 629.205 2.25886 3.35794 0
M  V30 6452 H 627.775 1.34042 2.82403 0
M  V30 6453 H 626.995 3.55702 1.69912 0
M  V30 6454 H 628.283 4.3702 2.60559 0
M  V30 6455 H 627.681 2.41549 5.11538 0
M  V30 6456 H 626.238 3.12583 5.71958 0
M  V30 6457 N 629.671 -0.424282 1.51781 0
M  V30 6458 C 630.601 -1.52305 1.7699 0
M  V30 6459 C 631.582 -1.5839 0.620209 0
M  V30 6460 O 632.767 -1.73908 0.864268 0
M  V30 6461 C 629.897 -2.90271 1.90683 0
M  V30 6462 C 628.851 -2.99043 3.06198 0
M  V30 6463 C 628.177 -4.39116 3.05092 0
M  V30 6464 C 629.477 -2.7192 4.45934 0
M  V30 6465 H 631.171 -1.31461 2.68995 0
M  V30 6466 H 628.717 -0.630985 1.29439 0
M  V30 6467 H 630.67 -3.6711 2.06901 0
M  V30 6468 H 629.394 -3.12376 0.953365 0
M  V30 6469 H 628.053 -2.24646 2.89706 0
M  V30 6470 H 627.701 -4.58207 2.07498 0
M  V30 6471 H 627.401 -4.45912 3.82669 0
M  V30 6472 H 628.925 -5.17911 3.2342 0
M  V30 6473 H 630.339 -3.38487 4.62709 0
M  V30 6474 H 628.736 -2.90111 5.25315 0
M  V30 6475 H 629.806 -1.67445 4.55072 0
M  V30 6476 N 631.149 -1.42148 -0.680565 0
M  V30 6477 C 632.374 -1.45901 -1.47403 0
M  V30 6478 C 632.799 -0.0700985 -1.87969 0
M  V30 6479 O 632.157 0.930145 -1.55621 0
M  V30 6480 C 632.205 -2.38661 -2.70321 0
M  V30 6481 O 631.309 -1.85399 -3.68376 0
M  V30 6482 H 630.65 -0.494565 -0.443059 0
M  V30 6483 H 633.18 -1.86774 -0.835251 0
M  V30 6484 H 633.19 -2.55046 -3.18458 0
M  V30 6485 H 631.865 -3.39571 -2.40134 0
M  V30 6486 H 630.442 -1.78541 -3.2738 0
M  V30 6487 N 632.627 0.916307 -1.28225 0
M  V30 6488 C 633.873 1.66765 -1.154 0
M  V30 6489 C 634.206 1.91912 0.297251 0
M  V30 6490 O 633.481 1.51766 1.21644 0
M  V30 6491 C 633.764 3.02715 -1.95028 0
M  V30 6492 C 633.617 2.84738 -3.48201 0
M  V30 6493 C 634.936 4.03215 -1.76369 0
M  V30 6494 H 632.055 0.605205 -0.42059 0
M  V30 6495 H 634.697 1.06255 -1.57512 0
M  V30 6496 H 632.847 3.54365 -1.59242 0
M  V30 6497 H 634.519 2.40118 -3.9388 0
M  V30 6498 H 632.762 2.19848 -3.73964 0
M  V30 6499 H 633.433 3.8127 -3.99171 0
M  V30 6500 H 635.909 3.60617 -2.07593 0
M  V30 6501 H 634.785 4.96306 -2.34459 0
M  V30 6502 H 635.046 4.36288 -0.71452 0
M  V30 6503 N 634.105 1.10431 1.1244 0
M  V30 6504 C 635.015 0.765502 2.21759 0
M  V30 6505 C 636.031 -0.236966 1.72379 0
M  V30 6506 O 637.207 -0.0757329 2.01258 0
M  V30 6507 C 634.272 0.202316 3.46109 0
M  V30 6508 C 633.333 1.26205 4.1033 0
M  V30 6509 C 632.566 0.725648 5.28744 0
M  V30 6510 O 632.789 -0.447942 5.68638 0
M  V30 6511 O 631.723 1.48555 5.83279 0
M  V30 6512 H 635.549 1.67801 2.53133 0
M  V30 6513 H 633.134 0.879443 1.20773 0
M  V30 6514 H 635.016 -0.107918 4.21262 0
M  V30 6515 H 633.691 -0.683052 3.16411 0
M  V30 6516 H 632.598 1.62514 3.36957 0
M  V30 6517 H 633.931 2.12044 4.44183 0
M  V30 6518 N 635.583 -1.29855 0.893053 0
M  V30 6519 C 636.86 -1.90694 0.435336 0
M  V30 6520 C 637.24 -1.8111 -1.08454 0
M  V30 6521 O 636.588 -1.23352 -1.92345 0
M  V30 6522 C 636.798 -3.36033 0.942472 0
M  V30 6523 C 638.146 -4.13083 0.982226 0
M  V30 6524 O 639.17 -3.4491 0.889686 0
M  V30 6525 O 638.029 -5.34896 1.12022 0
M  V30 6526 H 635.123 -0.815978 0.134567 0
M  V30 6527 H 637.669 -1.38367 0.982484 0
M  V30 6528 H 636.441 -3.37132 1.9864 0
M  V30 6529 H 636.064 -3.95828 0.374952 0
M  V30 6530 N 637.061 -0.65484 -1.43351 0
M  V30 6531 C 637.994 0.0855537 -2.2804 0
M  V30 6532 C 638.972 0.828301 -1.39921 0
M  V30 6533 O 640.156 0.827539 -1.69364 0
M  V30 6534 C 637.283 1.12792 -3.19368 0
M  V30 6535 C 636.329 0.483037 -4.23756 0
M  V30 6536 S 637.162 -0.744605 -5.30298 0
M  V30 6537 C 638.318 0.297187 -6.25194 0
M  V30 6538 H 638.551 -0.632831 -2.90487 0
M  V30 6539 H 636.084 -0.44373 -1.47886 0
M  V30 6540 H 638.042 1.7243 -3.72529 0
M  V30 6541 H 636.703 1.81863 -2.56095 0
M  V30 6542 H 635.896 1.26888 -4.87766 0
M  V30 6543 H 635.498 -0.0392713 -3.73979 0
M  V30 6544 H 637.79 1.1629 -6.67445 0
M  V30 6545 H 638.733 -0.30793 -7.0743 0
M  V30 6546 H 639.141 0.633721 -5.60932 0
M  V30 6547 N 638.539 1.52521 -0.396863 0
M  V30 6548 C 639.785 2.01971 0.183169 0
M  V30 6549 C 640.118 1.2825 1.45827 0
M  V30 6550 O 639.393 0.385179 1.90648 0
M  V30 6551 C 639.676 3.5736 0.443391 0
M  V30 6552 C 639.529 4.41743 -0.84753 0
M  V30 6553 C 640.848 4.22539 1.2308 0
M  V30 6554 H 637.967 0.734119 0.0650976 0
M  V30 6555 H 640.609 1.82519 -0.527918 0
M  V30 6556 H 638.759 3.74066 1.04914 0
M  V30 6557 H 640.431 4.36773 -1.48414 0
M  V30 6558 H 638.674 4.0845 -1.4612 0
M  V30 6559 H 639.345 5.48507 -0.620003 0
M  V30 6560 H 641.821 4.09857 0.718084 0
M  V30 6561 H 640.697 5.31227 1.38162 0
M  V30 6562 H 640.958 3.80675 2.24808 0
M  V30 6563 N 640.017 0.126909 1.57088 0
M  V30 6564 C 641.242 -0.53997 2.00248 0
M  V30 6565 C 641.667 -1.58927 1.00618 0
M  V30 6566 O 641.025 -1.81288 -0.0210131 0
M  V30 6567 C 641.073 -1.13565 3.4225 0
M  V30 6568 O 640.177 -2.25103 3.45547 0
M  V30 6569 H 639.518 -0.13412 0.650314 0
M  V30 6570 H 642.048 0.217718 2.03438 0
M  V30 6571 H 642.058 -1.46925 3.80627 0
M  V30 6572 H 640.733 -0.367122 4.14277 0
M  V30 6573 H 639.31 -1.93123 3.18995 0
M  V30 6574 N 641.495 -1.56914 -0.146875 0
M  V30 6575 C 642.427 -1.94878 -1.20645 0
M  V30 6576 C 643.44 -0.844633 -1.39175 0
M  V30 6577 O 644.629 -1.12304 -1.38744 0
M  V30 6578 C 641.729 -2.20769 -2.57127 0
M  V30 6579 C 640.902 -3.52053 -2.59572 0
M  V30 6580 C 639.961 -3.66482 -3.77594 0
M  V30 6581 O 638.987 -4.38873 -3.62462 0
M  V30 6582 N 640.189 -3.03156 -4.95052 0
M  V30 6583 H 642.954 -2.86374 -0.883757 0
M  V30 6584 H 640.515 -1.58366 -0.336436 0
M  V30 6585 H 642.507 -2.27664 -3.34591 0
M  V30 6586 H 641.077 -1.35538 -2.81688 0
M  V30 6587 H 640.297 -3.56598 -1.68023 0
M  V30 6588 H 641.585 -4.38396 -2.58238 0
M  V30 6589 H 640.983 -2.44258 -5.10249 0
M  V30 6590 H 639.54 -3.15611 -5.70292 0
M  V30 6591 N 642.974 0.416227 -1.52004 0
M  V30 6592 C 643.907 1.52736 -1.6955 0
M  V30 6593 C 644.885 1.53264 -0.54305 0
M  V30 6594 O 646.069 1.72077 -0.769527 0
M  V30 6595 C 643.196 2.91283 -1.72835 0
M  V30 6596 C 642.242 3.08695 -2.94295 0
M  V30 6597 S 643.075 2.82758 -4.54762 0
M  V30 6598 C 644.231 4.23548 -4.60823 0
M  V30 6599 H 644.464 1.37623 -2.63528 0
M  V30 6600 H 641.997 0.607335 -1.41954 0
M  V30 6601 H 643.955 3.71134 -1.75413 0
M  V30 6602 H 642.616 3.03742 -0.799966 0
M  V30 6603 H 641.809 4.10042 -2.93056 0
M  V30 6604 H 641.411 2.36699 -2.89568 0
M  V30 6605 H 643.703 5.17078 -4.37763 0
M  V30 6606 H 644.646 4.29813 -5.62731 0
M  V30 6607 H 645.054 4.08188 -3.89927 0
M  V30 6608 N 644.452 1.42507 0.673017 0
M  V30 6609 C 645.868 1.25472 0.986355 0
M  V30 6610 C 646.068 0.160181 2.00862 0
M  V30 6611 O 645.124 -0.467993 2.48125 0
M  V30 6612 C 646.437 2.61219 1.48947 0
M  V30 6613 C 647.985 2.68589 1.60715 0
M  V30 6614 C 648.46 4.04707 2.14422 0
M  V30 6615 N 649.951 4.0667 2.21752 0
M  V30 6616 C 650.686 5.0881 2.64386 0
M  V30 6617 N 650.182 6.21332 3.0646 0
M  V30 6618 N 651.975 4.96166 2.64151 0
M  V30 6619 H 644.126 2.124 -0.00378532 0
M  V30 6620 H 646.389 0.946046 0.0608367 0
M  V30 6621 H 646.095 3.42179 0.812812 0
M  V30 6622 H 645.969 2.85261 2.46791 0
M  V30 6623 H 648.356 1.87974 2.27486 0
M  V30 6624 H 648.437 2.48333 0.613552 0
M  V30 6625 H 648.081 4.8578 1.48258 0
M  V30 6626 H 648.011 4.22315 3.14575 0
M  V30 6627 H 650.502 3.25438 1.92089 0
M  V30 6628 H 650.815 6.95118 3.37684 0
M  V30 6629 H 649.16 6.24835 3.04313 0
M  V30 6630 H 652.351 4.07334 2.30644 0
M  V30 6631 H 652.524 5.759 2.97057 0
M  V30 6632 N 645.93 -0.909495 1.28709 0
M  V30 6633 C 647.176 -1.66151 1.16283 0
M  V30 6634 C 647.509 -1.92067 -0.287069 0
M  V30 6635 O 646.784 -1.52409 -1.20837 0
M  V30 6636 C 647.067 -3.01676 1.9663 0
M  V30 6637 C 646.92 -2.82888 3.49707 0
M  V30 6638 C 648.239 -4.02274 1.78504 0
M  V30 6639 H 645.358 -0.602966 0.423793 0
M  V30 6640 H 648 -1.05418 1.58073 0
M  V30 6641 H 646.15 -3.53515 1.61119 0
M  V30 6642 H 647.822 -2.38026 3.95147 0
M  V30 6643 H 646.065 -2.17862 3.75125 0
M  V30 6644 H 646.736 -3.79147 4.01187 0
M  V30 6645 H 649.212 -3.59511 2.09503 0
M  V30 6646 H 648.088 -4.95056 2.37088 0
M  V30 6647 H 648.349 -4.35903 0.737647 0
M  V30 6648 N 647.408 -1.11026 -1.11852 0
M  V30 6649 C 648.34 -0.72249 -2.17515 0
M  V30 6650 C 649.353 0.243782 -1.60964 0
M  V30 6651 O 650.542 0.0273252 -1.78479 0
M  V30 6652 C 647.642 -0.0463979 -3.38868 0
M  V30 6653 C 646.815 -1.0384 -4.24895 0
M  V30 6654 C 645.874 -0.392659 -5.24733 0
M  V30 6655 O 644.9 -1.0453 -5.5952 0
M  V30 6656 N 646.102 0.846296 -5.74298 0
M  V30 6657 H 648.867 -1.63161 -2.51393 0
M  V30 6658 H 646.428 -0.999899 -1.27333 0
M  V30 6659 H 648.42 0.397215 -4.02746 0
M  V30 6660 H 646.99 0.765231 -3.03089 0
M  V30 6661 H 646.21 -1.6601 -3.57539 0
M  V30 6662 H 647.498 -1.70968 -4.79215 0
M  V30 6663 H 646.896 1.39578 -5.4821 0
M  V30 6664 H 645.453 1.23296 -6.40032 0
M  V30 6665 N 648.886 1.2938 -0.899927 0
M  V30 6666 C 650.302 1.48052 -0.596059 0
M  V30 6667 C 650.502 1.82114 0.862372 0
M  V30 6668 O 649.558 1.91774 1.64253 0
M  V30 6669 C 650.871 2.59332 -1.52208 0
M  V30 6670 C 652.419 2.73208 -1.5273 0
M  V30 6671 C 652.894 3.87617 -2.43961 0
M  V30 6672 N 654.385 3.9495 -2.42009 0
M  V30 6673 C 655.12 4.82824 -3.09303 0
M  V30 6674 N 654.616 5.75387 -3.85877 0
M  V30 6675 N 656.409 4.76317 -2.98459 0
M  V30 6676 H 648.56 1.05546 -1.8432 0
M  V30 6677 H 650.823 0.524314 -0.78981 0
M  V30 6678 H 650.529 2.41029 -2.56121 0
M  V30 6679 H 650.403 3.56139 -1.24278 0
M  V30 6680 H 652.79 2.90908 -0.495614 0
M  V30 6681 H 652.871 1.76975 -1.84698 0
M  V30 6682 H 652.515 3.70672 -3.47224 0
M  V30 6683 H 652.445 4.83218 -2.09303 0
M  V30 6684 H 654.936 3.28744 -1.86375 0
M  V30 6685 H 655.249 6.39235 -4.34279 0
M  V30 6686 H 653.594 5.75272 -3.89984 0
M  V30 6687 H 656.785 4.0299 -2.38152 0
M  V30 6688 H 656.958 5.44589 -3.51179 0
M  V30 6689 N 650.364 0.662433 1.43002 0
M  V30 6690 C 651.312 -0.035345 2.32573 0
M  V30 6691 C 652.306 -0.803505 1.49131 0
M  V30 6692 O 653.512 -0.712865 1.65282 0
M  V30 6693 H 649.887 -0.0302194 0.751393 0
M  V30 6694 H 651.858 0.737686 2.89138 0
M  V30 6695 C 650.607 -0.981575 3.33557 0
M  V30 6696 H 649.93 -0.399914 3.97795 0
M  V30 6697 H 651.37 -1.43873 3.98844 0
M  V30 6698 C 649.829 -2.08204 2.64863 0
M  V30 6699 O 650.359 -3.16698 2.47113 0
M  V30 6700 N 648.565 -1.85022 2.24088 0
M  V30 6701 H 648.112 -0.967909 2.38724 0
M  V30 6702 H 648.07 -2.58845 1.78457 0
M  V30 6703 N 651.842 -1.52309 0.404946 0
M  V30 6704 C 653.09 -2.01368 -0.17186 0
M  V30 6705 C 653.411 -1.29261 -1.46002 0
M  V30 6706 O 652.681 -0.41729 -1.91404 0
M  V30 6707 H 651.261 -0.744034 -0.0664993 0
M  V30 6708 H 653.923 -1.87263 0.540228 0
M  V30 6709 H 653.019 -3.09888 -0.370957 0
M  V30 6710 N 653.32 -0.135238 -1.57019 0
M  V30 6711 C 654.569 0.518694 -1.94917 0
M  V30 6712 C 654.882 1.66783 -1.0219 0
M  V30 6713 O 656.088 2.38561 -1.29619 0
M  V30 6714 C 654.544 0.974123 -3.46466 0
M  V30 6715 C 654.152 -0.147439 -4.47757 0
M  V30 6716 C 655.896 1.59851 -3.93253 0
M  V30 6717 C 653.803 0.325599 -5.90503 0
M  V30 6718 H 652.733 0.19754 -0.727663 0
M  V30 6719 H 655.384 -0.217698 -1.82204 0
M  V30 6720 H 653.766 1.76542 -3.5447 0
M  V30 6721 H 654.94 -0.924122 -4.51438 0
M  V30 6722 H 653.255 -0.679496 -4.10818 0
M  V30 6723 H 655.852 1.96385 -4.9733 0
M  V30 6724 H 656.195 2.48306 -3.3414 0
M  V30 6725 H 656.728 0.872323 -3.88118 0
M  V30 6726 H 653.467 -0.523295 -6.53408 0
M  V30 6727 H 652.987 1.06841 -5.90208 0
M  V30 6728 H 654.666 0.781498 -6.42263 0
M  V30 6729 N 654.798 1.5699 0.138552 0
M  V30 6730 C 655.731 1.94064 1.2006 0
M  V30 6731 C 656.709 0.807601 1.41126 0
M  V30 6732 O 657.893 1.06399 1.556 0
M  V30 6733 C 655.02 2.21999 2.55801 0
M  V30 6734 C 654.066 3.44617 2.5128 0
M  V30 6735 S 654.899 4.97888 1.97149 0
M  V30 6736 C 656.055 5.28954 3.34602 0
M  V30 6737 H 656.288 2.83843 0.884337 0
M  V30 6738 H 653.821 1.50507 0.344517 0
M  V30 6739 H 655.779 2.38772 3.33914 0
M  V30 6740 H 654.44 1.32869 2.84613 0
M  V30 6741 H 653.633 3.61466 3.51224 0
M  V30 6742 H 653.235 3.27129 1.8128 0
M  V30 6743 H 655.527 5.22938 4.30745 0
M  V30 6744 H 656.47 6.30346 3.22598 0
M  V30 6745 H 656.878 4.56455 3.32128 0
M  V30 6746 N 656.276 -0.40816 1.52223 0
M  V30 6747 C 657.522 -1.15673 1.66576 0
M  V30 6748 C 657.855 -1.90141 0.394996 0
M  V30 6749 O 657.13 -1.84798 -0.606613 0
M  V30 6750 C 657.413 -2.15042 2.88841 0
M  V30 6751 C 657.266 -1.44465 4.25969 0
M  V30 6752 C 658.585 -3.15699 3.0663 0
M  V30 6753 H 655.704 -0.41916 0.606196 0
M  V30 6754 H 658.346 -0.442348 1.84779 0
M  V30 6755 H 656.496 -2.75964 2.73452 0
M  V30 6756 H 658.168 -0.866544 4.53088 0
M  V30 6757 H 656.411 -0.746612 4.27327 0
M  V30 6758 H 657.082 -2.16976 5.07568 0
M  V30 6759 H 659.558 -2.64854 3.20923 0
M  V30 6760 H 658.434 -3.82491 3.9369 0
M  V30 6761 H 658.695 -3.83481 2.19987 0
M  V30 6762 N 657.755 -1.42862 -0.66545 0
M  V30 6763 C 658.687 -1.43026 -1.79098 0
M  V30 6764 C 659.7 -0.32803 -1.59461 0
M  V30 6765 O 660.889 -0.591709 -1.68407 0
M  V30 6766 C 657.989 -1.21566 -3.16346 0
M  V30 6767 C 657.162 -2.44399 -3.62751 0
M  V30 6768 C 656.221 -2.18344 -4.78761 0
M  V30 6769 O 655.247 -2.91611 -4.88827 0
M  V30 6770 N 656.449 -1.1924 -5.68122 0
M  V30 6771 H 659.214 -2.40045 -1.79439 0
M  V30 6772 H 656.775 -1.37861 -0.848872 0
M  V30 6773 H 658.767 -1.02037 -3.91625 0
M  V30 6774 H 657.337 -0.330368 -3.10849 0
M  V30 6775 H 656.557 -2.79433 -2.78048 0
M  V30 6776 H 657.845 -3.26173 -3.90498 0
M  V30 6777 H 657.243 -0.586603 -5.6265 0
M  V30 6778 H 655.8 -1.05698 -6.43173 0
M  V30 6779 N 659.233 0.902656 -1.29189 0
M  V30 6780 C 660.18 2.00643 -1.14066 0
M  V30 6781 C 661.15 1.66064 -0.0347756 0
M  V30 6782 O 662.335 1.8973 -0.201752 0
M  V30 6783 C 659.475 3.35214 -0.820104 0
M  V30 6784 C 658.588 3.82594 -2.00614 0
M  V30 6785 C 657.723 5.05727 -1.62522 0
M  V30 6786 C 656.762 5.45469 -2.77724 0
M  V30 6787 N 655.899 6.59789 -2.40048 0
M  V30 6788 H 660.739 2.1291 -2.08502 0
M  V30 6789 H 658.276 1.04271 -1.03759 0
M  V30 6790 H 660.234 4.12643 -0.614949 0
M  V30 6791 H 658.864 3.22682 0.0873452 0
M  V30 6792 H 657.916 3.01226 -2.32308 0
M  V30 6793 H 659.228 4.07999 -2.86946 0
M  V30 6794 H 658.382 5.90732 -1.38277 0
M  V30 6795 H 657.121 4.82155 -0.733333 0
M  V30 6796 H 656.126 4.59 -3.02653 0
M  V30 6797 H 657.351 5.71024 -3.67572 0
M  V30 6798 H 655.297 6.37826 -1.53343 0
M  V30 6799 H 655.214 6.84975 -3.19914 0
M  V30 6800 H 656.482 7.4807 -2.19116 0
M  V30 6801 N 660.711 1.11618 1.11262 0
M  V30 6802 C 661.988 0.777876 1.79467 0
M  V30 6803 C 662.368 -0.733774 1.97937 0
M  V30 6804 O 661.716 -1.66443 1.56554 0
M  V30 6805 C 661.926 1.5431 3.13032 0
M  V30 6806 C 663.274 1.72357 3.88044 0
M  V30 6807 O 664.298 1.5075 3.22727 0
M  V30 6808 O 663.157 2.08276 5.05256 0
M  V30 6809 H 660.251 0.282018 0.777428 0
M  V30 6810 H 662.797 1.21971 1.17988 0
M  V30 6811 H 661.569 2.57132 2.94956 0
M  V30 6812 H 661.192 1.09495 3.82226 0
M  V30 6813 N 662.189 -1.289 0.906776 0
M  V30 6814 C 663.099 -2.31256 0.394707 0
M  V30 6815 C 664.115 -1.66231 -0.514121 0
M  V30 6816 O 665.291 -1.97347 -0.401994 0
M  V30 6817 C 662.356 -3.44792 -0.363191 0
M  V30 6818 C 661.417 -4.25391 0.578012 0
M  V30 6819 C 660.65 -5.33506 -0.143811 0
M  V30 6820 O 660.873 -5.53786 -1.36665 0
M  V30 6821 O 659.807 -5.99673 0.5173 0
M  V30 6822 H 663.633 -2.77051 1.24405 0
M  V30 6823 H 661.218 -1.33466 0.671346 0
M  V30 6824 H 663.1 -4.139 -0.791503 0
M  V30 6825 H 661.775 -3.01093 -1.18848 0
M  V30 6826 H 660.682 -3.58899 1.05558 0
M  V30 6827 H 662.015 -4.72752 1.36992 0
M  V30 6828 N 663.667 -0.670007 -1.42649 0
M  V30 6829 C 664.599 0.0501746 -2.29145 0
M  V30 6830 C 665.612 0.770331 -1.43422 0
M  V30 6831 O 666.801 0.625288 -1.6719 0
M  V30 6832 C 663.901 1.09463 -3.20735 0
M  V30 6833 C 663.074 0.44926 -4.35087 0
M  V30 6834 C 662.133 1.39285 -5.07431 0
M  V30 6835 O 661.159 0.894997 -5.6212 0
M  V30 6836 N 662.361 2.72631 -5.12496 0
M  V30 6837 H 665.126 -0.692312 -2.91594 0
M  V30 6838 H 662.687 -0.514056 -1.53522 0
M  V30 6839 H 664.679 1.72705 -3.65999 0
M  V30 6840 H 663.249 1.73891 -2.59771 0
M  V30 6841 H 662.469 -0.362573 -3.92529 0
M  V30 6842 H 663.757 -0.000544776 -5.088 0
M  V30 6843 H 663.155 3.15623 -4.69467 0
M  V30 6844 H 661.712 3.31132 -5.61422 0
M  V30 6845 N 665.145 1.52092 -0.413018 0
M  V30 6846 C 666.075 2.30021 0.401567 0
M  V30 6847 C 667.056 1.34395 1.04269 0
M  V30 6848 O 668.241 1.63304 1.05097 0
M  V30 6849 C 665.371 3.12447 1.51638 0
M  V30 6850 C 664.325 4.16153 1.00005 0
M  V30 6851 C 663.651 4.86948 2.20875 0
M  V30 6852 C 664.951 5.22275 0.0513757 0
M  V30 6853 H 666.645 2.98365 -0.248704 0
M  V30 6854 H 664.191 1.4349 -0.121052 0
M  V30 6855 H 666.144 3.65733 2.09326 0
M  V30 6856 H 664.868 2.41879 2.19458 0
M  V30 6857 H 663.527 3.63882 0.445549 0
M  V30 6858 H 663.175 4.12905 2.8726 0
M  V30 6859 H 662.875 5.57057 1.86978 0
M  V30 6860 H 664.399 5.43048 2.79162 0
M  V30 6861 H 665.813 5.70778 0.537176 0
M  V30 6862 H 664.21 5.9977 -0.198977 0
M  V30 6863 H 665.28 4.76611 -0.892736 0
M  V30 6864 N 666.623 0.143563 1.56945 0
M  V30 6865 C 667.9 -0.553285 1.87612 0
M  V30 6866 C 668.28 -1.83195 1.04894 0
M  V30 6867 O 667.628 -2.28102 0.134773 0
M  V30 6868 C 667.838 -0.822055 3.3918 0
M  V30 6869 C 669.186 -1.16435 4.08324 0
M  V30 6870 O 670.21 -0.911522 3.4434 0
M  V30 6871 O 669.069 -1.63996 5.21313 0
M  V30 6872 H 666.163 -0.281851 0.777489 0
M  V30 6873 H 668.709 0.179916 1.68744 0
M  V30 6874 H 667.481 0.0830265 3.91212 0
M  V30 6875 H 667.104 -1.60956 3.63564 0
M  V30 6876 N 668.101 -1.57061 -0.130224 0
M  V30 6877 C 669.347 -1.8453 -0.841216 0
M  V30 6878 C 669.68 -0.727666 -1.80052 0
M  V30 6879 O 668.955 0.267419 -1.92653 0
M  V30 6880 C 669.238 -3.22553 -1.60099 0
M  V30 6881 C 669.091 -4.44901 -0.662048 0
M  V30 6882 C 670.41 -3.58003 -2.55973 0
M  V30 6883 H 667.529 -0.671215 -0.304366 0
M  V30 6884 H 670.171 -1.89705 -0.105821 0
M  V30 6885 H 668.321 -3.18272 -2.22789 0
M  V30 6886 H 669.993 -4.61278 -0.0448559 0
M  V30 6887 H 668.236 -4.33791 0.0272253 0
M  V30 6888 H 668.907 -5.3812 -1.23006 0
M  V30 6889 H 671.383 -3.63002 -2.03393 0
M  V30 6890 H 670.259 -4.55576 -3.06172 0
M  V30 6891 H 670.52 -2.84833 -3.38116 0
M  V30 6892 N 669.579 0.400081 -1.52437 0
M  V30 6893 C 670.509 1.4947 -1.7939 0
M  V30 6894 C 671.49 1.57383 -0.645329 0
M  V30 6895 O 672.675 1.72511 -0.891826 0
M  V30 6896 C 669.805 2.87201 -1.95276 0
M  V30 6897 C 668.759 2.94134 -3.10917 0
M  V30 6898 C 668.085 4.34207 -3.1204 0
M  V30 6899 C 669.385 2.64791 -4.50203 0
M  V30 6900 H 671.079 1.27165 -2.71052 0
M  V30 6901 H 668.625 0.610312 -1.30427 0
M  V30 6902 H 670.578 3.63772 -2.12715 0
M  V30 6903 H 669.302 3.10819 -1.00294 0
M  V30 6904 H 667.961 2.20009 -2.93243 0
M  V30 6905 H 667.609 4.54848 -2.14761 0
M  V30 6906 H 667.309 4.39768 -3.89715 0
M  V30 6907 H 668.833 5.127 -3.31619 0
M  V30 6908 H 670.247 3.31083 -4.68035 0
M  V30 6909 H 668.644 2.81717 -5.29864 0
M  V30 6910 H 669.714 1.60184 -4.57678 0
M  V30 6911 N 671.057 1.43213 0.657864 0
M  V30 6912 C 672.306 1.43871 1.41365 0
M  V30 6913 C 672.619 0.064898 1.95492 0
M  V30 6914 O 673.825 -0.0510796 2.71452 0
M  V30 6915 C 672.281 2.53158 2.55811 0
M  V30 6916 C 671.889 3.96624 2.08311 0
M  V30 6917 C 673.633 2.63004 3.3321 0
M  V30 6918 C 671.54 4.97385 3.1994 0
M  V30 6919 H 670.47 0.535174 0.531136 0
M  V30 6920 H 673.121 1.69185 0.710543 0
M  V30 6921 H 671.503 2.21037 3.2857 0
M  V30 6922 H 672.677 4.38182 1.42593 0
M  V30 6923 H 670.992 3.90781 1.43804 0
M  V30 6924 H 673.589 3.3546 4.16378 0
M  V30 6925 H 673.932 1.67918 3.80932 0
M  V30 6926 H 674.465 2.94403 2.67529 0
M  V30 6927 H 671.204 5.94007 2.77192 0
M  V30 6928 H 670.724 4.60444 3.84385 0
M  V30 6929 H 672.403 5.19877 3.85145 0
M  V30 6930 N 672.536 -0.895792 1.29666 0
M  V30 6931 C 673.483 -2.00035 1.15129 0
M  V30 6932 C 674.453 -1.66043 0.0435819 0
M  V30 6933 O 675.638 -1.89621 0.211811 0
M  V30 6934 C 672.778 -3.34774 0.83787 0
M  V30 6935 C 671.891 -3.81525 2.0264 0
M  V30 6936 C 671.026 -5.04858 1.65201 0
M  V30 6937 C 670.065 -5.43988 2.80612 0
M  V30 6938 N 669.202 -6.58507 2.43544 0
M  V30 6939 H 674.042 -2.11802 2.09628 0
M  V30 6940 H 671.579 -1.03719 1.04311 0
M  V30 6941 H 673.537 -4.12311 0.636824 0
M  V30 6942 H 672.167 -3.22724 -0.0702314 0
M  V30 6943 H 671.219 -2.9999 2.33903 0
M  V30 6944 H 672.531 -4.06472 2.89106 0
M  V30 6945 H 671.685 -5.8999 1.41408 0
M  V30 6946 H 670.424 -4.81759 0.758893 0
M  V30 6947 H 669.429 -4.57388 3.05083 0
M  V30 6948 H 670.654 -5.69066 3.70595 0
M  V30 6949 H 668.6 -6.37004 1.56724 0
M  V30 6950 H 668.517 -6.83269 3.23542 0
M  V30 6951 H 669.785 -7.46897 2.2308 0
M  V30 6952 N 674.014 -1.12206 -1.10668 0
M  V30 6953 C 674.944 -0.810086 -2.18997 0
M  V30 6954 C 675.925 0.225065 -1.68604 0
M  V30 6955 O 677.11 0.086783 -1.94006 0
M  V30 6956 C 674.24 -0.261262 -3.46316 0
M  V30 6957 C 673.194 -1.2292 -4.09969 0
M  V30 6958 C 672.52 -0.540713 -5.31959 0
M  V30 6959 C 673.82 -2.58295 -4.53962 0
M  V30 6960 H 675.514 -1.7159 -2.45352 0
M  V30 6961 H 673.06 -0.82646 -1.17922 0
M  V30 6962 H 675.013 -0.0307522 -4.21389 0
M  V30 6963 H 673.737 0.679879 -3.19445 0
M  V30 6964 H 672.396 -1.44548 -3.369 0
M  V30 6965 H 672.044 0.405492 -5.01363 0
M  V30 6966 H 671.744 -1.18637 -5.75499 0
M  V30 6967 H 673.268 -0.319184 -6.09765 0
M  V30 6968 H 674.682 -2.40709 -5.20319 0
M  V30 6969 H 673.079 -3.18916 -5.08343 0
M  V30 6970 H 674.149 -3.16918 -3.67002 0
M  V30 6971 N 675.492 1.28418 -0.913599 0
M  V30 6972 C 676.455 2.25564 -0.406624 0
M  V30 6973 C 677.455 1.5387 0.466965 0
M  V30 6974 O 678.645 1.72094 0.270042 0
M  V30 6975 C 675.777 3.38339 0.417053 0
M  V30 6976 H 676.97 2.71926 -1.26477 0
M  V30 6977 H 674.523 1.40098 -0.692986 0
M  V30 6978 H 675.258 2.97339 1.29461 0
M  V30 6979 H 675.043 3.91542 -0.209102 0
M  V30 6980 H 676.533 4.10578 0.762602 0
M  V30 6981 N 676.97 0.677563 1.42291 0
M  V30 6982 C 677.88 0.000962654 2.346 0
M  V30 6983 C 678.896 -0.785833 1.55244 0
M  V30 6984 O 680.072 -0.727523 1.87801 0
M  V30 6985 C 677.137 -0.936746 3.33805 0
M  V30 6986 C 676.198 -0.144173 4.29058 0
M  V30 6987 C 675.431 -1.03722 5.23524 0
M  V30 6988 O 675.654 -2.27675 5.22992 0
M  V30 6989 O 674.588 -0.496542 5.99848 0
M  V30 6990 H 678.414 0.761397 2.94001 0
M  V30 6991 H 675.999 0.43781 1.42841 0
M  V30 6992 H 677.881 -1.47497 3.94744 0
M  V30 6993 H 676.556 -1.67698 2.76874 0
M  V30 6994 H 675.463 0.438224 3.71524 0
M  V30 6995 H 676.796 0.55701 4.89038 0
M  V30 6996 N 678.448 -1.51871 0.421078 0
M  V30 6997 C 679.696 -2.01539 -0.150492 0
M  V30 6998 C 680.017 -1.30803 -1.44623 0
M  V30 6999 O 679.287 -0.437568 -1.90951 0
M  V30 7000 H 677.867 -0.744698 -0.0586041 0
M  V30 7001 H 680.529 -1.8668 0.560059 0
M  V30 7002 H 679.625 -3.10264 -0.338068 0
M  V30 7003 N 679.926 -0.151884 -1.56866 0
M  V30 7004 C 680.858 0.817008 -2.14144 0
M  V30 7005 C 681.871 1.20735 -1.0921 0
M  V30 7006 O 683.06 1.15058 -1.36469 0
M  V30 7007 C 680.16 2.10844 -2.65326 0
M  V30 7008 C 679.333 1.88471 -3.94712 0
M  V30 7009 C 678.392 3.01649 -4.31155 0
M  V30 7010 O 677.418 2.73127 -4.9939 0
M  V30 7011 N 678.62 4.28947 -3.91132 0
M  V30 7012 H 681.385 0.327448 -2.97906 0
M  V30 7013 H 678.946 0.0315313 -1.61869 0
M  V30 7014 H 680.938 2.85616 -2.86715 0
M  V30 7015 H 679.508 2.51049 -1.86262 0
M  V30 7016 H 678.728 0.977088 -3.81899 0
M  V30 7017 H 680.016 1.70866 -4.79252 0
M  V30 7018 H 679.414 4.54986 -3.36161 0
M  V30 7019 H 677.971 5.00484 -4.17563 0
M  V30 7020 N 681.404 1.57128 0.121893 0
M  V30 7021 C 682.652 1.84335 0.828548 0
M  V30 7022 C 682.973 0.736632 1.80551 0
M  V30 7023 O 682.243 -0.23962 1.94429 0
M  V30 7024 H 680.823 0.680108 0.30897 0
M  V30 7025 H 683.485 1.9459 0.109906 0
M  V30 7026 H 682.581 2.80152 1.37554 0
M  V30 7027 N 682.882 -0.391992 1.52647 0
M  V30 7028 C 684.298 -0.731848 1.41831 0
M  V30 7029 C 684.498 -1.9423 0.536361 0
M  V30 7030 O 683.554 -2.52499 0.00866571 0
M  V30 7031 C 684.867 -0.969743 2.84634 0
M  V30 7032 C 686.415 -1.0714 2.94092 0
M  V30 7033 C 686.89 -1.34195 4.37899 0
M  V30 7034 N 688.381 -1.41023 4.41211 0
M  V30 7035 C 689.116 -1.63616 5.49561 0
M  V30 7036 N 688.612 -1.83699 6.68002 0
M  V30 7037 N 690.405 -1.65771 5.371 0
M  V30 7038 H 682.556 0.404547 2.08512 0
M  V30 7039 H 684.819 0.11879 0.940528 0
M  V30 7040 H 684.525 -0.152465 3.51369 0
M  V30 7041 H 684.399 -1.88523 3.26709 0
M  V30 7042 H 686.786 -1.87925 2.27526 0
M  V30 7043 H 686.867 -0.133887 2.55449 0
M  V30 7044 H 686.511 -0.539207 5.0503 0
M  V30 7045 H 686.441 -2.29226 4.74092 0
M  V30 7046 H 688.932 -1.27223 3.55841 0
M  V30 7047 H 689.245 -2.00437 7.46354 0
M  V30 7048 H 687.59 -1.8093 6.71036 0
M  V30 7049 H 690.781 -1.4963 4.43541 0
M  V30 7050 H 690.954 -1.83038 6.21612 0
M  V30 7051 N 684.36 -1.4356 -0.65026 0
M  V30 7052 C 685.771 -1.40324 -1.2315 0
M  V30 7053 C 686.122 -0.108812 -1.95898 0
M  V30 7054 O 685.247 0.79163 -2.01401 0
M  V30 7055 C 685.842 -2.54195 -2.23987 0
M  V30 7056 C 684.401 -2.54215 -2.77582 0
M  V30 7057 C 683.548 -2.31752 -1.5227 0
M  V30 7058 H 686.499 -1.52418 -0.442095 0
M  V30 7059 H 686.52 -2.25854 -3.0622 0
M  V30 7060 H 686.032 -3.48392 -1.71011 0
M  V30 7061 H 684.133 -1.63907 -3.34612 0
M  V30 7062 H 684.246 -3.52081 -3.24925 0
M  V30 7063 H 682.61 -1.80476 -1.79723 0
M  V30 7064 H 683.393 -3.28037 -1.01225 0
M  V30 7065 N 685.838 0.888903 -1.30139 0
M  V30 7066 C 686.768 2.01046 -1.18755 0
M  V30 7067 C 687.749 1.69916 -0.0791438 0
M  V30 7068 O 688.934 1.92445 -0.260498 0
M  V30 7069 C 686.064 3.36109 -0.874518 0
M  V30 7070 C 685.018 3.81486 -1.94043 0
M  V30 7071 C 684.344 5.13796 -1.48047 0
M  V30 7072 C 685.644 4.00637 -3.35093 0
M  V30 7073 H 687.338 2.10828 -2.12584 0
M  V30 7074 H 684.884 1.01298 -1.02346 0
M  V30 7075 H 686.837 4.14089 -0.781548 0
M  V30 7076 H 685.561 3.26449 0.0994519 0
M  V30 7077 H 684.22 3.05731 -2.02297 0
M  V30 7078 H 683.868 5.0056 -0.494878 0
M  V30 7079 H 683.568 5.45127 -2.19341 0
M  V30 7080 H 685.092 5.94305 -1.40121 0
M  V30 7081 H 686.506 4.69067 -3.2962 0
M  V30 7082 H 684.903 4.43339 -4.04438 0
M  V30 7083 H 685.973 3.0462 -3.77273 0
M  V30 7084 N 687.317 1.12792 1.10072 0
M  V30 7085 C 688.247 0.821688 2.18565 0
M  V30 7086 C 689.228 -0.21612 1.68721 0
M  V30 7087 O 690.413 -0.0764932 1.94049 0
M  V30 7088 C 687.543 0.279624 3.46172 0
M  V30 7089 C 686.497 1.25092 4.09312 0
M  V30 7090 C 685.823 0.568916 5.31665 0
M  V30 7091 C 687.123 2.60699 4.52585 0
M  V30 7092 H 688.817 1.72888 2.44438 0
M  V30 7093 H 686.363 0.832702 1.17482 0
M  V30 7094 H 688.316 0.053099 4.21367 0
M  V30 7095 H 687.04 -0.662929 3.19801 0
M  V30 7096 H 685.699 1.46332 3.36129 0
M  V30 7097 H 685.347 -0.378898 5.01571 0
M  V30 7098 H 685.047 1.21687 5.74862 0
M  V30 7099 H 686.571 0.351517 6.09587 0
M  V30 7100 H 687.985 2.43465 5.19035 0
M  V30 7101 H 686.382 3.21608 5.06644 0
M  V30 7102 H 687.452 3.1886 3.65317 0
M  V30 7103 N 688.795 -1.27931 0.920396 0
M  V30 7104 C 689.743 -2.29061 0.404191 0
M  V30 7105 C 690.737 -1.61615 -0.507634 0
M  V30 7106 O 691.943 -1.75765 -0.388144 0
M  V30 7107 H 688.318 -0.743594 0.112123 0
M  V30 7108 H 690.289 -2.70021 1.27008 0
M  V30 7109 C 689.038 -3.46088 -0.334466 0
M  V30 7110 H 688.361 -3.98194 0.35797 0
M  V30 7111 H 689.801 -4.18829 -0.660196 0
M  V30 7112 C 688.26 -2.99396 -1.54479 0
M  V30 7113 O 688.79 -3.02439 -2.64374 0
M  V30 7114 N 686.996 -2.54978 -1.39408 0
M  V30 7115 H 686.543 -2.52701 -0.500009 0
M  V30 7116 H 686.501 -2.24098 -2.20516 0
M  V30 7117 N 690.273 -0.685099 -1.4193 0
M  V30 7118 C 691.498 -0.218842 -2.06242 0
M  V30 7119 C 691.923 1.11923 -1.51178 0
M  V30 7120 O 691.281 1.69837 -0.634446 0
M  V30 7121 C 691.329 -0.175592 -3.60172 0
M  V30 7122 O 690.433 0.852776 -4.03487 0
M  V30 7123 H 689.774 -0.109531 -0.654904 0
M  V30 7124 H 692.304 -0.937013 -1.81882 0
M  V30 7125 H 692.314 -0.00291151 -4.08 0
M  V30 7126 H 690.989 -1.15222 -3.99621 0
M  V30 7127 H 689.566 0.650301 -3.67186 0
M  V30 7128 O 691.79 1.51061 -0.571204 0
M  V30 7129 H 692.481 1.93564 -0.0726397 0
M  V30 END ATOM
M  V30 BEGIN BOND
M  V30 END BOND
M  V30 END CTAB
M  END
$$$$
