drugbank_target|P18507 Gamma-aminobutyric acid receptor subunit gamma-2 (DB00186; DB00189; DB00228; DB00231; DB00237; DB00241; DB00252; DB00292; DB00306; DB00312; DB00349; DB00371; DB00402; DB00404; DB00463; DB00475; DB00543; DB00546; DB00555; DB00603; DB00628; DB00659; DB00683; DB00690; DB00753; DB00794; DB00801; DB00818; DB00829; DB00842; DB00897; DB01028; DB01043; DB01068; DB01107; DB01159; DB01189; DB01205; DB01215; DB01236; DB01437; DB01489; DB01511; DB01544; DB01545; DB01553; DB01558; DB01559; DB01587; DB01588; DB01589; DB01594; DB01595; DB01708; DB01956; DB09017; DB09118; DB09166; DB11582; DB11859; DB11901; DB12404; DB12537; DB13335; DB13437; DB13643; DB13837; DB13872; DB14028; DB14672; DB14715; DB14719; DB15489)
 OpenBabel12092120353D

  0  0  0     0  0            999 V3000
M  V30 BEGIN CTAB
M  V30 COUNTS 7594 7700 0 0 0
M  V30 BEGIN ATOM
M  V30 1 H -0.908 1.98254 -0.117106 0
M  V30 2 N 0 1.576 0 0
M  V30 3 C 0.933 2.03868 1.02534 0
M  V30 4 C 1.911 0.928543 1.3348 0
M  V30 5 O 3.095 1.19667 1.45644 0
M  V30 6 C 0.222 2.43627 2.35294 0
M  V30 7 C -0.732 3.65373 2.2001 0
M  V30 8 S 0.101 5.13292 1.52614 0
M  V30 9 C 1.257 5.56322 2.86805 0
M  V30 10 H 1.49 2.90518 0.631377 0
M  V30 11 H -0.977 1.52953 0.210867 0
M  V30 12 H 0.981 2.67203 3.11629 0
M  V30 13 H -0.358 1.57376 2.7183 0
M  V30 14 H -1.165 3.90944 3.18086 0
M  V30 15 H -1.563 3.418 1.51819 0
M  V30 16 H 0.729 5.58782 3.83104 0
M  V30 17 H 1.672 6.56266 2.65933 0
M  V30 18 H 2.08 4.83886 2.90714 0
M  V30 19 N 1.4781 -0.272755 1.55222 0
M  V30 20 C 2.7031 -1.02683 1.80197 0
M  V30 21 C 3.1281 -1.79142 0.573551 0
M  V30 22 O 2.4861 -1.74917 -0.476849 0
M  V30 23 C 2.5341 -1.9609 3.02624 0
M  V30 24 O 1.6381 -3.04863 2.77727 0
M  V30 25 H 0.9791 -0.293557 0.595584 0
M  V30 26 H 3.5091 -0.30159 2.02365 0
M  V30 27 H 3.5191 -2.38039 3.31363 0
M  V30 28 H 2.1941 -1.39851 3.91682 0
M  V30 29 H 0.7711 -2.67228 2.60084 0
M  V30 30 N 2.9562 -1.48159 -0.537278 0
M  V30 31 C 4.1812 -1.59707 -1.32319 0
M  V30 32 C 4.6062 -0.254859 -1.86365 0
M  V30 33 O 3.9642 0.772378 -1.64024 0
M  V30 34 C 4.0122 -2.6412 -2.45505 0
M  V30 35 O 3.1162 -2.20774 -3.48328 0
M  V30 36 H 2.4572 -0.535791 -0.392204 0
M  V30 37 H 4.9872 -1.94092 -0.647268 0
M  V30 38 H 4.9972 -2.85166 -2.91795 0
M  V30 39 H 3.6722 -3.61567 -2.05528 0
M  V30 40 H 2.2492 -2.09911 -3.08207 0
M  V30 41 N 4.4343 0.785586 -1.36625 0
M  V30 42 C 5.8453 1.36101 -1.27803 0
M  V30 43 C 6.1963 1.96035 0.0804875 0
M  V30 44 O 5.3213 1.92834 0.982042 0
M  V30 45 C 5.9163 2.47442 -2.31426 0
M  V30 46 C 4.4753 3.00789 -2.26281 0
M  V30 47 C 3.6223 1.73896 -2.15999 0
M  V30 48 H 6.5733 0.586928 -1.47448 0
M  V30 49 H 6.5943 3.2656 -1.95291 0
M  V30 50 H 6.1063 2.03791 -3.30289 0
M  V30 51 H 4.2073 3.48851 -1.30896 0
M  V30 52 H 4.3203 3.57343 -3.19128 0
M  V30 53 H 2.6843 1.9628 -1.62316 0
M  V30 54 H 3.4673 1.32368 -3.16755 0
M  V30 55 N 5.9124 1.20967 1.01018 0
M  V30 56 C 6.8604 0.961223 2.1181 0
M  V30 57 C 7.8544 -0.0897034 1.69162 0
M  V30 58 O 9.0604 0.0612271 1.79896 0
M  V30 59 H 5.4354 0.29355 0.692338 0
M  V30 60 H 7.4064 1.90178 2.29946 0
M  V30 61 C 6.1554 0.536854 3.4353 0
M  V30 62 H 5.4784 1.33713 3.76777 0
M  V30 63 H 6.9184 0.402286 4.22087 0
M  V30 64 C 5.3774 -0.751574 3.2841 0
M  V30 65 O 5.9074 -1.80841 3.58691 0
M  V30 66 N 4.1134 -0.716079 2.81639 0
M  V30 67 H 3.6604 0.144236 2.57196 0
M  V30 68 H 3.6184 -1.57847 2.71904 0
M  V30 69 N 7.3905 -1.2043 1.01659 0
M  V30 70 C 8.6395 -1.89118 0.701237 0
M  V30 71 C 8.9525 -1.79705 -0.772358 0
M  V30 72 O 10.1585 -2.43528 -1.20026 0
M  V30 73 C 8.6145 -3.39168 1.20388 0
M  V30 74 C 8.2225 -3.57166 2.70438 0
M  V30 75 C 9.9665 -4.1341 0.963953 0
M  V30 76 C 7.8735 -5.01042 3.14183 0
M  V30 77 H 6.8035 -0.708267 0.2586 0
M  V30 78 H 9.4545 -1.36239 1.22927 0
M  V30 79 H 7.8365 -3.91369 0.603824 0
M  V30 80 H 9.0105 -3.15351 3.35992 0
M  V30 81 H 7.3255 -2.96294 2.92572 0
M  V30 82 H 9.9225 -5.19491 1.26621 0
M  V30 83 H 10.2655 -4.16181 -0.099578 0
M  V30 84 H 10.7985 -3.67309 1.52738 0
M  V30 85 H 7.5375 -5.03426 4.19812 0
M  V30 86 H 7.0575 -5.43668 2.53348 0
M  V30 87 H 8.7365 -5.69623 3.0682 0
M  V30 88 N 8.8686 -0.792821 -1.36206 0
M  V30 89 C 10.1146 -0.376415 -1.99887 0
M  V30 90 C 10.4696 1.04127 -1.61788 0
M  V30 91 O 9.7626 1.71004 -0.864193 0
M  V30 92 C 9.9566 -0.481501 -3.54142 0
M  V30 93 C 9.7856 -1.90786 -4.07223 0
M  V30 94 C 8.5556 -2.53322 -4.37214 0
M  V30 95 C 10.7536 -2.87048 -4.26741 0
M  V30 96 N 8.7356 -3.8751 -4.7614 0
M  V30 97 C 10.1066 -4.06077 -4.6851 0
M  V30 98 C 12.1616 -2.8406 -4.08918 0
M  V30 99 C 10.8646 -5.22532 -4.94321 0
M  V30 100 C 12.8906 -3.99705 -4.35878 0
M  V30 101 C 12.2526 -5.1748 -4.77906 0
M  V30 102 H 8.3516 -0.185226 -0.759747 0
M  V30 103 H 10.9356 -1.03114 -1.65153 0
M  V30 104 H 9.1066 0.143154 -3.88136 0
M  V30 105 H 10.8386 -0.0410128 -4.04679 0
M  V30 106 H 7.5936 -2.04777 -4.2704 0
M  V30 107 H 8.0176 -4.5656 -4.99882 0
M  V30 108 H 12.6596 -1.94165 -3.75579 0
M  V30 109 H 10.3776 -6.1301 -5.2654 0
M  V30 110 H 13.9636 -3.98758 -4.23655 0
M  V30 111 H 12.8436 -6.05478 -4.98363 0
M  V30 112 N 10.3467 1.47872 -0.545128 0
M  V30 113 C 11.5717 2.07391 -0.0190611 0
M  V30 114 C 11.9967 1.39688 1.25971 0
M  V30 115 O 11.3547 0.467816 1.7516 0
M  V30 116 C 11.4027 3.60188 0.172335 0
M  V30 117 O 10.5067 3.9339 1.23766 0
M  V30 118 H 9.8477 0.662411 -0.0459059 0
M  V30 119 H 12.3777 1.90066 -0.757365 0
M  V30 120 H 12.3877 4.06129 0.390305 0
M  V30 121 H 11.0627 4.08865 -0.761725 0
M  V30 122 H 9.6397 3.5921 1.00114 0
M  V30 123 N 11.8248 0.280983 1.55075 0
M  V30 124 C 13.0528 -0.337293 2.04132 0
M  V30 125 C 13.4678 -1.4903 1.15912 0
M  V30 126 O 12.8248 -1.81606 0.180459 0
M  V30 127 C 12.8758 -0.812706 3.52246 0
M  V30 128 O 12.5968 0.294387 4.3711 0
M  V30 129 C 14.0978 -1.4982 4.17216 0
M  V30 130 H 11.3178 -0.0761638 0.666663 0
M  V30 131 H 13.8618 0.414787 2.00249 0
M  V30 132 H 12.0168 -1.51486 3.56554 0
M  V30 133 H 12.4308 -0.0721325 5.2445 0
M  V30 134 H 13.9048 -1.7822 5.22438 0
M  V30 135 H 14.3818 -2.43168 3.65741 0
M  V30 136 H 14.9878 -0.839742 4.16927 0
M  V30 137 N 13.3029 -1.57598 0.00835791 0
M  V30 138 C 14.5509 -1.90551 -0.6734 0
M  V30 139 C 14.8719 -0.883301 -1.73847 0
M  V30 140 O 14.1419 0.0781442 -1.95744 0
M  V30 141 H 12.7219 -0.703312 -0.251717 0
M  V30 142 H 15.3839 -1.94833 0.0512592 0
M  V30 143 H 14.4799 -2.9056 -1.13935 0
M  V30 144 N 14.781 0.264519 -1.55364 0
M  V30 145 C 16.006 1.01726 -1.80739 0
M  V30 146 C 16.431 1.78836 -0.583044 0
M  V30 147 O 15.789 1.75167 0.467566 0
M  V30 148 C 15.837 1.94482 -3.03659 0
M  V30 149 O 14.941 3.03386 -2.7934 0
M  V30 150 H 14.282 0.290395 -0.597132 0
M  V30 151 H 16.812 0.290854 -2.02522 0
M  V30 152 H 16.822 2.36278 -3.32621 0
M  V30 153 H 15.497 1.37772 -3.92418 0
M  V30 154 H 14.074 2.65844 -2.61498 0
M  V30 155 N 16.2591 1.48442 0.529413 0
M  V30 156 C 17.4841 1.60406 1.31471 0
M  V30 157 C 17.9091 0.264738 1.86228 0
M  V30 158 O 17.2671 -0.763668 1.64432 0
M  V30 159 C 17.3151 2.65419 2.44101 0
M  V30 160 O 16.4191 2.22618 3.47153 0
M  V30 161 H 15.7601 0.537863 0.389357 0
M  V30 162 H 18.2901 1.94432 0.636965 0
M  V30 163 H 18.3001 2.86709 2.90279 0
M  V30 164 H 16.9751 3.62652 2.03608 0
M  V30 165 H 15.5521 2.11543 3.0709 0
M  V30 166 N 17.7372 -0.778329 1.37039 0
M  V30 167 C 18.9832 -1.53892 1.32079 0
M  V30 168 C 19.3162 -1.9396 -0.0965386 0
M  V30 169 O 18.5912 -1.63568 -1.05242 0
M  V30 170 C 18.8742 -2.80847 2.25382 0
M  V30 171 C 18.7272 -2.47076 3.75864 0
M  V30 172 C 20.0462 -3.82741 2.1725 0
M  V30 173 H 17.1652 -0.558303 0.48111 0
M  V30 174 H 19.8072 -0.893397 1.67685 0
M  V30 175 H 17.9572 -3.35931 1.95148 0
M  V30 176 H 19.6292 -1.97957 4.16666 0
M  V30 177 H 17.8722 -1.79863 3.94755 0
M  V30 178 H 18.5432 -3.37798 4.36574 0
M  V30 179 H 21.0192 -3.37133 2.43887 0
M  V30 180 H 19.8952 -4.69303 2.84686 0
M  V30 181 H 20.1562 -4.2652 1.16331 0
M  V30 182 N 19.2153 -1.21501 -1.00376 0
M  V30 183 C 20.4453 -1.05746 -1.77486 0
M  V30 184 C 20.8533 0.395655 -1.85017 0
M  V30 185 O 20.1963 1.28626 -1.31152 0
M  V30 186 C 20.2583 -1.58092 -3.22873 0
M  V30 187 C 19.9223 -3.06568 -3.38917 0
M  V30 188 C 20.9193 -4.04106 -3.271 0
M  V30 189 C 18.6043 -3.45799 -3.64319 0
M  V30 190 C 20.5983 -5.38862 -3.40451 0
M  V30 191 C 18.2853 -4.80707 -3.77311 0
M  V30 192 C 19.2833 -5.77047 -3.65384 0
M  V30 193 O 18.9713 -7.09507 -3.77961 0
M  V30 194 H 18.7033 -0.371778 -0.564586 0
M  V30 195 H 21.2573 -1.61319 -1.27143 0
M  V30 196 H 19.4873 -0.969163 -3.74358 0
M  V30 197 H 21.1763 -1.38162 -3.81662 0
M  V30 198 H 21.9423 -3.75141 -3.07399 0
M  V30 199 H 17.8213 -2.71344 -3.72684 0
M  V30 200 H 21.3653 -6.14041 -3.31058 0
M  V30 201 H 17.2623 -5.09357 -3.96517 0
M  V30 202 H 18.0303 -7.16935 -3.94901 0
M  V30 203 N 20.6934 1.19889 -1.02296 0
M  V30 204 C 21.9184 1.9393 -0.735237 0
M  V30 205 C 22.3434 1.74639 0.698782 0
M  V30 206 O 21.7014 1.04481 1.48167 0
M  V30 207 C 21.7494 3.43916 -1.08417 0
M  V30 208 O 20.8534 4.11917 -0.199446 0
M  V30 209 H 20.1944 0.605645 -0.272196 0
M  V30 210 H 22.7244 1.52137 -1.36804 0
M  V30 211 H 22.7344 3.9456 -1.03856 0
M  V30 212 H 21.4094 3.5728 -2.12894 0
M  V30 213 H 19.9864 3.71666 -0.303136 0
M  V30 214 N 22.1715 0.800033 1.35784 0
M  V30 215 C 23.3995 0.389606 2.03199 0
M  V30 216 C 23.8145 -0.997375 1.60306 0
M  V30 217 O 23.1715 -1.64154 0.797481 0
M  V30 218 C 23.2225 0.455855 3.58614 0
M  V30 219 O 22.9435 1.78815 3.99946 0
M  V30 220 C 24.4445 0.0374032 4.43284 0
M  V30 221 H 21.6645 0.159132 0.651857 0
M  V30 222 H 24.2085 1.08183 1.73541 0
M  V30 223 H 22.3635 -0.188057 3.86943 0
M  V30 224 H 22.7775 1.74636 4.94573 0
M  V30 225 H 24.2515 0.134882 5.51835 0
M  V30 226 H 24.7285 -1.01651 4.27275 0
M  V30 227 H 25.3345 0.654215 4.20238 0
M  V30 228 N 23.6496 -1.47581 0.552962 0
M  V30 229 C 25.0606 -1.86324 0.118463 0
M  V30 230 C 25.4116 -1.46006 -1.3106 0
M  V30 231 O 24.5366 -0.861182 -1.98526 0
M  V30 232 C 25.1316 -3.3816 0.20821 0
M  V30 233 C 23.6906 -3.7601 -0.171226 0
M  V30 234 C 22.8376 -2.71634 0.557686 0
M  V30 235 H 25.7886 -1.39159 0.762928 0
M  V30 236 H 25.8096 -3.76141 -0.574278 0
M  V30 237 H 25.3216 -3.67473 1.24841 0
M  V30 238 H 23.4226 -3.52313 -1.21269 0
M  V30 239 H 23.5356 -4.78745 0.184379 0
M  V30 240 H 21.8996 -2.547 0.00125792 0
M  V30 241 H 22.6826 -3.0379 1.59896 0
M  V30 242 N 25.1277 -0.289203 -1.54924 0
M  V30 243 C 26.3737 0.323998 -2.00195 0
M  V30 244 C 26.7067 1.54441 -1.17735 0
M  V30 245 O 25.9817 1.92875 -0.250878 0
M  V30 246 C 26.2647 0.692276 -3.53383 0
M  V30 247 C 26.1177 -0.536457 -4.46589 0
M  V30 248 C 27.4367 1.52335 -4.12895 0
M  V30 249 H 24.5557 0.116289 -0.727768 0
M  V30 250 H 27.1977 -0.398954 -1.85764 0
M  V30 251 H 25.3477 1.30822 -3.65811 0
M  V30 252 H 27.0197 -1.17499 -4.46085 0
M  V30 253 H 25.2627 -1.17192 -4.1767 0
M  V30 254 H 25.9337 -0.234806 -5.515 0
M  V30 255 H 28.4097 1.00302 -4.0383 0
M  V30 256 H 27.2857 1.74982 -5.20262 0
M  V30 257 H 27.5467 2.50886 -3.64018 0
M  V30 258 N 26.6058 1.57591 -0.0167156 0
M  V30 259 C 27.8528 1.91283 0.664597 0
M  V30 260 C 28.1808 0.891949 1.72842 0
M  V30 261 O 27.4358 -0.100931 1.9544 0
M  V30 262 C 27.7348 3.3172 1.33029 0
M  V30 263 C 27.4008 4.4914 0.398047 0
M  V30 264 C 26.0628 4.80992 0.141421 0
M  V30 265 C 28.4148 5.20634 -0.242825 0
M  V30 266 C 25.7428 5.81703 -0.764092 0
M  V30 267 C 28.0948 6.22311 -1.13632 0
M  V30 268 C 26.7588 6.52611 -1.40196 0
M  V30 269 H 26.0288 0.699956 0.243193 0
M  V30 270 H 28.6758 1.9135 -0.0758267 0
M  V30 271 H 26.9808 3.27856 2.14517 0
M  V30 272 H 28.6778 3.55055 1.86379 0
M  V30 273 H 25.2678 4.24262 0.608238 0
M  V30 274 H 29.4518 4.96267 -0.0576019 0
M  V30 275 H 24.7078 6.03532 -0.977732 0
M  V30 276 H 28.8818 6.76834 -1.63917 0
M  V30 277 H 26.5088 7.30467 -2.10529 0
M  V30 278 N 28.0839 -0.256276 1.55502 0
M  V30 279 C 29.3089 -1.00766 1.81276 0
M  V30 280 C 29.7339 -1.78524 0.59252 0
M  V30 281 O 29.0919 -1.75413 -0.45827 0
M  V30 282 C 29.1399 -1.92869 3.04687 0
M  V30 283 O 28.2439 -3.019 2.80945 0
M  V30 284 H 27.5849 -0.287224 0.598664 0
M  V30 285 H 30.1149 -0.280109 2.02674 0
M  V30 286 H 30.1249 -2.34511 3.33869 0
M  V30 287 H 28.7999 -1.35689 3.93143 0
M  V30 288 H 27.3769 -2.64454 2.62904 0
M  V30 289 N 29.562 -1.4872 -0.521534 0
M  V30 290 C 30.494 -1.59968 -1.64143 0
M  V30 291 C 31.507 -0.483463 -1.55456 0
M  V30 292 O 32.696 -0.75467 -1.61762 0
M  V30 293 C 29.796 -1.52127 -3.02838 0
M  V30 294 C 28.969 -2.78932 -3.36921 0
M  V30 295 C 28.028 -2.64428 -4.54933 0
M  V30 296 O 27.054 -3.38331 -4.57735 0
M  V30 297 N 28.256 -1.74606 -5.53618 0
M  V30 298 H 31.021 -2.56548 -1.54929 0
M  V30 299 H 28.582 -1.45551 -0.708988 0
M  V30 300 H 30.574 -1.40106 -3.79674 0
M  V30 301 H 29.144 -0.634868 -3.06085 0
M  V30 302 H 28.364 -3.05455 -2.4918 0
M  V30 303 H 29.652 -3.63041 -3.56481 0
M  V30 304 H 29.05 -1.13782 -5.54139 0
M  V30 305 H 27.607 -1.6852 -6.29638 0
M  V30 306 N 31.0401 0.771051 -1.3745 0
M  V30 307 C 31.9871 1.88435 -1.3327 0
M  V30 308 C 32.9571 1.64914 -0.198136 0
M  V30 309 O 34.1421 1.86821 -0.387606 0
M  V30 310 C 31.2821 3.25509 -1.14622 0
M  V30 311 C 30.3951 3.60979 -2.37314 0
M  V30 312 C 29.5301 4.87265 -2.11533 0
M  V30 313 C 28.5691 5.15469 -3.30088 0
M  V30 314 N 27.7061 6.32944 -3.03853 0
M  V30 315 H 32.5461 1.91344 -2.28455 0
M  V30 316 H 30.0831 0.935466 -1.13523 0
M  V30 317 H 32.0411 4.04582 -1.01831 0
M  V30 318 H 30.6711 3.21974 -0.230837 0
M  V30 319 H 29.7231 2.76885 -2.60842 0
M  V30 320 H 31.0351 3.77759 -3.25729 0
M  V30 321 H 30.1891 5.74244 -1.95777 0
M  V30 322 H 28.9281 4.7259 -1.20457 0
M  V30 323 H 27.9331 4.26966 -3.46382 0
M  V30 324 H 29.1581 5.32052 -4.22016 0
M  V30 325 H 27.1041 6.19625 -2.15407 0
M  V30 326 H 27.0211 6.50143 -3.85812 0
M  V30 327 H 28.2891 7.22857 -2.91716 0
M  V30 328 N 32.5182 1.22032 0.997298 0
M  V30 329 C 33.4512 0.929735 2.08401 0
M  V30 330 C 34.4292 -0.125681 1.62114 0
M  V30 331 O 35.6132 0.00495409 1.88499 0
M  V30 332 C 32.7402 0.397488 3.3636 0
M  V30 333 C 31.7862 1.4369 4.01566 0
M  V30 334 S 32.6192 3.00874 4.42984 0
M  V30 335 C 33.7752 2.49276 5.74119 0
M  V30 336 H 34.0082 1.84998 2.32729 0
M  V30 337 H 31.5412 1.0509 1.13117 0
M  V30 338 H 33.4992 0.0969846 4.10385 0
M  V30 339 H 32.1602 -0.501571 3.10069 0
M  V30 340 H 31.3532 1.01427 4.93689 0
M  V30 341 H 30.9552 1.68588 3.33847 0
M  V30 342 H 33.2472 1.90242 6.50242 0
M  V30 343 H 34.1902 3.39872 6.21203 0
M  V30 344 H 34.5982 1.90714 5.31308 0
M  V30 345 N 33.9963 -1.19345 1.0293 0
M  V30 346 C 35.2243 -1.92997 0.745644 0
M  V30 347 C 35.6393 -1.75519 -0.695589 0
M  V30 348 O 34.9963 -1.07737 -1.47306 0
M  V30 349 C 35.0473 -3.44741 1.08792 0
M  V30 350 O 34.7683 -3.61658 2.47256 0
M  V30 351 C 36.2693 -4.35515 0.827129 0
M  V30 352 H 33.4893 -0.613042 0.272801 0
M  V30 353 H 36.0333 -1.51473 1.3739 0
M  V30 354 H 34.1883 -3.84097 0.504832 0
M  V30 355 H 34.6023 -4.55514 2.60015 0
M  V30 356 H 36.0763 -5.40589 1.11658 0
M  V30 357 H 36.5533 -4.38552 -0.238436 0
M  V30 358 H 37.1593 -4.01841 1.39297 0
M  V30 359 N 35.4744 -0.807222 -1.35358 0
M  V30 360 C 36.7204 -0.388463 -1.99045 0
M  V30 361 C 37.0534 1.04184 -1.63888 0
M  V30 362 O 36.3284 1.72292 -0.902535 0
M  V30 363 C 36.6114 -0.572783 -3.55515 0
M  V30 364 C 36.4644 -2.04807 -4.00468 0
M  V30 365 C 37.7834 0.00114064 -4.401 0
M  V30 366 H 34.9024 -0.142619 -0.723069 0
M  V30 367 H 37.5444 -1.01687 -1.60498 0
M  V30 368 H 35.6944 -0.0378425 -3.88482 0
M  V30 369 H 37.3664 -2.64544 -3.77908 0
M  V30 370 H 35.6094 -2.54427 -3.51353 0
M  V30 371 H 36.2804 -2.12792 -5.09337 0
M  V30 372 H 38.7564 -0.455716 -4.13597 0
M  V30 373 H 37.6324 -0.157737 -5.48673 0
M  V30 374 H 37.8934 1.09488 -4.28328 0
M  V30 375 N 36.9525 1.47285 -0.560781 0
M  V30 376 C 38.1985 2.03347 -0.0463654 0
M  V30 377 C 38.5535 1.42702 1.2905 0
M  V30 378 O 37.8465 0.574619 1.8278 0
M  V30 379 C 38.0405 3.57258 0.100784 0
M  V30 380 C 37.8695 4.32827 -1.22027 0
M  V30 381 C 36.6395 4.72588 -1.78854 0
M  V30 382 C 38.8375 4.67739 -2.13834 0
M  V30 383 N 36.8195 5.32816 -3.04927 0
M  V30 384 C 38.1905 5.28307 -3.24487 0
M  V30 385 C 40.2455 4.49667 -2.13784 0
M  V30 386 C 38.9485 5.72711 -4.35194 0
M  V30 387 C 40.9745 4.95073 -3.23506 0
M  V30 388 C 40.3365 5.55693 -4.32879 0
M  V30 389 H 36.4355 0.779755 -0.0592166 0
M  V30 390 H 39.0195 1.79723 -0.748857 0
M  V30 391 H 37.1905 3.80642 0.772404 0
M  V30 392 H 38.9225 3.9996 0.617589 0
M  V30 393 H 35.6775 4.54656 -1.32609 0
M  V30 394 H 36.1015 5.67471 -3.69197 0
M  V30 395 H 40.7435 4.02154 -1.30507 0
M  V30 396 H 38.4615 6.19214 -5.1923 0
M  V30 397 H 42.0475 4.82859 -3.24559 0
M  V30 398 H 40.9275 5.90188 -5.1638 0
M  V30 399 N 38.4306 0.297415 1.54768 0
M  V30 400 C 39.6796 -0.313669 1.99246 0
M  V30 401 C 39.9926 -1.55281 1.18942 0
M  V30 402 O 41.1986 -2.23825 1.5367 0
M  V30 403 C 39.6546 -0.609407 3.54703 0
M  V30 404 C 39.2626 0.611192 4.43811 0
M  V30 405 C 41.0066 -1.18188 4.07715 0
M  V30 406 C 38.9136 0.288805 5.90694 0
M  V30 407 H 37.8436 -0.120979 0.744231 0
M  V30 408 H 40.4946 0.40556 1.78962 0
M  V30 409 H 38.8766 -1.38813 3.70873 0
M  V30 410 H 40.0506 1.3875 4.39414 0
M  V30 411 H 38.3656 1.10205 4.01552 0
M  V30 412 H 40.9626 -1.43727 5.15021 0
M  V30 413 H 41.3056 -2.12299 3.58099 0
M  V30 414 H 41.8386 -0.464944 3.95074 0
M  V30 415 H 38.5776 1.19838 6.44453 0
M  V30 416 H 38.0976 -0.450305 5.98107 0
M  V30 417 H 39.7766 -0.110933 6.46905 0
M  V30 418 N 39.9087 -1.5758 0.0250728 0
M  V30 419 C 40.8387 -2.13007 -0.956575 0
M  V30 420 C 41.8197 -1.0452 -1.342 0
M  V30 421 O 43.0047 -1.32332 -1.42133 0
M  V30 422 C 40.1347 -2.65386 -2.24026 0
M  V30 423 C 39.0887 -3.78623 -1.99571 0
M  V30 424 C 38.4147 -4.17414 -3.3417 0
M  V30 425 C 39.7147 -5.04867 -1.33814 0
M  V30 426 H 41.4087 -2.9528 -0.494991 0
M  V30 427 H 38.9547 -1.42042 -0.236651 0
M  V30 428 H 40.9077 -3.02794 -2.93076 0
M  V30 429 H 39.6317 -1.80268 -2.72343 0
M  V30 430 H 38.2907 -3.41646 -1.32941 0
M  V30 431 H 37.9387 -3.29284 -3.80238 0
M  V30 432 H 37.6387 -4.93719 -3.18615 0
M  V30 433 H 39.1627 -4.57402 -4.04495 0
M  V30 434 H 40.5767 -5.39888 -1.92857 0
M  V30 435 H 38.9737 -5.86144 -1.28669 0
M  V30 436 H 40.0437 -4.83904 -0.310561 0
M  V30 437 N 41.3868 0.248026 -1.55636 0
M  V30 438 C 42.3168 1.31079 -1.93237 0
M  V30 439 C 43.2978 1.50264 -0.797174 0
M  V30 440 O 44.4828 1.62891 -1.05737 0
M  V30 441 C 41.6128 2.66575 -2.22609 0
M  V30 442 C 40.5668 2.62087 -3.3837 0
M  V30 443 C 39.8928 4.01369 -3.53281 0
M  V30 444 C 41.1928 2.19171 -4.7409 0
M  V30 445 H 42.8868 0.998556 -2.82257 0
M  V30 446 H 40.4328 0.47891 -1.35803 0
M  V30 447 H 42.3858 3.41057 -2.47503 0
M  V30 448 H 41.1098 2.99432 -1.30414 0
M  V30 449 H 39.7688 1.90063 -3.13483 0
M  V30 450 H 39.4168 4.31489 -2.58508 0
M  V30 451 H 39.1168 3.99254 -4.31127 0
M  V30 452 H 40.6408 4.77552 -3.80495 0
M  V30 453 H 42.0548 2.83384 -4.98363 0
M  V30 454 H 40.4518 2.2817 -5.5503 0
M  V30 455 H 41.5218 1.14336 -4.71227 0
M  V30 456 N 42.8649 1.48995 0.513639 0
M  V30 457 C 43.7949 1.67636 1.62544 0
M  V30 458 C 44.7759 0.525087 1.61793 0
M  V30 459 O 45.9609 0.759502 1.78732 0
M  V30 460 C 43.0909 1.73114 3.01079 0
M  V30 461 C 42.0449 2.87905 3.16693 0
M  V30 462 C 41.3709 2.78486 4.56453 0
M  V30 463 C 42.6709 4.29005 2.97913 0
M  V30 464 H 44.3649 2.60716 1.47198 0
M  V30 465 H 41.9109 1.25465 0.706714 0
M  V30 466 H 43.8639 1.84742 3.78746 0
M  V30 467 H 42.5879 0.766241 3.17484 0
M  V30 468 H 41.2469 2.75859 2.41448 0
M  V30 469 H 40.8949 1.7993 4.69717 0
M  V30 470 H 40.5949 3.55523 4.67843 0
M  V30 471 H 42.1189 2.92104 5.36197 0
M  V30 472 H 43.5329 4.41798 3.65359 0
M  V30 473 H 41.9299 5.07166 3.20785 0
M  V30 474 H 42.9999 4.44329 1.94165 0
M  V30 475 N 44.343 -0.763751 1.37857 0
M  V30 476 C 45.273 -1.89103 1.36975 0
M  V30 477 C 46.254 -1.68439 0.237152 0
M  V30 478 O 47.439 -1.8918 0.438713 0
M  V30 479 C 44.569 -3.26496 1.18395 0
M  V30 480 C 43.523 -3.61741 2.28751 0
M  V30 481 C 42.849 -4.97762 1.95286 0
M  V30 482 C 44.149 -3.67665 3.70972 0
M  V30 483 H 45.843 -1.90099 2.31307 0
M  V30 484 H 43.389 -0.91319 1.11341 0
M  V30 485 H 45.342 -4.05003 1.16406 0
M  V30 486 H 44.066 -3.25955 0.205215 0
M  V30 487 H 42.725 -2.85547 2.29909 0
M  V30 488 H 42.373 -4.93769 0.959221 0
M  V30 489 H 42.073 -5.22313 2.69189 0
M  V30 490 H 43.597 -5.7866 1.94898 0
M  V30 491 H 45.011 -4.36307 3.719 0
M  V30 492 H 43.408 -4.03718 4.43995 0
M  V30 493 H 44.478 -2.68134 4.0402 0
M  V30 494 N 45.8211 -1.22559 -0.990812 0
M  V30 495 C 47.0461 -1.07862 -1.77145 0
M  V30 496 C 47.4711 0.366447 -1.84496 0
M  V30 497 O 46.8291 1.26478 -1.29896 0
M  V30 498 C 46.8771 -1.69686 -3.18181 0
M  V30 499 O 45.9811 -0.951946 -4.01263 0
M  V30 500 H 45.3221 -0.378712 -0.545411 0
M  V30 501 H 47.8521 -1.62399 -1.2445 0
M  V30 502 H 47.8621 -1.74496 -3.68802 0
M  V30 503 H 46.5371 -2.74841 -3.12146 0
M  V30 504 H 45.1141 -0.980011 -3.59792 0
M  V30 505 N 47.2992 1.18797 -1.03562 0
M  V30 506 C 48.2292 2.24472 -0.643019 0
M  V30 507 C 49.2102 1.66433 0.351283 0
M  V30 508 O 50.3952 1.92803 0.232505 0
M  V30 509 C 47.5252 3.473 4.24935e-05 0
M  V30 510 C 46.4792 4.18055 -0.917257 0
M  V30 511 C 45.8052 5.34519 -0.138941 0
M  V30 512 C 47.1052 4.72109 -2.23407 0
M  V30 513 H 48.7992 2.57566 -1.52643 0
M  V30 514 H 46.3452 1.23806 -0.735394 0
M  V30 515 H 48.2982 4.20426 0.286383 0
M  V30 516 H 47.0222 3.13424 0.918299 0
M  V30 517 H 45.6812 3.46821 -1.1879 0
M  V30 518 H 45.3292 4.96891 0.781562 0
M  V30 519 H 45.0292 5.82794 -0.750005 0
M  V30 520 H 46.5532 6.10438 0.1405 0
M  V30 521 H 47.9672 5.36955 -2.00879 0
M  V30 522 H 46.3642 5.30897 -2.79765 0
M  V30 523 H 47.4342 3.89807 -2.88407 0
M  V30 524 N 48.7773 0.814389 1.34928 0
M  V30 525 C 50.0073 0.41054 2.0248 0
M  V30 526 C 50.4153 -0.985625 1.61499 0
M  V30 527 O 49.7583 -1.64781 0.811976 0
M  V30 528 C 49.8203 0.423384 3.56998 0
M  V30 529 C 49.4843 1.77141 4.21272 0
M  V30 530 C 50.4813 2.73093 4.42398 0
M  V30 531 C 48.1663 2.05755 4.58225 0
M  V30 532 C 50.1603 3.95838 4.9959 0
M  V30 533 C 47.8473 3.28762 5.1513 0
M  V30 534 C 48.8453 4.23621 5.35755 0
M  V30 535 O 48.5333 5.44456 5.91458 0
M  V30 536 H 48.2653 0.163997 0.655806 0
M  V30 537 H 50.8193 1.10155 1.73364 0
M  V30 538 H 49.0493 -0.324276 3.85338 0
M  V30 539 H 50.7383 0.0407683 4.0588 0
M  V30 540 H 51.5043 2.5228 4.14222 0
M  V30 541 H 47.3833 1.32727 4.4148 0
M  V30 542 H 50.9273 4.69891 5.15605 0
M  V30 543 H 46.8243 3.49443 5.42734 0
M  V30 544 H 47.5923 5.4586 6.09901 0
M  V30 545 N 50.2554 -1.46986 0.568584 0
M  V30 546 C 51.6664 -1.86188 0.138219 0
M  V30 547 C 52.0174 -1.47388 -1.29504 0
M  V30 548 O 51.1424 -0.88219 -1.97602 0
M  V30 549 C 51.7374 -3.3792 0.244065 0
M  V30 550 C 50.2964 -3.76171 -0.131335 0
M  V30 551 C 49.4434 -2.71027 0.586465 0
M  V30 552 H 52.3944 -1.38342 0.777645 0
M  V30 553 H 52.4154 -3.76729 -0.534351 0
M  V30 554 H 51.9274 -3.66128 1.28731 0
M  V30 555 H 50.0284 -3.5358 -1.17526 0
M  V30 556 H 50.1414 -4.78523 0.235146 0
M  V30 557 H 48.5054 -2.54684 0.0282722 0
M  V30 558 H 49.2884 -3.02077 1.63109 0
M  V30 559 N 51.7335 -0.305618 -1.54608 0
M  V30 560 C 52.9815 0.301701 -1.99835 0
M  V30 561 C 53.3025 1.54054 -1.19551 0
M  V30 562 O 52.5725 1.93702 -0.292658 0
M  V30 563 H 51.1525 0.114468 -0.738178 0
M  V30 564 H 53.8145 -0.418016 -1.90364 0
M  V30 565 H 52.9105 0.570548 -3.06841 0
M  V30 566 N 53.2116 1.57565 -0.0334293 0
M  V30 567 C 54.4586 1.91978 0.644272 0
M  V30 568 C 54.7866 0.910231 1.71887 0
M  V30 569 O 54.0416 -0.0801961 1.95536 0
M  V30 570 C 54.3406 3.33112 1.29504 0
M  V30 571 C 54.0066 4.49537 0.350388 0
M  V30 572 C 52.6686 4.81115 0.0903974 0
M  V30 573 C 55.0206 5.20347 -0.298032 0
M  V30 574 C 52.3486 5.8086 -0.825746 0
M  V30 575 C 54.7006 6.2107 -1.20226 0
M  V30 576 C 53.3646 6.51088 -1.4711 0
M  V30 577 H 52.6346 0.702496 0.235756 0
M  V30 578 H 55.2816 1.91259 -0.0961176 0
M  V30 579 H 53.5866 3.30113 2.11028 0
M  V30 580 H 55.2836 3.57011 1.82603 0
M  V30 581 H 51.8736 4.24883 0.563205 0
M  V30 582 H 56.0576 4.96178 -0.110234 0
M  V30 583 H 51.3136 6.02461 -1.04169 0
M  V30 584 H 55.4876 6.75057 -1.71086 0
M  V30 585 H 53.1146 7.28193 -2.18264 0
M  V30 586 N 54.6897 -0.239769 1.55765 0
M  V30 587 C 55.9177 -0.98417 1.81994 0
M  V30 588 C 56.3327 -1.7867 0.610124 0
M  V30 589 O 55.6897 -1.77571 -0.421271 0
M  V30 590 C 55.7407 -1.91635 3.06526 0
M  V30 591 O 55.4617 -1.14629 4.22838 0
M  V30 592 C 56.9627 -2.77616 3.45607 0
M  V30 593 H 54.1827 -0.28928 0.605441 0
M  V30 594 H 56.7267 -0.260499 2.02834 0
M  V30 595 H 54.8817 -2.5942 2.87715 0
M  V30 596 H 55.2957 -1.77745 4.93464 0
M  V30 597 H 56.7697 -3.38759 4.35828 0
M  V30 598 H 57.2467 -3.4909 2.6652 0
M  V30 599 H 57.8527 -2.15271 3.66795 0
M  V30 600 N 56.1678 -1.49265 -0.50573 0
M  V30 601 C 57.3928 -1.62478 -1.28902 0
M  V30 602 C 57.8178 -0.294332 -1.85783 0
M  V30 603 O 57.1758 0.737412 -1.65626 0
M  V30 604 C 57.2238 -2.69268 -2.39848 0
M  V30 605 O 56.3278 -2.28113 -3.43567 0
M  V30 606 H 55.6688 -0.54399 -0.380751 0
M  V30 607 H 58.1988 -1.95421 -0.605952 0
M  V30 608 H 58.2088 -2.91291 -2.85681 0
M  V30 609 H 56.8838 -3.65846 -1.97812 0
M  V30 610 H 55.4608 -2.16401 -3.03685 0
M  V30 611 N 57.6459 0.756429 -1.3826 0
M  V30 612 C 58.5779 1.87971 -1.31147 0
M  V30 613 C 59.5909 1.61248 -0.224239 0
M  V30 614 O 60.7799 1.71881 -0.481581 0
M  V30 615 C 57.8799 3.23545 -1.00857 0
M  V30 616 C 57.0529 3.77794 -2.20432 0
M  V30 617 C 56.1119 4.91877 -1.86931 0
M  V30 618 O 55.1379 5.06659 -2.59395 0
M  V30 619 N 56.3399 5.74643 -0.822568 0
M  V30 620 H 59.1049 1.94585 -2.2794 0
M  V30 621 H 56.6659 0.936234 -1.32084 0
M  V30 622 H 58.6579 3.97403 -0.765021 0
M  V30 623 H 57.2279 3.12335 -0.128687 0
M  V30 624 H 56.4479 2.95534 -2.6087 0
M  V30 625 H 57.7359 4.10771 -3.00241 0
M  V30 626 H 57.1339 5.65266 -0.221575 0
M  V30 627 H 55.6909 6.48661 -0.638899 0
M  V30 628 N 59.124 1.23083 0.984299 0
M  V30 629 C 60.071 1.00854 2.07598 0
M  V30 630 C 61.041 -0.0726709 1.65941 0
M  V30 631 O 62.226 0.0786535 1.90638 0
M  V30 632 C 59.366 0.601645 3.39815 0
M  V30 633 C 58.479 1.75456 3.94765 0
M  V30 634 C 57.614 1.29482 5.15177 0
M  V30 635 C 56.653 2.41873 5.62284 0
M  V30 636 N 55.79 1.96885 6.73929 0
M  V30 637 H 60.63 1.943 2.25946 0
M  V30 638 H 58.167 0.968001 1.10762 0
M  V30 639 H 60.125 0.346854 4.15756 0
M  V30 640 H 58.755 -0.295803 3.21442 0
M  V30 641 H 57.807 2.12346 3.15616 0
M  V30 642 H 59.119 2.59965 4.25699 0
M  V30 643 H 58.273 0.997923 5.98437 0
M  V30 644 H 57.012 0.420046 4.85888 0
M  V30 645 H 56.017 2.72342 4.77608 0
M  V30 646 H 57.242 3.29881 5.93595 0
M  V30 647 H 55.188 1.11782 6.46406 0
M  V30 648 H 55.105 2.74956 7.04227 0
M  V30 649 H 56.373 1.70289 7.60672 0
M  V30 650 N 60.6021 -1.18246 1.0419 0
M  V30 651 C 61.8271 -1.92736 0.765996 0
M  V30 652 C 62.2521 -1.75728 -0.67091 0
M  V30 653 O 61.6101 -1.06825 -1.46486 0
M  V30 654 C 61.6581 -3.42148 1.13875 0
M  V30 655 O 60.7621 -4.11548 0.264954 0
M  V30 656 H 60.1031 -0.601238 0.281797 0
M  V30 657 H 62.6331 -1.49942 1.39207 0
M  V30 658 H 62.6431 -3.92858 1.1012 0
M  V30 659 H 61.3181 -3.53848 2.18551 0
M  V30 660 H 59.8951 -3.71137 0.362226 0
M  V30 661 N 62.0802 -0.821533 -1.34494 0
M  V30 662 C 63.3572 -0.33159 -1.92769 0
M  V30 663 C 63.7372 1.18088 -1.74981 0
M  V30 664 O 63.0852 1.98733 -1.12772 0
M  V30 665 C 63.2952 -0.759398 -3.40638 0
M  V30 666 C 64.6432 -0.757433 -4.1779 0
M  V30 667 O 65.6672 -0.70189 -3.49216 0
M  V30 668 O 64.5262 -0.829361 -5.4017 0
M  V30 669 H 61.6202 -0.0902502 -0.822061 0
M  V30 670 H 64.1662 -0.906231 -1.43477 0
M  V30 671 H 62.9382 -1.8012 -3.47379 0
M  V30 672 H 62.5612 -0.160378 -3.97276 0
M  V30 673 N 63.5583 1.46682 -0.576371 0
M  V30 674 C 64.8353 1.95599 0.00703437 0
M  V30 675 C 65.2153 1.51904 1.46589 0
M  V30 676 O 64.5633 0.766755 2.15251 0
M  V30 677 C 64.7733 3.4864 -0.158404 0
M  V30 678 C 66.1213 4.24594 -0.0229439 0
M  V30 679 O 67.1453 3.56094 -0.0869173 0
M  V30 680 O 66.0043 5.46373 0.118015 0
M  V30 681 H 63.0983 0.825275 0.053384 0
M  V30 682 H 65.6443 1.56996 -0.644244 0
M  V30 683 H 64.4163 3.7331 -1.17282 0
M  V30 684 H 64.0393 3.94057 0.5296 0
M  V30 685 N 65.0364 0.313813 1.54444 0
M  V30 686 C 66.3134 -0.345447 1.92525 0
M  V30 687 C 66.6934 -1.70667 1.24242 0
M  V30 688 O 66.0414 -2.25273 0.382654 0
M  V30 689 C 66.2514 -0.44737 3.46121 0
M  V30 690 C 67.5994 -0.712238 4.18584 0
M  V30 691 O 68.6234 -0.530678 3.52225 0
M  V30 692 O 67.4824 -1.06183 5.36085 0
M  V30 693 H 64.5764 -0.195407 0.803583 0
M  V30 694 H 67.1224 0.362813 1.65776 0
M  V30 695 H 65.8944 0.509043 3.87975 0
M  V30 696 H 65.5174 -1.20359 3.78945 0
M  V30 697 N 66.5145 -1.57545 0.0417849 0
M  V30 698 C 67.7445 -1.96339 -0.642995 0
M  V30 699 C 68.1525 -0.917536 -1.65463 0
M  V30 700 O 67.4955 0.107747 -1.83384 0
M  V30 701 C 67.5575 -3.31333 -1.39494 0
M  V30 702 C 67.2215 -4.53796 -0.540204 0
M  V30 703 C 68.2185 -5.19553 0.189806 0
M  V30 704 C 65.9035 -5.0006 -0.473886 0
M  V30 705 C 67.8975 -6.29904 0.974674 0
M  V30 706 C 65.5845 -6.10289 0.314677 0
M  V30 707 C 66.5825 -6.75072 1.03765 0
M  V30 708 O 66.2705 -7.83183 1.81327 0
M  V30 709 H 66.0025 -0.651241 -0.181277 0
M  V30 710 H 68.5565 -2.05148 0.101665 0
M  V30 711 H 66.7865 -3.19052 -2.18502 0
M  V30 712 H 68.4755 -3.54942 -1.96904 0
M  V30 713 H 69.2415 -4.84774 0.147981 0
M  V30 714 H 65.1205 -4.49433 -1.0262 0
M  V30 715 H 68.6645 -6.80401 1.5395 0
M  V30 716 H 64.5615 -6.44506 0.358174 0
M  V30 717 H 65.3295 -7.99913 1.73438 0
M  V30 718 N 67.9926 0.231505 -1.5589 0
M  V30 719 C 68.9026 1.308 -1.94752 0
M  V30 720 C 69.9186 1.51826 -0.849989 0
M  V30 721 O 71.0946 1.6515 -1.15271 0
M  V30 722 C 68.1596 2.63968 -2.24771 0
M  V30 723 C 67.2206 2.51331 -3.48039 0
M  V30 724 C 66.4536 3.78148 -3.76616 0
M  V30 725 O 66.6766 4.80722 -3.07022 0
M  V30 726 O 65.6106 3.75857 -4.70123 0
M  V30 727 H 69.4366 1.0083 -2.86474 0
M  V30 728 H 67.0216 0.433547 -1.42971 0
M  V30 729 H 68.9036 3.42633 -2.45318 0
M  V30 730 H 67.5786 2.9364 -1.36225 0
M  V30 731 H 66.4856 1.709 -3.32782 0
M  V30 732 H 67.8186 2.26601 -4.36936 0
M  V30 733 N 69.4707 1.49531 0.497807 0
M  V30 734 C 70.7477 1.49682 1.25915 0
M  V30 735 C 71.1277 0.226339 2.09883 0
M  V30 736 O 70.4757 -0.791189 2.14365 0
M  V30 737 C 70.6857 2.77755 2.11313 0
M  V30 738 C 72.0337 3.27371 2.70395 0
M  V30 739 O 73.0577 2.78894 2.21578 0
M  V30 740 O 71.9167 4.11808 3.59272 0
M  V30 741 H 69.0107 0.599228 0.56996 0
M  V30 742 H 71.5567 1.61798 0.511816 0
M  V30 743 H 70.3287 3.61713 1.49264 0
M  V30 744 H 69.9517 2.68515 2.93233 0
M  V30 745 N 70.9488 -0.749086 1.3866 0
M  V30 746 C 72.1788 -1.53611 1.38157 0
M  V30 747 C 72.5868 -1.89177 -0.0293595 0
M  V30 748 O 71.9298 -1.53606 -1.00752 0
M  V30 749 C 71.9918 -2.86087 2.17702 0
M  V30 750 C 71.6558 -2.73034 3.66472 0
M  V30 751 C 72.6528 -2.42526 4.59866 0
M  V30 752 C 70.3378 -2.90345 4.09884 0
M  V30 753 C 72.3318 -2.29492 5.94653 0
M  V30 754 C 70.0188 -2.7693 5.4475 0
M  V30 755 C 71.0168 -2.46547 6.36949 0
M  V30 756 O 70.7048 -2.33199 7.69333 0
M  V30 757 H 70.4368 -0.481773 0.474205 0
M  V30 758 H 72.9908 -0.934465 1.82912 0
M  V30 759 H 71.2208 -3.48458 1.67672 0
M  V30 760 H 72.9098 -3.47625 2.09551 0
M  V30 761 H 73.6758 -2.28816 4.27631 0
M  V30 762 H 69.5548 -3.1299 3.38464 0
M  V30 763 H 73.0988 -2.05698 6.66584 0
M  V30 764 H 68.9958 -2.90215 5.76581 0
M  V30 765 H 69.7638 -2.48376 7.79905 0
M  V30 766 N 72.4269 -1.23603 -0.977757 0
M  V30 767 C 73.3899 -1.02069 -2.05218 0
M  V30 768 C 74.3899 0.0184305 -1.60789 0
M  V30 769 O 75.5799 -0.221569 -1.72785 0
M  V30 770 C 72.7119 -0.544926 -3.36517 0
M  V30 771 H 73.9049 -1.9742 -2.25755 0
M  V30 772 H 71.4579 -1.05684 -1.15155 0
M  V30 773 H 72.1929 0.412241 -3.21669 0
M  V30 774 H 71.9779 -1.2948 -3.70105 0
M  V30 775 H 73.4679 -0.414985 -4.15533 0
M  V30 776 N 73.905 1.17692 -1.04816 0
M  V30 777 C 75.13 1.92327 -0.776207 0
M  V30 778 C 75.555 1.76082 0.661581 0
M  V30 779 O 74.913 1.076 1.45917 0
M  V30 780 C 74.961 3.41539 -1.15687 0
M  V30 781 O 74.065 4.11402 -0.286775 0
M  V30 782 H 73.406 0.599735 -0.284981 0
M  V30 783 H 75.936 1.49201 -1.4 0
M  V30 784 H 75.946 3.92269 -1.12202 0
M  V30 785 H 74.621 3.52684 -2.20425 0
M  V30 786 H 73.198 3.70939 -0.381903 0
M  V30 787 N 75.3831 0.828654 1.34056 0
M  V30 788 C 76.3311 0.242973 2.31327 0
M  V30 789 C 77.3251 -0.61944 1.57668 0
M  V30 790 O 78.5311 -0.51014 1.7262 0
M  V30 791 H 74.9061 0.059834 0.749616 0
M  V30 792 H 76.8771 1.07809 2.78244 0
M  V30 793 C 75.6261 -0.575733 3.429 0
M  V30 794 H 74.9491 0.0785582 3.99723 0
M  V30 795 H 76.3891 -0.951547 4.13185 0
M  V30 796 C 74.8481 -1.75044 2.87856 0
M  V30 797 O 75.3781 -2.84882 2.83205 0
M  V30 798 N 73.5841 -1.56903 2.44602 0
M  V30 799 H 73.1311 -0.675547 2.48584 0
M  V30 800 H 73.0891 -2.35652 2.08124 0
M  V30 801 N 76.8612 -1.46375 0.584142 0
M  V30 802 C 77.8082 -2.30323 -0.148286 0
M  V30 803 C 78.7782 -1.40703 -0.882713 0
M  V30 804 O 79.9632 -1.69651 -0.873099 0
M  V30 805 C 77.1032 -3.25196 -1.15507 0
M  V30 806 C 76.2162 -4.29915 -0.423943 0
M  V30 807 C 75.3512 -5.11914 -1.41838 0
M  V30 808 C 74.3902 -6.08381 -0.673736 0
M  V30 809 N 73.5272 -6.83242 -1.6163 0
M  V30 810 H 78.3672 -2.92427 0.573644 0
M  V30 811 H 75.9042 -1.44118 0.294703 0
M  V30 812 H 77.8622 -3.78646 -1.75166 0
M  V30 813 H 76.4922 -2.64898 -1.8447 0
M  V30 814 H 75.5442 -3.7931 0.287714 0
M  V30 815 H 76.8562 -4.98549 0.158128 0
M  V30 816 H 76.0102 -5.69648 -2.08773 0
M  V30 817 H 74.7492 -4.43243 -2.03438 0
M  V30 818 H 73.7542 -5.49799 0.00938483 0
M  V30 819 H 74.9792 -6.79071 -0.0631082 0
M  V30 820 H 72.9252 -6.1728 -2.22038 0
M  V30 821 H 72.8422 -7.48144 -1.08707 0
M  V30 822 H 74.1102 -7.45534 -2.27596 0
M  V30 823 N 78.3393 -0.321999 -1.54275 0
M  V30 824 C 79.5673 0.283052 -2.04955 0
M  V30 825 C 79.9823 1.45904 -1.19823 0
M  V30 826 O 79.3393 1.81063 -0.228545 0
M  V30 827 C 79.3903 0.719028 -3.54277 0
M  V30 828 O 79.1113 -0.410175 -4.36176 0
M  V30 829 C 80.6123 1.38705 -4.21041 0
M  V30 830 H 77.8323 0.0584616 -0.668448 0
M  V30 831 H 80.3763 -0.467734 -1.99079 0
M  V30 832 H 78.5313 1.41979 -3.60445 0
M  V30 833 H 78.9453 -0.0669416 -5.24457 0
M  V30 834 H 80.4193 1.64306 -5.2698 0
M  V30 835 H 80.8963 2.33385 -3.72059 0
M  V30 836 H 81.5023 0.728906 -4.19007 0
M  V30 837 N 79.8174 1.5752 -0.0501392 0
M  V30 838 C 81.0634 1.93755 0.618901 0
M  V30 839 C 81.4184 0.928514 1.68512 0
M  V30 840 O 80.7114 -0.0524613 1.91528 0
M  V30 841 C 80.9054 3.34467 1.25963 0
M  V30 842 C 80.7344 4.48965 0.257 0
M  V30 843 C 79.5044 5.05075 -0.150656 0
M  V30 844 C 81.7024 5.11891 -0.497166 0
M  V30 845 N 79.6844 6.03104 -1.14626 0
M  V30 846 C 81.0554 6.05216 -1.34588 0
M  V30 847 C 83.1104 4.9479 -0.55559 0
M  V30 848 C 81.8134 6.83277 -2.24778 0
M  V30 849 C 83.8394 5.73477 -1.44492 0
M  V30 850 C 83.2014 6.66433 -2.28136 0
M  V30 851 H 79.3004 0.756479 0.198149 0
M  V30 852 H 81.8844 1.94316 -0.122229 0
M  V30 853 H 80.0554 3.34685 1.97079 0
M  V30 854 H 81.7874 3.57994 1.88739 0
M  V30 855 H 78.5424 4.7305 0.228094 0
M  V30 856 H 78.9664 6.56813 -1.64092 0
M  V30 857 H 83.6084 4.2273 0.0768625 0
M  V30 858 H 81.3264 7.54629 -2.89069 0
M  V30 859 H 84.9124 5.62273 -1.49468 0
M  V30 860 H 83.7924 7.26258 -2.95835 0
M  V30 861 N 81.2955 -0.223234 1.56011 0
M  V30 862 C 82.5415 -0.949279 1.79211 0
M  V30 863 C 82.8745 -1.84054 0.619494 0
M  V30 864 O 82.1495 -1.90726 -0.381317 0
M  V30 865 C 82.4325 -1.78965 3.12479 0
M  V30 866 C 82.2855 -0.924997 4.40186 0
M  V30 867 C 83.6045 -2.76774 3.42175 0
M  V30 868 H 80.7235 -0.343676 0.651963 0
M  V30 869 H 83.3655 -0.218253 1.88742 0
M  V30 870 H 81.5155 -2.41291 3.04485 0
M  V30 871 H 83.1875 -0.318615 4.60198 0
M  V30 872 H 81.4305 -0.230344 4.33188 0
M  V30 873 H 82.1015 -1.54735 5.29869 0
M  V30 874 H 84.5775 -2.24584 3.50287 0
M  V30 875 H 83.4535 -3.32678 4.36597 0
M  V30 876 H 83.7145 -3.54429 2.64258 0
M  V30 877 N 82.7736 -1.49793 -0.48987 0
M  V30 878 C 83.7036 -1.70201 -1.59856 0
M  V30 879 C 84.6846 -0.55076 -1.60937 0
M  V30 880 O 85.8696 -0.787841 -1.77501 0
M  V30 881 C 82.9996 -1.77882 -2.98287 0
M  V30 882 C 81.9536 -2.92907 -3.12073 0
M  V30 883 C 81.2796 -2.85712 -4.51965 0
M  V30 884 C 82.5796 -4.3369 -2.91051 0
M  V30 885 H 84.2736 -2.63025 -1.43032 0
M  V30 886 H 81.8196 -1.26574 -0.686664 0
M  V30 887 H 83.7726 -1.90744 -3.75759 0
M  V30 888 H 82.4966 -0.816653 -3.16225 0
M  V30 889 H 81.1556 -2.79665 -2.37029 0
M  V30 890 H 80.8036 -1.8738 -4.66795 0
M  V30 891 H 80.5036 -3.62921 -4.62128 0
M  V30 892 H 82.0276 -3.00598 -5.31482 0
M  V30 893 H 83.4416 -4.47555 -3.58284 0
M  V30 894 H 81.8386 -5.12205 -3.12675 0
M  V30 895 H 82.9086 -4.47362 -1.87071 0
M  V30 896 N 84.2517 0.741722 -1.39055 0
M  V30 897 C 85.4797 1.53098 -1.39171 0
M  V30 898 C 85.8947 1.88794 0.0155099 0
M  V30 899 O 85.2517 1.53626 0.985159 0
M  V30 900 C 85.3027 2.82274 -2.2584 0
M  V30 901 O 85.0237 2.48097 -3.61081 0
M  V30 902 C 86.5247 3.76343 -2.34266 0
M  V30 903 H 83.7447 0.473335 -0.4756 0
M  V30 904 H 86.2887 0.917045 -1.82785 0
M  V30 905 H 84.4437 3.40015 -1.85656 0
M  V30 906 H 84.8577 3.31029 -4.06842 0
M  V30 907 H 86.3317 4.63898 -2.9917 0
M  V30 908 H 86.8087 4.17619 -1.35982 0
M  V30 909 H 87.4147 3.24523 -2.74891 0
M  V30 910 N 85.7298 1.2412 0.971189 0
M  V30 911 C 87.1408 1.07236 1.52831 0
M  V30 912 C 87.4918 -0.357352 1.92918 0
M  V30 913 O 86.6168 -1.24528 1.76979 0
M  V30 914 C 87.2118 1.94043 2.77728 0
M  V30 915 C 85.7708 1.81394 3.29808 0
M  V30 916 C 84.9178 1.89189 2.02738 0
M  V30 917 H 87.8688 1.37648 0.789864 0
M  V30 918 H 87.8898 1.47066 3.5093 0
M  V30 919 H 87.4018 2.98093 2.4852 0
M  V30 920 H 85.5028 0.801634 3.63874 0
M  V30 921 H 85.6158 2.65294 3.98944 0
M  V30 922 H 83.9798 1.32877 2.17292 0
M  V30 923 H 84.7628 2.94812 1.759 0
M  V30 924 N 87.2079 -1.17134 1.05439 0
M  V30 925 C 88.1549 -2.21235 0.657539 0
M  V30 926 C 89.1249 -1.62551 -0.341543 0
M  V30 927 O 90.3099 -1.89379 -0.232393 0
M  V30 928 C 87.4499 -3.45076 0.0410575 0
M  V30 929 C 86.5629 -4.18042 1.08927 0
M  V30 930 C 85.6979 -5.29376 0.439848 0
M  V30 931 C 84.7369 -5.94132 1.4722 0
M  V30 932 N 83.8739 -6.96975 0.846756 0
M  V30 933 H 88.7139 -2.54534 1.54972 0
M  V30 934 H 86.2509 -1.25028 0.775006 0
M  V30 935 H 88.2089 -4.15862 -0.33383 0
M  V30 936 H 86.8389 -3.12353 -0.814568 0
M  V30 937 H 85.8909 -3.45945 1.58196 0
M  V30 938 H 87.2029 -4.62306 1.87282 0
M  V30 939 H 86.3569 -6.06699 0.0115125 0
M  V30 940 H 85.0959 -4.86251 -0.375656 0
M  V30 941 H 84.1009 -5.15538 1.91052 0
M  V30 942 H 85.3259 -6.39337 2.28965 0
M  V30 943 H 83.2719 -6.5598 0.0518075 0
M  V30 944 H 83.1889 -7.39565 1.5678 0
M  V30 945 H 84.4569 -7.78239 0.443277 0
M  V30 946 N 88.686 -0.835752 -1.33615 0
M  V30 947 C 89.932 -0.430596 -1.98176 0
M  V30 948 C 90.265 1.00684 -1.66061 0
M  V30 949 O 89.54 1.70339 -0.938877 0
M  V30 950 C 89.823 -0.648065 -3.5422 0
M  V30 951 C 89.676 -2.13255 -3.96033 0
M  V30 952 C 90.995 -0.0922113 -4.40003 0
M  V30 953 H 88.114 -0.157924 -0.719881 0
M  V30 954 H 90.756 -1.05069 -1.58305 0
M  V30 955 H 88.906 -0.120237 -3.88314 0
M  V30 956 H 90.578 -2.725 -3.72211 0
M  V30 957 H 88.821 -2.61823 -3.45878 0
M  V30 958 H 89.492 -2.23547 -5.04708 0
M  V30 959 H 91.968 -0.543343 -4.12537 0
M  V30 960 H 90.844 -0.274083 -5.48215 0
M  V30 961 H 91.105 1.00378 -4.30554 0
M  V30 962 N 90.1641 1.46063 -0.591896 0
M  V30 963 C 91.5751 1.85944 -0.167822 0
M  V30 964 C 91.9261 1.49429 1.27143 0
M  V30 965 O 91.0511 0.913515 1.96173 0
M  V30 966 C 91.6461 3.37489 -0.297794 0
M  V30 967 C 90.2051 3.76332 0.0714732 0
M  V30 968 C 89.3521 2.7006 -0.629509 0
M  V30 969 H 92.3031 1.37087 -0.799555 0
M  V30 970 H 92.3241 3.77532 0.474349 0
M  V30 971 H 91.8361 3.64034 -1.3454 0
M  V30 972 H 89.9371 3.55405 1.11886 0
M  V30 973 H 90.0501 4.78088 -0.311245 0
M  V30 974 H 88.4141 2.54607 -0.0687867 0
M  V30 975 H 89.1971 2.99444 -1.67894 0
M  V30 976 N 91.6422 0.330177 1.54103 0
M  V30 977 C 92.5522 -0.541534 2.28264 0
M  V30 978 C 93.5682 -1.12351 1.32866 0
M  V30 979 O 94.7442 -1.14206 1.65888 0
M  V30 980 C 91.8092 -1.68322 3.03098 0
M  V30 981 C 90.8702 -1.13238 4.14096 0
M  V30 982 C 90.1032 -2.21966 4.85352 0
M  V30 983 O 90.3262 -3.42437 4.56172 0
M  V30 984 O 89.2602 -1.87013 5.7211 0
M  V30 985 H 93.0862 0.060938 3.03639 0
M  V30 986 H 90.6712 0.09565 1.49093 0
M  V30 987 H 92.5532 -2.34777 3.49939 0
M  V30 988 H 91.2282 -2.27176 2.30593 0
M  V30 989 H 90.1352 -0.432736 3.71589 0
M  V30 990 H 91.4682 -0.588898 4.88664 0
M  V30 991 N 93.1203 -1.57491 0.0584922 0
M  V30 992 C 94.3683 -1.92597 -0.612436 0
M  V30 993 C 94.6893 -0.938162 -1.70949 0
M  V30 994 O 93.9593 0.0158301 -1.95894 0
M  V30 995 H 92.5393 -0.710964 -0.229214 0
M  V30 996 H 95.2013 -1.94571 0.113218 0
M  V30 997 H 94.2973 -2.94038 -1.04633 0
M  V30 998 N 94.5984 0.214957 -1.56127 0
M  V30 999 C 95.8754 0.963093 -1.70247 0
M  V30 1000 C 96.2554 2.02166 -0.60764 0
M  V30 1001 O 95.6034 2.25244 0.384385 0
M  V30 1002 C 95.8134 1.56756 -3.11815 0
M  V30 1003 C 97.1614 2.0573 -3.7143 0
M  V30 1004 O 98.1854 1.66637 -3.14818 0
M  V30 1005 O 97.0444 2.77603 -4.70743 0
M  V30 1006 H 94.1384 0.450321 -0.693643 0
M  V30 1007 H 96.6844 0.206219 -1.68442 0
M  V30 1008 H 95.4564 0.803533 -3.82961 0
M  V30 1009 H 95.0794 2.3898 -3.17765 0
M  V30 1010 N 96.0765 1.50051 0.48192 0
M  V30 1011 C 97.3225 1.60736 1.2366 0
M  V30 1012 C 97.6555 0.301786 1.91841 0
M  V30 1013 O 96.9305 -0.696025 1.8162 0
M  V30 1014 C 97.2135 2.78009 2.28874 0
M  V30 1015 C 97.0665 4.18416 1.65069 0
M  V30 1016 C 98.3855 2.90867 3.30279 0
M  V30 1017 H 95.5045 0.585031 0.448228 0
M  V30 1018 H 98.1465 1.82402 0.531946 0
M  V30 1019 H 96.2965 2.59667 2.88973 0
M  V30 1020 H 97.9685 4.48322 1.0865 0
M  V30 1021 H 96.2115 4.23177 0.954148 0
M  V30 1022 H 96.8825 4.96381 2.41474 0
M  V30 1023 H 99.3585 3.07623 2.80191 0
M  V30 1024 H 98.2345 3.74566 4.01238 0
M  V30 1025 H 98.4955 2.01021 3.93755 0
M  V30 1026 N 97.5546 -0.734337 1.39446 0
M  V30 1027 C 98.7826 -1.52358 1.39981 0
M  V30 1028 C 99.1976 -1.88799 -0.0054975 0
M  V30 1029 O 98.5546 -1.54146 -0.976998 0
M  V30 1030 C 98.6056 -2.81072 2.27333 0
M  V30 1031 O 98.3266 -2.46178 3.62392 0
M  V30 1032 C 99.8276 -3.75096 2.36259 0
M  V30 1033 H 97.0476 -0.470806 0.478103 0
M  V30 1034 H 99.5916 -0.907339 1.83269 0
M  V30 1035 H 97.7466 -3.39026 1.87457 0
M  V30 1036 H 98.1606 -3.28866 4.08592 0
M  V30 1037 H 99.6346 -4.62305 3.01626 0
M  V30 1038 H 100.112 -4.16892 1.38194 0
M  V30 1039 H 100.718 -3.23061 2.76608 0
M  V30 1040 N 99.0327 -1.24633 -0.964593 0
M  V30 1041 C 100.279 -1.08949 -1.71049 0
M  V30 1042 C 100.612 0.370302 -1.90637 0
M  V30 1043 O 99.8867 1.27349 -1.47011 0
M  V30 1044 C 100.17 -1.83329 -3.0994 0
M  V30 1045 C 100.023 -3.37077 -2.97824 0
M  V30 1046 C 101.342 -1.60846 -4.09654 0
M  V30 1047 H 98.4607 -0.397178 -0.620821 0
M  V30 1048 H 101.103 -1.5334 -1.12191 0
M  V30 1049 H 99.2527 -1.45597 -3.60186 0
M  V30 1050 H 100.925 -3.84425 -2.5498 0
M  V30 1051 H 99.1677 -3.65298 -2.33965 0
M  V30 1052 H 99.8387 -3.84324 -3.96231 0
M  V30 1053 H 102.315 -1.93674 -3.68279 0
M  V30 1054 H 101.191 -2.1534 -5.04896 0
M  V30 1055 H 101.452 -0.547434 -4.38698 0
M  V30 1056 N 100.511 1.16574 -1.06058 0
M  V30 1057 C 101.76 1.86385 -0.770944 0
M  V30 1058 C 102.073 1.82448 0.705129 0
M  V30 1059 O 103.279 2.47815 1.10905 0
M  V30 1060 C 101.735 3.34466 -1.32893 0
M  V30 1061 C 101.343 3.46883 -2.83507 0
M  V30 1062 C 103.087 4.09548 -1.11672 0
M  V30 1063 C 100.994 4.89036 -3.32562 0
M  V30 1064 H 99.9238 0.698181 -0.284709 0
M  V30 1065 H 102.575 1.31583 -1.27899 0
M  V30 1066 H 100.957 3.88859 -0.748662 0
M  V30 1067 H 102.131 3.02663 -3.47465 0
M  V30 1068 H 100.446 2.85232 -3.03368 0
M  V30 1069 H 103.043 5.14434 -1.45814 0
M  V30 1070 H 103.386 4.16264 -0.0549535 0
M  V30 1071 H 103.919 3.61387 -1.66265 0
M  V30 1072 H 100.658 4.87499 -4.38207 0
M  V30 1073 H 100.178 5.3389 -2.73351 0
M  V30 1074 H 101.857 5.57843 -3.2775 0
M  V30 1075 N 101.989 0.842826 1.3317 0
M  V30 1076 C 102.919 0.294028 2.31641 0
M  V30 1077 C 103.9 -0.600401 1.59151 0
M  V30 1078 O 105.085 -0.523124 1.87022 0
M  V30 1079 C 102.215 -0.528416 3.43257 0
M  V30 1080 C 101.169 0.27056 4.27144 0
M  V30 1081 C 100.495 -0.675881 5.30411 0
M  V30 1082 C 101.795 1.48981 5.00602 0
M  V30 1083 H 103.489 1.11681 2.77791 0
M  V30 1084 H 101.035 0.538478 1.33553 0
M  V30 1085 H 102.988 -0.922674 4.11175 0
M  V30 1086 H 101.712 -1.38445 2.95805 0
M  V30 1087 H 100.371 0.646427 3.60856 0
M  V30 1088 H 100.019 -1.52842 4.79216 0
M  V30 1089 H 99.7189 -0.145374 5.8742 0
M  V30 1090 H 101.243 -1.06757 6.01195 0
M  V30 1091 H 102.657 1.16849 5.61266 0
M  V30 1092 H 101.054 1.95739 5.6728 0
M  V30 1093 H 102.124 2.25746 4.29147 0
M  V30 1094 N 103.467 -1.45747 0.599634 0
M  V30 1095 C 104.415 -2.322 -0.136426 0
M  V30 1096 C 105.409 -1.45497 -0.867583 0
M  V30 1097 O 106.615 -1.62027 -0.78405 0
M  V30 1098 H 102.99 -0.749368 -0.0628588 0
M  V30 1099 H 104.961 -2.92072 0.611281 0
M  V30 1100 C 103.71 -3.28974 -1.12567 0
M  V30 1101 H 103.033 -3.9568 -0.572484 0
M  V30 1102 H 104.473 -3.92212 -1.61077 0
M  V30 1103 C 102.932 -2.55561 -2.19523 0
M  V30 1104 O 103.462 -2.33111 -3.27143 0
M  V30 1105 N 101.668 -2.15832 -1.94589 0
M  V30 1106 H 101.215 -2.3429 -1.07078 0
M  V30 1107 H 101.173 -1.67034 -2.66359 0
M  V30 1108 N 104.945 -0.338344 -1.53925 0
M  V30 1109 C 105.893 0.536231 -2.26335 0
M  V30 1110 C 106.887 1.1063 -1.28286 0
M  V30 1111 O 108.093 1.05264 -1.46012 0
M  V30 1112 H 104.468 0.191602 -0.727181 0
M  V30 1113 H 106.439 -0.0965747 -2.98244 0
M  V30 1114 C 105.188 1.67803 -3.04528 0
M  V30 1115 H 104.511 1.24864 -3.79801 0
M  V30 1116 H 105.951 2.26526 -3.58416 0
M  V30 1117 C 104.41 2.60439 -2.13712 0
M  V30 1118 O 104.94 3.6255 -1.72975 0
M  V30 1119 N 103.146 2.29006 -1.78898 0
M  V30 1120 H 102.693 1.46011 -2.12223 0
M  V30 1121 H 102.651 2.91248 -1.18416 0
M  V30 1122 N 106.423 1.57458 -0.0668435 0
M  V30 1123 C 107.353 2.15468 0.899764 0
M  V30 1124 C 108.334 1.08042 1.31381 0
M  V30 1125 O 109.519 1.36054 1.38574 0
M  V30 1126 C 106.649 2.71232 2.16911 0
M  V30 1127 C 105.603 3.83781 1.89463 0
M  V30 1128 C 104.929 4.26127 3.22986 0
M  V30 1129 C 106.229 5.08238 1.20381 0
M  V30 1130 H 107.923 2.96488 0.416529 0
M  V30 1131 H 105.469 1.4262 0.198908 0
M  V30 1132 H 107.422 3.10458 2.84945 0
M  V30 1133 H 106.146 1.87426 2.67468 0
M  V30 1134 H 104.805 3.45051 1.23836 0
M  V30 1135 H 104.453 3.39249 3.71374 0
M  V30 1136 H 104.153 5.01993 3.05413 0
M  V30 1137 H 105.677 4.67966 3.92225 0
M  V30 1138 H 107.091 5.44811 1.78475 0
M  V30 1139 H 105.488 5.89349 1.13083 0
M  V30 1140 H 106.558 4.84558 0.182153 0
M  V30 1141 N 107.901 -0.206675 1.56239 0
M  V30 1142 C 108.831 -1.25909 1.96645 0
M  V30 1143 C 109.812 -1.48097 0.836734 0
M  V30 1144 O 110.997 -1.6003 1.10019 0
M  V30 1145 C 108.127 -2.6058 2.29599 0
M  V30 1146 C 107.081 -2.53024 3.452 0
M  V30 1147 C 106.407 -3.91861 3.63798 0
M  V30 1148 C 107.707 -2.06524 4.79734 0
M  V30 1149 H 109.401 -0.923369 2.84806 0
M  V30 1150 H 106.947 -0.442735 1.37025 0
M  V30 1151 H 108.9 -3.34375 2.56459 0
M  V30 1152 H 107.624 -2.95869 1.38307 0
M  V30 1153 H 106.283 -1.81684 3.18412 0
M  V30 1154 H 105.931 -4.24483 2.69857 0
M  V30 1155 H 105.631 -3.87683 4.4156 0
M  V30 1156 H 107.155 -4.67296 3.93022 0
M  V30 1157 H 108.569 -2.70072 5.05702 0
M  V30 1158 H 106.966 -2.13374 5.60885 0
M  V30 1159 H 108.036 -1.01802 4.74093 0
M  V30 1160 N 109.379 -1.50304 -0.473955 0
M  V30 1161 C 110.289 -1.7174 -1.5982 0
M  V30 1162 C 111.305 -0.600457 -1.63311 0
M  V30 1163 O 112.481 -0.878441 -1.81233 0
M  V30 1164 C 109.546 -1.80427 -2.96052 0
M  V30 1165 C 108.607 -3.04148 -3.02972 0
M  V30 1166 C 107.84 -3.12411 -4.32706 0
M  V30 1167 O 108.063 -2.27542 -5.23049 0
M  V30 1168 O 106.997 -4.05113 -4.45159 0
M  V30 1169 H 110.823 -2.67035 -1.44657 0
M  V30 1170 H 108.408 -1.34366 -0.653148 0
M  V30 1171 H 110.29 -1.88338 -3.7697 0
M  V30 1172 H 108.965 -0.883156 -3.11419 0
M  V30 1173 H 107.872 -3.0174 -2.21142 0
M  V30 1174 H 109.205 -3.95829 -2.92541 0
M  V30 1175 N 110.857 0.726932 -1.39834 0
M  V30 1176 C 112.105 1.4837 -1.37225 0
M  V30 1177 C 112.426 1.94979 0.0284857 0
M  V30 1178 O 111.696 1.69555 0.981213 0
M  V30 1179 H 110.276 0.55043 -0.505011 0
M  V30 1180 H 112.938 0.862468 -1.74778 0
M  V30 1181 H 112.034 2.36198 -2.04003 0
M  V30 1182 N 112.336 1.25143 0.95797 0
M  V30 1183 C 113.566 1.12261 1.73439 0
M  V30 1184 C 113.974 -0.326715 1.86358 0
M  V30 1185 O 113.317 -1.2367 1.35836 0
M  V30 1186 C 113.379 1.69966 3.16784 0
M  V30 1187 C 113.043 3.18936 3.27305 0
M  V30 1188 C 114.04 4.15968 3.11877 0
M  V30 1189 C 111.725 3.59083 3.51234 0
M  V30 1190 C 113.719 5.51126 3.20217 0
M  V30 1191 C 111.406 4.9438 3.5921 0
M  V30 1192 C 112.404 5.90211 3.43716 0
M  V30 1193 O 112.092 7.23046 3.51368 0
M  V30 1194 H 111.824 0.392476 0.550399 0
M  V30 1195 H 114.378 1.65927 1.21068 0
M  V30 1196 H 112.608 1.10744 3.70503 0
M  V30 1197 H 114.297 1.52232 3.76272 0
M  V30 1198 H 115.063 3.86292 2.93264 0
M  V30 1199 H 110.942 2.84989 3.62356 0
M  V30 1200 H 114.486 6.25905 3.0804 0
M  V30 1201 H 110.383 5.23723 3.77339 0
M  V30 1202 H 111.151 7.31097 3.6802 0
M  V30 1203 N 113.814 -1.1601 1.06675 0
M  V30 1204 C 115.091 -1.82679 0.699114 0
M  V30 1205 C 115.471 -1.94559 -0.819137 0
M  V30 1206 O 114.819 -1.49169 -1.73092 0
M  V30 1207 C 115.029 -3.19445 1.40555 0
M  V30 1208 C 116.377 -3.95171 1.55323 0
M  V30 1209 O 117.401 -3.28976 1.36577 0
M  V30 1210 O 116.26 -5.13833 1.86112 0
M  V30 1211 H 113.354 -0.788954 0.247951 0
M  V30 1212 H 115.9 -1.23179 1.16726 0
M  V30 1213 H 114.672 -3.05856 2.44065 0
M  V30 1214 H 114.295 -3.86625 0.927733 0
M  V30 1215 N 115.292 -0.849877 -1.32721 0
M  V30 1216 C 116.24 -0.279745 -2.30912 0
M  V30 1217 C 117.234 0.594278 -1.58634 0
M  V30 1218 O 118.44 0.482613 -1.73409 0
M  V30 1219 H 114.815 -0.0717521 -0.748569 0
M  V30 1220 H 116.786 -1.12222 -2.76494 0
M  V30 1221 C 115.535 0.521108 -3.43773 0
M  V30 1222 H 114.858 -0.142141 -3.99547 0
M  V30 1223 H 116.298 0.885693 -4.14646 0
M  V30 1224 C 114.757 1.70442 -2.90605 0
M  V30 1225 O 115.287 2.8034 -2.87702 0
M  V30 1226 N 113.493 1.52991 -2.47067 0
M  V30 1227 H 113.04 0.635914 -2.49628 0
M  V30 1228 H 112.998 2.32311 -2.11847 0
M  V30 1229 N 116.77 1.45427 -0.607355 0
M  V30 1230 C 117.717 2.3053 0.111625 0
M  V30 1231 C 118.687 1.4209 0.860216 0
M  V30 1232 O 119.872 1.71019 0.845998 0
M  V30 1233 C 117.012 3.26992 1.10319 0
M  V30 1234 C 116.125 4.30535 0.355493 0
M  V30 1235 C 115.26 5.14105 1.33676 0
M  V30 1236 C 114.299 6.09376 0.576862 0
M  V30 1237 N 113.436 6.85727 1.5074 0
M  V30 1238 H 118.276 2.91477 -0.620093 0
M  V30 1239 H 115.813 1.43631 -0.317594 0
M  V30 1240 H 117.771 3.81385 1.6912 0
M  V30 1241 H 116.401 2.67799 1.80232 0
M  V30 1242 H 115.453 3.78805 -0.348023 0
M  V30 1243 H 116.765 4.98235 -0.237423 0
M  V30 1244 H 115.919 5.72897 1.99684 0
M  V30 1245 H 114.658 4.46423 1.9636 0
M  V30 1246 H 113.663 5.49715 -0.0968519 0
M  V30 1247 H 114.888 6.79085 -0.0449341 0
M  V30 1248 H 112.834 6.20735 2.12189 0
M  V30 1249 H 112.751 7.49778 0.967913 0
M  V30 1250 H 114.019 7.4906 2.15706 0
M  V30 1251 N 118.248 0.346503 1.53744 0
M  V30 1252 C 119.178 -0.501193 2.28058 0
M  V30 1253 C 120.159 -1.10014 1.29734 0
M  V30 1254 O 121.344 -1.12097 1.58581 0
M  V30 1255 C 118.474 -1.65078 3.05559 0
M  V30 1256 C 117.428 -1.18003 4.11411 0
M  V30 1257 C 116.754 -2.41837 4.76884 0
M  V30 1258 C 118.054 -0.278394 5.21558 0
M  V30 1259 H 119.748 0.11875 2.99164 0
M  V30 1260 H 117.294 0.0585531 1.43881 0
M  V30 1261 H 119.247 -2.25028 3.56287 0
M  V30 1262 H 117.971 -2.29767 2.32109 0
M  V30 1263 H 116.63 -0.603331 3.61601 0
M  V30 1264 H 116.278 -3.0494 4.00026 0
M  V30 1265 H 115.978 -2.1102 5.48402 0
M  V30 1266 H 117.502 -3.02508 5.30397 0
M  V30 1267 H 118.916 -0.784823 5.67903 0
M  V30 1268 H 117.313 -0.0619707 6.00068 0
M  V30 1269 H 118.383 0.684677 4.80042 0
M  V30 1270 N 119.726 -1.57421 0.075193 0
M  V30 1271 C 121.142 -1.57099 -0.281444 0
M  V30 1272 C 121.342 -1.08486 -1.69803 0
M  V30 1273 O 120.398 -0.752279 -2.41033 0
M  V30 1274 C 121.711 -3.00571 -0.0880041 0
M  V30 1275 C 123.259 -3.12605 -0.157281 0
M  V30 1276 C 123.734 -4.57999 0.0079207 0
M  V30 1277 N 125.225 -4.63176 -0.0475725 0
M  V30 1278 C 125.96 -5.73373 0.0557876 0
M  V30 1279 N 125.456 -6.92473 0.21286 0
M  V30 1280 N 127.249 -5.621 -0.00152098 0
M  V30 1281 H 119.4 -1.87335 1.00098 0
M  V30 1282 H 121.663 -0.86377 0.390646 0
M  V30 1283 H 121.369 -3.40262 0.889629 0
M  V30 1284 H 121.243 -3.67754 -0.838875 0
M  V30 1285 H 123.63 -2.72798 -1.1254 0
M  V30 1286 H 123.711 -2.48053 0.62475 0
M  V30 1287 H 123.355 -4.98496 0.972824 0
M  V30 1288 H 123.285 -5.20586 -0.793556 0
M  V30 1289 H 125.776 -3.7753 -0.167244 0
M  V30 1290 H 126.089 -7.72279 0.283781 0
M  V30 1291 H 124.434 -6.94556 0.248267 0
M  V30 1292 H 127.625 -4.67938 -0.122958 0
M  V30 1293 H 127.798 -6.47948 0.0824844 0
M  V30 1294 N 121.204 0.198386 -1.56346 0
M  V30 1295 C 122.615 0.763358 -1.70381 0
M  V30 1296 C 122.966 1.83995 -0.681203 0
M  V30 1297 O 122.091 2.15785 0.16305 0
M  V30 1298 C 122.686 1.39143 -3.08909 0
M  V30 1299 C 121.245 1.90352 -3.2472 0
M  V30 1300 C 120.392 0.772233 -2.6633 0
M  V30 1301 H 123.343 -0.0266377 -1.58678 0
M  V30 1302 H 123.364 2.26076 -3.06055 0
M  V30 1303 H 122.876 0.607638 -3.83314 0
M  V30 1304 H 120.977 2.71461 -2.55225 0
M  V30 1305 H 121.09 2.06757 -4.3219 0
M  V30 1306 H 119.454 1.18566 -2.2542 0
M  V30 1307 H 120.237 0.00073556 -3.433 0
M  V30 1308 N 122.682 1.50554 0.465978 0
M  V30 1309 C 123.959 1.5232 1.22712 0
M  V30 1310 C 124.339 0.270807 2.09356 0
M  V30 1311 O 123.687 -0.745541 2.15995 0
M  V30 1312 C 123.897 2.82175 2.05374 0
M  V30 1313 C 125.245 3.33033 2.6339 0
M  V30 1314 O 126.269 2.83531 2.15612 0
M  V30 1315 O 125.128 4.19336 3.50456 0
M  V30 1316 H 122.222 0.611183 0.557122 0
M  V30 1317 H 124.768 1.62847 0.477381 0
M  V30 1318 H 123.54 3.64797 1.41558 0
M  V30 1319 H 123.163 2.74675 2.87471 0
M  V30 1320 N 124.16 -0.719506 1.40217 0
M  V30 1321 C 125.409 -1.47486 1.37589 0
M  V30 1322 C 125.722 -1.9559 -0.0201568 0
M  V30 1323 O 126.928 -2.70973 -0.169049 0
M  V30 1324 C 125.384 -2.66575 2.41796 0
M  V30 1325 C 124.992 -2.25358 3.87192 0
M  V30 1326 C 126.736 -3.4433 2.48269 0
M  V30 1327 C 124.643 -3.41262 4.83005 0
M  V30 1328 H 123.573 -0.553901 0.511576 0
M  V30 1329 H 126.224 -0.783427 1.65936 0
M  V30 1330 H 124.606 -3.3787 2.06543 0
M  V30 1331 H 125.78 -1.61509 4.31569 0
M  V30 1332 H 124.095 -1.60657 3.84159 0
M  V30 1333 H 126.692 -4.30569 3.17041 0
M  V30 1334 H 127.035 -3.87872 1.51198 0
M  V30 1335 H 127.568 -2.80076 2.82493 0
M  V30 1336 H 124.307 -3.02755 5.81394 0
M  V30 1337 H 123.827 -4.0404 4.43297 0
M  V30 1338 H 125.506 -4.07383 5.02641 0
M  V30 1339 N 125.638 -1.25649 -0.95132 0
M  V30 1340 C 126.886 -1.10375 -1.69298 0
M  V30 1341 C 127.207 0.355339 -1.91735 0
M  V30 1342 O 126.477 1.25188 -1.50681 0
M  V30 1343 H 125.057 -0.405461 -0.627384 0
M  V30 1344 H 127.719 -1.57823 -1.14358 0
M  V30 1345 H 126.815 -1.61465 -2.67087 0
M  V30 1346 N 127.117 1.15442 -1.07289 0
M  V30 1347 C 128.363 1.86489 -0.796846 0
M  V30 1348 C 128.696 1.82078 0.675371 0
M  V30 1349 O 127.971 1.24346 1.4956 0
M  V30 1350 C 128.254 3.35626 -1.30489 0
M  V30 1351 C 128.107 3.48673 -2.84161 0
M  V30 1352 C 129.426 4.30357 -0.920907 0
M  V30 1353 H 126.545 0.677144 -0.290939 0
M  V30 1354 H 129.187 1.35633 -1.33056 0
M  V30 1355 H 127.337 3.79068 -0.850883 0
M  V30 1356 H 129.009 3.14099 -3.37846 0
M  V30 1357 H 127.252 2.90253 -3.22391 0
M  V30 1358 H 127.923 4.53453 -3.14777 0
M  V30 1359 H 130.399 3.94871 -1.3121 0
M  V30 1360 H 129.275 5.33193 -1.30372 0
M  V30 1361 H 129.536 4.4176 0.173226 0
M  V30 1362 N 128.595 0.856903 1.32268 0
M  V30 1363 C 129.542 0.301172 2.28827 0
M  V30 1364 C 130.512 -0.593104 1.5515 0
M  V30 1365 O 131.697 -0.527537 1.83362 0
M  V30 1366 C 128.837 -0.502523 3.41422 0
M  V30 1367 C 127.95 0.417797 4.29975 0
M  V30 1368 C 127.085 -0.398749 5.29701 0
M  V30 1369 C 126.124 0.518827 6.09897 0
M  V30 1370 N 125.261 -0.260674 7.01616 0
M  V30 1371 H 130.101 1.12983 2.75751 0
M  V30 1372 H 127.638 0.568582 1.35667 0
M  V30 1373 H 129.596 -0.984141 4.05426 0
M  V30 1374 H 128.226 -1.29599 2.95642 0
M  V30 1375 H 127.278 1.01781 3.66531 0
M  V30 1376 H 128.59 1.12191 4.86019 0
M  V30 1377 H 127.744 -0.943435 5.9932 0
M  V30 1378 H 126.483 -1.13622 4.7428 0
M  V30 1379 H 125.488 1.07538 5.39181 0
M  V30 1380 H 126.713 1.25495 6.67404 0
M  V30 1381 H 124.659 -0.981198 6.4862 0
M  V30 1382 H 124.576 0.384364 7.55022 0
M  V30 1383 H 125.844 -0.787014 7.75517 0
M  V30 1384 N 130.073 -1.45103 0.615059 0
M  V30 1385 C 131.484 -1.85654 0.197383 0
M  V30 1386 C 131.835 -1.51433 -1.24749 0
M  V30 1387 O 130.96 -0.944608 -1.94695 0
M  V30 1388 C 131.555 -3.36972 0.351448 0
M  V30 1389 C 130.114 -3.76398 -0.011593 0
M  V30 1390 C 129.261 -2.69024 0.672394 0
M  V30 1391 H 132.212 -1.35797 0.821263 0
M  V30 1392 H 132.233 -3.78239 -0.414227 0
M  V30 1393 H 131.745 -3.61847 1.40314 0
M  V30 1394 H 129.846 -3.5714 -1.06217 0
M  V30 1395 H 129.959 -4.77532 0.387265 0
M  V30 1396 H 128.323 -2.54465 0.109284 0
M  V30 1397 H 129.106 -2.96735 1.72636 0
M  V30 1398 N 131.551 -0.354651 -1.53558 0
M  V30 1399 C 132.779 0.239515 -2.05509 0
M  V30 1400 C 133.194 1.4333 -1.2289 0
M  V30 1401 O 132.551 1.80538 -0.266899 0
M  V30 1402 C 132.602 0.643719 -3.55723 0
M  V30 1403 O 132.323 -0.502602 -4.35207 0
M  V30 1404 C 133.824 1.29743 -4.23889 0
M  V30 1405 H 131.044 0.0442697 -0.669538 0
M  V30 1406 H 133.588 -0.509856 -1.98042 0
M  V30 1407 H 131.743 1.34302 -3.63376 0
M  V30 1408 H 132.157 -0.178172 -5.24197 0
M  V30 1409 H 133.631 1.53091 -5.30346 0
M  V30 1410 H 134.108 2.25441 -3.76926 0
M  V30 1411 H 134.714 0.639865 -4.20459 0
M  V30 1412 N 133.029 1.57378 -0.0835403 0
M  V30 1413 C 133.959 2.1641 0.87686 0
M  V30 1414 C 134.94 1.09429 1.30228 0
M  V30 1415 O 136.125 1.37516 1.37124 0
M  V30 1416 C 133.255 2.73517 2.14022 0
M  V30 1417 C 132.209 3.85769 1.85381 0
M  V30 1418 C 131.535 4.29529 3.18448 0
M  V30 1419 C 132.835 5.09486 1.14984 0
M  V30 1420 H 134.529 2.96914 0.385059 0
M  V30 1421 H 132.075 1.42823 0.18377 0
M  V30 1422 H 134.028 3.13463 2.81636 0
M  V30 1423 H 132.752 1.90252 2.65465 0
M  V30 1424 H 131.411 3.46345 1.20169 0
M  V30 1425 H 131.059 3.43169 3.67755 0
M  V30 1426 H 130.759 5.05204 3.00071 0
M  V30 1427 H 132.283 4.72099 3.8724 0
M  V30 1428 H 133.697 5.46674 1.72687 0
M  V30 1429 H 132.094 5.90515 1.06826 0
M  V30 1430 H 133.164 4.84724 0.130749 0
M  V30 1431 N 134.507 -0.190092 1.56449 0
M  V30 1432 C 135.756 -0.907912 1.80111 0
M  V30 1433 C 136.069 -1.84214 0.657619 0
M  V30 1434 O 137.275 -2.60094 0.778663 0
M  V30 1435 C 135.731 -1.66485 3.19078 0
M  V30 1436 C 135.339 -0.7752 4.41242 0
M  V30 1437 C 137.083 -2.37201 3.52045 0
M  V30 1438 C 134.99 -1.53129 5.71231 0
M  V30 1439 H 133.92 -0.34276 0.671589 0
M  V30 1440 H 136.571 -0.161109 1.82791 0
M  V30 1441 H 134.953 -2.45572 3.10661 0
M  V30 1442 H 136.127 -0.0226298 4.60794 0
M  V30 1443 H 134.442 -0.178627 4.16017 0
M  V30 1444 H 137.039 -2.94329 4.46402 0
M  V30 1445 H 137.382 -3.11632 2.76028 0
M  V30 1446 H 137.915 -1.65075 3.61932 0
M  V30 1447 H 134.654 -0.82967 6.50228 0
M  V30 1448 H 134.174 -2.25767 5.55688 0
M  V30 1449 H 135.853 -2.08377 6.12526 0
M  V30 1450 N 135.985 -1.50799 -0.457987 0
M  V30 1451 C 136.935 -1.67003 -1.55222 0
M  V30 1452 C 137.919 -0.52434 -1.52117 0
M  V30 1453 O 139.111 -0.779345 -1.58919 0
M  V30 1454 C 136.24 -1.77956 -2.93576 0
M  V30 1455 C 135.326 -2.98243 -3.01516 0
M  V30 1456 N 135.717 -4.21732 -2.79241 0
M  V30 1457 C 134.015 -2.97072 -3.32662 0
M  V30 1458 C 134.716 -5.02817 -2.92489 0
M  V30 1459 N 133.692 -4.37038 -3.23262 0
M  V30 1460 H 137.494 -2.60163 -1.36721 0
M  V30 1461 H 135.008 -1.48163 -0.664952 0
M  V30 1462 H 137.005 -1.87671 -3.72271 0
M  V30 1463 H 135.665 -0.859634 -3.13114 0
M  V30 1464 H 136.676 -4.51016 -2.54567 0
M  V30 1465 H 133.353 -2.14631 -3.58106 0
M  V30 1466 H 134.743 -6.11054 -2.79396 0
M  V30 1467 N 137.463 0.71206 -1.40597 0
M  V30 1468 C 138.691 1.50111 -1.42388 0
M  V30 1469 C 139.106 1.88784 -0.0245395 0
M  V30 1470 O 138.463 1.55681 0.952351 0
M  V30 1471 C 138.514 2.7742 -2.31776 0
M  V30 1472 O 138.235 2.40382 -3.66262 0
M  V30 1473 C 139.736 3.7129 -2.42196 0
M  V30 1474 H 136.956 0.46314 -0.485533 0
M  V30 1475 H 139.5 0.878068 -1.8469 0
M  V30 1476 H 137.655 3.36001 -1.92827 0
M  V30 1477 H 138.069 3.22324 -4.13772 0
M  V30 1478 H 139.543 4.57448 -3.08943 0
M  V30 1479 H 140.02 4.14641 -1.44809 0
M  V30 1480 H 140.626 3.18619 -2.81712 0
M  V30 1481 N 138.941 1.26152 0.944643 0
M  V30 1482 C 140.218 1.02247 1.66748 0
M  V30 1483 C 140.598 -0.448202 2.06287 0
M  V30 1484 O 139.946 -1.42779 1.78399 0
M  V30 1485 C 140.156 1.96788 2.88228 0
M  V30 1486 C 141.504 2.25201 3.59958 0
M  V30 1487 O 142.528 1.94626 2.98327 0
M  V30 1488 O 141.387 2.77242 4.70956 0
M  V30 1489 H 138.481 0.388517 0.730057 0
M  V30 1490 H 141.027 1.37348 0.99668 0
M  V30 1491 H 139.799 2.96047 2.55875 0
M  V30 1492 H 139.422 1.62145 3.63035 0
M  V30 1493 N 140.419 -1.14872 1.07899 0
M  V30 1494 C 141.352 -2.18794 0.64841 0
M  V30 1495 C 142.33 -1.59065 -0.337189 0
M  V30 1496 O 143.514 -1.86936 -0.242284 0
M  V30 1497 C 140.641 -3.38667 -0.0470417 0
M  V30 1498 C 139.687 -4.16942 0.897884 0
M  V30 1499 S 140.52 -4.78615 2.40183 0
M  V30 1500 C 141.676 -6.0185 1.71834 0
M  V30 1501 H 141.909 -2.5498 1.52881 0
M  V30 1502 H 139.442 -1.25922 0.893484 0
M  V30 1503 H 141.4 -4.08113 -0.442027 0
M  V30 1504 H 140.061 -3.00814 -0.903861 0
M  V30 1505 H 139.254 -5.02726 0.358096 0
M  V30 1506 H 138.856 -3.53073 1.23352 0
M  V30 1507 H 141.148 -6.69574 1.03328 0
M  V30 1508 H 142.091 -6.60408 2.55473 0
M  V30 1509 H 142.499 -5.5173 1.19392 0
M  V30 1510 N 141.898 -0.863906 -1.31812 0
M  V30 1511 C 143.128 -0.485406 -2.00817 0
M  V30 1512 C 143.536 0.925007 -1.65046 0
M  V30 1513 O 142.879 1.61653 -0.872574 0
M  V30 1514 C 142.941 -0.555589 -3.55181 0
M  V30 1515 C 142.605 -1.92654 -4.14407 0
M  V30 1516 C 143.602 -2.89324 -4.31958 0
M  V30 1517 C 141.287 -2.2262 -4.50273 0
M  V30 1518 C 143.281 -4.14108 -4.84555 0
M  V30 1519 C 140.968 -3.47654 -5.02573 0
M  V30 1520 C 141.966 -4.43214 -5.19664 0
M  V30 1521 O 141.654 -5.66033 -5.70843 0
M  V30 1522 H 141.386 -0.188224 -0.649267 0
M  V30 1523 H 143.94 -1.16514 -1.69156 0
M  V30 1524 H 142.17 0.181037 -3.86276 0
M  V30 1525 H 143.859 -0.19138 -4.05449 0
M  V30 1526 H 144.625 -2.6748 -4.04573 0
M  V30 1527 H 140.504 -1.4902 -4.3625 0
M  V30 1528 H 144.048 -4.88703 -4.9781 0
M  V30 1529 H 139.945 -3.69345 -5.29391 0
M  V30 1530 H 140.713 -5.6812 -5.89222 0
M  V30 1531 N 143.376 1.44774 -0.622745 0
M  V30 1532 C 144.622 2.0242 -0.124083 0
M  V30 1533 C 144.955 1.4881 1.24777 0
M  V30 1534 O 144.23 0.668799 1.8264 0
M  V30 1535 C 144.513 3.59957 -0.101619 0
M  V30 1536 C 144.366 4.23867 -1.50521 0
M  V30 1537 C 145.685 4.36284 0.578272 0
M  V30 1538 H 142.804 0.735528 -0.0465645 0
M  V30 1539 H 145.446 1.72447 -0.797617 0
M  V30 1540 H 143.596 3.85623 0.471934 0
M  V30 1541 H 145.268 4.09336 -2.12701 0
M  V30 1542 H 143.511 3.81684 -2.06154 0
M  V30 1543 H 144.182 5.32843 -1.4416 0
M  V30 1544 H 146.658 4.16001 0.0906057 0
M  V30 1545 H 145.534 5.46004 0.563149 0
M  V30 1546 H 145.795 4.10271 1.64713 0
M  V30 1547 N 144.854 0.36279 1.53368 0
M  V30 1548 C 145.802 -0.500155 2.27159 0
M  V30 1549 C 146.796 -1.08575 1.3003 0
M  V30 1550 O 148.002 -1.02927 1.47668 0
M  V30 1551 H 144.377 -0.180009 0.730138 0
M  V30 1552 H 146.348 0.14401 2.98052 0
M  V30 1553 C 145.097 -1.62937 3.07159 0
M  V30 1554 H 144.42 -1.18806 3.8174 0
M  V30 1555 H 145.86 -2.20795 3.61975 0
M  V30 1556 C 144.319 -2.57007 2.17829 0
M  V30 1557 O 144.849 -3.59752 1.78721 0
M  V30 1558 N 143.055 -2.26131 1.82518 0
M  V30 1559 H 142.602 -1.42616 2.14519 0
M  V30 1560 H 142.56 -2.89327 1.23034 0
M  V30 1561 N 146.332 -1.57332 0.0918853 0
M  V30 1562 C 147.557 -1.98995 -0.584442 0
M  V30 1563 C 147.982 -0.970528 -1.61128 0
M  V30 1564 O 147.34 0.0613904 -1.81196 0
M  V30 1565 C 147.388 -3.39636 -1.21161 0
M  V30 1566 O 146.492 -3.40447 -2.32744 0
M  V30 1567 H 145.833 -0.647165 -0.148572 0
M  V30 1568 H 148.363 -2.03873 0.172347 0
M  V30 1569 H 148.373 -3.7726 -1.55367 0
M  V30 1570 H 147.048 -4.13356 -0.459313 0
M  V30 1571 H 145.625 -3.14614 -2.0018 0
M  V30 1572 N 147.81 0.181792 -1.56548 0
M  V30 1573 C 149.059 0.898348 -1.8059 0
M  V30 1574 C 149.372 1.83862 -0.667379 0
M  V30 1575 O 150.578 2.59678 -0.792446 0
M  V30 1576 C 149.034 1.64791 -3.19956 0
M  V30 1577 C 148.642 0.751789 -4.41647 0
M  V30 1578 C 150.386 2.35331 -3.53298 0
M  V30 1579 C 148.293 1.50098 -5.72035 0
M  V30 1580 H 147.223 0.339194 -0.673397 0
M  V30 1581 H 149.874 0.151413 -1.82874 0
M  V30 1582 H 148.256 2.43921 -3.11959 0
M  V30 1583 H 149.43 -0.0018076 -4.608 0
M  V30 1584 H 147.745 0.156562 -4.16106 0
M  V30 1585 H 150.342 2.91958 -4.47956 0
M  V30 1586 H 150.685 3.10164 -2.77676 0
M  V30 1587 H 151.218 1.63154 -3.62803 0
M  V30 1588 H 147.957 0.795175 -6.50659 0
M  V30 1589 H 147.477 2.22817 -5.56878 0
M  V30 1590 H 149.156 2.05125 -6.13622 0
M  V30 1591 N 149.288 1.51039 0.449983 0
M  V30 1592 C 150.536 1.62759 1.19808 0
M  V30 1593 C 150.857 0.339981 1.92013 0
M  V30 1594 O 150.127 -0.643606 1.85026 0
M  V30 1595 H 148.707 0.599811 0.445237 0
M  V30 1596 H 151.369 1.87914 0.517138 0
M  V30 1597 H 150.465 2.44911 1.93455 0
M  V30 1598 N 150.766 -0.704594 1.40972 0
M  V30 1599 C 152.177 -1.28418 1.3552 0
M  V30 1600 C 152.528 -1.96171 0.0339434 0
M  V30 1601 O 151.653 -1.98231 -0.867944 0
M  V30 1602 C 152.248 -2.33528 2.45459 0
M  V30 1603 C 150.807 -2.87085 2.43433 0
M  V30 1604 C 149.954 -1.61007 2.2577 0
M  V30 1605 H 152.905 -0.499963 1.50619 0
M  V30 1606 H 152.926 -3.14619 2.13998 0
M  V30 1607 H 152.438 -1.84187 3.41609 0
M  V30 1608 H 150.539 -3.40626 1.51013 0
M  V30 1609 H 150.652 -3.3813 3.39419 0
M  V30 1610 H 149.016 -1.86482 1.73483 0
M  V30 1611 H 149.799 -1.13675 3.23933 0
M  V30 1612 N 152.244 -1.26651 -0.937939 0
M  V30 1613 C 153.49 -1.12553 -1.687 0
M  V30 1614 C 153.823 0.329782 -1.91379 0
M  V30 1615 O 153.098 1.24202 -1.4968 0
M  V30 1616 C 153.381 -1.89862 -3.05981 0
M  V30 1617 C 153.234 -3.43318 -2.90607 0
M  V30 1618 C 154.553 -1.69499 -4.0615 0
M  V30 1619 H 151.672 -0.410257 -0.612257 0
M  V30 1620 H 154.314 -1.55685 -1.08913 0
M  V30 1621 H 152.464 -1.53204 -3.57017 0
M  V30 1622 H 154.136 -3.89747 -2.46769 0
M  V30 1623 H 152.379 -3.70179 -2.26164 0
M  V30 1624 H 153.05 -3.92642 -3.8799 0
M  V30 1625 H 155.526 -2.01442 -3.64088 0
M  V30 1626 H 154.402 -2.26002 -5.00214 0
M  V30 1627 H 154.663 -0.640365 -4.37438 0
M  V30 1628 N 153.722 1.14298 -1.08507 0
M  V30 1629 C 154.67 2.21483 -0.710483 0
M  V30 1630 C 155.664 1.66998 0.284234 0
M  V30 1631 O 156.87 1.79401 0.146692 0
M  V30 1632 H 153.245 0.721578 -0.211729 0
M  V30 1633 H 155.216 2.50348 -1.62384 0
M  V30 1634 C 153.965 3.4743 -0.137007 0
M  V30 1635 H 153.288 3.89686 -0.893592 0
M  V30 1636 H 154.728 4.2391 0.0872789 0
M  V30 1637 C 153.187 3.17548 1.12538 0
M  V30 1638 O 153.717 3.35437 2.21009 0
M  V30 1639 N 151.923 2.71499 1.03617 0
M  V30 1640 H 151.47 2.57143 0.153403 0
M  V30 1641 H 151.428 2.51881 1.88158 0
M  V30 1642 N 155.201 0.870884 1.31352 0
M  V30 1643 C 156.164 0.332243 2.26779 0
M  V30 1644 C 157.164 -0.517302 1.52252 0
M  V30 1645 O 158.354 -0.326477 1.71113 0
M  V30 1646 C 155.486 -0.528066 3.36785 0
M  V30 1647 H 156.679 1.17469 2.75937 0
M  V30 1648 H 154.232 0.64655 1.423 0
M  V30 1649 H 154.967 -1.39167 2.92922 0
M  V30 1650 H 154.752 0.0802582 3.92018 0
M  V30 1651 H 156.242 -0.897179 4.07849 0
M  V30 1652 N 156.679 -1.44442 0.630414 0
M  V30 1653 C 157.928 -2.01267 0.132073 0
M  V30 1654 C 158.241 -1.50172 -1.25331 0
M  V30 1655 O 159.447 -1.9912 -1.84562 0
M  V30 1656 C 157.903 -3.59422 0.185362 0
M  V30 1657 C 157.511 -4.19514 1.57201 0
M  V30 1658 C 159.255 -4.23724 -0.256553 0
M  V30 1659 C 157.162 -5.69891 1.58045 0
M  V30 1660 H 156.092 -0.752619 0.0456092 0
M  V30 1661 H 158.743 -1.65666 0.789106 0
M  V30 1662 H 157.125 -3.92318 -0.538759 0
M  V30 1663 H 158.299 -3.98156 2.31966 0
M  V30 1664 H 156.614 -3.67496 1.95795 0
M  V30 1665 H 159.211 -5.34019 -0.269767 0
M  V30 1666 H 159.554 -3.96013 -1.28372 0
M  V30 1667 H 160.087 -3.95629 0.41505 0
M  V30 1668 H 156.826 -6.02336 2.58597 0
M  V30 1669 H 156.346 -5.93373 0.875725 0
M  V30 1670 H 158.025 -6.33515 1.31408 0
M  V30 1671 N 158.157 -0.370918 -1.53173 0
M  V30 1672 C 159.105 0.488101 -2.27421 0
M  V30 1673 C 160.099 1.07884 -1.30604 0
M  V30 1674 O 161.305 1.02143 -1.48212 0
M  V30 1675 H 157.68 0.176134 -0.731082 0
M  V30 1676 H 159.651 -0.159815 -2.97972 0
M  V30 1677 C 158.4 1.61306 -3.08019 0
M  V30 1678 H 157.723 1.1678 -3.82364 0
M  V30 1679 H 159.163 2.18872 -3.63141 0
M  V30 1680 C 157.622 2.55848 -2.19188 0
M  V30 1681 O 158.152 3.58799 -1.80626 0
M  V30 1682 N 156.358 2.2516 -1.83715 0
M  V30 1683 H 155.905 1.41476 -2.15273 0
M  V30 1684 H 155.863 2.8867 -1.24567 0
M  V30 1685 N 159.635 1.57281 -0.100228 0
M  V30 1686 C 160.568 2.09976 0.893612 0
M  V30 1687 C 161.546 1.01155 1.27304 0
M  V30 1688 O 162.73 1.28687 1.37739 0
M  V30 1689 C 159.857 2.58098 2.19324 0
M  V30 1690 C 158.903 3.78626 1.96328 0
M  V30 1691 S 159.736 5.21959 1.19662 0
M  V30 1692 C 160.892 5.73435 2.50844 0
M  V30 1693 H 161.125 2.93946 0.44534 0
M  V30 1694 H 158.658 1.53985 0.113167 0
M  V30 1695 H 160.616 2.8648 2.94005 0
M  V30 1696 H 159.277 1.74344 2.61272 0
M  V30 1697 H 158.47 4.10382 2.92579 0
M  V30 1698 H 158.072 3.50763 1.29775 0
M  V30 1699 H 160.364 5.82015 3.46792 0
M  V30 1700 H 161.307 6.7185 2.23659 0
M  V30 1701 H 161.715 5.01395 2.59352 0
M  V30 1702 N 161.113 -0.173488 1.56642 0
M  V30 1703 C 162.023 -1.23482 1.99473 0
M  V30 1704 C 163.039 -1.48567 0.905752 0
M  V30 1705 O 164.215 -1.60758 1.21321 0
M  V30 1706 C 161.28 -2.55444 2.34413 0
M  V30 1707 C 160.341 -2.38241 3.57127 0
M  V30 1708 C 159.574 -3.63909 3.90392 0
M  V30 1709 O 159.797 -4.68996 3.24653 0
M  V30 1710 O 158.731 -3.58149 4.83749 0
M  V30 1711 H 162.557 -0.901279 2.90018 0
M  V30 1712 H 160.142 -0.380185 1.44482 0
M  V30 1713 H 162.024 -3.33292 2.57865 0
M  V30 1714 H 160.699 -2.88382 1.4703 0
M  V30 1715 H 159.606 -1.58431 3.38896 0
M  V30 1716 H 160.939 -2.10228 4.45045 0
M  V30 1717 N 162.591 -1.51276 -0.441967 0
M  V30 1718 C 163.821 -1.67273 -1.21257 0
M  V30 1719 C 164.229 -0.367624 -1.85594 0
M  V30 1720 O 163.572 0.663349 -1.71305 0
M  V30 1721 C 163.634 -2.72807 -2.34129 0
M  V30 1722 C 163.298 -4.1554 -1.90198 0
M  V30 1723 C 164.295 -5.00471 -1.40801 0
M  V30 1724 C 161.98 -4.61616 -1.9803 0
M  V30 1725 C 163.974 -6.29536 -0.998174 0
M  V30 1726 C 161.661 -5.90679 -1.56658 0
M  V30 1727 C 162.659 -6.74466 -1.07633 0
M  V30 1728 O 162.347 -8.01116 -0.668459 0
M  V30 1729 H 162.079 -0.564614 -0.371734 0
M  V30 1730 H 164.633 -1.9843 -0.530521 0
M  V30 1731 H 162.863 -2.36954 -3.05597 0
M  V30 1732 H 164.552 -2.77729 -2.96009 0
M  V30 1733 H 165.318 -4.66079 -1.34148 0
M  V30 1734 H 161.197 -3.96526 -2.35135 0
M  V30 1735 H 164.741 -6.94885 -0.61482 0
M  V30 1736 H 160.638 -6.24586 -1.62979 0
M  V30 1737 H 161.406 -8.14633 -0.794722 0
M  V30 1738 N 164.069 0.697108 -1.41344 0
M  V30 1739 C 165.297 1.48593 -1.43972 0
M  V30 1740 C 165.712 1.88747 -0.0445612 0
M  V30 1741 O 165.069 1.56682 0.935785 0
M  V30 1742 C 165.12 2.74946 -2.34706 0
M  V30 1743 O 164.841 2.36484 -3.68791 0
M  V30 1744 C 166.342 3.687 -2.46121 0
M  V30 1745 H 163.562 0.457964 -0.490418 0
M  V30 1746 H 166.106 0.858429 -1.8561 0
M  V30 1747 H 164.261 3.33937 -1.9638 0
M  V30 1748 H 164.675 3.17918 -4.17167 0
M  V30 1749 H 166.149 4.54145 -3.13777 0
M  V30 1750 H 166.626 4.13081 -1.49199 0
M  V30 1751 H 167.232 3.15613 -2.85076 0
M  V30 1752 N 165.547 1.27147 0.931209 0
M  V30 1753 C 166.796 1.12664 1.67302 0
M  V30 1754 C 167.109 -0.327718 1.92835 0
M  V30 1755 O 168.315 -0.593392 2.64936 0
M  V30 1756 C 166.771 1.9683 3.01307 0
M  V30 1757 C 166.379 3.46901 2.83485 0
M  V30 1758 C 168.123 1.90985 3.79111 0
M  V30 1759 C 166.03 4.23279 4.13024 0
M  V30 1760 H 164.96 0.41803 0.627509 0
M  V30 1761 H 167.611 1.51539 1.03481 0
M  V30 1762 H 165.993 1.50797 3.66164 0
M  V30 1763 H 167.167 4.00773 2.27415 0
M  V30 1764 H 165.482 3.54088 2.19113 0
M  V30 1765 H 168.079 2.45328 4.75098 0
M  V30 1766 H 168.422 0.882718 4.06834 0
M  V30 1767 H 168.955 2.34895 3.21044 0
M  V30 1768 H 165.694 5.26503 3.90481 0
M  V30 1769 H 165.214 3.74186 4.6877 0
M  V30 1770 H 166.893 4.32265 4.81411 0
M  V30 1771 N 167.025 -1.13721 1.09112 0
M  V30 1772 C 168.302 -1.81155 0.737706 0
M  V30 1773 C 168.682 -1.96253 -0.777683 0
M  V30 1774 O 168.03 -1.52807 -1.69889 0
M  V30 1775 C 168.24 -3.16392 1.47299 0
M  V30 1776 C 169.588 -3.91787 1.63671 0
M  V30 1777 O 170.612 -3.26005 1.43524 0
M  V30 1778 O 169.471 -5.0977 1.96969 0
M  V30 1779 H 166.565 -0.783518 0.26463 0
M  V30 1780 H 169.111 -1.20676 1.19312 0
M  V30 1781 H 167.883 -3.0061 2.50498 0
M  V30 1782 H 167.506 -3.8457 1.00953 0
M  V30 1783 N 168.503 -0.877838 -1.30888 0
M  V30 1784 C 169.752 -0.488793 -1.95688 0
M  V30 1785 C 170.065 0.965485 -1.70111 0
M  V30 1786 O 171.271 1.46104 -2.28836 0
M  V30 1787 C 169.727 -0.823201 -3.50359 0
M  V30 1788 C 169.335 -2.29477 -3.84765 0
M  V30 1789 C 171.079 -0.503009 -4.21509 0
M  V30 1790 C 168.986 -2.57118 -5.32583 0
M  V30 1791 H 167.916 -0.179062 -0.732429 0
M  V30 1792 H 170.567 -1.07183 -1.48943 0
M  V30 1793 H 168.949 -0.169331 -3.95638 0
M  V30 1794 H 170.123 -2.99236 -3.5042 0
M  V30 1795 H 168.438 -2.58178 -3.267 0
M  V30 1796 H 171.035 -0.68665 -5.30273 0
M  V30 1797 H 171.378 0.557109 -4.12555 0
M  V30 1798 H 171.911 -1.11376 -3.8189 0
M  V30 1799 H 168.65 -3.61843 -5.4658 0
M  V30 1800 H 168.17 -1.91961 -5.68253 0
M  V30 1801 H 169.849 -2.42251 -5.99936 0
M  V30 1802 N 169.982 1.44106 -0.638065 0
M  V30 1803 C 171.229 2.01978 -0.14533 0
M  V30 1804 C 171.557 1.50234 1.23532 0
M  V30 1805 O 170.812 0.679548 1.83523 0
M  V30 1806 C 171.111 3.5729 -0.0887327 0
M  V30 1807 C 170.777 4.28317 -1.40909 0
M  V30 1808 C 169.439 4.47437 -1.77069 0
M  V30 1809 C 171.791 4.6867 -2.28031 0
M  V30 1810 C 169.119 5.04171 -3.00047 0
M  V30 1811 C 171.471 5.26766 -3.50286 0
M  V30 1812 C 170.135 5.44104 -3.86661 0
M  V30 1813 H 169.405 0.739089 -0.0531801 0
M  V30 1814 H 172.052 1.72781 -0.825761 0
M  V30 1815 H 170.357 3.8594 0.675095 0
M  V30 1816 H 172.054 3.99807 0.309145 0
M  V30 1817 H 168.644 4.1377 -1.1177 0
M  V30 1818 H 172.828 4.53604 -2.01388 0
M  V30 1819 H 168.084 5.15782 -3.28298 0
M  V30 1820 H 172.258 5.56983 -4.18023 0
M  V30 1821 H 169.885 5.87832 -4.82034 0
M  V30 1822 N 171.46 0.379036 1.52974 0
M  V30 1823 C 172.707 -0.206421 2.01445 0
M  V30 1824 C 173.035 -1.47668 1.26587 0
M  V30 1825 O 172.29 -1.92514 0.351675 0
M  V30 1826 C 172.589 -0.53096 3.53434 0
M  V30 1827 C 172.255 0.646546 4.46241 0
M  V30 1828 C 170.917 0.969604 4.7133 0
M  V30 1829 C 173.269 1.43479 5.01062 0
M  V30 1830 C 170.597 2.08263 5.48492 0
M  V30 1831 C 172.949 2.53834 5.7944 0
M  V30 1832 C 171.613 2.86659 6.02812 0
M  V30 1833 H 170.883 -0.0755349 0.73714 0
M  V30 1834 H 173.53 0.514271 1.84465 0
M  V30 1835 H 171.835 -1.33285 3.68432 0
M  V30 1836 H 173.532 -0.996417 3.88423 0
M  V30 1837 H 170.122 0.384734 4.2687 0
M  V30 1838 H 174.306 1.19844 4.81613 0
M  V30 1839 H 169.562 2.34078 5.64816 0
M  V30 1840 H 173.736 3.15319 6.20924 0
M  V30 1841 H 171.363 3.73026 6.62387 0
M  V30 1842 N 172.938 -1.57226 0.108567 0
M  V30 1843 C 173.901 -2.13602 -0.831082 0
M  V30 1844 C 174.901 -1.06841 -1.20173 0
M  V30 1845 O 176.091 -1.32666 -1.12895 0
M  V30 1846 C 173.223 -2.66769 -2.12243 0
M  V30 1847 H 174.416 -2.97951 -0.341317 0
M  V30 1848 H 171.969 -1.55667 -0.14057 0
M  V30 1849 H 172.704 -1.85977 -2.65675 0
M  V30 1850 H 172.489 -3.44839 -1.86625 0
M  V30 1851 H 173.979 -3.10332 -2.79435 0
M  V30 1852 N 174.416 0.165178 -1.56732 0
M  V30 1853 C 175.348 1.22911 -1.93457 0
M  V30 1854 C 176.361 1.40152 -0.828333 0
M  V30 1855 O 177.55 1.40046 -1.10677 0
M  V30 1856 C 174.65 2.59686 -2.17753 0
M  V30 1857 C 173.823 2.63663 -3.48999 0
M  V30 1858 C 172.882 3.81845 -3.62051 0
M  V30 1859 O 171.908 3.67559 -4.34613 0
M  V30 1860 N 173.11 4.98557 -2.97357 0
M  V30 1861 H 175.875 0.917118 -2.85323 0
M  V30 1862 H 173.436 0.354895 -1.57962 0
M  V30 1863 H 175.428 3.37225 -2.23743 0
M  V30 1864 H 173.998 2.83251 -1.32242 0
M  V30 1865 H 173.218 1.72173 -3.54612 0
M  V30 1866 H 174.506 2.63336 -4.35352 0
M  V30 1867 H 173.904 5.13065 -2.38287 0
M  V30 1868 H 172.461 5.73936 -3.08934 0
M  V30 1869 N 175.894 1.51508 0.433938 0
M  V30 1870 C 177.122 1.68157 1.20543 0
M  V30 1871 C 177.537 0.380362 1.84929 0
M  V30 1872 O 176.894 -0.641446 1.70856 0
M  V30 1873 C 176.945 2.79965 2.28696 0
M  V30 1874 O 176.666 4.05045 1.66943 0
M  V30 1875 C 178.167 3.07912 3.18912 0
M  V30 1876 H 175.387 0.56421 0.363191 0
M  V30 1877 H 177.931 1.97941 0.513754 0
M  V30 1878 H 176.086 2.5277 2.93574 0
M  V30 1879 H 176.5 4.67165 2.38448 0
M  V30 1880 H 177.974 3.89719 3.90926 0
M  V30 1881 H 178.451 2.20456 3.79863 0
M  V30 1882 H 179.057 3.36779 2.59731 0
M  V30 1883 N 177.372 -0.689602 1.41712 0
M  V30 1884 C 178.618 -1.45041 1.42599 0
M  V30 1885 C 178.973 -1.92366 0.0363764 0
M  V30 1886 O 178.266 -1.67022 -0.938844 0
M  V30 1887 C 178.46 -2.67298 2.37247 0
M  V30 1888 C 178.289 -2.31935 3.85274 0
M  V30 1889 C 177.059 -2.2201 4.53916 0
M  V30 1890 C 179.257 -1.94526 4.76093 0
M  V30 1891 N 177.239 -1.79594 5.87043 0
M  V30 1892 C 178.61 -1.62915 5.98213 0
M  V30 1893 C 180.665 -1.81388 4.63684 0
M  V30 1894 C 179.368 -1.19486 7.09306 0
M  V30 1895 C 181.394 -1.39364 5.74745 0
M  V30 1896 C 180.756 -1.08668 6.95967 0
M  V30 1897 H 176.855 -0.527806 0.577014 0
M  V30 1898 H 179.439 -0.797266 1.77628 0
M  V30 1899 H 177.61 -3.30325 2.04304 0
M  V30 1900 H 179.342 -3.33806 2.28814 0
M  V30 1901 H 176.097 -2.406 4.07932 0
M  V30 1902 H 176.521 -1.60851 6.57614 0
M  V30 1903 H 181.163 -2.03772 3.70455 0
M  V30 1904 H 178.881 -0.958477 8.02396 0
M  V30 1905 H 182.467 -1.2974 5.6715 0
M  V30 1906 H 181.347 -0.766417 7.80446 0
M  V30 1907 N 178.85 -1.27639 -0.924453 0
M  V30 1908 C 180.08 -1.16819 -1.70402 0
M  V30 1909 C 180.488 0.277191 -1.87158 0
M  V30 1910 O 179.831 1.20025 -1.39067 0
M  V30 1911 C 179.893 -1.78305 -3.12166 0
M  V30 1912 C 179.557 -3.27502 -3.18734 0
M  V30 1913 C 180.554 -4.2409 -3.00738 0
M  V30 1914 C 178.239 -3.68269 -3.4159 0
M  V30 1915 C 180.233 -5.59422 -3.05492 0
M  V30 1916 C 177.92 -5.0373 -3.45977 0
M  V30 1917 C 178.918 -5.99116 -3.27946 0
M  V30 1918 O 178.606 -7.32108 -3.32074 0
M  V30 1919 H 178.338 -0.406931 -0.539799 0
M  V30 1920 H 180.892 -1.69078 -1.16626 0
M  V30 1921 H 179.122 -1.20528 -3.67437 0
M  V30 1922 H 180.811 -1.62154 -3.72103 0
M  V30 1923 H 181.577 -3.93931 -2.82919 0
M  V30 1924 H 177.456 -2.94496 -3.54673 0
M  V30 1925 H 181 -6.33852 -2.91337 0
M  V30 1926 H 176.897 -5.33543 -3.63321 0
M  V30 1927 H 177.665 -7.40598 -3.48507 0
M  V30 1928 N 180.328 1.1314 -1.09713 0
M  V30 1929 C 181.605 1.80762 -0.747302 0
M  V30 1930 C 181.985 1.96663 0.767265 0
M  V30 1931 O 181.333 1.53706 1.69076 0
M  V30 1932 C 181.543 3.15606 -1.48975 0
M  V30 1933 C 182.891 3.90914 -1.65746 0
M  V30 1934 O 183.915 3.25239 -1.45251 0
M  V30 1935 O 182.774 5.08718 -1.9967 0
M  V30 1936 H 179.868 0.782103 -0.268782 0
M  V30 1937 H 182.414 1.20041 -1.19951 0
M  V30 1938 H 181.186 2.99278 -2.52088 0
M  V30 1939 H 180.809 3.84029 -1.02991 0
M  V30 1940 N 181.806 0.884767 1.30421 0
M  V30 1941 C 183.222 0.57874 1.48737 0
M  V30 1942 C 183.422 -0.883567 1.81095 0
M  V30 1943 O 182.478 -1.6648 1.89844 0
M  V30 1944 C 183.791 1.49171 2.61091 0
M  V30 1945 C 185.339 1.49532 2.74971 0
M  V30 1946 C 185.814 2.39421 3.90438 0
M  V30 1947 N 187.305 2.37383 3.97748 0
M  V30 1948 C 188.04 3.03647 4.86401 0
M  V30 1949 N 187.536 3.79136 5.79852 0
M  V30 1950 N 189.329 2.9288 4.79768 0
M  V30 1951 H 181.48 1.83075 1.0769 0
M  V30 1952 H 183.743 0.783637 0.533495 0
M  V30 1953 H 183.449 2.53291 2.44001 0
M  V30 1954 H 183.323 1.20113 3.57565 0
M  V30 1955 H 185.71 0.46163 2.91467 0
M  V30 1956 H 185.791 1.8262 1.79119 0
M  V30 1957 H 185.435 3.42874 3.74699 0
M  V30 1958 H 185.365 2.03649 4.85628 0
M  V30 1959 H 187.856 1.82525 3.30897 0
M  V30 1960 H 188.169 4.26789 6.4426 0
M  V30 1961 H 186.514 3.83243 5.79784 0
M  V30 1962 H 189.705 2.33433 4.05742 0
M  V30 1963 H 189.878 3.448 5.4865 0
M  V30 1964 N 183.284 -1.43765 0.645699 0
M  V30 1965 C 184.7 -1.56509 0.312591 0
M  V30 1966 C 184.9 -1.6307 -1.18365 0
M  V30 1967 O 183.956 -1.58167 -1.96824 0
M  V30 1968 C 185.269 -2.82968 1.01733 0
M  V30 1969 C 186.817 -2.96701 0.996865 0
M  V30 1970 C 187.292 -4.25982 1.68236 0
M  V30 1971 N 188.783 -4.32829 1.64964 0
M  V30 1972 C 189.518 -5.31613 2.14885 0
M  V30 1973 N 189.014 -6.36718 2.73061 0
M  V30 1974 N 190.807 -5.23217 2.05428 0
M  V30 1975 H 182.958 -1.3775 1.61675 0
M  V30 1976 H 185.221 -0.661067 0.679481 0
M  V30 1977 H 184.927 -2.84156 2.0724 0
M  V30 1978 H 184.801 -3.72957 0.564177 0
M  V30 1979 H 187.188 -2.95058 -0.0497719 0
M  V30 1980 H 187.269 -2.08022 1.48865 0
M  V30 1981 H 186.913 -4.28386 2.72852 0
M  V30 1982 H 186.843 -5.13545 1.16529 0
M  V30 1983 H 189.334 -3.57493 1.22503 0
M  V30 1984 H 189.647 -7.08401 3.08848 0
M  V30 1985 H 187.992 -6.37362 2.77118 0
M  V30 1986 H 191.183 -4.40019 1.59689 0
M  V30 1987 H 191.356 -6.00045 2.44643 0
M  V30 1988 N 184.763 -0.387143 -1.52771 0
M  V30 1989 C 185.693 0.440551 -2.29306 0
M  V30 1990 C 186.674 1.06535 -1.32606 0
M  V30 1991 O 187.859 1.07853 -1.61497 0
M  V30 1992 C 184.989 1.56919 -3.09829 0
M  V30 1993 C 183.943 1.07054 -4.14395 0
M  V30 1994 C 183.269 2.29109 -4.83129 0
M  V30 1995 C 184.569 0.140015 -5.22112 0
M  V30 1996 H 186.263 -0.198026 -2.98744 0
M  V30 1997 H 183.809 -0.09668 -1.43675 0
M  V30 1998 H 185.762 2.15503 -3.62128 0
M  V30 1999 H 184.486 2.23532 -2.3812 0
M  V30 2000 H 183.145 0.507247 -3.63074 0
M  V30 2001 H 182.793 2.94227 -4.0797 0
M  V30 2002 H 182.493 1.96406 -5.53804 0
M  V30 2003 H 184.017 2.88339 -5.38231 0
M  V30 2004 H 185.431 0.633978 -5.69784 0
M  V30 2005 H 183.828 -0.0971485 -6.00021 0
M  V30 2006 H 184.898 -0.811711 -4.78058 0
M  V30 2007 N 186.241 1.57166 -0.116904 0
M  V30 2008 C 187.188 2.15202 0.83408 0
M  V30 2009 C 188.158 1.07644 1.26499 0
M  V30 2010 O 189.343 1.35541 1.34288 0
M  V30 2011 C 186.483 2.75405 2.07957 0
M  V30 2012 C 185.596 3.97264 1.69721 0
M  V30 2013 C 184.731 4.45561 2.89221 0
M  V30 2014 C 183.77 5.59956 2.47215 0
M  V30 2015 N 182.907 6.03006 3.59622 0
M  V30 2016 H 187.747 2.96141 0.332335 0
M  V30 2017 H 185.284 1.46309 0.152349 0
M  V30 2018 H 187.242 3.08439 2.80929 0
M  V30 2019 H 185.872 1.97159 2.55594 0
M  V30 2020 H 184.924 3.70404 0.866316 0
M  V30 2021 H 186.236 4.80226 1.34849 0
M  V30 2022 H 185.39 4.80493 3.7042 0
M  V30 2023 H 184.129 3.61544 3.27318 0
M  V30 2024 H 183.134 5.2463 1.64448 0
M  V30 2025 H 184.359 6.45738 2.10238 0
M  V30 2026 H 182.305 5.21931 3.97396 0
M  V30 2027 H 182.222 6.80819 3.28667 0
M  V30 2028 H 183.49 6.42576 4.41267 0
M  V30 2029 N 187.719 -0.156864 1.56817 0
M  V30 2030 C 188.966 -0.871125 1.82805 0
M  V30 2031 C 189.294 -1.81611 0.696262 0
M  V30 2032 O 188.549 -1.93141 -0.315459 0
M  V30 2033 C 188.848 -1.68737 3.1506 0
M  V30 2034 C 188.514 -0.890045 4.42028 0
M  V30 2035 C 187.176 -0.670042 4.76512 0
M  V30 2036 C 189.528 -0.331769 5.20143 0
M  V30 2037 C 186.856 0.119104 5.86579 0
M  V30 2038 C 189.208 0.444365 6.31037 0
M  V30 2039 C 187.872 0.675035 6.64078 0
M  V30 2040 H 187.142 -0.318767 0.668931 0
M  V30 2041 H 189.789 -0.135274 1.91022 0
M  V30 2042 H 188.094 -2.49304 3.0225 0
M  V30 2043 H 189.791 -2.24331 3.3238 0
M  V30 2044 H 186.381 -1.07157 4.14988 0
M  V30 2045 H 190.565 -0.489043 4.93885 0
M  V30 2046 H 185.821 0.307417 6.10627 0
M  V30 2047 H 189.995 0.884139 6.90765 0
M  V30 2048 H 187.622 1.28839 7.49203 0
M  V30 2049 N 189.197 -1.51736 -0.425897 0
M  V30 2050 C 190.145 -1.74464 -1.53834 0
M  V30 2051 C 191.139 -0.611241 -1.57988 0
M  V30 2052 O 192.345 -0.792899 -1.61596 0
M  V30 2053 H 188.72 -0.551437 -0.511293 0
M  V30 2054 H 190.691 -2.67694 -1.31843 0
M  V30 2055 C 189.44 -1.8972 -2.91379 0
M  V30 2056 H 188.763 -2.76344 -2.88919 0
M  V30 2057 H 190.203 -2.09629 -3.68553 0
M  V30 2058 C 188.662 -0.65992 -3.30374 0
M  V30 2059 O 189.192 0.180083 -4.01296 0
M  V30 2060 N 187.398 -0.500677 -2.86254 0
M  V30 2061 H 186.945 -1.18532 -2.28709 0
M  V30 2062 H 186.903 0.325903 -3.12706 0
M  V30 2063 N 190.675 0.682077 -1.42076 0
M  V30 2064 C 191.9 1.47558 -1.45744 0
M  V30 2065 C 192.325 1.87977 -0.0680981 0
M  V30 2066 O 191.683 1.55522 0.9318 0
M  V30 2067 C 191.731 2.70575 -2.38373 0
M  V30 2068 O 190.835 3.68573 -1.85007 0
M  V30 2069 H 190.176 0.443585 -0.494093 0
M  V30 2070 H 192.706 0.837238 -1.86686 0
M  V30 2071 H 192.716 3.18729 -2.54707 0
M  V30 2072 H 191.391 2.40495 -3.39315 0
M  V30 2073 H 189.968 3.2757 -1.78192 0
M  V30 2074 N 192.153 1.28127 0.917671 0
M  V30 2075 C 193.381 1.17892 1.70026 0
M  V30 2076 C 193.796 -0.262958 1.8696 0
M  V30 2077 O 193.153 -1.17811 1.3938 0
M  V30 2078 C 193.204 1.86872 3.09453 0
M  V30 2079 O 192.925 3.25428 2.93306 0
M  V30 2080 C 194.426 1.8289 4.03815 0
M  V30 2081 H 191.646 0.40942 0.531617 0
M  V30 2082 H 194.19 1.69181 1.14883 0
M  V30 2083 H 192.345 1.39464 3.61426 0
M  V30 2084 H 192.759 3.59918 3.81523 0
M  V30 2085 H 194.233 2.35751 4.99125 0
M  V30 2086 H 194.71 0.800412 4.31845 0
M  V30 2087 H 195.316 2.29959 3.57769 0
M  V30 2088 N 193.631 -1.12557 1.10312 0
M  V30 2089 C 194.88 -1.83395 0.839588 0
M  V30 2090 C 195.193 -1.84939 -0.636929 0
M  V30 2091 O 196.399 -2.51761 -1.01631 0
M  V30 2092 C 194.855 -3.29303 1.45215 0
M  V30 2093 C 194.463 -3.36122 2.96186 0
M  V30 2094 C 196.207 -4.05121 1.26796 0
M  V30 2095 C 194.114 -4.76357 3.50483 0
M  V30 2096 H 193.044 -0.687133 0.310425 0
M  V30 2097 H 195.695 -1.26746 1.32694 0
M  V30 2098 H 194.077 -3.85812 0.892469 0
M  V30 2099 H 195.251 -2.89559 3.58458 0
M  V30 2100 H 193.566 -2.73776 3.13745 0
M  V30 2101 H 196.163 -5.08668 1.64806 0
M  V30 2102 H 196.506 -4.15773 0.209409 0
M  V30 2103 H 197.039 -3.54967 1.79563 0
M  V30 2104 H 193.778 -4.70899 4.55998 0
M  V30 2105 H 193.298 -5.23377 2.92978 0
M  V30 2106 H 194.977 -5.45294 3.48228 0
M  V30 2107 N 195.109 -0.891671 -1.2995 0
M  V30 2108 C 196.056 -0.361736 -2.27948 0
M  V30 2109 C 197.026 0.551761 -1.56668 0
M  V30 2110 O 198.211 0.478736 -1.84696 0
M  V30 2111 C 195.351 0.411825 -3.42634 0
M  V30 2112 C 194.464 -0.531651 -4.28716 0
M  V30 2113 C 193.599 0.258167 -5.30572 0
M  V30 2114 C 192.638 -0.680349 -6.08307 0
M  V30 2115 N 191.775 0.0745613 -7.0206 0
M  V30 2116 H 196.615 -1.20254 -2.72659 0
M  V30 2117 H 194.152 -0.604352 -1.34112 0
M  V30 2118 H 196.11 0.876304 -4.07893 0
M  V30 2119 H 194.74 1.21715 -2.98974 0
M  V30 2120 H 193.792 -1.11463 -3.63703 0
M  V30 2121 H 195.104 -1.25038 -4.82874 0
M  V30 2122 H 194.258 0.784204 -6.0161 0
M  V30 2123 H 192.997 1.01008 -4.77126 0
M  V30 2124 H 192.002 -1.21796 -5.3614 0
M  V30 2125 H 193.227 -1.43145 -6.63842 0
M  V30 2126 H 191.173 0.808883 -6.50994 0
M  V30 2127 H 191.09 -0.584409 -7.53738 0
M  V30 2128 H 192.358 0.581123 -7.77331 0
M  V30 2129 N 196.587 1.43421 -0.653314 0
M  V30 2130 C 197.833 2.02111 -0.166992 0
M  V30 2131 C 198.166 1.51423 1.21592 0
M  V30 2132 O 197.441 0.707389 1.8118 0
M  V30 2133 C 197.724 3.5966 -0.177948 0
M  V30 2134 C 197.577 4.20579 -1.59478 0
M  V30 2135 C 198.896 4.37413 0.4856 0
M  V30 2136 H 196.015 0.734374 -0.0621557 0
M  V30 2137 H 198.657 1.70717 -0.834016 0
M  V30 2138 H 196.807 3.86537 0.390032 0
M  V30 2139 H 198.479 4.04732 -2.21336 0
M  V30 2140 H 196.722 3.77226 -2.14204 0
M  V30 2141 H 197.393 5.29665 -1.5543 0
M  V30 2142 H 199.869 4.161 0.00234528 0
M  V30 2143 H 198.745 5.47075 0.447207 0
M  V30 2144 H 199.006 4.13672 1.55974 0
M  V30 2145 N 198.065 0.39524 1.52563 0
M  V30 2146 C 198.995 -0.428384 2.29537 0
M  V30 2147 C 199.976 -1.05831 1.33169 0
M  V30 2148 O 201.161 -1.06995 1.62067 0
M  V30 2149 C 198.291 -1.55274 3.10656 0
M  V30 2150 C 197.245 -1.04855 4.14957 0
M  V30 2151 C 196.571 -2.26543 4.84337 0
M  V30 2152 C 197.871 -0.112324 5.22179 0
M  V30 2153 H 199.565 0.213867 2.98635 0
M  V30 2154 H 197.111 0.104298 1.43622 0
M  V30 2155 H 199.064 -2.1358 3.63265 0
M  V30 2156 H 197.788 -2.22266 2.39302 0
M  V30 2157 H 196.447 -0.487985 3.63338 0
M  V30 2158 H 196.095 -2.92059 4.09525 0
M  V30 2159 H 195.795 -1.93466 5.54837 0
M  V30 2160 H 197.319 -2.85481 5.39753 0
M  V30 2161 H 198.733 -0.603752 5.70112 0
M  V30 2162 H 197.13 0.128968 5.99961 0
M  V30 2163 H 198.2 0.837052 4.77621 0
M  V30 2164 N 199.544 -1.57102 0.125237 0
M  V30 2165 C 200.96 -1.57915 -0.231322 0
M  V30 2166 C 201.16 -1.13833 -1.66266 0
M  V30 2167 O 200.216 -0.828581 -2.38518 0
M  V30 2168 C 201.529 -3.00699 0.00766489 0
M  V30 2169 C 203.077 -3.12947 -0.0577483 0
M  V30 2170 C 203.552 -4.57742 0.153626 0
M  V30 2171 N 205.043 -4.63092 0.0998073 0
M  V30 2172 C 205.778 -5.72905 0.238174 0
M  V30 2173 N 205.274 -6.91445 0.433057 0
M  V30 2174 N 207.067 -5.6182 0.177308 0
M  V30 2175 H 199.218 -1.84055 1.06007 0
M  V30 2176 H 201.481 -0.850905 0.417929 0
M  V30 2177 H 201.187 -3.3726 0.997431 0
M  V30 2178 H 201.061 -3.70236 -0.721452 0
M  V30 2179 H 203.448 -2.7624 -1.03804 0
M  V30 2180 H 203.529 -2.4594 0.70335 0
M  V30 2181 H 203.173 -4.95149 1.13092 0
M  V30 2182 H 203.103 -5.22848 -0.627534 0
M  V30 2183 H 205.594 -3.77871 -0.047051 0
M  V30 2184 H 205.907 -7.70985 0.529332 0
M  V30 2185 H 204.252 -6.93415 0.469109 0
M  V30 2186 H 207.443 -4.68093 0.0259748 0
M  V30 2187 H 207.616 -6.47357 0.288582 0
M  V30 2188 N 201.022 0.148545 -1.56898 0
M  V30 2189 C 201.952 1.18524 -2.01182 0
M  V30 2190 C 202.933 1.4489 -0.891123 0
M  V30 2191 O 204.118 1.55836 -1.15882 0
M  V30 2192 C 201.248 2.51879 -2.39112 0
M  V30 2193 C 200.202 2.40038 -3.54353 0
M  V30 2194 C 199.528 3.78089 -3.78091 0
M  V30 2195 C 200.828 1.88577 -4.87069 0
M  V30 2196 H 202.522 0.817029 -2.88036 0
M  V30 2197 H 200.068 0.391575 -1.38574 0
M  V30 2198 H 202.021 3.24627 -2.68692 0
M  V30 2199 H 200.745 2.90532 -1.49193 0
M  V30 2200 H 199.404 1.69742 -3.24936 0
M  V30 2201 H 199.052 4.14175 -2.85426 0
M  V30 2202 H 198.752 3.71028 -4.55645 0
M  V30 2203 H 200.276 4.52387 -4.10095 0
M  V30 2204 H 201.69 2.51117 -5.15377 0
M  V30 2205 H 200.087 1.9241 -5.68417 0
M  V30 2206 H 201.157 0.84136 -4.77545 0
M  V30 2207 N 202.5 1.5196 0.417844 0
M  V30 2208 C 203.448 1.75278 1.52907 0
M  V30 2209 C 204.442 0.619611 1.57662 0
M  V30 2210 O 205.648 0.801457 1.61173 0
M  V30 2211 H 202.023 0.554141 0.508362 0
M  V30 2212 H 203.994 2.68389 1.30422 0
M  V30 2213 C 202.743 1.91262 2.90369 0
M  V30 2214 H 202.066 2.77872 2.8745 0
M  V30 2215 H 203.506 2.11581 3.67436 0
M  V30 2216 C 201.965 0.677431 3.30019 0
M  V30 2217 O 202.495 -0.158799 4.01386 0
M  V30 2218 N 200.701 0.515851 2.85985 0
M  V30 2219 H 200.248 1.19744 2.28077 0
M  V30 2220 H 200.206 -0.309315 3.12875 0
M  V30 2221 N 203.978 -0.674533 1.42435 0
M  V30 2222 C 205.203 -1.46784 1.46524 0
M  V30 2223 C 205.628 -1.87938 0.078066 0
M  V30 2224 O 204.986 -1.56014 -0.92354 0
M  V30 2225 C 205.034 -2.69307 2.39805 0
M  V30 2226 O 204.138 -3.67587 1.86959 0
M  V30 2227 H 203.479 -0.440959 0.496439 0
M  V30 2228 H 206.009 -0.827326 1.87127 0
M  V30 2229 H 206.019 -3.17374 2.56393 0
M  V30 2230 H 204.694 -2.38692 3.40586 0
M  V30 2231 H 203.271 -3.2662 1.79927 0
M  V30 2232 N 205.456 -1.28612 -0.910864 0
M  V30 2233 C 206.404 -1.1265 -2.03501 0
M  V30 2234 C 207.398 -0.0450054 -1.6934 0
M  V30 2235 O 208.604 -0.203988 -1.7884 0
M  V30 2236 H 204.979 -0.347639 -0.666822 0
M  V30 2237 H 206.95 -2.07849 -2.14106 0
M  V30 2238 C 205.699 -0.808143 -3.38178 0
M  V30 2239 H 205.022 -1.63231 -3.6496 0
M  V30 2240 H 206.462 -0.736426 -4.17556 0
M  V30 2241 C 204.921 0.488226 -3.33344 0
M  V30 2242 O 205.451 1.51766 -3.71927 0
M  V30 2243 N 203.657 0.490009 -2.86439 0
M  V30 2244 H 203.204 -0.348161 -2.55236 0
M  V30 2245 H 203.162 1.35741 -2.83587 0
M  V30 2246 N 206.934 1.1197 -1.10907 0
M  V30 2247 C 207.867 2.16998 -0.706192 0
M  V30 2248 C 208.845 1.59903 0.294897 0
M  V30 2249 O 210.029 1.87513 0.192636 0
M  V30 2250 C 207.156 3.38673 -0.0427664 0
M  V30 2251 C 206.202 4.14414 -1.00811 0
M  V30 2252 S 207.035 4.72079 -2.52789 0
M  V30 2253 C 208.191 5.97083 -1.87731 0
M  V30 2254 H 208.424 2.50837 -1.59587 0
M  V30 2255 H 205.957 1.23508 -0.926555 0
M  V30 2256 H 207.915 4.09142 0.333668 0
M  V30 2257 H 206.576 3.03105 0.823788 0
M  V30 2258 H 205.769 5.016 -0.491259 0
M  V30 2259 H 205.371 3.49678 -1.3267 0
M  V30 2260 H 207.663 6.66599 -1.21044 0
M  V30 2261 H 208.606 6.53403 -2.72892 0
M  V30 2262 H 209.014 5.4837 -1.33979 0
M  V30 2263 N 208.412 0.89855 1.29475 0
M  V30 2264 C 209.658 0.524658 1.95896 0
M  V30 2265 C 209.991 -0.926468 1.70676 0
M  V30 2266 O 209.266 -1.65665 1.01908 0
M  V30 2267 C 209.549 0.81633 3.50725 0
M  V30 2268 C 209.402 2.31907 3.85408 0
M  V30 2269 C 210.721 0.302038 4.39062 0
M  V30 2270 H 207.84 0.19209 0.711527 0
M  V30 2271 H 210.482 1.12502 1.53112 0
M  V30 2272 H 208.632 0.305369 3.87298 0
M  V30 2273 H 210.304 2.89949 3.58786 0
M  V30 2274 H 208.547 2.78027 3.32992 0
M  V30 2275 H 209.218 2.47373 4.93468 0
M  V30 2276 H 211.694 0.739551 4.09475 0
M  V30 2277 H 210.57 0.535331 5.46283 0
M  V30 2278 H 210.831 -0.797216 4.34853 0
M  V30 2279 N 209.89 -1.43072 0.660911 0
M  V30 2280 C 211.138 -2.01323 0.177094 0
M  V30 2281 C 211.459 -1.5245 -1.2159 0
M  V30 2282 O 210.729 -0.740322 -1.81373 0
M  V30 2283 H 209.309 -0.744382 0.0624804 0
M  V30 2284 H 211.971 -1.75179 0.854305 0
M  V30 2285 H 211.067 -3.11649 0.167641 0
M  V30 2286 N 211.368 -0.403325 -1.52352 0
M  V30 2287 C 212.315 0.425011 -2.26853 0
M  V30 2288 C 213.285 1.04598 -1.29029 0
M  V30 2289 O 214.47 1.07135 -1.57882 0
M  V30 2290 C 211.61 1.53888 -3.08889 0
M  V30 2291 C 210.723 0.939396 -4.21663 0
M  V30 2292 C 209.858 2.02547 -4.91068 0
M  V30 2293 C 208.897 1.40263 -5.95813 0
M  V30 2294 N 208.034 2.4286 -6.58759 0
M  V30 2295 H 212.874 -0.21674 -2.97211 0
M  V30 2296 H 210.411 -0.118722 -1.4662 0
M  V30 2297 H 212.369 2.19558 -3.54753 0
M  V30 2298 H 210.999 2.15074 -2.40714 0
M  V30 2299 H 210.051 0.171898 -3.80011 0
M  V30 2300 H 211.363 0.44436 -4.96817 0
M  V30 2301 H 210.517 2.75958 -5.40308 0
M  V30 2302 H 209.256 2.55415 -4.15469 0
M  V30 2303 H 208.261 0.653833 -5.45898 0
M  V30 2304 H 209.486 0.881719 -6.73352 0
M  V30 2305 H 207.432 2.94871 -5.85992 0
M  V30 2306 H 207.349 1.98152 -7.2957 0
M  V30 2307 H 208.617 3.15858 -7.12639 0
M  V30 2308 N 212.846 1.57033 -0.133567 0
M  V30 2309 C 214.095 1.94861 0.520768 0
M  V30 2310 C 214.408 1.02012 1.66892 0
M  V30 2311 O 215.614 1.29365 2.38699 0
M  V30 2312 C 214.07 3.46362 0.977809 0
M  V30 2313 C 213.678 4.47773 -0.142674 0
M  V30 2314 C 215.422 3.93083 1.60269 0
M  V30 2315 C 213.329 5.90468 0.331883 0
M  V30 2316 H 212.259 0.727453 0.198315 0
M  V30 2317 H 214.91 1.82227 -0.215759 0
M  V30 2318 H 213.292 3.54282 1.7692 0
M  V30 2319 H 214.466 4.51536 -0.919317 0
M  V30 2320 H 212.781 4.10891 -0.675124 0
M  V30 2321 H 215.378 4.97121 1.96914 0
M  V30 2322 H 215.721 3.33876 2.48662 0
M  V30 2323 H 216.254 3.88025 0.876453 0
M  V30 2324 H 212.993 6.53463 -0.516341 0
M  V30 2325 H 212.513 5.90094 1.07469 0
M  V30 2326 H 214.192 6.42179 0.788332 0
M  V30 2327 N 214.325 -0.140222 1.56975 0
M  V30 2328 C 215.571 -0.848084 1.84876 0
M  V30 2329 C 215.926 -1.78481 0.718481 0
M  V30 2330 O 215.219 -1.89497 -0.283093 0
M  V30 2331 C 215.413 -1.65386 3.16832 0
M  V30 2332 C 215.242 -0.79665 4.42587 0
M  V30 2333 C 214.012 -0.459648 5.03205 0
M  V30 2334 C 216.21 -0.12389 5.14151 0
M  V30 2335 N 214.192 0.410446 6.12526 0
M  V30 2336 C 215.563 0.606064 6.17031 0
M  V30 2337 C 217.618 -0.0452654 4.97879 0
M  V30 2338 C 216.321 1.40723 7.054 0
M  V30 2339 C 218.347 0.742658 5.86718 0
M  V30 2340 C 217.709 1.46087 6.89085 0
M  V30 2341 H 213.808 -0.287946 0.727056 0
M  V30 2342 H 216.392 -0.11304 1.94372 0
M  V30 2343 H 214.563 -2.36009 3.08471 0
M  V30 2344 H 216.295 -2.30541 3.32615 0
M  V30 2345 H 213.05 -0.797006 4.66846 0
M  V30 2346 H 213.474 0.836716 6.7181 0
M  V30 2347 H 218.116 -0.586184 4.18717 0
M  V30 2348 H 215.834 1.95938 7.83986 0
M  V30 2349 H 219.42 0.805574 5.76196 0
M  V30 2350 H 218.3 2.06077 7.56639 0
M  V30 2351 N 215.803 -1.52179 -0.40978 0
M  V30 2352 C 217.052 -1.65434 -1.15388 0
M  V30 2353 C 217.365 -0.390056 -1.91671 0
M  V30 2354 O 218.571 -0.402399 -2.68501 0
M  V30 2355 C 217.027 -2.92279 -2.10003 0
M  V30 2356 C 216.635 -4.25813 -1.39239 0
M  V30 2357 C 218.379 -3.14897 -2.84675 0
M  V30 2358 C 216.286 -5.43782 -2.32498 0
M  V30 2359 H 215.216 -0.616267 -0.434432 0
M  V30 2360 H 217.867 -1.78666 -0.418401 0
M  V30 2361 H 216.249 -2.72744 -2.871 0
M  V30 2362 H 217.423 -4.55828 -0.675099 0
M  V30 2363 H 215.738 -4.09292 -0.766097 0
M  V30 2364 H 218.335 -4.0021 -3.54593 0
M  V30 2365 H 218.678 -2.29103 -3.47588 0
M  V30 2366 H 219.211 -3.34901 -2.14677 0
M  V30 2367 H 215.95 -6.3192 -1.74233 0
M  V30 2368 H 215.47 -5.18106 -3.02201 0
M  V30 2369 H 217.149 -5.76834 -2.93038 0
M  V30 2370 N 217.281 0.66697 -1.42791 0
M  V30 2371 C 218.692 1.2478 -1.38877 0
M  V30 2372 C 219.043 1.96012 -0.0859426 0
M  V30 2373 O 218.168 2.00463 0.815081 0
M  V30 2374 C 218.763 2.26938 -2.51564 0
M  V30 2375 C 217.322 2.80529 -2.50959 0
M  V30 2376 C 216.469 1.54965 -2.29959 0
M  V30 2377 H 219.42 0.459853 -1.51892 0
M  V30 2378 H 219.441 3.08834 -2.22265 0
M  V30 2379 H 218.953 1.75065 -3.46372 0
M  V30 2380 H 217.054 3.36502 -1.59991 0
M  V30 2381 H 217.167 3.29012 -3.48265 0
M  V30 2382 H 215.531 1.81817 -1.78366 0
M  V30 2383 H 216.314 1.05047 -3.26833 0
M  V30 2384 N 218.759 1.29093 0.90403 0
M  V30 2385 C 220.036 1.075 1.63411 0
M  V30 2386 C 220.416 -0.382346 2.07609 0
M  V30 2387 O 219.764 -1.37031 1.82851 0
M  V30 2388 C 219.974 2.05858 2.81822 0
M  V30 2389 C 221.322 2.36539 3.52611 0
M  V30 2390 O 222.346 2.04019 2.91984 0
M  V30 2391 O 221.205 2.92085 4.61897 0
M  V30 2392 H 218.299 0.411547 0.717327 0
M  V30 2393 H 220.845 1.40449 0.952479 0
M  V30 2394 H 219.617 3.04037 2.46327 0
M  V30 2395 H 219.24 1.73613 3.57693 0
M  V30 2396 N 220.237 -1.11381 1.11499 0
M  V30 2397 C 221.465 -1.86934 0.88675 0
M  V30 2398 C 221.88 -1.80195 -0.563476 0
M  V30 2399 O 221.237 -1.18367 -1.38908 0
M  V30 2400 C 221.288 -3.35722 1.34064 0
M  V30 2401 O 221.009 -3.4232 2.73401 0
M  V30 2402 C 222.51 -4.2818 1.14791 0
M  V30 2403 H 219.73 -0.591117 0.317523 0
M  V30 2404 H 222.274 -1.40865 1.48248 0
M  V30 2405 H 220.429 -3.79294 0.788355 0
M  V30 2406 H 220.843 -4.34971 2.93087 0
M  V30 2407 H 222.317 -5.30817 1.5145 0
M  V30 2408 H 222.794 -4.39113 0.0875279 0
M  V30 2409 H 223.4 -3.90402 1.68721 0
M  V30 2410 N 221.715 -0.905404 -1.28997 0
M  V30 2411 C 222.962 -0.534248 -1.95325 0
M  V30 2412 C 223.29 0.920535 -1.71337 0
M  V30 2413 O 222.545 1.66861 -1.02254 0
M  V30 2414 C 222.844 -0.779906 -3.48787 0
M  V30 2415 C 222.51 -2.21293 -3.92861 0
M  V30 2416 C 221.172 -2.60475 -4.04606 0
M  V30 2417 C 223.524 -3.14587 -4.15553 0
M  V30 2418 C 220.852 -3.9212 -4.36416 0
M  V30 2419 C 223.204 -4.45787 -4.48839 0
M  V30 2420 C 221.868 -4.84834 -4.58794 0
M  V30 2421 H 221.138 -0.195495 -0.714747 0
M  V30 2422 H 223.785 -1.14514 -1.53488 0
M  V30 2423 H 222.09 -0.0861365 -3.91705 0
M  V30 2424 H 223.787 -0.472029 -3.98212 0
M  V30 2425 H 220.377 -1.89887 -3.84241 0
M  V30 2426 H 224.561 -2.85528 -4.0594 0
M  V30 2427 H 219.817 -4.22086 -4.42327 0
M  V30 2428 H 223.991 -5.18098 -4.65346 0
M  V30 2429 H 221.618 -5.86877 -4.83197 0
M  V30 2430 N 223.193 1.4272 -0.668489 0
M  V30 2431 C 224.44 2.01624 -0.18814 0
M  V30 2432 C 224.768 1.5282 1.20317 0
M  V30 2433 O 224.023 0.718323 1.8204 0
M  V30 2434 C 224.322 3.57021 -0.164499 0
M  V30 2435 C 223.988 4.25232 -1.49962 0
M  V30 2436 C 222.65 4.4358 -1.8652 0
M  V30 2437 C 225.002 4.63727 -2.37921 0
M  V30 2438 C 222.33 4.97694 -3.10674 0
M  V30 2439 C 224.682 5.19218 -3.6138 0
M  V30 2440 C 223.346 5.3578 -3.98115 0
M  V30 2441 H 222.616 0.737795 -0.0688454 0
M  V30 2442 H 225.263 1.70991 -0.862225 0
M  V30 2443 H 223.568 3.87285 0.593079 0
M  V30 2444 H 225.265 4.00372 0.224271 0
M  V30 2445 H 221.855 4.11306 -1.20522 0
M  V30 2446 H 226.039 4.4923 -2.10964 0
M  V30 2447 H 221.295 5.08702 -3.39164 0
M  V30 2448 H 225.469 5.4799 -4.29743 0
M  V30 2449 H 223.096 5.77475 -4.94395 0
M  V30 2450 N 224.671 0.411399 1.52136 0
M  V30 2451 C 226.087 0.0623865 1.59478 0
M  V30 2452 C 226.287 -1.42554 1.4241 0
M  V30 2453 O 225.343 -2.19263 1.2522 0
M  V30 2454 C 226.656 0.559331 2.95452 0
M  V30 2455 C 228.204 0.517503 3.08692 0
M  V30 2456 C 228.679 0.990994 4.4715 0
M  V30 2457 N 230.17 0.947908 4.53397 0
M  V30 2458 C 230.905 1.28544 5.58806 0
M  V30 2459 N 230.401 1.69454 6.71757 0
M  V30 2460 N 232.194 1.20526 5.49026 0
M  V30 2461 H 224.345 1.37982 1.61477 0
M  V30 2462 H 226.608 0.566977 0.759764 0
M  V30 2463 H 226.314 1.59938 3.1323 0
M  V30 2464 H 226.188 -0.0298014 3.77188 0
M  V30 2465 H 228.575 -0.513505 2.90598 0
M  V30 2466 H 228.656 1.14272 2.28857 0
M  V30 2467 H 228.3 2.02034 4.65988 0
M  V30 2468 H 228.23 0.34257 5.25485 0
M  V30 2469 H 230.721 0.647157 3.72317 0
M  V30 2470 H 231.034 1.93513 7.48179 0
M  V30 2471 H 229.379 1.73359 6.73032 0
M  V30 2472 H 232.57 0.884505 4.59667 0
M  V30 2473 H 232.743 1.47161 6.31069 0
M  V30 2474 N 226.149 -1.5696 0.141893 0
M  V30 2475 C 227.097 -2.17784 -0.816874 0
M  V30 2476 C 228.091 -1.1334 -1.25899 0
M  V30 2477 O 229.297 -1.316 -1.22806 0
M  V30 2478 H 225.672 -0.697278 -0.281615 0
M  V30 2479 H 227.643 -2.97087 -0.279621 0
M  V30 2480 C 226.392 -2.80983 -2.04802 0
M  V30 2481 H 225.715 -3.61062 -1.7168 0
M  V30 2482 H 227.155 -3.2705 -2.69841 0
M  V30 2483 C 225.614 -1.79228 -2.8527 0
M  V30 2484 O 226.144 -1.25962 -3.8144 0
M  V30 2485 N 224.35 -1.48647 -2.49704 0
M  V30 2486 H 223.897 -1.92155 -1.71564 0
M  V30 2487 H 223.855 -0.808115 -3.03837 0
M  V30 2488 N 227.627 0.131896 -1.57047 0
M  V30 2489 C 228.852 0.860418 -1.8871 0
M  V30 2490 C 229.277 1.73251 -0.73251 0
M  V30 2491 O 228.635 1.785 0.317429 0
M  V30 2492 C 228.683 1.68047 -3.19049 0
M  V30 2493 O 227.787 2.7862 -3.04047 0
M  V30 2494 H 227.128 0.238743 -0.619595 0
M  V30 2495 H 229.658 0.118169 -2.04258 0
M  V30 2496 H 229.668 2.07238 -3.51449 0
M  V30 2497 H 228.343 1.04018 -4.02682 0
M  V30 2498 H 226.92 2.42726 -2.83088 0
M  V30 2499 N 229.106 1.52395 0.401703 0
M  V30 2500 C 230.053 1.76268 1.48991 0
M  V30 2501 C 231.023 0.605386 1.54675 0
M  V30 2502 O 232.208 0.843742 1.7113 0
M  V30 2503 C 229.348 1.92592 2.86361 0
M  V30 2504 C 228.461 3.20259 2.89928 0
M  V30 2505 C 227.596 3.26972 4.18644 0
M  V30 2506 C 226.635 4.48812 4.16214 0
M  V30 2507 N 225.772 4.52877 5.36514 0
M  V30 2508 H 230.612 2.6914 1.27935 0
M  V30 2509 H 228.149 1.33355 0.620871 0
M  V30 2510 H 230.107 2.0004 3.66115 0
M  V30 2511 H 228.737 1.03093 3.05895 0
M  V30 2512 H 227.789 3.21945 2.02621 0
M  V30 2513 H 229.101 4.10056 2.83999 0
M  V30 2514 H 228.255 3.33533 5.06794 0
M  V30 2515 H 226.994 2.35126 4.27278 0
M  V30 2516 H 225.999 4.4239 3.26453 0
M  V30 2517 H 227.224 5.41961 4.09213 0
M  V30 2518 H 225.17 3.63917 5.45802 0
M  V30 2519 H 225.087 5.36529 5.32609 0
M  V30 2520 H 226.355 4.63676 6.26597 0
M  V30 2521 N 230.584 -0.659388 1.43143 0
M  V30 2522 C 231.531 -1.77249 1.47822 0
M  V30 2523 C 232.501 -1.62818 0.328558 0
M  V30 2524 O 233.686 -1.83151 0.534838 0
M  V30 2525 C 230.826 -3.15371 1.40126 0
M  V30 2526 C 229.939 -3.4098 2.65249 0
M  V30 2527 C 229.074 -4.68915 2.49584 0
M  V30 2528 C 228.113 -4.87608 3.70006 0
M  V30 2529 N 227.25 -6.06796 3.53189 0
M  V30 2530 H 232.09 -1.72584 2.42938 0
M  V30 2531 H 229.627 -0.842297 1.20598 0
M  V30 2532 H 231.585 -3.9521 1.33659 0
M  V30 2533 H 230.215 -3.19121 0.485964 0
M  V30 2534 H 229.267 -2.55282 2.8202 0
M  V30 2535 H 230.579 -3.50681 3.54717 0
M  V30 2536 H 229.733 -5.56871 2.4079 0
M  V30 2537 H 228.472 -4.61524 1.5763 0
M  V30 2538 H 227.477 -3.9809 3.79215 0
M  V30 2539 H 228.702 -4.96834 4.62961 0
M  V30 2540 H 226.648 -6.00549 2.63965 0
M  V30 2541 H 226.565 -6.17428 4.36255 0
M  V30 2542 H 227.833 -6.9739 3.48236 0
M  V30 2543 N 232.062 -1.29571 -0.897171 0
M  V30 2544 C 233.025 -1.14913 -1.98312 0
M  V30 2545 C 234.025 -0.0838629 -1.60581 0
M  V30 2546 O 235.215 -0.331006 -1.71026 0
M  V30 2547 C 232.347 -0.757835 -3.3237 0
M  V30 2548 H 233.54 -2.11377 -2.12743 0
M  V30 2549 H 231.093 -1.12793 -1.08201 0
M  V30 2550 H 231.828 0.206837 -3.2364 0
M  V30 2551 H 231.613 -1.52755 -3.61121 0
M  V30 2552 H 233.103 -0.678408 -4.12053 0
M  V30 2553 N 233.54 1.10788 -1.12088 0
M  V30 2554 C 234.817 1.79136 -0.785476 0
M  V30 2555 C 235.197 1.98246 0.725377 0
M  V30 2556 O 234.545 1.57258 1.65778 0
M  V30 2557 C 234.755 3.12375 -1.55636 0
M  V30 2558 C 236.103 3.8731 -1.74001 0
M  V30 2559 O 237.127 3.22085 -1.52117 0
M  V30 2560 O 235.986 5.04369 -2.10415 0
M  V30 2561 H 233.08 0.776226 -0.285311 0
M  V30 2562 H 235.626 1.1747 -1.2247 0
M  V30 2563 H 234.398 2.93863 -2.5838 0
M  V30 2564 H 234.021 3.81758 -1.11114 0
M  V30 2565 N 235.018 0.912232 1.28515 0
M  V30 2566 C 235.981 0.404223 2.25607 0
M  V30 2567 C 236.981 -0.468602 1.53821 0
M  V30 2568 O 238.171 -0.271873 1.72065 0
M  V30 2569 C 235.303 -0.420653 3.38295 0
M  V30 2570 H 236.496 1.26188 2.7206 0
M  V30 2571 H 234.049 0.691495 1.40171 0
M  V30 2572 H 234.784 -1.29777 2.97201 0
M  V30 2573 H 234.569 0.204935 3.91564 0
M  V30 2574 H 236.059 -0.766971 4.10496 0
M  V30 2575 N 236.496 -1.42363 0.676048 0
M  V30 2576 C 237.446 -2.27987 -0.0242903 0
M  V30 2577 C 238.43 -1.41153 -0.772319 0
M  V30 2578 O 239.622 -1.64592 -0.651025 0
M  V30 2579 C 236.751 -3.29195 -0.973953 0
M  V30 2580 C 235.837 -4.23512 -0.223202 0
M  V30 2581 N 236.228 -4.99865 0.772589 0
M  V30 2582 C 234.526 -4.43606 -0.461469 0
M  V30 2583 C 235.227 -5.68757 1.22027 0
M  V30 2584 N 234.203 -5.40811 0.549975 0
M  V30 2585 H 238.005 -2.84445 0.73949 0
M  V30 2586 H 235.519 -1.54341 0.50522 0
M  V30 2587 H 237.516 -3.89339 -1.49067 0
M  V30 2588 H 236.176 -2.74298 -1.73755 0
M  V30 2589 H 237.187 -5.04921 1.15217 0
M  V30 2590 H 233.864 -3.99749 -1.20446 0
M  V30 2591 H 235.254 -6.40007 2.0455 0
M  V30 2592 N 237.974 -0.419461 -1.51915 0
M  V30 2593 C 239.22 0.145505 -2.02879 0
M  V30 2594 C 239.575 1.41926 -1.29903 0
M  V30 2595 O 238.868 1.87383 -0.399782 0
M  V30 2596 C 239.062 0.437067 -3.54717 0
M  V30 2597 C 238.891 -0.806877 -4.42402 0
M  V30 2598 C 237.661 -1.33514 -4.87342 0
M  V30 2599 C 239.859 -1.68796 -4.85811 0
M  V30 2600 N 237.841 -2.53349 -5.59185 0
M  V30 2601 C 239.212 -2.73247 -5.56539 0
M  V30 2602 C 241.267 -1.70449 -4.67816 0
M  V30 2603 C 239.97 -3.79276 -6.11181 0
M  V30 2604 C 241.996 -2.75403 -5.23361 0
M  V30 2605 C 241.358 -3.78575 -5.9402 0
M  V30 2606 H 237.457 0.0145424 -0.781865 0
M  V30 2607 H 240.041 -0.576126 -1.85981 0
M  V30 2608 H 238.212 1.12774 -3.71667 0
M  V30 2609 H 239.944 0.99182 -3.92358 0
M  V30 2610 H 236.699 -0.891657 -4.65131 0
M  V30 2611 H 237.123 -3.14066 -5.99743 0
M  V30 2612 H 241.765 -0.920209 -4.12664 0
M  V30 2613 H 239.483 -4.58554 -6.65397 0
M  V30 2614 H 243.069 -2.77603 -5.113 0
M  V30 2615 H 241.949 -4.58453 -6.36231 0
M  V30 2616 N 239.452 1.56882 -0.150215 0
M  V30 2617 C 240.701 1.95403 0.500071 0
M  V30 2618 C 241.014 1.03777 1.658 0
M  V30 2619 O 242.22 1.31889 2.37313 0
M  V30 2620 C 240.676 3.4738 0.941018 0
M  V30 2621 C 240.284 4.47596 -0.190158 0
M  V30 2622 C 242.028 3.9476 1.56091 0
M  V30 2623 C 239.935 5.90787 0.269237 0
M  V30 2624 H 238.865 0.729515 0.190588 0
M  V30 2625 H 241.516 1.81988 -0.235074 0
M  V30 2626 H 239.898 3.56138 1.73152 0
M  V30 2627 H 241.072 4.50536 -0.967157 0
M  V30 2628 H 239.387 4.10151 -0.718666 0
M  V30 2629 H 241.984 4.99181 1.9163 0
M  V30 2630 H 242.327 3.36494 2.45107 0
M  V30 2631 H 242.86 3.88932 0.835249 0
M  V30 2632 H 239.599 6.52879 -0.585621 0
M  V30 2633 H 239.119 5.912 1.01204 0
M  V30 2634 H 240.798 6.42979 0.720176 0
M  V30 2635 N 240.93 -0.123565 1.57115 0
M  V30 2636 C 242.158 -0.846461 1.88793 0
M  V30 2637 C 242.573 -1.73652 0.740976 0
M  V30 2638 O 241.93 -1.80207 -0.288393 0
M  V30 2639 C 241.981 -1.6837 3.19897 0
M  V30 2640 O 241.702 -0.829477 4.30176 0
M  V30 2641 C 243.203 -2.51214 3.65248 0
M  V30 2642 H 240.423 -0.243573 0.625231 0
M  V30 2643 H 242.967 -0.109324 2.04208 0
M  V30 2644 H 241.122 -2.37364 3.06165 0
M  V30 2645 H 241.536 -1.40651 5.0529 0
M  V30 2646 H 243.01 -3.05497 4.59756 0
M  V30 2647 H 243.487 -3.28359 2.9168 0
M  V30 2648 H 244.093 -1.8747 3.81752 0
M  V30 2649 N 242.408 -1.52605 -0.393616 0
M  V30 2650 C 243.636 -1.71294 -1.16043 0
M  V30 2651 C 244.051 -0.429259 -1.83855 0
M  V30 2652 O 243.408 0.595921 -1.72496 0
M  V30 2653 C 243.459 -2.8593 -2.21193 0
M  V30 2654 O 243.18 -4.09329 -1.56146 0
M  V30 2655 C 244.681 -3.16259 -3.10636 0
M  V30 2656 H 241.901 -0.573641 -0.348104 0
M  V30 2657 H 244.445 -1.99234 -0.461092 0
M  V30 2658 H 242.6 -2.60465 -2.86769 0
M  V30 2659 H 243.014 -4.73323 -2.25978 0
M  V30 2660 H 244.488 -3.99946 -3.80456 0
M  V30 2661 H 244.965 -2.3045 -3.73884 0
M  V30 2662 H 245.571 -3.43547 -2.50711 0
M  V30 2663 N 243.887 0.651787 -1.4349 0
M  V30 2664 C 245.298 1.233 -1.40193 0
M  V30 2665 C 245.649 1.9591 -0.106727 0
M  V30 2666 O 244.774 2.01316 0.793773 0
M  V30 2667 C 245.369 2.24257 -2.53957 0
M  V30 2668 C 243.928 2.77852 -2.5392 0
M  V30 2669 C 243.075 1.52517 -2.3159 0
M  V30 2670 H 246.026 0.443717 -1.52371 0
M  V30 2671 H 246.047 3.0646 -2.25528 0
M  V30 2672 H 245.559 1.71382 -3.4821 0
M  V30 2673 H 243.66 3.34786 -1.63551 0
M  V30 2674 H 243.773 3.25299 -3.51735 0
M  V30 2675 H 242.137 1.79915 -1.80285 0
M  V30 2676 H 242.92 1.01574 -3.27929 0
M  V30 2677 N 245.365 1.30045 0.890287 0
M  V30 2678 C 246.313 1.15873 2.01683 0
M  V30 2679 C 247.307 0.0719403 1.69247 0
M  V30 2680 O 248.513 0.232414 1.78493 0
M  V30 2681 H 244.888 0.358203 0.661207 0
M  V30 2682 H 246.859 2.11229 2.10772 0
M  V30 2683 C 245.608 0.861842 3.36849 0
M  V30 2684 H 244.931 1.69016 3.62317 0
M  V30 2685 H 246.371 0.802762 4.16331 0
M  V30 2686 C 244.83 -0.435132 3.34078 0
M  V30 2687 O 245.36 -1.4583 3.74295 0
M  V30 2688 N 243.566 -0.444377 2.87182 0
M  V30 2689 H 243.113 0.388723 2.5465 0
M  V30 2690 H 243.071 -1.31213 2.85711 0
M  V30 2691 N 246.843 -1.10192 1.12674 0
M  V30 2692 C 248.259 -1.34235 0.863317 0
M  V30 2693 C 248.459 -1.95062 -0.505277 0
M  V30 2694 O 247.515 -2.19192 -1.25345 0
M  V30 2695 C 248.828 -2.2616 1.98172 0
M  V30 2696 C 250.376 -2.3969 2.0129 0
M  V30 2697 C 250.851 -3.34946 3.1237 0
M  V30 2698 N 252.342 -3.42515 3.11829 0
M  V30 2699 C 253.077 -4.16199 3.94419 0
M  V30 2700 N 252.573 -4.92747 4.87004 0
M  V30 2701 N 254.366 -4.11843 3.82547 0
M  V30 2702 H 246.517 -0.690798 2.00853 0
M  V30 2703 H 248.78 -0.366774 0.874174 0
M  V30 2704 H 248.486 -1.8868 2.96804 0
M  V30 2705 H 248.36 -3.26488 1.88906 0
M  V30 2706 H 250.747 -2.76438 1.03276 0
M  V30 2707 H 250.828 -1.39169 2.14629 0
M  V30 2708 H 250.472 -2.98923 4.10619 0
M  V30 2709 H 250.402 -4.35353 2.96269 0
M  V30 2710 H 252.893 -2.87926 2.44759 0
M  V30 2711 H 253.206 -5.46376 5.46528 0
M  V30 2712 H 251.551 -4.91862 4.91016 0
M  V30 2713 H 254.742 -3.51136 3.0955 0
M  V30 2714 H 254.915 -4.69007 4.47142 0
M  V30 2715 N 248.321 -0.919034 -1.28029 0
M  V30 2716 C 249.254 -0.355887 -2.25408 0
M  V30 2717 C 250.232 0.542874 -1.5327 0
M  V30 2718 O 251.416 0.485338 -1.82145 0
M  V30 2719 C 248.543 0.490759 -3.35126 0
M  V30 2720 C 247.589 -0.343358 -4.25116 0
M  V30 2721 S 248.422 -1.75344 -5.05979 0
M  V30 2722 C 249.578 -0.914244 -6.19187 0
M  V30 2723 H 249.811 -1.18123 -2.72826 0
M  V30 2724 H 247.344 -0.720636 -1.36551 0
M  V30 2725 H 249.302 0.973404 -3.98792 0
M  V30 2726 H 247.963 1.29054 -2.86363 0
M  V30 2727 H 247.156 0.304266 -5.03081 0
M  V30 2728 H 246.758 -0.759851 -3.662 0
M  V30 2729 H 249.05 -0.146282 -6.77342 0
M  V30 2730 H 249.993 -1.66661 -6.88208 0
M  V30 2731 H 250.401 -0.460082 -5.62622 0
M  V30 2732 N 249.799 1.42003 -0.683588 0
M  V30 2733 C 250.729 2.33487 -0.024866 0
M  V30 2734 C 251.71 1.51163 0.779975 0
M  V30 2735 O 252.895 1.79739 0.735362 0
M  V30 2736 C 250.025 3.3487 0.920836 0
M  V30 2737 C 248.979 4.27414 0.223958 0
M  V30 2738 C 248.305 5.19074 1.2832 0
M  V30 2739 C 249.605 5.14445 -0.90242 0
M  V30 2740 H 251.299 2.88819 -0.788921 0
M  V30 2741 H 248.845 1.38873 -0.38083 0
M  V30 2742 H 250.798 3.97787 1.39081 0
M  V30 2743 H 249.522 2.77861 1.71642 0
M  V30 2744 H 248.181 3.65904 -0.225864 0
M  V30 2745 H 247.829 4.58387 2.071 0
M  V30 2746 H 247.529 5.81822 0.821995 0
M  V30 2747 H 249.053 5.84867 1.75392 0
M  V30 2748 H 250.467 5.70998 -0.513272 0
M  V30 2749 H 248.864 5.86072 -1.28997 0
M  V30 2750 H 249.934 4.52322 -1.74737 0
M  V30 2751 N 251.277 0.427512 1.51691 0
M  V30 2752 C 252.693 0.0792977 1.59403 0
M  V30 2753 C 252.893 -1.41035 1.43914 0
M  V30 2754 O 251.949 -2.17922 1.27539 0
M  V30 2755 C 253.262 0.590636 2.94842 0
M  V30 2756 C 254.81 0.550215 3.08126 0
M  V30 2757 C 255.285 1.03836 4.46074 0
M  V30 2758 N 256.776 0.995943 4.52366 0
M  V30 2759 C 257.511 1.34463 5.57411 0
M  V30 2760 N 257.007 1.76569 6.69922 0
M  V30 2761 N 258.8 1.26343 5.47717 0
M  V30 2762 H 250.951 1.39687 1.60004 0
M  V30 2763 H 253.214 0.575003 0.753708 0
M  V30 2764 H 252.92 1.63251 3.11516 0
M  V30 2765 H 252.794 0.0102061 3.77199 0
M  V30 2766 H 255.181 -0.482654 2.91126 0
M  V30 2767 H 255.262 1.16693 2.27632 0
M  V30 2768 H 254.906 2.06965 4.63819 0
M  V30 2769 H 254.836 0.398286 5.25092 0
M  V30 2770 H 257.327 0.68661 3.7161 0
M  V30 2771 H 257.64 2.01438 7.46085 0
M  V30 2772 H 255.985 1.80488 6.71155 0
M  V30 2773 H 259.176 0.933209 4.58703 0
M  V30 2774 H 259.349 1.53846 6.29472 0
M  V30 2775 N 252.755 -1.56801 0.158532 0
M  V30 2776 C 254.004 -1.95665 -0.489702 0
M  V30 2777 C 254.317 -1.04654 -1.65248 0
M  V30 2778 O 255.523 -1.33146 -2.3661 0
M  V30 2779 C 253.979 -3.47874 -0.922582 0
M  V30 2780 C 253.587 -4.47489 0.213893 0
M  V30 2781 C 255.331 -3.95583 -1.53996 0
M  V30 2782 C 253.238 -5.90921 -0.237903 0
M  V30 2783 H 252.168 -0.730516 -0.186716 0
M  V30 2784 H 254.819 -1.81861 0.244722 0
M  V30 2785 H 253.201 -3.57051 -1.71261 0
M  V30 2786 H 254.375 -4.50017 0.991036 0
M  V30 2787 H 252.69 -4.09764 0.740407 0
M  V30 2788 H 255.287 -5.0019 -1.8898 0
M  V30 2789 H 255.63 -3.37789 -2.43319 0
M  V30 2790 H 256.163 -3.8937 -0.814611 0
M  V30 2791 H 252.902 -6.52559 0.620236 0
M  V30 2792 H 252.422 -5.91729 -0.980676 0
M  V30 2793 H 254.101 -6.43352 -0.686067 0
M  V30 2794 N 254.233 0.115231 -1.57178 0
M  V30 2795 C 255.479 0.818565 -1.86202 0
M  V30 2796 C 255.834 1.77316 -0.746785 0
M  V30 2797 O 255.127 1.89923 0.25291 0
M  V30 2798 C 255.321 1.60324 -3.19423 0
M  V30 2799 C 255.15 0.726138 -4.43799 0
M  V30 2800 C 253.92 0.379535 -5.03873 0
M  V30 2801 C 256.118 0.0420774 -5.14283 0
M  V30 2802 N 254.1 -0.507841 -6.11796 0
M  V30 2803 C 255.471 -0.704152 -6.15988 0
M  V30 2804 C 257.526 -0.0339486 -4.97888 0
M  V30 2805 C 256.229 -1.51927 -7.03072 0
M  V30 2806 C 258.255 -0.835906 -5.85463 0
M  V30 2807 C 257.617 -1.57031 -6.86673 0
M  V30 2808 H 253.716 0.276343 -0.731545 0
M  V30 2809 H 256.3 0.0821032 -1.94527 0
M  V30 2810 H 254.471 2.31072 -3.12186 0
M  V30 2811 H 256.203 2.2522 -3.36241 0
M  V30 2812 H 252.958 0.722634 -4.68054 0
M  V30 2813 H 253.382 -0.94349 -6.70393 0
M  V30 2814 H 258.024 0.519496 -4.19596 0
M  V30 2815 H 255.742 -2.08386 -7.80769 0
M  V30 2816 H 259.328 -0.89714 -5.74841 0
M  V30 2817 H 258.208 -2.18088 -7.53264 0
M  V30 2818 N 255.711 1.52812 0.385517 0
M  V30 2819 C 256.659 1.78482 1.49155 0
M  V30 2820 C 257.653 0.652914 1.56312 0
M  V30 2821 O 258.859 0.835464 1.59436 0
M  V30 2822 H 255.234 0.5648 0.496493 0
M  V30 2823 H 257.205 2.71095 1.24699 0
M  V30 2824 C 255.954 1.97378 2.86247 0
M  V30 2825 H 255.277 2.83907 2.81491 0
M  V30 2826 H 256.717 2.19327 3.62866 0
M  V30 2827 C 255.176 0.74728 3.28508 0
M  V30 2828 O 255.706 -0.0736232 4.01633 0
M  V30 2829 N 253.912 0.576396 2.84826 0
M  V30 2830 H 253.459 1.24555 2.25486 0
M  V30 2831 H 253.417 -0.24288 3.1346 0
M  V30 2832 N 257.189 -0.644168 1.43834 0
M  V30 2833 C 258.466 -1.40188 1.36406 0
M  V30 2834 C 258.846 -2.11094 0.0163124 0
M  V30 2835 O 258.194 -2.05426 -1.00062 0
M  V30 2836 C 258.404 -2.3791 2.55343 0
M  V30 2837 C 259.752 -3.01637 2.98832 0
M  V30 2838 O 260.776 -2.48237 2.55455 0
M  V30 2839 O 259.635 -3.98477 3.74003 0
M  V30 2840 H 256.729 -0.626773 0.539523 0
M  V30 2841 H 259.275 -0.670317 1.559 0
M  V30 2842 H 258.047 -1.84525 3.4506 0
M  V30 2843 H 257.67 -3.18503 2.37995 0
M  V30 2844 N 258.668 -1.30515 -0.883378 0
M  V30 2845 C 259.916 -1.19194 -1.63209 0
M  V30 2846 C 260.237 0.253205 -1.93349 0
M  V30 2847 O 259.507 1.17025 -1.57105 0
M  V30 2848 H 258.087 -0.438148 -0.605009 0
M  V30 2849 H 260.749 -1.63663 -1.05832 0
M  V30 2850 H 259.845 -1.75396 -2.58153 0
M  V30 2851 N 260.146 1.09593 -1.13257 0
M  V30 2852 C 261.562 1.33775 -0.870423 0
M  V30 2853 C 261.762 1.95327 0.494926 0
M  V30 2854 O 260.818 2.19853 1.2418 0
M  V30 2855 C 262.131 2.25106 -1.99369 0
M  V30 2856 C 263.679 2.3862 -2.02558 0
M  V30 2857 C 264.154 3.33285 -3.14142 0
M  V30 2858 N 265.645 3.40857 -3.13641 0
M  V30 2859 C 266.38 4.14101 -3.96621 0
M  V30 2860 N 265.876 4.90157 -4.8961 0
M  V30 2861 N 267.669 4.09808 -3.84726 0
M  V30 2862 H 259.82 0.680136 -2.01216 0
M  V30 2863 H 262.083 0.362133 -0.876107 0
M  V30 2864 H 261.789 1.87103 -2.97801 0
M  V30 2865 H 261.663 3.25481 -1.90635 0
M  V30 2866 H 264.05 2.75887 -1.0474 0
M  V30 2867 H 264.131 1.38028 -2.15364 0
M  V30 2868 H 263.775 2.96741 -4.12198 0
M  V30 2869 H 263.705 4.33776 -2.98574 0
M  V30 2870 H 266.196 2.86624 -2.46282 0
M  V30 2871 H 266.509 5.4347 -5.49418 0
M  V30 2872 H 264.854 4.89251 -4.93617 0
M  V30 2873 H 268.045 3.4949 -3.11408 0
M  V30 2874 H 268.218 4.66629 -4.49623 0
M  V30 2875 N 261.624 0.925811 1.2754 0
M  V30 2876 C 262.87 0.566092 1.94739 0
M  V30 2877 C 263.203 -0.890057 1.72603 0
M  V30 2878 O 262.478 -1.63467 1.05399 0
M  V30 2879 C 262.761 0.89054 3.48915 0
M  V30 2880 C 262.614 2.4003 3.80402 0
M  V30 2881 C 263.933 0.395101 4.38323 0
M  V30 2882 H 261.052 0.20714 0.707292 0
M  V30 2883 H 263.694 1.15725 1.50691 0
M  V30 2884 H 261.844 0.387452 3.86563 0
M  V30 2885 H 263.516 2.97494 3.52555 0
M  V30 2886 H 261.759 2.85028 3.2702 0
M  V30 2887 H 262.43 2.57785 4.8811 0
M  V30 2888 H 264.906 0.826241 4.07814 0
M  V30 2889 H 263.782 0.651086 5.45025 0
M  V30 2890 H 264.043 -0.704798 4.36446 0
M  V30 2891 N 263.102 -1.41638 0.69111 0
M  V30 2892 C 264.032 -2.3347 0.037248 0
M  V30 2893 C 265.013 -1.51575 -0.771947 0
M  V30 2894 O 266.198 -1.80126 -0.72582 0
M  V30 2895 C 263.328 -3.35354 -0.903064 0
M  V30 2896 C 262.282 -4.27526 -0.201288 0
M  V30 2897 C 261.608 -5.19747 -1.25565 0
M  V30 2898 C 262.908 -5.13959 0.929689 0
M  V30 2899 H 264.602 -2.88397 0.804227 0
M  V30 2900 H 262.148 -1.38669 0.388189 0
M  V30 2901 H 264.101 -3.98519 -1.36969 0
M  V30 2902 H 262.825 -2.78767 -1.70166 0
M  V30 2903 H 261.484 -3.65779 0.245265 0
M  V30 2904 H 261.132 -4.59479 -2.04666 0
M  V30 2905 H 260.832 -5.8225 -0.791128 0
M  V30 2906 H 262.356 -5.85789 -1.72288 0
M  V30 2907 H 263.77 -5.70718 0.543546 0
M  V30 2908 H 262.167 -5.85379 1.32103 0
M  V30 2909 H 263.237 -4.51389 1.77133 0
M  V30 2910 N 264.58 -0.43555 -1.51462 0
M  V30 2911 C 265.81 0.130053 -2.0619 0
M  V30 2912 C 266.218 1.37164 -1.30317 0
M  V30 2913 O 265.561 1.80225 -0.355598 0
M  V30 2914 C 265.623 0.519418 -3.55728 0
M  V30 2915 C 265.287 -0.615119 -4.52841 0
M  V30 2916 C 266.284 -1.48671 -4.9819 0
M  V30 2917 C 263.969 -0.795341 -4.95963 0
M  V30 2918 C 265.963 -2.52324 -5.8533 0
M  V30 2919 C 263.65 -1.83514 -5.82894 0
M  V30 2920 C 264.648 -2.69748 -6.27475 0
M  V30 2921 O 264.336 -3.71944 -7.1268 0
M  V30 2922 H 264.068 0.0121612 -0.675891 0
M  V30 2923 H 266.622 -0.6129 -1.96043 0
M  V30 2924 H 264.852 1.31505 -3.63653 0
M  V30 2925 H 266.541 1.01597 -3.92979 0
M  V30 2926 H 267.307 -1.359 -4.65571 0
M  V30 2927 H 263.186 -0.133713 -4.60806 0
M  V30 2928 H 266.73 -3.19665 -6.20048 0
M  V30 2929 H 262.627 -1.96306 -6.14926 0
M  V30 2930 H 263.395 -3.68503 -7.30854 0
M  V30 2931 N 266.058 1.56714 -0.166846 0
M  V30 2932 C 267.286 2.0112 0.485644 0
M  V30 2933 C 267.701 1.04705 1.57106 0
M  V30 2934 O 267.058 0.0471923 1.82439 0
M  V30 2935 C 267.109 3.45361 1.06808 0
M  V30 2936 O 266.83 4.38092 0.0259995 0
M  V30 2937 C 268.331 4.05145 1.79924 0
M  V30 2938 H 265.551 0.65931 0.124704 0
M  V30 2939 H 268.095 2.02746 -0.267262 0
M  V30 2940 H 266.25 3.44524 1.7715 0
M  V30 2941 H 266.664 5.22519 0.455398 0
M  V30 2942 H 268.138 5.08009 2.15942 0
M  V30 2943 H 268.615 3.46982 2.69258 0
M  V30 2944 H 269.221 4.09672 1.14234 0
M  V30 2945 N 267.536 -0.106894 1.57237 0
M  V30 2946 C 268.466 -1.13148 2.04254 0
M  V30 2947 C 269.447 -1.42476 0.929224 0
M  V30 2948 O 270.632 -1.52709 1.19973 0
M  V30 2949 C 267.762 -2.4545 2.45706 0
M  V30 2950 C 266.716 -2.30558 3.60592 0
M  V30 2951 C 266.042 -3.67931 3.87983 0
M  V30 2952 C 267.342 -1.75597 4.91897 0
M  V30 2953 H 269.036 -0.740374 2.90101 0
M  V30 2954 H 266.582 -0.354696 1.39563 0
M  V30 2955 H 268.535 -3.17389 2.77205 0
M  V30 2956 H 267.259 -2.86475 1.56843 0
M  V30 2957 H 265.918 -1.61067 3.29322 0
M  V30 2958 H 265.566 -4.06462 2.96306 0
M  V30 2959 H 265.266 -3.58817 4.65322 0
M  V30 2960 H 266.79 -4.41356 4.21945 0
M  V30 2961 H 268.204 -2.37364 5.21854 0
M  V30 2962 H 266.601 -1.77272 5.73319 0
M  V30 2963 H 267.671 -0.714451 4.79608 0
M  V30 2964 N 269.014 -1.53014 -0.377408 0
M  V30 2965 C 270.43 -1.42523 -0.718281 0
M  V30 2966 C 270.63 -0.55487 -1.9371 0
M  V30 2967 O 269.686 -0.0327593 -2.52479 0
M  V30 2968 C 270.999 -2.85546 -0.942539 0
M  V30 2969 C 272.547 -2.95101 -1.04329 0
M  V30 2970 C 273.022 -4.3916 -1.3001 0
M  V30 2971 N 274.513 -4.42536 -1.36806 0
M  V30 2972 C 275.248 -5.51097 -1.58364 0
M  V30 2973 N 274.744 -6.69724 -1.77317 0
M  V30 2974 N 276.537 -5.38657 -1.60638 0
M  V30 2975 H 268.688 -2.08116 0.424426 0
M  V30 2976 H 270.951 -0.939352 0.127759 0
M  V30 2977 H 270.657 -3.51499 -0.118929 0
M  V30 2978 H 270.531 -3.28493 -1.85397 0
M  V30 2979 H 272.918 -2.29309 -1.85745 0
M  V30 2980 H 272.999 -2.55566 -0.109505 0
M  V30 2981 H 272.643 -5.05521 -0.490991 0
M  V30 2982 H 272.573 -4.76258 -2.24691 0
M  V30 2983 H 275.064 -3.57039 -1.23821 0
M  V30 2984 H 275.377 -7.48233 -1.93306 0
M  V30 2985 H 273.722 -6.72732 -1.74518 0
M  V30 2986 H 276.913 -4.44948 -1.45391 0
M  V30 2987 H 277.086 -6.2333 -1.77098 0
M  V30 2988 N 270.492 0.636531 -1.44174 0
M  V30 2989 C 271.422 1.76003 -1.53444 0
M  V30 2990 C 272.403 1.65619 -0.387841 0
M  V30 2991 O 273.588 1.84461 -0.607257 0
M  V30 2992 C 270.718 3.14511 -1.4731 0
M  V30 2993 C 269.672 3.39677 -2.60391 0
M  V30 2994 C 268.998 4.78159 -2.39308 0
M  V30 2995 C 270.298 3.32772 -4.02567 0
M  V30 2996 H 271.992 1.68501 -2.47483 0
M  V30 2997 H 269.538 0.809237 -1.19111 0
M  V30 2998 H 271.491 3.92878 -1.52397 0
M  V30 2999 H 270.215 3.22783 -0.49785 0
M  V30 3000 H 268.874 2.63688 -2.54684 0
M  V30 3001 H 268.522 4.83128 -1.39988 0
M  V30 3002 H 268.222 4.95956 -3.15122 0
M  V30 3003 H 269.746 5.58762 -2.46205 0
M  V30 3004 H 271.16 4.01051 -4.09672 0
M  V30 3005 H 269.557 3.62104 -4.7854 0
M  V30 3006 H 270.627 2.30669 -4.2652 0
M  V30 3007 N 271.97 1.30982 0.876444 0
M  V30 3008 C 273.198 1.23242 1.6619 0
M  V30 3009 C 273.613 -0.203345 1.87702 0
M  V30 3010 O 272.97 -1.13317 1.43057 0
M  V30 3011 C 273.021 1.96623 3.03351 0
M  V30 3012 O 272.742 3.34594 2.82804 0
M  V30 3013 C 274.243 1.95644 3.97792 0
M  V30 3014 H 271.463 0.426126 0.518322 0
M  V30 3015 H 274.007 1.7275 1.09442 0
M  V30 3016 H 272.162 1.50892 3.56806 0
M  V30 3017 H 272.576 3.71873 3.69879 0
M  V30 3018 H 274.05 2.51511 4.91372 0
M  V30 3019 H 274.527 0.937395 4.2908 0
M  V30 3020 H 275.133 2.41225 3.50272 0
M  V30 3021 N 273.449 -1.08991 1.13837 0
M  V30 3022 C 274.698 -1.80631 0.897509 0
M  V30 3023 C 275.011 -1.86872 -0.57777 0
M  V30 3024 O 276.217 -2.54866 -0.935701 0
M  V30 3025 C 274.673 -3.24517 1.55618 0
M  V30 3026 C 274.281 -3.26529 3.0673 0
M  V30 3027 C 276.025 -4.00882 1.3962 0
M  V30 3028 C 273.932 -4.64965 3.65461 0
M  V30 3029 H 272.862 -0.67691 0.332129 0
M  V30 3030 H 275.513 -1.2246 1.3666 0
M  V30 3031 H 273.895 -3.82778 1.01476 0
M  V30 3032 H 275.069 -2.78008 3.67489 0
M  V30 3033 H 273.384 -2.63656 3.22296 0
M  V30 3034 H 275.981 -5.03167 1.80906 0
M  V30 3035 H 276.324 -4.14896 0.341578 0
M  V30 3036 H 276.857 -3.49075 1.90766 0
M  V30 3037 H 273.596 -4.56153 4.70749 0
M  V30 3038 H 273.116 -5.13792 3.09481 0
M  V30 3039 H 274.795 -5.3394 3.654 0
M  V30 3040 N 274.927 -0.932562 -1.27047 0
M  V30 3041 C 276.204 -0.49377 -1.89265 0
M  V30 3042 C 276.584 1.02833 -1.8436 0
M  V30 3043 O 275.932 1.88461 -1.29209 0
M  V30 3044 C 276.142 -1.04536 -3.32976 0
M  V30 3045 C 277.49 -1.10879 -4.09867 0
M  V30 3046 O 278.514 -0.995327 -3.42011 0
M  V30 3047 O 277.373 -1.28417 -5.31198 0
M  V30 3048 H 274.467 -0.159596 -0.811454 0
M  V30 3049 H 277.013 -1.02457 -1.3528 0
M  V30 3050 H 275.785 -2.08913 -3.30864 0
M  V30 3051 H 275.408 -0.496494 -3.94488 0
M  V30 3052 N 276.405 1.4127 -0.698611 0
M  V30 3053 C 277.368 2.29158 -0.044132 0
M  V30 3054 C 278.368 1.44529 0.704841 0
M  V30 3055 O 279.558 1.65643 0.539276 0
M  V30 3056 C 276.69 3.27459 0.947809 0
M  V30 3057 H 277.883 2.88529 -0.817994 0
M  V30 3058 H 275.436 1.49307 -0.46228 0
M  V30 3059 H 276.171 2.73073 1.74933 0
M  V30 3060 H 275.956 3.8991 0.41385 0
M  V30 3061 H 277.446 3.93311 1.40344 0
M  V30 3062 N 277.883 0.443576 1.51229 0
M  V30 3063 C 278.793 -0.370721 2.31652 0
M  V30 3064 C 279.809 -1.02186 1.40833 0
M  V30 3065 O 280.985 -1.01586 1.73903 0
M  V30 3066 C 278.05 -1.45376 3.14749 0
M  V30 3067 C 277.111 -0.822099 4.21355 0
M  V30 3068 C 276.344 -1.85353 5.0048 0
M  V30 3069 O 276.567 -3.07656 4.80316 0
M  V30 3070 O 275.501 -1.4406 5.84406 0
M  V30 3071 H 279.327 0.286002 3.0235 0
M  V30 3072 H 276.912 0.20598 1.47973 0
M  V30 3073 H 278.794 -2.08173 3.66391 0
M  V30 3074 H 277.469 -2.09445 2.46809 0
M  V30 3075 H 276.376 -0.155909 3.73775 0
M  V30 3076 H 277.709 -0.224797 4.91686 0
M  V30 3077 N 279.361 -1.56624 0.175154 0
M  V30 3078 C 280.601 -1.98894 -0.471221 0
M  V30 3079 C 280.965 -1.05889 -1.60161 0
M  V30 3080 O 282.166 -1.37315 -2.3108 0
M  V30 3081 C 280.437 -3.44865 -0.938241 0
M  V30 3082 S 281.996 -4.09164 -1.58526 0
M  V30 3083 H 278.814 -0.694686 -0.151434 0
M  V30 3084 H 281.416 -1.93577 0.27352 0
M  V30 3085 H 280.12 -4.10265 -0.10518 0
M  V30 3086 H 279.651 -3.53956 -1.71693 0
M  V30 3087 H 281.666 -4.04528 -2.87352 0
M  V30 3088 N 280.839 0.0985539 -1.57292 0
M  V30 3089 C 281.771 1.14595 -1.98496 0
M  V30 3090 C 282.784 1.36512 -0.887031 0
M  V30 3091 O 283.973 1.35225 -1.16518 0
M  V30 3092 C 281.073 2.50216 -2.28572 0
M  V30 3093 C 280.246 2.48624 -3.59868 0
M  V30 3094 C 279.305 3.66146 -3.7792 0
M  V30 3095 O 278.331 3.48795 -4.49812 0
M  V30 3096 N 279.533 4.85496 -3.18235 0
M  V30 3097 H 282.298 0.795277 -2.88956 0
M  V30 3098 H 279.859 0.287579 -1.59325 0
M  V30 3099 H 281.851 3.27432 -2.37845 0
M  V30 3100 H 280.421 2.77387 -1.44136 0
M  V30 3101 H 279.641 1.56978 -3.61596 0
M  V30 3102 H 280.929 2.44635 -4.46129 0
M  V30 3103 H 280.327 5.02497 -2.59833 0
M  V30 3104 H 278.884 5.60317 -3.32999 0
M  V30 3105 N 282.317 1.53212 0.369288 0
M  V30 3106 C 283.247 1.82365 1.45826 0
M  V30 3107 C 284.228 0.676907 1.56051 0
M  V30 3108 O 285.413 0.926401 1.70679 0
M  V30 3109 C 282.543 2.01023 2.83208 0
M  V30 3110 C 281.497 3.1678 2.8781 0
M  V30 3111 C 280.823 3.20724 4.27832 0
M  V30 3112 C 282.123 4.55447 2.55667 0
M  V30 3113 H 283.817 2.73559 1.21678 0
M  V30 3114 H 281.363 1.3163 0.583911 0
M  V30 3115 H 283.316 2.20001 3.59413 0
M  V30 3116 H 282.04 1.06536 3.08736 0
M  V30 3117 H 280.699 2.97616 2.14056 0
M  V30 3118 H 280.347 2.23882 4.50429 0
M  V30 3119 H 280.047 3.98496 4.31827 0
M  V30 3120 H 281.571 3.41881 5.05915 0
M  V30 3121 H 282.985 4.74611 3.21586 0
M  V30 3122 H 281.382 5.35432 2.70984 0
M  V30 3123 H 282.452 4.60812 1.5093 0
M  V30 3124 N 283.795 -0.628877 1.44509 0
M  V30 3125 C 284.727 -1.754 1.47538 0
M  V30 3126 C 285.74 -1.58575 0.368506 0
M  V30 3127 O 286.929 -1.66847 0.634376 0
M  V30 3128 C 284.029 -3.1315 1.29577 0
M  V30 3129 C 283.202 -3.56413 2.53551 0
M  V30 3130 C 282.261 -4.7305 2.30457 0
M  V30 3131 O 281.287 -4.81247 3.03957 0
M  V30 3132 N 282.489 -5.64903 1.3366 0
M  V30 3133 H 285.254 -1.73272 2.44534 0
M  V30 3134 H 282.815 -0.813512 1.39977 0
M  V30 3135 H 284.807 -3.88902 1.11971 0
M  V30 3136 H 283.377 -3.09908 0.409371 0
M  V30 3137 H 282.597 -2.70847 2.86419 0
M  V30 3138 H 283.885 -3.82071 3.36005 0
M  V30 3139 H 283.283 -5.60975 0.729604 0
M  V30 3140 H 281.84 -6.40275 1.22032 0
M  V30 3141 N 285.273 -1.31445 -0.869486 0
M  V30 3142 C 286.203 -1.21727 -1.99261 0
M  V30 3143 C 287.184 -0.104359 -1.6978 0
M  V30 3144 O 288.369 -0.289038 -1.92037 0
M  V30 3145 C 285.499 -0.924317 -3.34774 0
M  V30 3146 C 284.453 -1.99685 -3.78563 0
M  V30 3147 C 283.779 -1.55658 -5.11541 0
M  V30 3148 C 285.079 -3.41003 -3.95619 0
M  V30 3149 H 286.773 -2.1569 -2.07649 0
M  V30 3150 H 284.319 -1.03839 -0.997675 0
M  V30 3151 H 286.272 -0.842934 -4.12883 0
M  V30 3152 H 284.996 0.0509793 -3.2656 0
M  V30 3153 H 283.655 -2.06813 -3.02694 0
M  V30 3154 H 283.303 -0.569132 -4.9977 0
M  V30 3155 H 283.003 -2.27409 -5.41811 0
M  V30 3156 H 284.527 -1.48928 -5.92159 0
M  V30 3157 H 285.941 -3.36547 -4.64122 0
M  V30 3158 H 284.338 -4.10975 -4.37286 0
M  V30 3159 H 285.408 -3.81754 -2.98985 0
M  V30 3160 N 286.751 1.08385 -1.14413 0
M  V30 3161 C 287.701 2.13509 -0.79987 0
M  V30 3162 C 288.685 1.5951 0.211059 0
M  V30 3163 O 289.877 1.76995 0.0133694 0
M  V30 3164 C 287.006 3.42162 -0.279297 0
M  V30 3165 C 286.092 4.03042 -1.31976 0
M  V30 3166 N 286.483 4.38327 -2.52395 0
M  V30 3167 C 284.781 4.30379 -1.17004 0
M  V30 3168 C 285.482 4.86428 -3.19003 0
M  V30 3169 N 284.458 4.84547 -2.46405 0
M  V30 3170 H 288.26 2.38609 -1.7159 0
M  V30 3171 H 285.774 1.2572 -1.02802 0
M  V30 3172 H 287.771 4.16898 -0.0143688 0
M  V30 3173 H 286.431 3.18511 0.630923 0
M  V30 3174 H 287.442 4.29349 -2.89621 0
M  V30 3175 H 284.119 4.16281 -0.318854 0
M  V30 3176 H 285.509 5.23107 -4.21674 0
M  V30 3177 N 288.23 0.939286 1.26551 0
M  V30 3178 C 289.178 0.43815 2.28436 0
M  V30 3179 C 290.172 -0.483587 1.62351 0
M  V30 3180 O 291.378 -0.362009 1.76322 0
M  V30 3181 H 287.753 0.123149 0.741848 0
M  V30 3182 H 289.724 1.31002 2.68106 0
M  V30 3183 C 288.473 -0.283052 3.46546 0
M  V30 3184 H 287.796 0.417043 3.97619 0
M  V30 3185 H 289.236 -0.597948 4.19763 0
M  V30 3186 C 287.695 -1.50018 3.01656 0
M  V30 3187 O 288.225 -2.59855 3.0633 0
M  V30 3188 N 286.431 -1.35608 2.57019 0
M  V30 3189 H 285.978 -0.46244 2.53415 0
M  V30 3190 H 285.936 -2.17165 2.27347 0
M  V30 3191 N 289.708 -1.40897 0.706093 0
M  V30 3192 C 290.955 -2.01054 0.241531 0
M  V30 3193 C 291.283 -1.55956 -1.16223 0
M  V30 3194 O 290.538 -0.766336 -1.80072 0
M  V30 3195 C 290.837 -3.5646 0.259099 0
M  V30 3196 C 290.503 -4.21106 1.61184 0
M  V30 3197 C 289.165 -4.38479 1.98216 0
M  V30 3198 C 291.517 -4.57256 2.50132 0
M  V30 3199 C 288.845 -4.89282 3.2376 0
M  V30 3200 C 291.197 -5.09454 3.7502 0
M  V30 3201 C 289.861 -5.25037 4.12181 0
M  V30 3202 H 289.131 -0.73571 0.0883825 0
M  V30 3203 H 291.778 -1.68645 0.907257 0
M  V30 3204 H 290.083 -3.88721 -0.490189 0
M  V30 3205 H 291.78 -4.00826 -0.11804 0
M  V30 3206 H 288.37 -4.07966 1.31384 0
M  V30 3207 H 292.554 -4.43479 2.228 0
M  V30 3208 H 287.81 -4.99531 3.52532 0
M  V30 3209 H 291.984 -5.36404 4.44121 0
M  V30 3210 H 289.611 -5.64164 5.09532 0
M  V30 3211 N 291.186 -0.45159 -1.50991 0
M  V30 3212 C 292.597 0.00818571 -1.86698 0
M  V30 3213 C 292.948 1.40661 -1.3678 0
M  V30 3214 O 292.073 2.0391 -0.724546 0
M  V30 3215 C 292.668 0.0216303 -3.38793 0
M  V30 3216 C 291.227 0.425865 -3.73983 0
M  V30 3217 C 290.374 -0.372163 -2.74791 0
M  V30 3218 H 293.325 -0.666785 -1.44013 0
M  V30 3219 H 293.346 0.828078 -3.7138 0
M  V30 3220 H 292.858 -0.996288 -3.75094 0
M  V30 3221 H 290.959 1.44886 -3.43277 0
M  V30 3222 H 291.072 0.140761 -4.78893 0
M  V30 3223 H 289.436 0.171498 -2.54122 0
M  V30 3224 H 290.219 -1.38922 -3.13935 0
M  V30 3225 N 292.664 1.56529 -0.183458 0
M  V30 3226 C 293.597 2.14417 0.781052 0
M  V30 3227 C 294.575 1.07761 1.21763 0
M  V30 3228 O 295.759 1.35807 1.30724 0
M  V30 3229 C 292.886 2.69361 2.05335 0
M  V30 3230 C 291.932 3.885 1.75982 0
M  V30 3231 S 292.765 5.27568 0.918256 0
M  V30 3232 C 293.921 5.85926 2.20095 0
M  V30 3233 H 294.154 2.95893 0.2889 0
M  V30 3234 H 291.687 1.54368 0.0313844 0
M  V30 3235 H 293.645 3.01662 2.78406 0
M  V30 3236 H 292.306 1.87949 2.51663 0
M  V30 3237 H 291.499 4.25314 2.70415 0
M  V30 3238 H 291.101 3.57149 1.10999 0
M  V30 3239 H 293.393 5.99579 3.15453 0
M  V30 3240 H 294.336 6.82761 1.87731 0
M  V30 3241 H 294.744 5.14438 2.32409 0
M  V30 3242 N 294.142 -0.090211 1.57342 0
M  V30 3243 C 295.419 -0.824761 1.77361 0
M  V30 3244 C 295.799 -1.96698 0.76637 0
M  V30 3245 O 295.147 -2.27586 -0.204179 0
M  V30 3246 C 295.357 -1.31481 3.23286 0
M  V30 3247 C 296.705 -1.75563 3.86604 0
M  V30 3248 O 297.729 -1.41093 3.27065 0
M  V30 3249 O 296.588 -2.39317 4.91314 0
M  V30 3250 H 293.682 -0.393776 0.727234 0
M  V30 3251 H 296.228 -0.0717138 1.69548 0
M  V30 3252 H 295 -0.496671 3.88135 0
M  V30 3253 H 294.623 -2.12973 3.35751 0
M  V30 3254 N 295.62 -1.53406 -0.361157 0
M  V30 3255 C 296.53 -1.83122 -1.4664 0
M  V30 3256 C 297.546 -0.719943 -1.58407 0
M  V30 3257 O 298.722 -1.01046 -1.74218 0
M  V30 3258 C 295.787 -2.01891 -2.81853 0
M  V30 3259 C 294.848 -3.25784 -2.79577 0
M  V30 3260 C 294.081 -3.43648 -4.0834 0
M  V30 3261 O 294.304 -2.65714 -5.0473 0
M  V30 3262 O 293.238 -4.37018 -4.13883 0
M  V30 3263 H 297.064 -2.7703 -1.24451 0
M  V30 3264 H 294.649 -1.38841 -0.551678 0
M  V30 3265 H 296.531 -2.15782 -3.61962 0
M  V30 3266 H 295.206 -1.11173 -3.0401 0
M  V30 3267 H 294.113 -3.17312 -1.98151 0
M  V30 3268 H 295.446 -4.16439 -2.62373 0
M  V30 3269 N 297.098 0.621204 -1.44841 0
M  V30 3270 C 298.048 1.72663 -1.48901 0
M  V30 3271 C 299.032 1.56964 -0.353702 0
M  V30 3272 O 300.224 1.66532 -0.599669 0
M  V30 3273 C 297.353 3.11381 -1.44557 0
M  V30 3274 C 296.439 3.32514 -2.6324 0
M  V30 3275 N 296.83 3.23969 -3.8843 0
M  V30 3276 C 295.128 3.63343 -2.58647 0
M  V30 3277 C 295.829 3.46062 -4.67564 0
M  V30 3278 N 294.805 3.69407 -3.98797 0
M  V30 3279 H 298.607 1.64529 -2.43531 0
M  V30 3280 H 296.121 0.82401 -1.39942 0
M  V30 3281 H 298.118 3.90667 -1.4555 0
M  V30 3282 H 296.778 3.20674 -0.509731 0
M  V30 3283 H 297.789 3.02669 -4.20252 0
M  V30 3284 H 294.466 3.79556 -1.73906 0
M  V30 3285 H 295.856 3.44963 -5.76585 0
M  V30 3286 N 298.576 1.31904 0.862503 0
M  V30 3287 C 299.801 1.25135 1.65397 0
M  V30 3288 C 300.226 -0.179 1.87246 0
M  V30 3289 O 299.584 -1.1277 1.4196 0
M  V30 3290 C 299.632 2.00832 2.99498 0
M  V30 3291 O 298.736 1.35075 3.89652 0
M  V30 3292 H 298.077 0.431655 0.504549 0
M  V30 3293 H 300.607 1.74094 1.07483 0
M  V30 3294 H 300.617 2.10709 3.49379 0
M  V30 3295 H 299.292 3.04847 2.82916 0
M  V30 3296 H 297.869 1.33696 3.48109 0
M  V30 3297 N 300.054 -1.07777 1.14986 0
M  V30 3298 C 301.294 -1.81888 0.932527 0
M  V30 3299 C 301.658 -1.84509 -0.531064 0
M  V30 3300 O 302.859 -2.54448 -0.866577 0
M  V30 3301 C 301.13 -3.23244 1.52473 0
M  V30 3302 S 302.689 -4.14154 1.44989 0
M  V30 3303 H 299.507 -0.626752 0.335712 0
M  V30 3304 H 302.109 -1.29503 1.46455 0
M  V30 3305 H 300.813 -3.18922 2.58296 0
M  V30 3306 H 300.344 -3.80704 0.991381 0
M  V30 3307 H 302.359 -4.94247 0.439799 0
M  V30 3308 N 301.532 -0.945985 -1.26051 0
M  V30 3309 C 302.943 -0.638096 -1.75457 0
M  V30 3310 C 303.294 0.846672 -1.76991 0
M  V30 3311 O 302.419 1.66262 -1.38513 0
M  V30 3312 C 303.014 -1.15157 -3.18629 0
M  V30 3313 C 301.573 -0.894004 -3.65629 0
M  V30 3314 C 300.72 -1.29967 -2.44957 0
M  V30 3315 H 303.671 -1.12376 -1.1206 0
M  V30 3316 H 303.692 -0.507615 -3.77099 0
M  V30 3317 H 303.204 -2.23222 -3.1748 0
M  V30 3318 H 301.305 0.172057 -3.72203 0
M  V30 3319 H 301.418 -1.52439 -4.54202 0
M  V30 3320 H 299.782 -0.718078 -2.44368 0
M  V30 3321 H 300.565 -2.38935 -2.46505 0
M  V30 3322 N 303.011 1.40521 -0.713556 0
M  V30 3323 C 303.941 2.33381 -0.0743864 0
M  V30 3324 C 304.922 1.52784 0.747735 0
M  V30 3325 O 306.107 1.81258 0.697071 0
M  V30 3326 C 303.237 3.36748 0.849598 0
M  V30 3327 C 302.191 4.27793 0.133247 0
M  V30 3328 C 301.517 5.21679 1.17281 0
M  V30 3329 C 302.817 5.12415 -1.01134 0
M  V30 3330 H 304.511 2.87081 -0.850007 0
M  V30 3331 H 302.057 1.38034 -0.410201 0
M  V30 3332 H 304.01 4.00648 1.30612 0
M  V30 3333 H 302.734 2.81439 1.65709 0
M  V30 3334 H 301.393 3.65342 -0.303426 0
M  V30 3335 H 301.041 4.62677 1.9733 0
M  V30 3336 H 300.741 5.83435 0.698397 0
M  V30 3337 H 302.265 5.88456 1.62947 0
M  V30 3338 H 303.679 5.69781 -0.634274 0
M  V30 3339 H 302.076 5.83203 -1.41399 0
M  V30 3340 H 303.146 4.48514 -1.84292 0
M  V30 3341 N 304.489 0.459591 1.5075 0
M  V30 3342 C 305.399 -0.34613 2.32033 0
M  V30 3343 C 306.415 -1.00686 1.41909 0
M  V30 3344 O 307.591 -0.997361 1.7497 0
M  V30 3345 C 304.656 -1.42029 3.16273 0
M  V30 3346 C 303.717 -0.777362 4.22203 0
M  V30 3347 C 302.95 -1.80034 5.02418 0
M  V30 3348 O 303.173 -3.02544 4.83553 0
M  V30 3349 O 302.107 -1.37853 5.85901 0
M  V30 3350 H 305.933 0.318054 3.0203 0
M  V30 3351 H 303.518 0.221663 1.47746 0
M  V30 3352 H 305.4 -2.04275 3.68578 0
M  V30 3353 H 304.075 -2.06815 2.49016 0
M  V30 3354 H 302.982 -0.116256 3.73919 0
M  V30 3355 H 304.315 -0.172634 4.91897 0
M  V30 3356 N 305.967 -1.56429 0.191757 0
M  V30 3357 C 307.214 -1.97485 -0.447891 0
M  V30 3358 C 307.542 -1.07852 -1.61859 0
M  V30 3359 O 306.797 -0.116903 -1.95351 0
M  V30 3360 C 307.096 -3.44449 -0.953384 0
M  V30 3361 C 306.762 -4.50781 0.103586 0
M  V30 3362 C 305.424 -4.79584 0.394023 0
M  V30 3363 C 307.776 -5.1471 0.819946 0
M  V30 3364 C 305.104 -5.69607 1.40585 0
M  V30 3365 C 307.456 -6.05827 1.8209 0
M  V30 3366 C 306.12 -6.32987 2.11857 0
M  V30 3367 H 305.39 -0.722648 -0.163895 0
M  V30 3368 H 308.037 -1.89322 0.28802 0
M  V30 3369 H 306.342 -3.49666 -1.76751 0
M  V30 3370 H 308.039 -3.73569 -1.45765 0
M  V30 3371 H 304.629 -4.28394 -0.132951 0
M  V30 3372 H 308.813 -4.92552 0.608789 0
M  V30 3373 H 304.069 -5.88926 1.64243 0
M  V30 3374 H 308.243 -6.54424 2.38123 0
M  V30 3375 H 305.87 -7.02544 2.90407 0
M  V30 3376 N 307.445 0.0818655 -1.57387 0
M  V30 3377 C 308.67 0.799946 -1.91352 0
M  V30 3378 C 309.095 1.70833 -0.787258 0
M  V30 3379 O 308.453 1.79419 0.26048 0
M  V30 3380 C 308.501 1.57812 -3.24234 0
M  V30 3381 O 307.605 2.68806 -3.12757 0
M  V30 3382 H 306.946 0.21891 -0.626877 0
M  V30 3383 H 309.476 0.0531256 -2.04531 0
M  V30 3384 H 309.486 1.95952 -3.57864 0
M  V30 3385 H 308.161 0.911548 -4.05788 0
M  V30 3386 H 306.738 2.33597 -2.90666 0
M  V30 3387 N 308.923 1.53595 0.353017 0
M  V30 3388 C 310.148 1.7462 1.11904 0
M  V30 3389 C 310.573 0.479721 1.8188 0
M  V30 3390 O 309.931 -0.567066 1.72204 0
M  V30 3391 C 309.979 2.92029 2.11545 0
M  V30 3392 O 309.083 2.61516 3.18878 0
M  V30 3393 H 308.424 0.579531 0.324099 0
M  V30 3394 H 310.954 2.00525 0.406301 0
M  V30 3395 H 310.964 3.18551 2.5493 0
M  V30 3396 H 309.639 3.83888 1.60008 0
M  V30 3397 H 308.216 2.45852 2.80377 0
M  V30 3398 N 310.401 -0.613514 1.45168 0
M  V30 3399 C 311.631 -1.39743 1.52169 0
M  V30 3400 C 312.039 -1.88596 0.151086 0
M  V30 3401 O 311.382 -1.6251 -0.856521 0
M  V30 3402 C 311.444 -2.64035 2.43979 0
M  V30 3403 C 311.108 -2.36861 3.90827 0
M  V30 3404 C 312.105 -1.97591 4.80889 0
M  V30 3405 C 309.79 -2.49956 4.35692 0
M  V30 3406 C 311.784 -1.71768 6.1382 0
M  V30 3407 C 309.471 -2.23747 5.68665 0
M  V30 3408 C 310.469 -1.84714 6.57548 0
M  V30 3409 O 310.157 -1.58809 7.88058 0
M  V30 3410 H 309.889 -0.434382 0.517966 0
M  V30 3411 H 312.443 -0.75587 1.90986 0
M  V30 3412 H 310.673 -3.3089 2.00122 0
M  V30 3413 H 312.362 -3.26069 2.41731 0
M  V30 3414 H 313.128 -1.87015 4.47493 0
M  V30 3415 H 309.007 -2.79305 3.66756 0
M  V30 3416 H 312.551 -1.41227 6.83155 0
M  V30 3417 H 308.448 -2.33938 6.01617 0
M  V30 3418 H 309.216 -1.7291 8.00028 0
M  V30 3419 N 311.879 -1.3236 -0.855495 0
M  V30 3420 C 313.127 -1.22629 -1.60644 0
M  V30 3421 C 313.448 0.212136 -1.93843 0
M  V30 3422 O 312.718 1.13666 -1.59552 0
M  V30 3423 H 311.298 -0.450882 -0.595579 0
M  V30 3424 H 313.96 -1.65871 -1.02337 0
M  V30 3425 H 313.056 -1.80832 -2.54374 0
M  V30 3426 N 313.357 1.07166 -1.15556 0
M  V30 3427 C 314.587 1.83248 -0.954133 0
M  V30 3428 C 314.995 1.82449 0.500911 0
M  V30 3429 O 314.338 1.23575 1.35923 0
M  V30 3430 C 314.4 3.31393 -1.39351 0
M  V30 3431 C 314.064 3.5591 -2.86666 0
M  V30 3432 C 315.061 3.49695 -3.8472 0
M  V30 3433 C 312.746 3.83515 -3.24379 0
M  V30 3434 C 314.74 3.70737 -5.18491 0
M  V30 3435 C 312.427 4.04209 -4.58321 0
M  V30 3436 C 313.425 3.97815 -5.55186 0
M  V30 3437 O 313.113 4.17954 -6.86709 0
M  V30 3438 H 312.845 0.584941 -0.338851 0
M  V30 3439 H 315.399 1.36169 -1.53777 0
M  V30 3440 H 313.629 3.79292 -0.75329 0
M  V30 3441 H 315.318 3.88945 -1.16089 0
M  V30 3442 H 316.084 3.28368 -3.56931 0
M  V30 3443 H 311.963 3.87605 -2.49567 0
M  V30 3444 H 315.507 3.65663 -5.94085 0
M  V30 3445 H 311.404 4.25023 -4.85825 0
M  V30 3446 H 312.172 4.35291 -6.93155 0
M  V30 3447 N 314.835 0.952656 1.25548 0
M  V30 3448 C 316.246 0.647392 1.75116 0
M  V30 3449 C 316.597 -0.837274 1.77438 0
M  V30 3450 O 315.722 -1.65525 1.39393 0
M  V30 3451 C 316.317 1.16845 3.18014 0
M  V30 3452 C 314.876 0.913382 3.6515 0
M  V30 3453 C 314.023 1.31265 2.44264 0
M  V30 3454 H 316.974 1.12968 1.11462 0
M  V30 3455 H 316.995 0.527606 3.76824 0
M  V30 3456 H 316.507 2.24902 3.16292 0
M  V30 3457 H 314.608 -0.152316 3.72289 0
M  V30 3458 H 314.721 1.54845 4.53387 0
M  V30 3459 H 313.085 0.731028 2.43984 0
M  V30 3460 H 313.868 2.40239 2.45234 0
M  V30 3461 N 316.313 -1.40141 0.720998 0
M  V30 3462 C 317.729 -1.54632 0.395113 0
M  V30 3463 C 317.929 -1.69115 -1.09555 0
M  V30 3464 O 316.985 -1.68377 -1.88163 0
M  V30 3465 C 318.298 -2.77177 1.1659 0
M  V30 3466 C 319.846 -2.91 1.15274 0
M  V30 3467 C 320.321 -4.16465 1.90579 0
M  V30 3468 N 321.812 -4.23476 1.87675 0
M  V30 3469 C 322.547 -5.19475 2.42762 0
M  V30 3470 N 322.043 -6.21348 3.06428 0
M  V30 3471 N 323.836 -5.11592 2.32874 0
M  V30 3472 H 315.987 -1.28986 1.68749 0
M  V30 3473 H 318.25 -0.62412 0.713567 0
M  V30 3474 H 317.956 -2.72771 2.22011 0
M  V30 3475 H 317.83 -3.69442 0.76108 0
M  V30 3476 H 320.217 -2.94907 0.106702 0
M  V30 3477 H 320.298 -1.99838 1.59682 0
M  V30 3478 H 319.942 -4.1332 2.95176 0
M  V30 3479 H 319.872 -5.06646 1.43587 0
M  V30 3480 H 322.363 -3.50497 1.41281 0
M  V30 3481 H 322.676 -6.91034 3.45965 0
M  V30 3482 H 321.021 -6.21777 3.10514 0
M  V30 3483 H 324.212 -4.30936 1.82789 0
M  V30 3484 H 324.385 -5.86233 2.76106 0
M  V30 3485 N 317.792 -0.46758 -1.50504 0
M  V30 3486 C 318.702 0.33382 -2.32213 0
M  V30 3487 C 319.718 0.999323 -1.42441 0
M  V30 3488 O 320.894 0.988068 -1.75497 0
M  V30 3489 C 317.959 1.4035 -3.17022 0
M  V30 3490 C 317.02 0.754961 -4.2261 0
M  V30 3491 C 316.253 1.77367 -5.03365 0
M  V30 3492 O 316.476 2.99976 -4.8515 0
M  V30 3493 O 315.41 1.34744 -5.86624 0
M  V30 3494 H 319.236 -0.334067 -3.01857 0
M  V30 3495 H 316.821 -0.229496 -1.47627 0
M  V30 3496 H 318.703 2.02318 -3.69656 0
M  V30 3497 H 317.378 2.05492 -2.5011 0
M  V30 3498 H 316.285 0.0964244 -3.73976 0
M  V30 3499 H 317.618 0.146545 -4.91982 0
M  V30 3500 N 319.27 1.56325 -0.20005 0
M  V30 3501 C 320.18 2.22931 0.730668 0
M  V30 3502 C 321.196 1.22997 1.23076 0
M  V30 3503 O 322.372 1.55748 1.27689 0
M  V30 3504 C 319.437 2.87948 1.93098 0
M  V30 3505 C 318.498 4.03166 1.47497 0
M  V30 3506 C 317.731 4.65073 2.61807 0
M  V30 3507 O 317.954 4.25913 3.79413 0
M  V30 3508 O 316.888 5.54452 2.34237 0
M  V30 3509 H 320.714 3.03084 0.193391 0
M  V30 3510 H 318.299 1.49371 0.0294621 0
M  V30 3511 H 320.181 3.29063 2.6324 0
M  V30 3512 H 318.856 2.10771 2.45677 0
M  V30 3513 H 317.763 3.66664 0.742201 0
M  V30 3514 H 319.096 4.82022 0.995796 0
M  V30 3515 N 320.748 -0.0735177 1.57428 0
M  V30 3516 C 321.997 -0.771809 1.86349 0
M  V30 3517 C 322.31 -1.78828 0.792452 0
M  V30 3518 O 323.516 -2.53602 0.96945 0
M  V30 3519 C 321.972 -1.42358 3.30548 0
M  V30 3520 C 321.58 -0.445761 4.45777 0
M  V30 3521 C 323.324 -2.10434 3.6867 0
M  V30 3522 C 321.231 -1.10335 5.81016 0
M  V30 3523 H 320.161 -0.291999 0.695164 0
M  V30 3524 H 322.812 -0.0250749 1.83483 0
M  V30 3525 H 321.194 -2.21852 3.28021 0
M  V30 3526 H 322.368 0.319239 4.59693 0
M  V30 3527 H 320.683 0.130457 4.16196 0
M  V30 3528 H 323.28 -2.60405 4.67004 0
M  V30 3529 H 323.623 -2.90298 2.98383 0
M  V30 3530 H 324.156 -1.37773 3.7318 0
M  V30 3531 H 320.895 -0.345061 6.54591 0
M  V30 3532 H 320.415 -1.83925 5.70904 0
M  V30 3533 H 322.094 -1.62367 6.26295 0
M  V30 3534 N 322.226 -1.5378 -0.344866 0
M  V30 3535 C 323.472 -1.71216 -1.08687 0
M  V30 3536 C 323.805 -0.473281 -1.88345 0
M  V30 3537 O 323.08 0.52968 -1.87149 0
M  V30 3538 C 323.363 -2.97486 -2.02914 0
M  V30 3539 C 323.216 -4.31579 -1.26727 0
M  V30 3540 C 324.535 -3.19422 -3.0275 0
M  V30 3541 H 321.654 -0.62301 -0.393735 0
M  V30 3542 H 324.296 -1.8645 -0.365563 0
M  V30 3543 H 322.446 -2.84629 -2.64421 0
M  V30 3544 H 324.118 -4.56284 -0.67845 0
M  V30 3545 H 322.361 -4.30049 -0.569273 0
M  V30 3546 H 323.032 -5.16106 -1.95803 0
M  V30 3547 H 325.508 -3.316 -2.51357 0
M  V30 3548 H 324.384 -4.09169 -3.65885 0
M  V30 3549 H 324.645 -2.35656 -3.74057 0
M  V30 3550 N 323.704 0.605807 -1.45491 0
M  V30 3551 C 324.934 1.38934 -1.52908 0
M  V30 3552 C 325.342 1.88513 -0.161086 0
M  V30 3553 O 324.685 1.62962 0.847891 0
M  V30 3554 C 324.747 2.62737 -2.45376 0
M  V30 3555 C 324.411 2.34785 -3.92078 0
M  V30 3556 C 325.408 1.95038 -4.8193 0
M  V30 3557 C 323.093 2.47642 -4.37011 0
M  V30 3558 C 325.087 1.68511 -6.14722 0
M  V30 3559 C 322.774 2.20728 -5.69844 0
M  V30 3560 C 323.772 1.81225 -6.58519 0
M  V30 3561 O 323.46 1.54627 -7.88889 0
M  V30 3562 H 323.192 0.431629 -0.520262 0
M  V30 3563 H 325.746 0.74573 -1.91384 0
M  V30 3564 H 323.976 3.29824 -2.01874 0
M  V30 3565 H 325.665 3.24783 -2.43456 0
M  V30 3566 H 326.431 1.84639 -4.48479 0
M  V30 3567 H 322.31 2.77356 -3.68232 0
M  V30 3568 H 325.854 1.37602 -6.83894 0
M  V30 3569 H 321.751 2.30744 -6.02849 0
M  V30 3570 H 322.519 1.68665 -8.00933 0
M  V30 3571 N 325.182 1.32811 0.848464 0
M  V30 3572 C 326.114 1.18095 1.96433 0
M  V30 3573 C 327.127 0.114354 1.62398 0
M  V30 3574 O 328.316 0.363892 1.74751 0
M  V30 3575 C 325.416 0.786798 3.2964 0
M  V30 3576 C 324.589 1.943 3.91875 0
M  V30 3577 C 323.648 1.53138 5.03423 0
M  V30 3578 O 322.674 2.24432 5.23086 0
M  V30 3579 N 323.876 0.430915 5.78898 0
M  V30 3580 H 326.641 2.14218 2.09597 0
M  V30 3581 H 324.202 1.2543 1.02367 0
M  V30 3582 H 326.194 0.493715 4.01677 0
M  V30 3583 H 324.764 -0.0834541 3.12489 0
M  V30 3584 H 323.984 2.40224 3.12547 0
M  V30 3585 H 325.272 2.71689 4.30189 0
M  V30 3586 H 324.67 -0.162333 5.65467 0
M  V30 3587 H 323.227 0.197466 6.51501 0
M  V30 3588 N 326.66 -1.06551 1.16123 0
M  V30 3589 C 327.906 -1.79719 0.952505 0
M  V30 3590 C 328.261 -1.85396 -0.514385 0
M  V30 3591 O 327.554 -1.33263 -1.37665 0
M  V30 3592 C 327.748 -3.23911 1.51052 0
M  V30 3593 C 327.577 -3.32284 3.03013 0
M  V30 3594 C 326.347 -3.42371 3.71632 0
M  V30 3595 C 328.545 -3.22363 4.00732 0
M  V30 3596 N 326.527 -3.39732 5.11327 0
M  V30 3597 C 327.898 -3.26937 5.26794 0
M  V30 3598 C 329.953 -3.0623 3.92591 0
M  V30 3599 C 328.656 -3.17035 6.45663 0
M  V30 3600 C 330.682 -2.97665 5.11028 0
M  V30 3601 C 330.044 -3.02858 6.35969 0
M  V30 3602 H 326.143 -0.670585 0.402293 0
M  V30 3603 H 328.727 -1.27125 1.4747 0
M  V30 3604 H 326.898 -3.74907 1.01484 0
M  V30 3605 H 328.63 -3.85242 1.2398 0
M  V30 3606 H 325.385 -3.47058 3.22254 0
M  V30 3607 H 325.809 -3.41919 5.84312 0
M  V30 3608 H 330.451 -3.01063 2.96852 0
M  V30 3609 H 328.169 -3.2096 7.41627 0
M  V30 3610 H 331.755 -2.86273 5.06497 0
M  V30 3611 H 330.635 -2.96286 7.26075 0
M  V30 3612 N 328.138 -0.959301 -1.25041 0
M  V30 3613 C 329.085 -0.482057 -2.2571 0
M  V30 3614 C 330.055 0.467939 -1.59372 0
M  V30 3615 O 331.24 0.380159 -1.86974 0
M  V30 3616 C 328.38 0.229623 -3.44335 0
M  V30 3617 C 327.493 -0.758156 -4.25295 0
M  V30 3618 C 326.628 -0.0234403 -5.31195 0
M  V30 3619 C 325.667 -1.00184 -6.03846 0
M  V30 3620 N 324.804 -0.29769 -7.01469 0
M  V30 3621 H 329.644 -1.34538 -2.65901 0
M  V30 3622 H 327.181 -0.674592 -1.3072 0
M  V30 3623 H 329.139 0.658856 -4.11965 0
M  V30 3624 H 327.769 1.05696 -3.05005 0
M  V30 3625 H 326.821 -1.30586 -3.57284 0
M  V30 3626 H 328.133 -1.50458 -4.75567 0
M  V30 3627 H 327.287 0.464201 -6.04922 0
M  V30 3628 H 326.026 0.755741 -4.81809 0
M  V30 3629 H 325.031 -1.50044 -5.2893 0
M  V30 3630 H 326.256 -1.78133 -6.55321 0
M  V30 3631 H 324.202 0.462668 -6.54366 0
M  V30 3632 H 324.119 -0.983128 -7.4958 0
M  V30 3633 H 325.387 0.16826 -7.79318 0
M  V30 3634 N 329.616 1.39756 -0.72842 0
M  V30 3635 C 331.032 1.5442 -0.403308 0
M  V30 3636 C 331.232 1.69694 1.08656 0
M  V30 3637 O 330.288 1.69373 1.87267 0
M  V30 3638 C 331.601 2.76555 -1.18058 0
M  V30 3639 C 333.149 2.90384 -1.16815 0
M  V30 3640 C 333.624 4.15449 -1.92785 0
M  V30 3641 N 335.115 4.22475 -1.89918 0
M  V30 3642 C 335.85 5.1818 -2.45514 0
M  V30 3643 N 335.346 6.19714 -3.09719 0
M  V30 3644 N 337.139 5.1035 -2.35584 0
M  V30 3645 H 329.29 1.28089 -1.69431 0
M  V30 3646 H 331.553 0.620327 -0.716867 0
M  V30 3647 H 331.259 2.7159 -2.23455 0
M  V30 3648 H 331.133 3.69033 -0.780662 0
M  V30 3649 H 333.52 2.94846 -0.12234 0
M  V30 3650 H 333.601 1.98988 -1.6074 0
M  V30 3651 H 333.245 4.11749 -2.97364 0
M  V30 3652 H 333.175 5.05877 -1.46272 0
M  V30 3653 H 335.666 3.49743 -1.43138 0
M  V30 3654 H 335.979 6.8919 -3.49625 0
M  V30 3655 H 334.324 6.20121 -3.13807 0
M  V30 3656 H 337.515 4.2996 -1.85072 0
M  V30 3657 H 337.688 5.84761 -2.79211 0
M  V30 3658 N 331.094 0.475555 1.50254 0
M  V30 3659 C 332.319 -0.0777042 2.07254 0
M  V30 3660 C 332.744 -1.3235 1.3366 0
M  V30 3661 O 332.102 -1.77152 0.385597 0
M  V30 3662 C 332.15 -0.340169 3.58992 0
M  V30 3663 O 331.254 -1.41982 3.87188 0
M  V30 3664 H 330.595 0.0149556 0.663832 0
M  V30 3665 H 333.125 0.667878 1.93392 0
M  V30 3666 H 333.135 -0.579332 4.03866 0
M  V30 3667 H 331.81 0.570167 4.11973 0
M  V30 3668 H 330.387 -1.16762 3.54148 0
M  V30 3669 N 332.573 -1.56217 0.208337 0
M  V30 3670 C 333.798 -2.02782 -0.435222 0
M  V30 3671 C 334.223 -1.08738 -1.53485 0
M  V30 3672 O 333.581 -0.0731855 -1.81152 0
M  V30 3673 C 333.629 -3.47687 -0.956335 0
M  V30 3674 O 332.733 -3.56773 -2.06849 0
M  V30 3675 H 332.074 -0.656403 -0.100158 0
M  V30 3676 H 334.604 -2.02033 0.3231 0
M  V30 3677 H 334.614 -3.87745 -1.26955 0
M  V30 3678 H 333.289 -4.15624 -0.15143 0
M  V30 3679 H 331.866 -3.28597 -1.76292 0
M  V30 3680 N 334.051 0.0651679 -1.57465 0
M  V30 3681 C 335.297 0.764193 -1.87851 0
M  V30 3682 C 335.63 1.76889 -0.801495 0
M  V30 3683 O 334.905 1.93594 0.187528 0
M  V30 3684 C 335.188 1.46625 -3.28897 0
M  V30 3685 C 335.041 0.477515 -4.47258 0
M  V30 3686 C 336.36 2.4095 -3.68281 0
M  V30 3687 H 333.479 0.276351 -0.683227 0
M  V30 3688 H 336.121 0.0272868 -1.8998 0
M  V30 3689 H 334.271 2.09438 -3.27212 0
M  V30 3690 H 335.943 -0.145922 -4.61069 0
M  V30 3691 H 334.186 -0.206576 -4.33308 0
M  V30 3692 H 334.857 1.0065 -5.42746 0
M  V30 3693 H 337.333 1.88209 -3.71102 0
M  V30 3694 H 336.209 2.87072 -4.67847 0
M  V30 3695 H 336.47 3.26049 -2.98571 0
M  V30 3696 N 335.529 1.53961 0.336706 0
M  V30 3697 C 336.439 1.85432 1.43708 0
M  V30 3698 C 337.455 0.745053 1.57242 0
M  V30 3699 O 338.631 1.03804 1.72588 0
M  V30 3700 C 335.696 2.06349 2.78605 0
M  V30 3701 C 334.757 3.30191 2.74358 0
M  V30 3702 C 333.99 3.50101 4.02822 0
M  V30 3703 O 334.213 2.7371 5.00439 0
M  V30 3704 O 333.147 4.43547 4.06878 0
M  V30 3705 H 336.973 2.78975 1.20028 0
M  V30 3706 H 334.558 1.39701 0.52952 0
M  V30 3707 H 336.44 2.21513 3.58483 0
M  V30 3708 H 335.115 1.15995 3.02203 0
M  V30 3709 H 334.022 3.20425 1.93078 0
M  V30 3710 H 335.355 4.2056 2.55715 0
M  V30 3711 N 337.007 -0.598083 1.45811 0
M  V30 3712 C 338.253 -1.35882 1.50545 0
M  V30 3713 C 338.586 -1.93616 0.150445 0
M  V30 3714 O 337.861 -1.75604 -0.83628 0
M  V30 3715 C 338.144 -2.49966 2.59208 0
M  V30 3716 C 337.997 -1.97367 4.04186 0
M  V30 3717 C 339.316 -3.52068 2.64076 0
M  V30 3718 H 336.435 -0.492717 0.548087 0
M  V30 3719 H 339.077 -0.673319 1.77669 0
M  V30 3720 H 337.227 -3.08443 2.3621 0
M  V30 3721 H 338.899 -1.43466 4.38423 0
M  V30 3722 H 337.142 -1.283 4.14393 0
M  V30 3723 H 337.813 -2.79649 4.75921 0
M  V30 3724 H 340.289 -3.03448 2.84708 0
M  V30 3725 H 339.165 -4.2937 3.41954 0
M  V30 3726 H 339.426 -4.08304 1.69531 0
M  V30 3727 N 338.485 -1.33259 -0.841409 0
M  V30 3728 C 339.733 -1.24326 -1.59334 0
M  V30 3729 C 340.054 0.191564 -1.94057 0
M  V30 3730 O 339.324 1.11967 -1.60749 0
M  V30 3731 H 337.904 -0.457174 -0.590763 0
M  V30 3732 H 340.566 -1.66947 -1.00571 0
M  V30 3733 H 339.662 -1.8352 -2.52442 0
M  V30 3734 N 339.963 1.05934 -1.16686 0
M  V30 3735 C 341.24 1.75643 -0.860747 0
M  V30 3736 C 341.62 2.01144 0.640641 0
M  V30 3737 O 340.968 1.64147 1.58959 0
M  V30 3738 C 341.178 3.05493 -1.68745 0
M  V30 3739 C 342.526 3.79581 -1.90271 0
M  V30 3740 O 343.55 3.15344 -1.65641 0
M  V30 3741 O 342.409 4.9499 -2.31618 0
M  V30 3742 H 339.503 0.763426 -0.317977 0
M  V30 3743 H 342.049 1.1217 -1.27342 0
M  V30 3744 H 340.821 2.8264 -2.70611 0
M  V30 3745 H 340.444 3.76702 -1.27206 0
M  V30 3746 N 341.441 0.965919 1.2453 0
M  V30 3747 C 342.669 0.644385 1.96609 0
M  V30 3748 C 343.084 -0.785823 1.71669 0
M  V30 3749 O 342.441 -1.52703 0.999399 0
M  V30 3750 C 342.492 0.907375 3.49927 0
M  V30 3751 O 342.213 2.28136 3.74013 0
M  V30 3752 C 343.714 0.599784 4.39224 0
M  V30 3753 H 340.934 0.240588 0.626385 0
M  V30 3754 H 343.478 1.29337 1.58405 0
M  V30 3755 H 341.633 0.304631 3.862 0
M  V30 3756 H 342.047 2.36002 4.68405 0
M  V30 3757 H 343.521 0.834263 5.45659 0
M  V30 3758 H 343.998 -0.465921 4.36722 0
M  V30 3759 H 344.604 1.18235 4.08535 0
M  V30 3760 N 342.919 -1.39368 0.735821 0
M  V30 3761 C 344.335 -1.54204 0.411492 0
M  V30 3762 C 344.535 -1.70268 -1.07755 0
M  V30 3763 O 343.591 -1.70364 -1.86366 0
M  V30 3764 C 344.904 -2.75925 1.19523 0
M  V30 3765 C 346.452 -2.89761 1.18354 0
M  V30 3766 C 346.927 -4.14421 1.94986 0
M  V30 3767 N 348.418 -4.21462 1.92156 0
M  V30 3768 C 349.153 -5.16871 2.48258 0
M  V30 3769 N 348.649 -6.18063 3.13001 0
M  V30 3770 N 350.442 -5.09093 2.38287 0
M  V30 3771 H 342.593 -1.27189 1.70108 0
M  V30 3772 H 344.856 -0.616517 0.720147 0
M  V30 3773 H 344.562 -2.70401 2.24892 0
M  V30 3774 H 344.436 -3.68614 0.800222 0
M  V30 3775 H 346.823 -2.94777 0.137975 0
M  V30 3776 H 346.904 -1.98133 1.61793 0
M  V30 3777 H 346.548 -4.10166 2.99543 0
M  V30 3778 H 346.478 -5.05095 1.48953 0
M  V30 3779 H 348.969 -3.48979 1.44991 0
M  V30 3780 H 349.282 -6.87326 3.53275 0
M  V30 3781 H 347.627 -6.18448 3.17091 0
M  V30 3782 H 350.818 -4.28973 1.8735 0
M  V30 3783 H 350.991 -5.83272 2.82308 0
M  V30 3784 N 344.397 -0.483516 -1.5 0
M  V30 3785 C 345.622 0.0667119 -2.07293 0
M  V30 3786 C 346.047 1.3164 -1.3436 0
M  V30 3787 O 345.405 1.76945 -0.394987 0
M  V30 3788 C 345.453 0.321126 -3.59167 0
M  V30 3789 O 344.557 1.39927 -3.87936 0
M  V30 3790 H 343.898 -0.0184758 -0.663743 0
M  V30 3791 H 346.428 -0.678125 -1.93035 0
M  V30 3792 H 346.438 0.557906 -4.04168 0
M  V30 3793 H 345.113 -0.592007 -4.11665 0
M  V30 3794 H 343.69 1.14882 -3.54763 0
M  V30 3795 N 345.875 1.56104 -0.216619 0
M  V30 3796 C 347.121 1.99219 0.410301 0
M  V30 3797 C 347.476 1.10169 1.57735 0
M  V30 3798 O 346.769 0.150598 1.91007 0
M  V30 3799 C 346.963 3.45923 0.898464 0
M  V30 3800 C 346.792 4.49163 -0.219748 0
M  V30 3801 C 345.562 5.00642 -0.684516 0
M  V30 3802 C 347.76 5.03751 -1.03629 0
M  V30 3803 N 345.742 5.87579 -1.7783 0
M  V30 3804 C 347.113 5.87566 -1.97904 0
M  V30 3805 C 349.168 4.86128 -1.07629 0
M  V30 3806 C 347.871 6.5564 -2.95851 0
M  V30 3807 C 349.897 5.54958 -2.04392 0
M  V30 3808 C 349.259 6.38536 -2.97407 0
M  V30 3809 H 345.358 0.773206 0.11695 0
M  V30 3810 H 347.942 1.9193 -0.327258 0
M  V30 3811 H 346.113 3.53669 1.6054 0
M  V30 3812 H 347.845 3.75963 1.49779 0
M  V30 3813 H 344.6 4.72807 -0.27399 0
M  V30 3814 H 345.024 6.3575 -2.32705 0
M  V30 3815 H 349.666 4.21168 -0.371099 0
M  V30 3816 H 347.384 7.19785 -3.67335 0
M  V30 3817 H 350.97 5.43289 -2.08154 0
M  V30 3818 H 349.85 6.90858 -3.71059 0
M  V30 3819 N 347.353 -0.0568162 1.57498 0
M  V30 3820 C 348.769 -0.411933 1.54192 0
M  V30 3821 C 348.969 -1.78287 0.938942 0
M  V30 3822 O 348.025 -2.46483 0.547919 0
M  V30 3823 C 349.338 -0.339244 2.9878 0
M  V30 3824 C 350.886 -0.418348 3.10192 0
M  V30 3825 C 351.361 -0.375407 4.56459 0
M  V30 3826 N 352.852 -0.435038 4.61153 0
M  V30 3827 C 353.587 -0.424265 5.71828 0
M  V30 3828 N 353.083 -0.367418 6.91825 0
M  V30 3829 N 354.876 -0.471938 5.60115 0
M  V30 3830 H 347.027 0.840684 1.95055 0
M  V30 3831 H 349.29 0.316987 0.893433 0
M  V30 3832 H 348.996 0.601742 3.46514 0
M  V30 3833 H 348.87 -1.14371 3.59443 0
M  V30 3834 H 351.257 -1.34976 2.62422 0
M  V30 3835 H 351.338 0.414962 2.52412 0
M  V30 3836 H 350.982 0.552219 5.04889 0
M  V30 3837 H 350.912 -1.22645 5.12119 0
M  V30 3838 H 353.403 -0.482612 3.74806 0
M  V30 3839 H 353.716 -0.363535 7.71944 0
M  V30 3840 H 352.061 -0.333879 6.94198 0
M  V30 3841 H 355.252 -0.514145 4.65268 0
M  V30 3842 H 355.425 -0.460073 6.46365 0
M  V30 3843 N 348.832 -1.54138 -0.328536 0
M  V30 3844 C 349.762 -1.86167 -1.40939 0
M  V30 3845 C 350.743 -0.718044 -1.54202 0
M  V30 3846 O 351.928 -0.971328 -1.68163 0
M  V30 3847 C 349.058 -2.08461 -2.77779 0
M  V30 3848 C 348.012 -3.24299 -2.7931 0
M  V30 3849 C 347.338 -3.31955 -4.19178 0
M  V30 3850 C 348.638 -4.62065 -2.43502 0
M  V30 3851 H 350.332 -2.76689 -1.14383 0
M  V30 3852 H 347.878 -1.33132 -0.548806 0
M  V30 3853 H 349.831 -2.29453 -3.53454 0
M  V30 3854 H 348.555 -1.14684 -3.05802 0
M  V30 3855 H 347.214 -3.03187 -2.0609 0
M  V30 3856 H 346.862 -2.35745 -4.44335 0
M  V30 3857 H 346.562 -4.09805 -4.2111 0
M  V30 3858 H 348.086 -3.55175 -4.96672 0
M  V30 3859 H 349.5 -4.8297 -3.08889 0
M  V30 3860 H 347.897 -5.42429 -2.56693 0
M  V30 3861 H 348.967 -4.64652 -1.38659 0
M  V30 3862 N 350.31 0.590341 -1.46126 0
M  V30 3863 C 351.54 1.37304 -1.54373 0
M  V30 3864 C 351.948 1.88332 -0.181071 0
M  V30 3865 O 351.291 1.63852 0.830559 0
M  V30 3866 C 351.353 2.6012 -2.48149 0
M  V30 3867 C 351.017 2.30613 -3.94546 0
M  V30 3868 C 352.014 1.89915 -4.83971 0
M  V30 3869 C 349.699 2.42993 -4.39613 0
M  V30 3870 C 351.693 1.61981 -6.16475 0
M  V30 3871 C 349.38 2.14672 -5.72153 0
M  V30 3872 C 350.378 1.7423 -6.60404 0
M  V30 3873 O 350.066 1.46251 -7.90485 0
M  V30 3874 H 349.798 0.426086 -0.524811 0
M  V30 3875 H 352.352 0.72539 -1.92165 0
M  V30 3876 H 350.582 3.27664 -2.05361 0
M  V30 3877 H 352.271 3.22182 -2.46887 0
M  V30 3878 H 353.037 1.79872 -4.50412 0
M  V30 3879 H 348.916 2.73435 -3.71153 0
M  V30 3880 H 352.46 1.30341 -6.85315 0
M  V30 3881 H 348.357 2.24337 -6.05263 0
M  V30 3882 H 349.125 1.6016 -8.02677 0
M  V30 3883 N 351.788 1.33704 0.83433 0
M  V30 3884 C 352.72 1.20172 1.9517 0
M  V30 3885 C 353.733 0.131572 1.62267 0
M  V30 3886 O 354.922 0.382406 1.74356 0
M  V30 3887 C 352.022 0.821716 3.28787 0
M  V30 3888 C 351.195 1.98446 3.89792 0
M  V30 3889 C 350.254 1.58469 5.01771 0
M  V30 3890 O 349.28 2.29968 5.20676 0
M  V30 3891 N 350.482 0.492291 5.78409 0
M  V30 3892 H 353.247 2.16429 2.07313 0
M  V30 3893 H 350.808 1.26509 1.0103 0
M  V30 3894 H 352.8 0.536291 4.01131 0
M  V30 3895 H 351.37 -0.0503058 3.1256 0
M  V30 3896 H 350.59 2.43526 3.09982 0
M  V30 3897 H 351.878 2.76236 4.27283 0
M  V30 3898 H 351.276 -0.102349 5.65607 0
M  V30 3899 H 349.833 0.266555 6.51255 0
M  V30 3900 N 353.266 -1.05314 1.17247 0
M  V30 3901 C 354.513 -1.78293 0.960091 0
M  V30 3902 C 354.841 -1.87658 -0.51136 0
M  V30 3903 O 354.096 -1.3718 -1.39571 0
M  V30 3904 C 354.395 -3.2229 1.54479 0
M  V30 3905 C 354.061 -3.32987 3.04024 0
M  V30 3906 C 352.723 -3.35613 3.44844 0
M  V30 3907 C 355.075 -3.34102 4.00031 0
M  V30 3908 C 352.403 -3.36982 4.8027 0
M  V30 3909 C 354.755 -3.3701 5.35357 0
M  V30 3910 C 353.419 -3.37923 5.75642 0
M  V30 3911 H 352.689 -0.652422 0.351322 0
M  V30 3912 H 355.336 -1.23782 1.46117 0
M  V30 3913 H 353.641 -3.7972 0.965391 0
M  V30 3914 H 355.338 -3.77376 1.35603 0
M  V30 3915 H 351.928 -3.31655 2.71483 0
M  V30 3916 H 356.112 -3.31276 3.69554 0
M  V30 3917 H 351.368 -3.35999 5.10798 0
M  V30 3918 H 355.542 -3.36822 6.09528 0
M  V30 3919 H 353.169 -3.38738 6.80559 0
M  V30 3920 N 354.744 -0.972509 -1.24016 0
M  V30 3921 C 355.969 -0.654417 -1.96805 0
M  V30 3922 C 356.394 0.770398 -1.716 0
M  V30 3923 O 355.752 1.52361 -0.982647 0
M  V30 3924 C 355.8 -0.941031 -3.48105 0
M  V30 3925 O 354.904 -0.0289472 -4.1239 0
M  V30 3926 H 354.245 -0.24692 -0.616382 0
M  V30 3927 H 356.775 -1.30396 -1.57664 0
M  V30 3928 H 356.785 -0.87452 -3.98517 0
M  V30 3929 H 355.46 -1.97939 -3.65777 0
M  V30 3930 H 354.037 -0.149192 -3.72601 0
M  V30 3931 N 356.222 1.38976 -0.743202 0
M  V30 3932 C 357.469 2.00343 -0.294752 0
M  V30 3933 C 357.797 1.58983 1.12047 0
M  V30 3934 O 357.052 0.813809 1.77977 0
M  V30 3935 C 357.351 3.55647 -0.353517 0
M  V30 3936 C 357.017 4.16685 -1.72292 0
M  V30 3937 C 355.679 4.3307 -2.09771 0
M  V30 3938 C 358.031 4.50464 -2.62168 0
M  V30 3939 C 355.359 4.80526 -3.36618 0
M  V30 3940 C 357.711 4.99332 -3.88395 0
M  V30 3941 C 356.375 5.13924 -4.25956 0
M  V30 3942 H 355.645 0.733108 -0.107857 0
M  V30 3943 H 358.292 1.6618 -0.951651 0
M  V30 3944 H 356.597 3.89884 0.386954 0
M  V30 3945 H 358.294 4.00998 0.0117269 0
M  V30 3946 H 354.884 4.04339 -1.42155 0
M  V30 3947 H 359.068 4.37416 -2.3448 0
M  V30 3948 H 354.324 4.90008 -3.65653 0
M  V30 3949 H 358.498 5.2444 -4.58187 0
M  V30 3950 H 356.125 5.50457 -5.2431 0
M  V30 3951 N 357.7 0.491464 1.49741 0
M  V30 3952 C 358.946 -0.0565092 2.02721 0
M  V30 3953 C 359.279 -1.37522 1.37118 0
M  V30 3954 O 358.554 -1.87866 0.503645 0
M  V30 3955 C 358.837 -0.219051 3.59433 0
M  V30 3956 C 358.69 1.12211 4.35579 0
M  V30 3957 C 360.009 -0.964157 4.29409 0
M  V30 3958 H 357.128 -0.0190627 0.736753 0
M  V30 3959 H 359.77 0.641021 1.7886 0
M  V30 3960 H 357.92 -0.813165 3.79895 0
M  V30 3961 H 359.592 1.75437 4.26637 0
M  V30 3962 H 357.835 1.71377 3.98513 0
M  V30 3963 H 358.506 0.961794 5.43556 0
M  V30 3964 H 360.982 -0.460378 4.13545 0
M  V30 3965 H 359.858 -1.04671 5.38828 0
M  V30 3966 H 360.119 -2.00563 3.93988 0
M  V30 3967 N 359.178 -1.55987 0.224894 0
M  V30 3968 C 360.426 -1.97998 -0.405099 0
M  V30 3969 C 360.747 -1.11387 -1.60056 0
M  V30 3970 O 360.017 -0.191645 -1.9496 0
M  V30 3971 H 358.597 -0.731235 -0.152658 0
M  V30 3972 H 361.259 -1.92279 0.318567 0
M  V30 3973 H 360.355 -3.03463 -0.729167 0
M  V30 3974 N 360.656 0.0484629 -1.57525 0
M  V30 3975 C 361.586 1.0549 -2.08313 0
M  V30 3976 C 362.567 1.38929 -0.981463 0
M  V30 3977 O 363.752 1.48151 -1.25558 0
M  V30 3978 C 360.882 2.36162 -2.54646 0
M  V30 3979 C 359.836 2.17016 -3.68901 0
M  V30 3980 C 359.162 3.53278 -4.01371 0
M  V30 3981 C 360.462 1.57219 -4.98076 0
M  V30 3982 H 362.156 0.632195 -2.92649 0
M  V30 3983 H 359.702 0.302654 -1.40784 0
M  V30 3984 H 361.655 3.06882 -2.88793 0
M  V30 3985 H 360.379 2.80456 -1.67368 0
M  V30 3986 H 359.038 1.48733 -3.35073 0
M  V30 3987 H 358.686 3.95185 -3.11188 0
M  V30 3988 H 358.386 3.41299 -4.78318 0
M  V30 3989 H 359.91 4.25391 -4.38035 0
M  V30 3990 H 361.324 2.17832 -5.30304 0
M  V30 3991 H 359.721 1.55871 -5.79503 0
M  V30 3992 H 360.791 0.535956 -4.81929 0
M  V30 3993 N 362.134 1.5431 0.320358 0
M  V30 3994 C 363.55 1.45091 0.664889 0
M  V30 3995 C 363.75 0.626382 1.91517 0
M  V30 3996 O 362.806 0.126443 2.52183 0
M  V30 3997 C 364.119 2.88848 0.83591 0
M  V30 3998 C 365.667 2.9877 0.933046 0
M  V30 3999 C 366.142 4.43683 1.13621 0
M  V30 4000 N 367.633 4.47309 1.20287 0
M  V30 4001 C 368.368 5.56595 1.37801 0
M  V30 4002 N 367.864 6.75844 1.52338 0
M  V30 4003 N 369.657 5.44248 1.40535 0
M  V30 4004 H 361.808 2.06398 -0.501374 0
M  V30 4005 H 364.071 0.933963 -0.162534 0
M  V30 4006 H 363.777 3.51698 -0.0116092 0
M  V30 4007 H 363.651 3.35148 1.73078 0
M  V30 4008 H 366.038 2.36045 1.77107 0
M  V30 4009 H 366.119 2.55796 0.0145782 0
M  V30 4010 H 365.763 5.06995 0.303032 0
M  V30 4011 H 365.693 4.84269 2.0686 0
M  V30 4012 H 368.184 3.61388 1.10485 0
M  V30 4013 H 368.497 7.54892 1.65403 0
M  V30 4014 H 366.842 6.78746 1.4943 0
M  V30 4015 H 370.033 4.50038 1.28777 0
M  V30 4016 H 370.206 6.29473 1.53842 0
M  V30 4017 N 363.613 -0.582584 1.46437 0
M  V30 4018 C 364.561 -1.71272 1.5738 0
M  V30 4019 C 365.555 -1.63524 0.44229 0
M  V30 4020 O 366.761 -1.69016 0.619166 0
M  V30 4021 H 363.136 -0.566273 0.494813 0
M  V30 4022 H 365.107 -1.59174 2.52401 0
M  V30 4023 C 363.856 -3.09658 1.58136 0
M  V30 4024 H 363.179 -3.16291 2.44541 0
M  V30 4025 H 364.619 -3.88494 1.69847 0
M  V30 4026 C 363.078 -3.3547 0.310026 0
M  V30 4027 O 363.608 -3.97199 -0.599683 0
M  V30 4028 N 361.814 -2.89925 0.197901 0
M  V30 4029 H 361.361 -2.39873 0.93909 0
M  V30 4030 H 361.319 -3.07568 -0.65185 0
M  V30 4031 N 365.091 -1.34144 -0.827227 0
M  V30 4032 C 366.319 -1.29325 -1.61501 0
M  V30 4033 C 366.734 0.13354 -1.88327 0
M  V30 4034 O 366.091 1.0793 -1.47164 0
M  V30 4035 C 366.142 -2.07746 -2.95844 0
M  V30 4036 O 365.863 -3.4486 -2.70191 0
M  V30 4037 C 367.364 -2.10273 -3.90256 0
M  V30 4038 H 364.584 -0.445069 -0.50215 0
M  V30 4039 H 367.128 -1.76693 -1.02955 0
M  V30 4040 H 365.283 -1.6403 -3.5096 0
M  V30 4041 H 365.697 -3.85345 -3.55822 0
M  V30 4042 H 367.171 -2.69575 -4.81698 0
M  V30 4043 H 367.648 -1.096 -4.25305 0
M  V30 4044 H 368.254 -2.54059 -3.41078 0
M  V30 4045 N 366.569 1.04691 -1.17803 0
M  V30 4046 C 367.797 1.81446 -0.99423 0
M  V30 4047 C 368.212 1.83174 0.457459 0
M  V30 4048 O 367.569 1.26265 1.31771 0
M  V30 4049 C 367.62 3.27334 -1.5341 0
M  V30 4050 O 367.341 3.25798 -2.92895 0
M  V30 4051 C 368.842 4.20759 -1.39559 0
M  V30 4052 H 366.062 0.571599 -0.351447 0
M  V30 4053 H 368.606 1.31982 -1.56208 0
M  V30 4054 H 366.761 3.74052 -1.00815 0
M  V30 4055 H 367.175 4.17144 -3.17949 0
M  V30 4056 H 368.649 5.21084 -1.82141 0
M  V30 4057 H 369.126 4.37856 -0.343394 0
M  V30 4058 H 369.732 3.79901 -1.91195 0
M  V30 4059 N 368.047 0.979072 1.23499 0
M  V30 4060 C 368.957 0.526431 2.28617 0
M  V30 4061 C 369.973 -0.418126 1.68901 0
M  V30 4062 O 371.149 -0.288372 1.99325 0
M  V30 4063 C 368.214 -0.165235 3.46306 0
M  V30 4064 C 367.275 0.82056 4.21385 0
M  V30 4065 C 366.508 0.161807 5.33455 0
M  V30 4066 O 366.731 -1.04742 5.60701 0
M  V30 4067 O 365.665 0.859708 5.95729 0
M  V30 4068 H 369.491 1.4006 2.69475 0
M  V30 4069 H 367.076 0.746643 1.29405 0
M  V30 4070 H 368.958 -0.553287 4.17752 0
M  V30 4071 H 367.633 -1.01419 3.07402 0
M  V30 4072 H 366.54 1.25929 3.52268 0
M  V30 4073 H 367.873 1.63828 4.64135 0
M  V30 4074 N 369.525 -1.3858 0.750561 0
M  V30 4075 C 370.771 -2.00481 0.305825 0
M  V30 4076 C 371.104 -1.5944 -1.10872 0
M  V30 4077 O 370.379 -0.83052 -1.75877 0
M  V30 4078 C 370.662 -3.5758 0.425287 0
M  V30 4079 C 370.515 -4.08594 1.88072 0
M  V30 4080 C 371.834 -4.39719 -0.183122 0
M  V30 4081 H 368.953 -0.728348 0.112598 0
M  V30 4082 H 371.595 -1.64566 0.949638 0
M  V30 4083 H 369.745 -3.88306 -0.122828 0
M  V30 4084 H 371.417 -3.88523 2.48691 0
M  V30 4085 H 369.66 -3.61574 2.39681 0
M  V30 4086 H 370.331 -5.177 1.91548 0
M  V30 4087 H 372.807 -4.15128 0.284303 0
M  V30 4088 H 371.683 -5.48856 -0.0692757 0
M  V30 4089 H 371.944 -4.23434 -1.27106 0
M  V30 4090 N 371.003 -0.499398 -1.49478 0
M  V30 4091 C 372.249 0.0457576 -2.02748 0
M  V30 4092 C 372.582 1.36793 -1.37846 0
M  V30 4093 O 371.857 1.87596 -0.513601 0
M  V30 4094 C 372.14 0.199986 -3.59544 0
M  V30 4095 C 371.993 -1.1452 -4.34977 0
M  V30 4096 C 373.312 0.94137 -4.29914 0
M  V30 4097 H 370.431 0.0151552 -0.736844 0
M  V30 4098 H 373.073 -0.650498 -1.78518 0
M  V30 4099 H 371.223 0.793007 -3.8032 0
M  V30 4100 H 372.895 -1.77697 -4.25701 0
M  V30 4101 H 371.138 -1.73488 -3.97598 0
M  V30 4102 H 371.809 -0.990607 -5.43039 0
M  V30 4103 H 374.285 0.43844 -4.13784 0
M  V30 4104 H 373.161 1.01812 -5.39375 0
M  V30 4105 H 373.422 1.98471 -3.95046 0
M  V30 4106 N 372.481 1.55866 -0.233164 0
M  V30 4107 C 373.428 2.20796 0.67215 0
M  V30 4108 C 374.398 1.16731 1.18166 0
M  V30 4109 O 375.583 1.45129 1.23864 0
M  V30 4110 C 372.723 2.90072 1.86955 0
M  V30 4111 C 371.836 4.08759 1.39786 0
M  V30 4112 C 370.971 4.65787 2.55374 0
M  V30 4113 C 370.01 5.76752 2.04998 0
M  V30 4114 N 369.147 6.28021 3.13901 0
M  V30 4115 H 373.987 2.9779 0.111749 0
M  V30 4116 H 371.524 1.47036 0.0434007 0
M  V30 4117 H 373.482 3.28428 2.57276 0
M  V30 4118 H 372.112 2.15575 2.40265 0
M  V30 4119 H 371.164 3.7581 0.589173 0
M  V30 4120 H 372.476 4.88906 0.98856 0
M  V30 4121 H 371.63 5.06646 3.33758 0
M  V30 4122 H 370.369 3.84828 2.99598 0
M  V30 4123 H 369.374 5.35383 1.25079 0
M  V30 4124 H 370.599 6.59553 1.61759 0
M  V30 4125 H 368.545 5.49971 3.57586 0
M  V30 4126 H 368.462 7.03323 2.7726 0
M  V30 4127 H 369.73 6.73538 3.92386 0
M  V30 4128 N 373.959 -0.0401083 1.57549 0
M  V30 4129 C 375.187 -0.745196 1.93014 0
M  V30 4130 C 375.602 -1.6948 0.831984 0
M  V30 4131 O 374.959 -1.81482 -0.192463 0
M  V30 4132 C 375.01 -1.51176 3.28372 0
M  V30 4133 O 374.731 -0.600284 4.33968 0
M  V30 4134 C 376.232 -2.315 3.78051 0
M  V30 4135 H 373.452 -0.210088 0.637263 0
M  V30 4136 H 375.996 -0.000924689 2.045 0
M  V30 4137 H 374.151 -2.20801 3.18317 0
M  V30 4138 H 374.565 -1.13669 5.12035 0
M  V30 4139 H 376.039 -2.80697 4.75303 0
M  V30 4140 H 376.516 -3.12436 3.08675 0
M  V30 4141 H 377.122 -1.66971 3.91153 0
M  V30 4142 N 375.437 -1.54477 -0.31217 0
M  V30 4143 C 376.665 -1.77205 -1.068 0
M  V30 4144 C 377.08 -0.526114 -1.81321 0
M  V30 4145 O 376.437 0.503647 -1.75413 0
M  V30 4146 C 376.488 -2.97253 -2.05725 0
M  V30 4147 O 376.209 -4.1703 -1.34228 0
M  V30 4148 C 377.71 -3.32281 -2.93435 0
M  V30 4149 H 374.93 -0.591287 -0.317208 0
M  V30 4150 H 377.474 -2.01398 -0.354834 0
M  V30 4151 H 375.629 -2.753 -2.72559 0
M  V30 4152 H 376.043 -4.84636 -2.00571 0
M  V30 4153 H 377.517 -4.19551 -3.58721 0
M  V30 4154 H 377.994 -2.49945 -3.61143 0
M  V30 4155 H 378.6 -3.56353 -2.32147 0
M  V30 4156 N 376.915 0.57481 -1.46744 0
M  V30 4157 C 378.14 1.36341 -1.56288 0
M  V30 4158 C 378.565 1.86954 -0.207347 0
M  V30 4159 O 377.923 1.62006 0.813871 0
M  V30 4160 C 377.971 2.52147 -2.57787 0
M  V30 4161 O 377.075 3.53834 -2.11838 0
M  V30 4162 H 376.416 0.405713 -0.525636 0
M  V30 4163 H 378.946 0.696453 -1.92382 0
M  V30 4164 H 378.956 2.98958 -2.77648 0
M  V30 4165 H 377.631 2.14663 -3.5622 0
M  V30 4166 H 376.208 3.1345 -2.01999 0
M  V30 4167 N 378.394 1.34581 0.820102 0
M  V30 4168 C 379.642 1.26845 1.57336 0
M  V30 4169 C 379.963 -0.160667 1.94337 0
M  V30 4170 O 379.233 -1.09396 1.6251 0
M  V30 4171 H 377.813 0.466514 0.583415 0
M  V30 4172 H 380.475 1.68526 0.979027 0
M  V30 4173 H 379.571 1.87513 2.4949 0
M  V30 4174 N 379.872 -1.04064 1.18357 0
M  V30 4175 C 381.149 -1.74252 0.888581 0
M  V30 4176 C 381.529 -2.02138 -0.60856 0
M  V30 4177 O 380.877 -1.66656 -1.56327 0
M  V30 4178 C 381.087 -3.0277 1.73584 0
M  V30 4179 C 382.435 -3.76506 1.96286 0
M  V30 4180 O 383.459 -3.12668 1.70637 0
M  V30 4181 O 382.318 -4.91243 2.39464 0
M  V30 4182 H 379.412 -0.758271 0.330082 0
M  V30 4183 H 381.958 -1.1013 1.2911 0
M  V30 4184 H 380.73 -2.78299 2.75073 0
M  V30 4185 H 380.353 -3.74631 1.33183 0
M  V30 4186 N 381.35 -0.985608 -1.22978 0
M  V30 4187 C 382.58 -0.674603 -1.95276 0
M  V30 4188 C 382.988 0.763483 -1.73111 0
M  V30 4189 O 382.331 1.52601 -1.02268 0
M  V30 4190 C 382.393 -0.891597 -3.48268 0
M  V30 4191 C 382.057 -2.31275 -3.94158 0
M  V30 4192 C 383.054 -3.29179 -4.02415 0
M  V30 4193 C 380.739 -2.64524 -4.27004 0
M  V30 4194 C 382.733 -4.58407 -4.42879 0
M  V30 4195 C 380.42 -3.93974 -4.67149 0
M  V30 4196 C 381.418 -4.90727 -4.75053 0
M  V30 4197 O 381.106 -6.17865 -5.14294 0
M  V30 4198 H 380.838 -0.249251 -0.628371 0
M  V30 4199 H 383.392 -1.32106 -1.5728 0
M  V30 4200 H 381.622 -0.187962 -3.86243 0
M  V30 4201 H 383.311 -0.576957 -4.01779 0
M  V30 4202 H 384.077 -3.04823 -3.77237 0
M  V30 4203 H 379.956 -1.89923 -4.2006 0
M  V30 4204 H 383.5 -5.33926 -4.48964 0
M  V30 4205 H 379.397 -4.18122 -4.91777 0
M  V30 4206 H 380.165 -6.21694 -5.32389 0
M  V30 4207 N 382.828 1.3818 -0.7579 0
M  V30 4208 C 384.074 2.00316 -0.316453 0
M  V30 4209 C 384.407 1.60026 1.10025 0
M  V30 4210 O 383.682 0.839835 1.75434 0
M  V30 4211 C 383.965 3.57349 -0.444245 0
M  V30 4212 C 383.818 4.07591 -1.90236 0
M  V30 4213 C 385.137 4.3981 0.1598 0
M  V30 4214 H 382.256 0.727741 -0.116459 0
M  V30 4215 H 384.898 1.6406 -0.958352 0
M  V30 4216 H 383.048 3.88365 0.102233 0
M  V30 4217 H 384.72 3.87199 -2.50748 0
M  V30 4218 H 382.963 3.60297 -2.41595 0
M  V30 4219 H 383.634 5.16677 -1.94291 0
M  V30 4220 H 386.11 4.14971 -0.306314 0
M  V30 4221 H 384.986 5.48885 0.0401675 0
M  V30 4222 H 385.247 4.24102 1.24859 0
M  V30 4223 N 384.306 0.507319 1.49211 0
M  V30 4224 C 385.552 -0.0350047 2.0277 0
M  V30 4225 C 385.885 -1.3606 1.38569 0
M  V30 4226 O 385.16 -1.87321 0.523542 0
M  V30 4227 C 385.443 -0.180916 3.59645 0
M  V30 4228 C 385.296 1.16825 4.34364 0
M  V30 4229 C 386.615 -0.918558 4.30407 0
M  V30 4230 H 383.734 -0.0112473 0.736914 0
M  V30 4231 H 386.376 0.659956 1.7817 0
M  V30 4232 H 384.526 -0.772826 3.80736 0
M  V30 4233 H 386.198 1.79952 4.24753 0
M  V30 4234 H 384.441 1.75594 3.96673 0
M  V30 4235 H 385.112 1.01939 5.42506 0
M  V30 4236 H 387.588 -0.41649 4.1401 0
M  V30 4237 H 386.464 -0.989505 5.39907 0
M  V30 4238 H 386.725 -1.96373 3.96093 0
M  V30 4239 N 385.784 -1.5574 0.241426 0
M  V30 4240 C 386.717 -2.17168 -0.700935 0
M  V30 4241 C 387.695 -1.12206 -1.1768 0
M  V30 4242 O 388.879 -1.40565 -1.25593 0
M  V30 4243 C 386.006 -2.76796 -1.95196 0
M  V30 4244 C 385.052 -3.94764 -1.61442 0
M  V30 4245 S 385.885 -5.30613 -0.72182 0
M  V30 4246 C 387.041 -5.93691 -1.98197 0
M  V30 4247 H 387.274 -2.96761 -0.178882 0
M  V30 4248 H 384.807 -1.54378 0.0259299 0
M  V30 4249 H 386.765 -3.11787 -2.67019 0
M  V30 4250 H 385.426 -1.9716 -2.44514 0
M  V30 4251 H 384.619 -4.35057 -2.54443 0
M  V30 4252 H 384.221 -3.61022 -0.976672 0
M  V30 4253 H 386.513 -6.10874 -2.92983 0
M  V30 4254 H 387.456 -6.89258 -1.62262 0
M  V30 4255 H 387.864 -5.22709 -2.13156 0
M  V30 4256 N 387.262 0.0317525 -1.57568 0
M  V30 4257 C 388.487 0.738664 -1.938 0
M  V30 4258 C 388.912 1.68242 -0.841208 0
M  V30 4259 O 388.27 1.80157 0.203267 0
M  V30 4260 C 388.318 1.47417 -3.29091 0
M  V30 4261 O 387.422 2.5872 -3.2115 0
M  V30 4262 H 386.763 0.198856 -0.633524 0
M  V30 4263 H 389.293 -0.0119713 -2.04596 0
M  V30 4264 H 389.303 1.84468 -3.63917 0
M  V30 4265 H 387.978 0.781988 -4.08482 0
M  V30 4266 H 386.555 2.24231 -2.97951 0
M  V30 4267 N 388.74 1.54641 0.303973 0
M  V30 4268 C 389.986 1.74038 1.04109 0
M  V30 4269 C 390.319 0.523051 1.87024 0
M  V30 4270 O 389.594 -0.479874 1.88487 0
M  V30 4271 C 389.877 3.02761 1.94955 0
M  V30 4272 C 389.73 4.34787 1.1524 0
M  V30 4273 C 391.049 3.27336 2.94175 0
M  V30 4274 H 388.168 0.63323 0.377079 0
M  V30 4275 H 390.81 1.87354 0.316001 0
M  V30 4276 H 388.96 2.9154 2.56782 0
M  V30 4277 H 390.632 4.57922 0.557236 0
M  V30 4278 H 388.875 4.31407 0.455053 0
M  V30 4279 H 389.546 5.21116 1.8205 0
M  V30 4280 H 392.022 3.38148 2.42477 0
M  V30 4281 H 390.898 4.18726 3.54908 0
M  V30 4282 H 391.159 2.45491 3.67677 0
M  V30 4283 N 390.218 -0.567019 1.47046 0
M  V30 4284 C 391.448 -1.34831 1.56538 0
M  V30 4285 C 391.856 -1.8802 0.21101 0
M  V30 4286 O 391.199 -1.65152 -0.804387 0
M  V30 4287 C 391.261 -2.56139 2.52256 0
M  V30 4288 C 390.925 -2.24307 3.98165 0
M  V30 4289 C 391.922 -1.82192 4.86931 0
M  V30 4290 C 389.607 -2.35968 4.43423 0
M  V30 4291 C 391.601 -1.52153 6.18973 0
M  V30 4292 C 389.288 -2.05542 5.75496 0
M  V30 4293 C 390.286 -1.63701 6.63092 0
M  V30 4294 O 389.974 -1.33657 7.92711 0
M  V30 4295 H 389.706 -0.417683 0.531523 0
M  V30 4296 H 392.26 -0.694726 1.93294 0
M  V30 4297 H 390.49 -3.24356 2.10548 0
M  V30 4298 H 392.179 -3.18214 2.51982 0
M  V30 4299 H 392.945 -1.72684 4.53217 0
M  V30 4300 H 388.824 -2.67495 3.75456 0
M  V30 4301 H 392.368 -1.19421 6.87302 0
M  V30 4302 H 388.265 -2.14679 6.08755 0
M  V30 4303 H 389.033 -1.4737 8.05124 0
M  V30 4304 N 391.696 -1.35014 -0.812953 0
M  V30 4305 C 392.943 -1.27931 -1.56971 0
M  V30 4306 C 393.271 0.148034 -1.93936 0
M  V30 4307 O 392.526 1.11175 -1.61054 0
M  V30 4308 C 392.825 -2.12524 -2.87347 0
M  V30 4309 C 392.491 -3.61401 -2.6963 0
M  V30 4310 C 391.153 -4.01983 -2.64506 0
M  V30 4311 C 393.505 -4.55894 -2.52607 0
M  V30 4312 C 390.833 -5.35235 -2.40293 0
M  V30 4313 C 393.185 -5.89336 -2.29925 0
M  V30 4314 C 391.849 -6.2907 -2.23219 0
M  V30 4315 H 391.119 -0.468131 -0.574399 0
M  V30 4316 H 393.766 -1.66851 -0.939836 0
M  V30 4317 H 392.071 -1.66463 -3.54679 0
M  V30 4318 H 393.768 -2.04383 -3.45005 0
M  V30 4319 H 390.358 -3.29193 -2.74463 0
M  V30 4320 H 394.542 -4.25431 -2.55583 0
M  V30 4321 H 389.798 -5.65028 -2.33566 0
M  V30 4322 H 393.972 -6.62139 -2.15743 0
M  V30 4323 H 391.599 -7.32256 -2.04219 0
M  V30 4324 N 393.175 1.03435 -1.18907 0
M  V30 4325 C 394.452 1.73778 -0.89781 0
M  V30 4326 C 394.832 2.02458 0.597832 0
M  V30 4327 O 394.18 1.67482 1.55441 0
M  V30 4328 C 394.39 3.01845 -1.75187 0
M  V30 4329 C 395.738 3.7546 -1.9828 0
M  V30 4330 O 396.762 3.11759 -1.72293 0
M  V30 4331 O 395.621 4.89966 -2.42065 0
M  V30 4332 H 392.715 0.75651 -0.334098 0
M  V30 4333 H 395.261 1.09444 -1.29693 0
M  V30 4334 H 394.033 2.76836 -2.76545 0
M  V30 4335 H 393.656 3.73919 -1.35167 0
M  V30 4336 N 394.653 0.992116 1.22453 0
M  V30 4337 C 395.583 0.561677 2.26644 0
M  V30 4338 C 396.564 -0.411055 1.65059 0
M  V30 4339 O 397.749 -0.301861 1.9184 0
M  V30 4340 C 394.879 -0.125247 3.47074 0
M  V30 4341 C 393.833 0.765948 4.21091 0
M  V30 4342 C 393.159 -0.0538484 5.34673 0
M  V30 4343 C 394.459 2.06242 4.79856 0
M  V30 4344 H 396.153 1.43259 2.62902 0
M  V30 4345 H 393.699 0.690283 1.26377 0
M  V30 4346 H 395.652 -0.437764 4.1912 0
M  V30 4347 H 394.376 -1.03069 3.0991 0
M  V30 4348 H 393.035 1.0621 3.50878 0
M  V30 4349 H 392.683 -0.960188 4.9375 0
M  V30 4350 H 392.383 0.539415 5.85119 0
M  V30 4351 H 393.907 -0.360477 6.09535 0
M  V30 4352 H 395.321 1.8139 5.43848 0
M  V30 4353 H 393.718 2.60444 5.40638 0
M  V30 4354 H 394.788 2.74167 3.99951 0
M  V30 4355 N 396.131 -1.37776 0.765217 0
M  V30 4356 C 397.356 -2.04651 0.336537 0
M  V30 4357 C 397.781 -1.57337 -1.03086 0
M  V30 4358 O 397.139 -0.730621 -1.65927 0
M  V30 4359 C 397.187 -3.58577 0.381468 0
M  V30 4360 O 396.291 -4.07706 -0.62042 0
M  V30 4361 H 395.632 -0.64756 0.146838 0
M  V30 4362 H 398.162 -1.76221 1.03959 0
M  V30 4363 H 398.172 -4.07314 0.236448 0
M  V30 4364 H 396.847 -3.9237 1.37907 0
M  V30 4365 H 395.424 -3.70306 -0.439056 0
M  V30 4366 N 397.609 -0.515225 -1.4894 0
M  V30 4367 C 399.025 -0.172099 -1.58669 0
M  V30 4368 C 399.225 1.32405 -1.51892 0
M  V30 4369 O 398.281 2.10116 -1.40027 0
M  V30 4370 C 399.594 -0.761533 -2.90897 0
M  V30 4371 C 401.142 -0.728926 -3.04394 0
M  V30 4372 C 401.617 -1.29667 -4.39261 0
M  V30 4373 N 403.108 -1.25799 -4.4579 0
M  V30 4374 C 403.843 -1.66733 -5.48623 0
M  V30 4375 N 403.339 -2.15327 -6.58488 0
M  V30 4376 N 405.132 -1.58061 -5.39419 0
M  V30 4377 H 397.283 -1.48778 -1.51588 0
M  V30 4378 H 399.546 -0.617968 -0.718901 0
M  V30 4379 H 399.252 -1.81136 -3.01468 0
M  V30 4380 H 399.126 -0.230106 -3.76497 0
M  V30 4381 H 401.513 0.312098 -2.93445 0
M  V30 4382 H 401.594 -1.29766 -2.20442 0
M  V30 4383 H 401.238 -2.33655 -4.50963 0
M  V30 4384 H 401.168 -0.703752 -5.21876 0
M  V30 4385 H 403.659 -0.902102 -3.66975 0
M  V30 4386 H 403.972 -2.44594 -7.33071 0
M  V30 4387 H 402.317 -2.19311 -6.59491 0
M  V30 4388 H 405.508 -1.19906 -4.52482 0
M  V30 4389 H 405.681 -1.90284 -6.19432 0
M  V30 4390 N 399.087 1.5561 -0.249682 0
M  V30 4391 C 400.503 1.59254 0.105103 0
M  V30 4392 C 400.703 1.26685 1.56694 0
M  V30 4393 O 399.759 1.0155 2.31179 0
M  V30 4394 C 401.072 2.99687 -0.246592 0
M  V30 4395 C 402.62 3.12416 -0.191118 0
M  V30 4396 C 403.095 4.55074 -0.516885 0
M  V30 4397 N 404.586 4.60835 -0.467489 0
M  V30 4398 C 405.321 5.69201 -0.69268 0
M  V30 4399 N 404.817 6.85817 -0.981146 0
M  V30 4400 N 406.61 5.58635 -0.623198 0
M  V30 4401 H 398.761 1.75049 -1.20298 0
M  V30 4402 H 401.024 0.815003 -0.484225 0
M  V30 4403 H 400.73 3.28267 -1.26228 0
M  V30 4404 H 400.604 3.74798 0.424962 0
M  V30 4405 H 402.991 2.83615 0.815247 0
M  V30 4406 H 403.072 2.39573 -0.896563 0
M  V30 4407 H 402.716 4.84596 -1.52082 0
M  V30 4408 H 402.646 5.26181 0.210068 0
M  V30 4409 H 405.137 3.7705 -0.253373 0
M  V30 4410 H 405.45 7.64341 -1.14032 0
M  V30 4411 H 403.795 6.87494 -1.01865 0
M  V30 4412 H 406.986 4.66406 -0.397863 0
M  V30 4413 H 407.159 6.43017 -0.802093 0
M  V30 4414 N 400.565 -0.0233959 1.57583 0
M  V30 4415 C 401.498 -1.05549 2.02323 0
M  V30 4416 C 402.476 -1.34843 0.908626 0
M  V30 4417 O 403.66 -1.47404 1.17491 0
M  V30 4418 C 400.787 -2.38885 2.40108 0
M  V30 4419 C 399.833 -2.2541 3.62067 0
M  V30 4420 S 400.666 -1.60217 5.1097 0
M  V30 4421 C 401.822 -2.95032 5.52003 0
M  V30 4422 H 402.055 -0.674435 2.89549 0
M  V30 4423 H 399.588 -0.23355 1.52623 0
M  V30 4424 H 401.546 -3.15562 2.62547 0
M  V30 4425 H 400.207 -2.74137 1.53323 0
M  V30 4426 H 399.4 -3.23854 3.86179 0
M  V30 4427 H 399.002 -1.56876 3.39508 0
M  V30 4428 H 401.294 -3.91357 5.53033 0
M  V30 4429 H 402.237 -2.75646 6.52246 0
M  V30 4430 H 402.645 -2.97865 4.79517 0
M  V30 4431 N 402.043 -1.548 -0.295768 0
M  V30 4432 C 403.291 -1.73985 -1.02828 0
M  V30 4433 C 403.612 -0.531406 -1.87619 0
M  V30 4434 O 402.882 0.454221 -1.90561 0
M  V30 4435 H 401.462 -0.641556 -0.382642 0
M  V30 4436 H 404.124 -1.92163 -0.325489 0
M  V30 4437 H 403.22 -2.63129 -1.67838 0
M  V30 4438 N 403.521 0.559213 -1.47345 0
M  V30 4439 C 404.751 1.33999 -1.57251 0
M  V30 4440 C 405.159 1.87905 -0.220978 0
M  V30 4441 O 404.502 1.65577 0.795617 0
M  V30 4442 C 404.564 2.54798 -2.53611 0
M  V30 4443 C 404.228 2.22192 -3.99349 0
M  V30 4444 C 405.225 1.79607 -4.87891 0
M  V30 4445 C 402.91 2.33613 -4.44669 0
M  V30 4446 C 404.904 1.48868 -6.19772 0
M  V30 4447 C 402.591 2.02487 -5.76578 0
M  V30 4448 C 403.589 1.60183 -6.63951 0
M  V30 4449 O 403.277 1.29451 -7.93409 0
M  V30 4450 H 403.009 0.414858 -0.533731 0
M  V30 4451 H 405.563 0.684465 -1.9366 0
M  V30 4452 H 403.793 3.23235 -2.12265 0
M  V30 4453 H 405.482 3.16873 -2.53666 0
M  V30 4454 H 406.248 1.70278 -4.54126 0
M  V30 4455 H 402.127 2.65501 -3.76869 0
M  V30 4456 H 405.671 1.15775 -6.87926 0
M  V30 4457 H 401.568 2.11448 -6.09885 0
M  V30 4458 H 402.336 1.43098 -8.05894 0
M  V30 4459 N 404.999 1.35443 0.805782 0
M  V30 4460 C 406.246 1.28761 1.56291 0
M  V30 4461 C 406.574 -0.137747 1.94012 0
M  V30 4462 O 405.829 -1.1032 1.61642 0
M  V30 4463 C 406.128 2.14045 2.86216 0
M  V30 4464 C 405.794 3.62826 2.67709 0
M  V30 4465 C 404.456 4.0338 2.6237 0
M  V30 4466 C 406.808 4.57227 2.50186 0
M  V30 4467 C 404.136 5.36501 2.37451 0
M  V30 4468 C 406.488 5.90547 2.26797 0
M  V30 4469 C 405.152 6.30245 2.1988 0
M  V30 4470 H 404.422 0.471171 0.571908 0
M  V30 4471 H 407.069 1.67347 0.930974 0
M  V30 4472 H 405.374 1.68342 3.53791 0
M  V30 4473 H 407.071 2.0621 3.43917 0
M  V30 4474 H 403.661 3.30644 2.72713 0
M  V30 4475 H 407.845 4.2678 2.53323 0
M  V30 4476 H 403.101 5.66259 2.30567 0
M  V30 4477 H 407.275 6.63274 2.12228 0
M  V30 4478 H 404.902 7.33328 2.00333 0
M  V30 4479 N 406.477 -1.02803 1.19454 0
M  V30 4480 C 407.705 -1.79841 1.02297 0
M  V30 4481 C 408.12 -1.83879 -0.428259 0
M  V30 4482 O 407.477 -1.28345 -1.29745 0
M  V30 4483 C 407.528 -3.24852 1.58598 0
M  V30 4484 O 407.249 -3.21097 2.98041 0
M  V30 4485 C 408.75 -4.18485 1.46236 0
M  V30 4486 H 405.97 -0.565936 0.360496 0
M  V30 4487 H 408.514 -1.2948 1.58288 0
M  V30 4488 H 406.669 -3.72401 1.06753 0
M  V30 4489 H 407.083 -4.12033 3.24545 0
M  V30 4490 H 408.557 -5.18121 1.90407 0
M  V30 4491 H 409.034 -4.37254 0.41301 0
M  V30 4492 H 409.64 -3.76811 1.97215 0
M  V30 4493 N 407.956 -0.998596 -1.21925 0
M  V30 4494 C 409.205 -0.673085 -1.90138 0
M  V30 4495 C 409.518 0.79895 -1.78539 0
M  V30 4496 O 410.724 1.23628 -2.4172 0
M  V30 4497 C 409.18 -1.15339 -3.40918 0
M  V30 4498 C 408.788 -2.65106 -3.61141 0
M  V30 4499 C 410.532 -0.902476 -4.14796 0
M  V30 4500 C 408.439 -3.0671 -5.05651 0
M  V30 4501 H 407.369 -0.248057 -0.712028 0
M  V30 4502 H 410.02 -1.20891 -1.38049 0
M  V30 4503 H 408.402 -0.545658 -3.92223 0
M  V30 4504 H 409.576 -3.31274 -3.20304 0
M  V30 4505 H 407.891 -2.88142 -3.00605 0
M  V30 4506 H 410.488 -1.18895 -5.21314 0
M  V30 4507 H 410.831 0.161349 -4.15987 0
M  V30 4508 H 411.364 -1.47269 -3.69536 0
M  V30 4509 H 408.103 -4.12292 -5.09603 0
M  V30 4510 H 407.623 -2.45249 -5.47369 0
M  V30 4511 H 409.302 -2.9833 -5.74115 0
M  V30 4512 N 409.434 1.37368 -0.772513 0
M  V30 4513 C 410.366 2.28899 -0.117502 0
M  V30 4514 C 411.379 1.4867 0.663405 0
M  V30 4515 O 412.568 1.71314 0.501372 0
M  V30 4516 C 409.668 3.2788 0.857192 0
M  V30 4517 C 408.841 4.37207 0.129938 0
M  V30 4518 C 407.9 5.16257 1.01811 0
M  V30 4519 O 406.926 5.67159 0.481601 0
M  V30 4520 N 408.128 5.31058 2.3443 0
M  V30 4521 H 410.893 2.85752 -0.903662 0
M  V30 4522 H 408.454 1.49353 -0.62493 0
M  V30 4523 H 410.446 3.77647 1.45482 0
M  V30 4524 H 409.016 2.7179 1.54432 0
M  V30 4525 H 408.236 3.88827 -0.648605 0
M  V30 4526 H 409.524 5.07434 -0.372559 0
M  V30 4527 H 408.922 4.91287 2.80452 0
M  V30 4528 H 407.479 5.84131 2.89197 0
M  V30 4529 N 410.912 0.523116 1.48665 0
M  V30 4530 C 412.14 -0.0096312 2.06898 0
M  V30 4531 C 412.555 -1.28784 1.38059 0
M  V30 4532 O 411.912 -1.76453 0.465893 0
M  V30 4533 C 411.963 -0.244386 3.60673 0
M  V30 4534 O 411.684 0.983172 4.26925 0
M  V30 4535 C 413.185 -0.818289 4.35682 0
M  V30 4536 H 410.405 0.0304161 0.67031 0
M  V30 4537 H 412.949 0.726799 1.91149 0
M  V30 4538 H 411.104 -0.930847 3.76051 0
M  V30 4539 H 411.518 0.759653 5.1897 0
M  V30 4540 H 412.992 -0.93201 5.44075 0
M  V30 4541 H 413.469 -1.82153 3.99646 0
M  V30 4542 H 414.075 -0.168609 4.24966 0
M  V30 4543 N 412.39 -1.55475 0.257931 0
M  V30 4544 C 413.62 -2.03314 -0.367026 0
M  V30 4545 C 414.028 -1.13625 -1.51281 0
M  V30 4546 O 413.371 -0.145334 -1.83124 0
M  V30 4547 C 413.433 -3.47362 -0.926284 0
M  V30 4548 C 413.097 -4.56914 0.0886584 0
M  V30 4549 C 414.094 -5.12013 0.902123 0
M  V30 4550 C 411.779 -5.01827 0.217936 0
M  V30 4551 C 413.773 -6.10529 1.83122 0
M  V30 4552 C 411.46 -6.00172 1.15052 0
M  V30 4553 C 412.458 -6.54402 1.95568 0
M  V30 4554 O 412.146 -7.50827 2.87253 0
M  V30 4555 H 411.878 -0.669976 -0.0900443 0
M  V30 4556 H 414.432 -2.01804 0.382673 0
M  V30 4557 H 412.662 -3.46056 -1.72575 0
M  V30 4558 H 414.351 -3.78637 -1.46249 0
M  V30 4559 H 415.117 -4.78139 0.812891 0
M  V30 4560 H 410.996 -4.59272 -0.398721 0
M  V30 4561 H 414.54 -6.52783 2.46008 0
M  V30 4562 H 410.437 -6.33465 1.24064 0
M  V30 4563 H 411.205 -7.68483 2.81739 0
M  V30 4564 N 413.868 0.0150385 -1.57593 0
M  V30 4565 C 415.117 0.702115 -1.89085 0
M  V30 4566 C 415.43 1.75764 -0.858277 0
M  V30 4567 O 416.636 2.49829 -1.0629 0
M  V30 4568 C 415.092 1.29992 -3.35604 0
M  V30 4569 C 414.7 0.280007 -4.47124 0
M  V30 4570 C 416.444 1.96606 -3.76227 0
M  V30 4571 C 414.351 0.886949 -5.84711 0
M  V30 4572 H 413.281 0.265997 -0.705522 0
M  V30 4573 H 415.932 -0.0430408 -1.8345 0
M  V30 4574 H 414.314 2.09525 -3.36029 0
M  V30 4575 H 415.488 -0.489631 -4.58191 0
M  V30 4576 H 413.803 -0.284835 -4.15425 0
M  V30 4577 H 416.4 2.42893 -4.76347 0
M  V30 4578 H 416.743 2.79024 -3.08952 0
M  V30 4579 H 417.276 1.23828 -3.78036 0
M  V30 4580 H 414.015 0.101876 -6.55421 0
M  V30 4581 H 413.535 1.6261 -5.77337 0
M  V30 4582 H 415.214 1.39011 -6.3189 0
M  V30 4583 N 415.346 1.54954 0.287554 0
M  V30 4584 C 416.757 1.65732 0.859634 0
M  V30 4585 C 417.108 0.574767 1.87592 0
M  V30 4586 O 416.233 -0.286299 2.14498 0
M  V30 4587 C 416.828 3.00438 1.56597 0
M  V30 4588 C 415.387 3.13292 2.08627 0
M  V30 4589 C 414.534 2.61473 0.923416 0
M  V30 4590 H 417.485 1.5857 0.0642338 0
M  V30 4591 H 417.506 2.92613 2.43224 0
M  V30 4592 H 417.018 3.79207 0.826053 0
M  V30 4593 H 415.119 2.39268 2.85625 0
M  V30 4594 H 415.232 4.19647 2.31157 0
M  V30 4595 H 413.596 2.18264 1.31275 0
M  V30 4596 H 414.379 3.42733 0.197241 0
M  V30 4597 N 416.824 -0.551391 1.4764 0
M  V30 4598 C 418.064 -1.31901 1.56145 0
M  V30 4599 C 418.428 -1.90724 0.221013 0
M  V30 4600 O 419.629 -2.6819 0.180945 0
M  V30 4601 C 417.9 -2.39517 2.65267 0
M  V30 4602 S 419.459 -3.26289 2.93395 0
M  V30 4603 H 416.277 -0.448965 0.551318 0
M  V30 4604 H 418.879 -0.630599 1.85051 0
M  V30 4605 H 417.583 -1.94747 3.6125 0
M  V30 4606 H 417.114 -3.13092 2.38195 0
M  V30 4607 H 419.129 -4.39122 2.31055 0
M  V30 4608 N 418.302 -1.35869 -0.798587 0
M  V30 4609 C 419.53 -1.32722 -1.58722 0
M  V30 4610 C 419.945 0.0935631 -1.88568 0
M  V30 4611 O 419.302 1.04784 -1.49421 0
M  V30 4612 C 419.353 -2.13974 -2.91371 0
M  V30 4613 O 419.074 -3.50514 -2.62815 0
M  V30 4614 C 420.575 -2.18504 -3.85708 0
M  V30 4615 H 417.795 -0.45562 -0.492596 0
M  V30 4616 H 420.339 -1.78837 -0.991843 0
M  V30 4617 H 418.494 -1.71438 -3.47402 0
M  V30 4618 H 418.908 -3.92806 -3.47568 0
M  V30 4619 H 420.382 -2.79732 -4.75872 0
M  V30 4620 H 420.859 -1.18597 -4.22885 0
M  V30 4621 H 421.465 -2.61236 -3.35612 0
M  V30 4622 N 419.78 1.02168 -1.19998 0
M  V30 4623 C 420.71 2.12488 -0.96804 0
M  V30 4624 C 421.691 1.69799 0.101185 0
M  V30 4625 O 422.876 1.94121 -0.0552993 0
M  V30 4626 C 420.006 3.43479 -0.513776 0
M  V30 4627 C 418.96 3.99884 -1.52566 0
M  V30 4628 C 418.286 5.26582 -0.928214 0
M  V30 4629 C 419.586 4.33861 -2.90795 0
M  V30 4630 H 421.28 2.32149 -1.89069 0
M  V30 4631 H 418.826 1.11564 -0.910468 0
M  V30 4632 H 420.779 4.20036 -0.338774 0
M  V30 4633 H 419.503 3.23561 0.444493 0
M  V30 4634 H 418.162 3.25429 -1.68794 0
M  V30 4635 H 417.81 5.02986 0.0378289 0
M  V30 4636 H 417.51 5.65284 -1.60397 0
M  V30 4637 H 419.034 6.05799 -0.764167 0
M  V30 4638 H 420.448 5.01327 -2.78109 0
M  V30 4639 H 418.845 4.83664 -3.55231 0
M  V30 4640 H 419.915 3.42848 -3.42904 0
M  V30 4641 N 421.258 1.00505 1.21394 0
M  V30 4642 C 422.507 0.683159 1.89778 0
M  V30 4643 C 422.82 -0.789471 1.7896 0
M  V30 4644 O 424.026 -1.22344 2.42372 0
M  V30 4645 C 422.482 1.17146 3.40301 0
M  V30 4646 C 422.09 2.67017 3.5973 0
M  V30 4647 C 423.834 0.924461 4.14311 0
M  V30 4648 C 421.741 3.09387 5.04017 0
M  V30 4649 H 420.671 0.25183 0.710702 0
M  V30 4650 H 423.322 1.21622 1.37406 0
M  V30 4651 H 421.704 0.566451 3.91928 0
M  V30 4652 H 422.878 3.32968 3.18542 0
M  V30 4653 H 421.193 2.89732 2.99073 0
M  V30 4654 H 423.79 1.21658 5.20676 0
M  V30 4655 H 424.133 -0.139286 4.16067 0
M  V30 4656 H 424.666 1.49226 3.6875 0
M  V30 4657 H 421.405 4.14989 5.07409 0
M  V30 4658 H 420.925 2.48149 5.46061 0
M  V30 4659 H 422.604 3.01371 5.72525 0
M  V30 4660 N 422.737 -1.36956 0.779787 0
M  V30 4661 C 423.983 -1.99787 0.348281 0
M  V30 4662 C 424.316 -1.61756 -1.07465 0
M  V30 4663 O 423.591 -0.867639 -1.74075 0
M  V30 4664 C 423.874 -3.56597 0.50104 0
M  V30 4665 C 423.727 -4.04513 1.96697 0
M  V30 4666 C 425.046 -4.40008 -0.0898097 0
M  V30 4667 H 422.165 -0.725796 0.128022 0
M  V30 4668 H 424.807 -1.62514 0.984331 0
M  V30 4669 H 422.957 -3.88479 -0.0404347 0
M  V30 4670 H 424.629 -3.83161 2.56876 0
M  V30 4671 H 422.872 -3.56408 2.47297 0
M  V30 4672 H 423.543 -5.1352 2.02486 0
M  V30 4673 H 426.019 -4.14431 0.372293 0
M  V30 4674 H 424.895 -5.4888 0.0471605 0
M  V30 4675 H 425.156 -4.26035 -1.18096 0
M  V30 4676 N 424.215 -0.530993 -1.48385 0
M  V30 4677 C 425.461 0.00274135 -2.028 0
M  V30 4678 C 425.794 1.33838 -1.40716 0
M  V30 4679 O 425.069 1.86465 -0.553277 0
M  V30 4680 C 425.352 0.123676 -3.59888 0
M  V30 4681 C 425.205 -1.2372 -4.3245 0
M  V30 4682 C 426.524 0.849967 -4.31814 0
M  V30 4683 H 423.643 -0.000477758 -0.737 0
M  V30 4684 H 426.285 -0.688217 -1.77098 0
M  V30 4685 H 424.435 0.712157 -3.81917 0
M  V30 4686 H 426.107 -1.86687 -4.21836 0
M  V30 4687 H 424.35 -1.81882 -3.93829 0
M  V30 4688 H 425.021 -1.10557 -5.40815 0
M  V30 4689 H 427.497 0.350572 -4.14621 0
M  V30 4690 H 426.373 0.903486 -5.41413 0
M  V30 4691 H 426.634 1.90047 -3.99167 0
M  V30 4692 N 425.693 1.55336 -0.266172 0
M  V30 4693 C 426.623 2.25146 0.618981 0
M  V30 4694 C 427.604 1.23845 1.16604 0
M  V30 4695 O 428.789 1.52544 1.20183 0
M  V30 4696 C 425.919 2.96572 1.80728 0
M  V30 4697 C 424.873 4.04726 1.39215 0
M  V30 4698 C 424.199 4.63678 2.66283 0
M  V30 4699 C 425.499 5.19407 0.548942 0
M  V30 4700 H 427.193 2.99377 0.0368116 0
M  V30 4701 H 424.739 1.43991 0.0162651 0
M  V30 4702 H 426.692 3.44116 2.43232 0
M  V30 4703 H 425.416 2.19861 2.41514 0
M  V30 4704 H 424.075 3.57979 0.790351 0
M  V30 4705 H 423.723 3.83646 3.25308 0
M  V30 4706 H 423.423 5.367 2.39222 0
M  V30 4707 H 424.947 5.13967 3.29651 0
M  V30 4708 H 426.361 5.63059 1.07876 0
M  V30 4709 H 424.758 5.98936 0.373593 0
M  V30 4710 H 425.828 4.8295 -0.434394 0
M  V30 4711 N 427.171 -0.0066808 1.57599 0
M  V30 4712 C 428.396 -0.707738 1.94951 0
M  V30 4713 C 428.821 -1.66882 0.867868 0
M  V30 4714 O 428.179 -1.80457 -0.17458 0
M  V30 4715 C 428.227 -1.42162 3.31394 0
M  V30 4716 O 427.331 -2.53578 3.25226 0
M  V30 4717 H 426.672 -0.188752 0.636607 0
M  V30 4718 H 429.202 0.0445193 2.04552 0
M  V30 4719 H 429.212 -1.78655 3.66806 0
M  V30 4720 H 427.887 -0.716903 4.09675 0
M  V30 4721 H 426.464 -2.19463 3.01481 0
M  V30 4722 N 428.649 -1.55105 -0.279332 0
M  V30 4723 C 429.895 -1.76597 -1.00921 0
M  V30 4724 C 430.25 -0.556831 -1.84166 0
M  V30 4725 O 429.543 0.450573 -1.86227 0
M  V30 4726 C 429.737 -3.0086 -1.92919 0
M  V30 4727 C 429.566 -4.33744 -1.18728 0
M  V30 4728 C 428.336 -4.9712 -0.905545 0
M  V30 4729 C 430.534 -5.11009 -0.580857 0
M  V30 4730 N 428.516 -6.13749 -0.136169 0
M  V30 4731 C 429.887 -6.19976 0.0546661 0
M  V30 4732 C 431.942 -4.95502 -0.488067 0
M  V30 4733 C 430.645 -7.15123 0.774028 0
M  V30 4734 C 432.671 -5.90999 0.217688 0
M  V30 4735 C 432.033 -6.9935 0.841975 0
M  V30 4736 H 428.132 -0.698553 -0.351493 0
M  V30 4737 H 430.716 -1.92595 -0.285531 0
M  V30 4738 H 428.887 -2.86249 -2.62519 0
M  V30 4739 H 430.619 -3.10784 -2.59221 0
M  V30 4740 H 427.374 -4.57903 -1.20921 0
M  V30 4741 H 427.798 -6.7659 0.235665 0
M  V30 4742 H 432.44 -4.11841 -0.956406 0
M  V30 4743 H 430.158 -7.9831 1.25407 0
M  V30 4744 H 433.744 -5.81078 0.289717 0
M  V30 4745 H 432.624 -7.71973 1.37939 0
M  V30 4746 N 430.127 0.543554 -1.4793 0
M  V30 4747 C 431.373 1.30201 -1.55485 0
M  V30 4748 C 431.706 1.92925 -0.222201 0
M  V30 4749 O 430.981 1.78586 0.77053 0
M  V30 4750 C 431.264 2.40174 -2.68307 0
M  V30 4751 C 431.117 1.8223 -4.11233 0
M  V30 4752 C 432.436 3.42024 -2.76961 0
M  V30 4753 H 429.555 0.472036 -0.565996 0
M  V30 4754 H 432.197 0.606914 -1.80046 0
M  V30 4755 H 430.347 2.99463 -2.47495 0
M  V30 4756 H 432.019 1.27096 -4.43446 0
M  V30 4757 H 430.262 1.12832 -4.18869 0
M  V30 4758 H 430.933 2.61793 -4.85972 0
M  V30 4759 H 433.409 2.92672 -2.95774 0
M  V30 4760 H 432.285 4.16383 -3.57654 0
M  V30 4761 H 432.546 4.0173 -1.84568 0
M  V30 4762 N 431.605 1.3629 0.791371 0
M  V30 4763 C 432.83 1.33726 1.58531 0
M  V30 4764 C 433.255 -0.0794933 1.87932 0
M  V30 4765 O 432.613 -1.05087 1.47738 0
M  V30 4766 C 432.661 2.16425 2.88431 0
M  V30 4767 O 431.765 1.5554 3.81944 0
M  V30 4768 H 431.106 0.457793 0.480959 0
M  V30 4769 H 433.636 1.79547 0.981031 0
M  V30 4770 H 433.646 2.28933 3.37718 0
M  V30 4771 H 432.321 3.19415 2.66359 0
M  V30 4772 H 430.898 1.51961 3.40532 0
M  V30 4773 N 433.083 -1.0153 1.20538 0
M  V30 4774 C 434.33 -1.75149 1.01633 0
M  V30 4775 C 434.658 -1.89189 -0.451399 0
M  V30 4776 O 433.913 -1.41551 -1.35136 0
M  V30 4777 C 434.212 -3.17213 1.64654 0
M  V30 4778 C 433.878 -3.23146 3.14464 0
M  V30 4779 C 432.54 -3.24472 3.55347 0
M  V30 4780 C 434.892 -3.21207 4.10458 0
M  V30 4781 C 432.22 -3.21532 4.90748 0
M  V30 4782 C 434.572 -3.19808 5.45807 0
M  V30 4783 C 433.236 -3.19439 5.86102 0
M  V30 4784 H 432.506 -0.640914 0.3719 0
M  V30 4785 H 435.153 -1.19071 1.49981 0
M  V30 4786 H 433.458 -3.76457 1.08571 0
M  V30 4787 H 435.155 -3.72871 1.4754 0
M  V30 4788 H 431.745 -3.2285 2.81897 0
M  V30 4789 H 435.929 -3.19351 3.79906 0
M  V30 4790 H 431.185 -3.19578 5.21229 0
M  V30 4791 H 435.359 -3.1726 6.19935 0
M  V30 4792 H 432.986 -3.16915 6.90991 0
M  V30 4793 N 434.561 -1.01147 -1.20859 0
M  V30 4794 C 435.807 -0.708598 -1.90658 0
M  V30 4795 C 436.162 0.753069 -1.7705 0
M  V30 4796 O 435.455 1.53952 -1.14059 0
M  V30 4797 C 435.649 -1.0727 -3.40922 0
M  V30 4798 C 435.478 -2.56821 -3.69152 0
M  V30 4799 C 434.248 -3.23524 -3.8815 0
M  V30 4800 C 436.446 -3.54997 -3.72131 0
M  V30 4801 N 434.428 -4.62359 -4.03853 0
M  V30 4802 C 435.799 -4.79371 -3.93196 0
M  V30 4803 C 437.854 -3.49042 -3.55069 0
M  V30 4804 C 436.557 -5.98512 -3.98969 0
M  V30 4805 C 438.583 -4.67579 -3.6211 0
M  V30 4806 C 437.945 -5.9076 -3.83643 0
M  V30 4807 H 434.044 -0.31088 -0.71755 0
M  V30 4808 H 436.628 -1.29526 -1.45366 0
M  V30 4809 H 434.799 -0.51443 -3.84978 0
M  V30 4810 H 436.531 -0.723891 -3.98173 0
M  V30 4811 H 433.286 -2.73958 -3.86321 0
M  V30 4812 H 433.71 -5.34427 -4.15592 0
M  V30 4813 H 438.352 -2.54808 -3.37391 0
M  V30 4814 H 436.07 -6.93132 -4.15444 0
M  V30 4815 H 439.656 -4.64581 -3.50222 0
M  V30 4816 H 438.536 -6.8095 -3.88944 0
M  V30 4817 N 436.039 1.36541 -0.78704 0
M  V30 4818 C 437.288 1.98552 -0.35494 0
M  V30 4819 C 437.601 1.63171 1.07864 0
M  V30 4820 O 438.807 2.18399 1.61289 0
M  V30 4821 C 437.263 3.55136 -0.583671 0
M  V30 4822 C 436.871 3.99444 -2.02851 0
M  V30 4823 C 438.615 4.2395 -0.215957 0
M  V30 4824 C 436.522 5.48796 -2.20403 0
M  V30 4825 H 435.452 0.742888 -0.128972 0
M  V30 4826 H 438.103 1.5587 -0.968337 0
M  V30 4827 H 436.485 3.95875 0.0994046 0
M  V30 4828 H 437.659 3.6991 -2.74779 0
M  V30 4829 H 435.974 3.43459 -2.35425 0
M  V30 4830 H 438.571 5.33709 -0.325405 0
M  V30 4831 H 438.914 4.07827 0.835646 0
M  V30 4832 H 439.447 3.88565 -0.852175 0
M  V30 4833 H 436.186 5.69864 -3.23937 0
M  V30 4834 H 435.706 5.79964 -1.52977 0
M  V30 4835 H 437.385 6.14986 -2.01002 0
M  V30 4836 N 437.518 0.538854 1.48102 0
M  V30 4837 C 438.466 -0.232325 2.31437 0
M  V30 4838 C 439.46 -0.927004 1.41785 0
M  V30 4839 O 440.666 -0.850378 1.58646 0
M  V30 4840 H 437.041 -0.0937916 0.746128 0
M  V30 4841 H 439.012 0.489986 2.9435 0
M  V30 4842 C 437.761 -1.26074 3.24038 0
M  V30 4843 H 437.084 -0.735609 3.92974 0
M  V30 4844 H 438.524 -1.77157 3.85216 0
M  V30 4845 C 436.983 -2.29902 2.46265 0
M  V30 4846 O 437.513 -3.36502 2.19384 0
M  V30 4847 N 435.719 -2.03348 2.07601 0
M  V30 4848 H 435.266 -1.16675 2.29662 0
M  V30 4849 H 435.224 -2.73038 1.55877 0
M  V30 4850 N 438.996 -1.55193 0.274407 0
M  V30 4851 C 439.943 -2.225 -0.613374 0
M  V30 4852 C 440.913 -1.19823 -1.15029 0
M  V30 4853 O 442.098 -1.48362 -1.19973 0
M  V30 4854 C 439.238 -2.94927 -1.79199 0
M  V30 4855 C 438.351 -4.12322 -1.28899 0
M  V30 4856 C 437.486 -4.72394 -2.42934 0
M  V30 4857 C 436.525 -5.81984 -1.89634 0
M  V30 4858 N 435.662 -6.36123 -2.9714 0
M  V30 4859 H 440.502 -2.97982 -0.032756 0
M  V30 4860 H 438.039 -1.47099 -0.00440146 0
M  V30 4861 H 439.997 -3.35134 -2.48478 0
M  V30 4862 H 438.627 -2.2187 -2.34465 0
M  V30 4863 H 437.679 -3.7724 -0.489327 0
M  V30 4864 H 438.991 -4.91355 -0.858587 0
M  V30 4865 H 438.145 -5.15317 -3.20208 0
M  V30 4866 H 436.884 -3.92636 -2.8929 0
M  V30 4867 H 435.889 -5.38511 -1.1084 0
M  V30 4868 H 437.114 -6.6361 -1.44215 0
M  V30 4869 H 435.06 -5.59259 -3.42878 0
M  V30 4870 H 434.977 -7.10427 -2.58515 0
M  V30 4871 H 436.245 -6.83704 -3.74391 0
M  V30 4872 N 440.474 -0.00167713 -1.576 0
M  V30 4873 C 441.751 0.719951 -1.81868 0
M  V30 4874 C 442.131 1.91895 -0.879747 0
M  V30 4875 O 441.479 2.28389 0.0711423 0
M  V30 4876 C 441.689 1.12409 -3.30402 0
M  V30 4877 C 443.037 1.52724 -3.96182 0
M  V30 4878 O 444.061 1.21784 -3.34734 0
M  V30 4879 O 442.92 2.10265 -5.04431 0
M  V30 4880 H 440.014 0.350707 -0.748955 0
M  V30 4881 H 442.56 -0.0272597 -1.69678 0
M  V30 4882 H 441.332 0.269532 -3.90371 0
M  V30 4883 H 440.955 1.93035 -3.47596 0
M  V30 4884 N 441.952 1.55251 0.271103 0
M  V30 4885 C 442.915 1.87484 1.31842 0
M  V30 4886 C 443.915 0.749545 1.42262 0
M  V30 4887 O 445.105 1.01771 1.4138 0
M  V30 4888 C 442.237 2.0818 2.69951 0
M  V30 4889 H 443.43 2.81108 1.0449 0
M  V30 4890 H 440.983 1.47771 0.509258 0
M  V30 4891 H 441.718 1.16944 3.02481 0
M  V30 4892 H 441.503 2.90114 2.63774 0
M  V30 4893 H 442.993 2.34385 3.4562 0
M  V30 4894 N 443.43 -0.535701 1.48216 0
M  V30 4895 C 444.676 -1.29375 1.56173 0
M  V30 4896 C 445.009 -1.92804 0.232429 0
M  V30 4897 O 444.284 -1.78992 -0.761048 0
M  V30 4898 C 444.567 -2.38747 2.69577 0
M  V30 4899 C 444.42 -1.80046 4.12193 0
M  V30 4900 C 445.739 -3.40551 2.78771 0
M  V30 4901 H 442.858 -0.469027 0.568491 0
M  V30 4902 H 445.5 -0.597358 1.80365 0
M  V30 4903 H 443.65 -2.98147 2.4908 0
M  V30 4904 H 445.322 -1.24742 4.44114 0
M  V30 4905 H 443.565 -1.10609 4.19462 0
M  V30 4906 H 444.236 -2.59212 4.87353 0
M  V30 4907 H 446.712 -2.91099 2.97322 0
M  V30 4908 H 445.588 -4.1448 3.59857 0
M  V30 4909 H 445.849 -4.00746 1.86696 0
M  V30 4910 N 444.908 -1.36708 -0.784132 0
M  V30 4911 C 446.319 -1.27947 -1.35965 0
M  V30 4912 C 446.67 0.0784013 -1.96043 0
M  V30 4913 O 445.795 0.979989 -1.92938 0
M  V30 4914 C 446.39 -2.31689 -2.47195 0
M  V30 4915 C 444.949 -2.26601 -3.00548 0
M  V30 4916 C 444.096 -2.16184 -1.73666 0
M  V30 4917 H 447.047 -1.4751 -0.585358 0
M  V30 4918 H 447.068 -1.95638 -3.26352 0
M  V30 4919 H 446.58 -3.30506 -2.03439 0
M  V30 4920 H 444.681 -1.31268 -3.48711 0
M  V30 4921 H 444.794 -3.19508 -3.57004 0
M  V30 4922 H 443.158 -1.62524 -1.96107 0
M  V30 4923 H 443.941 -3.16896 -1.32031 0
M  V30 4924 N 446.386 1.0089 -1.21074 0
M  V30 4925 C 447.349 2.0775 -0.968129 0
M  V30 4926 C 448.349 1.6069 0.0593445 0
M  V30 4927 O 449.539 1.73293 -0.177525 0
M  V30 4928 C 446.671 3.37794 -0.459108 0
M  V30 4929 H 447.864 2.30707 -1.9161 0
M  V30 4930 H 445.417 1.17807 -1.02719 0
M  V30 4931 H 446.152 3.20516 0.49397 0
M  V30 4932 H 445.937 3.7328 -1.20019 0
M  V30 4933 H 447.427 4.16454 -0.309099 0
M  V30 4934 N 447.864 1.01787 1.20321 0
M  V30 4935 C 449.28 0.732951 1.41774 0
M  V30 4936 C 449.48 -0.686883 1.89431 0
M  V30 4937 O 448.536 -1.45446 2.06402 0
M  V30 4938 C 449.849 1.75973 2.43832 0
M  V30 4939 C 451.397 1.77802 2.57596 0
M  V30 4940 C 451.872 2.7941 3.62897 0
M  V30 4941 N 453.363 2.78157 3.70382 0
M  V30 4942 C 454.098 3.53434 4.51521 0
M  V30 4943 N 453.594 4.38392 5.36455 0
M  V30 4944 N 455.387 3.42026 4.46066 0
M  V30 4945 H 447.538 1.93447 0.877035 0
M  V30 4946 H 449.801 0.835712 0.447536 0
M  V30 4947 H 449.507 2.77699 2.15815 0
M  V30 4948 H 449.381 1.57292 3.4284 0
M  V30 4949 H 451.768 0.767602 2.84942 0
M  V30 4950 H 451.849 2.00557 1.58779 0
M  V30 4951 H 451.493 3.80616 3.36295 0
M  V30 4952 H 451.423 2.53916 4.61339 0
M  V30 4953 H 453.914 2.16531 3.09714 0
M  V30 4954 H 454.227 4.92596 5.95457 0
M  V30 4955 H 452.572 4.4247 5.35953 0
M  V30 4956 H 455.763 2.75075 3.78749 0
M  V30 4957 H 455.936 4.00946 5.09064 0
M  V30 4958 N 449.342 -1.36122 0.79427 0
M  V30 4959 C 450.57 -2.03362 0.380989 0
M  V30 4960 C 450.985 -1.59881 -1.00416 0
M  V30 4961 O 450.342 -0.790515 -1.6449 0
M  V30 4962 C 450.393 -3.58804 0.440649 0
M  V30 4963 O 450.114 -4.007 1.77118 0
M  V30 4964 C 451.615 -4.43296 0.0186117 0
M  V30 4965 H 448.835 -0.652526 0.156367 0
M  V30 4966 H 451.379 -1.73998 1.07447 0
M  V30 4967 H 449.534 -3.8686 -0.204458 0
M  V30 4968 H 449.948 -4.95309 1.72538 0
M  V30 4969 H 451.422 -5.51887 0.111488 0
M  V30 4970 H 451.899 -4.2684 -1.03461 0
M  V30 4971 H 452.505 -4.20512 0.636395 0
M  V30 4972 N 450.82 -0.546701 -1.47814 0
M  V30 4973 C 452.045 -0.021268 -2.07389 0
M  V30 4974 C 452.47 1.25822 -1.39822 0
M  V30 4975 O 451.828 1.75111 -0.46968 0
M  V30 4976 C 451.876 0.168502 -3.60206 0
M  V30 4977 O 450.98 1.23347 -3.93522 0
M  V30 4978 H 450.321 -0.0466108 -0.662362 0
M  V30 4979 H 452.851 -0.759387 -1.89985 0
M  V30 4980 H 452.861 0.385982 -4.0617 0
M  V30 4981 H 451.536 -0.766075 -4.08784 0
M  V30 4982 H 450.113 0.997319 -3.59316 0
M  V30 4983 N 452.299 1.55045 -0.282633 0
M  V30 4984 C 453.229 2.2579 0.595066 0
M  V30 4985 C 454.21 1.25074 1.15284 0
M  V30 4986 O 455.395 1.5381 1.18559 0
M  V30 4987 C 452.525 2.98472 1.77572 0
M  V30 4988 C 451.479 4.0618 1.34914 0
M  V30 4989 C 450.805 4.66477 2.6135 0
M  V30 4990 C 452.105 5.1996 0.493821 0
M  V30 4991 H 453.799 2.994 0.00505653 0
M  V30 4992 H 451.345 1.44 0.000992001 0
M  V30 4993 H 453.298 3.46677 2.39568 0
M  V30 4994 H 452.022 2.2241 2.39168 0
M  V30 4995 H 450.681 3.58797 0.752338 0
M  V30 4996 H 450.329 3.87074 3.2122 0
M  V30 4997 H 450.029 5.39207 2.33516 0
M  V30 4998 H 451.553 5.17435 3.24181 0
M  V30 4999 H 452.967 5.64172 1.01898 0
M  V30 5000 H 451.364 5.99299 0.310047 0
M  V30 5001 H 452.434 4.82462 -0.485593 0
M  V30 5002 N 453.777 0.010035 1.57597 0
M  V30 5003 C 455.025 -0.671371 1.90623 0
M  V30 5004 C 455.346 -1.73753 0.885151 0
M  V30 5005 O 454.616 -1.95752 -0.0760611 0
M  V30 5006 H 453.196 -0.250968 0.703579 0
M  V30 5007 H 455.858 0.0533325 1.94827 0
M  V30 5008 H 454.954 -1.13626 2.90681 0
M  V30 5009 N 455.255 -1.55392 -0.262866 0
M  V30 5010 C 456.504 -1.75679 -0.990943 0
M  V30 5011 C 456.817 -0.57097 -1.87081 0
M  V30 5012 O 458.023 -0.656486 -2.63444 0
M  V30 5013 C 456.479 -3.10964 -1.81188 0
M  V30 5014 C 456.087 -4.37146 -0.980188 0
M  V30 5015 C 457.831 -3.40597 -2.53365 0
M  V30 5016 C 455.738 -5.63466 -1.7961 0
M  V30 5017 H 454.668 -0.654868 -0.373716 0
M  V30 5018 H 457.319 -1.81841 -0.246203 0
M  V30 5019 H 455.701 -2.98867 -2.59797 0
M  V30 5020 H 456.875 -4.60187 -0.237558 0
M  V30 5021 H 455.19 -4.14731 -0.372497 0
M  V30 5022 H 457.787 -4.32186 -3.14833 0
M  V30 5023 H 458.13 -2.6119 -3.24169 0
M  V30 5024 H 458.663 -3.53838 -1.81779 0
M  V30 5025 H 455.402 -6.4565 -1.13209 0
M  V30 5026 H 454.922 -5.44552 -2.51443 0
M  V30 5027 H 456.601 -6.02139 -2.36723 0
M  V30 5028 N 456.733 0.527833 -1.48498 0
M  V30 5029 C 457.961 1.30823 -1.6029 0
M  V30 5030 C 458.376 1.86945 -0.263974 0
M  V30 5031 O 457.733 1.6651 0.747034 0
M  V30 5032 C 457.784 2.45756 -2.65116 0
M  V30 5033 O 457.505 1.91946 -3.93813 0
M  V30 5034 C 459.006 3.37543 -2.87367 0
M  V30 5035 H 456.226 0.397763 -0.540394 0
M  V30 5036 H 458.77 0.636529 -1.94341 0
M  V30 5037 H 456.925 3.08806 -2.33917 0
M  V30 5038 H 457.339 2.67195 -4.51339 0
M  V30 5039 H 458.813 4.14532 -3.6451 0
M  V30 5040 H 459.29 3.92905 -1.9627 0
M  V30 5041 H 459.896 2.80283 -3.19878 0
M  V30 5042 N 458.211 1.37122 0.776871 0
M  V30 5043 C 459.439 1.3523 1.5659 0
M  V30 5044 C 459.854 -0.0635518 1.88693 0
M  V30 5045 O 459.211 -1.02394 1.51069 0
M  V30 5046 C 459.262 2.18583 2.8793 0
M  V30 5047 O 458.983 3.5465 2.57206 0
M  V30 5048 C 460.484 2.24612 3.82183 0
M  V30 5049 H 457.704 0.4634 0.485285 0
M  V30 5050 H 460.248 1.80392 0.963266 0
M  V30 5051 H 458.403 1.76943 3.4463 0
M  V30 5052 H 458.817 3.98286 3.41275 0
M  V30 5053 H 460.291 2.87267 4.71361 0
M  V30 5054 H 460.768 1.25309 4.20944 0
M  V30 5055 H 461.374 2.66543 3.31414 0
M  V30 5056 N 459.689 -1.00246 1.21608 0
M  V30 5057 C 460.935 -1.74319 1.03638 0
M  V30 5058 C 461.268 -1.89408 -0.428749 0
M  V30 5059 O 460.543 -1.43026 -1.3181 0
M  V30 5060 C 460.826 -3.15431 1.73711 0
M  V30 5061 C 460.679 -3.08049 3.27759 0
M  V30 5062 C 461.998 -4.14407 1.48173 0
M  V30 5063 H 459.117 -0.632741 0.377899 0
M  V30 5064 H 461.759 -1.16853 1.49818 0
M  V30 5065 H 459.909 -3.64493 1.34452 0
M  V30 5066 H 461.581 -2.66681 3.76403 0
M  V30 5067 H 459.824 -2.45088 3.57931 0
M  V30 5068 H 460.495 -4.07862 3.71958 0
M  V30 5069 H 462.971 -3.74061 1.82258 0
M  V30 5070 H 461.847 -5.11279 1.99713 0
M  V30 5071 H 462.108 -4.40174 0.412273 0
M  V30 5072 N 461.167 -1.02423 -1.1978 0
M  V30 5073 C 462.097 -0.62157 -2.25075 0
M  V30 5074 C 463.078 0.367148 -1.6609 0
M  V30 5075 O 464.263 0.250892 -1.92573 0
M  V30 5076 C 461.393 0.0331826 -3.47284 0
M  V30 5077 C 460.347 -0.877323 -4.18912 0
M  V30 5078 C 459.673 -0.0879296 -5.34628 0
M  V30 5079 C 460.973 -2.18892 -4.74219 0
M  V30 5080 H 462.667 -1.50179 -2.59011 0
M  V30 5081 H 460.213 -0.723547 -1.24502 0
M  V30 5082 H 462.166 0.326488 -4.20133 0
M  V30 5083 H 460.89 0.948164 -3.12534 0
M  V30 5084 H 459.549 -1.15475 -3.47938 0
M  V30 5085 H 459.197 0.828941 -4.96123 0
M  V30 5086 H 458.897 -0.694359 -5.83483 0
M  V30 5087 H 460.421 0.198743 -6.10276 0
M  V30 5088 H 461.835 -1.95746 -5.38847 0
M  V30 5089 H 460.232 -2.74686 -5.33542 0
M  V30 5090 H 461.302 -2.84674 -3.92541 0
M  V30 5091 N 462.645 1.35699 -0.801477 0
M  V30 5092 C 463.873 2.03157 -0.391768 0
M  V30 5093 C 464.288 1.60412 0.995668 0
M  V30 5094 O 463.645 0.799228 1.64069 0
M  V30 5095 C 463.696 3.58566 -0.459671 0
M  V30 5096 O 463.417 3.99756 -1.7924 0
M  V30 5097 C 464.918 4.4328 -0.0421205 0
M  V30 5098 H 462.138 0.651688 -0.159825 0
M  V30 5099 H 464.682 1.73426 -1.08368 0
M  V30 5100 H 462.837 3.86963 0.183939 0
M  V30 5101 H 463.251 4.94387 -1.75162 0
M  V30 5102 H 464.725 5.51821 -0.140754 0
M  V30 5103 H 465.202 4.27383 1.01196 0
M  V30 5104 H 465.808 4.20168 -0.658687 0
M  V30 5105 N 464.123 0.554532 1.47522 0
M  V30 5106 C 465.056 -0.242442 2.26908 0
M  V30 5107 C 466.034 -0.922722 1.33883 0
M  V30 5108 O 467.218 -0.942244 1.63261 0
M  V30 5109 C 464.345 -1.34525 3.10839 0
M  V30 5110 C 463.391 -0.773805 4.19422 0
M  V30 5111 S 464.224 0.377525 5.34168 0
M  V30 5112 C 465.38 -0.727164 6.21662 0
M  V30 5113 H 465.613 0.431218 2.94156 0
M  V30 5114 H 463.146 0.3408 1.50592 0
M  V30 5115 H 465.104 -1.97683 3.59766 0
M  V30 5116 H 463.765 -1.99073 2.42958 0
M  V30 5117 H 462.958 -1.60187 4.77866 0
M  V30 5118 H 462.56 -0.218448 3.73361 0
M  V30 5119 H 464.852 -1.61992 6.57849 0
M  V30 5120 H 465.795 -0.180135 7.07871 0
M  V30 5121 H 466.203 -1.01863 5.55233 0
M  V30 5122 N 465.601 -1.54893 0.290851 0
M  V30 5123 C 466.829 -2.04343 -0.324288 0
M  V30 5124 C 467.244 -1.16859 -1.48289 0
M  V30 5125 O 466.601 -0.192018 -1.81487 0
M  V30 5126 C 466.652 -3.52756 -0.79026 0
M  V30 5127 O 466.373 -4.36913 0.322213 0
M  V30 5128 C 467.874 -4.18161 -1.4716 0
M  V30 5129 H 465.094 -0.667135 -0.0719173 0
M  V30 5130 H 467.638 -1.99981 0.427529 0
M  V30 5131 H 465.793 -3.57511 -1.49213 0
M  V30 5132 H 466.207 -5.24486 -0.0387372 0
M  V30 5133 H 467.681 -5.23562 -1.7489 0
M  V30 5134 H 468.158 -3.67282 -2.40834 0
M  V30 5135 H 468.764 -4.17454 -0.813178 0
M  V30 5136 N 467.08 -0.0183926 -1.57589 0
M  V30 5137 C 468.308 0.673046 -1.95647 0
M  V30 5138 C 468.723 1.66275 -0.894312 0
M  V30 5139 O 468.08 1.82072 0.124975 0
M  V30 5140 C 468.131 1.38884 -3.33756 0
M  V30 5141 O 467.852 0.438806 -4.35897 0
M  V30 5142 C 469.353 2.1731 -3.86383 0
M  V30 5143 H 466.573 0.186292 -0.644621 0
M  V30 5144 H 469.117 -0.0749748 -2.04363 0
M  V30 5145 H 467.272 2.08835 -3.26293 0
M  V30 5146 H 467.686 0.945869 -5.15901 0
M  V30 5147 H 469.16 2.62863 -4.85394 0
M  V30 5148 H 469.637 3.00764 -3.20059 0
M  V30 5149 H 470.243 1.52339 -3.97081 0
M  V30 5150 N 468.558 1.5553 0.254621 0
M  V30 5151 C 469.488 1.9268 1.31897 0
M  V30 5152 C 470.469 0.790797 1.506 0
M  V30 5153 O 471.654 1.05045 1.63337 0
M  V30 5154 C 468.784 2.21477 2.67517 0
M  V30 5155 C 467.738 3.37256 2.63519 0
M  V30 5156 C 467.064 3.51576 4.02862 0
M  V30 5157 C 468.364 4.73157 2.21179 0
M  V30 5158 H 470.058 2.81832 1.01051 0
M  V30 5159 H 467.604 1.35599 0.484662 0
M  V30 5160 H 469.557 2.46055 3.42104 0
M  V30 5161 H 468.281 1.29144 2.99982 0
M  V30 5162 H 466.94 3.12675 1.9139 0
M  V30 5163 H 466.588 2.56676 4.32581 0
M  V30 5164 H 466.288 4.2943 4.01078 0
M  V30 5165 H 467.812 3.78467 4.79161 0
M  V30 5166 H 469.226 4.97158 2.85494 0
M  V30 5167 H 467.623 5.54058 2.30521 0
M  V30 5168 H 468.693 4.70739 1.16332 0
M  V30 5169 N 470.036 -0.519951 1.48776 0
M  V30 5170 C 471.261 -1.30447 1.6124 0
M  V30 5171 C 471.686 -1.86055 0.276591 0
M  V30 5172 O 471.044 -1.64915 -0.753183 0
M  V30 5173 C 471.092 -2.42406 2.66967 0
M  V30 5174 O 470.196 -3.45728 2.24824 0
M  V30 5175 H 469.537 -0.385924 0.540332 0
M  V30 5176 H 472.067 -0.624572 1.94834 0
M  V30 5177 H 472.077 -2.88447 2.88552 0
M  V30 5178 H 470.752 -2.01294 3.63941 0
M  V30 5179 H 469.329 -3.05737 2.13494 0
M  V30 5180 N 471.514 -1.37532 -0.769588 0
M  V30 5181 C 472.742 -1.36059 -1.55871 0
M  V30 5182 C 473.157 0.053544 -1.88724 0
M  V30 5183 O 472.514 1.01591 -1.5161 0
M  V30 5184 C 472.565 -2.20107 -2.86767 0
M  V30 5185 O 472.286 -3.56009 -2.55321 0
M  V30 5186 C 473.787 -2.26636 -3.80987 0
M  V30 5187 H 471.007 -0.465967 -0.482821 0
M  V30 5188 H 473.551 -1.80901 -0.953686 0
M  V30 5189 H 471.706 -1.78768 -3.43687 0
M  V30 5190 H 472.12 -4.0009 -3.39158 0
M  V30 5191 H 473.594 -2.89763 -4.69831 0
M  V30 5192 H 474.071 -1.2754 -4.20274 0
M  V30 5193 H 474.677 -2.68296 -3.29996 0
M  V30 5194 N 472.992 0.995999 -1.22138 0
M  V30 5195 C 474.241 1.72928 -1.03821 0
M  V30 5196 C 474.554 1.90872 0.427444 0
M  V30 5197 O 475.76 2.61496 0.730212 0
M  V30 5198 C 474.216 3.11124 -1.80913 0
M  V30 5199 C 473.824 3.01122 -3.31707 0
M  V30 5200 C 475.568 3.8852 -1.71035 0
M  V30 5201 C 473.475 4.34453 -4.01253 0
M  V30 5202 H 472.405 0.648376 -0.384869 0
M  V30 5203 H 475.056 1.11213 -1.45959 0
M  V30 5204 H 473.438 3.73503 -1.31573 0
M  V30 5205 H 474.612 2.47926 -3.88419 0
M  V30 5206 H 472.927 2.3721 -3.42228 0
M  V30 5207 H 475.524 4.872 -2.20318 0
M  V30 5208 H 475.867 4.1087 -0.670196 0
M  V30 5209 H 476.4 3.32812 -2.17902 0
M  V30 5210 H 473.139 4.17303 -5.05508 0
M  V30 5211 H 472.659 4.87574 -3.49331 0
M  V30 5212 H 474.338 5.03215 -4.06674 0
M  V30 5213 N 474.47 1.03057 1.19235 0
M  V30 5214 C 475.433 0.617418 2.20727 0
M  V30 5215 C 476.433 -0.319856 1.57587 0
M  V30 5216 O 477.623 -0.106633 1.73873 0
M  V30 5217 C 474.755 -0.096296 3.40764 0
M  V30 5218 H 475.948 1.51544 2.58794 0
M  V30 5219 H 473.501 0.821949 1.32942 0
M  V30 5220 H 474.236 -1.00859 3.08217 0
M  V30 5221 H 474.021 0.577217 3.87828 0
M  V30 5222 H 475.511 -0.372219 4.15938 0
M  V30 5223 N 475.948 -1.35272 0.808662 0
M  V30 5224 C 477.364 -1.51806 0.492653 0
M  V30 5225 C 477.564 -1.7574 -0.985778 0
M  V30 5226 O 476.62 -1.80003 -1.77074 0
M  V30 5227 C 477.933 -2.69202 1.33981 0
M  V30 5228 C 479.481 -2.8308 1.33547 0
M  V30 5229 C 479.956 -4.03502 2.16679 0
M  V30 5230 N 481.447 -4.10684 2.14227 0
M  V30 5231 C 482.182 -5.02984 2.75308 0
M  V30 5232 N 481.678 -6.00603 3.45323 0
M  V30 5233 N 483.471 -4.95746 2.64938 0
M  V30 5234 H 475.622 -1.17993 1.76611 0
M  V30 5235 H 477.885 -0.577476 0.751814 0
M  V30 5236 H 477.591 -2.581 2.38909 0
M  V30 5237 H 477.465 -3.63854 0.994491 0
M  V30 5238 H 479.852 -2.93631 0.294036 0
M  V30 5239 H 479.933 -1.89278 1.72068 0
M  V30 5240 H 479.577 -3.93711 3.20864 0
M  V30 5241 H 479.507 -4.96489 1.75517 0
M  V30 5242 H 481.998 -3.40802 1.63285 0
M  V30 5243 H 482.311 -6.67633 3.89212 0
M  V30 5244 H 480.656 -6.0077 3.49428 0
M  V30 5245 H 483.847 -4.18439 2.09825 0
M  V30 5246 H 484.02 -5.67487 3.12829 0
M  V30 5247 N 477.426 -0.562348 -1.47226 0
M  V30 5248 C 478.373 0.182461 -2.30078 0
M  V30 5249 C 479.343 0.903503 -1.39377 0
M  V30 5250 O 480.528 0.898188 -1.68337 0
M  V30 5251 C 477.668 1.20322 -3.23445 0
M  V30 5252 C 476.781 0.487717 -4.29238 0
M  V30 5253 C 475.916 1.49422 -5.09752 0
M  V30 5254 C 474.955 0.763976 -6.07314 0
M  V30 5255 N 474.092 1.71755 -6.80768 0
M  V30 5256 H 478.932 -0.530169 -2.93246 0
M  V30 5257 H 476.469 -0.273276 -1.44539 0
M  V30 5258 H 478.427 1.80768 -3.76004 0
M  V30 5259 H 477.057 1.88382 -2.6213 0
M  V30 5260 H 476.109 -0.231374 -3.79696 0
M  V30 5261 H 477.421 -0.0841003 -4.98729 0
M  V30 5262 H 476.575 2.17206 -5.66486 0
M  V30 5263 H 475.314 2.09995 -4.40174 0
M  V30 5264 H 474.319 0.0722344 -5.49753 0
M  V30 5265 H 475.544 0.16391 -6.78902 0
M  V30 5266 H 473.49 2.31177 -6.13916 0
M  V30 5267 H 473.407 1.19802 -7.46447 0
M  V30 5268 H 474.675 2.38638 -7.42073 0
M  V30 5269 N 478.904 1.54736 -0.299062 0
M  V30 5270 C 480.129 2.04975 0.316254 0
M  V30 5271 C 480.554 1.17501 1.46885 0
M  V30 5272 O 479.912 0.178678 1.80417 0
M  V30 5273 C 479.96 3.52672 0.751997 0
M  V30 5274 O 479.064 3.68226 1.85697 0
M  V30 5275 H 478.405 0.661126 0.0617175 0
M  V30 5276 H 480.935 1.99805 -0.440341 0
M  V30 5277 H 480.945 3.94488 1.04133 0
M  V30 5278 H 479.62 4.158 -0.0911482 0
M  V30 5279 H 478.197 3.38316 1.56834 0
M  V30 5280 N 480.382 0.0267497 1.57577 0
M  V30 5281 C 481.312 -0.954308 2.13108 0
M  V30 5282 C 482.293 -1.34088 1.04663 0
M  V30 5283 O 483.478 -1.41992 1.32484 0
M  V30 5284 C 480.608 -2.23744 2.65624 0
M  V30 5285 C 479.562 -1.99168 3.78835 0
M  V30 5286 C 478.888 -3.33726 4.17769 0
M  V30 5287 C 480.188 -1.33277 5.0501 0
M  V30 5288 H 481.882 -0.491848 2.95332 0
M  V30 5289 H 479.428 -0.23514 1.42067 0
M  V30 5290 H 481.381 -2.92754 3.03106 0
M  V30 5291 H 480.105 -2.72151 1.80558 0
M  V30 5292 H 478.764 -1.32577 3.41788 0
M  V30 5293 H 478.412 -3.79888 3.29688 0
M  V30 5294 H 478.112 -3.18089 4.94058 0
M  V30 5295 H 479.636 -4.04008 4.57832 0
M  V30 5296 H 481.05 -1.92283 5.40093 0
M  V30 5297 H 479.447 -1.28045 5.8628 0
M  V30 5298 H 480.517 -0.305411 4.83937 0
M  V30 5299 N 481.861 -1.55662 -0.24637 0
M  V30 5300 C 483.272 -1.67953 -0.81539 0
M  V30 5301 C 483.623 -0.624302 -1.86002 0
M  V30 5302 O 482.748 0.229328 -2.15181 0
M  V30 5303 C 483.343 -3.04484 -1.48576 0
M  V30 5304 C 481.902 -3.18713 -2.00248 0
M  V30 5305 C 481.049 -2.6383 -0.853766 0
M  V30 5306 H 484 -1.58685 -0.0221692 0
M  V30 5307 H 484.021 -2.98959 -2.3538 0
M  V30 5308 H 483.533 -3.81264 -0.725222 0
M  V30 5309 H 481.634 -2.46757 -2.79181 0
M  V30 5310 H 481.747 -4.25628 -2.1995 0
M  V30 5311 H 480.111 -2.21667 -1.25442 0
M  V30 5312 H 480.894 -3.43135 -0.106302 0
M  V30 5313 N 483.339 0.512053 -1.4905 0
M  V30 5314 C 484.286 1.6148 -1.64902 0
M  V30 5315 C 485.256 1.58687 -0.490673 0
M  V30 5316 O 486.441 1.76842 -0.71636 0
M  V30 5317 C 483.581 2.99676 -1.71139 0
M  V30 5318 C 482.694 3.12568 -2.98203 0
M  V30 5319 C 481.829 4.4143 -2.95487 0
M  V30 5320 C 480.868 4.47916 -4.17179 0
M  V30 5321 N 480.005 5.68191 -4.12437 0
M  V30 5322 H 484.845 1.47271 -2.59066 0
M  V30 5323 H 482.382 0.716713 -1.28459 0
M  V30 5324 H 484.34 3.79761 -1.72736 0
M  V30 5325 H 482.97 3.12614 -0.804508 0
M  V30 5326 H 482.022 2.25618 -3.06269 0
M  V30 5327 H 483.334 3.1322 -3.88194 0
M  V30 5328 H 482.488 5.29825 -2.95585 0
M  V30 5329 H 481.227 4.43326 -2.03256 0
M  V30 5330 H 480.232 3.57925 -4.17337 0
M  V30 5331 H 481.457 4.47744 -5.1059 0
M  V30 5332 H 479.403 5.7095 -3.23036 0
M  V30 5333 H 479.32 5.70413 -4.96151 0
M  V30 5334 H 480.588 6.58823 -4.16621 0
M  V30 5335 N 484.817 1.37938 0.762283 0
M  V30 5336 C 486.063 1.33866 1.52341 0
M  V30 5337 C 486.396 -0.0738961 1.94059 0
M  V30 5338 O 485.671 -1.03326 1.64785 0
M  V30 5339 C 485.954 2.28644 2.78197 0
M  V30 5340 C 485.807 3.78722 2.42672 0
M  V30 5341 C 487.126 2.21702 3.80179 0
M  V30 5342 H 484.245 0.487593 0.55265 0
M  V30 5343 H 486.887 1.68717 0.873767 0
M  V30 5344 H 485.037 1.99055 3.33631 0
M  V30 5345 H 486.709 4.18948 1.93081 0
M  V30 5346 H 484.952 3.96827 1.75244 0
M  V30 5347 H 485.623 4.40486 3.3268 0
M  V30 5348 H 488.099 2.47805 3.34263 0
M  V30 5349 H 486.975 2.90143 4.65949 0
M  V30 5350 H 487.236 1.21301 4.25133 0
M  V30 5351 N 486.295 -0.989507 1.22664 0
M  V30 5352 C 487.52 -1.77031 1.08051 0
M  V30 5353 C 487.945 -1.84535 -0.364483 0
M  V30 5354 O 487.303 -1.3003 -1.2634 0
M  V30 5355 C 487.351 -3.18 1.70024 0
M  V30 5356 O 486.455 -4.01161 0.956216 0
M  V30 5357 H 485.796 -0.545008 0.379292 0
M  V30 5358 H 488.326 -1.24277 1.62531 0
M  V30 5359 H 488.336 -3.68616 1.74888 0
M  V30 5360 H 487.011 -3.11853 2.75174 0
M  V30 5361 H 485.588 -3.59687 0.98384 0
M  V30 5362 N 487.773 -1.03688 -1.18687 0
M  V30 5363 C 489.003 -0.756819 -1.92239 0
M  V30 5364 C 489.411 0.689374 -1.76194 0
M  V30 5365 O 488.754 1.48126 -1.08648 0
M  V30 5366 C 488.816 -1.03851 -3.44173 0
M  V30 5367 C 488.48 -2.47785 -3.83994 0
M  V30 5368 C 489.477 -3.4595 -3.88091 0
M  V30 5369 C 487.162 -2.82397 -4.154 0
M  V30 5370 C 489.156 -4.76779 -4.23038 0
M  V30 5371 C 486.843 -4.13433 -4.50018 0
M  V30 5372 C 487.841 -5.10434 -4.53813 0
M  V30 5373 O 487.529 -6.39122 -4.87625 0
M  V30 5374 H 487.261 -0.275678 -0.617234 0
M  V30 5375 H 489.815 -1.38658 -1.51536 0
M  V30 5376 H 488.045 -0.351612 -3.85098 0
M  V30 5377 H 489.734 -0.746846 -3.9897 0
M  V30 5378 H 490.5 -3.20549 -3.63969 0
M  V30 5379 H 486.379 -2.07568 -4.11627 0
M  V30 5380 H 489.923 -5.52488 -4.25914 0
M  V30 5381 H 485.82 -4.38604 -4.736 0
M  V30 5382 H 486.588 -6.43715 -5.05542 0
M  V30 5383 N 489.251 1.34841 -0.815825 0
M  V30 5384 C 490.497 1.98793 -0.401129 0
M  V30 5385 C 490.83 1.64548 1.03139 0
M  V30 5386 O 490.105 0.913487 1.71714 0
M  V30 5387 C 490.388 3.55143 -0.595409 0
M  V30 5388 C 490.241 3.99155 -2.07352 0
M  V30 5389 C 491.56 4.40092 -0.0268823 0
M  V30 5390 H 488.679 0.722146 -0.14722 0
M  V30 5391 H 491.321 1.59847 -1.02707 0
M  V30 5392 H 489.471 3.8845 -0.0625779 0
M  V30 5393 H 491.143 3.76216 -2.66945 0
M  V30 5394 H 489.386 3.49726 -2.56659 0
M  V30 5395 H 490.057 5.07971 -2.1603 0
M  V30 5396 H 492.533 4.13298 -0.482042 0
M  V30 5397 H 491.409 5.48562 -0.19267 0
M  V30 5398 H 491.67 4.29016 1.06759 0
M  V30 5399 N 490.729 0.570148 1.46925 0
M  V30 5400 C 491.957 0.0561966 2.06824 0
M  V30 5401 C 492.372 -1.24326 1.42086 0
M  V30 5402 O 491.729 -1.74882 0.521794 0
M  V30 5403 C 491.78 -0.129517 3.61268 0
M  V30 5404 O 491.501 1.1185 4.23581 0
M  V30 5405 C 493.002 -0.679266 4.38065 0
M  V30 5406 H 490.222 0.0517261 0.669003 0
M  V30 5407 H 492.766 0.787243 1.8874 0
M  V30 5408 H 490.921 -0.810739 3.78822 0
M  V30 5409 H 491.335 0.924375 5.1629 0
M  V30 5410 H 492.809 -0.758445 5.46765 0
M  V30 5411 H 493.286 -1.69346 4.05239 0
M  V30 5412 H 493.892 -0.0333237 4.25287 0
M  V30 5413 N 492.207 -1.54576 0.307264 0
M  V30 5414 C 493.17 -2.22423 -0.553224 0
M  V30 5415 C 494.17 -1.21231 -1.05639 0
M  V30 5416 O 495.36 -1.45923 -0.951419 0
M  V30 5417 C 492.492 -2.91552 -1.76664 0
M  V30 5418 H 493.685 -2.99874 0.0396484 0
M  V30 5419 H 491.238 -1.56192 0.0581629 0
M  V30 5420 H 491.973 -2.18196 -2.39918 0
M  V30 5421 H 491.758 -3.65738 -1.41343 0
M  V30 5422 H 493.248 -3.43292 -2.37783 0
M  V30 5423 N 493.685 -0.035106 -1.57561 0
M  V30 5424 C 494.618 0.979673 -2.06101 0
M  V30 5425 C 495.596 1.31378 -0.958046 0
M  V30 5426 O 496.78 1.42942 -1.22881 0
M  V30 5427 C 493.907 2.29809 -2.48808 0
M  V30 5428 C 492.953 2.11817 -3.70184 0
M  V30 5429 S 493.786 1.41143 -5.16565 0
M  V30 5430 C 494.942 2.74341 -5.62572 0
M  V30 5431 H 495.175 0.566506 -2.91853 0
M  V30 5432 H 492.708 0.176744 -1.53385 0
M  V30 5433 H 494.666 3.056 -2.74078 0
M  V30 5434 H 493.327 2.68257 -1.63392 0
M  V30 5435 H 492.52 3.09299 -3.97933 0
M  V30 5436 H 492.122 1.44168 -3.45097 0
M  V30 5437 H 494.414 3.70562 -5.67177 0
M  V30 5438 H 495.357 2.51249 -6.62027 0
M  V30 5439 H 495.765 2.79863 -4.90242 0
M  V30 5440 N 495.163 1.55791 0.238111 0
M  V30 5441 C 496.44 1.68798 0.98826 0
M  V30 5442 C 496.82 0.577562 2.03045 0
M  V30 5443 O 496.168 -0.41778 2.24648 0
M  V30 5444 C 496.378 3.09454 1.61367 0
M  V30 5445 C 497.726 3.68335 2.11221 0
M  V30 5446 O 498.75 3.1231 1.71292 0
M  V30 5447 O 497.609 4.6657 2.84561 0
M  V30 5448 H 494.703 0.686881 0.460568 0
M  V30 5449 H 497.249 1.68118 0.231202 0
M  V30 5450 H 496.021 3.81726 0.860295 0
M  V30 5451 H 495.644 3.14182 2.4367 0
M  V30 5452 N 496.642 -0.504142 1.49319 0
M  V30 5453 C 497.572 -1.61473 1.68667 0
M  V30 5454 C 498.553 -1.61455 0.535378 0
M  V30 5455 O 499.738 -1.78245 0.770868 0
M  V30 5456 C 496.868 -2.99971 1.75028 0
M  V30 5457 C 495.822 -3.14854 2.89916 0
M  V30 5458 C 495.148 -4.54671 2.81387 0
M  V30 5459 C 496.448 -2.95176 4.30893 0
M  V30 5460 H 498.142 -1.45535 2.61648 0
M  V30 5461 H 495.688 -0.698711 1.25913 0
M  V30 5462 H 497.641 -3.77562 1.8715 0
M  V30 5463 H 496.365 -3.1699 0.786441 0
M  V30 5464 H 495.024 -2.39687 2.77391 0
M  V30 5465 H 494.672 -4.68562 1.82917 0
M  V30 5466 H 494.372 -4.6557 3.58494 0
M  V30 5467 H 495.896 -5.34327 2.95512 0
M  V30 5468 H 497.31 -3.62538 4.44116 0
M  V30 5469 H 495.707 -3.17549 5.09198 0
M  V30 5470 H 496.777 -1.91332 4.45556 0
M  V30 5471 N 498.12 -1.38341 -0.754957 0
M  V30 5472 C 499.367 -1.34473 -1.51404 0
M  V30 5473 C 499.695 0.0656458 -1.94389 0
M  V30 5474 O 498.95 1.04244 -1.65625 0
M  V30 5475 C 499.249 -2.2452 -2.78075 0
M  V30 5476 C 498.915 -3.72512 -2.54059 0
M  V30 5477 C 497.577 -4.1284 -2.47218 0
M  V30 5478 C 499.929 -4.66197 -2.33044 0
M  V30 5479 C 497.257 -5.44945 -2.17376 0
M  V30 5480 C 499.609 -5.98558 -2.04723 0
M  V30 5481 C 498.273 -6.37972 -1.96337 0
M  V30 5482 H 497.543 -0.492072 -0.554027 0
M  V30 5483 H 500.19 -1.70687 -0.868223 0
M  V30 5484 H 498.495 -1.81357 -3.473 0
M  V30 5485 H 500.192 -2.18832 -3.36026 0
M  V30 5486 H 496.782 -3.40538 -2.60253 0
M  V30 5487 H 500.966 -4.35888 -2.37309 0
M  V30 5488 H 496.222 -5.74426 -2.09391 0
M  V30 5489 H 500.396 -6.70693 -1.87465 0
M  V30 5490 H 498.023 -7.40258 -1.72978 0
M  V30 5491 N 499.598 0.982988 -1.23187 0
M  V30 5492 C 500.844 1.72648 -1.06398 0
M  V30 5493 C 501.177 1.90066 0.398561 0
M  V30 5494 O 500.452 1.45105 1.29518 0
M  V30 5495 C 500.735 3.12627 -1.78707 0
M  V30 5496 C 500.588 3.02795 -3.32618 0
M  V30 5497 C 501.907 4.11997 -1.54747 0
M  V30 5498 H 499.026 0.626649 -0.387918 0
M  V30 5499 H 501.668 1.14455 -1.51658 0
M  V30 5500 H 499.818 3.62308 -1.40234 0
M  V30 5501 H 501.49 2.60659 -3.80598 0
M  V30 5502 H 499.733 2.39362 -3.61785 0
M  V30 5503 H 500.404 4.01893 -3.78399 0
M  V30 5504 H 502.88 3.71114 -1.88186 0
M  V30 5505 H 501.756 5.08037 -2.07821 0
M  V30 5506 H 502.017 4.39462 -0.482249 0
M  V30 5507 N 501.076 1.04316 1.18135 0
M  V30 5508 C 502.301 0.768047 1.92655 0
M  V30 5509 C 502.726 -0.66904 1.758 0
M  V30 5510 O 502.084 -1.46372 1.06981 0
M  V30 5511 C 502.132 1.14239 3.42026 0
M  V30 5512 O 501.236 0.269333 4.1152 0
M  V30 5513 H 500.577 0.282436 0.600937 0
M  V30 5514 H 503.107 1.39367 1.49793 0
M  V30 5515 H 503.117 1.10538 3.92741 0
M  V30 5516 H 501.792 2.18928 3.53615 0
M  V30 5517 H 500.369 0.366175 3.71098 0
M  V30 5518 N 502.554 -1.34406 0.822964 0
M  V30 5519 C 503.8 -1.98578 0.411666 0
M  V30 5520 C 504.133 -1.65093 -1.02264 0
M  V30 5521 O 503.408 -0.92258 -1.71227 0
M  V30 5522 C 503.691 -3.54823 0.614235 0
M  V30 5523 C 503.544 -3.9805 2.09466 0
M  V30 5524 C 504.863 -4.40071 0.050221 0
M  V30 5525 H 501.982 -0.721355 0.151047 0
M  V30 5526 H 504.624 -1.59301 1.03554 0
M  V30 5527 H 502.774 -3.88411 0.0831774 0
M  V30 5528 H 504.446 -3.74795 2.68936 0
M  V30 5529 H 502.689 -3.4836 2.5851 0
M  V30 5530 H 503.36 -5.06819 2.18721 0
M  V30 5531 H 505.836 -4.13037 0.503953 0
M  V30 5532 H 504.712 -5.48452 0.221759 0
M  V30 5533 H 504.973 -4.29576 -1.04482 0
M  V30 5534 N 504.032 -0.577932 -1.46621 0
M  V30 5535 C 505.272 -0.0643097 -2.04299 0
M  V30 5536 C 505.636 1.26967 -1.44026 0
M  V30 5537 O 506.837 1.87224 -1.92875 0
M  V30 5538 C 505.108 0.00547588 -3.574 0
M  V30 5539 S 506.667 0.462216 -4.36359 0
M  V30 5540 H 503.485 -0.0351573 -0.71013 0
M  V30 5541 H 506.087 -0.76935 -1.79725 0
M  V30 5542 H 504.791 -0.969423 -3.98786 0
M  V30 5543 H 504.322 0.733435 -3.86503 0
M  V30 5544 H 506.337 1.71791 -4.65513 0
M  V30 5545 N 505.51 1.54411 -0.315457 0
M  V30 5546 C 506.757 2.00419 0.289543 0
M  V30 5547 C 507.085 1.20373 1.52776 0
M  V30 5548 O 506.34 0.271769 1.93804 0
M  V30 5549 C 506.639 3.50936 0.676652 0
M  V30 5550 C 506.305 4.48532 -0.461472 0
M  V30 5551 C 504.967 4.74936 -0.773879 0
M  V30 5552 C 507.319 5.06567 -1.22637 0
M  V30 5553 C 504.647 5.56634 -1.85405 0
M  V30 5554 C 506.999 5.89441 -2.29657 0
M  V30 5555 C 505.663 6.1415 -2.61488 0
M  V30 5556 H 504.933 0.733386 0.105951 0
M  V30 5557 H 507.58 1.86434 -0.437554 0
M  V30 5558 H 505.885 3.62606 1.48405 0
M  V30 5559 H 507.582 3.83971 1.15618 0
M  V30 5560 H 504.172 4.28096 -0.207893 0
M  V30 5561 H 508.356 4.86157 -0.998271 0
M  V30 5562 H 503.612 5.74012 -2.10523 0
M  V30 5563 H 507.786 6.33432 -2.89374 0
M  V30 5564 H 505.413 6.77245 -3.45317 0
M  V30 5565 N 506.988 0.0434614 1.5754 0
M  V30 5566 C 508.237 -0.631454 1.91561 0
M  V30 5567 C 508.55 -1.72457 0.92292 0
M  V30 5568 O 509.756 -2.45712 1.15489 0
M  V30 5569 C 508.212 -1.17447 3.40197 0
M  V30 5570 C 507.82 -0.113867 4.47855 0
M  V30 5571 C 509.564 -1.82507 3.83264 0
M  V30 5572 C 507.471 -0.669326 5.876 0
M  V30 5573 H 506.401 -0.239629 0.714908 0
M  V30 5574 H 509.052 0.111097 1.83163 0
M  V30 5575 H 507.434 -1.96909 3.43574 0
M  V30 5576 H 508.608 0.659348 4.56058 0
M  V30 5577 H 506.923 0.438821 4.14081 0
M  V30 5578 H 509.52 -2.25047 4.85034 0
M  V30 5579 H 509.863 -2.67365 3.19095 0
M  V30 5580 H 510.396 -1.09712 3.82372 0
M  V30 5581 H 507.135 0.141449 6.55347 0
M  V30 5582 H 506.655 -1.4107 5.82974 0
M  V30 5583 H 508.334 -1.15463 6.36614 0
M  V30 5584 N 508.466 -1.55915 -0.229846 0
M  V30 5585 C 509.713 -1.78542 -0.955452 0
M  V30 5586 C 510.041 -0.610785 -1.84661 0
M  V30 5587 O 509.296 0.405213 -1.91459 0
M  V30 5588 C 509.595 -3.06845 -1.8325 0
M  V30 5589 C 509.261 -4.37395 -1.09528 0
M  V30 5590 C 507.923 -4.72868 -0.891598 0
M  V30 5591 C 510.275 -5.18029 -0.574046 0
M  V30 5592 C 507.603 -5.86496 -0.154655 0
M  V30 5593 C 509.955 -6.32423 0.149513 0
M  V30 5594 C 508.619 -6.66504 0.364519 0
M  V30 5595 H 507.889 -0.653333 -0.349625 0
M  V30 5596 H 510.536 -1.90183 -0.224235 0
M  V30 5597 H 508.841 -2.90291 -2.63132 0
M  V30 5598 H 510.538 -3.21553 -2.39592 0
M  V30 5599 H 507.128 -4.09538 -1.26399 0
M  V30 5600 H 511.312 -4.91066 -0.718899 0
M  V30 5601 H 506.568 -6.11396 0.0222356 0
M  V30 5602 H 510.742 -6.94137 0.560947 0
M  V30 5603 H 508.369 -7.54397 0.937495 0
M  V30 5604 N 509.944 0.496216 -1.49584 0
M  V30 5605 C 511.19 1.25189 -1.59548 0
M  V30 5606 C 511.523 1.9212 -0.283466 0
M  V30 5607 O 510.798 1.80947 0.713324 0
M  V30 5608 C 511.081 2.31516 -2.75812 0
M  V30 5609 C 510.934 1.69054 -4.16822 0
M  V30 5610 C 512.253 3.3304 -2.87702 0
M  V30 5611 H 509.372 0.45379 -0.580727 0
M  V30 5612 H 512.014 0.549327 -1.81886 0
M  V30 5613 H 510.164 2.91438 -2.56897 0
M  V30 5614 H 511.836 1.12923 -4.47265 0
M  V30 5615 H 510.079 0.994485 -4.22247 0
M  V30 5616 H 510.75 2.462 -4.94054 0
M  V30 5617 H 513.226 2.83114 -3.04936 0
M  V30 5618 H 512.102 4.04794 -3.7072 0
M  V30 5619 H 512.363 3.95655 -1.97255 0
M  V30 5620 N 511.423 1.38739 0.74761 0
M  V30 5621 C 512.67 1.35274 1.50689 0
M  V30 5622 C 512.998 -0.0553359 1.94421 0
M  V30 5623 O 512.253 -1.03365 1.66175 0
M  V30 5624 C 512.552 2.25992 2.7688 0
M  V30 5625 C 512.218 3.73854 2.5208 0
M  V30 5626 C 510.88 4.14145 2.45025 0
M  V30 5627 C 513.232 4.67427 2.30568 0
M  V30 5628 C 510.56 5.4609 2.14483 0
M  V30 5629 C 512.912 5.99635 2.01545 0
M  V30 5630 C 511.576 6.39004 1.92951 0
M  V30 5631 H 510.846 0.495003 0.55141 0
M  V30 5632 H 513.493 1.71145 0.859158 0
M  V30 5633 H 511.798 1.83196 3.46333 0
M  V30 5634 H 513.495 2.20611 3.34861 0
M  V30 5635 H 510.085 3.41913 2.58444 0
M  V30 5636 H 514.269 4.3714 2.34994 0
M  V30 5637 H 509.525 5.75528 2.06342 0
M  V30 5638 H 513.699 6.71678 1.83906 0
M  V30 5639 H 511.326 7.41165 1.6905 0
M  V30 5640 N 512.901 -0.976442 1.23707 0
M  V30 5641 C 514.126 -1.75875 1.09922 0
M  V30 5642 C 514.551 -1.84911 -0.34489 0
M  V30 5643 O 513.909 -1.31363 -1.24954 0
M  V30 5644 C 513.957 -3.16179 1.73388 0
M  V30 5645 O 513.061 -4.00124 0.99871 0
M  V30 5646 H 512.402 -0.540954 0.385052 0
M  V30 5647 H 514.932 -1.22546 1.6384 0
M  V30 5648 H 514.942 -3.66741 1.78788 0
M  V30 5649 H 513.617 -3.08917 2.78466 0
M  V30 5650 H 512.194 -3.58624 1.02193 0
M  V30 5651 N 514.379 -1.04941 -1.1758 0
M  V30 5652 C 515.342 -0.652456 -2.19717 0
M  V30 5653 C 516.342 0.294745 -1.58076 0
M  V30 5654 O 517.532 0.0789579 -1.74021 0
M  V30 5655 C 514.664 0.0420712 -3.40874 0
M  V30 5656 H 515.857 -1.55642 -2.5635 0
M  V30 5657 H 513.41 -0.842995 -1.31618 0
M  V30 5658 H 514.145 0.95943 -3.09783 0
M  V30 5659 H 513.93 -0.638844 -3.86861 0
M  V30 5660 H 515.42 0.306 -4.16477 0
M  V30 5661 N 515.857 1.33968 -0.830081 0
M  V30 5662 C 516.787 2.31911 -0.271911 0
M  V30 5663 C 517.768 1.58571 0.61556 0
M  V30 5664 O 518.953 1.86514 0.540946 0
M  V30 5665 C 516.083 3.42737 0.561146 0
M  V30 5666 C 515.037 4.27383 -0.229789 0
M  V30 5667 C 514.363 5.29742 0.726463 0
M  V30 5668 C 515.663 5.02 -1.44197 0
M  V30 5669 H 517.357 2.78844 -1.09025 0
M  V30 5670 H 514.903 1.34061 -0.52571 0
M  V30 5671 H 516.856 4.10276 0.961867 0
M  V30 5672 H 515.58 2.94471 1.41261 0
M  V30 5673 H 514.239 3.61456 -0.611964 0
M  V30 5674 H 513.887 4.77736 1.57408 0
M  V30 5675 H 513.587 5.87255 0.20142 0
M  V30 5676 H 515.111 6.00149 1.12489 0
M  V30 5677 H 516.525 5.62355 -1.11488 0
M  V30 5678 H 514.922 5.69122 -1.90317 0
M  V30 5679 H 515.992 4.31281 -2.2164 0
M  V30 5680 N 517.335 0.585699 1.46312 0
M  V30 5681 C 518.581 0.0725284 2.0267 0
M  V30 5682 C 518.914 -1.28523 1.45586 0
M  V30 5683 O 518.189 -1.84283 0.622101 0
M  V30 5684 C 518.472 0.0099788 3.60099 0
M  V30 5685 C 518.325 1.39685 4.27561 0
M  V30 5686 C 519.644 -0.689117 4.34671 0
M  V30 5687 H 516.763 0.0278307 0.736474 0
M  V30 5688 H 519.405 0.753472 1.74421 0
M  V30 5689 H 517.555 -0.56992 3.84297 0
M  V30 5690 H 519.227 2.02215 4.14617 0
M  V30 5691 H 517.47 1.96374 3.86807 0
M  V30 5692 H 518.141 1.30553 5.36339 0
M  V30 5693 H 520.617 -0.196446 4.15636 0
M  V30 5694 H 519.493 -0.701921 5.44393 0
M  V30 5695 H 519.754 -1.75101 4.05946 0
M  V30 5696 N 518.813 -1.54241 0.323641 0
M  V30 5697 C 519.723 -2.28033 -0.551205 0
M  V30 5698 C 520.739 -1.32388 -1.12913 0
M  V30 5699 O 521.915 -1.65403 -1.14908 0
M  V30 5700 C 518.98 -3.02382 -1.69606 0
M  V30 5701 C 518.041 -4.13612 -1.14993 0
M  V30 5702 C 517.274 -4.84407 -2.24022 0
M  V30 5703 O 517.497 -4.54716 -3.44368 0
M  V30 5704 O 516.431 -5.71312 -1.89436 0
M  V30 5705 H 520.257 -3.03662 0.048066 0
M  V30 5706 H 517.842 -1.49133 0.0893289 0
M  V30 5707 H 519.724 -3.48941 -2.36259 0
M  V30 5708 H 518.399 -2.29628 -2.28151 0
M  V30 5709 H 517.306 -3.71402 -0.448484 0
M  V30 5710 H 518.639 -4.8841 -0.609608 0
M  V30 5711 N 520.291 -0.0518155 -1.57515 0
M  V30 5712 C 521.521 0.63048 -1.96745 0
M  V30 5713 C 521.929 1.64875 -0.928054 0
M  V30 5714 O 521.272 1.83449 0.0960678 0
M  V30 5715 C 521.334 1.37381 -3.32215 0
M  V30 5716 C 520.998 0.511298 -4.54131 0
M  V30 5717 C 521.995 -0.222884 -5.19422 0
M  V30 5718 C 519.68 0.442035 -5.00351 0
M  V30 5719 C 521.674 -1.01476 -6.2927 0
M  V30 5720 C 519.361 -0.35353 -6.10077 0
M  V30 5721 C 520.359 -1.08062 -6.74397 0
M  V30 5722 O 520.047 -1.8631 -7.82013 0
M  V30 5723 H 519.779 0.177126 -0.652382 0
M  V30 5724 H 522.333 -0.114726 -2.05079 0
M  V30 5725 H 520.563 2.16466 -3.20436 0
M  V30 5726 H 522.252 1.9464 -3.56188 0
M  V30 5727 H 523.018 -0.178846 -4.8467 0
M  V30 5728 H 518.897 0.997562 -4.50077 0
M  V30 5729 H 522.441 -1.58279 -6.79407 0
M  V30 5730 H 518.338 -0.399205 -6.44264 0
M  V30 5731 H 519.106 -1.78528 -7.98793 0
M  V30 5732 N 521.769 1.56035 0.221574 0
M  V30 5733 C 523.017 1.78693 0.944102 0
M  V30 5734 C 523.338 0.620317 1.8487 0
M  V30 5735 O 522.608 -0.362784 1.92512 0
M  V30 5736 H 521.188 0.659082 0.351597 0
M  V30 5737 H 523.85 1.93497 0.233435 0
M  V30 5738 H 522.946 2.70837 1.55093 0
M  V30 5739 N 523.247 -0.488276 1.49845 0
M  V30 5740 C 524.475 -1.26527 1.63702 0
M  V30 5741 C 524.89 -1.8618 0.313447 0
M  V30 5742 O 524.247 -1.68432 -0.702624 0
M  V30 5743 C 524.298 -2.3864 2.71538 0
M  V30 5744 O 524.019 -1.81437 3.98763 0
M  V30 5745 C 525.52 -3.29805 2.96215 0
M  V30 5746 H 522.74 -0.383295 0.55075 0
M  V30 5747 H 525.284 -0.584779 1.95961 0
M  V30 5748 H 523.439 -3.02496 2.42023 0
M  V30 5749 H 523.853 -2.55135 4.58265 0
M  V30 5750 H 525.327 -4.04722 3.75372 0
M  V30 5751 H 525.804 -3.87563 2.06619 0
M  V30 5752 H 526.41 -2.71703 3.27196 0
M  V30 5753 N 524.725 -1.39134 -0.740242 0
M  V30 5754 C 525.655 -1.40165 -1.86751 0
M  V30 5755 C 526.636 -0.265708 -1.68012 0
M  V30 5756 O 527.821 -0.47076 -1.88408 0
M  V30 5757 C 524.951 -1.2392 -3.2444 0
M  V30 5758 C 523.905 -2.34858 -3.57807 0
M  V30 5759 C 523.231 -2.03707 -4.94376 0
M  V30 5760 C 524.531 -3.77159 -3.61315 0
M  V30 5761 H 526.225 -2.345 -1.86145 0
M  V30 5762 H 523.771 -1.12875 -0.89416 0
M  V30 5763 H 525.724 -1.23263 -4.02969 0
M  V30 5764 H 524.448 -0.26051 -3.25559 0
M  V30 5765 H 523.107 -2.34723 -2.81604 0
M  V30 5766 H 522.755 -1.04289 -4.9207 0
M  V30 5767 H 522.455 -2.78016 -5.17669 0
M  V30 5768 H 523.979 -2.04691 -5.75268 0
M  V30 5769 H 525.393 -3.79252 -4.29931 0
M  V30 5770 H 523.79 -4.50784 -3.96124 0
M  V30 5771 H 524.86 -4.08513 -2.61238 0
M  V30 5772 N 526.204 0.969867 -1.24223 0
M  V30 5773 C 527.154 2.04913 -0.999732 0
M  V30 5774 C 528.138 1.60795 0.0580636 0
M  V30 5775 O 529.33 1.76317 -0.155392 0
M  V30 5776 C 526.459 3.37942 -0.604154 0
M  V30 5777 C 525.545 3.88628 -1.69791 0
M  V30 5778 N 525.936 4.12274 -2.93025 0
M  V30 5779 C 524.234 4.17268 -1.57492 0
M  V30 5780 C 524.935 4.53808 -3.63914 0
M  V30 5781 N 523.911 4.58855 -2.91468 0
M  V30 5782 H 527.713 2.21168 -1.93551 0
M  V30 5783 H 525.227 1.15349 -1.14317 0
M  V30 5784 H 527.224 4.14863 -0.411665 0
M  V30 5785 H 525.884 3.23075 0.324465 0
M  V30 5786 H 526.895 3.99789 -3.29225 0
M  V30 5787 H 523.572 4.11346 -0.714175 0
M  V30 5788 H 524.962 4.80534 -4.69614 0
M  V30 5789 N 527.682 1.05563 1.17022 0
M  V30 5790 C 528.912 0.787307 1.91011 0
M  V30 5791 C 529.32 -0.661256 1.77268 0
M  V30 5792 O 528.663 -1.46379 1.10991 0
M  V30 5793 C 528.725 1.09313 3.42478 0
M  V30 5794 C 528.389 2.53863 3.80004 0
M  V30 5795 C 529.386 3.52081 3.82538 0
M  V30 5796 C 527.071 2.88969 4.10855 0
M  V30 5797 C 529.065 4.83449 4.15399 0
M  V30 5798 C 526.752 4.2054 4.43384 0
M  V30 5799 C 527.75 5.17589 4.45635 0
M  V30 5800 O 527.438 6.46799 4.77395 0
M  V30 5801 H 527.17 0.285463 0.61277 0
M  V30 5802 H 529.724 1.41051 1.49311 0
M  V30 5803 H 527.954 0.412833 3.8449 0
M  V30 5804 H 529.643 0.810224 3.97731 0
M  V30 5805 H 530.409 3.26299 3.58823 0
M  V30 5806 H 526.288 2.1409 4.08272 0
M  V30 5807 H 529.832 5.59194 4.1707 0
M  V30 5808 H 525.729 4.46083 4.66563 0
M  V30 5809 H 526.497 6.51677 4.95237 0
M  V30 5810 N 529.16 -1.33526 0.837174 0
M  V30 5811 C 530.407 -1.97837 0.432064 0
M  V30 5812 C 530.735 -1.66324 -1.00829 0
M  V30 5813 O 529.99 -0.93448 -1.71948 0
M  V30 5814 C 530.289 -3.52367 0.597675 0
M  V30 5815 C 529.955 -4.03826 2.00587 0
M  V30 5816 C 528.617 -4.1759 2.39106 0
M  V30 5817 C 530.969 -4.31333 2.92576 0
M  V30 5818 C 528.297 -4.56195 3.68921 0
M  V30 5819 C 530.649 -4.7139 4.2187 0
M  V30 5820 C 529.313 -4.8336 4.60347 0
M  V30 5821 H 528.583 -0.723937 0.158104 0
M  V30 5822 H 531.23 -1.5923 1.06387 0
M  V30 5823 H 529.535 -3.91624 -0.117452 0
M  V30 5824 H 531.232 -4.00126 0.26454 0
M  V30 5825 H 527.822 -3.93586 1.69671 0
M  V30 5826 H 532.006 -4.20224 2.64056 0
M  V30 5827 H 527.262 -4.63655 3.9854 0
M  V30 5828 H 531.436 -4.91631 4.93226 0
M  V30 5829 H 529.063 -5.1303 5.60985 0
M  V30 5830 N 530.638 -0.59345 -1.46 0
M  V30 5831 C 531.884 -0.0832754 -2.02629 0
M  V30 5832 C 532.217 1.27749 -1.46266 0
M  V30 5833 O 531.492 1.8395 -0.631866 0
M  V30 5834 C 531.775 -0.0290756 -3.60088 0
M  V30 5835 C 531.628 -1.41951 -4.26814 0
M  V30 5836 C 532.947 0.666055 -4.35031 0
M  V30 5837 H 530.066 -0.031736 -0.736316 0
M  V30 5838 H 532.708 -0.762711 -1.74019 0
M  V30 5839 H 530.858 0.549532 -3.84594 0
M  V30 5840 H 532.53 -2.04411 -4.13538 0
M  V30 5841 H 530.773 -1.98422 -3.8576 0
M  V30 5842 H 531.444 -1.33395 -5.3564 0
M  V30 5843 H 533.92 0.174401 -4.15734 0
M  V30 5844 H 532.796 0.673041 -5.44758 0
M  V30 5845 H 533.057 1.72946 -4.06869 0
M  V30 5846 N 532.116 1.54067 -0.331816 0
M  V30 5847 C 533.341 2.05599 0.272705 0
M  V30 5848 C 533.766 1.2059 1.44359 0
M  V30 5849 O 533.124 0.216907 1.79998 0
M  V30 5850 C 533.172 3.54188 0.677021 0
M  V30 5851 O 532.276 3.72082 1.77844 0
M  V30 5852 H 531.617 0.662286 0.0476801 0
M  V30 5853 H 534.147 1.98826 -0.482624 0
M  V30 5854 H 534.157 3.96608 0.957415 0
M  V30 5855 H 532.832 4.15513 -0.179325 0
M  V30 5856 H 531.409 3.41566 1.49622 0
M  V30 5857 N 533.594 0.0601682 1.57485 0
M  V30 5858 C 534.542 -0.928899 2.13247 0
M  V30 5859 C 535.536 -1.31616 1.06647 0
M  V30 5860 O 536.742 -1.29476 1.25043 0
M  V30 5861 H 533.117 -0.317455 0.681708 0
M  V30 5862 H 535.088 -0.433566 2.95233 0
M  V30 5863 C 533.837 -2.19121 2.69965 0
M  V30 5864 H 533.16 -1.90204 3.51657 0
M  V30 5865 H 534.6 -2.86465 3.12592 0
M  V30 5866 C 533.059 -2.94195 1.64168 0
M  V30 5867 O 533.589 -3.87468 1.05978 0
M  V30 5868 N 531.795 -2.57089 1.35476 0
M  V30 5869 H 531.342 -1.81314 1.82984 0
M  V30 5870 H 531.3 -3.07624 0.649196 0
M  V30 5871 N 535.072 -1.5615 -0.213296 0
M  V30 5872 C 536.488 -1.49327 -0.56336 0
M  V30 5873 C 536.688 -0.756826 -1.86747 0
M  V30 5874 O 535.744 -0.299866 -2.50713 0
M  V30 5875 C 537.057 -2.9392 -0.634944 0
M  V30 5876 C 538.605 -3.04487 -0.725013 0
M  V30 5877 C 539.08 -4.50456 -0.82787 0
M  V30 5878 N 540.571 -4.54533 -0.891876 0
M  V30 5879 C 541.306 -5.64766 -0.991315 0
M  V30 5880 N 540.802 -6.84733 -1.05419 0
M  V30 5881 N 542.595 -5.52637 -1.02709 0
M  V30 5882 H 534.746 -2.02453 0.642366 0
M  V30 5883 H 537.009 -0.920548 0.226487 0
M  V30 5884 H 536.715 -3.50783 0.253859 0
M  V30 5885 H 536.589 -3.46274 -1.49579 0
M  V30 5886 H 538.976 -2.47685 -1.60425 0
M  V30 5887 H 539.057 -2.55289 0.161669 0
M  V30 5888 H 538.701 -5.07878 0.0469464 0
M  V30 5889 H 538.631 -4.97369 -1.73009 0
M  V30 5890 H 541.122 -3.68141 -0.85327 0
M  V30 5891 H 541.435 -7.64493 -1.13007 0
M  V30 5892 H 539.78 -6.87427 -1.02318 0
M  V30 5893 H 542.971 -4.5784 -0.974687 0
M  V30 5894 H 543.144 -6.38576 -1.10113 0
M  V30 5895 N 536.55 0.480323 -1.50102 0
M  V30 5896 C 537.497 1.57946 -1.6829 0
M  V30 5897 C 538.467 1.57611 -0.524223 0
M  V30 5898 O 539.652 1.75282 -0.753709 0
M  V30 5899 C 536.792 2.95978 -1.77457 0
M  V30 5900 C 535.905 3.06173 -3.04766 0
M  V30 5901 C 535.04 4.35063 -3.04784 0
M  V30 5902 C 534.079 4.38966 -4.26586 0
M  V30 5903 N 533.216 5.59314 -4.24396 0
M  V30 5904 H 538.056 1.41743 -2.62131 0
M  V30 5905 H 535.593 0.689304 -1.2995 0
M  V30 5906 H 537.551 3.76011 -1.80752 0
M  V30 5907 H 536.181 3.10837 -0.870637 0
M  V30 5908 H 535.233 2.19071 -3.10986 0
M  V30 5909 H 536.545 3.04916 -3.9475 0
M  V30 5910 H 535.699 5.23436 -3.06757 0
M  V30 5911 H 534.438 4.38915 -2.12614 0
M  V30 5912 H 533.443 3.48992 -4.24835 0
M  V30 5913 H 534.668 4.36813 -5.19972 0
M  V30 5914 H 532.614 5.63969 -3.35074 0
M  V30 5915 H 532.531 5.5976 -5.08138 0
M  V30 5916 H 533.799 6.49837 -4.30502 0
M  V30 5917 N 538.028 1.39524 0.732853 0
M  V30 5918 C 539.439 1.32905 1.31122 0
M  V30 5919 C 539.79 -0.00558708 1.96199 0
M  V30 5920 O 538.915 -0.907706 1.96443 0
M  V30 5921 C 539.51 2.40704 2.38426 0
M  V30 5922 C 538.069 2.37599 2.91931 0
M  V30 5923 C 537.216 2.2248 1.65523 0
M  V30 5924 H 540.167 1.49581 0.530207 0
M  V30 5925 H 540.188 2.07616 3.18867 0
M  V30 5926 H 539.7 3.37829 1.91033 0
M  V30 5927 H 537.801 1.44119 3.43599 0
M  V30 5928 H 537.914 3.32538 3.44899 0
M  V30 5929 H 536.278 1.69691 1.8994 0
M  V30 5930 H 537.061 3.21577 1.20178 0
M  V30 5931 N 539.506 -0.963266 1.24736 0
M  V30 5932 C 540.731 -1.74699 1.11781 0
M  V30 5933 C 541.156 -1.85267 -0.325258 0
M  V30 5934 O 540.514 -1.32681 -1.23553 0
M  V30 5935 C 540.562 -3.14322 1.76731 0
M  V30 5936 O 539.666 -3.99043 1.04109 0
M  V30 5937 H 539.007 -0.53684 0.390767 0
M  V30 5938 H 541.537 -1.20801 1.65131 0
M  V30 5939 H 541.547 -3.64824 1.82668 0
M  V30 5940 H 540.222 -3.05946 2.81726 0
M  V30 5941 H 538.799 -3.5752 1.05991 0
M  V30 5942 N 540.985 -1.06182 -1.16461 0
M  V30 5943 C 541.932 -0.671613 -2.20812 0
M  V30 5944 C 542.902 0.331186 -1.62765 0
M  V30 5945 O 544.087 0.22033 -1.89524 0
M  V30 5946 C 541.227 -0.063029 -3.45042 0
M  V30 5947 C 540.34 -1.11587 -4.1734 0
M  V30 5948 C 539.475 -0.473546 -5.29085 0
M  V30 5949 C 538.514 -1.51 -5.93182 0
M  V30 5950 N 537.651 -0.891118 -6.96422 0
M  V30 5951 H 542.491 -1.56589 -2.53542 0
M  V30 5952 H 540.028 -0.782951 -1.24532 0
M  V30 5953 H 541.986 0.307344 -4.16066 0
M  V30 5954 H 540.616 0.794663 -3.12866 0
M  V30 5955 H 539.668 -1.60396 -3.44931 0
M  V30 5956 H 540.98 -1.90221 -4.61104 0
M  V30 5957 H 540.134 -0.0501432 -6.06679 0
M  V30 5958 H 538.873 0.344687 -4.8648 0
M  V30 5959 H 537.878 -1.94331 -5.14311 0
M  V30 5960 H 539.103 -2.33031 -6.37866 0
M  V30 5961 H 537.049 -0.0935753 -6.55933 0
M  V30 5962 H 536.966 -1.61486 -7.38551 0
M  V30 5963 H 538.234 -0.492822 -7.77941 0
M  V30 5964 N 542.463 1.3308 -0.844243 0
M  V30 5965 C 543.74 1.92178 -0.364261 0
M  V30 5966 C 544.12 1.76961 1.15101 0
M  V30 5967 O 543.468 1.16128 1.9679 0
M  V30 5968 C 543.678 3.393 -0.817106 0
M  V30 5969 C 545.026 4.16444 -0.828236 0
M  V30 5970 O 546.05 3.47975 -0.761062 0
M  V30 5971 O 544.909 5.38685 -0.920926 0
M  V30 5972 H 542.003 0.820411 -0.10419 0
M  V30 5973 H 544.549 1.41918 -0.930453 0
M  V30 5974 H 543.321 3.44272 -1.85991 0
M  V30 5975 H 542.944 3.96947 -0.227785 0
M  V30 5976 N 543.941 0.601185 1.45683 0
M  V30 5977 C 544.888 -0.121396 2.30481 0
M  V30 5978 C 545.858 -0.866232 1.41724 0
M  V30 5979 O 547.043 -0.85324 1.70659 0
M  V30 5980 C 544.183 -1.11704 3.26521 0
M  V30 5981 C 543.296 -0.373741 4.3038 0
M  V30 5982 C 542.431 -1.35854 5.13534 0
M  V30 5983 C 541.47 -0.602689 6.09126 0
M  V30 5984 N 540.607 -1.53645 6.85082 0
M  V30 5985 H 545.447 0.607732 2.91737 0
M  V30 5986 H 542.984 0.311502 1.43764 0
M  V30 5987 H 544.942 -1.70735 3.80664 0
M  V30 5988 H 543.572 -1.81366 2.67032 0
M  V30 5989 H 542.624 0.331962 3.78949 0
M  V30 5990 H 543.936 0.2163 4.98331 0
M  V30 5991 H 543.09 -2.02111 5.72046 0
M  V30 5992 H 541.829 -1.98251 4.45587 0
M  V30 5993 H 540.834 0.0735482 5.49751 0
M  V30 5994 H 542.059 0.0161467 6.79098 0
M  V30 5995 H 540.005 -2.14819 6.1983 0
M  V30 5996 H 539.922 -0.999688 7.49361 0
M  V30 5997 H 541.19 -2.1888 7.48139 0
M  V30 5998 N 545.419 -1.53889 0.339982 0
M  V30 5999 C 546.696 -1.93084 -0.312719 0
M  V30 6000 C 547.076 -1.2712 -1.68534 0
M  V30 6001 O 546.424 -0.420835 -2.24591 0
M  V30 6002 C 546.634 -3.4683 -0.388558 0
M  V30 6003 C 547.982 -4.19732 -0.641088 0
M  V30 6004 O 549.006 -3.53075 -0.470818 0
M  V30 6005 O 547.865 -5.3781 -0.970685 0
M  V30 6006 H 544.959 -0.806784 -0.18174 0
M  V30 6007 H 547.505 -1.65137 0.390898 0
M  V30 6008 H 546.277 -3.87055 0.574821 0
M  V30 6009 H 545.9 -3.80933 -1.1391 0
M  V30 6010 N 546.897 -0.0685191 -1.57451 0
M  V30 6011 C 547.844 0.899861 -2.12535 0
M  V30 6012 C 548.814 1.29749 -1.03703 0
M  V30 6013 O 549.999 1.38392 -1.31348 0
M  V30 6014 C 547.139 2.16328 -2.6888 0
M  V30 6015 C 546.252 1.81857 -3.91857 0
M  V30 6016 C 545.387 3.02786 -4.36457 0
M  V30 6017 C 544.426 2.64317 -5.5209 0
M  V30 6018 N 543.563 3.77994 -5.91663 0
M  V30 6019 H 548.403 0.423243 -2.94979 0
M  V30 6020 H 545.94 0.197268 -1.45771 0
M  V30 6021 H 547.898 2.90281 -2.99655 0
M  V30 6022 H 546.528 2.61536 -1.89206 0
M  V30 6023 H 545.58 0.979808 -3.67565 0
M  V30 6024 H 546.892 1.49553 -4.75852 0
M  V30 6025 H 546.046 3.85021 -4.68875 0
M  V30 6026 H 544.785 3.38281 -3.51308 0
M  V30 6027 H 543.79 1.80503 -5.19325 0
M  V30 6028 H 545.015 2.29995 -6.38967 0
M  V30 6029 H 542.961 4.13258 -5.09464 0
M  V30 6030 H 542.878 3.49447 -6.7039 0
M  V30 6031 H 544.146 4.60818 -6.28703 0
M  V30 6032 N 548.375 1.56261 0.205012 0
M  V30 6033 C 549.322 1.93754 1.25411 0
M  V30 6034 C 550.292 0.796826 1.45739 0
M  V30 6035 O 551.477 1.05414 1.59036 0
M  V30 6036 C 548.617 2.27383 2.59598 0
M  V30 6037 C 547.73 3.5447 2.46931 0
M  V30 6038 C 546.865 3.77468 3.73753 0
M  V30 6039 C 545.904 4.98014 3.55877 0
M  V30 6040 N 545.041 5.17316 4.74688 0
M  V30 6041 H 549.881 2.83203 0.92737 0
M  V30 6042 H 547.418 1.40158 0.446574 0
M  V30 6043 H 549.376 2.44895 3.37761 0
M  V30 6044 H 548.006 1.41088 2.90335 0
M  V30 6045 H 547.058 3.45061 1.60116 0
M  V30 6046 H 548.37 4.42789 2.29651 0
M  V30 6047 H 547.524 3.95165 4.60358 0
M  V30 6048 H 546.263 2.87461 3.93976 0
M  V30 6049 H 545.268 4.80249 2.67657 0
M  V30 6050 H 546.493 5.8952 3.37109 0
M  V30 6051 H 544.439 4.30255 4.95194 0
M  V30 6052 H 544.356 5.99796 4.60197 0
M  V30 6053 H 545.624 5.39463 5.62672 0
M  V30 6054 N 549.853 -0.472356 1.50355 0
M  V30 6055 C 550.8 -1.57051 1.69126 0
M  V30 6056 C 551.77 -1.5733 0.532574 0
M  V30 6057 O 552.955 -1.7488 0.762994 0
M  V30 6058 C 550.095 -2.95033 1.79024 0
M  V30 6059 C 549.208 -3.04552 3.06386 0
M  V30 6060 C 548.343 -4.33441 3.07087 0
M  V30 6061 C 547.382 -4.36697 4.28908 0
M  V30 6062 N 546.519 -5.57056 4.27356 0
M  V30 6063 H 551.359 -1.40351 2.62879 0
M  V30 6064 H 548.896 -0.682403 1.30314 0
M  V30 6065 H 550.854 -3.75048 1.82744 0
M  V30 6066 H 549.484 -3.10371 0.887109 0
M  V30 6067 H 548.536 -2.17419 3.12143 0
M  V30 6068 H 549.848 -3.02818 3.96362 0
M  V30 6069 H 549.002 -5.21801 3.09529 0
M  V30 6070 H 547.741 -4.37782 2.14939 0
M  V30 6071 H 546.746 -3.46734 4.2668 0
M  V30 6072 H 547.971 -4.34049 5.22282 0
M  V30 6073 H 545.917 -5.62184 3.3806 0
M  V30 6074 H 545.834 -5.57058 5.111 0
M  V30 6075 H 547.102 -6.47545 4.33942 0
M  V30 6076 N 551.331 -1.39911 -0.725443 0
M  V30 6077 C 552.278 -1.39393 -1.83952 0
M  V30 6078 C 553.248 -0.252249 -1.64173 0
M  V30 6079 O 554.433 -0.44882 -1.85446 0
M  V30 6080 C 551.573 -1.25262 -3.21564 0
M  V30 6081 C 550.686 -2.49054 -3.52982 0
M  V30 6082 C 549.821 -2.27439 -4.80047 0
M  V30 6083 C 548.86 -3.46857 -5.04338 0
M  V30 6084 N 547.997 -3.24499 -6.22611 0
M  V30 6085 H 552.837 -2.34622 -1.83729 0
M  V30 6086 H 550.374 -1.16537 -0.897636 0
M  V30 6087 H 552.332 -1.15077 -4.01015 0
M  V30 6088 H 550.962 -0.33657 -3.21041 0
M  V30 6089 H 550.014 -2.69805 -2.6816 0
M  V30 6090 H 551.326 -3.37973 -3.66846 0
M  V30 6091 H 550.48 -2.14551 -5.67497 0
M  V30 6092 H 549.219 -1.35929 -4.68374 0
M  V30 6093 H 548.224 -3.60232 -4.15346 0
M  V30 6094 H 549.449 -4.3928 -5.17889 0
M  V30 6095 H 547.395 -2.35663 -6.12208 0
M  V30 6096 H 547.312 -4.06978 -6.37106 0
M  V30 6097 H 548.58 -3.15325 -7.12875 0
M  V30 6098 N 552.809 0.956637 -1.25245 0
M  V30 6099 C 553.757 2.0743 -1.0524 0
M  V30 6100 C 554.751 1.69392 0.0160725 0
M  V30 6101 O 555.957 1.7946 -0.139382 0
M  V30 6102 H 552.332 0.678921 -0.323373 0
M  V30 6103 H 554.303 2.2146 -1.99995 0
M  V30 6104 C 553.052 3.40872 -0.685702 0
M  V30 6105 H 552.375 3.70607 -1.49968 0
M  V30 6106 H 553.815 4.19939 -0.585415 0
M  V30 6107 C 552.274 3.31367 0.608082 0
M  V30 6108 O 552.804 3.66214 1.65076 0
M  V30 6109 N 551.01 2.84486 0.592955 0
M  V30 6110 H 550.557 2.56326 -0.25592 0
M  V30 6111 H 550.515 2.78509 1.45877 0
M  V30 6112 N 554.287 1.06798 1.15896 0
M  V30 6113 C 555.698 0.811355 1.68149 0
M  V30 6114 C 556.049 -0.664339 1.8461 0
M  V30 6115 O 555.174 -1.51485 1.54535 0
M  V30 6116 C 555.769 1.46624 3.05429 0
M  V30 6117 C 554.328 1.25726 3.54781 0
M  V30 6118 C 553.475 1.53949 2.3064 0
M  V30 6119 H 556.426 1.23078 1.00187 0
M  V30 6120 H 556.447 0.88437 3.7008 0
M  V30 6121 H 555.959 2.54025 2.93416 0
M  V30 6122 H 554.06 0.20322 3.72045 0
M  V30 6123 H 554.173 1.97354 4.36564 0
M  V30 6124 H 552.537 0.96025 2.35905 0
M  V30 6125 H 553.32 2.6252 2.2122 0
M  V30 6126 N 555.766 -1.3263 0.851289 0
M  V30 6127 C 556.729 -2.27247 0.298541 0
M  V30 6128 C 557.729 -1.51467 -0.539847 0
M  V30 6129 O 558.919 -1.7061 -0.351843 0
M  V30 6130 C 556.051 -3.35964 -0.578004 0
M  V30 6131 H 557.244 -2.7765 1.13359 0
M  V30 6132 H 554.797 -1.43245 0.625354 0
M  V30 6133 H 555.532 -2.90823 -1.435 0
M  V30 6134 H 555.317 -3.92094 0.0220539 0
M  V30 6135 H 556.807 -4.06472 -0.957626 0
M  V30 6136 N 557.244 -0.608902 -1.45362 0
M  V30 6137 C 558.655 -0.189511 -1.85736 0
M  V30 6138 C 559.006 1.2539 -1.50903 0
M  V30 6139 O 558.131 1.95094 -0.936347 0
M  V30 6140 C 558.726 -0.33716 -3.37118 0
M  V30 6141 C 557.285 0.0275487 -3.7639 0
M  V30 6142 C 556.432 -0.660983 -2.69307 0
M  V30 6143 H 559.383 -0.815499 -1.36144 0
M  V30 6144 H 559.404 0.430257 -3.7806 0
M  V30 6145 H 558.916 -1.38779 -3.62439 0
M  V30 6146 H 557.017 1.0773 -3.56686 0
M  V30 6147 H 557.13 -0.367018 -4.77692 0
M  V30 6148 H 555.494 -0.0984958 -2.54509 0
M  V30 6149 H 556.277 -1.71377 -2.97464 0
M  V30 6150 N 558.722 1.53707 -0.348139 0
M  V30 6151 C 559.95 2.05406 0.248224 0
M  V30 6152 C 560.365 1.22282 1.43849 0
M  V30 6153 O 559.722 0.259244 1.80649 0
M  V30 6154 C 559.773 3.55446 0.658793 0
M  V30 6155 O 559.494 4.35417 -0.484149 0
M  V30 6156 C 560.995 4.23335 1.31539 0
M  V30 6157 H 558.215 0.669344 0.0471075 0
M  V30 6158 H 560.759 1.98257 -0.501456 0
M  V30 6159 H 558.914 3.62803 1.35841 0
M  V30 6160 H 559.328 5.24268 -0.155949 0
M  V30 6161 H 560.802 5.29692 1.55338 0
M  V30 6162 H 561.279 3.75967 2.27036 0
M  V30 6163 H 561.885 4.20184 0.657683 0
M  V30 6164 N 560.2 0.0768682 1.57412 0
M  V30 6165 C 561.449 -0.590679 1.92857 0
M  V30 6166 C 561.762 -1.70461 0.959293 0
M  V30 6167 O 562.968 -2.43207 1.20675 0
M  V30 6168 C 561.424 -1.10204 3.42612 0
M  V30 6169 C 561.032 -0.0188447 4.47996 0
M  V30 6170 C 562.776 -1.74336 3.87049 0
M  V30 6171 C 560.683 -0.544536 5.88888 0
M  V30 6172 H 559.613 -0.224411 0.71983 0
M  V30 6173 H 562.264 0.149924 1.82887 0
M  V30 6174 H 560.646 -1.89577 3.47673 0
M  V30 6175 H 561.82 0.755936 4.54557 0
M  V30 6176 H 560.135 0.526555 4.13057 0
M  V30 6177 H 562.732 -2.14708 4.89699 0
M  V30 6178 H 563.075 -2.60537 3.24694 0
M  V30 6179 H 563.608 -1.01577 3.84613 0
M  V30 6180 H 560.347 0.280426 6.549 0
M  V30 6181 H 559.867 -1.28673 5.85836 0
M  V30 6182 H 561.546 -1.01933 6.3892 0
M  V30 6183 N 561.678 -1.56367 -0.196722 0
M  V30 6184 C 562.955 -1.71359 -0.943159 0
M  V30 6185 C 563.335 -0.631192 -2.01443 0
M  V30 6186 O 562.683 0.358071 -2.25677 0
M  V30 6187 C 562.893 -3.13623 -1.53106 0
M  V30 6188 C 564.241 -3.73806 -2.01381 0
M  V30 6189 O 565.265 -3.16742 -1.62951 0
M  V30 6190 O 564.124 -4.73951 -2.7209 0
M  V30 6191 H 561.218 -0.698851 -0.442195 0
M  V30 6192 H 563.764 -1.68672 -0.186547 0
M  V30 6193 H 562.536 -3.83873 -0.758785 0
M  V30 6194 H 562.159 -3.20532 -2.35255 0
M  V30 6195 N 563.156 0.464375 -1.50603 0
M  V30 6196 C 564.405 1.21277 -1.61167 0
M  V30 6197 C 564.718 1.92953 -0.320704 0
M  V30 6198 O 565.924 2.69778 -0.30534 0
M  V30 6199 C 564.38 2.20403 -2.84518 0
M  V30 6200 C 563.988 1.54499 -4.20516 0
M  V30 6201 C 565.732 2.95843 -3.0443 0
M  V30 6202 C 563.639 2.51951 -5.35047 0
M  V30 6203 H 562.569 0.456367 -0.600204 0
M  V30 6204 H 565.22 0.48254 -1.77042 0
M  V30 6205 H 563.602 2.96746 -2.62217 0
M  V30 6206 H 564.776 0.83899 -4.53098 0
M  V30 6207 H 563.091 0.913152 -4.06264 0
M  V30 6208 H 565.688 3.6879 -3.87167 0
M  V30 6209 H 566.031 3.55622 -2.16423 0
M  V30 6210 H 566.564 2.26611 -3.26944 0
M  V30 6211 H 563.303 1.96901 -6.25228 0
M  V30 6212 H 562.823 3.20683 -5.06875 0
M  V30 6213 H 564.502 3.13643 -5.65895 0
M  V30 6214 N 564.634 1.40294 0.718013 0
M  V30 6215 C 566.05 1.2227 1.02577 0
M  V30 6216 C 566.25 0.0961976 2.0127 0
M  V30 6217 O 565.306 -0.546695 2.46511 0
M  V30 6218 C 566.619 2.56348 1.57182 0
M  V30 6219 C 568.167 2.6334 1.69178 0
M  V30 6220 C 568.642 3.9768 2.27188 0
M  V30 6221 N 570.133 3.99409 2.34578 0
M  V30 6222 C 570.868 5.00141 2.8044 0
M  V30 6223 N 570.364 6.11268 3.26073 0
M  V30 6224 N 572.157 4.87511 2.79802 0
M  V30 6225 H 564.308 2.12304 0.0637899 0
M  V30 6226 H 566.571 0.943632 0.0909036 0
M  V30 6227 H 566.277 3.3942 0.921262 0
M  V30 6228 H 566.151 2.77266 2.55741 0
M  V30 6229 H 568.538 1.80641 2.33351 0
M  V30 6230 H 568.619 2.46255 0.692247 0
M  V30 6231 H 568.263 4.80817 1.63638 0
M  V30 6232 H 568.193 4.12093 3.27852 0
M  V30 6233 H 570.684 3.19162 2.02346 0
M  V30 6234 H 570.997 6.84023 3.59628 0
M  V30 6235 H 569.342 6.14837 3.24038 0
M  V30 6236 H 572.533 3.9979 2.43487 0
M  V30 6237 H 572.706 5.66158 3.15228 0
M  V30 6238 N 566.112 -0.949982 1.2575 0
M  V30 6239 C 567.523 -1.50989 1.09815 0
M  V30 6240 C 567.874 -1.93497 -0.324556 0
M  V30 6241 O 566.999 -1.79068 -1.21506 0
M  V30 6242 C 567.594 -2.74394 1.98729 0
M  V30 6243 C 566.153 -3.26682 1.86965 0
M  V30 6244 C 565.3 -1.99498 1.92603 0
M  V30 6245 H 568.251 -0.766387 1.38968 0
M  V30 6246 H 568.272 -3.48383 1.53001 0
M  V30 6247 H 567.784 -2.43425 3.02268 0
M  V30 6248 H 565.885 -3.62461 0.863279 0
M  V30 6249 H 565.998 -3.94383 2.72027 0
M  V30 6250 H 564.362 -2.15005 1.36546 0
M  V30 6251 H 565.145 -1.70871 2.97755 0
M  V30 6252 N 567.59 -1.07411 -1.15328 0
M  V30 6253 C 569.006 -0.799759 -1.38116 0
M  V30 6254 C 569.206 0.59572 -1.92493 0
M  V30 6255 O 568.262 1.35433 -2.13106 0
M  V30 6256 C 569.575 -1.87407 -2.35158 0
M  V30 6257 C 571.123 -1.89889 -2.48819 0
M  V30 6258 C 571.598 -2.96406 -3.49153 0
M  V30 6259 N 573.089 -2.95512 -3.56689 0
M  V30 6260 C 573.824 -3.74575 -4.34144 0
M  V30 6261 N 573.32 -4.63488 -5.14928 0
M  V30 6262 N 575.113 -3.62919 -4.29239 0
M  V30 6263 H 567.264 -1.97411 -0.78374 0
M  V30 6264 H 569.527 -0.856113 -0.407154 0
M  V30 6265 H 569.233 -2.8768 -2.0232 0
M  V30 6266 H 569.107 -1.73471 -3.34944 0
M  V30 6267 H 571.494 -0.902677 -2.80955 0
M  V30 6268 H 571.575 -2.07904 -1.49029 0
M  V30 6269 H 571.219 -3.96227 -3.17752 0
M  V30 6270 H 571.149 -2.75638 -4.48699 0
M  V30 6271 H 573.64 -2.31061 -2.99031 0
M  V30 6272 H 573.953 -5.20445 -5.71276 0
M  V30 6273 H 572.298 -4.67537 -5.14232 0
M  V30 6274 H 575.489 -2.92833 -3.65194 0
M  V30 6275 H 575.662 -4.24777 -4.89355 0
M  V30 6276 N 569.068 1.32177 -0.85831 0
M  V30 6277 C 570.293 2.01847 -0.476718 0
M  V30 6278 C 570.718 1.64065 0.920021 0
M  V30 6279 O 570.076 0.843189 1.60499 0
M  V30 6280 C 570.124 3.55097 -0.627578 0
M  V30 6281 O 569.228 4.11012 0.338086 0
M  V30 6282 H 568.569 0.635907 -0.191099 0
M  V30 6283 H 571.099 1.68641 -1.15851 0
M  V30 6284 H 571.109 4.04718 -0.516476 0
M  V30 6285 H 569.784 3.81938 -1.64609 0
M  V30 6286 H 568.361 3.72451 0.182917 0
M  V30 6287 N 570.547 0.616602 1.45037 0
M  V30 6288 C 571.51 -0.0871112 2.29034 0
M  V30 6289 C 572.51 -0.786414 1.40258 0
M  V30 6290 O 573.7 -0.633207 1.62284 0
M  V30 6291 C 570.832 -1.13369 3.21497 0
M  V30 6292 H 572.025 0.651497 2.92738 0
M  V30 6293 H 569.578 0.376058 1.51709 0
M  V30 6294 H 570.313 -1.90277 2.62612 0
M  V30 6295 H 570.098 -0.636358 3.86902 0
M  V30 6296 H 571.588 -1.62627 3.84633 0
M  V30 6297 N 572.025 -1.5352 0.356285 0
M  V30 6298 C 573.253 -2.05534 -0.237328 0
M  V30 6299 C 573.668 -1.23043 -1.43199 0
M  V30 6300 O 573.025 -0.268821 -1.80509 0
M  V30 6301 C 573.076 -3.55791 -0.639933 0
M  V30 6302 O 572.797 -4.35154 0.507233 0
M  V30 6303 C 574.298 -4.24027 -1.29292 0
M  V30 6304 H 571.518 -0.669585 -0.0435572 0
M  V30 6305 H 574.062 -1.97988 0.511963 0
M  V30 6306 H 572.217 -3.63518 -1.33915 0
M  V30 6307 H 572.631 -5.24178 0.18375 0
M  V30 6308 H 574.105 -5.30509 -1.52527 0
M  V30 6309 H 574.582 -3.77166 -2.25039 0
M  V30 6310 H 575.188 -4.20527 -0.63539 0
M  V30 6311 N 573.503 -0.0852151 -1.57369 0
M  V30 6312 C 574.752 0.580443 -1.93168 0
M  V30 6313 C 575.065 1.6995 -0.968319 0
M  V30 6314 O 576.271 2.42564 -1.21963 0
M  V30 6315 C 574.727 1.08386 -3.43192 0
M  V30 6316 C 574.335 -0.00491388 -4.48 0
M  V30 6317 C 576.079 1.72281 -3.87968 0
M  V30 6318 C 573.986 0.513299 -5.89168 0
M  V30 6319 H 572.916 0.22059 -0.72101 0
M  V30 6320 H 575.567 -0.159621 -1.82804 0
M  V30 6321 H 573.949 1.8773 -3.48674 0
M  V30 6322 H 575.123 -0.780032 -4.5415 0
M  V30 6323 H 573.438 -0.548453 -4.12772 0
M  V30 6324 H 576.035 2.12108 -4.9083 0
M  V30 6325 H 576.378 2.58811 -3.26071 0
M  V30 6326 H 576.911 0.995359 -3.85146 0
M  V30 6327 H 573.65 -0.315153 -6.54742 0
M  V30 6328 H 573.17 1.25564 -5.8651 0
M  V30 6329 H 574.849 0.985433 -6.39451 0
M  V30 6330 N 574.981 1.5647 0.188427 0
M  V30 6331 C 575.913 1.91611 1.25769 0
M  V30 6332 C 576.926 0.807436 1.41366 0
M  V30 6333 O 578.115 1.08586 1.41673 0
M  V30 6334 C 575.215 2.13874 2.6289 0
M  V30 6335 C 574.388 3.45047 2.68815 0
M  V30 6336 C 573.447 3.56342 3.87178 0
M  V30 6337 O 572.473 4.29109 3.73971 0
M  V30 6338 N 573.675 2.89924 5.02916 0
M  V30 6339 H 576.44 2.8393 0.959373 0
M  V30 6340 H 574.001 1.57418 0.378306 0
M  V30 6341 H 575.993 2.18713 3.4051 0
M  V30 6342 H 574.563 1.28022 2.85183 0
M  V30 6343 H 573.783 3.52017 1.77419 0
M  V30 6344 H 575.071 4.31395 2.6977 0
M  V30 6345 H 574.469 2.30644 5.16546 0
M  V30 6346 H 573.026 3.0038 5.78459 0
M  V30 6347 N 576.459 -0.456382 1.50847 0
M  V30 6348 C 577.392 -1.57177 1.65441 0
M  V30 6349 C 578.37 -1.54649 0.502224 0
M  V30 6350 O 579.554 -1.74057 0.723633 0
M  V30 6351 C 576.681 -2.95763 1.65052 0
M  V30 6352 C 575.727 -3.16389 2.86007 0
M  V30 6353 S 576.56 -2.94716 4.47105 0
M  V30 6354 C 577.716 -4.35617 4.49432 0
M  V30 6355 H 577.949 -1.44561 2.59787 0
M  V30 6356 H 575.482 -0.644758 1.40293 0
M  V30 6357 H 577.44 -3.75654 1.65512 0
M  V30 6358 H 576.101 -3.05756 0.719153 0
M  V30 6359 H 575.294 -4.17667 2.82081 0
M  V30 6360 H 574.896 -2.44293 2.8319 0
M  V30 6361 H 577.188 -5.28503 4.239 0
M  V30 6362 H 578.131 -4.44582 5.51137 0
M  V30 6363 H 578.539 -4.18382 3.78967 0
M  V30 6364 N 577.937 -1.40673 -0.710563 0
M  V30 6365 C 578.885 -1.41517 -1.84596 0
M  V30 6366 C 579.879 -0.295043 -1.66811 0
M  V30 6367 O 581.085 -0.466331 -1.73854 0
M  V30 6368 H 577.46 -0.442467 -0.608052 0
M  V30 6369 H 579.431 -2.37238 -1.80999 0
M  V30 6370 C 578.18 -1.29957 -3.225 0
M  V30 6371 H 577.503 -2.15429 -3.36794 0
M  V30 6372 H 578.943 -1.34608 -4.02066 0
M  V30 6373 C 577.402 -0.0103164 -3.36898 0
M  V30 6374 O 577.932 0.950707 -3.90288 0
M  V30 6375 N 576.138 0.0608409 -2.90536 0
M  V30 6376 H 575.685 -0.721943 -2.47277 0
M  V30 6377 H 575.643 0.92292 -3.00549 0
M  V30 6378 N 579.415 0.9433 -1.26252 0
M  V30 6379 C 580.363 2.06302 -1.07434 0
M  V30 6380 C 581.357 1.694 -0.00189471 0
M  V30 6381 O 582.563 1.79302 -0.158408 0
M  V30 6382 H 578.938 0.675453 -0.330556 0
M  V30 6383 H 580.909 2.19326 -2.02333 0
M  V30 6384 C 579.658 3.40125 -0.721817 0
M  V30 6385 H 578.981 3.68996 -1.5389 0
M  V30 6386 H 580.421 4.19295 -0.629922 0
M  V30 6387 C 578.88 3.31993 0.572902 0
M  V30 6388 O 579.41 3.67945 1.61182 0
M  V30 6389 N 577.616 2.85099 0.562748 0
M  V30 6390 H 577.163 2.5604 -0.283092 0
M  V30 6391 H 577.121 2.80041 1.42915 0
M  V30 6392 N 580.893 1.08022 1.14757 0
M  V30 6393 C 581.856 0.71048 2.1791 0
M  V30 6394 C 582.856 -0.252731 1.58801 0
M  V30 6395 O 584.046 -0.0327915 1.74169 0
M  V30 6396 C 581.178 0.0483203 3.40866 0
M  V30 6397 H 582.371 1.62384 2.52134 0
M  V30 6398 H 579.924 0.877595 1.29337 0
M  V30 6399 H 580.659 -0.876959 3.12218 0
M  V30 6400 H 580.444 0.741189 3.85031 0
M  V30 6401 H 581.934 -0.195471 4.17142 0
M  V30 6402 N 582.371 -1.3172 0.865308 0
M  V30 6403 C 583.599 -2.01057 0.488251 0
M  V30 6404 C 584.014 -1.64979 -0.918 0
M  V30 6405 O 583.371 -0.876597 -1.60069 0
M  V30 6406 C 583.422 -3.55964 0.630224 0
M  V30 6407 O 583.143 -3.90749 1.98109 0
M  V30 6408 C 584.644 -4.42574 0.253567 0
M  V30 6409 H 581.864 -0.64332 0.190736 0
M  V30 6410 H 584.408 -1.68058 1.16519 0
M  V30 6411 H 582.563 -3.874 0.000895422 0
M  V30 6412 H 582.977 -4.85467 1.9855 0
M  V30 6413 H 584.451 -5.50521 0.403875 0
M  V30 6414 H 584.928 -4.31724 -0.806895 0
M  V30 6415 H 585.534 -4.16547 0.858404 0
M  V30 6416 N 583.85 -0.624285 -1.44708 0
M  V30 6417 C 584.8 0.106466 -2.27751 0
M  V30 6418 C 585.784 0.822703 -1.38277 0
M  V30 6419 O 586.976 0.709939 -1.62138 0
M  V30 6420 C 584.105 1.092 -3.25469 0
M  V30 6421 C 583.191 0.375737 -4.22432 0
M  V30 6422 N 583.582 -0.591881 -5.02325 0
M  V30 6423 C 581.88 0.621093 -4.41654 0
M  V30 6424 C 582.581 -1.01443 -5.72786 0
M  V30 6425 N 581.557 -0.354651 -5.42442 0
M  V30 6426 H 585.359 -0.636464 -2.86926 0
M  V30 6427 H 582.873 -0.44925 -1.56062 0
M  V30 6428 H 584.87 1.63006 -3.83712 0
M  V30 6429 H 583.529 1.8353 -2.67856 0
M  V30 6430 H 584.541 -0.969389 -5.08747 0
M  V30 6431 H 581.218 1.34779 -3.95147 0
M  V30 6432 H 582.608 -1.81345 -6.46965 0
M  V30 6433 N 585.328 1.53329 -0.364422 0
M  V30 6434 C 586.258 2.28627 0.474543 0
M  V30 6435 C 587.239 1.31009 1.08492 0
M  V30 6436 O 588.424 1.59878 1.10239 0
M  V30 6437 C 585.554 3.07465 1.61501 0
M  V30 6438 C 584.508 4.1276 1.13194 0
M  V30 6439 C 583.834 4.79674 2.36255 0
M  V30 6440 C 585.134 5.21847 0.217507 0
M  V30 6441 H 586.828 2.99005 -0.153656 0
M  V30 6442 H 584.374 1.43803 -0.0753406 0
M  V30 6443 H 586.327 3.58889 2.20855 0
M  V30 6444 H 585.051 2.34775 2.27042 0
M  V30 6445 H 583.71 3.62281 0.56109 0
M  V30 6446 H 583.358 4.03557 3.00251 0
M  V30 6447 H 583.058 5.50827 2.04606 0
M  V30 6448 H 584.582 5.33892 2.96297 0
M  V30 6449 H 585.996 5.6878 0.718493 0
M  V30 6450 H 584.393 6.00099 -0.00806408 0
M  V30 6451 H 585.463 4.7921 -0.740653 0
M  V30 6452 N 586.806 0.0935595 1.57322 0
M  V30 6453 C 587.738 -0.895923 2.10964 0
M  V30 6454 C 588.751 -1.24705 1.04654 0
M  V30 6455 O 589.94 -1.20044 1.32105 0
M  V30 6456 C 587.04 -2.20546 2.57318 0
M  V30 6457 C 586.213 -2.0299 3.87445 0
M  V30 6458 C 585.272 -3.17443 4.19662 0
M  V30 6459 O 584.298 -2.91474 4.88909 0
M  V30 6460 N 585.5 -4.43168 3.74943 0
M  V30 6461 H 588.265 -0.437788 2.96485 0
M  V30 6462 H 585.826 -0.0915863 1.61641 0
M  V30 6463 H 587.818 -2.9606 2.75917 0
M  V30 6464 H 586.388 -2.57789 1.76816 0
M  V30 6465 H 585.608 -1.11815 3.78009 0
M  V30 6466 H 586.896 -1.88535 4.7258 0
M  V30 6467 H 586.294 -4.67149 3.19043 0
M  V30 6468 H 584.851 -5.15637 3.987 0
M  V30 6469 N 588.284 -1.56567 -0.180126 0
M  V30 6470 C 589.194 -1.98947 -1.24327 0
M  V30 6471 C 590.21 -0.899446 -1.4895 0
M  V30 6472 O 591.386 -1.20639 -1.61271 0
M  V30 6473 C 588.451 -2.33328 -2.56435 0
M  V30 6474 C 587.512 -3.56114 -2.39752 0
M  V30 6475 C 586.745 -3.88845 -3.65561 0
M  V30 6476 O 586.968 -3.22662 -4.70368 0
M  V30 6477 O 585.902 -4.82226 -3.60197 0
M  V30 6478 H 589.728 -2.89634 -0.913565 0
M  V30 6479 H 587.313 -1.44319 -0.386306 0
M  V30 6480 H 589.195 -2.5645 -3.34382 0
M  V30 6481 H 587.87 -1.45806 -2.89002 0
M  V30 6482 H 586.777 -3.38221 -1.59866 0
M  V30 6483 H 588.11 -4.4415 -2.12113 0
M  V30 6484 N 589.762 0.448376 -1.51087 0
M  V30 6485 C 591.178 0.783984 -1.39017 0
M  V30 6486 C 591.378 1.96087 -0.463904 0
M  V30 6487 O 590.434 2.52357 0.0850534 0
M  V30 6488 C 591.747 1.07471 -2.80839 0
M  V30 6489 C 593.295 1.17981 -2.89913 0
M  V30 6490 C 593.77 1.50354 -4.32617 0
M  V30 6491 N 595.261 1.57301 -4.35673 0
M  V30 6492 C 595.996 1.839 -5.4311 0
M  V30 6493 N 595.492 2.08365 -6.60724 0
M  V30 6494 N 597.285 1.8559 -5.30578 0
M  V30 6495 H 589.436 -0.326881 -2.0987 0
M  V30 6496 H 591.699 -0.0838006 -0.944289 0
M  V30 6497 H 591.405 0.282768 -3.50561 0
M  V30 6498 H 591.279 2.00519 -3.19487 0
M  V30 6499 H 593.666 1.9624 -2.20395 0
M  V30 6500 H 593.747 0.228603 -2.54776 0
M  V30 6501 H 593.391 0.726273 -5.0268 0
M  V30 6502 H 593.321 2.46663 -4.65258 0
M  V30 6503 H 595.812 1.40342 -3.50874 0
M  V30 6504 H 596.125 2.27999 -7.38401 0
M  V30 6505 H 594.47 2.0571 -6.63859 0
M  V30 6506 H 597.661 1.65989 -4.37682 0
M  V30 6507 H 597.834 2.05983 -6.1439 0
M  V30 6508 N 591.24 1.41047 0.703093 0
M  V30 6509 C 592.517 1.30493 1.45708 0
M  V30 6510 C 592.897 -0.0709892 2.10981 0
M  V30 6511 O 592.245 -1.08471 2.01113 0
M  V30 6512 C 592.455 2.45287 2.48265 0
M  V30 6513 C 593.803 2.86104 3.13735 0
M  V30 6514 O 594.827 2.44971 2.58587 0
M  V30 6515 O 593.686 3.57206 4.13601 0
M  V30 6516 H 590.78 0.513144 0.648546 0
M  V30 6517 H 593.326 1.52995 0.734208 0
M  V30 6518 H 592.098 3.37135 1.98635 0
M  V30 6519 H 591.721 2.24622 3.28071 0
M  V30 6520 N 592.718 -0.936591 1.26751 0
M  V30 6521 C 593.628 -2.06949 1.10496 0
M  V30 6522 C 594.644 -1.7396 0.037271 0
M  V30 6523 O 595.82 -1.99941 0.241944 0
M  V30 6524 C 592.885 -3.38612 0.744491 0
M  V30 6525 C 591.946 -3.85355 1.89209 0
M  V30 6526 C 591.179 -5.10735 1.54873 0
M  V30 6527 O 591.402 -5.68602 0.452546 0
M  V30 6528 O 590.336 -5.52632 2.38499 0
M  V30 6529 H 594.162 -2.23571 2.05547 0
M  V30 6530 H 591.747 -1.05428 1.05855 0
M  V30 6531 H 593.629 -4.17711 0.556396 0
M  V30 6532 H 592.304 -3.23218 -0.176582 0
M  V30 6533 H 591.211 -3.07182 2.13518 0
M  V30 6534 H 592.544 -4.05277 2.79305 0
M  V30 6535 N 594.196 -1.08629 -1.14182 0
M  V30 6536 C 595.106 -0.730126 -2.22949 0
M  V30 6537 C 596.122 0.26436 -1.7198 0
M  V30 6538 O 597.298 0.107742 -2.01112 0
M  V30 6539 C 594.363 -0.147227 -3.46387 0
M  V30 6540 C 593.424 -1.19662 -4.12286 0
M  V30 6541 C 592.657 -0.641437 -5.29831 0
M  V30 6542 O 592.88 0.538351 -5.67854 0
M  V30 6543 O 591.814 -1.39257 -5.85569 0
M  V30 6544 H 595.64 -1.63753 -2.55771 0
M  V30 6545 H 593.225 -0.860118 -1.22157 0
M  V30 6546 H 595.107 0.174923 -4.21037 0
M  V30 6547 H 593.782 0.733304 -3.15285 0
M  V30 6548 H 592.689 -1.57133 -3.395 0
M  V30 6549 H 594.022 -2.0495 -4.475 0
M  V30 6550 N 595.674 1.31259 -0.872281 0
M  V30 6551 C 596.904 2.00504 -0.498183 0
M  V30 6552 C 597.312 1.65632 0.914479 0
M  V30 6553 O 596.655 0.882849 1.61095 0
M  V30 6554 C 596.717 3.5482 -0.578194 0
M  V30 6555 C 596.381 4.13172 -1.95289 0
M  V30 6556 C 597.378 4.30107 -2.92069 0
M  V30 6557 C 595.063 4.48846 -2.25483 0
M  V30 6558 C 597.057 4.81908 -4.17185 0
M  V30 6559 C 594.744 5.00349 -3.50847 0
M  V30 6560 C 595.742 5.16831 -4.46514 0
M  V30 6561 O 595.43 5.67228 -5.69656 0
M  V30 6562 H 595.162 0.648055 -0.192354 0
M  V30 6563 H 597.716 1.6841 -1.17589 0
M  V30 6564 H 595.946 3.86383 0.156438 0
M  V30 6565 H 597.635 4.05318 -0.217192 0
M  V30 6566 H 598.401 4.02862 -2.7005 0
M  V30 6567 H 594.28 4.35292 -1.51795 0
M  V30 6568 H 597.824 4.94688 -4.91863 0
M  V30 6569 H 593.721 5.27028 -3.72708 0
M  V30 6570 H 594.489 5.85592 -5.7186 0
M  V30 6571 N 597.152 0.631951 1.44375 0
M  V30 6572 C 598.4 0.136497 2.01639 0
M  V30 6573 C 598.721 -1.24637 1.49969 0
M  V30 6574 O 597.991 -1.82827 0.70363 0
M  V30 6575 H 596.571 0.0474703 0.74549 0
M  V30 6576 H 599.233 0.818837 1.76865 0
M  V30 6577 H 598.329 0.104817 3.11924 0
M  V30 6578 N 598.631 -1.53133 0.372548 0
M  V30 6579 C 599.861 -2.05476 -0.215202 0
M  V30 6580 C 600.269 -1.24534 -1.42436 0
M  V30 6581 O 599.612 -0.280771 -1.81542 0
M  V30 6582 C 599.674 -3.53276 -0.666068 0
M  V30 6583 C 599.338 -4.54998 0.427342 0
M  V30 6584 C 600.335 -5.03911 1.27944 0
M  V30 6585 C 598.02 -4.98828 0.589579 0
M  V30 6586 C 600.014 -5.95263 2.27905 0
M  V30 6587 C 597.701 -5.89984 1.59255 0
M  V30 6588 C 598.699 -6.38093 2.43571 0
M  V30 6589 O 598.387 -7.27451 3.42156 0
M  V30 6590 H 598.119 -0.67481 -0.040099 0
M  V30 6591 H 600.673 -1.98409 0.531312 0
M  V30 6592 H 598.903 -3.57904 -1.4643 0
M  V30 6593 H 600.592 -3.88442 -1.1776 0
M  V30 6594 H 601.358 -4.70792 1.16532 0
M  V30 6595 H 597.237 -4.60965 -0.0569456 0
M  V30 6596 H 600.781 -6.32736 2.93753 0
M  V30 6597 H 596.678 -6.22518 1.70711 0
M  V30 6598 H 597.446 -7.45467 3.37967 0
M  V30 6599 N 600.109 -0.101901 -1.5727 0
M  V30 6600 C 601.019 0.868647 -2.17926 0
M  V30 6601 C 602.035 1.30527 -1.1506 0
M  V30 6602 O 603.211 1.37178 -1.47459 0
M  V30 6603 C 600.276 2.10727 -2.75309 0
M  V30 6604 C 599.337 1.7242 -3.93154 0
M  V30 6605 C 598.57 2.90377 -4.47791 0
M  V30 6606 O 598.793 4.05305 -4.01353 0
M  V30 6607 O 597.727 2.6845 -5.38719 0
M  V30 6608 H 601.553 0.382544 -3.01281 0
M  V30 6609 H 599.138 0.122812 -1.48894 0
M  V30 6610 H 601.02 2.83303 -3.11958 0
M  V30 6611 H 599.695 2.58376 -1.94996 0
M  V30 6612 H 598.602 0.970039 -3.61305 0
M  V30 6613 H 599.935 1.29528 -4.74851 0
M  V30 6614 N 601.587 1.56661 0.17182 0
M  V30 6615 C 602.827 1.83762 0.895029 0
M  V30 6616 C 603.191 0.682752 1.79451 0
M  V30 6617 O 604.392 0.834208 2.55528 0
M  V30 6618 C 602.663 3.15976 1.67015 0
M  V30 6619 S 604.222 3.64558 2.44219 0
M  V30 6620 H 601.04 0.644713 0.299778 0
M  V30 6621 H 603.642 1.94871 0.156701 0
M  V30 6622 H 602.346 3.98021 1.00039 0
M  V30 6623 H 601.877 3.07807 2.44986 0
M  V30 6624 H 603.892 3.31845 3.68909 0
M  V30 6625 N 603.065 -0.440357 1.51323 0
M  V30 6626 C 603.995 -1.54174 1.75364 0
M  V30 6627 C 604.976 -1.59039 0.603375 0
M  V30 6628 O 606.161 -1.74815 0.845774 0
M  V30 6629 C 603.291 -2.92277 1.87593 0
M  V30 6630 C 602.245 -3.02274 3.03009 0
M  V30 6631 C 601.571 -4.42327 3.00418 0
M  V30 6632 C 602.871 -2.76634 4.43024 0
M  V30 6633 H 604.565 -1.34307 2.67585 0
M  V30 6634 H 602.111 -0.644678 1.28763 0
M  V30 6635 H 604.064 -3.69284 2.02995 0
M  V30 6636 H 602.788 -3.13369 0.920179 0
M  V30 6637 H 601.447 -2.27706 2.87307 0
M  V30 6638 H 601.095 -4.60382 2.02626 0
M  V30 6639 H 600.795 -4.49946 3.77918 0
M  V30 6640 H 602.319 -5.21312 3.17909 0
M  V30 6641 H 603.733 -3.43376 4.59093 0
M  V30 6642 H 602.13 -2.95666 5.22208 0
M  V30 6643 H 603.2 -1.72262 4.5327 0
M  V30 6644 N 604.543 -1.41418 -0.695603 0
M  V30 6645 C 605.82 -1.31264 -1.45014 0
M  V30 6646 C 606.2 0.0597994 -2.11015 0
M  V30 6647 O 605.548 1.07403 -2.01685 0
M  V30 6648 C 605.758 -2.466 -2.4696 0
M  V30 6649 C 607.106 -2.87763 -3.12214 0
M  V30 6650 O 608.13 -2.46339 -2.57285 0
M  V30 6651 O 606.989 -3.59395 -4.11701 0
M  V30 6652 H 604.083 -0.516576 -0.645816 0
M  V30 6653 H 606.629 -1.53382 -0.726084 0
M  V30 6654 H 605.401 -3.38183 -1.96845 0
M  V30 6655 H 605.024 -2.26358 -3.26876 0
M  V30 6656 N 606.021 0.929856 -1.27246 0
M  V30 6657 C 607.269 1.674 -1.13233 0
M  V30 6658 C 607.59 1.92311 0.322744 0
M  V30 6659 O 606.86 1.52784 1.22612 0
M  V30 6660 H 605.44 0.620411 -0.416052 0
M  V30 6661 H 608.102 1.11663 -1.59741 0
M  V30 6662 H 607.198 2.64308 -1.65975 0
M  V30 6663 N 607.499 1.09233 1.13605 0
M  V30 6664 C 608.446 0.729921 2.18954 0
M  V30 6665 C 609.416 -0.287916 1.63586 0
M  V30 6666 O 610.601 -0.170003 1.90041 0
M  V30 6667 C 607.741 0.154489 3.44754 0
M  V30 6668 C 606.854 1.22613 4.14234 0
M  V30 6669 C 605.989 0.613657 5.27644 0
M  V30 6670 C 605.028 1.66674 5.8897 0
M  V30 6671 N 604.165 1.07545 6.93814 0
M  V30 6672 H 609.005 1.63257 2.49302 0
M  V30 6673 H 606.542 0.815693 1.22413 0
M  V30 6674 H 608.5 -0.196923 4.16735 0
M  V30 6675 H 607.13 -0.711433 3.14863 0
M  V30 6676 H 606.182 1.69485 3.40557 0
M  V30 6677 H 607.494 2.0238 4.55899 0
M  V30 6678 H 606.648 0.210976 6.06333 0
M  V30 6679 H 605.387 -0.215584 4.87223 0
M  V30 6680 H 604.392 2.07899 5.08978 0
M  V30 6681 H 605.617 2.49861 6.31464 0
M  V30 6682 H 603.563 0.267451 6.55455 0
M  V30 6683 H 603.48 1.81011 7.3401 0
M  V30 6684 H 604.748 0.698906 7.7636 0
M  V30 6685 N 608.977 -1.30795 0.87923 0
M  V30 6686 C 610.254 -1.91145 0.415086 0
M  V30 6687 C 610.634 -1.7995 -1.10368 0
M  V30 6688 O 609.982 -1.21305 -1.93642 0
M  V30 6689 C 610.192 -3.37014 0.906778 0
M  V30 6690 C 611.54 -4.14101 0.938358 0
M  V30 6691 O 612.564 -3.45834 0.853053 0
M  V30 6692 O 611.423 -5.36054 1.06342 0
M  V30 6693 H 608.517 -0.81736 0.125905 0
M  V30 6694 H 611.063 -1.39401 0.967753 0
M  V30 6695 H 609.835 -3.3922 1.95053 0
M  V30 6696 H 609.458 -3.96204 0.332948 0
M  V30 6697 N 610.455 -0.639598 -1.44038 0
M  V30 6698 C 611.695 -0.150902 -2.03842 0
M  V30 6699 C 612.059 1.20744 -1.49281 0
M  V30 6700 O 613.26 1.78875 -2.00642 0
M  V30 6701 C 611.531 -0.146114 -3.57101 0
M  V30 6702 S 613.09 0.276725 -4.37927 0
M  V30 6703 H 609.908 -0.0652447 -0.708 0
M  V30 6704 H 612.51 -0.844886 -1.76301 0
M  V30 6705 H 611.214 -1.13769 -3.94316 0
M  V30 6706 H 610.745 0.568846 -3.89266 0
M  V30 6707 H 612.76 1.51893 -4.7238 0
M  V30 6708 N 611.933 1.52934 -0.380664 0
M  V30 6709 C 612.896 2.24809 0.446473 0
M  V30 6710 C 613.896 1.26133 0.997347 0
M  V30 6711 O 615.086 1.50297 0.880714 0
M  V30 6712 C 612.218 2.99649 1.62553 0
M  V30 6713 H 613.411 2.99343 -0.182677 0
M  V30 6714 H 610.964 1.55736 -0.132618 0
M  V30 6715 H 611.699 2.29395 2.29235 0
M  V30 6716 H 611.484 3.72066 1.23732 0
M  V30 6717 H 612.974 3.54246 2.21133 0
M  V30 6718 N 613.412 0.11024 1.57214 0
M  V30 6719 C 614.637 -0.561179 1.99664 0
M  V30 6720 C 615.062 -1.59985 0.989266 0
M  V30 6721 O 614.42 -1.81255 -0.0402399 0
M  V30 6722 C 614.468 -1.17189 3.41027 0
M  V30 6723 O 613.572 -2.28755 3.4314 0
M  V30 6724 H 612.913 -0.14101 0.648855 0
M  V30 6725 H 615.443 0.196128 2.03658 0
M  V30 6726 H 615.453 -1.50954 3.79047 0
M  V30 6727 H 614.128 -0.411041 4.13864 0
M  V30 6728 H 612.705 -1.96495 3.16929 0
M  V30 6729 N 614.89 -1.56749 -0.16351 0
M  V30 6730 C 616.137 -1.82434 -0.878866 0
M  V30 6731 C 616.465 -0.688557 -1.81904 0
M  V30 6732 O 615.72 0.323644 -1.93005 0
M  V30 6733 C 616.019 -3.14342 -1.70071 0
M  V30 6734 C 615.685 -4.41647 -0.908775 0
M  V30 6735 C 614.347 -4.76224 -0.690236 0
M  V30 6736 C 616.699 -5.19998 -0.353815 0
M  V30 6737 C 614.027 -5.86624 0.0942374 0
M  V30 6738 C 616.379 -6.3122 0.41761 0
M  V30 6739 C 615.043 -6.64358 0.646879 0
M  V30 6740 H 614.313 -0.667574 -0.3216 0
M  V30 6741 H 616.96 -1.90963 -0.14337 0
M  V30 6742 H 615.265 -3.0119 -2.50583 0
M  V30 6743 H 616.962 -3.31426 -2.25738 0
M  V30 6744 H 613.552 -4.1453 -1.08916 0
M  V30 6745 H 617.736 -4.93673 -0.509975 0
M  V30 6746 H 612.992 -6.10751 0.281529 0
M  V30 6747 H 617.166 -6.91133 0.854849 0
M  V30 6748 H 614.793 -7.49742 1.25662 0
M  V30 6749 N 616.368 0.432326 -1.51554 0
M  V30 6750 C 617.615 1.18134 -1.64471 0
M  V30 6751 C 617.943 1.91076 -0.363349 0
M  V30 6752 O 617.198 1.84492 0.65279 0
M  V30 6753 C 617.497 2.21907 -2.80164 0
M  V30 6754 C 617.163 1.65941 -4.19255 0
M  V30 6755 C 615.825 1.50401 -4.57092 0
M  V30 6756 C 618.177 1.24843 -5.06027 0
M  V30 6757 C 615.505 0.922443 -5.79403 0
M  V30 6758 C 617.857 0.68113 -6.28922 0
M  V30 6759 C 616.521 0.512673 -6.65528 0
M  V30 6760 H 615.791 0.432283 -0.601841 0
M  V30 6761 H 618.438 0.471701 -1.856 0
M  V30 6762 H 616.743 2.98928 -2.53277 0
M  V30 6763 H 618.44 2.79691 -2.87357 0
M  V30 6764 H 615.03 1.79014 -3.89425 0
M  V30 6765 H 619.214 1.35667 -4.77397 0
M  V30 6766 H 614.47 0.779733 -6.06408 0
M  V30 6767 H 618.644 0.35418 -6.95499 0
M  V30 6768 H 616.271 0.0599084 -7.60176 0
M  V30 6769 N 617.846 1.41785 0.688094 0
M  V30 6770 C 619.086 1.43018 1.46032 0
M  V30 6771 C 619.45 0.0402632 1.91958 0
M  V30 6772 O 620.651 -0.0726425 2.68702 0
M  V30 6773 C 618.922 2.4151 2.63453 0
M  V30 6774 S 620.481 2.61335 3.5249 0
M  V30 6775 H 617.299 0.506546 0.498931 0
M  V30 6776 H 619.901 1.78283 0.80221 0
M  V30 6777 H 618.605 3.41286 2.27929 0
M  V30 6778 H 618.136 2.07624 3.34149 0
M  V30 6779 H 620.151 1.88637 4.58945 0
M  V30 6780 N 619.324 -0.923095 1.27737 0
M  V30 6781 C 620.564 -1.6858 1.15586 0
M  V30 6782 C 620.928 -1.89758 -0.292562 0
M  V30 6783 O 622.129 -2.6339 -0.536583 0
M  V30 6784 C 620.4 -3.01275 1.92271 0
M  V30 6785 S 621.959 -3.924 1.96387 0
M  V30 6786 H 618.777 -0.579069 0.412554 0
M  V30 6787 H 621.379 -1.09866 1.61709 0
M  V30 6788 H 620.083 -2.83556 2.96689 0
M  V30 6789 H 619.614 -3.6504 1.46661 0
M  V30 6790 H 621.629 -4.84667 1.06361 0
M  V30 6791 N 620.802 -1.09834 -1.13024 0
M  V30 6792 C 622.049 -0.83695 -1.84395 0
M  V30 6793 C 622.377 0.637463 -1.83757 0
M  V30 6794 O 621.632 1.48554 -1.27398 0
M  V30 6795 C 621.931 -1.32263 -3.32026 0
M  V30 6796 C 621.597 -2.80739 -3.52841 0
M  V30 6797 C 620.259 -3.21286 -3.5823 0
M  V30 6798 C 622.611 -3.76449 -3.60466 0
M  V30 6799 C 619.939 -4.56308 -3.68781 0
M  V30 6800 C 622.291 -5.11266 -3.72546 0
M  V30 6801 C 620.955 -5.51397 -3.76189 0
M  V30 6802 H 620.225 -0.306262 -0.674748 0
M  V30 6803 H 622.872 -1.37385 -1.33408 0
M  V30 6804 H 621.177 -0.705618 -3.85394 0
M  V30 6805 H 622.874 -1.09695 -3.85705 0
M  V30 6806 H 619.464 -2.48363 -3.49305 0
M  V30 6807 H 623.648 -3.46234 -3.55578 0
M  V30 6808 H 618.904 -4.86832 -3.69871 0
M  V30 6809 H 623.078 -5.85279 -3.77388 0
M  V30 6810 H 620.705 -6.56017 -3.84117 0
M  V30 6811 N 622.28 1.30327 -0.886154 0
M  V30 6812 C 623.19 2.31854 -0.357866 0
M  V30 6813 C 624.206 1.65392 0.540502 0
M  V30 6814 O 625.382 1.96683 0.433339 0
M  V30 6815 C 622.447 3.44171 0.417999 0
M  V30 6816 C 621.508 4.26257 -0.510263 0
M  V30 6817 C 620.741 5.3321 0.228669 0
M  V30 6818 O 620.964 5.51542 1.45458 0
M  V30 6819 O 619.898 6.0042 -0.421832 0
M  V30 6820 H 623.724 2.78995 -1.19982 0
M  V30 6821 H 621.309 1.34518 -0.650028 0
M  V30 6822 H 623.191 4.12588 0.857251 0
M  V30 6823 H 621.866 2.99164 1.23623 0
M  V30 6824 H 620.773 3.60533 -0.99835 0
M  V30 6825 H 622.106 4.74871 -1.29454 0
M  V30 6826 N 623.758 0.647228 1.43697 0
M  V30 6827 C 625.035 0.0883758 1.954 0
M  V30 6828 C 625.415 -1.39006 1.58873 0
M  V30 6829 O 624.763 -2.11255 0.87083 0
M  V30 6830 C 624.973 0.328263 3.47453 0
M  V30 6831 C 626.321 0.230009 4.23977 0
M  V30 6832 O 627.345 0.260496 3.55246 0
M  V30 6833 O 626.204 0.148615 5.46298 0
M  V30 6834 H 623.298 -0.0130683 0.826897 0
M  V30 6835 H 625.844 0.72005 1.53666 0
M  V30 6836 H 624.616 1.3535 3.67146 0
M  V30 6837 H 624.239 -0.336772 3.96171 0
M  V30 6838 N 625.236 -1.5273 0.388769 0
M  V30 6839 C 626.476 -2.03483 -0.193372 0
M  V30 6840 C 626.84 -1.26897 -1.44087 0
M  V30 6841 O 628.041 -1.67773 -2.10014 0
M  V30 6842 C 626.312 -3.54488 -0.455325 0
M  V30 6843 S 627.871 -4.27069 -1.00783 0
M  V30 6844 H 624.689 -0.708907 -0.0545131 0
M  V30 6845 H 627.291 -1.8798 0.536993 0
M  V30 6846 H 625.995 -4.07817 0.459722 0
M  V30 6847 H 625.526 -3.74196 -1.21413 0
M  V30 6848 H 627.541 -4.40185 -2.29023 0
M  V30 6849 N 626.714 -0.118576 -1.57153 0
M  V30 6850 C 628.13 0.238014 -1.57815 0
M  V30 6851 C 628.33 1.66747 -1.13127 0
M  V30 6852 O 627.386 2.38867 -0.818462 0
M  V30 6853 C 628.699 0.00508207 -3.007 0
M  V30 6854 C 630.247 0.0710139 -3.12919 0
M  V30 6855 C 630.722 -0.13422 -4.57803 0
M  V30 6856 N 632.213 -0.0801755 -4.63131 0
M  V30 6857 C 632.948 -0.213885 -5.73001 0
M  V30 6858 N 632.444 -0.403742 -6.91623 0
M  V30 6859 N 634.237 -0.15349 -5.6189 0
M  V30 6860 H 626.388 -1.05226 -1.84503 0
M  V30 6861 H 628.651 -0.414318 -0.852669 0
M  V30 6862 H 628.357 -0.983125 -3.3768 0
M  V30 6863 H 628.231 0.73714 -3.69927 0
M  V30 6864 H 630.618 1.04975 -2.75798 0
M  V30 6865 H 630.699 -0.692918 -2.46236 0
M  V30 6866 H 630.343 -1.10992 -4.95624 0
M  V30 6867 H 630.273 0.649692 -5.22577 0
M  V30 6868 H 632.764 0.0630689 -3.77847 0
M  V30 6869 H 633.077 -0.496645 -7.71202 0
M  V30 6870 H 631.422 -0.43971 -6.93608 0
M  V30 6871 H 634.613 -0.00613174 -4.681 0
M  V30 6872 H 634.786 -0.261138 -6.47474 0
M  V30 6873 N 628.193 1.56834 0.155195 0
M  V30 6874 C 629.421 1.87049 0.884326 0
M  V30 6875 C 629.836 0.705839 1.7511 0
M  V30 6876 O 629.193 -0.324641 1.79589 0
M  V30 6877 C 629.244 3.1644 1.74781 0
M  V30 6878 O 628.965 4.28417 0.915978 0
M  V30 6879 C 630.466 3.60113 2.58522 0
M  V30 6880 H 627.686 0.620196 0.25612 0
M  V30 6881 H 630.23 2.03946 0.150445 0
M  V30 6882 H 628.385 3.01321 2.43484 0
M  V30 6883 H 628.799 5.02353 1.50803 0
M  V30 6884 H 630.273 4.53508 3.14698 0
M  V30 6885 H 630.75 2.85005 3.34169 0
M  V30 6886 H 631.356 3.77898 1.95124 0
M  V30 6887 N 629.671 -0.424282 1.51781 0
M  V30 6888 C 630.919 -1.17028 1.64769 0
M  V30 6889 C 631.24 -1.91409 0.372523 0
M  V30 6890 O 630.51 -1.86091 -0.612108 0
M  V30 6891 H 629.09 -0.434992 0.607282 0
M  V30 6892 H 631.752 -0.485169 1.88765 0
M  V30 6893 H 630.848 -1.8927 2.4816 0
M  V30 6894 N 631.149 -1.42148 -0.680565 0
M  V30 6895 C 632.112 -1.4488 -1.77602 0
M  V30 6896 C 633.112 -0.337209 -1.57224 0
M  V30 6897 O 634.302 -0.597778 -1.63622 0
M  V30 6898 C 631.434 -1.27483 -3.16166 0
M  V30 6899 H 632.627 -2.42412 -1.76568 0
M  V30 6900 H 630.18 -1.28511 -0.889645 0
M  V30 6901 H 630.915 -0.30851 -3.22829 0
M  V30 6902 H 630.7 -2.08037 -3.3236 0
M  V30 6903 H 632.19 -1.32265 -3.96101 0
M  V30 6904 N 632.627 0.916307 -1.28225 0
M  V30 6905 C 633.873 1.66794 -1.1641 0
M  V30 6906 C 634.228 1.90278 0.284986 0
M  V30 6907 O 633.521 1.49023 1.20427 0
M  V30 6908 C 633.715 3.03125 -1.8934 0
M  V30 6909 C 633.544 2.92947 -3.41192 0
M  V30 6910 C 632.314 2.9461 -4.10528 0
M  V30 6911 C 634.512 2.7121 -4.36978 0
M  V30 6912 N 632.494 2.74993 -5.48864 0
M  V30 6913 C 633.865 2.60411 -5.6266 0
M  V30 6914 C 635.92 2.56187 -4.26934 0
M  V30 6915 C 634.623 2.3612 -6.79441 0
M  V30 6916 C 636.649 2.33275 -5.43449 0
M  V30 6917 C 636.011 2.23228 -6.68093 0
M  V30 6918 H 632.11 0.616654 -0.480896 0
M  V30 6919 H 634.694 1.08237 -1.61842 0
M  V30 6920 H 632.865 3.59774 -1.46346 0
M  V30 6921 H 634.597 3.67294 -1.69932 0
M  V30 6922 H 631.352 3.0527 -3.62087 0
M  V30 6923 H 631.776 2.68284 -6.21573 0
M  V30 6924 H 636.418 2.62707 -3.31278 0
M  V30 6925 H 634.136 2.28339 -7.75169 0
M  V30 6926 H 637.722 2.22519 -5.37565 0
M  V30 6927 H 636.602 2.05741 -7.5673 0
M  V30 6928 N 634.105 1.10431 1.1244 0
M  V30 6929 C 635.521 0.836096 1.35947 0
M  V30 6930 C 635.721 -0.544475 1.94004 0
M  V30 6931 O 634.777 -1.29735 2.16622 0
M  V30 6932 C 636.09 1.93575 2.30107 0
M  V30 6933 C 637.638 1.9642 2.43697 0
M  V30 6934 C 638.113 3.05559 3.41171 0
M  V30 6935 N 639.604 3.04865 3.48728 0
M  V30 6936 C 640.339 3.85954 4.24061 0
M  V30 6937 N 639.835 4.76977 5.02458 0
M  V30 6938 N 641.628 3.74172 4.19466 0
M  V30 6939 H 633.779 1.9942 0.731124 0
M  V30 6940 H 636.042 0.866607 0.384312 0
M  V30 6941 H 635.748 2.92943 1.94621 0
M  V30 6942 H 635.622 1.8229 3.30227 0
M  V30 6943 H 638.009 0.97685 2.78463 0
M  V30 6944 H 638.09 2.11782 1.43465 0
M  V30 6945 H 637.734 4.04513 3.07135 0
M  V30 6946 H 637.664 2.87438 4.41234 0
M  V30 6947 H 640.155 2.38908 2.92799 0
M  V30 6948 H 640.468 5.35409 5.57277 0
M  V30 6949 H 638.813 4.81006 5.01655 0
M  V30 6950 H 642.004 3.02412 3.57302 0
M  V30 6951 H 642.177 4.37602 4.77921 0
M  V30 6952 N 635.583 -1.29855 0.893053 0
M  V30 6953 C 636.533 -2.25493 0.337211 0
M  V30 6954 C 637.517 -1.51606 -0.53894 0
M  V30 6955 O 638.709 -1.72828 -0.382043 0
M  V30 6956 C 635.838 -3.40467 -0.440117 0
M  V30 6957 C 634.924 -4.217 0.450578 0
M  V30 6958 N 635.315 -4.81312 1.55476 0
M  V30 6959 C 633.613 -4.45315 0.247154 0
M  V30 6960 C 634.314 -5.42241 2.10593 0
M  V30 6961 N 633.29 -5.25267 1.39982 0
M  V30 6962 H 637.092 -2.69137 1.18079 0
M  V30 6963 H 634.606 -1.44388 0.743359 0
M  V30 6964 H 636.603 -4.08038 -0.855021 0
M  V30 6965 H 635.263 -2.98361 -1.28104 0
M  V30 6966 H 636.274 -4.80291 1.93755 0
M  V30 6967 H 632.951 -4.13782 -0.555939 0
M  V30 6968 H 634.341 -5.99517 3.03362 0
M  V30 6969 N 637.061 -0.65484 -1.43351 0
M  V30 6970 C 638.309 -0.168559 -2.01396 0
M  V30 6971 C 638.63 1.22235 -1.51933 0
M  V30 6972 O 637.9 1.81685 -0.732627 0
M  V30 6973 H 636.48 -0.0593244 -0.744641 0
M  V30 6974 H 639.142 -0.846871 -1.75539 0
M  V30 6975 H 638.238 -0.154428 -3.11718 0
M  V30 6976 N 638.539 1.52521 -0.396863 0
M  V30 6977 C 639.955 1.5953 -0.0471659 0
M  V30 6978 C 640.155 1.41044 1.43906 0
M  V30 6979 O 639.211 1.23122 2.20448 0
M  V30 6980 C 640.524 2.95972 -0.531113 0
M  V30 6981 C 642.072 3.09172 -0.488024 0
M  V30 6982 C 642.547 4.48075 -0.948281 0
M  V30 6983 N 644.038 4.54281 -0.9046 0
M  V30 6984 C 644.773 5.60007 -1.23205 0
M  V30 6985 N 644.269 6.73343 -1.63036 0
M  V30 6986 N 646.062 5.50151 -1.15282 0
M  V30 6987 H 638.213 1.62786 -1.36435 0
M  V30 6988 H 640.476 0.76514 -0.559701 0
M  V30 6989 H 640.182 3.14741 -1.56942 0
M  V30 6990 H 640.056 3.77143 0.0657922 0
M  V30 6991 H 642.443 2.90095 0.541211 0
M  V30 6992 H 642.524 2.29937 -1.12083 0
M  V30 6993 H 642.168 4.67894 -1.97578 0
M  V30 6994 H 642.098 5.25788 -0.292412 0
M  V30 6995 H 644.589 3.72918 -0.6116 0
M  V30 6996 H 644.902 7.49992 -1.86365 0
M  V30 6997 H 643.247 6.74655 -1.66929 0
M  V30 6998 H 646.438 4.6049 -0.840602 0
M  V30 6999 H 646.611 6.32444 -1.41133 0
M  V30 7000 N 640.017 0.126909 1.57088 0
M  V30 7001 C 641.266 -0.529024 1.94639 0
M  V30 7002 C 641.579 -1.67323 1.01304 0
M  V30 7003 O 642.785 -2.39245 1.28352 0
M  V30 7004 C 641.241 -0.992483 3.45945 0
M  V30 7005 C 640.849 0.123691 4.47829 0
M  V30 7006 C 642.593 -1.61934 3.924 0
M  V30 7007 C 640.5 -0.356911 5.90322 0
M  V30 7008 H 639.43 -0.201397 0.726605 0
M  V30 7009 H 642.081 0.208032 1.82317 0
M  V30 7010 H 640.463 -1.7842 3.53528 0
M  V30 7011 H 641.637 0.900168 4.51922 0
M  V30 7012 H 639.952 0.657699 4.11173 0
M  V30 7013 H 642.549 -1.9902 4.96281 0
M  V30 7014 H 642.892 -2.50075 3.32819 0
M  V30 7015 H 643.425 -0.892894 3.8765 0
M  V30 7016 H 640.164 0.488636 6.53676 0
M  V30 7017 H 639.684 -1.0997 5.89633 0
M  V30 7018 H 641.363 -0.815547 6.41839 0
M  V30 7019 N 641.495 -1.56914 -0.146875 0
M  V30 7020 C 642.445 -1.94693 -1.18653 0
M  V30 7021 C 643.429 -0.81821 -1.38543 0
M  V30 7022 O 644.621 -1.08167 -1.40103 0
M  V30 7023 C 641.75 -2.33117 -2.52014 0
M  V30 7024 C 640.836 -3.5256 -2.35717 0
M  V30 7025 N 641.227 -4.69091 -1.89175 0
M  V30 7026 C 639.525 -3.57647 -2.66467 0
M  V30 7027 C 640.226 -5.51187 -1.85924 0
M  V30 7028 N 639.202 -4.92899 -2.29242 0
M  V30 7029 H 643.004 -2.82264 -0.81879 0
M  V30 7030 H 640.518 -1.58474 -0.354929 0
M  V30 7031 H 642.515 -2.58387 -3.27172 0
M  V30 7032 H 641.175 -1.46898 -2.89571 0
M  V30 7033 H 642.186 -4.92844 -1.59139 0
M  V30 7034 H 638.863 -2.81967 -3.07898 0
M  V30 7035 H 640.253 -6.54613 -1.51431 0
M  V30 7036 N 642.974 0.416227 -1.52004 0
M  V30 7037 C 644.223 1.16088 -1.64944 0
M  V30 7038 C 644.536 1.91835 -0.381928 0
M  V30 7039 O 645.742 2.6867 -0.391013 0
M  V30 7040 C 644.198 2.1124 -2.91386 0
M  V30 7041 C 643.806 1.41042 -4.25219 0
M  V30 7042 C 645.55 2.86008 -3.13688 0
M  V30 7043 C 643.457 2.34801 -5.42791 0
M  V30 7044 H 642.387 0.437041 -0.61442 0
M  V30 7045 H 645.038 0.425971 -1.78487 0
M  V30 7046 H 643.42 2.88254 -2.71525 0
M  V30 7047 H 644.594 0.694416 -4.55538 0
M  V30 7048 H 642.909 0.78344 -4.08964 0
M  V30 7049 H 645.506 3.56286 -3.98703 0
M  V30 7050 H 645.849 3.48556 -2.27628 0
M  V30 7051 H 646.382 2.16095 -3.33988 0
M  V30 7052 H 643.121 1.7691 -6.31176 0
M  V30 7053 H 642.641 3.04395 -5.16821 0
M  V30 7054 H 644.32 2.9548 -5.75587 0
M  V30 7055 N 644.452 1.42507 0.673017 0
M  V30 7056 C 645.868 1.25472 0.986355 0
M  V30 7057 C 646.068 0.160181 2.00862 0
M  V30 7058 O 645.124 -0.467993 2.48125 0
M  V30 7059 C 646.437 2.61219 1.48947 0
M  V30 7060 C 647.985 2.68589 1.60715 0
M  V30 7061 C 648.46 4.04707 2.14422 0
M  V30 7062 N 649.951 4.0667 2.21752 0
M  V30 7063 C 650.686 5.0881 2.64386 0
M  V30 7064 N 650.182 6.21332 3.0646 0
M  V30 7065 N 651.975 4.96166 2.64151 0
M  V30 7066 H 644.126 2.124 -0.00378532 0
M  V30 7067 H 646.389 0.946046 0.0608367 0
M  V30 7068 H 646.095 3.42179 0.812812 0
M  V30 7069 H 645.969 2.85261 2.46791 0
M  V30 7070 H 648.356 1.87974 2.27486 0
M  V30 7071 H 648.437 2.48333 0.613552 0
M  V30 7072 H 648.081 4.8578 1.48258 0
M  V30 7073 H 648.011 4.22315 3.14575 0
M  V30 7074 H 650.502 3.25438 1.92089 0
M  V30 7075 H 650.815 6.95118 3.37684 0
M  V30 7076 H 649.16 6.24835 3.04313 0
M  V30 7077 H 652.351 4.07334 2.30644 0
M  V30 7078 H 652.524 5.759 2.97057 0
M  V30 7079 N 645.93 -0.909495 1.28709 0
M  V30 7080 C 647.179 -1.65365 1.15487 0
M  V30 7081 C 647.492 -1.93364 -0.294941 0
M  V30 7082 O 648.698 -2.65905 -0.548338 0
M  V30 7083 C 647.154 -2.97923 2.01916 0
M  V30 7084 C 646.762 -2.77556 3.51663 0
M  V30 7085 C 648.506 -3.75814 1.97393 0
M  V30 7086 C 646.413 -4.0578 4.30229 0
M  V30 7087 H 645.343 -0.620323 0.42862 0
M  V30 7088 H 647.994 -1.00894 1.53273 0
M  V30 7089 H 646.376 -3.63552 1.5699 0
M  V30 7090 H 647.55 -2.2058 4.04575 0
M  V30 7091 H 645.865 -2.13072 3.57756 0
M  V30 7092 H 648.462 -4.70866 2.53357 0
M  V30 7093 H 648.805 -4.05277 0.951643 0
M  V30 7094 H 649.338 -3.1701 2.40311 0
M  V30 7095 H 646.077 -3.81488 5.33055 0
M  V30 7096 H 645.597 -4.62351 3.82089 0
M  V30 7097 H 647.276 -4.74004 4.40374 0
M  V30 7098 N 647.408 -1.11026 -1.11852 0
M  V30 7099 C 648.371 -0.768006 -2.1595 0
M  V30 7100 C 649.371 0.210538 -1.59416 0
M  V30 7101 O 650.561 -0.0133978 -1.74195 0
M  V30 7102 C 647.693 -0.138678 -3.40618 0
M  V30 7103 H 648.886 -1.69012 -2.4774 0
M  V30 7104 H 646.439 -0.911578 -1.26964 0
M  V30 7105 H 647.174 0.793872 -3.14433 0
M  V30 7106 H 646.959 -0.843012 -3.8293 0
M  V30 7107 H 648.449 0.0848039 -4.17514 0
M  V30 7108 N 648.886 1.2938 -0.899927 0
M  V30 7109 C 649.833 2.27713 -0.376243 0
M  V30 7110 C 650.803 1.57016 0.541774 0
M  V30 7111 O 651.988 1.84997 0.466966 0
M  V30 7112 C 649.128 3.42889 0.39 0
M  V30 7113 C 648.241 4.28369 -0.558938 0
M  V30 7114 C 647.376 5.30726 0.224379 0
M  V30 7115 C 646.415 6.07862 -0.719068 0
M  V30 7116 N 645.552 7.02094 0.0298569 0
M  V30 7117 H 650.392 2.71888 -1.21988 0
M  V30 7118 H 647.929 1.33724 -0.612879 0
M  V30 7119 H 649.887 4.08443 0.850314 0
M  V30 7120 H 648.517 2.99743 1.19809 0
M  V30 7121 H 647.569 3.62986 -1.13777 0
M  V30 7122 H 648.881 4.82068 -1.2811 0
M  V30 7123 H 648.035 6.02098 0.745881 0
M  V30 7124 H 646.774 4.77759 0.979674 0
M  V30 7125 H 645.779 5.35353 -1.25207 0
M  V30 7126 H 647.004 6.62917 -1.4737 0
M  V30 7127 H 644.95 6.51496 0.767415 0
M  V30 7128 H 644.867 7.5335 -0.632391 0
M  V30 7129 H 646.135 7.77685 0.531615 0
M  V30 7130 N 650.364 0.662433 1.43002 0
M  V30 7131 C 651.297 -0.073459 2.28082 0
M  V30 7132 C 652.275 -0.820869 1.40358 0
M  V30 7133 O 653.459 -0.818545 1.698 0
M  V30 7134 C 650.586 -1.11097 3.19961 0
M  V30 7135 C 649.632 -0.460557 4.24006 0
M  V30 7136 S 650.465 0.772717 5.29896 0
M  V30 7137 C 651.621 -0.264028 6.25343 0
M  V30 7138 H 651.854 0.648227 2.90147 0
M  V30 7139 H 649.387 0.451566 1.47649 0
M  V30 7140 H 651.345 -1.70452 3.73439 0
M  V30 7141 H 650.006 -1.80503 2.57056 0
M  V30 7142 H 649.199 -1.24299 4.88432 0
M  V30 7143 H 648.801 0.0591038 3.73953 0
M  V30 7144 H 651.093 -1.12748 6.68052 0
M  V30 7145 H 652.036 0.345443 7.07257 0
M  V30 7146 H 652.444 -0.603964 5.6126 0
M  V30 7147 N 651.842 -1.52309 0.404946 0
M  V30 7148 C 653.119 -1.94237 -0.230544 0
M  V30 7149 C 653.499 -1.34154 -1.6299 0
M  V30 7150 O 652.847 -0.515713 -2.22604 0
M  V30 7151 C 653.057 -3.48166 -0.241106 0
M  V30 7152 C 654.405 -4.22074 -0.462488 0
M  V30 7153 O 655.429 -3.54754 -0.320644 0
M  V30 7154 O 654.288 -5.41443 -0.741708 0
M  V30 7155 H 651.382 -0.813766 -0.147358 0
M  V30 7156 H 653.928 -1.6333 0.460587 0
M  V30 7157 H 652.7 -3.84269 0.738467 0
M  V30 7158 H 652.323 -3.85422 -0.97651 0
M  V30 7159 N 653.32 -0.135238 -1.57019 0
M  V30 7160 C 654.545 0.529343 -2.00531 0
M  V30 7161 C 654.97 1.58391 -1.01459 0
M  V30 7162 O 654.328 1.81296 0.0113986 0
M  V30 7163 C 654.376 1.11748 -3.42848 0
M  V30 7164 O 653.48 2.23267 -3.46736 0
M  V30 7165 H 652.821 0.130669 -0.651016 0
M  V30 7166 H 655.351 -0.228503 -2.0332 0
M  V30 7167 H 655.361 1.44905 -3.81401 0
M  V30 7168 H 654.036 0.345147 -4.14465 0
M  V30 7169 H 652.613 1.91428 -3.20015 0
M  V30 7170 N 654.798 1.5699 0.138552 0
M  V30 7171 C 656.028 1.87704 0.863184 0
M  V30 7172 C 656.436 0.722411 1.74865 0
M  V30 7173 O 655.779 -0.316636 1.80951 0
M  V30 7174 C 655.841 3.13219 1.76449 0
M  V30 7175 C 655.505 4.44648 1.05532 0
M  V30 7176 C 656.502 5.18318 0.405252 0
M  V30 7177 C 654.187 4.91367 1.04231 0
M  V30 7178 C 656.181 6.36916 -0.24835 0
M  V30 7179 C 653.868 6.09887 0.384904 0
M  V30 7180 C 654.866 6.82508 -0.259292 0
M  V30 7181 O 654.554 7.98775 -0.906258 0
M  V30 7182 H 654.286 0.626255 0.254521 0
M  V30 7183 H 656.84 2.04966 0.133472 0
M  V30 7184 H 655.07 2.91988 2.53535 0
M  V30 7185 H 656.759 3.30111 2.36181 0
M  V30 7186 H 657.525 4.83289 0.407053 0
M  V30 7187 H 653.404 4.34759 1.53315 0
M  V30 7188 H 656.948 6.93538 -0.751755 0
M  V30 7189 H 652.845 6.44376 0.380799 0
M  V30 7190 H 653.613 8.14494 -0.80877 0
M  V30 7191 N 656.276 -0.40816 1.52223 0
M  V30 7192 C 657.239 -1.48 1.7501 0
M  V30 7193 C 658.239 -1.48367 0.619996 0
M  V30 7194 O 659.429 -1.49874 0.887881 0
M  V30 7195 C 656.561 -2.87403 1.83336 0
M  V30 7196 H 657.754 -1.29086 2.70697 0
M  V30 7197 H 655.307 -0.638715 1.42654 0
M  V30 7198 H 656.042 -3.11686 0.895677 0
M  V30 7199 H 655.827 -2.8854 2.65494 0
M  V30 7200 H 657.317 -3.65103 2.02705 0
M  V30 7201 N 657.755 -1.42862 -0.66545 0
M  V30 7202 C 659.171 -1.25993 -0.979687 0
M  V30 7203 C 659.371 -0.170831 -2.00775 0
M  V30 7204 O 658.427 0.454827 -2.4837 0
M  V30 7205 C 659.74 -2.62005 -1.47559 0
M  V30 7206 C 661.288 -2.69437 -1.59288 0
M  V30 7207 C 661.763 -4.05838 -2.12272 0
M  V30 7208 N 663.254 -4.0784 -2.19592 0
M  V30 7209 C 663.989 -5.10205 -2.61684 0
M  V30 7210 N 663.485 -6.22949 -3.03161 0
M  V30 7211 N 665.278 -4.9756 -2.61516 0
M  V30 7212 H 657.429 -2.12395 0.0150493 0
M  V30 7213 H 659.692 -0.946355 -0.0558187 0
M  V30 7214 H 659.398 -3.42605 -0.794654 0
M  V30 7215 H 659.272 -2.86566 -2.45275 0
M  V30 7216 H 661.659 -1.89178 -2.26486 0
M  V30 7217 H 661.74 -2.48655 -0.600374 0
M  V30 7218 H 661.384 -4.86559 -1.4568 0
M  V30 7219 H 661.314 -4.23977 -3.12331 0
M  V30 7220 H 663.805 -3.26452 -1.90361 0
M  V30 7221 H 664.118 -6.96899 -3.33993 0
M  V30 7222 H 662.463 -6.2644 -3.00995 0
M  V30 7223 H 665.654 -4.08551 -2.28481 0
M  V30 7224 H 665.827 -5.77468 -2.93999 0
M  V30 7225 N 659.233 0.902656 -1.29189 0
M  V30 7226 C 660.482 1.6475 -1.16362 0
M  V30 7227 C 660.795 1.93517 0.284682 0
M  V30 7228 O 662.001 2.66192 0.534229 0
M  V30 7229 C 660.457 2.96848 -2.03493 0
M  V30 7230 C 660.065 2.75687 -3.5313 0
M  V30 7231 C 661.809 3.74762 -1.99383 0
M  V30 7232 C 659.716 4.03492 -4.32375 0
M  V30 7233 H 658.646 0.618041 -0.431904 0
M  V30 7234 H 661.297 1.0008 -1.53806 0
M  V30 7235 H 659.679 3.62715 -1.58916 0
M  V30 7236 H 660.853 2.18431 -4.05739 0
M  V30 7237 H 659.168 2.11171 -3.58881 0
M  V30 7238 H 661.765 4.69515 -2.5585 0
M  V30 7239 H 662.108 4.04767 -0.973123 0
M  V30 7240 H 662.641 3.15732 -2.41988 0
M  V30 7241 H 659.38 3.78656 -5.3507 0
M  V30 7242 H 658.9 4.60318 -3.84535 0
M  V30 7243 H 660.579 4.71662 -4.42881 0
M  V30 7244 N 660.711 1.11618 1.11262 0
M  V30 7245 C 661.958 0.86618 1.8304 0
M  V30 7246 C 662.286 -0.608149 1.84748 0
M  V30 7247 O 661.541 -1.46508 1.29745 0
M  V30 7248 C 661.84 1.37529 3.2988 0
M  V30 7249 C 661.506 2.86317 3.4833 0
M  V30 7250 C 660.168 3.26945 3.53073 0
M  V30 7251 C 662.52 3.82136 3.54431 0
M  V30 7252 C 659.848 4.62117 3.61475 0
M  V30 7253 C 662.2 5.17128 3.64365 0
M  V30 7254 C 660.864 5.57312 3.67369 0
M  V30 7255 H 660.134 0.316958 0.66979 0
M  V30 7256 H 662.781 1.3949 1.31205 0
M  V30 7257 H 661.086 0.766842 3.84222 0
M  V30 7258 H 662.783 1.15817 3.83911 0
M  V30 7259 H 659.373 2.53889 3.45309 0
M  V30 7260 H 663.557 3.51847 3.50025 0
M  V30 7261 H 658.813 4.92655 3.62079 0
M  V30 7262 H 662.987 5.91208 3.68029 0
M  V30 7263 H 660.614 6.62045 3.73632 0
M  V30 7264 N 662.189 -1.289 0.906776 0
M  V30 7265 C 663.436 -1.95269 0.536326 0
M  V30 7266 C 663.764 -1.71435 -0.918711 0
M  V30 7267 O 663.019 -1.02431 -1.66752 0
M  V30 7268 C 663.318 -3.48704 0.783617 0
M  V30 7269 C 662.984 -3.92626 2.21711 0
M  V30 7270 C 661.646 -4.04329 2.60906 0
M  V30 7271 C 663.998 -4.15218 3.15029 0
M  V30 7272 C 661.326 -4.35998 3.92584 0
M  V30 7273 C 663.678 -4.48365 4.46264 0
M  V30 7274 C 662.342 -4.58278 4.85322 0
M  V30 7275 H 661.612 -0.714538 0.196256 0
M  V30 7276 H 664.259 -1.53366 1.14678 0
M  V30 7277 H 662.564 -3.91696 0.0903048 0
M  V30 7278 H 664.261 -3.98162 0.476267 0
M  V30 7279 H 660.851 -3.84038 1.90296 0
M  V30 7280 H 665.035 -4.05636 2.8596 0
M  V30 7281 H 660.291 -4.41878 4.22557 0
M  V30 7282 H 664.465 -4.64795 5.18593 0
M  V30 7283 H 662.092 -4.82573 5.87391 0
M  V30 7284 N 663.667 -0.670007 -1.42649 0
M  V30 7285 C 665.078 -0.268118 -1.84765 0
M  V30 7286 C 665.429 1.18877 -1.56086 0
M  V30 7287 O 664.554 1.90947 -1.01825 0
M  V30 7288 C 665.149 -0.47984 -3.35385 0
M  V30 7289 C 663.708 -0.132116 -3.76168 0
M  V30 7290 C 662.855 -0.774611 -2.66261 0
M  V30 7291 H 665.806 -0.872509 -1.32563 0
M  V30 7292 H 665.827 0.269522 -3.79544 0
M  V30 7293 H 665.339 -1.54026 -3.56227 0
M  V30 7294 H 663.44 0.92505 -3.60934 0
M  V30 7295 H 663.553 -0.569294 -4.75706 0
M  V30 7296 H 661.917 -0.206353 -2.53863 0
M  V30 7297 H 662.7 -1.83839 -2.89928 0
M  V30 7298 N 665.145 1.52092 -0.413018 0
M  V30 7299 C 666.373 2.06274 0.160881 0
M  V30 7300 C 666.788 1.28273 1.38533 0
M  V30 7301 O 666.145 0.33563 1.79387 0
M  V30 7302 C 666.196 3.57921 0.507443 0
M  V30 7303 O 665.917 4.32971 -0.668388 0
M  V30 7304 C 667.418 4.28533 1.13465 0
M  V30 7305 H 664.638 0.67074 0.0186759 0
M  V30 7306 H 667.182 1.95951 -0.585092 0
M  V30 7307 H 665.337 3.68238 1.20331 0
M  V30 7308 H 665.751 5.23135 -0.378169 0
M  V30 7309 H 667.225 5.35804 1.32732 0
M  V30 7310 H 667.702 3.85258 2.10886 0
M  V30 7311 H 668.308 4.22595 0.478876 0
M  V30 7312 N 666.623 0.143563 1.56945 0
M  V30 7313 C 667.586 -0.783295 2.154 0
M  V30 7314 C 668.586 -1.17763 1.09492 0
M  V30 7315 O 669.776 -1.09912 1.35148 0
M  V30 7316 C 666.908 -2.06248 2.7143 0
M  V30 7317 H 668.101 -0.274863 2.98638 0
M  V30 7318 H 665.654 -0.105859 1.55941 0
M  V30 7319 H 666.389 -2.61466 1.91849 0
M  V30 7320 H 666.174 -1.78897 3.4891 0
M  V30 7321 H 667.664 -2.72453 3.16479 0
M  V30 7322 N 668.101 -1.57061 -0.130224 0
M  V30 7323 C 669.348 -1.84257 -0.839972 0
M  V30 7324 C 669.676 -0.726986 -1.80403 0
M  V30 7325 O 668.931 0.282632 -1.93648 0
M  V30 7326 C 669.23 -3.17878 -1.63365 0
M  V30 7327 C 668.896 -4.43475 -0.814891 0
M  V30 7328 C 667.558 -4.77581 -0.589066 0
M  V30 7329 C 669.91 -5.20631 -0.243437 0
M  V30 7330 C 667.238 -5.86292 0.218648 0
M  V30 7331 C 669.59 -6.30192 0.551408 0
M  V30 7332 C 668.254 -6.62837 0.787653 0
M  V30 7333 H 667.524 -0.674245 -0.307367 0
M  V30 7334 H 670.171 -1.91224 -0.102832 0
M  V30 7335 H 668.476 -3.06437 -2.44138 0
M  V30 7336 H 670.173 -3.3614 -2.18658 0
M  V30 7337 H 666.763 -4.16747 -1.00098 0
M  V30 7338 H 670.947 -4.94644 -0.405145 0
M  V30 7339 H 666.203 -6.10017 0.411016 0
M  V30 7340 H 670.377 -6.89165 1.00126 0
M  V30 7341 H 668.004 -7.46908 1.41537 0
M  V30 7342 N 669.579 0.400081 -1.52437 0
M  V30 7343 C 670.819 1.15526 -1.68622 0
M  V30 7344 C 671.183 1.87533 -0.411744 0
M  V30 7345 O 672.384 2.6501 -0.449804 0
M  V30 7346 C 670.655 2.11618 -2.88015 0
M  V30 7347 S 672.214 2.95121 -3.24729 0
M  V30 7348 H 669.032 0.39123 -0.593683 0
M  V30 7349 H 671.634 0.441255 -1.90455 0
M  V30 7350 H 670.338 1.5742 -3.79008 0
M  V30 7351 H 669.869 2.87544 -2.68481 0
M  V30 7352 H 671.884 4.13653 -2.74055 0
M  V30 7353 N 671.057 1.43213 0.657864 0
M  V30 7354 C 671.987 1.50815 1.78262 0
M  V30 7355 C 672.968 0.363211 1.66177 0
M  V30 7356 O 674.153 0.579806 1.85343 0
M  V30 7357 C 671.283 1.42625 3.16663 0
M  V30 7358 C 670.237 2.5532 3.43505 0
M  V30 7359 C 669.563 2.32184 4.81658 0
M  V30 7360 C 670.863 3.97583 3.38711 0
M  V30 7361 H 672.557 2.44954 1.72157 0
M  V30 7362 H 670.103 1.17896 0.82683 0
M  V30 7363 H 672.056 1.46548 3.95097 0
M  V30 7364 H 670.78 0.449877 3.23487 0
M  V30 7365 H 669.439 2.50742 2.6744 0
M  V30 7366 H 669.087 1.32801 4.85153 0
M  V30 7367 H 668.787 3.07724 5.00579 0
M  V30 7368 H 670.311 2.37883 5.62356 0
M  V30 7369 H 671.725 4.03673 4.07089 0
M  V30 7370 H 670.122 4.73112 3.69168 0
M  V30 7371 H 671.192 4.23049 2.36976 0
M  V30 7372 N 672.536 -0.895792 1.29666 0
M  V30 7373 C 673.783 -1.64664 1.17864 0
M  V30 7374 C 674.111 -1.92631 -0.26902 0
M  V30 7375 O 673.366 -1.53787 -1.21029 0
M  V30 7376 C 673.665 -3.00075 1.94139 0
M  V30 7377 C 673.331 -2.91702 3.43833 0
M  V30 7378 C 671.993 -2.89126 3.84656 0
M  V30 7379 C 674.345 -2.80622 4.39205 0
M  V30 7380 C 671.673 -2.73293 5.1916 0
M  V30 7381 C 674.025 -2.66329 5.73805 0
M  V30 7382 C 672.689 -2.62121 6.1388 0
M  V30 7383 H 671.959 -0.602549 0.431295 0
M  V30 7384 H 674.606 -1.04234 1.60648 0
M  V30 7385 H 672.911 -3.64394 1.43958 0
M  V30 7386 H 674.608 -3.57111 1.82408 0
M  V30 7387 H 671.198 -2.94511 3.11386 0
M  V30 7388 H 675.382 -2.81686 4.08615 0
M  V30 7389 H 670.638 -2.68443 5.49316 0
M  V30 7390 H 674.812 -2.56727 6.47352 0
M  V30 7391 H 672.439 -2.49611 7.18052 0
M  V30 7392 N 674.014 -1.12206 -1.10668 0
M  V30 7393 C 674.962 -0.782918 -2.19028 0
M  V30 7394 C 675.956 0.229175 -1.67843 0
M  V30 7395 O 677.162 0.0876295 -1.79787 0
M  V30 7396 H 673.537 -0.235339 -0.714227 0
M  V30 7397 H 675.508 -1.70527 -2.44874 0
M  V30 7398 C 674.257 -0.25116 -3.46792 0
M  V30 7399 H 673.58 -1.02123 -3.86537 0
M  V30 7400 H 675.02 -0.0521409 -4.23968 0
M  V30 7401 C 673.479 1.02037 -3.21076 0
M  V30 7402 O 674.009 2.09862 -3.42522 0
M  V30 7403 N 672.215 0.946348 -2.74759 0
M  V30 7404 H 671.762 0.068777 -2.57508 0
M  V30 7405 H 671.72 1.79775 -2.57931 0
M  V30 7406 N 675.492 1.28418 -0.913599 0
M  V30 7407 C 676.422 2.29713 -0.418847 0
M  V30 7408 C 677.403 1.62165 0.513469 0
M  V30 7409 O 678.588 1.89576 0.421235 0
M  V30 7410 C 675.718 3.45612 0.342042 0
M  V30 7411 C 674.672 4.25056 -0.501123 0
M  V30 7412 C 673.998 5.3329 0.388097 0
M  V30 7413 C 675.298 4.91814 -1.75831 0
M  V30 7414 H 676.992 2.71346 -1.26538 0
M  V30 7415 H 674.538 1.30446 -0.609903 0
M  V30 7416 H 676.491 4.15562 0.699 0
M  V30 7417 H 675.215 3.02858 1.22248 0
M  V30 7418 H 673.874 3.56833 -0.840598 0
M  V30 7419 H 673.522 4.8678 1.26707 0
M  V30 7420 H 673.222 5.87347 -0.172459 0
M  V30 7421 H 674.746 6.06088 0.74094 0
M  V30 7422 H 676.16 5.54126 -1.47026 0
M  V30 7423 H 674.557 5.55866 -2.26126 0
M  V30 7424 H 675.627 4.16313 -2.4862 0
M  V30 7425 N 676.97 0.677563 1.42291 0
M  V30 7426 C 678.216 0.201272 2.01799 0
M  V30 7427 C 678.549 -1.19004 1.53465 0
M  V30 7428 O 677.824 -1.79953 0.738039 0
M  V30 7429 C 678.107 0.238968 3.59306 0
M  V30 7430 C 677.96 1.66594 4.17812 0
M  V30 7431 C 679.279 -0.411287 4.38174 0
M  V30 7432 H 676.398 0.0746114 0.733214 0
M  V30 7433 H 679.04 0.862872 1.69276 0
M  V30 7434 H 677.19 -0.324368 3.87144 0
M  V30 7435 H 678.862 2.28173 4.00917 0
M  V30 7436 H 677.105 2.20576 3.73536 0
M  V30 7437 H 677.776 1.64398 5.26951 0
M  V30 7438 H 680.252 0.0682804 4.16044 0
M  V30 7439 H 679.128 -0.354286 5.47755 0
M  V30 7440 H 679.389 -1.4893 4.1626 0
M  V30 7441 N 678.448 -1.51871 0.421078 0
M  V30 7442 C 679.678 -2.06057 -0.149723 0
M  V30 7443 C 680.086 -1.29002 -1.38402 0
M  V30 7444 O 679.429 -0.338385 -1.80556 0
M  V30 7445 C 679.491 -3.55216 -0.553339 0
M  V30 7446 C 679.155 -4.53408 0.571879 0
M  V30 7447 C 680.152 -4.99586 1.4391 0
M  V30 7448 C 677.837 -4.967 0.747979 0
M  V30 7449 C 679.831 -5.87711 2.46727 0
M  V30 7450 C 677.518 -5.84619 1.77944 0
M  V30 7451 C 678.516 -6.30021 2.63748 0
M  V30 7452 O 678.204 -7.16197 3.65126 0
M  V30 7453 H 677.936 -0.675744 -0.0186102 0
M  V30 7454 H 680.49 -1.96618 0.594166 0
M  V30 7455 H 678.72 -3.62381 -1.34969 0
M  V30 7456 H 680.409 -3.91992 -1.05342 0
M  V30 7457 H 681.175 -4.66846 1.31451 0
M  V30 7458 H 677.054 -4.60913 0.0897357 0
M  V30 7459 H 680.598 -6.2307 3.13734 0
M  V30 7460 H 676.495 -6.16771 1.90429 0
M  V30 7461 H 677.263 -7.34337 3.61512 0
M  V30 7462 N 679.926 -0.151884 -1.56866 0
M  V30 7463 C 681.172 0.492327 -1.97352 0
M  V30 7464 C 681.527 1.62156 -1.03553 0
M  V30 7465 O 680.82 1.91467 -0.0714872 0
M  V30 7466 C 681.014 1.04074 -3.41911 0
M  V30 7467 C 680.843 -0.0338306 -4.49687 0
M  V30 7468 C 679.613 -0.476914 -5.03044 0
M  V30 7469 C 681.811 -0.827105 -5.07606 0
M  V30 7470 N 679.793 -1.53382 -5.9443 0
M  V30 7471 C 681.164 -1.73439 -5.95247 0
M  V30 7472 C 683.219 -0.874351 -4.90163 0
M  V30 7473 C 681.922 -2.68488 -6.67313 0
M  V30 7474 C 683.948 -1.81269 -5.62935 0
M  V30 7475 C 683.31 -2.70749 -6.50288 0
M  V30 7476 H 679.409 0.148822 -0.767708 0
M  V30 7477 H 681.993 -0.247615 -1.93119 0
M  V30 7478 H 680.164 1.75027 -3.46728 0
M  V30 7479 H 681.896 1.65197 -3.69448 0
M  V30 7480 H 678.651 -0.0782493 -4.73535 0
M  V30 7481 H 679.075 -2.06217 -6.44828 0
M  V30 7482 H 683.717 -0.196628 -4.22343 0
M  V30 7483 H 681.435 -3.37257 -7.34359 0
M  V30 7484 H 685.021 -1.85511 -5.51432 0
M  V30 7485 H 683.901 -3.42175 -7.0561 0
M  V30 7486 N 681.404 1.57128 0.121893 0
M  V30 7487 C 682.65 1.84974 0.831418 0
M  V30 7488 C 682.983 0.737204 1.79663 0
M  V30 7489 O 682.258 -0.257199 1.92792 0
M  V30 7490 C 682.541 3.23397 1.58386 0
M  V30 7491 C 682.394 4.45246 0.638445 0
M  V30 7492 C 683.713 3.59355 2.54071 0
M  V30 7493 H 680.832 0.67282 0.300803 0
M  V30 7494 H 683.474 1.89759 0.0957587 0
M  V30 7495 H 681.624 3.19449 2.21098 0
M  V30 7496 H 683.296 4.61295 0.0203925 0
M  V30 7497 H 681.539 4.33771 -0.05023 0
M  V30 7498 H 682.21 5.38765 1.20151 0
M  V30 7499 H 684.686 3.64075 2.01465 0
M  V30 7500 H 683.562 4.57193 3.03752 0
M  V30 7501 H 683.823 2.86622 3.36601 0
M  V30 7502 N 682.882 -0.391992 1.52647 0
M  V30 7503 C 684.107 -1.16312 1.71716 0
M  V30 7504 C 684.532 -1.83042 0.433279 0
M  V30 7505 O 683.89 -1.70705 -0.610707 0
M  V30 7506 C 683.938 -2.18908 2.86551 0
M  V30 7507 O 683.042 -3.2543 2.53316 0
M  V30 7508 H 682.383 -0.338743 0.571095 0
M  V30 7509 H 684.913 -0.457202 1.99426 0
M  V30 7510 H 684.923 -2.62954 3.1196 0
M  V30 7511 H 683.598 -1.69726 3.79692 0
M  V30 7512 H 682.175 -2.86543 2.38637 0
M  V30 7513 N 684.36 -1.4356 -0.65026 0
M  V30 7514 C 685.59 -1.48563 -1.4357 0
M  V30 7515 C 685.998 -0.103041 -1.88919 0
M  V30 7516 O 685.341 0.897602 -1.60277 0
M  V30 7517 C 685.403 -2.37181 -2.70158 0
M  V30 7518 C 685.067 -3.84673 -2.4673 0
M  V30 7519 C 686.064 -4.75704 -2.09765 0
M  V30 7520 C 683.749 -4.29189 -2.60963 0
M  V30 7521 C 685.743 -6.09249 -1.87334 0
M  V30 7522 C 683.43 -5.62787 -2.38147 0
M  V30 7523 C 684.428 -6.52634 -2.01389 0
M  V30 7524 O 684.116 -7.83761 -1.78813 0
M  V30 7525 H 683.848 -0.506743 -0.447423 0
M  V30 7526 H 686.402 -1.89001 -0.80423 0
M  V30 7527 H 684.632 -1.91636 -3.35876 0
M  V30 7528 H 686.321 -2.33354 -3.32116 0
M  V30 7529 H 687.087 -4.42589 -1.98343 0
M  V30 7530 H 682.966 -3.59529 -2.88548 0
M  V30 7531 H 686.51 -6.7934 -1.58567 0
M  V30 7532 H 682.407 -5.95469 -2.49173 0
M  V30 7533 H 683.175 -7.95368 -1.93214 0
M  V30 7534 N 685.838 0.888903 -1.30139 0
M  V30 7535 C 686.768 2.01046 -1.18755 0
M  V30 7536 C 687.749 1.69916 -0.0791438 0
M  V30 7537 O 688.934 1.92445 -0.260498 0
M  V30 7538 C 686.064 3.36109 -0.874518 0
M  V30 7539 C 685.018 3.81486 -1.94043 0
M  V30 7540 C 684.344 5.13796 -1.48047 0
M  V30 7541 C 685.644 4.00637 -3.35093 0
M  V30 7542 H 687.338 2.10828 -2.12584 0
M  V30 7543 H 684.884 1.01298 -1.02346 0
M  V30 7544 H 686.837 4.14089 -0.781548 0
M  V30 7545 H 685.561 3.26449 0.0994519 0
M  V30 7546 H 684.22 3.05731 -2.02297 0
M  V30 7547 H 683.868 5.0056 -0.494878 0
M  V30 7548 H 683.568 5.45127 -2.19341 0
M  V30 7549 H 685.092 5.94305 -1.40121 0
M  V30 7550 H 686.506 4.69067 -3.2962 0
M  V30 7551 H 684.903 4.43339 -4.04438 0
M  V30 7552 H 685.973 3.0462 -3.77273 0
M  V30 7553 N 687.317 1.12792 1.10072 0
M  V30 7554 C 688.547 0.907189 1.85617 0
M  V30 7555 C 688.955 -0.547181 1.81115 0
M  V30 7556 O 688.298 -1.39024 1.20075 0
M  V30 7557 C 688.36 1.30872 3.34832 0
M  V30 7558 C 688.024 2.77516 3.6309 0
M  V30 7559 C 689.021 3.75696 3.59373 0
M  V30 7560 C 686.706 3.14513 3.91646 0
M  V30 7561 C 688.7 5.08888 3.83812 0
M  V30 7562 C 686.387 4.47886 4.15742 0
M  V30 7563 C 687.385 5.44882 4.11816 0
M  V30 7564 O 687.073 6.7585 4.35295 0
M  V30 7565 H 686.805 0.323855 0.593375 0
M  V30 7566 H 689.359 1.50262 1.40038 0
M  V30 7567 H 687.589 0.656518 3.81086 0
M  V30 7568 H 689.278 1.06153 3.91773 0
M  V30 7569 H 690.044 3.48458 3.37345 0
M  V30 7570 H 685.923 2.39622 3.93831 0
M  V30 7571 H 689.467 5.84586 3.80663 0
M  V30 7572 H 685.364 4.74851 4.37249 0
M  V30 7573 H 686.132 6.81853 4.52791 0
M  V30 7574 N 688.795 -1.27931 0.920396 0
M  V30 7575 C 689.725 -2.29487 0.431024 0
M  V30 7576 C 690.706 -1.62435 -0.504861 0
M  V30 7577 O 691.891 -1.89797 -0.411176 0
M  V30 7578 C 689.021 -3.45788 -0.323709 0
M  V30 7579 C 687.975 -4.24784 0.523658 0
M  V30 7580 C 687.301 -5.33488 -0.359809 0
M  V30 7581 C 688.601 -4.90874 1.78437 0
M  V30 7582 H 690.295 -2.70671 1.27975 0
M  V30 7583 H 687.841 -1.30121 0.616813 0
M  V30 7584 H 689.794 -4.15927 -0.676952 0
M  V30 7585 H 688.518 -3.03502 -1.2064 0
M  V30 7586 H 687.177 -3.56382 0.85951 0
M  V30 7587 H 686.825 -4.87445 -1.24124 0
M  V30 7588 H 686.525 -5.87247 0.203605 0
M  V30 7589 H 688.049 -6.06472 -0.708787 0
M  V30 7590 H 689.463 -5.53339 1.49963 0
M  V30 7591 H 687.86 -5.54659 2.29071 0
M  V30 7592 H 688.93 -4.14988 2.50824 0
M  V30 7593 O 690.312 -0.824023 -1.38896 0
M  V30 7594 H 691.003 -0.40654 -1.89386 0
M  V30 END ATOM
M  V30 BEGIN BOND
M  V30 END BOND
M  V30 END CTAB
M  END
$$$$
