drugbank_target|Q9AIU0 HTH-type transcriptional regulator TtgR (DB03467; DB04216; DB07810)
 OpenBabel12092120463D

  0  0  0     0  0            999 V3000
M  V30 BEGIN CTAB
M  V30 COUNTS 3362 3386 0 0 0
M  V30 BEGIN ATOM
M  V30 1 H -0.908 1.98254 -0.117106 0
M  V30 2 N 0 1.576 0 0
M  V30 3 C 0.933 2.03868 1.02534 0
M  V30 4 C 1.911 0.928543 1.3348 0
M  V30 5 O 3.095 1.19667 1.45644 0
M  V30 6 C 0.222 2.43627 2.35294 0
M  V30 7 C -0.732 3.65373 2.2001 0
M  V30 8 S 0.101 5.13292 1.52614 0
M  V30 9 C 1.257 5.56322 2.86805 0
M  V30 10 H 1.49 2.90518 0.631377 0
M  V30 11 H -0.977 1.52953 0.210867 0
M  V30 12 H 0.981 2.67203 3.11629 0
M  V30 13 H -0.358 1.57376 2.7183 0
M  V30 14 H -1.165 3.90944 3.18086 0
M  V30 15 H -1.563 3.418 1.51819 0
M  V30 16 H 0.729 5.58782 3.83104 0
M  V30 17 H 1.672 6.56266 2.65933 0
M  V30 18 H 2.08 4.83886 2.90714 0
M  V30 19 N 1.4781 -0.272755 1.55222 0
M  V30 20 C 2.7241 -1.00581 1.761 0
M  V30 21 C 3.0571 -1.85932 0.560625 0
M  V30 22 O 2.3321 -1.89416 -0.441801 0
M  V30 23 C 2.6151 -1.88816 3.06628 0
M  V30 24 C 2.4681 -1.06457 4.37021 0
M  V30 25 C 3.7871 -2.8752 3.33197 0
M  V30 26 H 0.9061 -0.364244 0.640699 0
M  V30 27 H 3.5481 -0.278189 1.87952 0
M  V30 28 H 1.6981 -2.50856 2.96654 0
M  V30 29 H 3.3701 -0.464863 4.58952 0
M  V30 30 H 1.6131 -0.368043 4.32236 0
M  V30 31 H 2.2841 -1.71514 5.24678 0
M  V30 32 H 4.7601 -2.35615 3.42965 0
M  V30 33 H 3.6361 -3.46399 4.25792 0
M  V30 34 H 3.8971 -3.62657 2.52849 0
M  V30 35 N 2.9562 -1.48159 -0.537278 0
M  V30 36 C 4.3722 -1.34118 -0.865129 0
M  V30 37 C 4.5722 -0.346678 -1.98495 0
M  V30 38 O 3.6282 0.234715 -2.51407 0
M  V30 39 C 4.9412 -2.73963 -1.23954 0
M  V30 40 C 6.4892 -2.82397 -1.34984 0
M  V30 41 C 6.9642 -4.22928 -1.75772 0
M  V30 42 N 8.4552 -4.25566 -1.82887 0
M  V30 43 C 9.1902 -5.31235 -2.15817 0
M  V30 44 N 8.6862 -6.47189 -2.47222 0
M  V30 45 N 10.4792 -5.18624 -2.16761 0
M  V30 46 H 2.6302 -2.1144 0.201715 0
M  V30 47 H 4.8932 -0.947598 0.0275949 0
M  V30 48 H 4.5992 -3.48264 -0.490381 0
M  V30 49 H 4.4732 -3.0702 -2.19132 0
M  V30 50 H 6.8602 -2.08356 -2.08978 0
M  V30 51 H 6.9412 -2.5297 -0.379448 0
M  V30 52 H 6.5852 -4.97482 -1.02341 0
M  V30 53 H 6.5152 -4.49794 -2.73848 0
M  V30 54 H 9.0062 -3.41924 -1.60924 0
M  V30 55 H 9.3192 -7.23564 -2.71433 0
M  V30 56 H 7.6642 -6.50476 -2.44757 0
M  V30 57 H 10.8552 -4.27056 -1.91679 0
M  V30 58 H 11.0282 -6.01078 -2.42093 0
M  V30 59 N 4.4343 0.785586 -1.36625 0
M  V30 60 C 5.8503 1.08419 -1.17122 0
M  V30 61 C 6.0503 2.015 0.00208491 0
M  V30 62 O 5.1063 2.43551 0.666278 0
M  V30 63 C 6.4193 1.69498 -2.48377 0
M  V30 64 C 7.9673 1.81821 -2.54775 0
M  V30 65 C 8.4423 2.46315 -3.86126 0
M  V30 66 N 9.9333 2.53779 -3.87492 0
M  V30 67 C 10.6683 3.045 -4.85868 0
M  V30 68 N 10.1643 3.55499 -5.94637 0
M  V30 69 N 11.9573 3.03247 -4.73284 0
M  V30 70 H 4.1083 0.167264 -2.1174 0
M  V30 71 H 6.3713 0.13682 -0.938075 0
M  V30 72 H 6.0773 1.08571 -3.34522 0
M  V30 73 H 5.9513 2.6896 -2.64462 0
M  V30 74 H 8.3383 2.41884 -1.69045 0
M  V30 75 H 8.4193 0.811532 -2.42586 0
M  V30 76 H 8.0633 1.86895 -4.72263 0
M  V30 77 H 7.9933 3.47561 -3.95612 0
M  V30 78 H 10.4843 2.17672 -3.08913 0
M  V30 79 H 10.7973 3.92562 -6.65669 0
M  V30 80 H 9.1423 3.5364 -5.98301 0
M  V30 81 H 12.3333 2.62696 -3.87438 0
M  V30 82 H 12.5063 3.42467 -5.50109 0
M  V30 83 N 5.9124 1.20967 1.01018 0
M  V30 84 C 7.1404 1.04956 1.78303 0
M  V30 85 C 7.5554 -0.400915 1.84494 0
M  V30 86 O 6.9124 -1.27826 1.30257 0
M  V30 87 C 6.9634 1.63403 3.22462 0
M  V30 88 O 6.6844 3.02775 3.16637 0
M  V30 89 C 8.1854 1.52432 4.16268 0
M  V30 90 H 5.4054 0.368858 0.560522 0
M  V30 91 H 7.9494 1.60193 1.27116 0
M  V30 92 H 6.1044 1.1227 3.70775 0
M  V30 93 H 6.5184 3.30626 4.07169 0
M  V30 94 H 7.9924 1.98078 5.15237 0
M  V30 95 H 8.4694 0.477875 4.36592 0
M  V30 96 H 9.0754 2.02787 3.73841 0
M  V30 97 N 7.3905 -1.2043 1.01659 0
M  V30 98 C 8.3375 -2.23215 0.586822 0
M  V30 99 C 9.3075 -1.61382 -0.393085 0
M  V30 100 O 10.4925 -1.88544 -0.292525 0
M  V30 101 C 7.6325 -3.45032 -0.0687464 0
M  V30 102 C 6.7455 -4.21296 0.955724 0
M  V30 103 C 5.8805 -5.30507 0.271208 0
M  V30 104 C 4.9195 -5.98515 1.28244 0
M  V30 105 N 4.0565 -6.99316 0.62459 0
M  V30 106 H 8.8965 -2.59336 1.46796 0
M  V30 107 H 6.4335 -1.27431 0.734836 0
M  V30 108 H 8.3915 -4.1459 -0.465965 0
M  V30 109 H 7.0215 -3.09604 -0.913529 0
M  V30 110 H 6.0735 -3.50803 1.4711 0
M  V30 111 H 7.3855 -4.6803 1.72479 0
M  V30 112 H 6.5395 -6.06428 -0.18151 0
M  V30 113 H 5.2785 -4.8481 -0.530163 0
M  V30 114 H 4.2835 -5.21355 1.74554 0
M  V30 115 H 5.5085 -6.46298 2.08509 0
M  V30 116 H 3.4545 -6.55812 -0.156914 0
M  V30 117 H 3.3715 -7.44178 1.33172 0
M  V30 118 H 4.6395 -7.79255 0.195462 0
M  V30 119 N 8.8686 -0.792821 -1.36206 0
M  V30 120 C 9.7786 -0.194808 -2.3379 0
M  V30 121 C 10.7946 0.654869 -1.61206 0
M  V30 122 O 11.9706 0.569856 -1.9317 0
M  V30 123 C 9.0356 0.657721 -3.40404 0
M  V30 124 C 8.0966 -0.210849 -4.28782 0
M  V30 125 C 7.3296 0.601086 -5.30304 0
M  V30 126 O 7.5526 1.83682 -5.40016 0
M  V30 127 O 6.4866 -0.000808277 -6.019 0
M  V30 128 H 10.3126 -1.00172 -2.86704 0
M  V30 129 H 7.8976 -0.554341 -1.38735 0
M  V30 130 H 9.7796 1.14375 -4.05581 0
M  V30 131 H 8.4546 1.44247 -2.89784 0
M  V30 132 H 7.3616 -0.743714 -3.66633 0
M  V30 133 H 8.6946 -0.959195 -4.82763 0
M  V30 134 N 10.3467 1.47872 -0.545128 0
M  V30 135 C 11.2567 2.33633 0.212746 0
M  V30 136 C 12.2727 1.4744 0.923983 0
M  V30 137 O 13.4487 1.80393 0.895572 0
M  V30 138 C 10.5137 3.23884 1.23693 0
M  V30 139 C 9.5747 4.25961 0.534417 0
M  V30 140 C 8.8077 5.11899 1.5098 0
M  V30 141 O 9.0307 5.00077 2.7437 0
M  V30 142 O 7.9647 5.92831 1.0409 0
M  V30 143 H 11.7907 2.99714 -0.490416 0
M  V30 144 H 9.3757 1.46235 -0.305871 0
M  V30 145 H 11.2577 3.79666 1.82843 0
M  V30 146 H 9.9327 2.60446 1.92222 0
M  V30 147 H 8.8397 3.73972 -0.0979679 0
M  V30 148 H 10.1727 4.92079 -0.109213 0
M  V30 149 N 11.8248 0.280983 1.55075 0
M  V30 150 C 12.7878 -0.590896 2.21452 0
M  V30 151 C 13.7878 -1.07682 1.19421 0
M  V30 152 O 14.9778 -0.97605 1.44288 0
M  V30 153 C 12.1098 -1.81587 2.88511 0
M  V30 154 H 13.3028 -0.0112554 2.99898 0
M  V30 155 H 10.8558 0.0316438 1.56268 0
M  V30 156 H 11.5908 -2.43587 2.14093 0
M  V30 157 H 11.3758 -1.4753 3.63287 0
M  V30 158 H 12.8658 -2.43575 3.39206 0
M  V30 159 N 13.3029 -1.57598 0.00835791 0
M  V30 160 C 14.2349 -2.05811 -1.00868 0
M  V30 161 C 15.2479 -0.977579 -1.30182 0
M  V30 162 O 16.4369 -1.25421 -1.27011 0
M  V30 163 C 13.5369 -2.45016 -2.34137 0
M  V30 164 C 12.7099 -3.75903 -2.23643 0
M  V30 165 C 11.7689 -4.01884 -3.3967 0
M  V30 166 O 10.7949 -4.72433 -3.17483 0
M  V30 167 N 11.9969 -3.50432 -4.62793 0
M  V30 168 H 14.7619 -2.93684 -0.597458 0
M  V30 169 H 12.3229 -1.60909 -0.178852 0
M  V30 170 H 14.3149 -2.59506 -3.10546 0
M  V30 171 H 12.8849 -1.62618 -2.66972 0
M  V30 172 H 12.1049 -3.7141 -1.32091 0
M  V30 173 H 13.3929 -4.61695 -2.13812 0
M  V30 174 H 12.7909 -2.93317 -4.83716 0
M  V30 175 H 11.3479 -3.70236 -5.3644 0
M  V30 176 N 14.781 0.264519 -1.55364 0
M  V30 177 C 15.691 1.34902 -1.91934 0
M  V30 178 C 16.707 1.53595 -0.817593 0
M  V30 179 O 17.883 1.67558 -1.11742 0
M  V30 180 C 14.948 2.68676 -2.19121 0
M  V30 181 C 14.009 2.58657 -3.4263 0
M  V30 182 C 13.242 3.86051 -3.68511 0
M  V30 183 O 13.465 4.87126 -2.96757 0
M  V30 184 O 12.399 3.85744 -4.62045 0
M  V30 185 H 16.225 1.06883 -2.8427 0
M  V30 186 H 13.81 0.463775 -1.42019 0
M  V30 187 H 15.692 3.47759 -2.37995 0
M  V30 188 H 14.367 2.96463 -1.29966 0
M  V30 189 H 13.274 1.7792 -3.29082 0
M  V30 190 H 14.607 2.35818 -4.32031 0
M  V30 191 N 16.2591 1.48442 0.529413 0
M  V30 192 C 17.4871 1.60151 1.30994 0
M  V30 193 C 17.9021 0.261985 1.86973 0
M  V30 194 O 17.2591 -0.748805 1.66431 0
M  V30 195 C 17.3101 2.64854 2.46038 0
M  V30 196 O 17.0311 3.93608 1.92365 0
M  V30 197 C 18.5321 2.87007 3.37849 0
M  V30 198 H 15.7521 0.539971 0.398338 0
M  V30 199 H 18.2961 1.94273 0.638597 0
M  V30 200 H 16.4511 2.33589 3.09055 0
M  V30 201 H 16.8651 4.51055 2.67675 0
M  V30 202 H 18.3391 3.64068 4.14919 0
M  V30 203 H 18.8161 1.95852 3.93114 0
M  V30 204 H 19.4221 3.19579 2.80623 0
M  V30 205 N 17.7372 -0.778329 1.37039 0
M  V30 206 C 19.1532 -1.07796 1.17695 0
M  V30 207 C 19.3532 -2.01498 0.00860115 0
M  V30 208 O 18.4092 -2.43901 -0.653352 0
M  V30 209 C 19.7222 -1.68178 2.49272 0
M  V30 210 C 21.2702 -1.80467 2.55735 0
M  V30 211 C 21.7452 -2.44263 3.87427 0
M  V30 212 N 23.2362 -2.51721 3.88833 0
M  V30 213 C 23.9712 -3.01919 4.87476 0
M  V30 214 N 23.4672 -3.5234 5.96513 0
M  V30 215 N 25.2602 -3.00733 4.74885 0
M  V30 216 H 17.4112 -0.156032 2.11826 0
M  V30 217 H 19.6742 -0.131844 0.938787 0
M  V30 218 H 19.3802 -1.06796 3.35093 0
M  V30 219 H 19.2542 -2.67554 2.65885 0
M  V30 220 H 21.6412 -2.40984 1.70325 0
M  V30 221 H 21.7222 -0.798656 2.43013 0
M  V30 222 H 21.3662 -1.84388 4.73248 0
M  V30 223 H 21.2962 -3.45458 3.9745 0
M  V30 224 H 23.7872 -2.1603 3.10063 0
M  V30 225 H 24.1002 -3.89027 6.67741 0
M  V30 226 H 22.4452 -3.50462 6.00168 0
M  V30 227 H 25.6362 -2.60638 3.88826 0
M  V30 228 H 25.8092 -3.39545 5.51918 0
M  V30 229 N 19.2153 -1.21501 -1.00376 0
M  V30 230 C 20.1783 -0.976927 -2.07337 0
M  V30 231 C 21.1783 0.0525322 -1.60714 0
M  V30 232 O 22.3683 -0.184869 -1.73216 0
M  V30 233 C 19.5003 -0.473423 -3.37597 0
M  V30 234 H 20.6933 -1.92587 -2.29892 0
M  V30 235 H 18.2463 -1.03217 -1.17371 0
M  V30 236 H 18.9813 0.480379 -3.20722 0
M  V30 237 H 18.7663 -1.216 -3.72768 0
M  V30 238 H 20.2563 -0.32675 -4.1632 0
M  V30 239 N 20.6934 1.19889 -1.02296 0
M  V30 240 C 21.6254 2.22334 -0.556787 0
M  V30 241 C 22.6384 1.58674 0.364199 0
M  V30 242 O 23.8274 1.77768 0.161533 0
M  V30 243 C 20.9274 3.38257 0.208694 0
M  V30 244 C 20.1004 4.31504 -0.71577 0
M  V30 245 C 19.1594 5.262 0.00325597 0
M  V30 246 O 18.1854 5.65798 -0.621357 0
M  V30 247 N 19.3874 5.66303 1.27599 0
M  V30 248 H 22.1524 2.62957 -1.43784 0
M  V30 249 H 19.7134 1.34495 -0.901261 0
M  V30 250 H 21.7054 3.98616 0.699111 0
M  V30 251 H 20.2754 2.96472 0.991102 0
M  V30 252 H 19.4954 3.69016 -1.38638 0
M  V30 253 H 20.7834 4.9072 -1.34428 0
M  V30 254 H 20.1814 5.36155 1.80429 0
M  V30 255 H 18.7384 6.28942 1.71102 0
M  V30 256 N 22.1715 0.800033 1.35784 0
M  V30 257 C 23.4205 0.37387 1.98205 0
M  V30 258 C 23.7335 -1.06302 1.64193 0
M  V30 259 O 24.9395 -1.59198 2.19928 0
M  V30 260 C 23.3955 0.617532 3.54562 0
M  V30 261 C 23.0035 2.06654 3.9749 0
M  V30 262 C 24.7475 0.256401 4.23725 0
M  V30 263 C 22.6545 2.2563 5.46667 0
M  V30 264 H 21.5845 0.136055 0.741623 0
M  V30 265 H 24.2355 0.983166 1.54939 0
M  V30 266 H 22.6175 -0.0616248 3.95952 0
M  V30 267 H 23.7915 2.78296 3.67271 0
M  V30 268 H 22.1065 2.38691 3.41197 0
M  V30 269 H 24.7035 0.376318 5.33374 0
M  V30 270 H 25.0465 -0.796692 4.08606 0
M  V30 271 H 25.5795 0.889214 3.87734 0
M  V30 272 H 22.3185 3.2936 5.66747 0
M  V30 273 H 21.8385 1.58504 5.78478 0
M  V30 274 H 23.5175 2.06861 6.1304 0
M  V30 275 N 23.6496 -1.47581 0.552962 0
M  V30 276 C 24.8986 -2.01684 0.0251995 0
M  V30 277 C 25.2116 -1.43317 -1.33115 0
M  V30 278 O 26.4176 -1.89057 -1.94858 0
M  V30 279 C 24.8736 -3.599 -0.00542052 0
M  V30 280 C 24.4816 -4.27257 1.34742 0
M  V30 281 C 26.2256 -4.21768 -0.4808 0
M  V30 282 C 24.1326 -5.77467 1.27614 0
M  V30 283 H 23.0626 -0.753979 0.00565033 0
M  V30 284 H 25.7136 -1.69616 0.70018 0
M  V30 285 H 24.0956 -3.88911 -0.745961 0
M  V30 286 H 25.2696 -4.09893 2.10534 0
M  V30 287 H 23.5846 -3.77358 1.76039 0
M  V30 288 H 26.1816 -5.31838 -0.55246 0
M  V30 289 H 26.5246 -3.88651 -1.49184 0
M  V30 290 H 27.0576 -3.97273 0.204752 0
M  V30 291 H 23.7966 -6.15196 2.26304 0
M  V30 292 H 23.3166 -5.9718 0.55996 0
M  V30 293 H 24.9956 -6.3959 0.976421 0
M  V30 294 N 25.1277 -0.289203 -1.54924 0
M  V30 295 C 26.0377 0.601863 -2.26748 0
M  V30 296 C 27.0537 1.15834 -1.2984 0
M  V30 297 O 28.2297 1.18564 -1.62802 0
M  V30 298 C 25.2947 1.76299 -2.98529 0
M  V30 299 C 24.3557 1.24178 -4.10948 0
M  V30 300 C 23.5887 2.34757 -4.79296 0
M  V30 301 O 23.8117 3.54411 -4.46933 0
M  V30 302 O 22.7457 2.02115 -5.66951 0
M  V30 303 H 26.5717 0.0195879 -3.03694 0
M  V30 304 H 24.1567 -0.0560868 -1.49295 0
M  V30 305 H 26.0387 2.43973 -3.43592 0
M  V30 306 H 24.7137 2.33209 -2.24488 0
M  V30 307 H 23.6207 0.531104 -3.70311 0
M  V30 308 H 24.9537 0.718252 -4.86931 0
M  V30 309 N 26.6058 1.57591 -0.0167156 0
M  V30 310 C 27.5688 2.08393 0.954204 0
M  V30 311 C 28.5688 0.996531 1.26198 0
M  V30 312 O 29.7588 1.25858 1.20438 0
M  V30 313 C 26.8908 2.5394 2.27436 0
M  V30 314 H 28.0838 2.95455 0.514451 0
M  V30 315 H 25.6368 1.54582 0.231089 0
M  V30 316 H 26.3718 1.70171 2.76066 0
M  V30 317 H 26.1568 3.33371 2.06412 0
M  V30 318 H 27.6468 2.93512 2.97053 0
M  V30 319 N 28.0839 -0.256276 1.55502 0
M  V30 320 C 29.0469 -1.30047 1.88734 0
M  V30 321 C 30.0469 -1.4154 0.763086 0
M  V30 322 O 31.2369 -1.40403 1.03115 0
M  V30 323 C 28.3689 -2.67953 2.10747 0
M  V30 324 H 29.5619 -1.01802 2.82093 0
M  V30 325 H 27.1149 -0.495134 1.4825 0
M  V30 326 H 27.8499 -3.01351 1.19825 0
M  V30 327 H 27.6349 -2.60993 2.92617 0
M  V30 328 H 29.1249 -3.43368 2.37673 0
M  V30 329 N 29.562 -1.4872 -0.521534 0
M  V30 330 C 30.472 -1.66569 -1.65203 0
M  V30 331 C 31.488 -0.548197 -1.65139 0
M  V30 332 O 32.664 -0.820339 -1.83936 0
M  V30 333 C 29.729 -1.70917 -3.01642 0
M  V30 334 C 28.79 -2.94356 -3.12495 0
M  V30 335 C 28.023 -2.98487 -4.42426 0
M  V30 336 O 28.246 -2.10786 -5.30024 0
M  V30 337 O 27.18 -3.90746 -4.57822 0
M  V30 338 H 31.006 -2.62298 -1.5308 0
M  V30 339 H 28.591 -1.3222 -0.695565 0
M  V30 340 H 30.473 -1.7625 -3.82771 0
M  V30 341 H 29.148 -0.783633 -3.14071 0
M  V30 342 H 28.055 -2.94552 -2.3063 0
M  V30 343 H 29.388 -3.86322 -3.04986 0
M  V30 344 N 31.0401 0.771051 -1.3745 0
M  V30 345 C 32.4561 1.07171 -1.18265 0
M  V30 346 C 32.6561 2.01491 -0.019287 0
M  V30 347 O 31.7121 2.44244 0.640408 0
M  V30 348 C 33.0251 1.66854 -2.50161 0
M  V30 349 C 34.5731 1.79109 -2.56689 0
M  V30 350 C 35.0481 2.42205 -3.88717 0
M  V30 351 N 36.5391 2.49655 -3.90162 0
M  V30 352 C 37.2741 2.9933 -4.8907 0
M  V30 353 N 36.7701 3.49172 -5.98374 0
M  V30 354 N 38.5631 2.9821 -4.76474 0
M  V30 355 H 30.7141 0.144796 -2.11906 0
M  V30 356 H 32.9771 0.126863 -0.939473 0
M  V30 357 H 32.6831 1.05017 -3.35655 0
M  V30 358 H 32.5571 2.6614 -2.673 0
M  V30 359 H 34.9441 2.40077 -1.71601 0
M  V30 360 H 35.0251 0.785757 -2.43433 0
M  V30 361 H 34.6691 1.81875 -4.74219 0
M  V30 362 H 34.5991 3.43345 -3.99276 0
M  V30 363 H 37.0901 2.14383 -3.11205 0
M  V30 364 H 37.4031 3.8548 -6.69795 0
M  V30 365 H 35.7481 3.47275 -6.02018 0
M  V30 366 H 38.9391 2.58572 -3.90203 0
M  V30 367 H 39.1121 3.36613 -5.53711 0
M  V30 368 N 32.5182 1.22032 0.997298 0
M  V30 369 C 33.4812 0.987909 2.06816 0
M  V30 370 C 34.4812 -0.0440084 1.6074 0
M  V30 371 O 35.6712 0.194053 1.73116 0
M  V30 372 C 32.8032 0.49132 3.37341 0
M  V30 373 H 33.9962 1.93803 2.28868 0
M  V30 374 H 31.5492 1.03838 1.16822 0
M  V30 375 H 32.2842 -0.463364 3.20973 0
M  V30 376 H 32.0692 1.23575 3.72118 0
M  V30 377 H 33.5592 0.348824 4.16141 0
M  V30 378 N 33.9963 -1.19345 1.0293 0
M  V30 379 C 35.2433 -1.89038 0.726008 0
M  V30 380 C 35.5713 -1.79649 -0.745427 0
M  V30 381 O 34.8263 -1.18354 -1.55855 0
M  V30 382 C 35.1253 -3.39292 1.12319 0
M  V30 383 C 34.7913 -3.68885 2.59297 0
M  V30 384 C 33.4533 -3.76671 2.99453 0
M  V30 385 C 35.8053 -3.82178 3.54386 0
M  V30 386 C 33.1333 -3.9522 4.33611 0
M  V30 387 C 35.4853 -4.0224 4.88248 0
M  V30 388 C 34.1493 -4.08259 5.28092 0
M  V30 389 H 33.4193 -0.691739 0.265665 0
M  V30 390 H 36.0663 -1.41328 1.29223 0
M  V30 391 H 34.3713 -3.88903 0.475584 0
M  V30 392 H 36.0683 -3.91536 0.866037 0
M  V30 393 H 32.6583 -3.63433 2.27189 0
M  V30 394 H 36.8423 -3.75505 3.24514 0
M  V30 395 H 32.0983 -3.98119 4.64016 0
M  V30 396 H 36.2723 -4.11468 5.61843 0
M  V30 397 H 33.8993 -4.22384 6.32057 0
M  V30 398 N 35.4744 -0.807222 -1.35358 0
M  V30 399 C 36.7044 -0.399796 -2.02695 0
M  V30 400 C 37.1124 0.994176 -1.60974 0
M  V30 401 O 36.4554 1.65209 -0.803226 0
M  V30 402 C 36.5174 -0.404445 -3.57218 0
M  V30 403 C 36.1814 -1.74904 -4.22206 0
M  V30 404 C 37.1784 -2.70743 -4.4384 0
M  V30 405 C 34.8634 -2.03322 -4.5931 0
M  V30 406 C 36.8574 -3.93183 -5.01683 0
M  V30 407 C 34.5444 -3.26026 -5.16866 0
M  V30 408 C 35.5424 -4.20774 -5.37994 0
M  V30 409 O 35.2304 -5.41312 -5.94337 0
M  V30 410 H 34.9624 -0.160517 -0.656666 0
M  V30 411 H 37.5164 -1.09235 -1.73945 0
M  V30 412 H 35.7464 0.344707 -3.85161 0
M  V30 413 H 37.4354 -0.0192429 -4.05895 0
M  V30 414 H 38.2014 -2.5008 -4.15554 0
M  V30 415 H 34.0804 -1.30384 -4.42178 0
M  V30 416 H 37.6244 -4.6715 -5.1809 0
M  V30 417 H 33.5214 -3.46559 -5.44579 0
M  V30 418 H 34.2894 -5.42618 -6.12787 0
M  V30 419 N 36.9525 1.47285 -0.560781 0
M  V30 420 C 37.8995 2.30058 0.18491 0
M  V30 421 C 38.8695 1.39281 0.904986 0
M  V30 422 O 40.0545 1.68241 0.899979 0
M  V30 423 C 37.1945 3.23317 1.20666 0
M  V30 424 C 36.3075 4.29186 0.492285 0
M  V30 425 C 35.4425 5.09592 1.49964 0
M  V30 426 C 34.4815 6.07232 0.770439 0
M  V30 427 N 33.6185 6.80584 1.72479 0
M  V30 428 H 38.4585 2.93302 -0.527048 0
M  V30 429 H 35.9955 1.44568 -0.271738 0
M  V30 430 H 37.9535 3.75811 1.81168 0
M  V30 431 H 36.5835 2.61929 1.88661 0
M  V30 432 H 35.6355 3.7972 -0.227333 0
M  V30 433 H 36.9475 4.98738 -0.0787929 0
M  V30 434 H 36.1015 5.66254 2.17809 0
M  V30 435 H 34.8405 4.3995 2.10464 0
M  V30 436 H 33.8455 5.49745 0.0780846 0
M  V30 437 H 35.0705 6.78884 0.171134 0
M  V30 438 H 33.0165 6.1367 2.3183 0
M  V30 439 H 32.9335 7.46319 1.20596 0
M  V30 440 H 34.2015 7.41818 2.39428 0
M  V30 441 N 38.4306 0.297415 1.54768 0
M  V30 442 C 39.8466 -0.0560823 1.59501 0
M  V30 443 C 40.0466 -1.52725 1.31444 0
M  V30 444 O 39.1026 -2.27947 1.08611 0
M  V30 445 C 40.4156 0.338631 2.98787 0
M  V30 446 C 41.9636 0.287097 3.11681 0
M  V30 447 C 42.4386 0.656579 4.53269 0
M  V30 448 N 43.9296 0.608977 4.59179 0
M  V30 449 C 44.6646 0.867385 5.66802 0
M  V30 450 N 44.1606 1.19157 6.82476 0
M  V30 451 N 45.9536 0.794687 5.56454 0
M  V30 452 H 38.1046 1.25624 1.71267 0
M  V30 453 H 40.3676 0.509057 0.799728 0
M  V30 454 H 40.0736 1.36263 3.2423 0
M  V30 455 H 39.9476 -0.309508 3.75928 0
M  V30 456 H 42.3346 -0.727649 2.85988 0
M  V30 457 H 42.4156 0.969809 2.36703 0
M  V30 458 H 42.0596 1.66912 4.7969 0
M  V30 459 H 41.9896 -0.0481649 5.26578 0
M  V30 460 H 44.4806 0.369198 3.76092 0
M  V30 461 H 44.7936 1.37482 7.60473 0
M  V30 462 H 43.1386 1.22958 6.84037 0
M  V30 463 H 46.3296 0.541098 4.64962 0
M  V30 464 H 46.5026 0.999445 6.40246 0
M  V30 465 N 39.9087 -1.5758 0.0250728 0
M  V30 466 C 41.1567 -1.91255 -0.653151 0
M  V30 467 C 41.4777 -0.901691 -1.729 0
M  V30 468 O 40.7477 0.0573785 -1.95816 0
M  V30 469 H 39.3277 -0.705942 -0.244243 0
M  V30 470 H 41.9897 -1.94767 0.0719209 0
M  V30 471 H 41.0857 -2.91752 -1.10847 0
M  V30 472 N 41.3868 0.248026 -1.55636 0
M  V30 473 C 42.6328 0.97767 -1.77678 0
M  V30 474 C 42.9658 1.85016 -0.590135 0
M  V30 475 O 42.2408 1.90095 0.411611 0
M  V30 476 C 42.5238 1.83914 -3.09593 0
M  V30 477 C 42.3768 0.99491 -4.38659 0
M  V30 478 C 43.6958 2.82183 -3.37729 0
M  V30 479 H 40.8148 0.354005 -0.646413 0
M  V30 480 H 43.4568 0.248253 -1.88371 0
M  V30 481 H 41.6068 2.46104 -3.00608 0
M  V30 482 H 43.2788 0.391789 -4.59633 0
M  V30 483 H 41.5218 0.299231 -4.32767 0
M  V30 484 H 42.1928 1.63145 -5.2734 0
M  V30 485 H 44.6688 2.30129 -3.4667 0
M  V30 486 H 43.5448 3.39582 -4.31249 0
M  V30 487 H 43.8058 3.58588 -2.58586 0
M  V30 488 N 42.8649 1.48995 0.513639 0
M  V30 489 C 43.8279 1.64229 1.59879 0
M  V30 490 C 44.8279 0.514696 1.5234 0
M  V30 491 O 46.0179 0.78087 1.55718 0
M  V30 492 C 43.1499 1.62783 2.99524 0
M  V30 493 H 44.3429 2.61004 1.47705 0
M  V30 494 H 41.8959 1.37837 0.736936 0
M  V30 495 H 42.6309 0.675461 3.17188 0
M  V30 496 H 42.4159 2.4466 3.06404 0
M  V30 497 H 43.9059 1.76669 3.78388 0
M  V30 498 N 44.343 -0.763751 1.37857 0
M  V30 499 C 45.759 -1.06542 1.18832 0
M  V30 500 C 45.959 -2.01478 0.0299722 0
M  V30 501 O 45.015 -2.4458 -0.627447 0
M  V30 502 C 46.328 -1.65525 2.51042 0
M  V30 503 C 47.876 -1.77745 2.57635 0
M  V30 504 C 48.351 -2.4014 3.89996 0
M  V30 505 N 49.842 -2.47582 3.91481 0
M  V30 506 C 50.577 -2.96732 4.9065 0
M  V30 507 N 50.073 -3.45993 6.00217 0
M  V30 508 N 51.866 -2.95679 4.78048 0
M  V30 509 H 44.017 -0.133556 2.1198 0
M  V30 510 H 46.28 -0.121879 0.940133 0
M  V30 511 H 45.986 -1.03236 3.36207 0
M  V30 512 H 45.86 -2.64719 2.68707 0
M  V30 513 H 48.247 -2.39164 1.72872 0
M  V30 514 H 48.328 -0.772836 2.43846 0
M  V30 515 H 47.972 -1.79358 4.75177 0
M  V30 516 H 47.902 -3.41223 4.01092 0
M  V30 517 H 50.393 -2.1273 3.12337 0
M  V30 518 H 50.706 -3.81922 6.7183 0
M  V30 519 H 49.051 -3.44077 6.03851 0
M  V30 520 H 52.242 -2.56499 3.91568 0
M  V30 521 H 52.415 -3.33672 5.55488 0
M  V30 522 N 45.8211 -1.22559 -0.990812 0
M  V30 523 C 47.0491 -1.07779 -1.76611 0
M  V30 524 C 47.4641 0.371513 -1.85109 0
M  V30 525 O 46.8211 1.25737 -1.32274 0
M  V30 526 C 46.8721 -1.68512 -3.19822 0
M  V30 527 O 46.5931 -3.07774 -3.1178 0
M  V30 528 C 48.0941 -1.59035 -4.13791 0
M  V30 529 H 45.3141 -0.377729 -0.554583 0
M  V30 530 H 47.8581 -1.62195 -1.24551 0
M  V30 531 H 46.0131 -1.18154 -3.68942 0
M  V30 532 H 46.4271 -3.37062 -4.01858 0
M  V30 533 H 47.9011 -2.0625 -5.1202 0
M  V30 534 H 48.3781 -0.547273 -4.35777 0
M  V30 535 H 48.9841 -2.08709 -3.70568 0
M  V30 536 N 47.2992 1.18797 -1.03562 0
M  V30 537 C 48.5272 1.92599 -0.755869 0
M  V30 538 C 48.9422 1.75886 0.686271 0
M  V30 539 O 48.2992 1.08517 1.46732 0
M  V30 540 C 48.3502 3.44159 -1.10619 0
M  V30 541 O 48.0712 3.60341 -2.4917 0
M  V30 542 C 49.5722 4.3507 -0.850214 0
M  V30 543 H 46.7922 0.611587 -0.276048 0
M  V30 544 H 49.3362 1.50742 -1.38192 0
M  V30 545 H 47.4912 3.83823 -0.525194 0
M  V30 546 H 47.9052 4.54128 -2.62427 0
M  V30 547 H 49.3792 5.39989 -1.14523 0
M  V30 548 H 49.8562 4.38673 0.215176 0
M  V30 549 H 50.4622 4.01097 -1.41426 0
M  V30 550 N 48.7773 0.814389 1.34928 0
M  V30 551 C 49.7073 0.244827 2.32213 0
M  V30 552 C 50.6883 -0.634024 1.57842 0
M  V30 553 O 51.8733 -0.562676 1.8587 0
M  V30 554 C 49.0033 -0.601106 3.42058 0
M  V30 555 C 47.9573 0.179896 4.27622 0
M  V30 556 C 47.2833 -0.788237 5.28858 0
M  V30 557 C 48.5833 1.38329 5.03649 0
M  V30 558 H 50.2773 1.05763 2.80097 0
M  V30 559 H 47.8233 0.510029 1.34665 0
M  V30 560 H 49.7763 -1.00968 4.09125 0
M  V30 561 H 48.5003 -1.44688 2.92802 0
M  V30 562 H 47.1593 0.569739 3.62146 0
M  V30 563 H 46.8073 -1.62973 4.75866 0
M  V30 564 H 46.5073 -0.269942 5.8698 0
M  V30 565 H 48.0313 -1.19485 5.98795 0
M  V30 566 H 49.4453 1.04918 5.63618 0
M  V30 567 H 47.8423 1.83662 5.71304 0
M  V30 568 H 48.9123 2.16592 4.33839 0
M  V30 569 N 50.2554 -1.46986 0.568584 0
M  V30 570 C 51.2184 -2.28624 -0.162366 0
M  V30 571 C 52.2184 -1.37596 -0.832103 0
M  V30 572 O 53.4084 -1.60115 -0.68622 0
M  V30 573 C 50.5404 -3.17596 -1.23878 0
M  V30 574 H 51.7334 -2.94722 0.554899 0
M  V30 575 H 49.2864 -1.52863 0.325976 0
M  V30 576 H 50.0214 -2.56214 -1.98808 0
M  V30 577 H 49.8064 -3.846 -0.763219 0
M  V30 578 H 51.2964 -3.79078 -1.75185 0
M  V30 579 N 51.7335 -0.305618 -1.54608 0
M  V30 580 C 53.0105 0.355652 -1.92339 0
M  V30 581 C 53.3905 1.71324 -1.23335 0
M  V30 582 O 52.7385 2.25473 -0.370702 0
M  V30 583 C 52.9485 0.46572 -3.45879 0
M  V30 584 C 54.2965 0.734426 -4.182 0
M  V30 585 O 55.3205 0.54935 -3.51938 0
M  V30 586 O 54.1795 1.09024 -5.35515 0
M  V30 587 H 51.2735 0.199666 -0.802535 0
M  V30 588 H 53.8195 -0.354017 -1.65966 0
M  V30 589 H 52.5915 -0.488461 -3.88239 0
M  V30 590 H 52.2145 1.22367 -3.78301 0
M  V30 591 N 53.2116 1.57565 -0.0334293 0
M  V30 592 C 54.4606 1.91155 0.643639 0
M  V30 593 C 54.7736 0.91192 1.73042 0
M  V30 594 O 55.9796 1.13923 2.46442 0
M  V30 595 C 54.4356 3.39443 1.1961 0
M  V30 596 C 54.0436 4.47774 0.142381 0
M  V30 597 C 55.7876 3.82094 1.84944 0
M  V30 598 C 53.6946 5.87162 0.706727 0
M  V30 599 H 52.6246 0.713368 0.244176 0
M  V30 600 H 55.2756 1.8323 -0.0994323 0
M  V30 601 H 53.6576 3.42313 1.99092 0
M  V30 602 H 54.8316 4.56469 -0.630296 0
M  V30 603 H 53.1466 4.14352 -0.412446 0
M  V30 604 H 55.7436 4.83591 2.2813 0
M  V30 605 H 56.0866 3.17386 2.69392 0
M  V30 606 H 56.6196 3.81665 1.12145 0
M  V30 607 H 53.3586 6.55424 -0.0997178 0
M  V30 608 H 52.8786 5.82064 1.44779 0
M  V30 609 H 54.5576 6.35866 1.19514 0
M  V30 610 N 54.6897 -0.239769 1.55765 0
M  V30 611 C 55.6527 -1.28038 1.90103 0
M  V30 612 C 56.6527 -1.40723 0.778055 0
M  V30 613 O 57.8427 -1.39301 1.04599 0
M  V30 614 C 54.9747 -2.65702 2.13577 0
M  V30 615 H 56.1677 -0.988048 2.83157 0
M  V30 616 H 53.7207 -0.479382 1.48767 0
M  V30 617 H 54.4557 -3.00063 1.23015 0
M  V30 618 H 54.2407 -2.57875 2.95369 0
M  V30 619 H 55.7307 -3.40828 2.41301 0
M  V30 620 N 56.1678 -1.49265 -0.50573 0
M  V30 621 C 57.0778 -1.68312 -1.63427 0
M  V30 622 C 58.0938 -0.565682 -1.64548 0
M  V30 623 O 59.2698 -0.839801 -1.83055 0
M  V30 624 C 56.3348 -1.74107 -2.99813 0
M  V30 625 C 55.3958 -2.97653 -3.09356 0
M  V30 626 C 54.6288 -3.03163 -4.39236 0
M  V30 627 O 54.8518 -2.16396 -5.27758 0
M  V30 628 O 53.7858 -3.9558 -4.53652 0
M  V30 629 H 57.6118 -2.63907 -1.50289 0
M  V30 630 H 55.1968 -1.32951 -0.681502 0
M  V30 631 H 57.0788 -1.803 -3.80881 0
M  V30 632 H 55.7538 -0.816901 -3.13223 0
M  V30 633 H 54.6608 -2.96981 -2.27493 0
M  V30 634 H 55.9938 -3.89535 -3.00871 0
M  V30 635 N 57.6459 0.756429 -1.3826 0
M  V30 636 C 58.5759 1.88374 -1.37976 0
M  V30 637 C 59.5569 1.68311 -0.246082 0
M  V30 638 O 60.7419 1.88944 -0.44874 0
M  V30 639 C 57.8719 3.25864 -1.20125 0
M  V30 640 C 56.8259 3.60523 -2.30666 0
M  V30 641 C 56.1519 4.9672 -1.97923 0
M  V30 642 C 57.4519 3.65692 -3.72916 0
M  V30 643 H 59.1459 1.88869 -2.32312 0
M  V30 644 H 56.6919 0.907272 -1.11824 0
M  V30 645 H 58.6449 4.0438 -1.18552 0
M  V30 646 H 57.3689 3.25841 -0.222498 0
M  V30 647 H 56.0279 2.84324 -2.3142 0
M  V30 648 H 55.6759 4.93253 -0.985393 0
M  V30 649 H 55.3759 5.20878 -2.71955 0
M  V30 650 H 56.8999 5.77618 -1.97964 0
M  V30 651 H 58.3139 4.34328 -3.74208 0
M  V30 652 H 56.7109 4.01358 -4.4613 0
M  V30 653 H 57.7809 2.65987 -4.05436 0
M  V30 654 N 59.124 1.23083 0.984299 0
M  V30 655 C 60.087 1.00979 2.05757 0
M  V30 656 C 61.087 -0.0269573 1.60777 0
M  V30 657 O 62.277 0.212403 1.729 0
M  V30 658 C 59.409 0.527072 3.36801 0
M  V30 659 H 60.602 1.9622 2.26799 0
M  V30 660 H 58.155 1.05072 1.15714 0
M  V30 661 H 58.89 -0.429294 3.21446 0
M  V30 662 H 58.675 1.27515 3.70786 0
M  V30 663 H 60.165 0.392942 4.15747 0
M  V30 664 N 60.6021 -1.18246 1.0419 0
M  V30 665 C 61.8501 -1.87886 0.744543 0
M  V30 666 C 62.1711 -1.8082 -0.730006 0
M  V30 667 O 61.4411 -1.22736 -1.52685 0
M  V30 668 H 60.0211 -0.695556 0.272417 0
M  V30 669 H 62.6831 -1.43494 1.31892 0
M  V30 670 H 61.7791 -2.9389 1.05049 0
M  V30 671 N 62.0802 -0.821533 -1.34494 0
M  V30 672 C 63.3262 -0.409552 -1.98622 0
M  V30 673 C 63.6592 1.0244 -1.64984 0
M  V30 674 O 62.9342 1.71325 -0.920758 0
M  V30 675 C 63.2172 -0.610458 -3.54888 0
M  V30 676 C 63.0702 -2.09043 -3.98273 0
M  V30 677 C 64.3892 -0.0455379 -4.40076 0
M  V30 678 H 61.5082 -0.15028 -0.721516 0
M  V30 679 H 64.1502 -1.03384 -1.59411 0
M  V30 680 H 62.3002 -0.079044 -3.8842 0
M  V30 681 H 63.9722 -2.68537 -3.75081 0
M  V30 682 H 62.2152 -2.58139 -3.48635 0
M  V30 683 H 62.8862 -2.18182 -5.07051 0
M  V30 684 H 65.3622 -0.499557 -4.1309 0
M  V30 685 H 64.2382 -0.215922 -5.48475 0
M  V30 686 H 64.4992 1.04939 -4.29465 0
M  V30 687 N 63.5583 1.46682 -0.576371 0
M  V30 688 C 64.7863 2.06798 -0.0649635 0
M  V30 689 C 65.2013 1.42612 1.23723 0
M  V30 690 O 64.5583 0.529203 1.74659 0
M  V30 691 C 64.6093 3.6132 0.114202 0
M  V30 692 O 64.3303 4.23104 -1.13644 0
M  V30 693 C 65.8313 4.38349 0.66069 0
M  V30 694 H 63.0513 0.668778 -0.0545616 0
M  V30 695 H 65.5953 1.88404 -0.795237 0
M  V30 696 H 63.7503 3.79162 0.794673 0
M  V30 697 H 64.1643 5.15894 -0.946253 0
M  V30 698 H 65.6383 5.47081 0.73526 0
M  V30 699 H 66.1153 4.05953 1.67627 0
M  V30 700 H 66.7213 4.25297 0.0152951 0
M  V30 701 N 65.0364 0.313813 1.54444 0
M  V30 702 C 66.4524 -0.0391619 1.59552 0
M  V30 703 C 66.6524 -1.51322 1.33056 0
M  V30 704 O 65.7084 -2.26782 1.11022 0
M  V30 705 C 67.0214 0.370302 2.98411 0
M  V30 706 C 68.5694 0.320139 3.11358 0
M  V30 707 C 69.0444 0.704617 4.52547 0
M  V30 708 N 70.5354 0.657645 4.58508 0
M  V30 709 C 71.2704 0.927453 5.6585 0
M  V30 710 N 70.7664 1.26389 6.81174 0
M  V30 711 N 72.5594 0.853662 5.5558 0
M  V30 712 H 64.7104 1.27433 1.69925 0
M  V30 713 H 66.9734 0.517511 0.794284 0
M  V30 714 H 66.6794 1.39694 3.22767 0
M  V30 715 H 66.5534 -0.269619 3.76235 0
M  V30 716 H 68.9404 -0.697275 2.86744 0
M  V30 717 H 69.0214 0.99486 2.35661 0
M  V30 718 H 68.6654 1.7199 4.77893 0
M  V30 719 H 68.5954 0.00768843 5.26599 0
M  V30 720 H 71.0864 0.409067 3.75679 0
M  V30 721 H 71.3994 1.4554 7.58972 0
M  V30 722 H 69.7444 1.30206 6.82694 0
M  V30 723 H 72.9354 0.590383 4.64362 0
M  V30 724 H 73.1084 1.0673 6.3915 0
M  V30 725 N 66.5145 -1.57545 0.0417849 0
M  V30 726 C 67.7625 -1.91937 -0.632829 0
M  V30 727 C 68.0835 -0.919978 -1.71934 0
M  V30 728 O 67.3535 0.0366064 -1.95866 0
M  V30 729 H 65.9335 -0.708493 -0.236742 0
M  V30 730 H 68.5955 -1.9468 0.0925745 0
M  V30 731 H 67.6915 -2.92912 -1.07746 0
M  V30 732 N 67.9926 0.231505 -1.5589 0
M  V30 733 C 68.9556 1.27028 -1.90779 0
M  V30 734 C 69.9556 1.40308 -0.785507 0
M  V30 735 O 71.1456 1.38744 -1.05336 0
M  V30 736 C 68.2776 2.64566 -2.14983 0
M  V30 737 H 69.4706 0.973017 -2.83677 0
M  V30 738 H 67.0236 0.471486 -1.49019 0
M  V30 739 H 67.7586 2.99406 -1.24604 0
M  V30 740 H 67.5436 2.56305 -2.96732 0
M  V30 741 H 69.0336 3.39543 -2.43105 0
M  V30 742 N 69.4707 1.49531 0.497807 0
M  V30 743 C 70.7197 1.58426 1.24837 0
M  V30 744 C 71.0327 0.277643 1.93619 0
M  V30 745 O 72.2387 0.24517 2.70391 0
M  V30 746 C 70.6947 2.79538 2.26686 0
M  V30 747 C 70.3027 4.16971 1.63828 0
M  V30 748 C 72.0467 2.97764 3.0255 0
M  V30 749 C 69.9537 5.29301 2.63807 0
M  V30 750 H 68.8837 0.58989 0.469623 0
M  V30 751 H 71.5347 1.75923 0.521857 0
M  V30 752 H 69.9167 2.55542 3.02514 0
M  V30 753 H 71.0907 4.51116 0.939711 0
M  V30 754 H 69.4057 4.04129 1.00342 0
M  V30 755 H 72.0027 3.78856 3.77323 0
M  V30 756 H 72.3457 2.08448 3.60354 0
M  V30 757 H 72.8787 3.21815 2.33838 0
M  V30 758 H 69.6177 6.20687 2.10779 0
M  V30 759 H 69.1377 4.99606 3.31894 0
M  V30 760 H 70.8167 5.58768 3.2617 0
M  V30 761 N 70.9488 -0.749086 1.3866 0
M  V30 762 C 72.1788 -1.53611 1.38157 0
M  V30 763 C 72.5868 -1.89177 -0.0293595 0
M  V30 764 O 71.9298 -1.53606 -1.00752 0
M  V30 765 C 71.9918 -2.86087 2.17702 0
M  V30 766 C 71.6558 -2.73034 3.66472 0
M  V30 767 C 72.6528 -2.42526 4.59866 0
M  V30 768 C 70.3378 -2.90345 4.09884 0
M  V30 769 C 72.3318 -2.29492 5.94653 0
M  V30 770 C 70.0188 -2.7693 5.4475 0
M  V30 771 C 71.0168 -2.46547 6.36949 0
M  V30 772 O 70.7048 -2.33199 7.69333 0
M  V30 773 H 70.4368 -0.481773 0.474205 0
M  V30 774 H 72.9908 -0.934465 1.82912 0
M  V30 775 H 71.2208 -3.48458 1.67672 0
M  V30 776 H 72.9098 -3.47625 2.09551 0
M  V30 777 H 73.6758 -2.28816 4.27631 0
M  V30 778 H 69.5548 -3.1299 3.38464 0
M  V30 779 H 73.0988 -2.05698 6.66584 0
M  V30 780 H 68.9958 -2.90215 5.76581 0
M  V30 781 H 69.7638 -2.48376 7.79905 0
M  V30 782 N 72.4269 -1.23603 -0.977757 0
M  V30 783 C 73.6729 -1.08136 -1.72274 0
M  V30 784 C 74.0279 0.377453 -1.88661 0
M  V30 785 O 73.3209 1.27552 -1.42972 0
M  V30 786 C 73.5149 -1.7433 -3.11999 0
M  V30 787 C 73.3439 -3.26498 -3.0924 0
M  V30 788 C 72.1139 -3.9567 -3.14282 0
M  V30 789 C 74.3119 -4.2323 -2.92201 0
M  V30 790 N 72.2939 -5.34799 -3.01436 0
M  V30 791 C 73.6649 -5.49289 -2.87544 0
M  V30 792 C 75.7199 -4.13931 -2.76705 0
M  V30 793 C 74.4229 -6.67116 -2.68978 0
M  V30 794 C 76.4489 -5.31424 -2.59504 0
M  V30 795 C 75.8109 -6.5641 -2.55548 0
M  V30 796 H 71.9099 -0.450247 -0.639376 0
M  V30 797 H 74.4939 -1.5637 -1.16002 0
M  V30 798 H 72.6649 -1.28624 -3.66484 0
M  V30 799 H 74.3969 -1.51815 -3.75146 0
M  V30 800 H 71.1519 -3.46767 -3.22567 0
M  V30 801 H 71.5759 -6.07748 -2.98281 0
M  V30 802 H 76.2179 -3.1807 -2.78552 0
M  V30 803 H 73.9359 -7.63109 -2.65876 0
M  V30 804 H 77.5219 -5.26072 -2.48474 0
M  V30 805 H 76.4019 -7.45795 -2.42405 0
M  V30 806 N 73.905 1.17692 -1.04816 0
M  V30 807 C 74.855 2.1952 -0.616042 0
M  V30 808 C 75.839 1.57147 0.345485 0
M  V30 809 O 77.031 1.76245 0.163325 0
M  V30 810 C 74.16 3.43298 0.0116917 0
M  V30 811 C 73.246 4.12777 -0.973435 0
M  V30 812 N 73.637 4.5814 -2.14339 0
M  V30 813 C 71.935 4.38747 -0.80108 0
M  V30 814 C 72.636 5.11713 -2.7663 0
M  V30 815 N 71.612 5.03686 -2.04453 0
M  V30 816 H 75.414 2.52293 -1.5075 0
M  V30 817 H 72.928 1.3398 -0.917776 0
M  V30 818 H 74.925 4.15519 0.339006 0
M  V30 819 H 73.585 3.12018 0.898593 0
M  V30 820 H 74.596 4.52349 -2.52191 0
M  V30 821 H 71.273 4.17485 0.0350934 0
M  V30 822 H 72.663 5.56962 -3.75823 0
M  V30 823 N 75.3831 0.828654 1.34056 0
M  V30 824 C 76.6301 0.419458 1.98108 0
M  V30 825 C 76.9581 -1.01886 1.65679 0
M  V30 826 O 76.2131 -1.72539 0.923512 0
M  V30 827 C 76.5121 0.575226 3.52741 0
M  V30 828 C 76.1781 1.98012 4.05095 0
M  V30 829 C 74.8401 2.36442 4.19104 0
M  V30 830 C 77.1921 2.89824 4.33188 0
M  V30 831 C 74.5201 3.66009 4.58535 0
M  V30 832 C 76.8721 4.1886 4.74066 0
M  V30 833 C 75.5361 4.5726 4.86281 0
M  V30 834 H 74.8061 0.153491 0.724929 0
M  V30 835 H 77.4531 1.05371 1.59904 0
M  V30 836 H 75.7581 -0.142385 3.91541 0
M  V30 837 H 77.4551 0.239057 4.00287 0
M  V30 838 H 74.0451 1.67162 3.94658 0
M  V30 839 H 78.2291 2.61375 4.21897 0
M  V30 840 H 73.4851 3.95579 4.66184 0
M  V30 841 H 77.6591 4.90086 4.94761 0
M  V30 842 H 75.2861 5.57707 5.16592 0
M  V30 843 N 76.8612 -1.46375 0.584142 0
M  V30 844 C 77.8092 -2.32042 -0.161047 0
M  V30 845 C 78.8032 -1.44569 -0.882966 0
M  V30 846 O 80.0092 -1.61186 -0.801191 0
M  V30 847 H 76.3842 -0.748659 -0.0708033 0
M  V30 848 H 78.3552 -2.92704 0.580269 0
M  V30 849 C 77.1042 -3.27762 -1.1605 0
M  V30 850 H 76.4272 -3.95051 -0.614419 0
M  V30 851 H 77.8672 -3.90481 -1.65228 0
M  V30 852 C 76.3262 -2.53218 -2.22221 0
M  V30 853 O 76.8562 -2.29628 -3.29597 0
M  V30 854 N 75.0622 -2.13756 -1.96868 0
M  V30 855 H 74.6092 -2.33142 -1.09557 0
M  V30 856 H 74.5672 -1.642 -2.68115 0
M  V30 857 N 78.3393 -0.321999 -1.54275 0
M  V30 858 C 79.2873 0.560206 -2.25753 0
M  V30 859 C 80.2813 1.11984 -1.27106 0
M  V30 860 O 81.4873 1.06806 -1.44888 0
M  V30 861 H 77.8623 0.199304 -0.725108 0
M  V30 862 H 79.8333 -0.0649365 -2.98329 0
M  V30 863 C 78.5823 1.71023 -3.02731 0
M  V30 864 H 77.9053 1.28885 -3.78456 0
M  V30 865 H 79.3453 2.30314 -3.55993 0
M  V30 866 C 77.8043 2.62692 -2.10938 0
M  V30 867 O 78.3343 3.64364 -1.6912 0
M  V30 868 N 76.5403 2.30891 -1.76459 0
M  V30 869 H 76.0873 1.48253 -2.10663 0
M  V30 870 H 76.0453 2.92487 -1.1532 0
M  V30 871 N 79.8174 1.5752 -0.0501392 0
M  V30 872 C 80.7644 2.1147 0.924603 0
M  V30 873 C 81.7344 1.02182 1.30951 0
M  V30 874 O 82.9194 1.29723 1.39916 0
M  V30 875 C 80.0594 2.66337 2.19451 0
M  V30 876 C 79.1724 3.89708 1.86418 0
M  V30 877 C 78.3074 4.32893 3.07859 0
M  V30 878 C 77.3464 5.48967 2.70742 0
M  V30 879 N 76.4834 5.87211 3.84874 0
M  V30 880 H 81.3234 2.94465 0.457639 0
M  V30 881 H 78.8604 1.45531 0.214266 0
M  V30 882 H 80.8184 2.96247 2.93758 0
M  V30 883 H 79.4484 1.86141 2.63726 0
M  V30 884 H 78.5004 3.66396 1.02264 0
M  V30 885 H 79.8124 4.74074 1.55096 0
M  V30 886 H 78.9664 4.6435 3.90466 0
M  V30 887 H 77.7054 3.47336 3.42358 0
M  V30 888 H 76.7104 5.17183 1.86551 0
M  V30 889 H 77.9354 6.3624 2.37436 0
M  V30 890 H 75.8814 5.04607 4.19175 0
M  V30 891 H 75.7984 6.66266 3.57247 0
M  V30 892 H 77.0664 6.23282 4.68123 0
M  V30 893 N 81.2955 -0.223234 1.56011 0
M  V30 894 C 82.2585 -1.26014 1.9145 0
M  V30 895 C 83.2585 -1.3989 0.792937 0
M  V30 896 O 84.4485 -1.38184 1.0607 0
M  V30 897 C 81.5805 -2.63422 2.16383 0
M  V30 898 H 82.7735 -0.95796 2.84189 0
M  V30 899 H 80.3265 -0.463576 1.49267 0
M  V30 900 H 81.0615 -2.98741 1.2619 0
M  V30 901 H 80.8465 -2.54728 2.98088 0
M  V30 902 H 82.3365 -3.38249 2.44903 0
M  V30 903 N 82.7736 -1.49793 -0.48987 0
M  V30 904 C 83.6836 -1.70036 -1.61632 0
M  V30 905 C 84.6996 -0.583102 -1.63939 0
M  V30 906 O 85.8756 -0.859169 -1.82154 0
M  V30 907 C 82.9406 -1.77277 -2.97949 0
M  V30 908 C 82.0016 -3.00918 -3.06181 0
M  V30 909 C 81.2346 -3.07804 -4.35996 0
M  V30 910 O 81.4576 -2.21982 -5.25433 0
M  V30 911 O 80.3916 -4.00369 -4.49431 0
M  V30 912 H 84.2176 -2.65486 -1.47482 0
M  V30 913 H 81.8026 -1.33666 -0.667362 0
M  V30 914 H 83.6846 -1.84329 -3.78947 0
M  V30 915 H 82.3596 -0.850076 -3.12339 0
M  V30 916 H 81.2666 -2.99377 -2.2433 0
M  V30 917 H 82.5996 -3.92704 -2.96723 0
M  V30 918 N 84.2517 0.741722 -1.39055 0
M  V30 919 C 85.1817 1.869 -1.39966 0
M  V30 920 C 86.1627 1.6804 -0.26392 0
M  V30 921 O 87.3477 1.88458 -0.468755 0
M  V30 922 C 84.4777 3.24572 -1.23574 0
M  V30 923 C 83.4317 3.58056 -2.34477 0
M  V30 924 C 82.7577 4.94593 -2.0318 0
M  V30 925 C 84.0577 3.61716 -3.76774 0
M  V30 926 H 85.7517 1.86395 -2.34302 0
M  V30 927 H 83.2977 0.895361 -1.1278 0
M  V30 928 H 85.2507 4.031 -1.22834 0
M  V30 929 H 83.9747 3.25587 -0.257045 0
M  V30 930 H 82.6337 2.81854 -2.34423 0
M  V30 931 H 82.2817 4.92181 -1.03765 0
M  V30 932 H 81.9817 5.17964 -2.77465 0
M  V30 933 H 83.5057 5.75486 -2.04079 0
M  V30 934 H 84.9197 4.30335 -3.78794 0
M  V30 935 H 83.3167 3.96603 -4.50362 0
M  V30 936 H 84.3867 2.61672 -4.08235 0
M  V30 937 N 85.7298 1.2412 0.971189 0
M  V30 938 C 86.9758 1.08041 1.71625 0
M  V30 939 C 87.3088 -0.380407 1.90438 0
M  V30 940 O 86.5838 -1.28127 1.46334 0
M  V30 941 C 86.8668 1.81682 3.10908 0
M  V30 942 C 86.7198 3.35493 2.99608 0
M  V30 943 C 88.0388 1.58671 4.10501 0
M  V30 944 H 85.1578 0.39388 0.622919 0
M  V30 945 H 87.7998 1.52743 1.13003 0
M  V30 946 H 85.9498 1.43684 3.60953 0
M  V30 947 H 87.6218 3.83068 2.57015 0
M  V30 948 H 85.8648 3.64052 2.35899 0
M  V30 949 H 86.5358 3.82217 3.98264 0
M  V30 950 H 89.0118 1.91719 3.69301 0
M  V30 951 H 87.8878 2.1266 5.06031 0
M  V30 952 H 88.1488 0.524161 4.38982 0
M  V30 953 N 87.2079 -1.17134 1.05439 0
M  V30 954 C 88.1399 -2.2078 0.615539 0
M  V30 955 C 89.1529 -1.59584 -0.322001 0
M  V30 956 O 90.3419 -1.78133 -0.114344 0
M  V30 957 C 87.4419 -3.38691 -0.118938 0
M  V30 958 C 86.6149 -4.29454 0.829924 0
M  V30 959 C 85.6739 -5.26024 0.136258 0
M  V30 960 O 84.6999 -5.63952 0.77115 0
M  V30 961 N 85.9019 -5.69487 -1.1254 0
M  V30 962 H 88.6669 -2.59052 1.50705 0
M  V30 963 H 86.2279 -1.32058 0.936603 0
M  V30 964 H 88.2199 -4.00329 -0.593179 0
M  V30 965 H 86.7899 -2.98996 -0.91215 0
M  V30 966 H 86.0099 -3.65211 1.48373 0
M  V30 967 H 87.2979 -4.86984 1.47392 0
M  V30 968 H 86.6959 -5.4075 -1.6615 0
M  V30 969 H 85.2529 -6.33257 -1.54366 0
M  V30 970 N 88.686 -0.835752 -1.33615 0
M  V30 971 C 89.649 -0.272 -2.2758 0
M  V30 972 C 90.649 0.557487 -1.50827 0
M  V30 973 O 91.839 0.37173 -1.70188 0
M  V30 974 C 88.971 0.617173 -3.35267 0
M  V30 975 H 90.164 -1.10111 -2.78954 0
M  V30 976 H 87.717 -0.608594 -1.43965 0
M  V30 977 H 88.452 1.46884 -2.89129 0
M  V30 978 H 88.237 0.0237066 -3.92093 0
M  V30 979 H 89.727 1.005 -4.05326 0
M  V30 980 N 90.1641 1.46063 -0.591896 0
M  V30 981 C 91.0941 2.33172 0.123673 0
M  V30 982 C 92.0751 1.45897 0.87453 0
M  V30 983 O 93.2601 1.74698 0.848181 0
M  V30 984 C 90.3901 3.28336 1.13194 0
M  V30 985 C 89.3441 4.25124 0.495324 0
M  V30 986 C 88.6701 5.09863 1.61071 0
M  V30 987 C 89.9701 5.19143 -0.573425 0
M  V30 988 H 91.6641 2.93252 -0.603646 0
M  V30 989 H 89.2101 1.41014 -0.291741 0
M  V30 990 H 91.1631 3.88137 1.64097 0
M  V30 991 H 89.8871 2.66383 1.88965 0
M  V30 992 H 88.5461 3.66599 0.00729452 0
M  V30 993 H 88.1941 4.44288 2.35832 0
M  V30 994 H 87.8941 5.75417 1.19035 0
M  V30 995 H 89.4181 5.72529 2.12233 0
M  V30 996 H 90.8321 5.73106 -0.1491 0
M  V30 997 H 89.2291 5.93089 -0.914636 0
M  V30 998 H 90.2991 4.62519 -1.45617 0
M  V30 999 N 91.6422 0.330177 1.54103 0
M  V30 1000 C 92.5722 -0.525353 2.27513 0
M  V30 1001 C 93.5532 -1.11383 1.2856 0
M  V30 1002 O 94.7382 -1.13773 1.57383 0
M  V30 1003 C 91.8682 -1.6831 3.03791 0
M  V30 1004 C 90.8222 -1.2236 4.10137 0
M  V30 1005 C 90.1482 -2.46882 4.74293 0
M  V30 1006 C 91.4482 -0.333697 5.21233 0
M  V30 1007 H 93.1422 0.087013 2.99274 0
M  V30 1008 H 90.6882 0.0432893 1.43935 0
M  V30 1009 H 92.6412 -2.28795 3.5388 0
M  V30 1010 H 91.3652 -2.32216 2.29659 0
M  V30 1011 H 90.0242 -0.64165 3.60941 0
M  V30 1012 H 89.6722 -3.09165 3.96769 0
M  V30 1013 H 89.3722 -2.16825 5.46133 0
M  V30 1014 H 90.8962 -3.08117 5.27159 0
M  V30 1015 H 92.3102 -0.845013 5.67038 0
M  V30 1016 H 90.7072 -0.125612 5.99969 0
M  V30 1017 H 91.7772 0.633724 4.80741 0
M  V30 1018 N 93.1203 -1.57491 0.0584922 0
M  V30 1019 C 94.3973 -1.84346 -0.653918 0
M  V30 1020 C 94.7773 -0.948355 -1.88599 0
M  V30 1021 O 94.1253 -0.0112403 -2.28497 0
M  V30 1022 C 94.3353 -3.34239 -1.00425 0
M  V30 1023 C 95.6833 -4.01431 -1.38342 0
M  V30 1024 O 96.7073 -3.38907 -1.09637 0
M  V30 1025 O 95.5663 -5.11683 -1.91943 0
M  V30 1026 H 92.6603 -0.761112 -0.323478 0
M  V30 1027 H 95.2063 -1.6947 0.0884125 0
M  V30 1028 H 93.9783 -3.91089 -0.128625 0
M  V30 1029 H 93.6013 -3.54329 -1.80378 0
M  V30 1030 N 94.5984 0.214957 -1.56127 0
M  V30 1031 C 95.8234 0.95924 -1.83884 0
M  V30 1032 C 96.2484 1.7689 -0.639644 0
M  V30 1033 O 95.6064 1.76566 0.411601 0
M  V30 1034 C 95.6544 1.84723 -3.09693 0
M  V30 1035 O 94.7584 2.94346 -2.8885 0
M  V30 1036 H 94.0994 0.27125 -0.606069 0
M  V30 1037 H 96.6294 0.226276 -2.03345 0
M  V30 1038 H 96.6394 2.25576 -3.39969 0
M  V30 1039 H 95.3144 1.25218 -3.96602 0
M  V30 1040 H 93.8914 2.57391 -2.69823 0
M  V30 1041 N 96.0765 1.50051 0.48192 0
M  V30 1042 C 97.0065 1.71046 1.58951 0
M  V30 1043 C 97.9875 0.559288 1.60642 0
M  V30 1044 O 99.1725 0.797243 1.77081 0
M  V30 1045 C 96.3025 1.79462 2.97339 0
M  V30 1046 C 95.2565 2.94558 3.10515 0
M  V30 1047 C 94.5825 2.88105 4.50444 0
M  V30 1048 C 95.8825 4.35227 2.88747 0
M  V30 1049 H 97.5765 2.6378 1.41635 0
M  V30 1050 H 95.1225 1.26936 0.679942 0
M  V30 1051 H 97.0755 1.92734 3.74742 0
M  V30 1052 H 95.7995 0.833412 3.15788 0
M  V30 1053 H 94.4585 2.80918 2.35543 0
M  V30 1054 H 94.1065 1.89853 4.65795 0
M  V30 1055 H 93.8065 3.65366 4.60197 0
M  V30 1056 H 95.3305 3.03412 5.29881 0
M  V30 1057 H 96.7445 4.49449 3.55905 0
M  V30 1058 H 95.1415 5.13856 3.09955 0
M  V30 1059 H 96.2115 4.48347 1.84696 0
M  V30 1060 N 97.5546 -0.734337 1.39446 0
M  V30 1061 C 98.5046 -1.83949 1.34709 0
M  V30 1062 C 99.4886 -1.59279 0.227851 0
M  V30 1063 O 100.681 -1.70771 0.465438 0
M  V30 1064 C 97.8096 -3.21884 1.19356 0
M  V30 1065 C 96.8956 -3.52381 2.35984 0
M  V30 1066 N 97.2866 -3.53811 3.61457 0
M  V30 1067 C 95.5846 -3.82747 2.28956 0
M  V30 1068 C 96.2856 -3.82122 4.38586 0
M  V30 1069 N 95.2616 -3.9993 3.68181 0
M  V30 1070 H 99.0636 -1.83361 2.29687 0
M  V30 1071 H 96.5776 -0.932609 1.32952 0
M  V30 1072 H 98.5746 -4.00998 1.14046 0
M  V30 1073 H 97.2346 -3.23711 0.253295 0
M  V30 1074 H 98.2456 -3.35107 3.94872 0
M  V30 1075 H 94.9226 -3.92175 1.43194 0
M  V30 1076 H 96.3126 -3.89691 5.47349 0
M  V30 1077 N 99.0327 -1.24633 -0.964593 0
M  V30 1078 C 99.9427 -1.05859 -2.09359 0
M  V30 1079 C 100.959 0.00148855 -1.74 0
M  V30 1080 O 102.135 -0.197346 -2.00431 0
M  V30 1081 C 99.1997 -0.668879 -3.40187 0
M  V30 1082 C 98.2607 -1.80578 -3.89474 0
M  V30 1083 C 97.4937 -1.43457 -5.14058 0
M  V30 1084 O 97.7167 -0.325775 -5.69469 0
M  V30 1085 O 96.6507 -2.2613 -5.57807 0
M  V30 1086 H 100.477 -2.00516 -2.28094 0
M  V30 1087 H 98.0617 -1.03481 -1.0776 0
M  V30 1088 H 99.9437 -0.463211 -4.18846 0
M  V30 1089 H 98.6187 0.248536 -3.22744 0
M  V30 1090 H 97.5257 -2.06623 -3.11862 0
M  V30 1091 H 98.8587 -2.70208 -4.11398 0
M  V30 1092 N 100.511 1.16574 -1.06058 0
M  V30 1093 C 101.739 1.90952 -0.796552 0
M  V30 1094 C 102.154 1.77302 0.648808 0
M  V30 1095 O 101.511 1.11605 1.44397 0
M  V30 1096 C 101.562 3.41736 -1.17894 0
M  V30 1097 O 101.283 3.54975 -2.56758 0
M  V30 1098 C 102.784 4.33169 -0.942308 0
M  V30 1099 H 100.004 0.605594 -0.288959 0
M  V30 1100 H 102.548 1.47777 -1.41358 0
M  V30 1101 H 100.703 3.82623 -0.606491 0
M  V30 1102 H 101.117 4.4846 -2.72 0
M  V30 1103 H 102.591 5.37439 -1.25952 0
M  V30 1104 H 103.068 4.3903 0.122078 0
M  V30 1105 H 103.674 3.98007 -1.49902 0
M  V30 1106 N 101.989 0.842826 1.3317 0
M  V30 1107 C 102.939 0.250877 2.26616 0
M  V30 1108 C 103.923 -0.596427 1.49437 0
M  V30 1109 O 105.115 -0.447747 1.71243 0
M  V30 1110 C 102.244 -0.569779 3.38539 0
M  V30 1111 C 101.33 0.289254 4.23112 0
M  V30 1112 N 101.721 1.36987 4.86897 0
M  V30 1113 C 100.019 0.0769631 4.45934 0
M  V30 1114 C 100.72 1.89737 5.49886 0
M  V30 1115 N 99.6959 1.19827 5.30229 0
M  V30 1116 H 103.498 1.07718 2.73448 0
M  V30 1117 H 101.012 0.687693 1.47121 0
M  V30 1118 H 103.009 -1.01018 4.04476 0
M  V30 1119 H 101.669 -1.39401 2.93253 0
M  V30 1120 H 102.68 1.75277 4.87338 0
M  V30 1121 H 99.3569 -0.713507 4.11358 0
M  V30 1122 H 100.747 2.80253 6.10662 0
M  V30 1123 N 103.467 -1.45747 0.599634 0
M  V30 1124 C 104.744 -1.95585 0.0240846 0
M  V30 1125 C 105.124 -1.54217 -1.44154 0
M  V30 1126 O 104.472 -0.800903 -2.14004 0
M  V30 1127 C 104.682 -3.48344 0.21385 0
M  V30 1128 C 106.03 -4.24504 0.0904902 0
M  V30 1129 O 107.054 -3.55911 0.143558 0
M  V30 1130 O 105.913 -5.46491 -0.0310766 0
M  V30 1131 H 103.007 -0.82602 -0.0402478 0
M  V30 1132 H 105.553 -1.55951 0.669139 0
M  V30 1133 H 104.325 -3.71397 1.23206 0
M  V30 1134 H 103.948 -3.9485 -0.466842 0
M  V30 1135 N 104.945 -0.338344 -1.53925 0
M  V30 1136 C 105.895 0.536712 -2.21593 0
M  V30 1137 C 106.879 1.07015 -1.20153 0
M  V30 1138 O 108.071 1.00471 -1.45721 0
M  V30 1139 C 105.2 1.68977 -2.98834 0
M  V30 1140 C 104.286 1.17052 -4.07627 0
M  V30 1141 N 104.677 0.372085 -5.0443 0
M  V30 1142 C 102.975 1.44789 -4.21844 0
M  V30 1143 C 103.676 0.0909171 -5.81629 0
M  V30 1144 N 102.652 0.681131 -5.39316 0
M  V30 1145 H 106.454 -0.0804298 -2.9379 0
M  V30 1146 H 103.968 -0.144943 -1.61752 0
M  V30 1147 H 105.965 2.32857 -3.45808 0
M  V30 1148 H 104.625 2.31024 -2.28162 0
M  V30 1149 H 105.636 0.0136217 -5.17898 0
M  V30 1150 H 102.313 2.07313 -3.62391 0
M  V30 1151 H 103.703 -0.552817 -6.69622 0
M  V30 1152 N 106.423 1.57458 -0.0668435 0
M  V30 1153 C 107.353 2.15468 0.899764 0
M  V30 1154 C 108.334 1.08042 1.31381 0
M  V30 1155 O 109.519 1.36054 1.38574 0
M  V30 1156 C 106.649 2.71232 2.16911 0
M  V30 1157 C 105.603 3.83781 1.89463 0
M  V30 1158 C 104.929 4.26127 3.22986 0
M  V30 1159 C 106.229 5.08238 1.20381 0
M  V30 1160 H 107.923 2.96488 0.416529 0
M  V30 1161 H 105.469 1.4262 0.198908 0
M  V30 1162 H 107.422 3.10458 2.84945 0
M  V30 1163 H 106.146 1.87426 2.67468 0
M  V30 1164 H 104.805 3.45051 1.23836 0
M  V30 1165 H 104.453 3.39249 3.71374 0
M  V30 1166 H 104.153 5.01993 3.05413 0
M  V30 1167 H 105.677 4.67966 3.92225 0
M  V30 1168 H 107.091 5.44811 1.78475 0
M  V30 1169 H 105.488 5.89349 1.13083 0
M  V30 1170 H 106.558 4.84558 0.182153 0
M  V30 1171 N 107.901 -0.206675 1.56239 0
M  V30 1172 C 108.864 -1.23976 1.92776 0
M  V30 1173 C 109.864 -1.39041 0.807729 0
M  V30 1174 O 111.054 -1.37051 1.0753 0
M  V30 1175 C 108.186 -2.61112 2.19165 0
M  V30 1176 H 109.379 -0.927764 2.85189 0
M  V30 1177 H 106.932 -0.447718 1.4975 0
M  V30 1178 H 107.667 -2.97386 1.29352 0
M  V30 1179 H 107.452 -2.51552 3.00772 0
M  V30 1180 H 108.942 -3.35633 2.48476 0
M  V30 1181 N 109.379 -1.50304 -0.473955 0
M  V30 1182 C 110.795 -1.37667 -0.807466 0
M  V30 1183 C 110.995 -0.430555 -1.96846 0
M  V30 1184 O 110.051 0.127874 -2.52176 0
M  V30 1185 C 111.364 -2.78974 -1.12223 0
M  V30 1186 C 112.912 -2.87868 -1.22885 0
M  V30 1187 C 113.387 -4.30003 -1.57676 0
M  V30 1188 N 114.878 -4.3294 -1.64673 0
M  V30 1189 C 115.613 -5.3991 -1.93091 0
M  V30 1190 N 115.109 -6.57092 -2.1955 0
M  V30 1191 N 116.902 -5.27351 -1.94569 0
M  V30 1192 H 109.053 -2.10394 0.291212 0
M  V30 1193 H 111.316 -0.945575 0.0677609 0
M  V30 1194 H 111.022 -3.50031 -0.342229 0
M  V30 1195 H 110.896 -3.16038 -2.05913 0
M  V30 1196 H 113.283 -2.17032 -1.99953 0
M  V30 1197 H 113.364 -2.54352 -0.271814 0
M  V30 1198 H 113.008 -5.01375 -0.81149 0
M  V30 1199 H 112.938 -4.61004 -2.54525 0
M  V30 1200 H 115.429 -3.48441 -1.46277 0
M  V30 1201 H 115.742 -7.34425 -2.405 0
M  V30 1202 H 114.087 -6.60272 -2.16948 0
M  V30 1203 H 117.278 -4.34801 -1.73394 0
M  V30 1204 H 117.451 -6.10805 -2.16381 0
M  V30 1205 N 110.857 0.726932 -1.39834 0
M  V30 1206 C 111.82 1.82269 -1.38962 0
M  V30 1207 C 112.82 1.58248 -0.285334 0
M  V30 1208 O 114.01 1.65499 -0.54366 0
M  V30 1209 C 111.142 3.20186 -1.17019 0
M  V30 1210 H 112.335 1.84443 -2.36476 0
M  V30 1211 H 109.888 0.931416 -1.25516 0
M  V30 1212 H 110.623 3.23669 -0.202204 0
M  V30 1213 H 110.408 3.3902 -1.96998 0
M  V30 1214 H 111.898 4.00235 -1.1917 0
M  V30 1215 N 112.336 1.25143 0.95797 0
M  V30 1216 C 113.561 1.12521 1.74223 0
M  V30 1217 C 113.986 -0.317402 1.85403 0
M  V30 1218 O 113.344 -1.2299 1.33204 0
M  V30 1219 C 113.392 1.78062 3.1357 0
M  V30 1220 O 112.496 1.058 3.98598 0
M  V30 1221 H 111.837 0.39304 0.535178 0
M  V30 1222 H 114.367 1.65641 1.201 0
M  V30 1223 H 114.377 1.84213 3.64046 0
M  V30 1224 H 113.052 2.83021 3.04749 0
M  V30 1225 H 111.629 1.07506 3.57067 0
M  V30 1226 N 113.814 -1.1601 1.06675 0
M  V30 1227 C 114.724 -2.24156 0.692179 0
M  V30 1228 C 115.74 -1.71507 -0.293513 0
M  V30 1229 O 116.916 -2.009 -0.141861 0
M  V30 1230 C 113.981 -3.46587 0.0884131 0
M  V30 1231 C 113.042 -4.14257 1.12646 0
M  V30 1232 C 112.275 -5.30844 0.551416 0
M  V30 1233 O 112.498 -5.66858 -0.634656 0
M  V30 1234 O 111.432 -5.87848 1.29298 0
M  V30 1235 H 115.258 -2.58513 1.59388 0
M  V30 1236 H 112.843 -1.23599 0.83926 0
M  V30 1237 H 114.725 -4.20679 -0.246361 0
M  V30 1238 H 113.4 -3.13994 -0.786712 0
M  V30 1239 H 112.307 -3.42118 1.51348 0
M  V30 1240 H 113.64 -4.50914 1.97325 0
M  V30 1241 N 115.292 -0.849877 -1.32721 0
M  V30 1242 C 116.517 -0.463856 -2.02146 0
M  V30 1243 C 116.942 0.930449 -1.63476 0
M  V30 1244 O 116.3 1.61033 -0.832952 0
M  V30 1245 C 116.348 -0.604955 -3.55489 0
M  V30 1246 O 115.452 0.36425 -4.10788 0
M  V30 1247 H 114.793 -0.187046 -0.637111 0
M  V30 1248 H 117.323 -1.14775 -1.69375 0
M  V30 1249 H 117.333 -0.490696 -4.05038 0
M  V30 1250 H 116.008 -1.62174 -3.82978 0
M  V30 1251 H 114.585 0.206628 -3.72327 0
M  V30 1252 N 116.77 1.45427 -0.607355 0
M  V30 1253 C 117.68 2.34325 0.113463 0
M  V30 1254 C 118.696 1.51226 0.860617 0
M  V30 1255 O 119.872 1.84029 0.818255 0
M  V30 1256 C 116.937 3.28839 1.09844 0
M  V30 1257 C 115.998 4.27844 0.353271 0
M  V30 1258 C 115.231 5.17842 1.29133 0
M  V30 1259 O 115.454 5.11264 2.52913 0
M  V30 1260 O 114.388 5.96713 0.788523 0
M  V30 1261 H 118.214 2.97364 -0.617094 0
M  V30 1262 H 115.799 1.44807 -0.367619 0
M  V30 1263 H 117.681 3.8708 1.66575 0
M  V30 1264 H 116.356 2.68365 1.81003 0
M  V30 1265 H 115.263 3.7322 -0.256494 0
M  V30 1266 H 116.596 4.91173 -0.317822 0
M  V30 1267 N 118.248 0.346503 1.53744 0
M  V30 1268 C 119.525 -0.304532 1.93215 0
M  V30 1269 C 119.905 -1.67993 1.27834 0
M  V30 1270 O 119.253 -2.24411 0.430352 0
M  V30 1271 C 119.463 -0.373852 3.46992 0
M  V30 1272 C 120.811 -0.62329 4.2 0
M  V30 1273 O 121.835 -0.455847 3.53271 0
M  V30 1274 O 120.694 -0.947879 5.38217 0
M  V30 1275 H 117.788 -0.178318 0.807547 0
M  V30 1276 H 120.334 0.397895 1.64969 0
M  V30 1277 H 119.106 0.591224 3.86808 0
M  V30 1278 H 118.729 -1.12294 3.81413 0
M  V30 1279 N 119.726 -1.57421 0.075193 0
M  V30 1280 C 120.636 -2.1642 -0.905511 0
M  V30 1281 C 121.652 -1.12828 -1.32461 0
M  V30 1282 O 122.828 -1.45109 -1.39661 0
M  V30 1283 C 119.893 -2.71693 -2.15369 0
M  V30 1284 C 118.954 -3.90171 -1.79068 0
M  V30 1285 C 118.187 -4.42798 -2.97936 0
M  V30 1286 O 118.41 -3.94416 -4.12058 0
M  V30 1287 O 117.344 -5.34085 -2.77555 0
M  V30 1288 H 121.17 -3.00588 -0.433626 0
M  V30 1289 H 118.755 -1.48664 -0.148067 0
M  V30 1290 H 120.637 -3.07104 -2.88557 0
M  V30 1291 H 119.312 -1.90582 -2.61649 0
M  V30 1292 H 118.219 -3.59606 -1.03122 0
M  V30 1293 H 119.552 -4.72584 -1.37569 0
M  V30 1294 N 121.204 0.198386 -1.56346 0
M  V30 1295 C 122.45 0.920648 -1.80698 0
M  V30 1296 C 122.783 1.83045 -0.648697 0
M  V30 1297 O 122.058 1.91308 0.350925 0
M  V30 1298 C 122.341 1.73971 -3.15287 0
M  V30 1299 C 122.194 0.85485 -4.41602 0
M  V30 1300 C 123.513 2.71296 -3.46535 0
M  V30 1301 H 120.632 0.333261 -0.657348 0
M  V30 1302 H 123.274 0.188198 -1.89066 0
M  V30 1303 H 121.424 2.36416 -3.08285 0
M  V30 1304 H 123.096 0.245362 -4.60647 0
M  V30 1305 H 121.339 0.161398 -4.335 0
M  V30 1306 H 122.01 1.46286 -5.32264 0
M  V30 1307 H 124.486 2.18983 -3.53816 0
M  V30 1308 H 123.362 3.2569 -4.41834 0
M  V30 1309 H 123.623 3.5018 -2.69864 0
M  V30 1310 N 122.682 1.50554 0.465978 0
M  V30 1311 C 123.959 1.5232 1.22712 0
M  V30 1312 C 124.339 0.270807 2.09356 0
M  V30 1313 O 123.687 -0.745541 2.15995 0
M  V30 1314 C 123.897 2.82175 2.05374 0
M  V30 1315 C 125.245 3.33033 2.6339 0
M  V30 1316 O 126.269 2.83531 2.15612 0
M  V30 1317 O 125.128 4.19336 3.50456 0
M  V30 1318 H 122.222 0.611183 0.557122 0
M  V30 1319 H 124.768 1.62847 0.477381 0
M  V30 1320 H 123.54 3.64797 1.41558 0
M  V30 1321 H 123.163 2.74675 2.87471 0
M  V30 1322 N 124.16 -0.719506 1.40217 0
M  V30 1323 C 125.571 -1.29848 1.34151 0
M  V30 1324 C 125.922 -1.96196 0.0131349 0
M  V30 1325 O 125.047 -1.973 -0.88892 0
M  V30 1326 C 125.642 -2.36118 2.42968 0
M  V30 1327 C 124.201 -2.8965 2.40374 0
M  V30 1328 C 123.348 -1.63393 2.24049 0
M  V30 1329 H 126.299 -0.51591 1.5008 0
M  V30 1330 H 126.32 -3.16871 2.10649 0
M  V30 1331 H 125.832 -1.878 3.39636 0
M  V30 1332 H 123.933 -3.42208 1.47392 0
M  V30 1333 H 124.046 -3.4171 3.35814 0
M  V30 1334 H 122.41 -1.88312 1.71495 0
M  V30 1335 H 123.193 -1.17104 3.2271 0
M  V30 1336 N 125.638 -1.25649 -0.95132 0
M  V30 1337 C 126.568 -1.08808 -2.06599 0
M  V30 1338 C 127.549 0.00382547 -1.701 0
M  V30 1339 O 128.734 -0.166325 -1.93486 0
M  V30 1340 C 125.864 -0.709542 -3.39975 0
M  V30 1341 C 124.818 -1.75206 -3.90496 0
M  V30 1342 C 124.144 -1.22811 -5.20405 0
M  V30 1343 C 125.444 -3.15153 -4.16504 0
M  V30 1344 H 127.138 -2.02048 -2.20946 0
M  V30 1345 H 124.684 -0.972835 -1.06169 0
M  V30 1346 H 126.637 -0.578649 -4.17408 0
M  V30 1347 H 125.361 0.258556 -3.25575 0
M  V30 1348 H 124.02 -1.87145 -3.15234 0
M  V30 1349 H 123.668 -0.250145 -5.02378 0
M  V30 1350 H 123.368 -1.92492 -5.55176 0
M  V30 1351 H 124.892 -1.10968 -6.00432 0
M  V30 1352 H 126.306 -3.06349 -4.84586 0
M  V30 1353 H 124.703 -3.82333 -4.62538 0
M  V30 1354 H 125.773 -3.61966 -3.22658 0
M  V30 1355 N 127.117 1.15442 -1.07289 0
M  V30 1356 C 128.365 1.85845 -0.794096 0
M  V30 1357 C 128.686 1.82692 0.681809 0
M  V30 1358 O 127.956 1.26741 1.49377 0
M  V30 1359 H 126.536 0.688089 -0.290763 0
M  V30 1360 H 129.198 1.39947 -1.3565 0
M  V30 1361 H 128.294 2.91001 -1.12804 0
M  V30 1362 N 128.595 0.856903 1.32268 0
M  V30 1363 C 129.835 0.467705 1.98977 0
M  V30 1364 C 130.199 -0.959231 1.66321 0
M  V30 1365 O 131.4 -1.4531 2.26138 0
M  V30 1366 C 129.671 0.70256 3.50427 0
M  V30 1367 S 131.23 0.411269 4.36868 0
M  V30 1368 H 128.048 0.175121 0.689096 0
M  V30 1369 H 130.65 1.1101 1.60925 0
M  V30 1370 H 129.354 1.74012 3.71683 0
M  V30 1371 H 128.885 0.0466707 3.93372 0
M  V30 1372 H 130.9 -0.761799 4.90317 0
M  V30 1373 N 130.073 -1.45103 0.615059 0
M  V30 1374 C 131.006 -2.27717 -0.148408 0
M  V30 1375 C 131.984 -1.37584 -0.866572 0
M  V30 1376 O 133.168 -1.67017 -0.87393 0
M  V30 1377 C 130.295 -3.16136 -1.21557 0
M  V30 1378 C 129.341 -4.22263 -0.599712 0
M  V30 1379 S 130.174 -5.3215 0.598081 0
M  V30 1380 C 131.33 -6.24137 -0.469484 0
M  V30 1381 H 131.563 -2.92121 0.552483 0
M  V30 1382 H 129.096 -1.49054 0.402778 0
M  V30 1383 H 131.054 -3.67633 -1.82638 0
M  V30 1384 H 129.715 -2.50982 -1.88857 0
M  V30 1385 H 128.908 -4.84081 -1.4029 0
M  V30 1386 H 128.51 -3.73945 -0.063876 0
M  V30 1387 H 130.802 -6.63984 -1.34652 0
M  V30 1388 H 131.745 -7.0801 0.112725 0
M  V30 1389 H 132.153 -5.58971 -0.788168 0
M  V30 1390 N 131.551 -0.354651 -1.53558 0
M  V30 1391 C 132.967 -0.00315426 -1.596 0
M  V30 1392 C 133.167 1.47741 -1.37021 0
M  V30 1393 O 132.223 2.23759 -1.16996 0
M  V30 1394 C 133.536 -0.44929 -2.97325 0
M  V30 1395 C 135.084 -0.402578 -3.104 0
M  V30 1396 C 135.559 -0.824355 -4.5052 0
M  V30 1397 N 137.05 -0.778979 -4.56603 0
M  V30 1398 C 137.785 -1.07715 -5.63192 0
M  V30 1399 N 137.281 -1.44405 -6.77583 0
M  V30 1400 N 139.074 -1.00066 -5.53121 0
M  V30 1401 H 131.225 -1.31893 -1.66487 0
M  V30 1402 H 133.488 -0.538388 -0.780284 0
M  V30 1403 H 133.194 -1.48202 -3.1895 0
M  V30 1404 H 133.068 0.169772 -3.76818 0
M  V30 1405 H 135.455 0.621004 -2.88492 0
M  V30 1406 H 135.536 -1.05699 -2.32941 0
M  V30 1407 H 135.18 -1.846 -4.73165 0
M  V30 1408 H 135.11 -0.147304 -5.26394 0
M  V30 1409 H 137.601 -0.508528 -3.74463 0
M  V30 1410 H 137.914 -1.65612 -7.54846 0
M  V30 1411 H 136.259 -1.4826 -6.79002 0
M  V30 1412 H 139.45 -0.713293 -4.62633 0
M  V30 1413 H 139.623 -1.23638 -6.36096 0
M  V30 1414 N 133.029 1.57378 -0.0835403 0
M  V30 1415 C 133.976 2.13384 0.879539 0
M  V30 1416 C 134.946 1.04936 1.28754 0
M  V30 1417 O 136.131 1.32662 1.37133 0
M  V30 1418 C 133.271 2.70932 2.13752 0
M  V30 1419 C 132.384 3.93575 1.7811 0
M  V30 1420 C 131.519 4.39326 2.98607 0
M  V30 1421 C 130.558 5.54587 2.59037 0
M  V30 1422 N 129.695 5.95243 3.72331 0
M  V30 1423 H 134.535 2.9537 0.395076 0
M  V30 1424 H 132.072 1.45953 0.183349 0
M  V30 1425 H 134.03 3.02411 2.87408 0
M  V30 1426 H 132.66 1.91693 2.59718 0
M  V30 1427 H 131.712 3.68483 0.94469 0
M  V30 1428 H 133.024 4.77258 1.45005 0
M  V30 1429 H 132.178 4.72528 3.80529 0
M  V30 1430 H 130.917 3.5452 3.34913 0
M  V30 1431 H 129.922 5.21024 1.75539 0
M  V30 1432 H 131.147 6.41133 2.23887 0
M  V30 1433 H 129.093 5.13385 4.08378 0
M  V30 1434 H 129.01 6.73694 3.43034 0
M  V30 1435 H 130.278 6.33072 4.54797 0
M  V30 1436 N 134.507 -0.190092 1.56449 0
M  V30 1437 C 135.437 -1.23816 1.97969 0
M  V30 1438 C 136.418 -1.47201 0.852395 0
M  V30 1439 O 137.603 -1.58854 1.1171 0
M  V30 1440 C 134.733 -2.5813 2.3235 0
M  V30 1441 C 133.687 -2.49348 3.47864 0
M  V30 1442 C 133.013 -3.8798 3.67934 0
M  V30 1443 C 134.313 -2.01424 4.81898 0
M  V30 1444 H 136.007 -0.89311 2.85769 0
M  V30 1445 H 133.553 -0.428177 1.37487 0
M  V30 1446 H 135.506 -3.31637 2.59991 0
M  V30 1447 H 134.23 -2.94386 1.41438 0
M  V30 1448 H 132.889 -1.78297 3.20321 0
M  V30 1449 H 132.537 -4.21597 2.74344 0
M  V30 1450 H 132.237 -3.82978 4.45648 0
M  V30 1451 H 133.761 -4.63101 3.97957 0
M  V30 1452 H 135.175 -2.64693 5.08538 0
M  V30 1453 H 133.572 -2.07413 5.63116 0
M  V30 1454 H 134.642 -0.967677 4.75146 0
M  V30 1455 N 135.985 -1.50799 -0.457987 0
M  V30 1456 C 136.915 -1.73553 -1.5621 0
M  V30 1457 C 137.896 -0.584774 -1.59732 0
M  V30 1458 O 139.081 -0.825314 -1.7579 0
M  V30 1459 C 136.211 -1.84169 -2.94447 0
M  V30 1460 C 135.165 -2.99461 -3.0579 0
M  V30 1461 C 134.491 -2.95235 -4.45803 0
M  V30 1462 C 135.791 -4.39766 -2.81786 0
M  V30 1463 H 137.485 -2.66 -1.37421 0
M  V30 1464 H 135.031 -1.28002 -0.659662 0
M  V30 1465 H 136.984 -1.98672 -3.71628 0
M  V30 1466 H 135.708 -0.883545 -3.14422 0
M  V30 1467 H 134.367 -2.8463 -2.31044 0
M  V30 1468 H 134.015 -1.97239 -4.62715 0
M  V30 1469 H 133.715 -3.72642 -4.54326 0
M  V30 1470 H 135.239 -3.11803 -5.24987 0
M  V30 1471 H 136.653 -4.55054 -3.4871 0
M  V30 1472 H 135.05 -5.18722 -3.0174 0
M  V30 1473 H 136.12 -4.51229 -1.7754 0
M  V30 1474 N 137.463 0.71206 -1.40597 0
M  V30 1475 C 138.393 1.83889 -1.43899 0
M  V30 1476 C 139.374 1.67442 -0.299504 0
M  V30 1477 O 140.559 1.87421 -0.508624 0
M  V30 1478 C 137.689 3.21877 -1.30431 0
M  V30 1479 C 136.643 3.53002 -2.42019 0
M  V30 1480 C 135.969 4.90172 -2.13626 0
M  V30 1481 C 137.269 3.53643 -3.84362 0
M  V30 1482 H 138.963 1.81383 -2.38203 0
M  V30 1483 H 136.509 0.871237 -1.14654 0
M  V30 1484 H 138.462 4.00404 -1.31357 0
M  V30 1485 H 137.186 3.24968 -0.326049 0
M  V30 1486 H 135.845 2.76818 -2.40349 0
M  V30 1487 H 135.493 4.89869 -1.14182 0
M  V30 1488 H 135.193 5.11962 -2.88389 0
M  V30 1489 H 136.717 5.71028 -2.1624 0
M  V30 1490 H 138.131 4.22203 -3.87837 0
M  V30 1491 H 136.528 3.86961 -4.58673 0
M  V30 1492 H 137.598 2.52954 -4.13693 0
M  V30 1493 N 138.941 1.26152 0.944643 0
M  V30 1494 C 139.873 1.03199 2.04652 0
M  V30 1495 C 140.886 -0.00642356 1.62799 0
M  V30 1496 O 142.075 0.233263 1.76969 0
M  V30 1497 C 139.175 0.540111 3.34568 0
M  V30 1498 C 138.348 1.64697 4.05208 0
M  V30 1499 C 137.407 1.15374 5.13396 0
M  V30 1500 O 136.433 1.85013 5.38293 0
M  V30 1501 N 137.635 0.00031529 5.805 0
M  V30 1502 H 140.4 1.9808 2.2491 0
M  V30 1503 H 137.961 1.17491 1.11389 0
M  V30 1504 H 139.953 0.194401 4.04233 0
M  V30 1505 H 138.523 -0.315021 3.11009 0
M  V30 1506 H 137.743 2.16379 3.29506 0
M  V30 1507 H 139.031 2.3903 4.49157 0
M  V30 1508 H 138.429 -0.581336 5.62705 0
M  V30 1509 H 136.986 -0.286346 6.51171 0
M  V30 1510 N 140.419 -1.14872 1.07899 0
M  V30 1511 C 141.665 -1.86064 0.806725 0
M  V30 1512 C 141.998 -1.82434 -0.665706 0
M  V30 1513 O 141.273 -1.25138 -1.48899 0
M  V30 1514 C 141.556 -3.34929 1.32267 0
M  V30 1515 C 141.409 -3.47161 2.86006 0
M  V30 1516 C 142.728 -4.29863 0.943717 0
M  V30 1517 H 139.847 -0.675591 0.294526 0
M  V30 1518 H 142.489 -1.34925 1.33773 0
M  V30 1519 H 140.639 -3.78611 0.870974 0
M  V30 1520 H 142.311 -3.12302 3.39507 0
M  V30 1521 H 140.554 -2.88539 3.23925 0
M  V30 1522 H 141.225 -4.51777 3.17177 0
M  V30 1523 H 143.701 -3.9417 1.33302 0
M  V30 1524 H 142.577 -5.32494 1.33198 0
M  V30 1525 H 142.838 -4.41846 -0.149796 0
M  V30 1526 N 141.898 -0.863906 -1.31812 0
M  V30 1527 C 143.145 -0.471836 -1.96926 0
M  V30 1528 C 143.473 0.974578 -1.68322 0
M  V30 1529 O 142.728 1.7003 -0.968933 0
M  V30 1530 C 143.027 -0.668547 -3.51091 0
M  V30 1531 C 142.693 -2.08683 -3.99703 0
M  V30 1532 C 141.355 -2.47471 -4.12688 0
M  V30 1533 C 143.707 -3.01207 -4.25351 0
M  V30 1534 C 141.035 -3.78037 -4.4867 0
M  V30 1535 C 143.387 -4.31282 -4.62794 0
M  V30 1536 C 142.051 -4.69992 -4.73987 0
M  V30 1537 H 141.321 -0.172657 -0.720604 0
M  V30 1538 H 143.968 -1.09573 -1.57054 0
M  V30 1539 H 142.273 0.0385252 -3.91781 0
M  V30 1540 H 143.97 -0.345102 -3.99512 0
M  V30 1541 H 140.56 -1.77566 -3.90087 0
M  V30 1542 H 144.744 -2.72469 -4.14819 0
M  V30 1543 H 140 -4.078 -4.55532 0
M  V30 1544 H 144.174 -5.03031 -4.81594 0
M  V30 1545 H 141.801 -5.71207 -5.01624 0
M  V30 1546 N 143.376 1.44774 -0.622745 0
M  V30 1547 C 144.324 2.32387 0.0994683 0
M  V30 1548 C 145.318 1.46859 0.844326 0
M  V30 1549 O 146.524 1.63254 0.758174 0
M  V30 1550 H 142.899 0.750273 0.0509291 0
M  V30 1551 H 144.87 2.91062 -0.65767 0
M  V30 1552 C 143.619 3.30723 1.07319 0
M  V30 1553 H 142.942 3.96541 0.509462 0
M  V30 1554 H 144.382 3.94725 1.54817 0
M  V30 1555 C 142.841 2.59021 2.15429 0
M  V30 1556 O 143.371 2.38286 3.23393 0
M  V30 1557 N 141.577 2.189 1.91131 0
M  V30 1558 H 141.124 2.35964 1.03337 0
M  V30 1559 H 141.082 1.71251 2.63668 0
M  V30 1560 N 144.854 0.36279 1.53368 0
M  V30 1561 C 145.764 -0.492994 2.29362 0
M  V30 1562 C 146.78 -1.09507 1.35219 0
M  V30 1563 O 147.956 -1.10662 1.68273 0
M  V30 1564 C 145.021 -1.61855 3.066 0
M  V30 1565 C 144.082 -1.04429 4.16405 0
M  V30 1566 C 143.315 -2.11621 4.89951 0
M  V30 1567 O 143.538 -3.32684 4.63333 0
M  V30 1568 O 142.472 -1.74835 5.75948 0
M  V30 1569 H 146.298 0.125331 3.03441 0
M  V30 1570 H 143.883 0.127253 1.48857 0
M  V30 1571 H 145.765 -2.27302 3.54841 0
M  V30 1572 H 144.44 -2.22233 2.3536 0
M  V30 1573 H 143.347 -0.353819 3.72423 0
M  V30 1574 H 144.68 -0.485113 4.89804 0
M  V30 1575 N 146.332 -1.57332 0.0918853 0
M  V30 1576 C 147.262 -2.16872 -0.865371 0
M  V30 1577 C 148.243 -1.10118 -1.29646 0
M  V30 1578 O 149.428 -1.38242 -1.36392 0
M  V30 1579 C 146.558 -2.74649 -2.12569 0
M  V30 1580 C 145.512 -3.86747 -1.83333 0
M  V30 1581 C 144.838 -4.31212 -3.16166 0
M  V30 1582 C 146.138 -5.10089 -1.1228 0
M  V30 1583 H 147.832 -2.97114 -0.369307 0
M  V30 1584 H 145.378 -1.42918 -0.176194 0
M  V30 1585 H 147.331 -3.14952 -2.7997 0
M  V30 1586 H 146.055 -1.91657 -2.64452 0
M  V30 1587 H 144.714 -3.46978 -1.18331 0
M  V30 1588 H 144.362 -3.45115 -3.6593 0
M  V30 1589 H 144.062 -5.06788 -2.97388 0
M  V30 1590 H 145.586 -4.74146 -3.84731 0
M  V30 1591 H 147 -5.47582 -1.69785 0
M  V30 1592 H 145.397 -5.91073 -1.03693 0
M  V30 1593 H 146.467 -4.84786 -0.105041 0
M  V30 1594 N 147.81 0.181792 -1.56548 0
M  V30 1595 C 149.056 0.901431 -1.81665 0
M  V30 1596 C 149.389 1.82347 -0.668075 0
M  V30 1597 O 148.664 1.91669 0.330615 0
M  V30 1598 C 148.947 1.70618 -3.17115 0
M  V30 1599 C 148.8 0.807964 -4.42484 0
M  V30 1600 C 150.119 2.67605 -3.49393 0
M  V30 1601 H 147.238 0.32627 -0.660846 0
M  V30 1602 H 149.88 0.168134 -1.89255 0
M  V30 1603 H 148.03 2.33133 -3.10775 0
M  V30 1604 H 149.702 0.19649 -4.60881 0
M  V30 1605 H 147.945 0.115411 -4.33646 0
M  V30 1606 H 148.616 1.40632 -5.33785 0
M  V30 1607 H 151.092 2.15218 -3.56118 0
M  V30 1608 H 149.968 3.20985 -4.45264 0
M  V30 1609 H 150.229 3.47298 -2.73563 0
M  V30 1610 N 149.288 1.51039 0.449983 0
M  V30 1611 C 150.218 1.74379 1.55288 0
M  V30 1612 C 151.199 0.593236 1.5942 0
M  V30 1613 O 152.384 0.834625 1.7535 0
M  V30 1614 C 149.514 1.85728 2.93466 0
M  V30 1615 C 148.468 3.01078 3.04197 0
M  V30 1616 C 147.794 2.97595 4.44231 0
M  V30 1617 C 149.094 4.41254 2.7945 0
M  V30 1618 H 150.788 2.66725 1.36008 0
M  V30 1619 H 148.334 1.2835 0.652864 0
M  V30 1620 H 150.287 2.0064 3.70569 0
M  V30 1621 H 149.011 0.900207 3.13949 0
M  V30 1622 H 147.67 2.85851 2.29531 0
M  V30 1623 H 147.318 1.99691 4.61663 0
M  V30 1624 H 147.018 3.75046 4.52343 0
M  V30 1625 H 148.542 3.14583 5.23326 0
M  V30 1626 H 149.956 4.56897 3.46292 0
M  V30 1627 H 148.353 5.20315 2.98985 0
M  V30 1628 H 149.423 4.52164 1.75144 0
M  V30 1629 N 150.766 -0.704594 1.40972 0
M  V30 1630 C 152.043 -1.45847 1.30338 0
M  V30 1631 C 152.423 -2.10973 -0.0732344 0
M  V30 1632 O 151.771 -2.00997 -1.08685 0
M  V30 1633 C 151.981 -2.48525 2.45023 0
M  V30 1634 C 153.329 -3.1404 2.8577 0
M  V30 1635 O 154.353 -2.58848 2.44696 0
M  V30 1636 O 153.212 -4.13981 3.56766 0
M  V30 1637 H 150.306 -0.649092 0.512454 0
M  V30 1638 H 152.852 -0.735836 1.52917 0
M  V30 1639 H 151.624 -1.98994 3.36923 0
M  V30 1640 H 151.247 -3.2831 2.24272 0
M  V30 1641 N 152.244 -1.26651 -0.937939 0
M  V30 1642 C 153.207 -1.08546 -2.01867 0
M  V30 1643 C 154.207 -0.0327327 -1.60767 0
M  V30 1644 O 155.397 -0.276427 -1.71993 0
M  V30 1645 C 152.529 -0.651711 -3.34613 0
M  V30 1646 H 153.722 -2.04502 -2.1936 0
M  V30 1647 H 151.275 -1.09294 -1.11734 0
M  V30 1648 H 152.01 0.309696 -3.22818 0
M  V30 1649 H 151.795 -1.41189 -3.65798 0
M  V30 1650 H 153.285 -0.546973 -4.14002 0
M  V30 1651 N 153.722 1.14298 -1.08507 0
M  V30 1652 C 155.138 1.37347 -0.812901 0
M  V30 1653 C 155.338 1.93052 0.577325 0
M  V30 1654 O 154.394 2.14389 1.33393 0
M  V30 1655 C 155.707 2.33359 -1.89642 0
M  V30 1656 C 157.255 2.46996 -1.92255 0
M  V30 1657 C 157.73 3.46309 -2.99724 0
M  V30 1658 N 159.221 3.53853 -2.98902 0
M  V30 1659 C 159.956 4.3055 -3.787 0
M  V30 1660 N 159.452 5.10482 -4.6838 0
M  V30 1661 N 161.245 4.25757 -3.66998 0
M  V30 1662 H 153.396 0.764867 -1.9815 0
M  V30 1663 H 155.659 0.398966 -0.859959 0
M  V30 1664 H 155.365 1.99565 -2.89597 0
M  V30 1665 H 155.239 3.33274 -1.76659 0
M  V30 1666 H 157.626 2.80081 -0.929445 0
M  V30 1667 H 157.707 1.47039 -2.09316 0
M  V30 1668 H 157.351 3.13957 -3.99241 0
M  V30 1669 H 157.281 4.46049 -2.79907 0
M  V30 1670 H 159.772 2.96812 -2.33904 0
M  V30 1671 H 160.085 5.66284 -5.25873 0
M  V30 1672 H 158.43 5.09747 -4.72422 0
M  V30 1673 H 161.621 3.62383 -2.96304 0
M  V30 1674 H 161.794 4.85279 -4.29427 0
M  V30 1675 N 155.201 0.870884 1.31352 0
M  V30 1676 C 156.429 0.49677 2.00848 0
M  V30 1677 C 156.844 -0.910998 1.65367 0
M  V30 1678 O 156.201 -1.59696 0.883374 0
M  V30 1679 C 156.252 0.645308 3.55694 0
M  V30 1680 O 155.973 1.99764 3.89905 0
M  V30 1681 C 157.474 0.272326 4.42463 0
M  V30 1682 H 154.694 0.193462 0.642506 0
M  V30 1683 H 157.238 1.1723 1.67563 0
M  V30 1684 H 155.393 0.0173176 3.87396 0
M  V30 1685 H 155.807 2.00607 4.84621 0
M  V30 1686 H 157.281 0.427208 5.50344 0
M  V30 1687 H 157.758 -0.788587 4.32062 0
M  V30 1688 H 158.364 0.876054 4.1618 0
M  V30 1689 N 156.679 -1.44442 0.630414 0
M  V30 1690 C 158.095 -1.56832 0.295973 0
M  V30 1691 C 158.295 -1.61806 -1.20088 0
M  V30 1692 O 157.351 -1.5607 -1.9849 0
M  V30 1693 C 158.664 -2.84031 0.987264 0
M  V30 1694 C 160.212 -2.97742 0.96534 0
M  V30 1695 C 160.687 -4.27743 1.63708 0
M  V30 1696 N 162.178 -4.34555 1.60364 0
M  V30 1697 C 162.913 -5.33862 2.09234 0
M  V30 1698 N 162.409 -6.39578 2.66292 0
M  V30 1699 N 164.202 -5.25366 1.99867 0
M  V30 1700 H 156.353 -1.39457 1.60205 0
M  V30 1701 H 158.616 -0.668237 0.672431 0
M  V30 1702 H 158.322 -2.86338 2.04215 0
M  V30 1703 H 158.196 -3.73534 0.524588 0
M  V30 1704 H 160.583 -2.94989 -0.0810639 0
M  V30 1705 H 160.664 -2.09589 1.4665 0
M  V30 1706 H 160.308 -4.31255 2.68293 0
M  V30 1707 H 160.238 -5.14752 1.11076 0
M  V30 1708 H 162.729 -3.58772 1.18705 0
M  V30 1709 H 163.042 -7.11637 3.01317 0
M  V30 1710 H 161.387 -6.40265 2.70343 0
M  V30 1711 H 164.578 -4.41688 1.55013 0
M  V30 1712 H 164.751 -6.02606 2.38265 0
M  V30 1713 N 158.157 -0.370918 -1.53173 0
M  V30 1714 C 159.573 -0.0200818 -1.59587 0
M  V30 1715 C 159.773 1.46279 -1.38581 0
M  V30 1716 O 158.829 2.22506 -1.19363 0
M  V30 1717 C 160.142 -0.4808 -2.96831 0
M  V30 1718 C 161.69 -0.435477 -3.09956 0
M  V30 1719 C 162.165 -0.872092 -4.4962 0
M  V30 1720 N 163.656 -0.827364 -4.55751 0
M  V30 1721 C 164.391 -1.13683 -5.62018 0
M  V30 1722 N 163.887 -1.51584 -6.76014 0
M  V30 1723 N 165.68 -1.05927 -5.52029 0
M  V30 1724 H 157.831 -1.33652 -1.65079 0
M  V30 1725 H 160.094 -0.546634 -0.774529 0
M  V30 1726 H 159.8 -1.51577 -3.1736 0
M  V30 1727 H 159.674 0.129796 -3.76977 0
M  V30 1728 H 162.061 0.590371 -2.89134 0
M  V30 1729 H 162.142 -1.08164 -2.31806 0
M  V30 1730 H 161.786 -1.89608 -4.71181 0
M  V30 1731 H 161.716 -0.203127 -5.26208 0
M  V30 1732 H 164.207 -0.548216 -3.73902 0
M  V30 1733 H 164.52 -1.73609 -7.53047 0
M  V30 1734 H 162.865 -1.55454 -6.77391 0
M  V30 1735 H 166.056 -0.762321 -4.61851 0
M  V30 1736 H 166.229 -1.30378 -6.34749 0
M  V30 1737 N 159.635 1.57281 -0.100228 0
M  V30 1738 C 160.884 1.93713 0.561984 0
M  V30 1739 C 161.197 0.984492 1.69018 0
M  V30 1740 O 162.403 1.24273 2.41389 0
M  V30 1741 C 160.859 3.4421 1.05106 0
M  V30 1742 C 160.467 4.47975 -0.0476628 0
M  V30 1743 C 162.211 3.89595 1.68571 0
M  V30 1744 C 160.118 5.89631 0.457055 0
M  V30 1745 H 159.048 0.723082 0.2137 0
M  V30 1746 H 161.699 1.82644 -0.177057 0
M  V30 1747 H 160.081 3.50449 1.84395 0
M  V30 1748 H 161.255 4.53385 -0.823333 0
M  V30 1749 H 159.57 4.1223 -0.587816 0
M  V30 1750 H 162.167 4.92832 2.07414 0
M  V30 1751 H 162.51 3.28526 2.55688 0
M  V30 1752 H 163.043 3.86078 0.958562 0
M  V30 1753 H 159.782 6.54411 -0.377616 0
M  V30 1754 H 159.302 5.87681 1.19962 0
M  V30 1755 H 160.981 6.40363 0.92437 0
M  V30 1756 N 161.113 -0.173488 1.56642 0
M  V30 1757 C 162.061 -1.23417 1.97157 0
M  V30 1758 C 163.055 -1.45946 0.860013 0
M  V30 1759 O 164.261 -1.46551 1.04512 0
M  V30 1760 H 160.636 -0.414818 0.62724 0
M  V30 1761 H 162.607 -0.865582 2.8557 0
M  V30 1762 C 161.356 -2.5665 2.34576 0
M  V30 1763 H 160.679 -2.40137 3.19647 0
M  V30 1764 H 162.119 -3.2956 2.6677 0
M  V30 1765 C 160.578 -3.15245 1.18836 0
M  V30 1766 O 161.108 -3.98883 0.474869 0
M  V30 1767 N 159.314 -2.74303 0.959497 0
M  V30 1768 H 158.861 -2.0639 1.54146 0
M  V30 1769 H 158.819 -3.13844 0.186932 0
M  V30 1770 N 162.591 -1.51276 -0.441967 0
M  V30 1771 C 163.501 -1.75092 -1.56141 0
M  V30 1772 C 164.517 -0.634963 -1.62001 0
M  V30 1773 O 165.693 -0.916686 -1.79329 0
M  V30 1774 C 162.758 -1.86666 -2.92158 0
M  V30 1775 C 161.819 -3.10506 -2.96453 0
M  V30 1776 C 161.052 -3.21519 -4.25982 0
M  V30 1777 O 161.275 -2.38586 -5.18105 0
M  V30 1778 O 160.209 -4.14465 -4.36466 0
M  V30 1779 H 164.035 -2.70044 -1.38961 0
M  V30 1780 H 161.62 -1.35722 -0.624499 0
M  V30 1781 H 163.502 -1.96292 -3.72891 0
M  V30 1782 H 162.177 -0.949014 -3.09476 0
M  V30 1783 H 161.084 -3.06363 -2.14692 0
M  V30 1784 H 162.417 -4.01945 -2.84079 0
M  V30 1785 N 164.069 0.697108 -1.41344 0
M  V30 1786 C 165.318 1.45279 -1.39918 0
M  V30 1787 C 165.631 1.95597 -0.0109624 0
M  V30 1788 O 166.837 2.71208 0.125919 0
M  V30 1789 C 165.293 2.62695 -2.46007 0
M  V30 1790 C 164.901 2.19169 -3.90729 0
M  V30 1791 C 166.645 3.40336 -2.53715 0
M  V30 1792 C 164.552 3.33535 -4.88373 0
M  V30 1793 H 163.482 0.545692 -0.520323 0
M  V30 1794 H 166.133 0.756929 -1.67161 0
M  V30 1795 H 164.515 3.34541 -2.11892 0
M  V30 1796 H 165.689 1.54623 -4.34083 0
M  V30 1797 H 164.004 1.54525 -3.86666 0
M  V30 1798 H 166.601 4.2547 -3.2385 0
M  V30 1799 H 166.944 3.85418 -1.5735 0
M  V30 1800 H 167.477 2.75546 -2.86913 0
M  V30 1801 H 164.216 2.93468 -5.86137 0
M  V30 1802 H 163.736 3.96936 -4.49668 0
M  V30 1803 H 165.415 3.99335 -5.09059 0
M  V30 1804 N 165.547 1.27147 0.931209 0
M  V30 1805 C 166.477 1.12081 2.04842 0
M  V30 1806 C 167.458 0.0232364 1.70084 0
M  V30 1807 O 168.643 0.197085 1.93197 0
M  V30 1808 C 165.773 0.76354 3.38803 0
M  V30 1809 C 164.727 1.81396 3.87659 0
M  V30 1810 C 164.053 1.31075 5.18385 0
M  V30 1811 C 165.353 3.21739 4.11438 0
M  V30 1812 H 167.047 2.05537 2.17703 0
M  V30 1813 H 164.593 0.989603 1.04608 0
M  V30 1814 H 166.546 0.644982 4.16435 0
M  V30 1815 H 165.27 -0.206727 3.25945 0
M  V30 1816 H 163.929 1.92136 3.12217 0
M  V30 1817 H 163.577 0.330037 5.01916 0
M  V30 1818 H 163.277 2.013 5.52044 0
M  V30 1819 H 164.801 1.20506 5.98591 0
M  V30 1820 H 166.215 3.14019 4.79651 0
M  V30 1821 H 164.612 3.89644 4.56397 0
M  V30 1822 H 165.682 3.67054 3.16859 0
M  V30 1823 N 167.025 -1.13721 1.09112 0
M  V30 1824 C 167.975 -2.17082 0.697091 0
M  V30 1825 C 168.959 -1.58321 -0.286923 0
M  V30 1826 O 170.151 -1.7673 -0.0978008 0
M  V30 1827 C 167.28 -3.43105 0.115729 0
M  V30 1828 C 166.366 -4.0888 1.12596 0
M  V30 1829 N 166.757 -4.4987 2.31195 0
M  V30 1830 C 165.055 -4.35471 0.963366 0
M  V30 1831 C 165.756 -5.01094 2.95431 0
M  V30 1832 N 164.732 -4.95751 2.23006 0
M  V30 1833 H 168.534 -2.46524 1.6001 0
M  V30 1834 H 166.048 -1.30481 0.966869 0
M  V30 1835 H 168.045 -4.16491 -0.184555 0
M  V30 1836 H 166.705 -3.15138 -0.78217 0
M  V30 1837 H 167.716 -4.42678 2.68806 0
M  V30 1838 H 164.393 -4.17328 0.119878 0
M  V30 1839 H 165.783 -5.4263 3.96236 0
M  V30 1840 N 168.503 -0.877838 -1.30888 0
M  V30 1841 C 169.453 -0.310872 -2.25871 0
M  V30 1842 C 170.437 0.556596 -1.50966 0
M  V30 1843 O 171.629 0.402187 -1.7237 0
M  V30 1844 C 168.758 0.479821 -3.3993 0
M  V30 1845 C 167.844 -0.401333 -4.22197 0
M  V30 1846 N 168.235 -1.49848 -4.83093 0
M  V30 1847 C 166.533 -0.195167 -4.45573 0
M  V30 1848 C 167.234 -2.0425 -5.44662 0
M  V30 1849 N 166.21 -1.33843 -5.26865 0
M  V30 1850 H 170.012 -1.1493 -2.70496 0
M  V30 1851 H 167.526 -0.726458 -1.45246 0
M  V30 1852 H 169.523 0.902582 -4.07012 0
M  V30 1853 H 168.183 1.31577 -2.96846 0
M  V30 1854 H 169.194 -1.88137 -4.82519 0
M  V30 1855 H 165.871 0.604192 -4.13105 0
M  V30 1856 H 167.261 -2.96345 -6.03017 0
M  V30 1857 N 169.982 1.44106 -0.638065 0
M  V30 1858 C 170.929 2.30715 0.062701 0
M  V30 1859 C 171.899 1.43882 0.829883 0
M  V30 1860 O 173.084 1.72775 0.809532 0
M  V30 1861 C 170.224 3.29258 1.03358 0
M  V30 1862 C 169.337 4.31192 0.26409 0
M  V30 1863 C 168.472 5.16825 1.22741 0
M  V30 1864 C 167.511 6.10462 0.447475 0
M  V30 1865 N 166.648 6.8877 1.36161 0
M  V30 1866 H 171.488 2.90096 -0.681781 0
M  V30 1867 H 169.025 1.42925 -0.347988 0
M  V30 1868 H 170.983 3.84886 1.60992 0
M  V30 1869 H 169.613 2.71562 1.74511 0
M  V30 1870 H 168.665 3.77981 -0.428295 0
M  V30 1871 H 169.977 4.97619 -0.343052 0
M  V30 1872 H 169.131 5.77004 1.87487 0
M  V30 1873 H 167.87 4.50488 1.86847 0
M  V30 1874 H 166.875 5.49386 -0.213433 0
M  V30 1875 H 168.1 6.78837 -0.188968 0
M  V30 1876 H 166.046 6.25096 1.98975 0
M  V30 1877 H 165.963 7.51663 0.808656 0
M  V30 1878 H 167.231 7.53467 1.99769 0
M  V30 1879 N 171.46 0.379036 1.52974 0
M  V30 1880 C 172.7 -0.206325 2.03356 0
M  V30 1881 C 173.064 -1.44892 1.25977 0
M  V30 1882 O 174.265 -2.11078 1.66432 0
M  V30 1883 C 172.536 -0.477887 3.54191 0
M  V30 1884 S 174.095 -1.035 4.26419 0
M  V30 1885 H 170.913 -0.0590259 0.708546 0
M  V30 1886 H 173.515 0.525013 1.88319 0
M  V30 1887 H 172.219 0.433745 4.08101 0
M  V30 1888 H 171.75 -1.23793 3.73415 0
M  V30 1889 H 173.765 -2.31821 4.38718 0
M  V30 1890 N 172.938 -1.57226 0.108567 0
M  V30 1891 C 173.848 -2.18292 -0.859401 0
M  V30 1892 C 174.864 -1.15612 -1.30038 0
M  V30 1893 O 176.04 -1.48039 -1.36552 0
M  V30 1894 C 173.105 -2.762 -2.09558 0
M  V30 1895 C 172.166 -3.93881 -1.70752 0
M  V30 1896 C 171.399 -4.49018 -2.88477 0
M  V30 1897 O 171.622 -4.03068 -4.036 0
M  V30 1898 O 170.556 -5.39852 -2.66164 0
M  V30 1899 H 174.382 -3.01441 -0.369769 0
M  V30 1900 H 171.967 -1.48945 -0.1165 0
M  V30 1901 H 173.849 -3.13156 -2.81978 0
M  V30 1902 H 172.524 -1.96089 -2.57548 0
M  V30 1903 H 171.431 -3.61713 -0.954714 0
M  V30 1904 H 172.764 -4.75396 -1.27513 0
M  V30 1905 N 174.416 0.165178 -1.56732 0
M  V30 1906 C 175.663 0.880807 -1.8234 0
M  V30 1907 C 175.991 1.81977 -0.686621 0
M  V30 1908 O 175.246 1.92971 0.325697 0
M  V30 1909 C 175.545 1.70405 -3.1416 0
M  V30 1910 C 175.211 0.913475 -4.4155 0
M  V30 1911 C 173.873 0.695303 -4.7615 0
M  V30 1912 C 176.225 0.359349 -5.1996 0
M  V30 1913 C 173.553 -0.0879947 -5.86634 0
M  V30 1914 C 175.905 -0.410893 -6.31264 0
M  V30 1915 C 174.569 -0.639808 -6.64427 0
M  V30 1916 H 173.839 0.32231 -0.667231 0
M  V30 1917 H 176.486 0.145402 -1.90947 0
M  V30 1918 H 174.791 2.50903 -3.00923 0
M  V30 1919 H 176.488 2.26091 -3.31186 0
M  V30 1920 H 173.078 1.09357 -4.14414 0
M  V30 1921 H 177.262 0.515228 -4.93618 0
M  V30 1922 H 172.518 -0.27503 -6.10781 0
M  V30 1923 H 176.692 -0.847494 -6.91224 0
M  V30 1924 H 174.319 -1.24864 -7.49875 0
M  V30 1925 N 175.894 1.51508 0.433938 0
M  V30 1926 C 177.122 1.68157 1.20543 0
M  V30 1927 C 177.537 0.380362 1.84929 0
M  V30 1928 O 176.894 -0.641446 1.70856 0
M  V30 1929 C 176.945 2.79965 2.28696 0
M  V30 1930 O 176.666 4.05045 1.66943 0
M  V30 1931 C 178.167 3.07912 3.18912 0
M  V30 1932 H 175.387 0.56421 0.363191 0
M  V30 1933 H 177.931 1.97941 0.513754 0
M  V30 1934 H 176.086 2.5277 2.93574 0
M  V30 1935 H 176.5 4.67165 2.38448 0
M  V30 1936 H 177.974 3.89719 3.90926 0
M  V30 1937 H 178.451 2.20456 3.79863 0
M  V30 1938 H 179.057 3.36779 2.59731 0
M  V30 1939 N 177.372 -0.689602 1.41712 0
M  V30 1940 C 178.649 -1.44457 1.31877 0
M  V30 1941 C 179.029 -2.11039 -0.0508537 0
M  V30 1942 O 178.377 -2.02138 -1.06547 0
M  V30 1943 C 178.587 -2.45913 2.47645 0
M  V30 1944 C 179.935 -3.10991 2.89084 0
M  V30 1945 O 180.959 -2.56238 2.47428 0
M  V30 1946 O 179.818 -4.10174 3.61137 0
M  V30 1947 H 176.912 -0.64362 0.519309 0
M  V30 1948 H 179.458 -0.719576 1.53689 0
M  V30 1949 H 178.23 -1.95409 3.39015 0
M  V30 1950 H 177.853 -3.25913 2.27742 0
M  V30 1951 N 178.85 -1.27639 -0.924453 0
M  V30 1952 C 180.127 -1.04887 -1.651 0
M  V30 1953 C 180.507 0.415327 -2.06974 0
M  V30 1954 O 179.855 1.39923 -1.80648 0
M  V30 1955 C 180.065 -2.01348 -2.85061 0
M  V30 1956 C 181.413 -2.30899 -3.56329 0
M  V30 1957 O 182.437 -1.99348 -2.95193 0
M  V30 1958 O 181.296 -2.84699 -4.66485 0
M  V30 1959 H 178.39 -0.400083 -0.723784 0
M  V30 1960 H 180.936 -1.38916 -0.974703 0
M  V30 1961 H 179.708 -3.0008 -2.51133 0
M  V30 1962 H 179.331 -1.679 -3.6041 0
M  V30 1963 N 180.328 1.1314 -1.09713 0
M  V30 1964 C 181.261 2.17735 -0.683137 0
M  V30 1965 C 182.239 1.59582 0.311841 0
M  V30 1966 O 183.423 1.87298 0.212514 0
M  V30 1967 C 180.55 3.38699 -0.00684324 0
M  V30 1968 C 179.596 4.1546 -0.964102 0
M  V30 1969 S 180.429 4.74733 -2.47767 0
M  V30 1970 C 181.585 5.9904 -1.81387 0
M  V30 1971 H 181.818 2.52515 -1.56918 0
M  V30 1972 H 179.351 1.24484 -0.913404 0
M  V30 1973 H 181.309 4.08765 0.377044 0
M  V30 1974 H 179.97 3.02214 0.85589 0
M  V30 1975 H 179.163 5.02093 -0.43803 0
M  V30 1976 H 178.765 3.51066 -1.28953 0
M  V30 1977 H 181.057 6.67846 -1.13967 0
M  V30 1978 H 182 6.56261 -2.65947 0
M  V30 1979 H 182.408 5.4976 -1.28155 0
M  V30 1980 N 181.806 0.884767 1.30421 0
M  V30 1981 C 183.046 0.509806 1.9794 0
M  V30 1982 C 183.41 -0.923736 1.68319 0
M  V30 1983 O 184.611 -1.40481 2.29169 0
M  V30 1984 C 182.882 0.776732 3.48858 0
M  V30 1985 S 184.441 0.503843 4.35898 0
M  V30 1986 H 181.259 0.189699 0.685227 0
M  V30 1987 H 183.861 1.14399 1.58535 0
M  V30 1988 H 182.565 1.81857 3.67908 0
M  V30 1989 H 182.096 0.1301 3.93185 0
M  V30 1990 H 184.111 -0.657625 4.91823 0
M  V30 1991 N 183.284 -1.43765 0.645699 0
M  V30 1992 C 184.194 -2.34544 -0.0512957 0
M  V30 1993 C 185.21 -1.53455 -0.82022 0
M  V30 1994 O 186.386 -1.86133 -0.769176 0
M  V30 1995 C 183.451 -3.31636 -1.01087 0
M  V30 1996 C 182.512 -4.2863 -0.239712 0
M  V30 1997 C 181.745 -5.21084 -1.15358 0
M  V30 1998 O 181.968 -5.1779 -2.39269 0
M  V30 1999 O 180.902 -5.98593 -0.630038 0
M  V30 2000 H 184.728 -2.95624 0.695718 0
M  V30 2001 H 182.313 -1.43781 0.405882 0
M  V30 2002 H 184.195 -3.9136 -1.56254 0
M  V30 2003 H 182.87 -2.73069 -1.73824 0
M  V30 2004 H 181.777 -3.72408 0.355356 0
M  V30 2005 H 183.11 -4.90157 0.447936 0
M  V30 2006 N 184.763 -0.387143 -1.52771 0
M  V30 2007 C 186.012 0.19697 -2.00736 0
M  V30 2008 C 186.325 1.48082 -1.27793 0
M  V30 2009 O 187.531 2.14485 -1.66458 0
M  V30 2010 C 185.987 0.401568 -3.57653 0
M  V30 2011 C 185.595 -0.868907 -4.39493 0
M  V30 2012 C 187.339 0.942164 -4.13912 0
M  V30 2013 C 185.246 -0.632705 -5.88006 0
M  V30 2014 H 184.176 0.0773827 -0.750019 0
M  V30 2015 H 186.827 -0.50921 -1.76293 0
M  V30 2016 H 185.209 1.16954 -3.78335 0
M  V30 2017 H 186.383 -1.64133 -4.30577 0
M  V30 2018 H 184.698 -1.33429 -3.94443 0
M  V30 2019 H 187.295 1.13455 -5.22525 0
M  V30 2020 H 187.638 1.9106 -3.69867 0
M  V30 2021 H 188.171 0.233814 -3.97112 0
M  V30 2022 H 184.91 -1.57208 -6.36369 0
M  V30 2023 H 184.43 0.100825 -5.99715 0
M  V30 2024 H 186.109 -0.26642 -6.46451 0
M  V30 2025 N 186.241 1.57166 -0.116904 0
M  V30 2026 C 187.657 1.5779 0.239693 0
M  V30 2027 C 187.857 1.1295 1.66867 0
M  V30 2028 O 186.913 0.81592 2.38954 0
M  V30 2029 C 188.226 3.00699 0.00828202 0
M  V30 2030 C 189.774 3.12912 0.0743438 0
M  V30 2031 C 190.249 4.57817 -0.129348 0
M  V30 2032 N 191.74 4.63139 -0.075247 0
M  V30 2033 C 192.475 5.73023 -0.207788 0
M  V30 2034 N 191.971 6.91665 -0.396382 0
M  V30 2035 N 193.764 5.61906 -0.14751 0
M  V30 2036 H 185.915 1.84615 -1.05029 0
M  V30 2037 H 188.178 0.85311 -0.41341 0
M  V30 2038 H 187.884 3.37784 -0.979531 0
M  V30 2039 H 187.758 3.69848 0.741077 0
M  V30 2040 H 190.145 2.75686 1.05268 0
M  V30 2041 H 190.226 2.4631 -0.690297 0
M  V30 2042 H 189.87 4.95742 -1.10465 0
M  V30 2043 H 189.8 5.22507 0.655253 0
M  V30 2044 H 192.291 3.7784 0.0670898 0
M  V30 2045 H 192.604 7.71255 -0.488437 0
M  V30 2046 H 190.949 6.93654 -0.432329 0
M  V30 2047 H 194.14 4.681 -0.00115036 0
M  V30 2048 H 194.313 6.47501 -0.254247 0
M  V30 2049 N 187.719 -0.156864 1.56817 0
M  V30 2050 C 188.651 -1.21883 1.94106 0
M  V30 2051 C 189.664 -1.3971 0.835754 0
M  V30 2052 O 190.853 -1.39457 1.11418 0
M  V30 2053 C 187.953 -2.58527 2.19127 0
M  V30 2054 C 187.126 -2.61809 3.50393 0
M  V30 2055 C 186.185 -3.7992 3.64071 0
M  V30 2056 O 185.211 -3.65249 4.36557 0
M  V30 2057 N 186.413 -4.96973 2.99997 0
M  V30 2058 H 189.178 -0.901974 2.85805 0
M  V30 2059 H 186.739 -0.346513 1.58148 0
M  V30 2060 H 188.731 -3.36034 2.25529 0
M  V30 2061 H 187.301 -2.82545 1.33742 0
M  V30 2062 H 186.521 -1.7029 3.5552 0
M  V30 2063 H 187.809 -2.61024 4.36742 0
M  V30 2064 H 187.207 -5.11794 2.41004 0
M  V30 2065 H 185.764 -5.7229 3.11974 0
M  V30 2066 N 189.197 -1.51736 -0.425897 0
M  V30 2067 C 190.129 -1.70083 -1.53638 0
M  V30 2068 C 191.142 -0.581349 -1.52066 0
M  V30 2069 O 192.331 -0.856017 -1.56635 0
M  V30 2070 C 189.431 -1.71078 -2.9255 0
M  V30 2071 C 188.604 -2.99795 -3.185 0
M  V30 2072 C 187.663 -2.92825 -4.37196 0
M  V30 2073 O 186.689 -3.66756 -4.35291 0
M  V30 2074 N 187.891 -2.0946 -5.41393 0
M  V30 2075 H 190.656 -2.65882 -1.383 0
M  V30 2076 H 188.217 -1.49765 -0.614988 0
M  V30 2077 H 190.209 -1.63969 -3.69995 0
M  V30 2078 H 188.779 -0.828242 -3.01428 0
M  V30 2079 H 187.999 -3.20684 -2.2925 0
M  V30 2080 H 189.287 -3.84977 -3.32671 0
M  V30 2081 H 188.685 -1.48792 -5.45781 0
M  V30 2082 H 187.242 -2.08221 -6.17647 0
M  V30 2083 N 190.675 0.682077 -1.42076 0
M  V30 2084 C 192.091 0.994324 -1.24841 0
M  V30 2085 C 192.291 2.0096 -0.147389 0
M  V30 2086 O 191.347 2.47822 0.483782 0
M  V30 2087 C 192.66 1.50607 -2.60265 0
M  V30 2088 C 194.208 1.62421 -2.6756 0
M  V30 2089 C 194.683 2.16994 -4.03333 0
M  V30 2090 N 196.174 2.24337 -4.0525 0
M  V30 2091 C 196.909 2.67621 -5.07116 0
M  V30 2092 N 196.405 3.1041 -6.19368 0
M  V30 2093 N 198.198 2.67305 -4.94474 0
M  V30 2094 H 190.349 0.00973908 -2.12398 0
M  V30 2095 H 192.612 0.0668593 -0.945639 0
M  V30 2096 H 192.318 0.834583 -3.41654 0
M  V30 2097 H 192.192 2.48602 -2.83684 0
M  V30 2098 H 194.579 2.28678 -1.86521 0
M  V30 2099 H 194.66 0.629352 -2.47937 0
M  V30 2100 H 194.304 1.51349 -4.84826 0
M  V30 2101 H 194.234 3.17258 -4.20304 0
M  V30 2102 H 196.725 1.94158 -3.24209 0
M  V30 2103 H 197.038 3.42103 -6.92954 0
M  V30 2104 H 195.383 3.08286 -6.22884 0
M  V30 2105 H 198.574 2.33233 -4.05857 0
M  V30 2106 H 198.747 3.00718 -5.73997 0
M  V30 2107 N 192.153 1.28127 0.917671 0
M  V30 2108 C 193.085 1.07517 2.02417 0
M  V30 2109 C 194.098 0.0281099 1.62776 0
M  V30 2110 O 195.287 0.270748 1.76435 0
M  V30 2111 C 192.387 0.610957 3.33347 0
M  V30 2112 C 191.56 1.73255 4.01624 0
M  V30 2113 C 190.619 1.26238 5.10833 0
M  V30 2114 O 189.645 1.96389 5.34247 0
M  V30 2115 N 190.847 0.123448 5.80369 0
M  V30 2116 H 193.612 2.02806 2.20658 0
M  V30 2117 H 191.173 1.19827 1.08871 0
M  V30 2118 H 193.165 0.280101 4.0373 0
M  V30 2119 H 191.735 -0.24898 3.11607 0
M  V30 2120 H 190.955 2.23319 3.24842 0
M  V30 2121 H 192.243 2.48503 4.43986 0
M  V30 2122 H 191.641 -0.461847 5.63812 0
M  V30 2123 H 190.198 -0.148158 6.51632 0
M  V30 2124 N 193.631 -1.12557 1.10312 0
M  V30 2125 C 194.856 -1.88405 0.867085 0
M  V30 2126 C 195.281 -1.79038 -0.576817 0
M  V30 2127 O 194.639 -1.14439 -1.40618 0
M  V30 2128 C 194.687 -3.3563 1.31851 0
M  V30 2129 O 193.791 -4.09565 0.482734 0
M  V30 2130 H 193.132 -0.585455 0.313271 0
M  V30 2131 H 195.662 -1.42352 1.4696 0
M  V30 2132 H 195.672 -3.86469 1.3079 0
M  V30 2133 H 194.347 -3.41765 2.37001 0
M  V30 2134 H 192.924 -3.68695 0.558448 0
M  V30 2135 N 195.109 -0.891671 -1.2995 0
M  V30 2136 C 196.072 -0.36828 -2.26222 0
M  V30 2137 C 197.072 0.493014 -1.53056 0
M  V30 2138 O 198.262 0.299213 -1.71611 0
M  V30 2139 C 195.394 0.47442 -3.37583 0
M  V30 2140 H 196.587 -1.21844 -2.74033 0
M  V30 2141 H 194.14 -0.669107 -1.41254 0
M  V30 2142 H 194.875 1.34489 -2.95099 0
M  V30 2143 H 194.66 -0.142615 -3.91841 0
M  V30 2144 H 196.15 0.83218 -4.09224 0
M  V30 2145 N 196.587 1.43421 -0.653314 0
M  V30 2146 C 197.833 2.02111 -0.166992 0
M  V30 2147 C 198.166 1.51423 1.21592 0
M  V30 2148 O 197.441 0.707389 1.8118 0
M  V30 2149 C 197.724 3.5966 -0.177948 0
M  V30 2150 C 197.577 4.20579 -1.59478 0
M  V30 2151 C 198.896 4.37413 0.4856 0
M  V30 2152 H 196.015 0.734374 -0.0621557 0
M  V30 2153 H 198.657 1.70717 -0.834016 0
M  V30 2154 H 196.807 3.86537 0.390032 0
M  V30 2155 H 198.479 4.04732 -2.21336 0
M  V30 2156 H 196.722 3.77226 -2.14204 0
M  V30 2157 H 197.393 5.29665 -1.5543 0
M  V30 2158 H 199.869 4.161 0.00234528 0
M  V30 2159 H 198.745 5.47075 0.447207 0
M  V30 2160 H 199.006 4.13672 1.55974 0
M  V30 2161 N 198.065 0.39524 1.52563 0
M  V30 2162 C 198.995 -0.428384 2.29537 0
M  V30 2163 C 199.976 -1.05831 1.33169 0
M  V30 2164 O 201.161 -1.06995 1.62067 0
M  V30 2165 C 198.291 -1.55274 3.10656 0
M  V30 2166 C 197.245 -1.04855 4.14957 0
M  V30 2167 C 196.571 -2.26543 4.84337 0
M  V30 2168 C 197.871 -0.112324 5.22179 0
M  V30 2169 H 199.565 0.213867 2.98635 0
M  V30 2170 H 197.111 0.104298 1.43622 0
M  V30 2171 H 199.064 -2.1358 3.63265 0
M  V30 2172 H 197.788 -2.22266 2.39302 0
M  V30 2173 H 196.447 -0.487985 3.63338 0
M  V30 2174 H 196.095 -2.92059 4.09525 0
M  V30 2175 H 195.795 -1.93466 5.54837 0
M  V30 2176 H 197.319 -2.85481 5.39753 0
M  V30 2177 H 198.733 -0.603752 5.70112 0
M  V30 2178 H 197.13 0.128968 5.99961 0
M  V30 2179 H 198.2 0.837052 4.77621 0
M  V30 2180 N 199.544 -1.57102 0.125237 0
M  V30 2181 C 200.821 -1.86953 -0.575142 0
M  V30 2182 C 201.201 -1.02749 -1.84407 0
M  V30 2183 O 200.549 -0.108144 -2.28244 0
M  V30 2184 C 200.759 -3.38198 -0.861583 0
M  V30 2185 C 202.107 -4.06937 -1.21192 0
M  V30 2186 O 203.131 -3.43252 -0.951645 0
M  V30 2187 O 201.99 -5.19364 -1.70068 0
M  V30 2188 H 199.084 -0.774147 -0.290906 0
M  V30 2189 H 201.63 -1.68942 0.160211 0
M  V30 2190 H 200.402 -3.91282 0.0373647 0
M  V30 2191 H 200.025 -3.61661 -1.65188 0
M  V30 2192 N 201.022 0.148545 -1.56898 0
M  V30 2193 C 202.262 0.86765 -1.85071 0
M  V30 2194 C 202.626 1.78417 -0.709317 0
M  V30 2195 O 203.827 2.54261 -0.872049 0
M  V30 2196 C 202.098 1.62306 -3.1842 0
M  V30 2197 S 203.657 2.3878 -3.68143 0
M  V30 2198 H 200.475 0.290174 -0.649092 0
M  V30 2199 H 203.077 0.127755 -1.95082 0
M  V30 2200 H 201.781 0.941192 -3.99462 0
M  V30 2201 H 201.312 2.4039 -3.1141 0
M  V30 2202 H 203.327 3.63942 -3.37285 0
M  V30 2203 N 202.5 1.5196 0.417844 0
M  V30 2204 C 203.45 1.7106 1.5074 0
M  V30 2205 C 204.434 0.564487 1.50673 0
M  V30 2206 O 205.626 0.821206 1.56797 0
M  V30 2207 C 202.755 1.85677 2.88754 0
M  V30 2208 C 201.841 3.06133 2.93502 0
M  V30 2209 N 202.232 4.28987 2.67962 0
M  V30 2210 C 200.53 3.05787 3.24669 0
M  V30 2211 C 201.231 5.10395 2.79055 0
M  V30 2212 N 200.207 4.45455 3.11561 0
M  V30 2213 H 204.009 2.63696 1.29775 0
M  V30 2214 H 201.523 1.49873 0.625436 0
M  V30 2215 H 203.52 1.97475 3.67164 0
M  V30 2216 H 202.18 0.942348 3.10725 0
M  V30 2217 H 203.191 4.57607 2.4252 0
M  V30 2218 H 199.868 2.2405 3.52289 0
M  V30 2219 H 201.258 6.18247 2.63097 0
M  V30 2220 N 203.978 -0.674533 1.42435 0
M  V30 2221 C 204.925 -1.78807 1.45934 0
M  V30 2222 C 205.895 -1.63157 0.311271 0
M  V30 2223 O 207.08 -1.83707 0.515383 0
M  V30 2224 C 204.22 -3.16839 1.36773 0
M  V30 2225 C 203.333 -3.43774 2.61617 0
M  V30 2226 C 202.468 -4.71536 2.44597 0
M  V30 2227 C 201.507 -4.91505 3.64814 0
M  V30 2228 N 200.644 -6.10508 3.46734 0
M  V30 2229 H 205.484 -1.75151 2.41093 0
M  V30 2230 H 203.021 -0.85504 1.19697 0
M  V30 2231 H 204.979 -3.96606 1.29459 0
M  V30 2232 H 203.609 -3.19619 0.452089 0
M  V30 2233 H 202.661 -2.58259 2.79297 0
M  V30 2234 H 203.973 -3.54423 3.50978 0
M  V30 2235 H 203.127 -5.59393 2.3487 0
M  V30 2236 H 201.866 -4.6317 1.52726 0
M  V30 2237 H 200.871 -4.0209 3.74972 0
M  V30 2238 H 202.096 -5.01716 4.57665 0
M  V30 2239 H 200.042 -6.03315 2.5758 0
M  V30 2240 H 199.959 -6.2202 4.29682 0
M  V30 2241 H 201.227 -7.01044 3.40819 0
M  V30 2242 N 205.456 -1.28612 -0.910864 0
M  V30 2243 C 206.704 -1.15705 -1.65701 0
M  V30 2244 C 207.025 0.29416 -1.92769 0
M  V30 2245 O 206.295 1.20331 -1.54588 0
M  V30 2246 H 204.875 -0.425216 -0.614167 0
M  V30 2247 H 207.537 -1.61381 -1.0928 0
M  V30 2248 H 206.633 -1.6988 -2.61815 0
M  V30 2249 N 206.934 1.1197 -1.10907 0
M  V30 2250 C 208.183 1.82947 -0.849302 0
M  V30 2251 C 208.496 1.85275 0.627112 0
M  V30 2252 O 209.702 2.52296 1.00295 0
M  V30 2253 C 208.158 3.28529 -1.46959 0
M  V30 2254 C 207.766 3.34546 -2.97965 0
M  V30 2255 C 209.51 4.04443 -1.28942 0
M  V30 2256 C 207.417 4.74491 -3.53004 0
M  V30 2257 H 206.347 0.685477 -0.314065 0
M  V30 2258 H 208.998 1.2604 -1.33365 0
M  V30 2259 H 207.38 3.85333 -0.912917 0
M  V30 2260 H 208.554 2.87654 -3.59989 0
M  V30 2261 H 206.869 2.72108 -3.15192 0
M  V30 2262 H 209.466 5.07787 -1.67502 0
M  V30 2263 H 209.809 4.15656 -0.231456 0
M  V30 2264 H 210.342 3.5401 -1.81443 0
M  V30 2265 H 207.081 4.68474 -4.58489 0
M  V30 2266 H 206.601 5.21816 -2.9575 0
M  V30 2267 H 208.28 5.4344 -3.51115 0
M  V30 2268 N 208.412 0.89855 1.29475 0
M  V30 2269 C 209.64 0.539261 1.99749 0
M  V30 2270 C 210.055 -0.875716 1.67262 0
M  V30 2271 O 209.412 -1.57786 0.917049 0
M  V30 2272 C 209.463 0.72061 3.54245 0
M  V30 2273 O 209.184 2.07989 3.8558 0
M  V30 2274 C 210.685 0.366118 4.41786 0
M  V30 2275 H 207.905 0.207047 0.638258 0
M  V30 2276 H 210.449 1.20758 1.65039 0
M  V30 2277 H 208.604 0.0994862 3.87272 0
M  V30 2278 H 209.018 2.10841 4.80257 0
M  V30 2279 H 210.492 0.543848 5.49314 0
M  V30 2280 H 210.969 -0.696763 4.33638 0
M  V30 2281 H 211.575 0.964135 4.14228 0
M  V30 2282 N 209.89 -1.43072 0.660911 0
M  V30 2283 C 210.82 -2.33497 -0.0122829 0
M  V30 2284 C 211.801 -1.49903 -0.803925 0
M  V30 2285 O 212.986 -1.78546 -0.763864 0
M  V30 2286 C 210.116 -3.33363 -0.973994 0
M  V30 2287 C 209.07 -4.27003 -0.291928 0
M  V30 2288 C 208.396 -5.16967 -1.36562 0
M  V30 2289 C 209.696 -5.15816 0.820462 0
M  V30 2290 H 211.39 -2.90038 0.742873 0
M  V30 2291 H 208.936 -1.39461 0.358688 0
M  V30 2292 H 210.889 -3.95524 -1.45392 0
M  V30 2293 H 209.613 -2.75095 -1.7604 0
M  V30 2294 H 208.272 -3.66217 0.167623 0
M  V30 2295 H 207.92 -4.55034 -2.14366 0
M  V30 2296 H 207.62 -5.80441 -0.914454 0
M  V30 2297 H 209.144 -5.82003 -1.84675 0
M  V30 2298 H 210.558 -5.71742 0.422366 0
M  V30 2299 H 208.955 -5.8805 1.19656 0
M  V30 2300 H 210.025 -4.55045 1.67518 0
M  V30 2301 N 211.368 -0.403325 -1.52352 0
M  V30 2302 C 212.331 0.413051 -2.25447 0
M  V30 2303 C 213.331 0.978513 -1.276 0
M  V30 2304 O 214.521 0.858305 -1.51587 0
M  V30 2305 C 211.653 1.58087 -3.02029 0
M  V30 2306 H 212.846 -0.227094 -2.99039 0
M  V30 2307 H 210.399 -0.155722 -1.55522 0
M  V30 2308 H 211.134 2.25804 -2.32772 0
M  V30 2309 H 210.919 1.18195 -3.73861 0
M  V30 2310 H 212.409 2.1585 -3.57489 0
M  V30 2311 N 212.846 1.57033 -0.133567 0
M  V30 2312 C 213.776 2.1909 0.807567 0
M  V30 2313 C 214.757 1.13517 1.26681 0
M  V30 2314 O 215.942 1.41809 1.32679 0
M  V30 2315 C 213.072 2.80188 2.05212 0
M  V30 2316 C 212.026 3.91471 1.73015 0
M  V30 2317 C 211.352 4.39443 3.04622 0
M  V30 2318 C 212.652 5.12886 0.987168 0
M  V30 2319 H 214.346 2.97988 0.290403 0
M  V30 2320 H 211.892 1.43335 0.138239 0
M  V30 2321 H 213.845 3.22264 2.71521 0
M  V30 2322 H 212.569 1.98601 2.59278 0
M  V30 2323 H 211.228 3.49993 1.0909 0
M  V30 2324 H 210.876 3.54695 3.56651 0
M  V30 2325 H 210.576 5.14495 2.83847 0
M  V30 2326 H 212.1 4.8418 3.72024 0
M  V30 2327 H 213.514 5.51891 1.55208 0
M  V30 2328 H 211.911 5.93615 0.87985 0
M  V30 2329 H 212.981 4.84894 -0.0235286 0
M  V30 2330 N 214.325 -0.140222 1.56975 0
M  V30 2331 C 215.288 -1.15689 1.97861 0
M  V30 2332 C 216.288 -1.3549 0.865974 0
M  V30 2333 O 217.478 -1.32367 1.13246 0
M  V30 2334 C 214.61 -2.51582 2.30042 0
M  V30 2335 H 215.803 -0.805971 2.88867 0
M  V30 2336 H 213.356 -0.383801 1.51515 0
M  V30 2337 H 214.091 -2.91632 1.41849 0
M  V30 2338 H 213.876 -2.38569 3.11171 0
M  V30 2339 H 215.366 -3.24792 2.62488 0
M  V30 2340 N 215.803 -1.52179 -0.40978 0
M  V30 2341 C 216.751 -1.76086 -1.51975 0
M  V30 2342 C 217.745 -0.627964 -1.57331 0
M  V30 2343 O 218.951 -0.809993 -1.60745 0
M  V30 2344 H 215.326 -0.556829 -0.505416 0
M  V30 2345 H 217.297 -2.69077 -1.28996 0
M  V30 2346 C 216.046 -1.92799 -2.8935 0
M  V30 2347 H 215.369 -2.79392 -2.85972 0
M  V30 2348 H 216.809 -2.13527 -3.66309 0
M  V30 2349 C 215.268 -0.694923 -3.29655 0
M  V30 2350 O 215.798 0.13751 -4.01465 0
M  V30 2351 N 214.004 -0.53101 -2.85707 0
M  V30 2352 H 213.551 -1.20952 -2.27439 0
M  V30 2353 H 213.509 0.292718 -3.13034 0
M  V30 2354 N 217.281 0.66697 -1.42791 0
M  V30 2355 C 218.244 1.76211 -1.46568 0
M  V30 2356 C 219.244 1.56896 -0.352196 0
M  V30 2357 O 220.434 1.63044 -0.613364 0
M  V30 2358 C 217.566 3.14935 -1.30494 0
M  V30 2359 H 218.759 1.74247 -2.44086 0
M  V30 2360 H 216.312 0.877342 -1.29354 0
M  V30 2361 H 217.047 3.2252 -0.339301 0
M  V30 2362 H 216.832 3.30359 -2.11199 0
M  V30 2363 H 218.322 3.94821 -1.36038 0
M  V30 2364 N 218.759 1.29093 0.90403 0
M  V30 2365 C 220.005 1.16986 1.65656 0
M  V30 2366 C 220.338 -0.278925 1.92186 0
M  V30 2367 O 219.613 -1.2019 1.5292 0
M  V30 2368 C 219.896 1.97908 3.0084 0
M  V30 2369 C 219.749 3.50903 2.81403 0
M  V30 2370 C 221.068 1.80208 4.01513 0
M  V30 2371 H 218.187 0.426346 0.601164 0
M  V30 2372 H 220.829 1.58518 1.04747 0
M  V30 2373 H 218.979 1.62616 3.52829 0
M  V30 2374 H 220.651 3.96153 2.36348 0
M  V30 2375 H 218.894 3.76045 2.1627 0
M  V30 2376 H 219.565 4.02791 3.77443 0
M  V30 2377 H 222.041 2.11025 3.58619 0
M  V30 2378 H 220.917 2.39184 4.94047 0
M  V30 2379 H 221.178 0.756119 4.35586 0
M  V30 2380 N 220.237 -1.11381 1.11499 0
M  V30 2381 C 221.653 -1.35143 0.849031 0
M  V30 2382 C 221.853 -1.94515 -0.525938 0
M  V30 2383 O 220.909 -2.1785 -1.27662 0
M  V30 2384 C 222.222 -2.28249 1.95762 0
M  V30 2385 C 223.77 -2.41812 1.98736 0
M  V30 2386 C 224.245 -3.3824 3.088 0
M  V30 2387 N 225.736 -3.45803 3.08179 0
M  V30 2388 C 226.471 -4.20358 3.89982 0
M  V30 2389 N 225.967 -4.97884 4.8175 0
M  V30 2390 N 227.76 -4.15877 3.78157 0
M  V30 2391 H 219.911 -0.712062 2.00109 0
M  V30 2392 H 222.174 -0.376025 0.870235 0
M  V30 2393 H 221.88 -1.91817 2.94787 0
M  V30 2394 H 221.754 -3.28473 1.85433 0
M  V30 2395 H 224.141 -2.77518 1.00338 0
M  V30 2396 H 224.222 -1.41437 2.13141 0
M  V30 2397 H 223.866 -3.03261 4.07425 0
M  V30 2398 H 223.796 -4.38471 2.91635 0
M  V30 2399 H 226.287 -2.90506 2.41691 0
M  V30 2400 H 226.6 -5.52142 5.40702 0
M  V30 2401 H 224.945 -4.97043 4.85771 0
M  V30 2402 H 228.136 -3.544 3.05808 0
M  V30 2403 H 228.309 -4.73723 4.42143 0
M  V30 2404 N 221.715 -0.905404 -1.28997 0
M  V30 2405 C 223.131 -0.60233 -1.47798 0
M  V30 2406 C 223.331 0.854645 -1.82478 0
M  V30 2407 O 222.387 1.63439 -1.92468 0
M  V30 2408 C 223.7 -1.53306 -2.58685 0
M  V30 2409 C 225.248 -1.53887 -2.72558 0
M  V30 2410 C 225.723 -2.45602 -3.86579 0
M  V30 2411 N 227.214 -2.43681 -3.93921 0
M  V30 2412 C 227.949 -3.11347 -4.81509 0
M  V30 2413 N 227.445 -3.88313 -5.73746 0
M  V30 2414 N 229.238 -3.00476 -4.75048 0
M  V30 2415 H 221.389 -1.84765 -1.04764 0
M  V30 2416 H 223.652 -0.792025 -0.520961 0
M  V30 2417 H 223.358 -2.57141 -2.39941 0
M  V30 2418 H 223.232 -1.25787 -3.55609 0
M  V30 2419 H 225.619 -0.507941 -2.90696 0
M  V30 2420 H 225.7 -1.85447 -1.76191 0
M  V30 2421 H 225.344 -3.48792 -3.69197 0
M  V30 2422 H 225.274 -2.11349 -4.82327 0
M  V30 2423 H 227.765 -1.87767 -3.27951 0
M  V30 2424 H 228.078 -4.36985 -6.37389 0
M  V30 2425 H 226.423 -3.92419 -5.73614 0
M  V30 2426 H 229.614 -2.39858 -4.01977 0
M  V30 2427 H 229.787 -3.53485 -5.43095 0
M  V30 2428 N 223.193 1.4272 -0.668489 0
M  V30 2429 C 224.441 2.01226 -0.187769 0
M  V30 2430 C 224.762 1.53092 1.2078 0
M  V30 2431 O 224.032 0.74993 1.80977 0
M  V30 2432 H 222.612 0.744041 -0.0664272 0
M  V30 2433 H 225.274 1.74723 -0.863583 0
M  V30 2434 H 224.37 3.11556 -0.184166 0
M  V30 2435 N 224.671 0.411399 1.52136 0
M  V30 2436 C 225.603 -0.448386 2.24771 0
M  V30 2437 C 226.616 -1.00828 1.27818 0
M  V30 2438 O 227.805 -0.906841 1.53749 0
M  V30 2439 C 224.905 -1.63636 2.96777 0
M  V30 2440 C 224.078 -1.19995 4.20618 0
M  V30 2441 C 223.137 -2.25509 4.75428 0
M  V30 2442 O 222.163 -1.86007 5.3795 0
M  V30 2443 N 223.365 -3.577 4.57199 0
M  V30 2444 H 226.13 0.174025 2.99194 0
M  V30 2445 H 223.691 0.238897 1.60128 0
M  V30 2446 H 225.683 -2.33793 3.30338 0
M  V30 2447 H 224.253 -2.16465 2.25526 0
M  V30 2448 H 223.473 -0.326421 3.92846 0
M  V30 2449 H 224.761 -0.885365 5.01038 0
M  V30 2450 H 224.159 -3.92543 4.07341 0
M  V30 2451 H 222.716 -4.23827 4.95191 0
M  V30 2452 N 226.149 -1.5696 0.141893 0
M  V30 2453 C 227.079 -2.19516 -0.795936 0
M  V30 2454 C 228.06 -1.14187 -1.26077 0
M  V30 2455 O 229.245 -1.42511 -1.31925 0
M  V30 2456 C 226.375 -2.81272 -2.03723 0
M  V30 2457 C 225.329 -3.92384 -1.70936 0
M  V30 2458 C 224.655 -4.41052 -3.02287 0
M  V30 2459 C 225.955 -5.13403 -0.959954 0
M  V30 2460 H 227.649 -2.98138 -0.274596 0
M  V30 2461 H 225.195 -1.43406 -0.130636 0
M  V30 2462 H 227.148 -3.237 -2.69808 0
M  V30 2463 H 225.872 -1.99973 -2.58221 0
M  V30 2464 H 224.531 -3.50566 -1.07232 0
M  V30 2465 H 224.179 -3.56582 -3.54765 0
M  V30 2466 H 223.879 -5.15993 -2.81114 0
M  V30 2467 H 225.403 -4.86146 -3.69451 0
M  V30 2468 H 226.817 -5.52706 -1.52279 0
M  V30 2469 H 225.214 -5.94073 -0.848357 0
M  V30 2470 H 226.284 -4.84875 0.0492434 0
M  V30 2471 N 227.627 0.131896 -1.57047 0
M  V30 2472 C 229.038 0.690407 -1.73465 0
M  V30 2473 C 229.389 1.8094 -0.758629 0
M  V30 2474 O 228.514 2.16282 0.0713813 0
M  V30 2475 C 229.109 1.25916 -3.14532 0
M  V30 2476 C 227.668 1.76409 -3.32501 0
M  V30 2477 C 226.815 0.658579 -2.69366 0
M  V30 2478 H 229.766 -0.0939144 -1.58422 0
M  V30 2479 H 229.787 2.12892 -3.15369 0
M  V30 2480 H 229.299 0.444515 -3.85546 0
M  V30 2481 H 227.4 2.60391 -2.66509 0
M  V30 2482 H 227.513 1.88241 -4.4057 0
M  V30 2483 H 225.877 1.08899 -2.30246 0
M  V30 2484 H 226.66 -0.14487 -3.42994 0
M  V30 2485 N 229.106 1.52395 0.401703 0
M  V30 2486 C 230.354 1.66488 1.14569 0
M  V30 2487 C 230.675 0.400897 1.90835 0
M  V30 2488 O 229.945 -0.584415 1.8698 0
M  V30 2489 H 228.525 0.613672 0.425929 0
M  V30 2490 H 231.187 1.89464 0.457093 0
M  V30 2491 H 230.283 2.50942 1.85566 0
M  V30 2492 N 230.584 -0.659388 1.43143 0
M  V30 2493 C 231.494 -1.80167 1.50256 0
M  V30 2494 C 232.51 -1.69571 0.390106 0
M  V30 2495 O 233.686 -1.90849 0.643319 0
M  V30 2496 C 230.751 -3.16409 1.41725 0
M  V30 2497 C 229.812 -3.38848 2.63591 0
M  V30 2498 C 229.045 -4.68591 2.55458 0
M  V30 2499 O 229.268 -5.47532 1.59891 0
M  V30 2500 O 228.202 -4.92614 3.45854 0
M  V30 2501 H 232.028 -1.77121 2.46702 0
M  V30 2502 H 229.613 -0.817092 1.25076 0
M  V30 2503 H 231.495 -3.9768 1.39387 0
M  V30 2504 H 230.17 -3.20059 0.484118 0
M  V30 2505 H 229.077 -2.57366 2.71502 0
M  V30 2506 H 230.41 -3.4004 3.55856 0
M  V30 2507 N 232.062 -1.29571 -0.897171 0
M  V30 2508 C 232.992 -1.17473 -2.01798 0
M  V30 2509 C 233.973 -0.068323 -1.69963 0
M  V30 2510 O 235.158 -0.248239 -1.92607 0
M  V30 2511 C 232.288 -0.853099 -3.36659 0
M  V30 2512 C 231.242 -1.9161 -3.82713 0
M  V30 2513 C 230.568 -1.44773 -5.14728 0
M  V30 2514 C 231.868 -3.32535 -4.02763 0
M  V30 2515 H 233.562 -2.11237 -2.12177 0
M  V30 2516 H 231.108 -1.01699 -1.01948 0
M  V30 2517 H 233.061 -0.755165 -4.14578 0
M  V30 2518 H 231.785 0.120236 -3.26379 0
M  V30 2519 H 230.444 -2.00346 -3.07013 0
M  V30 2520 H 230.092 -0.462995 -5.00865 0
M  V30 2521 H 229.792 -2.15865 -5.46513 0
M  V30 2522 H 231.316 -1.36334 -5.95185 0
M  V30 2523 H 232.73 -3.26626 -4.71156 0
M  V30 2524 H 231.127 -4.01607 -4.45905 0
M  V30 2525 H 232.197 -3.75326 -3.07016 0
M  V30 2526 N 233.54 1.10788 -1.12088 0
M  V30 2527 C 234.817 1.79136 -0.785476 0
M  V30 2528 C 235.197 1.98246 0.725377 0
M  V30 2529 O 234.545 1.57258 1.65778 0
M  V30 2530 C 234.755 3.12375 -1.55636 0
M  V30 2531 C 236.103 3.8731 -1.74001 0
M  V30 2532 O 237.127 3.22085 -1.52117 0
M  V30 2533 O 235.986 5.04369 -2.10415 0
M  V30 2534 H 233.08 0.776226 -0.285311 0
M  V30 2535 H 235.626 1.1747 -1.2247 0
M  V30 2536 H 234.398 2.93863 -2.5838 0
M  V30 2537 H 234.021 3.81758 -1.11114 0
M  V30 2538 N 235.018 0.912232 1.28515 0
M  V30 2539 C 235.981 0.404223 2.25607 0
M  V30 2540 C 236.981 -0.468602 1.53821 0
M  V30 2541 O 238.171 -0.271873 1.72065 0
M  V30 2542 C 235.303 -0.420653 3.38295 0
M  V30 2543 H 236.496 1.26188 2.7206 0
M  V30 2544 H 234.049 0.691495 1.40171 0
M  V30 2545 H 234.784 -1.29777 2.97201 0
M  V30 2546 H 234.569 0.204935 3.91564 0
M  V30 2547 H 236.059 -0.766971 4.10496 0
M  V30 2548 N 236.496 -1.42363 0.676048 0
M  V30 2549 C 237.406 -2.346 -0.00153389 0
M  V30 2550 C 238.422 -1.5516 -0.787485 0
M  V30 2551 O 239.598 -1.87723 -0.729521 0
M  V30 2552 C 236.663 -3.33705 -0.940298 0
M  V30 2553 C 235.724 -4.29042 -0.148739 0
M  V30 2554 C 234.957 -5.23413 -1.04279 0
M  V30 2555 O 235.18 -5.22749 -2.28232 0
M  V30 2556 O 234.114 -5.99795 -0.502925 0
M  V30 2557 H 237.94 -2.94082 0.758268 0
M  V30 2558 H 235.525 -1.42888 0.436289 0
M  V30 2559 H 237.407 -3.94586 -1.47917 0
M  V30 2560 H 236.082 -2.76695 -1.67993 0
M  V30 2561 H 234.989 -3.71571 0.43427 0
M  V30 2562 H 236.322 -4.89097 0.551805 0
M  V30 2563 N 237.974 -0.419461 -1.51915 0
M  V30 2564 C 239.39 -0.0708431 -1.59443 0
M  V30 2565 C 239.59 1.41796 -1.43164 0
M  V30 2566 O 238.646 2.18596 -1.26381 0
M  V30 2567 C 239.959 -0.574991 -2.95151 0
M  V30 2568 C 241.507 -0.533867 -3.08413 0
M  V30 2569 C 241.982 -1.01469 -4.46618 0
M  V30 2570 N 243.473 -0.971939 -4.52888 0
M  V30 2571 C 244.208 -1.31505 -5.58116 0
M  V30 2572 N 243.704 -1.73014 -6.70849 0
M  V30 2573 N 245.497 -1.23436 -5.48379 0
M  V30 2574 H 237.648 -1.38836 -1.60743 0
M  V30 2575 H 239.911 -0.570998 -0.756747 0
M  V30 2576 H 239.617 -1.61597 -3.12377 0
M  V30 2577 H 239.491 0.00979777 -3.77199 0
M  V30 2578 H 241.878 0.498086 -2.90866 0
M  V30 2579 H 241.959 -1.15484 -2.28248 0
M  V30 2580 H 241.603 -2.04502 -4.6491 0
M  V30 2581 H 241.533 -0.370433 -5.25295 0
M  V30 2582 H 244.024 -0.666893 -3.71969 0
M  V30 2583 H 244.337 -1.97479 -7.47143 0
M  V30 2584 H 242.682 -1.76926 -6.72103 0
M  V30 2585 H 245.873 -0.908869 -4.59192 0
M  V30 2586 H 246.046 -1.50506 -6.30279 0
M  V30 2587 N 239.452 1.56882 -0.150215 0
M  V30 2588 C 240.415 2.1573 0.774157 0
M  V30 2589 C 241.415 1.0999 1.17298 0
M  V30 2590 O 242.605 1.35613 1.09338 0
M  V30 2591 C 239.737 2.72302 2.05096 0
M  V30 2592 H 240.93 2.98752 0.262201 0
M  V30 2593 H 238.483 1.55985 0.099248 0
M  V30 2594 H 239.218 1.92956 2.6065 0
M  V30 2595 H 239.003 3.49665 1.77416 0
M  V30 2596 H 240.493 3.17632 2.71109 0
M  V30 2597 N 240.93 -0.123565 1.57115 0
M  V30 2598 C 241.893 -1.13583 1.99076 0
M  V30 2599 C 242.893 -1.34564 0.880296 0
M  V30 2600 O 244.083 -1.31158 1.14644 0
M  V30 2601 C 241.215 -2.49128 2.32698 0
M  V30 2602 H 242.408 -0.775287 2.89706 0
M  V30 2603 H 239.961 -0.36771 1.51913 0
M  V30 2604 H 240.696 -2.90111 1.44934 0
M  V30 2605 H 240.481 -2.35255 3.13684 0
M  V30 2606 H 241.971 -3.2199 2.65918 0
M  V30 2607 N 242.408 -1.52605 -0.393616 0
M  V30 2608 C 243.654 -1.67672 -1.14079 0
M  V30 2609 C 243.987 -0.413121 -1.89755 0
M  V30 2610 O 243.262 0.588952 -1.85369 0
M  V30 2611 C 243.545 -2.9088 -2.12276 0
M  V30 2612 C 243.398 -4.27329 -1.40394 0
M  V30 2613 C 244.717 -3.09628 -3.12759 0
M  V30 2614 H 241.836 -0.610168 -0.413356 0
M  V30 2615 H 244.478 -1.85193 -0.424696 0
M  V30 2616 H 242.628 -2.76073 -2.73342 0
M  V30 2617 H 244.3 -4.53894 -0.82327 0
M  V30 2618 H 242.543 -4.2802 -0.705801 0
M  V30 2619 H 243.214 -5.09615 -2.12123 0
M  V30 2620 H 245.69 -3.23436 -2.61779 0
M  V30 2621 H 244.566 -3.97322 -3.78717 0
M  V30 2622 H 244.827 -2.23637 -3.81365 0
M  V30 2623 N 243.887 0.651787 -1.4349 0
M  V30 2624 C 244.85 1.74647 -1.48429 0
M  V30 2625 C 245.85 1.56513 -0.368817 0
M  V30 2626 O 247.04 1.62385 -0.630623 0
M  V30 2627 C 244.172 3.13533 -1.33827 0
M  V30 2628 H 245.365 1.71649 -2.4592 0
M  V30 2629 H 242.918 0.863573 -1.30277 0
M  V30 2630 H 243.653 3.22142 -0.37349 0
M  V30 2631 H 243.438 3.28101 -2.14691 0
M  V30 2632 H 244.928 3.93356 -1.40218 0
M  V30 2633 N 245.365 1.30045 0.890287 0
M  V30 2634 C 246.298 1.10301 1.99772 0
M  V30 2635 C 247.276 0.0121631 1.62595 0
M  V30 2636 O 248.46 0.16469 1.87779 0
M  V30 2637 C 245.587 0.681125 3.31781 0
M  V30 2638 C 244.633 1.77206 3.87944 0
M  V30 2639 S 245.466 3.37335 4.15891 0
M  V30 2640 C 246.622 2.97036 5.50927 0
M  V30 2641 H 246.855 2.04057 2.16213 0
M  V30 2642 H 244.388 1.14299 1.03804 0
M  V30 2643 H 246.346 0.444439 4.08087 0
M  V30 2644 H 245.007 -0.236981 3.13205 0
M  V30 2645 H 244.2 1.42903 4.83316 0
M  V30 2646 H 243.802 1.96275 3.18358 0
M  V30 2647 H 246.094 2.44666 6.31779 0
M  V30 2648 H 247.037 3.91296 5.90164 0
M  V30 2649 H 247.445 2.35057 5.13233 0
M  V30 2650 N 246.843 -1.10192 1.12674 0
M  V30 2651 C 248.09 -1.82205 0.883606 0
M  V30 2652 C 248.418 -1.8532 -0.590492 0
M  V30 2653 O 247.673 -1.31137 -1.45264 0
M  V30 2654 C 247.972 -3.28552 1.4067 0
M  V30 2655 C 247.638 -3.45582 2.89627 0
M  V30 2656 C 246.3 -3.49937 3.30299 0
M  V30 2657 C 248.652 -3.50768 3.85501 0
M  V30 2658 C 245.98 -3.57049 4.65546 0
M  V30 2659 C 248.332 -3.59414 5.20581 0
M  V30 2660 C 246.996 -3.62034 5.60792 0
M  V30 2661 H 246.266 -0.666735 0.323334 0
M  V30 2662 H 248.913 -1.29868 1.40736 0
M  V30 2663 H 247.218 -3.83473 0.80347 0
M  V30 2664 H 248.915 -3.82788 1.19475 0
M  V30 2665 H 245.505 -3.42871 2.57172 0
M  V30 2666 H 249.689 -3.46651 3.55171 0
M  V30 2667 H 244.945 -3.57361 4.96088 0
M  V30 2668 H 249.119 -3.62371 5.94693 0
M  V30 2669 H 246.746 -3.67298 6.6558 0
M  V30 2670 N 248.321 -0.919034 -1.28029 0
M  V30 2671 C 249.284 -0.416182 -2.2539 0
M  V30 2672 C 250.284 0.460438 -1.54067 0
M  V30 2673 O 251.474 0.262744 -1.72207 0
M  V30 2674 C 248.606 0.402707 -3.38513 0
M  V30 2675 H 249.799 -1.27629 -2.71387 0
M  V30 2676 H 247.352 -0.698919 -1.39803 0
M  V30 2677 H 248.087 1.282 -2.97885 0
M  V30 2678 H 247.872 -0.225698 -3.9145 0
M  V30 2679 H 249.362 0.745191 -4.10897 0
M  V30 2680 N 249.799 1.42003 -0.683588 0
M  V30 2681 C 251.029 2.05448 -0.217866 0
M  V30 2682 C 251.437 1.51491 1.13346 0
M  V30 2683 O 250.78 0.653048 1.717 0
M  V30 2684 C 250.842 3.59399 -0.0850118 0
M  V30 2685 C 250.506 4.36093 -1.36645 0
M  V30 2686 C 251.503 4.66169 -2.30179 0
M  V30 2687 C 249.188 4.75578 -1.61649 0
M  V30 2688 C 251.182 5.34676 -3.46988 0
M  V30 2689 C 248.869 5.43824 -2.78745 0
M  V30 2690 C 249.867 5.73299 -3.71238 0
M  V30 2691 O 249.555 6.40142 -4.86285 0
M  V30 2692 H 249.287 0.668344 -0.101454 0
M  V30 2693 H 251.841 1.82974 -0.933248 0
M  V30 2694 H 250.071 3.80566 0.686031 0
M  V30 2695 H 251.76 4.04457 0.341973 0
M  V30 2696 H 252.526 4.36156 -2.12115 0
M  V30 2697 H 248.405 4.52025 -0.905243 0
M  V30 2698 H 251.949 5.57599 -4.19201 0
M  V30 2699 H 247.846 5.73254 -2.96732 0
M  V30 2700 H 248.614 6.58636 -4.85944 0
M  V30 2701 N 251.277 0.427512 1.51691 0
M  V30 2702 C 252.523 -0.142439 2.02299 0
M  V30 2703 C 252.856 -1.43214 1.31162 0
M  V30 2704 O 252.131 -1.89833 0.423511 0
M  V30 2705 C 252.414 -0.371301 3.58181 0
M  V30 2706 C 252.267 0.936358 4.39946 0
M  V30 2707 C 253.586 -1.14542 4.24933 0
M  V30 2708 H 250.705 -0.0502937 0.735282 0
M  V30 2709 H 253.347 0.564584 1.81418 0
M  V30 2710 H 251.497 -0.973559 3.76104 0
M  V30 2711 H 253.169 1.57184 4.33694 0
M  V30 2712 H 251.412 1.5432 4.05423 0
M  V30 2713 H 252.083 0.730388 5.47147 0
M  V30 2714 H 254.559 -0.635362 4.11221 0
M  V30 2715 H 253.435 -1.27431 5.33903 0
M  V30 2716 H 253.696 -2.17093 3.85127 0
M  V30 2717 N 252.755 -1.56801 0.158532 0
M  V30 2718 C 254.032 -1.88131 -0.535357 0
M  V30 2719 C 254.412 -1.06638 -1.82186 0
M  V30 2720 O 253.76 -0.156533 -2.27963 0
M  V30 2721 C 253.97 -3.39949 -0.789653 0
M  V30 2722 C 255.318 -4.09416 -1.12533 0
M  V30 2723 O 256.342 -3.45194 -0.878622 0
M  V30 2724 O 255.201 -5.22855 -1.59014 0
M  V30 2725 H 252.295 -0.780143 -0.27442 0
M  V30 2726 H 254.841 -1.68564 0.19601 0
M  V30 2727 H 253.613 -3.91115 0.120353 0
M  V30 2728 H 253.236 -3.65084 -1.57479 0
M  V30 2729 N 254.233 0.115231 -1.57178 0
M  V30 2730 C 255.481 0.820727 -1.84685 0
M  V30 2731 C 255.802 1.80237 -0.744279 0
M  V30 2732 O 255.072 1.94529 0.231375 0
M  V30 2733 H 253.652 0.306084 -0.681411 0
M  V30 2734 H 256.314 0.101656 -1.94635 0
M  V30 2735 H 255.41 1.36366 -2.80733 0
M  V30 2736 N 255.711 1.52812 0.385517 0
M  V30 2737 C 256.641 1.80808 1.47752 0
M  V30 2738 C 257.622 0.660318 1.5676 0
M  V30 2739 O 258.807 0.908246 1.71652 0
M  V30 2740 C 255.937 1.98008 2.85324 0
M  V30 2741 C 254.891 3.13709 2.91154 0
M  V30 2742 C 254.217 3.16169 4.31209 0
M  V30 2743 C 255.517 4.52709 2.60483 0
M  V30 2744 H 257.211 2.72253 1.24573 0
M  V30 2745 H 254.757 1.31003 0.597839 0
M  V30 2746 H 256.71 2.16176 3.61726 0
M  V30 2747 H 255.434 1.03255 3.09848 0
M  V30 2748 H 254.093 2.95329 2.17201 0
M  V30 2749 H 253.741 2.19092 4.52778 0
M  V30 2750 H 253.441 3.93894 4.36029 0
M  V30 2751 H 254.965 3.36496 5.09512 0
M  V30 2752 H 256.379 4.71173 3.26602 0
M  V30 2753 H 254.776 5.32528 2.76648 0
M  V30 2754 H 255.846 4.59186 1.55809 0
M  V30 2755 N 257.189 -0.644168 1.43834 0
M  V30 2756 C 258.438 -1.39985 1.45214 0
M  V30 2757 C 258.751 -1.95421 0.0835494 0
M  V30 2758 O 259.957 -2.71488 -0.0251748 0
M  V30 2759 C 258.413 -2.53384 2.55587 0
M  V30 2760 C 258.021 -2.04517 3.98594 0
M  V30 2761 C 259.765 -3.30685 2.66172 0
M  V30 2762 C 257.672 -3.1518 5.00416 0
M  V30 2763 H 256.602 -0.526005 0.540218 0
M  V30 2764 H 259.253 -0.694367 1.69855 0
M  V30 2765 H 257.635 -3.26446 2.24163 0
M  V30 2766 H 258.809 -1.38405 4.39523 0
M  V30 2767 H 257.124 -1.40068 3.92135 0
M  V30 2768 H 259.721 -4.13158 3.39418 0
M  V30 2769 H 260.064 -3.79312 1.71546 0
M  V30 2770 H 260.597 -2.64708 2.96942 0
M  V30 2771 H 257.336 -2.71511 5.96625 0
M  V30 2772 H 256.856 -3.79974 4.64091 0
M  V30 2773 H 258.535 -3.80166 5.23529 0
M  V30 2774 N 258.668 -1.30515 -0.883378 0
M  V30 2775 C 260.084 -1.08881 -1.16692 0
M  V30 2776 C 260.284 0.149409 -2.00945 0
M  V30 2777 O 259.34 0.84257 -2.38027 0
M  V30 2778 C 260.653 -2.35319 -1.87204 0
M  V30 2779 C 262.201 -2.40799 -1.99962 0
M  V30 2780 C 262.676 -3.67083 -2.73887 0
M  V30 2781 N 264.167 -3.679 -2.81432 0
M  V30 2782 C 264.902 -4.62303 -3.3921 0
M  V30 2783 N 264.398 -5.67052 -3.98025 0
M  V30 2784 N 266.191 -4.49845 -3.3704 0
M  V30 2785 H 258.342 -2.09951 -0.321633 0
M  V30 2786 H 260.605 -0.92556 -0.205043 0
M  V30 2787 H 260.311 -3.25689 -1.3274 0
M  V30 2788 H 260.185 -2.44089 -2.87577 0
M  V30 2789 H 262.572 -1.50907 -2.53597 0
M  V30 2790 H 262.653 -2.36003 -0.98673 0
M  V30 2791 H 262.297 -4.57334 -2.20925 0
M  V30 2792 H 262.227 -3.69141 -3.75556 0
M  V30 2793 H 264.718 -2.92171 -2.39676 0
M  V30 2794 H 265.031 -6.35184 -4.40183 0
M  V30 2795 H 263.376 -5.70842 -3.96439 0
M  V30 2796 H 266.567 -3.67194 -2.90321 0
M  V30 2797 H 266.74 -5.23597 -3.81772 0
M  V30 2798 N 260.146 1.09593 -1.13257 0
M  V30 2799 C 261.562 1.33775 -0.870423 0
M  V30 2800 C 261.762 1.95327 0.494926 0
M  V30 2801 O 260.818 2.19853 1.2418 0
M  V30 2802 C 262.131 2.25106 -1.99369 0
M  V30 2803 C 263.679 2.3862 -2.02558 0
M  V30 2804 C 264.154 3.33285 -3.14142 0
M  V30 2805 N 265.645 3.40857 -3.13641 0
M  V30 2806 C 266.38 4.14101 -3.96621 0
M  V30 2807 N 265.876 4.90157 -4.8961 0
M  V30 2808 N 267.669 4.09808 -3.84726 0
M  V30 2809 H 259.82 0.680136 -2.01216 0
M  V30 2810 H 262.083 0.362133 -0.876107 0
M  V30 2811 H 261.789 1.87103 -2.97801 0
M  V30 2812 H 261.663 3.25481 -1.90635 0
M  V30 2813 H 264.05 2.75887 -1.0474 0
M  V30 2814 H 264.131 1.38028 -2.15364 0
M  V30 2815 H 263.775 2.96741 -4.12198 0
M  V30 2816 H 263.705 4.33776 -2.98574 0
M  V30 2817 H 266.196 2.86624 -2.46282 0
M  V30 2818 H 266.509 5.4347 -5.49418 0
M  V30 2819 H 264.854 4.89251 -4.93617 0
M  V30 2820 H 268.045 3.4949 -3.11408 0
M  V30 2821 H 268.218 4.66629 -4.49623 0
M  V30 2822 N 261.624 0.925811 1.2754 0
M  V30 2823 C 262.87 0.575575 1.95086 0
M  V30 2824 C 263.225 -0.873246 1.71441 0
M  V30 2825 O 262.518 -1.61443 1.03183 0
M  V30 2826 C 262.712 0.835296 3.47502 0
M  V30 2827 C 262.541 2.30781 3.85967 0
M  V30 2828 C 261.311 2.96017 4.09514 0
M  V30 2829 C 263.509 3.28519 3.95702 0
M  V30 2830 N 261.491 4.3344 4.34744 0
M  V30 2831 C 262.862 4.51146 4.25285 0
M  V30 2832 C 264.917 3.23753 3.7827 0
M  V30 2833 C 263.62 5.69606 4.39251 0
M  V30 2834 C 265.646 4.41523 3.9346 0
M  V30 2835 C 265.008 5.62928 4.23428 0
M  V30 2836 H 261.107 0.260711 0.737261 0
M  V30 2837 H 263.691 1.19204 1.53943 0
M  V30 2838 H 261.862 0.248005 3.87607 0
M  V30 2839 H 263.594 0.447878 4.02214 0
M  V30 2840 H 260.349 2.46695 4.04275 0
M  V30 2841 H 260.773 5.04528 4.5142 0
M  V30 2842 H 265.415 2.3096 3.54143 0
M  V30 2843 H 263.133 6.62866 4.62205 0
M  V30 2844 H 266.719 4.39351 3.81394 0
M  V30 2845 H 265.599 6.52538 4.34929 0
M  V30 2846 N 263.102 -1.41638 0.69111 0
M  V30 2847 C 264.032 -2.3347 0.037248 0
M  V30 2848 C 265.013 -1.51575 -0.771947 0
M  V30 2849 O 266.198 -1.80126 -0.72582 0
M  V30 2850 C 263.328 -3.35354 -0.903064 0
M  V30 2851 C 262.282 -4.27526 -0.201288 0
M  V30 2852 C 261.608 -5.19747 -1.25565 0
M  V30 2853 C 262.908 -5.13959 0.929689 0
M  V30 2854 H 264.602 -2.88397 0.804227 0
M  V30 2855 H 262.148 -1.38669 0.388189 0
M  V30 2856 H 264.101 -3.98519 -1.36969 0
M  V30 2857 H 262.825 -2.78767 -1.70166 0
M  V30 2858 H 261.484 -3.65779 0.245265 0
M  V30 2859 H 261.132 -4.59479 -2.04666 0
M  V30 2860 H 260.832 -5.8225 -0.791128 0
M  V30 2861 H 262.356 -5.85789 -1.72288 0
M  V30 2862 H 263.77 -5.70718 0.543546 0
M  V30 2863 H 262.167 -5.85379 1.32103 0
M  V30 2864 H 263.237 -4.51389 1.77133 0
M  V30 2865 N 264.58 -0.43555 -1.51462 0
M  V30 2866 C 265.51 0.367376 -2.30592 0
M  V30 2867 C 266.491 1.02263 -1.35928 0
M  V30 2868 O 267.676 1.02661 -1.64847 0
M  V30 2869 C 264.806 1.46983 -3.14664 0
M  V30 2870 C 263.76 0.938161 -4.17591 0
M  V30 2871 C 263.086 2.13622 -4.90173 0
M  V30 2872 C 264.386 -0.0261621 -5.22293 0
M  V30 2873 H 266.08 -0.292969 -2.97963 0
M  V30 2874 H 263.626 -0.14234 -1.43295 0
M  V30 2875 H 265.579 2.03873 -3.688 0
M  V30 2876 H 264.303 2.15843 -2.4511 0
M  V30 2877 H 262.962 0.391481 -3.64504 0
M  V30 2878 H 262.61 2.81098 -4.17124 0
M  V30 2879 H 262.31 1.78688 -5.59772 0
M  V30 2880 H 263.834 2.7107 -5.47132 0
M  V30 2881 H 265.248 0.452384 -5.71512 0
M  V30 2882 H 263.645 -0.287992 -5.99409 0
M  V30 2883 H 264.715 -0.963391 -4.75233 0
M  V30 2884 N 266.058 1.56714 -0.166846 0
M  V30 2885 C 266.988 2.20754 0.760913 0
M  V30 2886 C 267.969 1.16178 1.24244 0
M  V30 2887 O 269.154 1.44592 1.29641 0
M  V30 2888 C 266.284 2.84478 1.99223 0
M  V30 2889 C 265.238 3.95053 1.64672 0
M  V30 2890 C 264.564 4.45805 2.95232 0
M  V30 2891 C 265.864 5.14865 0.878155 0
M  V30 2892 H 267.558 2.98537 0.22713 0
M  V30 2893 H 265.104 1.43596 0.107805 0
M  V30 2894 H 267.057 3.27951 2.64624 0
M  V30 2895 H 265.781 2.04056 2.55007 0
M  V30 2896 H 264.44 3.52228 1.01641 0
M  V30 2897 H 264.088 3.62181 3.49047 0
M  V30 2898 H 263.788 5.204 2.7287 0
M  V30 2899 H 265.312 4.91962 3.6167 0
M  V30 2900 H 266.726 5.55059 1.43466 0
M  V30 2901 H 265.123 5.95348 0.753738 0
M  V30 2902 H 266.193 4.84735 -0.126377 0
M  V30 2903 N 267.536 -0.106894 1.57237 0
M  V30 2904 C 268.947 -0.662723 1.74542 0
M  V30 2905 C 269.298 -1.7971 0.787319 0
M  V30 2906 O 268.423 -2.16368 -0.0369636 0
M  V30 2907 C 269.018 -1.20896 3.16496 0
M  V30 2908 C 267.577 -1.71096 3.35266 0
M  V30 2909 C 266.724 -0.615642 2.7038 0
M  V30 2910 H 269.675 0.119106 1.58252 0
M  V30 2911 H 269.696 -2.07847 3.18716 0
M  V30 2912 H 269.208 -0.383122 3.86204 0
M  V30 2913 H 267.309 -2.56119 2.70618 0
M  V30 2914 H 267.422 -1.81208 4.43509 0
M  V30 2915 H 265.786 -1.05222 2.31949 0
M  V30 2916 H 266.569 0.199419 3.4272 0
M  V30 2917 N 269.014 -1.53014 -0.377408 0
M  V30 2918 C 270.291 -1.59215 -1.13622 0
M  V30 2919 C 270.671 -0.392407 -2.07421 0
M  V30 2920 O 270.019 0.618342 -2.19975 0
M  V30 2921 C 270.229 -2.93669 -1.88573 0
M  V30 2922 C 271.577 -3.47822 -2.43526 0
M  V30 2923 O 272.601 -2.9562 -1.98715 0
M  V30 2924 O 271.46 -4.39055 -3.25412 0
M  V30 2925 H 268.554 -0.642625 -0.52054 0
M  V30 2926 H 271.1 -1.65353 -0.381625 0
M  V30 2927 H 269.872 -3.7243 -1.20048 0
M  V30 2928 H 269.495 -2.90968 -2.70968 0
M  V30 2929 N 270.492 0.636531 -1.44174 0
M  V30 2930 C 271.717 1.42847 -1.50364 0
M  V30 2931 C 272.142 1.87665 -0.127867 0
M  V30 2932 O 271.5 1.58408 0.88185 0
M  V30 2933 C 271.548 2.62854 -2.4686 0
M  V30 2934 O 270.652 3.62501 -1.9664 0
M  V30 2935 H 269.993 0.427642 -0.507955 0
M  V30 2936 H 272.523 0.777422 -1.89255 0
M  V30 2937 H 272.533 3.10465 -2.64718 0
M  V30 2938 H 271.208 2.29578 -3.46795 0
M  V30 2939 H 269.785 3.21735 -1.88523 0
M  V30 2940 N 271.97 1.30982 0.876444 0
M  V30 2941 C 273.216 1.20474 1.63138 0
M  V30 2942 C 273.549 -0.238096 1.92735 0
M  V30 2943 O 272.824 -1.1692 1.55435 0
M  V30 2944 C 273.107 2.04244 2.96574 0
M  V30 2945 C 272.96 3.56793 2.73896 0
M  V30 2946 C 274.279 1.88684 3.97601 0
M  V30 2947 H 271.398 0.439001 0.591985 0
M  V30 2948 H 274.04 1.60704 1.01361 0
M  V30 2949 H 272.19 1.70063 3.493 0
M  V30 2950 H 273.862 4.01077 2.27892 0
M  V30 2951 H 272.105 3.80548 2.08245 0
M  V30 2952 H 272.776 4.10706 3.68815 0
M  V30 2953 H 275.252 2.18584 3.54062 0
M  V30 2954 H 274.128 2.4961 4.88862 0
M  V30 2955 H 274.389 0.848343 4.33884 0
M  V30 2956 N 273.449 -1.08991 1.13837 0
M  V30 2957 C 274.726 -1.77863 0.813876 0
M  V30 2958 C 275.106 -1.99375 -0.693746 0
M  V30 2959 O 274.454 -1.59875 -1.63255 0
M  V30 2960 C 274.664 -3.0986 1.60586 0
M  V30 2961 C 276.012 -3.84493 1.8014 0
M  V30 2962 O 277.036 -3.19624 1.57222 0
M  V30 2963 O 275.895 -5.00957 2.18413 0
M  V30 2964 H 272.989 -0.771589 0.297624 0
M  V30 2965 H 275.535 -1.15507 1.24323 0
M  V30 2966 H 274.307 -2.89715 2.63022 0
M  V30 2967 H 273.93 -3.79942 1.17173 0
M  V30 2968 N 274.927 -0.932562 -1.27047 0
M  V30 2969 C 275.857 -0.452902 -2.29066 0
M  V30 2970 C 276.838 0.489338 -1.62909 0
M  V30 2971 O 278.023 0.393046 -1.90181 0
M  V30 2972 C 275.153 0.290698 -3.46081 0
M  V30 2973 C 274.107 -0.564168 -4.24265 0
M  V30 2974 C 273.433 0.308886 -5.33807 0
M  V30 2975 C 274.733 -1.83112 -4.89149 0
M  V30 2976 H 276.427 -1.30552 -2.69437 0
M  V30 2977 H 273.973 -0.629201 -1.29526 0
M  V30 2978 H 275.926 0.637233 -4.16554 0
M  V30 2979 H 274.65 1.17738 -3.0464 0
M  V30 2980 H 273.309 -0.893477 -3.55545 0
M  V30 2981 H 272.957 1.19467 -4.88607 0
M  V30 2982 H 272.657 -0.259633 -5.87026 0
M  V30 2983 H 274.181 0.650884 -6.07121 0
M  V30 2984 H 275.595 -1.55236 -5.51883 0
M  V30 2985 H 273.992 -2.34353 -5.52448 0
M  V30 2986 H 275.062 -2.54772 -4.12576 0
M  V30 2987 N 276.405 1.4127 -0.698611 0
M  V30 2988 C 277.335 2.33447 -0.049629 0
M  V30 2989 C 278.316 1.51982 0.763898 0
M  V30 2990 O 279.501 1.80509 0.716257 0
M  V30 2991 C 276.631 3.35828 0.885267 0
M  V30 2992 C 275.585 4.27627 0.178613 0
M  V30 2993 C 274.911 5.20406 1.22807 0
M  V30 2994 C 276.211 5.13459 -0.956933 0
M  V30 2995 H 277.905 2.87966 -0.81951 0
M  V30 2996 H 275.451 1.38461 -0.395538 0
M  V30 2997 H 277.404 3.9924 1.34854 0
M  V30 2998 H 276.128 2.79666 1.68685 0
M  V30 2999 H 274.787 3.65643 -0.26466 0
M  V30 3000 H 274.435 4.60558 2.02226 0
M  V30 3001 H 274.135 5.82661 0.760239 0
M  V30 3002 H 275.659 5.86695 1.69179 0
M  V30 3003 H 277.073 5.70421 -0.573805 0
M  V30 3004 H 275.47 5.8467 -1.35205 0
M  V30 3005 H 276.54 4.50443 -1.79524 0
M  V30 3006 N 277.883 0.443576 1.51229 0
M  V30 3007 C 279.131 -0.120557 2.0174 0
M  V30 3008 C 279.452 -1.42665 1.32935 0
M  V30 3009 O 278.722 -1.9028 0.465866 0
M  V30 3010 H 277.302 -0.0475426 0.745486 0
M  V30 3011 H 279.964 0.587711 1.85828 0
M  V30 3012 H 279.06 -0.291972 3.10731 0
M  V30 3013 N 279.361 -1.56624 0.175154 0
M  V30 3014 C 280.638 -1.88688 -0.515373 0
M  V30 3015 C 281.018 -1.08564 -1.81044 0
M  V30 3016 O 280.366 -0.180703 -2.27784 0
M  V30 3017 C 280.576 -3.40768 -0.753552 0
M  V30 3018 C 281.924 -4.10587 -1.08184 0
M  V30 3019 O 282.948 -3.46106 -0.841961 0
M  V30 3020 O 281.807 -5.24512 -1.53459 0
M  V30 3021 H 278.901 -0.78301 -0.26613 0
M  V30 3022 H 281.447 -1.68347 0.213877 0
M  V30 3023 H 280.219 -3.90965 0.161829 0
M  V30 3024 H 279.842 -3.66733 -1.53598 0
M  V30 3025 N 280.839 0.0985539 -1.57292 0
M  V30 3026 C 282.085 0.803867 -1.86188 0
M  V30 3027 C 282.418 1.78549 -0.763794 0
M  V30 3028 O 281.693 1.93153 0.22855 0
M  V30 3029 C 281.976 1.53568 -3.25713 0
M  V30 3030 C 281.829 0.572277 -4.46145 0
M  V30 3031 C 283.148 2.48708 -3.63087 0
M  V30 3032 H 280.267 0.290781 -0.677211 0
M  V30 3033 H 282.909 0.0675783 -1.8988 0
M  V30 3034 H 281.059 2.16332 -3.22696 0
M  V30 3035 H 282.731 -0.0480894 -4.61275 0
M  V30 3036 H 280.974 -0.114618 -4.33649 0
M  V30 3037 H 281.645 1.12139 -5.40489 0
M  V30 3038 H 284.121 1.96039 -3.67026 0
M  V30 3039 H 282.997 2.96932 -4.61652 0
M  V30 3040 H 283.258 3.32309 -2.91588 0
M  V30 3041 N 282.317 1.53212 0.369288 0
M  V30 3042 C 283.227 1.82342 1.47609 0
M  V30 3043 C 284.243 0.711532 1.58787 0
M  V30 3044 O 285.419 1.0012 1.74751 0
M  V30 3045 C 282.484 2.00393 2.8292 0
M  V30 3046 C 281.545 3.24297 2.81301 0
M  V30 3047 C 280.778 3.41478 4.10157 0
M  V30 3048 O 281.001 2.63033 5.06132 0
M  V30 3049 O 279.935 4.34817 4.16194 0
M  V30 3050 H 283.761 2.76366 1.25918 0
M  V30 3051 H 281.346 1.38547 0.559034 0
M  V30 3052 H 283.228 2.13859 3.63101 0
M  V30 3053 H 281.903 1.09559 3.04596 0
M  V30 3054 H 280.81 3.16257 1.99831 0
M  V30 3055 H 282.143 4.15041 2.64578 0
M  V30 3056 N 283.795 -0.628877 1.44509 0
M  V30 3057 C 284.742 -1.74074 1.51549 0
M  V30 3058 C 285.712 -1.62084 0.363021 0
M  V30 3059 O 286.897 -1.81975 0.573567 0
M  V30 3060 C 284.037 -3.12328 1.46784 0
M  V30 3061 C 283.15 -3.35277 2.72422 0
M  V30 3062 C 282.285 -4.63515 2.59475 0
M  V30 3063 C 281.324 -4.7965 3.80266 0
M  V30 3064 N 280.461 -5.99168 3.65981 0
M  V30 3065 H 285.301 -1.67392 2.46544 0
M  V30 3066 H 282.838 -0.816527 1.22357 0
M  V30 3067 H 284.796 -3.92286 1.42012 0
M  V30 3068 H 283.426 -3.18018 0.553544 0
M  V30 3069 H 282.478 -2.49242 2.87372 0
M  V30 3070 H 283.79 -3.43078 3.62076 0
M  V30 3071 H 282.944 -5.51638 2.52548 0
M  V30 3072 H 281.683 -4.58076 1.67384 0
M  V30 3073 H 280.688 -3.89957 3.87574 0
M  V30 3074 H 281.913 -4.86902 4.73395 0
M  V30 3075 H 279.859 -5.94814 2.76644 0
M  V30 3076 H 279.776 -6.08035 4.49254 0
M  V30 3077 H 281.044 -6.89846 3.6295 0
M  V30 3078 N 285.273 -1.31445 -0.869486 0
M  V30 3079 C 286.519 -1.22347 -1.62489 0
M  V30 3080 C 286.874 0.216204 -1.91181 0
M  V30 3081 O 286.167 1.14977 -1.53268 0
M  V30 3082 C 286.361 -2.00145 -2.96102 0
M  V30 3083 C 286.19 -3.51531 -2.80456 0
M  V30 3084 C 284.96 -4.20882 -2.79618 0
M  V30 3085 C 287.158 -4.46471 -2.5528 0
M  V30 3086 N 285.14 -5.58421 -2.55027 0
M  V30 3087 C 286.511 -5.71682 -2.39957 0
M  V30 3088 C 288.566 -4.35892 -2.40629 0
M  V30 3089 C 287.269 -6.87511 -2.11472 0
M  V30 3090 C 289.295 -5.51505 -2.13532 0
M  V30 3091 C 288.657 -6.75707 -1.98998 0
M  V30 3092 H 284.756 -0.502815 -0.598917 0
M  V30 3093 H 287.34 -1.65639 -1.02332 0
M  V30 3094 H 285.511 -1.59221 -3.54264 0
M  V30 3095 H 287.243 -1.83063 -3.60929 0
M  V30 3096 H 283.998 -3.72857 -2.92018 0
M  V30 3097 H 284.422 -6.30841 -2.45701 0
M  V30 3098 H 289.064 -3.40533 -2.50593 0
M  V30 3099 H 286.782 -7.82897 -2.00245 0
M  V30 3100 H 290.368 -5.45238 -2.02995 0
M  V30 3101 H 289.248 -7.63655 -1.78326 0
M  V30 3102 N 286.751 1.08385 -1.14413 0
M  V30 3103 C 287.997 1.81044 -0.913834 0
M  V30 3104 C 288.33 1.86004 0.558209 0
M  V30 3105 O 287.605 1.33606 1.4135 0
M  V30 3106 C 287.888 3.26648 -1.51569 0
M  V30 3107 C 287.741 3.29895 -3.0576 0
M  V30 3108 C 289.06 4.23629 -1.19273 0
M  V30 3109 H 286.179 0.65727 -0.333414 0
M  V30 3110 H 288.821 1.26896 -1.41412 0
M  V30 3111 H 286.971 3.72889 -1.09023 0
M  V30 3112 H 288.643 2.91977 -3.57137 0
M  V30 3113 H 286.886 2.69163 -3.40197 0
M  V30 3114 H 287.557 4.32516 -3.42977 0
M  V30 3115 H 290.033 3.85727 -1.56057 0
M  V30 3116 H 288.909 5.23822 -1.64017 0
M  V30 3117 H 289.17 4.41968 -0.108068 0
M  V30 3118 N 288.23 0.939286 1.26551 0
M  V30 3119 C 289.507 0.5038 1.89001 0
M  V30 3120 C 289.887 -1.01854 1.84903 0
M  V30 3121 O 289.235 -1.87773 1.30206 0
M  V30 3122 C 289.445 1.063 3.32417 0
M  V30 3123 C 290.793 1.13051 4.09273 0
M  V30 3124 O 291.817 1.01345 3.41479 0
M  V30 3125 O 290.676 1.31233 5.30509 0
M  V30 3126 H 287.77 0.163897 0.810597 0
M  V30 3127 H 290.316 1.03173 1.34735 0
M  V30 3128 H 289.088 2.10665 3.29752 0
M  V30 3129 H 288.711 0.517408 3.94219 0
M  V30 3130 N 289.708 -1.40897 0.706093 0
M  V30 3131 C 290.936 -2.05373 0.250887 0
M  V30 3132 C 291.351 -1.53172 -1.10381 0
M  V30 3133 O 290.708 -0.684305 -1.69185 0
M  V30 3134 C 290.759 -3.6088 0.211571 0
M  V30 3135 O 290.48 -4.11153 1.51276 0
M  V30 3136 C 291.981 -4.42517 -0.263346 0
M  V30 3137 H 289.201 -0.66115 0.114552 0
M  V30 3138 H 291.745 -1.80479 0.961635 0
M  V30 3139 H 289.9 -3.84777 -0.450073 0
M  V30 3140 H 290.314 -5.05279 1.40689 0
M  V30 3141 H 291.788 -5.51479 -0.239718 0
M  V30 3142 H 292.265 -4.19396 -1.30397 0
M  V30 3143 H 292.871 -4.23708 0.367677 0
M  V30 3144 N 291.186 -0.45159 -1.50991 0
M  V30 3145 C 292.434 0.109857 -2.01801 0
M  V30 3146 C 292.755 1.41958 -1.3369 0
M  V30 3147 O 292.025 1.9003 -0.475951 0
M  V30 3148 H 290.605 0.0435884 -0.745727 0
M  V30 3149 H 293.267 -0.597557 -1.85514 0
M  V30 3150 H 292.363 0.275489 -3.10882 0
M  V30 3151 N 292.664 1.56529 -0.183458 0
M  V30 3152 C 293.594 2.21549 0.737456 0
M  V30 3153 C 294.575 1.17489 1.23005 0
M  V30 3154 O 295.76 1.45959 1.281 0
M  V30 3155 C 292.89 2.86575 1.96194 0
M  V30 3156 C 291.844 3.96778 1.60473 0
M  V30 3157 C 291.17 4.48911 2.90487 0
M  V30 3158 C 292.47 5.15767 0.823497 0
M  V30 3159 H 294.164 2.98761 0.195453 0
M  V30 3160 H 291.71 1.43702 0.0925686 0
M  V30 3161 H 293.663 3.30739 2.61131 0
M  V30 3162 H 292.387 2.06749 2.52828 0
M  V30 3163 H 291.046 3.53286 0.978997 0
M  V30 3164 H 290.694 3.65862 3.45186 0
M  V30 3165 H 290.394 5.23265 2.67335 0
M  V30 3166 H 291.918 4.95771 3.56432 0
M  V30 3167 H 293.332 5.56549 1.37571 0
M  V30 3168 H 291.729 5.96114 0.690551 0
M  V30 3169 H 292.799 4.84574 -0.177782 0
M  V30 3170 N 294.142 -0.090211 1.57342 0
M  V30 3171 C 295.419 -0.824761 1.77361 0
M  V30 3172 C 295.799 -1.96698 0.76637 0
M  V30 3173 O 295.147 -2.27586 -0.204179 0
M  V30 3174 C 295.357 -1.31481 3.23286 0
M  V30 3175 C 296.705 -1.75563 3.86604 0
M  V30 3176 O 297.729 -1.41093 3.27065 0
M  V30 3177 O 296.588 -2.39317 4.91314 0
M  V30 3178 H 293.682 -0.393776 0.727234 0
M  V30 3179 H 296.228 -0.0717138 1.69548 0
M  V30 3180 H 295 -0.496671 3.88135 0
M  V30 3181 H 294.623 -2.12973 3.35751 0
M  V30 3182 N 295.62 -1.53406 -0.361157 0
M  V30 3183 C 296.553 -1.74946 -1.46524 0
M  V30 3184 C 297.531 -0.59795 -1.51206 0
M  V30 3185 O 298.715 -0.831062 -1.69191 0
M  V30 3186 C 295.842 -1.83224 -2.84863 0
M  V30 3187 C 294.888 -3.05233 -2.97885 0
M  V30 3188 S 295.721 -4.6466 -2.66179 0
M  V30 3189 C 296.877 -4.75793 -4.06659 0
M  V30 3190 H 297.11 -2.68319 -1.28033 0
M  V30 3191 H 294.643 -1.44051 -0.555764 0
M  V30 3192 H 296.601 -1.88679 -3.64569 0
M  V30 3193 H 295.262 -0.908948 -3.00661 0
M  V30 3194 H 294.455 -3.07648 -3.9921 0
M  V30 3195 H 294.057 -2.97913 -2.26106 0
M  V30 3196 H 296.349 -4.5612 -5.0096 0
M  V30 3197 H 297.292 -5.7786 -4.09247 0
M  V30 3198 H 297.7 -4.04389 -3.93865 0
M  V30 3199 N 297.098 0.621204 -1.44841 0
M  V30 3200 C 298.028 1.74366 -1.55303 0
M  V30 3201 C 299.009 1.65199 -0.405385 0
M  V30 3202 O 300.194 1.83807 -0.626787 0
M  V30 3203 C 297.324 3.12931 -1.50637 0
M  V30 3204 C 296.278 3.36896 -2.63979 0
M  V30 3205 C 295.604 4.75594 -2.44366 0
M  V30 3206 C 296.904 3.28483 -4.06074 0
M  V30 3207 H 298.598 1.65867 -2.49256 0
M  V30 3208 H 296.144 0.796558 -1.19962 0
M  V30 3209 H 298.097 3.9124 -1.56555 0
M  V30 3210 H 296.821 3.22237 -0.532057 0
M  V30 3211 H 295.48 2.60972 -2.57467 0
M  V30 3212 H 295.128 4.81616 -1.45105 0
M  V30 3213 H 294.828 4.92586 -3.20364 0
M  V30 3214 H 296.352 5.5612 -2.52117 0
M  V30 3215 H 297.766 3.96684 -4.13902 0
M  V30 3216 H 296.163 3.57008 -4.82354 0
M  V30 3217 H 297.233 2.26133 -4.28943 0
M  V30 3218 N 298.576 1.31904 0.862503 0
M  V30 3219 C 299.992 1.10724 1.14945 0
M  V30 3220 C 300.192 -0.117421 2.01158 0
M  V30 3221 O 299.248 -0.804595 2.39338 0
M  V30 3222 C 300.561 2.38267 1.83437 0
M  V30 3223 C 302.109 2.43949 1.96106 0
M  V30 3224 C 302.584 3.71394 2.68013 0
M  V30 3225 N 304.075 3.72331 2.75543 0
M  V30 3226 C 304.81 4.67641 3.31812 0
M  V30 3227 N 304.306 5.73313 3.88953 0
M  V30 3228 N 306.099 4.5515 3.29841 0
M  V30 3229 H 298.25 2.10436 0.288191 0
M  V30 3230 H 300.513 0.928705 0.190292 0
M  V30 3231 H 300.219 3.27759 1.27542 0
M  V30 3232 H 300.093 2.48633 2.83657 0
M  V30 3233 H 302.48 1.54922 2.51164 0
M  V30 3234 H 302.561 2.37543 0.949059 0
M  V30 3235 H 302.205 4.60791 2.13621 0
M  V30 3236 H 302.135 3.75069 3.69636 0
M  V30 3237 H 304.626 2.95947 2.34997 0
M  V30 3238 H 304.939 6.42107 4.30022 0
M  V30 3239 H 303.284 5.77077 3.87308 0
M  V30 3240 H 306.475 3.71766 2.84443 0
M  V30 3241 H 306.648 5.29604 3.73394 0
M  V30 3242 N 300.054 -1.07777 1.14986 0
M  V30 3243 C 300.984 -2.16865 0.865557 0
M  V30 3244 C 301.965 -1.69123 -0.182083 0
M  V30 3245 O 303.15 -1.94164 -0.0373815 0
M  V30 3246 C 300.28 -3.45539 0.349313 0
M  V30 3247 C 299.234 -4.06708 1.33313 0
M  V30 3248 C 298.56 -5.30411 0.675918 0
M  V30 3249 C 299.86 -4.47241 2.69764 0
M  V30 3250 H 301.554 -2.40905 1.77778 0
M  V30 3251 H 299.1 -1.15781 0.856203 0
M  V30 3252 H 301.053 -4.21174 0.137983 0
M  V30 3253 H 299.777 -3.21072 -0.598362 0
M  V30 3254 H 298.436 -3.33112 1.53075 0
M  V30 3255 H 298.084 -5.02232 -0.277767 0
M  V30 3256 H 297.784 -5.72293 1.33244 0
M  V30 3257 H 299.308 -6.08755 0.474262 0
M  V30 3258 H 300.722 -5.14025 2.53873 0
M  V30 3259 H 299.119 -5.00062 3.3175 0
M  V30 3260 H 300.189 -3.58818 3.26156 0
M  V30 3261 N 301.532 -0.945985 -1.26051 0
M  V30 3262 C 302.757 -0.612525 -1.98149 0
M  V30 3263 C 303.182 0.806623 -1.69927 0
M  V30 3264 O 302.54 1.54411 -0.950108 0
M  V30 3265 C 302.588 -0.866981 -3.50023 0
M  V30 3266 O 301.692 0.0585333 -4.12358 0
M  V30 3267 H 301.033 -0.23379 -0.621481 0
M  V30 3268 H 303.563 -1.27023 -1.60395 0
M  V30 3269 H 303.573 -0.789792 -4.00283 0
M  V30 3270 H 302.248 -1.90135 -3.69894 0
M  V30 3271 H 300.825 -0.0701241 -3.72834 0
M  V30 3272 N 303.011 1.40521 -0.713556 0
M  V30 3273 C 304.422 1.83853 -0.324807 0
M  V30 3274 C 304.773 1.59667 1.14021 0
M  V30 3275 O 303.898 1.07649 1.87725 0
M  V30 3276 C 304.493 3.33751 -0.582746 0
M  V30 3277 C 303.052 3.75584 -0.247727 0
M  V30 3278 C 302.199 2.63753 -0.856121 0
M  V30 3279 H 305.15 1.29817 -0.91286 0
M  V30 3280 H 305.171 3.80194 0.152682 0
M  V30 3281 H 304.683 3.51322 -1.64908 0
M  V30 3282 H 302.784 3.63608 0.813624 0
M  V30 3283 H 302.897 4.7373 -0.715307 0
M  V30 3284 H 301.261 2.53108 -0.28432 0
M  V30 3285 H 302.044 2.84137 -1.92668 0
M  V30 3286 N 304.489 0.459591 1.5075 0
M  V30 3287 C 305.452 -0.329093 2.26825 0
M  V30 3288 C 306.452 -0.930481 1.31144 0
M  V30 3289 O 307.642 -0.801453 1.54669 0
M  V30 3290 C 304.774 -1.46768 3.07688 0
M  V30 3291 H 305.967 0.337924 2.9799 0
M  V30 3292 H 303.52 0.213336 1.54837 0
M  V30 3293 H 304.255 -2.17009 2.40993 0
M  V30 3294 H 304.04 -1.04238 3.77991 0
M  V30 3295 H 305.53 -2.02433 3.65254 0
M  V30 3296 N 305.967 -1.56429 0.191757 0
M  V30 3297 C 306.897 -2.21937 -0.725696 0
M  V30 3298 C 307.878 -1.1814 -1.2238 0
M  V30 3299 O 309.063 -1.46636 -1.27325 0
M  V30 3300 C 306.193 -2.87611 -1.94672 0
M  V30 3301 C 305.147 -3.97623 -1.58366 0
M  V30 3302 C 304.473 -4.50446 -2.88102 0
M  V30 3303 C 305.773 -5.16197 -0.796133 0
M  V30 3304 H 307.467 -2.98861 -0.179606 0
M  V30 3305 H 305.013 -1.43749 -0.0849464 0
M  V30 3306 H 306.966 -3.3212 -2.59373 0
M  V30 3307 H 305.69 -2.08087 -2.51728 0
M  V30 3308 H 304.349 -3.53801 -0.960247 0
M  V30 3309 H 303.997 -3.67688 -3.43241 0
M  V30 3310 H 303.697 -5.24675 -2.64556 0
M  V30 3311 H 305.221 -4.97654 -3.53798 0
M  V30 3312 H 306.635 -5.57271 -1.34618 0
M  V30 3313 H 305.032 -5.96471 -0.658928 0
M  V30 3314 H 306.102 -4.84473 0.203478 0
M  V30 3315 N 307.445 0.0818655 -1.57387 0
M  V30 3316 C 308.861 0.436412 -1.53517 0
M  V30 3317 C 309.061 1.79758 -0.910459 0
M  V30 3318 O 308.117 2.47324 -0.508636 0
M  V30 3319 C 309.43 0.386734 -2.98203 0
M  V30 3320 C 310.978 0.467644 -3.09487 0
M  V30 3321 C 311.453 0.447978 -4.55804 0
M  V30 3322 N 312.944 0.508348 -4.60402 0
M  V30 3323 C 313.679 0.515184 -5.71081 0
M  V30 3324 N 313.175 0.477435 -6.91153 0
M  V30 3325 N 314.968 0.560988 -5.59294 0
M  V30 3326 H 307.119 -0.809546 -1.96367 0
M  V30 3327 H 309.382 -0.302733 -0.898363 0
M  V30 3328 H 309.088 -0.546539 -3.47427 0
M  V30 3329 H 308.962 1.20075 -3.57578 0
M  V30 3330 H 311.349 1.39134 -2.60242 0
M  V30 3331 H 311.43 -0.374753 -2.5304 0
M  V30 3332 H 311.074 -0.471826 -5.05704 0
M  V30 3333 H 311.004 1.30777 -5.10103 0
M  V30 3334 H 313.495 0.54218 -3.7399 0
M  V30 3335 H 313.808 0.486299 -7.71268 0
M  V30 3336 H 312.153 0.444278 -6.93579 0
M  V30 3337 H 315.344 0.5881 -4.64391 0
M  V30 3338 H 315.517 0.562846 -6.45551 0
M  V30 3339 N 308.923 1.53595 0.353017 0
M  V30 3340 C 309.87 1.80919 1.43308 0
M  V30 3341 C 310.84 0.654288 1.5267 0
M  V30 3342 O 312.025 0.897759 1.6836 0
M  V30 3343 C 309.165 2.01605 2.80089 0
M  V30 3344 C 308.278 3.29321 2.79593 0
M  V30 3345 C 307.413 3.40125 4.0803 0
M  V30 3346 C 306.452 4.61826 4.01725 0
M  V30 3347 N 305.589 4.69716 5.21834 0
M  V30 3348 H 310.429 2.73074 1.19308 0
M  V30 3349 H 307.966 1.35263 0.578131 0
M  V30 3350 H 309.924 2.11586 3.59565 0
M  V30 3351 H 308.554 1.12772 3.0246 0
M  V30 3352 H 307.606 3.28229 1.92276 0
M  V30 3353 H 308.918 4.18884 2.70809 0
M  V30 3354 H 308.072 3.49488 4.95927 0
M  V30 3355 H 306.811 2.48601 4.19582 0
M  V30 3356 H 305.816 4.52552 3.12213 0
M  V30 3357 H 307.041 5.54705 3.91764 0
M  V30 3358 H 304.987 3.81097 5.33948 0
M  V30 3359 H 304.904 5.53202 5.1527 0
M  V30 3360 H 306.172 4.83376 6.11529 0
M  V30 3361 O 310.44 -0.498996 1.53598 0
M  V30 3362 H 311.131 -1.15384 1.55584 0
M  V30 END ATOM
M  V30 BEGIN BOND
M  V30 END BOND
M  V30 END CTAB
M  END
$$$$
