drugbank_target|Q8I431 60S ribosomal protein L4 (DB11638)
 OpenBabel12092121103D

  0  0  0     0  0            999 V3000
M  V30 BEGIN CTAB
M  V30 COUNTS 6749 6799 0 0 0
M  V30 BEGIN ATOM
M  V30 1 H -0.908 1.98254 -0.117106 0
M  V30 2 N 0 1.576 0 0
M  V30 3 C 0.933 2.03868 1.02534 0
M  V30 4 C 1.911 0.928543 1.3348 0
M  V30 5 O 3.095 1.19667 1.45644 0
M  V30 6 C 0.222 2.43627 2.35294 0
M  V30 7 C -0.732 3.65373 2.2001 0
M  V30 8 S 0.101 5.13292 1.52614 0
M  V30 9 C 1.257 5.56322 2.86805 0
M  V30 10 H 1.49 2.90518 0.631377 0
M  V30 11 H -0.977 1.52953 0.210867 0
M  V30 12 H 0.981 2.67203 3.11629 0
M  V30 13 H -0.358 1.57376 2.7183 0
M  V30 14 H -1.165 3.90944 3.18086 0
M  V30 15 H -1.563 3.418 1.51819 0
M  V30 16 H 0.729 5.58782 3.83104 0
M  V30 17 H 1.672 6.56266 2.65933 0
M  V30 18 H 2.08 4.83886 2.90714 0
M  V30 19 N 1.4781 -0.272755 1.55222 0
M  V30 20 C 2.4411 -1.32041 1.87344 0
M  V30 21 C 3.4411 -1.42342 0.74803 0
M  V30 22 O 4.6311 -1.41488 1.0162 0
M  V30 23 C 1.7631 -2.70173 2.07893 0
M  V30 24 H 2.9561 -1.04789 2.80997 0
M  V30 25 H 0.5091 -0.51083 1.47717 0
M  V30 26 H 1.2441 -3.02605 1.16622 0
M  V30 27 H 1.0291 -2.64082 2.89833 0
M  V30 28 H 2.5191 -3.45869 2.34017 0
M  V30 29 N 2.9562 -1.48159 -0.537278 0
M  V30 30 C 4.1842 -1.59454 -1.31841 0
M  V30 31 C 4.5992 -0.252065 -1.8711 0
M  V30 32 O 3.9562 0.757621 -1.66031 0
M  V30 33 C 4.0072 -2.63546 -2.47439 0
M  V30 34 O 3.7282 -3.92583 -1.94449 0
M  V30 35 C 5.2292 -2.85212 -3.39366 0
M  V30 36 H 2.4492 -0.53785 -0.401196 0
M  V30 37 H 4.9932 -1.93932 -0.648891 0
M  V30 38 H 3.1482 -2.31946 -3.1029 0
M  V30 39 H 3.5622 -4.49629 -2.70063 0
M  V30 40 H 5.0362 -3.61863 -4.16844 0
M  V30 41 H 5.5132 -1.93765 -3.94147 0
M  V30 42 H 6.1192 -3.18086 -2.82314 0
M  V30 43 N 4.4343 0.785586 -1.36625 0
M  V30 44 C 5.6833 1.53883 -1.30396 0
M  V30 45 C 5.9963 1.95271 0.113452 0
M  V30 46 O 7.2023 2.69858 0.298142 0
M  V30 47 C 5.6583 2.77808 -2.28802 0
M  V30 48 C 5.2663 2.43574 -3.75999 0
M  V30 49 C 7.0103 3.55783 -2.31558 0
M  V30 50 C 4.9173 3.63919 -4.66173 0
M  V30 51 H 3.8473 0.577678 -0.484566 0
M  V30 52 H 6.4983 0.861705 -1.62009 0
M  V30 53 H 4.8803 3.47339 -1.90188 0
M  V30 54 H 6.0543 1.81916 -4.23371 0
M  V30 55 H 4.3693 1.78803 -3.76056 0
M  V30 56 H 6.9663 4.45205 -2.96137 0
M  V30 57 H 7.3093 3.94644 -1.3252 0
M  V30 58 H 7.8423 2.93235 -2.68809 0
M  V30 59 H 4.5813 3.3015 -5.66287 0
M  V30 60 H 4.1013 4.2473 -4.23515 0
M  V30 61 H 5.7803 4.30901 -4.82632 0
M  V30 62 N 5.9124 1.20967 1.01018 0
M  V30 63 C 7.3284 0.965905 1.27053 0
M  V30 64 C 7.5284 -0.350785 1.98423 0
M  V30 65 O 6.5844 -1.07773 2.28344 0
M  V30 66 C 7.8974 2.15294 2.09926 0
M  V30 67 C 9.4454 2.19463 2.23171 0
M  V30 68 C 9.9204 3.3767 3.09424 0
M  V30 69 N 11.4114 3.37724 3.17012 0
M  V30 70 C 12.1464 4.25837 3.83993 0
M  V30 71 N 11.6424 5.24138 4.53047 0
M  V30 72 N 13.4354 4.1366 3.80581 0
M  V30 73 H 5.5864 2.0565 0.531194 0
M  V30 74 H 7.8494 0.90024 0.297106 0
M  V30 75 H 7.5554 3.10684 1.64828 0
M  V30 76 H 7.4294 2.13923 3.10672 0
M  V30 77 H 9.8164 1.24632 2.6749 0
M  V30 78 H 9.8974 2.2488 1.21912 0
M  V30 79 H 9.5414 4.32791 2.65808 0
M  V30 80 H 9.4714 3.29491 4.10784 0
M  V30 81 H 11.9624 2.6658 2.6785 0
M  V30 82 H 12.2754 5.87684 5.01844 0
M  V30 83 H 10.6204 5.28068 4.5185 0
M  V30 84 H 13.8114 3.36127 3.25785 0
M  V30 85 H 13.9844 4.82538 4.32505 0
M  V30 86 N 7.3905 -1.2043 1.01659 0
M  V30 87 C 8.8015 -1.71517 0.737482 0
M  V30 88 C 9.1525 -1.81547 -0.743973 0
M  V30 89 O 8.2775 -1.47803 -1.58061 0
M  V30 90 C 8.8725 -3.11515 1.33206 0
M  V30 91 C 7.4315 -3.59912 1.10183 0
M  V30 92 C 6.5785 -2.37116 1.43776 0
M  V30 93 H 9.5295 -1.05444 1.18606 0
M  V30 94 H 9.5505 -3.73575 0.722636 0
M  V30 95 H 9.0625 -3.04182 2.41028 0
M  V30 96 H 7.1635 -3.72577 0.0412756 0
M  V30 97 H 7.2765 -4.44731 1.78188 0
M  V30 98 H 5.6405 -2.39857 0.856778 0
M  V30 99 H 6.4235 -2.32424 2.52654 0
M  V30 100 N 8.8686 -0.792821 -1.36206 0
M  V30 101 C 10.1146 -0.36733 -1.99446 0
M  V30 102 C 10.4476 1.05917 -1.62774 0
M  V30 103 O 9.7226 1.7324 -0.88421 0
M  V30 104 C 10.0056 -0.535044 -3.56103 0
M  V30 105 C 9.8586 -2.00548 -4.02617 0
M  V30 106 C 11.1776 0.0478191 -4.40074 0
M  V30 107 H 8.2966 -0.134941 -0.724541 0
M  V30 108 H 10.9386 -0.999794 -1.61568 0
M  V30 109 H 9.0886 0.00336329 -3.885 0
M  V30 110 H 10.7606 -2.60521 -3.80692 0
M  V30 111 H 9.0036 -2.50686 -3.54032 0
M  V30 112 H 9.6746 -2.07377 -5.11565 0
M  V30 113 H 12.1506 -0.411822 -4.14057 0
M  V30 114 H 11.0266 -0.0995336 -5.4881 0
M  V30 115 H 11.2876 1.14025 -4.27142 0
M  V30 116 N 10.3467 1.47872 -0.545128 0
M  V30 117 C 11.3097 2.28337 0.198717 0
M  V30 118 C 12.3097 1.36255 0.853888 0
M  V30 119 O 13.4997 1.59003 0.711606 0
M  V30 120 C 10.6317 3.15585 1.28915 0
M  V30 121 H 11.8247 2.95567 -0.507941 0
M  V30 122 H 9.3777 1.53362 -0.301616 0
M  V30 123 H 10.1127 2.53019 2.02859 0
M  V30 124 H 9.8977 3.83337 0.824309 0
M  V30 125 H 11.3877 3.76243 1.81194 0
M  V30 126 N 11.8248 0.280983 1.55075 0
M  V30 127 C 12.7728 -0.619864 2.24188 0
M  V30 128 C 13.7668 -1.15315 1.24092 0
M  V30 129 O 14.9728 -1.1061 1.42005 0
M  V30 130 H 11.3478 -0.218459 0.719569 0
M  V30 131 H 13.3188 -0.0141831 2.98397 0
M  V30 132 C 12.0678 -1.7899 2.98091 0
M  V30 133 H 11.3908 -1.38874 3.74905 0
M  V30 134 H 12.8308 -2.39672 3.49762 0
M  V30 135 C 11.2898 -2.68192 2.03899 0
M  V30 136 O 11.8198 -3.6872 1.594 0
M  V30 137 N 10.0258 -2.35488 1.70275 0
M  V30 138 H 9.5728 -1.53787 2.06658 0
M  V30 139 H 9.5308 -2.95442 1.07524 0
M  V30 140 N 13.3029 -1.57598 0.00835791 0
M  V30 141 C 14.5489 -1.91211 -0.675732 0
M  V30 142 C 14.8819 -0.883139 -1.72958 0
M  V30 143 O 14.1569 0.097016 -1.94258 0
M  V30 144 C 14.4399 -3.35379 -1.31123 0
M  V30 145 C 14.2929 -4.48999 -0.268356 0
M  V30 146 C 15.6119 -3.7912 -2.23508 0
M  V30 147 H 12.7309 -0.695374 -0.244179 0
M  V30 148 H 15.3729 -1.89901 0.0613655 0
M  V30 149 H 13.5229 -3.36626 -1.93946 0
M  V30 150 H 15.1949 -4.59887 0.360844 0
M  V30 151 H 13.4379 -4.31873 0.408482 0
M  V30 152 H 14.1089 -5.46851 -0.752218 0
M  V30 153 H 16.5849 -3.79477 -1.70693 0
M  V30 154 H 15.4609 -4.80729 -2.64936 0
M  V30 155 H 15.7219 -3.13455 -3.11766 0
M  V30 156 N 14.781 0.264519 -1.55364 0
M  V30 157 C 16.011 1.01153 -1.80143 0
M  V30 158 C 16.419 1.80115 -0.579253 0
M  V30 159 O 15.762 1.77813 0.46132 0
M  V30 160 C 15.824 2.01098 -2.97993 0
M  V30 161 C 15.488 1.40995 -4.34706 0
M  V30 162 C 16.485 0.821316 -5.13372 0
M  V30 163 C 14.17 1.43461 -4.81378 0
M  V30 164 C 16.164 0.265339 -6.36847 0
M  V30 165 C 13.851 0.874771 -6.04807 0
M  V30 166 C 14.849 0.291146 -6.82379 0
M  V30 167 O 14.537 -0.260093 -8.03479 0
M  V30 168 H 14.269 0.304125 -0.603725 0
M  V30 169 H 16.823 0.298089 -2.03225 0
M  V30 170 H 15.053 2.76224 -2.70623 0
M  V30 171 H 16.742 2.61997 -3.1002 0
M  V30 172 H 17.508 0.794903 -4.78442 0
M  V30 173 H 13.387 1.87826 -4.21002 0
M  V30 174 H 16.931 -0.190837 -6.97339 0
M  V30 175 H 12.828 0.898452 -6.39217 0
M  V30 176 H 13.596 -0.150265 -8.18362 0
M  V30 177 N 16.2591 1.48442 0.529413 0
M  V30 178 C 17.4841 1.60406 1.31471 0
M  V30 179 C 17.9091 0.264738 1.86228 0
M  V30 180 O 17.2671 -0.763668 1.64432 0
M  V30 181 C 17.3151 2.65419 2.44101 0
M  V30 182 O 16.4191 2.22618 3.47153 0
M  V30 183 H 15.7601 0.537863 0.389357 0
M  V30 184 H 18.2901 1.94432 0.636965 0
M  V30 185 H 18.3001 2.86709 2.90279 0
M  V30 186 H 16.9751 3.62652 2.03608 0
M  V30 187 H 15.5521 2.11543 3.0709 0
M  V30 188 N 17.7372 -0.778329 1.37039 0
M  V30 189 C 18.9652 -1.56734 1.35063 0
M  V30 190 C 19.3802 -1.88686 -0.0655597 0
M  V30 191 O 18.7372 -1.5096 -1.02554 0
M  V30 192 C 18.7882 -2.88163 2.18276 0
M  V30 193 O 18.5092 -2.57583 3.54376 0
M  V30 194 C 20.0102 -3.82422 2.24206 0
M  V30 195 H 17.2302 -0.485778 0.462883 0
M  V30 196 H 19.7742 -0.965185 1.8029 0
M  V30 197 H 17.9292 -3.44818 1.76576 0
M  V30 198 H 18.3432 -3.41699 3.97922 0
M  V30 199 H 19.8172 -4.71667 2.86765 0
M  V30 200 H 20.2942 -4.21078 1.24861 0
M  V30 201 H 20.9002 -3.31697 2.6619 0
M  V30 202 N 19.2153 -1.21501 -1.00376 0
M  V30 203 C 20.1633 -0.972442 -2.11297 0
M  V30 204 C 21.1573 0.080731 -1.69208 0
M  V30 205 O 22.3633 -0.0707666 -1.79861 0
M  V30 206 H 18.7383 -0.297218 -0.690772 0
M  V30 207 H 20.7093 -1.91394 -2.28934 0
M  V30 208 C 19.4583 -0.555065 -3.43241 0
M  V30 209 H 18.7813 -1.35709 -3.76062 0
M  V30 210 H 20.2213 -0.424664 -4.21868 0
M  V30 211 C 18.6803 0.734147 -3.28804 0
M  V30 212 O 19.2103 1.78937 -3.59645 0
M  V30 213 N 17.4163 0.701133 -2.82015 0
M  V30 214 H 16.9633 -0.157874 -2.57116 0
M  V30 215 H 16.9213 1.56403 -2.72737 0
M  V30 216 N 20.6934 1.19889 -1.02296 0
M  V30 217 C 21.9414 1.89046 -0.714558 0
M  V30 218 C 22.2624 1.79636 0.758681 0
M  V30 219 O 21.5324 1.20292 1.54618 0
M  V30 220 H 20.1124 0.699802 -0.261317 0
M  V30 221 H 22.7744 1.45574 -1.29592 0
M  V30 222 H 21.8704 2.95524 -1.0036 0
M  V30 223 N 22.1715 0.800033 1.35784 0
M  V30 224 C 23.1185 0.203848 2.29898 0
M  V30 225 C 24.0885 -0.658375 1.52495 0
M  V30 226 O 25.2735 -0.604832 1.8096 0
M  V30 227 C 22.4135 -0.64688 3.38983 0
M  V30 228 C 21.5265 0.235054 4.3136 0
M  V30 229 C 20.6615 -0.623054 5.27533 0
M  V30 230 C 19.7005 0.259682 6.11549 0
M  V30 231 N 18.8375 -0.558019 6.99879 0
M  V30 232 H 23.6775 1.01186 2.80295 0
M  V30 233 H 21.2145 0.51053 1.37957 0
M  V30 234 H 23.1725 -1.15521 4.00887 0
M  V30 235 H 21.8025 -1.42021 2.89879 0
M  V30 236 H 20.8545 0.861438 3.70518 0
M  V30 237 H 22.1665 0.914768 4.9034 0
M  V30 238 H 21.3205 -1.19678 5.94779 0
M  V30 239 H 20.0595 -1.33636 4.69034 0
M  V30 240 H 19.0645 0.845726 5.43256 0
M  V30 241 H 20.2895 0.970748 6.72126 0
M  V30 242 H 18.2355 -1.25542 6.43875 0
M  V30 243 H 18.1525 0.0637872 7.55973 0
M  V30 244 H 19.4205 -1.11523 7.71481 0
M  V30 245 N 23.6496 -1.47581 0.552962 0
M  V30 246 C 24.5976 -2.31648 -0.21023 0
M  V30 247 C 25.5916 -1.42663 -0.913432 0
M  V30 248 O 26.7976 -1.5945 -0.835201 0
M  V30 249 H 23.1726 -0.746989 -0.0866676 0
M  V30 250 H 25.1436 -2.93869 0.518051 0
M  V30 251 C 23.8926 -3.25226 -1.22976 0
M  V30 252 H 23.2156 -3.93658 -0.698077 0
M  V30 253 H 24.6556 -3.86889 -1.73473 0
M  V30 254 C 23.1146 -2.48448 -2.27542 0
M  V30 255 O 23.6446 -2.22585 -3.34393 0
M  V30 256 N 21.8506 -2.09532 -2.01357 0
M  V30 257 H 21.3976 -2.30765 -1.14478 0
M  V30 258 H 21.3556 -1.58476 -2.71538 0
M  V30 259 N 25.1277 -0.289203 -1.54924 0
M  V30 260 C 26.3737 0.323998 -2.00195 0
M  V30 261 C 26.7067 1.54441 -1.17735 0
M  V30 262 O 25.9817 1.92875 -0.250878 0
M  V30 263 C 26.2647 0.692276 -3.53383 0
M  V30 264 C 26.1177 -0.536457 -4.46589 0
M  V30 265 C 27.4367 1.52335 -4.12895 0
M  V30 266 H 24.5557 0.116289 -0.727768 0
M  V30 267 H 27.1977 -0.398954 -1.85764 0
M  V30 268 H 25.3477 1.30822 -3.65811 0
M  V30 269 H 27.0197 -1.17499 -4.46085 0
M  V30 270 H 25.2627 -1.17192 -4.1767 0
M  V30 271 H 25.9337 -0.234806 -5.515 0
M  V30 272 H 28.4097 1.00302 -4.0383 0
M  V30 273 H 27.2857 1.74982 -5.20262 0
M  V30 274 H 27.5467 2.50886 -3.64018 0
M  V30 275 N 26.6058 1.57591 -0.0167156 0
M  V30 276 C 27.8518 1.91567 0.665582 0
M  V30 277 C 28.1848 0.892298 1.72487 0
M  V30 278 O 27.4598 -0.0867127 1.94307 0
M  V30 279 C 27.7428 3.36069 1.29342 0
M  V30 280 C 27.5958 4.49135 0.244541 0
M  V30 281 C 28.9148 3.803 2.21495 0
M  V30 282 H 26.0338 0.69666 0.240488 0
M  V30 283 H 28.6758 1.89866 -0.0714356 0
M  V30 284 H 26.8258 3.3765 1.92158 0
M  V30 285 H 28.4978 4.59689 -0.385228 0
M  V30 286 H 26.7408 4.3165 -0.431379 0
M  V30 287 H 27.4118 5.47242 0.723207 0
M  V30 288 H 29.8878 3.80377 1.68678 0
M  V30 289 H 28.7638 4.82127 2.62382 0
M  V30 290 H 29.0248 3.15104 3.101 0
M  V30 291 N 28.0839 -0.256276 1.55502 0
M  V30 292 C 29.3319 -0.983672 1.76545 0
M  V30 293 C 29.6529 -1.86206 0.578982 0
M  V30 294 O 28.9229 -1.91656 -0.405577 0
M  V30 295 H 27.5029 -0.366191 0.651086 0
M  V30 296 H 30.1649 -0.276479 1.92929 0
M  V30 297 H 29.2609 -1.61087 2.67315 0
M  V30 298 N 29.562 -1.4872 -0.521534 0
M  V30 299 C 30.472 -1.66569 -1.65203 0
M  V30 300 C 31.488 -0.548197 -1.65139 0
M  V30 301 O 32.664 -0.820339 -1.83936 0
M  V30 302 C 29.729 -1.70917 -3.01642 0
M  V30 303 C 28.79 -2.94356 -3.12495 0
M  V30 304 C 28.023 -2.98487 -4.42426 0
M  V30 305 O 28.246 -2.10786 -5.30024 0
M  V30 306 O 27.18 -3.90746 -4.57822 0
M  V30 307 H 31.006 -2.62298 -1.5308 0
M  V30 308 H 28.591 -1.3222 -0.695565 0
M  V30 309 H 30.473 -1.7625 -3.82771 0
M  V30 310 H 29.148 -0.783633 -3.14071 0
M  V30 311 H 28.055 -2.94552 -2.3063 0
M  V30 312 H 29.388 -3.86322 -3.04986 0
M  V30 313 N 31.0401 0.771051 -1.3745 0
M  V30 314 C 32.2861 1.5319 -1.32894 0
M  V30 315 C 32.6191 1.94008 0.0862511 0
M  V30 316 O 31.8941 1.64124 1.04373 0
M  V30 317 C 32.1771 2.79648 -2.26868 0
M  V30 318 C 32.0301 2.45079 -3.77169 0
M  V30 319 C 33.3491 3.81583 -2.19277 0
M  V30 320 H 30.4681 0.555744 -0.484064 0
M  V30 321 H 33.1101 0.884492 -1.68157 0
M  V30 322 H 31.2601 3.34891 -1.96926 0
M  V30 323 H 32.9321 1.95745 -4.1771 0
M  V30 324 H 31.1751 1.77767 -3.95704 0
M  V30 325 H 31.8461 3.35478 -4.38359 0
M  V30 326 H 34.3221 3.35835 -2.45671 0
M  V30 327 H 33.1981 4.67787 -2.87171 0
M  V30 328 H 33.4591 4.25897 -1.18592 0
M  V30 329 N 32.5182 1.22032 0.997298 0
M  V30 330 C 33.4282 1.00271 2.12092 0
M  V30 331 C 34.4442 -0.047621 1.73935 0
M  V30 332 O 35.6202 0.144136 2.00884 0
M  V30 333 C 32.6852 0.578449 3.4184 0
M  V30 334 C 31.7462 1.70189 3.94125 0
M  V30 335 C 30.9792 1.29778 5.17681 0
M  V30 336 O 31.2022 0.174676 5.70132 0
M  V30 337 O 30.1362 2.11261 5.63607 0
M  V30 338 H 33.9622 1.94398 2.3333 0
M  V30 339 H 31.5472 1.00587 1.10465 0
M  V30 340 H 33.4292 0.351998 4.19927 0
M  V30 341 H 32.1042 -0.334019 3.21972 0
M  V30 342 H 31.0112 1.98282 3.1723 0
M  V30 343 H 32.3442 2.59206 4.18417 0
M  V30 344 N 33.9963 -1.19345 1.0293 0
M  V30 345 C 35.2453 -1.88363 0.721256 0
M  V30 346 C 35.5583 -1.80514 -0.753254 0
M  V30 347 O 36.7643 -2.44788 -1.17436 0
M  V30 348 C 35.2203 -3.37872 1.23978 0
M  V30 349 C 34.8283 -3.54278 2.74211 0
M  V30 350 C 36.5723 -4.12365 1.00775 0
M  V30 351 C 34.4793 -4.97682 3.19479 0
M  V30 352 H 33.4093 -0.705484 0.266098 0
M  V30 353 H 36.0603 -1.34928 1.24365 0
M  V30 354 H 34.4423 -3.90707 0.6453 0
M  V30 355 H 35.6163 -3.11769 3.39318 0
M  V30 356 H 33.9313 -2.93174 2.95699 0
M  V30 357 H 36.5283 -5.18119 1.32123 0
M  V30 358 H 36.8713 -4.16263 -0.0554308 0
M  V30 359 H 37.4043 -3.65668 1.56625 0
M  V30 360 H 34.1433 -4.98945 4.25128 0
M  V30 361 H 33.6633 -5.4095 2.591 0
M  V30 362 H 35.3423 -5.66337 3.12845 0
M  V30 363 N 35.4744 -0.807222 -1.35358 0
M  V30 364 C 36.8854 -0.44876 -1.81226 0
M  V30 365 C 37.2364 1.02929 -1.67033 0
M  V30 366 O 36.3614 1.79991 -1.20133 0
M  V30 367 C 36.9564 -0.807774 -3.2903 0
M  V30 368 C 35.5154 -0.501901 -3.73039 0
M  V30 369 C 34.6624 -1.03304 -2.57339 0
M  V30 370 H 37.6134 -0.998808 -1.23327 0
M  V30 371 H 37.6344 -0.10554 -3.80354 0
M  V30 372 H 37.1464 -1.88357 -3.39328 0
M  V30 373 H 35.2474 0.565128 -3.68289 0
M  V30 374 H 35.3604 -1.03497 -4.67787 0
M  V30 375 H 33.7244 -0.455339 -2.50597 0
M  V30 376 H 34.5074 -2.11496 -2.70415 0
M  V30 377 N 36.9525 1.47285 -0.560781 0
M  V30 378 C 38.1985 2.02764 -0.0381184 0
M  V30 379 C 38.5315 1.43384 1.30976 0
M  V30 380 O 37.8065 0.590733 1.85312 0
M  V30 381 C 38.0895 3.60064 0.0511427 0
M  V30 382 C 37.9425 4.2987 -1.32408 0
M  V30 383 C 39.2615 4.33439 0.762795 0
M  V30 384 H 36.3805 0.736841 -0.0153264 0
M  V30 385 H 39.0225 1.75675 -0.723759 0
M  V30 386 H 37.1725 3.83274 0.635065 0
M  V30 387 H 38.8445 4.17989 -1.95148 0
M  V30 388 H 37.0875 3.90085 -1.8978 0
M  V30 389 H 37.7585 5.38478 -1.21431 0
M  V30 390 H 40.2345 4.15243 0.266965 0
M  V30 391 H 39.1105 5.43124 0.794221 0
M  V30 392 H 39.3715 4.02915 1.81966 0
M  V30 393 N 38.4306 0.297415 1.54768 0
M  V30 394 C 39.6766 -0.313376 2.00364 0
M  V30 395 C 40.0096 -1.53815 1.18553 0
M  V30 396 O 39.2846 -1.92739 0.261103 0
M  V30 397 C 39.5676 -0.673525 3.53745 0
M  V30 398 C 39.4206 0.560133 4.46299 0
M  V30 399 C 40.7396 -1.50143 4.13697 0
M  V30 400 H 37.8586 -0.112428 0.728374 0
M  V30 401 H 40.5006 0.4088 1.8555 0
M  V30 402 H 38.6506 -1.28881 3.665 0
M  V30 403 H 40.3226 1.19863 4.45455 0
M  V30 404 H 38.5656 1.19405 4.17043 0
M  V30 405 H 39.2366 0.26405 5.51368 0
M  V30 406 H 41.7126 -0.981588 4.04356 0
M  V30 407 H 40.5886 -1.72221 5.21182 0
M  V30 408 H 40.8496 -2.48952 3.65343 0
M  V30 409 N 39.9087 -1.5758 0.0250728 0
M  V30 410 C 41.1557 -1.91633 -0.654444 0
M  V30 411 C 41.4837 -0.901103 -1.72367 0
M  V30 412 O 40.7387 0.0905647 -1.9549 0
M  V30 413 C 41.0377 -3.32421 -1.31268 0
M  V30 414 C 40.7037 -4.49344 -0.374223 0
M  V30 415 C 39.3657 -4.8106 -0.115911 0
M  V30 416 C 41.7177 -5.20498 0.270432 0
M  V30 417 C 39.0457 -5.8129 0.79493 0
M  V30 418 C 41.3977 -6.21699 1.1693 0
M  V30 419 C 40.0617 -6.51859 1.43655 0
M  V30 420 H 39.3317 -0.701236 -0.239478 0
M  V30 421 H 41.9787 -1.91307 0.0859734 0
M  V30 422 H 40.2837 -3.28989 -2.12775 0
M  V30 423 H 41.9807 -3.56038 -1.84494 0
M  V30 424 H 38.5707 -4.24579 -0.58573 0
M  V30 425 H 42.7547 -4.96229 0.0839194 0
M  V30 426 H 38.0107 -6.03005 1.00973 0
M  V30 427 H 42.1847 -6.75955 1.67504 0
M  V30 428 H 39.8117 -7.2934 2.144 0
M  V30 429 N 41.3868 0.248026 -1.55636 0
M  V30 430 C 42.3188 1.32993 -1.8667 0
M  V30 431 C 43.3318 1.44345 -0.752877 0
M  V30 432 O 44.5208 1.45715 -1.03098 0
M  V30 433 C 41.6208 2.70863 -2.03682 0
M  V30 434 C 40.7938 2.81792 -3.34532 0
M  V30 435 C 39.8528 4.005 -3.41301 0
M  V30 436 O 38.8788 3.9008 -4.14519 0
M  V30 437 N 40.0808 5.13618 -2.70512 0
M  V30 438 H 42.8458 1.06707 -2.8006 0
M  V30 439 H 40.4068 0.438129 -1.55859 0
M  V30 440 H 42.3988 3.48612 -2.05553 0
M  V30 441 H 40.9688 2.89862 -1.17041 0
M  V30 442 H 40.1888 1.90729 -3.44987 0
M  V30 443 H 41.4768 2.86043 -4.20781 0
M  V30 444 H 40.8748 5.24975 -2.10755 0
M  V30 445 H 39.4318 5.89505 -2.78077 0
M  V30 446 N 42.8649 1.48995 0.513639 0
M  V30 447 C 44.0929 1.61531 1.29288 0
M  V30 448 C 44.5079 0.281801 1.86685 0
M  V30 449 O 43.8649 -0.731111 1.67215 0
M  V30 450 C 43.9159 2.67449 2.43215 0
M  V30 451 O 43.6369 3.95626 1.88179 0
M  V30 452 C 45.1379 2.90575 3.34785 0
M  V30 453 H 42.3579 0.544165 0.392588 0
M  V30 454 H 44.9019 1.9494 0.617956 0
M  V30 455 H 43.0569 2.36853 3.0656 0
M  V30 456 H 43.4709 4.53868 2.62876 0
M  V30 457 H 44.9449 3.68449 4.11035 0
M  V30 458 H 45.4219 2.00011 3.91015 0
M  V30 459 H 46.0279 3.22538 2.77218 0
M  V30 460 N 44.343 -0.763751 1.37857 0
M  V30 461 C 45.754 -1.3405 1.29952 0
M  V30 462 C 46.105 -1.96138 -0.0492898 0
M  V30 463 O 45.23 -1.94372 -0.951239 0
M  V30 464 C 45.825 -2.43729 2.35333 0
M  V30 465 C 44.384 -2.97151 2.31037 0
M  V30 466 C 43.531 -1.70438 2.18738 0
M  V30 467 H 46.482 -0.563396 1.48363 0
M  V30 468 H 46.503 -3.23412 2.00462 0
M  V30 469 H 46.015 -1.9851 3.33489 0
M  V30 470 H 44.116 -3.46724 1.3643 0
M  V30 471 H 44.229 -3.52221 3.24772 0
M  V30 472 H 42.593 -1.93673 1.65418 0
M  V30 473 H 43.376 -1.27312 3.18821 0
M  V30 474 N 45.8211 -1.22559 -0.990812 0
M  V30 475 C 47.0701 -1.04553 -1.72486 0
M  V30 476 C 47.3831 0.419349 -1.91052 0
M  V30 477 O 48.5891 0.719121 -2.61803 0
M  V30 478 C 47.0451 -1.82231 -3.10355 0
M  V30 479 C 46.6531 -3.32981 -2.99713 0
M  V30 480 C 48.3971 -1.7268 -3.87791 0
M  V30 481 C 46.3041 -4.03091 -4.32748 0
M  V30 482 H 45.2341 -0.387614 -0.646739 0
M  V30 483 H 47.8851 -1.46429 -1.10593 0
M  V30 484 H 46.2671 -1.33155 -3.72942 0
M  V30 485 H 47.4411 -3.89466 -2.46278 0
M  V30 486 H 45.7561 -3.43231 -2.35758 0
M  V30 487 H 48.3531 -2.22381 -4.86262 0
M  V30 488 H 48.6961 -0.687607 -4.10582 0
M  V30 489 H 49.2291 -2.1931 -3.31885 0
M  V30 490 H 45.9681 -5.07273 -4.15156 0
M  V30 491 H 45.4881 -3.51394 -4.86089 0
M  V30 492 H 47.1671 -4.08804 -5.01486 0
M  V30 493 N 47.2992 1.18797 -1.03562 0
M  V30 494 C 48.7152 1.40671 -0.753917 0
M  V30 495 C 48.9152 1.9043 0.658686 0
M  V30 496 O 47.9712 2.08538 1.42366 0
M  V30 497 C 49.2842 2.41192 -1.79574 0
M  V30 498 C 50.8322 2.54928 -1.81606 0
M  V30 499 C 51.3072 3.58709 -2.84766 0
M  V30 500 N 52.7982 3.66212 -2.83625 0
M  V30 501 C 53.5332 4.46225 -3.60098 0
M  V30 502 N 53.0292 5.29888 -4.46308 0
M  V30 503 N 54.8222 4.40939 -3.4861 0
M  V30 504 H 46.9732 0.848221 -1.94728 0
M  V30 505 H 49.2362 0.435081 -0.842264 0
M  V30 506 H 48.9422 2.11669 -2.80872 0
M  V30 507 H 48.8162 3.40467 -1.62365 0
M  V30 508 H 51.2032 2.83771 -0.809817 0
M  V30 509 H 51.2842 1.55784 -2.02891 0
M  V30 510 H 50.9282 3.30607 -3.85566 0
M  V30 511 H 50.8582 4.57519 -2.60737 0
M  V30 512 H 53.3492 3.06466 -2.21105 0
M  V30 513 H 53.6622 5.88078 -5.01382 0
M  V30 514 H 52.0072 5.29326 -4.50377 0
M  V30 515 H 55.1982 3.74624 -2.80668 0
M  V30 516 H 55.3712 5.03056 -4.08459 0
M  V30 517 N 48.7773 0.814389 1.34928 0
M  V30 518 C 49.7253 0.218424 2.31572 0
M  V30 519 C 50.7193 -0.636128 1.57002 0
M  V30 520 O 51.9253 -0.52842 1.72069 0
M  V30 521 H 48.3003 0.0518799 0.750208 0
M  V30 522 H 50.2713 1.04852 2.79372 0
M  V30 523 C 49.0203 -0.61207 3.4227 0
M  V30 524 H 48.3433 0.0361578 3.99784 0
M  V30 525 H 49.7833 -0.995317 4.12152 0
M  V30 526 C 48.2423 -1.78087 2.85984 0
M  V30 527 O 48.7723 -2.8787 2.80168 0
M  V30 528 N 46.9783 -1.59488 2.42924 0
M  V30 529 H 46.5253 -0.701874 2.47854 0
M  V30 530 H 46.4833 -2.37846 2.05613 0
M  V30 531 N 50.2554 -1.46986 0.568584 0
M  V30 532 C 51.5324 -1.95592 -0.0174074 0
M  V30 533 C 51.9124 -1.51124 -1.47393 0
M  V30 534 O 51.2604 -0.755329 -2.15655 0
M  V30 535 C 51.4704 -3.48719 0.139913 0
M  V30 536 C 52.8184 -4.246 0.000426376 0
M  V30 537 O 53.8424 -3.56135 0.0680316 0
M  V30 538 O 52.7014 -5.46302 -0.146988 0
M  V30 539 H 49.7954 -0.82498 -0.0577599 0
M  V30 540 H 52.3414 -1.57335 0.635909 0
M  V30 541 H 51.1134 -3.73927 1.15301 0
M  V30 542 H 50.7364 -3.93771 -0.550491 0
M  V30 543 N 51.7335 -0.305618 -1.54608 0
M  V30 544 C 52.6635 0.561482 -2.26649 0
M  V30 545 C 53.6445 1.13415 -1.26772 0
M  V30 546 O 54.8295 1.16262 -1.55553 0
M  V30 547 C 51.9595 1.73122 -3.01075 0
M  V30 548 C 50.9135 1.2887 -4.08138 0
M  V30 549 C 50.2395 2.54396 -4.70305 0
M  V30 550 C 51.5395 0.416578 -5.20636 0
M  V30 551 H 53.2335 -0.0393902 -2.99374 0
M  V30 552 H 50.7795 -0.020385 -1.43986 0
M  V30 553 H 52.7325 2.34396 -3.50195 0
M  V30 554 H 51.4565 2.3584 -2.25936 0
M  V30 555 H 50.1155 0.698991 -3.59875 0
M  V30 556 H 49.7635 3.15439 -3.918 0
M  V30 557 H 49.4635 2.25486 -5.42614 0
M  V30 558 H 50.9875 3.16464 -5.2219 0
M  V30 559 H 52.4015 0.935116 -5.65622 0
M  V30 560 H 50.7985 0.221046 -5.99693 0
M  V30 561 H 51.8685 -0.557162 -4.81688 0
M  V30 562 N 53.2116 1.57565 -0.0334293 0
M  V30 563 C 54.4606 1.91155 0.643639 0
M  V30 564 C 54.7736 0.91192 1.73042 0
M  V30 565 O 55.9796 1.13923 2.46442 0
M  V30 566 C 54.4356 3.39443 1.1961 0
M  V30 567 C 54.0436 4.47774 0.142381 0
M  V30 568 C 55.7876 3.82094 1.84944 0
M  V30 569 C 53.6946 5.87162 0.706727 0
M  V30 570 H 52.6246 0.713368 0.244176 0
M  V30 571 H 55.2756 1.8323 -0.0994323 0
M  V30 572 H 53.6576 3.42313 1.99092 0
M  V30 573 H 54.8316 4.56469 -0.630296 0
M  V30 574 H 53.1466 4.14352 -0.412446 0
M  V30 575 H 55.7436 4.83591 2.2813 0
M  V30 576 H 56.0866 3.17386 2.69392 0
M  V30 577 H 56.6196 3.81665 1.12145 0
M  V30 578 H 53.3586 6.55424 -0.0997178 0
M  V30 579 H 52.8786 5.82064 1.44779 0
M  V30 580 H 54.5576 6.35866 1.19514 0
M  V30 581 N 54.6897 -0.239769 1.55765 0
M  V30 582 C 55.6217 -1.32001 1.87372 0
M  V30 583 C 56.6347 -1.43944 0.760522 0
M  V30 584 O 57.8237 -1.45167 1.0387 0
M  V30 585 C 54.9237 -2.69779 2.05115 0
M  V30 586 C 54.0967 -2.80014 3.36022 0
M  V30 587 C 53.1557 -3.98684 3.4342 0
M  V30 588 O 52.1817 -3.87877 4.16582 0
M  V30 589 N 53.3837 -5.12176 2.73232 0
M  V30 590 H 56.1487 -1.0522 2.80622 0
M  V30 591 H 53.7097 -0.429857 1.56089 0
M  V30 592 H 55.7017 -3.47517 2.07399 0
M  V30 593 H 54.2717 -2.89237 1.18577 0
M  V30 594 H 53.4917 -1.88896 3.45994 0
M  V30 595 H 54.7797 -2.83808 4.22292 0
M  V30 596 H 54.1777 -5.2385 2.13536 0
M  V30 597 H 52.7347 -5.88022 2.81199 0
M  V30 598 N 56.1678 -1.49265 -0.50573 0
M  V30 599 C 57.3928 -1.62478 -1.28902 0
M  V30 600 C 57.8178 -0.294332 -1.85783 0
M  V30 601 O 57.1758 0.737412 -1.65626 0
M  V30 602 C 57.2238 -2.69268 -2.39848 0
M  V30 603 O 56.3278 -2.28113 -3.43567 0
M  V30 604 H 55.6688 -0.54399 -0.380751 0
M  V30 605 H 58.1988 -1.95421 -0.605952 0
M  V30 606 H 58.2088 -2.91291 -2.85681 0
M  V30 607 H 56.8838 -3.65846 -1.97812 0
M  V30 608 H 55.4608 -2.16401 -3.03685 0
M  V30 609 N 57.6459 0.756429 -1.3826 0
M  V30 610 C 58.8919 1.51772 -1.34511 0
M  V30 611 C 59.2249 1.94089 0.0656691 0
M  V30 612 O 58.4999 1.65221 1.02626 0
M  V30 613 C 58.7829 2.77226 -2.29821 0
M  V30 614 C 58.6359 2.41065 -3.79747 0
M  V30 615 C 59.9549 3.79236 -2.23312 0
M  V30 616 H 57.0739 0.550578 -0.489931 0
M  V30 617 H 59.7159 0.866607 -1.69086 0
M  V30 618 H 57.8659 3.32784 -2.00467 0
M  V30 619 H 59.5379 1.91303 -4.19763 0
M  V30 620 H 57.7809 1.7356 -3.97567 0
M  V30 621 H 58.4519 3.3081 -4.41892 0
M  V30 622 H 60.9279 3.3321 -2.49219 0
M  V30 623 H 59.8039 4.64714 -2.92116 0
M  V30 624 H 60.0649 4.24615 -1.23102 0
M  V30 625 N 59.124 1.23083 0.984299 0
M  V30 626 C 60.354 1.08556 1.75781 0
M  V30 627 C 60.762 -0.366171 1.85623 0
M  V30 628 O 60.105 -1.26524 1.33182 0
M  V30 629 C 60.167 1.63208 3.20318 0
M  V30 630 C 59.831 3.11922 3.33997 0
M  V30 631 C 60.828 4.09259 3.2063 0
M  V30 632 C 58.513 3.51552 3.58771 0
M  V30 633 C 60.507 5.4421 3.31835 0
M  V30 634 C 58.194 4.86649 3.69616 0
M  V30 635 C 59.192 5.82787 3.56157 0
M  V30 636 O 58.88 7.15431 3.66626 0
M  V30 637 H 58.612 0.380713 0.5586 0
M  V30 638 H 61.166 1.63321 1.2456 0
M  V30 639 H 59.396 1.0286 3.72769 0
M  V30 640 H 61.085 1.44216 3.79416 0
M  V30 641 H 61.851 3.79984 3.01392 0
M  V30 642 H 57.73 2.77239 3.6832 0
M  V30 643 H 61.274 6.1923 3.21247 0
M  V30 644 H 57.171 5.15601 3.88363 0
M  V30 645 H 57.939 7.23127 3.83445 0
M  V30 646 N 60.6021 -1.18246 1.0419 0
M  V30 647 C 61.8301 -1.92195 0.766072 0
M  V30 648 C 62.2451 -1.76247 -0.676933 0
M  V30 649 O 61.6021 -1.09293 -1.46155 0
M  V30 650 C 61.6531 -3.43568 1.12442 0
M  V30 651 O 61.3741 -3.59015 2.51078 0
M  V30 652 C 62.8751 -4.34613 0.873275 0
M  V30 653 H 60.0951 -0.610114 0.279288 0
M  V30 654 H 62.6391 -1.50007 1.38989 0
M  V30 655 H 60.7941 -3.8354 0.545542 0
M  V30 656 H 61.2081 -4.5273 2.64831 0
M  V30 657 H 62.6821 -5.39374 1.17385 0
M  V30 658 H 63.1591 -4.38781 -0.191909 0
M  V30 659 H 63.7651 -4.00341 1.43551 0
M  V30 660 N 62.0802 -0.821533 -1.34494 0
M  V30 661 C 63.0282 -0.230702 -2.31453 0
M  V30 662 C 64.0222 0.627793 -1.57338 0
M  V30 663 O 65.2282 0.519288 -1.72347 0
M  V30 664 H 61.6032 -0.0558577 -0.749923 0
M  V30 665 H 63.5742 -1.06332 -2.78812 0
M  V30 666 C 62.3232 0.59391 -3.4259 0
M  V30 667 H 61.6462 -0.0573588 -3.99759 0
M  V30 668 H 63.0862 0.973446 -4.12674 0
M  V30 669 C 61.5452 1.76568 -2.86924 0
M  V30 670 O 62.0752 2.8638 -2.81691 0
M  V30 671 N 60.2812 1.58198 -2.43766 0
M  V30 672 H 59.8282 0.68872 -2.48222 0
M  V30 673 H 59.7862 2.36752 -2.06871 0
M  V30 674 N 63.5583 1.46682 -0.576371 0
M  V30 675 C 64.4913 2.27243 0.208731 0
M  V30 676 C 65.4693 1.35238 0.902746 0
M  V30 677 O 66.6533 1.64641 0.917904 0
M  V30 678 C 63.7803 3.12802 1.29896 0
M  V30 679 C 62.8263 4.20524 0.711457 0
M  V30 680 S 63.6593 5.33548 -0.456781 0
M  V30 681 C 64.8153 6.22673 0.634798 0
M  V30 682 H 65.0483 2.93484 -0.474838 0
M  V30 683 H 62.5813 1.50069 -0.363118 0
M  V30 684 H 64.5393 3.62661 1.92321 0
M  V30 685 H 63.2003 2.45887 1.95444 0
M  V30 686 H 62.3933 4.80191 1.53076 0
M  V30 687 H 61.9953 3.73645 0.162999 0
M  V30 688 H 64.2873 6.60181 1.52209 0
M  V30 689 H 65.2303 7.0806 0.0750311 0
M  V30 690 H 65.6383 5.56684 0.936092 0
M  V30 691 N 65.0364 0.313813 1.54444 0
M  V30 692 C 66.2614 -0.296681 2.05267 0
M  V30 693 C 66.6864 -1.45757 1.18897 0
M  V30 694 O 66.0444 -1.80239 0.195886 0
M  V30 695 C 66.0924 -0.71831 3.53373 0
M  V30 696 O 65.1964 -1.82175 3.69981 0
M  V30 697 H 64.5374 -0.0554061 0.661684 0
M  V30 698 H 67.0674 0.459387 1.99376 0
M  V30 699 H 67.0774 -1.00364 3.95463 0
M  V30 700 H 65.7524 0.130821 4.15694 0
M  V30 701 H 64.3294 -1.53598 3.39797 0
M  V30 702 N 66.5145 -1.57545 0.0417849 0
M  V30 703 C 67.4615 -2.10977 -0.935805 0
M  V30 704 C 68.4315 -1.01486 -1.31491 0
M  V30 705 O 69.6165 -1.2898 -1.40602 0
M  V30 706 C 66.7565 -2.65169 -2.2086 0
M  V30 707 C 65.8695 -3.88714 -1.88482 0
M  V30 708 C 65.0045 -4.31254 -3.1015 0
M  V30 709 C 64.0435 -5.47524 -2.7365 0
M  V30 710 N 63.1805 -5.85162 -3.87982 0
M  V30 711 H 68.0205 -2.94218 -0.473249 0
M  V30 712 H 65.5575 -1.45415 -0.221981 0
M  V30 713 H 67.5155 -2.94685 -2.95325 0
M  V30 714 H 66.1455 -1.8474 -2.64709 0
M  V30 715 H 65.1975 -3.65849 -1.04205 0
M  V30 716 H 66.5095 -4.73245 -1.57608 0
M  V30 717 H 65.6635 -4.62273 -3.92923 0
M  V30 718 H 64.4025 -3.45516 -3.44195 0
M  V30 719 H 63.4075 -5.16187 -1.89291 0
M  V30 720 H 64.6325 -6.34971 -2.40807 0
M  V30 721 H 62.5785 -5.02377 -4.21846 0
M  V30 722 H 62.4955 -6.64362 -3.60775 0
M  V30 723 H 63.7635 -6.20791 -4.71422 0
M  V30 724 N 67.9926 0.231505 -1.5589 0
M  V30 725 C 68.9406 1.30649 -1.92441 0
M  V30 726 C 69.9346 1.49037 -0.805254 0
M  V30 727 O 71.1406 1.50329 -0.990007 0
M  V30 728 H 67.5156 0.437812 -0.611412 0
M  V30 729 H 69.4866 0.970973 -2.82161 0
M  V30 730 C 68.2356 2.65179 -2.24889 0
M  V30 731 H 67.5586 2.51835 -3.10514 0
M  V30 732 H 68.9986 3.39234 -2.54355 0
M  V30 733 C 67.4576 3.19439 -1.07054 0
M  V30 734 O 67.9876 4.00371 -0.326499 0
M  V30 735 N 66.1936 2.77675 -0.85703 0
M  V30 736 H 65.7406 2.11969 -1.46379 0
M  V30 737 H 65.6986 3.14321 -0.0703223 0
M  V30 738 N 69.4707 1.49531 0.497807 0
M  V30 739 C 70.8867 1.36365 0.829266 0
M  V30 740 C 71.0867 0.399184 1.97506 0
M  V30 741 O 70.1427 -0.167977 2.51941 0
M  V30 742 C 71.4557 2.77153 1.16647 0
M  V30 743 C 73.0037 2.85877 1.27449 0
M  V30 744 C 73.4787 4.2744 1.64497 0
M  V30 745 N 74.9697 4.30265 1.7154 0
M  V30 746 C 75.7047 5.3677 2.01656 0
M  V30 747 N 75.2007 6.53516 2.29976 0
M  V30 748 N 76.9937 5.24189 2.02934 0
M  V30 749 H 69.1447 2.10831 -0.257703 0
M  V30 750 H 71.4077 0.946534 -0.0527091 0
M  V30 751 H 71.1137 3.49442 0.397872 0
M  V30 752 H 70.9877 3.12722 2.10915 0
M  V30 753 H 73.3747 2.13824 2.0338 0
M  V30 754 H 73.4557 2.53887 0.312244 0
M  V30 755 H 73.0997 5.00021 0.891151 0
M  V30 756 H 73.0297 4.56896 2.61827 0
M  V30 757 H 75.5207 3.4607 1.51802 0
M  V30 758 H 75.8337 7.30506 2.52153 0
M  V30 759 H 74.1787 6.56737 2.27425 0
M  V30 760 H 77.3697 4.31988 1.80289 0
M  V30 761 H 77.5427 6.07286 2.26071 0
M  V30 762 N 70.9488 -0.749086 1.3866 0
M  V30 763 C 72.3648 -1.05276 1.19955 0
M  V30 764 C 72.5648 -2.01435 0.05134 0
M  V30 765 O 71.6208 -2.45232 -0.60147 0
M  V30 766 C 72.9338 -1.62853 2.52783 0
M  V30 767 C 74.4818 -1.75002 2.59506 0
M  V30 768 C 74.9568 -2.35991 3.92521 0
M  V30 769 N 76.4478 -2.43416 3.94085 0
M  V30 770 C 77.1828 -2.91511 4.9377 0
M  V30 771 N 76.6788 -3.39608 6.03853 0
M  V30 772 N 78.4718 -2.90592 4.81157 0
M  V30 773 H 70.6228 -0.111066 2.12109 0
M  V30 774 H 72.8858 -0.111901 0.941373 0
M  V30 775 H 72.5918 -0.99664 3.37283 0
M  V30 776 H 72.4658 -2.61854 2.715 0
M  V30 777 H 74.8528 -2.37317 1.75398 0
M  V30 778 H 74.9338 -0.74693 2.44652 0
M  V30 779 H 74.5778 -1.74308 4.77053 0
M  V30 780 H 74.5078 -3.3695 4.04688 0
M  V30 781 H 76.9988 -2.09405 3.14576 0
M  V30 782 H 77.3118 -3.74775 6.75843 0
M  V30 783 H 75.6568 -3.37653 6.07466 0
M  V30 784 H 78.8478 -2.52332 3.94267 0
M  V30 785 H 79.0208 -3.27762 5.58996 0
M  V30 786 N 72.4269 -1.23603 -0.977757 0
M  V30 787 C 73.3769 -0.986664 -2.05545 0
M  V30 788 C 74.3609 0.0683009 -1.60755 0
M  V30 789 O 75.5529 -0.144162 -1.76412 0
M  V30 790 C 72.6819 -0.582623 -3.3832 0
M  V30 791 C 71.7679 -1.67313 -3.89701 0
M  V30 792 N 72.1589 -2.90394 -4.14132 0
M  V30 793 C 70.4569 -1.54832 -4.18262 0
M  V30 794 C 71.1579 -3.61017 -4.56116 0
M  V30 795 N 70.1339 -2.8854 -4.60701 0
M  V30 796 H 73.9359 -1.92139 -2.22396 0
M  V30 797 H 71.4499 -1.1358 -1.16074 0
M  V30 798 H 73.4469 -0.38524 -4.15116 0
M  V30 799 H 72.1069 0.34503 -3.22862 0
M  V30 800 H 73.1179 -3.26673 -4.01877 0
M  V30 801 H 69.7949 -0.687969 -4.11793 0
M  V30 802 H 71.1849 -4.66544 -4.83514 0
M  V30 803 N 73.905 1.17692 -1.04816 0
M  V30 804 C 75.316 1.69501 -0.782698 0
M  V30 805 C 75.667 1.83456 0.695577 0
M  V30 806 O 74.792 1.51942 1.54086 0
M  V30 807 C 75.387 3.07874 -1.41419 0
M  V30 808 C 73.946 3.56864 -1.19686 0
M  V30 809 C 73.093 2.3322 -1.50012 0
M  V30 810 H 76.044 1.02262 -1.2136 0
M  V30 811 H 76.065 3.71528 -0.821428 0
M  V30 812 H 75.577 2.97685 -2.49009 0
M  V30 813 H 73.678 3.72337 -0.140043 0
M  V30 814 H 73.791 4.39851 -1.89916 0
M  V30 815 H 72.155 2.37501 -0.920071 0
M  V30 816 H 72.938 2.25644 -2.58727 0
M  V30 817 N 75.3831 0.828654 1.34056 0
M  V30 818 C 76.6131 0.431993 2.02033 0
M  V30 819 C 77.0211 -0.96844 1.62536 0
M  V30 820 O 76.3641 -1.6391 0.829408 0
M  V30 821 C 76.4261 0.461224 3.56529 0
M  V30 822 C 76.0901 1.81599 4.1937 0
M  V30 823 C 77.0871 2.7777 4.39477 0
M  V30 824 C 74.7721 2.10604 4.56017 0
M  V30 825 C 76.7661 4.01115 4.95364 0
M  V30 826 C 74.4531 3.34207 5.11614 0
M  V30 827 C 75.4511 4.2928 5.31232 0
M  V30 828 O 75.1391 5.50699 5.8565 0
M  V30 829 H 74.8711 0.170943 0.654029 0
M  V30 830 H 77.4251 1.11988 1.72185 0
M  V30 831 H 75.6551 -0.283388 3.8566 0
M  V30 832 H 77.3441 0.0838149 4.05813 0
M  V30 833 H 78.1101 2.56659 4.11523 0
M  V30 834 H 73.9891 1.37402 4.40047 0
M  V30 835 H 77.5331 4.75333 5.10592 0
M  V30 836 H 73.4301 3.55179 5.38997 0
M  V30 837 H 74.1981 5.52298 6.04077 0
M  V30 838 N 76.8612 -1.46375 0.584142 0
M  V30 839 C 77.8242 -2.28784 -0.138108 0
M  V30 840 C 78.8242 -1.38471 -0.817462 0
M  V30 841 O 80.0142 -1.60833 -0.669199 0
M  V30 842 C 77.1462 -3.18892 -1.20503 0
M  V30 843 H 78.3392 -2.94117 0.586127 0
M  V30 844 H 75.8922 -1.52509 0.342171 0
M  V30 845 H 76.6272 -2.58309 -1.96079 0
M  V30 846 H 76.4122 -3.85388 -0.722384 0
M  V30 847 H 77.9022 -3.80914 -1.71155 0
M  V30 848 N 78.3393 -0.321999 -1.54275 0
M  V30 849 C 79.5853 0.281461 -2.00837 0
M  V30 850 C 79.9183 1.51909 -1.20985 0
M  V30 851 O 79.1933 1.923 -0.291733 0
M  V30 852 C 79.4763 0.617162 -3.54772 0
M  V30 853 C 79.3293 -0.631064 -4.45351 0
M  V30 854 C 80.6483 1.43542 -4.16033 0
M  V30 855 H 77.7673 0.100826 -0.730071 0
M  V30 856 H 80.4093 -0.438268 -1.84876 0
M  V30 857 H 78.5593 1.23034 -3.68504 0
M  V30 858 H 80.2313 -1.26934 -4.43492 0
M  V30 859 H 78.4743 -1.26025 -4.15091 0
M  V30 860 H 79.1453 -0.351735 -5.50878 0
M  V30 861 H 81.6213 0.917134 -4.05867 0
M  V30 862 H 80.4973 1.63907 -5.23856 0
M  V30 863 H 80.7583 2.43108 -3.69257 0
M  V30 864 N 79.8174 1.5752 -0.0501392 0
M  V30 865 C 80.7644 2.1147 0.924603 0
M  V30 866 C 81.7344 1.02182 1.30951 0
M  V30 867 O 82.9194 1.29723 1.39916 0
M  V30 868 C 80.0594 2.66337 2.19451 0
M  V30 869 C 79.1724 3.89708 1.86418 0
M  V30 870 C 78.3074 4.32893 3.07859 0
M  V30 871 C 77.3464 5.48967 2.70742 0
M  V30 872 N 76.4834 5.87211 3.84874 0
M  V30 873 H 81.3234 2.94465 0.457639 0
M  V30 874 H 78.8604 1.45531 0.214266 0
M  V30 875 H 80.8184 2.96247 2.93758 0
M  V30 876 H 79.4484 1.86141 2.63726 0
M  V30 877 H 78.5004 3.66396 1.02264 0
M  V30 878 H 79.8124 4.74074 1.55096 0
M  V30 879 H 78.9664 4.6435 3.90466 0
M  V30 880 H 77.7054 3.47336 3.42358 0
M  V30 881 H 76.7104 5.17183 1.86551 0
M  V30 882 H 77.9354 6.3624 2.37436 0
M  V30 883 H 75.8814 5.04607 4.19175 0
M  V30 884 H 75.7984 6.66266 3.57247 0
M  V30 885 H 77.0664 6.23282 4.68123 0
M  V30 886 N 81.2955 -0.223234 1.56011 0
M  V30 887 C 82.2255 -1.27988 1.95298 0
M  V30 888 C 83.2065 -1.48976 0.820979 0
M  V30 889 O 84.3915 -1.61188 1.08315 0
M  V30 890 C 81.5215 -2.63 2.26822 0
M  V30 891 C 80.4755 -2.56671 3.42497 0
M  V30 892 C 79.8015 -3.95697 3.59622 0
M  V30 893 C 81.1015 -2.11601 4.77517 0
M  V30 894 H 82.7955 -0.953525 2.8381 0
M  V30 895 H 80.3415 -0.457244 1.36548 0
M  V30 896 H 82.2945 -3.37077 2.52898 0
M  V30 897 H 81.0185 -2.9732 1.35161 0
M  V30 898 H 79.6775 -1.85051 3.16467 0
M  V30 899 H 79.3255 -4.27322 2.6534 0
M  V30 900 H 79.0255 -3.92345 4.37424 0
M  V30 901 H 80.5495 -4.71438 3.88044 0
M  V30 902 H 81.9635 -2.7542 5.02809 0
M  V30 903 H 80.3605 -2.19311 5.5859 0
M  V30 904 H 81.4305 -1.06824 4.72987 0
M  V30 905 N 82.7736 -1.49793 -0.48987 0
M  V30 906 C 84.0216 -1.59525 -1.24081 0
M  V30 907 C 84.3426 -0.288953 -1.92847 0
M  V30 908 O 83.6126 0.692436 -1.83254 0
M  V30 909 H 82.1926 -0.587796 -0.460983 0
M  V30 910 H 84.8546 -1.86477 -0.566778 0
M  V30 911 H 83.9506 -2.39696 -1.99881 0
M  V30 912 N 84.2517 0.741722 -1.39055 0
M  V30 913 C 85.2147 1.83733 -1.37021 0
M  V30 914 C 86.2147 1.58542 -0.268534 0
M  V30 915 O 87.4047 1.66067 -0.526076 0
M  V30 916 C 84.5367 3.2141 -1.13617 0
M  V30 917 H 85.7297 1.86941 -2.34506 0
M  V30 918 H 83.2827 0.944676 -1.24521 0
M  V30 919 H 84.0177 3.23865 -0.167863 0
M  V30 920 H 83.8027 3.4109 -1.93391 0
M  V30 921 H 85.2927 4.01477 -1.14918 0
M  V30 922 N 85.7298 1.2412 0.971189 0
M  V30 923 C 86.9778 1.07668 1.71032 0
M  V30 924 C 87.2988 -0.385797 1.91146 0
M  V30 925 O 86.5688 -1.27569 1.4867 0
M  V30 926 H 85.1488 0.395429 0.633755 0
M  V30 927 H 87.8108 1.55984 1.16855 0
M  V30 928 H 86.9068 1.57195 2.69622 0
M  V30 929 N 87.2079 -1.17134 1.05439 0
M  V30 930 C 88.4379 -1.91094 0.785274 0
M  V30 931 C 88.8459 -1.77198 -0.663142 0
M  V30 932 O 88.1889 -1.10835 -1.46497 0
M  V30 933 C 88.2509 -3.42594 1.08949 0
M  V30 934 C 87.9149 -3.80274 2.53458 0
M  V30 935 C 88.9119 -3.82912 3.51673 0
M  V30 936 C 86.5969 -4.11162 2.88532 0
M  V30 937 C 88.5909 -4.15913 4.83006 0
M  V30 938 C 86.2779 -4.43831 4.20068 0
M  V30 939 C 87.2759 -4.46185 5.17115 0
M  V30 940 O 86.9639 -4.78083 6.46291 0
M  V30 941 H 86.6959 -0.613073 0.284811 0
M  V30 942 H 89.2499 -1.49461 1.40893 0
M  V30 943 H 87.4799 -3.84534 0.408741 0
M  V30 944 H 89.1689 -3.97817 0.805991 0
M  V30 945 H 89.9349 -3.5917 3.25917 0
M  V30 946 H 85.8139 -4.085 2.13656 0
M  V30 947 H 89.3579 -4.17665 5.5875 0
M  V30 948 H 85.2549 -4.67037 4.45586 0
M  V30 949 H 86.0229 -4.9593 6.51149 0
M  V30 950 N 88.686 -0.835752 -1.33615 0
M  V30 951 C 89.596 -0.269088 -2.33052 0
M  V30 952 C 90.612 0.603251 -1.63208 0
M  V30 953 O 91.788 0.508112 -1.94885 0
M  V30 954 C 88.853 0.549091 -3.42324 0
M  V30 955 C 87.914 -0.347156 -4.27894 0
M  V30 956 C 87.147 0.43207 -5.31948 0
M  V30 957 O 87.37 1.66409 -5.45586 0
M  V30 958 O 86.304 -0.192298 -6.01593 0
M  V30 959 H 90.13 -1.09243 -2.83372 0
M  V30 960 H 87.715 -0.598198 -1.36901 0
M  V30 961 H 89.597 1.01414 -4.09015 0
M  V30 962 H 88.272 1.34955 -2.94226 0
M  V30 963 H 87.179 -0.859979 -3.64081 0
M  V30 964 H 88.512 -1.1123 -4.79467 0
M  V30 965 N 90.1641 1.46063 -0.591896 0
M  V30 966 C 91.3921 2.06717 -0.0868936 0
M  V30 967 C 91.8071 1.43916 1.22203 0
M  V30 968 O 91.1641 0.547698 1.74088 0
M  V30 969 C 91.2151 3.6142 0.0758725 0
M  V30 970 O 90.9361 4.21874 -1.18126 0
M  V30 971 C 92.4371 4.39025 0.61416 0
M  V30 972 H 89.6571 0.668162 -0.0616518 0
M  V30 973 H 92.2011 1.8755 -0.815175 0
M  V30 974 H 90.3561 3.79983 0.754413 0
M  V30 975 H 90.7701 5.14861 -1.00092 0
M  V30 976 H 92.2441 5.4783 0.677193 0
M  V30 977 H 92.7211 4.07708 1.63312 0
M  V30 978 H 93.3271 4.2529 -0.0298142 0
M  V30 979 N 91.6422 0.330177 1.54103 0
M  V30 980 C 92.8672 -0.274893 2.0557 0
M  V30 981 C 93.2922 -1.44487 1.20437 0
M  V30 982 O 92.6502 -1.80021 0.214991 0
M  V30 983 C 92.6982 -0.68079 3.54115 0
M  V30 984 O 91.8022 -1.7824 3.71893 0
M  V30 985 H 91.1432 -0.0483849 0.662235 0
M  V30 986 H 93.6732 0.480508 1.98878 0
M  V30 987 H 93.6832 -0.961635 3.96505 0
M  V30 988 H 92.3582 0.174903 4.15532 0
M  V30 989 H 90.9352 -1.49985 3.41407 0
M  V30 990 N 93.1203 -1.57491 0.0584922 0
M  V30 991 C 94.0833 -2.1085 -0.898617 0
M  V30 992 C 95.0833 -1.02964 -1.23511 0
M  V30 993 O 96.2733 -1.29007 -1.17059 0
M  V30 994 C 93.4053 -2.59881 -2.20623 0
M  V30 995 H 94.5983 -2.96715 -0.435936 0
M  V30 996 H 92.1513 -1.55141 -0.190023 0
M  V30 997 H 92.8863 -1.77431 -2.71457 0
M  V30 998 H 92.6713 -3.38727 -1.97501 0
M  V30 999 H 94.1613 -3.01285 -2.89166 0
M  V30 1000 N 94.5984 0.214957 -1.56127 0
M  V30 1001 C 95.5084 1.28727 -1.96129 0
M  V30 1002 C 96.5244 1.50916 -0.866044 0
M  V30 1003 O 97.7004 1.63918 -1.17016 0
M  V30 1004 C 94.7654 2.61569 -2.27558 0
M  V30 1005 C 93.8264 2.47625 -3.50685 0
M  V30 1006 C 93.0594 3.74132 -3.80606 0
M  V30 1007 O 93.2824 4.77438 -3.12104 0
M  V30 1008 O 92.2164 3.70849 -4.74083 0
M  V30 1009 H 96.0424 0.977855 -2.87527 0
M  V30 1010 H 93.6274 0.418358 -1.43423 0
M  V30 1011 H 95.5094 3.40012 -2.48938 0
M  V30 1012 H 94.1844 2.92178 -1.39332 0
M  V30 1013 H 93.0914 1.67361 -3.34576 0
M  V30 1014 H 94.4244 2.21954 -4.39315 0
M  V30 1015 N 96.0765 1.50051 0.48192 0
M  V30 1016 C 97.3015 1.64508 1.26301 0
M  V30 1017 C 97.7265 0.323851 1.85291 0
M  V30 1018 O 97.0845 -0.710969 1.66778 0
M  V30 1019 C 97.1325 2.7305 2.35533 0
M  V30 1020 O 96.2365 2.3355 3.39895 0
M  V30 1021 H 95.5775 0.549978 0.372048 0
M  V30 1022 H 98.1075 1.9636 0.574786 0
M  V30 1023 H 98.1175 2.95799 2.8101 0
M  V30 1024 H 96.7925 3.68946 1.91967 0
M  V30 1025 H 95.3695 2.21205 3.00204 0
M  V30 1026 N 97.5546 -0.734337 1.39446 0
M  V30 1027 C 98.8006 -1.49505 1.37913 0
M  V30 1028 C 99.1556 -1.92384 -0.0248416 0
M  V30 1029 O 98.4486 -1.6395 -0.991506 0
M  V30 1030 C 98.6426 -2.74711 2.28623 0
M  V30 1031 C 98.4716 -2.44075 3.777 0
M  V30 1032 C 97.2416 -2.36338 4.46623 0
M  V30 1033 C 99.4396 -2.09574 4.69663 0
M  V30 1034 N 97.4216 -1.9818 5.81032 0
M  V30 1035 C 98.7926 -1.81865 5.92727 0
M  V30 1036 C 100.848 -1.96048 4.57678 0
M  V30 1037 C 99.5506 -1.41992 7.05146 0
M  V30 1038 C 101.577 -1.57579 5.7002 0
M  V30 1039 C 100.939 -1.30754 6.92158 0
M  V30 1040 H 97.0376 -0.545896 0.55993 0
M  V30 1041 H 99.6216 -0.853373 1.75002 0
M  V30 1042 H 97.7926 -3.36657 1.93692 0
M  V30 1043 H 99.5246 -3.40916 2.18078 0
M  V30 1044 H 96.2796 -2.53456 4.00071 0
M  V30 1045 H 96.7036 -1.81691 6.52163 0
M  V30 1046 H 101.346 -2.15455 3.63784 0
M  V30 1047 H 99.0636 -1.21327 7.9894 0
M  V30 1048 H 102.65 -1.47718 5.62735 0
M  V30 1049 H 101.53 -1.01432 7.77612 0
M  V30 1050 N 99.0327 -1.24633 -0.964593 0
M  V30 1051 C 100.281 -1.08573 -1.70459 0
M  V30 1052 C 100.602 0.375655 -1.91347 0
M  V30 1053 O 99.8717 1.26779 -1.49345 0
M  V30 1054 H 98.4517 -0.398784 -0.631649 0
M  V30 1055 H 101.114 -1.56601 -1.16026 0
M  V30 1056 H 100.21 -1.58623 -2.68785 0
M  V30 1057 N 100.511 1.16574 -1.06058 0
M  V30 1058 C 101.739 1.90952 -0.796552 0
M  V30 1059 C 102.154 1.77302 0.648808 0
M  V30 1060 O 101.511 1.11605 1.44397 0
M  V30 1061 C 101.562 3.41736 -1.17894 0
M  V30 1062 O 101.283 3.54975 -2.56758 0
M  V30 1063 C 102.784 4.33169 -0.942308 0
M  V30 1064 H 100.004 0.605594 -0.288959 0
M  V30 1065 H 102.548 1.47777 -1.41358 0
M  V30 1066 H 100.703 3.82623 -0.606491 0
M  V30 1067 H 101.117 4.4846 -2.72 0
M  V30 1068 H 102.591 5.37439 -1.25952 0
M  V30 1069 H 103.068 4.3903 0.122078 0
M  V30 1070 H 103.674 3.98007 -1.49902 0
M  V30 1071 N 101.989 0.842826 1.3317 0
M  V30 1072 C 103.237 0.439577 1.97262 0
M  V30 1073 C 103.558 -1.00548 1.67078 0
M  V30 1074 O 102.828 -1.70098 0.971779 0
M  V30 1075 H 101.408 0.159558 0.72976 0
M  V30 1076 H 104.07 1.07665 1.62463 0
M  V30 1077 H 103.166 0.574886 3.0676 0
M  V30 1078 N 103.467 -1.45747 0.599634 0
M  V30 1079 C 104.883 -1.57424 0.26264 0
M  V30 1080 C 105.083 -1.59222 -1.23493 0
M  V30 1081 O 104.139 -1.51825 -2.01756 0
M  V30 1082 C 105.452 -2.86061 0.926795 0
M  V30 1083 C 107 -2.99722 0.901967 0
M  V30 1084 C 107.475 -4.31119 1.54598 0
M  V30 1085 N 108.966 -4.37858 1.5111 0
M  V30 1086 C 109.701 -5.3818 1.97863 0
M  V30 1087 N 109.197 -6.45083 2.52666 0
M  V30 1088 N 110.99 -5.29487 1.88679 0
M  V30 1089 H 103.141 -1.42823 1.57211 0
M  V30 1090 H 105.404 -0.68235 0.658105 0
M  V30 1091 H 105.11 -2.90605 1.98095 0
M  V30 1092 H 104.984 -3.74563 0.445238 0
M  V30 1093 H 107.371 -2.9475 -0.143617 0
M  V30 1094 H 107.452 -2.12652 1.42171 0
M  V30 1095 H 107.096 -4.36849 2.59085 0
M  V30 1096 H 107.026 -5.16992 1.00132 0
M  V30 1097 H 109.517 -3.61209 1.11068 0
M  V30 1098 H 109.83 -7.17869 2.86155 0
M  V30 1099 H 108.175 -6.45856 2.56701 0
M  V30 1100 H 111.366 -4.44877 1.4561 0
M  V30 1101 H 111.539 -6.07524 2.25429 0
M  V30 1102 N 104.945 -0.338344 -1.53925 0
M  V30 1103 C 105.908 0.508299 -2.23493 0
M  V30 1104 C 106.908 1.03175 -1.23335 0
M  V30 1105 O 108.098 0.921826 -1.47811 0
M  V30 1106 C 105.23 1.70754 -2.95052 0
M  V30 1107 H 106.423 -0.100058 -2.99733 0
M  V30 1108 H 103.976 -0.0896198 -1.56043 0
M  V30 1109 H 104.711 2.35474 -2.22986 0
M  V30 1110 H 104.496 1.33946 -3.68512 0
M  V30 1111 H 105.986 2.30818 -3.48013 0
M  V30 1112 N 106.423 1.57458 -0.0668435 0
M  V30 1113 C 107.669 1.93587 0.6043 0
M  V30 1114 C 108.002 0.946722 1.69561 0
M  V30 1115 O 107.277 -0.0248516 1.94484 0
M  V30 1116 C 107.56 3.40014 1.18585 0
M  V30 1117 C 107.413 4.49685 0.101529 0
M  V30 1118 C 108.732 3.87154 2.09284 0
M  V30 1119 H 105.851 0.703958 0.218202 0
M  V30 1120 H 108.493 1.89542 -0.131804 0
M  V30 1121 H 106.643 3.43592 1.81319 0
M  V30 1122 H 108.315 4.5823 -0.531279 0
M  V30 1123 H 106.558 4.30059 -0.568487 0
M  V30 1124 H 107.229 5.49266 0.54874 0
M  V30 1125 H 109.705 3.85551 1.56491 0
M  V30 1126 H 108.581 4.90231 2.46911 0
M  V30 1127 H 108.842 3.2481 2.99918 0
M  V30 1128 N 107.901 -0.206675 1.56239 0
M  V30 1129 C 108.864 -1.23976 1.92776 0
M  V30 1130 C 109.864 -1.39041 0.807729 0
M  V30 1131 O 111.054 -1.37051 1.0753 0
M  V30 1132 C 108.186 -2.61112 2.19165 0
M  V30 1133 H 109.379 -0.927764 2.85189 0
M  V30 1134 H 106.932 -0.447718 1.4975 0
M  V30 1135 H 107.667 -2.97386 1.29352 0
M  V30 1136 H 107.452 -2.51552 3.00772 0
M  V30 1137 H 108.942 -3.35633 2.48476 0
M  V30 1138 N 109.379 -1.50304 -0.473955 0
M  V30 1139 C 110.795 -1.37667 -0.807466 0
M  V30 1140 C 110.995 -0.430555 -1.96846 0
M  V30 1141 O 110.051 0.127874 -2.52176 0
M  V30 1142 C 111.364 -2.78974 -1.12223 0
M  V30 1143 C 112.912 -2.87868 -1.22885 0
M  V30 1144 C 113.387 -4.30003 -1.57676 0
M  V30 1145 N 114.878 -4.3294 -1.64673 0
M  V30 1146 C 115.613 -5.3991 -1.93091 0
M  V30 1147 N 115.109 -6.57092 -2.1955 0
M  V30 1148 N 116.902 -5.27351 -1.94569 0
M  V30 1149 H 109.053 -2.10394 0.291212 0
M  V30 1150 H 111.316 -0.945575 0.0677609 0
M  V30 1151 H 111.022 -3.50031 -0.342229 0
M  V30 1152 H 110.896 -3.16038 -2.05913 0
M  V30 1153 H 113.283 -2.17032 -1.99953 0
M  V30 1154 H 113.364 -2.54352 -0.271814 0
M  V30 1155 H 113.008 -5.01375 -0.81149 0
M  V30 1156 H 112.938 -4.61004 -2.54525 0
M  V30 1157 H 115.429 -3.48441 -1.46277 0
M  V30 1158 H 115.742 -7.34425 -2.405 0
M  V30 1159 H 114.087 -6.60272 -2.16948 0
M  V30 1160 H 117.278 -4.34801 -1.73394 0
M  V30 1161 H 117.451 -6.10805 -2.16381 0
M  V30 1162 N 110.857 0.726932 -1.39834 0
M  V30 1163 C 112.106 1.48214 -1.36805 0
M  V30 1164 C 112.419 1.95576 0.0305291 0
M  V30 1165 O 113.625 2.7088 0.183417 0
M  V30 1166 C 112.081 2.67854 -2.40379 0
M  V30 1167 C 111.689 2.27408 -3.85992 0
M  V30 1168 C 113.433 3.45641 -2.46439 0
M  V30 1169 C 111.34 3.43819 -4.81189 0
M  V30 1170 H 110.27 0.556606 -0.508631 0
M  V30 1171 H 112.921 0.792216 -1.65518 0
M  V30 1172 H 111.303 3.3896 -2.04749 0
M  V30 1173 H 112.477 1.63795 -4.30706 0
M  V30 1174 H 110.792 1.62692 -3.83302 0
M  V30 1175 H 113.389 4.32244 -3.14753 0
M  V30 1176 H 113.732 3.88669 -1.49139 0
M  V30 1177 H 114.265 2.8157 -2.81004 0
M  V30 1178 H 111.004 3.05834 -5.79781 0
M  V30 1179 H 110.524 4.06385 -4.41148 0
M  V30 1180 H 112.203 4.10043 -5.00474 0
M  V30 1181 N 112.336 1.25143 0.95797 0
M  V30 1182 C 113.747 1.08851 1.51685 0
M  V30 1183 C 114.098 -0.33687 1.93286 0
M  V30 1184 O 113.223 -1.22644 1.7829 0
M  V30 1185 C 113.818 1.96978 2.75654 0
M  V30 1186 C 112.377 1.84881 3.27866 0
M  V30 1187 C 111.524 1.91329 2.0072 0
M  V30 1188 H 114.475 1.38478 0.77522 0
M  V30 1189 H 114.496 1.5078 3.4935 0
M  V30 1190 H 114.008 3.00712 2.45345 0
M  V30 1191 H 112.109 0.840182 3.63004 0
M  V30 1192 H 112.222 2.6951 3.96107 0
M  V30 1193 H 110.586 1.35174 2.15871 0
M  V30 1194 H 111.369 2.96661 1.72764 0
M  V30 1195 N 113.814 -1.1601 1.06675 0
M  V30 1196 C 115.23 -1.38622 0.790948 0
M  V30 1197 C 115.43 -1.92109 -0.607965 0
M  V30 1198 O 114.486 -2.12239 -1.36787 0
M  V30 1199 C 115.799 -2.36347 1.85905 0
M  V30 1200 C 117.347 -2.50023 1.88301 0
M  V30 1201 C 117.822 -3.51033 2.94176 0
M  V30 1202 N 119.313 -3.58563 2.93235 0
M  V30 1203 C 120.048 -4.36521 3.71803 0
M  V30 1204 N 119.544 -5.17869 4.602 0
M  V30 1205 N 121.337 -4.31541 3.60178 0
M  V30 1206 H 113.488 -0.796294 1.96908 0
M  V30 1207 H 115.751 -0.412597 0.853503 0
M  V30 1208 H 115.457 -2.04147 2.86386 0
M  V30 1209 H 115.331 -3.36042 1.71334 0
M  V30 1210 H 117.718 -2.81524 0.884769 0
M  V30 1211 H 117.799 -1.5035 2.06951 0
M  V30 1212 H 117.443 -3.20268 3.94196 0
M  V30 1213 H 117.373 -4.50445 2.72776 0
M  V30 1214 H 119.864 -3.00496 2.29152 0
M  V30 1215 H 120.177 -5.74578 5.16797 0
M  V30 1216 H 118.522 -5.17199 4.64253 0
M  V30 1217 H 121.713 -3.67051 2.90502 0
M  V30 1218 H 121.886 -4.9205 4.21653 0
M  V30 1219 N 115.292 -0.849877 -1.32721 0
M  V30 1220 C 116.538 -0.451591 -1.97708 0
M  V30 1221 C 116.871 0.989175 -1.6712 0
M  V30 1222 O 116.146 1.69334 -0.956891 0
M  V30 1223 C 116.429 -0.685598 -3.53513 0
M  V30 1224 C 116.282 -2.17444 -3.93749 0
M  V30 1225 C 117.601 -0.138874 -4.39881 0
M  V30 1226 H 114.72 -0.16555 -0.718166 0
M  V30 1227 H 117.362 -1.06742 -1.57182 0
M  V30 1228 H 115.512 -0.161416 -3.88165 0
M  V30 1229 H 117.184 -2.76433 -3.693 0
M  V30 1230 H 115.427 -2.65476 -3.43081 0
M  V30 1231 H 116.098 -2.28888 -5.02309 0
M  V30 1232 H 118.574 -0.587068 -4.11938 0
M  V30 1233 H 117.45 -0.332213 -5.47894 0
M  V30 1234 H 117.711 0.95806 -4.31594 0
M  V30 1235 N 116.77 1.45427 -0.607355 0
M  V30 1236 C 118.181 1.85756 -0.187535 0
M  V30 1237 C 118.532 1.5077 1.25551 0
M  V30 1238 O 117.657 0.93427 1.95193 0
M  V30 1239 C 118.252 3.37154 -0.333572 0
M  V30 1240 C 116.811 3.76387 0.0315542 0
M  V30 1241 C 115.958 2.69377 -0.658117 0
M  V30 1242 H 118.909 1.36231 -0.81405 0
M  V30 1243 H 118.93 3.78014 0.43428 0
M  V30 1244 H 118.442 3.62586 -1.38393 0
M  V30 1245 H 116.543 3.56571 1.0811 0
M  V30 1246 H 116.656 4.77731 -0.361935 0
M  V30 1247 H 115.02 2.5452 -0.0957873 0
M  V30 1248 H 115.803 2.97646 -1.7106 0
M  V30 1249 N 118.248 0.346503 1.53744 0
M  V30 1250 C 119.496 -0.248612 2.00565 0
M  V30 1251 C 119.817 -1.5083 1.23593 0
M  V30 1252 O 119.087 -1.92858 0.343912 0
M  V30 1253 H 117.667 -0.0948564 0.740953 0
M  V30 1254 H 120.329 0.468341 1.89189 0
M  V30 1255 H 119.425 -0.488994 3.08245 0
M  V30 1256 N 119.726 -1.57421 0.075193 0
M  V30 1257 C 120.974 -1.93236 -0.591974 0
M  V30 1258 C 121.295 -0.956241 -1.69944 0
M  V30 1259 O 120.565 -0.00494792 -1.95899 0
M  V30 1260 H 119.145 -0.713355 -0.22166 0
M  V30 1261 H 121.807 -1.9444 0.133848 0
M  V30 1262 H 120.903 -2.95131 -1.01509 0
M  V30 1263 N 121.204 0.198386 -1.56346 0
M  V30 1264 C 122.452 0.91747 -1.80075 0
M  V30 1265 C 122.773 1.83929 -0.647692 0
M  V30 1266 O 122.043 1.93029 0.334166 0
M  V30 1267 H 120.623 0.341774 -0.664228 0
M  V30 1268 H 123.285 0.204684 -1.93822 0
M  V30 1269 H 122.381 1.51055 -2.7311 0
M  V30 1270 N 122.682 1.50554 0.465978 0
M  V30 1271 C 123.91 1.65563 1.24083 0
M  V30 1272 C 124.325 0.341051 1.85694 0
M  V30 1273 O 123.682 -0.677543 1.69457 0
M  V30 1274 C 123.733 2.75051 2.34583 0
M  V30 1275 O 123.454 4.01413 1.75497 0
M  V30 1276 C 124.955 3.01078 3.25372 0
M  V30 1277 H 122.175 0.55638 0.375077 0
M  V30 1278 H 124.719 1.96807 0.555624 0
M  V30 1279 H 122.874 2.46486 2.9887 0
M  V30 1280 H 123.288 4.62002 2.48303 0
M  V30 1281 H 124.762 3.81339 3.99105 0
M  V30 1282 H 125.239 2.12349 3.84453 0
M  V30 1283 H 125.845 3.31194 2.66816 0
M  V30 1284 N 124.16 -0.719506 1.40217 0
M  V30 1285 C 125.11 -1.8251 1.36653 0
M  V30 1286 C 126.094 -1.59028 0.244732 0
M  V30 1287 O 127.286 -1.70268 0.483524 0
M  V30 1288 C 124.415 -3.20599 1.22763 0
M  V30 1289 C 123.501 -3.49858 2.39708 0
M  V30 1290 N 123.892 -3.49957 3.6519 0
M  V30 1291 C 122.19 -3.80297 2.33002 0
M  V30 1292 C 122.891 -3.77449 4.42614 0
M  V30 1293 N 121.867 -3.96002 3.72402 0
M  V30 1294 H 125.669 -1.80914 2.31619 0
M  V30 1295 H 123.183 -0.918455 1.33933 0
M  V30 1296 H 125.18 -3.99766 1.18292 0
M  V30 1297 H 123.84 -3.23424 0.287614 0
M  V30 1298 H 124.851 -3.309 3.98404 0
M  V30 1299 H 121.528 -3.90635 1.47346 0
M  V30 1300 H 122.918 -3.83863 5.51451 0
M  V30 1301 N 125.638 -1.25649 -0.95132 0
M  V30 1302 C 127.054 -1.02542 -1.223 0
M  V30 1303 C 127.254 0.255715 -1.99871 0
M  V30 1304 O 126.31 0.967558 -2.33226 0
M  V30 1305 C 127.623 -2.25065 -1.99415 0
M  V30 1306 C 129.171 -2.29861 -2.12446 0
M  V30 1307 C 129.646 -3.52048 -2.92961 0
M  V30 1308 N 131.137 -3.52465 -3.00538 0
M  V30 1309 C 131.872 -4.43672 -3.63239 0
M  V30 1310 N 131.368 -5.45157 -4.27523 0
M  V30 1311 N 133.161 -4.31346 -3.60412 0
M  V30 1312 H 125.312 -2.07951 -0.432471 0
M  V30 1313 H 127.575 -0.91339 -0.253816 0
M  V30 1314 H 127.281 -3.18194 -1.49817 0
M  V30 1315 H 127.155 -2.28502 -3.00111 0
M  V30 1316 H 129.542 -1.37252 -2.61239 0
M  V30 1317 H 129.623 -2.3044 -1.11044 0
M  V30 1318 H 129.267 -4.44981 -2.44856 0
M  V30 1319 H 129.197 -3.48715 -3.94596 0
M  V30 1320 H 131.688 -2.79056 -2.54826 0
M  V30 1321 H 132.001 -6.10958 -4.73234 0
M  V30 1322 H 130.346 -5.49025 -4.26141 0
M  V30 1323 H 133.537 -3.51288 -3.09377 0
M  V30 1324 H 133.71 -5.02624 -4.0899 0
M  V30 1325 N 127.117 1.15442 -1.07289 0
M  V30 1326 C 128.08 2.18358 -0.696591 0
M  V30 1327 C 129.08 1.58637 0.262837 0
M  V30 1328 O 130.27 1.74145 0.0438809 0
M  V30 1329 C 127.402 3.4089 -0.0266151 0
M  V30 1330 H 128.595 2.53162 -1.60776 0
M  V30 1331 H 126.148 1.29893 -0.869342 0
M  V30 1332 H 126.883 3.11653 0.896822 0
M  V30 1333 H 126.668 3.85495 -0.716657 0
M  V30 1334 H 128.158 4.17009 0.222028 0
M  V30 1335 N 128.595 0.856903 1.32268 0
M  V30 1336 C 129.843 0.460474 1.96784 0
M  V30 1337 C 130.164 -0.987701 1.68135 0
M  V30 1338 O 129.434 -1.69058 0.989765 0
M  V30 1339 H 128.014 0.167289 0.728027 0
M  V30 1340 H 130.676 1.09383 1.61312 0
M  V30 1341 H 129.772 0.60739 3.06133 0
M  V30 1342 N 130.073 -1.45103 0.615059 0
M  V30 1343 C 131.005 -2.28786 -0.13762 0
M  V30 1344 C 132.018 -1.40376 -0.824525 0
M  V30 1345 O 133.207 -1.64681 -0.688662 0
M  V30 1346 C 130.307 -3.16322 -1.21628 0
M  V30 1347 C 129.48 -4.33054 -0.615039 0
M  V30 1348 C 128.539 -5.01743 -1.58556 0
M  V30 1349 O 127.565 -5.58293 -1.10895 0
M  V30 1350 N 128.767 -5.01714 -2.91998 0
M  V30 1351 H 131.532 -2.94025 0.580483 0
M  V30 1352 H 129.093 -1.55373 0.45507 0
M  V30 1353 H 131.085 -3.59139 -1.86552 0
M  V30 1354 H 129.655 -2.52943 -1.83681 0
M  V30 1355 H 128.875 -3.93627 0.21245 0
M  V30 1356 H 130.163 -5.08431 -0.193704 0
M  V30 1357 H 129.561 -4.57075 -3.33316 0
M  V30 1358 H 128.118 -5.48371 -3.52325 0
M  V30 1359 N 131.551 -0.354651 -1.53558 0
M  V30 1360 C 132.799 0.237972 -2.00694 0
M  V30 1361 C 133.12 1.50173 -1.24391 0
M  V30 1362 O 132.39 1.92673 -0.354135 0
M  V30 1363 H 130.97 0.0909256 -0.741446 0
M  V30 1364 H 133.632 -0.478368 -1.88938 0
M  V30 1365 H 132.728 0.47264 -3.085 0
M  V30 1366 N 133.029 1.57378 -0.0835403 0
M  V30 1367 C 133.992 2.12252 0.864959 0
M  V30 1368 C 134.992 1.04916 1.21858 0
M  V30 1369 O 136.182 1.30853 1.14991 0
M  V30 1370 C 133.314 2.63358 2.16461 0
M  V30 1371 H 134.507 2.97371 0.388676 0
M  V30 1372 H 132.06 1.55423 0.165317 0
M  V30 1373 H 132.795 1.81727 2.686 0
M  V30 1374 H 132.58 3.41826 1.92087 0
M  V30 1375 H 134.07 3.05847 2.84337 0
M  V30 1376 N 134.507 -0.190092 1.56449 0
M  V30 1377 C 135.754 -0.909705 1.80916 0
M  V30 1378 C 136.082 -1.83047 0.657583 0
M  V30 1379 O 135.337 -1.92428 -0.356356 0
M  V30 1380 C 135.636 -1.75382 3.1141 0
M  V30 1381 C 135.302 -0.983606 4.40041 0
M  V30 1382 C 133.964 -0.770967 4.74984 0
M  V30 1383 C 136.316 -0.442024 5.19322 0
M  V30 1384 C 133.644 -0.0053448 5.867 0
M  V30 1385 C 135.996 0.310412 6.31838 0
M  V30 1386 C 134.66 0.534023 6.6536 0
M  V30 1387 H 133.93 -0.332885 0.662019 0
M  V30 1388 H 136.577 -0.175762 1.90692 0
M  V30 1389 H 134.882 -2.55659 2.96893 0
M  V30 1390 H 136.579 -2.31331 3.27547 0
M  V30 1391 H 133.169 -1.15936 4.12622 0
M  V30 1392 H 137.353 -0.593693 4.92736 0
M  V30 1393 H 132.609 0.177825 6.11141 0
M  V30 1394 H 136.783 0.737419 6.92485 0
M  V30 1395 H 134.41 1.12918 7.51767 0
M  V30 1396 N 135.985 -1.50799 -0.457987 0
M  V30 1397 C 137.233 -1.62121 -1.2067 0
M  V30 1398 C 137.554 -0.329793 -1.92191 0
M  V30 1399 O 136.824 0.653409 -1.84682 0
M  V30 1400 H 135.404 -0.597441 -0.448411 0
M  V30 1401 H 138.066 -1.87637 -0.527096 0
M  V30 1402 H 137.162 -2.43882 -1.94751 0
M  V30 1403 N 137.463 0.71206 -1.40597 0
M  V30 1404 C 138.411 1.84746 -1.41321 0
M  V30 1405 C 139.405 1.66842 -0.293268 0
M  V30 1406 O 140.611 1.73904 -0.464481 0
M  V30 1407 H 136.986 0.608522 -0.441819 0
M  V30 1408 H 138.957 1.81252 -2.37045 0
M  V30 1409 C 137.706 3.22638 -1.29614 0
M  V30 1410 H 137.029 3.37023 -2.15071 0
M  V30 1411 H 138.469 4.02209 -1.3418 0
M  V30 1412 C 136.928 3.36899 -0.00673121 0
M  V30 1413 O 137.458 3.90186 0.954859 0
M  V30 1414 N 135.664 2.9053 0.0639327 0
M  V30 1415 H 135.211 2.47353 -0.719311 0
M  V30 1416 H 135.169 3.0045 0.926118 0
M  V30 1417 N 138.941 1.26152 0.944643 0
M  V30 1418 C 139.874 1.01729 2.04271 0
M  V30 1419 C 140.852 -0.0568101 1.62501 0
M  V30 1420 O 142.036 0.0848987 1.88309 0
M  V30 1421 C 139.163 0.539792 3.34371 0
M  V30 1422 C 138.209 1.60593 3.9511 0
M  V30 1423 S 139.042 3.19392 4.29825 0
M  V30 1424 C 140.198 2.73402 5.63029 0
M  V30 1425 H 140.431 1.94703 2.24673 0
M  V30 1426 H 137.964 1.09793 1.08558 0
M  V30 1427 H 139.922 0.270956 4.09605 0
M  V30 1428 H 138.583 -0.369609 3.11918 0
M  V30 1429 H 137.776 1.22275 4.88943 0
M  V30 1430 H 137.378 1.82596 3.26397 0
M  V30 1431 H 139.67 2.1765 6.41588 0
M  V30 1432 H 140.613 3.65913 6.06229 0
M  V30 1433 H 141.021 2.13077 5.22741 0
M  V30 1434 N 140.419 -1.14872 1.07899 0
M  V30 1435 C 141.659 -1.8745 0.814965 0
M  V30 1436 C 142.023 -1.80758 -0.64733 0
M  V30 1437 O 143.224 -2.48422 -1.02664 0
M  V30 1438 C 141.495 -3.32286 1.31607 0
M  V30 1439 S 143.054 -4.22537 1.18357 0
M  V30 1440 H 139.872 -0.646833 0.295174 0
M  V30 1441 H 142.474 -1.38555 1.37923 0
M  V30 1442 H 141.178 -3.34703 2.37491 0
M  V30 1443 H 140.709 -3.86238 0.747261 0
M  V30 1444 H 142.724 -4.96044 0.124586 0
M  V30 1445 N 141.898 -0.863906 -1.31812 0
M  V30 1446 C 143.314 -0.555004 -1.49639 0
M  V30 1447 C 143.514 0.912266 -1.79666 0
M  V30 1448 O 142.57 1.69479 -1.87171 0
M  V30 1449 C 143.883 -1.44998 -2.63431 0
M  V30 1450 C 145.431 -1.45138 -2.77316 0
M  V30 1451 C 145.906 -2.33179 -3.94197 0
M  V30 1452 N 147.397 -2.31025 -4.01474 0
M  V30 1453 C 148.132 -2.95871 -4.9117 0
M  V30 1454 N 147.628 -3.69863 -5.8581 0
M  V30 1455 N 149.421 -2.85211 -4.84367 0
M  V30 1456 H 141.572 -1.81339 -1.10589 0
M  V30 1457 H 143.835 -0.77505 -0.545895 0
M  V30 1458 H 143.541 -2.49377 -2.48 0
M  V30 1459 H 143.415 -1.14409 -3.59431 0
M  V30 1460 H 145.802 -0.415201 -2.92164 0
M  V30 1461 H 145.883 -1.79747 -1.82001 0
M  V30 1462 H 145.527 -3.3687 -3.80107 0
M  V30 1463 H 145.457 -1.95897 -4.88807 0
M  V30 1464 H 147.948 -1.77238 -3.33759 0
M  V30 1465 H 148.261 -4.16486 -6.50968 0
M  V30 1466 H 146.606 -3.73971 -5.85808 0
M  V30 1467 H 149.797 -2.26948 -4.09405 0
M  V30 1468 H 149.97 -3.36027 -5.54066 0
M  V30 1469 N 143.376 1.44774 -0.622745 0
M  V30 1470 C 144.624 2.01721 -0.123655 0
M  V30 1471 C 144.945 1.49172 1.25589 0
M  V30 1472 O 144.215 0.691974 1.83272 0
M  V30 1473 H 142.795 0.745777 -0.0427225 0
M  V30 1474 H 145.457 1.77382 -0.807559 0
M  V30 1475 H 144.553 3.11984 -0.0849534 0
M  V30 1476 N 144.854 0.36279 1.53368 0
M  V30 1477 C 146.102 -0.227326 2.00817 0
M  V30 1478 C 146.423 -1.49511 1.25186 0
M  V30 1479 O 145.693 -1.92482 0.364348 0
M  V30 1480 H 144.273 -0.0869923 0.741917 0
M  V30 1481 H 146.935 0.488381 1.88682 0
M  V30 1482 H 146.031 -0.456273 3.08747 0
M  V30 1483 N 146.332 -1.57332 0.0918853 0
M  V30 1484 C 147.58 -1.93853 -0.571446 0
M  V30 1485 C 147.901 -0.974212 -1.6892 0
M  V30 1486 O 147.171 -0.0257254 -1.95883 0
M  V30 1487 H 145.751 -0.715666 -0.214082 0
M  V30 1488 H 148.413 -1.94287 0.154464 0
M  V30 1489 H 147.509 -2.96191 -0.983729 0
M  V30 1490 N 147.81 0.181792 -1.56548 0
M  V30 1491 C 148.743 1.25366 -1.90679 0
M  V30 1492 C 149.721 1.43299 -0.768376 0
M  V30 1493 O 150.905 1.58475 -1.02068 0
M  V30 1494 C 148.032 2.61826 -2.1486 0
M  V30 1495 C 147.078 2.60688 -3.37556 0
M  V30 1496 S 147.911 2.10804 -4.92262 0
M  V30 1497 C 149.067 3.49062 -5.19525 0
M  V30 1498 H 149.3 0.962277 -2.81296 0
M  V30 1499 H 146.833 0.385892 -1.495 0
M  V30 1500 H 148.791 3.40371 -2.29473 0
M  V30 1501 H 147.452 2.88169 -1.24969 0
M  V30 1502 H 146.645 3.61058 -3.51643 0
M  V30 1503 H 146.247 1.90232 -3.22006 0
M  V30 1504 H 148.539 4.45003 -5.10861 0
M  V30 1505 H 149.482 3.39859 -6.2121 0
M  V30 1506 H 149.89 3.4459 -4.47122 0
M  V30 1507 N 149.288 1.51039 0.449983 0
M  V30 1508 C 150.535 1.63081 1.20045 0
M  V30 1509 C 150.863 0.341024 1.91487 0
M  V30 1510 O 150.118 -0.674276 1.83717 0
M  V30 1511 C 150.417 2.77556 2.25161 0
M  V30 1512 C 150.083 4.17289 1.70823 0
M  V30 1513 C 148.745 4.55305 1.55725 0
M  V30 1514 C 151.097 5.04536 1.3074 0
M  V30 1515 C 148.425 5.78287 0.989999 0
M  V30 1516 C 150.777 6.28085 0.754482 0
M  V30 1517 C 149.441 6.64885 0.590308 0
M  V30 1518 H 148.711 0.596755 0.439277 0
M  V30 1519 H 151.358 1.85037 0.49333 0
M  V30 1520 H 149.663 2.49771 3.01863 0
M  V30 1521 H 151.36 2.84073 2.83026 0
M  V30 1522 H 147.95 3.8731 1.83546 0
M  V30 1523 H 152.134 4.75782 1.41229 0
M  V30 1524 H 147.39 6.05456 0.850451 0
M  V30 1525 H 151.564 6.95038 0.435324 0
M  V30 1526 H 149.191 7.60055 0.14862 0
M  V30 1527 N 150.766 -0.704594 1.40972 0
M  V30 1528 C 151.714 -1.83994 1.42299 0
M  V30 1529 C 152.708 -1.66684 0.302111 0
M  V30 1530 O 153.914 -1.73655 0.473697 0
M  V30 1531 H 150.289 -0.606171 0.44504 0
M  V30 1532 H 152.26 -1.79992 2.38003 0
M  V30 1533 C 151.009 -3.21946 1.31323 0
M  V30 1534 H 150.332 -3.35878 2.16855 0
M  V30 1535 H 151.772 -4.01491 1.36311 0
M  V30 1536 C 150.231 -3.36891 0.0245977 0
M  V30 1537 O 150.761 -3.90687 -0.934153 0
M  V30 1538 N 148.967 -2.90559 -0.0485243 0
M  V30 1539 H 148.514 -2.46968 0.732419 0
M  V30 1540 H 148.472 -3.00937 -0.910171 0
M  V30 1541 N 152.244 -1.26651 -0.937939 0
M  V30 1542 C 153.655 -1.1125 -1.49934 0
M  V30 1543 C 154.006 0.306077 -1.93798 0
M  V30 1544 O 153.131 1.19792 -1.80219 0
M  V30 1545 C 153.726 -2.01339 -2.72485 0
M  V30 1546 C 152.285 -1.90074 -3.24883 0
M  V30 1547 C 151.432 -1.94498 -1.97651 0
M  V30 1548 H 154.383 -1.39693 -0.753091 0
M  V30 1549 H 154.404 -1.56319 -3.46907 0
M  V30 1550 H 153.916 -3.04577 -2.40529 0
M  V30 1551 H 152.017 -0.897827 -3.61621 0
M  V30 1552 H 152.13 -2.75778 -3.9177 0
M  V30 1553 H 150.494 -1.38591 -2.13693 0
M  V30 1554 H 151.277 -2.99372 -1.68022 0
M  V30 1555 N 153.722 1.14298 -1.08507 0
M  V30 1556 C 154.95 1.89219 -0.836876 0
M  V30 1557 C 155.365 1.78638 0.611054 0
M  V30 1558 O 154.722 1.14643 1.41998 0
M  V30 1559 C 154.773 3.39158 -1.25116 0
M  V30 1560 O 154.494 3.49449 -2.64229 0
M  V30 1561 C 155.995 4.31073 -1.03398 0
M  V30 1562 H 153.215 0.599328 -0.301739 0
M  V30 1563 H 155.759 1.44746 -1.44461 0
M  V30 1564 H 153.914 3.81251 -0.687514 0
M  V30 1565 H 154.328 4.42589 -2.81452 0
M  V30 1566 H 155.802 5.34646 -1.37323 0
M  V30 1567 H 156.279 4.3919 0.0289259 0
M  V30 1568 H 156.885 3.94738 -1.58311 0
M  V30 1569 N 155.201 0.870884 1.31352 0
M  V30 1570 C 156.148 0.325425 2.28494 0
M  V30 1571 C 157.118 -0.576615 1.5577 0
M  V30 1572 O 158.303 -0.508059 1.83911 0
M  V30 1573 C 155.443 -0.466283 3.41935 0
M  V30 1574 C 154.556 0.463378 4.29508 0
M  V30 1575 C 153.691 -0.342544 5.30094 0
M  V30 1576 C 152.73 0.583486 6.09313 0
M  V30 1577 N 151.867 -0.186244 7.01853 0
M  V30 1578 H 156.707 1.15901 2.74538 0
M  V30 1579 H 154.244 0.58294 1.35056 0
M  V30 1580 H 156.202 -0.941085 4.06447 0
M  V30 1581 H 154.832 -1.26456 2.97 0
M  V30 1582 H 153.884 1.05663 3.65431 0
M  V30 1583 H 155.196 1.1734 4.84802 0
M  V30 1584 H 154.35 -0.879816 6.00287 0
M  V30 1585 H 153.089 -1.08585 4.75458 0
M  V30 1586 H 152.094 1.13251 5.3801 0
M  V30 1587 H 153.319 1.32566 6.66035 0
M  V30 1588 H 151.265 -0.912348 6.49625 0
M  V30 1589 H 151.182 0.464422 7.54572 0
M  V30 1590 H 152.45 -0.704716 7.76308 0
M  V30 1591 N 156.679 -1.44442 0.630414 0
M  V30 1592 C 157.928 -2.01267 0.132073 0
M  V30 1593 C 158.241 -1.50172 -1.25331 0
M  V30 1594 O 159.447 -1.9912 -1.84562 0
M  V30 1595 C 157.903 -3.59422 0.185362 0
M  V30 1596 C 157.511 -4.19514 1.57201 0
M  V30 1597 C 159.255 -4.23724 -0.256553 0
M  V30 1598 C 157.162 -5.69891 1.58045 0
M  V30 1599 H 156.092 -0.752619 0.0456092 0
M  V30 1600 H 158.743 -1.65666 0.789106 0
M  V30 1601 H 157.125 -3.92318 -0.538759 0
M  V30 1602 H 158.299 -3.98156 2.31966 0
M  V30 1603 H 156.614 -3.67496 1.95795 0
M  V30 1604 H 159.211 -5.34019 -0.269767 0
M  V30 1605 H 159.554 -3.96013 -1.28372 0
M  V30 1606 H 160.087 -3.95629 0.41505 0
M  V30 1607 H 156.826 -6.02336 2.58597 0
M  V30 1608 H 156.346 -5.93373 0.875725 0
M  V30 1609 H 158.025 -6.33515 1.31408 0
M  V30 1610 N 158.157 -0.370918 -1.53173 0
M  V30 1611 C 159.403 0.209976 -2.02313 0
M  V30 1612 C 159.758 1.45987 -1.25322 0
M  V30 1613 O 159.051 1.8856 -0.339965 0
M  V30 1614 C 159.245 0.549696 -3.53147 0
M  V30 1615 C 159.074 -0.665721 -4.44745 0
M  V30 1616 C 157.844 -1.17942 -4.91343 0
M  V30 1617 C 160.042 -1.53255 -4.90935 0
M  V30 1618 N 158.024 -2.35431 -5.66962 0
M  V30 1619 C 159.395 -2.55403 -5.64951 0
M  V30 1620 C 161.45 -1.5548 -4.73002 0
M  V30 1621 C 160.153 -3.5964 -6.22938 0
M  V30 1622 C 162.179 -2.58613 -5.31858 0
M  V30 1623 C 161.541 -3.59485 -6.05764 0
M  V30 1624 H 157.64 0.0394095 -0.781006 0
M  V30 1625 H 160.224 -0.516666 -1.8772 0
M  V30 1626 H 158.395 1.24541 -3.67891 0
M  V30 1627 H 160.127 1.11614 -3.89004 0
M  V30 1628 H 156.882 -0.743228 -4.67732 0
M  V30 1629 H 157.306 -2.94827 -6.09431 0
M  V30 1630 H 161.948 -0.788457 -4.15383 0
M  V30 1631 H 159.666 -4.37153 -6.79649 0
M  V30 1632 H 163.252 -2.61195 -5.19873 0
M  V30 1633 H 162.132 -4.3798 -6.50495 0
M  V30 1634 N 159.635 1.57281 -0.100228 0
M  V30 1635 C 161.051 1.57527 0.256416 0
M  V30 1636 C 161.251 1.11173 1.68056 0
M  V30 1637 O 160.307 0.79053 2.39806 0
M  V30 1638 C 161.62 3.00673 0.0401747 0
M  V30 1639 C 163.168 3.12815 0.107528 0
M  V30 1640 C 163.643 4.57929 -0.0807834 0
M  V30 1641 N 165.134 4.63193 -0.0261207 0
M  V30 1642 C 165.869 5.73212 -0.146999 0
M  V30 1643 N 165.365 6.92047 -0.322999 0
M  V30 1644 N 167.158 5.62031 -0.0879044 0
M  V30 1645 H 159.309 1.85718 -1.03065 0
M  V30 1646 H 161.572 0.857446 -0.404339 0
M  V30 1647 H 161.278 3.38804 -0.943649 0
M  V30 1648 H 161.152 3.69042 0.780262 0
M  V30 1649 H 163.539 2.74554 1.08186 0
M  V30 1650 H 163.62 2.47028 -0.664134 0
M  V30 1651 H 163.264 4.96886 -1.05201 0
M  V30 1652 H 163.194 5.21783 0.710635 0
M  V30 1653 H 165.685 3.77748 0.107161 0
M  V30 1654 H 165.998 7.7173 -0.406608 0
M  V30 1655 H 164.343 6.94074 -0.358733 0
M  V30 1656 H 167.534 4.68075 0.048498 0
M  V30 1657 H 167.707 6.47734 -0.185557 0
M  V30 1658 N 161.113 -0.173488 1.56642 0
M  V30 1659 C 162.529 -0.525174 1.50712 0
M  V30 1660 C 162.729 -1.8476 0.804107 0
M  V30 1661 O 161.785 -2.49869 0.363574 0
M  V30 1662 C 163.098 -0.559937 2.95441 0
M  V30 1663 C 164.646 -0.647288 3.06234 0
M  V30 1664 C 165.121 -0.712963 4.52417 0
M  V30 1665 N 166.612 -0.775911 4.56655 0
M  V30 1666 C 167.347 -0.847264 5.67106 0
M  V30 1667 N 166.843 -0.879585 6.87194 0
M  V30 1668 N 168.636 -0.886117 5.55071 0
M  V30 1669 H 160.787 0.693681 2.00753 0
M  V30 1670 H 163.05 0.249841 0.914485 0
M  V30 1671 H 162.756 0.343049 3.50023 0
M  V30 1672 H 162.63 -1.40718 3.49969 0
M  V30 1673 H 165.017 -1.5407 2.51687 0
M  V30 1674 H 165.098 0.226586 2.54794 0
M  V30 1675 H 164.742 0.176183 5.07594 0
M  V30 1676 H 164.672 -1.60295 5.0161 0
M  V30 1677 H 167.163 -0.759304 3.70193 0
M  V30 1678 H 167.476 -0.935144 7.67121 0
M  V30 1679 H 165.821 -0.847898 6.89808 0
M  V30 1680 H 169.012 -0.857853 4.60172 0
M  V30 1681 H 169.185 -0.938263 6.41171 0
M  V30 1682 N 162.591 -1.51276 -0.441967 0
M  V30 1683 C 163.837 -1.6492 -1.1905 0
M  V30 1684 C 164.192 -0.358731 -1.89026 0
M  V30 1685 O 163.485 0.645193 -1.8041 0
M  V30 1686 C 163.679 -2.78746 -2.23686 0
M  V30 1687 C 163.508 -4.18737 -1.63979 0
M  V30 1688 C 162.278 -4.84739 -1.42674 0
M  V30 1689 C 164.476 -5.01988 -1.11858 0
M  V30 1690 N 162.458 -6.08858 -0.785159 0
M  V30 1691 C 163.829 -6.17071 -0.601989 0
M  V30 1692 C 165.884 -4.87551 -1.0099 0
M  V30 1693 C 164.587 -7.19299 0.0126012 0
M  V30 1694 C 166.613 -5.89983 -0.409206 0
M  V30 1695 C 165.975 -7.04333 0.0968651 0
M  V30 1696 H 162.074 -0.657416 -0.423471 0
M  V30 1697 H 164.658 -1.8849 -0.48782 0
M  V30 1698 H 162.829 -2.56848 -2.91348 0
M  V30 1699 H 164.561 -2.81595 -2.90666 0
M  V30 1700 H 161.316 -4.42528 -1.68719 0
M  V30 1701 H 161.74 -6.75282 -0.481942 0
M  V30 1702 H 166.382 -3.99401 -1.38703 0
M  V30 1703 H 164.1 -8.071 0.401879 0
M  V30 1704 H 167.686 -5.8088 -0.327079 0
M  V30 1705 H 166.566 -7.82238 0.554373 0
M  V30 1706 N 164.069 0.697108 -1.41344 0
M  V30 1707 C 165.317 1.45426 -1.40341 0
M  V30 1708 C 165.638 1.94996 -0.0128787 0
M  V30 1709 O 164.908 1.71599 0.945027 0
M  V30 1710 H 163.488 0.539594 -0.516573 0
M  V30 1711 H 166.15 0.825201 -1.76569 0
M  V30 1712 H 165.246 2.31817 -2.08967 0
M  V30 1713 N 165.547 1.27147 0.931209 0
M  V30 1714 C 166.963 1.04475 1.20653 0
M  V30 1715 C 167.163 -0.223885 2.00252 0
M  V30 1716 O 166.219 -0.930332 2.34736 0
M  V30 1717 C 167.532 2.28209 1.95809 0
M  V30 1718 C 169.08 2.33211 2.08762 0
M  V30 1719 C 169.555 3.56665 2.87323 0
M  V30 1720 N 171.046 3.57201 2.94892 0
M  V30 1721 C 171.781 4.49395 3.56134 0
M  V30 1722 N 171.277 5.51889 4.18796 0
M  V30 1723 N 173.07 4.37026 3.53504 0
M  V30 1724 H 165.221 2.08612 0.399333 0
M  V30 1725 H 167.484 0.917312 0.239253 0
M  V30 1726 H 167.19 3.20538 1.44736 0
M  V30 1727 H 167.064 2.33247 2.96438 0
M  V30 1728 H 169.451 1.41391 2.59023 0
M  V30 1729 H 169.532 2.32178 1.07364 0
M  V30 1730 H 169.176 4.4882 2.37746 0
M  V30 1731 H 169.106 3.54948 3.88998 0
M  V30 1732 H 171.597 2.83074 2.50354 0
M  V30 1733 H 171.91 6.18409 4.63454 0
M  V30 1734 H 170.255 5.55735 4.17353 0
M  V30 1735 H 173.446 3.56166 3.03749 0
M  V30 1736 H 173.619 5.09067 4.00942 0
M  V30 1737 N 167.025 -1.13721 1.09112 0
M  V30 1738 C 167.972 -2.19031 0.727591 0
M  V30 1739 C 168.942 -1.63555 -0.289656 0
M  V30 1740 O 170.127 -1.90023 -0.172026 0
M  V30 1741 C 167.267 -3.4477 0.15082 0
M  V30 1742 C 166.38 -4.14365 1.22172 0
M  V30 1743 C 165.515 -5.27709 0.608042 0
M  V30 1744 C 164.554 -5.89147 1.66047 0
M  V30 1745 N 163.691 -6.93929 1.06806 0
M  V30 1746 H 168.531 -2.49475 1.62991 0
M  V30 1747 H 166.068 -1.22499 0.81439 0
M  V30 1748 H 168.026 -4.16714 -0.201358 0
M  V30 1749 H 166.656 -3.14787 -0.714783 0
M  V30 1750 H 165.708 -3.40737 1.69122 0
M  V30 1751 H 167.02 -4.56114 2.01895 0
M  V30 1752 H 166.174 -6.06355 0.204523 0
M  V30 1753 H 164.913 -4.872 -0.220769 0
M  V30 1754 H 163.918 -5.09198 2.07357 0
M  V30 1755 H 165.143 -6.31729 2.49189 0
M  V30 1756 H 163.089 -6.55483 0.260476 0
M  V30 1757 H 163.006 -7.34202 1.8023 0
M  V30 1758 H 164.274 -7.76434 0.690644 0
M  V30 1759 N 168.503 -0.877838 -1.30888 0
M  V30 1760 C 169.749 -0.493426 -1.96706 0
M  V30 1761 C 170.082 0.953504 -1.6918 0
M  V30 1762 O 169.357 1.67266 -0.992594 0
M  V30 1763 C 169.64 -0.760429 -3.51979 0
M  V30 1764 C 169.493 -2.25747 -3.89048 0
M  V30 1765 C 170.812 -0.232148 -4.39487 0
M  V30 1766 H 167.931 -0.180746 -0.714493 0
M  V30 1767 H 170.573 -1.10052 -1.54882 0
M  V30 1768 H 168.723 -0.243715 -3.87735 0
M  V30 1769 H 170.395 -2.84204 -3.63354 0
M  V30 1770 H 168.638 -2.72694 -3.37373 0
M  V30 1771 H 169.309 -2.39491 -4.97341 0
M  V30 1772 H 171.785 -0.674314 -4.106 0
M  V30 1773 H 170.661 -0.448355 -5.47066 0
M  V30 1774 H 170.922 0.866297 -4.33529 0
M  V30 1775 N 169.982 1.44106 -0.638065 0
M  V30 1776 C 170.93 2.3248 0.0748149 0
M  V30 1777 C 171.924 1.47746 0.828702 0
M  V30 1778 O 173.13 1.64049 0.740816 0
M  V30 1779 H 169.505 0.750771 0.0429686 0
M  V30 1780 H 171.476 2.90348 -0.688504 0
M  V30 1781 C 170.225 3.31843 1.03805 0
M  V30 1782 H 169.548 3.97059 0.467375 0
M  V30 1783 H 170.988 3.96345 1.50622 0
M  V30 1784 C 169.447 2.61291 2.1267 0
M  V30 1785 O 169.977 2.41702 3.20847 0
M  V30 1786 N 168.183 2.20915 1.88798 0
M  V30 1787 H 167.73 2.37047 1.00829 0
M  V30 1788 H 167.688 1.74038 2.61836 0
M  V30 1789 N 171.46 0.379036 1.52974 0
M  V30 1790 C 172.39 -0.452706 2.29069 0
M  V30 1791 C 173.371 -1.07237 1.32039 0
M  V30 1792 O 174.556 -1.08708 1.60923 0
M  V30 1793 C 171.686 -1.5856 3.08992 0
M  V30 1794 C 170.64 -1.0925 4.13822 0
M  V30 1795 C 169.966 -2.31668 4.81907 0
M  V30 1796 C 171.266 -0.167702 5.22031 0
M  V30 1797 H 172.96 0.182181 2.98845 0
M  V30 1798 H 170.506 0.0890592 1.43724 0
M  V30 1799 H 172.459 -2.1742 3.6098 0
M  V30 1800 H 171.183 -2.24792 2.36931 0
M  V30 1801 H 169.842 -0.526494 3.628 0
M  V30 1802 H 169.49 -2.96386 4.06404 0
M  V30 1803 H 169.19 -1.9934 5.52754 0
M  V30 1804 H 170.714 -2.91189 5.36695 0
M  V30 1805 H 172.128 -0.664186 5.6944 0
M  V30 1806 H 170.525 0.0653265 6.00064 0
M  V30 1807 H 171.595 0.786347 4.78482 0
M  V30 1808 N 172.938 -1.57226 0.108567 0
M  V30 1809 C 173.885 -2.14756 -0.845481 0
M  V30 1810 C 174.855 -1.06971 -1.27068 0
M  V30 1811 O 176.04 -1.34827 -1.35005 0
M  V30 1812 C 173.18 -2.74298 -2.09415 0
M  V30 1813 C 172.293 -3.96358 -1.71826 0
M  V30 1814 C 171.428 -4.44021 -2.9158 0
M  V30 1815 C 170.467 -5.58637 -2.50181 0
M  V30 1816 N 169.604 -6.01091 -3.62814 0
M  V30 1817 H 174.444 -2.95961 -0.348035 0
M  V30 1818 H 171.981 -1.46226 -0.160106 0
M  V30 1819 H 173.939 -3.06945 -2.82561 0
M  V30 1820 H 172.569 -1.95801 -2.56636 0
M  V30 1821 H 171.621 -3.69939 -0.885947 0
M  V30 1822 H 172.933 -4.79504 -1.37394 0
M  V30 1823 H 172.087 -4.78522 -3.72963 0
M  V30 1824 H 170.826 -3.59803 -3.29231 0
M  V30 1825 H 169.831 -5.23751 -1.67228 0
M  V30 1826 H 171.056 -6.44613 -2.13659 0
M  V30 1827 H 169.002 -5.19817 -4.00158 0
M  V30 1828 H 168.919 -6.79066 -3.32273 0
M  V30 1829 H 170.187 -6.40227 -4.44668 0
M  V30 1830 N 174.416 0.165178 -1.56732 0
M  V30 1831 C 175.326 1.22423 -2.00125 0
M  V30 1832 C 176.342 1.48084 -0.913619 0
M  V30 1833 O 177.518 1.60112 -1.22172 0
M  V30 1834 C 174.583 2.54197 -2.35764 0
M  V30 1835 C 173.644 2.36343 -3.58386 0
M  V30 1836 C 172.877 3.61834 -3.92316 0
M  V30 1837 O 173.1 4.67267 -3.27135 0
M  V30 1838 O 172.034 3.55579 -4.85641 0
M  V30 1839 H 175.86 0.885886 -2.90492 0
M  V30 1840 H 173.445 0.372518 -1.44681 0
M  V30 1841 H 175.327 3.3192 -2.59629 0
M  V30 1842 H 174.002 2.87598 -1.48557 0
M  V30 1843 H 172.909 1.56632 -3.39731 0
M  V30 1844 H 174.242 2.07865 -4.46154 0
M  V30 1845 N 175.894 1.51508 0.433938 0
M  V30 1846 C 176.841 1.73068 1.52696 0
M  V30 1847 C 177.811 0.572441 1.55924 0
M  V30 1848 O 178.996 0.807253 1.72882 0
M  V30 1849 C 176.136 1.86474 2.90381 0
M  V30 1850 C 175.249 3.14037 2.96656 0
M  V30 1851 C 174.384 3.18019 4.25485 0
M  V30 1852 C 173.423 4.39882 4.2564 0
M  V30 1853 N 172.56 4.41394 5.45999 0
M  V30 1854 H 177.4 2.66366 1.33615 0
M  V30 1855 H 174.937 1.32008 0.649018 0
M  V30 1856 H 176.895 1.92229 3.70275 0
M  V30 1857 H 175.525 0.965809 3.08013 0
M  V30 1858 H 174.577 3.17575 2.09404 0
M  V30 1859 H 175.889 4.0394 2.92633 0
M  V30 1860 H 175.043 3.22708 5.13755 0
M  V30 1861 H 173.782 2.2601 4.3217 0
M  V30 1862 H 172.787 4.35366 3.35763 0
M  V30 1863 H 174.012 5.33159 4.20617 0
M  V30 1864 H 171.958 3.52258 5.53399 0
M  V30 1865 H 171.875 5.25111 5.4387 0
M  V30 1866 H 173.143 4.50281 6.36292 0
M  V30 1867 N 177.372 -0.689602 1.41712 0
M  V30 1868 C 178.788 -1.00093 1.24312 0
M  V30 1869 C 178.988 -2.01036 0.136729 0
M  V30 1870 O 178.044 -2.47562 -0.496918 0
M  V30 1871 C 179.357 -1.51985 2.59463 0
M  V30 1872 C 180.905 -1.63838 2.66695 0
M  V30 1873 C 181.38 -2.1913 4.02177 0
M  V30 1874 N 182.871 -2.26483 4.04054 0
M  V30 1875 C 183.606 -2.70306 5.0569 0
M  V30 1876 N 183.102 -3.13691 6.17713 0
M  V30 1877 N 184.895 -2.69923 4.9305 0
M  V30 1878 H 177.046 -0.0210029 2.1239 0
M  V30 1879 H 179.309 -0.0718733 0.945272 0
M  V30 1880 H 179.015 -0.85269 3.41207 0
M  V30 1881 H 178.889 -2.50103 2.82362 0
M  V30 1882 H 181.276 -2.29664 1.85306 0
M  V30 1883 H 181.357 -0.642492 2.476 0
M  V30 1884 H 181.001 -1.53918 4.84016 0
M  V30 1885 H 180.931 -3.19482 4.18615 0
M  V30 1886 H 183.422 -1.95874 3.23174 0
M  V30 1887 H 183.735 -3.45773 6.9113 0
M  V30 1888 H 182.08 -3.11585 6.21241 0
M  V30 1889 H 185.271 -2.35382 4.04614 0
M  V30 1890 H 185.444 -3.03758 5.72394 0
M  V30 1891 N 178.85 -1.27639 -0.924453 0
M  V30 1892 C 180.08 -1.16819 -1.70402 0
M  V30 1893 C 180.488 0.277191 -1.87158 0
M  V30 1894 O 179.831 1.20025 -1.39067 0
M  V30 1895 C 179.893 -1.78305 -3.12166 0
M  V30 1896 C 179.557 -3.27502 -3.18734 0
M  V30 1897 C 180.554 -4.2409 -3.00738 0
M  V30 1898 C 178.239 -3.68269 -3.4159 0
M  V30 1899 C 180.233 -5.59422 -3.05492 0
M  V30 1900 C 177.92 -5.0373 -3.45977 0
M  V30 1901 C 178.918 -5.99116 -3.27946 0
M  V30 1902 O 178.606 -7.32108 -3.32074 0
M  V30 1903 H 178.338 -0.406931 -0.539799 0
M  V30 1904 H 180.892 -1.69078 -1.16626 0
M  V30 1905 H 179.122 -1.20528 -3.67437 0
M  V30 1906 H 180.811 -1.62154 -3.72103 0
M  V30 1907 H 181.577 -3.93931 -2.82919 0
M  V30 1908 H 177.456 -2.94496 -3.54673 0
M  V30 1909 H 181 -6.33852 -2.91337 0
M  V30 1910 H 176.897 -5.33543 -3.63321 0
M  V30 1911 H 177.665 -7.40598 -3.48507 0
M  V30 1912 N 180.328 1.1314 -1.09713 0
M  V30 1913 C 181.291 2.16831 -0.742751 0
M  V30 1914 C 182.291 1.59159 0.229129 0
M  V30 1915 O 183.481 1.74199 0.00693237 0
M  V30 1916 C 180.613 3.40756 -0.0989168 0
M  V30 1917 H 181.806 2.49695 -1.66109 0
M  V30 1918 H 179.359 1.2802 -0.896699 0
M  V30 1919 H 180.094 3.13485 0.830514 0
M  V30 1920 H 179.879 3.83888 -0.798265 0
M  V30 1921 H 181.369 4.17386 0.133524 0
M  V30 1922 N 181.806 0.884767 1.30421 0
M  V30 1923 C 183.052 0.503851 1.96441 0
M  V30 1924 C 183.385 -0.944518 1.69684 0
M  V30 1925 O 182.66 -1.66737 1.00145 0
M  V30 1926 C 182.943 0.779085 3.51571 0
M  V30 1927 C 182.796 2.27807 3.87846 0
M  V30 1928 C 184.115 0.255452 4.39358 0
M  V30 1929 H 181.234 0.184533 0.713524 0
M  V30 1930 H 183.876 1.10872 1.54297 0
M  V30 1931 H 182.026 0.264274 3.876 0
M  V30 1932 H 183.698 2.86127 3.61841 0
M  V30 1933 H 181.941 2.74479 3.35922 0
M  V30 1934 H 182.612 2.42125 4.96064 0
M  V30 1935 H 185.088 0.696079 4.10236 0
M  V30 1936 H 183.964 0.477361 5.4682 0
M  V30 1937 H 184.225 -0.843293 4.33983 0
M  V30 1938 N 183.284 -1.43765 0.645699 0
M  V30 1939 C 184.524 -2.03776 0.159542 0
M  V30 1940 C 184.888 -1.49792 -1.2011 0
M  V30 1941 O 186.089 -2.01398 -1.78023 0
M  V30 1942 C 184.36 -3.57036 0.161251 0
M  V30 1943 S 185.919 -4.3804 -0.258159 0
M  V30 1944 H 182.737 -0.707717 0.0682454 0
M  V30 1945 H 185.339 -1.75941 0.852352 0
M  V30 1946 H 184.043 -3.9383 1.15439 0
M  V30 1947 H 183.574 -3.89503 -0.552339 0
M  V30 1948 H 185.589 -4.7302 -1.49889 0
M  V30 1949 N 184.763 -0.387143 -1.52771 0
M  V30 1950 C 185.988 0.198407 -2.06449 0
M  V30 1951 C 186.413 1.39918 -1.25716 0
M  V30 1952 O 185.771 1.79099 -0.281657 0
M  V30 1953 C 185.819 0.548893 -3.56398 0
M  V30 1954 O 184.923 1.64315 -3.78252 0
M  V30 1955 H 184.264 0.0237731 -0.663574 0
M  V30 1956 H 186.794 -0.553989 -1.96957 0
M  V30 1957 H 186.804 0.813812 -3.99801 0
M  V30 1958 H 185.479 -0.329005 -4.14597 0
M  V30 1959 H 184.056 1.37211 -3.46738 0
M  V30 1960 N 186.241 1.57166 -0.116904 0
M  V30 1961 C 187.466 1.999 0.55271 0
M  V30 1962 C 187.891 0.996039 1.59564 0
M  V30 1963 O 187.249 -0.032556 1.81271 0
M  V30 1964 C 187.297 3.4152 1.15742 0
M  V30 1965 O 186.401 3.44106 2.27299 0
M  V30 1966 H 185.742 0.649447 0.138258 0
M  V30 1967 H 188.272 2.03573 -0.204759 0
M  V30 1968 H 188.282 3.79684 1.49346 0
M  V30 1969 H 186.957 4.14034 0.393493 0
M  V30 1970 H 185.534 3.17759 1.9515 0
M  V30 1971 N 187.719 -0.156864 1.56817 0
M  V30 1972 C 188.968 -0.869504 1.81996 0
M  V30 1973 C 189.281 -1.82777 0.696545 0
M  V30 1974 O 190.487 -2.58384 0.833658 0
M  V30 1975 C 188.943 -1.59679 3.22538 0
M  V30 1976 C 188.551 -0.681431 4.42787 0
M  V30 1977 C 190.295 -2.2968 3.56997 0
M  V30 1978 C 188.202 -1.40978 5.74351 0
M  V30 1979 H 187.132 -0.328438 0.678708 0
M  V30 1980 H 189.783 -0.1223 1.83092 0
M  V30 1981 H 188.165 -2.38927 3.158 0
M  V30 1982 H 189.339 0.0751166 4.60739 0
M  V30 1983 H 187.654 -0.0903431 4.16302 0
M  V30 1984 H 190.251 -2.84794 4.52544 0
M  V30 1985 H 190.594 -3.05707 2.82576 0
M  V30 1986 H 191.127 -1.57361 3.65352 0
M  V30 1987 H 187.866 -0.691561 6.51842 0
M  V30 1988 H 187.386 -2.13929 5.60352 0
M  V30 1989 H 189.065 -1.95337 6.16808 0
M  V30 1990 N 189.197 -1.51736 -0.425897 0
M  V30 1991 C 190.16 -1.73271 -1.50032 0
M  V30 1992 C 191.16 -0.602639 -1.4908 0
M  V30 1993 O 192.35 -0.87033 -1.509 0
M  V30 1994 C 189.482 -1.79969 -2.89523 0
M  V30 1995 H 190.675 -2.69172 -1.32237 0
M  V30 1996 H 188.228 -1.41899 -0.65532 0
M  V30 1997 H 188.963 -0.859241 -3.1271 0
M  V30 1998 H 188.748 -2.62109 -2.91619 0
M  V30 1999 H 190.238 -1.9843 -3.67444 0
M  V30 2000 N 190.675 0.682077 -1.42076 0
M  V30 2001 C 191.638 1.77756 -1.44691 0
M  V30 2002 C 192.638 1.5726 -0.335535 0
M  V30 2003 O 193.828 1.63686 -0.596037 0
M  V30 2004 C 190.96 3.16301 -1.27146 0
M  V30 2005 H 192.153 1.76826 -2.42224 0
M  V30 2006 H 189.706 0.891012 -1.28416 0
M  V30 2007 H 190.441 3.22862 -0.305075 0
M  V30 2008 H 190.226 3.32581 -2.07683 0
M  V30 2009 H 191.716 3.96241 -1.31843 0
M  V30 2010 N 192.153 1.28127 0.917671 0
M  V30 2011 C 193.378 1.18007 1.70555 0
M  V30 2012 C 193.803 -0.258257 1.86319 0
M  V30 2013 O 193.161 -1.1869 1.37049 0
M  V30 2014 C 193.209 1.87948 3.07746 0
M  V30 2015 O 192.313 1.18427 3.9503 0
M  V30 2016 H 191.654 0.409867 0.522403 0
M  V30 2017 H 194.184 1.69379 1.1477 0
M  V30 2018 H 194.194 1.95701 3.58001 0
M  V30 2019 H 192.869 2.92573 2.95591 0
M  V30 2020 H 191.446 1.18811 3.53466 0
M  V30 2021 N 193.631 -1.12557 1.10312 0
M  V30 2022 C 194.879 -1.83675 0.843091 0
M  V30 2023 C 195.2 -1.84435 -0.633131 0
M  V30 2024 O 194.47 -1.30657 -1.45964 0
M  V30 2025 H 193.05 -0.680138 0.308904 0
M  V30 2026 H 195.712 -1.36301 1.39313 0
M  V30 2027 H 194.808 -2.87908 1.2048 0
M  V30 2028 N 195.109 -0.891671 -1.2995 0
M  V30 2029 C 196.355 -0.514261 -1.96171 0
M  V30 2030 C 196.688 0.935506 -1.70182 0
M  V30 2031 O 195.963 1.66204 -1.01028 0
M  V30 2032 C 196.246 -0.797719 -3.51153 0
M  V30 2033 C 196.099 -2.2986 -3.86632 0
M  V30 2034 C 197.418 -0.278749 -4.39216 0
M  V30 2035 H 194.537 -0.188314 -0.712535 0
M  V30 2036 H 197.179 -1.11689 -1.53706 0
M  V30 2037 H 195.329 -0.284826 -3.87455 0
M  V30 2038 H 197.001 -2.88042 -3.60319 0
M  V30 2039 H 195.244 -2.76257 -3.34462 0
M  V30 2040 H 195.915 -2.44753 -4.94773 0
M  V30 2041 H 198.391 -0.717825 -4.09862 0
M  V30 2042 H 197.267 -0.506353 -5.46559 0
M  V30 2043 H 197.528 0.820266 -4.34424 0
M  V30 2044 N 196.587 1.43421 -0.653314 0
M  V30 2045 C 197.815 2.06163 -0.174491 0
M  V30 2046 C 198.23 1.48969 1.1599 0
M  V30 2047 O 197.587 0.621042 1.71608 0
M  V30 2048 C 197.638 3.61417 -0.0774865 0
M  V30 2049 O 197.359 4.16485 -1.35912 0
M  V30 2050 C 198.86 4.41235 0.427402 0
M  V30 2051 H 196.08 0.664946 -0.0899353 0
M  V30 2052 H 198.624 1.83924 -0.893988 0
M  V30 2053 H 196.779 3.82841 0.59257 0
M  V30 2054 H 197.193 5.10153 -1.21839 0
M  V30 2055 H 198.667 5.5021 0.44423 0
M  V30 2056 H 199.144 4.14268 1.45873 0
M  V30 2057 H 199.75 4.2478 -0.210167 0
M  V30 2058 N 198.065 0.39524 1.52563 0
M  V30 2059 C 199.29 -0.187456 2.06551 0
M  V30 2060 C 199.715 -1.39249 1.26457 0
M  V30 2061 O 199.073 -1.78947 0.291151 0
M  V30 2062 C 199.121 -0.529985 3.56684 0
M  V30 2063 O 198.225 -1.62307 3.79118 0
M  V30 2064 H 197.566 -0.0202537 0.663691 0
M  V30 2065 H 200.096 0.564426 1.96661 0
M  V30 2066 H 200.106 -0.792598 4.00227 0
M  V30 2067 H 198.781 0.350987 4.14416 0
M  V30 2068 H 197.358 -1.3537 3.47461 0
M  V30 2069 N 199.544 -1.57102 0.125237 0
M  V30 2070 C 200.474 -2.18659 -0.819174 0
M  V30 2071 C 201.455 -1.12843 -1.27281 0
M  V30 2072 O 202.64 -1.41104 -1.33429 0
M  V30 2073 C 199.77 -2.79096 -2.06695 0
M  V30 2074 C 198.724 -3.90548 -1.75088 0
M  V30 2075 C 198.05 -4.37821 -3.06948 0
M  V30 2076 C 199.35 -5.12356 -1.01435 0
M  V30 2077 H 201.044 -2.9783 -0.306202 0
M  V30 2078 H 198.59 -1.4326 -0.145839 0
M  V30 2079 H 200.543 -3.2082 -2.73226 0
M  V30 2080 H 199.267 -1.97223 -2.60328 0
M  V30 2081 H 197.926 -3.49409 -1.10944 0
M  V30 2082 H 197.574 -3.52799 -3.58527 0
M  V30 2083 H 197.274 -5.12982 -2.86571 0
M  V30 2084 H 198.798 -4.822 -3.74587 0
M  V30 2085 H 200.212 -5.5106 -1.58132 0
M  V30 2086 H 198.609 -5.9314 -0.911319 0
M  V30 2087 H 199.679 -4.849 -0.00218681 0
M  V30 2088 N 201.022 0.148545 -1.56898 0
M  V30 2089 C 202.268 0.862694 -1.83536 0
M  V30 2090 C 202.601 1.80889 -0.706604 0
M  V30 2091 O 201.876 1.92328 0.289885 0
M  V30 2092 C 202.159 1.63853 -3.20662 0
M  V30 2093 C 202.012 0.713925 -4.44098 0
M  V30 2094 C 203.331 2.60133 -3.54991 0
M  V30 2095 H 200.45 0.312179 -0.667618 0
M  V30 2096 H 203.092 0.127953 -1.89569 0
M  V30 2097 H 201.242 2.26489 -3.1565 0
M  V30 2098 H 202.914 0.098686 -4.61194 0
M  V30 2099 H 201.157 0.0234019 -4.33794 0
M  V30 2100 H 201.828 1.29278 -5.36648 0
M  V30 2101 H 204.304 2.07616 -3.60603 0
M  V30 2102 H 203.18 3.11468 -4.51972 0
M  V30 2103 H 203.441 3.41417 -2.80868 0
M  V30 2104 N 202.5 1.5196 0.417844 0
M  V30 2105 C 203.43 1.77634 1.51554 0
M  V30 2106 C 204.411 0.626918 1.58126 0
M  V30 2107 O 205.596 0.871632 1.7354 0
M  V30 2108 C 202.726 1.91911 2.8946 0
M  V30 2109 C 201.68 3.07463 2.97743 0
M  V30 2110 C 201.006 3.06951 4.37819 0
M  V30 2111 C 202.306 4.47082 2.70027 0
M  V30 2112 H 204 2.6955 1.3032 0
M  V30 2113 H 201.546 1.29706 0.625492 0
M  V30 2114 H 203.499 2.08455 3.6623 0
M  V30 2115 H 202.223 0.966598 3.11969 0
M  V30 2116 H 200.882 2.90656 2.23416 0
M  V30 2117 H 200.53 2.09438 4.57323 0
M  V30 2118 H 200.23 3.84556 4.44286 0
M  V30 2119 H 201.754 3.25613 5.16535 0
M  V30 2120 H 203.168 4.6414 3.36522 0
M  V30 2121 H 201.565 5.2654 2.87881 0
M  V30 2122 H 202.635 4.55777 1.65514 0
M  V30 2123 N 203.978 -0.674533 1.42435 0
M  V30 2124 C 204.941 -1.76986 1.45632 0
M  V30 2125 C 205.941 -1.5708 0.343871 0
M  V30 2126 O 207.131 -1.63367 0.604709 0
M  V30 2127 C 204.263 -3.15623 1.28822 0
M  V30 2128 H 205.456 -1.75539 2.43158 0
M  V30 2129 H 203.009 -0.884189 1.28887 0
M  V30 2130 H 203.744 -3.22696 0.322193 0
M  V30 2131 H 203.529 -3.31475 2.09444 0
M  V30 2132 H 205.019 -3.95537 1.33942 0
M  V30 2133 N 205.456 -1.28612 -0.910864 0
M  V30 2134 C 206.872 -1.06381 -1.18976 0
M  V30 2135 C 207.072 0.191998 -2.00583 0
M  V30 2136 O 206.128 0.892869 -2.36187 0
M  V30 2137 C 207.441 -2.31295 -1.92154 0
M  V30 2138 C 208.989 -2.36503 -2.05025 0
M  V30 2139 C 209.464 -3.61191 -2.81612 0
M  V30 2140 N 210.955 -3.61847 -2.89172 0
M  V30 2141 C 211.69 -4.55004 -3.4894 0
M  V30 2142 N 211.186 -5.58482 -4.09963 0
M  V30 2143 N 212.979 -4.42594 -3.46506 0
M  V30 2144 H 205.13 -2.09221 -0.366094 0
M  V30 2145 H 207.393 -0.921003 -0.224629 0
M  V30 2146 H 207.099 -3.228 -1.39618 0
M  V30 2147 H 206.973 -2.37934 -2.9269 0
M  V30 2148 H 209.36 -1.45494 -2.5674 0
M  V30 2149 H 209.441 -2.33857 -1.03657 0
M  V30 2150 H 209.085 -4.52545 -2.30576 0
M  V30 2151 H 209.015 -3.61092 -3.83302 0
M  V30 2152 H 211.506 -2.87022 -2.45819 0
M  V30 2153 H 211.819 -6.25704 -4.53557 0
M  V30 2154 H 210.164 -5.62305 -4.08459 0
M  V30 2155 H 213.355 -3.60953 -2.98045 0
M  V30 2156 H 213.528 -5.15381 -3.92793 0
M  V30 2157 N 206.934 1.1197 -1.10907 0
M  V30 2158 C 208.182 1.83225 -0.852819 0
M  V30 2159 C 208.503 1.84769 0.623341 0
M  V30 2160 O 207.773 1.3143 1.45269 0
M  V30 2161 H 206.353 0.67849 -0.312507 0
M  V30 2162 H 209.015 1.3556 -1.40033 0
M  V30 2163 H 208.111 2.87265 -1.22005 0
M  V30 2164 N 208.412 0.89855 1.29475 0
M  V30 2165 C 209.362 0.346767 2.25348 0
M  V30 2166 C 210.346 -0.532509 1.51833 0
M  V30 2167 O 211.538 -0.374714 1.72988 0
M  V30 2168 C 208.667 -0.425681 3.40651 0
M  V30 2169 C 207.753 0.46845 4.21505 0
M  V30 2170 N 208.144 1.57514 4.80648 0
M  V30 2171 C 206.442 0.26603 4.45206 0
M  V30 2172 C 207.143 2.12889 5.41344 0
M  V30 2173 N 206.119 1.42208 5.24669 0
M  V30 2174 H 209.921 1.19219 2.68634 0
M  V30 2175 H 207.435 0.749473 1.44072 0
M  V30 2176 H 209.432 -0.837716 4.08397 0
M  V30 2177 H 208.092 -1.26838 2.98902 0
M  V30 2178 H 209.103 1.95789 4.79465 0
M  V30 2179 H 205.78 -0.538394 4.14014 0
M  V30 2180 H 207.17 3.05901 5.98226 0
M  V30 2181 N 209.89 -1.43072 0.660911 0
M  V30 2182 C 211.306 -1.56169 0.329173 0
M  V30 2183 C 211.506 -1.64317 -1.16629 0
M  V30 2184 O 210.562 -1.60245 -1.95135 0
M  V30 2185 C 211.875 -2.81873 1.04729 0
M  V30 2186 C 213.423 -2.95627 1.02828 0
M  V30 2187 C 213.898 -4.24174 1.72744 0
M  V30 2188 N 215.389 -4.31055 1.69545 0
M  V30 2189 C 216.124 -5.29304 2.20511 0
M  V30 2190 N 215.62 -6.33786 2.79799 0
M  V30 2191 N 217.413 -5.21008 2.10966 0
M  V30 2192 H 209.564 -1.36027 1.63127 0
M  V30 2193 H 211.827 -0.653823 0.686454 0
M  V30 2194 H 211.533 -2.81942 2.10242 0
M  V30 2195 H 211.407 -3.72338 0.603702 0
M  V30 2196 H 213.794 -2.95094 -0.0184742 0
M  V30 2197 H 213.875 -2.06431 1.51063 0
M  V30 2198 H 213.519 -4.25467 2.7738 0
M  V30 2199 H 213.449 -5.1228 1.2197 0
M  V30 2200 H 215.94 -3.56174 1.26288 0
M  V30 2201 H 216.253 -7.05086 3.16344 0
M  V30 2202 H 214.598 -6.34387 2.83863 0
M  V30 2203 H 217.789 -4.38301 1.64347 0
M  V30 2204 H 217.962 -5.97416 2.50993 0
M  V30 2205 N 211.368 -0.403325 -1.52352 0
M  V30 2206 C 212.617 0.175668 -2.00934 0
M  V30 2207 C 212.93 1.46718 -1.29356 0
M  V30 2208 O 214.136 2.12708 -1.68724 0
M  V30 2209 C 212.592 0.363612 -3.58058 0
M  V30 2210 C 212.2 -0.915472 -4.38547 0
M  V30 2211 C 213.944 0.89821 -4.14888 0
M  V30 2212 C 211.851 -0.695035 -5.87302 0
M  V30 2213 H 210.781 0.0694234 -0.750797 0
M  V30 2214 H 213.432 -0.527879 -1.75743 0
M  V30 2215 H 211.814 1.12935 -3.79555 0
M  V30 2216 H 212.988 -1.68691 -4.28812 0
M  V30 2217 H 211.303 -1.37606 -3.93006 0
M  V30 2218 H 213.9 1.07907 -5.23699 0
M  V30 2219 H 214.243 1.87126 -3.71873 0
M  V30 2220 H 214.776 0.191681 -3.97338 0
M  V30 2221 H 211.515 -1.63948 -6.34666 0
M  V30 2222 H 211.035 0.0372116 -5.99788 0
M  V30 2223 H 212.714 -0.33497 -6.46132 0
M  V30 2224 N 212.846 1.57033 -0.133567 0
M  V30 2225 C 214.071 2.00475 0.531477 0
M  V30 2226 C 214.496 1.01291 1.58499 0
M  V30 2227 O 213.854 -0.0133279 1.81295 0
M  V30 2228 C 213.902 3.42729 1.12113 0
M  V30 2229 O 213.006 3.46498 2.23636 0
M  V30 2230 H 212.347 0.650876 0.131362 0
M  V30 2231 H 214.877 2.03344 -0.22634 0
M  V30 2232 H 214.887 3.81246 1.4531 0
M  V30 2233 H 213.562 4.14428 0.349557 0
M  V30 2234 H 212.139 3.19811 1.91769 0
M  V30 2235 N 214.325 -0.140222 1.56975 0
M  V30 2236 C 215.275 -1.17827 1.95194 0
M  V30 2237 C 216.259 -1.38195 0.824075 0
M  V30 2238 O 217.451 -1.39643 1.0876 0
M  V30 2239 C 214.58 -2.51024 2.34184 0
M  V30 2240 C 213.666 -2.3422 3.53556 0
M  V30 2241 N 214.057 -1.87185 4.69889 0
M  V30 2242 C 212.355 -2.64949 3.58773 0
M  V30 2243 C 213.056 -1.83586 5.5197 0
M  V30 2244 N 212.032 -2.2715 4.93866 0
M  V30 2245 H 215.834 -0.806817 2.82609 0
M  V30 2246 H 213.348 -0.348208 1.58623 0
M  V30 2247 H 215.345 -3.26074 2.59772 0
M  V30 2248 H 214.005 -2.88945 1.48124 0
M  V30 2249 H 215.016 -1.57048 4.93514 0
M  V30 2250 H 211.693 -3.067 2.8327 0
M  V30 2251 H 213.083 -1.48655 6.55249 0
M  V30 2252 N 215.803 -1.52179 -0.40978 0
M  V30 2253 C 216.733 -1.78435 -1.5061 0
M  V30 2254 C 217.714 -0.635295 -1.57791 0
M  V30 2255 O 218.899 -0.880823 -1.73076 0
M  V30 2256 C 216.029 -1.93444 -2.88439 0
M  V30 2257 C 214.983 -3.09038 -2.96108 0
M  V30 2258 C 214.309 -3.09268 -4.36185 0
M  V30 2259 C 215.609 -4.48508 -2.67652 0
M  V30 2260 H 217.303 -2.70237 -1.28889 0
M  V30 2261 H 214.849 -1.30036 -0.618605 0
M  V30 2262 H 216.802 -2.10394 -3.65119 0
M  V30 2263 H 215.526 -0.983129 -3.11452 0
M  V30 2264 H 214.185 -2.91837 -2.21872 0
M  V30 2265 H 213.833 -2.11861 -4.56206 0
M  V30 2266 H 213.533 -3.86907 -4.42241 0
M  V30 2267 H 215.057 -3.28348 -5.14801 0
M  V30 2268 H 216.471 -4.65918 -3.34056 0
M  V30 2269 H 214.868 -5.28059 -2.85085 0
M  V30 2270 H 215.938 -4.56649 -1.63095 0
M  V30 2271 N 217.281 0.66697 -1.42791 0
M  V30 2272 C 218.228 1.7803 -1.4688 0
M  V30 2273 C 219.198 1.6299 -0.319919 0
M  V30 2274 O 220.383 1.83432 -0.525118 0
M  V30 2275 C 217.523 3.1611 -1.38451 0
M  V30 2276 C 216.636 3.42381 -2.63437 0
M  V30 2277 C 215.771 4.70232 -2.47094 0
M  V30 2278 C 214.81 4.89564 -3.67415 0
M  V30 2279 N 213.947 6.08661 -3.49966 0
M  V30 2280 H 218.787 1.7387 -2.42019 0
M  V30 2281 H 216.324 0.84868 -1.20149 0
M  V30 2282 H 218.282 3.95914 -1.31561 0
M  V30 2283 H 216.912 3.19374 -0.469033 0
M  V30 2284 H 215.964 2.56774 -2.80662 0
M  V30 2285 H 217.276 3.52557 -3.52853 0
M  V30 2286 H 216.43 5.5814 -2.37834 0
M  V30 2287 H 215.169 4.62353 -1.5518 0
M  V30 2288 H 214.174 4.00096 -3.77099 0
M  V30 2289 H 215.399 4.99282 -4.6032 0
M  V30 2290 H 213.345 6.0194 -2.60776 0
M  V30 2291 H 213.262 6.19733 -4.32975 0
M  V30 2292 H 214.53 6.99226 -3.44532 0
M  V30 2293 N 218.759 1.29093 0.90403 0
M  V30 2294 C 219.669 1.15727 2.0407 0
M  V30 2295 C 220.685 0.0815308 1.73809 0
M  V30 2296 O 221.861 0.292749 1.99261 0
M  V30 2297 C 218.926 0.830424 3.36608 0
M  V30 2298 C 217.987 1.98955 3.80415 0
M  V30 2299 C 217.22 1.6782 5.06628 0
M  V30 2300 O 217.443 0.597105 5.67266 0
M  V30 2301 O 216.377 2.52486 5.46383 0
M  V30 2302 H 220.203 2.11171 2.18267 0
M  V30 2303 H 217.788 1.08504 1.027 0
M  V30 2304 H 219.67 0.662521 4.16159 0
M  V30 2305 H 218.345 -0.0942678 3.23563 0
M  V30 2306 H 217.252 2.21267 3.01648 0
M  V30 2307 H 218.585 2.89529 3.98037 0
M  V30 2308 N 220.237 -1.11381 1.11499 0
M  V30 2309 C 221.483 -1.83403 0.865512 0
M  V30 2310 C 221.816 -1.84459 -0.607329 0
M  V30 2311 O 221.091 -1.29811 -1.44842 0
M  V30 2312 C 221.374 -3.30552 1.42855 0
M  V30 2313 C 221.227 -3.37886 2.96906 0
M  V30 2314 C 222.546 -4.26643 1.08 0
M  V30 2315 H 219.665 -0.665879 0.31587 0
M  V30 2316 H 222.307 -1.30601 1.37998 0
M  V30 2317 H 220.457 -3.75648 0.990985 0
M  V30 2318 H 222.129 -3.01343 3.49271 0
M  V30 2319 H 220.372 -2.78088 3.32941 0
M  V30 2320 H 221.043 -4.41458 3.31389 0
M  V30 2321 H 223.519 -3.89729 1.45775 0
M  V30 2322 H 222.395 -5.27986 1.50072 0
M  V30 2323 H 222.656 -4.42099 -0.00915037 0
M  V30 2324 N 221.715 -0.905404 -1.28997 0
M  V30 2325 C 223.126 -0.581953 -1.77398 0
M  V30 2326 C 223.477 0.902552 -1.74208 0
M  V30 2327 O 222.602 1.70584 -1.33154 0
M  V30 2328 C 223.197 -1.04961 -3.22131 0
M  V30 2329 C 221.756 -0.777229 -3.68288 0
M  V30 2330 C 220.903 -1.22109 -2.48967 0
M  V30 2331 H 223.854 -1.08754 -1.15578 0
M  V30 2332 H 223.875 -0.387387 -3.78523 0
M  V30 2333 H 223.387 -2.13008 -3.24421 0
M  V30 2334 H 221.488 0.290383 -3.71467 0
M  V30 2335 H 221.601 -1.37911 -4.58822 0
M  V30 2336 H 219.965 -0.639971 -2.46529 0
M  V30 2337 H 220.748 -2.30972 -2.53982 0
M  V30 2338 N 223.193 1.4272 -0.668489 0
M  V30 2339 C 224.123 2.335 -0.000100175 0
M  V30 2340 C 225.104 1.50328 0.795964 0
M  V30 2341 O 226.289 1.78949 0.754385 0
M  V30 2342 C 223.419 3.33874 0.956302 0
M  V30 2343 C 222.373 4.27152 0.269278 0
M  V30 2344 C 221.699 5.17684 1.33818 0
M  V30 2345 C 222.999 5.15373 -0.847805 0
M  V30 2346 H 224.693 2.89639 -0.758244 0
M  V30 2347 H 222.239 1.39269 -0.366079 0
M  V30 2348 H 224.192 3.9629 1.43292 0
M  V30 2349 H 222.916 2.76025 1.74579 0
M  V30 2350 H 221.575 3.66123 -0.187042 0
M  V30 2351 H 221.223 4.56165 2.1195 0
M  V30 2352 H 220.923 5.80918 0.883659 0
M  V30 2353 H 222.447 5.82974 1.81586 0
M  V30 2354 H 223.861 5.7151 -0.452681 0
M  V30 2355 H 222.258 5.87407 -1.22773 0
M  V30 2356 H 223.328 4.5415 -1.69929 0
M  V30 2357 N 224.671 0.411399 1.52136 0
M  V30 2358 C 225.917 -0.163888 2.02137 0
M  V30 2359 C 226.25 -1.44597 1.29636 0
M  V30 2360 O 225.525 -1.90272 0.403353 0
M  V30 2361 C 225.808 -0.40927 3.57767 0
M  V30 2362 C 225.661 0.889643 4.40914 0
M  V30 2363 C 226.98 -1.19042 4.23694 0
M  V30 2364 H 224.099 -0.0580896 0.734707 0
M  V30 2365 H 226.741 0.54531 1.82007 0
M  V30 2366 H 224.891 -1.0134 3.7505 0
M  V30 2367 H 226.563 1.52575 4.35337 0
M  V30 2368 H 224.806 1.50011 4.07037 0
M  V30 2369 H 225.477 0.672314 5.4789 0
M  V30 2370 H 227.953 -0.678942 4.10524 0
M  V30 2371 H 226.829 -1.33086 5.32522 0
M  V30 2372 H 227.09 -2.21166 3.82803 0
M  V30 2373 N 226.149 -1.5696 0.141893 0
M  V30 2374 C 227.395 -1.9625 -0.511248 0
M  V30 2375 C 227.728 -1.02654 -1.64851 0
M  V30 2376 O 227.003 -0.0679676 -1.94381 0
M  V30 2377 C 227.286 -3.45285 -1.02227 0
M  V30 2378 C 227.139 -4.49658 0.113138 0
M  V30 2379 C 228.458 -3.96698 -1.90574 0
M  V30 2380 H 225.577 -0.713567 -0.184367 0
M  V30 2381 H 228.219 -1.88698 0.222087 0
M  V30 2382 H 226.369 -3.51852 -1.64719 0
M  V30 2383 H 228.041 -4.55174 0.749302 0
M  V30 2384 H 226.284 -4.26857 0.773026 0
M  V30 2385 H 226.955 -5.51258 -0.286053 0
M  V30 2386 H 229.431 -3.92578 -1.37918 0
M  V30 2387 H 228.307 -5.01453 -2.2324 0
M  V30 2388 H 228.568 -3.3875 -2.84079 0
M  V30 2389 N 227.627 0.131896 -1.57047 0
M  V30 2390 C 228.852 0.860418 -1.8871 0
M  V30 2391 C 229.277 1.73251 -0.73251 0
M  V30 2392 O 228.635 1.785 0.317429 0
M  V30 2393 C 228.683 1.68047 -3.19049 0
M  V30 2394 O 227.787 2.7862 -3.04047 0
M  V30 2395 H 227.128 0.238743 -0.619595 0
M  V30 2396 H 229.658 0.118169 -2.04258 0
M  V30 2397 H 229.668 2.07238 -3.51449 0
M  V30 2398 H 228.343 1.04018 -4.02682 0
M  V30 2399 H 226.92 2.42726 -2.83088 0
M  V30 2400 N 229.106 1.52395 0.401703 0
M  V30 2401 C 230.054 1.7689 1.51039 0
M  V30 2402 C 231.048 0.636298 1.56996 0
M  V30 2403 O 232.254 0.818507 1.60314 0
M  V30 2404 H 228.629 0.559502 0.502456 0
M  V30 2405 H 230.6 2.69757 1.27568 0
M  V30 2406 C 229.349 1.94331 2.88324 0
M  V30 2407 H 228.672 2.80905 2.84486 0
M  V30 2408 H 230.112 2.15466 3.65172 0
M  V30 2409 C 228.571 0.712396 3.29282 0
M  V30 2410 O 229.101 -0.116218 4.01532 0
M  V30 2411 N 227.307 0.546154 2.85422 0
M  V30 2412 H 226.854 1.22156 2.26794 0
M  V30 2413 H 226.812 -0.276113 3.13185 0
M  V30 2414 N 230.584 -0.659388 1.43143 0
M  V30 2415 C 231.861 -1.41627 1.34912 0
M  V30 2416 C 232.241 -2.11099 -0.00607785 0
M  V30 2417 O 231.589 -2.04353 -1.02236 0
M  V30 2418 C 231.799 -2.40604 2.52805 0
M  V30 2419 C 233.147 -3.04789 2.95616 0
M  V30 2420 O 234.171 -2.50932 2.52807 0
M  V30 2421 O 233.03 -4.02421 3.69756 0
M  V30 2422 H 230.124 -0.63246 0.532844 0
M  V30 2423 H 232.67 -0.686814 1.5518 0
M  V30 2424 H 231.442 -1.88174 3.43083 0
M  V30 2425 H 231.065 -3.21009 2.34604 0
M  V30 2426 N 232.062 -1.29571 -0.897171 0
M  V30 2427 C 233.311 -1.1706 -1.64256 0
M  V30 2428 C 233.624 0.276476 -1.93636 0
M  V30 2429 O 234.83 0.52294 -2.66416 0
M  V30 2430 C 233.286 -2.0475 -2.95982 0
M  V30 2431 C 232.894 -3.54295 -2.74187 0
M  V30 2432 C 234.638 -2.0097 -3.73914 0
M  V30 2433 C 232.545 -4.34081 -4.01656 0
M  V30 2434 H 231.475 -0.43452 -0.616205 0
M  V30 2435 H 234.126 -1.54229 -0.994268 0
M  V30 2436 H 232.508 -1.60452 -3.62038 0
M  V30 2437 H 233.682 -4.06662 -2.1671 0
M  V30 2438 H 231.997 -3.59773 -2.09648 0
M  V30 2439 H 234.594 -2.57838 -4.68427 0
M  V30 2440 H 234.937 -0.990273 -4.0435 0
M  V30 2441 H 235.47 -2.43325 -3.14703 0
M  V30 2442 H 232.209 -5.36671 -3.76384 0
M  V30 2443 H 231.729 -3.86483 -4.58684 0
M  V30 2444 H 233.408 -4.44877 -4.69781 0
M  V30 2445 N 233.54 1.10788 -1.12088 0
M  V30 2446 C 234.45 2.20599 -0.798338 0
M  V30 2447 C 235.466 1.72712 0.21135 0
M  V30 2448 O 236.642 2.01348 0.0458477 0
M  V30 2449 C 233.707 3.45771 -0.253674 0
M  V30 2450 C 232.768 4.08411 -1.32283 0
M  V30 2451 C 232.001 5.27608 -0.80406 0
M  V30 2452 O 232.224 5.69241 0.363478 0
M  V30 2453 O 231.158 5.8101 -1.57198 0
M  V30 2454 H 234.984 2.50614 -1.7154 0
M  V30 2455 H 232.569 1.19454 -0.897275 0
M  V30 2456 H 234.451 4.21376 0.0453691 0
M  V30 2457 H 233.126 3.1739 0.636005 0
M  V30 2458 H 232.033 3.34507 -1.67499 0
M  V30 2459 H 233.366 4.40986 -2.18614 0
M  V30 2460 N 235.018 0.912232 1.28515 0
M  V30 2461 C 236.243 0.559774 1.99703 0
M  V30 2462 C 236.668 -0.851393 1.67729 0
M  V30 2463 O 236.026 -1.56875 0.908834 0
M  V30 2464 C 236.074 0.773874 3.52198 0
M  V30 2465 O 235.178 -0.167842 4.12058 0
M  V30 2466 H 234.519 0.21723 0.627461 0
M  V30 2467 H 237.049 1.22725 1.63706 0
M  V30 2468 H 237.059 0.683386 4.02236 0
M  V30 2469 H 235.734 1.80261 3.74805 0
M  V30 2470 H 234.311 -0.0287509 3.72889 0
M  V30 2471 N 236.496 -1.42363 0.676048 0
M  V30 2472 C 237.426 -2.33497 0.0124832 0
M  V30 2473 C 238.407 -1.50748 -0.787981 0
M  V30 2474 O 239.592 -1.79346 -0.744884 0
M  V30 2475 C 236.722 -3.34377 -0.938582 0
M  V30 2476 C 235.676 -4.27289 -0.246622 0
M  V30 2477 C 235.002 -5.18386 -1.31071 0
M  V30 2478 C 236.302 -5.14916 0.875125 0
M  V30 2479 H 237.996 -2.89233 0.773593 0
M  V30 2480 H 235.542 -1.39073 0.37346 0
M  V30 2481 H 237.495 -3.97044 -1.41188 0
M  V30 2482 H 236.219 -2.76947 -1.73113 0
M  V30 2483 H 234.878 -3.66018 0.206456 0
M  V30 2484 H 234.526 -4.57282 -2.09528 0
M  V30 2485 H 234.226 -5.81378 -0.852839 0
M  V30 2486 H 235.75 -5.83929 -1.78492 0
M  V30 2487 H 237.164 -5.71262 0.482983 0
M  V30 2488 H 235.561 -5.86747 1.25887 0
M  V30 2489 H 236.631 -4.53242 1.72335 0
M  V30 2490 N 237.974 -0.419461 -1.51915 0
M  V30 2491 C 239.199 0.154572 -2.06823 0
M  V30 2492 C 239.624 1.3722 -1.28656 0
M  V30 2493 O 238.982 1.78461 -0.319583 0
M  V30 2494 C 239.03 0.473172 -3.57482 0
M  V30 2495 O 238.134 1.56255 -3.81652 0
M  V30 2496 H 237.475 0.0096924 -0.663929 0
M  V30 2497 H 240.005 -0.595642 -1.95738 0
M  V30 2498 H 240.015 0.728825 -4.01438 0
M  V30 2499 H 238.69 -0.416873 -4.13805 0
M  V30 2500 H 237.267 1.29825 -3.49571 0
M  V30 2501 N 239.452 1.56882 -0.150215 0
M  V30 2502 C 240.399 2.16922 0.788244 0
M  V30 2503 C 241.369 1.10303 1.24187 0
M  V30 2504 O 242.554 1.38359 1.31383 0
M  V30 2505 C 239.694 2.79754 2.02068 0
M  V30 2506 C 238.807 4.00775 1.61257 0
M  V30 2507 C 237.942 4.51595 2.79705 0
M  V30 2508 C 236.981 5.65074 2.35282 0
M  V30 2509 N 236.118 6.10499 3.4675 0
M  V30 2510 H 240.958 2.96779 0.269444 0
M  V30 2511 H 238.495 1.46599 0.12128 0
M  V30 2512 H 240.453 3.14329 2.74323 0
M  V30 2513 H 239.083 2.02536 2.51354 0
M  V30 2514 H 238.135 3.72158 0.787553 0
M  V30 2515 H 239.447 4.82978 1.24633 0
M  V30 2516 H 238.601 4.88242 3.60145 0
M  V30 2517 H 237.34 3.68406 3.19576 0
M  V30 2518 H 236.345 5.28 1.53283 0
M  V30 2519 H 237.57 6.50052 1.96493 0
M  V30 2520 H 235.516 5.30243 3.86236 0
M  V30 2521 H 235.433 6.87637 3.14152 0
M  V30 2522 H 236.701 6.51791 4.27537 0
M  V30 2523 N 240.93 -0.123565 1.57115 0
M  V30 2524 C 242.158 -0.846461 1.88793 0
M  V30 2525 C 242.573 -1.73652 0.740976 0
M  V30 2526 O 241.93 -1.80207 -0.288393 0
M  V30 2527 C 241.981 -1.6837 3.19897 0
M  V30 2528 O 241.702 -0.829477 4.30176 0
M  V30 2529 C 243.203 -2.51214 3.65248 0
M  V30 2530 H 240.423 -0.243573 0.625231 0
M  V30 2531 H 242.967 -0.109324 2.04208 0
M  V30 2532 H 241.122 -2.37364 3.06165 0
M  V30 2533 H 241.536 -1.40651 5.0529 0
M  V30 2534 H 243.01 -3.05497 4.59756 0
M  V30 2535 H 243.487 -3.28359 2.9168 0
M  V30 2536 H 244.093 -1.8747 3.81752 0
M  V30 2537 N 242.408 -1.52605 -0.393616 0
M  V30 2538 C 243.355 -1.77055 -1.48054 0
M  V30 2539 C 244.325 -0.61358 -1.54352 0
M  V30 2540 O 245.51 -0.852806 -1.70681 0
M  V30 2541 C 242.65 -1.94108 -2.85335 0
M  V30 2542 C 241.763 -3.21792 -2.88226 0
M  V30 2543 C 240.898 -3.29188 -4.16904 0
M  V30 2544 C 239.937 -4.51013 -4.13828 0
M  V30 2545 N 239.074 -4.55716 -5.34105 0
M  V30 2546 H 243.914 -2.69815 -1.26506 0
M  V30 2547 H 241.451 -1.33683 -0.61379 0
M  V30 2548 H 243.409 -2.01979 -3.65049 0
M  V30 2549 H 242.039 -1.04713 -3.05344 0
M  V30 2550 H 241.091 -3.23015 -2.00911 0
M  V30 2551 H 242.403 -4.11557 -2.8182 0
M  V30 2552 H 241.557 -3.36216 -5.05018 0
M  V30 2553 H 240.296 -2.37389 -4.26026 0
M  V30 2554 H 239.301 -4.44115 -3.24102 0
M  V30 2555 H 240.526 -5.44123 -4.06333 0
M  V30 2556 H 238.472 -3.66807 -5.43865 0
M  V30 2557 H 238.389 -5.39346 -5.29756 0
M  V30 2558 H 239.657 -4.66993 -6.2413 0
M  V30 2559 N 243.887 0.651787 -1.4349 0
M  V30 2560 C 244.797 1.79368 -1.5121 0
M  V30 2561 C 245.813 1.69361 -0.399093 0
M  V30 2562 O 246.989 1.90505 -0.653431 0
M  V30 2563 C 244.054 3.15653 -1.43401 0
M  V30 2564 C 243.115 3.37446 -2.65384 0
M  V30 2565 C 242.348 4.67229 -2.57939 0
M  V30 2566 O 242.571 5.46676 -1.62792 0
M  V30 2567 O 241.505 4.90773 -3.48462 0
M  V30 2568 H 245.331 1.7581 -2.47638 0
M  V30 2569 H 242.916 0.810447 -1.25507 0
M  V30 2570 H 244.798 3.96935 -1.41494 0
M  V30 2571 H 243.473 3.19798 -0.501085 0
M  V30 2572 H 242.38 2.55923 -2.72863 0
M  V30 2573 H 243.713 3.38148 -3.57654 0
M  V30 2574 N 245.365 1.30045 0.890287 0
M  V30 2575 C 246.328 1.15963 1.977 0
M  V30 2576 C 247.328 0.0923777 1.60534 0
M  V30 2577 O 248.518 0.340071 1.70848 0
M  V30 2578 C 245.65 0.775451 3.31963 0
M  V30 2579 H 246.843 2.12502 2.11619 0
M  V30 2580 H 244.396 1.13366 1.07601 0
M  V30 2581 H 245.131 -0.189671 3.23745 0
M  V30 2582 H 244.916 1.54668 3.60306 0
M  V30 2583 H 246.406 0.700251 4.11687 0
M  V30 2584 N 246.843 -1.10192 1.12674 0
M  V30 2585 C 248.089 -1.82475 0.884915 0
M  V30 2586 C 248.422 -1.85093 -0.58773 0
M  V30 2587 O 247.697 -1.3134 -1.43457 0
M  V30 2588 C 247.98 -3.29018 1.46353 0
M  V30 2589 C 247.833 -3.34718 3.00473 0
M  V30 2590 C 249.152 -4.25473 1.12519 0
M  V30 2591 H 246.271 -0.662492 0.322915 0
M  V30 2592 H 248.913 -1.2913 1.39375 0
M  V30 2593 H 247.063 -3.74576 1.03077 0
M  V30 2594 H 248.735 -2.97622 3.52447 0
M  V30 2595 H 246.978 -2.74541 3.35872 0
M  V30 2596 H 247.649 -4.37918 3.36053 0
M  V30 2597 H 250.125 -3.88161 1.499 0
M  V30 2598 H 249.001 -5.26365 1.55663 0
M  V30 2599 H 249.262 -4.42084 0.0377407 0
M  V30 2600 N 248.321 -0.919034 -1.28029 0
M  V30 2601 C 249.269 -0.401753 -2.29104 0
M  V30 2602 C 250.263 0.509354 -1.61561 0
M  V30 2603 O 251.469 0.390014 -1.75724 0
M  V30 2604 H 247.844 -0.111331 -0.743713 0
M  V30 2605 H 249.815 -1.2672 -2.70156 0
M  V30 2606 C 248.564 0.338148 -3.46052 0
M  V30 2607 H 247.887 -0.353732 -3.98232 0
M  V30 2608 H 249.327 0.664653 -4.18758 0
M  V30 2609 C 247.786 1.54798 -2.99231 0
M  V30 2610 O 248.316 2.64696 -3.02157 0
M  V30 2611 N 246.522 1.3968 -2.54829 0
M  V30 2612 H 246.069 0.502698 -2.52647 0
M  V30 2613 H 246.027 2.20755 -2.23863 0
M  V30 2614 N 249.799 1.42003 -0.683588 0
M  V30 2615 C 251.046 2.01413 -0.209514 0
M  V30 2616 C 251.374 1.54088 1.1869 0
M  V30 2617 O 250.629 0.737591 1.81268 0
M  V30 2618 C 250.928 3.56827 -0.202357 0
M  V30 2619 C 250.594 4.23617 -1.54464 0
M  V30 2620 C 249.256 4.41577 -1.91215 0
M  V30 2621 C 251.608 4.61178 -2.42826 0
M  V30 2622 C 248.936 4.9437 -3.15935 0
M  V30 2623 C 251.288 5.15355 -3.66867 0
M  V30 2624 C 249.952 5.31528 -4.03776 0
M  V30 2625 H 249.222 0.737023 -0.0766668 0
M  V30 2626 H 251.869 1.70067 -0.880312 0
M  V30 2627 H 250.174 3.87892 0.551969 0
M  V30 2628 H 251.871 4.00588 0.181793 0
M  V30 2629 H 248.461 4.10004 -1.24877 0
M  V30 2630 H 252.645 4.46968 -2.15717 0
M  V30 2631 H 247.901 5.05076 -3.44541 0
M  V30 2632 H 252.075 5.43402 -4.35531 0
M  V30 2633 H 249.702 5.72199 -5.00492 0
M  V30 2634 N 251.277 0.427512 1.51691 0
M  V30 2635 C 252.207 -0.3796 2.30394 0
M  V30 2636 C 253.188 -1.02982 1.35384 0
M  V30 2637 O 254.373 -1.03534 1.643 0
M  V30 2638 C 251.503 -1.48649 3.1388 0
M  V30 2639 C 250.457 -0.960294 4.17088 0
M  V30 2640 C 249.783 -2.16219 4.89033 0
M  V30 2641 C 251.083 -0.00153679 5.223 0
M  V30 2642 H 252.777 0.277164 2.98114 0
M  V30 2643 H 250.323 0.134739 1.43368 0
M  V30 2644 H 252.276 -2.05826 3.67714 0
M  V30 2645 H 251 -2.1714 2.43962 0
M  V30 2646 H 249.659 -0.410806 3.64291 0
M  V30 2647 H 249.307 -2.83307 4.15628 0
M  V30 2648 H 249.007 -1.81654 5.58816 0
M  V30 2649 H 250.531 -2.73968 5.45687 0
M  V30 2650 H 251.945 -0.482687 5.71264 0
M  V30 2651 H 250.342 0.256199 5.99553 0
M  V30 2652 H 251.412 0.938174 4.75738 0
M  V30 2653 N 252.755 -1.56801 0.158532 0
M  V30 2654 C 254.001 -1.96781 -0.490405 0
M  V30 2655 C 254.334 -1.04397 -1.63753 0
M  V30 2656 O 253.609 -0.0885805 -1.94298 0
M  V30 2657 C 253.892 -3.4635 -0.985594 0
M  V30 2658 C 253.745 -4.49512 0.160824 0
M  V30 2659 C 255.064 -3.98697 -1.86355 0
M  V30 2660 H 252.183 -0.715482 -0.176788 0
M  V30 2661 H 254.825 -1.88451 0.242088 0
M  V30 2662 H 252.975 -3.53579 -1.60978 0
M  V30 2663 H 254.647 -4.54353 0.797537 0
M  V30 2664 H 252.89 -4.26013 0.818256 0
M  V30 2665 H 253.561 -5.51531 -0.227569 0
M  V30 2666 H 256.037 -3.94019 -1.33746 0
M  V30 2667 H 254.913 -5.03792 -2.17909 0
M  V30 2668 H 255.174 -3.41744 -2.8047 0
M  V30 2669 N 254.233 0.115231 -1.57178 0
M  V30 2670 C 255.458 0.840354 -1.89612 0
M  V30 2671 C 255.883 1.72464 -0.750845 0
M  V30 2672 O 255.241 1.78826 0.298478 0
M  V30 2673 C 255.289 1.64654 -3.20814 0
M  V30 2674 O 254.393 2.7538 -3.06985 0
M  V30 2675 H 253.734 0.232158 -0.622092 0
M  V30 2676 H 256.264 0.0964977 -2.04372 0
M  V30 2677 H 256.274 2.03499 -3.53627 0
M  V30 2678 H 254.949 0.997416 -4.03763 0
M  V30 2679 H 253.526 2.3971 -2.85646 0
M  V30 2680 N 255.711 1.52812 0.385517 0
M  V30 2681 C 256.641 1.80808 1.47752 0
M  V30 2682 C 257.622 0.660318 1.5676 0
M  V30 2683 O 258.807 0.908246 1.71652 0
M  V30 2684 C 255.937 1.98008 2.85324 0
M  V30 2685 C 254.891 3.13709 2.91154 0
M  V30 2686 C 254.217 3.16169 4.31209 0
M  V30 2687 C 255.517 4.52709 2.60483 0
M  V30 2688 H 257.211 2.72253 1.24573 0
M  V30 2689 H 254.757 1.31003 0.597839 0
M  V30 2690 H 256.71 2.16176 3.61726 0
M  V30 2691 H 255.434 1.03255 3.09848 0
M  V30 2692 H 254.093 2.95329 2.17201 0
M  V30 2693 H 253.741 2.19092 4.52778 0
M  V30 2694 H 253.441 3.93894 4.36029 0
M  V30 2695 H 254.965 3.36496 5.09512 0
M  V30 2696 H 256.379 4.71173 3.26602 0
M  V30 2697 H 254.776 5.32528 2.76648 0
M  V30 2698 H 255.846 4.59186 1.55809 0
M  V30 2699 N 257.189 -0.644168 1.43834 0
M  V30 2700 C 258.437 -1.40117 1.45642 0
M  V30 2701 C 258.758 -1.94814 0.0852413 0
M  V30 2702 O 258.028 -1.74988 -0.880688 0
M  V30 2703 H 256.608 -0.52005 0.536243 0
M  V30 2704 H 259.27 -0.7591 1.7951 0
M  V30 2705 H 258.366 -2.23902 2.17427 0
M  V30 2706 N 258.668 -1.30515 -0.883378 0
M  V30 2707 C 259.598 -1.19607 -2.00541 0
M  V30 2708 C 260.579 -0.086346 -1.69881 0
M  V30 2709 O 261.764 -0.268654 -1.92333 0
M  V30 2710 C 258.894 -0.888758 -3.35736 0
M  V30 2711 C 257.848 -1.95659 -3.8066 0
M  V30 2712 C 257.174 -1.50224 -5.13164 0
M  V30 2713 C 258.474 -3.36788 -3.99213 0
M  V30 2714 H 260.168 -2.13476 -2.09925 0
M  V30 2715 H 257.714 -1.02775 -1.00863 0
M  V30 2716 H 259.667 -0.799094 -4.13754 0
M  V30 2717 H 258.391 0.0856125 -3.26488 0
M  V30 2718 H 257.05 -2.03591 -3.04871 0
M  V30 2719 H 256.698 -0.516092 -5.00345 0
M  V30 2720 H 256.398 -2.2165 -5.44192 0
M  V30 2721 H 257.922 -1.42639 -5.93706 0
M  V30 2722 H 259.336 -3.31605 -4.67665 0
M  V30 2723 H 257.733 -4.06314 -4.41621 0
M  V30 2724 H 258.803 -3.78561 -3.03017 0
M  V30 2725 N 260.146 1.09593 -1.13257 0
M  V30 2726 C 261.093 2.1618 -0.808381 0
M  V30 2727 C 262.063 1.64517 0.228754 0
M  V30 2728 O 263.248 1.9053 0.101381 0
M  V30 2729 C 260.388 3.43973 -0.278675 0
M  V30 2730 C 259.501 4.09545 -1.37466 0
M  V30 2731 C 258.636 5.25088 -0.803479 0
M  V30 2732 C 257.675 5.82579 -1.87799 0
M  V30 2733 N 256.812 6.89486 -1.32488 0
M  V30 2734 H 261.652 2.43254 -1.72138 0
M  V30 2735 H 259.189 1.19392 -0.859294 0
M  V30 2736 H 261.147 4.17174 0.0465583 0
M  V30 2737 H 259.777 3.17223 0.597459 0
M  V30 2738 H 258.829 3.34226 -1.81652 0
M  V30 2739 H 260.141 4.48307 -2.18684 0
M  V30 2740 H 259.295 6.05178 -0.429427 0
M  V30 2741 H 258.034 4.87684 0.0397956 0
M  V30 2742 H 257.039 5.01152 -2.26113 0
M  V30 2743 H 258.264 6.22045 -2.72463 0
M  V30 2744 H 256.21 6.54064 -0.503575 0
M  V30 2745 H 256.127 7.27007 -2.07355 0
M  V30 2746 H 257.395 7.73336 -0.978336 0
M  V30 2747 N 261.624 0.925811 1.2754 0
M  V30 2748 C 262.901 0.483726 1.89524 0
M  V30 2749 C 263.281 -1.03809 1.83812 0
M  V30 2750 O 262.629 -1.89143 1.28207 0
M  V30 2751 C 262.839 1.02769 3.33526 0
M  V30 2752 C 264.187 1.08703 4.10449 0
M  V30 2753 O 265.211 0.977175 3.42534 0
M  V30 2754 O 264.07 1.25599 5.31871 0
M  V30 2755 H 261.164 0.15529 0.812289 0
M  V30 2756 H 263.71 1.01738 1.35822 0
M  V30 2757 H 262.482 2.07155 3.31967 0
M  V30 2758 H 262.105 0.475567 3.94746 0
M  V30 2759 N 263.102 -1.41638 0.69111 0
M  V30 2760 C 264.012 -2.34588 0.0233487 0
M  V30 2761 C 265.028 -1.55987 -0.770984 0
M  V30 2762 O 266.204 -1.88486 -0.709569 0
M  V30 2763 C 263.269 -3.34684 -0.904851 0
M  V30 2764 C 262.33 -4.29176 -0.103225 0
M  V30 2765 C 261.563 -5.2449 -0.987216 0
M  V30 2766 O 261.786 -5.2514 -2.22674 0
M  V30 2767 O 260.72 -6.00295 -0.439281 0
M  V30 2768 H 264.546 -2.93261 0.789416 0
M  V30 2769 H 262.131 -1.42417 0.45142 0
M  V30 2770 H 264.013 -3.96133 -1.43724 0
M  V30 2771 H 262.688 -2.78461 -1.65049 0
M  V30 2772 H 261.595 -3.71089 0.473655 0
M  V30 2773 H 262.928 -4.88484 0.60365 0
M  V30 2774 N 264.58 -0.43555 -1.51462 0
M  V30 2775 C 265.826 0.131709 -2.02372 0
M  V30 2776 C 266.159 1.42516 -1.3192 0
M  V30 2777 O 265.434 1.89606 -0.433573 0
M  V30 2778 C 265.717 0.352301 -3.58373 0
M  V30 2779 C 265.57 -0.959676 -4.39443 0
M  V30 2780 C 266.889 1.12286 -4.25535 0
M  V30 2781 H 264.008 0.0463936 -0.735538 0
M  V30 2782 H 266.65 -0.574197 -1.81116 0
M  V30 2783 H 264.8 0.9536 -3.76615 0
M  V30 2784 H 266.472 -1.59482 -4.32855 0
M  V30 2785 H 264.715 -1.56468 -4.04599 0
M  V30 2786 H 265.386 -0.759394 -5.46752 0
M  V30 2787 H 267.862 0.613545 -4.11552 0
M  V30 2788 H 266.738 1.24598 -5.34571 0
M  V30 2789 H 266.999 2.15048 -3.86273 0
M  V30 2790 N 266.058 1.56714 -0.166846 0
M  V30 2791 C 267.006 2.19056 0.782123 0
M  V30 2792 C 268 1.15328 1.24079 0
M  V30 2793 O 269.206 1.33537 1.20697 0
M  V30 2794 H 265.581 0.70167 0.270486 0
M  V30 2795 H 267.552 2.97494 0.232322 0
M  V30 2796 C 266.301 2.84206 2.00306 0
M  V30 2797 H 265.624 3.63748 1.65914 0
M  V30 2798 H 267.064 3.31302 2.64604 0
M  V30 2799 C 265.523 1.83744 2.82382 0
M  V30 2800 O 266.053 1.32014 3.79388 0
M  V30 2801 N 264.259 1.52601 2.47308 0
M  V30 2802 H 263.806 1.9486 1.68485 0
M  V30 2803 H 263.764 0.856351 3.02513 0
M  V30 2804 N 267.536 -0.106894 1.57237 0
M  V30 2805 C 268.952 -0.46078 1.52804 0
M  V30 2806 C 269.152 -1.81184 0.881746 0
M  V30 2807 O 268.208 -2.48102 0.469224 0
M  V30 2808 C 269.521 -0.434127 2.9755 0
M  V30 2809 C 271.069 -0.516821 3.08704 0
M  V30 2810 C 271.544 -0.520436 4.55033 0
M  V30 2811 N 273.035 -0.58153 4.59535 0
M  V30 2812 C 273.77 -0.605973 5.70189 0
M  V30 2813 N 273.266 -0.587331 6.90306 0
M  V30 2814 N 275.059 -0.649895 5.5833 0
M  V30 2815 H 267.21 0.778203 1.9763 0
M  V30 2816 H 269.473 0.288403 0.903066 0
M  V30 2817 H 269.179 0.491197 3.48253 0
M  V30 2818 H 269.053 -1.25748 3.55622 0
M  V30 2819 H 271.44 -1.43256 2.57995 0
M  V30 2820 H 271.521 0.334449 2.53604 0
M  V30 2821 H 271.165 0.391313 5.0639 0
M  V30 2822 H 271.095 -1.38876 5.07958 0
M  V30 2823 H 273.586 -0.60161 3.73081 0
M  V30 2824 H 273.899 -0.60894 7.70397 0
M  V30 2825 H 272.244 -0.554564 6.92784 0
M  V30 2826 H 275.435 -0.661907 4.63397 0
M  V30 2827 H 275.608 -0.665476 6.44574 0
M  V30 2828 N 269.014 -1.53014 -0.377408 0
M  V30 2829 C 269.944 -1.81589 -1.46791 0
M  V30 2830 C 270.925 -0.668622 -1.56408 0
M  V30 2831 O 272.11 -0.917337 -1.71168 0
M  V30 2832 C 269.24 -1.99519 -2.8427 0
M  V30 2833 C 268.194 -3.15249 -2.89486 0
M  V30 2834 C 267.52 -3.18451 -4.29527 0
M  V30 2835 C 268.82 -4.54084 -2.58079 0
M  V30 2836 H 270.514 -2.7291 -1.23127 0
M  V30 2837 H 268.06 -1.31319 -0.590883 0
M  V30 2838 H 270.013 -2.18092 -3.60575 0
M  V30 2839 H 268.737 -1.04897 -3.09296 0
M  V30 2840 H 267.396 -2.96477 -2.15631 0
M  V30 2841 H 267.044 -2.2149 -4.5161 0
M  V30 2842 H 266.744 -3.962 -4.33934 0
M  V30 2843 H 268.268 -3.39193 -5.07721 0
M  V30 2844 H 269.682 -4.72899 -3.24098 0
M  V30 2845 H 268.079 -5.33987 -2.7382 0
M  V30 2846 H 269.149 -4.60006 -1.53372 0
M  V30 2847 N 270.492 0.636531 -1.44174 0
M  V30 2848 C 271.738 1.39826 -1.4689 0
M  V30 2849 C 272.071 1.93947 -0.0990585 0
M  V30 2850 O 271.346 1.73325 0.882544 0
M  V30 2851 C 271.629 2.56751 -2.5249 0
M  V30 2852 C 271.482 2.08014 -3.98811 0
M  V30 2853 C 272.801 3.58946 -2.54649 0
M  V30 2854 H 269.92 0.507075 -0.53483 0
M  V30 2855 H 272.562 0.720188 -1.75822 0
M  V30 2856 H 270.712 3.14597 -2.2795 0
M  V30 2857 H 272.384 1.5504 -4.34466 0
M  V30 2858 H 270.627 1.39242 -4.10846 0
M  V30 2859 H 271.298 2.92169 -4.68339 0
M  V30 2860 H 273.774 3.1089 -2.76563 0
M  V30 2861 H 272.65 4.38286 -3.3045 0
M  V30 2862 H 272.911 4.12655 -1.58646 0
M  V30 2863 N 271.97 1.30982 0.876444 0
M  V30 2864 C 272.917 1.18085 1.98304 0
M  V30 2865 C 273.887 0.0682263 1.6596 0
M  V30 2866 O 275.072 0.239937 1.89285 0
M  V30 2867 C 272.212 0.887475 3.33493 0
M  V30 2868 C 271.325 2.08281 3.78475 0
M  V30 2869 C 270.46 1.72678 5.0235 0
M  V30 2870 C 269.499 2.88657 5.39762 0
M  V30 2871 N 268.636 2.53292 6.54819 0
M  V30 2872 H 273.476 2.1275 2.08666 0
M  V30 2873 H 271.013 1.05839 1.02159 0
M  V30 2874 H 272.971 0.697961 4.1132 0
M  V30 2875 H 271.601 -0.022315 3.22792 0
M  V30 2876 H 270.653 2.3833 2.96484 0
M  V30 2877 H 271.965 2.95108 4.02135 0
M  V30 2878 H 271.119 1.50151 5.87826 0
M  V30 2879 H 269.858 0.830327 4.8058 0
M  V30 2880 H 268.863 3.1184 4.52809 0
M  V30 2881 H 270.088 3.79002 5.63502 0
M  V30 2882 H 268.034 1.66163 6.34607 0
M  V30 2883 H 267.951 3.3365 6.7839 0
M  V30 2884 H 269.219 2.34143 7.43503 0
M  V30 2885 N 273.449 -1.08991 1.13837 0
M  V30 2886 C 274.674 -1.85551 0.926585 0
M  V30 2887 C 275.099 -1.80782 -0.519566 0
M  V30 2888 O 274.457 -1.18855 -1.36906 0
M  V30 2889 C 274.505 -3.31266 1.42462 0
M  V30 2890 O 273.609 -4.07822 0.612789 0
M  V30 2891 H 272.95 -0.575192 0.331738 0
M  V30 2892 H 275.48 -1.37604 1.51414 0
M  V30 2893 H 275.49 -3.82112 1.43019 0
M  V30 2894 H 274.165 -3.34052 2.47754 0
M  V30 2895 H 272.742 -3.66731 0.675463 0
M  V30 2896 N 274.927 -0.932562 -1.27047 0
M  V30 2897 C 275.874 -0.434072 -2.26681 0
M  V30 2898 C 276.844 0.501639 -1.58344 0
M  V30 2899 O 278.029 0.419734 -1.86126 0
M  V30 2900 C 275.169 0.30261 -3.43771 0
M  V30 2901 C 274.282 -0.667774 -4.26808 0
M  V30 2902 C 273.417 0.0892393 -5.31125 0
M  V30 2903 C 272.456 -0.873532 -6.05835 0
M  V30 2904 N 271.593 -0.148832 -7.01942 0
M  V30 2905 H 276.433 -1.28868 -2.68695 0
M  V30 2906 H 273.97 -0.646713 -1.32121 0
M  V30 2907 H 275.928 0.746092 -4.10474 0
M  V30 2908 H 274.558 1.12142 -3.02695 0
M  V30 2909 H 273.61 -1.22978 -3.59973 0
M  V30 2910 H 274.922 -1.40337 -4.78651 0
M  V30 2911 H 274.076 0.592409 -6.03801 0
M  V30 2912 H 272.815 0.85777 -4.80097 0
M  V30 2913 H 271.82 -1.38791 -5.31994 0
M  V30 2914 H 273.045 -1.64193 -6.58952 0
M  V30 2915 H 270.991 0.601365 -6.53238 0
M  V30 2916 H 270.908 -0.82391 -7.51497 0
M  V30 2917 H 272.176 0.333527 -7.78786 0
M  V30 2918 N 276.405 1.4127 -0.698611 0
M  V30 2919 C 277.352 2.30773 -0.0352094 0
M  V30 2920 C 278.322 1.47273 0.768111 0
M  V30 2921 O 279.507 1.76053 0.735524 0
M  V30 2922 C 276.647 3.33346 0.893 0
M  V30 2923 C 275.76 4.31924 0.0809695 0
M  V30 2924 C 274.895 5.21566 1.0071 0
M  V30 2925 C 273.934 6.11811 0.188155 0
M  V30 2926 N 273.071 6.93926 1.06825 0
M  V30 2927 H 277.911 2.86943 -0.804207 0
M  V30 2928 H 275.448 1.4132 -0.408294 0
M  V30 2929 H 277.406 3.91368 1.44523 0
M  V30 2930 H 276.036 2.78719 1.62836 0
M  V30 2931 H 275.088 3.75825 -0.588224 0
M  V30 2932 H 276.4 4.95716 -0.553801 0
M  V30 2933 H 275.554 5.84437 1.62845 0
M  V30 2934 H 274.293 4.58008 1.67572 0
M  V30 2935 H 273.298 5.47986 -0.446254 0
M  V30 2936 H 274.523 6.77425 -0.476716 0
M  V30 2937 H 272.469 6.32973 1.72283 0
M  V30 2938 H 272.386 7.54416 0.489123 0
M  V30 2939 H 273.654 7.61262 1.67632 0
M  V30 2940 N 277.883 0.443576 1.51229 0
M  V30 2941 C 279.132 -0.122332 2.01329 0
M  V30 2942 C 279.445 -1.43237 1.33201 0
M  V30 2943 O 280.651 -2.0816 1.74304 0
M  V30 2944 C 279.107 -0.268551 3.58897 0
M  V30 2945 C 278.715 1.03142 4.35965 0
M  V30 2946 C 280.459 -0.787894 4.17124 0
M  V30 2947 C 278.366 0.850504 5.85252 0
M  V30 2948 H 277.296 -0.0494929 0.752374 0
M  V30 2949 H 279.947 0.574289 1.74282 0
M  V30 2950 H 278.329 -1.02832 3.82415 0
M  V30 2951 H 279.503 1.80001 4.24189 0
M  V30 2952 H 277.818 1.47977 3.89219 0
M  V30 2953 H 280.415 -0.939841 5.26375 0
M  V30 2954 H 280.758 -1.77201 3.76703 0
M  V30 2955 H 281.291 -0.0862669 3.97706 0
M  V30 2956 H 278.03 1.80718 6.30096 0
M  V30 2957 H 277.55 0.121825 5.99676 0
M  V30 2958 H 279.229 0.506163 6.45017 0
M  V30 2959 N 279.361 -1.56624 0.175154 0
M  V30 2960 C 280.777 -1.58571 -0.180966 0
M  V30 2961 C 280.977 -1.19065 -1.6256 0
M  V30 2962 O 280.033 -0.904044 -2.35761 0
M  V30 2963 C 281.346 -3.00522 0.103326 0
M  V30 2964 C 282.894 -3.12972 0.0418426 0
M  V30 2965 C 283.369 -4.57022 0.299175 0
M  V30 2966 N 284.86 -4.62541 0.247086 0
M  V30 2967 C 285.595 -5.71857 0.420318 0
M  V30 2968 N 285.091 -6.89717 0.652816 0
M  V30 2969 N 286.884 -5.60972 0.355957 0
M  V30 2970 H 279.035 -1.80589 1.11809 0
M  V30 2971 H 281.298 -0.837178 0.444788 0
M  V30 2972 H 281.004 -3.33916 1.10422 0
M  V30 2973 H 280.878 -3.72344 -0.603299 0
M  V30 2974 H 283.265 -2.79403 -0.949636 0
M  V30 2975 H 283.346 -2.43578 0.781238 0
M  V30 2976 H 282.99 -4.913 1.28788 0
M  V30 2977 H 282.92 -5.24579 -0.460876 0
M  V30 2978 H 285.411 -3.77829 0.0731895 0
M  V30 2979 H 285.724 -7.68911 0.774347 0
M  V30 2980 H 284.069 -6.91572 0.689476 0
M  V30 2981 H 287.26 -4.67773 0.174882 0
M  V30 2982 H 287.433 -6.46111 0.494388 0
M  V30 2983 N 280.839 0.0985539 -1.57292 0
M  V30 2984 C 281.802 1.10402 -2.00858 0
M  V30 2985 C 282.802 1.33146 -0.901593 0
M  V30 2986 O 283.992 1.29318 -1.16716 0
M  V30 2987 C 281.124 2.45394 -2.36632 0
M  V30 2988 H 282.317 0.729099 -2.90902 0
M  V30 2989 H 279.87 0.343495 -1.52479 0
M  V30 2990 H 280.605 2.87769 -1.49531 0
M  V30 2991 H 280.39 2.30235 -3.17387 0
M  V30 2992 H 281.88 3.17718 -2.71007 0
M  V30 2993 N 282.317 1.53212 0.369288 0
M  V30 2994 C 283.565 1.68881 1.11012 0
M  V30 2995 C 283.886 0.441285 1.89941 0
M  V30 2996 O 283.156 -0.544623 1.88177 0
M  V30 2997 H 281.736 0.622569 0.412816 0
M  V30 2998 H 284.398 1.90391 0.416802 0
M  V30 2999 H 283.494 2.54822 1.80201 0
M  V30 3000 N 283.795 -0.628877 1.44509 0
M  V30 3001 C 284.742 -1.74074 1.51549 0
M  V30 3002 C 285.712 -1.62084 0.363021 0
M  V30 3003 O 286.897 -1.81975 0.573567 0
M  V30 3004 C 284.037 -3.12328 1.46784 0
M  V30 3005 C 283.15 -3.35277 2.72422 0
M  V30 3006 C 282.285 -4.63515 2.59475 0
M  V30 3007 C 281.324 -4.7965 3.80266 0
M  V30 3008 N 280.461 -5.99168 3.65981 0
M  V30 3009 H 285.301 -1.67392 2.46544 0
M  V30 3010 H 282.838 -0.816527 1.22357 0
M  V30 3011 H 284.796 -3.92286 1.42012 0
M  V30 3012 H 283.426 -3.18018 0.553544 0
M  V30 3013 H 282.478 -2.49242 2.87372 0
M  V30 3014 H 283.79 -3.43078 3.62076 0
M  V30 3015 H 282.944 -5.51638 2.52548 0
M  V30 3016 H 281.683 -4.58076 1.67384 0
M  V30 3017 H 280.688 -3.89957 3.87574 0
M  V30 3018 H 281.913 -4.86902 4.73395 0
M  V30 3019 H 279.859 -5.94814 2.76644 0
M  V30 3020 H 279.776 -6.08035 4.49254 0
M  V30 3021 H 281.044 -6.89846 3.6295 0
M  V30 3022 N 285.273 -1.31445 -0.869486 0
M  V30 3023 C 286.521 -1.20918 -1.61936 0
M  V30 3024 C 286.842 0.232683 -1.93607 0
M  V30 3025 O 286.112 1.15352 -1.58338 0
M  V30 3026 H 284.692 -0.44454 -0.600328 0
M  V30 3027 H 287.354 -1.64776 -1.0409 0
M  V30 3028 H 286.45 -1.78124 -2.56278 0
M  V30 3029 N 286.751 1.08385 -1.14413 0
M  V30 3030 C 287.698 2.15311 -0.831265 0
M  V30 3031 C 288.668 1.64751 0.211292 0
M  V30 3032 O 289.853 1.90627 0.0811674 0
M  V30 3033 C 286.993 3.43658 -0.315143 0
M  V30 3034 C 286.106 4.08064 -1.41802 0
M  V30 3035 C 285.241 5.24207 -0.859126 0
M  V30 3036 C 284.28 5.80554 -1.93967 0
M  V30 3037 N 283.417 6.88042 -1.39793 0
M  V30 3038 H 288.257 2.41415 -1.74708 0
M  V30 3039 H 285.794 1.18474 -0.871909 0
M  V30 3040 H 287.752 4.172 0.00230884 0
M  V30 3041 H 286.382 3.17839 0.56378 0
M  V30 3042 H 285.434 3.3228 -1.85187 0
M  V30 3043 H 286.746 4.45962 -2.23427 0
M  V30 3044 H 285.9 6.04689 -0.49359 0
M  V30 3045 H 284.639 4.87699 -0.011932 0
M  V30 3046 H 283.644 4.98725 -2.31415 0
M  V30 3047 H 284.869 6.19121 -2.79046 0
M  V30 3048 H 282.815 6.53493 -0.572919 0
M  V30 3049 H 282.732 7.24767 -2.15054 0
M  V30 3050 H 284 7.72255 -1.0603 0
M  V30 3051 N 288.23 0.939286 1.26551 0
M  V30 3052 C 289.163 0.391702 2.24813 0
M  V30 3053 C 290.141 -0.518421 1.54114 0
M  V30 3054 O 291.325 -0.456299 1.82894 0
M  V30 3055 C 288.452 -0.437382 3.35864 0
M  V30 3056 C 287.498 0.410946 4.24516 0
M  V30 3057 S 288.331 1.83372 5.03125 0
M  V30 3058 C 289.487 1.01264 6.17654 0
M  V30 3059 H 289.72 1.22448 2.70913 0
M  V30 3060 H 287.253 0.742269 1.35387 0
M  V30 3061 H 289.211 -0.909837 4.0029 0
M  V30 3062 H 287.872 -1.24482 2.8838 0
M  V30 3063 H 287.065 -0.224191 5.03501 0
M  V30 3064 H 286.667 0.818014 3.64945 0
M  V30 3065 H 288.959 0.254023 6.77024 0
M  V30 3066 H 289.902 1.77589 6.85469 0
M  V30 3067 H 290.31 0.549532 5.61819 0
M  V30 3068 N 289.708 -1.40897 0.706093 0
M  V30 3069 C 291.124 -1.55042 0.37869 0
M  V30 3070 C 291.324 -1.67944 -1.11342 0
M  V30 3071 O 290.38 -1.66372 -1.89938 0
M  V30 3072 C 291.693 -2.78398 1.13643 0
M  V30 3073 C 293.241 -2.92206 1.12181 0
M  V30 3074 C 293.716 -4.18463 1.86152 0
M  V30 3075 N 295.207 -4.25443 1.83173 0
M  V30 3076 C 295.942 -5.2202 2.37239 0
M  V30 3077 N 295.438 -6.24563 2.99821 0
M  V30 3078 N 297.231 -5.14033 2.27435 0
M  V30 3079 H 289.382 -1.30769 1.67372 0
M  V30 3080 H 291.645 -0.631653 0.706907 0
M  V30 3081 H 291.351 -2.7511 2.19106 0
M  V30 3082 H 291.225 -3.70228 0.721853 0
M  V30 3083 H 293.612 -2.95004 0.0754171 0
M  V30 3084 H 293.693 -2.01521 1.57554 0
M  V30 3085 H 293.337 -4.16427 2.90776 0
M  V30 3086 H 293.267 -5.08141 1.38206 0
M  V30 3087 H 295.758 -3.51976 1.37556 0
M  V30 3088 H 296.071 -6.94665 3.38616 0
M  V30 3089 H 294.416 -6.25035 3.03902 0
M  V30 3090 H 297.607 -4.3285 1.78208 0
M  V30 3091 H 297.78 -5.89129 2.69873 0
M  V30 3092 N 291.186 -0.45159 -1.50991 0
M  V30 3093 C 292.134 0.366864 -2.29689 0
M  V30 3094 C 293.128 1.00809 -1.36139 0
M  V30 3095 O 294.334 0.941427 -1.53418 0
M  V30 3096 H 290.709 0.137133 -0.739391 0
M  V30 3097 H 292.68 -0.317538 -2.96706 0
M  V30 3098 C 291.429 1.44751 -3.16137 0
M  V30 3099 H 290.752 0.963473 -3.88017 0
M  V30 3100 H 292.192 1.99315 -3.74232 0
M  V30 3101 C 290.651 2.43869 -2.32442 0
M  V30 3102 O 291.181 3.4872 -1.99392 0
M  V30 3103 N 289.387 2.15105 -1.95392 0
M  V30 3104 H 288.934 1.29866 -2.22469 0
M  V30 3105 H 288.892 2.81661 -1.39693 0
M  V30 3106 N 292.664 1.56529 -0.183458 0
M  V30 3107 C 294.08 1.58664 0.172554 0
M  V30 3108 C 294.28 1.19925 1.61926 0
M  V30 3109 O 293.336 0.916534 2.35278 0
M  V30 3110 C 294.649 3.00463 -0.119262 0
M  V30 3111 C 296.197 3.12945 -0.0584396 0
M  V30 3112 C 296.672 4.56857 -0.323408 0
M  V30 3113 N 298.163 4.62403 -0.271612 0
M  V30 3114 C 298.898 5.71626 -0.450639 0
M  V30 3115 N 298.394 6.89362 -0.689384 0
M  V30 3116 N 300.187 5.60775 -0.385701 0
M  V30 3117 H 292.338 1.79994 -1.12765 0
M  V30 3118 H 294.601 0.834808 -0.449222 0
M  V30 3119 H 294.307 3.33326 -1.12192 0
M  V30 3120 H 294.181 3.72659 0.583544 0
M  V30 3121 H 296.568 2.79902 0.934805 0
M  V30 3122 H 296.649 2.4316 -0.794144 0
M  V30 3123 H 296.293 4.9061 -1.31392 0
M  V30 3124 H 296.223 5.24816 0.43305 0
M  V30 3125 H 298.714 3.77785 -0.0932256 0
M  V30 3126 H 299.027 7.68489 -0.815113 0
M  V30 3127 H 297.372 6.91196 -0.726142 0
M  V30 3128 H 300.563 4.67674 -0.199687 0
M  V30 3129 H 300.736 6.4584 -0.528646 0
M  V30 3130 N 294.142 -0.090211 1.57342 0
M  V30 3131 C 295.089 -1.10909 2.02405 0
M  V30 3132 C 296.059 -1.39523 0.901252 0
M  V30 3133 O 297.244 -1.50903 1.1676 0
M  V30 3134 C 294.384 -2.42277 2.45755 0
M  V30 3135 C 293.497 -2.20352 3.71576 0
M  V30 3136 C 292.632 -3.45154 4.03785 0
M  V30 3137 C 291.671 -3.18512 5.22701 0
M  V30 3138 N 290.808 -4.35593 5.50639 0
M  V30 3139 H 295.648 -0.71782 2.89225 0
M  V30 3140 H 293.185 -0.342901 1.43048 0
M  V30 3141 H 295.143 -3.18951 2.68935 0
M  V30 3142 H 293.773 -2.79242 1.61938 0
M  V30 3143 H 292.825 -1.34458 3.55844 0
M  V30 3144 H 294.137 -1.96661 4.58395 0
M  V30 3145 H 293.291 -4.30233 4.27767 0
M  V30 3146 H 292.03 -3.71904 3.15498 0
M  V30 3147 H 291.035 -2.31827 4.98534 0
M  V30 3148 H 292.26 -2.93103 6.12591 0
M  V30 3149 H 290.206 -4.6241 4.6531 0
M  V30 3150 H 290.123 -4.1511 6.31838 0
M  V30 3151 H 291.391 -5.21723 5.7916 0
M  V30 3152 N 295.62 -1.53406 -0.361157 0
M  V30 3153 C 296.85 -1.73465 -1.1222 0
M  V30 3154 C 297.258 -0.465486 -1.83384 0
M  V30 3155 O 296.601 0.571611 -1.7458 0
M  V30 3156 C 296.663 -2.84834 -2.19339 0
M  V30 3157 C 296.327 -4.25038 -1.67903 0
M  V30 3158 C 297.324 -5.07231 -1.14074 0
M  V30 3159 C 295.009 -4.71464 -1.73282 0
M  V30 3160 C 297.003 -6.33942 -0.663068 0
M  V30 3161 C 294.69 -5.98153 -1.25127 0
M  V30 3162 C 295.688 -6.79223 -0.717296 0
M  V30 3163 O 295.376 -8.03533 -0.242865 0
M  V30 3164 H 295.108 -0.583526 -0.341283 0
M  V30 3165 H 297.662 -2.00964 -0.424591 0
M  V30 3166 H 295.892 -2.5282 -2.92607 0
M  V30 3167 H 297.581 -2.9303 -2.80871 0
M  V30 3168 H 298.347 -4.72534 -1.09254 0
M  V30 3169 H 294.226 -4.08432 -2.13786 0
M  V30 3170 H 297.77 -6.97167 -0.245612 0
M  V30 3171 H 293.667 -6.32347 -1.29642 0
M  V30 3172 H 294.435 -8.177 -0.361786 0
M  V30 3173 N 297.098 0.621204 -1.44841 0
M  V30 3174 C 298.045 1.73267 -1.5247 0
M  V30 3175 C 299.015 1.6189 -0.371611 0
M  V30 3176 O 300.2 1.81668 -0.58321 0
M  V30 3177 C 297.34 3.11545 -1.48438 0
M  V30 3178 C 296.453 3.33827 -2.74196 0
M  V30 3179 C 295.588 4.62133 -2.61929 0
M  V30 3180 C 294.627 4.77627 -3.82804 0
M  V30 3181 N 293.764 5.97219 -3.69153 0
M  V30 3182 H 298.604 1.66082 -2.47428 0
M  V30 3183 H 296.141 0.810026 -1.22788 0
M  V30 3184 H 298.099 3.91528 -1.4409 0
M  V30 3185 H 296.729 3.1772 -0.570402 0
M  V30 3186 H 295.781 2.47715 -2.88689 0
M  V30 3187 H 297.093 3.41153 -3.6389 0
M  V30 3188 H 296.247 5.50291 -2.5547 0
M  V30 3189 H 294.986 4.57182 -1.69811 0
M  V30 3190 H 293.991 3.87896 -3.89637 0
M  V30 3191 H 295.216 4.84385 -4.75971 0
M  V30 3192 H 293.162 5.93339 -2.79794 0
M  V30 3193 H 293.079 6.05644 -4.52472 0
M  V30 3194 H 294.347 6.87912 -3.66603 0
M  V30 3195 N 298.576 1.31904 0.862503 0
M  V30 3196 C 299.825 1.21373 1.61094 0
M  V30 3197 C 300.138 -0.22504 1.94301 0
M  V30 3198 O 301.344 -0.452121 2.67709 0
M  V30 3199 C 299.8 2.12525 2.9045 0
M  V30 3200 C 299.408 3.61441 2.64697 0
M  V30 3201 C 301.152 2.10813 3.68454 0
M  V30 3202 C 299.059 4.44578 3.90006 0
M  V30 3203 H 297.989 0.450705 0.604468 0
M  V30 3204 H 300.64 1.56811 0.953027 0
M  V30 3205 H 299.022 1.69994 3.57656 0
M  V30 3206 H 300.196 4.12264 2.05851 0
M  V30 3207 H 298.511 3.65205 2.00036 0
M  V30 3208 H 301.108 2.70167 4.61426 0
M  V30 3209 H 301.451 1.09713 4.01583 0
M  V30 3210 H 301.984 2.51583 3.08141 0
M  V30 3211 H 298.723 5.46461 3.62023 0
M  V30 3212 H 298.243 3.98508 4.48276 0
M  V30 3213 H 299.922 4.57176 4.5782 0
M  V30 3214 N 300.054 -1.07777 1.14986 0
M  V30 3215 C 301.47 -1.32373 0.891596 0
M  V30 3216 C 301.67 -1.9609 -0.463788 0
M  V30 3217 O 300.726 -2.21801 -1.20667 0
M  V30 3218 C 302.039 -2.21905 2.02925 0
M  V30 3219 C 303.587 -2.35367 2.06329 0
M  V30 3220 C 304.062 -3.28245 3.19405 0
M  V30 3221 N 305.553 -3.35824 3.19024 0
M  V30 3222 C 306.288 -4.07739 4.03158 0
M  V30 3223 N 305.784 -4.82306 4.97346 0
M  V30 3224 N 307.577 -4.03635 3.91197 0
M  V30 3225 H 299.728 -0.648039 2.02273 0
M  V30 3226 H 301.991 -0.348149 0.881757 0
M  V30 3227 H 301.697 -1.82342 3.0074 0
M  V30 3228 H 301.571 -3.22407 1.95789 0
M  V30 3229 H 303.958 -2.74186 1.09116 0
M  V30 3230 H 304.039 -1.34585 2.17533 0
M  V30 3231 H 303.683 -2.90146 4.16867 0
M  V30 3232 H 303.613 -4.28971 3.05437 0
M  V30 3233 H 306.104 -2.8267 2.50811 0
M  V30 3234 H 306.417 -5.34661 5.57994 0
M  V30 3235 H 304.762 -4.81337 5.01338 0
M  V30 3236 H 307.953 -3.44491 3.16928 0
M  V30 3237 H 308.126 -4.59417 4.5699 0
M  V30 3238 N 301.532 -0.945985 -1.26051 0
M  V30 3239 C 302.48 -0.450259 -2.282 0
M  V30 3240 C 303.474 0.47497 -1.62605 0
M  V30 3241 O 304.68 0.352653 -1.76512 0
M  V30 3242 H 301.055 -0.127081 -0.741184 0
M  V30 3243 H 303.026 -1.32422 -2.67408 0
M  V30 3244 C 301.775 0.26467 -3.46691 0
M  V30 3245 H 301.098 -0.438123 -3.97392 0
M  V30 3246 H 302.538 0.575678 -4.20074 0
M  V30 3247 C 300.997 1.48416 -3.02447 0
M  V30 3248 O 301.527 2.58227 -3.07704 0
M  V30 3249 N 299.733 1.34243 -2.57735 0
M  V30 3250 H 299.28 0.448994 -2.53657 0
M  V30 3251 H 299.238 2.15957 -2.28495 0
M  V30 3252 N 303.011 1.40521 -0.713556 0
M  V30 3253 C 304.259 2.00527 -0.251692 0
M  V30 3254 C 304.58 1.56857 1.15848 0
M  V30 3255 O 303.85 0.807127 1.785 0
M  V30 3256 H 302.43 0.741551 -0.0900646 0
M  V30 3257 H 305.092 1.71887 -0.918733 0
M  V30 3258 H 304.188 3.10813 -0.283192 0
M  V30 3259 N 304.489 0.459591 1.5075 0
M  V30 3260 C 305.9 0.00171547 1.867 0
M  V30 3261 C 306.251 -1.39934 1.37525 0
M  V30 3262 O 305.376 -2.03523 0.735349 0
M  V30 3263 C 305.971 -0.00366298 3.388 0
M  V30 3264 C 304.53 -0.406026 3.74204 0
M  V30 3265 C 303.677 0.38673 2.7459 0
M  V30 3266 H 306.628 0.674413 1.43657 0
M  V30 3267 H 306.649 -0.808371 3.71814 0
M  V30 3268 H 306.161 1.01617 3.74561 0
M  V30 3269 H 304.262 -1.43063 3.4404 0
M  V30 3270 H 304.375 -0.115362 4.78961 0
M  V30 3271 H 302.739 -0.158019 2.54209 0
M  V30 3272 H 303.522 1.40585 3.13194 0
M  V30 3273 N 305.967 -1.56429 0.191757 0
M  V30 3274 C 306.897 -2.21937 -0.725696 0
M  V30 3275 C 307.878 -1.1814 -1.2238 0
M  V30 3276 O 309.063 -1.46636 -1.27325 0
M  V30 3277 C 306.193 -2.87611 -1.94672 0
M  V30 3278 C 305.147 -3.97623 -1.58366 0
M  V30 3279 C 304.473 -4.50446 -2.88102 0
M  V30 3280 C 305.773 -5.16197 -0.796133 0
M  V30 3281 H 307.467 -2.98861 -0.179606 0
M  V30 3282 H 305.013 -1.43749 -0.0849464 0
M  V30 3283 H 306.966 -3.3212 -2.59373 0
M  V30 3284 H 305.69 -2.08087 -2.51728 0
M  V30 3285 H 304.349 -3.53801 -0.960247 0
M  V30 3286 H 303.997 -3.67688 -3.43241 0
M  V30 3287 H 303.697 -5.24675 -2.64556 0
M  V30 3288 H 305.221 -4.97654 -3.53798 0
M  V30 3289 H 306.635 -5.57271 -1.34618 0
M  V30 3290 H 305.032 -5.96471 -0.658928 0
M  V30 3291 H 306.102 -4.84473 0.203478 0
M  V30 3292 N 307.445 0.0818655 -1.57387 0
M  V30 3293 C 308.694 0.781681 -1.85937 0
M  V30 3294 C 309.007 1.79246 -0.782957 0
M  V30 3295 O 310.213 2.54112 -0.955987 0
M  V30 3296 C 308.669 1.44109 -3.29789 0
M  V30 3297 C 308.277 0.469396 -4.45534 0
M  V30 3298 C 310.021 2.12386 -3.67549 0
M  V30 3299 C 307.928 1.13415 -5.80423 0
M  V30 3300 H 306.858 0.295682 -0.693605 0
M  V30 3301 H 309.509 0.0348051 -1.83467 0
M  V30 3302 H 307.891 2.23588 -3.2684 0
M  V30 3303 H 309.065 -0.294856 -4.59856 0
M  V30 3304 H 307.38 -0.108383 -4.16259 0
M  V30 3305 H 309.977 2.62878 -4.65617 0
M  V30 3306 H 310.32 2.91877 -2.96839 0
M  V30 3307 H 310.853 1.39751 -3.72444 0
M  V30 3308 H 307.592 0.379771 -6.54399 0
M  V30 3309 H 307.112 1.8695 -5.69921 0
M  V30 3310 H 308.791 1.65686 -6.25426 0
M  V30 3311 N 308.923 1.53595 0.353017 0
M  V30 3312 C 310.172 1.69603 1.09168 0
M  V30 3313 C 310.485 0.460925 1.90092 0
M  V30 3314 O 311.691 0.501774 2.66823 0
M  V30 3315 C 310.147 2.99872 1.9901 0
M  V30 3316 C 309.755 4.30687 1.23339 0
M  V30 3317 C 311.499 3.25246 2.72792 0
M  V30 3318 C 309.406 5.52036 2.12156 0
M  V30 3319 H 308.336 0.631966 0.411261 0
M  V30 3320 H 310.987 1.80096 0.351802 0
M  V30 3321 H 309.369 2.83212 2.7678 0
M  V30 3322 H 310.543 4.58019 0.505456 0
M  V30 3323 H 308.858 4.11853 0.613663 0
M  V30 3324 H 311.455 4.13095 3.39495 0
M  V30 3325 H 311.798 2.41846 3.38846 0
M  V30 3326 H 312.331 3.42638 2.021 0
M  V30 3327 H 309.07 6.37951 1.50659 0
M  V30 3328 H 308.59 5.28966 2.82764 0
M  V30 3329 H 310.269 5.87313 2.71427 0
M  V30 3330 N 310.401 -0.613514 1.45168 0
M  V30 3331 C 311.631 -1.39743 1.52169 0
M  V30 3332 C 312.039 -1.88596 0.151086 0
M  V30 3333 O 311.382 -1.6251 -0.856521 0
M  V30 3334 C 311.444 -2.64035 2.43979 0
M  V30 3335 C 311.108 -2.36861 3.90827 0
M  V30 3336 C 312.105 -1.97591 4.80889 0
M  V30 3337 C 309.79 -2.49956 4.35692 0
M  V30 3338 C 311.784 -1.71768 6.1382 0
M  V30 3339 C 309.471 -2.23747 5.68665 0
M  V30 3340 C 310.469 -1.84714 6.57548 0
M  V30 3341 O 310.157 -1.58809 7.88058 0
M  V30 3342 H 309.889 -0.434382 0.517966 0
M  V30 3343 H 312.443 -0.75587 1.90986 0
M  V30 3344 H 310.673 -3.3089 2.00122 0
M  V30 3345 H 312.362 -3.26069 2.41731 0
M  V30 3346 H 313.128 -1.87015 4.47493 0
M  V30 3347 H 309.007 -2.79305 3.66756 0
M  V30 3348 H 312.551 -1.41227 6.83155 0
M  V30 3349 H 308.448 -2.33938 6.01617 0
M  V30 3350 H 309.216 -1.7291 8.00028 0
M  V30 3351 N 311.879 -1.3236 -0.855495 0
M  V30 3352 C 312.789 -1.23221 -1.99634 0
M  V30 3353 C 313.805 -0.145983 -1.73387 0
M  V30 3354 O 314.981 -0.366502 -1.98037 0
M  V30 3355 C 312.046 -0.954782 -3.33294 0
M  V30 3356 C 311.107 -2.12937 -3.72769 0
M  V30 3357 C 310.34 -1.86508 -5.00051 0
M  V30 3358 O 310.563 -0.807231 -5.64659 0
M  V30 3359 O 309.497 -2.72591 -5.36636 0
M  V30 3360 H 313.323 -2.19126 -2.1028 0
M  V30 3361 H 310.908 -1.12241 -0.986018 0
M  V30 3362 H 312.79 -0.816519 -4.13414 0
M  V30 3363 H 311.465 -0.0258854 -3.2369 0
M  V30 3364 H 310.372 -2.3231 -2.93228 0
M  V30 3365 H 311.705 -3.04102 -3.87018 0
M  V30 3366 N 313.357 1.07166 -1.15556 0
M  V30 3367 C 314.305 2.16517 -0.8499 0
M  V30 3368 C 315.299 1.68468 0.177454 0
M  V30 3369 O 316.505 1.79971 0.0323026 0
M  V30 3370 H 312.88 0.706652 -0.25719 0
M  V30 3371 H 314.851 2.39514 -1.77976 0
M  V30 3372 C 313.6 3.45855 -0.357682 0
M  V30 3373 H 312.923 3.83214 -1.13961 0
M  V30 3374 H 314.363 4.23607 -0.182489 0
M  V30 3375 C 312.822 3.24062 0.921152 0
M  V30 3376 O 313.352 3.48813 1.9923 0
M  V30 3377 N 311.558 2.77539 0.86141 0
M  V30 3378 H 311.105 2.57598 -0.0104408 0
M  V30 3379 H 311.063 2.63337 1.71758 0
M  V30 3380 N 314.835 0.952656 1.25548 0
M  V30 3381 C 316.112 0.523818 1.88456 0
M  V30 3382 C 316.492 -0.998871 1.85973 0
M  V30 3383 O 315.84 -1.86381 1.3219 0
M  V30 3384 C 316.05 1.0982 3.31271 0
M  V30 3385 C 317.398 1.17385 4.08051 0
M  V30 3386 O 318.422 1.04961 3.40384 0
M  V30 3387 O 317.281 1.36852 5.29088 0
M  V30 3388 H 314.375 0.172485 0.808813 0
M  V30 3389 H 316.921 1.04596 1.33633 0
M  V30 3390 H 315.693 2.1415 3.27499 0
M  V30 3391 H 315.316 0.559191 3.93648 0
M  V30 3392 N 316.313 -1.40141 0.720998 0
M  V30 3393 C 317.261 -2.3252 0.0608547 0
M  V30 3394 C 318.255 -1.52326 -0.741152 0
M  V30 3395 O 319.461 -1.68089 -0.643911 0
M  V30 3396 H 315.836 -0.751999 0.000876664 0
M  V30 3397 H 317.807 -2.8584 0.856614 0
M  V30 3398 C 316.556 -3.37331 -0.842809 0
M  V30 3399 H 315.879 -3.99108 -0.235084 0
M  V30 3400 H 317.319 -4.04452 -1.27257 0
M  V30 3401 C 315.778 -2.73246 -1.97074 0
M  V30 3402 O 316.308 -2.59998 -3.06209 0
M  V30 3403 N 314.514 -2.31547 -1.75597 0
M  V30 3404 H 314.061 -2.42522 -0.868368 0
M  V30 3405 H 314.019 -1.89007 -2.51244 0
M  V30 3406 N 317.792 -0.46758 -1.50504 0
M  V30 3407 C 319.04 0.0884469 -2.01906 0
M  V30 3408 C 319.361 1.40532 -1.35188 0
M  V30 3409 O 318.631 1.89515 -0.496079 0
M  V30 3410 H 317.211 0.0356765 -0.746148 0
M  V30 3411 H 319.873 -0.6172 -1.84869 0
M  V30 3412 H 318.969 0.2425 -3.11156 0
M  V30 3413 N 319.27 1.56325 -0.20005 0
M  V30 3414 C 320.516 1.98012 0.438059 0
M  V30 3415 C 320.849 1.08702 1.60927 0
M  V30 3416 O 320.124 0.140064 1.93995 0
M  V30 3417 C 320.407 3.48841 0.893419 0
M  V30 3418 C 320.26 4.48928 -0.279947 0
M  V30 3419 C 321.579 4.03498 1.75719 0
M  V30 3420 H 318.698 0.719918 0.157757 0
M  V30 3421 H 321.34 1.87743 -0.291968 0
M  V30 3422 H 319.49 3.57723 1.51547 0
M  V30 3423 H 321.162 4.52079 -0.91772 0
M  V30 3424 H 319.405 4.23694 -0.930919 0
M  V30 3425 H 320.076 5.5194 0.0812601 0
M  V30 3426 H 322.552 3.97427 1.23253 0
M  V30 3427 H 321.428 5.09393 2.04476 0
M  V30 3428 H 321.689 3.4906 2.71311 0
M  V30 3429 N 320.748 -0.0735177 1.57428 0
M  V30 3430 C 321.695 -1.08756 2.0357 0
M  V30 3431 C 322.665 -1.38559 0.916 0
M  V30 3432 O 323.85 -1.49656 1.18354 0
M  V30 3433 C 320.99 -2.39657 2.48311 0
M  V30 3434 C 320.103 -2.16399 3.73892 0
M  V30 3435 C 319.238 -3.40852 4.07423 0
M  V30 3436 C 318.277 -3.1295 5.2605 0
M  V30 3437 N 317.414 -4.29729 5.55228 0
M  V30 3438 H 322.254 -0.687104 2.8997 0
M  V30 3439 H 319.791 -0.327709 1.43403 0
M  V30 3440 H 321.749 -3.16081 2.72303 0
M  V30 3441 H 320.379 -2.77508 1.64891 0
M  V30 3442 H 319.431 -1.30676 3.57251 0
M  V30 3443 H 320.743 -1.91788 4.60455 0
M  V30 3444 H 319.897 -4.25671 4.32306 0
M  V30 3445 H 318.636 -3.68537 3.19425 0
M  V30 3446 H 317.641 -2.26526 5.00965 0
M  V30 3447 H 318.866 -2.86589 6.15665 0
M  V30 3448 H 316.812 -4.57448 4.70188 0
M  V30 3449 H 316.729 -4.08385 6.36206 0
M  V30 3450 H 317.997 -5.1555 5.84661 0
M  V30 3451 N 322.226 -1.5378 -0.344866 0
M  V30 3452 C 323.173 -1.81676 -1.42346 0
M  V30 3453 C 324.143 -0.662376 -1.52321 0
M  V30 3454 O 325.328 -0.906675 -1.67881 0
M  V30 3455 C 322.468 -2.03087 -2.79015 0
M  V30 3456 C 321.581 -3.30799 -2.77842 0
M  V30 3457 C 320.716 -3.42285 -4.0622 0
M  V30 3458 C 319.755 -4.6395 -3.9927 0
M  V30 3459 N 318.892 -4.72477 -5.19336 0
M  V30 3460 H 323.732 -2.73703 -1.17858 0
M  V30 3461 H 321.269 -1.35568 -0.570949 0
M  V30 3462 H 323.227 -2.1349 -3.58438 0
M  V30 3463 H 321.857 -1.14375 -3.01858 0
M  V30 3464 H 320.909 -3.29244 -1.90533 0
M  V30 3465 H 322.221 -4.20314 -2.68584 0
M  V30 3466 H 321.375 -3.52113 -4.94066 0
M  V30 3467 H 320.114 -2.50823 -4.18258 0
M  V30 3468 H 319.119 -4.54201 -3.09809 0
M  V30 3469 H 320.344 -5.56775 -3.88817 0
M  V30 3470 H 318.29 -3.83924 -5.3192 0
M  V30 3471 H 318.207 -5.55927 -5.12329 0
M  V30 3472 H 319.475 -4.86613 -6.08957 0
M  V30 3473 N 323.704 0.605807 -1.45491 0
M  V30 3474 C 324.667 1.69836 -1.5391 0
M  V30 3475 C 325.667 1.55261 -0.418424 0
M  V30 3476 O 326.857 1.60296 -0.681965 0
M  V30 3477 C 323.989 3.09117 -1.43734 0
M  V30 3478 H 325.182 1.63738 -2.51257 0
M  V30 3479 H 322.735 0.821689 -1.32959 0
M  V30 3480 H 323.47 3.20791 -0.475788 0
M  V30 3481 H 323.255 3.21104 -2.25021 0
M  V30 3482 H 324.745 3.88696 -1.52661 0
M  V30 3483 N 325.182 1.32811 0.848464 0
M  V30 3484 C 326.429 1.23724 1.60308 0
M  V30 3485 C 326.757 -0.1994 1.93475 0
M  V30 3486 O 326.012 -1.15406 1.5805 0
M  V30 3487 C 326.311 2.04831 2.92881 0
M  V30 3488 C 325.977 3.54125 2.79117 0
M  V30 3489 C 324.639 3.94829 2.7507 0
M  V30 3490 C 326.991 4.49036 2.64606 0
M  V30 3491 C 324.319 5.28675 2.544 0
M  V30 3492 C 326.671 5.83033 2.4547 0
M  V30 3493 C 325.335 6.22931 2.39819 0
M  V30 3494 H 324.605 0.452737 0.586609 0
M  V30 3495 H 327.252 1.64301 0.983743 0
M  V30 3496 H 325.557 1.57001 3.58968 0
M  V30 3497 H 327.254 1.95164 3.50303 0
M  V30 3498 H 323.844 3.21801 2.83094 0
M  V30 3499 H 328.028 4.18505 2.66772 0
M  V30 3500 H 323.284 5.58637 2.48465 0
M  V30 3501 H 327.458 6.56186 2.33222 0
M  V30 3502 H 325.085 7.26584 2.23562 0
M  V30 3503 N 326.66 -1.06551 1.16123 0
M  V30 3504 C 328.076 -1.3142 0.905585 0
M  V30 3505 C 328.276 -1.96571 -0.442964 0
M  V30 3506 O 327.332 -2.23068 -1.18308 0
M  V30 3507 C 328.645 -2.19741 2.05267 0
M  V30 3508 C 330.193 -2.33165 2.08813 0
M  V30 3509 C 330.668 -3.24838 3.22868 0
M  V30 3510 N 332.159 -3.32421 3.22568 0
M  V30 3511 C 332.894 -4.0344 4.0746 0
M  V30 3512 N 332.39 -4.77003 5.02434 0
M  V30 3513 N 334.183 -3.99464 3.95456 0
M  V30 3514 H 326.334 -0.626548 2.02949 0
M  V30 3515 H 328.597 -0.338777 0.8854 0
M  V30 3516 H 328.303 -1.79142 3.02657 0
M  V30 3517 H 328.177 -3.20313 1.99198 0
M  V30 3518 H 330.564 -2.73013 1.12018 0
M  V30 3519 H 330.645 -1.3227 2.18948 0
M  V30 3520 H 330.289 -2.85708 4.19921 0
M  V30 3521 H 330.219 -4.25707 3.0997 0
M  V30 3522 H 332.71 -2.79994 2.53795 0
M  V30 3523 H 333.023 -5.28712 5.63634 0
M  V30 3524 H 331.368 -4.75992 5.06415 0
M  V30 3525 H 334.559 -3.4111 3.20564 0
M  V30 3526 H 334.732 -4.54544 4.61837 0
M  V30 3527 N 328.138 -0.959301 -1.25041 0
M  V30 3528 C 329.086 -0.474437 -2.2771 0
M  V30 3529 C 330.08 0.457697 -1.631 0
M  V30 3530 O 331.286 0.333912 -1.76876 0
M  V30 3531 H 327.661 -0.134936 -0.739795 0
M  V30 3532 H 329.632 -1.35251 -2.65988 0
M  V30 3533 C 328.381 0.227884 -3.46952 0
M  V30 3534 H 327.704 -0.480248 -3.96905 0
M  V30 3535 H 329.144 0.531091 -4.20661 0
M  V30 3536 C 327.603 1.452 -3.04004 0
M  V30 3537 O 328.133 2.54949 -3.10426 0
M  V30 3538 N 326.339 1.31502 -2.59144 0
M  V30 3539 H 325.886 0.422065 -2.54119 0
M  V30 3540 H 325.844 2.13521 -2.30773 0
M  V30 3541 N 329.616 1.39756 -0.72842 0
M  V30 3542 C 330.865 1.99879 -0.270407 0
M  V30 3543 C 331.178 1.58449 1.14688 0
M  V30 3544 O 332.384 2.11362 1.70407 0
M  V30 3545 C 330.84 3.57292 -0.43252 0
M  V30 3546 C 330.448 4.07688 -1.85727 0
M  V30 3547 C 332.192 4.24485 -0.0359507 0
M  V30 3548 C 330.099 5.5765 -1.96928 0
M  V30 3549 H 329.029 0.747689 -0.0973472 0
M  V30 3550 H 331.68 1.59837 -0.901355 0
M  V30 3551 H 330.062 3.95097 0.267219 0
M  V30 3552 H 331.236 3.81231 -2.58843 0
M  V30 3553 H 329.551 3.53135 -2.20646 0
M  V30 3554 H 332.148 5.34609 -0.0987484 0
M  V30 3555 H 332.491 4.03915 1.00787 0
M  V30 3556 H 333.024 3.9183 -0.686604 0
M  V30 3557 H 329.763 5.8309 -2.99476 0
M  V30 3558 H 329.283 5.8593 -1.28241 0
M  V30 3559 H 330.962 6.22957 -1.74737 0
M  V30 3560 N 331.094 0.475555 1.50254 0
M  V30 3561 C 332.505 0.0215174 1.86688 0
M  V30 3562 C 332.856 -1.38467 1.39001 0
M  V30 3563 O 331.981 -2.02732 0.756894 0
M  V30 3564 C 332.576 0.0322715 3.38785 0
M  V30 3565 C 331.135 -0.366314 3.74613 0
M  V30 3566 C 330.282 0.415832 2.74164 0
M  V30 3567 H 333.233 0.689612 1.42934 0
M  V30 3568 H 333.254 -0.76889 3.7265 0
M  V30 3569 H 332.766 1.05584 3.73462 0
M  V30 3570 H 330.867 -1.39406 3.45538 0
M  V30 3571 H 330.98 -0.064555 4.79057 0
M  V30 3572 H 329.344 -0.131048 2.54363 0
M  V30 3573 H 330.127 1.43899 3.11686 0
M  V30 3574 N 332.573 -1.56217 0.208337 0
M  V30 3575 C 333.821 -1.97558 -0.426076 0
M  V30 3576 C 334.142 -1.09683 -1.61229 0
M  V30 3577 O 333.412 -0.170956 -1.95153 0
M  V30 3578 H 331.992 -0.729575 -0.160405 0
M  V30 3579 H 334.654 -1.92606 0.298155 0
M  V30 3580 H 333.75 -3.02672 -0.761312 0
M  V30 3581 N 334.051 0.0651679 -1.57465 0
M  V30 3582 C 335.297 0.764193 -1.87851 0
M  V30 3583 C 335.63 1.76889 -0.801495 0
M  V30 3584 O 334.905 1.93594 0.187528 0
M  V30 3585 C 335.188 1.46625 -3.28897 0
M  V30 3586 C 335.041 0.477515 -4.47258 0
M  V30 3587 C 336.36 2.4095 -3.68281 0
M  V30 3588 H 333.479 0.276351 -0.683227 0
M  V30 3589 H 336.121 0.0272868 -1.8998 0
M  V30 3590 H 334.271 2.09438 -3.27212 0
M  V30 3591 H 335.943 -0.145922 -4.61069 0
M  V30 3592 H 334.186 -0.206576 -4.33308 0
M  V30 3593 H 334.857 1.0065 -5.42746 0
M  V30 3594 H 337.333 1.88209 -3.71102 0
M  V30 3595 H 336.209 2.87072 -4.67847 0
M  V30 3596 H 336.47 3.26049 -2.98571 0
M  V30 3597 N 335.529 1.53961 0.336706 0
M  V30 3598 C 336.806 1.62171 1.09361 0
M  V30 3599 C 337.186 0.447263 2.06307 0
M  V30 3600 O 336.534 -0.559802 2.21537 0
M  V30 3601 C 336.744 2.98565 1.80721 0
M  V30 3602 C 338.092 3.54157 2.34218 0
M  V30 3603 O 339.116 3.00784 1.90807 0
M  V30 3604 O 337.975 4.47528 3.13657 0
M  V30 3605 H 335.069 0.6562 0.503319 0
M  V30 3606 H 337.615 1.66307 0.33765 0
M  V30 3607 H 336.387 3.75482 1.10132 0
M  V30 3608 H 336.01 2.9805 2.63158 0
M  V30 3609 N 337.007 -0.598083 1.45811 0
M  V30 3610 C 337.937 -1.71873 1.58057 0
M  V30 3611 C 338.918 -1.64533 0.431615 0
M  V30 3612 O 340.103 -1.82787 0.65595 0
M  V30 3613 C 337.233 -3.10495 1.55597 0
M  V30 3614 C 336.187 -3.32654 2.69305 0
M  V30 3615 C 335.513 -4.71646 2.51902 0
M  V30 3616 C 336.813 -3.21981 4.11248 0
M  V30 3617 H 338.507 -1.61881 2.51863 0
M  V30 3618 H 336.053 -0.777372 1.21214 0
M  V30 3619 H 338.006 -3.88699 1.6276 0
M  V30 3620 H 336.73 -3.2135 0.583255 0
M  V30 3621 H 335.389 -2.56843 2.61586 0
M  V30 3622 H 335.037 -4.79246 1.52748 0
M  V30 3623 H 334.737 -4.87426 3.2816 0
M  V30 3624 H 336.261 -5.52038 2.60933 0
M  V30 3625 H 337.675 -3.90049 4.20161 0
M  V30 3626 H 336.072 -3.49289 4.87972 0
M  V30 3627 H 337.142 -2.1928 4.32486 0
M  V30 3628 N 338.485 -1.33259 -0.841409 0
M  V30 3629 C 339.725 -1.25902 -1.61022 0
M  V30 3630 C 340.089 0.173325 -1.91216 0
M  V30 3631 O 341.29 0.370824 -2.6623 0
M  V30 3632 C 339.561 -2.10735 -2.88662 0
M  V30 3633 S 341.12 -2.20541 -3.79351 0
M  V30 3634 H 337.938 -0.447958 -0.552137 0
M  V30 3635 H 340.54 -1.68263 -0.995382 0
M  V30 3636 H 339.244 -3.1384 -2.64448 0
M  V30 3637 H 338.775 -1.69201 -3.55154 0
M  V30 3638 H 340.79 -1.36462 -4.77067 0
M  V30 3639 N 339.963 1.05934 -1.16686 0
M  V30 3640 C 340.91 2.13499 -0.876748 0
M  V30 3641 C 341.88 1.65162 0.176299 0
M  V30 3642 O 343.065 1.90757 0.0407143 0
M  V30 3643 C 340.205 3.42912 -0.387967 0
M  V30 3644 C 339.318 4.04964 -1.50426 0
M  V30 3645 C 338.453 5.22266 -0.970125 0
M  V30 3646 C 337.492 5.76309 -2.06238 0
M  V30 3647 N 336.629 6.84922 -1.54356 0
M  V30 3648 H 341.469 2.37654 -1.7979 0
M  V30 3649 H 339.006 1.16598 -0.896843 0
M  V30 3650 H 340.964 4.17111 -0.086186 0
M  V30 3651 H 339.594 3.18963 0.496235 0
M  V30 3652 H 338.646 3.28277 -1.92193 0
M  V30 3653 H 339.958 4.41122 -2.32836 0
M  V30 3654 H 339.112 6.03506 -0.621743 0
M  V30 3655 H 337.851 4.87564 -0.115377 0
M  V30 3656 H 336.856 4.93704 -2.41942 0
M  V30 3657 H 338.081 6.13062 -2.92115 0
M  V30 3658 H 336.027 6.52131 -0.711406 0
M  V30 3659 H 335.944 7.20043 -2.30379 0
M  V30 3660 H 337.212 7.69832 -1.22387 0
M  V30 3661 N 341.441 0.965919 1.2453 0
M  V30 3662 C 342.687 0.62776 1.92839 0
M  V30 3663 C 343.02 -0.834694 1.75347 0
M  V30 3664 O 342.295 -1.60031 1.10546 0
M  V30 3665 C 342.578 1.00109 3.45905 0
M  V30 3666 C 342.431 2.52011 3.72573 0
M  V30 3667 C 343.75 0.53435 4.36844 0
M  V30 3668 H 340.869 0.229537 0.700344 0
M  V30 3669 H 343.511 1.2046 1.46933 0
M  V30 3670 H 341.661 0.510238 3.85135 0
M  V30 3671 H 343.333 3.08559 3.42912 0
M  V30 3672 H 341.576 2.95287 3.17786 0
M  V30 3673 H 342.247 2.73183 4.79661 0
M  V30 3674 H 344.723 0.955565 4.04979 0
M  V30 3675 H 343.599 0.824152 5.42678 0
M  V30 3676 H 343.86 -0.565589 4.38467 0
M  V30 3677 N 342.919 -1.39368 0.735821 0
M  V30 3678 C 344.147 -2.04795 0.294393 0
M  V30 3679 C 344.562 -1.55478 -1.07107 0
M  V30 3680 O 343.919 -0.720038 -1.67695 0
M  V30 3681 C 343.97 -3.6035 0.288071 0
M  V30 3682 O 343.691 -4.07852 1.59963 0
M  V30 3683 C 345.192 -4.42976 -0.169422 0
M  V30 3684 H 342.412 -0.658571 0.128551 0
M  V30 3685 H 344.956 -1.78399 0.999701 0
M  V30 3686 H 343.111 -3.85645 -0.368355 0
M  V30 3687 H 343.525 -5.02181 1.51375 0
M  V30 3688 H 344.999 -5.51864 -0.122687 0
M  V30 3689 H 345.476 -4.22068 -1.21472 0
M  V30 3690 H 346.082 -4.22832 0.457469 0
M  V30 3691 N 344.397 -0.483516 -1.5 0
M  V30 3692 C 345.344 0.304164 -2.28787 0
M  V30 3693 C 346.314 0.976114 -1.34392 0
M  V30 3694 O 347.499 0.986156 -1.63339 0
M  V30 3695 C 344.639 1.37298 -3.16612 0
M  V30 3696 C 343.752 0.714561 -4.26049 0
M  V30 3697 C 342.887 1.76232 -5.01114 0
M  V30 3698 C 341.926 1.08483 -6.0241 0
M  V30 3699 N 341.063 2.076 -6.70706 0
M  V30 3700 H 345.903 -0.373981 -2.95644 0
M  V30 3701 H 343.44 -0.196275 -1.45785 0
M  V30 3702 H 345.398 2.00445 -3.65893 0
M  V30 3703 H 344.028 2.02012 -2.51776 0
M  V30 3704 H 343.08 -0.0297798 -3.80388 0
M  V30 3705 H 344.392 0.180383 -4.98474 0
M  V30 3706 H 343.546 2.46929 -5.54176 0
M  V30 3707 H 342.285 2.33033 -4.28424 0
M  V30 3708 H 341.29 0.363545 -5.48597 0
M  V30 3709 H 342.515 0.523551 -6.77079 0
M  V30 3710 H 340.461 2.63394 -6.00799 0
M  V30 3711 H 340.378 1.59201 -7.39047 0
M  V30 3712 H 341.646 2.77639 -7.2838 0
M  V30 3713 N 345.875 1.56104 -0.216619 0
M  V30 3714 C 346.805 2.23063 0.690296 0
M  V30 3715 C 347.786 1.20072 1.20485 0
M  V30 3716 O 348.971 1.48643 1.24976 0
M  V30 3717 C 346.101 2.90672 1.90072 0
M  V30 3718 C 345.055 4.00092 1.5202 0
M  V30 3719 C 344.381 4.54972 2.80899 0
M  V30 3720 C 345.681 5.17398 0.71391 0
M  V30 3721 H 347.375 2.99109 0.132038 0
M  V30 3722 H 344.921 1.43866 0.0620664 0
M  V30 3723 H 346.874 3.36204 2.54057 0
M  V30 3724 H 345.598 2.12066 2.48386 0
M  V30 3725 H 344.257 3.55283 0.903839 0
M  V30 3726 H 343.905 3.73102 3.37348 0
M  V30 3727 H 343.605 5.28817 2.56176 0
M  V30 3728 H 345.129 5.0322 3.45836 0
M  V30 3729 H 346.543 5.59342 1.25735 0
M  V30 3730 H 344.94 5.97444 0.563951 0
M  V30 3731 H 346.01 4.84088 -0.280527 0
M  V30 3732 N 347.353 -0.0568162 1.57498 0
M  V30 3733 C 348.301 -1.08452 2.05769 0
M  V30 3734 C 349.295 -1.39164 0.965903 0
M  V30 3735 O 350.501 -1.38395 1.15095 0
M  V30 3736 H 346.876 -0.367148 0.656282 0
M  V30 3737 H 348.847 -0.651368 2.91204 0
M  V30 3738 C 347.596 -2.38543 2.52968 0
M  V30 3739 H 346.919 -2.15765 3.36579 0
M  V30 3740 H 348.359 -3.08863 2.90481 0
M  V30 3741 C 346.818 -3.05562 1.41893 0
M  V30 3742 O 347.348 -3.94262 0.769442 0
M  V30 3743 N 345.554 -2.6643 1.16032 0
M  V30 3744 H 345.101 -1.94387 1.6903 0
M  V30 3745 H 345.059 -3.11593 0.419219 0
M  V30 3746 N 348.832 -1.54138 -0.328536 0
M  V30 3747 C 349.762 -1.86167 -1.40939 0
M  V30 3748 C 350.743 -0.718044 -1.54202 0
M  V30 3749 O 351.928 -0.971328 -1.68163 0
M  V30 3750 C 349.058 -2.08461 -2.77779 0
M  V30 3751 C 348.012 -3.24299 -2.7931 0
M  V30 3752 C 347.338 -3.31955 -4.19178 0
M  V30 3753 C 348.638 -4.62065 -2.43502 0
M  V30 3754 H 350.332 -2.76689 -1.14383 0
M  V30 3755 H 347.878 -1.33132 -0.548806 0
M  V30 3756 H 349.831 -2.29453 -3.53454 0
M  V30 3757 H 348.555 -1.14684 -3.05802 0
M  V30 3758 H 347.214 -3.03187 -2.0609 0
M  V30 3759 H 346.862 -2.35745 -4.44335 0
M  V30 3760 H 346.562 -4.09805 -4.2111 0
M  V30 3761 H 348.086 -3.55175 -4.96672 0
M  V30 3762 H 349.5 -4.8297 -3.08889 0
M  V30 3763 H 347.897 -5.42429 -2.56693 0
M  V30 3764 H 348.967 -4.64652 -1.38659 0
M  V30 3765 N 350.31 0.590341 -1.46126 0
M  V30 3766 C 351.24 1.71032 -1.58966 0
M  V30 3767 C 352.221 1.64302 -0.440335 0
M  V30 3768 O 353.406 1.82436 -0.665634 0
M  V30 3769 C 350.536 3.09665 -1.57241 0
M  V30 3770 C 349.49 3.31221 -2.71066 0
M  V30 3771 C 348.816 4.70303 -2.54399 0
M  V30 3772 C 350.116 3.19796 -4.1295 0
M  V30 3773 H 351.81 1.60543 -2.52718 0
M  V30 3774 H 349.356 0.770933 -1.21625 0
M  V30 3775 H 351.309 3.87831 -1.64819 0
M  V30 3776 H 350.033 3.21036 -0.600289 0
M  V30 3777 H 348.692 2.55452 -2.62944 0
M  V30 3778 H 348.34 4.78429 -1.55288 0
M  V30 3779 H 348.04 4.85679 -3.30741 0
M  V30 3780 H 349.564 5.50647 -2.63857 0
M  V30 3781 H 350.978 3.87815 -4.22223 0
M  V30 3782 H 349.375 3.46696 -4.89818 0
M  V30 3783 H 350.445 2.16983 -4.33643 0
M  V30 3784 N 351.788 1.33704 0.83433 0
M  V30 3785 C 352.735 1.24335 1.94447 0
M  V30 3786 C 353.705 0.120991 1.65659 0
M  V30 3787 O 354.89 0.300035 1.88426 0
M  V30 3788 C 352.03 0.993124 3.30501 0
M  V30 3789 C 351.143 2.20217 3.71657 0
M  V30 3790 C 350.278 1.88572 4.96602 0
M  V30 3791 C 349.317 3.05683 5.30306 0
M  V30 3792 N 348.454 2.73997 6.46429 0
M  V30 3793 H 353.294 2.1928 2.01792 0
M  V30 3794 H 350.831 1.09035 0.987404 0
M  V30 3795 H 352.789 0.828467 4.08892 0
M  V30 3796 H 351.419 0.0803902 3.227 0
M  V30 3797 H 350.471 2.47642 2.88752 0
M  V30 3798 H 351.783 3.07752 3.92543 0
M  V30 3799 H 350.937 1.68776 5.82752 0
M  V30 3800 H 349.676 0.982799 4.77695 0
M  V30 3801 H 348.681 3.26088 4.42659 0
M  V30 3802 H 349.906 3.96737 5.51159 0
M  V30 3803 H 347.852 1.86268 6.28999 0
M  V30 3804 H 347.769 3.55064 6.67432 0
M  V30 3805 H 349.037 2.57679 7.35678 0
M  V30 3806 N 353.266 -1.05314 1.17247 0
M  V30 3807 C 354.196 -2.1498 0.911362 0
M  V30 3808 C 355.177 -1.69471 -0.146169 0
M  V30 3809 O 356.362 -1.942 0.003812 0
M  V30 3810 C 353.492 -3.4472 0.422528 0
M  V30 3811 C 352.446 -4.03789 1.4191 0
M  V30 3812 C 351.772 -5.28858 0.788274 0
M  V30 3813 C 353.072 -4.41418 2.7919 0
M  V30 3814 H 354.766 -2.3708 1.82848 0
M  V30 3815 H 352.312 -1.13938 0.880569 0
M  V30 3816 H 354.265 -4.20787 0.227289 0
M  V30 3817 H 352.989 -3.22269 -0.530123 0
M  V30 3818 H 351.648 -3.2979 1.60106 0
M  V30 3819 H 351.296 -5.02709 -0.171173 0
M  V30 3820 H 350.996 -5.69338 1.45353 0
M  V30 3821 H 352.52 -6.07612 0.603282 0
M  V30 3822 H 353.934 -5.08524 2.64719 0
M  V30 3823 H 352.331 -4.92913 3.42282 0
M  V30 3824 H 353.401 -3.51819 3.33693 0
M  V30 3825 N 354.744 -0.972509 -1.24016 0
M  V30 3826 C 355.707 -0.511403 -2.23422 0
M  V30 3827 C 356.707 0.394679 -1.55881 0
M  V30 3828 O 357.897 0.189469 -1.73167 0
M  V30 3829 C 355.029 0.258769 -3.39916 0
M  V30 3830 H 356.222 -1.39024 -2.6573 0
M  V30 3831 H 353.775 -0.757585 -1.36713 0
M  V30 3832 H 354.51 1.1545 -3.03054 0
M  V30 3833 H 354.295 -0.391522 -3.9014 0
M  V30 3834 H 355.785 0.570244 -4.13688 0
M  V30 3835 N 356.222 1.38976 -0.743202 0
M  V30 3836 C 357.633 1.83123 -0.363732 0
M  V30 3837 C 357.984 1.6205 1.10609 0
M  V30 3838 O 357.109 1.11606 1.854 0
M  V30 3839 C 357.704 3.32439 -0.653408 0
M  V30 3840 C 356.263 3.74974 -0.327338 0
M  V30 3841 C 355.41 2.61878 -0.911875 0
M  V30 3842 H 358.361 1.27852 -0.940191 0
M  V30 3843 H 358.382 3.80432 0.0720031 0
M  V30 3844 H 357.894 3.47745 -1.72323 0
M  V30 3845 H 355.995 3.65252 0.736314 0
M  V30 3846 H 356.108 4.72106 -0.815631 0
M  V30 3847 H 354.472 2.52448 -0.337944 0
M  V30 3848 H 355.255 2.79987 -1.98651 0
M  V30 3849 N 357.7 0.491464 1.49741 0
M  V30 3850 C 358.948 -0.0563141 2.02022 0
M  V30 3851 C 359.269 -1.38363 1.37407 0
M  V30 3852 O 358.539 -1.88702 0.526166 0
M  V30 3853 H 357.119 -0.0238014 0.746621 0
M  V30 3854 H 359.781 0.646533 1.83864 0
M  V30 3855 H 358.877 -0.192967 3.11503 0
M  V30 3856 N 359.178 -1.55987 0.224894 0
M  V30 3857 C 360.426 -1.97998 -0.405099 0
M  V30 3858 C 360.747 -1.11387 -1.60056 0
M  V30 3859 O 360.017 -0.191645 -1.9496 0
M  V30 3860 H 358.597 -0.731235 -0.152658 0
M  V30 3861 H 361.259 -1.92279 0.318567 0
M  V30 3862 H 360.355 -3.03463 -0.729167 0
M  V30 3863 N 360.656 0.0484629 -1.57525 0
M  V30 3864 C 361.881 0.759177 -1.93006 0
M  V30 3865 C 362.306 1.69125 -0.823317 0
M  V30 3866 O 361.664 1.79931 0.222364 0
M  V30 3867 C 361.712 1.50899 -3.27509 0
M  V30 3868 O 360.816 2.62112 -3.18388 0
M  V30 3869 H 360.157 0.205564 -0.631379 0
M  V30 3870 H 362.687 0.00972959 -2.04598 0
M  V30 3871 H 362.697 1.88317 -3.6194 0
M  V30 3872 H 361.372 0.825269 -4.0763 0
M  V30 3873 H 359.949 2.27379 -2.95556 0
M  V30 3874 N 362.134 1.5431 0.320358 0
M  V30 3875 C 363.383 1.7188 1.05546 0
M  V30 3876 C 363.696 0.501143 1.89071 0
M  V30 3877 O 364.902 0.558258 2.65699 0
M  V30 3878 C 363.358 3.04025 1.92605 0
M  V30 3879 C 362.966 4.33207 1.14176 0
M  V30 3880 C 364.71 3.30959 2.65832 0
M  V30 3881 C 362.617 5.56412 2.00399 0
M  V30 3882 H 361.547 0.640547 0.397763 0
M  V30 3883 H 364.198 1.80802 0.313522 0
M  V30 3884 H 362.58 2.89019 2.7071 0
M  V30 3885 H 363.754 4.58989 0.40819 0
M  V30 3886 H 362.069 4.13062 0.526165 0
M  V30 3887 H 364.666 4.20203 3.30656 0
M  V30 3888 H 365.009 2.48979 3.33639 0
M  V30 3889 H 365.542 3.46847 1.94787 0
M  V30 3890 H 362.281 6.41004 1.37094 0
M  V30 3891 H 361.801 5.34844 2.7148 0
M  V30 3892 H 363.48 5.92938 2.58908 0
M  V30 3893 N 363.613 -0.582584 1.46437 0
M  V30 3894 C 364.861 -1.33814 1.51453 0
M  V30 3895 C 365.182 -1.94277 0.167792 0
M  V30 3896 O 364.452 -1.78566 -0.805677 0
M  V30 3897 H 363.032 -0.496838 0.557818 0
M  V30 3898 H 365.694 -0.682281 1.82568 0
M  V30 3899 H 364.79 -2.14479 2.26728 0
M  V30 3900 N 365.091 -1.34144 -0.827227 0
M  V30 3901 C 366.507 -1.13732 -1.11969 0
M  V30 3902 C 366.707 0.0640463 -2.01398 0
M  V30 3903 O 365.763 0.740856 -2.41387 0
M  V30 3904 C 367.076 -2.43047 -1.77055 0
M  V30 3905 C 368.624 -2.49063 -1.89569 0
M  V30 3906 C 369.099 -3.78369 -2.58072 0
M  V30 3907 N 370.59 -3.79505 -2.65575 0
M  V30 3908 C 371.325 -4.76274 -3.19297 0
M  V30 3909 N 370.821 -5.83424 -3.73616 0
M  V30 3910 N 372.614 -4.63735 -3.17658 0
M  V30 3911 H 364.765 -2.11126 -0.232296 0
M  V30 3912 H 367.028 -0.933424 -0.165602 0
M  V30 3913 H 366.734 -3.31025 -1.18807 0
M  V30 3914 H 366.608 -2.56066 -2.76966 0
M  V30 3915 H 368.995 -1.61527 -2.46968 0
M  V30 3916 H 369.076 -2.39975 -0.885745 0
M  V30 3917 H 368.72 -4.66293 -2.01329 0
M  V30 3918 H 368.65 -3.84737 -3.59562 0
M  V30 3919 H 371.141 -3.02074 -2.27068 0
M  V30 3920 H 371.454 -6.53282 -4.12846 0
M  V30 3921 H 369.799 -5.87143 -3.71871 0
M  V30 3922 H 372.99 -3.79177 -2.74486 0
M  V30 3923 H 373.163 -5.39318 -3.59221 0
M  V30 3924 N 366.569 1.04691 -1.17803 0
M  V30 3925 C 367.499 2.14494 -0.92275 0
M  V30 3926 C 368.48 1.69546 0.137179 0
M  V30 3927 O 369.665 1.94195 -0.0141108 0
M  V30 3928 C 366.795 3.44491 -0.440803 0
M  V30 3929 C 365.749 4.03031 -1.4405 0
M  V30 3930 C 365.075 5.28432 -0.81631 0
M  V30 3931 C 366.375 4.39932 -2.81527 0
M  V30 3932 H 368.069 2.36107 -1.84103 0
M  V30 3933 H 365.615 1.1347 -0.886599 0
M  V30 3934 H 367.568 4.2066 -0.249602 0
M  V30 3935 H 366.292 3.22546 0.513025 0
M  V30 3936 H 364.951 3.28937 -1.61853 0
M  V30 3937 H 364.599 5.02792 0.144511 0
M  V30 3938 H 364.299 5.68559 -1.48371 0
M  V30 3939 H 365.823 6.07284 -0.635496 0
M  V30 3940 H 367.237 5.07113 -2.67412 0
M  V30 3941 H 365.634 4.9109 -3.44892 0
M  V30 3942 H 366.704 3.50045 -3.35554 0
M  V30 3943 N 368.047 0.979072 1.23499 0
M  V30 3944 C 369.287 0.655228 1.93613 0
M  V30 3945 C 369.651 -0.796336 1.74707 0
M  V30 3946 O 370.852 -1.23094 2.38959 0
M  V30 3947 C 369.123 1.03337 3.42135 0
M  V30 3948 S 370.682 0.825793 4.3096 0
M  V30 3949 H 367.5 0.240004 0.669267 0
M  V30 3950 H 370.102 1.25843 1.49612 0
M  V30 3951 H 368.806 2.08646 3.53405 0
M  V30 3952 H 368.337 0.421397 3.91137 0
M  V30 3953 H 370.352 -0.290991 4.95346 0
M  V30 3954 N 369.525 -1.3858 0.750561 0
M  V30 3955 C 370.774 -1.99424 0.302172 0
M  V30 3956 C 371.087 -1.60254 -1.12152 0
M  V30 3957 O 372.293 -2.14046 -1.67023 0
M  V30 3958 C 370.749 -3.56558 0.489307 0
M  V30 3959 C 370.357 -4.04682 1.92189 0
M  V30 3960 C 372.101 -4.24374 0.103478 0
M  V30 3961 C 370.008 -5.54446 2.05775 0
M  V30 3962 H 368.938 -0.746046 0.10923 0
M  V30 3963 H 371.589 -1.58383 0.92667 0
M  V30 3964 H 369.971 -3.95472 -0.204329 0
M  V30 3965 H 371.145 -3.77065 2.64875 0
M  V30 3966 H 369.46 -3.4958 2.26236 0
M  V30 3967 H 372.057 -5.34384 0.183787 0
M  V30 3968 H 372.4 -4.05468 -0.943481 0
M  V30 3969 H 372.933 -3.90688 0.748854 0
M  V30 3970 H 369.672 -5.78252 3.08714 0
M  V30 3971 H 369.192 -5.83816 1.37546 0
M  V30 3972 H 370.871 -6.20099 1.84626 0
M  V30 3973 N 371.003 -0.499398 -1.49478 0
M  V30 3974 C 372.249 0.0377587 -2.03365 0
M  V30 3975 C 372.604 1.3484 -1.37244 0
M  V30 3976 O 371.897 1.85 -0.498547 0
M  V30 3977 C 372.091 0.248424 -3.56536 0
M  V30 3978 C 371.92 -1.04025 -4.37503 0
M  V30 3979 C 370.69 -1.59159 -4.79579 0
M  V30 3980 C 372.888 -1.9431 -4.76181 0
M  V30 3981 N 370.87 -2.82634 -5.44969 0
M  V30 3982 C 372.241 -3.02364 -5.41272 0
M  V30 3983 C 374.296 -1.95008 -4.58123 0
M  V30 3984 C 372.999 -4.1114 -5.90217 0
M  V30 3985 C 375.025 -3.02758 -5.08027 0
M  V30 3986 C 374.387 -4.09531 -5.73118 0
M  V30 3987 H 370.486 -0.026923 -0.781536 0
M  V30 3988 H 373.07 -0.673901 -1.82665 0
M  V30 3989 H 371.241 0.929139 -3.77123 0
M  V30 3990 H 372.973 0.782445 -3.97064 0
M  V30 3991 H 369.728 -1.13696 -4.5975 0
M  V30 3992 H 370.152 -3.45416 -5.82252 0
M  V30 3993 H 374.794 -1.13766 -4.07207 0
M  V30 3994 H 372.512 -4.93181 -6.40155 0
M  V30 3995 H 376.098 -3.04315 -4.95866 0
M  V30 3996 H 374.978 -4.91534 -6.11035 0
M  V30 3997 N 372.481 1.55866 -0.233164 0
M  V30 3998 C 373.706 2.03449 0.402906 0
M  V30 3999 C 374.131 1.11166 1.51736 0
M  V30 4000 O 373.489 0.101996 1.81013 0
M  V30 4001 C 373.537 3.49165 0.9009 0
M  V30 4002 O 372.641 3.60019 2.01147 0
M  V30 4003 H 371.982 0.657913 0.0897025 0
M  V30 4004 H 374.512 2.01493 -0.355201 0
M  V30 4005 H 374.522 3.89716 1.2077 0
M  V30 4006 H 373.197 4.15813 0.0852889 0
M  V30 4007 H 371.774 3.3136 1.71042 0
M  V30 4008 N 373.959 -0.0401083 1.57549 0
M  V30 4009 C 374.869 -1.06133 2.0922 0
M  V30 4010 C 375.885 -1.40356 1.0284 0
M  V30 4011 O 377.061 -1.49897 1.34509 0
M  V30 4012 C 374.126 -2.34658 2.55218 0
M  V30 4013 C 373.187 -2.07117 3.76033 0
M  V30 4014 C 372.42 -3.29514 4.19829 0
M  V30 4015 O 372.643 -4.39794 3.63232 0
M  V30 4016 O 371.577 -3.15863 5.12362 0
M  V30 4017 H 375.403 -0.652244 2.96613 0
M  V30 4018 H 372.988 -0.256368 1.47184 0
M  V30 4019 H 374.87 -3.10239 2.85184 0
M  V30 4020 H 373.545 -2.74883 1.70941 0
M  V30 4021 H 372.452 -1.29139 3.51104 0
M  V30 4022 H 373.785 -1.71754 4.61261 0
M  V30 4023 N 375.437 -1.54477 -0.31217 0
M  V30 4024 C 376.662 -1.77526 -1.07235 0
M  V30 4025 C 377.087 -0.527775 -1.80544 0
M  V30 4026 O 376.445 0.52121 -1.73646 0
M  V30 4027 C 376.493 -2.97535 -2.03728 0
M  V30 4028 O 375.597 -2.69878 -3.11833 0
M  V30 4029 H 374.938 -0.58792 -0.30862 0
M  V30 4030 H 377.468 -2.01532 -0.352993 0
M  V30 4031 H 377.478 -3.25198 -2.46395 0
M  V30 4032 H 376.153 -3.87996 -1.49774 0
M  V30 4033 H 374.73 -2.53199 -2.7376 0
M  V30 4034 N 376.915 0.57481 -1.46744 0
M  V30 4035 C 377.878 1.66533 -1.57478 0
M  V30 4036 C 378.878 1.54338 -0.451263 0
M  V30 4037 O 380.068 1.58814 -0.715813 0
M  V30 4038 C 377.2 3.05999 -1.50259 0
M  V30 4039 H 378.393 1.58372 -2.54673 0
M  V30 4040 H 375.946 0.793301 -1.34672 0
M  V30 4041 H 376.681 3.19709 -0.543725 0
M  V30 4042 H 376.466 3.16259 -2.31781 0
M  V30 4043 H 377.956 3.8537 -1.60872 0
M  V30 4044 N 378.394 1.34581 0.820102 0
M  V30 4045 C 379.641 1.27096 1.57648 0
M  V30 4046 C 379.969 -0.158317 1.93855 0
M  V30 4047 O 379.224 -1.12028 1.60463 0
M  V30 4048 C 379.523 2.10997 2.8847 0
M  V30 4049 C 379.189 3.59966 2.71543 0
M  V30 4050 C 377.851 4.00575 2.66634 0
M  V30 4051 C 380.203 4.54548 2.55021 0
M  V30 4052 C 377.531 5.33953 2.43128 0
M  V30 4053 C 379.883 5.88109 2.33047 0
M  V30 4054 C 378.547 6.27878 2.26552 0
M  V30 4055 H 377.817 0.465078 0.576874 0
M  V30 4056 H 380.464 1.6635 0.948671 0
M  V30 4057 H 378.769 1.6458 3.55557 0
M  V30 4058 H 380.466 2.0255 3.46084 0
M  V30 4059 H 377.056 3.27733 2.76205 0
M  V30 4060 H 381.24 4.24069 2.57835 0
M  V30 4061 H 376.496 5.63781 2.3656 0
M  V30 4062 H 380.67 6.60985 2.19251 0
M  V30 4063 H 378.297 7.31162 2.081 0
M  V30 4064 N 379.872 -1.04064 1.18357 0
M  V30 4065 C 380.819 -2.12077 0.910603 0
M  V30 4066 C 381.789 -1.65421 -0.15 0
M  V30 4067 O 382.974 -1.90797 -0.0103614 0
M  V30 4068 C 380.114 -3.42252 0.442472 0
M  V30 4069 C 379.227 -4.0252 1.5685 0
M  V30 4070 C 378.362 -5.20657 1.05309 0
M  V30 4071 C 377.401 -5.72955 2.1538 0
M  V30 4072 N 376.538 -6.8238 1.65233 0
M  V30 4073 H 381.378 -2.34764 1.83548 0
M  V30 4074 H 378.915 -1.15157 0.915279 0
M  V30 4075 H 380.873 -4.16921 0.152534 0
M  V30 4076 H 379.503 -3.19712 -0.445428 0
M  V30 4077 H 378.555 -3.25178 1.97391 0
M  V30 4078 H 379.867 -4.37362 2.39824 0
M  V30 4079 H 379.021 -6.0244 0.717677 0
M  V30 4080 H 377.76 -4.87318 0.19293 0
M  V30 4081 H 376.765 -4.89793 2.49766 0
M  V30 4082 H 377.99 -6.08337 3.01832 0
M  V30 4083 H 375.936 -6.50917 0.815064 0
M  V30 4084 H 375.853 -7.16286 2.41805 0
M  V30 4085 H 377.121 -7.67788 1.34619 0
M  V30 4086 N 381.35 -0.985608 -1.22978 0
M  V30 4087 C 382.297 -0.529825 -2.24636 0
M  V30 4088 C 383.267 0.434028 -1.60329 0
M  V30 4089 O 384.452 0.340414 -1.87739 0
M  V30 4090 C 381.592 0.156533 -3.44745 0
M  V30 4091 C 380.705 -0.848197 -4.23591 0
M  V30 4092 C 379.84 -0.136109 -5.31026 0
M  V30 4093 C 378.879 -1.1297 -6.01585 0
M  V30 4094 N 378.016 -0.446415 -7.00679 0
M  V30 4095 H 382.856 -1.40148 -2.62988 0
M  V30 4096 H 380.393 -0.702168 -1.29259 0
M  V30 4097 H 382.351 0.571324 -4.1327 0
M  V30 4098 H 380.981 0.992025 -3.07179 0
M  V30 4099 H 380.033 -1.38135 -3.54433 0
M  V30 4100 H 381.345 -1.60512 -4.72268 0
M  V30 4101 H 380.499 0.335784 -6.0577 0
M  V30 4102 H 379.238 0.653373 -4.83304 0
M  V30 4103 H 378.243 -1.6123 -5.25628 0
M  V30 4104 H 379.468 -1.91993 -6.51395 0
M  V30 4105 H 377.414 0.323763 -6.55201 0
M  V30 4106 H 377.331 -1.1419 -7.47326 0
M  V30 4107 H 378.599 0.00291697 -7.795 0
M  V30 4108 N 382.828 1.3818 -0.7579 0
M  V30 4109 C 383.758 2.33027 -0.148597 0
M  V30 4110 C 384.739 1.55085 0.69875 0
M  V30 4111 O 385.924 1.83384 0.639053 0
M  V30 4112 C 383.054 3.3928 0.742034 0
M  V30 4113 C 382.008 4.28 -0.00291946 0
M  V30 4114 C 381.334 5.25146 1.00625 0
M  V30 4115 C 382.634 5.08938 -1.17385 0
M  V30 4116 H 384.328 2.84231 -0.940909 0
M  V30 4117 H 381.874 1.36659 -0.453908 0
M  V30 4118 H 383.827 4.046 1.17799 0
M  V30 4119 H 382.551 2.86569 1.56671 0
M  V30 4120 H 381.21 3.64192 -0.419504 0
M  V30 4121 H 380.858 4.68721 1.8251 0
M  V30 4122 H 380.558 5.85361 0.512428 0
M  V30 4123 H 382.082 5.93342 1.44143 0
M  V30 4124 H 383.496 5.67474 -0.815224 0
M  V30 4125 H 381.893 5.7841 -1.59882 0
M  V30 4126 H 382.963 4.42424 -1.98468 0
M  V30 4127 N 384.306 0.507319 1.49211 0
M  V30 4128 C 385.583 -0.0982702 1.95353 0
M  V30 4129 C 385.963 -1.53516 1.449 0
M  V30 4130 O 385.311 -2.18594 0.66551 0
M  V30 4131 C 385.521 -0.00440283 3.49 0
M  V30 4132 C 386.869 -0.175147 4.24239 0
M  V30 4133 O 387.893 -0.0792891 3.56112 0
M  V30 4134 O 386.752 -0.37276 5.45227 0
M  V30 4135 H 383.846 -0.0918236 0.821887 0
M  V30 4136 H 386.392 0.570307 1.5983 0
M  V30 4137 H 385.164 0.997402 3.78375 0
M  V30 4138 H 384.787 -0.712845 3.91158 0
M  V30 4139 N 385.784 -1.5574 0.241426 0
M  V30 4140 C 387.03 -1.99104 -0.385406 0
M  V30 4141 C 387.363 -1.1293 -1.57988 0
M  V30 4142 O 386.638 -0.191449 -1.93555 0
M  V30 4143 C 386.921 -3.51087 -0.800616 0
M  V30 4144 C 386.774 -4.48028 0.398874 0
M  V30 4145 C 388.093 -4.08015 -1.64959 0
M  V30 4146 H 385.212 -0.723848 -0.138614 0
M  V30 4147 H 387.854 -1.86903 0.341642 0
M  V30 4148 H 386.004 -3.61615 -1.4201 0
M  V30 4149 H 387.676 -4.49487 1.03726 0
M  V30 4150 H 385.919 -4.21077 1.04293 0
M  V30 4151 H 386.59 -5.51962 0.0651056 0
M  V30 4152 H 389.066 -4.00555 -1.12672 0
M  V30 4153 H 387.942 -5.14635 -1.90898 0
M  V30 4154 H 388.203 -3.56131 -2.61961 0
M  V30 4155 N 387.262 0.0317525 -1.57568 0
M  V30 4156 C 388.511 0.722131 -1.8833 0
M  V30 4157 C 388.824 1.76664 -0.839587 0
M  V30 4158 O 390.03 2.50942 -1.03635 0
M  V30 4159 C 388.486 1.33544 -3.34207 0
M  V30 4160 C 388.094 0.327415 -4.46802 0
M  V30 4161 C 389.838 2.00585 -3.7412 0
M  V30 4162 C 387.745 0.948915 -5.83738 0
M  V30 4163 H 386.675 0.273466 -0.702661 0
M  V30 4164 H 389.326 -0.0235811 -1.83485 0
M  V30 4165 H 387.708 2.13077 -3.33788 0
M  V30 4166 H 388.882 -0.441006 -4.58685 0
M  V30 4167 H 387.197 -0.240758 -4.15703 0
M  V30 4168 H 389.794 2.47932 -4.73744 0
M  V30 4169 H 390.137 2.82285 -3.05975 0
M  V30 4170 H 390.67 1.27831 -3.76702 0
M  V30 4171 H 387.409 0.171387 -6.55276 0
M  V30 4172 H 386.929 1.68724 -5.7558 0
M  V30 4173 H 388.608 1.45705 -6.3038 0
M  V30 4174 N 388.74 1.54641 0.303973 0
M  V30 4175 C 389.97 1.77511 1.05705 0
M  V30 4176 C 390.378 0.533228 1.81531 0
M  V30 4177 O 389.721 -0.506423 1.76582 0
M  V30 4178 C 389.783 2.92779 2.08617 0
M  V30 4179 C 389.447 4.30977 1.52013 0
M  V30 4180 C 390.444 5.11115 0.9517 0
M  V30 4181 C 388.129 4.77571 1.55665 0
M  V30 4182 C 390.123 6.35966 0.427327 0
M  V30 4183 C 387.81 6.02384 1.02841 0
M  V30 4184 C 388.808 6.81417 0.464713 0
M  V30 4185 O 388.496 8.03881 -0.0555283 0
M  V30 4186 H 388.228 0.59579 0.319391 0
M  V30 4187 H 390.782 2.02401 0.349712 0
M  V30 4188 H 389.012 2.63506 2.83022 0
M  V30 4189 H 390.701 3.03252 2.69802 0
M  V30 4190 H 391.467 4.76264 0.916407 0
M  V30 4191 H 387.346 4.16085 1.9848 0
M  V30 4192 H 390.89 6.97599 -0.0133062 0
M  V30 4193 H 386.787 6.36723 1.06084 0
M  V30 4194 H 387.555 8.18479 0.0580522 0
M  V30 4195 N 390.218 -0.567019 1.47046 0
M  V30 4196 C 391.466 -1.322 1.52864 0
M  V30 4197 C 391.787 -1.94088 0.188388 0
M  V30 4198 O 391.057 -1.7941 -0.786693 0
M  V30 4199 H 389.637 -0.490894 0.563056 0
M  V30 4200 H 392.299 -0.662879 1.83281 0
M  V30 4201 H 391.395 -2.12062 2.2899 0
M  V30 4202 N 391.696 -1.35014 -0.812953 0
M  V30 4203 C 392.643 -1.27412 -1.92444 0
M  V30 4204 C 393.613 -0.14733 -1.65445 0
M  V30 4205 O 394.798 -0.329974 -1.87925 0
M  V30 4206 C 391.938 -1.04558 -3.28879 0
M  V30 4207 C 391.051 -2.26101 -3.68106 0
M  V30 4208 C 390.186 -1.96449 -4.9354 0
M  V30 4209 C 389.225 -3.14081 -5.25376 0
M  V30 4210 N 388.362 -2.84246 -6.41988 0
M  V30 4211 H 393.202 -2.22463 -1.98278 0
M  V30 4212 H 390.739 -1.10593 -0.969933 0
M  V30 4213 H 392.697 -0.893413 -4.07522 0
M  V30 4214 H 391.327 -0.131719 -3.22531 0
M  V30 4215 H 390.379 -2.52204 -2.84775 0
M  V30 4216 H 391.691 -3.13959 -3.87597 0
M  V30 4217 H 390.845 -1.78026 -5.79993 0
M  V30 4218 H 389.584 -1.05867 -4.76071 0
M  V30 4219 H 388.589 -3.33089 -4.37415 0
M  V30 4220 H 389.814 -4.05455 -5.44778 0
M  V30 4221 H 387.76 -1.96252 -6.25956 0
M  V30 4222 H 387.677 -3.65637 -6.61699 0
M  V30 4223 H 388.945 -2.6935 -7.31485 0
M  V30 4224 N 393.175 1.03435 -1.18907 0
M  V30 4225 C 394.424 1.76143 -0.982669 0
M  V30 4226 C 394.737 1.89416 0.487953 0
M  V30 4227 O 395.943 2.59041 0.813036 0
M  V30 4228 C 394.399 3.16722 -1.70924 0
M  V30 4229 C 394.007 3.11522 -3.21959 0
M  V30 4230 C 395.751 3.93764 -1.58588 0
M  V30 4231 C 393.658 4.46999 -3.87228 0
M  V30 4232 H 392.588 0.660292 -0.364047 0
M  V30 4233 H 395.239 1.158 -1.42347 0
M  V30 4234 H 393.621 3.775 -1.19623 0
M  V30 4235 H 394.795 2.60158 -3.80335 0
M  V30 4236 H 393.11 2.47978 -3.34508 0
M  V30 4237 H 395.707 4.93963 -2.04707 0
M  V30 4238 H 396.05 4.12794 -0.539142 0
M  V30 4239 H 396.583 3.39576 -2.07203 0
M  V30 4240 H 393.322 4.33174 -4.91976 0
M  V30 4241 H 392.842 4.98441 -3.33642 0
M  V30 4242 H 394.521 5.15898 -3.90459 0
M  V30 4243 N 394.653 0.992116 1.22453 0
M  V30 4244 C 395.603 0.512969 2.22155 0
M  V30 4245 C 396.587 -0.418416 1.55364 0
M  V30 4246 O 397.779 -0.245363 1.75291 0
M  V30 4247 C 394.908 -0.171822 3.4287 0
M  V30 4248 C 393.994 0.779822 4.16869 0
M  V30 4249 N 394.385 1.92734 4.6764 0
M  V30 4250 C 392.683 0.59554 4.42006 0
M  V30 4251 C 393.384 2.52458 5.24061 0
M  V30 4252 N 392.36 1.80735 5.12675 0
M  V30 4253 H 396.162 1.38817 2.5905 0
M  V30 4254 H 393.676 0.854277 1.38115 0
M  V30 4255 H 395.673 -0.532469 4.13486 0
M  V30 4256 H 394.333 -1.04317 3.07487 0
M  V30 4257 H 395.344 2.30816 4.63621 0
M  V30 4258 H 392.021 -0.229805 4.16867 0
M  V30 4259 H 393.411 3.49433 5.73887 0
M  V30 4260 N 396.131 -1.37776 0.765217 0
M  V30 4261 C 397.041 -2.34135 0.147666 0
M  V30 4262 C 398.057 -1.59854 -0.687215 0
M  V30 4263 O 399.233 -1.91983 -0.608659 0
M  V30 4264 C 396.298 -3.3901 -0.72617 0
M  V30 4265 C 395.359 -4.2912 0.124417 0
M  V30 4266 C 394.592 -5.28986 -0.707807 0
M  V30 4267 O 394.815 -5.36205 -1.94525 0
M  V30 4268 O 393.749 -6.01779 -0.12046 0
M  V30 4269 H 397.575 -2.88664 0.943758 0
M  V30 4270 H 395.16 -1.39824 0.526277 0
M  V30 4271 H 397.042 -4.03195 -1.22524 0
M  V30 4272 H 395.717 -2.86819 -1.50056 0
M  V30 4273 H 394.624 -3.68057 0.669696 0
M  V30 4274 H 395.957 -4.84598 0.861736 0
M  V30 4275 N 397.609 -0.515225 -1.4894 0
M  V30 4276 C 398.556 0.255567 -2.29381 0
M  V30 4277 C 399.526 0.947387 -1.36432 0
M  V30 4278 O 400.711 0.951288 -1.65394 0
M  V30 4279 C 397.851 1.30551 -3.19453 0
M  V30 4280 C 396.964 0.624029 -4.27469 0
M  V30 4281 C 396.099 1.65563 -5.0474 0
M  V30 4282 C 395.138 0.956802 -6.04576 0
M  V30 4283 N 394.275 1.93326 -6.74959 0
M  V30 4284 H 399.115 -0.436607 -2.94784 0
M  V30 4285 H 396.652 -0.227154 -1.45336 0
M  V30 4286 H 398.61 1.92639 -3.70062 0
M  V30 4287 H 397.24 1.96626 -2.56004 0
M  V30 4288 H 396.292 -0.110459 -3.8024 0
M  V30 4289 H 397.604 0.0746092 -4.98744 0
M  V30 4290 H 396.758 2.35119 -5.59289 0
M  V30 4291 H 395.497 2.23893 -4.3327 0
M  V30 4292 H 394.502 0.247097 -5.49244 0
M  V30 4293 H 395.727 0.379814 -6.78037 0
M  V30 4294 H 393.673 2.50591 -6.06251 0
M  V30 4295 H 393.59 1.43489 -7.42258 0
M  V30 4296 H 394.858 2.62126 -7.34105 0
M  V30 4297 N 399.087 1.5561 -0.249682 0
M  V30 4298 C 400.034 2.21496 0.648694 0
M  V30 4299 C 401.004 1.17977 1.16921 0
M  V30 4300 O 402.189 1.46434 1.22318 0
M  V30 4301 C 399.329 2.92039 1.83868 0
M  V30 4302 C 398.442 4.10219 1.35442 0
M  V30 4303 C 397.577 4.6847 2.50419 0
M  V30 4304 C 396.616 5.78893 1.98869 0
M  V30 4305 N 395.753 6.31315 3.07223 0
M  V30 4306 H 400.593 2.97892 0.0801582 0
M  V30 4307 H 398.13 1.47074 0.0278031 0
M  V30 4308 H 400.088 3.31138 2.53778 0
M  V30 4309 H 398.718 2.18111 2.37965 0
M  V30 4310 H 397.77 3.76413 0.54928 0
M  V30 4311 H 399.082 4.89927 0.936649 0
M  V30 4312 H 398.236 5.10158 3.28366 0
M  V30 4313 H 396.975 3.87984 2.95499 0
M  V30 4314 H 395.98 5.3668 1.19393 0
M  V30 4315 H 397.205 6.61232 1.54755 0
M  V30 4316 H 395.151 5.53733 3.51732 0
M  V30 4317 H 395.068 7.06224 2.69784 0
M  V30 4318 H 396.336 6.77662 3.8522 0
M  V30 4319 N 400.565 -0.0233959 1.57583 0
M  V30 4320 C 401.811 -0.714119 1.89811 0
M  V30 4321 C 402.144 -1.74702 0.848113 0
M  V30 4322 O 401.419 -1.94023 -0.136135 0
M  V30 4323 C 401.702 -1.37853 3.32669 0
M  V30 4324 C 401.555 -0.358764 4.48367 0
M  V30 4325 C 402.874 -2.31101 3.7454 0
M  V30 4326 H 399.993 -0.25814 0.690314 0
M  V30 4327 H 402.635 0.0230927 1.89986 0
M  V30 4328 H 400.785 -2.00689 3.3265 0
M  V30 4329 H 402.457 0.268115 4.6052 0
M  V30 4330 H 400.7 0.321387 4.32608 0
M  V30 4331 H 401.371 -0.862242 5.45224 0
M  V30 4332 H 403.847 -1.78304 3.75961 0
M  V30 4333 H 402.723 -2.74567 4.75294 0
M  V30 4334 H 402.984 -3.18018 3.0711 0
M  V30 4335 N 402.043 -1.548 -0.295768 0
M  V30 4336 C 403.271 -1.78327 -1.04914 0
M  V30 4337 C 403.686 -0.545316 -1.80753 0
M  V30 4338 O 403.043 0.485013 -1.75937 0
M  V30 4339 C 403.094 -2.99418 -2.02561 0
M  V30 4340 O 402.815 -4.18431 -1.29798 0
M  V30 4341 C 404.316 -3.35375 -2.89895 0
M  V30 4342 H 401.536 -0.594618 -0.310918 0
M  V30 4343 H 404.08 -2.01763 -0.333454 0
M  V30 4344 H 402.235 -2.78175 -2.69624 0
M  V30 4345 H 402.649 -4.86736 -1.95419 0
M  V30 4346 H 404.123 -4.23332 -3.54251 0
M  V30 4347 H 404.6 -2.53761 -3.58472 0
M  V30 4348 H 405.206 -3.58796 -2.28355 0
M  V30 4349 N 403.521 0.559213 -1.47345 0
M  V30 4350 C 404.468 1.66645 -1.59682 0
M  V30 4351 C 405.438 1.60168 -0.43994 0
M  V30 4352 O 406.623 1.79031 -0.659736 0
M  V30 4353 C 403.763 3.04969 -1.61518 0
M  V30 4354 C 402.876 3.21897 -2.88108 0
M  V30 4355 C 402.011 4.50608 -2.81294 0
M  V30 4356 C 401.05 4.60961 -4.02717 0
M  V30 4357 N 400.187 5.81024 -3.94151 0
M  V30 4358 H 405.027 1.55439 -2.54249 0
M  V30 4359 H 402.564 0.757219 -1.26113 0
M  V30 4360 H 404.522 3.85064 -1.60566 0
M  V30 4361 H 403.152 3.15015 -0.704645 0
M  V30 4362 H 402.204 2.35248 -2.98936 0
M  V30 4363 H 403.516 3.25412 -3.78032 0
M  V30 4364 H 402.67 5.3896 -2.7858 0
M  V30 4365 H 401.409 4.49568 -1.89049 0
M  V30 4366 H 400.414 3.71021 -4.05738 0
M  V30 4367 H 401.639 4.63761 -4.96087 0
M  V30 4368 H 399.585 5.80938 -3.04708 0
M  V30 4369 H 399.502 5.85909 -4.77752 0
M  V30 4370 H 400.77 6.71744 -3.9545 0
M  V30 4371 N 404.999 1.35443 0.805782 0
M  V30 4372 C 405.946 1.28431 1.91766 0
M  V30 4373 C 406.916 0.156102 1.65365 0
M  V30 4374 O 408.101 0.339936 1.87747 0
M  V30 4375 C 405.241 1.06301 3.2832 0
M  V30 4376 C 404.354 2.2805 3.66902 0
M  V30 4377 C 403.489 1.99064 4.92491 0
M  V30 4378 C 402.528 3.16863 5.23703 0
M  V30 4379 N 401.665 2.87647 6.40471 0
M  V30 4380 H 406.505 2.23511 1.97096 0
M  V30 4381 H 404.042 1.11105 0.964054 0
M  V30 4382 H 406 0.915012 4.07042 0
M  V30 4383 H 404.63 0.148822 3.22457 0
M  V30 4384 H 403.682 2.53711 2.83434 0
M  V30 4385 H 404.994 3.1601 3.85927 0
M  V30 4386 H 404.148 1.81099 5.7904 0
M  V30 4387 H 402.887 1.0839 4.75503 0
M  V30 4388 H 401.892 3.35404 4.35642 0
M  V30 4389 H 403.117 4.08339 5.4262 0
M  V30 4390 H 401.063 1.99568 6.24907 0
M  V30 4391 H 400.98 3.69141 6.59751 0
M  V30 4392 H 402.248 2.73226 7.30047 0
M  V30 4393 N 406.477 -1.02803 1.19454 0
M  V30 4394 C 407.425 -2.13213 0.929673 0
M  V30 4395 C 408.419 -1.69011 -0.114806 0
M  V30 4396 O 409.625 -1.79967 0.0345147 0
M  V30 4397 H 406 -0.69662 0.28324 0
M  V30 4398 H 407.971 -2.32744 1.86743 0
M  V30 4399 C 406.72 -3.4429 0.485797 0
M  V30 4400 H 406.043 -3.7872 1.28105 0
M  V30 4401 H 407.483 -4.22638 0.339582 0
M  V30 4402 C 405.942 -3.27258 -0.800244 0
M  V30 4403 O 406.472 -3.55967 -1.86146 0
M  V30 4404 N 404.678 -2.80545 -0.75781 0
M  V30 4405 H 404.225 -2.57382 0.106039 0
M  V30 4406 H 404.183 -2.6953 -1.61867 0
M  V30 4407 N 407.956 -0.998596 -1.21925 0
M  V30 4408 C 409.186 -0.695276 -1.94549 0
M  V30 4409 C 409.594 0.745079 -1.73911 0
M  V30 4410 O 408.937 1.51507 -1.03881 0
M  V30 4411 C 408.999 -0.928485 -3.47303 0
M  V30 4412 C 408.663 -2.35443 -3.91683 0
M  V30 4413 C 409.66 -3.33428 -3.98901 0
M  V30 4414 C 407.345 -2.69038 -4.24174 0
M  V30 4415 C 409.339 -4.63079 -4.37992 0
M  V30 4416 C 407.026 -3.98906 -4.62944 0
M  V30 4417 C 408.024 -4.95738 -4.69822 0
M  V30 4418 O 407.712 -6.23285 -5.07711 0
M  V30 4419 H 407.444 -0.255902 -0.625692 0
M  V30 4420 H 409.998 -1.33767 -1.5587 0
M  V30 4421 H 408.228 -0.228917 -3.86022 0
M  V30 4422 H 409.917 -0.619539 -4.01144 0
M  V30 4423 H 410.683 -3.08807 -3.73983 0
M  V30 4424 H 406.562 -1.94367 -4.18022 0
M  V30 4425 H 410.106 -5.38658 -4.43275 0
M  V30 4426 H 406.003 -4.23314 -4.87314 0
M  V30 4427 H 406.771 -6.27306 -5.25766 0
M  V30 4428 N 409.434 1.37368 -0.772513 0
M  V30 4429 C 410.683 1.98918 -0.333861 0
M  V30 4430 C 410.996 1.62017 1.09589 0
M  V30 4431 O 412.202 2.16676 1.63596 0
M  V30 4432 C 410.658 3.55735 -0.545971 0
M  V30 4433 C 410.266 4.01573 -1.98603 0
M  V30 4434 C 412.01 4.24156 -0.170979 0
M  V30 4435 C 409.917 5.51102 -2.1457 0
M  V30 4436 H 408.847 0.744214 -0.121085 0
M  V30 4437 H 411.498 1.56888 -0.95175 0
M  V30 4438 H 409.88 3.95748 0.141387 0
M  V30 4439 H 411.054 3.72803 -2.7084 0
M  V30 4440 H 409.369 3.45937 -2.31769 0
M  V30 4441 H 411.966 5.34024 -0.26878 0
M  V30 4442 H 412.309 4.06917 0.878855 0
M  V30 4443 H 412.842 3.89447 -0.810914 0
M  V30 4444 H 409.581 5.73268 -3.17875 0
M  V30 4445 H 409.101 5.81554 -1.46817 0
M  V30 4446 H 410.78 6.17083 -1.94468 0
M  V30 4447 N 410.912 0.523116 1.48665 0
M  V30 4448 C 411.842 -0.23231 2.32342 0
M  V30 4449 C 412.823 -0.941637 1.41659 0
M  V30 4450 O 414.008 -0.928751 1.70552 0
M  V30 4451 C 411.138 -1.28387 3.22698 0
M  V30 4452 C 410.092 -0.693098 4.22351 0
M  V30 4453 C 409.418 -1.8468 5.01794 0
M  V30 4454 C 410.718 0.33063 5.21252 0
M  V30 4455 H 412.412 0.466192 2.95748 0
M  V30 4456 H 409.958 0.225643 1.42221 0
M  V30 4457 H 411.911 -1.82024 3.80059 0
M  V30 4458 H 410.635 -2.01186 2.57278 0
M  V30 4459 H 409.294 -0.178299 3.66166 0
M  V30 4460 H 408.942 -2.56301 4.32804 0
M  V30 4461 H 408.642 -1.45747 5.69238 0
M  V30 4462 H 410.166 -2.38709 5.62006 0
M  V30 4463 H 411.58 -0.118407 5.73178 0
M  V30 4464 H 409.977 0.636974 5.9671 0
M  V30 4465 H 411.047 1.23883 4.68808 0
M  V30 4466 N 412.39 -1.55475 0.257931 0
M  V30 4467 C 413.801 -1.8511 -0.243135 0
M  V30 4468 C 414.152 -1.17986 -1.5676 0
M  V30 4469 O 413.277 -0.462102 -2.11409 0
M  V30 4470 C 413.872 -3.35826 -0.447929 0
M  V30 4471 C 412.431 -3.65647 -0.893245 0
M  V30 4472 C 411.578 -2.7729 0.0232965 0
M  V30 4473 H 414.529 -1.51261 0.480199 0
M  V30 4474 H 414.55 -3.58002 -1.28898 0
M  V30 4475 H 414.062 -3.84652 0.516196 0
M  V30 4476 H 412.163 -3.22308 -1.86945 0
M  V30 4477 H 412.276 -4.73312 -0.742469 0
M  V30 4478 H 410.64 -2.49942 -0.490021 0
M  V30 4479 H 411.423 -3.28926 0.982994 0
M  V30 4480 N 413.868 0.0150385 -1.57593 0
M  V30 4481 C 414.815 1.01126 -2.07466 0
M  V30 4482 C 415.785 1.35064 -0.966794 0
M  V30 4483 O 416.97 1.4516 -1.23827 0
M  V30 4484 C 414.11 2.30276 -2.57035 0
M  V30 4485 C 413.223 2.02373 -3.81666 0
M  V30 4486 C 412.358 3.25496 -4.19793 0
M  V30 4487 C 411.397 2.93211 -5.37303 0
M  V30 4488 N 410.534 4.08826 -5.70794 0
M  V30 4489 H 415.374 0.57901 -2.92321 0
M  V30 4490 H 412.911 0.27426 -1.44521 0
M  V30 4491 H 414.869 3.05757 -2.83846 0
M  V30 4492 H 413.499 2.71197 -1.75077 0
M  V30 4493 H 412.551 1.17327 -3.61854 0
M  V30 4494 H 413.863 1.74567 -4.67256 0
M  V30 4495 H 413.017 4.09333 -4.47807 0
M  V30 4496 H 411.756 3.56428 -3.32882 0
M  V30 4497 H 410.761 2.07777 -5.09027 0
M  V30 4498 H 411.986 2.63542 -6.25877 0
M  V30 4499 H 409.932 4.39682 -4.86842 0
M  V30 4500 H 409.849 3.84491 -6.50924 0
M  V30 4501 H 411.117 4.93496 -6.03392 0
M  V30 4502 N 415.346 1.54954 0.287554 0
M  V30 4503 C 416.571 1.79209 1.04397 0
M  V30 4504 C 416.996 0.556431 1.79682 0
M  V30 4505 O 416.354 -0.493518 1.74454 0
M  V30 4506 C 416.402 3.00739 1.98969 0
M  V30 4507 O 415.506 2.74805 3.075 0
M  V30 4508 H 414.847 0.592755 0.299227 0
M  V30 4509 H 417.377 2.02068 0.320886 0
M  V30 4510 H 417.387 3.29077 2.4119 0
M  V30 4511 H 416.062 3.90329 1.43582 0
M  V30 4512 H 414.639 2.57523 2.69697 0
M  V30 4513 N 416.824 -0.551391 1.4764 0
M  V30 4514 C 418.073 -1.30467 1.53822 0
M  V30 4515 C 418.386 -1.94495 0.207661 0
M  V30 4516 O 419.592 -2.71099 0.147533 0
M  V30 4517 C 418.048 -2.36616 2.71184 0
M  V30 4518 C 417.656 -1.78754 4.10793 0
M  V30 4519 C 419.4 -3.13088 2.86663 0
M  V30 4520 C 417.307 -2.82717 5.19447 0
M  V30 4521 H 416.237 -0.490584 0.572576 0
M  V30 4522 H 418.888 -0.58494 1.73927 0
M  V30 4523 H 417.27 -3.11529 2.4447 0
M  V30 4524 H 418.444 -1.10173 4.47435 0
M  V30 4525 H 416.759 -1.14846 4.00249 0
M  V30 4526 H 419.356 -3.90736 3.65007 0
M  V30 4527 H 419.699 -3.67635 1.95321 0
M  V30 4528 H 420.232 -2.45288 3.13175 0
M  V30 4529 H 416.971 -2.33018 6.12685 0
M  V30 4530 H 416.491 -3.4969 4.87316 0
M  V30 4531 H 418.17 -3.46102 5.46646 0
M  V30 4532 N 418.302 -1.35869 -0.798587 0
M  V30 4533 C 419.548 -1.2978 -1.55836 0
M  V30 4534 C 419.881 0.125322 -1.93795 0
M  V30 4535 O 419.156 1.07658 -1.61987 0
M  V30 4536 C 419.439 -2.21188 -2.84162 0
M  V30 4537 C 419.292 -3.72155 -2.52628 0
M  V30 4538 C 420.611 -2.11545 -3.85923 0
M  V30 4539 H 417.73 -0.472769 -0.565383 0
M  V30 4540 H 420.372 -1.66341 -0.918192 0
M  V30 4541 H 418.522 -1.90139 -3.38791 0
M  V30 4542 H 420.194 -4.13682 -2.04121 0
M  V30 4543 H 418.437 -3.92042 -1.85704 0
M  V30 4544 H 419.108 -4.31511 -3.44242 0
M  V30 4545 H 421.584 -2.38855 -3.40716 0
M  V30 4546 H 420.46 -2.77688 -4.73477 0
M  V30 4547 H 420.721 -1.09987 -4.282 0
M  V30 4548 N 419.78 1.02168 -1.19998 0
M  V30 4549 C 420.73 2.08969 -0.911921 0
M  V30 4550 C 421.714 1.60404 0.12621 0
M  V30 4551 O 422.906 1.76817 -0.0804706 0
M  V30 4552 C 420.035 3.402 -0.460277 0
M  V30 4553 C 419.121 3.9548 -1.53155 0
M  V30 4554 N 419.512 4.24332 -2.75275 0
M  V30 4555 C 417.81 4.23572 -1.39653 0
M  V30 4556 C 418.511 4.68834 -3.44339 0
M  V30 4557 N 417.487 4.70804 -2.71744 0
M  V30 4558 H 421.289 2.29178 -1.83997 0
M  V30 4559 H 418.803 1.20094 -1.09322 0
M  V30 4560 H 420.8 4.16235 -0.235337 0
M  V30 4561 H 419.46 3.21408 0.4612 0
M  V30 4562 H 420.471 4.13393 -3.11973 0
M  V30 4563 H 417.148 4.14005 -0.539067 0
M  V30 4564 H 418.538 5.00019 -4.4881 0
M  V30 4565 N 421.258 1.00505 1.21394 0
M  V30 4566 C 422.206 0.558623 2.25792 0
M  V30 4567 C 423.2 -0.396848 1.64686 0
M  V30 4568 O 424.406 -0.268035 1.77993 0
M  V30 4569 H 420.781 0.1623 0.734277 0
M  V30 4570 H 422.752 1.4503 2.60785 0
M  V30 4571 C 421.501 -0.0989574 3.47559 0
M  V30 4572 H 420.824 0.627225 3.94849 0
M  V30 4573 H 422.264 -0.3746 4.22342 0
M  V30 4574 C 420.723 -1.33817 3.09184 0
M  V30 4575 O 421.253 -2.43252 3.19674 0
M  V30 4576 N 419.459 -1.21793 2.63846 0
M  V30 4577 H 419.006 -0.32746 2.5551 0
M  V30 4578 H 418.964 -2.04809 2.38539 0
M  V30 4579 N 422.737 -1.36956 0.779787 0
M  V30 4580 C 424.148 -1.82094 0.412156 0
M  V30 4581 C 424.499 -1.64926 -1.06273 0
M  V30 4582 O 423.624 -1.16483 -1.82375 0
M  V30 4583 C 424.219 -3.3059 0.741319 0
M  V30 4584 C 422.778 -3.73974 0.426641 0
M  V30 4585 C 421.925 -2.59368 0.980987 0
M  V30 4586 H 424.876 -1.25314 0.973758 0
M  V30 4587 H 424.897 -3.80489 0.028887 0
M  V30 4588 H 424.409 -3.43054 1.81482 0
M  V30 4589 H 422.51 -3.67076 -0.639215 0
M  V30 4590 H 422.623 -4.69778 0.940515 0
M  V30 4591 H 420.987 -2.51463 0.404757 0
M  V30 4592 H 421.77 -2.74621 2.06005 0
M  V30 4593 N 424.215 -0.530993 -1.48385 0
M  V30 4594 C 425.492 0.0671788 -1.95485 0
M  V30 4595 C 425.872 1.51191 -1.47324 0
M  V30 4596 O 425.22 2.17507 -0.700202 0
M  V30 4597 C 425.43 -0.0511206 -3.48963 0
M  V30 4598 C 426.778 0.107632 -4.24464 0
M  V30 4599 O 427.802 0.0226248 -3.56193 0
M  V30 4600 O 426.661 0.285972 -5.45751 0
M  V30 4601 H 423.755 0.0787365 -0.823243 0
M  V30 4602 H 426.301 -0.595662 -1.58902 0
M  V30 4603 H 425.073 -1.05747 -3.7674 0
M  V30 4604 H 424.696 0.650525 -3.92242 0
M  V30 4605 N 425.693 1.55336 -0.266172 0
M  V30 4606 C 426.942 1.98574 0.353749 0
M  V30 4607 C 427.255 1.15789 1.57646 0
M  V30 4608 O 428.461 1.49129 2.26876 0
M  V30 4609 C 426.917 3.53403 0.680747 0
M  V30 4610 C 426.525 4.44953 -0.52165 0
M  V30 4611 C 428.269 4.05251 1.26379 0
M  V30 4612 C 426.176 5.91156 -0.169736 0
M  V30 4613 H 425.106 0.741643 0.135949 0
M  V30 4614 H 427.757 1.79743 -0.369421 0
M  V30 4615 H 426.139 3.68001 1.46257 0
M  V30 4616 H 427.313 4.42121 -1.29869 0
M  V30 4617 H 425.628 4.03691 -1.02093 0
M  V30 4618 H 428.225 5.12021 1.54074 0
M  V30 4619 H 428.568 3.53749 2.19471 0
M  V30 4620 H 429.101 3.94057 0.544447 0
M  V30 4621 H 425.84 6.46736 -1.0683 0
M  V30 4622 H 425.36 5.97079 0.570717 0
M  V30 4623 H 427.039 6.4655 0.241245 0
M  V30 4624 N 427.171 -0.0066808 1.57599 0
M  V30 4625 C 428.401 -0.703066 1.94269 0
M  V30 4626 C 428.809 -1.68206 0.866222 0
M  V30 4627 O 428.152 -1.82966 -0.164087 0
M  V30 4628 C 428.214 -1.49616 3.26887 0
M  V30 4629 C 427.878 -0.679494 4.5192 0
M  V30 4630 C 428.875 0.0299508 5.19891 0
M  V30 4631 C 426.56 -0.627433 4.98366 0
M  V30 4632 C 428.554 0.780514 6.32603 0
M  V30 4633 C 426.241 0.126861 6.10968 0
M  V30 4634 C 427.239 0.829574 6.77943 0
M  V30 4635 O 426.927 1.57157 7.88389 0
M  V30 4636 H 426.659 -0.201217 0.645359 0
M  V30 4637 H 429.213 0.0385326 2.05364 0
M  V30 4638 H 427.443 -2.28209 3.12182 0
M  V30 4639 H 429.132 -2.07726 3.48719 0
M  V30 4640 H 429.898 -0.00115963 4.85 0
M  V30 4641 H 425.777 -1.16392 4.46065 0
M  V30 4642 H 429.321 1.32954 6.84813 0
M  V30 4643 H 425.218 0.159815 6.45302 0
M  V30 4644 H 425.986 1.48758 8.04868 0
M  V30 4645 N 428.649 -1.55105 -0.279332 0
M  V30 4646 C 430.065 -1.46803 -0.626187 0
M  V30 4647 C 430.265 -0.676939 -1.89789 0
M  V30 4648 O 429.321 -0.19326 -2.51759 0
M  V30 4649 C 430.634 -2.90962 -0.759034 0
M  V30 4650 C 432.182 -3.01138 -0.853504 0
M  V30 4651 C 432.657 -4.46539 -1.01818 0
M  V30 4652 N 434.148 -4.50341 -1.08386 0
M  V30 4653 C 434.883 -5.60053 -1.22996 0
M  V30 4654 N 434.379 -6.79645 -1.34366 0
M  V30 4655 N 436.172 -5.47783 -1.26056 0
M  V30 4656 H 428.323 -2.04996 0.555921 0
M  V30 4657 H 430.586 -0.929325 0.187239 0
M  V30 4658 H 430.292 -3.51544 0.104852 0
M  V30 4659 H 430.166 -3.39619 -1.64131 0
M  V30 4660 H 432.553 -2.40658 -1.70786 0
M  V30 4661 H 432.634 -2.55745 0.0532466 0
M  V30 4662 H 432.278 -5.0762 -0.168504 0
M  V30 4663 H 432.208 -4.89583 -1.93948 0
M  V30 4664 H 434.699 -3.64191 -1.00864 0
M  V30 4665 H 435.012 -7.59012 -1.4533 0
M  V30 4666 H 433.357 -6.82469 -1.31382 0
M  V30 4667 H 436.548 -4.53294 -1.168 0
M  V30 4668 H 436.721 -6.33331 -1.37098 0
M  V30 4669 N 430.127 0.543554 -1.4793 0
M  V30 4670 C 431.376 1.29649 -1.54512 0
M  V30 4671 C 431.689 1.94382 -0.217973 0
M  V30 4672 O 432.895 2.71017 -0.161908 0
M  V30 4673 C 431.351 2.35175 -2.72435 0
M  V30 4674 C 430.959 1.76572 -4.11736 0
M  V30 4675 C 432.703 3.11564 -2.8832 0
M  V30 4676 C 430.61 2.79958 -5.20939 0
M  V30 4677 H 429.54 0.487541 -0.57517 0
M  V30 4678 H 432.191 0.575708 -1.74235 0
M  V30 4679 H 430.573 3.10229 -2.46118 0
M  V30 4680 H 431.747 1.07799 -4.48013 0
M  V30 4681 H 430.062 1.12722 -4.00852 0
M  V30 4682 H 432.659 3.88794 -3.67074 0
M  V30 4683 H 433.002 3.66594 -1.97268 0
M  V30 4684 H 433.535 2.43623 -3.14472 0
M  V30 4685 H 430.274 2.29766 -6.13912 0
M  V30 4686 H 429.794 3.47101 -4.89164 0
M  V30 4687 H 431.473 3.43198 -5.48474 0
M  V30 4688 N 431.605 1.3629 0.791371 0
M  V30 4689 C 432.854 1.29742 1.54434 0
M  V30 4690 C 433.167 -0.121729 1.95221 0
M  V30 4691 O 434.373 -0.309579 2.69729 0
M  V30 4692 C 432.829 2.27623 2.78776 0
M  V30 4693 C 432.437 3.74963 2.45166 0
M  V30 4694 C 434.181 2.30047 3.56761 0
M  V30 4695 C 432.088 4.64626 3.65891 0
M  V30 4696 H 431.018 0.482113 0.579727 0
M  V30 4697 H 433.669 1.61642 0.868565 0
M  V30 4698 H 432.051 1.88714 3.48142 0
M  V30 4699 H 433.225 4.22596 1.83709 0
M  V30 4700 H 431.54 3.75295 1.80396 0
M  V30 4701 H 434.137 2.94247 4.46456 0
M  V30 4702 H 434.48 1.30846 3.95203 0
M  V30 4703 H 435.013 2.67563 2.94372 0
M  V30 4704 H 431.752 5.64883 3.32547 0
M  V30 4705 H 431.272 4.2171 4.26521 0
M  V30 4706 H 432.951 4.80801 4.32943 0
M  V30 4707 N 433.083 -1.0153 1.20538 0
M  V30 4708 C 434.033 -2.08482 0.922991 0
M  V30 4709 C 435.017 -1.60469 -0.117702 0
M  V30 4710 O 436.209 -1.76772 0.0898465 0
M  V30 4711 C 433.338 -3.39952 0.478312 0
M  V30 4712 C 432.424 -3.94662 1.5525 0
M  V30 4713 N 432.815 -4.22866 2.77521 0
M  V30 4714 C 431.113 -4.22825 1.41897 0
M  V30 4715 C 431.814 -4.67002 3.4682 0
M  V30 4716 N 430.79 -4.69356 2.74237 0
M  V30 4717 H 434.592 -2.28199 1.85209 0
M  V30 4718 H 432.106 -1.19512 1.09957 0
M  V30 4719 H 434.103 -4.16105 0.257408 0
M  V30 4720 H 432.763 -3.21648 -0.444148 0
M  V30 4721 H 433.774 -4.11732 3.1416 0
M  V30 4722 H 430.451 -4.13714 0.561015 0
M  V30 4723 H 431.841 -4.97632 4.51455 0
M  V30 4724 N 434.561 -1.01147 -1.20859 0
M  V30 4725 C 435.786 -0.716698 -1.94623 0
M  V30 4726 C 436.211 0.715415 -1.73964 0
M  V30 4727 O 435.569 1.49157 -1.03062 0
M  V30 4728 C 435.617 -1.0513 -3.44935 0
M  V30 4729 O 434.721 -0.160131 -4.12089 0
M  V30 4730 H 434.062 -0.266404 -0.608214 0
M  V30 4731 H 436.592 -1.35346 -1.53436 0
M  V30 4732 H 436.602 -1.00086 -3.95533 0
M  V30 4733 H 435.277 -2.09475 -3.59295 0
M  V30 4734 H 433.854 -0.267657 -3.71938 0
M  V30 4735 N 436.039 1.36541 -0.78704 0
M  V30 4736 C 437.316 1.9355 -0.282424 0
M  V30 4737 C 437.696 1.71919 1.22503 0
M  V30 4738 O 437.044 1.07677 2.01539 0
M  V30 4739 C 437.254 3.4246 -0.672462 0
M  V30 4740 C 438.602 4.19582 -0.650863 0
M  V30 4741 O 439.626 3.50889 -0.612789 0
M  V30 4742 O 438.485 5.42106 -0.691623 0
M  V30 4743 H 435.579 0.824091 -0.0693 0
M  V30 4744 H 438.125 1.45736 -0.869423 0
M  V30 4745 H 436.897 3.51851 -1.71221 0
M  V30 4746 H 436.52 3.97556 -0.0592211 0
M  V30 4747 N 437.518 0.538854 1.48102 0
M  V30 4748 C 438.465 -0.219042 2.29758 0
M  V30 4749 C 439.435 -0.925562 1.37922 0
M  V30 4750 O 440.62 -0.924855 1.66886 0
M  V30 4751 C 437.76 -1.25452 3.2149 0
M  V30 4752 C 436.873 -0.555943 4.28408 0
M  V30 4753 C 436.008 -1.57512 5.0731 0
M  V30 4754 C 435.047 -0.860498 6.06021 0
M  V30 4755 N 434.184 -1.82564 6.77949 0
M  V30 4756 H 439.024 0.483449 2.94052 0
M  V30 4757 H 436.561 0.250247 1.44956 0
M  V30 4758 H 438.519 -1.86727 3.7308 0
M  V30 4759 H 437.149 -1.92528 2.591 0
M  V30 4760 H 436.201 0.170938 3.80016 0
M  V30 4761 H 437.513 0.00474616 4.988 0
M  V30 4762 H 436.667 -2.26191 5.62959 0
M  V30 4763 H 435.406 -2.16972 4.36778 0
M  V30 4764 H 434.411 -0.159686 5.49568 0
M  V30 4765 H 435.636 -0.271897 6.78555 0
M  V30 4766 H 433.582 -2.40915 6.10161 0
M  V30 4767 H 433.499 -1.31662 7.44447 0
M  V30 4768 H 434.767 -2.50414 7.38182 0
M  V30 4769 N 438.996 -1.55193 0.274407 0
M  V30 4770 C 440.242 -1.99877 -0.343086 0
M  V30 4771 C 440.575 -1.16256 -1.55558 0
M  V30 4772 O 439.85 -0.232462 -1.93106 0
M  V30 4773 C 440.133 -3.52706 -0.725965 0
M  V30 4774 C 439.986 -4.47081 0.493818 0
M  V30 4775 C 441.305 -4.11422 -1.56268 0
M  V30 4776 H 438.424 -0.726625 -0.123229 0
M  V30 4777 H 441.066 -1.86136 0.38121 0
M  V30 4778 H 439.216 -3.64546 -1.34307 0
M  V30 4779 H 440.888 -4.47186 1.13237 0
M  V30 4780 H 439.131 -4.1877 1.13201 0
M  V30 4781 H 439.802 -5.51699 0.18217 0
M  V30 4782 H 442.278 -4.02855 -1.04151 0
M  V30 4783 H 441.154 -5.18568 -1.79939 0
M  V30 4784 H 441.415 -3.61607 -2.54348 0
M  V30 4785 N 440.474 -0.00167713 -1.576 0
M  V30 4786 C 441.406 1.0174 -2.05382 0
M  V30 4787 C 442.419 1.30595 -0.972052 0
M  V30 4788 O 443.608 1.27542 -1.24882 0
M  V30 4789 C 440.708 2.35174 -2.44022 0
M  V30 4790 C 439.881 2.25234 -3.74951 0
M  V30 4791 C 438.94 3.4137 -4.00441 0
M  V30 4792 O 437.966 3.19483 -4.71083 0
M  V30 4793 N 439.168 4.64275 -3.48467 0
M  V30 4794 H 441.933 0.609902 -2.93428 0
M  V30 4795 H 439.494 0.185672 -1.60832 0
M  V30 4796 H 441.486 3.11643 -2.58187 0
M  V30 4797 H 440.056 2.67659 -1.61485 0
M  V30 4798 H 439.276 1.33664 -3.70847 0
M  V30 4799 H 440.564 2.15767 -4.60784 0
M  V30 4800 H 439.962 4.84955 -2.91264 0
M  V30 4801 H 438.519 5.38005 -3.67959 0
M  V30 4802 N 441.952 1.55251 0.271103 0
M  V30 4803 C 442.915 1.87484 1.31842 0
M  V30 4804 C 443.915 0.749545 1.42262 0
M  V30 4805 O 445.105 1.01771 1.4138 0
M  V30 4806 C 442.237 2.0818 2.69951 0
M  V30 4807 H 443.43 2.81108 1.0449 0
M  V30 4808 H 440.983 1.47771 0.509258 0
M  V30 4809 H 441.718 1.16944 3.02481 0
M  V30 4810 H 441.503 2.90114 2.63774 0
M  V30 4811 H 442.993 2.34385 3.4562 0
M  V30 4812 N 443.43 -0.535701 1.48216 0
M  V30 4813 C 444.655 -1.32149 1.59848 0
M  V30 4814 C 445.08 -1.86338 0.256842 0
M  V30 4815 O 444.438 -1.64107 -0.770632 0
M  V30 4816 C 444.486 -2.45224 2.64381 0
M  V30 4817 O 443.59 -3.48093 2.21144 0
M  V30 4818 H 442.931 -0.391634 0.536208 0
M  V30 4819 H 445.461 -0.645202 1.94161 0
M  V30 4820 H 445.471 -2.91491 2.85476 0
M  V30 4821 H 444.146 -2.05143 3.61786 0
M  V30 4822 H 442.723 -3.07984 2.10239 0
M  V30 4823 N 444.908 -1.36708 -0.784132 0
M  V30 4824 C 445.838 -1.34153 -1.91116 0
M  V30 4825 C 446.819 -0.212121 -1.68772 0
M  V30 4826 O 448.004 -0.410581 -1.8981 0
M  V30 4827 C 445.134 -1.13535 -3.28218 0
M  V30 4828 C 444.088 -2.23356 -3.65097 0
M  V30 4829 C 443.414 -1.87875 -5.00607 0
M  V30 4830 C 444.714 -3.65473 -3.73131 0
M  V30 4831 H 446.408 -2.28459 -1.93512 0
M  V30 4832 H 443.954 -1.09973 -0.929618 0
M  V30 4833 H 445.907 -1.10381 -4.06687 0
M  V30 4834 H 444.631 -0.156804 -3.26223 0
M  V30 4835 H 443.29 -2.25645 -2.88929 0
M  V30 4836 H 442.938 -0.885814 -4.95139 0
M  V30 4837 H 442.638 -2.61406 -5.26252 0
M  V30 4838 H 444.162 -1.86286 -5.81489 0
M  V30 4839 H 445.576 -3.65382 -4.41779 0
M  V30 4840 H 443.973 -4.37953 -4.10265 0
M  V30 4841 H 445.043 -3.99995 -2.74102 0
M  V30 4842 N 446.386 1.0089 -1.21074 0
M  V30 4843 C 447.316 2.1145 -0.990523 0
M  V30 4844 C 448.297 1.69897 0.0831699 0
M  V30 4845 O 449.482 1.94052 -0.0758853 0
M  V30 4846 C 446.612 3.42914 -0.550177 0
M  V30 4847 C 445.566 3.98244 -1.56799 0
M  V30 4848 C 444.892 5.25568 -0.984013 0
M  V30 4849 C 446.192 4.30752 -2.95381 0
M  V30 4850 H 447.886 2.3013 -1.91521 0
M  V30 4851 H 445.432 1.10592 -0.92225 0
M  V30 4852 H 447.385 4.19653 -0.383305 0
M  V30 4853 H 446.109 3.24014 0.41015 0
M  V30 4854 H 444.768 3.23621 -1.72236 0
M  V30 4855 H 444.416 5.02998 -0.0155216 0
M  V30 4856 H 444.116 5.63551 -1.66384 0
M  V30 4857 H 445.64 6.04955 -0.828378 0
M  V30 4858 H 447.054 4.98349 -2.8341 0
M  V30 4859 H 445.451 4.79869 -3.60341 0
M  V30 4860 H 446.521 3.39192 -3.46521 0
M  V30 4861 N 447.864 1.01787 1.20321 0
M  V30 4862 C 448.827 0.593972 2.2137 0
M  V30 4863 C 449.827 -0.336553 1.57239 0
M  V30 4864 O 451.017 -0.125069 1.7375 0
M  V30 4865 C 448.149 -0.132433 3.40643 0
M  V30 4866 H 449.342 1.48791 2.60387 0
M  V30 4867 H 446.895 0.807803 1.33807 0
M  V30 4868 H 447.63 -1.04123 3.0713 0
M  V30 4869 H 447.415 0.53605 3.88418 0
M  V30 4870 H 448.905 -0.416314 4.1552 0
M  V30 4871 N 449.342 -1.36122 0.79427 0
M  V30 4872 C 450.289 -2.29982 0.194101 0
M  V30 4873 C 451.259 -1.52214 -0.664833 0
M  V30 4874 O 452.444 -1.80702 -0.612498 0
M  V30 4875 C 449.584 -3.38706 -0.661244 0
M  V30 4876 C 448.697 -4.31456 0.216766 0
M  V30 4877 C 447.832 -5.27265 -0.645411 0
M  V30 4878 C 446.871 -6.11653 0.233756 0
M  V30 4879 N 446.008 -6.99636 -0.587682 0
M  V30 4880 H 450.848 -2.80722 0.999965 0
M  V30 4881 H 448.385 -1.38172 0.504677 0
M  V30 4882 H 450.343 -4.00394 -1.17219 0
M  V30 4883 H 448.973 -2.89274 -1.43249 0
M  V30 4884 H 448.025 -3.7088 0.845724 0
M  V30 4885 H 449.337 -4.90724 0.893973 0
M  V30 4886 H 448.491 -5.94266 -1.22198 0
M  V30 4887 H 447.23 -4.68463 -1.35623 0
M  V30 4888 H 446.235 -5.4361 0.82269 0
M  V30 4889 H 447.46 -6.72531 0.942247 0
M  V30 4890 H 445.406 -6.43337 -1.2827 0
M  V30 4891 H 445.323 -7.55993 0.0317402 0
M  V30 4892 H 446.591 -7.71001 -1.14792 0
M  V30 4893 N 450.82 -0.546701 -1.47814 0
M  V30 4894 C 451.767 0.206854 -2.29871 0
M  V30 4895 C 452.737 0.918235 -1.38411 0
M  V30 4896 O 453.922 0.915991 -1.67375 0
M  V30 4897 C 451.062 1.23746 -3.22151 0
M  V30 4898 C 450.175 0.533216 -4.28697 0
M  V30 4899 C 449.31 1.5482 -5.08138 0
M  V30 4900 C 448.349 0.828347 -6.06469 0
M  V30 4901 N 447.486 1.78966 -6.78908 0
M  V30 4902 H 452.326 -0.499037 -2.93792 0
M  V30 4903 H 449.863 -0.25793 -1.44821 0
M  V30 4904 H 451.821 1.84746 -3.74065 0
M  V30 4905 H 450.451 1.91151 -2.60117 0
M  V30 4906 H 449.503 -0.191089 -3.7992 0
M  V30 4907 H 450.815 -0.0311987 -4.9879 0
M  V30 4908 H 449.969 2.23202 -5.6415 0
M  V30 4909 H 448.708 2.14652 -4.37922 0
M  V30 4910 H 447.713 0.130539 -5.49645 0
M  V30 4911 H 448.938 0.235907 -6.7869 0
M  V30 4912 H 446.884 2.37675 -6.1143 0
M  V30 4913 H 446.801 1.27712 -7.45135 0
M  V30 4914 H 448.069 2.46496 -7.395 0
M  V30 4915 N 452.299 1.55045 -0.282633 0
M  V30 4916 C 453.246 2.22822 0.601566 0
M  V30 4917 C 454.216 1.20431 1.14392 0
M  V30 4918 O 455.401 1.48996 1.19184 0
M  V30 4919 C 452.541 2.95873 1.77632 0
M  V30 4920 C 451.654 4.12999 1.26711 0
M  V30 4921 C 450.789 4.73676 2.40426 0
M  V30 4922 C 449.828 5.82981 1.86545 0
M  V30 4923 N 448.965 6.3769 2.93762 0
M  V30 4924 H 453.805 2.97995 0.0169528 0
M  V30 4925 H 451.342 1.471 -0.00339964 0
M  V30 4926 H 453.3 3.36447 2.46697 0
M  V30 4927 H 451.93 2.2311 2.33285 0
M  V30 4928 H 450.982 3.77494 0.469314 0
M  V30 4929 H 452.294 4.91803 0.832518 0
M  V30 4930 H 451.448 5.17008 3.17471 0
M  V30 4931 H 450.187 3.94164 2.87203 0
M  V30 4932 H 449.192 5.39092 1.07983 0
M  V30 4933 H 450.417 6.64366 1.40694 0
M  V30 4934 H 448.363 5.61069 3.39908 0
M  V30 4935 H 448.28 7.11788 2.54744 0
M  V30 4936 H 449.548 6.8568 3.7076 0
M  V30 4937 N 453.777 0.010035 1.57597 0
M  V30 4938 C 455.188 -0.531426 1.78977 0
M  V30 4939 C 455.539 -1.73375 0.918454 0
M  V30 4940 O 454.664 -2.16047 0.123635 0
M  V30 4941 C 455.259 -0.97086 3.24592 0
M  V30 4942 C 453.818 -1.45756 3.47033 0
M  V30 4943 C 452.965 -0.413384 2.74201 0
M  V30 4944 H 455.916 0.236166 1.56933 0
M  V30 4945 H 455.937 -1.83633 3.33255 0
M  V30 4946 H 455.449 -0.0955893 3.87982 0
M  V30 4947 H 453.55 -2.35339 2.88871 0
M  V30 4948 H 453.663 -1.4781 4.55729 0
M  V30 4949 H 452.027 -0.877266 2.39115 0
M  V30 4950 H 452.81 0.453092 3.40297 0
M  V30 4951 N 455.255 -1.55392 -0.262866 0
M  V30 4952 C 456.495 -1.78231 -1.00064 0
M  V30 4953 C 456.859 -0.576966 -1.83126 0
M  V30 4954 O 458.06 -0.683809 -2.59957 0
M  V30 4955 C 456.331 -3.05701 -1.85153 0
M  V30 4956 S 457.89 -3.49699 -2.65058 0
M  V30 4957 H 454.708 -0.626138 -0.336856 0
M  V30 4958 H 457.31 -1.93626 -0.27005 0
M  V30 4959 H 456.014 -3.91511 -1.23074 0
M  V30 4960 H 455.545 -2.93 -2.62515 0
M  V30 4961 H 457.56 -3.09772 -3.87629 0
M  V30 4962 N 456.733 0.527833 -1.48498 0
M  V30 4963 C 457.68 1.6322 -1.6318 0
M  V30 4964 C 458.65 1.59199 -0.473815 0
M  V30 4965 O 459.835 1.77591 -0.697563 0
M  V30 4966 C 456.975 3.01474 -1.67951 0
M  V30 4967 C 456.088 3.15713 -2.94871 0
M  V30 4968 C 455.223 4.44539 -2.90789 0
M  V30 4969 C 454.262 4.52315 -4.12404 0
M  V30 4970 N 453.399 5.72533 -4.06387 0
M  V30 4971 H 458.239 1.50011 -2.57489 0
M  V30 4972 H 455.776 0.730298 -1.27691 0
M  V30 4973 H 457.734 3.81572 -1.68698 0
M  V30 4974 H 456.364 3.1345 -0.771306 0
M  V30 4975 H 455.416 2.28854 -3.03859 0
M  V30 4976 H 456.728 3.1732 -3.8485 0
M  V30 4977 H 455.882 5.3293 -2.89949 0
M  V30 4978 H 454.621 4.45457 -1.98542 0
M  V30 4979 H 453.626 3.62331 -4.13517 0
M  V30 4980 H 454.851 4.53134 -5.05812 0
M  V30 4981 H 452.797 5.74344 -3.16962 0
M  V30 4982 H 452.714 5.75643 -4.90073 0
M  V30 4983 H 453.982 6.63204 -4.0961 0
M  V30 4984 N 458.211 1.37122 0.776871 0
M  V30 4985 C 459.158 1.3247 1.88998 0
M  V30 4986 C 460.128 0.191143 1.64997 0
M  V30 4987 O 461.313 0.379683 1.86984 0
M  V30 4988 C 458.453 1.13241 3.25992 0
M  V30 4989 C 457.566 2.35782 3.61982 0
M  V30 4990 C 456.701 2.09465 4.88158 0
M  V30 4991 C 455.74 3.279 5.16864 0
M  V30 4992 N 454.877 3.01167 6.34226 0
M  V30 4993 H 459.717 2.27642 1.9231 0
M  V30 4994 H 457.254 1.13125 0.94027 0
M  V30 4995 H 459.212 1.00115 4.0501 0
M  V30 4996 H 457.842 0.217186 3.22069 0
M  V30 4997 H 456.894 2.59666 2.77989 0
M  V30 4998 H 458.206 3.24125 3.79137 0
M  V30 4999 H 457.36 1.93341 5.75069 0
M  V30 5000 H 456.099 1.18452 4.73097 0
M  V30 5001 H 455.104 3.44569 4.2843 0
M  V30 5002 H 456.329 4.19757 5.33836 0
M  V30 5003 H 454.275 2.12779 6.20533 0
M  V30 5004 H 454.192 3.83052 6.51772 0
M  V30 5005 H 455.46 2.88649 7.24087 0
M  V30 5006 N 459.689 -1.00246 1.21608 0
M  V30 5007 C 461.105 -1.26435 0.973975 0
M  V30 5008 C 461.305 -1.98642 -0.338143 0
M  V30 5009 O 460.361 -2.29026 -1.06317 0
M  V30 5010 C 461.674 -2.08551 2.16626 0
M  V30 5011 C 463.222 -2.21769 2.20879 0
M  V30 5012 C 463.697 -3.07267 3.39633 0
M  V30 5013 N 465.188 -3.14855 3.39736 0
M  V30 5014 C 465.923 -3.81274 4.28273 0
M  V30 5015 N 465.419 -4.497 5.27012 0
M  V30 5016 N 467.212 -3.7794 4.16074 0
M  V30 5017 H 459.363 -0.518089 2.05984 0
M  V30 5018 H 461.626 -0.291368 0.902113 0
M  V30 5019 H 461.332 -1.62847 3.11727 0
M  V30 5020 H 461.206 -3.09303 2.15897 0
M  V30 5021 H 463.593 -2.66691 1.26332 0
M  V30 5022 H 463.674 -1.20478 2.25652 0
M  V30 5023 H 463.318 -2.63047 4.34475 0
M  V30 5024 H 463.248 -4.08678 3.321 0
M  V30 5025 H 465.739 -2.66147 2.6828 0
M  V30 5026 H 466.052 -4.98092 5.90867 0
M  V30 5027 H 464.397 -4.48479 5.30935 0
M  V30 5028 H 467.588 -3.23638 3.38195 0
M  V30 5029 H 467.761 -4.29424 4.85282 0
M  V30 5030 N 461.167 -1.02423 -1.1978 0
M  V30 5031 C 462.097 -0.62157 -2.25075 0
M  V30 5032 C 463.078 0.367148 -1.6609 0
M  V30 5033 O 464.263 0.250892 -1.92573 0
M  V30 5034 C 461.393 0.0331826 -3.47284 0
M  V30 5035 C 460.347 -0.877323 -4.18912 0
M  V30 5036 C 459.673 -0.0879296 -5.34628 0
M  V30 5037 C 460.973 -2.18892 -4.74219 0
M  V30 5038 H 462.667 -1.50179 -2.59011 0
M  V30 5039 H 460.213 -0.723547 -1.24502 0
M  V30 5040 H 462.166 0.326488 -4.20133 0
M  V30 5041 H 460.89 0.948164 -3.12534 0
M  V30 5042 H 459.549 -1.15475 -3.47938 0
M  V30 5043 H 459.197 0.828941 -4.96123 0
M  V30 5044 H 458.897 -0.694359 -5.83483 0
M  V30 5045 H 460.421 0.198743 -6.10276 0
M  V30 5046 H 461.835 -1.95746 -5.38847 0
M  V30 5047 H 460.232 -2.74686 -5.33542 0
M  V30 5048 H 461.302 -2.84674 -3.92541 0
M  V30 5049 N 462.645 1.35699 -0.801477 0
M  V30 5050 C 463.577 2.28598 -0.166028 0
M  V30 5051 C 464.59 1.50044 0.631721 0
M  V30 5052 O 465.779 1.72339 0.464921 0
M  V30 5053 C 462.879 3.29625 0.787451 0
M  V30 5054 C 462.052 4.37384 0.037171 0
M  V30 5055 C 461.111 5.183 0.908375 0
M  V30 5056 O 460.137 5.68053 0.361189 0
M  V30 5057 N 461.339 5.35912 2.23112 0
M  V30 5058 H 464.104 2.83771 -0.964071 0
M  V30 5059 H 461.665 1.47994 -0.656469 0
M  V30 5060 H 463.657 3.80648 1.37439 0
M  V30 5061 H 462.227 2.75004 1.48632 0
M  V30 5062 H 461.447 3.87364 -0.730935 0
M  V30 5063 H 462.735 5.0653 -0.480109 0
M  V30 5064 H 462.133 4.97125 2.69968 0
M  V30 5065 H 460.69 5.90133 2.76741 0
M  V30 5066 N 464.123 0.554532 1.47522 0
M  V30 5067 C 465.071 -0.207765 2.3167 0
M  V30 5068 C 466.065 -0.911914 1.4276 0
M  V30 5069 O 467.271 -0.833504 1.59539 0
M  V30 5070 H 463.646 -0.0858726 0.747081 0
M  V30 5071 H 465.617 0.521178 2.93813 0
M  V30 5072 C 464.366 -1.2263 3.25357 0
M  V30 5073 H 463.689 -0.693887 3.93732 0
M  V30 5074 H 465.129 -1.73062 3.87073 0
M  V30 5075 C 463.588 -2.27278 2.4869 0
M  V30 5076 O 464.118 -3.34156 2.22941 0
M  V30 5077 N 462.324 -2.01134 2.09746 0
M  V30 5078 H 461.871 -1.14232 2.30887 0
M  V30 5079 H 461.829 -2.71369 1.58765 0
M  V30 5080 N 465.601 -1.54893 0.290851 0
M  V30 5081 C 466.548 -2.23138 -0.58974 0
M  V30 5082 C 467.518 -1.21036 -1.13752 0
M  V30 5083 O 468.703 -1.49626 -1.18392 0
M  V30 5084 C 465.843 -2.96811 -1.76061 0
M  V30 5085 C 464.956 -4.13665 -1.24519 0
M  V30 5086 C 464.091 -4.74944 -2.3791 0
M  V30 5087 C 463.13 -5.83963 -1.83451 0
M  V30 5088 N 462.267 -6.39239 -2.90376 0
M  V30 5089 H 467.107 -2.98 -0.00114915 0
M  V30 5090 H 464.644 -1.47096 0.0112006 0
M  V30 5091 H 466.602 -3.37751 -2.44909 0
M  V30 5092 H 465.232 -2.24344 -2.32098 0
M  V30 5093 H 464.284 -3.77737 -0.449288 0
M  V30 5094 H 465.596 -4.92238 -0.806424 0
M  V30 5095 H 464.75 -5.18684 -3.14724 0
M  V30 5096 H 463.489 -3.95682 -2.85109 0
M  V30 5097 H 462.494 -5.39657 -1.05122 0
M  V30 5098 H 463.719 -6.65103 -1.37169 0
M  V30 5099 H 461.665 -5.62864 -3.36927 0
M  V30 5100 H 461.582 -7.13129 -2.50965 0
M  V30 5101 H 462.85 -6.87637 -3.67118 0
M  V30 5102 N 467.08 -0.0183926 -1.57589 0
M  V30 5103 C 468.028 0.985111 -2.10709 0
M  V30 5104 C 469.022 1.34397 -1.0312 0
M  V30 5105 O 470.228 1.32746 -1.21567 0
M  V30 5106 H 466.603 0.335418 -0.673052 0
M  V30 5107 H 468.574 0.511689 -2.9398 0
M  V30 5108 C 467.323 2.26202 -2.64061 0
M  V30 5109 H 466.646 1.9946 -3.4649 0
M  V30 5110 H 468.086 2.94652 -3.04887 0
M  V30 5111 C 466.545 2.98444 -1.5631 0
M  V30 5112 O 467.075 3.90142 -0.956674 0
M  V30 5113 N 465.281 2.6059 -1.28612 0
M  V30 5114 H 464.828 1.86101 -1.78112 0
M  V30 5115 H 464.786 3.09238 -0.567406 0
M  V30 5116 N 468.558 1.5553 0.254621 0
M  V30 5117 C 469.783 1.81383 1.00573 0
M  V30 5118 C 470.208 0.594419 1.78461 0
M  V30 5119 O 469.566 -0.456403 1.75461 0
M  V30 5120 C 469.614 3.04892 1.92545 0
M  V30 5121 O 468.718 2.81266 3.01601 0
M  V30 5122 H 468.059 0.598969 0.286587 0
M  V30 5123 H 470.589 2.02703 0.277952 0
M  V30 5124 H 470.599 3.34119 2.34155 0
M  V30 5125 H 469.274 3.93287 1.3527 0
M  V30 5126 H 467.851 2.63185 2.64174 0
M  V30 5127 N 470.036 -0.519951 1.48776 0
M  V30 5128 C 470.966 -1.63253 1.66945 0
M  V30 5129 C 471.947 -1.62014 0.518224 0
M  V30 5130 O 473.132 -1.79053 0.751919 0
M  V30 5131 C 470.262 -3.0181 1.71836 0
M  V30 5132 C 469.216 -3.17911 2.8656 0
M  V30 5133 C 468.542 -4.5763 2.76548 0
M  V30 5134 C 469.842 -2.99729 4.27738 0
M  V30 5135 H 471.536 -1.48302 2.6009 0
M  V30 5136 H 469.082 -0.712026 1.25165 0
M  V30 5137 H 471.035 -3.79525 1.83135 0
M  V30 5138 H 469.759 -3.17806 0.752775 0
M  V30 5139 H 468.418 -2.42616 2.74833 0
M  V30 5140 H 468.066 -4.70476 1.77937 0
M  V30 5141 H 467.766 -4.69346 3.53536 0
M  V30 5142 H 469.29 -5.37431 2.89828 0
M  V30 5143 H 470.704 -3.67228 4.40246 0
M  V30 5144 H 469.101 -3.22932 5.05801 0
M  V30 5145 H 470.171 -1.96047 4.43502 0
M  V30 5146 N 471.514 -1.37532 -0.769588 0
M  V30 5147 C 472.742 -1.36059 -1.55871 0
M  V30 5148 C 473.157 0.053544 -1.88724 0
M  V30 5149 O 472.514 1.01591 -1.5161 0
M  V30 5150 C 472.565 -2.20107 -2.86767 0
M  V30 5151 O 472.286 -3.56009 -2.55321 0
M  V30 5152 C 473.787 -2.26636 -3.80987 0
M  V30 5153 H 471.007 -0.465967 -0.482821 0
M  V30 5154 H 473.551 -1.80901 -0.953686 0
M  V30 5155 H 471.706 -1.78768 -3.43687 0
M  V30 5156 H 472.12 -4.0009 -3.39158 0
M  V30 5157 H 473.594 -2.89763 -4.69831 0
M  V30 5158 H 474.071 -1.2754 -4.20274 0
M  V30 5159 H 474.677 -2.68296 -3.29996 0
M  V30 5160 N 472.992 0.995999 -1.22138 0
M  V30 5161 C 473.94 2.10673 -0.985876 0
M  V30 5162 C 474.934 1.69255 0.0699553 0
M  V30 5163 O 476.14 1.79812 -0.0822176 0
M  V30 5164 H 472.515 0.688865 -0.30161 0
M  V30 5165 H 474.486 2.27711 -1.92848 0
M  V30 5166 C 473.235 3.42881 -0.576909 0
M  V30 5167 H 472.558 3.75191 -1.38101 0
M  V30 5168 H 473.998 4.21589 -0.451518 0
M  V30 5169 C 472.457 3.29265 0.713196 0
M  V30 5170 O 472.987 3.60777 1.76643 0
M  V30 5171 N 471.193 2.82456 0.683162 0
M  V30 5172 H 470.74 2.5701 -0.174242 0
M  V30 5173 H 470.698 2.73727 1.54663 0
M  V30 5174 N 474.47 1.03057 1.19235 0
M  V30 5175 C 475.717 0.728019 1.88961 0
M  V30 5176 C 476.045 -0.743515 1.79728 0
M  V30 5177 O 475.3 -1.55729 1.1852 0
M  V30 5178 C 475.599 1.1268 3.39172 0
M  V30 5179 C 475.265 2.5969 3.68608 0
M  V30 5180 C 473.927 2.99854 3.76352 0
M  V30 5181 C 476.279 3.54793 3.81801 0
M  V30 5182 C 473.607 4.34031 3.94758 0
M  V30 5183 C 475.959 4.88675 4.0172 0
M  V30 5184 C 474.623 5.28526 4.07697 0
M  V30 5185 H 473.893 0.266401 0.691456 0
M  V30 5186 H 476.54 1.29373 1.41191 0
M  V30 5187 H 474.845 0.479722 3.88852 0
M  V30 5188 H 476.542 0.870203 3.91444 0
M  V30 5189 H 473.132 2.27575 3.63191 0
M  V30 5190 H 477.316 3.24914 3.7516 0
M  V30 5191 H 472.572 4.6444 3.97625 0
M  V30 5192 H 476.746 5.6228 4.1087 0
M  V30 5193 H 474.373 6.32506 4.21712 0
M  V30 5194 N 475.948 -1.35272 0.808662 0
M  V30 5195 C 476.911 -2.28082 0.226093 0
M  V30 5196 C 477.911 -1.49673 -0.587762 0
M  V30 5197 O 479.101 -1.69404 -0.405943 0
M  V30 5198 C 476.233 -3.33955 -0.684596 0
M  V30 5199 H 477.426 -2.81116 1.04469 0
M  V30 5200 H 474.979 -1.45162 0.579466 0
M  V30 5201 H 475.714 -2.86111 -1.5268 0
M  V30 5202 H 475.499 -3.91965 -0.102699 0
M  V30 5203 H 476.989 -4.03219 -1.08646 0
M  V30 5204 N 477.426 -0.562348 -1.47226 0
M  V30 5205 C 478.672 -0.0402761 -2.0276 0
M  V30 5206 C 479.005 1.30823 -1.43523 0
M  V30 5207 O 478.28 1.85249 -0.592705 0
M  V30 5208 C 478.563 0.047311 -3.60069 0
M  V30 5209 C 478.416 -1.32865 -4.29729 0
M  V30 5210 C 479.735 0.758182 -4.3352 0
M  V30 5211 H 476.854 -0.0161105 -0.736824 0
M  V30 5212 H 479.496 -0.725628 -1.75598 0
M  V30 5213 H 477.646 0.630986 -3.83342 0
M  V30 5214 H 479.318 -1.95593 -4.17781 0
M  V30 5215 H 477.561 -1.90195 -3.89882 0
M  V30 5216 H 478.232 -1.22004 -5.38349 0
M  V30 5217 H 480.708 0.262546 -4.15271 0
M  V30 5218 H 479.584 0.78844 -5.43208 0
M  V30 5219 H 479.845 1.81537 -4.03109 0
M  V30 5220 N 478.904 1.54736 -0.299062 0
M  V30 5221 C 480.32 1.59507 0.0543849 0
M  V30 5222 C 480.52 1.31606 1.52585 0
M  V30 5223 O 479.576 1.08853 2.27832 0
M  V30 5224 C 480.889 2.98751 -0.34181 0
M  V30 5225 C 482.437 3.1165 -0.290414 0
M  V30 5226 C 482.912 4.53199 -0.661402 0
M  V30 5227 N 484.403 4.59114 -0.613863 0
M  V30 5228 C 485.138 5.66709 -0.873417 0
M  V30 5229 N 484.634 6.82349 -1.19884 0
M  V30 5230 N 486.427 5.56369 -0.800608 0
M  V30 5231 H 478.578 1.71133 -1.25806 0
M  V30 5232 H 480.841 0.799186 -0.509908 0
M  V30 5233 H 480.547 3.24085 -1.36608 0
M  V30 5234 H 480.421 3.75961 0.305508 0
M  V30 5235 H 482.808 2.86066 0.724605 0
M  V30 5236 H 482.889 2.366 -0.972327 0
M  V30 5237 H 482.533 4.79513 -1.67422 0
M  V30 5238 H 482.463 5.26583 0.0425612 0
M  V30 5239 H 484.954 3.76053 -0.3732 0
M  V30 5240 H 485.267 7.60326 -1.38291 0
M  V30 5241 H 483.612 6.83906 -1.23685 0
M  V30 5242 H 486.803 4.64904 -0.546045 0
M  V30 5243 H 486.976 6.40139 -1.00626 0
M  V30 5244 N 480.382 0.0267497 1.57577 0
M  V30 5245 C 481.622 -0.65659 1.93567 0
M  V30 5246 C 481.986 -1.69429 0.903213 0
M  V30 5247 O 483.187 -2.42994 1.14923 0
M  V30 5248 C 481.458 -1.25912 3.34486 0
M  V30 5249 S 483.017 -1.96386 3.924 0
M  V30 5250 H 479.835 -0.216237 0.67732 0
M  V30 5251 H 482.437 0.0898475 1.95293 0
M  V30 5252 H 481.141 -0.491405 4.07447 0
M  V30 5253 H 480.672 -2.04291 3.36198 0
M  V30 5254 H 482.687 -3.24202 3.75643 0
M  V30 5255 N 481.861 -1.55662 -0.24637 0
M  V30 5256 C 483.277 -1.48098 -0.594907 0
M  V30 5257 C 483.477 -0.717044 -1.8831 0
M  V30 5258 O 482.533 -0.246618 -2.51293 0
M  V30 5259 C 483.846 -2.92507 -0.697146 0
M  V30 5260 C 485.394 -3.02881 -0.789436 0
M  V30 5261 C 485.869 -4.48598 -0.923232 0
M  V30 5262 N 487.36 -4.52538 -0.988088 0
M  V30 5263 C 488.095 -5.62536 -1.11089 0
M  V30 5264 N 487.591 -6.82342 -1.19919 0
M  V30 5265 N 489.384 -5.50334 -1.14408 0
M  V30 5266 H 481.535 -2.0377 0.599278 0
M  V30 5267 H 483.798 -0.925145 0.20691 0
M  V30 5268 H 483.504 -3.51242 0.179396 0
M  V30 5269 H 483.378 -3.43024 -1.5689 0
M  V30 5270 H 485.765 -2.44226 -1.65643 0
M  V30 5271 H 485.846 -2.55574 0.107482 0
M  V30 5272 H 485.49 -5.07864 -0.0607927 0
M  V30 5273 H 485.42 -4.93587 -1.8352 0
M  V30 5274 H 487.911 -3.66248 -0.931167 0
M  V30 5275 H 488.224 -7.61924 -1.29197 0
M  V30 5276 H 486.569 -6.85102 -1.16876 0
M  V30 5277 H 489.76 -4.5567 -1.07158 0
M  V30 5278 H 489.933 -6.36096 -1.23634 0
M  V30 5279 N 483.339 0.512053 -1.4905 0
M  V30 5280 C 484.269 1.62365 -1.67809 0
M  V30 5281 C 485.25 1.61737 -0.526809 0
M  V30 5282 O 486.435 1.78651 -0.761404 0
M  V30 5283 C 483.565 3.00895 -1.73435 0
M  V30 5284 C 482.519 3.16387 -2.88242 0
M  V30 5285 C 481.845 4.56157 -2.78971 0
M  V30 5286 C 483.145 2.97457 -4.29321 0
M  V30 5287 H 484.839 1.46921 -2.60873 0
M  V30 5288 H 482.385 0.705379 -1.2554 0
M  V30 5289 H 484.338 3.78549 -1.85145 0
M  V30 5290 H 483.062 3.17403 -0.769619 0
M  V30 5291 H 481.721 2.41155 -2.76116 0
M  V30 5292 H 481.369 4.69525 -1.8043 0
M  V30 5293 H 481.069 4.67465 -3.5602 0
M  V30 5294 H 482.593 5.35886 -2.92675 0
M  V30 5295 H 484.007 3.64888 -4.42187 0
M  V30 5296 H 482.404 3.20245 -5.07507 0
M  V30 5297 H 483.474 1.93692 -4.44535 0
M  V30 5298 N 484.817 1.37938 0.762283 0
M  V30 5299 C 485.765 1.34569 1.89721 0
M  V30 5300 C 486.759 0.232929 1.67791 0
M  V30 5301 O 487.965 0.401485 1.75465 0
M  V30 5302 H 484.34 0.419594 0.624055 0
M  V30 5303 H 486.311 2.30357 1.8968 0
M  V30 5304 C 485.06 1.17898 3.27101 0
M  V30 5305 H 484.383 2.02781 3.44558 0
M  V30 5306 H 485.823 1.19593 4.06784 0
M  V30 5307 C 484.282 -0.114728 3.36705 0
M  V30 5308 O 484.812 -1.0949 3.8649 0
M  V30 5309 N 483.018 -0.16863 2.9011 0
M  V30 5310 H 482.565 0.62967 2.49786 0
M  V30 5311 H 482.523 -1.03383 2.96916 0
M  V30 5312 N 486.295 -0.989507 1.22664 0
M  V30 5313 C 487.706 -1.54406 1.04955 0
M  V30 5314 C 488.057 -1.92366 -0.385951 0
M  V30 5315 O 487.182 -1.75111 -1.27142 0
M  V30 5316 C 487.777 -2.80578 1.89899 0
M  V30 5317 C 486.336 -3.32464 1.76478 0
M  V30 5318 C 485.483 -2.05524 1.86159 0
M  V30 5319 H 488.434 -0.810211 1.3646 0
M  V30 5320 H 488.455 -3.53075 1.4184 0
M  V30 5321 H 487.967 -2.52918 2.94371 0
M  V30 5322 H 486.068 -3.65024 0.747528 0
M  V30 5323 H 486.181 -4.02838 2.59342 0
M  V30 5324 H 484.545 -2.19241 1.29636 0
M  V30 5325 H 485.328 -1.80258 2.92168 0
M  V30 5326 N 487.773 -1.03688 -1.18687 0
M  V30 5327 C 488.736 -0.629115 -2.20397 0
M  V30 5328 C 489.736 0.311495 -1.57754 0
M  V30 5329 O 490.926 0.0974107 -1.73927 0
M  V30 5330 C 488.058 0.0782231 -3.4081 0
M  V30 5331 H 489.251 -1.52915 -2.57987 0
M  V30 5332 H 486.804 -0.828988 -1.32505 0
M  V30 5333 H 487.539 0.992233 -3.08748 0
M  V30 5334 H 487.324 -0.597776 -3.87517 0
M  V30 5335 H 488.814 0.350156 -4.16129 0
M  V30 5336 N 489.251 1.34841 -0.815825 0
M  V30 5337 C 490.481 2.02436 -0.412695 0
M  V30 5338 C 490.889 1.61604 0.983906 0
M  V30 5339 O 490.232 0.813729 1.64694 0
M  V30 5340 C 490.294 3.56953 -0.427182 0
M  V30 5341 C 489.958 4.21083 -1.77589 0
M  V30 5342 C 490.955 4.42107 -2.73564 0
M  V30 5343 C 488.64 4.58006 -2.06243 0
M  V30 5344 C 490.634 4.99169 -3.9637 0
M  V30 5345 C 488.321 5.1478 -3.2931 0
M  V30 5346 C 489.319 5.35304 -4.24191 0
M  V30 5347 O 489.007 5.90878 -5.45086 0
M  V30 5348 H 488.739 0.655631 -0.164695 0
M  V30 5349 H 491.293 1.73246 -1.1034 0
M  V30 5350 H 489.523 3.85372 0.320175 0
M  V30 5351 H 491.212 4.05875 -0.0450875 0
M  V30 5352 H 491.978 4.13953 -2.52721 0
M  V30 5353 H 487.857 4.41339 -1.33196 0
M  V30 5354 H 491.401 5.15105 -4.70439 0
M  V30 5355 H 487.298 5.42362 -3.5002 0
M  V30 5356 H 488.066 6.0932 -5.46508 0
M  V30 5357 N 490.729 0.570148 1.46925 0
M  V30 5358 C 491.676 -0.170257 2.30171 0
M  V30 5359 C 492.646 -0.896099 1.39855 0
M  V30 5360 O 493.831 -0.889248 1.68811 0
M  V30 5361 C 490.971 -1.18605 3.24079 0
M  V30 5362 C 490.084 -0.464947 4.29491 0
M  V30 5363 C 489.219 -1.46716 5.10537 0
M  V30 5364 C 488.258 -0.731758 6.0771 0
M  V30 5365 N 487.395 -1.68142 6.81669 0
M  V30 5366 H 492.235 0.545713 2.92961 0
M  V30 5367 H 489.772 0.280938 1.44392 0
M  V30 5368 H 491.73 -1.78771 3.76957 0
M  V30 5369 H 490.36 -1.86989 2.63125 0
M  V30 5370 H 489.412 0.251506 3.79568 0
M  V30 5371 H 490.724 0.110548 4.98677 0
M  V30 5372 H 489.878 -2.14199 5.6763 0
M  V30 5373 H 488.617 -2.07658 4.41282 0
M  V30 5374 H 487.622 -0.0430787 5.49783 0
M  V30 5375 H 488.847 -0.127904 6.7898 0
M  V30 5376 H 486.793 -2.27918 6.15134 0
M  V30 5377 H 486.71 -1.15841 7.47072 0
M  V30 5378 H 487.978 -2.347 7.43328 0
M  V30 5379 N 492.207 -1.54576 0.307264 0
M  V30 5380 C 493.137 -2.26708 -0.55907 0
M  V30 5381 C 494.118 -1.26893 -1.1328 0
M  V30 5382 O 495.303 -1.55677 -1.16097 0
M  V30 5383 C 492.433 -3.01259 -1.72801 0
M  V30 5384 C 491.387 -4.08275 -1.28435 0
M  V30 5385 C 490.713 -4.70575 -2.53895 0
M  V30 5386 C 492.013 -5.2068 -0.411038 0
M  V30 5387 H 493.707 -2.9937 0.042576 0
M  V30 5388 H 491.253 -1.43983 0.0219173 0
M  V30 5389 H 493.206 -3.50444 -2.34023 0
M  V30 5390 H 491.93 -2.26187 -2.356 0
M  V30 5391 H 490.589 -3.59949 -0.695161 0
M  V30 5392 H 490.237 -3.92136 -3.15021 0
M  V30 5393 H 489.937 -5.42854 -2.24908 0
M  V30 5394 H 491.461 -5.22527 -3.15908 0
M  V30 5395 H 492.875 -5.65721 -0.929097 0
M  V30 5396 H 491.272 -5.99716 -0.214664 0
M  V30 5397 H 492.342 -4.81629 0.562287 0
M  V30 5398 N 493.685 -0.035106 -1.57561 0
M  V30 5399 C 494.615 0.942993 -2.13612 0
M  V30 5400 C 495.596 1.33531 -1.05373 0
M  V30 5401 O 496.781 1.41287 -1.33235 0
M  V30 5402 C 493.911 2.22332 -2.66807 0
M  V30 5403 C 492.865 1.97156 -3.79886 0
M  V30 5404 C 492.191 3.31506 -4.19533 0
M  V30 5405 C 493.491 1.30596 -5.05709 0
M  V30 5406 H 495.185 0.476179 -2.95589 0
M  V30 5407 H 492.731 0.227602 -1.4219 0
M  V30 5408 H 494.684 2.91142 -3.04654 0
M  V30 5409 H 493.408 2.7119 -1.81999 0
M  V30 5410 H 492.067 1.30763 -3.42486 0
M  V30 5411 H 491.715 3.78134 -3.31698 0
M  V30 5412 H 491.415 3.15465 -4.95738 0
M  V30 5413 H 492.939 4.01574 -4.59968 0
M  V30 5414 H 494.353 1.89416 -5.41105 0
M  V30 5415 H 492.75 1.24934 -5.86951 0
M  V30 5416 H 493.82 0.279742 -4.84092 0
M  V30 5417 N 495.163 1.55791 0.238111 0
M  V30 5418 C 496.579 1.48411 0.587045 0
M  V30 5419 C 496.779 0.72702 1.87927 0
M  V30 5420 O 495.835 0.259942 2.51158 0
M  V30 5421 C 497.148 2.92873 0.681623 0
M  V30 5422 C 498.696 3.03295 0.773363 0
M  V30 5423 C 499.171 4.49082 0.899428 0
M  V30 5424 N 500.662 4.53056 0.964075 0
M  V30 5425 C 501.397 5.63117 1.08104 0
M  V30 5426 N 500.893 6.82969 1.16299 0
M  V30 5427 N 502.686 5.50933 1.11488 0
M  V30 5428 H 494.837 2.0345 -0.610076 0
M  V30 5429 H 497.1 0.924034 -0.211813 0
M  V30 5430 H 496.806 3.51142 -0.19802 0
M  V30 5431 H 496.68 3.43851 1.55069 0
M  V30 5432 H 499.067 2.45101 1.64346 0
M  V30 5433 H 499.148 2.55513 -0.121034 0
M  V30 5434 H 498.792 5.07889 0.0338586 0
M  V30 5435 H 498.722 4.94553 1.809 0
M  V30 5436 H 501.213 3.66737 0.91173 0
M  V30 5437 H 501.526 7.62598 1.25155 0
M  V30 5438 H 499.871 6.85712 1.13241 0
M  V30 5439 H 503.062 4.56231 1.0474 0
M  V30 5440 H 503.235 6.36743 1.20259 0
M  V30 5441 N 496.642 -0.504142 1.49319 0
M  V30 5442 C 497.867 -1.28729 1.62615 0
M  V30 5443 C 498.292 -1.85752 0.296309 0
M  V30 5444 O 497.65 -1.65704 -0.735649 0
M  V30 5445 C 497.698 -2.39561 2.69524 0
M  V30 5446 O 496.802 -3.43324 2.28478 0
M  V30 5447 H 496.143 -0.380172 0.544395 0
M  V30 5448 H 498.673 -0.603872 1.95485 0
M  V30 5449 H 498.683 -2.8537 2.91595 0
M  V30 5450 H 497.358 -1.97423 3.66056 0
M  V30 5451 H 495.935 -3.03455 2.16725 0
M  V30 5452 N 498.12 -1.38341 -0.754957 0
M  V30 5453 C 499.05 -1.38176 -1.88227 0
M  V30 5454 C 500.031 -0.247873 -1.68284 0
M  V30 5455 O 501.216 -0.45075 -1.88896 0
M  V30 5456 C 498.346 -1.20471 -3.25736 0
M  V30 5457 C 497.3 -2.3105 -3.60278 0
M  V30 5458 C 496.626 -1.98452 -4.96509 0
M  V30 5459 C 497.926 -3.73305 -3.65295 0
M  V30 5460 H 499.62 -2.32512 -1.88622 0
M  V30 5461 H 497.166 -1.1192 -0.906082 0
M  V30 5462 H 499.119 -1.18982 -4.04254 0
M  V30 5463 H 497.843 -0.225965 -3.25817 0
M  V30 5464 H 496.502 -2.31723 -2.84078 0
M  V30 5465 H 496.15 -0.990641 -4.93148 0
M  V30 5466 H 495.85 -2.7251 -5.20588 0
M  V30 5467 H 497.374 -1.98578 -5.77407 0
M  V30 5468 H 498.788 -3.7467 -4.3393 0
M  V30 5469 H 497.185 -4.46557 -4.00883 0
M  V30 5470 H 498.255 -4.05719 -2.65556 0
M  V30 5471 N 499.598 0.982988 -1.23187 0
M  V30 5472 C 500.561 2.05649 -1.01198 0
M  V30 5473 C 501.561 1.6078 0.0252464 0
M  V30 5474 O 502.751 1.72878 -0.214243 0
M  V30 5475 C 499.883 3.36744 -0.530656 0
M  V30 5476 H 501.076 2.2659 -1.96461 0
M  V30 5477 H 498.629 1.15602 -1.05195 0
M  V30 5478 H 499.364 3.21492 0.425873 0
M  V30 5479 H 499.149 3.7065 -1.2791 0
M  V30 5480 H 500.639 4.15705 -0.397366 0
M  V30 5481 N 501.076 1.04316 1.18135 0
M  V30 5482 C 502.322 0.749128 1.88457 0
M  V30 5483 C 502.655 -0.72149 1.803 0
M  V30 5484 O 501.93 -1.52676 1.205 0
M  V30 5485 C 502.213 1.21905 3.38838 0
M  V30 5486 C 502.066 2.75195 3.55792 0
M  V30 5487 C 503.385 0.811085 4.32561 0
M  V30 5488 H 500.504 0.273611 0.684329 0
M  V30 5489 H 503.146 1.29561 1.38975 0
M  V30 5490 H 501.296 0.754137 3.8111 0
M  V30 5491 H 502.968 3.29743 3.22595 0
M  V30 5492 H 501.211 3.14899 2.98364 0
M  V30 5493 H 501.882 3.03135 4.61317 0
M  V30 5494 H 504.358 1.21118 3.98082 0
M  V30 5495 H 503.234 1.16761 5.36338 0
M  V30 5496 H 503.495 -0.285596 4.41177 0
M  V30 5497 N 502.554 -1.34406 0.822964 0
M  V30 5498 C 503.484 -2.32052 0.259608 0
M  V30 5499 C 504.465 -1.58243 -0.623961 0
M  V30 5500 O 505.65 -1.86224 -0.55083 0
M  V30 5501 C 502.78 -3.42434 -0.579314 0
M  V30 5502 C 501.734 -4.27499 0.20712 0
M  V30 5503 C 501.06 -5.29349 -0.754547 0
M  V30 5504 C 502.36 -5.02758 1.41533 0
M  V30 5505 H 504.054 -2.79418 1.07545 0
M  V30 5506 H 501.6 -1.34338 0.518593 0
M  V30 5507 H 503.553 -4.0976 -0.983612 0
M  V30 5508 H 502.277 -2.93717 -1.4282 0
M  V30 5509 H 500.936 -3.61776 0.592787 0
M  V30 5510 H 500.584 -4.76895 -1.59939 0
M  V30 5511 H 500.284 -5.8714 -0.232561 0
M  V30 5512 H 501.808 -5.99544 -1.1567 0
M  V30 5513 H 503.222 -5.62938 1.08504 0
M  V30 5514 H 501.619 -5.70123 1.87296 0
M  V30 5515 H 502.689 -4.32451 2.1935 0
M  V30 5516 N 504.032 -0.577932 -1.46621 0
M  V30 5517 C 505.448 -0.239242 -1.57797 0
M  V30 5518 C 505.648 1.25843 -1.57371 0
M  V30 5519 O 504.704 2.03988 -1.48813 0
M  V30 5520 C 506.017 -0.884227 -2.87405 0
M  V30 5521 C 507.565 -0.857373 -3.01028 0
M  V30 5522 C 508.04 -1.48181 -4.33366 0
M  V30 5523 N 509.531 -1.44593 -4.40053 0
M  V30 5524 C 510.266 -1.89852 -5.41058 0
M  V30 5525 N 509.762 -2.43062 -6.48762 0
M  V30 5526 N 511.555 -1.80797 -5.3223 0
M  V30 5527 H 503.706 -1.55073 -1.45142 0
M  V30 5528 H 505.969 -0.647903 -0.692044 0
M  V30 5529 H 505.675 -1.93759 -2.93514 0
M  V30 5530 H 505.549 -0.389585 -3.75183 0
M  V30 5531 H 507.936 0.187357 -2.94505 0
M  V30 5532 H 508.017 -1.38999 -2.14739 0
M  V30 5533 H 507.661 -2.52572 -4.40647 0
M  V30 5534 H 507.591 -0.924464 -5.18422 0
M  V30 5535 H 510.082 -1.05694 -3.62819 0
M  V30 5536 H 510.395 -2.75466 -7.22038 0
M  V30 5537 H 508.74 -2.47085 -6.49595 0
M  V30 5538 H 511.931 -1.38989 -4.46989 0
M  V30 5539 H 512.104 -2.16385 -6.10804 0
M  V30 5540 N 505.51 1.54411 -0.315457 0
M  V30 5541 C 506.443 2.20265 0.596522 0
M  V30 5542 C 507.421 1.17693 1.12192 0
M  V30 5543 O 508.605 1.46397 1.18744 0
M  V30 5544 C 505.732 2.85794 1.81767 0
M  V30 5545 C 504.778 4.02017 1.42424 0
M  V30 5546 S 505.611 5.33452 0.467836 0
M  V30 5547 C 506.767 6.02471 1.69645 0
M  V30 5548 H 507 2.97277 0.0370896 0
M  V30 5549 H 504.533 1.54079 -0.0995562 0
M  V30 5550 H 506.491 3.24172 2.51839 0
M  V30 5551 H 505.152 2.08601 2.34828 0
M  V30 5552 H 504.345 4.46701 2.33396 0
M  V30 5553 H 503.947 3.65271 0.803311 0
M  V30 5554 H 506.239 6.24157 2.63504 0
M  V30 5555 H 507.182 6.96215 1.29192 0
M  V30 5556 H 507.59 5.32284 1.87974 0
M  V30 5557 N 506.988 0.0434614 1.5754 0
M  V30 5558 C 508.404 -0.313039 1.565 0
M  V30 5559 C 508.604 -1.71954 1.05043 0
M  V30 5560 O 507.66 -2.425 0.703564 0
M  V30 5561 C 508.973 -0.148544 3.00333 0
M  V30 5562 C 510.521 -0.220231 3.12224 0
M  V30 5563 C 510.996 -0.0843565 4.57922 0
M  V30 5564 N 512.487 -0.140881 4.62986 0
M  V30 5565 C 513.222 -0.0597443 5.73369 0
M  V30 5566 N 512.718 0.0733004 6.92761 0
M  V30 5567 N 514.511 -0.11477 5.61983 0
M  V30 5568 H 506.662 0.96303 1.89313 0
M  V30 5569 H 508.925 0.373164 0.871466 0
M  V30 5570 H 508.631 0.820894 3.41986 0
M  V30 5571 H 508.505 -0.912798 3.65989 0
M  V30 5572 H 510.892 -1.18014 2.70475 0
M  V30 5573 H 510.973 0.574646 2.49262 0
M  V30 5574 H 510.617 0.872192 5.00355 0
M  V30 5575 H 510.547 -0.898281 5.18882 0
M  V30 5576 H 513.038 -0.243273 3.77116 0
M  V30 5577 H 513.351 0.128128 7.72694 0
M  V30 5578 H 511.696 0.10828 6.94916 0
M  V30 5579 H 514.887 -0.217212 4.67596 0
M  V30 5580 H 515.06 -0.0480779 6.47982 0
M  V30 5581 N 508.466 -1.55915 -0.229846 0
M  V30 5582 C 509.413 -1.91734 -1.28478 0
M  V30 5583 C 510.383 -0.773539 -1.46988 0
M  V30 5584 O 511.568 -1.02871 -1.60693 0
M  V30 5585 C 508.708 -2.23224 -2.63182 0
M  V30 5586 C 507.821 -3.50497 -2.52539 0
M  V30 5587 C 506.956 -3.71474 -3.79711 0
M  V30 5588 C 505.995 -4.92289 -3.63755 0
M  V30 5589 N 505.132 -5.09698 -4.82858 0
M  V30 5590 H 509.972 -2.81692 -0.972308 0
M  V30 5591 H 507.509 -1.39429 -0.468815 0
M  V30 5592 H 509.467 -2.3949 -3.41614 0
M  V30 5593 H 508.097 -1.36451 -2.92542 0
M  V30 5594 H 507.149 -3.4247 -1.65585 0
M  V30 5595 H 508.461 -4.39079 -2.36666 0
M  V30 5596 H 507.615 -3.87791 -4.66586 0
M  V30 5597 H 506.354 -2.81157 -3.985 0
M  V30 5598 H 505.359 -4.7593 -2.75264 0
M  V30 5599 H 506.584 -5.84083 -3.46445 0
M  V30 5600 H 504.53 -4.22322 -5.01976 0
M  V30 5601 H 504.447 -5.92399 -4.69681 0
M  V30 5602 H 505.715 -5.30443 -5.71183 0
M  V30 5603 N 509.944 0.496216 -1.49584 0
M  V30 5604 C 511.169 1.27865 -1.63295 0
M  V30 5605 C 511.594 1.85592 -0.306156 0
M  V30 5606 O 510.952 1.66092 0.726851 0
M  V30 5607 C 511 2.38128 -2.7079 0
M  V30 5608 O 510.104 3.42108 -2.30296 0
M  V30 5609 H 509.445 0.377279 -0.546403 0
M  V30 5610 H 511.975 0.593497 -1.95803 0
M  V30 5611 H 511.985 2.8382 -2.93104 0
M  V30 5612 H 510.66 1.95479 -3.67098 0
M  V30 5613 H 509.237 3.02301 -2.18331 0
M  V30 5614 N 511.423 1.38739 0.74761 0
M  V30 5615 C 512.672 1.3459 1.50228 0
M  V30 5616 C 512.985 -0.0595592 1.95509 0
M  V30 5617 O 514.191 -0.22361 2.70578 0
M  V30 5618 C 512.647 2.36377 2.71393 0
M  V30 5619 C 512.255 3.82573 2.33113 0
M  V30 5620 C 513.999 2.41281 3.49262 0
M  V30 5621 C 511.906 4.76032 3.50924 0
M  V30 5622 H 510.836 0.500312 0.564096 0
M  V30 5623 H 513.487 1.64324 0.8167 0
M  V30 5624 H 511.869 1.99694 3.41962 0
M  V30 5625 H 513.043 4.28227 1.70171 0
M  V30 5626 H 511.358 3.80844 1.68365 0
M  V30 5627 H 513.955 3.08301 4.36869 0
M  V30 5628 H 514.298 1.43353 3.9084 0
M  V30 5629 H 514.831 2.76793 2.85711 0
M  V30 5630 H 511.57 5.75177 3.14408 0
M  V30 5631 H 511.09 4.35066 4.12889 0
M  V30 5632 H 512.769 4.94331 4.17427 0
M  V30 5633 N 512.901 -0.976442 1.23707 0
M  V30 5634 C 513.831 -2.08749 1.04624 0
M  V30 5635 C 514.812 -1.70057 -0.0380956 0
M  V30 5636 O 515.997 -1.93782 0.127308 0
M  V30 5637 C 513.127 -3.41335 0.640902 0
M  V30 5638 C 512.081 -3.93947 1.67302 0
M  V30 5639 C 511.407 -5.22774 1.12301 0
M  V30 5640 C 512.707 -4.22769 3.06697 0
M  V30 5641 H 514.401 -2.24972 1.97555 0
M  V30 5642 H 511.947 -1.08108 0.951247 0
M  V30 5643 H 513.9 -4.18489 0.494434 0
M  V30 5644 H 512.624 -3.24988 -0.324099 0
M  V30 5645 H 511.283 -3.18941 1.80755 0
M  V30 5646 H 510.931 -5.0278 0.148877 0
M  V30 5647 H 510.631 -5.58942 1.81267 0
M  V30 5648 H 512.155 -6.02546 0.988479 0
M  V30 5649 H 513.569 -4.90659 2.96524 0
M  V30 5650 H 511.966 -4.70147 3.72937 0
M  V30 5651 H 513.036 -3.29885 3.55392 0
M  V30 5652 N 514.379 -1.04941 -1.1758 0
M  V30 5653 C 515.289 -0.658826 -2.25159 0
M  V30 5654 C 516.305 0.318941 -1.71052 0
M  V30 5655 O 517.481 0.171669 -2.00667 0
M  V30 5656 C 514.546 -0.0369522 -3.4668 0
M  V30 5657 C 513.607 -1.06484 -4.15884 0
M  V30 5658 C 512.84 -0.472551 -5.31604 0
M  V30 5659 O 513.063 0.718736 -5.65854 0
M  V30 5660 O 511.997 -1.20557 -5.89703 0
M  V30 5661 H 515.823 -1.55533 -2.60851 0
M  V30 5662 H 513.408 -0.820819 -1.24832 0
M  V30 5663 H 515.29 0.308784 -4.20267 0
M  V30 5664 H 513.965 0.833238 -3.12792 0
M  V30 5665 H 512.872 -1.46253 -3.44327 0
M  V30 5666 H 514.205 -1.9061 -4.53794 0
M  V30 5667 N 515.857 1.33968 -0.830081 0
M  V30 5668 C 516.804 2.29387 -0.255008 0
M  V30 5669 C 517.774 1.53923 0.624243 0
M  V30 5670 O 518.959 1.82262 0.564372 0
M  V30 5671 C 516.099 3.4034 0.571209 0
M  V30 5672 C 515.212 4.30729 -0.331083 0
M  V30 5673 C 514.347 5.2879 0.505389 0
M  V30 5674 C 513.386 6.10819 -0.395843 0
M  V30 5675 N 512.523 7.00948 0.401979 0
M  V30 5676 H 517.363 2.77972 -1.07404 0
M  V30 5677 H 514.9 1.36785 -0.541133 0
M  V30 5678 H 516.858 4.03361 1.06562 0
M  V30 5679 H 515.488 2.9297 1.35529 0
M  V30 5680 H 514.54 3.68507 -0.943759 0
M  V30 5681 H 515.852 4.88181 -1.02377 0
M  V30 5682 H 515.006 5.97297 1.06399 0
M  V30 5683 H 513.745 4.71894 1.23155 0
M  V30 5684 H 512.75 5.41238 -0.966529 0
M  V30 5685 H 513.975 6.69797 -1.12023 0
M  V30 5686 H 511.921 6.46512 1.11168 0
M  V30 5687 H 511.838 7.55643 -0.232167 0
M  V30 5688 H 513.106 7.73774 0.943102 0
M  V30 5689 N 517.335 0.585699 1.46312 0
M  V30 5690 C 518.56 0.0762461 2.0726 0
M  V30 5691 C 518.985 -1.22071 1.43109 0
M  V30 5692 O 518.343 -1.73804 0.515942 0
M  V30 5693 C 518.391 -0.0729404 3.60526 0
M  V30 5694 O 517.495 -1.1287 3.96654 0
M  V30 5695 H 516.836 0.0641558 0.660893 0
M  V30 5696 H 519.366 0.809492 1.87905 0
M  V30 5697 H 519.376 -0.278158 4.07051 0
M  V30 5698 H 518.051 0.874188 4.06609 0
M  V30 5699 H 516.628 -0.901703 3.61834 0
M  V30 5700 N 518.813 -1.54241 0.323641 0
M  V30 5701 C 519.76 -2.24339 -0.542277 0
M  V30 5702 C 520.73 -1.23421 -1.11159 0
M  V30 5703 O 521.915 -1.52104 -1.15192 0
M  V30 5704 C 519.055 -3.00479 -1.69725 0
M  V30 5705 C 518.168 -4.16214 -1.15716 0
M  V30 5706 C 517.303 -4.79884 -2.27783 0
M  V30 5707 C 516.342 -5.87722 -1.71023 0
M  V30 5708 N 515.479 -6.45254 -2.76752 0
M  V30 5709 H 520.319 -2.97935 0.0620613 0
M  V30 5710 H 517.856 -1.47039 0.0423993 0
M  V30 5711 H 519.814 -3.42869 -2.3769 0
M  V30 5712 H 518.444 -2.29217 -2.27288 0
M  V30 5713 H 517.496 -3.78605 -0.369063 0
M  V30 5714 H 518.808 -4.93838 -0.701832 0
M  V30 5715 H 517.962 -5.25243 -3.03651 0
M  V30 5716 H 516.701 -4.01641 -2.76652 0
M  V30 5717 H 515.706 -5.41765 -0.936518 0
M  V30 5718 H 516.931 -6.67863 -1.2303 0
M  V30 5719 H 514.877 -5.69884 -3.24912 0
M  V30 5720 H 514.794 -7.18292 -2.35782 0
M  V30 5721 H 516.062 -6.95269 -3.5245 0
M  V30 5722 N 520.291 -0.0518155 -1.57515 0
M  V30 5723 C 521.239 0.940195 -2.12751 0
M  V30 5724 C 522.233 1.3218 -1.05948 0
M  V30 5725 O 523.439 1.30138 -1.24355 0
M  V30 5726 H 519.814 0.321066 -0.680015 0
M  V30 5727 H 521.785 0.449217 -2.94999 0
M  V30 5728 C 520.534 2.2055 -2.68799 0
M  V30 5729 H 519.857 1.92066 -3.50643 0
M  V30 5730 H 521.297 2.88119 -3.11068 0
M  V30 5731 C 519.756 2.95061 -1.62605 0
M  V30 5732 O 520.286 3.88025 -1.03921 0
M  V30 5733 N 518.492 2.57804 -1.34111 0
M  V30 5734 H 518.039 1.82281 -1.8202 0
M  V30 5735 H 517.997 3.07964 -0.632872 0
M  V30 5736 N 521.769 1.56035 0.221574 0
M  V30 5737 C 522.716 1.92413 1.27459 0
M  V30 5738 C 523.686 0.781323 1.46576 0
M  V30 5739 O 524.871 1.03721 1.60145 0
M  V30 5740 C 522.011 2.24617 2.61995 0
M  V30 5741 C 521.124 3.51831 2.50677 0
M  V30 5742 C 520.259 3.73482 3.77736 0
M  V30 5743 C 519.298 4.94211 3.6114 0
M  V30 5744 N 518.435 5.12252 4.80148 0
M  V30 5745 H 523.275 2.82203 0.957355 0
M  V30 5746 H 520.812 1.39676 0.461415 0
M  V30 5747 H 522.77 2.41298 3.40339 0
M  V30 5748 H 521.4 1.38 2.91815 0
M  V30 5749 H 520.452 3.43343 1.63767 0
M  V30 5750 H 521.764 4.40328 2.34334 0
M  V30 5751 H 520.918 3.9026 4.64523 0
M  V30 5752 H 519.657 2.83266 3.97003 0
M  V30 5753 H 518.662 4.77384 2.72736 0
M  V30 5754 H 519.887 5.85912 3.43343 0
M  V30 5755 H 517.833 4.24978 4.99729 0
M  V30 5756 H 517.75 5.94881 4.66532 0
M  V30 5757 H 519.018 5.33465 5.68362 0
M  V30 5758 N 523.247 -0.488276 1.49845 0
M  V30 5759 C 524.194 -1.58836 1.67451 0
M  V30 5760 C 525.164 -1.57886 0.515857 0
M  V30 5761 O 526.349 -1.75679 0.744403 0
M  V30 5762 C 523.489 -2.96915 1.75885 0
M  V30 5763 C 522.602 -3.07784 3.03138 0
M  V30 5764 C 521.737 -4.36673 3.02473 0
M  V30 5765 C 520.776 -4.41222 4.24252 0
M  V30 5766 N 519.913 -5.61557 4.21424 0
M  V30 5767 H 524.753 -1.43131 2.61376 0
M  V30 5768 H 522.29 -0.696186 1.29583 0
M  V30 5769 H 524.248 -3.76965 1.78755 0
M  V30 5770 H 522.878 -3.11295 0.85414 0
M  V30 5771 H 521.93 -2.20717 3.09819 0
M  V30 5772 H 523.242 -3.07005 3.93128 0
M  V30 5773 H 522.396 -5.25055 3.03977 0
M  V30 5774 H 521.135 -4.40037 2.10283 0
M  V30 5775 H 520.14 -3.5124 4.22978 0
M  V30 5776 H 521.365 -4.39564 5.17649 0
M  V30 5777 H 519.311 -5.65738 3.32078 0
M  V30 5778 H 519.228 -5.62447 5.05163 0
M  V30 5779 H 520.496 -6.52111 4.2705 0
M  V30 5780 N 524.725 -1.39134 -0.740242 0
M  V30 5781 C 525.635 -1.39697 -1.88473 0
M  V30 5782 C 526.651 -0.292403 -1.71526 0
M  V30 5783 O 527.827 -0.533021 -1.94219 0
M  V30 5784 C 524.892 -1.23382 -3.24003 0
M  V30 5785 C 523.953 -2.43763 -3.53381 0
M  V30 5786 C 523.186 -2.28216 -4.82445 0
M  V30 5787 O 523.409 -1.28288 -5.55786 0
M  V30 5788 O 522.343 -3.1709 -5.11603 0
M  V30 5789 H 526.169 -2.36159 -1.90952 0
M  V30 5790 H 523.754 -1.20194 -0.887346 0
M  V30 5791 H 525.636 -1.16395 -4.05006 0
M  V30 5792 H 524.311 -0.300121 -3.22306 0
M  V30 5793 H 523.218 -2.56325 -2.72485 0
M  V30 5794 H 524.551 -3.35808 -3.59852 0
M  V30 5795 N 526.204 0.969867 -1.24223 0
M  V30 5796 C 527.151 2.06407 -1.0327 0
M  V30 5797 C 528.121 1.66014 0.0533 0
M  V30 5798 O 529.306 1.90533 -0.100896 0
M  V30 5799 C 526.446 3.3909 -0.641262 0
M  V30 5800 C 525.559 3.9269 -1.80051 0
M  V30 5801 C 524.694 5.13631 -1.35486 0
M  V30 5802 C 523.733 5.59423 -2.48419 0
M  V30 5803 N 522.87 6.71586 -2.04737 0
M  V30 5804 H 527.71 2.23663 -1.96923 0
M  V30 5805 H 525.247 1.09624 -0.980862 0
M  V30 5806 H 527.205 4.15323 -0.395351 0
M  V30 5807 H 525.835 3.21765 0.258269 0
M  V30 5808 H 524.887 3.13116 -2.16014 0
M  V30 5809 H 526.199 4.22636 -2.64916 0
M  V30 5810 H 525.353 5.97231 -1.0677 0
M  V30 5811 H 524.092 4.85364 -0.476722 0
M  V30 5812 H 523.097 4.74398 -2.77897 0
M  V30 5813 H 524.322 5.89705 -3.36786 0
M  V30 5814 H 522.268 6.45058 -1.19318 0
M  V30 5815 H 522.185 7.0097 -2.83156 0
M  V30 5816 H 523.453 7.58633 -1.79154 0
M  V30 5817 N 527.682 1.05563 1.17022 0
M  V30 5818 C 529.098 0.777684 1.39371 0
M  V30 5819 C 529.298 -0.626269 1.91521 0
M  V30 5820 O 528.354 -1.38806 2.10924 0
M  V30 5821 C 529.667 1.83642 2.3811 0
M  V30 5822 C 531.215 1.85907 2.51809 0
M  V30 5823 C 531.69 2.90813 3.53824 0
M  V30 5824 N 533.181 2.898 3.61345 0
M  V30 5825 C 533.916 3.6762 4.40049 0
M  V30 5826 N 533.412 4.55237 5.22237 0
M  V30 5827 N 535.205 3.56044 4.34959 0
M  V30 5828 H 527.356 1.9614 0.815047 0
M  V30 5829 H 529.619 0.849527 0.420722 0
M  V30 5830 H 529.325 2.84425 2.06871 0
M  V30 5831 H 529.199 1.6812 3.37662 0
M  V30 5832 H 531.586 0.857865 2.82356 0
M  V30 5833 H 531.667 2.05506 1.52318 0
M  V30 5834 H 531.311 3.91122 3.24015 0
M  V30 5835 H 531.241 2.68465 4.53028 0
M  V30 5836 H 533.732 2.26274 3.02669 0
M  V30 5837 H 534.045 5.11291 5.79484 0
M  V30 5838 H 532.39 4.59296 5.21605 0
M  V30 5839 H 535.581 2.86986 3.69806 0
M  V30 5840 H 535.754 4.16938 4.96051 0
M  V30 5841 N 529.16 -1.33526 0.837174 0
M  V30 5842 C 530.406 -1.9813 0.432704 0
M  V30 5843 C 530.739 -1.66168 -1.00508 0
M  V30 5844 O 530.014 -0.94069 -1.70239 0
M  V30 5845 C 530.297 -3.54151 0.651834 0
M  V30 5846 C 530.15 -3.95806 2.13676 0
M  V30 5847 C 531.469 -4.39993 0.0968937 0
M  V30 5848 H 528.588 -0.719713 0.15869 0
M  V30 5849 H 531.23 -1.58193 1.05237 0
M  V30 5850 H 529.38 -3.88301 0.124369 0
M  V30 5851 H 531.052 -3.71921 2.72896 0
M  V30 5852 H 529.295 -3.45599 2.62191 0
M  V30 5853 H 529.966 -5.0447 2.24084 0
M  V30 5854 H 532.442 -4.12479 0.547733 0
M  V30 5855 H 531.318 -5.48186 0.279917 0
M  V30 5856 H 531.579 -4.3066 -0.9992 0
M  V30 5857 N 530.638 -0.59345 -1.46 0
M  V30 5858 C 531.57 0.171569 -2.28557 0
M  V30 5859 C 532.583 0.845273 -1.39137 0
M  V30 5860 O 533.772 0.713033 -1.6364 0
M  V30 5861 C 530.872 1.26311 -3.14482 0
M  V30 5862 C 530.045 0.679258 -4.32094 0
M  V30 5863 C 529.104 1.65987 -4.99334 0
M  V30 5864 O 528.13 1.19171 -5.56585 0
M  V30 5865 N 529.332 2.99414 -4.97324 0
M  V30 5866 H 532.097 -0.536771 -2.94854 0
M  V30 5867 H 529.658 -0.431954 -1.56031 0
M  V30 5868 H 531.65 1.91863 -3.5633 0
M  V30 5869 H 530.22 1.87416 -2.50188 0
M  V30 5870 H 529.44 -0.153992 -3.93899 0
M  V30 5871 H 530.728 0.26916 -5.08088 0
M  V30 5872 H 530.126 3.40064 -4.52076 0
M  V30 5873 H 528.683 3.60426 -5.4308 0
M  V30 5874 N 532.116 1.54067 -0.331816 0
M  V30 5875 C 533.063 2.24623 0.530372 0
M  V30 5876 C 534.033 1.24009 1.10503 0
M  V30 5877 O 535.218 1.52712 1.14384 0
M  V30 5878 C 532.358 3.01374 1.68129 0
M  V30 5879 C 531.471 4.16821 1.13507 0
M  V30 5880 C 530.606 4.81085 2.25234 0
M  V30 5881 C 529.645 5.88621 1.67903 0
M  V30 5882 N 528.782 6.46713 2.73326 0
M  V30 5883 H 533.622 2.97898 -0.0778607 0
M  V30 5884 H 531.159 1.47014 -0.0501965 0
M  V30 5885 H 533.117 3.44125 2.35868 0
M  V30 5886 H 531.747 2.30419 2.26069 0
M  V30 5887 H 530.799 3.78796 0.348979 0
M  V30 5888 H 532.111 4.94203 0.675633 0
M  V30 5889 H 531.265 5.26846 3.00862 0
M  V30 5890 H 530.004 4.03102 2.74518 0
M  V30 5891 H 529.009 5.42254 0.907773 0
M  V30 5892 H 530.234 6.68506 1.19487 0
M  V30 5893 H 528.18 5.71599 3.21886 0
M  V30 5894 H 528.097 7.19532 2.3197 0
M  V30 5895 H 529.365 6.97129 3.48758 0
M  V30 5896 N 533.594 0.0601682 1.57485 0
M  V30 5897 C 534.526 -0.94047 2.09016 0
M  V30 5898 C 535.539 -1.26897 1.01985 0
M  V30 5899 O 536.728 -1.22819 1.29529 0
M  V30 5900 C 533.828 -2.25955 2.52582 0
M  V30 5901 C 533.001 -2.11163 3.83052 0
M  V30 5902 C 532.06 -3.26273 4.12835 0
M  V30 5903 O 531.086 -3.01779 4.82616 0
M  V30 5904 N 532.288 -4.51022 3.65458 0
M  V30 5905 H 535.053 -0.500578 2.9549 0
M  V30 5906 H 532.614 -0.125852 1.6141 0
M  V30 5907 H 534.606 -3.01846 2.69575 0
M  V30 5908 H 533.176 -2.61481 1.71308 0
M  V30 5909 H 532.396 -1.19808 3.75552 0
M  V30 5910 H 533.684 -1.98517 4.68475 0
M  V30 5911 H 533.082 -4.73811 3.09062 0
M  V30 5912 H 531.639 -5.23978 3.87673 0
M  V30 5913 N 535.072 -1.5615 -0.213296 0
M  V30 5914 C 536.321 -1.78743 -0.93455 0
M  V30 5915 C 536.634 -0.630199 -1.8517 0
M  V30 5916 O 537.84 -0.739966 -2.61222 0
M  V30 5917 C 536.296 -3.16571 -1.71203 0
M  V30 5918 C 535.904 -4.40043 -0.840617 0
M  V30 5919 C 537.648 -3.48485 -2.42401 0
M  V30 5920 C 535.555 -5.68895 -1.61592 0
M  V30 5921 H 534.485 -0.666426 -0.352692 0
M  V30 5922 H 537.136 -1.82532 -0.188227 0
M  V30 5923 H 535.518 -3.06981 -2.50157 0
M  V30 5924 H 536.692 -4.6071 -0.0910326 0
M  V30 5925 H 535.007 -4.15706 -0.240365 0
M  V30 5926 H 537.604 -4.41983 -3.00924 0
M  V30 5927 H 537.947 -2.71371 -3.15695 0
M  V30 5928 H 538.48 -3.59442 -1.7043 0
M  V30 5929 H 535.219 -6.48925 -0.926106 0
M  V30 5930 H 534.739 -5.52275 -2.33991 0
M  V30 5931 H 536.418 -6.09365 -2.17447 0
M  V30 5932 N 536.55 0.480323 -1.50102 0
M  V30 5933 C 537.482 1.59669 -1.64433 0
M  V30 5934 C 538.495 1.54063 -0.52615 0
M  V30 5935 O 539.684 1.59619 -0.798992 0
M  V30 5936 C 536.784 2.98527 -1.6042 0
M  V30 5937 C 535.957 3.291 -2.88117 0
M  V30 5938 C 535.016 4.47468 -2.76873 0
M  V30 5939 O 534.042 4.4823 -3.50825 0
M  V30 5940 N 535.244 5.48593 -1.89806 0
M  V30 5941 H 538.009 1.47795 -2.60723 0
M  V30 5942 H 535.57 0.66858 -1.4745 0
M  V30 5943 H 537.562 3.75666 -1.50523 0
M  V30 5944 H 536.132 3.04218 -0.719036 0
M  V30 5945 H 535.352 2.40662 -3.12211 0
M  V30 5946 H 536.64 3.46334 -3.72734 0
M  V30 5947 H 536.038 5.50791 -1.2902 0
M  V30 5948 H 534.595 6.24752 -1.85819 0
M  V30 5949 N 538.028 1.39524 0.732853 0
M  V30 5950 C 538.975 1.38416 1.84688 0
M  V30 5951 C 539.945 0.243539 1.64305 0
M  V30 5952 O 541.13 0.438979 1.85681 0
M  V30 5953 C 538.27 1.23555 3.22224 0
M  V30 5954 C 537.383 2.47179 3.54298 0
M  V30 5955 C 536.518 2.2489 4.81246 0
M  V30 5956 C 535.557 3.44178 5.0617 0
M  V30 5957 N 534.694 3.21192 6.24323 0
M  V30 5958 H 539.534 2.33645 1.84971 0
M  V30 5959 H 537.071 1.16059 0.903804 0
M  V30 5960 H 539.029 1.12949 4.0162 0
M  V30 5961 H 537.659 0.31954 3.21215 0
M  V30 5962 H 536.711 2.68379 2.69587 0
M  V30 5963 H 538.023 3.36022 3.68633 0
M  V30 5964 H 537.177 2.11538 5.68627 0
M  V30 5965 H 535.916 1.33443 4.69089 0
M  V30 5966 H 534.921 3.58025 4.17251 0
M  V30 5967 H 536.146 4.36528 5.20212 0
M  V30 5968 H 534.092 2.32413 6.1345 0
M  V30 5969 H 534.009 4.03594 6.39256 0
M  V30 5970 H 535.277 3.1154 7.14537 0
M  V30 5971 N 539.506 -0.963266 1.24736 0
M  V30 5972 C 540.453 -2.05857 1.04363 0
M  V30 5973 C 541.423 -1.6604 -0.0444951 0
M  V30 5974 O 542.608 -1.90477 0.110999 0
M  V30 5975 C 539.748 -3.38745 0.659235 0
M  V30 5976 C 538.861 -3.9173 1.82131 0
M  V30 5977 C 537.996 -5.12906 1.38208 0
M  V30 5978 C 537.035 -5.58098 2.51382 0
M  V30 5979 N 536.172 -6.7049 2.08295 0
M  V30 5980 H 541.012 -2.22616 1.98107 0
M  V30 5981 H 538.549 -1.09103 0.986661 0
M  V30 5982 H 540.507 -4.15107 0.417371 0
M  V30 5983 H 539.137 -3.21898 -0.241201 0
M  V30 5984 H 538.189 -3.11966 2.17672 0
M  V30 5985 H 539.501 -4.21225 2.67153 0
M  V30 5986 H 538.655 -5.96657 1.09935 0
M  V30 5987 H 537.394 -4.85105 0.502456 0
M  V30 5988 H 536.399 -4.72917 2.80409 0
M  V30 5989 H 537.624 -5.87911 3.39909 0
M  V30 5990 H 535.57 -6.44416 1.22737 0
M  V30 5991 H 535.487 -6.99458 2.86869 0
M  V30 5992 H 536.755 -7.57672 1.83175 0
M  V30 5993 N 540.985 -1.06182 -1.16461 0
M  V30 5994 C 541.895 -0.682671 -2.24448 0
M  V30 5995 C 542.911 0.30078 -1.71381 0
M  V30 5996 O 544.087 0.150376 -2.00838 0
M  V30 5997 C 541.152 -0.0737202 -3.46622 0
M  V30 5998 C 540.213 -1.10889 -4.14731 0
M  V30 5999 C 539.446 -0.528908 -5.31073 0
M  V30 6000 O 539.669 0.65868 -5.66584 0
M  V30 6001 O 538.603 -1.26805 -5.88391 0
M  V30 6002 H 542.429 -1.58291 -2.59187 0
M  V30 6003 H 540.014 -0.834013 -1.23954 0
M  V30 6004 H 541.896 0.264192 -4.20571 0
M  V30 6005 H 540.571 0.800015 -3.13658 0
M  V30 6006 H 539.478 -1.49896 -3.42756 0
M  V30 6007 H 540.811 -1.95412 -4.51747 0
M  V30 6008 N 542.463 1.3308 -0.844243 0
M  V30 6009 C 543.393 2.3161 -0.296493 0
M  V30 6010 C 544.374 1.59215 0.598707 0
M  V30 6011 O 545.559 1.87077 0.521134 0
M  V30 6012 C 542.689 3.43313 0.524762 0
M  V30 6013 C 541.643 4.27115 -0.275106 0
M  V30 6014 C 540.969 5.30483 0.670236 0
M  V30 6015 C 542.269 5.00443 -1.49514 0
M  V30 6016 H 543.963 2.77672 -1.11976 0
M  V30 6017 H 541.509 1.33496 -0.539899 0
M  V30 6018 H 543.462 4.11273 0.918298 0
M  V30 6019 H 542.186 2.95952 1.3813 0
M  V30 6020 H 540.845 3.60787 -0.650267 0
M  V30 6021 H 540.493 4.79379 1.52332 0
M  V30 6022 H 540.193 5.87435 0.139123 0
M  V30 6023 H 541.717 6.01308 1.06117 0
M  V30 6024 H 543.131 5.61141 -1.17447 0
M  V30 6025 H 541.528 5.67071 -1.96343 0
M  V30 6026 H 542.598 4.28906 -2.26202 0
M  V30 6027 N 543.941 0.601185 1.45683 0
M  V30 6028 C 544.873 -0.159446 2.28645 0
M  V30 6029 C 545.886 -0.837882 1.39583 0
M  V30 6030 O 547.075 -0.704344 1.64016 0
M  V30 6031 C 544.175 -1.24641 3.15147 0
M  V30 6032 C 543.348 -0.656334 4.32448 0
M  V30 6033 C 542.407 -1.63337 5.00208 0
M  V30 6034 O 541.433 -1.16217 5.57209 0
M  V30 6035 N 542.635 -2.96773 4.98905 0
M  V30 6036 H 545.4 0.5524 2.94565 0
M  V30 6037 H 542.961 0.440223 1.558 0
M  V30 6038 H 544.953 -1.8997 3.57342 0
M  V30 6039 H 543.523 -1.86087 2.51178 0
M  V30 6040 H 542.743 0.174879 3.93812 0
M  V30 6041 H 544.031 -0.242211 5.08223 0
M  V30 6042 H 543.429 -3.37662 4.53873 0
M  V30 6043 H 541.986 -3.57541 5.44984 0
M  V30 6044 N 545.419 -1.53889 0.339982 0
M  V30 6045 C 546.366 -2.24902 -0.518452 0
M  V30 6046 C 547.336 -1.24593 -1.09844 0
M  V30 6047 O 548.521 -1.53317 -1.13572 0
M  V30 6048 C 545.661 -3.02262 -1.66529 0
M  V30 6049 C 544.774 -4.17418 -1.11295 0
M  V30 6050 C 543.909 -4.82273 -2.2268 0
M  V30 6051 C 542.948 -5.89503 -1.6478 0
M  V30 6052 N 542.085 -6.48153 -2.69893 0
M  V30 6053 H 546.925 -2.97853 0.0936579 0
M  V30 6054 H 544.462 -1.46986 0.0579924 0
M  V30 6055 H 546.42 -3.45371 -2.3404 0
M  V30 6056 H 545.05 -2.31614 -2.24844 0
M  V30 6057 H 544.102 -3.78976 -0.328886 0
M  V30 6058 H 545.414 -4.94554 -0.649414 0
M  V30 6059 H 544.568 -5.28435 -2.98063 0
M  V30 6060 H 543.307 -4.04552 -2.72376 0
M  V30 6061 H 542.312 -5.42728 -0.879004 0
M  V30 6062 H 543.537 -6.6913 -1.1594 0
M  V30 6063 H 541.483 -5.73298 -3.1885 0
M  V30 6064 H 541.4 -7.20752 -2.28151 0
M  V30 6065 H 542.668 -6.98968 -3.45056 0
M  V30 6066 N 546.897 -0.0685191 -1.57451 0
M  V30 6067 C 548.146 0.600898 -1.92541 0
M  V30 6068 C 548.459 1.70967 -0.950239 0
M  V30 6069 O 549.665 2.43844 -1.19384 0
M  V30 6070 C 548.121 1.12019 -3.42023 0
M  V30 6071 C 547.729 0.0426028 -4.4798 0
M  V30 6072 C 549.473 1.76386 -3.86119 0
M  V30 6073 C 547.38 0.575759 -5.88591 0
M  V30 6074 H 546.31 0.228225 -0.71863 0
M  V30 6075 H 548.961 -0.140223 -1.82963 0
M  V30 6076 H 547.343 1.91418 -3.46663 0
M  V30 6077 H 548.517 -0.73182 -4.54952 0
M  V30 6078 H 546.832 -0.504642 -4.13331 0
M  V30 6079 H 549.429 2.17302 -4.88553 0
M  V30 6080 H 549.772 2.62255 -3.23308 0
M  V30 6081 H 550.305 1.03615 -3.84069 0
M  V30 6082 H 547.044 -0.245691 -6.55039 0
M  V30 6083 H 546.564 1.31778 -5.85145 0
M  V30 6084 H 548.243 1.0532 -6.3837 0
M  V30 6085 N 548.375 1.56261 0.205012 0
M  V30 6086 C 549.323 1.94631 1.27364 0
M  V30 6087 C 550.317 0.830434 1.47649 0
M  V30 6088 O 551.523 1.01538 1.48627 0
M  V30 6089 H 547.898 0.618755 0.427371 0
M  V30 6090 H 549.869 2.83768 0.922941 0
M  V30 6091 C 548.618 2.29358 2.61324 0
M  V30 6092 H 547.941 3.14744 2.46528 0
M  V30 6093 H 549.381 2.60076 3.34868 0
M  V30 6094 C 547.84 1.12461 3.17575 0
M  V30 6095 O 548.37 0.394407 3.99759 0
M  V30 6096 N 546.576 0.904036 2.7618 0
M  V30 6097 H 546.123 1.49956 2.09454 0
M  V30 6098 H 546.081 0.123662 3.14157 0
M  V30 6099 N 549.853 -0.472356 1.50355 0
M  V30 6100 C 550.803 -1.56809 1.65514 0
M  V30 6101 C 551.787 -1.5261 0.509801 0
M  V30 6102 O 552.979 -1.59655 0.764145 0
M  V30 6103 C 550.108 -2.9526 1.75146 0
M  V30 6104 C 549.194 -3.04348 2.95353 0
M  V30 6105 N 549.585 -2.83253 4.19048 0
M  V30 6106 C 547.883 -3.35482 2.93884 0
M  V30 6107 C 548.584 -2.97273 5.00003 0
M  V30 6108 N 547.56 -3.27418 4.33934 0
M  V30 6109 H 551.362 -1.39197 2.58846 0
M  V30 6110 H 548.876 -0.67906 1.47521 0
M  V30 6111 H 550.873 -3.74044 1.8411 0
M  V30 6112 H 549.533 -3.1392 0.829717 0
M  V30 6113 H 550.544 -2.5886 4.48567 0
M  V30 6114 H 547.221 -3.60138 2.11204 0
M  V30 6115 H 548.611 -2.85214 6.08361 0
M  V30 6116 N 551.331 -1.39911 -0.725443 0
M  V30 6117 C 552.608 -1.28158 -1.47766 0
M  V30 6118 C 552.988 0.104545 -2.10841 0
M  V30 6119 O 552.336 1.11657 -1.99361 0
M  V30 6120 C 552.546 -2.41306 -2.52135 0
M  V30 6121 C 553.894 -2.81076 -3.18247 0
M  V30 6122 O 554.918 -2.40827 -2.62452 0
M  V30 6123 O 553.777 -3.50581 -4.19231 0
M  V30 6124 H 550.871 -0.502761 -0.656628 0
M  V30 6125 H 553.417 -1.51808 -0.758456 0
M  V30 6126 H 552.189 -3.33932 -2.03974 0
M  V30 6127 H 551.812 -2.19374 -3.31603 0
M  V30 6128 N 552.809 0.956637 -1.25245 0
M  V30 6129 C 554.039 1.7332 -1.12445 0
M  V30 6130 C 554.447 1.86392 0.324732 0
M  V30 6131 O 553.79 1.35967 1.23526 0
M  V30 6132 C 553.852 3.16603 -1.70303 0
M  V30 6133 C 553.516 3.26966 -3.19284 0
M  V30 6134 C 554.513 3.11434 -4.16299 0
M  V30 6135 C 552.198 3.50851 -3.59456 0
M  V30 6136 C 554.192 3.1963 -5.51467 0
M  V30 6137 C 551.879 3.58684 -4.94761 0
M  V30 6138 C 552.877 3.43087 -5.90576 0
M  V30 6139 O 552.565 3.50598 -7.2342 0
M  V30 6140 H 552.297 0.549981 -0.393061 0
M  V30 6141 H 554.851 1.20892 -1.66055 0
M  V30 6142 H 553.081 3.70385 -1.11138 0
M  V30 6143 H 554.77 3.76109 -1.52632 0
M  V30 6144 H 555.536 2.92853 -3.86604 0
M  V30 6145 H 551.415 3.62053 -2.85375 0
M  V30 6146 H 554.959 3.07373 -6.26233 0
M  V30 6147 H 550.856 3.76782 -5.24124 0
M  V30 6148 H 551.624 3.67242 -7.31489 0
M  V30 6149 N 554.287 1.06798 1.15896 0
M  V30 6150 C 555.517 0.807522 1.90165 0
M  V30 6151 C 555.925 -0.642417 1.7796 0
M  V30 6152 O 555.268 -1.45193 1.12537 0
M  V30 6153 C 555.33 1.12939 3.41299 0
M  V30 6154 C 554.994 2.57879 3.7729 0
M  V30 6155 C 555.991 3.56118 3.78782 0
M  V30 6156 C 553.676 2.93311 4.07767 0
M  V30 6157 C 555.67 4.87827 4.10248 0
M  V30 6158 C 553.357 4.25219 4.38899 0
M  V30 6159 C 554.355 5.22287 4.4012 0
M  V30 6160 O 554.043 6.51826 4.70508 0
M  V30 6161 H 553.775 0.291946 0.609708 0
M  V30 6162 H 556.329 1.42627 1.47806 0
M  V30 6163 H 554.559 0.45359 3.84031 0
M  V30 6164 H 556.248 0.852363 3.9685 0
M  V30 6165 H 557.014 3.30086 3.55342 0
M  V30 6166 H 552.893 2.18409 4.05979 0
M  V30 6167 H 556.437 5.63586 4.11116 0
M  V30 6168 H 552.334 4.51006 4.61805 0
M  V30 6169 H 553.102 6.56893 4.88298 0
M  V30 6170 N 555.766 -1.3263 0.851289 0
M  V30 6171 C 556.713 -2.28952 0.291469 0
M  V30 6172 C 557.683 -1.54897 -0.599676 0
M  V30 6173 O 558.868 -1.83137 -0.535305 0
M  V30 6174 C 556.008 -3.41206 -0.516992 0
M  V30 6175 C 555.121 -4.30148 0.399566 0
M  V30 6176 C 554.256 -5.29527 -0.4212 0
M  V30 6177 C 553.295 -6.10112 0.492969 0
M  V30 6178 N 552.432 -7.01499 -0.290414 0
M  V30 6179 H 557.272 -2.76228 1.11813 0
M  V30 6180 H 554.809 -1.35907 0.562826 0
M  V30 6181 H 556.767 -4.05005 -1.00132 0
M  V30 6182 H 555.397 -2.9509 -1.30851 0
M  V30 6183 H 554.449 -3.66959 1.00227 0
M  V30 6184 H 555.761 -4.8649 1.1013 0
M  V30 6185 H 554.915 -5.98914 -0.968832 0
M  V30 6186 H 553.654 -4.73794 -1.15632 0
M  V30 6187 H 552.659 -5.39632 1.05251 0
M  V30 6188 H 553.884 -6.6793 1.22664 0
M  V30 6189 H 551.83 -6.48199 -1.00868 0
M  V30 6190 H 551.747 -7.55178 0.352354 0
M  V30 6191 H 553.015 -7.75176 -0.819882 0
M  V30 6192 N 557.244 -0.608902 -1.45362 0
M  V30 6193 C 558.492 -0.104401 -2.0183 0
M  V30 6194 C 558.813 1.27007 -1.47967 0
M  V30 6195 O 558.083 1.83924 -0.674455 0
M  V30 6196 H 556.663 -0.0356042 -0.746151 0
M  V30 6197 H 559.325 -0.790596 -1.78145 0
M  V30 6198 H 558.421 -0.0551793 -3.12051 0
M  V30 6199 N 558.722 1.53707 -0.348139 0
M  V30 6200 C 559.968 2.01286 0.247332 0
M  V30 6201 C 560.301 1.23546 1.49834 0
M  V30 6202 O 559.576 0.324331 1.91777 0
M  V30 6203 C 559.859 3.55768 0.556858 0
M  V30 6204 C 559.712 4.44216 -0.706564 0
M  V30 6205 C 561.031 4.1841 1.3646 0
M  V30 6206 H 558.15 0.731677 0.0884201 0
M  V30 6207 H 560.792 1.84106 -0.469584 0
M  V30 6208 H 558.942 3.70539 1.16761 0
M  V30 6209 H 560.614 4.41274 -1.34444 0
M  V30 6210 H 558.857 4.12892 -1.33052 0
M  V30 6211 H 559.528 5.50202 -0.445186 0
M  V30 6212 H 562.004 4.07365 0.848113 0
M  V30 6213 H 560.88 5.26563 1.54992 0
M  V30 6214 H 561.141 3.7333 2.36805 0
M  V30 6215 N 560.2 0.0768682 1.57412 0
M  V30 6216 C 561.163 -0.873949 2.11884 0
M  V30 6217 C 562.163 -1.22301 1.04398 0
M  V30 6218 O 563.353 -1.15545 1.30365 0
M  V30 6219 C 560.485 -2.17575 2.62438 0
M  V30 6220 H 561.678 -0.401278 2.97203 0
M  V30 6221 H 559.231 -0.171904 1.55352 0
M  V30 6222 H 559.966 -2.69368 1.80587 0
M  V30 6223 H 559.751 -1.93534 3.41009 0
M  V30 6224 H 561.241 -2.85631 3.04639 0
M  V30 6225 N 561.678 -1.56367 -0.196722 0
M  V30 6226 C 562.625 -1.94417 -1.24382 0
M  V30 6227 C 563.595 -0.804543 -1.45315 0
M  V30 6228 O 564.78 -1.06256 -1.58475 0
M  V30 6229 C 561.92 -2.28757 -2.58388 0
M  V30 6230 C 561.033 -3.55775 -2.45047 0
M  V30 6231 C 560.168 -3.79445 -3.71746 0
M  V30 6232 C 559.207 -4.99894 -3.53231 0
M  V30 6233 N 558.344 -5.19826 -4.71938 0
M  V30 6234 H 563.184 -2.83691 -0.912338 0
M  V30 6235 H 560.721 -1.40392 -0.439135 0
M  V30 6236 H 562.679 -2.46682 -3.36457 0
M  V30 6237 H 561.309 -1.42625 -2.89582 0
M  V30 6238 H 560.361 -3.45905 -1.58284 0
M  V30 6239 H 561.673 -4.44 -2.27299 0
M  V30 6240 H 560.827 -3.97601 -4.58256 0
M  V30 6241 H 559.566 -2.89546 -3.92446 0
M  V30 6242 H 558.571 -4.81662 -2.65107 0
M  V30 6243 H 559.796 -5.913 -3.33978 0
M  V30 6244 H 557.742 -4.32875 -4.92905 0
M  V30 6245 H 557.659 -6.02228 -4.57009 0
M  V30 6246 H 558.927 -5.42439 -5.59803 0
M  V30 6247 N 563.156 0.464375 -1.50603 0
M  V30 6248 C 564.119 1.54393 -1.69397 0
M  V30 6249 C 565.119 1.50566 -0.564504 0
M  V30 6250 O 566.309 1.53066 -0.831645 0
M  V30 6251 C 563.441 2.9401 -1.72543 0
M  V30 6252 H 564.634 1.39044 -2.65719 0
M  V30 6253 H 562.187 0.69122 -1.40185 0
M  V30 6254 H 562.922 3.14795 -0.77938 0
M  V30 6255 H 562.707 2.98195 -2.54602 0
M  V30 6256 H 564.197 3.72375 -1.89015 0
M  V30 6257 N 564.634 1.40294 0.718013 0
M  V30 6258 C 565.88 1.38645 1.48005 0
M  V30 6259 C 566.213 -0.0121202 1.94196 0
M  V30 6260 O 565.488 -0.980309 1.67989 0
M  V30 6261 C 565.771 2.37379 2.70782 0
M  V30 6262 C 565.624 3.8625 2.30501 0
M  V30 6263 C 566.943 2.33685 3.72933 0
M  V30 6264 H 564.062 0.504928 0.536858 0
M  V30 6265 H 566.704 1.71411 0.819649 0
M  V30 6266 H 564.854 2.09568 3.27129 0
M  V30 6267 H 566.526 4.24879 1.79655 0
M  V30 6268 H 564.769 4.02202 1.6253 0
M  V30 6269 H 565.44 4.50847 3.18498 0
M  V30 6270 H 567.916 2.58314 3.2621 0
M  V30 6271 H 566.792 3.0482 4.56482 0
M  V30 6272 H 567.053 1.34765 4.21059 0
M  V30 6273 N 566.112 -0.949982 1.2575 0
M  V30 6274 C 567.059 -2.04738 1.06541 0
M  V30 6275 C 568.029 -1.66078 -0.0268818 0
M  V30 6276 O 569.214 -1.90348 0.131196 0
M  V30 6277 C 566.354 -3.38027 0.695127 0
M  V30 6278 C 565.467 -3.89776 1.86276 0
M  V30 6279 C 564.602 -5.11411 1.4364 0
M  V30 6280 C 563.641 -5.554 2.57287 0
M  V30 6281 N 562.778 -6.68244 2.15395 0
M  V30 6282 H 567.618 -2.20502 2.00457 0
M  V30 6283 H 565.155 -1.0805 0.998178 0
M  V30 6284 H 567.113 -4.14641 0.461375 0
M  V30 6285 H 565.743 -3.22135 -0.207046 0
M  V30 6286 H 564.795 -3.0964 2.20969 0
M  V30 6287 H 566.107 -4.18368 2.71606 0
M  V30 6288 H 565.261 -5.95457 1.16257 0
M  V30 6289 H 564 -4.84545 0.553879 0
M  V30 6290 H 563.005 -4.69916 2.85409 0
M  V30 6291 H 564.23 -5.84272 3.46125 0
M  V30 6292 H 562.176 -6.43078 1.29565 0
M  V30 6293 H 562.093 -6.96377 2.94272 0
M  V30 6294 H 563.361 -7.55687 1.91201 0
M  V30 6295 N 567.59 -1.07411 -1.15328 0
M  V30 6296 C 568.537 -0.694995 -2.20087 0
M  V30 6297 C 569.507 0.313904 -1.63107 0
M  V30 6298 O 570.692 0.200216 -1.89747 0
M  V30 6299 C 567.832 -0.0996218 -3.44956 0
M  V30 6300 C 566.945 -1.16007 -4.16133 0
M  V30 6301 C 566.08 -0.529636 -5.28553 0
M  V30 6302 C 565.119 -1.57283 -5.91548 0
M  V30 6303 N 564.256 -0.964932 -6.95438 0
M  V30 6304 H 569.096 -1.5927 -2.51867 0
M  V30 6305 H 566.633 -0.796115 -1.23695 0
M  V30 6306 H 568.591 0.263197 -4.16369 0
M  V30 6307 H 567.221 0.761435 -3.13691 0
M  V30 6308 H 566.273 -1.64045 -3.4321 0
M  V30 6309 H 567.585 -1.95101 -4.59061 0
M  V30 6310 H 566.739 -0.114487 -6.06592 0
M  V30 6311 H 565.478 0.29307 -4.86819 0
M  V30 6312 H 564.483 -1.99775 -5.12221 0
M  V30 6313 H 565.708 -2.39783 -6.35359 0
M  V30 6314 H 563.654 -0.16314 -6.55797 0
M  V30 6315 H 563.571 -1.69311 -7.36797 0
M  V30 6316 H 564.839 -0.575305 -7.77374 0
M  V30 6317 N 569.068 1.32177 -0.85831 0
M  V30 6318 C 570.015 2.28794 -0.303607 0
M  V30 6319 C 570.985 1.55213 0.591453 0
M  V30 6320 O 572.17 1.83418 0.525585 0
M  V30 6321 C 569.31 3.41475 0.49889 0
M  V30 6322 C 568.423 4.2993 -0.422373 0
M  V30 6323 C 567.558 5.29743 0.393111 0
M  V30 6324 C 566.597 6.09842 -0.525317 0
M  V30 6325 N 565.734 7.01643 0.253208 0
M  V30 6326 H 570.574 2.75631 -1.13276 0
M  V30 6327 H 568.111 1.35606 -0.570026 0
M  V30 6328 H 570.069 4.05531 0.979826 0
M  V30 6329 H 568.699 2.95779 1.29284 0
M  V30 6330 H 567.751 3.66422 -1.02171 0
M  V30 6331 H 569.063 4.85899 -1.12709 0
M  V30 6332 H 568.217 5.9942 0.937056 0
M  V30 6333 H 566.956 4.744 1.13117 0
M  V30 6334 H 565.961 5.39066 -1.08112 0
M  V30 6335 H 567.186 6.6727 -1.26205 0
M  V30 6336 H 565.132 6.48725 0.974295 0
M  V30 6337 H 565.049 7.54981 -0.392398 0
M  V30 6338 H 566.317 7.756 0.778761 0
M  V30 6339 N 570.547 0.616602 1.45037 0
M  V30 6340 C 571.494 -0.0969439 2.30596 0
M  V30 6341 C 572.464 -0.851151 1.42635 0
M  V30 6342 O 573.649 -0.835092 1.71554 0
M  V30 6343 C 570.789 -1.08234 3.27688 0
M  V30 6344 C 569.902 -0.328072 4.30752 0
M  V30 6345 C 569.037 -1.30399 5.14946 0
M  V30 6346 C 568.076 -0.538049 6.09731 0
M  V30 6347 N 567.213 -1.46371 6.86673 0
M  V30 6348 H 572.053 0.63864 2.91076 0
M  V30 6349 H 569.59 0.326733 1.43425 0
M  V30 6350 H 571.548 -1.66688 3.82454 0
M  V30 6351 H 570.178 -1.78523 2.68941 0
M  V30 6352 H 569.23 0.372136 3.78575 0
M  V30 6353 H 570.542 0.269142 4.98073 0
M  V30 6354 H 569.696 -1.96032 5.74157 0
M  V30 6355 H 568.435 -1.93514 4.47665 0
M  V30 6356 H 567.44 0.131852 5.49642 0
M  V30 6357 H 568.665 0.0881732 6.79043 0
M  V30 6358 H 566.611 -2.08233 6.22073 0
M  V30 6359 H 566.528 -0.920152 7.50379 0
M  V30 6360 H 567.796 -2.10932 7.50418 0
M  V30 6361 N 572.025 -1.5352 0.356285 0
M  V30 6362 C 572.972 -2.25439 -0.494569 0
M  V30 6363 C 573.942 -1.25752 -1.08516 0
M  V30 6364 O 575.127 -1.54513 -1.1194 0
M  V30 6365 C 572.267 -3.04011 -1.63313 0
M  V30 6366 C 571.38 -4.18574 -1.06862 0
M  V30 6367 C 570.515 -4.84607 -2.17552 0
M  V30 6368 C 569.554 -5.91218 -1.58518 0
M  V30 6369 N 568.691 -6.50979 -2.63003 0
M  V30 6370 H 573.531 -2.97737 0.125244 0
M  V30 6371 H 571.068 -1.46916 0.0735789 0
M  V30 6372 H 573.026 -3.47834 -2.30363 0
M  V30 6373 H 571.656 -2.33986 -2.22374 0
M  V30 6374 H 570.708 -3.79303 -0.288672 0
M  V30 6375 H 572.02 -4.95215 -0.596924 0
M  V30 6376 H 571.174 -5.31566 -2.92442 0
M  V30 6377 H 569.913 -4.07418 -2.6807 0
M  V30 6378 H 568.918 -5.4363 -0.821391 0
M  V30 6379 H 570.143 -6.70322 -1.08836 0
M  V30 6380 H 568.089 -5.76648 -3.12751 0
M  V30 6381 H 568.006 -7.23131 -2.20493 0
M  V30 6382 H 569.274 -7.02589 -3.37623 0
M  V30 6383 N 573.503 -0.0852151 -1.57369 0
M  V30 6384 C 574.919 0.271436 -1.57275 0
M  V30 6385 C 575.119 1.69109 -1.09565 0
M  V30 6386 O 574.175 2.40549 -0.767611 0
M  V30 6387 C 575.488 0.0688638 -3.00621 0
M  V30 6388 C 577.036 0.137373 -3.12698 0
M  V30 6389 C 577.511 -0.0370832 -4.57985 0
M  V30 6390 N 579.002 0.0180794 -4.63196 0
M  V30 6391 C 579.737 -0.0922953 -5.73326 0
M  V30 6392 N 579.233 -0.256948 -6.92323 0
M  V30 6393 N 581.026 -0.0342702 -5.6209 0
M  V30 6394 H 573.177 -1.01288 -1.86693 0
M  V30 6395 H 575.44 -0.396138 -0.861266 0
M  V30 6396 H 575.146 -0.911277 -3.39689 0
M  V30 6397 H 575.02 0.815442 -3.6828 0
M  V30 6398 H 577.407 1.10801 -2.73509 0
M  V30 6399 H 577.488 -0.640532 -2.47651 0
M  V30 6400 H 577.132 -1.00455 -4.97867 0
M  V30 6401 H 577.062 0.760392 -5.21081 0
M  V30 6402 H 579.553 0.143202 -3.77629 0
M  V30 6403 H 579.866 -0.332949 -7.72082 0
M  V30 6404 H 578.211 -0.292487 -6.94384 0
M  V30 6405 H 581.402 0.0931605 -4.68007 0
M  V30 6406 H 581.575 -0.12374 -6.47882 0
M  V30 6407 N 574.981 1.5647 0.188427 0
M  V30 6408 C 575.891 1.98285 1.2538 0
M  V30 6409 C 576.907 0.891535 1.49424 0
M  V30 6410 O 578.083 1.19782 1.61908 0
M  V30 6411 C 575.148 2.31965 2.57669 0
M  V30 6412 C 574.209 3.54838 2.41638 0
M  V30 6413 C 573.442 3.86901 3.67618 0
M  V30 6414 O 573.665 3.20163 4.72072 0
M  V30 6415 O 572.599 4.80309 3.62749 0
M  V30 6416 H 576.425 2.89145 0.928912 0
M  V30 6417 H 574.01 1.44112 0.393955 0
M  V30 6418 H 575.892 2.54673 3.35737 0
M  V30 6419 H 574.567 1.44271 2.89771 0
M  V30 6420 H 573.474 3.37369 1.61658 0
M  V30 6421 H 574.807 4.43019 2.14465 0
M  V30 6422 N 576.459 -0.456382 1.50847 0
M  V30 6423 C 577.369 -1.57805 1.73594 0
M  V30 6424 C 578.385 -1.62599 0.619476 0
M  V30 6425 O 579.561 -1.80195 0.899532 0
M  V30 6426 C 576.626 -2.93926 1.8387 0
M  V30 6427 C 575.687 -2.99402 3.07663 0
M  V30 6428 C 574.92 -4.29031 3.1744 0
M  V30 6429 O 575.143 -5.20358 2.33631 0
M  V30 6430 O 574.077 -4.40401 4.10281 0
M  V30 6431 H 577.903 -1.41531 2.68705 0
M  V30 6432 H 575.488 -0.637422 1.3512 0
M  V30 6433 H 577.37 -3.74747 1.92725 0
M  V30 6434 H 576.045 -3.10368 0.91944 0
M  V30 6435 H 574.952 -2.17606 3.043 0
M  V30 6436 H 576.285 -2.87901 3.99216 0
M  V30 6437 N 577.937 -1.40673 -0.710563 0
M  V30 6438 C 578.884 -1.41336 -1.82463 0
M  V30 6439 C 579.854 -0.269648 -1.63897 0
M  V30 6440 O 581.039 -0.468463 -1.8496 0
M  V30 6441 C 578.179 -1.28665 -3.20218 0
M  V30 6442 C 577.292 -2.52784 -3.5032 0
M  V30 6443 C 576.427 -2.32517 -4.77608 0
M  V30 6444 C 575.466 -3.52187 -5.0063 0
M  V30 6445 N 574.603 -3.31084 -6.19135 0
M  V30 6446 H 579.443 -2.36558 -1.8123 0
M  V30 6447 H 576.98 -1.17483 -0.885226 0
M  V30 6448 H 578.938 -1.19324 -3.99772 0
M  V30 6449 H 577.568 -0.370602 -3.20666 0
M  V30 6450 H 576.62 -2.72634 -2.65283 0
M  V30 6451 H 577.932 -3.41845 -3.63241 0
M  V30 6452 H 577.086 -2.20558 -5.65189 0
M  V30 6453 H 575.825 -1.40889 -4.66906 0
M  V30 6454 H 574.83 -3.64617 -4.11502 0
M  V30 6455 H 576.055 -4.44749 -5.13201 0
M  V30 6456 H 574.001 -2.42143 -6.09674 0
M  V30 6457 H 573.918 -4.13713 -6.32754 0
M  V30 6458 H 575.186 -3.22868 -7.0949 0
M  V30 6459 N 579.415 0.9433 -1.26252 0
M  V30 6460 C 580.362 2.0417 -1.07625 0
M  V30 6461 C 581.332 1.6609 0.0180738 0
M  V30 6462 O 582.517 1.90276 -0.141289 0
M  V30 6463 C 579.657 3.37653 -0.713043 0
M  V30 6464 C 578.77 3.88783 -1.8834 0
M  V30 6465 C 577.905 5.10642 -1.4635 0
M  V30 6466 C 576.944 5.54028 -2.60229 0
M  V30 6467 N 576.081 6.67092 -2.18936 0
M  V30 6468 H 580.921 2.19436 -2.01623 0
M  V30 6469 H 578.458 1.07519 -1.00389 0
M  V30 6470 H 580.416 4.14391 -0.483358 0
M  V30 6471 H 579.046 3.22241 0.18996 0
M  V30 6472 H 578.098 3.08464 -2.22608 0
M  V30 6473 H 579.41 4.16922 -2.73821 0
M  V30 6474 H 578.564 5.94832 -1.19414 0
M  V30 6475 H 577.303 4.84244 -0.579568 0
M  V30 6476 H 576.308 4.68396 -2.87898 0
M  V30 6477 H 577.533 5.82429 -3.49219 0
M  V30 6478 H 575.479 6.42381 -1.32974 0
M  V30 6479 H 575.396 6.94806 -2.97961 0
M  V30 6480 H 576.664 7.54662 -1.95206 0
M  V30 6481 N 580.893 1.08022 1.14757 0
M  V30 6482 C 581.856 0.71048 2.1791 0
M  V30 6483 C 582.856 -0.252731 1.58801 0
M  V30 6484 O 584.046 -0.0327915 1.74169 0
M  V30 6485 C 581.178 0.0483203 3.40866 0
M  V30 6486 H 582.371 1.62384 2.52134 0
M  V30 6487 H 579.924 0.877595 1.29337 0
M  V30 6488 H 580.659 -0.876959 3.12218 0
M  V30 6489 H 580.444 0.741189 3.85031 0
M  V30 6490 H 581.934 -0.195471 4.17142 0
M  V30 6491 N 582.371 -1.3172 0.865308 0
M  V30 6492 C 583.318 -2.2863 0.315736 0
M  V30 6493 C 584.288 -1.55524 -0.583213 0
M  V30 6494 O 585.473 -1.83694 -0.51585 0
M  V30 6495 C 582.613 -3.41735 -0.480773 0
M  V30 6496 C 581.726 -4.297 0.445167 0
M  V30 6497 C 580.861 -5.29944 -0.365012 0
M  V30 6498 C 579.9 -6.09554 0.557651 0
M  V30 6499 N 579.037 -7.01768 -0.215994 0
M  V30 6500 H 583.877 -2.75026 1.14736 0
M  V30 6501 H 581.414 -1.35302 0.577209 0
M  V30 6502 H 583.372 -4.06045 -0.958306 0
M  V30 6503 H 582.002 -2.96461 -1.27714 0
M  V30 6504 H 581.054 -3.65875 1.04113 0
M  V30 6505 H 582.366 -4.85295 1.15284 0
M  V30 6506 H 581.52 -5.99908 -0.905255 0
M  V30 6507 H 580.259 -4.74994 -1.106 0
M  V30 6508 H 579.264 -5.38485 1.10969 0
M  V30 6509 H 580.489 -6.66591 1.29742 0
M  V30 6510 H 578.435 -6.49232 -0.939878 0
M  V30 6511 H 578.352 -7.54762 0.432431 0
M  V30 6512 H 579.62 -7.76002 -0.737618 0
M  V30 6513 N 583.85 -0.624285 -1.44708 0
M  V30 6514 C 585.075 -0.131171 -2.06985 0
M  V30 6515 C 585.5 1.18234 -1.46295 0
M  V30 6516 O 584.858 1.72375 -0.561842 0
M  V30 6517 C 584.906 -0.0226724 -3.60593 0
M  V30 6518 O 584.01 1.02314 -3.99507 0
M  V30 6519 H 583.351 -0.0816556 -0.65896 0
M  V30 6520 H 585.88 -0.859027 -1.85693 0
M  V30 6521 H 585.891 0.170138 -4.07645 0
M  V30 6522 H 584.566 -0.981685 -4.04148 0
M  V30 6523 H 583.143 0.805452 -3.64097 0
M  V30 6524 N 585.328 1.53329 -0.364422 0
M  V30 6525 C 586.275 2.25698 0.482607 0
M  V30 6526 C 587.245 1.26325 1.07848 0
M  V30 6527 O 588.43 1.55104 1.11119 0
M  V30 6528 C 585.57 3.04873 1.61699 0
M  V30 6529 C 584.683 4.19135 1.0464 0
M  V30 6530 C 583.818 4.85754 2.14979 0
M  V30 6531 C 582.857 5.9205 1.5538 0
M  V30 6532 N 581.994 6.52365 2.59547 0
M  V30 6533 H 586.834 2.97666 -0.141032 0
M  V30 6534 H 584.371 1.46875 -0.0813692 0
M  V30 6535 H 586.329 3.49051 2.28516 0
M  V30 6536 H 584.959 2.35162 2.2113 0
M  V30 6537 H 584.011 3.79451 0.268553 0
M  V30 6538 H 585.323 4.95525 0.570653 0
M  V30 6539 H 584.477 5.3311 2.89619 0
M  V30 6540 H 583.216 4.08834 2.65906 0
M  V30 6541 H 582.221 5.44058 0.792549 0
M  V30 6542 H 583.446 6.7089 1.0528 0
M  V30 6543 H 581.392 5.78298 3.09689 0
M  V30 6544 H 581.309 7.2429 2.16655 0
M  V30 6545 H 582.577 7.0437 3.33892 0
M  V30 6546 N 586.806 0.0935595 1.57322 0
M  V30 6547 C 587.753 -0.865935 2.1394 0
M  V30 6548 C 588.723 -1.28083 1.05754 0
M  V30 6549 O 589.908 -1.36285 1.33533 0
M  V30 6550 C 587.048 -2.12023 2.72287 0
M  V30 6551 C 586.161 -1.756 3.94701 0
M  V30 6552 C 585.296 -2.95804 4.41218 0
M  V30 6553 C 584.335 -2.555 5.56225 0
M  V30 6554 N 583.472 -3.68534 5.97601 0
M  V30 6555 H 588.312 -0.376261 2.95615 0
M  V30 6556 H 585.849 -0.174052 1.46067 0
M  V30 6557 H 587.807 -2.85477 3.04235 0
M  V30 6558 H 586.437 -2.58492 1.93343 0
M  V30 6559 H 585.489 -0.921208 3.69077 0
M  V30 6560 H 586.801 -1.41964 4.78171 0
M  V30 6561 H 585.955 -3.77513 4.74941 0
M  V30 6562 H 584.694 -3.32649 3.56645 0
M  V30 6563 H 583.699 -1.72218 5.22131 0
M  V30 6564 H 584.924 -2.19801 6.42545 0
M  V30 6565 H 582.87 -4.051 5.15974 0
M  V30 6566 H 582.787 -3.38737 6.75865 0
M  V30 6567 H 584.055 -4.50757 6.35955 0
M  V30 6568 N 588.284 -1.56567 -0.180126 0
M  V30 6569 C 589.512 -1.85618 -0.913972 0
M  V30 6570 C 589.927 -0.677892 -1.7621 0
M  V30 6571 O 589.284 0.353171 -1.7905 0
M  V30 6572 C 589.335 -3.13619 -1.79793 0
M  V30 6573 O 589.056 -4.26906 -0.98402 0
M  V30 6574 C 590.557 -3.55954 -2.64219 0
M  V30 6575 H 587.777 -0.616043 -0.265954 0
M  V30 6576 H 590.321 -2.03681 -0.182872 0
M  V30 6577 H 588.476 -2.97409 -2.48247 0
M  V30 6578 H 588.89 -4.9989 -1.58776 0
M  V30 6579 H 590.364 -4.48444 -3.21873 0
M  V30 6580 H 590.841 -2.79653 -3.38661 0
M  V30 6581 H 591.447 -3.74746 -2.01111 0
M  V30 6582 N 589.762 0.448376 -1.51087 0
M  V30 6583 C 590.725 1.52588 -1.71025 0
M  V30 6584 C 591.725 1.49958 -0.580442 0
M  V30 6585 O 592.915 1.52176 -0.847833 0
M  V30 6586 C 590.047 2.92163 -1.75652 0
M  V30 6587 H 591.24 1.36218 -2.67179 0
M  V30 6588 H 588.793 0.676313 -1.4091 0
M  V30 6589 H 589.528 3.13951 -0.812724 0
M  V30 6590 H 589.313 2.95478 -2.57751 0
M  V30 6591 H 590.803 3.70349 -1.92953 0
M  V30 6592 N 591.24 1.41047 0.703093 0
M  V30 6593 C 592.188 1.42494 1.83843 0
M  V30 6594 C 593.182 0.303885 1.66652 0
M  V30 6595 O 594.388 0.475544 1.73605 0
M  V30 6596 H 590.763 0.445685 0.605697 0
M  V30 6597 H 592.734 2.38194 1.79739 0
M  V30 6598 C 591.483 1.31666 3.21807 0
M  V30 6599 H 590.806 2.17212 3.35647 0
M  V30 6600 H 592.246 1.36738 4.01346 0
M  V30 6601 C 590.705 0.0281828 3.36888 0
M  V30 6602 O 591.235 -0.929995 3.90786 0
M  V30 6603 N 589.441 -0.0454322 2.90564 0
M  V30 6604 H 588.988 0.735046 2.4689 0
M  V30 6605 H 588.946 -0.906968 3.01034 0
M  V30 6606 N 592.718 -0.936591 1.26751 0
M  V30 6607 C 593.65 -2.03991 1.045 0
M  V30 6608 C 594.663 -1.628 0.00394261 0
M  V30 6609 O 595.852 -1.76817 0.244526 0
M  V30 6610 C 592.952 -3.34218 0.561403 0
M  V30 6611 C 592.125 -4.04151 1.67274 0
M  V30 6612 C 591.184 -5.12651 1.1864 0
M  V30 6613 O 590.21 -5.37104 1.88437 0
M  V30 6614 N 591.412 -5.80488 0.037278 0
M  V30 6615 H 594.177 -2.23644 1.99508 0
M  V30 6616 H 591.738 -1.10638 1.18198 0
M  V30 6617 H 593.73 -4.04101 0.220136 0
M  V30 6618 H 592.3 -3.11203 -0.295211 0
M  V30 6619 H 591.52 -3.28121 2.18472 0
M  V30 6620 H 592.808 -4.47626 2.41885 0
M  V30 6621 H 592.206 -5.63064 -0.545494 0
M  V30 6622 H 590.763 -6.5134 -0.244877 0
M  V30 6623 N 594.196 -1.08629 -1.14182 0
M  V30 6624 C 595.159 -0.722027 -2.1753 0
M  V30 6625 C 596.159 0.244305 -1.58933 0
M  V30 6626 O 597.349 0.0235545 -1.74184 0
M  V30 6627 C 594.481 -0.0663966 -3.40835 0
M  V30 6628 H 595.674 -1.63719 -2.51269 0
M  V30 6629 H 593.227 -0.884442 -1.28869 0
M  V30 6630 H 593.962 0.860389 -3.12678 0
M  V30 6631 H 593.747 -0.761598 -3.84632 0
M  V30 6632 H 595.237 0.173346 -4.1724 0
M  V30 6633 N 595.674 1.31259 -0.872281 0
M  V30 6634 C 596.92 1.96913 -0.485083 0
M  V30 6635 C 597.253 1.68774 0.960667 0
M  V30 6636 O 596.528 0.985495 1.67685 0
M  V30 6637 C 596.811 3.52299 -0.745502 0
M  V30 6638 C 596.664 3.90002 -2.24095 0
M  V30 6639 C 597.983 4.39582 -0.213516 0
M  V30 6640 H 595.102 0.715252 -0.177716 0
M  V30 6641 H 597.744 1.55347 -1.09395 0
M  V30 6642 H 595.894 3.87835 -0.227276 0
M  V30 6643 H 597.566 3.64555 -2.82661 0
M  V30 6644 H 595.809 3.38526 -2.71261 0
M  V30 6645 H 596.48 4.98352 -2.37381 0
M  V30 6646 H 598.956 4.10882 -0.656902 0
M  V30 6647 H 597.832 5.47251 -0.42516 0
M  V30 6648 H 598.093 4.33158 0.884666 0
M  V30 6649 N 597.152 0.631951 1.44375 0
M  V30 6650 C 598.401 0.134214 2.01253 0
M  V30 6651 C 598.714 -1.25171 1.50305 0
M  V30 6652 O 599.92 -1.8435 1.99317 0
M  V30 6653 C 598.376 0.189187 3.59402 0
M  V30 6654 C 597.984 1.57647 4.19346 0
M  V30 6655 C 599.728 -0.252044 4.23751 0
M  V30 6656 C 597.635 1.58651 5.69722 0
M  V30 6657 H 596.565 0.0464101 0.75257 0
M  V30 6658 H 599.216 0.790868 1.65582 0
M  V30 6659 H 597.598 -0.534584 3.92375 0
M  V30 6660 H 598.772 2.32389 3.97909 0
M  V30 6661 H 597.087 1.96186 3.67288 0
M  V30 6662 H 599.684 -0.264084 5.34047 0
M  V30 6663 H 600.027 -1.27951 3.96149 0
M  V30 6664 H 600.56 0.41926 3.95584 0
M  V30 6665 H 597.299 2.59237 6.0206 0
M  V30 6666 H 596.819 0.882039 5.93279 0
M  V30 6667 H 598.498 1.32082 6.33375 0
M  V30 6668 N 598.631 -1.53133 0.372548 0
M  V30 6669 C 599.579 -2.27473 -0.485681 0
M  V30 6670 C 600.573 -1.30719 -1.07745 0
M  V30 6671 O 601.779 -1.48321 -1.01985 0
M  V30 6672 H 598.154 -0.731269 -0.175356 0
M  V30 6673 H 600.125 -2.97955 0.162986 0
M  V30 6674 C 598.874 -3.08191 -1.60978 0
M  V30 6675 H 598.197 -3.82488 -1.16373 0
M  V30 6676 H 599.637 -3.63373 -2.18485 0
M  V30 6677 C 598.096 -2.19461 -2.55614 0
M  V30 6678 O 598.626 -1.81008 -3.58607 0
M  V30 6679 N 596.832 -1.83955 -2.24965 0
M  V30 6680 H 596.379 -2.15423 -1.41247 0
M  V30 6681 H 596.337 -1.24874 -2.88538 0
M  V30 6682 N 600.109 -0.101901 -1.5727 0
M  V30 6683 C 601.355 0.561027 -1.94885 0
M  V30 6684 C 601.688 1.6741 -0.984258 0
M  V30 6685 O 600.963 1.94491 -0.0184767 0
M  V30 6686 C 601.246 1.10982 -3.42571 0
M  V30 6687 C 601.099 0.00133418 -4.498 0
M  V30 6688 C 602.418 2.00608 -3.9172 0
M  V30 6689 H 599.537 0.202467 -0.708644 0
M  V30 6690 H 602.179 -0.173992 -1.89202 0
M  V30 6691 H 600.329 1.73621 -3.47546 0
M  V30 6692 H 602.001 -0.63322 -4.56933 0
M  V30 6693 H 600.244 -0.664143 -4.28686 0
M  V30 6694 H 600.915 0.426253 -5.50352 0
M  V30 6695 H 603.391 1.47864 -3.88941 0
M  V30 6696 H 602.267 2.3593 -4.95609 0
M  V30 6697 H 602.528 2.92608 -3.3141 0
M  V30 6698 N 601.587 1.56661 0.17182 0
M  V30 6699 C 602.55 1.9549 1.19651 0
M  V30 6700 C 603.55 0.838501 1.37207 0
M  V30 6701 O 604.74 1.10556 1.34622 0
M  V30 6702 C 601.872 2.24927 2.56166 0
M  V30 6703 H 603.065 2.87184 0.864007 0
M  V30 6704 H 600.618 1.50711 0.41425 0
M  V30 6705 H 601.353 1.35944 2.94431 0
M  V30 6706 H 601.138 3.06301 2.4479 0
M  V30 6707 H 602.628 2.55891 3.30014 0
M  V30 6708 N 603.065 -0.440357 1.51323 0
M  V30 6709 C 604.028 -1.51679 1.71832 0
M  V30 6710 C 605.028 -1.49648 0.588386 0
M  V30 6711 O 606.218 -1.51724 0.855891 0
M  V30 6712 C 603.35 -2.91228 1.77199 0
M  V30 6713 H 604.543 -1.34799 2.67898 0
M  V30 6714 H 602.096 -0.66883 1.41267 0
M  V30 6715 H 602.831 -3.13516 0.829363 0
M  V30 6716 H 602.616 -2.94107 2.59314 0
M  V30 6717 H 604.106 -3.69321 1.94915 0
M  V30 6718 N 604.543 -1.41418 -0.695603 0
M  V30 6719 C 605.453 -1.45622 -1.83933 0
M  V30 6720 C 606.469 -0.346825 -1.70508 0
M  V30 6721 O 607.645 -0.59454 -1.92424 0
M  V30 6722 C 604.71 -1.33627 -3.19914 0
M  V30 6723 C 603.771 -2.54882 -3.45447 0
M  V30 6724 C 603.004 -2.43449 -4.7494 0
M  V30 6725 O 603.227 -1.45905 -5.51424 0
M  V30 6726 O 602.161 -3.33206 -5.01256 0
M  V30 6727 H 605.987 -2.42114 -1.83342 0
M  V30 6728 H 603.572 -1.22956 -0.848658 0
M  V30 6729 H 605.454 -1.29221 -4.01098 0
M  V30 6730 H 604.129 -0.402508 -3.21188 0
M  V30 6731 H 603.036 -2.64865 -2.64192 0
M  V30 6732 H 604.369 -3.47087 -3.48987 0
M  V30 6733 N 606.021 0.929856 -1.27246 0
M  V30 6734 C 606.931 2.0636 -1.11592 0
M  V30 6735 C 607.947 1.73938 -0.046496 0
M  V30 6736 O 609.123 1.9981 -0.252544 0
M  V30 6737 C 606.188 3.38213 -0.762437 0
M  V30 6738 C 605.249 3.84346 -1.9125 0
M  V30 6739 C 604.482 5.09906 -1.57579 0
M  V30 6740 O 604.705 5.68354 -0.482694 0
M  V30 6741 O 603.639 5.51359 -2.41426 0
M  V30 6742 H 607.465 2.22478 -2.0673 0
M  V30 6743 H 605.05 1.04865 -1.06413 0
M  V30 6744 H 606.932 4.1741 -0.57854 0
M  V30 6745 H 605.607 3.23307 0.159439 0
M  V30 6746 H 604.514 3.06045 -2.15144 0
M  V30 6747 H 605.847 4.0379 -2.81451 0
M  V30 6748 O 607.538 1.21494 1.06403 0
M  V30 6749 H 608.229 0.975073 1.67368 0
M  V30 END ATOM
M  V30 BEGIN BOND
M  V30 END BOND
M  V30 END CTAB
M  END
$$$$
