drugbank_target|P43080 Guanylyl cyclase-activating protein 1 (DB08231)
 OpenBabel12092120493D

  0  0  0     0  0            999 V3000
M  V30 BEGIN CTAB
M  V30 COUNTS 3150 3176 0 0 0
M  V30 BEGIN ATOM
M  V30 1 H -0.908 1.98254 -0.117106 0
M  V30 2 N 0 1.576 0 0
M  V30 3 C 0.933 2.03868 1.02534 0
M  V30 4 C 1.911 0.928543 1.3348 0
M  V30 5 O 3.095 1.19667 1.45644 0
M  V30 6 C 0.222 2.43627 2.35294 0
M  V30 7 C -0.732 3.65373 2.2001 0
M  V30 8 S 0.101 5.13292 1.52614 0
M  V30 9 C 1.257 5.56322 2.86805 0
M  V30 10 H 1.49 2.90518 0.631377 0
M  V30 11 H -0.977 1.52953 0.210867 0
M  V30 12 H 0.981 2.67203 3.11629 0
M  V30 13 H -0.358 1.57376 2.7183 0
M  V30 14 H -1.165 3.90944 3.18086 0
M  V30 15 H -1.563 3.418 1.51819 0
M  V30 16 H 0.729 5.58782 3.83104 0
M  V30 17 H 1.672 6.56266 2.65933 0
M  V30 18 H 2.08 4.83886 2.90714 0
M  V30 19 N 1.4781 -0.272755 1.55222 0
M  V30 20 C 2.7261 -1.00234 1.75492 0
M  V30 21 C 3.0471 -1.8681 0.5592 0
M  V30 22 O 2.3171 -1.91215 -0.425882 0
M  V30 23 H 0.8971 -0.373076 0.647166 0
M  V30 24 H 3.5591 -0.296926 1.92625 0
M  V30 25 H 2.6551 -1.63913 2.65592 0
M  V30 26 N 2.9562 -1.48159 -0.537278 0
M  V30 27 C 3.9042 -1.62573 -1.66352 0
M  V30 28 C 4.8982 -0.492366 -1.62087 0
M  V30 29 O 6.1042 -0.670847 -1.67032 0
M  V30 30 H 2.4792 -0.511992 -0.550789 0
M  V30 31 H 4.4502 -2.57176 -1.51337 0
M  V30 32 C 3.1992 -1.67583 -3.04649 0
M  V30 33 H 2.5222 -2.54151 -3.08622 0
M  V30 34 H 3.9622 -1.81713 -3.83088 0
M  V30 35 C 2.4212 -0.413039 -3.34358 0
M  V30 36 O 2.9512 0.477259 -3.98855 0
M  V30 37 N 1.1572 -0.286961 -2.8918 0
M  V30 38 H 0.7042 -1.01241 -2.36871 0
M  V30 39 H 0.6622 0.556963 -3.09427 0
M  V30 40 N 4.4343 0.785586 -1.36625 0
M  V30 41 C 5.6803 1.54591 -1.31261 0
M  V30 42 C 6.0133 1.93906 0.106823 0
M  V30 43 O 5.2883 1.63007 1.06108 0
M  V30 44 C 5.5713 2.82038 -2.23889 0
M  V30 45 C 5.4243 2.49066 -3.74548 0
M  V30 46 C 6.7433 3.83887 -2.15217 0
M  V30 47 H 3.8623 0.560846 -0.478143 0
M  V30 48 H 6.5043 0.902278 -1.67209 0
M  V30 49 H 4.6543 3.36961 -1.93363 0
M  V30 50 H 6.3263 2.00164 -4.15611 0
M  V30 51 H 4.5693 1.81954 -3.93796 0
M  V30 52 H 5.2403 3.40109 -4.34776 0
M  V30 53 H 7.7163 3.38421 -2.42096 0
M  V30 54 H 6.5923 4.70806 -2.82193 0
M  V30 55 H 6.8533 4.27131 -1.14068 0
M  V30 56 N 5.9124 1.20967 1.01018 0
M  V30 57 C 6.8454 0.907578 2.09376 0
M  V30 58 C 7.8234 -0.142868 1.61971 0
M  V30 59 O 9.0074 -0.0150391 1.88494 0
M  V30 60 C 6.1344 0.361791 3.36762 0
M  V30 61 C 5.1804 1.39423 4.03068 0
M  V30 62 S 6.0134 2.96159 4.4615 0
M  V30 63 C 7.1694 2.43173 5.7673 0
M  V30 64 H 7.4024 1.82519 2.34678 0
M  V30 65 H 4.9354 1.03884 1.14225 0
M  V30 66 H 6.8934 0.0534523 4.10465 0
M  V30 67 H 5.5544 -0.53443 3.0952 0
M  V30 68 H 4.7474 0.961853 4.94737 0
M  V30 69 H 4.3494 1.65038 3.35617 0
M  V30 70 H 6.6414 1.83335 6.52223 0
M  V30 71 H 7.5844 3.33264 6.24773 0
M  V30 72 H 7.9924 1.85069 5.33301 0
M  V30 73 N 7.3905 -1.2043 1.01659 0
M  V30 74 C 8.3005 -2.2689 0.596484 0
M  V30 75 C 9.3165 -1.70107 -0.36599 0
M  V30 76 O 10.4925 -2.00117 -0.226942 0
M  V30 77 C 7.5575 -3.4665 -0.0586659 0
M  V30 78 C 6.6185 -4.18662 0.949751 0
M  V30 79 C 5.8515 -5.32705 0.32577 0
M  V30 80 O 6.0745 -5.63656 -0.874509 0
M  V30 81 O 5.0085 -5.92803 1.04249 0
M  V30 82 H 8.8345 -2.65041 1.4828 0
M  V30 83 H 6.4195 -1.27048 0.786082 0
M  V30 84 H 8.3015 -4.19256 -0.424564 0
M  V30 85 H 6.9765 -3.10375 -0.91918 0
M  V30 86 H 5.8835 -3.48229 1.36702 0
M  V30 87 H 7.2165 -4.58878 1.78023 0
M  V30 88 N 8.8686 -0.792821 -1.36206 0
M  V30 89 C 10.1166 -0.366062 -1.98757 0
M  V30 90 C 10.4376 1.0668 -1.63231 0
M  V30 91 O 9.7076 1.73587 -0.907978 0
M  V30 92 H 8.2876 -0.132364 -0.735179 0
M  V30 93 H 10.9496 -1.01562 -1.66347 0
M  V30 94 H 10.0456 -0.460638 -3.08682 0
M  V30 95 N 10.3467 1.47872 -0.545128 0
M  V30 96 C 11.2937 2.29849 0.2093 0
M  V30 97 C 12.2637 1.38313 0.919707 0
M  V30 98 O 13.4487 1.67277 0.917772 0
M  V30 99 C 10.5887 3.22019 1.24088 0
M  V30 100 C 9.7017 4.2864 0.537778 0
M  V30 101 C 8.8367 5.07973 1.5536 0
M  V30 102 C 7.8757 6.06381 0.8348 0
M  V30 103 N 7.0127 6.78717 1.79688 0
M  V30 104 H 11.8527 2.93845 -0.49591 0
M  V30 105 H 9.3897 1.44848 -0.256389 0
M  V30 106 H 11.3477 3.73868 1.85144 0
M  V30 107 H 9.9777 2.59914 1.91428 0
M  V30 108 H 9.0297 3.7994 -0.187046 0
M  V30 109 H 10.3417 4.98793 -0.0258907 0
M  V30 110 H 9.4957 5.63912 2.23803 0
M  V30 111 H 8.2347 4.37693 2.15118 0
M  V30 112 H 7.2397 5.49631 0.136388 0
M  V30 113 H 8.4647 6.78665 0.24313 0
M  V30 114 H 6.4107 6.11177 2.38326 0
M  V30 115 H 6.3277 7.44998 1.28505 0
M  V30 116 H 7.5957 7.39237 2.47282 0
M  V30 117 N 11.8248 0.280983 1.55075 0
M  V30 118 C 13.0498 -0.340154 2.04592 0
M  V30 119 C 13.4748 -1.48246 1.15779 0
M  V30 120 O 12.8328 -1.80614 0.15761 0
M  V30 121 C 12.8808 -0.793104 3.5177 0
M  V30 122 O 11.9848 -1.89981 3.66034 0
M  V30 123 H 11.3258 -0.0694289 0.66036 0
M  V30 124 H 13.8558 0.416993 2.00306 0
M  V30 125 H 13.8658 -1.08729 3.93245 0
M  V30 126 H 12.5408 0.0426163 4.15878 0
M  V30 127 H 11.1178 -1.60771 3.36463 0
M  V30 128 N 13.3029 -1.57598 0.00835791 0
M  V30 129 C 14.5489 -1.91211 -0.675732 0
M  V30 130 C 14.8819 -0.883139 -1.72958 0
M  V30 131 O 14.1569 0.097016 -1.94258 0
M  V30 132 C 14.4399 -3.35379 -1.31123 0
M  V30 133 C 14.2929 -4.48999 -0.268356 0
M  V30 134 C 15.6119 -3.7912 -2.23508 0
M  V30 135 H 12.7309 -0.695374 -0.244179 0
M  V30 136 H 15.3729 -1.89901 0.0613655 0
M  V30 137 H 13.5229 -3.36626 -1.93946 0
M  V30 138 H 15.1949 -4.59887 0.360844 0
M  V30 139 H 13.4379 -4.31873 0.408482 0
M  V30 140 H 14.1089 -5.46851 -0.752218 0
M  V30 141 H 16.5849 -3.79477 -1.70693 0
M  V30 142 H 15.4609 -4.80729 -2.64936 0
M  V30 143 H 15.7219 -3.13455 -3.11766 0
M  V30 144 N 14.781 0.264519 -1.55364 0
M  V30 145 C 15.691 1.34902 -1.91934 0
M  V30 146 C 16.707 1.53595 -0.817593 0
M  V30 147 O 17.883 1.67558 -1.11742 0
M  V30 148 C 14.948 2.68676 -2.19121 0
M  V30 149 C 14.009 2.58657 -3.4263 0
M  V30 150 C 13.242 3.86051 -3.68511 0
M  V30 151 O 13.465 4.87126 -2.96757 0
M  V30 152 O 12.399 3.85744 -4.62045 0
M  V30 153 H 16.225 1.06883 -2.8427 0
M  V30 154 H 13.81 0.463775 -1.42019 0
M  V30 155 H 15.692 3.47759 -2.37995 0
M  V30 156 H 14.367 2.96463 -1.29966 0
M  V30 157 H 13.274 1.7792 -3.29082 0
M  V30 158 H 14.607 2.35818 -4.32031 0
M  V30 159 N 16.2591 1.48442 0.529413 0
M  V30 160 C 17.1691 1.6569 1.66084 0
M  V30 161 C 18.1851 0.539432 1.65427 0
M  V30 162 O 19.3611 0.810572 1.84368 0
M  V30 163 C 16.4261 1.69315 3.02545 0
M  V30 164 C 15.4871 2.92694 3.14052 0
M  V30 165 C 14.7201 2.96137 4.44003 0
M  V30 166 O 14.9431 2.07973 5.31134 0
M  V30 167 O 13.8771 3.88312 4.59888 0
M  V30 168 H 17.7031 2.61483 1.54469 0
M  V30 169 H 15.2881 1.3185 0.702567 0
M  V30 170 H 17.1701 1.74217 3.83701 0
M  V30 171 H 15.8451 0.766966 3.14483 0
M  V30 172 H 14.7521 2.93324 2.32189 0
M  V30 173 H 16.0851 3.84699 3.0703 0
M  V30 174 N 17.7372 -0.778329 1.37039 0
M  V30 175 C 18.6672 -1.90546 1.34962 0
M  V30 176 C 19.6482 -1.68681 0.219274 0
M  V30 177 O 20.8332 -1.89634 0.418624 0
M  V30 178 C 17.9632 -3.27734 1.14925 0
M  V30 179 C 16.9172 -3.64147 2.24902 0
M  V30 180 C 16.2432 -4.99806 1.89996 0
M  V30 181 C 17.5432 -3.71579 3.67051 0
M  V30 182 H 19.2372 -1.92541 2.29277 0
M  V30 183 H 16.7832 -0.924948 1.10366 0
M  V30 184 H 18.7362 -4.06215 1.12104 0
M  V30 185 H 17.4602 -3.26154 0.170631 0
M  V30 186 H 16.1192 -2.8797 2.26868 0
M  V30 187 H 15.7672 -4.94759 0.906796 0
M  V30 188 H 15.4672 -5.25139 2.63634 0
M  V30 189 H 16.9912 -5.80694 1.88749 0
M  V30 190 H 18.4052 -4.40227 3.67251 0
M  V30 191 H 16.8022 -4.08405 4.39688 0
M  V30 192 H 17.8722 -2.72404 4.01154 0
M  V30 193 N 19.2153 -1.21501 -1.00376 0
M  V30 194 C 20.4403 -1.05977 -1.78279 0
M  V30 195 C 20.8653 0.385994 -1.84097 0
M  V30 196 O 20.2233 1.27849 -1.28547 0
M  V30 197 C 20.2713 -1.66302 -3.19963 0
M  V30 198 O 19.3753 -0.909333 -4.0225 0
M  V30 199 H 18.7163 -0.372906 -0.549397 0
M  V30 200 H 21.2463 -1.6107 -1.26165 0
M  V30 201 H 21.2563 -1.70574 -3.70632 0
M  V30 202 H 19.9313 -2.71515 -3.15043 0
M  V30 203 H 18.5083 -0.941795 -3.60811 0
M  V30 204 N 20.6934 1.19889 -1.02296 0
M  V30 205 C 21.9184 1.9393 -0.735237 0
M  V30 206 C 22.3434 1.74639 0.698782 0
M  V30 207 O 21.7014 1.04481 1.48167 0
M  V30 208 C 21.7494 3.43916 -1.08417 0
M  V30 209 O 20.8534 4.11917 -0.199446 0
M  V30 210 H 20.1944 0.605645 -0.272196 0
M  V30 211 H 22.7244 1.52137 -1.36804 0
M  V30 212 H 22.7344 3.9456 -1.03856 0
M  V30 213 H 21.4094 3.5728 -2.12894 0
M  V30 214 H 19.9864 3.71666 -0.303136 0
M  V30 215 N 22.1715 0.800033 1.35784 0
M  V30 216 C 23.3995 0.389606 2.03199 0
M  V30 217 C 23.8145 -0.997375 1.60306 0
M  V30 218 O 23.1715 -1.64154 0.797481 0
M  V30 219 C 23.2225 0.455855 3.58614 0
M  V30 220 O 22.9435 1.78815 3.99946 0
M  V30 221 C 24.4445 0.0374032 4.43284 0
M  V30 222 H 21.6645 0.159132 0.651857 0
M  V30 223 H 24.2085 1.08183 1.73541 0
M  V30 224 H 22.3635 -0.188057 3.86943 0
M  V30 225 H 22.7775 1.74636 4.94573 0
M  V30 226 H 24.2515 0.134882 5.51835 0
M  V30 227 H 24.7285 -1.01651 4.27275 0
M  V30 228 H 25.3345 0.654215 4.20238 0
M  V30 229 N 23.6496 -1.47581 0.552962 0
M  V30 230 C 24.5596 -2.33743 -0.200353 0
M  V30 231 C 25.5756 -1.47928 -0.916151 0
M  V30 232 O 26.7516 -1.80865 -0.885993 0
M  V30 233 C 23.8166 -3.24536 -1.21973 0
M  V30 234 C 22.8776 -4.26238 -0.511819 0
M  V30 235 C 22.1106 -5.12693 -1.48263 0
M  V30 236 O 22.3336 -5.01525 -2.71714 0
M  V30 237 O 21.2676 -5.93375 -1.00945 0
M  V30 238 H 25.0936 -2.9945 0.506304 0
M  V30 239 H 22.6786 -1.46071 0.313622 0
M  V30 240 H 24.5606 -3.80631 -1.80827 0
M  V30 241 H 23.2356 -2.61462 -1.90839 0
M  V30 242 H 22.1426 -3.73914 0.117799 0
M  V30 243 H 23.4756 -4.92014 0.135308 0
M  V30 244 N 25.1277 -0.289203 -1.54924 0
M  V30 245 C 26.3677 0.324536 -2.01807 0
M  V30 246 C 26.7317 1.5199 -1.17316 0
M  V30 247 O 27.9327 2.20422 -1.53843 0
M  V30 248 C 26.2037 0.683578 -3.50802 0
M  V30 249 S 27.7627 1.28185 -4.19659 0
M  V30 250 H 24.5807 0.100236 -0.703899 0
M  V30 251 H 27.1827 -0.414325 -1.91059 0
M  V30 252 H 25.8867 -0.195073 -4.09936 0
M  V30 253 H 25.4177 1.45354 -3.65562 0
M  V30 254 H 27.4327 2.57006 -4.24456 0
M  V30 255 N 26.6058 1.57591 -0.0167156 0
M  V30 256 C 27.5558 2.05953 0.978137 0
M  V30 257 C 28.5398 0.957532 1.29306 0
M  V30 258 O 29.7318 1.22119 1.28125 0
M  V30 259 C 26.8608 2.58006 2.26468 0
M  V30 260 C 25.9468 3.75113 1.97867 0
M  V30 261 N 26.3378 4.86187 1.39486 0
M  V30 262 C 24.6358 3.83363 2.27924 0
M  V30 263 C 25.3368 5.67502 1.27735 0
M  V30 264 N 24.3128 5.14023 1.76866 0
M  V30 265 H 28.1148 2.89236 0.521522 0
M  V30 266 H 25.6288 1.61301 0.188596 0
M  V30 267 H 27.6258 2.90937 2.98599 0
M  V30 268 H 26.2858 1.76148 2.72767 0
M  V30 269 H 27.2968 5.06695 1.07147 0
M  V30 270 H 23.9738 3.1239 2.76982 0
M  V30 271 H 25.3638 6.66791 0.826978 0
M  V30 272 N 28.0839 -0.256276 1.55502 0
M  V30 273 C 29.0159 -1.33981 1.85962 0
M  V30 274 C 30.0289 -1.44743 0.745212 0
M  V30 275 O 31.2179 -1.4626 1.02324 0
M  V30 276 C 28.3179 -2.7194 2.02242 0
M  V30 277 C 27.4909 -2.83562 3.33033 0
M  V30 278 C 26.5499 -4.02304 3.39172 0
M  V30 279 O 25.5759 -3.92273 4.12444 0
M  V30 280 N 26.7779 -5.15045 2.67784 0
M  V30 281 H 29.5429 -1.08191 2.7949 0
M  V30 282 H 27.1039 -0.446388 1.55624 0
M  V30 283 H 29.0959 -3.49697 2.03701 0
M  V30 284 H 27.6659 -2.90479 1.15502 0
M  V30 285 H 26.8859 -1.92555 3.43971 0
M  V30 286 H 28.1739 -2.88271 4.19258 0
M  V30 287 H 27.5719 -5.26085 2.07968 0
M  V30 288 H 26.1289 -5.90972 2.74947 0
M  V30 289 N 29.562 -1.4872 -0.521534 0
M  V30 290 C 30.808 -1.58378 -1.27624 0
M  V30 291 C 31.163 -0.258028 -1.90662 0
M  V30 292 O 30.456 0.739917 -1.76736 0
M  V30 293 C 30.65 -2.66497 -2.38148 0
M  V30 294 C 30.479 -4.09456 -1.85945 0
M  V30 295 C 29.249 -4.76495 -1.68168 0
M  V30 296 C 31.447 -4.95353 -1.3831 0
M  V30 297 N 29.429 -6.0384 -1.1068 0
M  V30 298 C 30.8 -6.13012 -0.928238 0
M  V30 299 C 32.855 -4.81512 -1.26692 0
M  V30 300 C 31.558 -7.18354 -0.368701 0
M  V30 301 C 33.584 -5.86984 -0.721368 0
M  V30 302 C 32.946 -7.03857 -0.276623 0
M  V30 303 H 29.045 -0.634045 -0.457724 0
M  V30 304 H 31.629 -1.85639 -0.587049 0
M  V30 305 H 29.8 -2.41043 -3.04553 0
M  V30 306 H 31.532 -2.65791 -3.05184 0
M  V30 307 H 28.287 -4.32962 -1.91939 0
M  V30 308 H 28.711 -6.71778 -0.839217 0
M  V30 309 H 33.353 -3.91487 -1.5968 0
M  V30 310 H 31.071 -8.08096 -0.0265122 0
M  V30 311 H 34.657 -5.78329 -0.634531 0
M  V30 312 H 33.537 -7.84077 0.138947 0
M  V30 313 N 31.0401 0.771051 -1.3745 0
M  V30 314 C 32.2701 1.55789 -1.35696 0
M  V30 315 C 32.6781 1.89107 0.0594523 0
M  V30 316 O 32.0211 1.51984 1.03183 0
M  V30 317 C 32.0831 2.89515 -2.13123 0
M  V30 318 C 31.7471 2.78829 -3.62082 0
M  V30 319 C 32.7441 2.49812 -4.5595 0
M  V30 320 C 30.4291 2.9683 -4.05213 0
M  V30 321 C 32.4231 2.38923 -5.90927 0
M  V30 322 C 30.1101 2.85562 -5.40276 0
M  V30 323 C 31.1081 2.56649 -6.32946 0
M  V30 324 O 30.7961 2.45408 -7.65526 0
M  V30 325 H 30.5281 0.489257 -0.466481 0
M  V30 326 H 33.0821 0.963446 -1.81403 0
M  V30 327 H 31.3121 3.51081 -1.62107 0
M  V30 328 H 33.0011 3.50915 -2.03994 0
M  V30 329 H 33.7671 2.3559 -4.23937 0
M  V30 330 H 29.6461 3.18335 -3.33442 0
M  V30 331 H 33.1901 2.16277 -6.63227 0
M  V30 332 H 29.0871 2.99351 -5.71891 0
M  V30 333 H 29.8551 2.60753 -7.75855 0
M  V30 334 N 32.5182 1.22032 0.997298 0
M  V30 335 C 33.4652 0.986467 2.08656 0
M  V30 336 C 34.4352 -0.0902671 1.65855 0
M  V30 337 O 35.6202 0.0584294 1.90711 0
M  V30 338 C 32.7602 0.565569 3.40434 0
M  V30 339 C 31.8732 1.71259 3.96604 0
M  V30 340 C 31.0082 1.24011 5.16522 0
M  V30 341 C 30.0472 2.35896 5.64818 0
M  V30 342 N 29.1842 1.89726 6.7598 0
M  V30 343 H 34.0242 1.91892 2.27994 0
M  V30 344 H 31.5612 0.956199 1.11782 0
M  V30 345 H 33.5192 0.302738 4.161 0
M  V30 346 H 32.1492 -0.329879 3.2111 0
M  V30 347 H 31.2012 2.08986 3.17851 0
M  V30 348 H 32.5132 2.55436 4.28432 0
M  V30 349 H 31.6672 0.934395 5.99461 0
M  V30 350 H 30.4062 0.368487 4.86306 0
M  V30 351 H 29.4112 2.67261 4.8047 0
M  V30 352 H 30.6362 3.23567 5.97061 0
M  V30 353 H 28.5822 1.0492 6.47555 0
M  V30 354 H 28.4992 2.67471 7.07103 0
M  V30 355 H 29.7672 1.62211 7.62435 0
M  V30 356 N 33.9963 -1.19345 1.0293 0
M  V30 357 C 34.9433 -2.2258 0.610464 0
M  V30 358 C 35.9133 -1.6179 -0.375946 0
M  V30 359 O 37.0983 -1.88844 -0.272511 0
M  V30 360 C 34.2383 -3.45085 -0.0321473 0
M  V30 361 C 33.3513 -4.20258 1.00035 0
M  V30 362 C 32.4863 -5.3019 0.32746 0
M  V30 363 C 31.5253 -5.97121 1.34584 0
M  V30 364 N 30.6623 -6.98615 0.698726 0
M  V30 365 H 35.5023 -2.57764 1.49538 0
M  V30 366 H 33.0393 -1.26644 0.748311 0
M  V30 367 H 34.9973 -4.15061 -0.421966 0
M  V30 368 H 33.6273 -3.10555 -0.88064 0
M  V30 369 H 32.6793 -3.49223 1.50823 0
M  V30 370 H 33.9913 -4.66175 1.77433 0
M  V30 371 H 33.1453 -6.06587 -0.11718 0
M  V30 372 H 31.8843 -4.85345 -0.478713 0
M  V30 373 H 30.8893 -5.19474 1.80074 0
M  V30 374 H 32.1143 -6.4405 2.15352 0
M  V30 375 H 30.0603 -6.55942 -0.0873471 0
M  V30 376 H 29.9773 -7.42724 1.41058 0
M  V30 377 H 31.2453 -7.79004 0.278102 0
M  V30 378 N 35.4744 -0.807222 -1.35358 0
M  V30 379 C 36.7214 -0.387888 -1.9875 0
M  V30 380 C 37.0494 1.04509 -1.64037 0
M  V30 381 O 36.3044 1.73986 -0.895946 0
M  V30 382 C 36.6034 -0.519036 -3.53611 0
M  V30 383 C 36.2694 -1.91542 -4.08194 0
M  V30 384 C 34.9314 -2.29745 -4.22813 0
M  V30 385 C 37.2834 -2.82896 -4.37744 0
M  V30 386 C 34.6114 -3.58668 -4.643 0
M  V30 387 C 36.9634 -4.11265 -4.8067 0
M  V30 388 C 35.6274 -4.49466 -4.93494 0
M  V30 389 H 34.8974 -0.141938 -0.727279 0
M  V30 390 H 37.5444 -1.02814 -1.6156 0
M  V30 391 H 35.8494 0.204658 -3.91265 0
M  V30 392 H 37.5464 -0.175345 -4.00616 0
M  V30 393 H 34.1364 -1.60862 -3.97268 0
M  V30 394 H 38.3204 -2.54629 -4.26002 0
M  V30 395 H 33.5764 -3.88113 -4.72418 0
M  V30 396 H 37.7504 -4.82153 -5.02496 0
M  V30 397 H 35.3774 -5.49418 -5.25399 0
M  V30 398 N 36.9525 1.47285 -0.560781 0
M  V30 399 C 37.8855 2.27009 0.232821 0
M  V30 400 C 38.8635 1.34273 0.917039 0
M  V30 401 O 40.0475 1.63659 0.935315 0
M  V30 402 C 37.1745 3.11406 1.33206 0
M  V30 403 C 36.2205 4.19746 0.756019 0
M  V30 404 S 37.0535 5.34003 -0.400165 0
M  V30 405 C 38.2095 6.21964 0.700805 0
M  V30 406 H 38.4425 2.93971 -0.443683 0
M  V30 407 H 35.9755 1.50446 -0.347181 0
M  V30 408 H 37.9335 3.60601 1.96156 0
M  V30 409 H 36.5945 2.438 1.98041 0
M  V30 410 H 35.7875 4.78541 1.5816 0
M  V30 411 H 35.3895 3.73451 0.202619 0
M  V30 412 H 37.6815 6.58529 1.59202 0
M  V30 413 H 38.6245 7.07941 0.150126 0
M  V30 414 H 39.0325 5.5566 0.995083 0
M  V30 415 N 38.4306 0.297415 1.54768 0
M  V30 416 C 39.6586 -0.315623 2.04478 0
M  V30 417 C 40.0736 -1.47792 1.17486 0
M  V30 418 O 39.4306 -1.81404 0.19971 0
M  V30 419 C 39.4816 -0.7753 3.53088 0
M  V30 420 O 39.2026 0.340732 4.36773 0
M  V30 421 C 40.7036 -1.45386 4.18781 0
M  V30 422 H 37.9236 -0.0690887 0.667434 0
M  V30 423 H 40.4676 0.436003 1.99798 0
M  V30 424 H 38.6226 -1.47696 3.58141 0
M  V30 425 H 39.0366 -0.0165035 5.24497 0
M  V30 426 H 40.5106 -1.72669 5.24299 0
M  V30 427 H 40.9876 -2.39275 3.68299 0
M  V30 428 H 41.5936 -0.795475 4.17795 0
M  V30 429 N 39.9087 -1.5758 0.0250728 0
M  V30 430 C 40.8187 -2.1343 -0.973905 0
M  V30 431 C 41.8347 -1.08556 -1.35984 0
M  V30 432 O 43.0107 -1.40592 -1.44207 0
M  V30 433 C 40.0757 -2.64703 -2.23904 0
M  V30 434 C 39.1367 -3.84276 -1.91391 0
M  V30 435 C 38.3697 -4.33095 -3.11873 0
M  V30 436 O 38.5927 -3.81107 -4.24398 0
M  V30 437 O 37.5267 -5.24984 -2.94406 0
M  V30 438 H 41.3527 -2.99057 -0.529036 0
M  V30 439 H 38.9377 -1.48118 -0.195288 0
M  V30 440 H 40.8197 -2.97769 -2.98181 0
M  V30 441 H 39.4947 -1.82161 -2.6758 0
M  V30 442 H 38.4017 -3.56143 -1.14511 0
M  V30 443 H 39.7347 -4.67968 -1.52534 0
M  V30 444 N 41.3868 0.248026 -1.55636 0
M  V30 445 C 42.6268 0.983592 -1.79178 0
M  V30 446 C 42.9908 1.82567 -0.594414 0
M  V30 447 O 44.1918 2.59292 -0.708583 0
M  V30 448 C 42.4628 1.82228 -3.07454 0
M  V30 449 S 44.0218 2.61709 -3.52213 0
M  V30 450 H 40.8398 0.330866 -0.629324 0
M  V30 451 H 43.4418 0.251562 -1.93875 0
M  V30 452 H 42.1458 1.19333 -3.92668 0
M  V30 453 H 41.6768 2.59708 -2.95492 0
M  V30 454 H 43.6918 3.84655 -3.13457 0
M  V30 455 N 42.8649 1.48995 0.513639 0
M  V30 456 C 44.2759 1.5119 1.09537 0
M  V30 457 C 44.6269 0.290906 1.94031 0
M  V30 458 O 43.7519 -0.60049 2.07902 0
M  V30 459 C 44.3469 2.73964 1.99322 0
M  V30 460 C 42.9059 2.78978 2.52682 0
M  V30 461 C 42.0529 2.44934 1.30009 0
M  V30 462 H 45.0039 1.55875 0.298125 0
M  V30 463 H 45.0249 2.53409 2.83838 0
M  V30 464 H 44.5369 3.62813 1.37799 0
M  V30 465 H 42.6379 1.94378 3.1788 0
M  V30 466 H 42.7509 3.8083 2.90698 0
M  V30 467 H 41.1149 1.9644 1.62122 0
M  V30 468 H 41.8979 3.36043 0.702131 0
M  V30 469 N 44.343 -0.763751 1.37857 0
M  V30 470 C 45.568 -1.55805 1.36893 0
M  V30 471 C 45.993 -1.88054 -0.0416135 0
M  V30 472 O 45.351 -1.49825 -1.02089 0
M  V30 473 C 45.399 -2.84012 2.22192 0
M  V30 474 O 44.503 -3.78732 1.63204 0
M  V30 475 H 43.844 -0.471638 0.46739 0
M  V30 476 H 46.374 -0.944657 1.81487 0
M  V30 477 H 46.384 -3.33037 2.35691 0
M  V30 478 H 45.059 -2.59869 3.24716 0
M  V30 479 H 43.636 -3.37402 1.58791 0
M  V30 480 N 45.8211 -1.22559 -0.990812 0
M  V30 481 C 47.0691 -1.04933 -1.72724 0
M  V30 482 C 47.3901 0.416158 -1.90508 0
M  V30 483 O 46.6601 1.29918 -1.46622 0
M  V30 484 H 45.2401 -0.385296 -0.639965 0
M  V30 485 H 47.9021 -1.54105 -1.19322 0
M  V30 486 H 46.9981 -1.52886 -2.72089 0
M  V30 487 N 47.2992 1.18797 -1.03562 0
M  V30 488 C 48.2312 2.21731 -0.580337 0
M  V30 489 C 49.2442 1.59051 0.347349 0
M  V30 490 O 50.4332 1.77929 0.142669 0
M  V30 491 C 47.5332 3.38459 0.172805 0
M  V30 492 C 46.7062 4.3072 -0.761496 0
M  V30 493 C 45.7652 5.26174 -0.0525547 0
M  V30 494 O 44.7912 5.65108 -0.681333 0
M  V30 495 N 45.9932 5.67624 1.21586 0
M  V30 496 H 48.7582 2.61417 -1.46565 0
M  V30 497 H 46.3192 1.33531 -0.915476 0
M  V30 498 H 48.3112 3.99335 0.656793 0
M  V30 499 H 46.8812 2.97507 0.959602 0
M  V30 500 H 46.1012 3.67525 -1.42544 0
M  V30 501 H 47.3892 4.89267 -1.39626 0
M  V30 502 H 46.7872 5.38038 1.74732 0
M  V30 503 H 45.3442 6.30721 1.64421 0
M  V30 504 N 48.7773 0.814389 1.34928 0
M  V30 505 C 49.7073 0.244827 2.32213 0
M  V30 506 C 50.6883 -0.634024 1.57842 0
M  V30 507 O 51.8733 -0.562676 1.8587 0
M  V30 508 C 49.0033 -0.601106 3.42058 0
M  V30 509 C 47.9573 0.179896 4.27622 0
M  V30 510 C 47.2833 -0.788237 5.28858 0
M  V30 511 C 48.5833 1.38329 5.03649 0
M  V30 512 H 50.2773 1.05763 2.80097 0
M  V30 513 H 47.8233 0.510029 1.34665 0
M  V30 514 H 49.7763 -1.00968 4.09125 0
M  V30 515 H 48.5003 -1.44688 2.92802 0
M  V30 516 H 47.1593 0.569739 3.62146 0
M  V30 517 H 46.8073 -1.62973 4.75866 0
M  V30 518 H 46.5073 -0.269942 5.8698 0
M  V30 519 H 48.0313 -1.19485 5.98795 0
M  V30 520 H 49.4453 1.04918 5.63618 0
M  V30 521 H 47.8423 1.83662 5.71304 0
M  V30 522 H 48.9123 2.16592 4.33839 0
M  V30 523 N 50.2554 -1.46986 0.568584 0
M  V30 524 C 51.4834 -2.0683 0.0539956 0
M  V30 525 C 51.8984 -1.41953 -1.24478 0
M  V30 526 O 51.2554 -0.519933 -1.74937 0
M  V30 527 C 51.3064 -3.61254 -0.133362 0
M  V30 528 O 51.0274 -4.237 1.11399 0
M  V30 529 C 52.5284 -4.37992 -0.683927 0
M  V30 530 H 49.7484 -0.669058 0.0510141 0
M  V30 531 H 52.2924 -1.88824 0.785234 0
M  V30 532 H 50.4474 -3.78735 -0.81477 0
M  V30 533 H 50.8614 -5.16388 0.91888 0
M  V30 534 H 52.3354 -5.46684 -0.764263 0
M  V30 535 H 52.8124 -4.05058 -1.69778 0
M  V30 536 H 53.4184 -4.25283 -0.0378494 0
M  V30 537 N 51.7335 -0.305618 -1.54608 0
M  V30 538 C 52.6635 0.561482 -2.26649 0
M  V30 539 C 53.6445 1.13415 -1.26772 0
M  V30 540 O 54.8295 1.16262 -1.55553 0
M  V30 541 C 51.9595 1.73122 -3.01075 0
M  V30 542 C 50.9135 1.2887 -4.08138 0
M  V30 543 C 50.2395 2.54396 -4.70305 0
M  V30 544 C 51.5395 0.416578 -5.20636 0
M  V30 545 H 53.2335 -0.0393902 -2.99374 0
M  V30 546 H 50.7795 -0.020385 -1.43986 0
M  V30 547 H 52.7325 2.34396 -3.50195 0
M  V30 548 H 51.4565 2.3584 -2.25936 0
M  V30 549 H 50.1155 0.698991 -3.59875 0
M  V30 550 H 49.7635 3.15439 -3.918 0
M  V30 551 H 49.4635 2.25486 -5.42614 0
M  V30 552 H 50.9875 3.16464 -5.2219 0
M  V30 553 H 52.4015 0.935116 -5.65622 0
M  V30 554 H 50.7985 0.221046 -5.99693 0
M  V30 555 H 51.8685 -0.557162 -4.81688 0
M  V30 556 N 53.2116 1.57565 -0.0334293 0
M  V30 557 C 54.4416 1.95996 0.653398 0
M  V30 558 C 54.8496 0.908749 1.65947 0
M  V30 559 O 54.1926 -0.117471 1.83324 0
M  V30 560 C 54.2546 3.30589 1.41249 0
M  V30 561 C 53.9186 4.53503 0.564263 0
M  V30 562 C 54.9156 5.19647 -0.16225 0
M  V30 563 C 52.6006 4.99801 0.500398 0
M  V30 564 C 54.5946 6.30412 -0.941255 0
M  V30 565 C 52.2816 6.10448 -0.282308 0
M  V30 566 C 53.2796 6.75612 -1.00184 0
M  V30 567 O 52.9676 7.84134 -1.77171 0
M  V30 568 H 52.6996 0.65027 0.184728 0
M  V30 569 H 55.2536 2.05199 -0.0907841 0
M  V30 570 H 53.4836 3.17888 2.20191 0
M  V30 571 H 55.1726 3.53892 1.98784 0
M  V30 572 H 55.9386 4.84846 -0.12227 0
M  V30 573 H 51.8176 4.48883 1.05002 0
M  V30 574 H 55.3616 6.81208 -1.50339 0
M  V30 575 H 51.2586 6.44686 -0.323989 0
M  V30 576 H 52.0266 8.00822 -1.69194 0
M  V30 577 N 54.6897 -0.239769 1.55765 0
M  V30 578 C 55.5997 -1.31831 1.94056 0
M  V30 579 C 56.6157 -1.52275 0.841925 0
M  V30 580 O 57.7917 -1.65759 1.14394 0
M  V30 581 C 54.8567 -2.65156 2.23368 0
M  V30 582 C 53.9177 -2.53173 3.46701 0
M  V30 583 C 53.1507 -3.8014 3.74606 0
M  V30 584 O 53.3737 -4.82343 3.04469 0
M  V30 585 O 52.3077 -3.78344 4.68123 0
M  V30 586 H 56.1337 -1.02347 2.85935 0
M  V30 587 H 53.7187 -0.441123 1.42739 0
M  V30 588 H 55.6007 -3.43929 2.43497 0
M  V30 589 H 54.2757 -2.94358 1.34666 0
M  V30 590 H 53.1827 -1.72662 3.31871 0
M  V30 591 H 54.5157 -2.28915 4.35728 0
M  V30 592 N 56.1678 -1.49265 -0.50573 0
M  V30 593 C 57.4148 -1.58513 -1.26015 0
M  V30 594 C 57.7428 -0.26972 -1.92621 0
M  V30 595 O 56.9978 0.741997 -1.81088 0
M  V30 596 C 57.2968 -2.69008 -2.35308 0
M  V30 597 C 56.9628 -4.10662 -1.86192 0
M  V30 598 C 55.6248 -4.49212 -1.72516 0
M  V30 599 C 57.9768 -4.99336 -1.49375 0
M  V30 600 C 55.3048 -5.74214 -1.20394 0
M  V30 601 C 57.6568 -6.24852 -0.987072 0
M  V30 602 C 56.3208 -6.62236 -0.836669 0
M  V30 603 H 55.5908 -0.580041 -0.461122 0
M  V30 604 H 58.2378 -1.83078 -0.561665 0
M  V30 605 H 56.5428 -2.38396 -3.10926 0
M  V30 606 H 58.2398 -2.73373 -2.93374 0
M  V30 607 H 54.8298 -3.8023 -1.97795 0
M  V30 608 H 59.0138 -4.70212 -1.5879 0
M  V30 609 H 54.2698 -6.01883 -1.07458 0
M  V30 610 H 58.4438 -6.92944 -0.692983 0
M  V30 611 H 56.0708 -7.58979 -0.430607 0
M  V30 612 N 57.6459 0.756429 -1.3826 0
M  V30 613 C 59.0619 1.0591 -1.19395 0
M  V30 614 C 59.2619 2.01459 -0.0406567 0
M  V30 615 O 58.3179 2.44909 0.614467 0
M  V30 616 C 59.6309 1.64191 -2.51916 0
M  V30 617 C 61.1789 1.76376 -2.58574 0
M  V30 618 C 61.6539 2.38069 -3.91264 0
M  V30 619 N 63.1449 2.45503 -3.92788 0
M  V30 620 C 63.8799 2.94126 -4.92217 0
M  V30 621 N 63.3759 3.42805 -6.02043 0
M  V30 622 N 65.1689 2.9314 -4.7961 0
M  V30 623 H 57.3199 0.122313 -2.12048 0
M  V30 624 H 59.5829 0.116892 -0.940766 0
M  V30 625 H 59.2889 1.01451 -3.3675 0
M  V30 626 H 59.1629 2.6329 -2.70108 0
M  V30 627 H 61.5499 2.38244 -1.74137 0
M  V30 628 H 61.6309 0.759894 -2.44252 0
M  V30 629 H 61.2749 1.76835 -4.76121 0
M  V30 630 H 61.2049 3.39091 -4.02895 0
M  V30 631 H 63.6959 2.1107 -3.13461 0
M  V30 632 H 64.0089 3.78354 -6.73846 0
M  V30 633 H 62.3539 3.4087 -6.05667 0
M  V30 634 H 65.5449 2.54419 -3.92923 0
M  V30 635 H 65.7179 3.30721 -5.5725 0
M  V30 636 N 59.124 1.23083 0.984299 0
M  V30 637 C 60.056 0.96636 2.07832 0
M  V30 638 C 61.069 -0.0582135 1.62696 0
M  V30 639 O 62.258 0.176843 1.77622 0
M  V30 640 C 59.358 0.433397 3.36117 0
M  V30 641 C 58.531 1.51722 4.10243 0
M  V30 642 C 57.59 0.989821 5.16807 0
M  V30 643 O 56.616 1.67794 5.43906 0
M  V30 644 N 57.818 -0.184367 5.80207 0
M  V30 645 H 60.583 1.90824 2.31098 0
M  V30 646 H 58.144 1.13888 1.1507 0
M  V30 647 H 60.136 0.065699 4.04647 0
M  V30 648 H 58.706 -0.413806 3.09849 0
M  V30 649 H 57.926 2.05786 3.36223 0
M  V30 650 H 59.214 2.24619 4.56534 0
M  V30 651 H 58.612 -0.760062 5.60571 0
M  V30 652 H 57.169 -0.493366 6.4993 0
M  V30 653 N 60.6021 -1.18246 1.0419 0
M  V30 654 C 61.8491 -1.88257 0.746017 0
M  V30 655 C 62.1771 -1.80429 -0.726331 0
M  V30 656 O 61.4321 -1.2 -1.54591 0
M  V30 657 C 61.7311 -3.38082 1.15911 0
M  V30 658 C 61.3971 -3.66114 2.63195 0
M  V30 659 C 60.0591 -3.73474 3.03432 0
M  V30 660 C 62.4111 -3.78398 3.5842 0
M  V30 661 C 59.7391 -3.90599 4.37778 0
M  V30 662 C 62.0911 -3.97039 4.92487 0
M  V30 663 C 60.7551 -4.02635 5.32392 0
M  V30 664 H 60.0251 -0.688883 0.272987 0
M  V30 665 H 62.6721 -1.3995 1.30715 0
M  V30 666 H 60.9771 -3.88377 0.516806 0
M  V30 667 H 62.6741 -3.90596 0.907516 0
M  V30 668 H 59.2641 -3.61003 2.3103 0
M  V30 669 H 63.4481 -3.72042 3.28479 0
M  V30 670 H 58.7041 -3.93175 4.68213 0
M  V30 671 H 62.8781 -4.05486 5.66175 0
M  V30 672 H 60.5051 -4.15657 6.36501 0
M  V30 673 N 62.0802 -0.821533 -1.34494 0
M  V30 674 C 63.3272 -0.408946 -1.98328 0
M  V30 675 C 63.6552 1.02764 -1.65136 0
M  V30 676 O 62.9102 1.73026 -0.914349 0
M  V30 677 C 63.2092 -0.556512 -3.53041 0
M  V30 678 C 62.8752 -1.95861 -4.0614 0
M  V30 679 C 61.5372 -2.34217 -4.20352 0
M  V30 680 C 63.8892 -2.87523 -4.34718 0
M  V30 681 C 61.2172 -3.63572 -4.6047 0
M  V30 682 C 63.5692 -4.1634 -4.76281 0
M  V30 683 C 62.2332 -4.54675 -4.88699 0
M  V30 684 H 61.5032 -0.149644 -0.725732 0
M  V30 685 H 64.1502 -1.04521 -1.6046 0
M  V30 686 H 62.4552 0.163148 -3.9146 0
M  V30 687 H 64.1522 -0.217826 -4.00408 0
M  V30 688 H 60.7422 -1.65066 -3.95539 0
M  V30 689 H 64.9262 -2.59133 -4.23277 0
M  V30 690 H 60.1822 -3.93101 -4.68275 0
M  V30 691 H 64.3562 -4.87455 -4.97354 0
M  V30 692 H 61.9832 -5.54959 -5.19542 0
M  V30 693 N 63.5583 1.46682 -0.576371 0
M  V30 694 C 64.8063 2.02013 -0.0594163 0
M  V30 695 C 65.1273 1.45101 1.30271 0
M  V30 696 O 64.3973 0.633317 1.8538 0
M  V30 697 H 62.9773 0.746759 -0.0189745 0
M  V30 698 H 65.6393 1.79862 -0.750717 0
M  V30 699 H 64.7353 3.12097 0.014345 0
M  V30 700 N 65.0364 0.313813 1.54444 0
M  V30 701 C 65.9664 -0.549454 2.26943 0
M  V30 702 C 66.9474 -1.12741 1.27372 0
M  V30 703 O 68.1324 -1.15436 1.56167 0
M  V30 704 C 65.2624 -1.71523 3.01989 0
M  V30 705 C 64.2164 -1.26703 4.08816 0
M  V30 706 C 63.5424 -2.51898 4.71647 0
M  V30 707 C 64.8424 -0.388962 5.2085 0
M  V30 708 H 66.5364 0.0552661 2.99349 0
M  V30 709 H 64.0824 0.0280207 1.43973 0
M  V30 710 H 66.0354 -2.32535 3.51433 0
M  V30 711 H 64.7594 -2.34639 2.27183 0
M  V30 712 H 63.4184 -0.679896 3.6024 0
M  V30 713 H 63.0664 -3.13356 3.93468 0
M  V30 714 H 62.7664 -2.22605 5.43802 0
M  V30 715 H 64.2904 -3.1369 5.23861 0
M  V30 716 H 65.7044 -0.905107 5.6611 0
M  V30 717 H 64.1014 -0.18924 5.99802 0
M  V30 718 H 65.1714 0.582699 4.81386 0
M  V30 719 N 66.5145 -1.57545 0.0417849 0
M  V30 720 C 67.4615 -2.10977 -0.935805 0
M  V30 721 C 68.4315 -1.01486 -1.31491 0
M  V30 722 O 69.6165 -1.2898 -1.40602 0
M  V30 723 C 66.7565 -2.65169 -2.2086 0
M  V30 724 C 65.8695 -3.88714 -1.88482 0
M  V30 725 C 65.0045 -4.31254 -3.1015 0
M  V30 726 C 64.0435 -5.47524 -2.7365 0
M  V30 727 N 63.1805 -5.85162 -3.87982 0
M  V30 728 H 68.0205 -2.94218 -0.473249 0
M  V30 729 H 65.5575 -1.45415 -0.221981 0
M  V30 730 H 67.5155 -2.94685 -2.95325 0
M  V30 731 H 66.1455 -1.8474 -2.64709 0
M  V30 732 H 65.1975 -3.65849 -1.04205 0
M  V30 733 H 66.5095 -4.73245 -1.57608 0
M  V30 734 H 65.6635 -4.62273 -3.92923 0
M  V30 735 H 64.4025 -3.45516 -3.44195 0
M  V30 736 H 63.4075 -5.16187 -1.89291 0
M  V30 737 H 64.6325 -6.34971 -2.40807 0
M  V30 738 H 62.5785 -5.02377 -4.21846 0
M  V30 739 H 62.4955 -6.64362 -3.60775 0
M  V30 740 H 63.7635 -6.20791 -4.71422 0
M  V30 741 N 67.9926 0.231505 -1.5589 0
M  V30 742 C 68.9406 1.30649 -1.92441 0
M  V30 743 C 69.9346 1.49037 -0.805254 0
M  V30 744 O 71.1406 1.50329 -0.990007 0
M  V30 745 H 67.5156 0.437812 -0.611412 0
M  V30 746 H 69.4866 0.970973 -2.82161 0
M  V30 747 C 68.2356 2.65179 -2.24889 0
M  V30 748 H 67.5586 2.51835 -3.10514 0
M  V30 749 H 68.9986 3.39234 -2.54355 0
M  V30 750 C 67.4576 3.19439 -1.07054 0
M  V30 751 O 67.9876 4.00371 -0.326499 0
M  V30 752 N 66.1936 2.77675 -0.85703 0
M  V30 753 H 65.7406 2.11969 -1.46379 0
M  V30 754 H 65.6986 3.14321 -0.0703223 0
M  V30 755 N 69.4707 1.49531 0.497807 0
M  V30 756 C 70.4007 1.6935 1.60757 0
M  V30 757 C 71.3817 0.542218 1.61227 0
M  V30 758 O 72.5667 0.778417 1.77917 0
M  V30 759 C 69.6967 1.76298 2.99226 0
M  V30 760 C 68.6507 2.91248 3.13622 0
M  V30 761 C 67.9767 2.83312 4.53474 0
M  V30 762 C 69.2767 4.3214 2.93346 0
M  V30 763 H 70.9707 2.62263 1.44425 0
M  V30 764 H 68.5167 1.26208 0.693367 0
M  V30 765 H 70.4697 1.88749 3.76765 0
M  V30 766 H 69.1937 0.799871 3.16654 0
M  V30 767 H 67.8527 2.78404 2.38509 0
M  V30 768 H 67.5007 1.84902 4.67782 0
M  V30 769 H 67.2007 3.60465 4.64046 0
M  V30 770 H 68.7247 2.97775 5.33069 0
M  V30 771 H 70.1387 4.45649 3.60652 0
M  V30 772 H 68.5357 5.1054 3.15387 0
M  V30 773 H 69.6057 4.46363 1.89441 0
M  V30 774 N 70.9488 -0.749086 1.3866 0
M  V30 775 C 72.1738 -1.54344 1.38538 0
M  V30 776 C 72.5988 -1.88088 -0.0216655 0
M  V30 777 O 71.9568 -1.50899 -1.00494 0
M  V30 778 C 72.0048 -2.8164 2.25192 0
M  V30 779 O 71.1088 -3.7698 1.67212 0
M  V30 780 H 70.4498 -0.466654 0.472367 0
M  V30 781 H 72.9798 -0.925355 1.82478 0
M  V30 782 H 72.9898 -3.30519 2.3921 0
M  V30 783 H 71.6648 -2.56411 3.27454 0
M  V30 784 H 70.2418 -3.35699 1.6236 0
M  V30 785 N 72.4269 -1.23603 -0.977757 0
M  V30 786 C 73.8379 -1.06424 -1.53398 0
M  V30 787 C 74.1889 0.367578 -1.92726 0
M  V30 788 O 73.3139 1.25465 -1.76316 0
M  V30 789 C 73.9089 -1.92568 -2.78753 0
M  V30 790 C 72.4679 -1.79642 -3.30765 0
M  V30 791 C 71.6149 -1.88111 -2.03739 0
M  V30 792 H 74.5659 -1.37227 -0.797152 0
M  V30 793 H 74.5869 -1.45203 -3.51705 0
M  V30 794 H 74.0989 -2.96771 -2.50098 0
M  V30 795 H 72.1999 -0.782325 -3.64294 0
M  V30 796 H 72.3129 -2.63174 -4.00345 0
M  V30 797 H 70.6769 -1.31723 -2.17994 0
M  V30 798 H 71.4599 -2.93875 -1.77461 0
M  V30 799 N 73.905 1.17692 -1.04816 0
M  V30 800 C 75.13 1.92327 -0.776207 0
M  V30 801 C 75.555 1.76082 0.661581 0
M  V30 802 O 74.913 1.076 1.45917 0
M  V30 803 C 74.961 3.41539 -1.15687 0
M  V30 804 O 74.065 4.11402 -0.286775 0
M  V30 805 H 73.406 0.599735 -0.284981 0
M  V30 806 H 75.936 1.49201 -1.4 0
M  V30 807 H 75.946 3.92269 -1.12202 0
M  V30 808 H 74.621 3.52684 -2.20425 0
M  V30 809 H 73.198 3.70939 -0.381903 0
M  V30 810 N 75.3831 0.828654 1.34056 0
M  V30 811 C 76.3461 0.259927 2.27721 0
M  V30 812 C 77.3461 -0.565478 1.50529 0
M  V30 813 O 78.5361 -0.38075 1.69988 0
M  V30 814 C 75.6681 -0.634944 3.34935 0
M  V30 815 H 76.8611 1.0863 2.79534 0
M  V30 816 H 74.4141 0.600951 1.44285 0
M  V30 817 H 75.1491 -1.48416 2.88346 0
M  V30 818 H 74.9341 -0.0444999 3.92075 0
M  V30 819 H 76.4241 -1.02648 4.04788 0
M  V30 820 N 76.8612 -1.46375 0.584142 0
M  V30 821 C 78.0862 -2.07268 0.0740405 0
M  V30 822 C 78.5112 -1.42979 -1.22223 0
M  V30 823 O 77.8692 -0.514092 -1.73859 0
M  V30 824 C 77.9172 -3.60518 -0.0767769 0
M  V30 825 O 77.0212 -3.96533 -1.13292 0
M  V30 826 H 76.3622 -0.660961 0.0634524 0
M  V30 827 H 78.8922 -1.87991 0.807492 0
M  V30 828 H 78.9022 -4.07021 -0.282489 0
M  V30 829 H 77.5772 -4.06702 0.86986 0
M  V30 830 H 76.1542 -3.61738 -0.905553 0
M  V30 831 N 78.3393 -0.321999 -1.54275 0
M  V30 832 C 79.2713 0.578671 -2.21775 0
M  V30 833 C 80.2843 1.08109 -1.21722 0
M  V30 834 O 81.4733 0.994938 -1.482 0
M  V30 835 C 78.5733 1.80661 -2.86731 0
M  V30 836 C 77.7463 1.44314 -4.12907 0
M  V30 837 C 76.8053 2.52845 -4.61472 0
M  V30 838 O 75.8313 2.17054 -5.2619 0
M  V30 839 N 77.0333 3.83748 -4.35566 0
M  V30 840 H 79.7983 0.000709447 -2.997 0
M  V30 841 H 77.3593 -0.145132 -1.61248 0
M  V30 842 H 79.3513 2.52655 -3.16145 0
M  V30 843 H 77.9213 2.29245 -2.12521 0
M  V30 844 H 77.1413 0.554906 -3.90275 0
M  V30 845 H 78.4293 1.17598 -4.95023 0
M  V30 846 H 77.8273 4.15625 -3.83761 0
M  V30 847 H 76.3843 4.51977 -4.69638 0
M  V30 848 N 79.8174 1.5752 -0.0501392 0
M  V30 849 C 81.0474 1.96678 0.632573 0
M  V30 850 C 81.4554 0.926298 1.64974 0
M  V30 851 O 80.7984 -0.09802 1.83438 0
M  V30 852 C 80.8604 3.32068 1.37735 0
M  V30 853 C 80.5244 4.54076 0.516131 0
M  V30 854 C 81.5214 5.19445 -0.217357 0
M  V30 855 C 79.2064 5.00304 0.44736 0
M  V30 856 C 81.2004 6.29378 -1.00807 0
M  V30 857 C 78.8874 6.10114 -0.347038 0
M  V30 858 C 79.8854 6.74512 -1.07344 0
M  V30 859 O 79.5734 7.82211 -1.85477 0
M  V30 860 H 79.3054 0.652193 0.177821 0
M  V30 861 H 81.8594 2.05091 -0.112543 0
M  V30 862 H 80.0894 3.20206 2.16807 0
M  V30 863 H 81.7784 3.55981 1.95019 0
M  V30 864 H 82.5444 4.84689 -0.173688 0
M  V30 865 H 78.4234 4.49971 1.00235 0
M  V30 866 H 81.9674 6.79575 -1.57556 0
M  V30 867 H 77.8644 6.44307 -0.392349 0
M  V30 868 H 78.6324 7.98982 -1.77678 0
M  V30 869 N 81.2955 -0.223234 1.56011 0
M  V30 870 C 82.5415 -0.949279 1.79211 0
M  V30 871 C 82.8745 -1.84054 0.619494 0
M  V30 872 O 82.1495 -1.90726 -0.381317 0
M  V30 873 C 82.4325 -1.78965 3.12479 0
M  V30 874 C 82.2855 -0.924997 4.40186 0
M  V30 875 C 83.6045 -2.76774 3.42175 0
M  V30 876 H 80.7235 -0.343676 0.651963 0
M  V30 877 H 83.3655 -0.218253 1.88742 0
M  V30 878 H 81.5155 -2.41291 3.04485 0
M  V30 879 H 83.1875 -0.318615 4.60198 0
M  V30 880 H 81.4305 -0.230344 4.33188 0
M  V30 881 H 82.1015 -1.54735 5.29869 0
M  V30 882 H 84.5775 -2.24584 3.50287 0
M  V30 883 H 83.4535 -3.32678 4.36597 0
M  V30 884 H 83.7145 -3.54429 2.64258 0
M  V30 885 N 82.7736 -1.49793 -0.48987 0
M  V30 886 C 83.6836 -1.70036 -1.61632 0
M  V30 887 C 84.6996 -0.583102 -1.63939 0
M  V30 888 O 85.8756 -0.859169 -1.82154 0
M  V30 889 C 82.9406 -1.77277 -2.97949 0
M  V30 890 C 82.0016 -3.00918 -3.06181 0
M  V30 891 C 81.2346 -3.07804 -4.35996 0
M  V30 892 O 81.4576 -2.21982 -5.25433 0
M  V30 893 O 80.3916 -4.00369 -4.49431 0
M  V30 894 H 84.2176 -2.65486 -1.47482 0
M  V30 895 H 81.8026 -1.33666 -0.667362 0
M  V30 896 H 83.6846 -1.84329 -3.78947 0
M  V30 897 H 82.3596 -0.850076 -3.12339 0
M  V30 898 H 81.2666 -2.99377 -2.2433 0
M  V30 899 H 82.5996 -3.92704 -2.96723 0
M  V30 900 N 84.2517 0.741722 -1.39055 0
M  V30 901 C 85.1837 1.8657 -1.33133 0
M  V30 902 C 86.1967 1.61001 -0.241329 0
M  V30 903 O 87.3857 1.7136 -0.499784 0
M  V30 904 C 84.4857 3.22457 -1.04283 0
M  V30 905 C 83.6587 3.75435 -2.24427 0
M  V30 906 C 82.7177 4.89867 -1.92138 0
M  V30 907 O 81.7437 5.03879 -2.64754 0
M  V30 908 N 82.9457 5.73738 -0.88347 0
M  V30 909 H 85.7107 1.92156 -2.29991 0
M  V30 910 H 83.2717 0.922172 -1.3307 0
M  V30 911 H 85.2637 3.9657 -0.807128 0
M  V30 912 H 83.8337 3.12181 -0.161807 0
M  V30 913 H 83.0537 2.92751 -2.6399 0
M  V30 914 H 84.3417 4.07563 -3.04581 0
M  V30 915 H 83.7397 5.64999 -0.281517 0
M  V30 916 H 82.2967 6.47947 -0.707662 0
M  V30 917 N 85.7298 1.2412 0.971189 0
M  V30 918 C 86.6628 0.97373 2.06382 0
M  V30 919 C 87.6408 -0.0912662 1.62344 0
M  V30 920 O 88.8248 0.0449365 1.88446 0
M  V30 921 C 85.9518 0.468746 3.35441 0
M  V30 922 C 84.9978 1.52176 3.98428 0
M  V30 923 S 85.8308 3.10203 4.36503 0
M  V30 924 C 86.9868 2.61398 5.68702 0
M  V30 925 H 87.2198 1.89893 2.28753 0
M  V30 926 H 84.7528 1.07466 1.10862 0
M  V30 927 H 86.7108 0.184012 4.10087 0
M  V30 928 H 85.3718 -0.435688 3.11064 0
M  V30 929 H 84.5648 1.11876 4.91426 0
M  V30 930 H 84.1668 1.75632 3.30196 0
M  V30 931 H 86.4588 2.03992 6.4606 0
M  V30 932 H 87.4018 3.52972 6.13854 0
M  V30 933 H 87.8098 2.01941 5.27143 0
M  V30 934 N 87.2079 -1.17134 1.05439 0
M  V30 935 C 88.4549 -1.87456 0.765942 0
M  V30 936 C 88.7829 -1.81189 -0.707153 0
M  V30 937 O 88.0379 -1.21633 -1.5331 0
M  V30 938 C 88.3369 -3.36833 1.19491 0
M  V30 939 C 88.0029 -3.63301 2.67063 0
M  V30 940 C 86.6649 -3.70234 3.07376 0
M  V30 941 C 89.0169 -3.74575 3.62413 0
M  V30 942 C 86.3449 -3.85933 4.41896 0
M  V30 943 C 88.6969 -3.91793 4.9667 0
M  V30 944 C 87.3609 -3.96966 5.36633 0
M  V30 945 H 86.6309 -0.685948 0.280278 0
M  V30 946 H 89.2779 -1.38556 1.32192 0
M  V30 947 H 87.5829 -3.87807 0.557969 0
M  V30 948 H 89.2799 -3.89611 0.948893 0
M  V30 949 H 85.8699 -3.58532 2.34846 0
M  V30 950 H 90.0539 -3.68537 3.32406 0
M  V30 951 H 85.3099 -3.88187 4.72357 0
M  V30 952 H 89.4839 -3.99458 5.70444 0
M  V30 953 H 87.1109 -4.08883 6.40874 0
M  V30 954 N 88.686 -0.835752 -1.33615 0
M  V30 955 C 89.596 -0.269088 -2.33052 0
M  V30 956 C 90.612 0.603251 -1.63208 0
M  V30 957 O 91.788 0.508112 -1.94885 0
M  V30 958 C 88.853 0.549091 -3.42324 0
M  V30 959 C 87.914 -0.347156 -4.27894 0
M  V30 960 C 87.147 0.43207 -5.31948 0
M  V30 961 O 87.37 1.66409 -5.45586 0
M  V30 962 O 86.304 -0.192298 -6.01593 0
M  V30 963 H 90.13 -1.09243 -2.83372 0
M  V30 964 H 87.715 -0.598198 -1.36901 0
M  V30 965 H 89.597 1.01414 -4.09015 0
M  V30 966 H 88.272 1.34955 -2.94226 0
M  V30 967 H 87.179 -0.859979 -3.64081 0
M  V30 968 H 88.512 -1.1123 -4.79467 0
M  V30 969 N 90.1641 1.46063 -0.591896 0
M  V30 970 C 91.3921 2.06717 -0.0868936 0
M  V30 971 C 91.8071 1.43916 1.22203 0
M  V30 972 O 91.1641 0.547698 1.74088 0
M  V30 973 C 91.2151 3.6142 0.0758725 0
M  V30 974 O 90.9361 4.21874 -1.18126 0
M  V30 975 C 92.4371 4.39025 0.61416 0
M  V30 976 H 89.6571 0.668162 -0.0616518 0
M  V30 977 H 92.2011 1.8755 -0.815175 0
M  V30 978 H 90.3561 3.79983 0.754413 0
M  V30 979 H 90.7701 5.14861 -1.00092 0
M  V30 980 H 92.2441 5.4783 0.677193 0
M  V30 981 H 92.7211 4.07708 1.63312 0
M  V30 982 H 93.3271 4.2529 -0.0298142 0
M  V30 983 N 91.6422 0.330177 1.54103 0
M  V30 984 C 92.8892 -0.270405 2.00686 0
M  V30 985 C 93.2172 -1.51621 1.21825 0
M  V30 986 O 92.4722 -1.93536 0.29025 0
M  V30 987 C 92.7712 -0.643134 3.51566 0
M  V30 988 C 92.4372 0.504251 4.48072 0
M  V30 989 C 91.0992 0.819163 4.74176 0
M  V30 990 C 93.4512 1.27465 5.05373 0
M  V30 991 C 90.7792 1.90708 5.5484 0
M  V30 992 C 93.1312 2.35271 5.87223 0
M  V30 993 C 91.7952 2.67336 6.11627 0
M  V30 994 H 91.0652 -0.0989482 0.734364 0
M  V30 995 H 93.7122 0.455324 1.86008 0
M  V30 996 H 92.0172 -1.44938 3.64006 0
M  V30 997 H 93.7142 -1.11949 3.85056 0
M  V30 998 H 90.3042 0.248733 4.27878 0
M  V30 999 H 94.4882 1.04462 4.85182 0
M  V30 1000 H 89.7442 2.15991 5.71977 0
M  V30 1001 H 93.9182 2.95405 6.30641 0
M  V30 1002 H 91.5452 3.51763 6.73919 0
M  V30 1003 N 93.1203 -1.57491 0.0584922 0
M  V30 1004 C 94.3973 -1.84346 -0.653918 0
M  V30 1005 C 94.7773 -0.948355 -1.88599 0
M  V30 1006 O 94.1253 -0.0112403 -2.28497 0
M  V30 1007 C 94.3353 -3.34239 -1.00425 0
M  V30 1008 C 95.6833 -4.01431 -1.38342 0
M  V30 1009 O 96.7073 -3.38907 -1.09637 0
M  V30 1010 O 95.5663 -5.11683 -1.91943 0
M  V30 1011 H 92.6603 -0.761112 -0.323478 0
M  V30 1012 H 95.2063 -1.6947 0.0884125 0
M  V30 1013 H 93.9783 -3.91089 -0.128625 0
M  V30 1014 H 93.6013 -3.54329 -1.80378 0
M  V30 1015 N 94.5984 0.214957 -1.56127 0
M  V30 1016 C 95.8454 0.938372 -1.79446 0
M  V30 1017 C 96.1734 1.8407 -0.628378 0
M  V30 1018 O 95.4284 1.91837 0.386925 0
M  V30 1019 C 95.7274 1.80314 -3.0858 0
M  V30 1020 C 95.3934 1.05349 -4.3842 0
M  V30 1021 C 94.0554 0.846435 -4.73697 0
M  V30 1022 C 96.4074 0.524588 -5.18553 0
M  V30 1023 C 93.7354 0.098683 -5.86617 0
M  V30 1024 C 96.0874 -0.209853 -6.32252 0
M  V30 1025 C 94.7514 -0.428102 -6.66126 0
M  V30 1026 H 94.0214 0.343375 -0.656639 0
M  V30 1027 H 96.6684 0.206077 -1.90388 0
M  V30 1028 H 94.9734 2.6035 -2.92789 0
M  V30 1029 H 96.6704 2.36513 -3.23825 0
M  V30 1030 H 93.2604 1.22486 -4.10725 0
M  V30 1031 H 97.4444 0.672008 -4.91729 0
M  V30 1032 H 92.7004 -0.0805753 -6.11347 0
M  V30 1033 H 96.8744 -0.627157 -6.9357 0
M  V30 1034 H 94.5014 -1.00944 -7.53468 0
M  V30 1035 N 96.0765 1.50051 0.48192 0
M  V30 1036 C 97.0245 1.68635 1.60203 0
M  V30 1037 C 98.0185 0.552184 1.60148 0
M  V30 1038 O 99.2245 0.732377 1.64427 0
M  V30 1039 H 95.5995 0.532081 0.531407 0
M  V30 1040 H 97.5705 2.62616 1.41688 0
M  V30 1041 C 96.3195 1.78775 2.9822 0
M  V30 1042 H 95.6425 2.6543 2.98976 0
M  V30 1043 H 97.0825 1.95806 3.7608 0
M  V30 1044 C 95.5415 0.536849 3.32595 0
M  V30 1045 O 96.0715 -0.328897 4.00351 0
M  V30 1046 N 94.2775 0.394091 2.87915 0
M  V30 1047 H 93.8245 1.09962 2.32951 0
M  V30 1048 H 93.7825 -0.441737 3.11281 0
M  V30 1049 N 97.5546 -0.734337 1.39446 0
M  V30 1050 C 98.5016 -1.84835 1.38219 0
M  V30 1051 C 99.4716 -1.64331 0.24179 0
M  V30 1052 O 100.657 -1.85728 0.437002 0
M  V30 1053 C 97.7966 -3.22355 1.23212 0
M  V30 1054 C 96.9096 -3.5456 2.46801 0
M  V30 1055 C 96.0446 -4.81485 2.24377 0
M  V30 1056 C 95.0836 -5.06536 3.43639 0
M  V30 1057 N 94.2206 -6.24665 3.20528 0
M  V30 1058 H 99.0606 -1.85219 2.33448 0
M  V30 1059 H 96.5976 -0.905039 1.15963 0
M  V30 1060 H 98.5556 -4.0174 1.12522 0
M  V30 1061 H 97.1856 -3.21248 0.316121 0
M  V30 1062 H 96.2376 -2.69872 2.68092 0
M  V30 1063 H 97.5496 -3.6899 3.3563 0
M  V30 1064 H 96.7036 -5.68852 2.10933 0
M  V30 1065 H 95.4426 -4.6923 1.32944 0
M  V30 1066 H 94.4476 -4.17632 3.5758 0
M  V30 1067 H 95.6726 -5.20676 4.35974 0
M  V30 1068 H 93.6186 -6.13696 2.3176 0
M  V30 1069 H 93.5356 -6.39685 4.02913 0
M  V30 1070 H 94.8036 -7.14868 3.10779 0
M  V30 1071 N 99.0327 -1.24633 -0.964593 0
M  V30 1072 C 100.31 -0.995809 -1.68354 0
M  V30 1073 C 100.69 0.480964 -2.05548 0
M  V30 1074 O 100.038 1.45599 -1.76105 0
M  V30 1075 C 100.248 -1.92177 -2.91323 0
M  V30 1076 C 101.596 -2.19446 -3.63495 0
M  V30 1077 O 102.62 -1.89855 -3.01386 0
M  V30 1078 O 101.479 -2.69714 -4.75307 0
M  V30 1079 H 98.5727 -0.376854 -0.736146 0
M  V30 1080 H 101.119 -1.35745 -1.0184 0
M  V30 1081 H 99.8907 -2.91938 -2.60553 0
M  V30 1082 H 99.5137 -1.56349 -3.65569 0
M  V30 1083 N 100.511 1.16574 -1.06058 0
M  V30 1084 C 101.759 1.86677 -0.77434 0
M  V30 1085 C 102.08 1.81959 0.701147 0
M  V30 1086 O 101.35 1.2515 1.50713 0
M  V30 1087 H 99.9298 0.691134 -0.283449 0
M  V30 1088 H 102.592 1.41378 -1.34158 0
M  V30 1089 H 101.688 2.92181 -1.09711 0
M  V30 1090 N 101.989 0.842826 1.3317 0
M  V30 1091 C 103.219 0.453397 2.01564 0
M  V30 1092 C 103.627 -0.951147 1.63554 0
M  V30 1093 O 102.97 -1.63021 0.846746 0
M  V30 1094 C 103.032 0.499013 3.5602 0
M  V30 1095 C 102.696 1.86037 4.1742 0
M  V30 1096 C 103.693 2.82416 4.36506 0
M  V30 1097 C 101.378 2.15428 4.53757 0
M  V30 1098 C 103.372 4.06346 4.91082 0
M  V30 1099 C 101.059 3.39615 5.0804 0
M  V30 1100 C 102.057 4.3489 5.26649 0
M  V30 1101 O 101.745 5.5688 5.79776 0
M  V30 1102 H 101.477 0.177871 0.652179 0
M  V30 1103 H 104.031 1.13808 1.70988 0
M  V30 1104 H 102.261 -0.242467 3.85939 0
M  V30 1105 H 103.95 0.126852 4.05702 0
M  V30 1106 H 104.716 2.6101 4.08777 0
M  V30 1107 H 100.595 1.42061 4.38565 0
M  V30 1108 H 104.139 4.80722 5.05522 0
M  V30 1109 H 100.036 3.60876 5.352 0
M  V30 1110 H 100.804 5.58674 5.98185 0
M  V30 1111 N 103.467 -1.45747 0.599634 0
M  V30 1112 C 104.716 -2.01502 0.0893511 0
M  V30 1113 C 105.029 -1.4748 -1.28488 0
M  V30 1114 O 106.235 -1.95161 -1.88745 0
M  V30 1115 C 104.691 -3.59735 0.109082 0
M  V30 1116 C 104.299 -4.22754 1.48267 0
M  V30 1117 C 106.043 -4.23085 -0.346374 0
M  V30 1118 C 103.95 -5.73115 1.45921 0
M  V30 1119 H 102.88 -0.753417 0.0296347 0
M  V30 1120 H 105.531 -1.67303 0.753788 0
M  V30 1121 H 103.913 -3.91087 -0.621854 0
M  V30 1122 H 105.087 -4.02987 2.23468 0
M  V30 1123 H 103.402 -3.71567 1.87955 0
M  V30 1124 H 105.999 -5.33327 -0.38298 0
M  V30 1125 H 106.342 -3.93201 -1.36743 0
M  V30 1126 H 106.875 -3.9642 0.331038 0
M  V30 1127 H 103.614 -6.07685 2.45762 0
M  V30 1128 H 103.134 -5.95097 0.749665 0
M  V30 1129 H 104.813 -6.3616 1.17941 0
M  V30 1130 N 104.945 -0.338344 -1.53925 0
M  V30 1131 C 106.222 0.314774 -1.93051 0
M  V30 1132 C 106.602 1.68669 -1.26941 0
M  V30 1133 O 105.95 2.24636 -0.418445 0
M  V30 1134 C 106.16 0.392249 -3.46789 0
M  V30 1135 C 107.508 0.645554 -4.19664 0
M  V30 1136 O 108.532 0.474575 -3.53024 0
M  V30 1137 O 107.391 0.976408 -5.37707 0
M  V30 1138 H 104.485 0.182598 -0.80659 0
M  V30 1139 H 107.031 -0.389141 -1.65178 0
M  V30 1140 H 105.803 -0.570702 -3.87116 0
M  V30 1141 H 105.426 1.14316 -3.80812 0
M  V30 1142 N 106.423 1.57458 -0.0668435 0
M  V30 1143 C 107.67 1.93301 0.603406 0
M  V30 1144 C 107.998 0.946486 1.69917 0
M  V30 1145 O 107.253 -0.0387021 1.95662 0
M  V30 1146 C 107.552 3.35784 1.22409 0
M  V30 1147 C 107.218 4.50179 0.254955 0
M  V30 1148 C 105.88 4.81199 -0.0116746 0
M  V30 1149 C 108.232 5.19598 -0.408338 0
M  V30 1150 C 105.56 5.78978 -0.94877 0
M  V30 1151 C 107.912 6.18381 -1.33372 0
M  V30 1152 C 106.576 6.47821 -1.60887 0
M  V30 1153 H 105.846 0.707338 0.220802 0
M  V30 1154 H 108.493 1.91012 -0.136665 0
M  V30 1155 H 106.798 3.34515 2.03978 0
M  V30 1156 H 108.495 3.60804 1.74989 0
M  V30 1157 H 105.085 4.25983 0.472954 0
M  V30 1158 H 109.269 4.95832 -0.215456 0
M  V30 1159 H 104.525 6.00115 -1.16925 0
M  V30 1160 H 108.699 6.71277 -1.85367 0
M  V30 1161 H 106.326 7.23399 -2.33661 0
M  V30 1162 N 107.901 -0.206675 1.56239 0
M  V30 1163 C 108.834 -1.28383 1.88661 0
M  V30 1164 C 109.812 -1.44504 0.745481 0
M  V30 1165 O 110.996 -1.60079 0.995336 0
M  V30 1166 C 108.123 -2.65211 2.10667 0
M  V30 1167 C 107.169 -2.66025 3.33366 0
M  V30 1168 S 108.002 -2.18609 4.88846 0
M  V30 1169 C 109.158 -3.57283 5.13906 0
M  V30 1170 H 109.391 -1.00691 2.7973 0
M  V30 1171 H 106.924 -0.409627 1.48867 0
M  V30 1172 H 108.882 -3.43979 2.24029 0
M  V30 1173 H 107.543 -2.90121 1.20369 0
M  V30 1174 H 106.736 -3.66607 3.45855 0
M  V30 1175 H 106.338 -1.95331 3.18938 0
M  V30 1176 H 108.63 -4.53074 5.03717 0
M  V30 1177 H 109.573 -3.49699 6.15724 0
M  V30 1178 H 109.981 -3.51659 4.41583 0
M  V30 1179 N 109.379 -1.50304 -0.473955 0
M  V30 1180 C 110.289 -1.7174 -1.5982 0
M  V30 1181 C 111.305 -0.600457 -1.63311 0
M  V30 1182 O 112.481 -0.878441 -1.81233 0
M  V30 1183 C 109.546 -1.80427 -2.96052 0
M  V30 1184 C 108.607 -3.04148 -3.02972 0
M  V30 1185 C 107.84 -3.12411 -4.32706 0
M  V30 1186 O 108.063 -2.27542 -5.23049 0
M  V30 1187 O 106.997 -4.05113 -4.45159 0
M  V30 1188 H 110.823 -2.67035 -1.44657 0
M  V30 1189 H 108.408 -1.34366 -0.653148 0
M  V30 1190 H 110.29 -1.88338 -3.7697 0
M  V30 1191 H 108.965 -0.883156 -3.11419 0
M  V30 1192 H 107.872 -3.0174 -2.21142 0
M  V30 1193 H 109.205 -3.95829 -2.92541 0
M  V30 1194 N 110.857 0.726932 -1.39834 0
M  V30 1195 C 112.087 1.51393 -1.40583 0
M  V30 1196 C 112.495 1.892 -0.000740625 0
M  V30 1197 O 111.838 1.55189 0.982951 0
M  V30 1198 C 111.9 2.82588 -2.22226 0
M  V30 1199 C 111.564 2.67169 -3.70769 0
M  V30 1200 C 112.561 2.3518 -4.63666 0
M  V30 1201 C 110.246 2.83788 -4.14451 0
M  V30 1202 C 112.24 2.20002 -5.98229 0
M  V30 1203 C 109.927 2.68229 -5.49087 0
M  V30 1204 C 110.925 2.36382 -6.4079 0
M  V30 1205 O 110.613 2.2093 -7.72946 0
M  V30 1206 H 110.345 0.474168 -0.48181 0
M  V30 1207 H 112.899 0.905247 -1.84376 0
M  V30 1208 H 111.129 3.45746 -1.73195 0
M  V30 1209 H 112.818 3.44247 -2.15055 0
M  V30 1210 H 113.584 2.21984 -4.31217 0
M  V30 1211 H 109.463 3.07566 -3.43401 0
M  V30 1212 H 113.007 1.95067 -6.69772 0
M  V30 1213 H 108.904 2.81006 -5.81125 0
M  V30 1214 H 109.672 2.35937 -7.83757 0
M  V30 1215 N 112.336 1.25143 0.95797 0
M  V30 1216 C 113.582 1.09855 1.70469 0
M  V30 1217 C 113.915 -0.360187 1.90831 0
M  V30 1218 O 113.19 -1.26568 1.47685 0
M  V30 1219 C 113.473 1.8497 3.08963 0
M  V30 1220 C 113.326 3.38652 2.96032 0
M  V30 1221 C 114.645 1.63016 4.08795 0
M  V30 1222 H 111.764 0.400465 0.618706 0
M  V30 1223 H 114.406 1.53933 1.11376 0
M  V30 1224 H 112.556 1.47505 3.59409 0
M  V30 1225 H 114.228 3.85772 2.52938 0
M  V30 1226 H 112.471 3.66534 2.32025 0
M  V30 1227 H 113.142 3.8642 3.94187 0
M  V30 1228 H 115.618 1.95625 3.67247 0
M  V30 1229 H 114.494 2.18015 5.03747 0
M  V30 1230 H 114.755 0.570692 4.38401 0
M  V30 1231 N 113.814 -1.1601 1.06675 0
M  V30 1232 C 114.777 -2.18724 0.685001 0
M  V30 1233 C 115.777 -1.58496 -0.271246 0
M  V30 1234 O 116.967 -1.74119 -0.0531156 0
M  V30 1235 C 114.099 -3.40899 0.00853648 0
M  V30 1236 H 115.292 -2.54011 1.59431 0
M  V30 1237 H 112.845 -1.30352 0.862441 0
M  V30 1238 H 113.58 -3.11173 -0.913337 0
M  V30 1239 H 113.365 -3.8587 0.696204 0
M  V30 1240 H 114.855 -4.16886 -0.24414 0
M  V30 1241 N 115.292 -0.849877 -1.32721 0
M  V30 1242 C 116.255 -0.296122 -2.27279 0
M  V30 1243 C 117.255 0.541458 -1.5141 0
M  V30 1244 O 118.445 0.353658 -1.70572 0
M  V30 1245 C 115.577 0.581579 -3.35902 0
M  V30 1246 H 116.77 -1.13064 -2.77771 0
M  V30 1247 H 114.323 -0.62383 -1.43311 0
M  V30 1248 H 115.058 1.43809 -2.9067 0
M  V30 1249 H 114.843 -0.0178814 -3.92096 0
M  V30 1250 H 116.333 0.961951 -4.0637 0
M  V30 1251 N 116.77 1.45427 -0.607355 0
M  V30 1252 C 117.7 2.3329 0.0989352 0
M  V30 1253 C 118.681 1.46816 0.859007 0
M  V30 1254 O 119.866 1.75588 0.829604 0
M  V30 1255 C 116.996 3.29518 1.09705 0
M  V30 1256 C 115.95 4.25626 0.450206 0
M  V30 1257 C 115.276 5.11542 1.55655 0
M  V30 1258 C 116.576 5.18505 -0.628455 0
M  V30 1259 H 118.27 2.92595 -0.634716 0
M  V30 1260 H 115.816 1.40696 -0.306681 0
M  V30 1261 H 117.769 3.89855 1.59971 0
M  V30 1262 H 116.493 2.68372 1.86129 0
M  V30 1263 H 115.152 3.66586 -0.0315886 0
M  V30 1264 H 114.8 4.46765 2.31107 0
M  V30 1265 H 114.5 5.76647 1.12925 0
M  V30 1266 H 116.024 5.74748 2.06148 0
M  V30 1267 H 117.438 5.72916 -0.209877 0
M  V30 1268 H 115.835 5.92085 -0.977489 0
M  V30 1269 H 116.905 4.60948 -1.50514 0
M  V30 1270 N 118.248 0.346503 1.53744 0
M  V30 1271 C 119.473 -0.253074 2.0585 0
M  V30 1272 C 119.898 -1.43202 1.21962 0
M  V30 1273 O 119.256 -1.79783 0.234073 0
M  V30 1274 C 119.304 -0.643193 3.54817 0
M  V30 1275 O 118.408 -1.74286 3.73762 0
M  V30 1276 H 117.749 -0.0413583 0.662711 0
M  V30 1277 H 120.279 0.501574 1.98357 0
M  V30 1278 H 120.289 -0.919526 3.97503 0
M  V30 1279 H 118.964 0.218966 4.15323 0
M  V30 1280 H 117.541 -1.46356 3.42979 0
M  V30 1281 N 119.726 -1.57421 0.075193 0
M  V30 1282 C 120.656 -2.15942 -0.888324 0
M  V30 1283 C 121.637 -1.08737 -1.30806 0
M  V30 1284 O 122.822 -1.36787 -1.37851 0
M  V30 1285 C 119.952 -2.72379 -2.1547 0
M  V30 1286 C 118.906 -3.8478 -1.87425 0
M  V30 1287 C 118.232 -4.27834 -3.20721 0
M  V30 1288 C 119.532 -5.08869 -1.17684 0
M  V30 1289 H 121.226 -2.96705 -0.400799 0
M  V30 1290 H 118.772 -1.42723 -0.191342 0
M  V30 1291 H 120.725 -3.11965 -2.83295 0
M  V30 1292 H 119.449 -1.88841 -2.6647 0
M  V30 1293 H 118.108 -3.45703 -1.22004 0
M  V30 1294 H 117.756 -3.41214 -3.6957 0
M  V30 1295 H 117.456 -5.03605 -3.02746 0
M  V30 1296 H 118.98 -4.70039 -3.89738 0
M  V30 1297 H 120.394 -5.4575 -1.75584 0
M  V30 1298 H 118.791 -5.8994 -1.09956 0
M  V30 1299 H 119.861 -4.84648 -0.156453 0
M  V30 1300 N 121.204 0.198386 -1.56346 0
M  V30 1301 C 122.45 0.920648 -1.80698 0
M  V30 1302 C 122.783 1.83045 -0.648697 0
M  V30 1303 O 122.058 1.91308 0.350925 0
M  V30 1304 C 122.341 1.73971 -3.15287 0
M  V30 1305 C 122.194 0.85485 -4.41602 0
M  V30 1306 C 123.513 2.71296 -3.46535 0
M  V30 1307 H 120.632 0.333261 -0.657348 0
M  V30 1308 H 123.274 0.188198 -1.89066 0
M  V30 1309 H 121.424 2.36416 -3.08285 0
M  V30 1310 H 123.096 0.245362 -4.60647 0
M  V30 1311 H 121.339 0.161398 -4.335 0
M  V30 1312 H 122.01 1.46286 -5.32264 0
M  V30 1313 H 124.486 2.18983 -3.53816 0
M  V30 1314 H 123.362 3.2569 -4.41834 0
M  V30 1315 H 123.623 3.5018 -2.69864 0
M  V30 1316 N 122.682 1.50554 0.465978 0
M  V30 1317 C 123.612 1.72722 1.57128 0
M  V30 1318 C 124.593 0.576294 1.6004 0
M  V30 1319 O 125.778 0.81598 1.76225 0
M  V30 1320 C 122.908 1.82605 2.95419 0
M  V30 1321 C 121.862 2.97835 3.07373 0
M  V30 1322 C 121.188 2.92867 4.47363 0
M  V30 1323 C 122.488 4.38265 2.84114 0
M  V30 1324 H 124.182 2.65267 1.38829 0
M  V30 1325 H 121.728 1.2765 0.666441 0
M  V30 1326 H 123.681 1.96698 3.72677 0
M  V30 1327 H 122.405 0.866858 3.14886 0
M  V30 1328 H 121.064 2.83401 2.3255 0
M  V30 1329 H 120.712 1.94783 4.63755 0
M  V30 1330 H 120.412 3.70227 4.56296 0
M  V30 1331 H 121.936 3.09015 5.26633 0
M  V30 1332 H 123.35 4.53198 3.51118 0
M  V30 1333 H 121.747 5.17115 3.04487 0
M  V30 1334 H 122.817 4.50281 1.7993 0
M  V30 1335 N 124.16 -0.719506 1.40217 0
M  V30 1336 C 125.107 -1.83359 1.40172 0
M  V30 1337 C 126.077 -1.64065 0.259206 0
M  V30 1338 O 127.262 -1.85254 0.456677 0
M  V30 1339 C 124.402 -3.2103 1.26624 0
M  V30 1340 C 123.515 -3.51923 2.50548 0
M  V30 1341 C 122.65 -4.79079 2.29471 0
M  V30 1342 C 121.689 -5.02863 3.48992 0
M  V30 1343 N 120.826 -6.2123 3.27135 0
M  V30 1344 H 125.666 -1.82733 2.35399 0
M  V30 1345 H 123.203 -0.892688 1.16917 0
M  V30 1346 H 125.161 -4.00524 1.16776 0
M  V30 1347 H 123.791 -3.20895 0.350176 0
M  V30 1348 H 122.843 -2.67014 2.70939 0
M  V30 1349 H 124.155 -3.6541 3.39525 0
M  V30 1350 H 123.309 -5.66582 2.16955 0
M  V30 1351 H 122.048 -4.67794 1.37913 0
M  V30 1352 H 121.053 -4.13816 3.6199 0
M  V30 1353 H 122.278 -5.16023 4.41472 0
M  V30 1354 H 120.224 -6.11204 2.38256 0
M  V30 1355 H 120.141 -6.35375 4.09675 0
M  V30 1356 H 121.409 -7.11532 3.18344 0
M  V30 1357 N 125.638 -1.25649 -0.95132 0
M  V30 1358 C 126.886 -1.10375 -1.69298 0
M  V30 1359 C 127.207 0.355339 -1.91735 0
M  V30 1360 O 126.477 1.25188 -1.50681 0
M  V30 1361 H 125.057 -0.405461 -0.627384 0
M  V30 1362 H 127.719 -1.57823 -1.14358 0
M  V30 1363 H 126.815 -1.61465 -2.67087 0
M  V30 1364 N 127.117 1.15442 -1.07289 0
M  V30 1365 C 128.064 2.20161 -0.692653 0
M  V30 1366 C 129.034 1.63073 0.31564 0
M  V30 1367 O 130.219 1.89725 0.202235 0
M  V30 1368 C 127.359 3.44967 -0.0959509 0
M  V30 1369 C 126.472 4.16256 -1.15564 0
M  V30 1370 C 125.607 5.28609 -0.524011 0
M  V30 1371 C 124.646 5.91715 -1.56653 0
M  V30 1372 N 123.783 6.9554 -0.957531 0
M  V30 1373 H 128.623 2.52037 -1.59002 0
M  V30 1374 H 126.16 1.2378 -0.794798 0
M  V30 1375 H 128.118 4.16341 0.267628 0
M  V30 1376 H 126.748 3.1361 0.764772 0
M  V30 1377 H 125.8 3.43385 -1.6368 0
M  V30 1378 H 127.112 4.59268 -1.94613 0
M  V30 1379 H 126.266 6.06604 -0.108032 0
M  V30 1380 H 125.005 4.86787 0.29825 0
M  V30 1381 H 124.01 5.12433 -1.9923 0
M  V30 1382 H 125.235 6.35614 -2.39107 0
M  V30 1383 H 123.181 6.55814 -0.156162 0
M  V30 1384 H 123.098 7.36977 -1.68526 0
M  V30 1385 H 124.366 7.77435 -0.567032 0
M  V30 1386 N 128.595 0.856903 1.32268 0
M  V30 1387 C 129.841 0.462069 1.97466 0
M  V30 1388 C 130.174 -0.980298 1.67642 0
M  V30 1389 O 129.449 -1.68824 0.965858 0
M  V30 1390 C 129.732 0.704336 3.53145 0
M  V30 1391 C 129.585 2.19529 3.9259 0
M  V30 1392 C 130.904 0.1622 4.39801 0
M  V30 1393 H 128.023 0.169357 0.717278 0
M  V30 1394 H 130.665 1.07574 1.56614 0
M  V30 1395 H 128.815 0.181999 3.88073 0
M  V30 1396 H 130.487 2.78387 3.67829 0
M  V30 1397 H 128.73 2.67292 3.41668 0
M  V30 1398 H 129.401 2.31549 5.01088 0
M  V30 1399 H 131.877 0.608905 4.11621 0
M  V30 1400 H 130.753 0.361265 5.4771 0
M  V30 1401 H 131.014 -0.935158 4.32096 0
M  V30 1402 N 130.073 -1.45103 0.615059 0
M  V30 1403 C 130.983 -2.34382 -0.101034 0
M  V30 1404 C 131.999 -1.51681 -0.852585 0
M  V30 1405 O 133.175 -1.8446 -0.808484 0
M  V30 1406 C 130.24 -3.29417 -1.08099 0
M  V30 1407 C 129.301 -4.28025 -0.330577 0
M  V30 1408 C 128.534 -5.1852 -1.26385 0
M  V30 1409 O 128.757 -5.12598 -2.50198 0
M  V30 1410 O 127.691 -5.97122 -0.756866 0
M  V30 1411 H 131.517 -2.97033 0.632855 0
M  V30 1412 H 129.102 -1.4461 0.375293 0
M  V30 1413 H 130.984 -3.87958 -1.6452 0
M  V30 1414 H 129.659 -2.69321 -1.79577 0
M  V30 1415 H 128.566 -3.73078 0.276283 0
M  V30 1416 H 129.899 -4.90997 0.343866 0
M  V30 1417 N 131.551 -0.354651 -1.53558 0
M  V30 1418 C 132.483 0.5315 -2.22952 0
M  V30 1419 C 133.496 1.05503 -1.23988 0
M  V30 1420 O 134.685 0.963279 -1.50277 0
M  V30 1421 C 131.785 1.74538 -2.90499 0
M  V30 1422 C 130.958 1.35524 -4.15875 0
M  V30 1423 C 130.017 2.42999 -4.66731 0
M  V30 1424 O 129.043 2.05844 -5.30676 0
M  V30 1425 N 130.245 3.74423 -4.43608 0
M  V30 1426 H 133.01 -0.0628615 -2.99634 0
M  V30 1427 H 130.571 -0.179302 -1.60904 0
M  V30 1428 H 132.563 2.45892 -3.21433 0
M  V30 1429 H 131.133 2.24686 -2.17336 0
M  V30 1430 H 130.353 0.471998 -3.91364 0
M  V30 1431 H 131.641 1.07071 -4.97406 0
M  V30 1432 H 131.039 4.07391 -3.92491 0
M  V30 1433 H 129.596 4.41913 -4.7912 0
M  V30 1434 N 133.029 1.57378 -0.0835403 0
M  V30 1435 C 133.976 2.13384 0.879539 0
M  V30 1436 C 134.946 1.04936 1.28754 0
M  V30 1437 O 136.131 1.32662 1.37133 0
M  V30 1438 C 133.271 2.70932 2.13752 0
M  V30 1439 C 132.384 3.93575 1.7811 0
M  V30 1440 C 131.519 4.39326 2.98607 0
M  V30 1441 C 130.558 5.54587 2.59037 0
M  V30 1442 N 129.695 5.95243 3.72331 0
M  V30 1443 H 134.535 2.9537 0.395076 0
M  V30 1444 H 132.072 1.45953 0.183349 0
M  V30 1445 H 134.03 3.02411 2.87408 0
M  V30 1446 H 132.66 1.91693 2.59718 0
M  V30 1447 H 131.712 3.68483 0.94469 0
M  V30 1448 H 133.024 4.77258 1.45005 0
M  V30 1449 H 132.178 4.72528 3.80529 0
M  V30 1450 H 130.917 3.5452 3.34913 0
M  V30 1451 H 129.922 5.21024 1.75539 0
M  V30 1452 H 131.147 6.41133 2.23887 0
M  V30 1453 H 129.093 5.13385 4.08378 0
M  V30 1454 H 129.01 6.73694 3.43034 0
M  V30 1455 H 130.278 6.33072 4.54797 0
M  V30 1456 N 134.507 -0.190092 1.56449 0
M  V30 1457 C 135.437 -1.23816 1.97969 0
M  V30 1458 C 136.418 -1.47201 0.852395 0
M  V30 1459 O 137.603 -1.58854 1.1171 0
M  V30 1460 C 134.733 -2.5813 2.3235 0
M  V30 1461 C 133.687 -2.49348 3.47864 0
M  V30 1462 C 133.013 -3.8798 3.67934 0
M  V30 1463 C 134.313 -2.01424 4.81898 0
M  V30 1464 H 136.007 -0.89311 2.85769 0
M  V30 1465 H 133.553 -0.428177 1.37487 0
M  V30 1466 H 135.506 -3.31637 2.59991 0
M  V30 1467 H 134.23 -2.94386 1.41438 0
M  V30 1468 H 132.889 -1.78297 3.20321 0
M  V30 1469 H 132.537 -4.21597 2.74344 0
M  V30 1470 H 132.237 -3.82978 4.45648 0
M  V30 1471 H 133.761 -4.63101 3.97957 0
M  V30 1472 H 135.175 -2.64693 5.08538 0
M  V30 1473 H 133.572 -2.07413 5.63116 0
M  V30 1474 H 134.642 -0.967677 4.75146 0
M  V30 1475 N 135.985 -1.50799 -0.457987 0
M  V30 1476 C 137.401 -1.38515 -0.792819 0
M  V30 1477 C 137.601 -0.451409 -1.96379 0
M  V30 1478 O 136.657 0.10112 -2.52297 0
M  V30 1479 C 137.97 -2.80149 -1.09258 0
M  V30 1480 C 139.518 -2.89156 -1.19825 0
M  V30 1481 C 139.993 -4.31651 -1.53106 0
M  V30 1482 N 141.484 -4.34662 -1.60072 0
M  V30 1483 C 142.219 -5.41928 -1.87354 0
M  V30 1484 N 141.715 -6.59384 -2.12568 0
M  V30 1485 N 143.508 -5.29385 -1.88965 0
M  V30 1486 H 135.659 -2.10073 0.313511 0
M  V30 1487 H 137.922 -0.944803 0.0777862 0
M  V30 1488 H 137.628 -3.50374 -0.305084 0
M  V30 1489 H 137.502 -3.18204 -2.02549 0
M  V30 1490 H 139.889 -2.19141 -1.97639 0
M  V30 1491 H 139.97 -2.54626 -0.244821 0
M  V30 1492 H 139.614 -5.02208 -0.758266 0
M  V30 1493 H 139.544 -4.63678 -2.49621 0
M  V30 1494 H 142.035 -3.49973 -1.42573 0
M  V30 1495 H 142.348 -7.36934 -2.32696 0
M  V30 1496 H 140.693 -6.62535 -2.09933 0
M  V30 1497 H 143.884 -4.36616 -1.68772 0
M  V30 1498 H 144.057 -6.13066 -2.09891 0
M  V30 1499 N 137.463 0.71206 -1.40597 0
M  V30 1500 C 138.709 1.47292 -1.40274 0
M  V30 1501 C 139.064 1.92399 -0.00576812 0
M  V30 1502 O 138.357 1.65507 0.965297 0
M  V30 1503 C 138.551 2.71039 -2.32965 0
M  V30 1504 C 138.38 2.38035 -3.81536 0
M  V30 1505 C 137.15 2.29203 -4.50327 0
M  V30 1506 C 139.348 2.02076 -4.72938 0
M  V30 1507 N 137.33 1.88911 -5.84111 0
M  V30 1508 C 138.701 1.72412 -5.95545 0
M  V30 1509 C 140.756 1.88742 -4.60739 0
M  V30 1510 C 139.459 1.30756 -7.07316 0
M  V30 1511 C 141.485 1.4849 -5.72455 0
M  V30 1512 C 140.847 1.19726 -6.94151 0
M  V30 1513 H 136.946 0.536919 -0.568544 0
M  V30 1514 H 139.53 0.825424 -1.76337 0
M  V30 1515 H 137.701 3.33533 -1.99023 0
M  V30 1516 H 139.433 3.37404 -2.23474 0
M  V30 1517 H 136.188 2.47059 -4.04053 0
M  V30 1518 H 136.612 1.71293 -6.54972 0
M  V30 1519 H 141.254 2.0964 -3.67166 0
M  V30 1520 H 138.972 1.08601 -8.00769 0
M  V30 1521 H 142.558 1.38747 -5.65014 0
M  V30 1522 H 141.438 0.890482 -7.79128 0
M  V30 1523 N 138.941 1.26152 0.944643 0
M  V30 1524 C 140.171 1.14094 1.72239 0
M  V30 1525 C 140.579 -0.306931 1.86694 0
M  V30 1526 O 139.922 -1.22222 1.3714 0
M  V30 1527 C 139.984 1.73316 3.14963 0
M  V30 1528 C 139.648 3.2239 3.23904 0
M  V30 1529 C 140.645 4.19252 3.07447 0
M  V30 1530 C 138.33 3.62788 3.47405 0
M  V30 1531 C 140.324 5.54491 3.14353 0
M  V30 1532 C 138.011 4.98162 3.53947 0
M  V30 1533 C 139.009 5.93823 3.37436 0
M  V30 1534 O 138.697 7.26732 3.43679 0
M  V30 1535 H 138.429 0.398292 0.546205 0
M  V30 1536 H 140.983 1.67201 1.19301 0
M  V30 1537 H 139.213 1.14667 3.69308 0
M  V30 1538 H 140.902 1.56214 3.74636 0
M  V30 1539 H 141.668 3.8938 2.8915 0
M  V30 1540 H 137.547 2.88816 3.59313 0
M  V30 1541 H 141.091 6.29137 3.01384 0
M  V30 1542 H 136.988 5.27695 3.71763 0
M  V30 1543 H 137.756 7.3496 3.60245 0
M  V30 1544 N 140.419 -1.14872 1.07899 0
M  V30 1545 C 141.666 -1.85789 0.805532 0
M  V30 1546 C 141.994 -1.82649 -0.668561 0
M  V30 1547 O 141.249 -1.24858 -1.50695 0
M  V30 1548 C 141.548 -3.34223 1.26609 0
M  V30 1549 C 141.214 -3.57555 2.74709 0
M  V30 1550 C 139.876 -3.63631 3.1516 0
M  V30 1551 C 142.228 -3.66803 3.70277 0
M  V30 1552 C 139.556 -3.76473 4.49983 0
M  V30 1553 C 141.908 -3.8117 5.04869 0
M  V30 1554 C 140.572 -3.85494 5.44932 0
M  V30 1555 H 139.842 -0.679849 0.294765 0
M  V30 1556 H 142.489 -1.3572 1.35101 0
M  V30 1557 H 140.794 -3.86536 0.640103 0
M  V30 1558 H 142.491 -3.87511 1.03132 0
M  V30 1559 H 139.081 -3.5347 2.42398 0
M  V30 1560 H 143.265 -3.61404 3.40149 0
M  V30 1561 H 138.521 -3.7808 4.80484 0
M  V30 1562 H 142.695 -3.87268 5.78789 0
M  V30 1563 H 140.322 -3.95197 6.49403 0
M  V30 1564 N 141.898 -0.863906 -1.31812 0
M  V30 1565 C 142.845 -0.313303 -2.28664 0
M  V30 1566 C 143.815 0.584868 -1.55462 0
M  V30 1567 O 145 0.517805 -1.83639 0
M  V30 1568 C 142.14 0.48441 -3.41683 0
M  V30 1569 C 141.253 -0.440594 -4.29747 0
M  V30 1570 C 140.388 0.370652 -5.29905 0
M  V30 1571 C 139.427 -0.551164 -6.09613 0
M  V30 1572 N 138.564 0.223462 -7.01744 0
M  V30 1573 H 143.404 -1.14444 -2.75148 0
M  V30 1574 H 140.941 -0.575769 -1.35364 0
M  V30 1575 H 142.899 0.962627 -4.05943 0
M  V30 1576 H 141.529 1.28029 -2.96325 0
M  V30 1577 H 140.581 -1.03724 -3.65986 0
M  V30 1578 H 141.893 -1.14767 -4.85417 0
M  V30 1579 H 141.047 0.911638 -5.99812 0
M  V30 1580 H 139.786 1.11105 -4.74876 0
M  V30 1581 H 138.791 -1.10396 -5.38603 0
M  V30 1582 H 140.016 -1.29032 -6.66729 0
M  V30 1583 H 137.962 0.946787 -6.49132 0
M  V30 1584 H 137.879 -0.424399 -7.54808 0
M  V30 1585 H 139.147 0.745876 -7.75923 0
M  V30 1586 N 143.376 1.44774 -0.622745 0
M  V30 1587 C 144.306 2.33382 0.0741861 0
M  V30 1588 C 145.287 1.47719 0.843387 0
M  V30 1589 O 146.472 1.76458 0.810934 0
M  V30 1590 C 143.602 3.30663 1.06204 0
M  V30 1591 C 142.556 4.26079 0.405037 0
M  V30 1592 C 141.882 5.13165 1.5022 0
M  V30 1593 C 143.182 5.1781 -0.683414 0
M  V30 1594 H 144.876 2.91905 -0.665713 0
M  V30 1595 H 142.422 1.40363 -0.321587 0
M  V30 1596 H 144.375 3.9153 1.55827 0
M  V30 1597 H 143.099 2.70331 1.83272 0
M  V30 1598 H 141.758 3.66532 -0.0704683 0
M  V30 1599 H 141.406 4.49191 2.26355 0
M  V30 1600 H 141.106 5.77812 1.06803 0
M  V30 1601 H 142.63 5.76902 2.00041 0
M  V30 1602 H 144.044 5.72661 -0.270631 0
M  V30 1603 H 142.441 5.91015 -1.04023 0
M  V30 1604 H 143.511 4.59326 -1.55395 0
M  V30 1605 N 144.854 0.36279 1.53368 0
M  V30 1606 C 146.084 -0.228281 2.05335 0
M  V30 1607 C 146.492 -1.43226 1.23625 0
M  V30 1608 O 145.835 -1.81717 0.269206 0
M  V30 1609 C 145.897 -0.688549 3.52845 0
M  V30 1610 C 145.561 0.398362 4.5526 0
M  V30 1611 C 146.558 1.24732 5.04716 0
M  V30 1612 C 144.243 0.557805 4.99193 0
M  V30 1613 C 146.237 2.2411 5.96702 0
M  V30 1614 C 143.924 1.55495 5.90986 0
M  V30 1615 C 144.922 2.39503 6.39631 0
M  V30 1616 O 144.61 3.37517 7.29615 0
M  V30 1617 H 144.342 -0.044395 0.674541 0
M  V30 1618 H 146.896 0.518668 1.98744 0
M  V30 1619 H 145.126 -1.48706 3.56964 0
M  V30 1620 H 146.815 -1.20231 3.87685 0
M  V30 1621 H 147.581 1.13532 4.71525 0
M  V30 1622 H 143.46 -0.0862959 4.60919 0
M  V30 1623 H 147.004 2.89718 6.34594 0
M  V30 1624 H 142.901 1.66744 6.23592 0
M  V30 1625 H 143.669 3.33213 7.47604 0
M  V30 1626 N 146.332 -1.57332 0.0918853 0
M  V30 1627 C 147.609 -1.85691 -0.614668 0
M  V30 1628 C 147.989 -0.988146 -1.86545 0
M  V30 1629 O 147.337 -0.0597055 -2.28422 0
M  V30 1630 C 147.547 -3.36294 -0.933126 0
M  V30 1631 C 148.895 -4.04275 -1.29796 0
M  V30 1632 O 149.919 -3.41157 -1.02424 0
M  V30 1633 O 148.778 -5.1564 -1.81047 0
M  V30 1634 H 145.872 -0.767802 -0.307261 0
M  V30 1635 H 148.418 -1.69244 0.12434 0
M  V30 1636 H 147.19 -3.91273 -0.0456404 0
M  V30 1637 H 146.813 -3.58076 -1.72822 0
M  V30 1638 N 147.81 0.181792 -1.56548 0
M  V30 1639 C 149.056 0.901431 -1.81665 0
M  V30 1640 C 149.389 1.82347 -0.668075 0
M  V30 1641 O 148.664 1.91669 0.330615 0
M  V30 1642 C 148.947 1.70618 -3.17115 0
M  V30 1643 C 148.8 0.807964 -4.42484 0
M  V30 1644 C 150.119 2.67605 -3.49393 0
M  V30 1645 H 147.238 0.32627 -0.660846 0
M  V30 1646 H 149.88 0.168134 -1.89255 0
M  V30 1647 H 148.03 2.33133 -3.10775 0
M  V30 1648 H 149.702 0.19649 -4.60881 0
M  V30 1649 H 147.945 0.115411 -4.33646 0
M  V30 1650 H 148.616 1.40632 -5.33785 0
M  V30 1651 H 151.092 2.15218 -3.56118 0
M  V30 1652 H 149.968 3.20985 -4.45264 0
M  V30 1653 H 150.229 3.47298 -2.73563 0
M  V30 1654 N 149.288 1.51039 0.449983 0
M  V30 1655 C 150.565 1.53612 1.21089 0
M  V30 1656 C 150.945 0.292997 2.09057 0
M  V30 1657 O 150.293 -0.72259 2.16774 0
M  V30 1658 C 150.503 2.84337 2.0237 0
M  V30 1659 C 151.851 3.35807 2.59843 0
M  V30 1660 O 152.875 2.85802 2.12593 0
M  V30 1661 O 151.734 4.23029 3.45989 0
M  V30 1662 H 148.828 0.617057 0.550608 0
M  V30 1663 H 151.374 1.63344 0.460082 0
M  V30 1664 H 150.146 3.66278 1.37681 0
M  V30 1665 H 149.769 2.77708 2.84542 0
M  V30 1666 N 150.766 -0.704594 1.40972 0
M  V30 1667 C 152.014 -1.46169 1.39568 0
M  V30 1668 C 152.335 -1.95 0.00253745 0
M  V30 1669 O 151.605 -1.71095 -0.954114 0
M  V30 1670 H 150.185 -0.542326 0.513704 0
M  V30 1671 H 152.847 -0.834553 1.76128 0
M  V30 1672 H 151.943 -2.32922 2.07735 0
M  V30 1673 N 152.244 -1.26651 -0.937939 0
M  V30 1674 C 153.192 -1.08308 -2.05845 0
M  V30 1675 C 154.186 -0.0090757 -1.69398 0
M  V30 1676 O 155.392 -0.166007 -1.79233 0
M  V30 1677 H 151.767 -0.333416 -0.674046 0
M  V30 1678 H 153.738 -2.03261 -2.18467 0
M  V30 1679 C 152.487 -0.736229 -3.39816 0
M  V30 1680 H 151.81 -1.55453 -3.6834 0
M  V30 1681 H 153.25 -0.64769 -4.19024 0
M  V30 1682 C 151.709 0.558824 -3.32233 0
M  V30 1683 O 152.239 1.59621 -3.68624 0
M  V30 1684 N 150.445 0.550657 -2.85335 0
M  V30 1685 H 149.992 -0.293943 -2.55917 0
M  V30 1686 H 149.95 1.41726 -2.80644 0
M  V30 1687 N 153.722 1.14298 -1.08507 0
M  V30 1688 C 154.97 1.84993 -0.813763 0
M  V30 1689 C 155.291 1.83405 0.662393 0
M  V30 1690 O 154.561 1.28319 1.48024 0
M  V30 1691 H 153.141 0.684966 -0.298045 0
M  V30 1692 H 155.803 1.385 -1.37126 0
M  V30 1693 H 154.899 2.89788 -1.15884 0
M  V30 1694 N 155.201 0.870884 1.31352 0
M  V30 1695 C 156.441 0.488783 1.9847 0
M  V30 1696 C 156.805 -0.941536 1.67329 0
M  V30 1697 O 158.006 -1.42903 2.27667 0
M  V30 1698 C 156.277 0.739688 3.49662 0
M  V30 1699 S 157.836 0.457582 4.36408 0
M  V30 1700 H 154.654 0.18242 0.6872 0
M  V30 1701 H 157.256 1.12711 1.59739 0
M  V30 1702 H 155.96 1.77944 3.69816 0
M  V30 1703 H 155.491 0.0883905 3.93301 0
M  V30 1704 H 157.506 -0.709752 4.91098 0
M  V30 1705 N 156.679 -1.44442 0.630414 0
M  V30 1706 C 157.928 -2.01267 0.132073 0
M  V30 1707 C 158.241 -1.50172 -1.25331 0
M  V30 1708 O 159.447 -1.9912 -1.84562 0
M  V30 1709 C 157.903 -3.59422 0.185362 0
M  V30 1710 C 157.511 -4.19514 1.57201 0
M  V30 1711 C 159.255 -4.23724 -0.256553 0
M  V30 1712 C 157.162 -5.69891 1.58045 0
M  V30 1713 H 156.092 -0.752619 0.0456092 0
M  V30 1714 H 158.743 -1.65666 0.789106 0
M  V30 1715 H 157.125 -3.92318 -0.538759 0
M  V30 1716 H 158.299 -3.98156 2.31966 0
M  V30 1717 H 156.614 -3.67496 1.95795 0
M  V30 1718 H 159.211 -5.34019 -0.269767 0
M  V30 1719 H 159.554 -3.96013 -1.28372 0
M  V30 1720 H 160.087 -3.95629 0.41505 0
M  V30 1721 H 156.826 -6.02336 2.58597 0
M  V30 1722 H 156.346 -5.93373 0.875725 0
M  V30 1723 H 158.025 -6.33515 1.31408 0
M  V30 1724 N 158.157 -0.370918 -1.53173 0
M  V30 1725 C 159.434 0.273754 -1.93675 0
M  V30 1726 C 159.814 1.65938 -1.3049 0
M  V30 1727 O 159.162 2.23698 -0.465999 0
M  V30 1728 C 159.372 0.318602 -3.47543 0
M  V30 1729 C 160.72 0.556392 -4.20939 0
M  V30 1730 O 161.744 0.399587 -3.53952 0
M  V30 1731 O 160.603 0.862133 -5.39657 0
M  V30 1732 H 157.697 0.165448 -0.810281 0
M  V30 1733 H 160.243 -0.42409 -1.64315 0
M  V30 1734 H 159.015 -0.652687 -3.85818 0
M  V30 1735 H 158.638 1.06212 -3.83151 0
M  V30 1736 N 159.635 1.57281 -0.100228 0
M  V30 1737 C 161.051 1.57527 0.256416 0
M  V30 1738 C 161.251 1.11173 1.68056 0
M  V30 1739 O 160.307 0.79053 2.39806 0
M  V30 1740 C 161.62 3.00673 0.0401747 0
M  V30 1741 C 163.168 3.12815 0.107528 0
M  V30 1742 C 163.643 4.57929 -0.0807834 0
M  V30 1743 N 165.134 4.63193 -0.0261207 0
M  V30 1744 C 165.869 5.73212 -0.146999 0
M  V30 1745 N 165.365 6.92047 -0.322999 0
M  V30 1746 N 167.158 5.62031 -0.0879044 0
M  V30 1747 H 159.309 1.85718 -1.03065 0
M  V30 1748 H 161.572 0.857446 -0.404339 0
M  V30 1749 H 161.278 3.38804 -0.943649 0
M  V30 1750 H 161.152 3.69042 0.780262 0
M  V30 1751 H 163.539 2.74554 1.08186 0
M  V30 1752 H 163.62 2.47028 -0.664134 0
M  V30 1753 H 163.264 4.96886 -1.05201 0
M  V30 1754 H 163.194 5.21783 0.710635 0
M  V30 1755 H 165.685 3.77748 0.107161 0
M  V30 1756 H 165.998 7.7173 -0.406608 0
M  V30 1757 H 164.343 6.94074 -0.358733 0
M  V30 1758 H 167.534 4.68075 0.048498 0
M  V30 1759 H 167.707 6.47734 -0.185557 0
M  V30 1760 N 161.113 -0.173488 1.56642 0
M  V30 1761 C 162.39 -0.917617 1.7274 0
M  V30 1762 C 162.77 -2.00484 0.661027 0
M  V30 1763 O 162.118 -2.26184 -0.32453 0
M  V30 1764 C 162.328 -1.48433 3.15862 0
M  V30 1765 C 163.676 -1.95809 3.76754 0
M  V30 1766 O 164.7 -1.58231 3.19126 0
M  V30 1767 O 163.559 -2.65024 4.77938 0
M  V30 1768 H 160.653 -0.431772 0.705338 0
M  V30 1769 H 163.199 -0.161487 1.6893 0
M  V30 1770 H 161.971 -0.701715 3.84957 0
M  V30 1771 H 161.594 -2.30471 3.23989 0
M  V30 1772 N 162.591 -1.51276 -0.441967 0
M  V30 1773 C 163.501 -1.75092 -1.56141 0
M  V30 1774 C 164.517 -0.634963 -1.62001 0
M  V30 1775 O 165.693 -0.916686 -1.79329 0
M  V30 1776 C 162.758 -1.86666 -2.92158 0
M  V30 1777 C 161.819 -3.10506 -2.96453 0
M  V30 1778 C 161.052 -3.21519 -4.25982 0
M  V30 1779 O 161.275 -2.38586 -5.18105 0
M  V30 1780 O 160.209 -4.14465 -4.36466 0
M  V30 1781 H 164.035 -2.70044 -1.38961 0
M  V30 1782 H 161.62 -1.35722 -0.624499 0
M  V30 1783 H 163.502 -1.96292 -3.72891 0
M  V30 1784 H 162.177 -0.949014 -3.09476 0
M  V30 1785 H 161.084 -3.06363 -2.14692 0
M  V30 1786 H 162.417 -4.01945 -2.84079 0
M  V30 1787 N 164.069 0.697108 -1.41344 0
M  V30 1788 C 164.999 1.82353 -1.45841 0
M  V30 1789 C 165.98 1.67115 -0.317247 0
M  V30 1790 O 167.165 1.86871 -0.528474 0
M  V30 1791 C 164.295 3.20476 -1.33838 0
M  V30 1792 C 163.249 3.50415 -2.4575 0
M  V30 1793 C 162.575 4.87878 -2.18813 0
M  V30 1794 C 163.875 3.49546 -3.88091 0
M  V30 1795 H 165.569 1.78846 -2.40113 0
M  V30 1796 H 163.115 0.859028 -1.15571 0
M  V30 1797 H 165.068 3.98988 -1.35596 0
M  V30 1798 H 163.792 3.24604 -0.360498 0
M  V30 1799 H 162.451 2.74253 -2.43271 0
M  V30 1800 H 162.099 4.8863 -1.19371 0
M  V30 1801 H 161.799 5.08875 -2.93803 0
M  V30 1802 H 163.323 5.68702 -2.22284 0
M  V30 1803 H 164.737 4.18066 -3.92293 0
M  V30 1804 H 163.134 3.82075 -4.62751 0
M  V30 1805 H 164.204 2.48552 -4.16353 0
M  V30 1806 N 165.547 1.27147 0.931209 0
M  V30 1807 C 166.477 1.12081 2.04842 0
M  V30 1808 C 167.458 0.0232364 1.70084 0
M  V30 1809 O 168.643 0.197085 1.93197 0
M  V30 1810 C 165.773 0.76354 3.38803 0
M  V30 1811 C 164.727 1.81396 3.87659 0
M  V30 1812 C 164.053 1.31075 5.18385 0
M  V30 1813 C 165.353 3.21739 4.11438 0
M  V30 1814 H 167.047 2.05537 2.17703 0
M  V30 1815 H 164.593 0.989603 1.04608 0
M  V30 1816 H 166.546 0.644982 4.16435 0
M  V30 1817 H 165.27 -0.206727 3.25945 0
M  V30 1818 H 163.929 1.92136 3.12217 0
M  V30 1819 H 163.577 0.330037 5.01916 0
M  V30 1820 H 163.277 2.013 5.52044 0
M  V30 1821 H 164.801 1.20506 5.98591 0
M  V30 1822 H 166.215 3.14019 4.79651 0
M  V30 1823 H 164.612 3.89644 4.56397 0
M  V30 1824 H 165.682 3.67054 3.16859 0
M  V30 1825 N 167.025 -1.13721 1.09112 0
M  V30 1826 C 168.253 -1.88773 0.846899 0
M  V30 1827 C 168.668 -1.7896 -0.601572 0
M  V30 1828 O 168.025 -1.15394 -1.41388 0
M  V30 1829 C 168.076 -3.3849 1.26913 0
M  V30 1830 O 167.797 -3.48043 2.66079 0
M  V30 1831 C 169.298 -4.30518 1.05682 0
M  V30 1832 H 166.518 -0.59772 0.304914 0
M  V30 1833 H 169.062 -1.43977 1.45227 0
M  V30 1834 H 167.217 -3.80881 0.707723 0
M  V30 1835 H 167.631 -4.4109 2.83795 0
M  V30 1836 H 169.105 -5.3391 1.40156 0
M  V30 1837 H 169.582 -4.392 -0.00563416 0
M  V30 1838 H 170.188 -3.93893 1.60402 0
M  V30 1839 N 168.503 -0.877838 -1.30888 0
M  V30 1840 C 169.752 -0.488793 -1.95688 0
M  V30 1841 C 170.065 0.965485 -1.70111 0
M  V30 1842 O 171.271 1.46104 -2.28836 0
M  V30 1843 C 169.727 -0.823201 -3.50359 0
M  V30 1844 C 169.335 -2.29477 -3.84765 0
M  V30 1845 C 171.079 -0.503009 -4.21509 0
M  V30 1846 C 168.986 -2.57118 -5.32583 0
M  V30 1847 H 167.916 -0.179062 -0.732429 0
M  V30 1848 H 170.567 -1.07183 -1.48943 0
M  V30 1849 H 168.949 -0.169331 -3.95638 0
M  V30 1850 H 170.123 -2.99236 -3.5042 0
M  V30 1851 H 168.438 -2.58178 -3.267 0
M  V30 1852 H 171.035 -0.68665 -5.30273 0
M  V30 1853 H 171.378 0.557109 -4.12555 0
M  V30 1854 H 171.911 -1.11376 -3.8189 0
M  V30 1855 H 168.65 -3.61843 -5.4658 0
M  V30 1856 H 168.17 -1.91961 -5.68253 0
M  V30 1857 H 169.849 -2.42251 -5.99936 0
M  V30 1858 N 169.982 1.44106 -0.638065 0
M  V30 1859 C 171.231 2.01194 -0.142744 0
M  V30 1860 C 171.544 1.50835 1.24532 0
M  V30 1861 O 172.75 2.00096 1.83504 0
M  V30 1862 C 171.206 3.59319 -0.20442 0
M  V30 1863 C 170.814 4.18674 -1.59423 0
M  V30 1864 C 172.558 4.23854 0.234079 0
M  V30 1865 C 170.465 5.69045 -1.61065 0
M  V30 1866 H 169.395 0.752367 -0.0495998 0
M  V30 1867 H 172.046 1.65246 -0.797881 0
M  V30 1868 H 170.428 3.92598 0.517946 0
M  V30 1869 H 171.602 3.96921 -2.34074 0
M  V30 1870 H 169.917 3.66453 -1.97741 0
M  V30 1871 H 172.514 5.34155 0.241443 0
M  V30 1872 H 172.857 3.96688 1.2627 0
M  V30 1873 H 173.39 3.95403 -0.436025 0
M  V30 1874 H 170.129 6.00956 -2.61787 0
M  V30 1875 H 169.649 5.929 -0.90718 0
M  V30 1876 H 171.328 6.32809 -1.34766 0
M  V30 1877 N 171.46 0.379036 1.52974 0
M  V30 1878 C 172.392 -0.495963 2.2377 0
M  V30 1879 C 173.405 -1.03517 1.25651 0
M  V30 1880 O 174.594 -0.939249 1.51791 0
M  V30 1881 C 171.694 -1.69894 2.93239 0
M  V30 1882 C 170.867 -1.2889 4.17979 0
M  V30 1883 C 169.926 -2.35543 4.70538 0
M  V30 1884 O 168.952 -1.97375 5.33883 0
M  V30 1885 N 170.154 -3.67318 4.49508 0
M  V30 1886 H 172.919 0.110523 2.99496 0
M  V30 1887 H 170.48 0.204878 1.60598 0
M  V30 1888 H 172.472 -2.40747 3.25304 0
M  V30 1889 H 171.042 -2.212 2.20883 0
M  V30 1890 H 170.262 -0.409676 3.92065 0
M  V30 1891 H 171.55 -0.991443 4.99047 0
M  V30 1892 H 170.948 -4.01095 3.98923 0
M  V30 1893 H 169.505 -4.34235 4.8609 0
M  V30 1894 N 172.938 -1.57226 0.108567 0
M  V30 1895 C 173.901 -2.13602 -0.831082 0
M  V30 1896 C 174.901 -1.06841 -1.20173 0
M  V30 1897 O 176.091 -1.32666 -1.12895 0
M  V30 1898 C 173.223 -2.66769 -2.12243 0
M  V30 1899 H 174.416 -2.97951 -0.341317 0
M  V30 1900 H 171.969 -1.55667 -0.14057 0
M  V30 1901 H 172.704 -1.85977 -2.65675 0
M  V30 1902 H 172.489 -3.44839 -1.86625 0
M  V30 1903 H 173.979 -3.10332 -2.79435 0
M  V30 1904 N 174.416 0.165178 -1.56732 0
M  V30 1905 C 175.665 0.879143 -1.81532 0
M  V30 1906 C 175.978 1.83144 -0.686842 0
M  V30 1907 O 177.184 2.58823 -0.819944 0
M  V30 1908 C 175.64 1.61388 -3.21686 0
M  V30 1909 C 175.248 0.704904 -4.4242 0
M  V30 1910 C 176.992 2.3157 -3.55774 0
M  V30 1911 C 174.899 1.44022 -5.73595 0
M  V30 1912 H 173.829 0.332033 -0.676957 0
M  V30 1913 H 176.48 0.132008 -1.83025 0
M  V30 1914 H 174.862 2.40599 -3.14529 0
M  V30 1915 H 176.036 -0.0506815 -4.60772 0
M  V30 1916 H 174.351 0.112419 -4.16248 0
M  V30 1917 H 176.948 2.8719 -4.51028 0
M  V30 1918 H 177.291 3.07201 -2.8095 0
M  V30 1919 H 177.824 1.59297 -3.64513 0
M  V30 1920 H 174.563 0.72612 -6.51466 0
M  V30 1921 H 174.083 2.16898 -5.5921 0
M  V30 1922 H 175.762 1.98606 -6.15764 0
M  V30 1923 N 175.894 1.51508 0.433938 0
M  V30 1924 C 177.31 1.39759 0.770682 0
M  V30 1925 C 177.51 0.482594 1.95636 0
M  V30 1926 O 176.566 -0.0609691 2.52426 0
M  V30 1927 C 177.879 2.81851 1.04787 0
M  V30 1928 C 179.427 2.91025 1.1521 0
M  V30 1929 C 179.902 4.34032 1.46219 0
M  V30 1930 N 181.393 4.37154 1.53136 0
M  V30 1931 C 182.128 5.4484 1.78709 0
M  V30 1932 N 181.624 6.62682 2.02051 0
M  V30 1933 N 183.417 5.32324 1.80519 0
M  V30 1934 H 175.568 2.09548 -0.346892 0
M  V30 1935 H 177.831 0.943446 -0.0928074 0
M  V30 1936 H 177.537 3.50815 0.249304 0
M  V30 1937 H 177.411 3.21386 1.97461 0
M  V30 1938 H 179.798 2.22257 1.94128 0
M  V30 1939 H 179.879 2.54983 0.204281 0
M  V30 1940 H 179.523 5.03351 0.678274 0
M  V30 1941 H 179.453 4.6759 2.42212 0
M  V30 1942 H 181.944 3.52197 1.36987 0
M  V30 1943 H 182.257 7.40543 2.20943 0
M  V30 1944 H 180.602 6.65791 1.99366 0
M  V30 1945 H 183.793 4.39246 1.61805 0
M  V30 1946 H 183.966 6.16328 2.00111 0
M  V30 1947 N 177.372 -0.689602 1.41712 0
M  V30 1948 C 178.335 -1.78521 1.43746 0
M  V30 1949 C 179.335 -1.57436 0.327191 0
M  V30 1950 O 180.525 -1.64 0.587348 0
M  V30 1951 C 177.657 -3.16971 1.25467 0
M  V30 1952 H 178.85 -1.78108 2.41283 0
M  V30 1953 H 176.403 -0.89781 1.27942 0
M  V30 1954 H 177.138 -3.23019 0.287948 0
M  V30 1955 H 176.923 -3.33678 2.05917 0
M  V30 1956 H 178.413 -3.96935 1.2974 0
M  V30 1957 N 178.85 -1.27639 -0.924453 0
M  V30 1958 C 180.099 -1.13549 -1.66702 0
M  V30 1959 C 180.412 0.317487 -1.93006 0
M  V30 1960 O 181.618 0.579333 -2.65247 0
M  V30 1961 C 180.074 -1.98426 -3.00259 0
M  V30 1962 C 179.682 -3.484 -2.81641 0
M  V30 1963 C 181.426 -1.92993 -3.78092 0
M  V30 1964 C 179.333 -4.25464 -4.10773 0
M  V30 1965 H 178.263 -0.421351 -0.625283 0
M  V30 1966 H 180.914 -1.52085 -1.02676 0
M  V30 1967 H 179.296 -1.52736 -3.6536 0
M  V30 1968 H 180.47 -4.01973 -2.25287 0
M  V30 1969 H 178.785 -3.55245 -2.17232 0
M  V30 1970 H 181.382 -2.47844 -4.7379 0
M  V30 1971 H 181.725 -0.904281 -4.0636 0
M  V30 1972 H 182.258 -2.36595 -3.19793 0
M  V30 1973 H 178.997 -5.28566 -3.87683 0
M  V30 1974 H 178.517 -3.76667 -4.66779 0
M  V30 1975 H 180.196 -4.34812 -4.79111 0
M  V30 1976 N 180.328 1.1314 -1.09713 0
M  V30 1977 C 181.276 2.20717 -0.733934 0
M  V30 1978 C 182.27 1.6729 0.266506 0
M  V30 1979 O 183.476 1.79547 0.127656 0
M  V30 1980 H 179.851 0.719292 -0.21937 0
M  V30 1981 H 181.822 2.48611 -1.6503 0
M  V30 1982 C 180.571 3.47265 -0.173849 0
M  V30 1983 H 179.894 3.88716 -0.934873 0
M  V30 1984 H 181.334 4.23979 0.0423126 0
M  V30 1985 C 179.793 3.18724 1.09164 0
M  V30 1986 O 180.323 3.37762 2.17439 0
M  V30 1987 N 178.529 2.72583 1.00732 0
M  V30 1988 H 178.076 2.57291 0.126121 0
M  V30 1989 H 178.034 2.53862 1.85476 0
M  V30 1990 N 181.806 0.884767 1.30421 0
M  V30 1991 C 183.217 0.553656 1.78302 0
M  V30 1992 C 183.568 -0.930153 1.7275 0
M  V30 1993 O 182.693 -1.72681 1.30423 0
M  V30 1994 C 183.288 0.998234 3.2376 0
M  V30 1995 C 181.847 0.71854 3.69478 0
M  V30 1996 C 180.994 1.18132 2.50879 0
M  V30 1997 H 183.945 1.06901 1.17294 0
M  V30 1998 H 183.966 0.327118 3.79091 0
M  V30 1999 H 183.478 2.0782 3.27769 0
M  V30 2000 H 181.579 -0.349444 3.70958 0
M  V30 2001 H 181.692 1.30595 4.60958 0
M  V30 2002 H 180.056 0.600669 2.47516 0
M  V30 2003 H 180.839 2.26902 2.57624 0
M  V30 2004 N 183.284 -1.43765 0.645699 0
M  V30 2005 C 184.524 -2.03776 0.159542 0
M  V30 2006 C 184.888 -1.49792 -1.2011 0
M  V30 2007 O 186.089 -2.01398 -1.78023 0
M  V30 2008 C 184.36 -3.57036 0.161251 0
M  V30 2009 S 185.919 -4.3804 -0.258159 0
M  V30 2010 H 182.737 -0.707717 0.0682454 0
M  V30 2011 H 185.339 -1.75941 0.852352 0
M  V30 2012 H 184.043 -3.9383 1.15439 0
M  V30 2013 H 183.574 -3.89503 -0.552339 0
M  V30 2014 H 185.589 -4.7302 -1.49889 0
M  V30 2015 N 184.763 -0.387143 -1.52771 0
M  V30 2016 C 185.988 0.198407 -2.06449 0
M  V30 2017 C 186.413 1.39918 -1.25716 0
M  V30 2018 O 185.771 1.79099 -0.281657 0
M  V30 2019 C 185.819 0.548893 -3.56398 0
M  V30 2020 O 184.923 1.64315 -3.78252 0
M  V30 2021 H 184.264 0.0237731 -0.663574 0
M  V30 2022 H 186.794 -0.553989 -1.96957 0
M  V30 2023 H 186.804 0.813812 -3.99801 0
M  V30 2024 H 185.479 -0.329005 -4.14597 0
M  V30 2025 H 184.056 1.37211 -3.46738 0
M  V30 2026 N 186.241 1.57166 -0.116904 0
M  V30 2027 C 187.518 1.86645 0.585049 0
M  V30 2028 C 187.898 1.0177 1.84949 0
M  V30 2029 O 187.246 0.0960379 2.28298 0
M  V30 2030 C 187.456 3.37736 0.879507 0
M  V30 2031 C 188.804 4.06289 1.23348 0
M  V30 2032 O 189.828 3.42743 0.969836 0
M  V30 2033 O 188.687 5.18455 1.7282 0
M  V30 2034 H 185.781 0.772593 0.295007 0
M  V30 2035 H 188.327 1.69025 -0.151249 0
M  V30 2036 H 187.099 3.91296 -0.0166136 0
M  V30 2037 H 186.722 3.6078 1.67103 0
M  V30 2038 N 187.719 -0.156864 1.56817 0
M  V30 2039 C 188.947 -0.886316 1.86955 0
M  V30 2040 C 189.362 -1.75185 0.703975 0
M  V30 2041 O 188.719 -1.79555 -0.326552 0
M  V30 2042 C 188.77 -1.75117 3.16253 0
M  V30 2043 O 188.491 -0.920537 4.2832 0
M  V30 2044 C 189.992 -2.58905 3.59837 0
M  V30 2045 H 187.212 -0.25678 0.619923 0
M  V30 2046 H 189.756 -0.152615 2.0393 0
M  V30 2047 H 187.911 -2.43805 3.01062 0
M  V30 2048 H 188.325 -1.51337 5.02192 0
M  V30 2049 H 189.799 -3.1518 4.53172 0
M  V30 2050 H 190.276 -3.34472 2.84649 0
M  V30 2051 H 190.882 -1.95526 3.7769 0
M  V30 2052 N 189.197 -1.51736 -0.425897 0
M  V30 2053 C 190.425 -1.68794 -1.1965 0
M  V30 2054 C 190.84 -0.390164 -1.84725 0
M  V30 2055 O 190.197 0.632376 -1.71194 0
M  V30 2056 C 190.248 -2.81174 -2.27208 0
M  V30 2057 O 189.969 -4.05925 -1.64793 0
M  V30 2058 C 191.47 -3.09599 -3.17275 0
M  V30 2059 H 188.69 -0.566128 -0.360194 0
M  V30 2060 H 191.234 -1.98211 -0.503249 0
M  V30 2061 H 189.389 -2.54324 -2.9223 0
M  V30 2062 H 189.803 -4.68423 -2.35967 0
M  V30 2063 H 191.277 -3.91786 -3.88854 0
M  V30 2064 H 191.754 -2.22468 -3.78688 0
M  V30 2065 H 192.36 -3.38151 -2.57941 0
M  V30 2066 N 190.675 0.682077 -1.42076 0
M  V30 2067 C 191.608 1.80666 -1.3941 0
M  V30 2068 C 192.586 1.60518 -0.25939 0
M  V30 2069 O 193.77 1.83088 -0.448456 0
M  V30 2070 C 190.897 3.17556 -1.17796 0
M  V30 2071 C 189.943 3.56468 -2.34164 0
M  V30 2072 S 190.776 3.59729 -3.96681 0
M  V30 2073 C 191.932 4.99323 -3.77395 0
M  V30 2074 H 192.165 1.82652 -2.34575 0
M  V30 2075 H 189.698 0.852062 -1.2876 0
M  V30 2076 H 191.656 3.96575 -1.06012 0
M  V30 2077 H 190.317 3.13164 -0.242279 0
M  V30 2078 H 189.51 4.5595 -2.1477 0
M  V30 2079 H 189.112 2.84792 -2.42425 0
M  V30 2080 H 191.404 5.87202 -3.37935 0
M  V30 2081 H 192.347 5.23763 -4.76527 0
M  V30 2082 H 192.755 4.71498 -3.10403 0
M  V30 2083 N 192.153 1.28127 0.917671 0
M  V30 2084 C 193.381 1.17892 1.70026 0
M  V30 2085 C 193.796 -0.262958 1.8696 0
M  V30 2086 O 193.153 -1.17811 1.3938 0
M  V30 2087 C 193.204 1.86872 3.09453 0
M  V30 2088 O 192.925 3.25428 2.93306 0
M  V30 2089 C 194.426 1.8289 4.03815 0
M  V30 2090 H 191.646 0.40942 0.531617 0
M  V30 2091 H 194.19 1.69181 1.14883 0
M  V30 2092 H 192.345 1.39464 3.61426 0
M  V30 2093 H 192.759 3.59918 3.81523 0
M  V30 2094 H 194.233 2.35751 4.99125 0
M  V30 2095 H 194.71 0.800412 4.31845 0
M  V30 2096 H 195.316 2.29959 3.57769 0
M  V30 2097 N 193.631 -1.12557 1.10312 0
M  V30 2098 C 194.594 -2.16434 0.75424 0
M  V30 2099 C 195.594 -1.59278 -0.220685 0
M  V30 2100 O 196.784 -1.742 0.00230591 0
M  V30 2101 C 193.916 -3.40699 0.116987 0
M  V30 2102 H 195.109 -2.48811 1.67431 0
M  V30 2103 H 192.662 -1.27542 0.903475 0
M  V30 2104 H 193.397 -3.13921 -0.813877 0
M  V30 2105 H 193.182 -3.83459 0.818613 0
M  V30 2106 H 194.672 -4.17451 -0.111387 0
M  V30 2107 N 195.109 -0.891671 -1.2995 0
M  V30 2108 C 196.019 -0.367691 -2.31701 0
M  V30 2109 C 197.035 0.533486 -1.6562 0
M  V30 2110 O 198.211 0.424997 -1.96865 0
M  V30 2111 C 195.276 0.403406 -3.44345 0
M  V30 2112 C 194.337 -0.528328 -4.26037 0
M  V30 2113 C 193.57 0.206063 -5.33302 0
M  V30 2114 O 193.793 1.43119 -5.52153 0
M  V30 2115 O 192.727 -0.447281 -6.00236 0
M  V30 2116 H 196.553 -1.21163 -2.78484 0
M  V30 2117 H 194.138 -0.655725 -1.34241 0
M  V30 2118 H 196.02 0.839753 -4.12948 0
M  V30 2119 H 194.695 1.22354 -2.99685 0
M  V30 2120 H 193.602 -1.01362 -3.60106 0
M  V30 2121 H 194.935 -1.31465 -4.74318 0
M  V30 2122 N 196.587 1.43421 -0.653314 0
M  V30 2123 C 197.497 2.34568 0.0388565 0
M  V30 2124 C 198.513 1.53888 0.81207 0
M  V30 2125 O 199.689 1.86539 0.759294 0
M  V30 2126 C 196.754 3.32167 0.993269 0
M  V30 2127 C 195.815 4.28751 0.216977 0
M  V30 2128 C 195.048 5.21688 1.12593 0
M  V30 2129 O 195.271 5.19052 2.36519 0
M  V30 2130 O 194.205 5.98919 0.598284 0
M  V30 2131 H 198.031 2.95251 -0.711386 0
M  V30 2132 H 195.616 1.43564 -0.413502 0
M  V30 2133 H 197.498 3.92183 1.54176 0
M  V30 2134 H 196.173 2.73987 1.72374 0
M  V30 2135 H 195.08 3.72215 -0.375101 0
M  V30 2136 H 196.413 4.89913 -0.473924 0
M  V30 2137 N 198.065 0.39524 1.52563 0
M  V30 2138 C 199.312 -0.185044 2.01653 0
M  V30 2139 C 199.64 -1.46317 1.28146 0
M  V30 2140 O 198.895 -1.9213 0.372074 0
M  V30 2141 C 199.194 -0.493444 3.53977 0
M  V30 2142 C 198.86 0.69384 4.4553 0
M  V30 2143 C 197.522 1.01954 4.70275 0
M  V30 2144 C 199.874 1.48785 4.99512 0
M  V30 2145 C 197.202 2.14069 5.46252 0
M  V30 2146 C 199.554 2.59965 5.76716 0
M  V30 2147 C 198.218 2.93037 5.99738 0
M  V30 2148 H 197.488 -0.0677123 0.7379 0
M  V30 2149 H 200.135 0.533807 1.8391 0
M  V30 2150 H 198.44 -1.29369 3.69825 0
M  V30 2151 H 200.137 -0.955163 3.89458 0
M  V30 2152 H 196.727 0.429987 4.26438 0
M  V30 2153 H 200.911 1.24946 4.80315 0
M  V30 2154 H 196.167 2.40056 5.62302 0
M  V30 2155 H 200.341 3.21887 6.17545 0
M  V30 2156 H 197.968 3.8003 6.58393 0
M  V30 2157 N 199.544 -1.57102 0.125237 0
M  V30 2158 C 200.772 -1.99761 -0.538797 0
M  V30 2159 C 201.187 -1.00503 -1.59827 0
M  V30 2160 O 200.544 0.00119474 -1.825 0
M  V30 2161 C 200.595 -3.42408 -1.15927 0
M  V30 2162 O 200.316 -4.37869 -0.142143 0
M  V30 2163 C 201.817 -4.00232 -1.90602 0
M  V30 2164 H 199.037 -0.655772 -0.14214 0
M  V30 2165 H 201.581 -2.03383 0.213413 0
M  V30 2166 H 199.736 -3.39706 -1.86223 0
M  V30 2167 H 200.15 -5.21128 -0.593775 0
M  V30 2168 H 201.624 -5.02105 -2.29335 0
M  V30 2169 H 202.101 -3.39721 -2.78363 0
M  V30 2170 H 202.707 -4.06499 -1.25055 0
M  V30 2171 N 201.022 0.148545 -1.56898 0
M  V30 2172 C 202.299 0.890019 -1.74178 0
M  V30 2173 C 202.679 1.99407 -0.692839 0
M  V30 2174 O 202.027 2.26671 0.288505 0
M  V30 2175 C 202.237 1.43389 -3.18183 0
M  V30 2176 C 203.585 1.89791 -3.79822 0
M  V30 2177 O 204.609 1.53134 -3.21603 0
M  V30 2178 O 203.468 2.57387 -4.82093 0
M  V30 2179 H 200.562 0.420496 -0.712118 0
M  V30 2180 H 203.108 0.134591 -1.69165 0
M  V30 2181 H 201.88 0.640383 -3.86024 0
M  V30 2182 H 201.503 2.25287 -3.27615 0
M  V30 2183 N 202.5 1.5196 0.417844 0
M  V30 2184 C 203.728 1.69426 1.18753 0
M  V30 2185 C 204.143 0.399955 1.84515 0
M  V30 2186 O 203.5 -0.623288 1.71527 0
M  V30 2187 C 203.551 2.82375 2.25714 0
M  V30 2188 O 203.272 4.06793 1.62638 0
M  V30 2189 C 204.773 3.11277 3.15628 0
M  V30 2190 H 201.993 0.568031 0.357186 0
M  V30 2191 H 204.537 1.98475 0.49273 0
M  V30 2192 H 202.692 2.5587 2.90877 0
M  V30 2193 H 203.106 4.69667 2.3348 0
M  V30 2194 H 204.58 3.93843 3.86771 0
M  V30 2195 H 205.057 2.24473 3.77503 0
M  V30 2196 H 205.663 3.39515 2.56144 0
M  V30 2197 N 203.978 -0.674533 1.42435 0
M  V30 2198 C 205.224 -1.43671 1.43131 0
M  V30 2199 C 205.557 -1.94142 0.0476021 0
M  V30 2200 O 204.832 -1.70924 -0.928188 0
M  V30 2201 C 205.115 -2.63355 2.45594 0
M  V30 2202 C 204.968 -2.18514 3.93156 0
M  V30 2203 C 206.287 -3.65571 2.45043 0
M  V30 2204 H 203.406 -0.521077 0.521198 0
M  V30 2205 H 206.048 -0.766551 1.7385 0
M  V30 2206 H 204.198 -3.2053 2.19528 0
M  V30 2207 H 205.87 -1.66504 4.30202 0
M  V30 2208 H 204.113 -1.50086 4.07009 0
M  V30 2209 H 204.784 -3.04484 4.60428 0
M  V30 2210 H 207.26 -3.18113 2.68223 0
M  V30 2211 H 206.136 -4.46893 3.18713 0
M  V30 2212 H 206.397 -4.16716 1.47649 0
M  V30 2213 N 205.456 -1.28612 -0.910864 0
M  V30 2214 C 206.703 -1.15934 -1.66029 0
M  V30 2215 C 207.031 0.291483 -1.92303 0
M  V30 2216 O 206.286 1.22816 -1.52364 0
M  V30 2217 C 206.585 -1.90624 -3.0232 0
M  V30 2218 C 206.251 -3.40405 -2.95695 0
M  V30 2219 C 204.913 -3.81255 -2.93595 0
M  V30 2220 C 207.265 -4.359 -2.85728 0
M  V30 2221 C 204.593 -5.15936 -2.79334 0
M  V30 2222 C 206.945 -5.70657 -2.73007 0
M  V30 2223 C 205.609 -6.10779 -2.69267 0
M  V30 2224 H 204.879 -0.424234 -0.607541 0
M  V30 2225 H 207.526 -1.5942 -1.06101 0
M  V30 2226 H 205.831 -1.39696 -3.6605 0
M  V30 2227 H 207.528 -1.78228 -3.59215 0
M  V30 2228 H 204.118 -3.07927 -2.98125 0
M  V30 2229 H 208.302 -4.053 -2.86436 0
M  V30 2230 H 203.558 -5.46146 -2.74835 0
M  V30 2231 H 207.732 -6.44311 -2.64264 0
M  V30 2232 H 205.359 -7.1509 -2.57974 0
M  V30 2233 N 206.934 1.1197 -1.10907 0
M  V30 2234 C 208.159 1.87942 -0.877064 0
M  V30 2235 C 208.584 1.79341 0.567314 0
M  V30 2236 O 207.942 1.15184 1.40009 0
M  V30 2237 C 207.99 3.34926 -1.33629 0
M  V30 2238 O 207.094 4.09303 -0.504447 0
M  V30 2239 H 206.435 0.583785 -0.316371 0
M  V30 2240 H 208.965 1.4157 -1.47712 0
M  V30 2241 H 208.975 3.8577 -1.32837 0
M  V30 2242 H 207.65 3.40504 -2.3881 0
M  V30 2243 H 206.227 3.68393 -0.577993 0
M  V30 2244 N 208.412 0.89855 1.29475 0
M  V30 2245 C 209.359 0.373819 2.27753 0
M  V30 2246 C 210.329 -0.543444 1.56958 0
M  V30 2247 O 211.514 -0.468934 1.84948 0
M  V30 2248 C 208.654 -0.393648 3.42848 0
M  V30 2249 C 207.767 0.554379 4.28428 0
M  V30 2250 C 206.902 -0.230026 5.30702 0
M  V30 2251 C 205.941 0.712599 6.07938 0
M  V30 2252 N 205.078 -0.0373283 7.0209 0
M  V30 2253 H 209.918 1.21699 2.72017 0
M  V30 2254 H 207.455 0.611456 1.33789 0
M  V30 2255 H 209.413 -0.85466 4.08352 0
M  V30 2256 H 208.043 -1.20128 2.99615 0
M  V30 2257 H 207.095 1.13391 3.63107 0
M  V30 2258 H 208.407 1.27597 4.82204 0
M  V30 2259 H 207.561 -0.752288 6.02018 0
M  V30 2260 H 206.3 -0.984758 4.77654 0
M  V30 2261 H 205.305 1.24637 5.35486 0
M  V30 2262 H 206.53 1.46664 6.63074 0
M  V30 2263 H 204.476 -0.774348 6.51414 0
M  V30 2264 H 204.393 0.624374 7.53417 0
M  V30 2265 H 205.661 -0.539891 7.77628 0
M  V30 2266 N 209.89 -1.43072 0.660911 0
M  V30 2267 C 211.139 -2.00942 0.174735 0
M  V30 2268 C 211.452 -1.52797 -1.22117 0
M  V30 2269 O 212.658 -2.02991 -1.80297 0
M  V30 2270 C 211.114 -3.58948 0.261559 0
M  V30 2271 C 210.722 -4.16085 1.66064 0
M  V30 2272 C 212.466 -4.24173 -0.166617 0
M  V30 2273 C 210.373 -5.6641 1.70098 0
M  V30 2274 H 209.303 -0.751483 0.0615631 0
M  V30 2275 H 211.954 -1.63955 0.824069 0
M  V30 2276 H 210.336 -3.93372 -0.455421 0
M  V30 2277 H 211.51 -3.93147 2.40359 0
M  V30 2278 H 209.825 -3.6326 2.03546 0
M  V30 2279 H 212.422 -5.34471 -0.156433 0
M  V30 2280 H 212.765 -3.98647 -1.19943 0
M  V30 2281 H 213.298 -3.94659 0.498875 0
M  V30 2282 H 210.037 -5.96715 2.71315 0
M  V30 2283 H 209.557 -5.91382 1.00139 0
M  V30 2284 H 211.236 -6.30585 1.44816 0
M  V30 2285 N 211.368 -0.403325 -1.52352 0
M  V30 2286 C 212.645 0.232611 -1.94212 0
M  V30 2287 C 213.025 1.63133 -1.33981 0
M  V30 2288 O 212.373 2.22659 -0.513344 0
M  V30 2289 C 212.583 0.244811 -3.4814 0
M  V30 2290 C 213.931 0.46698 -4.22024 0
M  V30 2291 O 214.955 0.324419 -3.5472 0
M  V30 2292 O 213.814 0.74747 -5.41364 0
M  V30 2293 H 210.908 0.148223 -0.813609 0
M  V30 2294 H 213.454 -0.458848 -1.63379 0
M  V30 2295 H 212.226 -0.734378 -3.84347 0
M  V30 2296 H 211.849 0.980611 -3.85318 0
M  V30 2297 N 212.846 1.57033 -0.133567 0
M  V30 2298 C 214.092 1.95976 0.521649 0
M  V30 2299 C 214.425 1.01779 1.65393 0
M  V30 2300 O 213.7 0.0576581 1.94415 0
M  V30 2301 C 213.983 3.44738 1.04057 0
M  V30 2302 C 213.836 4.49711 -0.0892897 0
M  V30 2303 C 215.155 3.95682 1.92675 0
M  V30 2304 H 212.274 0.712579 0.188149 0
M  V30 2305 H 214.916 1.88813 -0.212076 0
M  V30 2306 H 213.066 3.50973 1.66583 0
M  V30 2307 H 214.738 4.55565 -0.725152 0
M  V30 2308 H 212.981 4.27261 -0.750378 0
M  V30 2309 H 213.652 5.51099 0.315284 0
M  V30 2310 H 216.128 3.91841 1.39998 0
M  V30 2311 H 215.004 5.00262 2.25897 0
M  V30 2312 H 215.265 3.37239 2.85872 0
M  V30 2313 N 214.325 -0.140222 1.56975 0
M  V30 2314 C 215.273 -1.19207 1.99731 0
M  V30 2315 C 216.267 -1.44089 0.890777 0
M  V30 2316 O 217.473 -1.44301 1.07597 0
M  V30 2317 H 213.848 -0.40142 0.635898 0
M  V30 2318 H 215.819 -0.804813 2.87342 0
M  V30 2319 C 214.568 -2.51617 2.39967 0
M  V30 2320 H 213.891 -2.33303 3.24669 0
M  V30 2321 H 215.331 -3.23827 2.73701 0
M  V30 2322 C 213.79 -3.12654 1.25496 0
M  V30 2323 O 214.32 -3.97786 0.559371 0
M  V30 2324 N 212.526 -2.72206 1.01746 0
M  V30 2325 H 212.073 -2.03074 1.58489 0
M  V30 2326 H 212.031 -3.13377 0.253461 0
M  V30 2327 N 215.803 -1.52179 -0.40978 0
M  V30 2328 C 217.051 -1.65878 -1.15451 0
M  V30 2329 C 217.372 -0.390771 -1.91044 0
M  V30 2330 O 216.642 0.594323 -1.86667 0
M  V30 2331 H 215.222 -0.611405 -0.429177 0
M  V30 2332 H 217.884 -1.89219 -0.467134 0
M  V30 2333 H 216.98 -2.49954 -1.86894 0
M  V30 2334 N 217.281 0.66697 -1.42791 0
M  V30 2335 C 218.558 1.4234 -1.34159 0
M  V30 2336 C 218.938 2.11093 0.0172729 0
M  V30 2337 O 218.286 2.03808 1.03318 0
M  V30 2338 C 218.496 2.41942 -2.51526 0
M  V30 2339 C 219.844 3.06353 -2.93995 0
M  V30 2340 O 220.868 2.52269 -2.51473 0
M  V30 2341 O 219.727 4.04376 -3.67617 0
M  V30 2342 H 216.821 0.635277 -0.529483 0
M  V30 2343 H 219.367 0.695034 -1.54814 0
M  V30 2344 H 218.139 1.89991 -3.42081 0
M  V30 2345 H 217.762 3.22249 -2.32898 0
M  V30 2346 N 218.759 1.29093 0.90403 0
M  V30 2347 C 220.007 1.16583 1.65085 0
M  V30 2348 C 220.328 -0.283933 1.92922 0
M  V30 2349 O 219.598 -1.19509 1.55224 0
M  V30 2350 H 218.178 0.428467 0.611903 0
M  V30 2351 H 220.84 1.61959 1.08422 0
M  V30 2352 H 219.936 1.71266 2.6091 0
M  V30 2353 N 220.237 -1.11381 1.11499 0
M  V30 2354 C 221.147 -2.21019 0.786628 0
M  V30 2355 C 222.163 -1.72597 -0.220507 0
M  V30 2356 O 223.339 -2.01321 -0.0565251 0
M  V30 2357 C 220.404 -3.459 0.235333 0
M  V30 2358 C 219.465 -4.09107 1.30115 0
M  V30 2359 C 218.698 -5.28027 0.776068 0
M  V30 2360 O 218.921 -5.6904 -0.393661 0
M  V30 2361 O 217.855 -5.81835 1.54114 0
M  V30 2362 H 221.681 -2.51521 1.70209 0
M  V30 2363 H 219.266 -1.19928 0.890928 0
M  V30 2364 H 221.148 -4.21346 -0.067715 0
M  V30 2365 H 219.823 -3.17049 -0.652828 0
M  V30 2366 H 218.73 -3.35391 1.65722 0
M  V30 2367 H 220.063 -4.42139 2.16273 0
M  V30 2368 N 221.715 -0.905404 -1.28997 0
M  V30 2369 C 222.645 -0.404212 -2.29975 0
M  V30 2370 C 223.626 0.523784 -1.61835 0
M  V30 2371 O 224.811 0.433298 -1.89304 0
M  V30 2372 C 221.941 0.364042 -3.45387 0
M  V30 2373 C 220.895 -0.474048 -4.25367 0
M  V30 2374 C 220.221 0.422045 -5.33032 0
M  V30 2375 C 221.521 -1.72696 -4.92923 0
M  V30 2376 H 223.215 -1.24807 -2.72146 0
M  V30 2377 H 220.761 -0.601585 -1.30832 0
M  V30 2378 H 222.714 0.725447 -4.15109 0
M  V30 2379 H 221.438 1.24174 -3.02074 0
M  V30 2380 H 220.097 -0.81786 -3.57361 0
M  V30 2381 H 219.745 1.29804 -4.85963 0
M  V30 2382 H 219.445 -0.135057 -5.87445 0
M  V30 2383 H 220.969 0.779517 -6.05604 0
M  V30 2384 H 222.383 -1.43495 -5.55051 0
M  V30 2385 H 220.78 -2.22582 -5.57295 0
M  V30 2386 H 221.85 -2.45964 -4.17887 0
M  V30 2387 N 223.193 1.4272 -0.668489 0
M  V30 2388 C 224.418 2.06484 -0.194758 0
M  V30 2389 C 224.843 1.49862 1.13679 0
M  V30 2390 O 224.201 0.614582 1.70565 0
M  V30 2391 C 224.249 3.60353 -0.133546 0
M  V30 2392 O 223.353 4.02464 0.899806 0
M  V30 2393 H 222.694 0.656137 -0.10188 0
M  V30 2394 H 225.224 1.82964 -0.915722 0
M  V30 2395 H 225.234 4.07976 0.0447041 0
M  V30 2396 H 223.909 4.00938 -1.1055 0
M  V30 2397 H 222.486 3.66402 0.693109 0
M  V30 2398 N 224.671 0.411399 1.52136 0
M  V30 2399 C 225.601 -0.404015 2.29978 0
M  V30 2400 C 226.582 -1.04412 1.34284 0
M  V30 2401 O 227.767 -1.0527 1.63192 0
M  V30 2402 C 224.897 -1.5197 3.12286 0
M  V30 2403 C 223.851 -1.00448 4.16046 0
M  V30 2404 C 223.177 -2.21393 4.86712 0
M  V30 2405 C 224.477 -0.0569336 5.22269 0
M  V30 2406 H 226.171 0.245529 2.98392 0
M  V30 2407 H 223.717 0.119525 1.43503 0
M  V30 2408 H 225.67 -2.09715 3.6551 0
M  V30 2409 H 224.394 -2.19716 2.41646 0
M  V30 2410 H 223.053 -0.449421 3.63835 0
M  V30 2411 H 222.701 -2.87699 4.12599 0
M  V30 2412 H 222.401 -1.87571 5.56858 0
M  V30 2413 H 223.925 -2.7974 5.4275 0
M  V30 2414 H 225.339 -0.54325 5.7072 0
M  V30 2415 H 223.736 0.192594 5.99791 0
M  V30 2416 H 224.806 0.887663 4.76706 0
M  V30 2417 N 226.149 -1.5696 0.141893 0
M  V30 2418 C 227.059 -2.20066 -0.812905 0
M  V30 2419 C 228.075 -1.18344 -1.27557 0
M  V30 2420 O 229.251 -1.50902 -1.33381 0
M  V30 2421 C 226.316 -2.80583 -2.03652 0
M  V30 2422 C 225.377 -3.97414 -1.62359 0
M  V30 2423 C 224.61 -4.55036 -2.78887 0
M  V30 2424 O 224.833 -4.11538 -3.94959 0
M  V30 2425 O 223.767 -5.45376 -2.54653 0
M  V30 2426 H 227.593 -3.02157 -0.305746 0
M  V30 2427 H 225.178 -1.49159 -0.0848799 0
M  V30 2428 H 227.06 -3.19067 -2.75272 0
M  V30 2429 H 225.735 -2.01508 -2.5333 0
M  V30 2430 H 224.642 -3.63656 -0.877775 0
M  V30 2431 H 225.975 -4.77994 -1.17401 0
M  V30 2432 N 227.627 0.131896 -1.57047 0
M  V30 2433 C 228.537 1.1815 -2.02676 0
M  V30 2434 C 229.553 1.46113 -0.944824 0
M  V30 2435 O 230.729 1.57485 -1.25541 0
M  V30 2436 C 227.794 2.49139 -2.41103 0
M  V30 2437 C 226.855 2.28688 -3.63318 0
M  V30 2438 C 226.088 3.53431 -3.99903 0
M  V30 2439 O 226.311 4.60223 -3.36973 0
M  V30 2440 O 225.245 3.45198 -4.93074 0
M  V30 2441 H 229.071 0.824069 -2.92306 0
M  V30 2442 H 226.656 0.341745 -1.45439 0
M  V30 2443 H 228.538 3.26338 -2.66611 0
M  V30 2444 H 227.213 2.84382 -1.54624 0
M  V30 2445 H 226.12 1.4939 -3.42977 0
M  V30 2446 H 227.453 1.98355 -4.50462 0
M  V30 2447 N 229.106 1.52395 0.401703 0
M  V30 2448 C 230.353 1.66817 1.14796 0
M  V30 2449 C 230.681 0.401772 1.90305 0
M  V30 2450 O 229.936 -0.615487 1.85769 0
M  V30 2451 C 230.235 2.84578 2.16217 0
M  V30 2452 C 229.901 4.22513 1.5746 0
M  V30 2453 C 228.563 4.60029 1.41161 0
M  V30 2454 C 230.915 5.0844 1.14622 0
M  V30 2455 C 228.243 5.81144 0.80552 0
M  V30 2456 C 230.595 6.30167 0.55428 0
M  V30 2457 C 229.259 6.66426 0.378482 0
M  V30 2458 H 228.529 0.610428 0.420069 0
M  V30 2459 H 231.176 1.86512 0.434212 0
M  V30 2460 H 229.481 2.59248 2.93764 0
M  V30 2461 H 231.178 2.92933 2.73845 0
M  V30 2462 H 227.768 3.92953 1.71132 0
M  V30 2463 H 231.952 4.80034 1.26021 0
M  V30 2464 H 227.208 6.07855 0.657399 0
M  V30 2465 H 231.382 6.96071 0.213983 0
M  V30 2466 H 229.009 7.60143 -0.0932606 0
M  V30 2467 N 230.584 -0.659388 1.43143 0
M  V30 2468 C 231.833 -1.41518 1.43721 0
M  V30 2469 C 232.146 -1.95499 0.0628176 0
M  V30 2470 O 233.352 -2.71446 -0.0539683 0
M  V30 2471 C 231.808 -2.5608 2.52885 0
M  V30 2472 C 231.416 -2.08733 3.96402 0
M  V30 2473 C 233.16 -3.3349 2.62649 0
M  V30 2474 C 231.067 -3.20469 4.97045 0
M  V30 2475 H 229.997 -0.531705 0.534608 0
M  V30 2476 H 232.648 -0.712343 1.69109 0
M  V30 2477 H 231.03 -3.28805 2.20688 0
M  V30 2478 H 232.204 -1.43059 4.3803 0
M  V30 2479 H 230.519 -1.44219 3.90627 0
M  V30 2480 H 233.116 -4.16734 3.35017 0
M  V30 2481 H 233.459 -3.8111 1.67513 0
M  V30 2482 H 233.992 -2.67842 2.94118 0
M  V30 2483 H 230.731 -2.77824 5.93712 0
M  V30 2484 H 230.251 -3.84874 4.60034 0
M  V30 2485 H 231.93 -3.85698 5.19467 0
M  V30 2486 N 232.062 -1.29571 -0.897171 0
M  V30 2487 C 232.972 -1.16808 -2.03453 0
M  V30 2488 C 233.988 -0.0907471 -1.73763 0
M  V30 2489 O 235.164 -0.303312 -1.99103 0
M  V30 2490 C 232.229 -0.848264 -3.36163 0
M  V30 2491 C 231.29 -2.0097 -3.79354 0
M  V30 2492 C 230.523 -1.70505 -5.05731 0
M  V30 2493 O 230.746 -0.62718 -5.66941 0
M  V30 2494 O 229.68 -2.5538 -5.45036 0
M  V30 2495 H 233.506 -2.12325 -2.17144 0
M  V30 2496 H 231.091 -1.09047 -1.02123 0
M  V30 2497 H 232.973 -0.684581 -4.15802 0
M  V30 2498 H 231.648 0.0771071 -3.23608 0
M  V30 2499 H 230.555 -2.22863 -3.00471 0
M  V30 2500 H 231.888 -2.91636 -3.96496 0
M  V30 2501 N 233.54 1.10788 -1.12088 0
M  V30 2502 C 234.788 1.8231 -0.872205 0
M  V30 2503 C 235.109 1.85419 0.603709 0
M  V30 2504 O 234.379 1.32963 1.43867 0
M  V30 2505 H 232.959 0.675137 -0.319686 0
M  V30 2506 H 235.621 1.34068 -1.41463 0
M  V30 2507 H 234.717 2.85955 -1.25045 0
M  V30 2508 N 235.018 0.912232 1.28515 0
M  V30 2509 C 236.264 0.545405 1.95328 0
M  V30 2510 C 236.597 -0.908313 1.71649 0
M  V30 2511 O 235.872 -1.64575 1.03659 0
M  V30 2512 C 236.155 0.853483 3.4984 0
M  V30 2513 C 236.008 2.35982 3.82926 0
M  V30 2514 C 237.327 0.348589 4.38717 0
M  V30 2515 H 234.446 0.199626 0.709449 0
M  V30 2516 H 237.088 1.1412 1.5191 0
M  V30 2517 H 235.238 0.34643 3.86952 0
M  V30 2518 H 236.91 2.93738 3.55691 0
M  V30 2519 H 235.153 2.81543 3.30024 0
M  V30 2520 H 235.824 2.52593 4.90816 0
M  V30 2521 H 238.3 0.78294 4.08668 0
M  V30 2522 H 237.176 0.593242 5.45685 0
M  V30 2523 H 237.437 -0.751049 4.35674 0
M  V30 2524 N 236.496 -1.42363 0.676048 0
M  V30 2525 C 237.428 -2.29164 -0.0404605 0
M  V30 2526 C 238.441 -1.43747 -0.764245 0
M  V30 2527 O 239.63 -1.67453 -0.618195 0
M  V30 2528 C 236.73 -3.21196 -1.08103 0
M  V30 2529 C 235.903 -4.35273 -0.430812 0
M  V30 2530 C 234.962 -5.08017 -1.37133 0
M  V30 2531 O 233.988 -5.62494 -0.87116 0
M  V30 2532 N 235.19 -5.13647 -2.70456 0
M  V30 2533 H 237.955 -2.91298 0.704667 0
M  V30 2534 H 235.516 -1.53303 0.520559 0
M  V30 2535 H 237.508 -3.66728 -1.71152 0
M  V30 2536 H 236.078 -2.60505 -1.72788 0
M  V30 2537 H 235.298 -3.92372 0.379209 0
M  V30 2538 H 236.586 -5.08795 0.0221132 0
M  V30 2539 H 235.984 -4.708 -3.1363 0
M  V30 2540 H 234.541 -5.62821 -3.28749 0
M  V30 2541 N 237.974 -0.419461 -1.51915 0
M  V30 2542 C 238.921 0.400927 -2.27291 0
M  V30 2543 C 239.891 1.03224 -1.30131 0
M  V30 2544 O 241.076 1.05455 -1.59009 0
M  V30 2545 C 238.216 1.50603 -3.10504 0
M  V30 2546 C 237.329 0.89462 -4.22635 0
M  V30 2547 C 236.464 1.97328 -4.93189 0
M  V30 2548 C 235.503 1.33935 -5.97267 0
M  V30 2549 N 234.64 2.3586 -6.61298 0
M  V30 2550 H 239.48 -0.248251 -2.96964 0
M  V30 2551 H 237.017 -0.134266 -1.46486 0
M  V30 2552 H 238.975 2.15783 -3.57062 0
M  V30 2553 H 237.605 2.12509 -2.42981 0
M  V30 2554 H 236.657 0.131583 -3.80172 0
M  V30 2555 H 237.969 0.391641 -4.9726 0
M  V30 2556 H 237.123 2.70211 -5.43204 0
M  V30 2557 H 235.862 2.50994 -4.18155 0
M  V30 2558 H 234.867 0.595896 -5.46561 0
M  V30 2559 H 236.092 0.810252 -6.74249 0
M  V30 2560 H 234.038 2.88639 -5.89087 0
M  V30 2561 H 233.955 1.90403 -7.3163 0
M  V30 2562 H 235.223 3.08282 -7.15949 0
M  V30 2563 N 239.452 1.56882 -0.150215 0
M  V30 2564 C 240.729 1.87844 0.545327 0
M  V30 2565 C 241.109 1.0567 1.82749 0
M  V30 2566 O 240.457 0.144442 2.28043 0
M  V30 2567 C 240.667 3.39526 0.80767 0
M  V30 2568 C 242.015 4.08814 1.14703 0
M  V30 2569 O 243.039 3.44723 0.896917 0
M  V30 2570 O 241.898 5.22004 1.61784 0
M  V30 2571 H 238.992 0.778677 0.278553 0
M  V30 2572 H 241.538 1.68666 -0.187068 0
M  V30 2573 H 240.31 3.91173 -0.0996096 0
M  V30 2574 H 239.933 3.64243 1.59413 0
M  V30 2575 N 240.93 -0.123565 1.57115 0
M  V30 2576 C 241.862 -1.17739 1.96648 0
M  V30 2577 C 242.875 -1.37906 0.865201 0
M  V30 2578 O 244.064 -1.37062 1.14351 0
M  V30 2579 C 241.164 -2.53821 2.24562 0
M  V30 2580 C 240.337 -2.54317 3.55867 0
M  V30 2581 C 239.396 -3.72112 3.72047 0
M  V30 2582 O 238.422 -3.55907 4.44206 0
M  V30 2583 N 239.624 -4.90498 3.10471 0
M  V30 2584 H 242.389 -0.841147 2.87654 0
M  V30 2585 H 239.95 -0.31289 1.58848 0
M  V30 2586 H 241.942 -3.31175 2.32606 0
M  V30 2587 H 240.512 -2.79645 1.39705 0
M  V30 2588 H 239.732 -1.62711 3.59053 0
M  V30 2589 H 241.02 -2.51701 4.42181 0
M  V30 2590 H 240.418 -5.06567 2.51806 0
M  V30 2591 H 238.975 -5.65544 3.24043 0
M  V30 2592 N 242.408 -1.52605 -0.393616 0
M  V30 2593 C 243.341 -1.71798 -1.50202 0
M  V30 2594 C 244.319 -0.565743 -1.52441 0
M  V30 2595 O 245.503 -0.794987 -1.70916 0
M  V30 2596 C 242.63 -1.7714 -2.88685 0
M  V30 2597 C 241.676 -2.98845 -3.04292 0
M  V30 2598 S 242.509 -4.58909 -2.75976 0
M  V30 2599 C 243.665 -4.6706 -4.1666 0
M  V30 2600 H 243.898 -2.65542 -1.33696 0
M  V30 2601 H 241.431 -1.42839 -0.586195 0
M  V30 2602 H 243.389 -1.80903 -3.68489 0
M  V30 2603 H 242.05 -0.844969 -3.02521 0
M  V30 2604 H 241.243 -2.99111 -4.05646 0
M  V30 2605 H 240.845 -2.9305 -2.32374 0
M  V30 2606 H 243.137 -4.45391 -5.10523 0
M  V30 2607 H 244.08 -5.6905 -4.21412 0
M  V30 2608 H 244.488 -3.95944 -4.02354 0
M  V30 2609 N 243.887 0.651787 -1.4349 0
M  V30 2610 C 244.817 1.77621 -1.51569 0
M  V30 2611 C 245.798 1.66022 -0.370253 0
M  V30 2612 O 246.983 1.85095 -0.587658 0
M  V30 2613 C 244.113 3.16056 -1.43966 0
M  V30 2614 C 243.067 3.4242 -2.56774 0
M  V30 2615 C 242.393 4.8067 -2.34223 0
M  V30 2616 C 243.693 3.37023 -3.99015 0
M  V30 2617 H 245.387 1.71117 -2.45681 0
M  V30 2618 H 242.933 0.821825 -1.18246 0
M  V30 2619 H 244.886 3.94472 -1.48221 0
M  V30 2620 H 243.61 3.23293 -0.463586 0
M  V30 2621 H 242.269 2.66375 -2.51873 0
M  V30 2622 H 241.917 4.84585 -1.34856 0
M  V30 2623 H 241.617 4.9927 -3.09844 0
M  V30 2624 H 243.141 5.61342 -2.40265 0
M  V30 2625 H 244.555 4.05374 -4.05395 0
M  V30 2626 H 242.952 3.67159 -4.74673 0
M  V30 2627 H 244.022 2.3518 -4.2405 0
M  V30 2628 N 245.365 1.30045 0.890287 0
M  V30 2629 C 246.295 1.18541 2.01172 0
M  V30 2630 C 247.276 0.0773356 1.69924 0
M  V30 2631 O 248.461 0.25845 1.92473 0
M  V30 2632 C 245.591 0.870941 3.36202 0
M  V30 2633 C 244.545 1.93637 3.81692 0
M  V30 2634 C 243.871 1.475 5.13953 0
M  V30 2635 C 245.171 3.34666 4.00994 0
M  V30 2636 H 246.865 2.12359 2.11054 0
M  V30 2637 H 244.411 1.02238 1.01407 0
M  V30 2638 H 246.364 0.777141 4.14172 0
M  V30 2639 H 245.088 -0.102926 3.26438 0
M  V30 2640 H 243.747 2.01972 3.05946 0
M  V30 2641 H 243.395 0.489551 5.00612 0
M  V30 2642 H 243.095 2.1876 5.4536 0
M  V30 2643 H 244.619 1.39489 5.94454 0
M  V30 2644 H 246.033 3.2912 4.69417 0
M  V30 2645 H 244.43 4.03966 4.43769 0
M  V30 2646 H 245.5 3.76949 3.05021 0
M  V30 2647 N 246.843 -1.10192 1.12674 0
M  V30 2648 C 248.12 -1.78717 0.794965 0
M  V30 2649 C 248.5 -1.98628 -0.714853 0
M  V30 2650 O 247.848 -1.58135 -1.64941 0
M  V30 2651 C 248.058 -3.11546 1.5729 0
M  V30 2652 C 249.406 -3.86382 1.76052 0
M  V30 2653 O 250.43 -3.21274 1.53823 0
M  V30 2654 O 249.289 -5.03246 2.13087 0
M  V30 2655 H 246.383 -0.774702 0.289423 0
M  V30 2656 H 248.929 -1.16819 1.23091 0
M  V30 2657 H 247.701 -2.92489 2.59935 0
M  V30 2658 H 247.324 -3.81164 1.13137 0
M  V30 2659 N 248.321 -0.919034 -1.28029 0
M  V30 2660 C 249.549 -0.570971 -1.98866 0
M  V30 2661 C 249.964 0.848996 -1.68634 0
M  V30 2662 O 249.321 1.56307 -0.942036 0
M  V30 2663 C 249.372 -0.776876 -3.53054 0
M  V30 2664 O 249.093 -2.14097 -3.82222 0
M  V30 2665 C 250.594 -0.436356 -4.41147 0
M  V30 2666 H 247.814 -0.217175 -0.634883 0
M  V30 2667 H 250.358 -1.23368 -1.63097 0
M  V30 2668 H 248.513 -0.161085 -3.87065 0
M  V30 2669 H 248.927 -2.18455 -4.76841 0
M  V30 2670 H 250.401 -0.63117 -5.4838 0
M  V30 2671 H 250.878 0.627686 -4.34692 0
M  V30 2672 H 251.484 -1.02991 -4.12641 0
M  V30 2673 N 249.799 1.42003 -0.683588 0
M  V30 2674 C 250.729 2.33487 -0.024866 0
M  V30 2675 C 251.71 1.51163 0.779975 0
M  V30 2676 O 252.895 1.79739 0.735362 0
M  V30 2677 C 250.025 3.3487 0.920836 0
M  V30 2678 C 248.979 4.27414 0.223958 0
M  V30 2679 C 248.305 5.19074 1.2832 0
M  V30 2680 C 249.605 5.14445 -0.90242 0
M  V30 2681 H 251.299 2.88819 -0.788921 0
M  V30 2682 H 248.845 1.38873 -0.38083 0
M  V30 2683 H 250.798 3.97787 1.39081 0
M  V30 2684 H 249.522 2.77861 1.71642 0
M  V30 2685 H 248.181 3.65904 -0.225864 0
M  V30 2686 H 247.829 4.58387 2.071 0
M  V30 2687 H 247.529 5.81822 0.821995 0
M  V30 2688 H 249.053 5.84867 1.75392 0
M  V30 2689 H 250.467 5.70998 -0.513272 0
M  V30 2690 H 248.864 5.86072 -1.28997 0
M  V30 2691 H 249.934 4.52322 -1.74737 0
M  V30 2692 N 251.277 0.427512 1.51691 0
M  V30 2693 C 252.505 -0.141191 2.06418 0
M  V30 2694 C 252.92 -1.37303 1.29589 0
M  V30 2695 O 252.277 -1.79059 0.352732 0
M  V30 2696 C 252.328 -0.473266 3.58389 0
M  V30 2697 O 252.049 0.709673 4.32314 0
M  V30 2698 C 253.55 -1.09371 4.29596 0
M  V30 2699 H 250.77 -0.0122747 0.670888 0
M  V30 2700 H 253.314 0.603764 1.95384 0
M  V30 2701 H 251.469 -1.16812 3.69369 0
M  V30 2702 H 251.883 0.42807 5.2275 0
M  V30 2703 H 253.357 -1.27613 5.37046 0
M  V30 2704 H 253.834 -2.072 3.87253 0
M  V30 2705 H 254.44 -0.43853 4.23033 0
M  V30 2706 N 252.755 -1.56801 0.158532 0
M  V30 2707 C 254.171 -1.5837 -0.197774 0
M  V30 2708 C 254.371 -1.17334 -1.63814 0
M  V30 2709 O 253.427 -0.878988 -2.36707 0
M  V30 2710 C 254.74 -3.00615 0.0714459 0
M  V30 2711 C 256.288 -3.12999 0.00864533 0
M  V30 2712 C 256.763 -4.57313 0.250685 0
M  V30 2713 N 258.254 -4.62777 0.198014 0
M  V30 2714 C 258.989 -5.72271 0.359642 0
M  V30 2715 N 258.485 -6.90371 0.579625 0
M  V30 2716 N 260.278 -5.61318 0.296438 0
M  V30 2717 H 252.429 -1.81765 1.09887 0
M  V30 2718 H 254.692 -0.841849 0.435884 0
M  V30 2719 H 254.398 -3.35068 1.06874 0
M  V30 2720 H 254.272 -3.71683 -0.642757 0
M  V30 2721 H 256.659 -2.7838 -0.979217 0
M  V30 2722 H 256.74 -2.44393 0.755359 0
M  V30 2723 H 256.384 -4.92639 1.2357 0
M  V30 2724 H 256.314 -5.24061 -0.516489 0
M  V30 2725 H 258.805 -3.77885 0.0331115 0
M  V30 2726 H 259.118 -7.69689 0.69275 0
M  V30 2727 H 257.463 -6.92264 0.616087 0
M  V30 2728 H 260.654 -4.67932 0.125258 0
M  V30 2729 H 260.827 -6.46599 0.425831 0
M  V30 2730 N 254.233 0.115231 -1.57178 0
M  V30 2731 C 255.458 0.840354 -1.89612 0
M  V30 2732 C 255.883 1.72464 -0.750845 0
M  V30 2733 O 255.241 1.78826 0.298478 0
M  V30 2734 C 255.289 1.64654 -3.20814 0
M  V30 2735 O 254.393 2.7538 -3.06985 0
M  V30 2736 H 253.734 0.232158 -0.622092 0
M  V30 2737 H 256.264 0.0964977 -2.04372 0
M  V30 2738 H 256.274 2.03499 -3.53627 0
M  V30 2739 H 254.949 0.997416 -4.03763 0
M  V30 2740 H 253.526 2.3971 -2.85646 0
M  V30 2741 N 255.711 1.52812 0.385517 0
M  V30 2742 C 256.641 1.80808 1.47752 0
M  V30 2743 C 257.622 0.660318 1.5676 0
M  V30 2744 O 258.807 0.908246 1.71652 0
M  V30 2745 C 255.937 1.98008 2.85324 0
M  V30 2746 C 254.891 3.13709 2.91154 0
M  V30 2747 C 254.217 3.16169 4.31209 0
M  V30 2748 C 255.517 4.52709 2.60483 0
M  V30 2749 H 257.211 2.72253 1.24573 0
M  V30 2750 H 254.757 1.31003 0.597839 0
M  V30 2751 H 256.71 2.16176 3.61726 0
M  V30 2752 H 255.434 1.03255 3.09848 0
M  V30 2753 H 254.093 2.95329 2.17201 0
M  V30 2754 H 253.741 2.19092 4.52778 0
M  V30 2755 H 253.441 3.93894 4.36029 0
M  V30 2756 H 254.965 3.36496 5.09512 0
M  V30 2757 H 256.379 4.71173 3.26602 0
M  V30 2758 H 254.776 5.32528 2.76648 0
M  V30 2759 H 255.846 4.59186 1.55809 0
M  V30 2760 N 257.189 -0.644168 1.43834 0
M  V30 2761 C 258.466 -1.40188 1.36406 0
M  V30 2762 C 258.846 -2.11094 0.0163124 0
M  V30 2763 O 258.194 -2.05426 -1.00062 0
M  V30 2764 C 258.404 -2.3791 2.55343 0
M  V30 2765 C 259.752 -3.01637 2.98832 0
M  V30 2766 O 260.776 -2.48237 2.55455 0
M  V30 2767 O 259.635 -3.98477 3.74003 0
M  V30 2768 H 256.729 -0.626773 0.539523 0
M  V30 2769 H 259.275 -0.670317 1.559 0
M  V30 2770 H 258.047 -1.84525 3.4506 0
M  V30 2771 H 257.67 -3.18503 2.37995 0
M  V30 2772 N 258.668 -1.30515 -0.883378 0
M  V30 2773 C 259.598 -1.19607 -2.00541 0
M  V30 2774 C 260.579 -0.086346 -1.69881 0
M  V30 2775 O 261.764 -0.268654 -1.92333 0
M  V30 2776 C 258.894 -0.888758 -3.35736 0
M  V30 2777 C 257.848 -1.95659 -3.8066 0
M  V30 2778 C 257.174 -1.50224 -5.13164 0
M  V30 2779 C 258.474 -3.36788 -3.99213 0
M  V30 2780 H 260.168 -2.13476 -2.09925 0
M  V30 2781 H 257.714 -1.02775 -1.00863 0
M  V30 2782 H 259.667 -0.799094 -4.13754 0
M  V30 2783 H 258.391 0.0856125 -3.26488 0
M  V30 2784 H 257.05 -2.03591 -3.04871 0
M  V30 2785 H 256.698 -0.516092 -5.00345 0
M  V30 2786 H 256.398 -2.2165 -5.44192 0
M  V30 2787 H 257.922 -1.42639 -5.93706 0
M  V30 2788 H 259.336 -3.31605 -4.67665 0
M  V30 2789 H 257.733 -4.06314 -4.41621 0
M  V30 2790 H 258.803 -3.78561 -3.03017 0
M  V30 2791 N 260.146 1.09593 -1.13257 0
M  V30 2792 C 261.374 1.855 -0.916378 0
M  V30 2793 C 261.789 1.81069 0.534738 0
M  V30 2794 O 261.146 1.20562 1.37007 0
M  V30 2795 C 261.197 3.33546 -1.39388 0
M  V30 2796 O 260.918 3.37927 -2.78813 0
M  V30 2797 C 262.419 4.26299 -1.21588 0
M  V30 2798 H 259.639 0.585991 -0.326887 0
M  V30 2799 H 262.183 1.38488 -1.5047 0
M  V30 2800 H 260.338 3.77992 -0.848597 0
M  V30 2801 H 260.752 4.30254 -2.9997 0
M  V30 2802 H 262.226 5.28341 -1.59876 0
M  V30 2803 H 262.703 4.38918 -0.157376 0
M  V30 2804 H 263.309 3.87668 -1.7491 0
M  V30 2805 N 261.624 0.925811 1.2754 0
M  V30 2806 C 263.04 0.625767 1.46821 0
M  V30 2807 C 263.24 -0.825506 1.83814 0
M  V30 2808 O 262.296 -1.60356 1.95044 0
M  V30 2809 C 263.609 1.57402 2.56213 0
M  V30 2810 C 265.157 1.58204 2.70075 0
M  V30 2811 C 265.632 2.51721 3.82623 0
M  V30 2812 N 267.123 2.49917 3.89994 0
M  V30 2813 C 267.858 3.18968 4.76494 0
M  V30 2814 N 267.354 3.97391 5.67496 0
M  V30 2815 N 269.147 3.07996 4.70208 0
M  V30 2816 H 261.298 1.86409 1.01811 0
M  V30 2817 H 263.561 0.800213 0.508295 0
M  V30 2818 H 263.267 2.60925 2.35819 0
M  V30 2819 H 263.141 1.31428 3.53563 0
M  V30 2820 H 265.528 0.554124 2.89851 0
M  V30 2821 H 265.609 1.88226 1.73218 0
M  V30 2822 H 265.253 3.54622 3.63601 0
M  V30 2823 H 265.183 2.18996 4.78903 0
M  V30 2824 H 267.674 1.9296 3.24923 0
M  V30 2825 H 267.987 4.4707 6.30356 0
M  V30 2826 H 266.332 4.01495 5.67298 0
M  V30 2827 H 269.523 2.46223 3.9811 0
M  V30 2828 H 269.696 3.6208 5.37403 0
M  V30 2829 N 263.102 -1.41638 0.69111 0
M  V30 2830 C 264.351 -2.00526 0.217318 0
M  V30 2831 C 264.664 -1.55353 -1.18848 0
M  V30 2832 O 265.87 -2.06769 -1.75951 0
M  V30 2833 C 264.326 -3.58313 0.337639 0
M  V30 2834 C 263.934 -4.12469 1.74852 0
M  V30 2835 C 265.678 -4.24431 -0.0766066 0
M  V30 2836 C 263.585 -5.62675 1.82074 0
M  V30 2837 H 262.515 -0.750008 0.0774893 0
M  V30 2838 H 265.166 -1.6217 0.858661 0
M  V30 2839 H 263.548 -3.9425 -0.371879 0
M  V30 2840 H 264.722 -3.8796 2.48644 0
M  V30 2841 H 263.037 -3.58861 2.11205 0
M  V30 2842 H 265.634 -5.34683 -0.0430284 0
M  V30 2843 H 265.977 -4.01101 -1.1146 0
M  V30 2844 H 266.51 -3.93512 0.582476 0
M  V30 2845 H 263.249 -5.90826 2.83911 0
M  V30 2846 H 262.769 -5.89124 1.12661 0
M  V30 2847 H 264.448 -6.27371 1.58159 0
M  V30 2848 N 264.58 -0.43555 -1.51462 0
M  V30 2849 C 265.826 0.131709 -2.02372 0
M  V30 2850 C 266.159 1.42516 -1.3192 0
M  V30 2851 O 265.434 1.89606 -0.433573 0
M  V30 2852 C 265.717 0.352301 -3.58373 0
M  V30 2853 C 265.57 -0.959676 -4.39443 0
M  V30 2854 C 266.889 1.12286 -4.25535 0
M  V30 2855 H 264.008 0.0463936 -0.735538 0
M  V30 2856 H 266.65 -0.574197 -1.81116 0
M  V30 2857 H 264.8 0.9536 -3.76615 0
M  V30 2858 H 266.472 -1.59482 -4.32855 0
M  V30 2859 H 264.715 -1.56468 -4.04599 0
M  V30 2860 H 265.386 -0.759394 -5.46752 0
M  V30 2861 H 267.862 0.613545 -4.11552 0
M  V30 2862 H 266.738 1.24598 -5.34571 0
M  V30 2863 H 266.999 2.15048 -3.86273 0
M  V30 2864 N 266.058 1.56714 -0.166846 0
M  V30 2865 C 267.474 1.58473 0.189372 0
M  V30 2866 C 267.674 1.18201 1.63189 0
M  V30 2867 O 266.73 0.891528 2.36237 0
M  V30 2868 C 268.043 3.00573 -0.0873872 0
M  V30 2869 C 269.591 3.1299 -0.0252443 0
M  V30 2870 C 270.066 4.57174 -0.274934 0
M  V30 2871 N 271.557 4.62665 -0.222553 0
M  V30 2872 C 272.292 5.72072 -0.389985 0
M  V30 2873 N 271.788 6.90054 -0.616229 0
M  V30 2874 N 273.581 5.61153 -0.326202 0
M  V30 2875 H 265.732 1.8118 -1.10849 0
M  V30 2876 H 267.995 0.839525 -0.440342 0
M  V30 2877 H 267.701 3.34497 -1.0865 0
M  V30 2878 H 267.575 3.72019 0.623037 0
M  V30 2879 H 269.962 2.78895 0.96444 0
M  V30 2880 H 270.043 2.43989 -0.768309 0
M  V30 2881 H 269.687 4.91976 -1.26181 0
M  V30 2882 H 269.617 5.24328 0.48869 0
M  V30 2883 H 272.108 3.77863 -0.0531512 0
M  V30 2884 H 272.421 7.69311 -0.733559 0
M  V30 2885 H 270.766 6.91927 -0.652791 0
M  V30 2886 H 273.957 4.67859 -0.150072 0
M  V30 2887 H 274.13 6.46364 -0.460116 0
M  V30 2888 N 267.536 -0.106894 1.57237 0
M  V30 2889 C 268.952 -0.46078 1.52804 0
M  V30 2890 C 269.152 -1.81184 0.881746 0
M  V30 2891 O 268.208 -2.48102 0.469224 0
M  V30 2892 C 269.521 -0.434127 2.9755 0
M  V30 2893 C 271.069 -0.516821 3.08704 0
M  V30 2894 C 271.544 -0.520436 4.55033 0
M  V30 2895 N 273.035 -0.58153 4.59535 0
M  V30 2896 C 273.77 -0.605973 5.70189 0
M  V30 2897 N 273.266 -0.587331 6.90306 0
M  V30 2898 N 275.059 -0.649895 5.5833 0
M  V30 2899 H 267.21 0.778203 1.9763 0
M  V30 2900 H 269.473 0.288403 0.903066 0
M  V30 2901 H 269.179 0.491197 3.48253 0
M  V30 2902 H 269.053 -1.25748 3.55622 0
M  V30 2903 H 271.44 -1.43256 2.57995 0
M  V30 2904 H 271.521 0.334449 2.53604 0
M  V30 2905 H 271.165 0.391313 5.0639 0
M  V30 2906 H 271.095 -1.38876 5.07958 0
M  V30 2907 H 273.586 -0.60161 3.73081 0
M  V30 2908 H 273.899 -0.60894 7.70397 0
M  V30 2909 H 272.244 -0.554564 6.92784 0
M  V30 2910 H 275.435 -0.661907 4.63397 0
M  V30 2911 H 275.608 -0.665476 6.44574 0
M  V30 2912 N 269.014 -1.53014 -0.377408 0
M  V30 2913 C 269.944 -1.81589 -1.46791 0
M  V30 2914 C 270.925 -0.668622 -1.56408 0
M  V30 2915 O 272.11 -0.917337 -1.71168 0
M  V30 2916 C 269.24 -1.99519 -2.8427 0
M  V30 2917 C 268.194 -3.15249 -2.89486 0
M  V30 2918 C 267.52 -3.18451 -4.29527 0
M  V30 2919 C 268.82 -4.54084 -2.58079 0
M  V30 2920 H 270.514 -2.7291 -1.23127 0
M  V30 2921 H 268.06 -1.31319 -0.590883 0
M  V30 2922 H 270.013 -2.18092 -3.60575 0
M  V30 2923 H 268.737 -1.04897 -3.09296 0
M  V30 2924 H 267.396 -2.96477 -2.15631 0
M  V30 2925 H 267.044 -2.2149 -4.5161 0
M  V30 2926 H 266.744 -3.962 -4.33934 0
M  V30 2927 H 268.268 -3.39193 -5.07721 0
M  V30 2928 H 269.682 -4.72899 -3.24098 0
M  V30 2929 H 268.079 -5.33987 -2.7382 0
M  V30 2930 H 269.149 -4.60006 -1.53372 0
M  V30 2931 N 270.492 0.636531 -1.44174 0
M  V30 2932 C 271.424 1.7618 -1.46606 0
M  V30 2933 C 272.437 1.58768 -0.360091 0
M  V30 2934 O 273.626 1.67181 -0.625518 0
M  V30 2935 C 270.726 3.13833 -1.27915 0
M  V30 2936 C 269.899 3.57753 -2.51658 0
M  V30 2937 C 268.958 4.74265 -2.27945 0
M  V30 2938 O 267.984 4.82852 -3.01401 0
M  V30 2939 N 269.186 5.65604 -1.30662 0
M  V30 2940 H 271.951 1.74567 -2.43612 0
M  V30 2941 H 269.512 0.820924 -1.39544 0
M  V30 2942 H 271.504 3.8949 -1.09907 0
M  V30 2943 H 270.074 3.10121 -0.39293 0
M  V30 2944 H 269.294 2.72362 -2.84978 0
M  V30 2945 H 270.582 3.83847 -3.33974 0
M  V30 2946 H 269.98 5.61354 -0.699844 0
M  V30 2947 H 268.537 6.40913 -1.18634 0
M  V30 2948 N 271.97 1.30982 0.876444 0
M  V30 2949 C 272.918 1.18006 2.00443 0
M  V30 2950 C 273.912 0.0898871 1.69161 0
M  V30 2951 O 275.118 0.251333 1.78237 0
M  V30 2952 H 271.493 0.365196 0.65737 0
M  V30 2953 H 273.464 2.13453 2.0852 0
M  V30 2954 C 272.213 0.897521 3.35916 0
M  V30 2955 H 271.536 1.7285 3.60504 0
M  V30 2956 H 272.976 0.846874 4.15456 0
M  V30 2957 C 271.435 -0.399674 3.34521 0
M  V30 2958 O 271.965 -1.41852 3.7582 0
M  V30 2959 N 270.171 -0.413893 2.87637 0
M  V30 2960 H 269.718 0.41571 2.54224 0
M  V30 2961 H 269.676 -1.28175 2.87086 0
M  V30 2962 N 273.449 -1.08991 1.13837 0
M  V30 2963 C 274.697 -1.80899 0.901098 0
M  V30 2964 C 275.018 -1.86356 -0.574134 0
M  V30 2965 O 274.288 -1.35235 -1.41733 0
M  V30 2966 H 272.868 -0.669966 0.330386 0
M  V30 2967 H 275.53 -1.318 1.43578 0
M  V30 2968 H 274.626 -2.83929 1.29578 0
M  V30 2969 N 274.927 -0.932562 -1.27047 0
M  V30 2970 C 275.837 -0.441219 -2.30414 0
M  V30 2971 C 276.853 0.480525 -1.67233 0
M  V30 2972 O 278.029 0.362151 -1.98117 0
M  V30 2973 C 275.094 0.293651 -3.45454 0
M  V30 2974 C 274.155 -0.663601 -4.2414 0
M  V30 2975 C 273.388 0.0362932 -5.33688 0
M  V30 2976 O 273.611 1.2548 -5.56427 0
M  V30 2977 O 272.545 -0.638015 -5.98509 0
M  V30 2978 H 276.371 -1.29962 -2.74488 0
M  V30 2979 H 273.956 -0.6981 -1.32087 0
M  V30 2980 H 275.838 0.707951 -4.15411 0
M  V30 2981 H 274.513 1.12758 -3.03426 0
M  V30 2982 H 273.42 -1.12768 -3.56699 0
M  V30 2983 H 274.753 -1.46489 -4.69896 0
M  V30 2984 N 276.405 1.4127 -0.698611 0
M  V30 2985 C 277.337 2.292 0.00399731 0
M  V30 2986 C 278.35 1.44944 0.741279 0
M  V30 2987 O 279.539 1.68416 0.591477 0
M  V30 2988 C 276.639 3.22875 1.02979 0
M  V30 2989 C 275.812 4.35904 0.36151 0
M  V30 2990 C 274.871 5.10134 1.29033 0
M  V30 2991 O 273.897 5.63809 0.781562 0
M  V30 2992 N 275.099 5.17885 2.6225 0
M  V30 2993 H 277.864 2.9014 -0.750921 0
M  V30 2994 H 275.425 1.52455 -0.544882 0
M  V30 2995 H 277.417 3.69404 1.65296 0
M  V30 2996 H 275.987 2.63221 1.68622 0
M  V30 2997 H 275.207 3.91719 -0.441584 0
M  V30 2998 H 276.495 5.08696 -0.103055 0
M  V30 2999 H 275.893 4.7573 3.061 0
M  V30 3000 H 274.45 5.6798 3.19754 0
M  V30 3001 N 277.883 0.443576 1.51229 0
M  V30 3002 C 279.16 -0.181038 1.9476 0
M  V30 3003 C 279.54 -1.59523 1.38259 0
M  V30 3004 O 278.888 -2.2122 0.572198 0
M  V30 3005 C 279.098 -0.152422 3.48667 0
M  V30 3006 C 280.446 -0.354923 4.23114 0
M  V30 3007 O 281.47 -0.230257 3.55455 0
M  V30 3008 O 280.329 -0.603674 5.43156 0
M  V30 3009 H 277.423 -0.1266 0.817252 0
M  V30 3010 H 279.969 0.502004 1.62105 0
M  V30 3011 H 278.741 0.836022 3.82265 0
M  V30 3012 H 278.364 -0.878107 3.87782 0
M  V30 3013 N 279.361 -1.56624 0.175154 0
M  V30 3014 C 280.271 -2.21741 -0.766042 0
M  V30 3015 C 281.287 -1.21023 -1.25018 0
M  V30 3016 O 282.463 -1.53697 -1.3015 0
M  V30 3017 C 279.528 -2.84839 -1.97655 0
M  V30 3018 C 278.589 -4.00769 -1.53892 0
M  V30 3019 C 277.822 -4.60849 -2.69173 0
M  V30 3020 O 278.045 -4.19823 -3.86141 0
M  V30 3021 O 276.979 -5.50655 -2.43028 0
M  V30 3022 H 280.805 -3.02738 -0.241585 0
M  V30 3023 H 278.39 -1.49305 -0.053222 0
M  V30 3024 H 280.272 -3.24834 -2.68442 0
M  V30 3025 H 278.947 -2.06836 -2.48999 0
M  V30 3026 H 277.854 -3.65436 -0.80044 0
M  V30 3027 H 279.187 -4.80376 -1.07236 0
M  V30 3028 N 280.839 0.0985539 -1.57292 0
M  V30 3029 C 281.749 1.13824 -2.05137 0
M  V30 3030 C 282.765 1.44076 -0.975604 0
M  V30 3031 O 283.941 1.54786 -1.28853 0
M  V30 3032 C 281.006 2.43969 -2.46333 0
M  V30 3033 C 280.067 2.2093 -3.68087 0
M  V30 3034 C 279.3 3.44869 -4.0731 0
M  V30 3035 O 279.523 4.52972 -3.46659 0
M  V30 3036 O 278.457 3.34661 -5.00285 0
M  V30 3037 H 282.283 0.761881 -2.93988 0
M  V30 3038 H 279.868 0.310818 -1.46131 0
M  V30 3039 H 281.75 3.20609 -2.73473 0
M  V30 3040 H 280.425 2.81038 -1.60621 0
M  V30 3041 H 279.332 1.42081 -3.46069 0
M  V30 3042 H 280.665 1.88755 -4.54568 0
M  V30 3043 N 282.317 1.53212 0.369288 0
M  V30 3044 C 283.565 1.68881 1.11012 0
M  V30 3045 C 283.886 0.441285 1.89941 0
M  V30 3046 O 283.156 -0.544623 1.88177 0
M  V30 3047 H 281.736 0.622569 0.412816 0
M  V30 3048 H 284.398 1.90391 0.416802 0
M  V30 3049 H 283.494 2.54822 1.80201 0
M  V30 3050 N 283.795 -0.628877 1.44509 0
M  V30 3051 C 284.758 -1.72263 1.51188 0
M  V30 3052 C 285.758 -1.55907 0.39367 0
M  V30 3053 O 286.948 -1.61361 0.656377 0
M  V30 3054 C 284.08 -3.11365 1.38798 0
M  V30 3055 H 285.273 -1.67714 2.4862 0
M  V30 3056 H 282.826 -0.842737 1.31634 0
M  V30 3057 H 283.561 -3.21507 0.424693 0
M  V30 3058 H 283.346 -3.24644 2.19884 0
M  V30 3059 H 284.836 -3.91075 1.46458 0
M  V30 3060 N 285.273 -1.31445 -0.869486 0
M  V30 3061 C 286.55 -1.11795 -1.60503 0
M  V30 3062 C 286.93 0.327168 -2.08549 0
M  V30 3063 O 286.278 1.32135 -1.8642 0
M  V30 3064 C 286.488 -2.13258 -2.76265 0
M  V30 3065 C 287.836 -2.45805 -3.46215 0
M  V30 3066 O 288.86 -2.11688 -2.86473 0
M  V30 3067 O 287.719 -3.04228 -4.5399 0
M  V30 3068 H 284.813 -0.430421 -0.706163 0
M  V30 3069 H 287.359 -1.42925 -0.914907 0
M  V30 3070 H 286.131 -3.10461 -2.3818 0
M  V30 3071 H 285.754 -1.83035 -3.52964 0
M  V30 3072 N 286.751 1.08385 -1.14413 0
M  V30 3073 C 287.661 2.18856 -0.844951 0
M  V30 3074 C 288.677 1.73121 0.174668 0
M  V30 3075 O 289.853 2.014 0.00312857 0
M  V30 3076 C 286.918 3.45155 -0.32696 0
M  V30 3077 C 285.979 4.05513 -1.40916 0
M  V30 3078 C 285.212 5.25784 -0.915793 0
M  V30 3079 O 285.435 5.69884 0.242651 0
M  V30 3080 O 284.369 5.77545 -1.69487 0
M  V30 3081 H 288.195 2.46919 -1.76818 0
M  V30 3082 H 285.78 1.17524 -0.922411 0
M  V30 3083 H 287.662 4.21377 -0.0440211 0
M  V30 3084 H 286.337 3.18668 0.568539 0
M  V30 3085 H 285.244 3.30879 -1.74556 0
M  V30 3086 H 286.577 4.3625 -2.27919 0
M  V30 3087 N 288.23 0.939286 1.26551 0
M  V30 3088 C 289.193 0.451987 2.24699 0
M  V30 3089 C 290.193 -0.435869 1.5478 0
M  V30 3090 O 291.383 -0.235314 1.72603 0
M  V30 3091 C 288.515 -0.348801 3.39111 0
M  V30 3092 H 289.708 1.3193 2.69322 0
M  V30 3093 H 287.261 0.721072 1.38673 0
M  V30 3094 H 287.996 -1.23444 2.99887 0
M  V30 3095 H 287.781 0.287945 3.91041 0
M  V30 3096 H 289.271 -0.679726 4.12031 0
M  V30 3097 N 289.708 -1.40897 0.706093 0
M  V30 3098 C 290.671 -2.29131 0.0562841 0
M  V30 3099 C 291.671 -1.44901 -0.697166 0
M  V30 3100 O 292.861 -1.65926 -0.530484 0
M  V30 3101 C 289.993 -3.27957 -0.93043 0
M  V30 3102 H 291.186 -2.88091 0.833284 0
M  V30 3103 H 288.739 -1.4906 0.470192 0
M  V30 3104 H 289.474 -2.73997 -1.73482 0
M  V30 3105 H 289.259 -3.90124 -0.393166 0
M  V30 3106 H 290.749 -3.94049 -1.38256 0
M  V30 3107 N 291.186 -0.45159 -1.50991 0
M  V30 3108 C 292.096 0.358431 -2.31846 0
M  V30 3109 C 293.112 1.01438 -1.41373 0
M  V30 3110 O 294.288 1.00663 -1.74439 0
M  V30 3111 C 291.353 1.43704 -3.15515 0
M  V30 3112 C 290.414 0.799742 -4.21785 0
M  V30 3113 C 289.647 1.82696 -5.01456 0
M  V30 3114 O 289.87 3.05105 -4.81941 0
M  V30 3115 O 288.804 1.40958 -5.85162 0
M  V30 3116 H 292.63 -0.302032 -3.02194 0
M  V30 3117 H 290.215 -0.213825 -1.47862 0
M  V30 3118 H 292.097 2.06227 -3.67489 0
M  V30 3119 H 290.772 2.08133 -2.47916 0
M  V30 3120 H 289.679 0.136084 -3.73852 0
M  V30 3121 H 291.012 0.198718 -4.91799 0
M  V30 3122 N 292.664 1.56529 -0.183458 0
M  V30 3123 C 293.627 2.17324 0.728223 0
M  V30 3124 C 294.627 1.12453 1.14939 0
M  V30 3125 O 295.817 1.37902 1.06437 0
M  V30 3126 C 292.949 2.76591 1.99274 0
M  V30 3127 H 294.142 2.99241 0.198772 0
M  V30 3128 H 291.695 1.5616 0.0661391 0
M  V30 3129 H 292.43 1.98441 2.56499 0
M  V30 3130 H 292.215 3.5335 1.69959 0
M  V30 3131 H 293.705 3.23311 2.6431 0
M  V30 3132 N 294.142 -0.090211 1.57342 0
M  V30 3133 C 295.105 -1.09335 2.01441 0
M  V30 3134 C 296.105 -1.32666 0.908641 0
M  V30 3135 O 297.295 -1.28697 1.174 0
M  V30 3136 C 294.427 -2.44136 2.3793 0
M  V30 3137 H 295.62 -0.713662 2.91285 0
M  V30 3138 H 293.173 -0.335404 1.52659 0
M  V30 3139 H 293.908 -2.86972 1.51055 0
M  V30 3140 H 293.693 -2.28548 3.18603 0
M  V30 3141 H 295.183 -3.16277 2.72688 0
M  V30 3142 N 295.62 -1.53406 -0.361157 0
M  V30 3143 C 296.868 -1.69467 -1.10115 0
M  V30 3144 C 297.189 -0.451352 -1.89705 0
M  V30 3145 O 296.459 0.534636 -1.88463 0
M  V30 3146 H 295.039 -0.624749 -0.409508 0
M  V30 3147 H 297.701 -1.90609 -0.406699 0
M  V30 3148 H 296.797 -2.55774 -1.78847 0
M  V30 3149 O 297.137 0.507134 -1.53331 0
M  V30 3150 H 297.828 1.16207 -1.5497 0
M  V30 END ATOM
M  V30 BEGIN BOND
M  V30 END BOND
M  V30 END CTAB
M  END
$$$$
