drugbank_target|Q7RTX0 Taste receptor type 1 member 3 (DB00168)
 OpenBabel12092119353D

  0  0  0     0  0            999 V3000
M  V30 BEGIN CTAB
M  V30 COUNTS 13087 13257 0 0 0
M  V30 BEGIN ATOM
M  V30 1 H -0.908 1.98254 -0.117106 0
M  V30 2 N 0 1.576 0 0
M  V30 3 C 0.933 2.03868 1.02534 0
M  V30 4 C 1.911 0.928543 1.3348 0
M  V30 5 O 3.095 1.19667 1.45644 0
M  V30 6 C 0.222 2.43627 2.35294 0
M  V30 7 C -0.732 3.65373 2.2001 0
M  V30 8 S 0.101 5.13292 1.52614 0
M  V30 9 C 1.257 5.56322 2.86805 0
M  V30 10 H 1.49 2.90518 0.631377 0
M  V30 11 H -0.977 1.52953 0.210867 0
M  V30 12 H 0.981 2.67203 3.11629 0
M  V30 13 H -0.358 1.57376 2.7183 0
M  V30 14 H -1.165 3.90944 3.18086 0
M  V30 15 H -1.563 3.418 1.51819 0
M  V30 16 H 0.729 5.58782 3.83104 0
M  V30 17 H 1.672 6.56266 2.65933 0
M  V30 18 H 2.08 4.83886 2.90714 0
M  V30 19 N 1.4781 -0.272755 1.55222 0
M  V30 20 C 2.4081 -1.34136 1.91127 0
M  V30 21 C 3.3891 -1.51513 0.773168 0
M  V30 22 O 4.5741 -1.64552 1.03132 0
M  V30 23 C 1.7041 -2.70083 2.1834 0
M  V30 24 C 0.6581 -2.67437 3.34158 0
M  V30 25 C -0.0159 -4.06938 3.46851 0
M  V30 26 C 1.2841 -2.26686 4.70543 0
M  V30 27 H 2.9781 -1.04333 2.80633 0
M  V30 28 H 0.5241 -0.500454 1.35024 0
M  V30 29 H 2.4771 -3.44952 2.42046 0
M  V30 30 H 1.2011 -3.01469 1.25634 0
M  V30 31 H -0.1399 -1.95026 3.1042 0
M  V30 32 H -0.4919 -4.35547 2.51611 0
M  V30 33 H -0.7919 -4.06062 4.2472 0
M  V30 34 H 0.7321 -4.83545 3.72849 0
M  V30 35 H 2.1461 -2.91277 4.93792 0
M  V30 36 H 0.5431 -2.36971 5.5133 0
M  V30 37 H 1.6131 -1.21818 4.69349 0
M  V30 38 N 2.9562 -1.48159 -0.537278 0
M  V30 39 C 4.2042 -1.55497 -1.29094 0
M  V30 40 C 4.5252 -0.227454 -1.93669 0
M  V30 41 O 3.7952 0.750386 -1.80959 0
M  V30 42 H 2.3752 -0.572832 -0.47945 0
M  V30 43 H 5.0372 -1.84579 -0.625818 0
M  V30 44 H 4.1332 -2.33216 -2.07405 0
M  V30 45 N 4.4343 0.785586 -1.36625 0
M  V30 46 C 5.8453 1.36101 -1.27803 0
M  V30 47 C 6.1963 1.96035 0.0804875 0
M  V30 48 O 5.3213 1.92834 0.982042 0
M  V30 49 C 5.9163 2.47442 -2.31426 0
M  V30 50 C 4.4753 3.00789 -2.26281 0
M  V30 51 C 3.6223 1.73896 -2.15999 0
M  V30 52 H 6.5733 0.586928 -1.47448 0
M  V30 53 H 6.5943 3.2656 -1.95291 0
M  V30 54 H 6.1063 2.03791 -3.30289 0
M  V30 55 H 4.2073 3.48851 -1.30896 0
M  V30 56 H 4.3203 3.57343 -3.19128 0
M  V30 57 H 2.6843 1.9628 -1.62316 0
M  V30 58 H 3.4673 1.32368 -3.16755 0
M  V30 59 N 5.9124 1.20967 1.01018 0
M  V30 60 C 6.8754 0.965918 2.07853 0
M  V30 61 C 7.8754 -0.0610545 1.60684 0
M  V30 62 O 9.0654 0.175681 1.73312 0
M  V30 63 C 6.1974 0.455513 3.37843 0
M  V30 64 H 7.3904 1.91365 2.3091 0
M  V30 65 H 4.9434 1.02594 1.17916 0
M  V30 66 H 5.6784 -0.497381 3.20463 0
M  V30 67 H 5.4634 1.19622 3.73407 0
M  V30 68 H 6.9534 0.304667 4.16487 0
M  V30 69 N 7.3905 -1.2043 1.01659 0
M  V30 70 C 8.6365 -1.90079 0.706963 0
M  V30 71 C 8.9695 -1.78648 -0.761474 0
M  V30 72 O 8.2445 -1.17069 -1.55323 0
M  V30 73 C 8.5275 -3.41469 1.14327 0
M  V30 74 C 8.3805 -3.61833 2.67201 0
M  V30 75 C 9.6995 -4.34261 0.714529 0
M  V30 76 H 6.8185 -0.690254 0.2583 0
M  V30 77 H 9.4605 -1.41826 1.26433 0
M  V30 78 H 7.6105 -3.82696 0.669056 0
M  V30 79 H 9.2825 -3.2986 3.22475 0
M  V30 80 H 7.5255 -3.05304 3.08175 0
M  V30 81 H 8.1965 -4.67955 2.92783 0
M  V30 82 H 10.6725 -4.00682 1.12221 0
M  V30 83 H 9.5485 -5.38806 1.04784 0
M  V30 84 H 9.8095 -4.40431 -0.383799 0
M  V30 85 N 8.8686 -0.792821 -1.36206 0
M  V30 86 C 9.7986 -0.207853 -2.32573 0
M  V30 87 C 10.7796 0.659055 -1.56813 0
M  V30 88 O 11.9646 0.592176 -1.84951 0
M  V30 89 C 9.0946 0.655449 -3.41059 0
M  V30 90 C 8.0486 -0.111842 -4.27854 0
M  V30 91 C 7.3746 0.872274 -5.27537 0
M  V30 92 C 8.6746 -1.30299 -5.05786 0
M  V30 93 H 10.3686 -1.01294 -2.81744 0
M  V30 94 H 7.9146 -0.48854 -1.3546 0
M  V30 95 H 9.8676 1.07464 -4.07467 0
M  V30 96 H 8.5916 1.49328 -2.90463 0
M  V30 97 H 7.2506 -0.512053 -3.63006 0
M  V30 98 H 6.8986 1.70523 -4.73214 0
M  V30 99 H 6.5986 0.363291 -5.86476 0
M  V30 100 H 8.1226 1.28996 -5.96818 0
M  V30 101 H 9.5366 -0.959379 -5.65216 0
M  V30 102 H 7.9336 -1.7455 -5.74154 0
M  V30 103 H 9.0036 -2.09663 -4.37229 0
M  V30 104 N 10.3467 1.47872 -0.545128 0
M  V30 105 C 11.5947 2.02093 -0.016553 0
M  V30 106 C 11.9157 1.42305 1.3332 0
M  V30 107 O 11.1857 0.593853 1.86682 0
M  V30 108 H 9.7657 0.746993 -0.00313038 0
M  V30 109 H 12.4277 1.81414 -0.712397 0
M  V30 110 H 11.5237 3.11996 0.0805422 0
M  V30 111 N 11.8248 0.280983 1.55075 0
M  V30 112 C 12.7548 -0.597469 2.25727 0
M  V30 113 C 13.7358 -1.15417 1.24952 0
M  V30 114 O 14.9208 -1.18722 1.53684 0
M  V30 115 C 12.0508 -1.7789 2.98283 0
M  V30 116 C 11.0048 -1.35347 4.06036 0
M  V30 117 C 10.3308 -2.61846 4.66198 0
M  V30 118 C 11.6308 -0.499354 5.19907 0
M  V30 119 H 13.3248 -0.00824265 2.99399 0
M  V30 120 H 10.8708 -0.0025244 1.44 0
M  V30 121 H 12.8238 -2.39937 3.46422 0
M  V30 122 H 11.5478 -2.39405 2.22155 0
M  V30 123 H 10.2068 -0.756156 3.58717 0
M  V30 124 H 9.8548 -3.21632 3.86732 0
M  V30 125 H 9.5548 -2.3409 5.38958 0
M  V30 126 H 11.0788 -3.24732 5.1709 0
M  V30 127 H 12.4928 -1.02498 5.64063 0
M  V30 128 H 10.8898 -0.316424 5.99265 0
M  V30 129 H 11.9598 0.480459 4.82514 0
M  V30 130 N 13.3029 -1.57598 0.00835791 0
M  V30 131 C 14.5279 -1.95617 -0.689103 0
M  V30 132 C 14.9529 -0.883753 -1.66046 0
M  V30 133 O 14.3109 0.157352 -1.80616 0
M  V30 134 C 14.3589 -3.32736 -1.38994 0
M  V30 135 O 13.4629 -3.27631 -2.50463 0
M  V30 136 H 12.8039 -0.638379 -0.182668 0
M  V30 137 H 15.3339 -2.045 0.064036 0
M  V30 138 H 15.3439 -3.68494 -1.75147 0
M  V30 139 H 14.0189 -4.1034 -0.677778 0
M  V30 140 H 12.5959 -3.03561 -2.16576 0
M  V30 141 N 14.781 0.264519 -1.55364 0
M  V30 142 C 15.711 1.33121 -1.91836 0
M  V30 143 C 16.692 1.51101 -0.781192 0
M  V30 144 O 17.877 1.64003 -1.04003 0
M  V30 145 C 15.007 2.68921 -2.19769 0
M  V30 146 C 13.961 2.65661 -3.35571 0
M  V30 147 C 13.287 4.05093 -3.49004 0
M  V30 148 C 14.587 2.24187 -4.71739 0
M  V30 149 H 16.281 1.02844 -2.81182 0
M  V30 150 H 13.827 0.493286 -1.35287 0
M  V30 151 H 15.78 3.43663 -2.43872 0
M  V30 152 H 14.504 3.00799 -1.27231 0
M  V30 153 H 13.163 1.93377 -3.1145 0
M  V30 154 H 12.811 4.34206 -2.53917 0
M  V30 155 H 12.511 4.03804 -4.26868 0
M  V30 156 H 14.035 4.81561 -3.75408 0
M  V30 157 H 15.449 2.88654 -4.9533 0
M  V30 158 H 13.846 2.34044 -5.52579 0
M  V30 159 H 14.916 1.19327 -4.69988 0
M  V30 160 N 16.2591 1.48442 0.529413 0
M  V30 161 C 17.5051 1.57699 1.28463 0
M  V30 162 C 17.8601 0.247913 1.90796 0
M  V30 163 O 17.1531 -0.749279 1.76342 0
M  V30 164 C 17.3471 2.6523 2.39558 0
M  V30 165 C 17.1761 4.08464 1.88114 0
M  V30 166 C 15.9461 4.75596 1.70693 0
M  V30 167 C 18.1441 4.94613 1.40935 0
M  V30 168 N 16.1261 6.03245 1.13881 0
M  V30 169 C 17.4971 6.12511 0.960734 0
M  V30 170 C 19.5521 4.80833 1.29243 0
M  V30 171 C 18.2551 7.18149 0.406792 0
M  V30 172 C 20.2811 5.86593 0.752487 0
M  V30 173 C 19.6431 7.037 0.313946 0
M  V30 174 H 15.7421 0.631608 0.46108 0
M  V30 175 H 18.3261 1.85325 0.596886 0
M  V30 176 H 16.4971 2.39425 3.05827 0
M  V30 177 H 18.2291 2.64169 3.06589 0
M  V30 178 H 14.9841 4.31938 1.94232 0
M  V30 179 H 15.4081 6.71324 0.874831 0
M  V30 180 H 20.0501 3.90635 1.61754 0
M  V30 181 H 17.7681 8.0807 0.0693671 0
M  V30 182 H 21.3541 5.77985 0.665192 0
M  V30 183 H 20.2341 7.8414 -0.0973632 0
M  V30 184 N 17.7372 -0.778329 1.37039 0
M  V30 185 C 18.7002 -1.87301 1.32102 0
M  V30 186 C 19.7002 -1.59198 0.226405 0
M  V30 187 O 20.8902 -1.67403 0.481861 0
M  V30 188 C 18.0222 -3.24309 1.05055 0
M  V30 189 H 19.2152 -1.93093 2.29467 0
M  V30 190 H 16.7682 -0.977358 1.21973 0
M  V30 191 H 17.5032 -3.24196 0.0819373 0
M  V30 192 H 17.2882 -3.46098 1.84279 0
M  V30 193 H 18.7782 -4.04382 1.04234 0
M  V30 194 N 19.2153 -1.21501 -1.00376 0
M  V30 195 C 20.1453 -0.999478 -2.11028 0
M  V30 196 C 21.1263 0.0759671 -1.6993 0
M  V30 197 O 22.3113 -0.0841106 -1.94018 0
M  V30 198 C 19.4413 -0.564709 -3.42678 0
M  V30 199 C 18.3953 -1.58486 -3.97576 0
M  V30 200 C 17.7213 -1.00628 -5.25146 0
M  V30 201 C 19.0213 -2.97204 -4.29496 0
M  V30 202 H 20.7153 -1.92495 -2.29317 0
M  V30 203 H 18.2613 -0.92693 -1.102 0
M  V30 204 H 20.2143 -0.401091 -4.19487 0
M  V30 205 H 18.9383 0.396411 -3.24185 0
M  V30 206 H 17.5973 -1.73606 -3.22888 0
M  V30 207 H 17.2453 -0.0368439 -5.02987 0
M  V30 208 H 16.9453 -1.68771 -5.62841 0
M  V30 209 H 18.4693 -0.854015 -6.04598 0
M  V30 210 H 19.8833 -2.8552 -4.97143 0
M  V30 211 H 18.2803 -3.62372 -4.78338 0
M  V30 212 H 19.3503 -3.47956 -3.3772 0
M  V30 213 N 20.6934 1.19889 -1.02296 0
M  V30 214 C 21.6234 2.25141 -0.619174 0
M  V30 215 C 22.6044 1.66051 0.368915 0
M  V30 216 O 23.7894 1.92546 0.252941 0
M  V30 217 C 20.9194 3.4728 0.0368783 0
M  V30 218 C 19.8734 4.19005 -0.872865 0
M  V30 219 C 19.1994 5.34637 -0.0822402 0
M  V30 220 C 20.4994 4.74452 -2.18387 0
M  V30 221 H 22.1934 2.59171 -1.49903 0
M  V30 222 H 19.7394 1.24579 -0.722222 0
M  V30 223 H 21.6924 4.20098 0.330958 0
M  V30 224 H 20.4164 3.12433 0.95149 0
M  V30 225 H 19.0754 3.48061 -1.15105 0
M  V30 226 H 18.7234 4.96034 0.83422 0
M  V30 227 H 18.4234 5.83557 -0.688149 0
M  V30 228 H 19.9474 6.10255 0.205238 0
M  V30 229 H 21.3614 5.39055 -1.95172 0
M  V30 230 H 19.7584 5.33834 -2.74119 0
M  V30 231 H 20.8284 3.92844 -2.84257 0
M  V30 232 N 22.1715 0.800033 1.35784 0
M  V30 233 C 23.1215 0.178654 2.27299 0
M  V30 234 C 24.1055 -0.643667 1.47464 0
M  V30 235 O 25.2975 -0.502 1.69732 0
M  V30 236 C 22.4265 -0.677194 3.36555 0
M  V30 237 C 21.5125 0.154497 4.23818 0
M  V30 238 N 21.9035 1.21427 4.91008 0
M  V30 239 C 20.2015 -0.0649462 4.45953 0
M  V30 240 C 20.9025 1.72147 5.55644 0
M  V30 241 N 19.8785 1.02897 5.33773 0
M  V30 242 H 23.6805 0.989637 2.76737 0
M  V30 243 H 21.1945 0.64054 1.49234 0
M  V30 244 H 23.1915 -1.13835 4.01058 0
M  V30 245 H 21.8515 -1.4866 2.8867 0
M  V30 246 H 22.8625 1.59684 4.92668 0
M  V30 247 H 19.5395 -0.844016 4.0888 0
M  V30 248 H 20.9295 2.60683 6.19269 0
M  V30 249 N 23.6496 -1.47581 0.552962 0
M  V30 250 C 25.0606 -1.86324 0.118463 0
M  V30 251 C 25.4116 -1.46006 -1.3106 0
M  V30 252 O 24.5366 -0.861182 -1.98526 0
M  V30 253 C 25.1316 -3.3816 0.20821 0
M  V30 254 C 23.6906 -3.7601 -0.171226 0
M  V30 255 C 22.8376 -2.71634 0.557686 0
M  V30 256 H 25.7886 -1.39159 0.762928 0
M  V30 257 H 25.8096 -3.76141 -0.574278 0
M  V30 258 H 25.3216 -3.67473 1.24841 0
M  V30 259 H 23.4226 -3.52313 -1.21269 0
M  V30 260 H 23.5356 -4.78745 0.184379 0
M  V30 261 H 21.8996 -2.547 0.00125792 0
M  V30 262 H 22.6826 -3.0379 1.59896 0
M  V30 263 N 25.1277 -0.289203 -1.54924 0
M  V30 264 C 26.3757 0.322879 -1.99504 0
M  V30 265 C 26.6967 1.55313 -1.1791 0
M  V30 266 O 25.9667 1.94001 -0.272097 0
M  V30 267 H 24.5467 0.122291 -0.736922 0
M  V30 268 H 27.2087 -0.397802 -1.90797 0
M  V30 269 H 26.3047 0.603061 -3.06218 0
M  V30 270 N 26.6058 1.57591 -0.0167156 0
M  V30 271 C 27.8338 1.95575 0.675128 0
M  V30 272 C 28.2488 0.892542 1.6637 0
M  V30 273 O 27.6058 -0.126912 1.82058 0
M  V30 274 C 27.6568 3.33608 1.39239 0
M  V30 275 O 27.3778 4.3585 0.443444 0
M  V30 276 C 28.8788 3.86151 2.17721 0
M  V30 277 H 26.0988 0.644423 0.186978 0
M  V30 278 H 28.6428 2.0437 -0.0728 0
M  V30 279 H 26.7978 3.2607 2.09182 0
M  V30 280 H 27.2118 5.158 0.951358 0
M  V30 281 H 28.6858 4.85114 2.63379 0
M  V30 282 H 29.1628 3.19738 3.01105 0
M  V30 283 H 29.7688 3.96918 1.52761 0
M  V30 284 N 28.0839 -0.256276 1.55502 0
M  V30 285 C 29.3319 -0.983672 1.76545 0
M  V30 286 C 29.6529 -1.86206 0.578982 0
M  V30 287 O 28.9229 -1.91656 -0.405577 0
M  V30 288 H 27.5029 -0.366191 0.651086 0
M  V30 289 H 30.1649 -0.276479 1.92929 0
M  V30 290 H 29.2609 -1.61087 2.67315 0
M  V30 291 N 29.562 -1.4872 -0.521534 0
M  V30 292 C 30.525 -1.63379 -1.60748 0
M  V30 293 C 31.525 -0.50661 -1.52611 0
M  V30 294 O 32.715 -0.772601 -1.5613 0
M  V30 295 C 29.847 -1.61192 -3.00383 0
M  V30 296 H 31.04 -2.60217 -1.49087 0
M  V30 297 H 28.593 -1.37444 -0.744235 0
M  V30 298 H 29.328 -0.65863 -3.17541 0
M  V30 299 H 29.113 -2.43032 -3.07698 0
M  V30 300 H 30.603 -1.7466 -3.7932 0
M  V30 301 N 31.0401 0.771051 -1.3745 0
M  V30 302 C 32.4511 1.34737 -1.29239 0
M  V30 303 C 32.8021 1.96109 0.0596908 0
M  V30 304 O 31.9271 1.93865 0.961534 0
M  V30 305 C 32.5221 2.44973 -2.34037 0
M  V30 306 C 31.0811 2.98372 -2.29458 0
M  V30 307 C 30.2281 1.71595 -2.17831 0
M  V30 308 H 33.1791 0.571256 -1.48062 0
M  V30 309 H 33.2001 3.24471 -1.98744 0
M  V30 310 H 32.7121 2.00276 -3.32432 0
M  V30 311 H 30.8131 3.47443 -1.34589 0
M  V30 312 H 30.9261 3.53939 -3.229 0
M  V30 313 H 29.2901 1.94547 -1.64388 0
M  V30 314 H 30.0731 1.29001 -3.18141 0
M  V30 315 N 32.5182 1.22032 0.997298 0
M  V30 316 C 33.4482 1.01065 2.10495 0
M  V30 317 C 34.4292 -0.0669542 1.69968 0
M  V30 318 O 35.6142 0.0943987 1.9397 0
M  V30 319 C 32.7442 0.582874 3.42374 0
M  V30 320 C 31.6982 1.60592 3.96729 0
M  V30 321 C 31.0242 1.03412 5.24605 0
M  V30 322 C 32.3242 2.99478 4.27914 0
M  V30 323 H 34.0182 1.93708 2.28292 0
M  V30 324 H 31.5642 0.932761 1.09707 0
M  V30 325 H 33.5172 0.423332 4.19268 0
M  V30 326 H 32.2412 -0.379213 3.24391 0
M  V30 327 H 30.9002 1.75316 3.21963 0
M  V30 328 H 30.5482 0.063518 5.0296 0
M  V30 329 H 30.2482 1.71754 5.61938 0
M  V30 330 H 31.7722 0.886066 6.04137 0
M  V30 331 H 33.1862 2.88153 4.95622 0
M  V30 332 H 31.5832 3.64903 4.76409 0
M  V30 333 H 32.6532 3.49742 3.3587 0
M  V30 334 N 33.9963 -1.19345 1.0293 0
M  V30 335 C 35.2363 -1.90738 0.734727 0
M  V30 336 C 35.6003 -1.7785 -0.723414 0
M  V30 337 O 36.8013 -2.43844 -1.13108 0
M  V30 338 C 35.0723 -3.37569 1.17396 0
M  V30 339 S 36.6313 -4.27176 1.00329 0
M  V30 340 H 33.4493 -0.658771 0.267474 0
M  V30 341 H 36.0513 -1.4428 1.31922 0
M  V30 342 H 34.7553 -3.44475 2.23081 0
M  V30 343 H 34.2863 -3.8906 0.582772 0
M  V30 344 H 36.3013 -4.96126 -0.0859152 0
M  V30 345 N 35.4744 -0.807222 -1.35358 0
M  V30 346 C 36.4044 -0.232509 -2.3234 0
M  V30 347 C 37.3854 0.642386 -1.57504 0
M  V30 348 O 38.5704 0.572526 -1.85569 0
M  V30 349 C 35.7004 0.619238 -3.41735 0
M  V30 350 C 34.6544 -0.157215 -4.27711 0
M  V30 351 C 33.9804 0.816273 -5.28433 0
M  V30 352 C 35.2804 -1.35656 -5.04376 0
M  V30 353 H 36.9744 -1.04276 -2.80654 0
M  V30 354 H 34.5204 -0.50288 -1.34934 0
M  V30 355 H 36.4734 1.03137 -4.08584 0
M  V30 356 H 35.1974 1.46239 -2.92031 0
M  V30 357 H 33.8564 -0.550525 -3.62443 0
M  V30 358 H 33.5044 1.65494 -4.74996 0
M  V30 359 H 33.2044 0.301067 -5.86828 0
M  V30 360 H 34.7284 1.22659 -5.98153 0
M  V30 361 H 36.1424 -1.01927 -5.64166 0
M  V30 362 H 34.5394 -1.8063 -5.7227 0
M  V30 363 H 35.6094 -2.14288 -4.34981 0
M  V30 364 N 36.9525 1.47285 -0.560781 0
M  V30 365 C 38.1775 2.07359 -0.0410566 0
M  V30 366 C 38.6025 1.41017 1.24483 0
M  V30 367 O 37.9605 0.486368 1.74654 0
M  V30 368 C 38.0085 3.6035 0.134123 0
M  V30 369 O 37.1125 3.94681 1.19587 0
M  V30 370 H 36.4535 0.661887 -0.0529291 0
M  V30 371 H 38.9835 1.89252 -0.777482 0
M  V30 372 H 38.9935 4.0652 0.347207 0
M  V30 373 H 37.6685 4.08034 -0.805047 0
M  V30 374 H 36.2455 3.60251 0.962987 0
M  V30 375 N 38.4306 0.297415 1.54768 0
M  V30 376 C 39.3626 -0.613881 2.20826 0
M  V30 377 C 40.3756 -1.10032 1.19987 0
M  V30 378 O 41.5646 -1.01839 1.46598 0
M  V30 379 C 38.6646 -1.852 2.83821 0
M  V30 380 C 37.8376 -1.50865 4.10559 0
M  V30 381 C 36.8966 -2.60154 4.57391 0
M  V30 382 O 35.9226 -2.25398 5.2267 0
M  V30 383 N 37.1246 -3.90629 4.29406 0
M  V30 384 H 39.8896 -0.048389 2.99661 0
M  V30 385 H 37.4506 0.11946 1.61459 0
M  V30 386 H 39.4426 -2.57652 3.12086 0
M  V30 387 H 38.0126 -2.32597 2.08847 0
M  V30 388 H 37.2326 -0.616925 3.89343 0
M  V30 389 H 38.5206 -1.25458 4.9309 0
M  V30 390 H 37.9186 -4.21677 3.77101 0
M  V30 391 H 36.4756 -4.59391 4.62388 0
M  V30 392 N 39.9087 -1.5758 0.0250728 0
M  V30 393 C 40.8407 -2.06869 -0.986796 0
M  V30 394 C 41.8537 -0.991332 -1.29137 0
M  V30 395 O 43.0427 -1.26761 -1.25674 0
M  V30 396 C 40.1427 -2.47486 -2.31525 0
M  V30 397 C 39.3157 -3.78253 -2.19643 0
M  V30 398 C 38.3747 -4.05464 -3.35388 0
M  V30 399 O 37.4007 -4.75774 -3.12454 0
M  V30 400 N 38.6027 -3.55321 -4.59051 0
M  V30 401 H 41.3677 -2.94302 -0.566276 0
M  V30 402 H 38.9287 -1.6109 -0.161776 0
M  V30 403 H 40.9207 -2.62785 -3.07776 0
M  V30 404 H 39.4907 -1.65441 -2.65232 0
M  V30 405 H 38.7107 -3.7279 -1.28144 0
M  V30 406 H 39.9987 -4.63936 -2.08903 0
M  V30 407 H 39.3967 -2.98431 -4.80578 0
M  V30 408 H 37.9537 -3.75905 -5.32483 0
M  V30 409 N 41.3868 0.248026 -1.55636 0
M  V30 410 C 42.3168 1.31079 -1.93237 0
M  V30 411 C 43.2978 1.50264 -0.797174 0
M  V30 412 O 44.4828 1.62891 -1.05737 0
M  V30 413 C 41.6128 2.66575 -2.22609 0
M  V30 414 C 40.5668 2.62087 -3.3837 0
M  V30 415 C 39.8928 4.01369 -3.53281 0
M  V30 416 C 41.1928 2.19171 -4.7409 0
M  V30 417 H 42.8868 0.998556 -2.82257 0
M  V30 418 H 40.4328 0.47891 -1.35803 0
M  V30 419 H 42.3858 3.41057 -2.47503 0
M  V30 420 H 41.1098 2.99432 -1.30414 0
M  V30 421 H 39.7688 1.90063 -3.13483 0
M  V30 422 H 39.4168 4.31489 -2.58508 0
M  V30 423 H 39.1168 3.99254 -4.31127 0
M  V30 424 H 40.6408 4.77552 -3.80495 0
M  V30 425 H 42.0548 2.83384 -4.98363 0
M  V30 426 H 40.4518 2.2817 -5.5503 0
M  V30 427 H 41.5218 1.14336 -4.71227 0
M  V30 428 N 42.8649 1.48995 0.513639 0
M  V30 429 C 44.2809 1.35478 0.843682 0
M  V30 430 C 44.4809 0.378213 1.97919 0
M  V30 431 O 43.5369 -0.194689 2.51748 0
M  V30 432 C 44.8499 2.75901 1.1958 0
M  V30 433 C 46.3979 2.84509 1.30474 0
M  V30 434 C 46.8729 4.25671 1.69021 0
M  V30 435 N 48.3639 4.28422 1.76094 0
M  V30 436 C 49.0989 5.34601 2.07338 0
M  V30 437 N 48.5949 6.5104 2.36894 0
M  V30 438 N 50.3879 5.22007 2.08483 0
M  V30 439 H 42.5389 2.11092 -0.235328 0
M  V30 440 H 44.8019 0.947039 -0.0426669 0
M  V30 441 H 44.5079 3.49001 0.434913 0
M  V30 442 H 44.3819 3.10467 2.1422 0
M  V30 443 H 46.7689 2.11655 2.05637 0
M  V30 444 H 46.8499 2.53542 0.339155 0
M  V30 445 H 46.4939 4.99048 0.944135 0
M  V30 446 H 46.4239 4.54094 2.66658 0
M  V30 447 H 48.9149 3.44441 1.55464 0
M  V30 448 H 49.2279 7.2779 2.59887 0
M  V30 449 H 47.5729 6.54287 2.34378 0
M  V30 450 H 50.7639 4.30051 1.84861 0
M  V30 451 H 50.9369 6.04854 2.325 0
M  V30 452 N 44.343 -0.763751 1.37857 0
M  V30 453 C 45.276 -1.88486 1.28639 0
M  V30 454 C 46.254 -1.61757 0.165363 0
M  V30 455 O 47.438 -1.85391 0.340948 0
M  V30 456 C 44.565 -3.23884 0.990811 0
M  V30 457 C 43.611 -3.69514 2.12983 0
M  V30 458 S 44.444 -3.82244 3.75033 0
M  V30 459 C 45.6 -5.20477 3.47641 0
M  V30 460 H 45.833 -1.96017 2.23527 0
M  V30 461 H 43.366 -0.925684 1.23574 0
M  V30 462 H 45.324 -4.02081 0.827101 0
M  V30 463 H 43.985 -3.14044 0.0592832 0
M  V30 464 H 43.178 -4.67696 1.87821 0
M  V30 465 H 42.78 -2.98441 2.25408 0
M  V30 466 H 45.072 -6.05905 3.03125 0
M  V30 467 H 46.015 -5.50655 4.4518 0
M  V30 468 H 46.423 -4.88793 2.82385 0
M  V30 469 N 45.8211 -1.22559 -0.990812 0
M  V30 470 C 46.7681 -0.997519 -2.0813 0
M  V30 471 C 47.7381 0.0814702 -1.659 0
M  V30 472 O 48.9231 -0.0685424 -1.90677 0
M  V30 473 C 46.0631 -0.583615 -3.40129 0
M  V30 474 C 45.1761 -1.7336 -3.9569 0
M  V30 475 C 44.3111 -1.26748 -5.15857 0
M  V30 476 C 43.3501 -2.38888 -5.63559 0
M  V30 477 N 42.4871 -1.93308 -6.74964 0
M  V30 478 H 47.3271 -1.93099 -2.26973 0
M  V30 479 H 44.8641 -0.962114 -1.11273 0
M  V30 480 H 46.8221 -0.324801 -4.15934 0
M  V30 481 H 45.4521 0.312845 -3.2128 0
M  V30 482 H 44.5041 -2.10669 -3.16738 0
M  V30 483 H 45.8161 -2.57704 -4.27071 0
M  V30 484 H 44.9701 -0.966173 -5.98957 0
M  V30 485 H 43.7091 -0.394272 -4.86104 0
M  V30 486 H 42.7141 -2.69805 -4.79046 0
M  V30 487 H 43.9391 -3.26728 -5.95336 0
M  V30 488 H 41.8851 -1.08352 -6.4699 0
M  V30 489 H 41.8021 -2.71217 -7.05675 0
M  V30 490 H 43.0701 -1.66252 -7.61564 0
M  V30 491 N 47.2992 1.18797 -1.03562 0
M  V30 492 C 48.5472 1.88278 -0.734569 0
M  V30 493 C 48.8682 1.8043 0.739586 0
M  V30 494 O 48.1382 1.21925 1.53333 0
M  V30 495 H 46.7182 0.696991 -0.268725 0
M  V30 496 H 49.3802 1.44192 -1.31129 0
M  V30 497 H 48.4762 2.94443 -1.03489 0
M  V30 498 N 48.7773 0.814389 1.34928 0
M  V30 499 C 50.0543 0.321363 1.92942 0
M  V30 500 C 50.4343 -1.19014 1.74353 0
M  V30 501 O 49.7823 -1.99328 1.11716 0
M  V30 502 C 49.9923 0.741323 3.41036 0
M  V30 503 C 51.3403 0.735266 4.18185 0
M  V30 504 O 52.3643 0.68336 3.49584 0
M  V30 505 O 51.2233 0.800703 5.40602 0
M  V30 506 H 48.3173 0.0858893 0.822528 0
M  V30 507 H 50.8633 0.898609 1.43955 0
M  V30 508 H 49.6353 1.78276 3.4833 0
M  V30 509 H 49.2583 0.139307 3.97356 0
M  V30 510 N 50.2554 -1.46986 0.568584 0
M  V30 511 C 51.4854 -2.0653 0.0539173 0
M  V30 512 C 51.8934 -1.42004 -1.25026 0
M  V30 513 O 51.2364 -0.514541 -1.76347 0
M  V30 514 C 51.2984 -3.58938 -0.200854 0
M  V30 515 C 50.9624 -4.45572 1.01559 0
M  V30 516 C 51.9594 -4.82986 1.92407 0
M  V30 517 C 49.6444 -4.8692 1.23346 0
M  V30 518 C 51.6384 -5.60559 3.03402 0
M  V30 519 C 49.3254 -5.64255 2.34649 0
M  V30 520 C 50.3234 -6.00986 3.24507 0
M  V30 521 O 50.0114 -6.76761 4.33878 0
M  V30 522 H 49.7434 -0.674292 0.0480234 0
M  V30 523 H 52.2974 -1.89812 0.784896 0
M  V30 524 H 50.5274 -3.73911 -0.986279 0
M  V30 525 H 52.2164 -4.0046 -0.662294 0
M  V30 526 H 52.9824 -4.51633 1.76785 0
M  V30 527 H 48.8614 -4.57789 0.543178 0
M  V30 528 H 52.4054 -5.89147 3.73565 0
M  V30 529 H 48.3024 -5.95021 2.5024 0
M  V30 530 H 49.0704 -6.95168 4.32068 0
M  V30 531 N 51.7335 -0.305618 -1.54608 0
M  V30 532 C 52.9795 0.302746 -2.00528 0
M  V30 533 C 53.3125 1.53184 -1.19367 0
M  V30 534 O 52.5875 1.92598 -0.271321 0
M  V30 535 C 52.8705 0.654756 -3.54097 0
M  V30 536 C 52.7235 -0.583793 -4.45995 0
M  V30 537 C 54.0425 1.47947 -4.14487 0
M  V30 538 H 51.1615 0.108564 -0.72896 0
M  V30 539 H 53.8035 -0.418634 -1.85331 0
M  V30 540 H 51.9535 1.26935 -3.67178 0
M  V30 541 H 53.6255 -1.22224 -4.44814 0
M  V30 542 H 51.8685 -1.21615 -4.16404 0
M  V30 543 H 52.5395 -0.293287 -5.5122 0
M  V30 544 H 55.0155 0.96013 -4.04871 0
M  V30 545 H 53.8915 1.69454 -5.22088 0
M  V30 546 H 54.1525 2.47011 -3.66658 0
M  V30 547 N 53.2116 1.57565 -0.0334293 0
M  V30 548 C 54.1416 2.13511 0.945265 0
M  V30 549 C 55.1226 1.05231 1.33643 0
M  V30 550 O 56.3076 1.33084 1.41429 0
M  V30 551 C 53.4376 2.6657 2.22616 0
M  V30 552 C 52.3916 3.79676 1.97561 0
M  V30 553 C 51.7176 4.1918 3.31952 0
M  V30 554 C 53.0176 5.0557 1.31135 0
M  V30 555 H 54.7116 2.95538 0.479325 0
M  V30 556 H 52.2576 1.42166 0.229115 0
M  V30 557 H 54.2106 3.04344 2.91466 0
M  V30 558 H 52.9346 1.8171 2.71384 0
M  V30 559 H 51.5936 3.42347 1.31127 0
M  V30 560 H 51.2416 3.31296 3.78487 0
M  V30 561 H 50.9416 4.95402 3.15992 0
M  V30 562 H 52.4656 4.59541 4.02063 0
M  V30 563 H 53.8796 5.40903 1.89992 0
M  V30 564 H 52.2766 5.86818 1.25559 0
M  V30 565 H 53.3466 4.84062 0.284894 0
M  V30 566 N 54.6897 -0.239769 1.55765 0
M  V30 567 C 55.9377 -0.964892 1.77579 0
M  V30 568 C 56.2587 -1.85582 0.598699 0
M  V30 569 O 55.5287 -1.92075 -0.385226 0
M  V30 570 H 54.1087 -0.359265 0.654933 0
M  V30 571 H 56.7707 -0.256001 1.93211 0
M  V30 572 H 55.8667 -1.58243 2.69009 0
M  V30 573 N 56.1678 -1.49265 -0.50573 0
M  V30 574 C 57.4158 -1.582 -1.25766 0
M  V30 575 C 57.7368 -0.268482 -1.93143 0
M  V30 576 O 57.0068 0.711833 -1.8251 0
M  V30 577 H 55.5868 -0.582873 -0.467191 0
M  V30 578 H 58.2488 -1.85865 -0.586525 0
M  V30 579 H 57.3448 -2.37563 -2.02412 0
M  V30 580 N 57.6459 0.756429 -1.3826 0
M  V30 581 C 58.5759 1.88374 -1.37976 0
M  V30 582 C 59.5569 1.68311 -0.246082 0
M  V30 583 O 60.7419 1.88944 -0.44874 0
M  V30 584 C 57.8719 3.25864 -1.20125 0
M  V30 585 C 56.8259 3.60523 -2.30666 0
M  V30 586 C 56.1519 4.9672 -1.97923 0
M  V30 587 C 57.4519 3.65692 -3.72916 0
M  V30 588 H 59.1459 1.88869 -2.32312 0
M  V30 589 H 56.6919 0.907272 -1.11824 0
M  V30 590 H 58.6449 4.0438 -1.18552 0
M  V30 591 H 57.3689 3.25841 -0.222498 0
M  V30 592 H 56.0279 2.84324 -2.3142 0
M  V30 593 H 55.6759 4.93253 -0.985393 0
M  V30 594 H 55.3759 5.20878 -2.71955 0
M  V30 595 H 56.8999 5.77618 -1.97964 0
M  V30 596 H 58.3139 4.34328 -3.74208 0
M  V30 597 H 56.7109 4.01358 -4.4613 0
M  V30 598 H 57.7809 2.65987 -4.05436 0
M  V30 599 N 59.124 1.23083 0.984299 0
M  V30 600 C 60.371 1.06057 1.72505 0
M  V30 601 C 60.699 -0.403105 1.90277 0
M  V30 602 O 59.954 -1.3149 1.44944 0
M  V30 603 C 60.253 1.72673 3.1292 0
M  V30 604 C 59.919 3.22586 3.15038 0
M  V30 605 C 58.581 3.63489 3.15324 0
M  V30 606 C 60.933 4.185 3.10657 0
M  V30 607 C 58.261 4.98772 3.08939 0
M  V30 608 C 60.613 5.53769 3.05814 0
M  V30 609 C 59.277 5.94041 3.04419 0
M  V30 610 H 58.547 0.388091 0.631242 0
M  V30 611 H 61.194 1.52963 1.15215 0
M  V30 612 H 59.499 1.18116 3.73572 0
M  V30 613 H 61.196 1.56982 3.68996 0
M  V30 614 H 57.786 2.90022 3.15571 0
M  V30 615 H 61.97 3.87911 3.09579 0
M  V30 616 H 57.226 5.29193 3.0621 0
M  V30 617 H 61.4 6.27808 3.0138 0
M  V30 618 H 59.027 6.98833 2.99227 0
M  V30 619 N 60.6021 -1.18246 1.0419 0
M  V30 620 C 62.0131 -1.69914 0.773698 0
M  V30 621 C 62.3641 -1.83085 -0.705297 0
M  V30 622 O 61.4891 -1.51123 -1.5489 0
M  V30 623 C 62.0841 -3.08619 1.39784 0
M  V30 624 C 60.6431 -3.57494 1.17792 0
M  V30 625 C 59.7901 -2.34013 1.48773 0
M  V30 626 H 62.7411 -1.02904 1.20816 0
M  V30 627 H 62.7621 -3.71958 0.801714 0
M  V30 628 H 62.2741 -2.99001 2.47426 0
M  V30 629 H 60.3751 -3.72406 0.120295 0
M  V30 630 H 60.4881 -4.40852 1.87581 0
M  V30 631 H 58.8521 -2.37986 0.907463 0
M  V30 632 H 59.6351 -2.27013 2.57527 0
M  V30 633 N 62.0802 -0.821533 -1.34494 0
M  V30 634 C 63.0102 -0.257138 -2.3208 0
M  V30 635 C 63.9912 0.625645 -1.58176 0
M  V30 636 O 65.1762 0.552811 -1.86166 0
M  V30 637 C 62.3062 0.582958 -3.42372 0
M  V30 638 C 61.2602 -0.202571 -4.2752 0
M  V30 639 C 60.5862 0.760179 -5.29269 0
M  V30 640 C 61.8862 -1.40998 -5.02908 0
M  V30 641 H 63.5802 -1.07247 -2.79532 0
M  V30 642 H 61.1262 -0.517163 -1.34393 0
M  V30 643 H 63.0792 0.987972 -4.09655 0
M  V30 644 H 61.8032 1.43133 -2.93565 0
M  V30 645 H 60.4622 -0.588936 -3.61838 0
M  V30 646 H 60.1102 1.60447 -4.76724 0
M  V30 647 H 59.8102 0.238809 -5.87115 0
M  V30 648 H 61.3342 1.16308 -5.9942 0
M  V30 649 H 62.7482 -1.07905 -5.63054 0
M  V30 650 H 61.1452 -1.86689 -5.70322 0
M  V30 651 H 62.2152 -2.1889 -4.32684 0
M  V30 652 N 63.5583 1.46682 -0.576371 0
M  V30 653 C 64.8063 2.02013 -0.0594163 0
M  V30 654 C 65.1273 1.45101 1.30271 0
M  V30 655 O 64.3973 0.633317 1.8538 0
M  V30 656 H 62.9773 0.746759 -0.0189745 0
M  V30 657 H 65.6393 1.79862 -0.750717 0
M  V30 658 H 64.7353 3.12097 0.014345 0
M  V30 659 N 65.0364 0.313813 1.54444 0
M  V30 660 C 65.9464 -0.565714 2.27677 0
M  V30 661 C 66.9624 -1.13754 1.31666 0
M  V30 662 O 68.1384 -1.15959 1.64668 0
M  V30 663 C 65.2034 -1.71528 3.01296 0
M  V30 664 C 64.2644 -1.17624 4.12872 0
M  V30 665 C 63.4974 -2.27102 4.8297 0
M  V30 666 O 63.7204 -3.47256 4.52514 0
M  V30 667 O 62.6544 -1.9307 5.70094 0
M  V30 668 H 66.4804 0.0287296 3.03686 0
M  V30 669 H 64.0654 0.0798312 1.49187 0
M  V30 670 H 65.9474 -2.38476 3.4743 0
M  V30 671 H 64.6224 -2.29608 2.2817 0
M  V30 672 H 63.5294 -0.472124 3.71109 0
M  V30 673 H 64.8624 -0.640695 4.88012 0
M  V30 674 N 66.5145 -1.57545 0.0417849 0
M  V30 675 C 67.4775 -2.09885 -0.92093 0
M  V30 676 C 68.4775 -1.01648 -1.24596 0
M  V30 677 O 69.6675 -1.27759 -1.1842 0
M  V30 678 C 66.7995 -2.57527 -2.23367 0
M  V30 679 H 67.9925 -2.96236 -0.467382 0
M  V30 680 H 65.5455 -1.5493 -0.206467 0
M  V30 681 H 66.2805 -1.74542 -2.73323 0
M  V30 682 H 66.0655 -3.36613 -2.01083 0
M  V30 683 H 67.5555 -2.98201 -2.92346 0
M  V30 684 N 67.9926 0.231505 -1.5589 0
M  V30 685 C 68.9026 1.308 -1.94752 0
M  V30 686 C 69.9186 1.51826 -0.849989 0
M  V30 687 O 71.0946 1.6515 -1.15271 0
M  V30 688 C 68.1596 2.63968 -2.24771 0
M  V30 689 C 67.2206 2.51331 -3.48039 0
M  V30 690 C 66.4536 3.78148 -3.76616 0
M  V30 691 O 66.6766 4.80722 -3.07022 0
M  V30 692 O 65.6106 3.75857 -4.70123 0
M  V30 693 H 69.4366 1.0083 -2.86474 0
M  V30 694 H 67.0216 0.433547 -1.42971 0
M  V30 695 H 68.9036 3.42633 -2.45318 0
M  V30 696 H 67.5786 2.9364 -1.36225 0
M  V30 697 H 66.4856 1.709 -3.32782 0
M  V30 698 H 67.8186 2.26601 -4.36936 0
M  V30 699 N 69.4707 1.49531 0.497807 0
M  V30 700 C 70.3807 1.69176 1.62532 0
M  V30 701 C 71.3967 0.5744 1.64246 0
M  V30 702 O 72.5727 0.849497 1.82608 0
M  V30 703 C 69.6377 1.75695 2.98885 0
M  V30 704 C 68.6987 2.9929 3.07773 0
M  V30 705 C 67.9317 3.05488 4.37622 0
M  V30 706 O 68.1547 2.19192 5.26603 0
M  V30 707 O 67.0887 3.9798 4.51548 0
M  V30 708 H 70.9147 2.647 1.48887 0
M  V30 709 H 68.4997 1.3331 0.674441 0
M  V30 710 H 70.3817 1.82317 3.79919 0
M  V30 711 H 69.0567 0.8335 3.12785 0
M  V30 712 H 67.9637 2.98183 2.25915 0
M  V30 713 H 69.2967 3.91125 2.98801 0
M  V30 714 N 70.9488 -0.749086 1.3866 0
M  V30 715 C 71.9118 -1.84457 1.36045 0
M  V30 716 C 72.9118 -1.58682 0.260122 0
M  V30 717 O 74.1018 -1.66343 0.517261 0
M  V30 718 C 71.2338 -3.22008 1.11911 0
M  V30 719 H 72.4268 -1.88182 2.33512 0
M  V30 720 H 69.9798 -0.951266 1.24019 0
M  V30 721 H 70.7148 -3.2395 0.150686 0
M  V30 722 H 70.4998 -3.42111 1.91579 0
M  V30 723 H 71.9898 -4.0208 1.12788 0
M  V30 724 N 72.4269 -1.23603 -0.977757 0
M  V30 725 C 73.6749 -1.06759 -1.71601 0
M  V30 726 C 73.9959 0.395929 -1.90938 0
M  V30 727 O 73.2659 1.28356 -1.47992 0
M  V30 728 H 71.8459 -0.392062 -0.635843 0
M  V30 729 H 74.5079 -1.55362 -1.1768 0
M  V30 730 H 73.6039 -1.55763 -2.70452 0
M  V30 731 N 73.905 1.17692 -1.04816 0
M  V30 732 C 74.835 2.23777 -0.666791 0
M  V30 733 C 75.816 1.66796 0.33361 0
M  V30 734 O 77.001 1.93039 0.212042 0
M  V30 735 C 74.131 3.47281 -0.0367933 0
M  V30 736 C 73.085 4.17059 -0.961546 0
M  V30 737 C 72.411 5.34342 -0.195626 0
M  V30 738 C 73.711 4.69713 -2.28402 0
M  V30 739 H 75.405 2.55933 -1.55367 0
M  V30 740 H 72.951 1.23019 -0.748484 0
M  V30 741 H 74.904 4.20706 0.241775 0
M  V30 742 H 73.628 3.14381 0.885004 0
M  V30 743 H 72.287 3.45541 -1.22462 0
M  V30 744 H 71.935 4.97692 0.728816 0
M  V30 745 H 71.635 5.81966 -0.811775 0
M  V30 746 H 73.159 6.10553 0.0757473 0
M  V30 747 H 74.573 5.34794 -2.06563 0
M  V30 748 H 72.97 5.279 -2.8538 0
M  V30 749 H 74.04 3.86726 -2.92525 0
M  V30 750 N 75.3831 0.828654 1.34056 0
M  V30 751 C 76.7991 0.515135 1.51058 0
M  V30 752 C 76.9991 -0.959581 1.77184 0
M  V30 753 O 76.0551 -1.74382 1.82612 0
M  V30 754 C 77.3681 1.37963 2.67183 0
M  V30 755 C 78.9161 1.37735 2.81066 0
M  V30 756 C 79.3911 2.22645 4.00241 0
M  V30 757 N 80.8821 2.203 4.07458 0
M  V30 758 C 81.6171 2.82744 4.98842 0
M  V30 759 N 81.1131 3.54201 5.9541 0
M  V30 760 N 82.9061 2.72268 4.91759 0
M  V30 761 H 75.0571 1.78343 1.15358 0
M  V30 762 H 77.3201 0.760304 0.566252 0
M  V30 763 H 77.0261 2.42714 2.54525 0
M  V30 764 H 76.9001 1.0484 3.62338 0
M  V30 765 H 79.2871 0.337593 2.93163 0
M  V30 766 H 79.3681 1.74859 1.86703 0
M  V30 767 H 79.0121 3.26674 3.88905 0
M  V30 768 H 78.9421 1.82869 4.93829 0
M  V30 769 H 81.4331 1.68327 3.38341 0
M  V30 770 H 81.7461 3.9908 6.61782 0
M  V30 771 H 80.0911 3.58308 5.95517 0
M  V30 772 H 83.2821 2.16014 4.15278 0
M  V30 773 H 83.4551 3.21219 5.62781 0
M  V30 774 N 76.8612 -1.46375 0.584142 0
M  V30 775 C 78.0862 -2.07268 0.0740405 0
M  V30 776 C 78.5112 -1.42979 -1.22223 0
M  V30 777 O 77.8692 -0.514092 -1.73859 0
M  V30 778 C 77.9172 -3.60518 -0.0767769 0
M  V30 779 O 77.0212 -3.96533 -1.13292 0
M  V30 780 H 76.3622 -0.660961 0.0634524 0
M  V30 781 H 78.8922 -1.87991 0.807492 0
M  V30 782 H 78.9022 -4.07021 -0.282489 0
M  V30 783 H 77.5772 -4.06702 0.86986 0
M  V30 784 H 76.1542 -3.61738 -0.905553 0
M  V30 785 N 78.3393 -0.321999 -1.54275 0
M  V30 786 C 79.7553 0.0306999 -1.5957 0
M  V30 787 C 79.9553 1.50614 -1.33857 0
M  V30 788 O 79.0113 2.2619 -1.12223 0
M  V30 789 C 80.3243 -0.386122 -2.98211 0
M  V30 790 C 81.8723 -0.336647 -3.11184 0
M  V30 791 C 82.3473 -0.728607 -4.52167 0
M  V30 792 N 83.8383 -0.681952 -4.58152 0
M  V30 793 C 84.5733 -0.957449 -5.6535 0
M  V30 794 N 84.0693 -1.3 -6.80494 0
M  V30 795 N 85.8623 -0.883113 -5.55119 0
M  V30 796 H 78.0133 -1.28332 -1.69247 0
M  V30 797 H 80.2763 -0.521716 -0.791528 0
M  V30 798 H 79.9823 -1.41404 -3.22022 0
M  V30 799 H 79.8563 0.249662 -3.76373 0
M  V30 800 H 82.2433 0.682058 -2.8711 0
M  V30 801 H 82.3243 -1.00734 -2.3513 0
M  V30 802 H 81.9683 -1.74522 -4.76974 0
M  V30 803 H 81.8983 -0.0356152 -5.26588 0
M  V30 804 H 84.3893 -0.428985 -3.75457 0
M  V30 805 H 84.7023 -1.49563 -7.58189 0
M  V30 806 H 83.0473 -1.33824 -6.81994 0
M  V30 807 H 86.2383 -0.615001 -4.64042 0
M  V30 808 H 86.4113 -1.10118 -6.38575 0
M  V30 809 N 79.8174 1.5752 -0.0501392 0
M  V30 810 C 81.0454 1.96963 0.633492 0
M  V30 811 C 81.4604 0.927631 1.6444 0
M  V30 812 O 80.8174 -0.0882665 1.82286 0
M  V30 813 C 80.8684 3.36487 1.32132 0
M  V30 814 O 80.5894 4.36693 0.350894 0
M  V30 815 C 82.0904 3.90682 2.09481 0
M  V30 816 H 79.3104 0.648244 0.173266 0
M  V30 817 H 81.8544 2.0417 -0.116134 0
M  V30 818 H 80.0094 3.30434 2.02218 0
M  V30 819 H 80.4234 5.17702 0.841735 0
M  V30 820 H 81.8974 4.90591 2.5303 0
M  V30 821 H 82.3744 3.26053 2.94255 0
M  V30 822 H 82.9804 4.00069 1.44307 0
M  V30 823 N 81.2955 -0.223234 1.56011 0
M  V30 824 C 82.7115 -0.572856 1.48965 0
M  V30 825 C 82.9115 -1.87225 0.74492 0
M  V30 826 O 81.9675 -2.50899 0.283896 0
M  V30 827 C 83.2805 -0.653646 2.9351 0
M  V30 828 C 84.8285 -0.744386 3.0402 0
M  V30 829 C 85.3035 -0.856535 4.49919 0
M  V30 830 N 86.7945 -0.9208 4.53955 0
M  V30 831 C 87.5295 -1.02726 5.64123 0
M  V30 832 N 87.0255 -1.09777 6.84047 0
M  V30 833 N 88.8185 -1.06226 5.51971 0
M  V30 834 H 80.9695 0.629462 2.02858 0
M  V30 835 H 83.2325 0.220621 0.921971 0
M  V30 836 H 82.9385 0.231518 3.50937 0
M  V30 837 H 82.8125 -1.51781 3.45315 0
M  V30 838 H 85.1995 -1.61999 2.46658 0
M  V30 839 H 85.2805 0.14541 2.55386 0
M  V30 840 H 84.9245 0.0146069 5.07898 0
M  V30 841 H 84.8545 -1.76172 4.96257 0
M  V30 842 H 87.3455 -0.876694 3.6759 0
M  V30 843 H 87.6585 -1.17872 7.63758 0
M  V30 844 H 86.0035 -1.06693 6.86762 0
M  V30 845 H 89.1945 -1.00382 4.5721 0
M  V30 846 H 89.3675 -1.14177 6.37862 0
M  V30 847 N 82.7736 -1.49793 -0.48987 0
M  V30 848 C 84.1846 -1.52914 -1.07118 0
M  V30 849 C 84.5356 -0.321738 -1.93544 0
M  V30 850 O 83.6606 0.567338 -2.08831 0
M  V30 851 C 84.2556 -2.771 -1.94938 0
M  V30 852 C 82.8146 -2.82963 -2.48212 0
M  V30 853 C 81.9616 -2.46972 -1.26096 0
M  V30 854 H 84.9126 -1.56329 -0.273289 0
M  V30 855 H 84.9336 -2.57892 -2.79771 0
M  V30 856 H 84.4456 -3.64959 -1.32009 0
M  V30 857 H 82.5466 -1.99411 -3.14748 0
M  V30 858 H 82.6596 -3.85406 -2.84603 0
M  V30 859 H 81.0236 -1.98994 -1.58976 0
M  V30 860 H 81.8066 -3.37118 -0.648581 0
M  V30 861 N 84.2517 0.741722 -1.39055 0
M  V30 862 C 85.4767 1.53607 -1.39354 0
M  V30 863 C 85.9017 1.88096 0.0116905 0
M  V30 864 O 85.2597 1.5143 0.996924 0
M  V30 865 C 85.3077 2.80441 -2.26682 0
M  V30 866 O 84.4117 3.76088 -1.69208 0
M  V30 867 H 83.7527 0.464142 -0.474835 0
M  V30 868 H 86.2827 0.915665 -1.82967 0
M  V30 869 H 86.2927 3.29246 -2.40959 0
M  V30 870 H 84.9677 2.5467 -3.2881 0
M  V30 871 H 83.5447 3.34833 -1.64138 0
M  V30 872 N 85.7298 1.2412 0.971189 0
M  V30 873 C 86.9548 1.10667 1.75407 0
M  V30 874 C 87.3798 -0.337048 1.85056 0
M  V30 875 O 86.7378 -1.24396 1.31892 0
M  V30 876 C 86.7858 1.74726 3.15441 0
M  V30 877 O 85.8898 1.01566 3.99697 0
M  V30 878 H 85.2308 0.387341 0.539317 0
M  V30 879 H 87.7608 1.64358 1.2185 0
M  V30 880 H 87.7708 1.80341 3.6598 0
M  V30 881 H 86.4458 2.79773 3.07734 0
M  V30 882 H 85.0228 1.03713 3.58187 0
M  V30 883 N 87.2079 -1.17134 1.05439 0
M  V30 884 C 88.6189 -1.69084 0.791676 0
M  V30 885 C 88.9699 -1.83822 -0.685839 0
M  V30 886 O 88.0949 -1.52757 -1.53278 0
M  V30 887 C 88.6899 -3.07119 1.4305 0
M  V30 888 C 87.2489 -3.56225 1.21577 0
M  V30 889 C 86.3959 -2.32421 1.51247 0
M  V30 890 H 89.3469 -1.01617 1.219 0
M  V30 891 H 89.3679 -3.71087 0.84112 0
M  V30 892 H 88.8799 -2.9636 2.50584 0
M  V30 893 H 86.9809 -3.72257 0.159787 0
M  V30 894 H 87.0939 -4.38837 1.92246 0
M  V30 895 H 85.4579 -2.3701 0.932653 0
M  V30 896 H 86.2409 -2.24268 2.5992 0
M  V30 897 N 88.686 -0.835752 -1.33615 0
M  V30 898 C 89.932 -0.430596 -1.98176 0
M  V30 899 C 90.265 1.00684 -1.66061 0
M  V30 900 O 89.54 1.70339 -0.938877 0
M  V30 901 C 89.823 -0.648065 -3.5422 0
M  V30 902 C 89.676 -2.13255 -3.96033 0
M  V30 903 C 90.995 -0.0922113 -4.40003 0
M  V30 904 H 88.114 -0.157924 -0.719881 0
M  V30 905 H 90.756 -1.05069 -1.58305 0
M  V30 906 H 88.906 -0.120237 -3.88314 0
M  V30 907 H 90.578 -2.725 -3.72211 0
M  V30 908 H 88.821 -2.61823 -3.45878 0
M  V30 909 H 89.492 -2.23547 -5.04708 0
M  V30 910 H 91.968 -0.543343 -4.12537 0
M  V30 911 H 90.844 -0.274083 -5.48215 0
M  V30 912 H 91.105 1.00378 -4.30554 0
M  V30 913 N 90.1641 1.46063 -0.591896 0
M  V30 914 C 91.4041 2.04228 -0.0838014 0
M  V30 915 C 91.7681 1.45231 1.25587 0
M  V30 916 O 92.9691 1.94653 1.85375 0
M  V30 917 C 91.2401 3.57389 -0.0286282 0
M  V30 918 S 92.7991 4.3678 0.420557 0
M  V30 919 H 89.6171 0.709762 -0.0419319 0
M  V30 920 H 92.2191 1.78983 -0.786465 0
M  V30 921 H 90.9231 3.97843 -1.00743 0
M  V30 922 H 90.4541 3.87185 0.69652 0
M  V30 923 H 92.4691 4.67131 1.67341 0
M  V30 924 N 91.6422 0.330177 1.54103 0
M  V30 925 C 92.8702 -0.272179 2.05102 0
M  V30 926 C 93.2852 -1.45267 1.20595 0
M  V30 927 O 92.6422 -1.8094 0.238144 0
M  V30 928 C 92.6932 -0.70023 3.54653 0
M  V30 929 O 92.4142 0.433301 4.35952 0
M  V30 930 C 93.9152 -1.3647 4.21771 0
M  V30 931 H 91.1352 -0.0549159 0.668749 0
M  V30 932 H 93.6792 0.478285 1.98828 0
M  V30 933 H 91.8342 -1.40066 3.61193 0
M  V30 934 H 92.2482 0.0947539 5.24414 0
M  V30 935 H 93.7222 -1.61509 5.27843 0
M  V30 936 H 94.1992 -2.31409 3.73292 0
M  V30 937 H 94.8052 -0.706675 4.19388 0
M  V30 938 N 93.1203 -1.57491 0.0584922 0
M  V30 939 C 94.5363 -1.56792 -0.298091 0
M  V30 940 C 94.7363 -1.06679 -1.70944 0
M  V30 941 O 93.7923 -0.726672 -2.41818 0
M  V30 942 C 95.1053 -3.00461 -0.119879 0
M  V30 943 C 96.6533 -3.1242 -0.190428 0
M  V30 944 C 97.1283 -4.57982 -0.0406567 0
M  V30 945 N 98.6193 -4.63099 -0.0966958 0
M  V30 946 C 99.3543 -5.734 -0.00502943 0
M  V30 947 N 98.8503 -6.9266 0.139402 0
M  V30 948 N 100.643 -5.62067 -0.0611391 0
M  V30 949 H 92.7943 -1.88386 0.98105 0
M  V30 950 H 95.0573 -0.867865 0.381463 0
M  V30 951 H 94.7633 -3.41187 0.85349 0
M  V30 952 H 94.6373 -3.66843 -0.877833 0
M  V30 953 H 97.0243 -2.71589 -1.15427 0
M  V30 954 H 97.1053 -2.48702 0.598405 0
M  V30 955 H 96.7493 -4.995 0.919897 0
M  V30 956 H 96.6793 -5.19715 -0.848727 0
M  V30 957 H 99.1703 -3.77331 -0.207277 0
M  V30 958 H 99.4833 -7.72536 0.201855 0
M  V30 959 H 97.8283 -6.94781 0.174586 0
M  V30 960 H 101.019 -4.67782 -0.172583 0
M  V30 961 H 101.192 -6.47999 0.0137562 0
M  V30 962 N 94.5984 0.214957 -1.56127 0
M  V30 963 C 95.8454 0.938372 -1.79446 0
M  V30 964 C 96.1734 1.8407 -0.628378 0
M  V30 965 O 95.4284 1.91837 0.386925 0
M  V30 966 C 95.7274 1.80314 -3.0858 0
M  V30 967 C 95.3934 1.05349 -4.3842 0
M  V30 968 C 94.0554 0.846435 -4.73697 0
M  V30 969 C 96.4074 0.524588 -5.18553 0
M  V30 970 C 93.7354 0.098683 -5.86617 0
M  V30 971 C 96.0874 -0.209853 -6.32252 0
M  V30 972 C 94.7514 -0.428102 -6.66126 0
M  V30 973 H 94.0214 0.343375 -0.656639 0
M  V30 974 H 96.6684 0.206077 -1.90388 0
M  V30 975 H 94.9734 2.6035 -2.92789 0
M  V30 976 H 96.6704 2.36513 -3.23825 0
M  V30 977 H 93.2604 1.22486 -4.10725 0
M  V30 978 H 97.4444 0.672008 -4.91729 0
M  V30 979 H 92.7004 -0.0805753 -6.11347 0
M  V30 980 H 96.8744 -0.627157 -6.9357 0
M  V30 981 H 94.5014 -1.00944 -7.53468 0
M  V30 982 N 96.0765 1.50051 0.48192 0
M  V30 983 C 97.3015 1.64508 1.26301 0
M  V30 984 C 97.7265 0.323851 1.85291 0
M  V30 985 O 97.0845 -0.710969 1.66778 0
M  V30 986 C 97.1325 2.7305 2.35533 0
M  V30 987 O 96.2365 2.3355 3.39895 0
M  V30 988 H 95.5775 0.549978 0.372048 0
M  V30 989 H 98.1075 1.9636 0.574786 0
M  V30 990 H 98.1175 2.95799 2.8101 0
M  V30 991 H 96.7925 3.68946 1.91967 0
M  V30 992 H 95.3695 2.21205 3.00204 0
M  V30 993 N 97.5546 -0.734337 1.39446 0
M  V30 994 C 98.7796 -1.52866 1.40167 0
M  V30 995 C 99.2046 -1.881 -0.00171513 0
M  V30 996 O 98.5626 -1.51957 -0.988879 0
M  V30 997 C 98.6106 -2.79235 2.28167 0
M  V30 998 O 97.7146 -3.75185 1.71201 0
M  V30 999 H 97.0556 -0.461618 0.477289 0
M  V30 1000 H 99.5856 -0.905949 1.8345 0
M  V30 1001 H 99.5956 -3.27963 2.42702 0
M  V30 1002 H 98.2706 -2.52923 3.30156 0
M  V30 1003 H 96.8476 -3.33958 1.65912 0
M  V30 1004 N 99.0327 -1.24633 -0.964593 0
M  V30 1005 C 99.9807 -1.03917 -2.08096 0
M  V30 1006 C 100.975 0.0268581 -1.69379 0
M  V30 1007 O 102.181 -0.127952 -1.79545 0
M  V30 1008 H 98.5557 -0.319044 -0.680966 0
M  V30 1009 H 100.527 -1.98581 -2.22729 0
M  V30 1010 C 99.2757 -0.663983 -3.41301 0
M  V30 1011 H 98.5987 -1.47605 -3.71555 0
M  V30 1012 H 100.039 -0.558663 -4.20303 0
M  V30 1013 C 98.4977 0.629169 -3.30973 0
M  V30 1014 O 99.0277 1.67404 -3.65156 0
M  V30 1015 N 97.2337 0.611057 -2.84103 0
M  V30 1016 H 96.7807 -0.239593 -2.56483 0
M  V30 1017 H 96.7387 1.47647 -2.77575 0
M  V30 1018 N 100.511 1.16574 -1.06058 0
M  V30 1019 C 101.759 1.86677 -0.77434 0
M  V30 1020 C 102.08 1.81959 0.701147 0
M  V30 1021 O 101.35 1.2515 1.50713 0
M  V30 1022 H 99.9298 0.691134 -0.283449 0
M  V30 1023 H 102.592 1.41378 -1.34158 0
M  V30 1024 H 101.688 2.92181 -1.09711 0
M  V30 1025 N 101.989 0.842826 1.3317 0
M  V30 1026 C 102.919 0.294028 2.31641 0
M  V30 1027 C 103.9 -0.600401 1.59151 0
M  V30 1028 O 105.085 -0.523124 1.87022 0
M  V30 1029 C 102.215 -0.528416 3.43257 0
M  V30 1030 C 101.169 0.27056 4.27144 0
M  V30 1031 C 100.495 -0.675881 5.30411 0
M  V30 1032 C 101.795 1.48981 5.00602 0
M  V30 1033 H 103.489 1.11681 2.77791 0
M  V30 1034 H 101.035 0.538478 1.33553 0
M  V30 1035 H 102.988 -0.922674 4.11175 0
M  V30 1036 H 101.712 -1.38445 2.95805 0
M  V30 1037 H 100.371 0.646427 3.60856 0
M  V30 1038 H 100.019 -1.52842 4.79216 0
M  V30 1039 H 99.7189 -0.145374 5.8742 0
M  V30 1040 H 101.243 -1.06757 6.01195 0
M  V30 1041 H 102.657 1.16849 5.61266 0
M  V30 1042 H 101.054 1.95739 5.6728 0
M  V30 1043 H 102.124 2.25746 4.29147 0
M  V30 1044 N 103.467 -1.45747 0.599634 0
M  V30 1045 C 104.397 -2.33235 -0.111306 0
M  V30 1046 C 105.378 -1.46359 -0.866781 0
M  V30 1047 O 106.563 -1.75146 -0.838904 0
M  V30 1048 C 103.693 -3.28932 -1.11451 0
M  V30 1049 C 102.647 -4.25381 -0.472772 0
M  V30 1050 C 101.973 -5.1071 -1.58365 0
M  V30 1051 C 103.273 -5.18831 0.600948 0
M  V30 1052 H 104.967 -2.92927 0.61919 0
M  V30 1053 H 102.513 -1.40857 0.299215 0
M  V30 1054 H 104.466 -3.89002 -1.62036 0
M  V30 1055 H 103.19 -2.67381 -1.8755 0
M  V30 1056 H 101.849 -3.66598 0.0121472 0
M  V30 1057 H 101.497 -4.45533 -2.33473 0
M  V30 1058 H 101.197 -5.7604 -1.15982 0
M  V30 1059 H 102.721 -5.73647 -2.09194 0
M  V30 1060 H 104.135 -5.73019 0.179491 0
M  V30 1061 H 102.532 -5.92595 0.946076 0
M  V30 1062 H 103.602 -4.6174 1.48068 0
M  V30 1063 N 104.945 -0.338344 -1.53925 0
M  V30 1064 C 106.191 0.252842 -2.01822 0
M  V30 1065 C 106.546 1.48612 -1.22197 0
M  V30 1066 O 105.839 1.89238 -0.299892 0
M  V30 1067 C 106.033 0.62448 -3.51902 0
M  V30 1068 C 105.862 -0.571235 -4.46057 0
M  V30 1069 C 104.632 -1.07493 -4.93734 0
M  V30 1070 C 106.83 -1.42807 -4.94076 0
M  V30 1071 N 104.812 -2.23351 -5.71828 0
M  V30 1072 C 106.183 -2.43362 -5.70241 0
M  V30 1073 C 108.238 -1.45412 -4.76193 0
M  V30 1074 C 106.941 -3.46346 -6.30426 0
M  V30 1075 C 108.967 -2.47274 -5.37224 0
M  V30 1076 C 108.329 -3.46555 -6.13253 0
M  V30 1077 H 104.428 0.0559669 -0.779995 0
M  V30 1078 H 107.012 -0.476732 -1.88773 0
M  V30 1079 H 105.183 1.32317 -3.65167 0
M  V30 1080 H 106.915 1.19841 -3.86549 0
M  V30 1081 H 103.67 -0.643848 -4.69203 0
M  V30 1082 H 104.094 -2.81834 -6.15548 0
M  V30 1083 H 108.736 -0.700171 -4.16962 0
M  V30 1084 H 106.454 -4.22638 -6.88769 0
M  V30 1085 H 110.04 -2.50109 -5.25297 0
M  V30 1086 H 108.92 -4.24083 -6.59638 0
M  V30 1087 N 106.423 1.57458 -0.0668435 0
M  V30 1088 C 107.386 2.11323 0.887422 0
M  V30 1089 C 108.386 1.03618 1.22964 0
M  V30 1090 O 109.576 1.29626 1.16373 0
M  V30 1091 C 106.708 2.61048 2.19242 0
M  V30 1092 H 107.901 2.96942 0.420194 0
M  V30 1093 H 105.454 1.55239 0.181793 0
M  V30 1094 H 106.189 1.78868 2.70512 0
M  V30 1095 H 105.974 3.39769 1.95702 0
M  V30 1096 H 107.464 3.02814 2.87565 0
M  V30 1097 N 107.901 -0.206675 1.56239 0
M  V30 1098 C 108.831 -1.25909 1.96645 0
M  V30 1099 C 109.812 -1.48097 0.836734 0
M  V30 1100 O 110.997 -1.6003 1.10019 0
M  V30 1101 C 108.127 -2.6058 2.29599 0
M  V30 1102 C 107.081 -2.53024 3.452 0
M  V30 1103 C 106.407 -3.91861 3.63798 0
M  V30 1104 C 107.707 -2.06524 4.79734 0
M  V30 1105 H 109.401 -0.923369 2.84806 0
M  V30 1106 H 106.947 -0.442735 1.37025 0
M  V30 1107 H 108.9 -3.34375 2.56459 0
M  V30 1108 H 107.624 -2.95869 1.38307 0
M  V30 1109 H 106.283 -1.81684 3.18412 0
M  V30 1110 H 105.931 -4.24483 2.69857 0
M  V30 1111 H 105.631 -3.87683 4.4156 0
M  V30 1112 H 107.155 -4.67296 3.93022 0
M  V30 1113 H 108.569 -2.70072 5.05702 0
M  V30 1114 H 106.966 -2.13374 5.60885 0
M  V30 1115 H 108.036 -1.01802 4.74093 0
M  V30 1116 N 109.379 -1.50304 -0.473955 0
M  V30 1117 C 110.342 -1.6841 -1.55469 0
M  V30 1118 C 111.342 -0.554905 -1.50922 0
M  V30 1119 O 112.532 -0.821882 -1.53593 0
M  V30 1120 C 109.664 -1.70667 -2.95102 0
M  V30 1121 H 110.857 -2.64828 -1.40733 0
M  V30 1122 H 108.41 -1.39742 -0.700132 0
M  V30 1123 H 109.145 -0.75932 -3.15285 0
M  V30 1124 H 108.93 -2.52698 -2.9981 0
M  V30 1125 H 110.42 -1.8664 -3.73571 0
M  V30 1126 N 110.857 0.726932 -1.39834 0
M  V30 1127 C 111.79 1.8501 -1.33592 0
M  V30 1128 C 112.768 1.61262 -0.208191 0
M  V30 1129 O 113.952 1.84422 -0.389981 0
M  V30 1130 C 111.079 3.21143 -1.07633 0
M  V30 1131 C 110.125 3.63737 -2.22705 0
M  V30 1132 S 110.958 3.72167 -3.85035 0
M  V30 1133 C 112.114 5.11077 -3.61318 0
M  V30 1134 H 112.347 1.90022 -2.28646 0
M  V30 1135 H 109.88 0.892595 -1.25985 0
M  V30 1136 H 111.838 3.99747 -0.933415 0
M  V30 1137 H 110.499 3.13776 -0.142526 0
M  V30 1138 H 109.692 4.62551 -2.00155 0
M  V30 1139 H 109.294 2.9236 -2.33242 0
M  V30 1140 H 111.586 5.97656 -3.19083 0
M  V30 1141 H 112.529 5.38658 -4.59623 0
M  V30 1142 H 112.937 4.81135 -2.95245 0
M  V30 1143 N 112.336 1.25143 0.95797 0
M  V30 1144 C 113.283 1.05235 2.05412 0
M  V30 1145 C 114.253 -0.0374561 1.66058 0
M  V30 1146 O 115.438 0.119073 1.90428 0
M  V30 1147 C 112.578 0.673589 3.38462 0
M  V30 1148 C 111.691 1.8379 3.90954 0
M  V30 1149 C 110.826 1.40381 5.12315 0
M  V30 1150 C 109.865 2.53746 5.57027 0
M  V30 1151 N 109.002 2.11136 6.69601 0
M  V30 1152 H 113.842 1.99048 2.21774 0
M  V30 1153 H 111.379 0.991277 1.08683 0
M  V30 1154 H 113.337 0.434964 4.14926 0
M  V30 1155 H 111.967 -0.227554 3.21997 0
M  V30 1156 H 111.019 2.18992 3.11041 0
M  V30 1157 H 112.331 2.68937 4.20089 0
M  V30 1158 H 111.485 1.12464 5.96185 0
M  V30 1159 H 110.224 0.523015 4.84887 0
M  V30 1160 H 109.229 2.82412 4.71724 0
M  V30 1161 H 110.454 3.42398 5.86464 0
M  V30 1162 H 108.4 1.25468 6.4389 0
M  V30 1163 H 108.317 2.89832 6.98236 0
M  V30 1164 H 109.585 1.86385 7.56889 0
M  V30 1165 N 113.814 -1.1601 1.06675 0
M  V30 1166 C 114.747 -2.1947 0.625168 0
M  V30 1167 C 115.725 -1.58699 -0.354041 0
M  V30 1168 O 116.909 -1.86669 -0.262098 0
M  V30 1169 C 114.036 -3.38598 -0.0829593 0
M  V30 1170 C 113.082 -4.1787 0.853611 0
M  V30 1171 S 113.915 -4.81135 2.35094 0
M  V30 1172 C 115.071 -6.03639 1.65441 0
M  V30 1173 H 115.304 -2.56587 1.50168 0
M  V30 1174 H 112.837 -1.26862 0.880078 0
M  V30 1175 H 114.795 -4.07621 -0.485288 0
M  V30 1176 H 113.456 -2.99839 -0.935716 0
M  V30 1177 H 112.649 -5.03078 0.304755 0
M  V30 1178 H 112.251 -3.54361 1.196 0
M  V30 1179 H 114.543 -6.70632 0.962201 0
M  V30 1180 H 115.486 -6.63081 2.48454 0
M  V30 1181 H 115.894 -5.52965 1.13534 0
M  V30 1182 N 115.292 -0.849877 -1.32721 0
M  V30 1183 C 116.255 -0.296122 -2.27279 0
M  V30 1184 C 117.255 0.541458 -1.5141 0
M  V30 1185 O 118.445 0.353658 -1.70572 0
M  V30 1186 C 115.577 0.581579 -3.35902 0
M  V30 1187 H 116.77 -1.13064 -2.77771 0
M  V30 1188 H 114.323 -0.62383 -1.43311 0
M  V30 1189 H 115.058 1.43809 -2.9067 0
M  V30 1190 H 114.843 -0.0178814 -3.92096 0
M  V30 1191 H 116.333 0.961951 -4.0637 0
M  V30 1192 N 116.77 1.45427 -0.607355 0
M  V30 1193 C 118.016 2.0254 -0.102607 0
M  V30 1194 C 118.349 1.47478 1.26348 0
M  V30 1195 O 117.624 0.64939 1.83339 0
M  V30 1196 C 117.907 3.60044 -0.0634347 0
M  V30 1197 C 117.76 4.2544 -1.46017 0
M  V30 1198 C 119.079 4.35646 0.624514 0
M  V30 1199 H 116.198 0.73598 -0.0387607 0
M  V30 1200 H 118.84 1.73284 -0.779282 0
M  V30 1201 H 116.99 3.85101 0.512808 0
M  V30 1202 H 118.662 4.11569 -2.08347 0
M  V30 1203 H 116.905 3.83849 -2.02094 0
M  V30 1204 H 117.576 5.34342 -1.385 0
M  V30 1205 H 120.052 4.15882 0.134723 0
M  V30 1206 H 118.928 5.45376 0.621028 0
M  V30 1207 H 119.189 4.08501 1.69055 0
M  V30 1208 N 118.248 0.346503 1.53744 0
M  V30 1209 C 119.158 -0.517293 2.28826 0
M  V30 1210 C 120.174 -1.10935 1.3405 0
M  V30 1211 O 121.35 -1.1244 1.6709 0
M  V30 1212 C 118.415 -1.65098 3.04866 0
M  V30 1213 C 117.476 -1.0884 4.15274 0
M  V30 1214 C 116.709 -2.16806 4.87679 0
M  V30 1215 O 116.932 -3.3758 4.59778 0
M  V30 1216 O 115.866 -1.80934 5.74061 0
M  V30 1217 H 119.692 0.0931396 3.03557 0
M  V30 1218 H 117.277 0.111458 1.48984 0
M  V30 1219 H 119.159 -2.31053 3.5241 0
M  V30 1220 H 117.834 -2.24717 2.32989 0
M  V30 1221 H 116.741 -0.3933 3.72027 0
M  V30 1222 H 118.074 -0.537036 4.89261 0
M  V30 1223 N 119.726 -1.57421 0.075193 0
M  V30 1224 C 120.636 -2.1642 -0.905511 0
M  V30 1225 C 121.652 -1.12828 -1.32461 0
M  V30 1226 O 122.828 -1.45109 -1.39661 0
M  V30 1227 C 119.893 -2.71693 -2.15369 0
M  V30 1228 C 118.954 -3.90171 -1.79068 0
M  V30 1229 C 118.187 -4.42798 -2.97936 0
M  V30 1230 O 118.41 -3.94416 -4.12058 0
M  V30 1231 O 117.344 -5.34085 -2.77555 0
M  V30 1232 H 121.17 -3.00588 -0.433626 0
M  V30 1233 H 118.755 -1.48664 -0.148067 0
M  V30 1234 H 120.637 -3.07104 -2.88557 0
M  V30 1235 H 119.312 -1.90582 -2.61649 0
M  V30 1236 H 118.219 -3.59606 -1.03122 0
M  V30 1237 H 119.552 -4.72584 -1.37569 0
M  V30 1238 N 121.204 0.198386 -1.56346 0
M  V30 1239 C 122.453 0.917451 -1.79627 0
M  V30 1240 C 122.766 1.8456 -0.64784 0
M  V30 1241 O 123.972 2.60504 -0.764859 0
M  V30 1242 C 122.428 1.68175 -3.18191 0
M  V30 1243 C 122.036 0.798589 -4.40825 0
M  V30 1244 C 123.78 2.39065 -3.50782 0
M  V30 1245 C 121.687 1.56157 -5.70411 0
M  V30 1246 H 120.617 0.346317 -0.669762 0
M  V30 1247 H 123.268 0.170801 -1.82703 0
M  V30 1248 H 121.65 2.47216 -3.09354 0
M  V30 1249 H 122.824 0.0470665 -4.60776 0
M  V30 1250 H 121.139 0.200686 -4.15916 0
M  V30 1251 H 123.736 2.96692 -4.44835 0
M  V30 1252 H 124.079 3.13091 -2.74371 0
M  V30 1253 H 124.612 1.66993 -3.61052 0
M  V30 1254 H 121.351 0.864142 -6.49779 0
M  V30 1255 H 120.871 2.2871 -5.54483 0
M  V30 1256 H 122.55 2.11622 -6.11412 0
M  V30 1257 N 122.682 1.50554 0.465978 0
M  V30 1258 C 123.63 1.70324 1.58406 0
M  V30 1259 C 124.624 0.569139 1.59553 0
M  V30 1260 O 125.83 0.749776 1.63641 0
M  V30 1261 H 122.205 0.537688 0.525734 0
M  V30 1262 H 124.176 2.64104 1.38894 0
M  V30 1263 C 122.925 1.81928 2.96307 0
M  V30 1264 H 122.248 2.68586 2.96144 0
M  V30 1265 H 123.688 1.99784 3.73982 0
M  V30 1266 C 122.147 0.572095 3.32007 0
M  V30 1267 O 122.677 -0.286416 4.00678 0
M  V30 1268 N 120.883 0.424606 2.87481 0
M  V30 1269 H 120.43 1.12427 2.31771 0
M  V30 1270 H 120.388 -0.408697 3.11732 0
M  V30 1271 N 124.16 -0.719506 1.40217 0
M  V30 1272 C 125.108 -1.85493 1.40339 0
M  V30 1273 C 126.102 -1.66995 0.284415 0
M  V30 1274 O 127.308 -1.74148 0.455252 0
M  V30 1275 H 123.683 -0.610857 0.438586 0
M  V30 1276 H 125.654 -1.82506 2.36081 0
M  V30 1277 C 124.403 -3.23321 1.27901 0
M  V30 1278 H 123.726 -3.38159 2.1328 0
M  V30 1279 H 125.166 -4.02914 1.32045 0
M  V30 1280 C 123.625 -3.36898 -0.0111355 0
M  V30 1281 O 124.155 -3.89674 -0.975538 0
M  V30 1282 N 122.361 -2.90492 -0.0793393 0
M  V30 1283 H 121.908 -2.47731 0.706183 0
M  V30 1284 H 121.866 -2.99955 -0.942038 0
M  V30 1285 N 125.638 -1.25649 -0.95132 0
M  V30 1286 C 126.585 -1.06323 -2.04851 0
M  V30 1287 C 127.555 0.0286491 -1.66075 0
M  V30 1288 O 128.74 -0.12917 -1.90362 0
M  V30 1289 C 125.88 -0.691529 -3.381 0
M  V30 1290 C 124.993 -1.85861 -3.89974 0
M  V30 1291 C 124.128 -1.43096 -5.11563 0
M  V30 1292 C 123.167 -2.56696 -5.55674 0
M  V30 1293 N 122.304 -2.14684 -6.68472 0
M  V30 1294 H 127.144 -2.00222 -2.20715 0
M  V30 1295 H 124.681 -0.997027 -1.08156 0
M  V30 1296 H 126.639 -0.456963 -4.1469 0
M  V30 1297 H 125.269 0.210474 -3.22113 0
M  V30 1298 H 124.321 -2.20639 -3.09875 0
M  V30 1299 H 125.633 -2.71161 -4.18657 0
M  V30 1300 H 124.787 -1.15624 -5.9558 0
M  V30 1301 H 123.526 -0.548722 -4.84603 0
M  V30 1302 H 122.531 -2.84909 -4.7022 0
M  V30 1303 H 123.756 -3.45503 -5.8464 0
M  V30 1304 H 121.702 -1.28881 -6.43215 0
M  V30 1305 H 121.619 -2.9353 -6.96689 0
M  V30 1306 H 122.887 -1.90397 -7.5589 0
M  V30 1307 N 127.117 1.15442 -1.07289 0
M  V30 1308 C 128.342 1.90638 -0.816828 0
M  V30 1309 C 128.767 1.77445 0.624083 0
M  V30 1310 O 128.125 1.10671 1.43602 0
M  V30 1311 C 128.173 3.39008 -1.22906 0
M  V30 1312 O 127.277 4.10701 -0.373975 0
M  V30 1313 H 126.618 0.593555 -0.297638 0
M  V30 1314 H 129.148 1.46198 -1.43134 0
M  V30 1315 H 129.158 3.89801 -1.20497 0
M  V30 1316 H 127.833 3.47929 -2.27856 0
M  V30 1317 H 126.41 3.70046 -0.460499 0
M  V30 1318 N 128.595 0.856903 1.32268 0
M  V30 1319 C 129.872 0.382583 1.91822 0
M  V30 1320 C 130.252 -1.13407 1.78051 0
M  V30 1321 O 129.6 -1.95673 1.18001 0
M  V30 1322 C 129.81 0.849446 3.38505 0
M  V30 1323 C 131.158 0.867936 4.15634 0
M  V30 1324 O 132.182 0.794232 3.47232 0
M  V30 1325 O 131.041 0.972286 5.37781 0
M  V30 1326 H 128.135 0.112014 0.819379 0
M  V30 1327 H 130.681 0.943952 1.41024 0
M  V30 1328 H 129.453 1.89267 3.42482 0
M  V30 1329 H 129.076 0.265652 3.96712 0
M  V30 1330 N 130.073 -1.45103 0.615059 0
M  V30 1331 C 131.003 -2.33339 -0.0865619 0
M  V30 1332 C 131.984 -1.4727 -0.851209 0
M  V30 1333 O 133.169 -1.76026 -0.820281 0
M  V30 1334 C 130.299 -3.30095 -1.07956 0
M  V30 1335 C 129.253 -4.25858 -0.427628 0
M  V30 1336 C 128.579 -5.12361 -1.5294 0
M  V30 1337 C 129.879 -5.18165 0.655944 0
M  V30 1338 H 131.573 -2.92254 0.650224 0
M  V30 1339 H 129.119 -1.40532 0.314138 0
M  V30 1340 H 131.072 -3.90698 -1.57901 0
M  V30 1341 H 129.796 -2.69355 -1.84703 0
M  V30 1342 H 128.455 -3.66564 0.0510292 0
M  V30 1343 H 128.103 -4.47984 -2.28734 0
M  V30 1344 H 127.803 -5.77238 -1.09865 0
M  V30 1345 H 129.327 -5.75833 -2.03098 0
M  V30 1346 H 130.741 -5.72796 0.240257 0
M  V30 1347 H 129.138 -5.91559 1.00888 0
M  V30 1348 H 130.208 -4.60144 1.52957 0
M  V30 1349 N 131.551 -0.354651 -1.53558 0
M  V30 1350 C 132.481 0.489091 -2.2832 0
M  V30 1351 C 133.462 1.09324 -1.30316 0
M  V30 1352 O 134.647 1.11255 -1.59173 0
M  V30 1353 C 131.777 1.63456 -3.0643 0
M  V30 1354 C 130.731 1.1582 -4.12031 0
M  V30 1355 C 130.057 2.39305 -4.7816 0
M  V30 1356 C 131.357 0.250731 -5.21698 0
M  V30 1357 H 133.051 -0.134614 -2.99097 0
M  V30 1358 H 130.597 -0.0661826 -1.43848 0
M  V30 1359 H 132.55 2.23136 -3.57475 0
M  V30 1360 H 131.274 2.28533 -2.33325 0
M  V30 1361 H 129.933 0.584146 -3.61916 0
M  V30 1362 H 129.581 3.02814 -4.01637 0
M  V30 1363 H 129.281 2.08109 -5.49513 0
M  V30 1364 H 130.805 2.99691 -5.31994 0
M  V30 1365 H 132.219 0.754695 -5.68311 0
M  V30 1366 H 130.616 0.0301468 -6.00092 0
M  V30 1367 H 131.686 -0.710125 -4.79672 0
M  V30 1368 N 133.029 1.57378 -0.0835403 0
M  V30 1369 C 134.44 1.81261 0.447358 0
M  V30 1370 C 134.791 0.998331 1.68902 0
M  V30 1371 O 133.916 0.224282 2.15235 0
M  V30 1372 C 134.511 3.28767 0.818386 0
M  V30 1373 C 133.07 3.53455 1.29409 0
M  V30 1374 C 132.217 2.75831 0.285024 0
M  V30 1375 H 135.168 1.5566 -0.309115 0
M  V30 1376 H 135.189 3.41459 1.67887 0
M  V30 1377 H 134.701 3.88006 -0.0855019 0
M  V30 1378 H 132.802 2.99534 2.21608 0
M  V30 1379 H 132.915 4.62128 1.2639 0
M  V30 1380 H 131.279 2.42947 0.764767 0
M  V30 1381 H 132.062 3.37813 -0.611341 0
M  V30 1382 N 134.507 -0.190092 1.56449 0
M  V30 1383 C 135.755 -0.907908 1.80559 0
M  V30 1384 C 136.076 -1.83583 0.657438 0
M  V30 1385 O 135.346 -1.93203 -0.323924 0
M  V30 1386 H 133.926 -0.338247 0.666032 0
M  V30 1387 H 136.588 -0.194403 1.93928 0
M  V30 1388 H 135.684 -1.49604 2.73907 0
M  V30 1389 N 135.985 -1.50799 -0.457987 0
M  V30 1390 C 136.915 -1.73553 -1.5621 0
M  V30 1391 C 137.896 -0.584774 -1.59732 0
M  V30 1392 O 139.081 -0.825314 -1.7579 0
M  V30 1393 C 136.211 -1.84169 -2.94447 0
M  V30 1394 C 135.165 -2.99461 -3.0579 0
M  V30 1395 C 134.491 -2.95235 -4.45803 0
M  V30 1396 C 135.791 -4.39766 -2.81786 0
M  V30 1397 H 137.485 -2.66 -1.37421 0
M  V30 1398 H 135.031 -1.28002 -0.659662 0
M  V30 1399 H 136.984 -1.98672 -3.71628 0
M  V30 1400 H 135.708 -0.883545 -3.14422 0
M  V30 1401 H 134.367 -2.8463 -2.31044 0
M  V30 1402 H 134.015 -1.97239 -4.62715 0
M  V30 1403 H 133.715 -3.72642 -4.54326 0
M  V30 1404 H 135.239 -3.11803 -5.24987 0
M  V30 1405 H 136.653 -4.55054 -3.4871 0
M  V30 1406 H 135.05 -5.18722 -3.0174 0
M  V30 1407 H 136.12 -4.51229 -1.7754 0
M  V30 1408 N 137.463 0.71206 -1.40597 0
M  V30 1409 C 138.879 1.02058 -1.22704 0
M  V30 1410 C 139.079 2.01228 -0.104729 0
M  V30 1411 O 138.135 2.4674 0.53624 0
M  V30 1412 C 139.448 1.56094 -2.57012 0
M  V30 1413 C 140.996 1.6806 -2.64054 0
M  V30 1414 C 141.471 2.25501 -3.9864 0
M  V30 1415 N 142.962 2.32882 -4.004 0
M  V30 1416 C 143.697 2.78317 -5.01325 0
M  V30 1417 N 143.193 3.23478 -6.12645 0
M  V30 1418 N 144.986 2.77733 -4.88693 0
M  V30 1419 H 137.137 0.0547896 -2.12329 0
M  V30 1420 H 139.4 0.0869027 -0.944008 0
M  V30 1421 H 139.106 0.906865 -3.39807 0
M  V30 1422 H 138.98 2.54564 -2.78347 0
M  V30 1423 H 141.367 2.32583 -1.81629 0
M  V30 1424 H 141.448 0.681802 -2.46546 0
M  V30 1425 H 141.092 1.61598 -4.81506 0
M  V30 1426 H 141.022 3.26102 -4.13479 0
M  V30 1427 H 143.513 2.00991 -3.20017 0
M  V30 1428 H 143.826 3.56725 -6.85542 0
M  V30 1429 H 142.171 3.21429 -6.16205 0
M  V30 1430 H 145.362 2.4179 -4.00818 0
M  V30 1431 H 145.535 3.12826 -5.67489 0
M  V30 1432 N 138.941 1.26152 0.944643 0
M  V30 1433 C 139.871 1.09902 2.06019 0
M  V30 1434 C 140.852 0.00519538 1.70099 0
M  V30 1435 O 142.037 0.176583 1.93396 0
M  V30 1436 C 139.167 0.727562 3.39594 0
M  V30 1437 C 138.121 1.77274 3.89561 0
M  V30 1438 C 137.447 1.25569 5.19747 0
M  V30 1439 C 138.747 3.17357 4.14827 0
M  V30 1440 H 140.441 2.03217 2.19871 0
M  V30 1441 H 137.987 0.978452 1.05652 0
M  V30 1442 H 139.94 0.600777 4.17095 0
M  V30 1443 H 138.664 -0.241287 3.25707 0
M  V30 1444 H 137.323 1.88814 3.14237 0
M  V30 1445 H 136.971 0.276783 5.02238 0
M  V30 1446 H 136.671 1.95433 5.54148 0
M  V30 1447 H 138.195 1.1415 5.99835 0
M  V30 1448 H 139.609 3.08914 4.82954 0
M  V30 1449 H 138.006 3.84781 4.60504 0
M  V30 1450 H 139.076 3.63673 3.20734 0
M  V30 1451 N 140.419 -1.14872 1.07899 0
M  V30 1452 C 141.667 -1.85422 0.803941 0
M  V30 1453 C 141.988 -1.83051 -0.67211 0
M  V30 1454 O 141.258 -1.27532 -1.48703 0
M  V30 1455 H 139.838 -0.686537 0.294408 0
M  V30 1456 H 142.5 -1.39226 1.3639 0
M  V30 1457 H 141.596 -2.90399 1.14346 0
M  V30 1458 N 141.898 -0.863906 -1.31812 0
M  V30 1459 C 143.128 -0.485406 -2.00817 0
M  V30 1460 C 143.536 0.925007 -1.65046 0
M  V30 1461 O 142.879 1.61653 -0.872574 0
M  V30 1462 C 142.941 -0.555589 -3.55181 0
M  V30 1463 C 142.605 -1.92654 -4.14407 0
M  V30 1464 C 143.602 -2.89324 -4.31958 0
M  V30 1465 C 141.287 -2.2262 -4.50273 0
M  V30 1466 C 143.281 -4.14108 -4.84555 0
M  V30 1467 C 140.968 -3.47654 -5.02573 0
M  V30 1468 C 141.966 -4.43214 -5.19664 0
M  V30 1469 O 141.654 -5.66033 -5.70843 0
M  V30 1470 H 141.386 -0.188224 -0.649267 0
M  V30 1471 H 143.94 -1.16514 -1.69156 0
M  V30 1472 H 142.17 0.181037 -3.86276 0
M  V30 1473 H 143.859 -0.19138 -4.05449 0
M  V30 1474 H 144.625 -2.6748 -4.04573 0
M  V30 1475 H 140.504 -1.4902 -4.3625 0
M  V30 1476 H 144.048 -4.88703 -4.9781 0
M  V30 1477 H 139.945 -3.69345 -5.29391 0
M  V30 1478 H 140.713 -5.6812 -5.89222 0
M  V30 1479 N 143.376 1.44774 -0.622745 0
M  V30 1480 C 144.653 1.95522 -0.0551974 0
M  V30 1481 C 145.033 1.5649 1.41683 0
M  V30 1482 O 144.381 0.834848 2.12703 0
M  V30 1483 C 144.591 3.4796 -0.269242 0
M  V30 1484 C 145.939 4.24306 -0.158014 0
M  V30 1485 O 146.963 3.55637 -0.200162 0
M  V30 1486 O 145.822 5.46471 -0.0558693 0
M  V30 1487 H 142.916 0.826556 0.0271015 0
M  V30 1488 H 145.462 1.54866 -0.693864 0
M  V30 1489 H 144.234 3.6939 -1.29099 0
M  V30 1490 H 143.857 3.95543 0.403966 0
M  V30 1491 N 144.854 0.36279 1.53368 0
M  V30 1492 C 145.784 -0.476976 2.28576 0
M  V30 1493 C 146.765 -1.08631 1.30894 0
M  V30 1494 O 147.95 -1.10409 1.59761 0
M  V30 1495 C 145.08 -1.61828 3.07293 0
M  V30 1496 C 144.034 -1.13633 4.1264 0
M  V30 1497 C 143.36 -2.36766 4.79423 0
M  V30 1498 C 144.66 -0.223061 5.21823 0
M  V30 1499 H 146.354 0.150474 2.99022 0
M  V30 1500 H 143.9 0.0738103 1.43811 0
M  V30 1501 H 145.853 -2.21237 3.58653 0
M  V30 1502 H 144.577 -2.27292 2.34533 0
M  V30 1503 H 143.236 -0.564945 3.62221 0
M  V30 1504 H 142.884 -3.0068 4.03238 0
M  V30 1505 H 142.584 -2.05192 5.50609 0
M  V30 1506 H 144.108 -2.96865 5.33576 0
M  V30 1507 H 145.522 -0.724545 5.68703 0
M  V30 1508 H 143.919 0.001678 6.001 0
M  V30 1509 H 144.989 0.735553 4.79289 0
M  V30 1510 N 146.332 -1.57332 0.0918853 0
M  V30 1511 C 147.579 -1.94236 -0.572577 0
M  V30 1512 C 147.907 -0.973398 -1.6839 0
M  V30 1513 O 147.162 0.00756912 -1.95699 0
M  V30 1514 C 147.461 -3.37689 -1.17051 0
M  V30 1515 C 147.127 -4.50527 -0.183304 0
M  V30 1516 C 145.789 -4.81119 0.0882276 0
M  V30 1517 C 148.141 -5.18883 0.49095 0
M  V30 1518 C 145.469 -5.77395 1.04076 0
M  V30 1519 C 147.821 -6.1618 1.43193 0
M  V30 1520 C 146.485 -6.45179 1.71173 0
M  V30 1521 H 145.755 -0.710762 -0.209521 0
M  V30 1522 H 148.402 -1.9077 0.167036 0
M  V30 1523 H 146.707 -3.37718 -1.9863 0
M  V30 1524 H 148.404 -3.63543 -1.69227 0
M  V30 1525 H 144.994 -4.26681 -0.405124 0
M  V30 1526 H 149.178 -4.95427 0.294312 0
M  V30 1527 H 144.434 -5.98179 1.26457 0
M  V30 1528 H 148.608 -6.68243 1.96023 0
M  V30 1529 H 146.235 -7.1959 2.4514 0
M  V30 1530 N 147.81 0.181792 -1.56548 0
M  V30 1531 C 149.087 0.926765 -1.72251 0
M  V30 1532 C 149.467 2.00831 -0.650386 0
M  V30 1533 O 148.815 2.26008 0.336521 0
M  V30 1534 C 149.025 1.50106 -3.1507 0
M  V30 1535 C 150.373 1.97805 -3.75711 0
M  V30 1536 O 151.397 1.59922 -3.18282 0
M  V30 1537 O 150.256 2.67555 -4.76525 0
M  V30 1538 H 147.35 0.435506 -0.703039 0
M  V30 1539 H 149.896 0.170443 -1.68842 0
M  V30 1540 H 148.668 0.72212 -3.84579 0
M  V30 1541 H 148.291 2.32186 -3.22763 0
M  V30 1542 N 149.288 1.51039 0.449983 0
M  V30 1543 C 150.516 1.66869 1.2232 0
M  V30 1544 C 150.931 0.360727 1.85322 0
M  V30 1545 O 150.288 -0.659531 1.70166 0
M  V30 1546 C 150.339 2.77524 2.31652 0
M  V30 1547 O 150.06 4.03252 1.7123 0
M  V30 1548 C 151.561 3.04512 3.2216 0
M  V30 1549 H 148.781 0.560326 0.369155 0
M  V30 1550 H 151.325 1.97385 0.534719 0
M  V30 1551 H 149.48 2.49642 2.96239 0
M  V30 1552 H 149.894 4.64609 2.43389 0
M  V30 1553 H 151.368 3.85551 3.95038 0
M  V30 1554 H 151.845 2.16415 3.8218 0
M  V30 1555 H 152.451 3.34005 2.63288 0
M  V30 1556 N 150.766 -0.704594 1.40972 0
M  V30 1557 C 152.006 -1.47691 1.41304 0
M  V30 1558 C 152.37 -1.91992 0.0178582 0
M  V30 1559 O 153.571 -2.68599 -0.103996 0
M  V30 1560 C 151.842 -2.66254 2.38419 0
M  V30 1561 S 153.401 -3.55516 2.57204 0
M  V30 1562 H 150.219 -0.504808 0.500689 0
M  V30 1563 H 152.821 -0.822962 1.77335 0
M  V30 1564 H 151.525 -2.31897 3.38603 0
M  V30 1565 H 151.056 -3.3655 2.03711 0
M  V30 1566 H 153.071 -4.61115 1.83268 0
M  V30 1567 N 152.244 -1.26651 -0.937939 0
M  V30 1568 C 153.469 -1.15279 -1.72411 0
M  V30 1569 C 153.894 0.287866 -1.85884 0
M  V30 1570 O 153.252 1.20855 -1.35143 0
M  V30 1571 C 153.3 -1.83028 -3.10698 0
M  V30 1572 O 152.404 -1.12128 -3.96864 0
M  V30 1573 H 151.745 -0.401504 -0.528858 0
M  V30 1574 H 154.275 -1.67531 -1.1745 0
M  V30 1575 H 154.285 -1.89981 -3.6107 0
M  V30 1576 H 152.96 -2.87833 -3.00208 0
M  V30 1577 H 151.537 -1.13173 -3.55312 0
M  V30 1578 N 153.722 1.14298 -1.08507 0
M  V30 1579 C 154.632 2.23027 -0.727753 0
M  V30 1580 C 155.648 1.71952 0.26619 0
M  V30 1581 O 156.824 2.011 0.109882 0
M  V30 1582 C 153.889 3.46403 -0.143541 0
M  V30 1583 C 152.95 4.12413 -1.19223 0
M  V30 1584 C 152.183 5.29899 -0.635798 0
M  V30 1585 O 152.406 5.67796 0.544393 0
M  V30 1586 O 151.34 5.85717 -1.38634 0
M  V30 1587 H 155.166 2.55945 -1.63481 0
M  V30 1588 H 152.751 1.22248 -0.858817 0
M  V30 1589 H 154.633 4.21018 0.179404 0
M  V30 1590 H 153.308 3.15206 0.736659 0
M  V30 1591 H 152.215 3.39667 -1.56772 0
M  V30 1592 H 153.548 4.47718 -2.04474 0
M  V30 1593 N 155.201 0.870884 1.31352 0
M  V30 1594 C 156.612 0.534714 1.78879 0
M  V30 1595 C 156.963 -0.948423 1.71754 0
M  V30 1596 O 156.088 -1.74055 1.28584 0
M  V30 1597 C 156.683 0.963839 3.24801 0
M  V30 1598 C 155.242 0.679311 3.70219 0
M  V30 1599 C 154.389 1.15465 2.52117 0
M  V30 1600 H 157.34 1.05651 1.18421 0
M  V30 1601 H 157.361 0.286892 3.79417 0
M  V30 1602 H 156.873 2.04332 3.29955 0
M  V30 1603 H 154.974 -0.388769 3.70566 0
M  V30 1604 H 155.087 1.25698 4.62317 0
M  V30 1605 H 153.451 0.574383 2.48139 0
M  V30 1606 H 154.234 2.24157 2.60016 0
M  V30 1607 N 156.679 -1.44442 0.630414 0
M  V30 1608 C 157.925 -2.02351 0.134816 0
M  V30 1609 C 158.258 -1.4947 -1.23986 0
M  V30 1610 O 157.533 -0.678475 -1.82283 0
M  V30 1611 C 157.816 -3.59898 0.120707 0
M  V30 1612 C 157.669 -4.23063 1.52767 0
M  V30 1613 C 158.988 -4.36585 -0.555127 0
M  V30 1614 H 156.107 -0.73527 0.0504646 0
M  V30 1615 H 158.749 -1.72022 0.806751 0
M  V30 1616 H 156.899 -3.85868 -0.451477 0
M  V30 1617 H 158.571 -4.08202 2.14869 0
M  V30 1618 H 156.814 -3.80586 2.08175 0
M  V30 1619 H 157.485 -5.32071 1.46984 0
M  V30 1620 H 159.961 -4.16044 -0.0685429 0
M  V30 1621 H 158.837 -5.46294 -0.534185 0
M  V30 1622 H 159.098 -4.11138 -1.62535 0
M  V30 1623 N 158.157 -0.370918 -1.53173 0
M  V30 1624 C 159.403 0.217423 -2.01631 0
M  V30 1625 C 159.736 1.47983 -1.25756 0
M  V30 1626 O 159.011 1.91274 -0.352764 0
M  V30 1627 C 159.294 0.503982 -3.56556 0
M  V30 1628 C 159.147 -0.77243 -4.43118 0
M  V30 1629 C 160.466 1.30234 -4.20389 0
M  V30 1630 H 157.585 0.0775486 -0.732909 0
M  V30 1631 H 160.227 -0.496863 -1.83388 0
M  V30 1632 H 158.377 1.11248 -3.72231 0
M  V30 1633 H 160.049 -1.4098 -4.39229 0
M  V30 1634 H 158.292 -1.39167 -4.10871 0
M  V30 1635 H 158.963 -0.526815 -5.4948 0
M  V30 1636 H 161.439 0.787546 -4.08579 0
M  V30 1637 H 160.315 1.47158 -5.28806 0
M  V30 1638 H 160.576 2.31237 -3.76805 0
M  V30 1639 N 159.635 1.57281 -0.100228 0
M  V30 1640 C 160.598 2.13158 0.842398 0
M  V30 1641 C 161.598 1.06202 1.20738 0
M  V30 1642 O 162.788 1.32066 1.13597 0
M  V30 1643 C 159.92 2.65639 2.13655 0
M  V30 1644 H 161.113 2.97766 0.357114 0
M  V30 1645 H 158.666 1.5559 0.148823 0
M  V30 1646 H 159.401 1.84566 2.66657 0
M  V30 1647 H 159.186 3.43844 1.88451 0
M  V30 1648 H 160.676 3.08846 2.81077 0
M  V30 1649 N 161.113 -0.173488 1.56642 0
M  V30 1650 C 162.046 -1.24353 1.91342 0
M  V30 1651 C 163.024 -1.4289 0.775965 0
M  V30 1652 O 164.208 -1.57932 1.02907 0
M  V30 1653 C 161.335 -2.60683 2.16245 0
M  V30 1654 C 160.381 -2.58894 3.38934 0
M  V30 1655 S 161.214 -2.0819 4.93373 0
M  V30 1656 C 162.37 -3.46302 5.21369 0
M  V30 1657 H 162.603 -0.947345 2.81803 0
M  V30 1658 H 160.136 -0.377958 1.49703 0
M  V30 1659 H 162.094 -3.39149 2.31275 0
M  V30 1660 H 160.755 -2.87502 1.26496 0
M  V30 1661 H 159.948 -3.59188 3.53553 0
M  V30 1662 H 159.55 -1.88522 3.2301 0
M  V30 1663 H 161.842 -4.42287 5.13214 0
M  V30 1664 H 162.785 -3.3656 6.23003 0
M  V30 1665 H 163.193 -3.42214 4.48943 0
M  V30 1666 N 162.591 -1.51276 -0.441967 0
M  V30 1667 C 163.538 -1.72256 -1.53612 0
M  V30 1668 C 164.508 -0.564164 -1.56225 0
M  V30 1669 O 165.693 -0.798074 -1.73307 0
M  V30 1670 C 162.833 -1.84932 -2.91366 0
M  V30 1671 C 161.946 -3.12459 -2.98317 0
M  V30 1672 C 161.081 -3.15758 -4.27166 0
M  V30 1673 C 160.12 -4.37619 -4.27967 0
M  V30 1674 N 159.257 -4.38493 -5.48333 0
M  V30 1675 H 164.097 -2.65654 -1.35026 0
M  V30 1676 H 161.634 -1.31662 -0.656009 0
M  V30 1677 H 163.592 -1.90263 -3.7129 0
M  V30 1678 H 162.222 -0.949461 -3.08521 0
M  V30 1679 H 161.274 -3.1646 -2.11086 0
M  V30 1680 H 162.586 -4.02382 -2.94771 0
M  V30 1681 H 161.74 -3.19979 -5.15459 0
M  V30 1682 H 160.479 -2.23715 -4.33362 0
M  V30 1683 H 159.484 -4.33579 -3.38067 0
M  V30 1684 H 160.709 -5.30921 -4.23438 0
M  V30 1685 H 158.655 -3.49318 -5.55259 0
M  V30 1686 H 158.572 -5.22219 -5.46647 0
M  V30 1687 H 159.84 -4.469 -6.38671 0
M  V30 1688 N 164.069 0.697108 -1.41344 0
M  V30 1689 C 165.48 1.27697 -1.36199 0
M  V30 1690 C 165.831 1.9615 -0.0443463 0
M  V30 1691 O 164.956 1.98689 0.857419 0
M  V30 1692 C 165.551 2.32223 -2.46694 0
M  V30 1693 C 164.11 2.8579 -2.44952 0
M  V30 1694 C 163.257 1.59807 -2.26621 0
M  V30 1695 H 166.208 0.491968 -1.50882 0
M  V30 1696 H 166.229 3.1348 -2.15664 0
M  V30 1697 H 165.741 1.82373 -3.42581 0
M  V30 1698 H 163.842 3.3982 -1.52817 0
M  V30 1699 H 163.955 3.36325 -3.41207 0
M  V30 1700 H 162.319 1.8556 -1.7447 0
M  V30 1701 H 163.102 1.11956 -3.24532 0
M  V30 1702 N 165.547 1.27147 0.931209 0
M  V30 1703 C 166.772 1.16191 1.71797 0
M  V30 1704 C 167.197 -0.278004 1.86034 0
M  V30 1705 O 166.555 -1.20137 1.35782 0
M  V30 1706 C 166.603 1.84673 3.09723 0
M  V30 1707 O 165.707 1.14231 3.96264 0
M  V30 1708 H 165.048 0.404303 0.526721 0
M  V30 1709 H 167.578 1.68152 1.1656 0
M  V30 1710 H 167.588 1.91893 3.60057 0
M  V30 1711 H 166.263 2.89421 2.98677 0
M  V30 1712 H 164.84 1.15056 3.54706 0
M  V30 1713 N 167.025 -1.13721 1.09112 0
M  V30 1714 C 167.955 -2.21148 0.749385 0
M  V30 1715 C 168.936 -1.6792 -0.271475 0
M  V30 1716 O 170.121 -1.93693 -0.140251 0
M  V30 1717 C 167.251 -3.46905 0.165659 0
M  V30 1718 C 166.205 -4.13203 1.11567 0
M  V30 1719 C 165.531 -5.33248 0.393809 0
M  V30 1720 C 166.831 -4.60912 2.45678 0
M  V30 1721 H 168.525 -2.4999 1.64758 0
M  V30 1722 H 166.071 -1.20156 0.793626 0
M  V30 1723 H 168.024 -4.21313 -0.085466 0
M  V30 1724 H 166.748 -3.17449 -0.767714 0
M  V30 1725 H 165.407 -3.40758 1.35202 0
M  V30 1726 H 165.055 -5.00054 -0.543599 0
M  V30 1727 H 164.755 -5.78552 1.02721 0
M  V30 1728 H 166.279 -6.10413 0.150908 0
M  V30 1729 H 167.693 -5.26759 2.26269 0
M  V30 1730 H 166.09 -5.16944 3.04776 0
M  V30 1731 H 167.16 -3.75603 3.06677 0
M  V30 1732 N 168.503 -0.877838 -1.30888 0
M  V30 1733 C 169.436 -0.283995 -2.26426 0
M  V30 1734 C 170.414 0.591361 -1.51465 0
M  V30 1735 O 171.598 0.54304 -1.80509 0
M  V30 1736 C 168.725 0.597129 -3.33395 0
M  V30 1737 C 167.771 -0.207937 -4.25993 0
M  V30 1738 S 168.604 -1.59158 -5.11301 0
M  V30 1739 C 169.76 -0.716791 -6.21782 0
M  V30 1740 H 169.993 -1.09383 -2.76446 0
M  V30 1741 H 167.526 -0.676828 -1.38775 0
M  V30 1742 H 169.484 1.09978 -3.95493 0
M  V30 1743 H 168.145 1.38099 -2.82113 0
M  V30 1744 H 167.338 0.464163 -5.01858 0
M  V30 1745 H 166.94 -0.642963 -3.68432 0
M  V30 1746 H 169.232 0.0692833 -6.77465 0
M  V30 1747 H 170.175 -1.44682 -6.93161 0
M  V30 1748 H 170.583 -0.280855 -5.63801 0
M  V30 1749 N 169.982 1.44106 -0.638065 0
M  V30 1750 C 171.229 2.01978 -0.14533 0
M  V30 1751 C 171.557 1.50234 1.23532 0
M  V30 1752 O 170.812 0.679548 1.83523 0
M  V30 1753 C 171.111 3.5729 -0.0887327 0
M  V30 1754 C 170.777 4.28317 -1.40909 0
M  V30 1755 C 169.439 4.47437 -1.77069 0
M  V30 1756 C 171.791 4.6867 -2.28031 0
M  V30 1757 C 169.119 5.04171 -3.00047 0
M  V30 1758 C 171.471 5.26766 -3.50286 0
M  V30 1759 C 170.135 5.44104 -3.86661 0
M  V30 1760 H 169.405 0.739089 -0.0531801 0
M  V30 1761 H 172.052 1.72781 -0.825761 0
M  V30 1762 H 170.357 3.8594 0.675095 0
M  V30 1763 H 172.054 3.99807 0.309145 0
M  V30 1764 H 168.644 4.1377 -1.1177 0
M  V30 1765 H 172.828 4.53604 -2.01388 0
M  V30 1766 H 168.084 5.15782 -3.28298 0
M  V30 1767 H 172.258 5.56983 -4.18023 0
M  V30 1768 H 169.885 5.87832 -4.82034 0
M  V30 1769 N 171.46 0.379036 1.52974 0
M  V30 1770 C 172.39 -0.452706 2.29069 0
M  V30 1771 C 173.371 -1.07237 1.32039 0
M  V30 1772 O 174.556 -1.08708 1.60923 0
M  V30 1773 C 171.686 -1.5856 3.08992 0
M  V30 1774 C 170.64 -1.0925 4.13822 0
M  V30 1775 C 169.966 -2.31668 4.81907 0
M  V30 1776 C 171.266 -0.167702 5.22031 0
M  V30 1777 H 172.96 0.182181 2.98845 0
M  V30 1778 H 170.506 0.0890592 1.43724 0
M  V30 1779 H 172.459 -2.1742 3.6098 0
M  V30 1780 H 171.183 -2.24792 2.36931 0
M  V30 1781 H 169.842 -0.526494 3.628 0
M  V30 1782 H 169.49 -2.96386 4.06404 0
M  V30 1783 H 169.19 -1.9934 5.52754 0
M  V30 1784 H 170.714 -2.91189 5.36695 0
M  V30 1785 H 172.128 -0.664186 5.6944 0
M  V30 1786 H 170.525 0.0653265 6.00064 0
M  V30 1787 H 171.595 0.786347 4.78482 0
M  V30 1788 N 172.938 -1.57226 0.108567 0
M  V30 1789 C 173.901 -2.13602 -0.831082 0
M  V30 1790 C 174.901 -1.06841 -1.20173 0
M  V30 1791 O 176.091 -1.32666 -1.12895 0
M  V30 1792 C 173.223 -2.66769 -2.12243 0
M  V30 1793 H 174.416 -2.97951 -0.341317 0
M  V30 1794 H 171.969 -1.55667 -0.14057 0
M  V30 1795 H 172.704 -1.85977 -2.65675 0
M  V30 1796 H 172.489 -3.44839 -1.86625 0
M  V30 1797 H 173.979 -3.10332 -2.79435 0
M  V30 1798 N 174.416 0.165178 -1.56732 0
M  V30 1799 C 175.363 1.2044 -1.96883 0
M  V30 1800 C 176.333 1.43664 -0.833657 0
M  V30 1801 O 177.518 1.56302 -1.09427 0
M  V30 1802 C 174.658 2.53727 -2.33916 0
M  V30 1803 C 173.771 2.3783 -3.6064 0
M  V30 1804 C 172.906 3.64026 -3.86857 0
M  V30 1805 C 171.945 3.43088 -5.06909 0
M  V30 1806 N 171.082 4.61369 -5.29229 0
M  V30 1807 H 175.922 0.854996 -2.85471 0
M  V30 1808 H 173.459 0.41076 -1.41249 0
M  V30 1809 H 175.417 3.31419 -2.53411 0
M  V30 1810 H 174.047 2.8665 -1.48431 0
M  V30 1811 H 173.099 1.51282 -3.49024 0
M  V30 1812 H 174.411 2.18308 -4.4849 0
M  V30 1813 H 173.565 4.50152 -4.06753 0
M  V30 1814 H 172.304 3.86533 -2.97394 0
M  V30 1815 H 171.309 2.55349 -4.86906 0
M  V30 1816 H 172.534 3.21997 -5.97909 0
M  V30 1817 H 170.48 4.84084 -4.42718 0
M  V30 1818 H 170.397 4.44783 -6.11313 0
M  V30 1819 H 171.665 5.48761 -5.53608 0
M  V30 1820 N 175.894 1.51508 0.433938 0
M  V30 1821 C 176.857 1.72473 1.50949 0
M  V30 1822 C 177.857 0.594725 1.49398 0
M  V30 1823 O 179.047 0.862315 1.5136 0
M  V30 1824 C 176.179 1.78431 2.90474 0
M  V30 1825 H 177.372 2.68467 1.33662 0
M  V30 1826 H 174.925 1.41549 0.662836 0
M  V30 1827 H 175.66 0.842645 3.13161 0
M  V30 1828 H 175.445 2.60558 2.93005 0
M  V30 1829 H 176.935 1.96479 3.68491 0
M  V30 1830 N 177.372 -0.689602 1.41712 0
M  V30 1831 C 178.62 -1.4468 1.4111 0
M  V30 1832 C 178.941 -1.94986 0.0232196 0
M  V30 1833 O 178.211 -1.72097 -0.935913 0
M  V30 1834 H 176.791 -0.536847 0.519427 0
M  V30 1835 H 179.453 -0.815825 1.77004 0
M  V30 1836 H 178.549 -2.30706 2.10193 0
M  V30 1837 N 178.85 -1.27639 -0.924453 0
M  V30 1838 C 180.075 -1.17101 -1.71179 0
M  V30 1839 C 180.5 0.268134 -1.86179 0
M  V30 1840 O 179.858 1.19415 -1.36418 0
M  V30 1841 C 179.906 -1.86313 -3.08739 0
M  V30 1842 O 179.01 -1.16331 -3.95652 0
M  V30 1843 H 178.351 -0.407091 -0.524569 0
M  V30 1844 H 180.881 -1.68767 -1.15666 0
M  V30 1845 H 180.891 -1.938 -3.59034 0
M  V30 1846 H 179.566 -2.91001 -2.97138 0
M  V30 1847 H 178.143 -1.16935 -3.54091 0
M  V30 1848 N 180.328 1.1314 -1.09713 0
M  V30 1849 C 181.744 1.36477 -0.827423 0
M  V30 1850 C 181.944 1.93654 0.556817 0
M  V30 1851 O 181 2.15791 1.31112 0
M  V30 1852 C 182.313 2.31334 -1.92106 0
M  V30 1853 C 183.861 2.44943 -1.94864 0
M  V30 1854 C 184.336 3.4311 -3.0338 0
M  V30 1855 N 185.827 3.50662 -3.02639 0
M  V30 1856 C 186.562 4.2651 -3.83246 0
M  V30 1857 N 186.058 5.05485 -4.73768 0
M  V30 1858 N 187.851 4.2184 -3.71493 0
M  V30 1859 H 180.002 0.743807 -1.9895 0
M  V30 1860 H 182.265 0.389823 -0.864143 0
M  V30 1861 H 181.971 1.96483 -2.91698 0
M  V30 1862 H 181.845 3.31381 -1.80184 0
M  V30 1863 H 184.232 2.79079 -0.959099 0
M  V30 1864 H 184.313 1.4481 -2.10864 0
M  V30 1865 H 183.957 3.09704 -4.02549 0
M  V30 1866 H 183.887 4.43055 -2.84622 0
M  V30 1867 H 186.378 2.94315 -2.37039 0
M  V30 1868 H 186.691 5.60675 -5.3185 0
M  V30 1869 H 185.036 5.04708 -4.77802 0
M  V30 1870 H 188.227 3.5922 -3.00131 0
M  V30 1871 H 188.4 4.80697 -4.3455 0
M  V30 1872 N 181.806 0.884767 1.30421 0
M  V30 1873 C 183.083 0.423185 1.90967 0
M  V30 1874 C 183.463 -1.09605 1.80416 0
M  V30 1875 O 182.811 -1.93126 1.22125 0
M  V30 1876 C 183.021 0.921056 3.36627 0
M  V30 1877 C 184.369 0.955903 4.137 0
M  V30 1878 O 185.393 0.867706 3.4547 0
M  V30 1879 O 184.252 1.08614 5.35598 0
M  V30 1880 H 181.346 0.129369 0.816819 0
M  V30 1881 H 183.892 0.973653 1.3899 0
M  V30 1882 H 182.664 1.96489 3.3839 0
M  V30 1883 H 182.287 0.349741 3.96059 0
M  V30 1884 N 183.284 -1.43765 0.645699 0
M  V30 1885 C 184.533 -2.01116 0.153412 0
M  V30 1886 C 184.846 -1.51493 -1.23731 0
M  V30 1887 O 186.052 -2.01067 -1.8244 0
M  V30 1888 C 184.508 -3.59206 0.223473 0
M  V30 1889 C 184.116 -4.17823 1.61642 0
M  V30 1890 C 185.86 -4.23972 -0.211597 0
M  V30 1891 C 183.767 -5.68183 1.64081 0
M  V30 1892 H 182.697 -0.752093 0.0535891 0
M  V30 1893 H 185.348 -1.6482 0.806633 0
M  V30 1894 H 183.73 -3.92867 -0.497118 0
M  V30 1895 H 184.904 -3.95674 2.36176 0
M  V30 1896 H 183.219 -3.65399 1.99681 0
M  V30 1897 H 185.816 -5.34275 -0.213112 0
M  V30 1898 H 186.159 -3.97352 -1.24165 0
M  V30 1899 H 186.692 -3.95166 0.456988 0
M  V30 1900 H 183.431 -5.99559 2.64971 0
M  V30 1901 H 182.951 -5.9241 0.938611 0
M  V30 1902 H 184.63 -6.32085 1.3812 0
M  V30 1903 N 184.763 -0.387143 -1.52771 0
M  V30 1904 C 185.726 0.436939 -2.24997 0
M  V30 1905 C 186.726 0.991991 -1.26555 0
M  V30 1906 O 187.916 0.874335 -1.50669 0
M  V30 1907 C 185.048 1.61281 -3.00335 0
M  V30 1908 H 186.241 -0.195365 -2.99263 0
M  V30 1909 H 183.794 -0.139218 -1.55679 0
M  V30 1910 H 184.529 2.2826 -2.30364 0
M  V30 1911 H 184.314 1.22154 -3.72587 0
M  V30 1912 H 185.804 2.19629 -3.5518 0
M  V30 1913 N 186.241 1.57166 -0.116904 0
M  V30 1914 C 187.204 2.14039 0.819742 0
M  V30 1915 C 188.204 1.07477 1.19605 0
M  V30 1916 O 189.394 1.33263 1.1219 0
M  V30 1917 C 186.526 2.67891 2.10826 0
M  V30 1918 H 187.719 2.98128 0.325511 0
M  V30 1919 H 185.272 1.55739 0.132312 0
M  V30 1920 H 186.007 1.87384 2.64685 0
M  V30 1921 H 185.792 3.45823 1.84793 0
M  V30 1922 H 187.282 3.11809 2.77785 0
M  V30 1923 N 187.719 -0.156864 1.56817 0
M  V30 1924 C 188.949 -0.885031 1.86684 0
M  V30 1925 C 189.357 -1.75696 0.701954 0
M  V30 1926 O 188.7 -1.80569 -0.337732 0
M  V30 1927 C 188.762 -1.80092 3.11138 0
M  V30 1928 C 188.426 -1.10714 4.43386 0
M  V30 1929 C 189.423 -0.465714 5.1781 0
M  V30 1930 C 187.108 -1.09959 4.90117 0
M  V30 1931 C 189.102 0.174002 6.37162 0
M  V30 1932 C 186.789 -0.456055 6.09396 0
M  V30 1933 C 187.787 0.179622 6.82764 0
M  V30 1934 O 187.475 0.812975 7.99779 0
M  V30 1935 H 187.207 -0.261813 0.623242 0
M  V30 1936 H 189.761 -0.157383 2.04796 0
M  V30 1937 H 187.991 -2.56926 2.89009 0
M  V30 1938 H 189.68 -2.40018 3.27332 0
M  V30 1939 H 190.446 -0.463427 4.82781 0
M  V30 1940 H 186.325 -1.58378 4.3294 0
M  V30 1941 H 189.869 0.670765 6.94368 0
M  V30 1942 H 185.766 -0.455975 6.43888 0
M  V30 1943 H 186.534 0.71366 8.15383 0
M  V30 1944 N 189.197 -1.51736 -0.425897 0
M  V30 1945 C 190.437 -1.66636 -1.18371 0
M  V30 1946 C 190.801 -0.379854 -1.88205 0
M  V30 1947 O 192.002 -0.404758 -2.65735 0
M  V30 1948 C 190.273 -2.84382 -2.16476 0
M  V30 1949 S 191.832 -3.19673 -3.0059 0
M  V30 1950 H 188.65 -0.586957 -0.40125 0
M  V30 1951 H 191.252 -1.89679 -0.473518 0
M  V30 1952 H 189.956 -3.76281 -1.63831 0
M  V30 1953 H 189.487 -2.63562 -2.92059 0
M  V30 1954 H 191.502 -2.66994 -4.18245 0
M  V30 1955 N 190.675 0.682077 -1.42076 0
M  V30 1956 C 191.623 1.81707 -1.45208 0
M  V30 1957 C 192.617 1.66183 -0.328591 0
M  V30 1958 O 193.823 1.7288 -0.501264 0
M  V30 1959 H 190.198 0.599014 -0.454628 0
M  V30 1960 H 192.169 1.76183 -2.40836 0
M  V30 1961 C 190.918 3.19816 -1.36428 0
M  V30 1962 H 190.241 3.32385 -2.22171 0
M  V30 1963 H 191.681 3.99272 -1.42681 0
M  V30 1964 C 190.14 3.36809 -0.078191 0
M  V30 1965 O 190.67 3.92124 0.87188 0
M  V30 1966 N 188.876 2.906 0.00229266 0
M  V30 1967 H 188.423 2.45772 -0.771616 0
M  V30 1968 H 188.381 3.02347 0.862179 0
M  V30 1969 N 192.153 1.28127 0.917671 0
M  V30 1970 C 193.383 1.17722 1.6978 0
M  V30 1971 C 193.791 -0.267261 1.87303 0
M  V30 1972 O 193.134 -1.19286 1.39702 0
M  V30 1973 C 193.196 1.79958 3.11216 0
M  V30 1974 C 192.86 3.29187 3.16993 0
M  V30 1975 C 193.857 4.25679 2.98485 0
M  V30 1976 C 191.542 3.70075 3.39632 0
M  V30 1977 C 193.536 5.61035 3.02521 0
M  V30 1978 C 191.223 5.05557 3.433 0
M  V30 1979 C 192.221 6.00847 3.24764 0
M  V30 1980 O 191.909 7.33859 3.28187 0
M  V30 1981 H 191.641 0.409788 0.537634 0
M  V30 1982 H 194.195 1.69694 1.15728 0
M  V30 1983 H 192.425 1.22475 3.66793 0
M  V30 1984 H 194.114 1.64125 3.71238 0
M  V30 1985 H 194.88 3.95426 2.80826 0
M  V30 1986 H 190.759 2.96373 3.53106 0
M  V30 1987 H 194.303 6.35388 2.87971 0
M  V30 1988 H 190.2 5.35462 3.60486 0
M  V30 1989 H 190.968 7.42436 3.44575 0
M  V30 1990 N 193.631 -1.12557 1.10312 0
M  V30 1991 C 194.859 -1.87864 0.866873 0
M  V30 1992 C 195.274 -1.79588 -0.582557 0
M  V30 1993 O 194.631 -1.16887 -1.40156 0
M  V30 1994 C 194.682 -3.37125 1.30496 0
M  V30 1995 O 194.403 -3.45201 2.69755 0
M  V30 1996 C 195.904 -4.29373 1.10243 0
M  V30 1997 H 193.124 -0.594452 0.311236 0
M  V30 1998 H 195.668 -1.42429 1.46745 0
M  V30 1999 H 193.823 -3.80109 0.748081 0
M  V30 2000 H 194.237 -4.38056 2.88457 0
M  V30 2001 H 195.711 -5.32394 1.45811 0
M  V30 2002 H 196.188 -4.39181 0.0409492 0
M  V30 2003 H 196.794 -3.92169 1.64571 0
M  V30 2004 N 195.109 -0.891671 -1.2995 0
M  V30 2005 C 196.041 -0.320695 -2.26945 0
M  V30 2006 C 197.054 0.528497 -1.53983 0
M  V30 2007 O 198.243 0.346959 -1.75096 0
M  V30 2008 C 195.343 0.562066 -3.34207 0
M  V30 2009 C 194.516 -0.259576 -4.36629 0
M  V30 2010 C 193.575 0.554739 -5.23268 0
M  V30 2011 O 192.601 -0.0249311 -5.69195 0
M  V30 2012 N 193.803 1.8625 -5.4981 0
M  V30 2013 H 196.568 -1.15432 -2.76578 0
M  V30 2014 H 194.129 -0.755336 -1.432 0
M  V30 2015 H 196.121 1.11304 -3.89093 0
M  V30 2016 H 194.691 1.29637 -2.84452 0
M  V30 2017 H 193.911 -0.991986 -3.81514 0
M  V30 2018 H 195.199 -0.822564 -5.02107 0
M  V30 2019 H 194.597 2.35628 -5.14292 0
M  V30 2020 H 193.154 2.36078 -6.07545 0
M  V30 2021 N 196.587 1.43421 -0.653314 0
M  V30 2022 C 197.817 2.05864 -0.174238 0
M  V30 2023 C 198.225 1.49052 1.16534 0
M  V30 2024 O 197.568 0.616481 1.73047 0
M  V30 2025 C 197.63 3.59499 -0.00875873 0
M  V30 2026 C 197.294 4.38893 -1.27364 0
M  V30 2027 C 198.291 4.70947 -2.20239 0
M  V30 2028 C 195.976 4.789 -1.51525 0
M  V30 2029 C 197.97 5.41916 -3.35568 0
M  V30 2030 C 195.657 5.49614 -2.67147 0
M  V30 2031 C 196.655 5.81044 -3.58994 0
M  V30 2032 O 196.343 6.50313 -4.72597 0
M  V30 2033 H 196.075 0.670345 -0.0872549 0
M  V30 2034 H 198.629 1.84913 -0.894226 0
M  V30 2035 H 196.859 3.79025 0.7666 0
M  V30 2036 H 198.548 4.0364 0.427687 0
M  V30 2037 H 199.314 4.40558 -2.02815 0
M  V30 2038 H 195.193 4.53843 -0.809158 0
M  V30 2039 H 198.737 5.66365 -4.07279 0
M  V30 2040 H 194.634 5.79419 -2.84505 0
M  V30 2041 H 195.402 6.68795 -4.71864 0
M  V30 2042 N 198.065 0.39524 1.52563 0
M  V30 2043 C 198.997 -0.472201 2.24283 0
M  V30 2044 C 200.01 -1.02178 1.26742 0
M  V30 2045 O 201.199 -0.923097 1.52778 0
M  V30 2046 C 198.299 -1.66775 2.95024 0
M  V30 2047 C 197.472 -1.2445 4.19322 0
M  V30 2048 C 196.531 -2.30539 4.7301 0
M  V30 2049 O 195.557 -1.91702 5.35947 0
M  V30 2050 N 196.759 -3.6253 4.53379 0
M  V30 2051 H 199.524 0.142282 2.99362 0
M  V30 2052 H 197.085 0.2219 1.60372 0
M  V30 2053 H 199.077 -2.37283 3.27839 0
M  V30 2054 H 197.647 -2.18845 2.23217 0
M  V30 2055 H 196.867 -0.368069 3.92478 0
M  V30 2056 H 198.155 -0.938457 5.0007 0
M  V30 2057 H 197.553 -3.96841 4.03154 0
M  V30 2058 H 196.11 -4.29055 4.90668 0
M  V30 2059 N 199.544 -1.57102 0.125237 0
M  V30 2060 C 200.955 -1.82384 -0.399142 0
M  V30 2061 C 201.306 -1.04276 -1.66195 0
M  V30 2062 O 200.431 -0.281269 -2.14564 0
M  V30 2063 C 201.026 -3.30821 -0.730932 0
M  V30 2064 C 199.585 -3.56762 -1.19992 0
M  V30 2065 C 198.732 -2.7649 -0.211792 0
M  V30 2066 H 201.683 -1.54786 0.350277 0
M  V30 2067 H 201.704 -3.4579 -1.58775 0
M  V30 2068 H 201.216 -3.87643 0.188345 0
M  V30 2069 H 199.317 -3.05305 -2.13588 0
M  V30 2070 H 199.43 -4.65317 -1.14093 0
M  V30 2071 H 197.794 -2.4489 -0.700085 0
M  V30 2072 H 198.577 -3.36073 0.700691 0
M  V30 2073 N 201.022 0.148545 -1.56898 0
M  V30 2074 C 202.438 0.501131 -1.51528 0
M  V30 2075 C 202.638 1.83458 -0.833399 0
M  V30 2076 O 201.694 2.49259 -0.40328 0
M  V30 2077 C 203.007 0.512864 -2.96294 0
M  V30 2078 C 204.555 0.598487 -3.07225 0
M  V30 2079 C 205.03 0.640897 -4.53494 0
M  V30 2080 N 206.521 0.703163 -4.57832 0
M  V30 2081 C 207.256 0.756935 -5.68382 0
M  V30 2082 N 206.752 0.770147 -6.88506 0
M  V30 2083 N 208.545 0.797698 -5.56411 0
M  V30 2084 H 200.696 -0.725532 -1.99624 0
M  V30 2085 H 202.959 -0.264358 -0.910395 0
M  V30 2086 H 202.665 -0.398691 -3.49433 0
M  V30 2087 H 202.539 1.35133 -3.52163 0
M  V30 2088 H 204.926 1.50046 -2.54106 0
M  V30 2089 H 205.007 -0.267093 -2.54402 0
M  V30 2090 H 204.651 -0.256915 -5.0725 0
M  V30 2091 H 204.581 1.52295 -5.04097 0
M  V30 2092 H 207.072 0.700314 -3.71354 0
M  V30 2093 H 207.385 0.812983 -7.68512 0
M  V30 2094 H 205.73 0.738049 -6.9107 0
M  V30 2095 H 208.921 0.784535 -4.61479 0
M  V30 2096 H 209.094 0.83614 -6.42583 0
M  V30 2097 N 202.5 1.5196 0.417844 0
M  V30 2098 C 203.746 1.65836 1.16732 0
M  V30 2099 C 204.079 0.382881 1.90388 0
M  V30 2100 O 203.354 -0.618368 1.84408 0
M  V30 2101 C 203.637 2.87466 2.16876 0
M  V30 2102 C 203.49 4.25041 1.47174 0
M  V30 2103 C 204.809 3.04613 3.17646 0
M  V30 2104 H 201.928 0.603515 0.423011 0
M  V30 2105 H 204.57 1.84494 0.454105 0
M  V30 2106 H 202.72 2.71689 2.777 0
M  V30 2107 H 204.392 4.52527 0.895376 0
M  V30 2108 H 202.635 4.26843 0.773806 0
M  V30 2109 H 203.306 5.06176 2.20204 0
M  V30 2110 H 205.782 3.1923 2.66892 0
M  V30 2111 H 204.658 3.91247 3.8499 0
M  V30 2112 H 204.919 2.17541 3.84874 0
M  V30 2113 N 203.978 -0.674533 1.42435 0
M  V30 2114 C 204.908 -1.80009 1.48724 0
M  V30 2115 C 205.889 -1.6659 0.343793 0
M  V30 2116 O 207.074 -1.86007 0.558137 0
M  V30 2117 C 204.204 -3.18306 1.38919 0
M  V30 2118 C 203.158 -3.46461 2.51294 0
M  V30 2119 C 202.484 -4.84335 2.26547 0
M  V30 2120 C 203.784 -3.43328 3.93603 0
M  V30 2121 H 205.478 -1.75004 2.42928 0
M  V30 2122 H 203.024 -0.840533 1.16923 0
M  V30 2123 H 204.977 -3.9678 1.41927 0
M  V30 2124 H 203.701 -3.2399 0.412094 0
M  V30 2125 H 202.36 -2.70348 2.47604 0
M  V30 2126 H 202.008 -4.86669 1.2713 0
M  V30 2127 H 201.708 -5.04136 3.01861 0
M  V30 2128 H 203.232 -5.65094 2.31304 0
M  V30 2129 H 204.646 -4.11772 3.98894 0
M  V30 2130 H 203.043 -3.74664 4.68771 0
M  V30 2131 H 204.113 -2.41897 4.20255 0
M  V30 2132 N 205.456 -1.28612 -0.910864 0
M  V30 2133 C 206.419 -1.12803 -1.9952 0
M  V30 2134 C 207.419 -0.0668264 -1.60661 0
M  V30 2135 O 208.609 -0.312847 -1.71368 0
M  V30 2136 C 205.741 -0.72254 -3.33155 0
M  V30 2137 H 206.934 -2.09109 -2.14973 0
M  V30 2138 H 204.487 -1.11639 -1.09391 0
M  V30 2139 H 205.222 0.241152 -3.23402 0
M  V30 2140 H 205.007 -1.48916 -3.62721 0
M  V30 2141 H 206.497 -0.634666 -4.12749 0
M  V30 2142 N 206.934 1.1197 -1.10907 0
M  V30 2143 C 208.18 1.8386 -0.855773 0
M  V30 2144 C 208.513 1.84134 0.617103 0
M  V30 2145 O 207.788 1.29041 1.45529 0
M  V30 2146 C 208.071 3.31305 -1.411 0
M  V30 2147 C 207.924 3.39456 -2.9511 0
M  V30 2148 C 209.243 4.2721 -1.05736 0
M  V30 2149 H 206.362 0.667545 -0.312334 0
M  V30 2150 H 209.004 1.31331 -1.37303 0
M  V30 2151 H 207.154 3.76169 -0.97105 0
M  V30 2152 H 208.826 3.03191 -3.47668 0
M  V30 2153 H 207.069 2.79849 -3.31462 0
M  V30 2154 H 207.74 4.43209 -3.29044 0
M  V30 2155 H 210.216 3.90497 -1.43706 0
M  V30 2156 H 209.092 5.28775 -1.47269 0
M  V30 2157 H 209.353 4.42088 0.0325958 0
M  V30 2158 N 208.412 0.89855 1.29475 0
M  V30 2159 C 209.661 0.519863 1.94885 0
M  V30 2160 C 209.974 -0.9383 1.71625 0
M  V30 2161 O 211.18 -1.42445 2.31131 0
M  V30 2162 C 209.636 0.878836 3.49005 0
M  V30 2163 C 209.244 2.35569 3.81066 0
M  V30 2164 C 210.988 0.570004 4.20656 0
M  V30 2165 C 208.895 2.65558 5.28425 0
M  V30 2166 H 207.825 0.190692 0.729488 0
M  V30 2167 H 210.476 1.09539 1.47219 0
M  V30 2168 H 208.858 0.232253 3.95318 0
M  V30 2169 H 210.032 3.04773 3.45616 0
M  V30 2170 H 208.347 2.63343 3.22552 0
M  V30 2171 H 210.944 0.770925 5.29113 0
M  V30 2172 H 211.287 -0.491404 4.1339 0
M  V30 2173 H 211.82 1.17438 3.8007 0
M  V30 2174 H 208.559 3.70493 5.40754 0
M  V30 2175 H 208.079 2.00977 5.65127 0
M  V30 2176 H 209.758 2.51765 5.96006 0
M  V30 2177 N 209.89 -1.43072 0.660911 0
M  V30 2178 C 211.138 -2.01323 0.177094 0
M  V30 2179 C 211.459 -1.5245 -1.2159 0
M  V30 2180 O 210.729 -0.740322 -1.81373 0
M  V30 2181 H 209.309 -0.744382 0.0624804 0
M  V30 2182 H 211.971 -1.75179 0.854305 0
M  V30 2183 H 211.067 -3.11649 0.167641 0
M  V30 2184 N 211.368 -0.403325 -1.52352 0
M  V30 2185 C 212.779 0.0675782 -1.86578 0
M  V30 2186 C 213.13 1.44941 -1.32236 0
M  V30 2187 O 212.255 2.06112 -0.659307 0
M  V30 2188 C 212.85 0.129404 -3.38553 0
M  V30 2189 C 211.409 0.544629 -3.72439 0
M  V30 2190 C 210.556 -0.284551 -2.75836 0
M  V30 2191 H 213.507 -0.620631 -1.46061 0
M  V30 2192 H 213.528 0.94581 -3.68558 0
M  V30 2193 H 213.04 -0.87645 -3.78074 0
M  V30 2194 H 211.141 1.55734 -3.38493 0
M  V30 2195 H 211.254 0.293046 -4.78203 0
M  V30 2196 H 209.618 0.252258 -2.53448 0
M  V30 2197 H 210.401 -1.28865 -3.18196 0
M  V30 2198 N 212.846 1.57033 -0.133567 0
M  V30 2199 C 213.796 2.12641 0.822671 0
M  V30 2200 C 214.78 1.05081 1.21847 0
M  V30 2201 O 215.972 1.31287 1.18713 0
M  V30 2202 C 213.101 2.74094 2.06706 0
M  V30 2203 C 212.187 3.88757 1.69497 0
M  V30 2204 N 212.578 4.95194 1.03037 0
M  V30 2205 C 210.876 3.99213 1.98859 0
M  V30 2206 C 211.577 5.75414 0.852873 0
M  V30 2207 N 210.553 5.25726 1.3825 0
M  V30 2208 H 214.355 2.92308 0.305537 0
M  V30 2209 H 211.869 1.62256 0.0684276 0
M  V30 2210 H 213.866 3.12285 2.76195 0
M  V30 2211 H 212.526 1.95896 2.5895 0
M  V30 2212 H 213.537 5.13247 0.692669 0
M  V30 2213 H 210.214 3.32075 2.53047 0
M  V30 2214 H 211.604 6.71089 0.330091 0
M  V30 2215 N 214.325 -0.140222 1.56975 0
M  V30 2216 C 215.55 -0.870414 1.88251 0
M  V30 2217 C 215.975 -1.73637 0.723312 0
M  V30 2218 O 215.333 -1.78329 -0.32689 0
M  V30 2219 C 215.381 -1.69737 3.18154 0
M  V30 2220 O 214.485 -2.80229 3.02565 0
M  V30 2221 H 213.826 -0.242025 0.61832 0
M  V30 2222 H 216.356 -0.128999 2.04193 0
M  V30 2223 H 216.366 -2.09099 3.50345 0
M  V30 2224 H 215.041 -1.06152 4.02125 0
M  V30 2225 H 213.618 -2.44224 2.81796 0
M  V30 2226 N 215.803 -1.52179 -0.40978 0
M  V30 2227 C 217.028 -1.70347 -1.18308 0
M  V30 2228 C 217.453 -0.411887 -1.83535 0
M  V30 2229 O 216.811 0.630587 -1.6998 0
M  V30 2230 C 216.859 -2.83977 -2.22238 0
M  V30 2231 O 215.963 -2.495 -3.28365 0
M  V30 2232 H 215.304 -0.567103 -0.345384 0
M  V30 2233 H 217.834 -1.98879 -0.480445 0
M  V30 2234 H 217.844 -3.0887 -2.66577 0
M  V30 2235 H 216.519 -3.77685 -1.74146 0
M  V30 2236 H 215.096 -2.35277 -2.89308 0
M  V30 2237 N 217.281 0.66697 -1.42791 0
M  V30 2238 C 218.191 1.80962 -1.49299 0
M  V30 2239 C 219.207 1.69775 -0.381108 0
M  V30 2240 O 220.383 1.91188 -0.633188 0
M  V30 2241 C 217.448 3.17156 -1.40045 0
M  V30 2242 C 216.509 3.40242 -2.6179 0
M  V30 2243 C 215.742 4.69939 -2.52969 0
M  V30 2244 O 215.965 5.48372 -1.56985 0
M  V30 2245 O 214.899 4.94441 -3.43237 0
M  V30 2246 H 218.725 1.78427 -2.45759 0
M  V30 2247 H 216.31 0.823713 -1.24641 0
M  V30 2248 H 218.192 3.98413 -1.37276 0
M  V30 2249 H 216.867 3.20312 -0.467138 0
M  V30 2250 H 215.774 2.58802 -2.70134 0
M  V30 2251 H 217.107 3.41923 -3.54047 0
M  V30 2252 N 218.759 1.29093 0.90403 0
M  V30 2253 C 219.689 1.16401 2.02418 0
M  V30 2254 C 220.67 0.0593085 1.69997 0
M  V30 2255 O 221.855 0.238021 1.92736 0
M  V30 2256 C 218.985 0.835233 3.37107 0
M  V30 2257 C 217.939 1.89578 3.83724 0
M  V30 2258 C 217.265 1.42041 5.15489 0
M  V30 2259 C 218.565 3.30394 4.04521 0
M  V30 2260 H 220.259 2.10109 2.13295 0
M  V30 2261 H 217.805 1.01157 1.02486 0
M  V30 2262 H 219.758 0.733169 4.14973 0
M  V30 2263 H 218.482 -0.137543 3.2631 0
M  V30 2264 H 217.141 1.98715 3.08071 0
M  V30 2265 H 216.789 0.436426 5.01103 0
M  V30 2266 H 216.489 2.12964 5.4765 0
M  V30 2267 H 218.013 1.33176 5.959 0
M  V30 2268 H 219.427 3.24123 4.72882 0
M  V30 2269 H 217.824 3.99237 4.48029 0
M  V30 2270 H 218.894 3.73692 3.09002 0
M  V30 2271 N 220.237 -1.11381 1.11499 0
M  V30 2272 C 221.2 -2.15622 0.777153 0
M  V30 2273 C 222.2 -1.59504 -0.203779 0
M  V30 2274 O 223.39 -1.74188 0.020782 0
M  V30 2275 C 220.522 -3.40556 0.153116 0
M  V30 2276 H 221.715 -2.47021 1.70061 0
M  V30 2277 H 219.268 -1.26577 0.916952 0
M  V30 2278 H 220.003 -3.14767 -0.780536 0
M  V30 2279 H 219.788 -3.8257 0.859238 0
M  V30 2280 H 221.278 -4.17546 -0.0671044 0
M  V30 2281 N 221.715 -0.905404 -1.28997 0
M  V30 2282 C 222.648 -0.331959 -2.25773 0
M  V30 2283 C 223.626 0.559099 -1.52685 0
M  V30 2284 O 224.81 0.50463 -1.8162 0
M  V30 2285 C 221.937 0.526276 -3.34586 0
M  V30 2286 C 220.983 -0.298249 -4.25456 0
M  V30 2287 S 221.816 -1.69968 -5.0781 0
M  V30 2288 C 222.972 -0.848519 -6.20122 0
M  V30 2289 H 223.205 -1.15222 -2.74064 0
M  V30 2290 H 220.738 -0.706112 -1.37308 0
M  V30 2291 H 222.696 1.01565 -3.97737 0
M  V30 2292 H 221.357 1.32084 -2.84978 0
M  V30 2293 H 220.55 0.357607 -5.0273 0
M  V30 2294 H 220.152 -0.720968 -3.66985 0
M  V30 2295 H 222.444 -0.0744325 -6.77459 0
M  V30 2296 H 223.387 -1.59353 -6.89937 0
M  V30 2297 H 223.795 -0.400383 -5.63078 0
M  V30 2298 N 223.193 1.4272 -0.668489 0
M  V30 2299 C 224.439 2.01923 -0.188419 0
M  V30 2300 C 224.772 1.52704 1.19979 0
M  V30 2301 O 224.047 0.726566 1.8042 0
M  V30 2302 C 224.33 3.59451 -0.216085 0
M  V30 2303 C 224.183 4.18864 -1.6393 0
M  V30 2304 C 225.502 4.37903 0.439179 0
M  V30 2305 H 222.621 0.733674 -0.0699412 0
M  V30 2306 H 225.263 1.69822 -0.852076 0
M  V30 2307 H 223.413 3.86929 0.349012 0
M  V30 2308 H 225.085 4.02362 -2.25616 0
M  V30 2309 H 223.328 3.74933 -2.18193 0
M  V30 2310 H 223.999 5.27987 -1.61039 0
M  V30 2311 H 226.475 4.16079 -0.0417878 0
M  V30 2312 H 225.351 5.47519 0.389157 0
M  V30 2313 H 225.612 4.15303 1.51577 0
M  V30 2314 N 224.671 0.411399 1.52136 0
M  V30 2315 C 225.899 -0.163076 2.06256 0
M  V30 2316 C 226.314 -1.3867 1.28125 0
M  V30 2317 O 225.671 -1.79423 0.333721 0
M  V30 2318 C 225.722 -0.511252 3.57867 0
M  V30 2319 O 225.443 0.66378 4.33042 0
M  V30 2320 C 226.944 -1.13921 4.28412 0
M  V30 2321 H 224.164 -0.0193897 0.67072 0
M  V30 2322 H 226.708 0.583007 1.96013 0
M  V30 2323 H 224.863 -1.20723 3.6811 0
M  V30 2324 H 225.277 0.372601 5.23175 0
M  V30 2325 H 226.751 -1.33302 5.35663 0
M  V30 2326 H 227.228 -2.11296 3.85033 0
M  V30 2327 H 227.834 -0.483373 4.22544 0
M  V30 2328 N 226.149 -1.5696 0.141893 0
M  V30 2329 C 227.397 -1.95573 -0.509484 0
M  V30 2330 C 227.718 -1.02746 -1.65736 0
M  V30 2331 O 226.988 -0.0880311 -1.95702 0
M  V30 2332 H 225.568 -0.722115 -0.191205 0
M  V30 2333 H 228.23 -1.93697 0.216196 0
M  V30 2334 H 227.326 -2.99171 -0.889 0
M  V30 2335 N 227.627 0.131896 -1.57047 0
M  V30 2336 C 228.574 1.16236 -1.99393 0
M  V30 2337 C 229.544 1.41863 -0.863943 0
M  V30 2338 O 230.729 1.53946 -1.12718 0
M  V30 2339 C 227.869 2.48708 -2.39245 0
M  V30 2340 C 226.982 2.30127 -3.65603 0
M  V30 2341 C 226.117 3.55738 -3.94492 0
M  V30 2342 C 225.156 3.32259 -5.14073 0
M  V30 2343 N 224.293 4.50039 -5.38896 0
M  V30 2344 H 229.133 0.794251 -2.87221 0
M  V30 2345 H 226.67 0.380707 -1.42088 0
M  V30 2346 H 228.628 3.25969 -2.60384 0
M  V30 2347 H 227.258 2.83437 -1.54478 0
M  V30 2348 H 226.31 1.43845 -3.52154 0
M  V30 2349 H 227.622 2.08746 -4.5302 0
M  V30 2350 H 226.776 4.41423 -4.1621 0
M  V30 2351 H 225.515 3.80138 -3.05526 0
M  V30 2352 H 224.52 2.44963 -4.92212 0
M  V30 2353 H 225.745 3.09242 -6.04604 0
M  V30 2354 H 223.691 4.74584 -4.52886 0
M  V30 2355 H 223.608 4.31716 -6.2061 0
M  V30 2356 H 224.876 5.36895 -5.65123 0
M  V30 2357 N 229.106 1.52395 0.401703 0
M  V30 2358 C 230.353 1.66817 1.14796 0
M  V30 2359 C 230.681 0.401772 1.90305 0
M  V30 2360 O 229.936 -0.615487 1.85769 0
M  V30 2361 C 230.235 2.84578 2.16217 0
M  V30 2362 C 229.901 4.22513 1.5746 0
M  V30 2363 C 228.563 4.60029 1.41161 0
M  V30 2364 C 230.915 5.0844 1.14622 0
M  V30 2365 C 228.243 5.81144 0.80552 0
M  V30 2366 C 230.595 6.30167 0.55428 0
M  V30 2367 C 229.259 6.66426 0.378482 0
M  V30 2368 H 228.529 0.610428 0.420069 0
M  V30 2369 H 231.176 1.86512 0.434212 0
M  V30 2370 H 229.481 2.59248 2.93764 0
M  V30 2371 H 231.178 2.92933 2.73845 0
M  V30 2372 H 227.768 3.92953 1.71132 0
M  V30 2373 H 231.952 4.80034 1.26021 0
M  V30 2374 H 227.208 6.07855 0.657399 0
M  V30 2375 H 231.382 6.96071 0.213983 0
M  V30 2376 H 229.009 7.60143 -0.0932606 0
M  V30 2377 N 230.584 -0.659388 1.43143 0
M  V30 2378 C 231.831 -1.41935 1.44433 0
M  V30 2379 C 232.159 -1.94387 0.0663522 0
M  V30 2380 O 231.414 -1.72314 -0.927706 0
M  V30 2381 C 231.713 -2.62206 2.42864 0
M  V30 2382 C 231.379 -2.28208 3.88886 0
M  V30 2383 C 230.041 -2.18647 4.28657 0
M  V30 2384 C 232.393 -2.00887 4.8093 0
M  V30 2385 C 229.721 -1.79914 5.58433 0
M  V30 2386 C 232.073 -1.63653 6.11065 0
M  V30 2387 C 230.737 -1.52614 6.49819 0
M  V30 2388 H 230.007 -0.519376 0.528517 0
M  V30 2389 H 232.654 -0.750453 1.76183 0
M  V30 2390 H 230.959 -3.34199 2.04495 0
M  V30 2391 H 232.656 -3.2041 2.41119 0
M  V30 2392 H 229.246 -2.36557 3.57406 0
M  V30 2393 H 233.43 -2.07198 4.5098 0
M  V30 2394 H 228.686 -1.69948 5.87305 0
M  V30 2395 H 232.86 -1.41543 6.81864 0
M  V30 2396 H 230.487 -1.22371 7.50286 0
M  V30 2397 N 232.062 -1.29571 -0.897171 0
M  V30 2398 C 233.287 -1.20705 -1.68656 0
M  V30 2399 C 233.712 0.228582 -1.86706 0
M  V30 2400 O 233.07 1.16494 -1.3892 0
M  V30 2401 C 233.118 -1.9282 -3.04717 0
M  V30 2402 O 232.222 -1.24697 -3.93096 0
M  V30 2403 H 231.563 -0.418126 -0.515816 0
M  V30 2404 H 234.093 -1.71183 -1.12061 0
M  V30 2405 H 234.103 -2.01372 -3.54843 0
M  V30 2406 H 232.778 -2.97239 -2.90899 0
M  V30 2407 H 231.355 -1.2442 -3.51531 0
M  V30 2408 N 233.54 1.10788 -1.12088 0
M  V30 2409 C 234.787 1.82671 -0.873931 0
M  V30 2410 C 235.115 1.85004 0.600311 0
M  V30 2411 O 234.37 1.30365 1.45957 0
M  V30 2412 C 234.669 3.29294 -1.38926 0
M  V30 2413 C 234.335 3.47113 -2.87791 0
M  V30 2414 C 232.997 3.51684 -3.28439 0
M  V30 2415 C 235.349 3.52808 -3.83635 0
M  V30 2416 C 232.677 3.59513 -4.63646 0
M  V30 2417 C 235.029 3.62169 -5.18668 0
M  V30 2418 C 233.693 3.65003 -5.58864 0
M  V30 2419 H 232.963 0.668441 -0.319794 0
M  V30 2420 H 235.61 1.30613 -1.40045 0
M  V30 2421 H 233.915 3.83894 -0.783122 0
M  V30 2422 H 235.612 3.83416 -1.17443 0
M  V30 2423 H 232.202 3.4423 -2.5535 0
M  V30 2424 H 236.386 3.4853 -3.53328 0
M  V30 2425 H 231.642 3.59987 -4.94185 0
M  V30 2426 H 235.816 3.6552 -5.92763 0
M  V30 2427 H 233.443 3.70822 -6.63623 0
M  V30 2428 N 235.018 0.912232 1.28515 0
M  V30 2429 C 236.265 0.544599 1.95039 0
M  V30 2430 C 236.593 -0.911435 1.71823 0
M  V30 2431 O 235.848 -1.66317 1.03137 0
M  V30 2432 C 236.147 0.798392 3.48368 0
M  V30 2433 C 235.813 2.23374 3.91682 0
M  V30 2434 C 234.475 2.62617 4.03219 0
M  V30 2435 C 236.827 3.16786 4.13879 0
M  V30 2436 C 234.155 3.94429 4.3433 0
M  V30 2437 C 236.507 4.48161 4.46469 0
M  V30 2438 C 235.171 4.8726 4.56217 0
M  V30 2439 H 234.441 0.199283 0.7137 0
M  V30 2440 H 237.088 1.15327 1.52879 0
M  V30 2441 H 235.393 0.106908 3.91654 0
M  V30 2442 H 237.09 0.493141 3.97956 0
M  V30 2443 H 233.68 1.91922 3.83228 0
M  V30 2444 H 237.864 2.87677 4.0442 0
M  V30 2445 H 233.12 4.24426 4.40082 0
M  V30 2446 H 237.294 5.20559 4.62592 0
M  V30 2447 H 234.921 5.89431 4.80078 0
M  V30 2448 N 236.496 -1.42363 0.676048 0
M  V30 2449 C 237.426 -2.33497 0.0124832 0
M  V30 2450 C 238.407 -1.50748 -0.787981 0
M  V30 2451 O 239.592 -1.79346 -0.744884 0
M  V30 2452 C 236.722 -3.34377 -0.938582 0
M  V30 2453 C 235.676 -4.27289 -0.246622 0
M  V30 2454 C 235.002 -5.18386 -1.31071 0
M  V30 2455 C 236.302 -5.14916 0.875125 0
M  V30 2456 H 237.996 -2.89233 0.773593 0
M  V30 2457 H 235.542 -1.39073 0.37346 0
M  V30 2458 H 237.495 -3.97044 -1.41188 0
M  V30 2459 H 236.219 -2.76947 -1.73113 0
M  V30 2460 H 234.878 -3.66018 0.206456 0
M  V30 2461 H 234.526 -4.57282 -2.09528 0
M  V30 2462 H 234.226 -5.81378 -0.852839 0
M  V30 2463 H 235.75 -5.83929 -1.78492 0
M  V30 2464 H 237.164 -5.71262 0.482983 0
M  V30 2465 H 235.561 -5.86747 1.25887 0
M  V30 2466 H 236.631 -4.53242 1.72335 0
M  V30 2467 N 237.974 -0.419461 -1.51915 0
M  V30 2468 C 238.907 0.445751 -2.23804 0
M  V30 2469 C 239.885 1.03951 -1.25031 0
M  V30 2470 O 241.069 1.08541 -1.54114 0
M  V30 2471 C 238.196 1.61964 -2.97465 0
M  V30 2472 C 237.242 1.14828 -4.10751 0
M  V30 2473 S 238.075 0.104938 -5.35397 0
M  V30 2474 C 239.231 1.28391 -6.1259 0
M  V30 2475 H 239.464 -0.164627 -2.96844 0
M  V30 2476 H 236.997 -0.203833 -1.53049 0
M  V30 2477 H 238.955 2.29271 -3.40507 0
M  V30 2478 H 237.616 2.20139 -2.24048 0
M  V30 2479 H 236.809 2.02561 -4.61503 0
M  V30 2480 H 236.411 0.553712 -3.69878 0
M  V30 2481 H 238.703 2.20563 -6.40592 0
M  V30 2482 H 239.646 0.816724 -7.03374 0
M  V30 2483 H 240.054 1.51439 -5.43807 0
M  V30 2484 N 239.452 1.56882 -0.150215 0
M  V30 2485 C 240.863 1.82995 0.370076 0
M  V30 2486 C 241.214 1.06907 1.64515 0
M  V30 2487 O 240.339 0.315369 2.1409 0
M  V30 2488 C 240.934 3.31942 0.678208 0
M  V30 2489 C 239.493 3.58625 1.14301 0
M  V30 2490 C 238.64 2.76792 0.167778 0
M  V30 2491 H 241.591 1.54209 -0.374858 0
M  V30 2492 H 241.612 3.48272 1.53254 0
M  V30 2493 H 241.124 3.87294 -0.249991 0
M  V30 2494 H 239.225 3.08664 2.08704 0
M  V30 2495 H 239.338 4.67073 1.06676 0
M  V30 2496 H 237.702 2.45972 0.661037 0
M  V30 2497 H 238.485 3.34916 -0.754069 0
M  V30 2498 N 240.93 -0.123565 1.57115 0
M  V30 2499 C 241.862 -1.17739 1.96648 0
M  V30 2500 C 242.875 -1.37906 0.865201 0
M  V30 2501 O 244.064 -1.37062 1.14351 0
M  V30 2502 C 241.164 -2.53821 2.24562 0
M  V30 2503 C 240.337 -2.54317 3.55867 0
M  V30 2504 C 239.396 -3.72112 3.72047 0
M  V30 2505 O 238.422 -3.55907 4.44206 0
M  V30 2506 N 239.624 -4.90498 3.10471 0
M  V30 2507 H 242.389 -0.841147 2.87654 0
M  V30 2508 H 239.95 -0.31289 1.58848 0
M  V30 2509 H 241.942 -3.31175 2.32606 0
M  V30 2510 H 240.512 -2.79645 1.39705 0
M  V30 2511 H 239.732 -1.62711 3.59053 0
M  V30 2512 H 241.02 -2.51701 4.42181 0
M  V30 2513 H 240.418 -5.06567 2.51806 0
M  V30 2514 H 238.975 -5.65544 3.24043 0
M  V30 2515 N 242.408 -1.52605 -0.393616 0
M  V30 2516 C 243.654 -1.67672 -1.14079 0
M  V30 2517 C 243.987 -0.413121 -1.89755 0
M  V30 2518 O 243.262 0.588952 -1.85369 0
M  V30 2519 C 243.545 -2.9088 -2.12276 0
M  V30 2520 C 243.398 -4.27329 -1.40394 0
M  V30 2521 C 244.717 -3.09628 -3.12759 0
M  V30 2522 H 241.836 -0.610168 -0.413356 0
M  V30 2523 H 244.478 -1.85193 -0.424696 0
M  V30 2524 H 242.628 -2.76073 -2.73342 0
M  V30 2525 H 244.3 -4.53894 -0.82327 0
M  V30 2526 H 242.543 -4.2802 -0.705801 0
M  V30 2527 H 243.214 -5.09615 -2.12123 0
M  V30 2528 H 245.69 -3.23436 -2.61779 0
M  V30 2529 H 244.566 -3.97322 -3.78717 0
M  V30 2530 H 244.827 -2.23637 -3.81365 0
M  V30 2531 N 243.887 0.651787 -1.4349 0
M  V30 2532 C 245.112 1.44434 -1.48841 0
M  V30 2533 C 245.537 1.8779 -0.107955 0
M  V30 2534 O 244.895 1.57464 0.898602 0
M  V30 2535 C 244.943 2.65458 -2.44059 0
M  V30 2536 O 244.047 3.64566 -1.92784 0
M  V30 2537 H 243.388 0.433005 -0.503391 0
M  V30 2538 H 245.918 0.797451 -1.88419 0
M  V30 2539 H 245.928 3.13255 -2.6141 0
M  V30 2540 H 244.603 2.33244 -3.4434 0
M  V30 2541 H 243.18 3.23716 -1.851 0
M  V30 2542 N 245.365 1.30045 0.890287 0
M  V30 2543 C 246.595 1.21296 1.67245 0
M  V30 2544 C 247.003 -0.227471 1.87828 0
M  V30 2545 O 246.346 -1.16296 1.422 0
M  V30 2546 C 246.408 1.86519 3.07329 0
M  V30 2547 C 246.072 3.35837 3.09939 0
M  V30 2548 C 247.069 4.31915 2.89389 0
M  V30 2549 C 244.754 3.77196 3.31706 0
M  V30 2550 C 246.748 5.67325 2.90552 0
M  V30 2551 C 244.435 5.12725 3.32499 0
M  V30 2552 C 245.433 6.076 3.11947 0
M  V30 2553 O 245.121 7.40655 3.12547 0
M  V30 2554 H 244.853 0.4211 0.528821 0
M  V30 2555 H 247.407 1.72111 1.12103 0
M  V30 2556 H 245.637 1.30228 3.64112 0
M  V30 2557 H 247.326 1.71963 3.67673 0
M  V30 2558 H 248.092 4.01294 2.72375 0
M  V30 2559 H 243.971 3.03796 3.4674 0
M  V30 2560 H 247.515 6.41354 2.74429 0
M  V30 2561 H 243.412 5.42988 3.49047 0
M  V30 2562 H 244.18 7.49577 3.28749 0
M  V30 2563 N 246.843 -1.10192 1.12674 0
M  V30 2564 C 248.091 -1.81845 0.881861 0
M  V30 2565 C 248.412 -1.85737 -0.593867 0
M  V30 2566 O 247.682 -1.33724 -1.4316 0
M  V30 2567 H 246.262 -0.673432 0.323261 0
M  V30 2568 H 248.924 -1.33316 1.42172 0
M  V30 2569 H 248.02 -2.85288 1.2656 0
M  V30 2570 N 248.321 -0.919034 -1.28029 0
M  V30 2571 C 249.284 -0.416182 -2.2539 0
M  V30 2572 C 250.284 0.460438 -1.54067 0
M  V30 2573 O 251.474 0.262744 -1.72207 0
M  V30 2574 C 248.606 0.402707 -3.38513 0
M  V30 2575 H 249.799 -1.27629 -2.71387 0
M  V30 2576 H 247.352 -0.698919 -1.39803 0
M  V30 2577 H 248.087 1.282 -2.97885 0
M  V30 2578 H 247.872 -0.225698 -3.9145 0
M  V30 2579 H 249.362 0.745191 -4.10897 0
M  V30 2580 N 249.799 1.42003 -0.683588 0
M  V30 2581 C 251.024 2.06265 -0.216647 0
M  V30 2582 C 251.449 1.51059 1.12083 0
M  V30 2583 O 250.807 0.632638 1.69904 0
M  V30 2584 C 250.855 3.60191 -0.171759 0
M  V30 2585 O 249.959 4.03396 0.857069 0
M  V30 2586 H 249.3 0.65502 -0.108834 0
M  V30 2587 H 251.83 1.81982 -0.935077 0
M  V30 2588 H 251.84 4.08 0.0014303 0
M  V30 2589 H 250.515 3.99743 -1.14796 0
M  V30 2590 H 249.092 3.67117 0.654208 0
M  V30 2591 N 251.277 0.427512 1.51691 0
M  V30 2592 C 252.21 -0.433876 2.24037 0
M  V30 2593 C 253.188 -1.03287 1.25581 0
M  V30 2594 O 254.372 -1.07722 1.54688 0
M  V30 2595 C 251.499 -1.60385 2.98319 0
M  V30 2596 C 250.545 -1.12648 4.11355 0
M  V30 2597 S 251.378 -0.076543 5.35445 0
M  V30 2598 C 252.534 -1.25141 6.13262 0
M  V30 2599 H 252.767 0.180367 2.96752 0
M  V30 2600 H 250.3 0.211946 1.52938 0
M  V30 2601 H 252.258 -2.27462 3.41718 0
M  V30 2602 H 250.919 -2.18948 2.25213 0
M  V30 2603 H 250.112 -2.0011 4.62571 0
M  V30 2604 H 249.714 -0.534088 3.70167 0
M  V30 2605 H 252.006 -2.17162 6.41753 0
M  V30 2606 H 252.949 -0.779411 7.03797 0
M  V30 2607 H 253.357 -1.48553 5.44603 0
M  V30 2608 N 252.755 -1.56801 0.158532 0
M  V30 2609 C 253.665 -2.20916 -0.789518 0
M  V30 2610 C 254.681 -1.1969 -1.26294 0
M  V30 2611 O 255.857 -1.52308 -1.31773 0
M  V30 2612 C 252.922 -2.82727 -2.00665 0
M  V30 2613 C 251.983 -3.99114 -1.58134 0
M  V30 2614 C 251.216 -4.57968 -2.74045 0
M  V30 2615 O 251.439 -4.15704 -3.90572 0
M  V30 2616 O 250.373 -5.48047 -2.48855 0
M  V30 2617 H 254.199 -3.02464 -0.273681 0
M  V30 2618 H 251.784 -1.4924 -0.0690548 0
M  V30 2619 H 253.666 -3.21968 -2.71872 0
M  V30 2620 H 252.341 -2.04184 -2.51179 0
M  V30 2621 H 251.248 -3.64567 -0.839155 0
M  V30 2622 H 252.581 -4.79212 -1.12325 0
M  V30 2623 N 254.233 0.115231 -1.57178 0
M  V30 2624 C 255.163 1.1423 -2.03651 0
M  V30 2625 C 256.144 1.42967 -0.921655 0
M  V30 2626 O 257.329 1.53343 -1.19162 0
M  V30 2627 C 254.459 2.4675 -2.44401 0
M  V30 2628 C 253.413 2.32467 -3.59365 0
M  V30 2629 C 252.739 3.69984 -3.86026 0
M  V30 2630 C 254.039 1.78203 -4.90959 0
M  V30 2631 H 255.733 0.755749 -2.89705 0
M  V30 2632 H 253.279 0.362093 -1.39373 0
M  V30 2633 H 255.232 3.18854 -2.75517 0
M  V30 2634 H 253.956 2.87302 -1.55322 0
M  V30 2635 H 252.615 1.62811 -3.28463 0
M  V30 2636 H 252.263 4.08028 -2.94147 0
M  V30 2637 H 251.963 3.61279 -4.63412 0
M  V30 2638 H 253.487 4.43587 -4.19599 0
M  V30 2639 H 254.901 2.40128 -5.20587 0
M  V30 2640 H 253.298 1.8031 -5.72371 0
M  V30 2641 H 254.368 0.739876 -4.79222 0
M  V30 2642 N 255.711 1.52812 0.385517 0
M  V30 2643 C 256.641 1.80808 1.47752 0
M  V30 2644 C 257.622 0.660318 1.5676 0
M  V30 2645 O 258.807 0.908246 1.71652 0
M  V30 2646 C 255.937 1.98008 2.85324 0
M  V30 2647 C 254.891 3.13709 2.91154 0
M  V30 2648 C 254.217 3.16169 4.31209 0
M  V30 2649 C 255.517 4.52709 2.60483 0
M  V30 2650 H 257.211 2.72253 1.24573 0
M  V30 2651 H 254.757 1.31003 0.597839 0
M  V30 2652 H 256.71 2.16176 3.61726 0
M  V30 2653 H 255.434 1.03255 3.09848 0
M  V30 2654 H 254.093 2.95329 2.17201 0
M  V30 2655 H 253.741 2.19092 4.52778 0
M  V30 2656 H 253.441 3.93894 4.36029 0
M  V30 2657 H 254.965 3.36496 5.09512 0
M  V30 2658 H 256.379 4.71173 3.26602 0
M  V30 2659 H 254.776 5.32528 2.76648 0
M  V30 2660 H 255.846 4.59186 1.55809 0
M  V30 2661 N 257.189 -0.644168 1.43834 0
M  V30 2662 C 258.414 -1.43642 1.49605 0
M  V30 2663 C 258.839 -1.8773 0.117913 0
M  V30 2664 O 258.197 -1.57938 -0.890239 0
M  V30 2665 C 258.245 -2.6416 2.45463 0
M  V30 2666 O 257.349 -3.63538 1.94714 0
M  V30 2667 H 256.69 -0.430329 0.50568 0
M  V30 2668 H 259.22 -0.787448 1.8884 0
M  V30 2669 H 259.23 -3.11864 2.63068 0
M  V30 2670 H 257.905 -2.31414 3.45572 0
M  V30 2671 H 256.482 -3.2273 1.86814 0
M  V30 2672 N 258.668 -1.30515 -0.883378 0
M  V30 2673 C 259.631 -1.1701 -1.97082 0
M  V30 2674 C 260.631 -0.10089 -1.60483 0
M  V30 2675 O 261.821 -0.349127 -1.70666 0
M  V30 2676 C 258.953 -0.793045 -3.31547 0
M  V30 2677 H 260.146 -2.13622 -2.10489 0
M  V30 2678 H 257.699 -1.13935 -1.06998 0
M  V30 2679 H 258.434 0.172499 -3.23841 0
M  V30 2680 H 258.219 -1.56576 -3.5948 0
M  V30 2681 H 259.709 -0.722073 -4.1131 0
M  V30 2682 N 260.146 1.09593 -1.13257 0
M  V30 2683 C 261.562 1.33775 -0.870423 0
M  V30 2684 C 261.762 1.95327 0.494926 0
M  V30 2685 O 260.818 2.19853 1.2418 0
M  V30 2686 C 262.131 2.25106 -1.99369 0
M  V30 2687 C 263.679 2.3862 -2.02558 0
M  V30 2688 C 264.154 3.33285 -3.14142 0
M  V30 2689 N 265.645 3.40857 -3.13641 0
M  V30 2690 C 266.38 4.14101 -3.96621 0
M  V30 2691 N 265.876 4.90157 -4.8961 0
M  V30 2692 N 267.669 4.09808 -3.84726 0
M  V30 2693 H 259.82 0.680136 -2.01216 0
M  V30 2694 H 262.083 0.362133 -0.876107 0
M  V30 2695 H 261.789 1.87103 -2.97801 0
M  V30 2696 H 261.663 3.25481 -1.90635 0
M  V30 2697 H 264.05 2.75887 -1.0474 0
M  V30 2698 H 264.131 1.38028 -2.15364 0
M  V30 2699 H 263.775 2.96741 -4.12198 0
M  V30 2700 H 263.705 4.33776 -2.98574 0
M  V30 2701 H 266.196 2.86624 -2.46282 0
M  V30 2702 H 266.509 5.4347 -5.49418 0
M  V30 2703 H 264.854 4.89251 -4.93617 0
M  V30 2704 H 268.045 3.4949 -3.11408 0
M  V30 2705 H 268.218 4.66629 -4.49623 0
M  V30 2706 N 261.624 0.925811 1.2754 0
M  V30 2707 C 262.534 0.428993 2.30644 0
M  V30 2708 C 263.55 -0.489387 1.66976 0
M  V30 2709 O 264.726 -0.372653 1.97922 0
M  V30 2710 C 261.791 -0.311967 3.45294 0
M  V30 2711 C 260.852 0.641098 4.24486 0
M  V30 2712 C 260.085 -0.0645955 5.33661 0
M  V30 2713 O 260.308 -1.28429 5.55754 0
M  V30 2714 O 259.242 0.606265 5.98839 0
M  V30 2715 H 263.068 1.28504 2.75173 0
M  V30 2716 H 260.653 0.691086 1.32455 0
M  V30 2717 H 262.535 -0.729972 4.15029 0
M  V30 2718 H 261.21 -1.14365 3.02824 0
M  V30 2719 H 260.117 1.10874 3.57292 0
M  V30 2720 H 261.45 1.43995 4.70666 0
M  V30 2721 N 263.102 -1.41638 0.69111 0
M  V30 2722 C 264.33 -2.05628 0.22909 0
M  V30 2723 C 264.745 -1.51992 -1.11999 0
M  V30 2724 O 264.102 -0.666322 -1.69901 0
M  V30 2725 C 264.153 -3.61084 0.173283 0
M  V30 2726 O 263.874 -4.12735 1.46907 0
M  V30 2727 C 265.375 -4.42213 -0.310266 0
M  V30 2728 H 262.595 -0.662327 0.107534 0
M  V30 2729 H 265.139 -1.81489 0.942438 0
M  V30 2730 H 263.294 -3.84278 -0.490858 0
M  V30 2731 H 263.708 -5.06743 1.35322 0
M  V30 2732 H 265.182 -5.51194 -0.298196 0
M  V30 2733 H 265.659 -4.1799 -1.34838 0
M  V30 2734 H 266.265 -4.24074 0.322716 0
M  V30 2735 N 264.58 -0.43555 -1.51462 0
M  V30 2736 C 265.827 0.131514 -2.02072 0
M  V30 2737 C 266.155 1.42868 -1.31981 0
M  V30 2738 O 265.41 1.91076 -0.422883 0
M  V30 2739 C 265.709 0.39942 -3.55161 0
M  V30 2740 C 265.375 -0.81172 -4.43533 0
M  V30 2741 C 264.037 -1.14387 -4.67407 0
M  V30 2742 C 266.389 -1.61976 -4.95392 0
M  V30 2743 C 263.717 -2.28477 -5.40384 0
M  V30 2744 C 266.069 -2.75164 -5.6962 0
M  V30 2745 C 264.733 -3.08835 -5.91758 0
M  V30 2746 H 264.003 0.0481244 -0.739436 0
M  V30 2747 H 266.65 -0.58238 -1.8243 0
M  V30 2748 H 264.955 1.19519 -3.73125 0
M  V30 2749 H 266.652 0.85157 -3.91854 0
M  V30 2750 H 263.242 -0.542898 -4.25148 0
M  V30 2751 H 267.426 -1.37637 -4.76833 0
M  V30 2752 H 262.682 -2.5488 -5.55739 0
M  V30 2753 H 266.856 -3.38147 -6.08793 0
M  V30 2754 H 264.483 -3.97353 -6.48086 0
M  V30 2755 N 266.058 1.56714 -0.166846 0
M  V30 2756 C 267.469 1.83378 0.350646 0
M  V30 2757 C 267.82 1.08646 1.63372 0
M  V30 2758 O 266.945 0.338058 2.13743 0
M  V30 2759 C 267.54 3.32643 0.642963 0
M  V30 2760 C 266.099 3.59818 1.10491 0
M  V30 2761 C 265.246 2.76954 0.138411 0
M  V30 2762 H 268.197 1.53803 -0.391193 0
M  V30 2763 H 268.218 3.49878 1.49551 0
M  V30 2764 H 267.73 3.87007 -0.291055 0
M  V30 2765 H 265.831 3.1086 2.05418 0
M  V30 2766 H 265.944 4.68178 1.01716 0
M  V30 2767 H 264.308 2.4666 0.634911 0
M  V30 2768 H 265.091 3.34097 -0.789549 0
M  V30 2769 N 267.536 -0.106894 1.57237 0
M  V30 2770 C 268.761 -0.830287 1.90055 0
M  V30 2771 C 269.186 -1.72064 0.75998 0
M  V30 2772 O 268.544 -1.78982 -0.288991 0
M  V30 2773 C 268.592 -1.6295 3.21683 0
M  V30 2774 O 267.696 -2.73748 3.08441 0
M  V30 2775 H 267.037 -0.228855 0.623315 0
M  V30 2776 H 269.567 -0.085658 2.04421 0
M  V30 2777 H 269.577 -2.01621 3.54701 0
M  V30 2778 H 268.252 -0.975989 4.04286 0
M  V30 2779 H 266.829 -2.38192 2.86913 0
M  V30 2780 N 269.014 -1.53014 -0.377408 0
M  V30 2781 C 270.261 -1.68623 -1.12128 0
M  V30 2782 C 270.589 -0.431997 -1.89642 0
M  V30 2783 O 269.844 0.585855 -1.86725 0
M  V30 2784 C 270.143 -2.87982 -2.11663 0
M  V30 2785 C 269.809 -4.24964 -1.50719 0
M  V30 2786 C 268.471 -4.62217 -1.33825 0
M  V30 2787 C 270.823 -5.10199 -1.06519 0
M  V30 2788 C 268.151 -5.82352 -0.712963 0
M  V30 2789 C 270.503 -6.30969 -0.453955 0
M  V30 2790 C 269.167 -6.66944 -0.272411 0
M  V30 2791 H 268.437 -0.617034 -0.410305 0
M  V30 2792 H 271.084 -1.8718 -0.404484 0
M  V30 2793 H 269.389 -2.63889 -2.89603 0
M  V30 2794 H 271.086 -2.97253 -2.6915 0
M  V30 2795 H 267.676 -3.95626 -1.64858 0
M  V30 2796 H 271.86 -4.81978 -1.18368 0
M  V30 2797 H 267.116 -6.08824 -0.560611 0
M  V30 2798 H 271.29 -6.96324 -0.103217 0
M  V30 2799 H 268.917 -7.59898 0.214181 0
M  V30 2800 N 270.492 0.636531 -1.44174 0
M  V30 2801 C 271.739 1.39619 -1.46672 0
M  V30 2802 C 272.067 1.94257 -0.0972691 0
M  V30 2803 O 271.322 1.73768 0.900175 0
M  V30 2804 C 271.621 2.58309 -2.47005 0
M  V30 2805 C 271.287 2.21992 -3.92467 0
M  V30 2806 C 269.949 2.118 -4.32081 0
M  V30 2807 C 272.301 1.9321 -4.84065 0
M  V30 2808 C 269.629 1.71007 -5.61225 0
M  V30 2809 C 271.981 1.53911 -6.13591 0
M  V30 2810 C 270.645 1.42257 -6.52165 0
M  V30 2811 H 269.915 0.510902 -0.536712 0
M  V30 2812 H 272.562 0.722328 -1.77355 0
M  V30 2813 H 270.867 3.30903 -2.09786 0
M  V30 2814 H 272.564 3.16533 -2.46186 0
M  V30 2815 H 269.154 2.30841 -3.61124 0
M  V30 2816 H 273.338 1.99997 -4.54219 0
M  V30 2817 H 268.594 1.60583 -5.89935 0
M  V30 2818 H 272.768 1.30677 -6.8403 0
M  V30 2819 H 270.395 1.10419 -7.52138 0
M  V30 2820 N 271.97 1.30982 0.876444 0
M  V30 2821 C 273.386 1.09498 1.16113 0
M  V30 2822 C 273.586 -0.13875 2.01022 0
M  V30 2823 O 272.642 -0.829935 2.38471 0
M  V30 2824 C 273.955 2.36308 1.85954 0
M  V30 2825 C 275.503 2.41856 1.98683 0
M  V30 2826 C 275.978 3.6853 2.71937 0
M  V30 2827 N 277.469 3.69387 2.79477 0
M  V30 2828 C 278.204 4.64096 3.36753 0
M  V30 2829 N 277.7 5.69155 3.95012 0
M  V30 2830 N 279.493 4.51626 3.3465 0
M  V30 2831 H 271.644 2.10118 0.310494 0
M  V30 2832 H 273.907 0.926634 0.200131 0
M  V30 2833 H 273.613 3.26388 1.31011 0
M  V30 2834 H 273.487 2.4561 2.86278 0
M  V30 2835 H 275.874 1.52249 2.52793 0
M  V30 2836 H 275.955 2.36523 0.9742 0
M  V30 2837 H 275.599 4.58499 2.18496 0
M  V30 2838 H 275.529 3.71127 3.73593 0
M  V30 2839 H 278.02 2.93438 2.38123 0
M  V30 2840 H 278.333 6.3751 4.36808 0
M  V30 2841 H 276.678 5.72937 3.93406 0
M  V30 2842 H 279.869 3.68728 2.8837 0
M  V30 2843 H 280.042 5.25614 3.7899 0
M  V30 2844 N 273.449 -1.08991 1.13837 0
M  V30 2845 C 274.677 -1.85011 0.926202 0
M  V30 2846 C 275.092 -1.8135 -0.525127 0
M  V30 2847 O 274.449 -1.21287 -1.36366 0
M  V30 2848 C 274.5 -3.32802 1.41155 0
M  V30 2849 O 274.221 -3.36444 2.80601 0
M  V30 2850 C 275.722 -4.25649 1.23847 0
M  V30 2851 H 272.942 -0.584249 0.32999 0
M  V30 2852 H 275.486 -1.37688 1.51202 0
M  V30 2853 H 273.641 -3.77536 0.868631 0
M  V30 2854 H 274.055 -4.28657 3.02248 0
M  V30 2855 H 275.529 -5.27485 1.62675 0
M  V30 2856 H 276.006 -4.38828 0.18065 0
M  V30 2857 H 276.612 -3.86735 1.76964 0
M  V30 2858 N 274.927 -0.932562 -1.27047 0
M  V30 2859 C 276.173 -0.576412 -1.94436 0
M  V30 2860 C 276.506 0.880891 -1.73072 0
M  V30 2861 O 275.781 1.62905 -1.06264 0
M  V30 2862 C 276.064 -0.909031 -3.48437 0
M  V30 2863 C 275.917 -2.42044 -3.79123 0
M  V30 2864 C 277.236 -0.418341 -4.38107 0
M  V30 2865 H 274.355 -0.210888 -0.706184 0
M  V30 2866 H 276.997 -1.16522 -1.50075 0
M  V30 2867 H 275.147 -0.407947 -3.86352 0
M  V30 2868 H 276.819 -2.99359 -3.50973 0
M  V30 2869 H 275.062 -2.86758 -3.25503 0
M  V30 2870 H 275.733 -2.6037 -4.86736 0
M  V30 2871 H 278.209 -0.847856 -4.0737 0
M  V30 2872 H 277.085 -0.679981 -5.44672 0
M  V30 2873 H 277.346 0.681642 -4.36814 0
M  V30 2874 N 276.405 1.4127 -0.698611 0
M  V30 2875 C 277.816 1.84187 -0.305289 0
M  V30 2876 C 278.167 1.58449 1.15708 0
M  V30 2877 O 277.292 1.05651 1.88856 0
M  V30 2878 C 277.887 3.3435 -0.547314 0
M  V30 2879 C 276.446 3.75826 -0.207878 0
M  V30 2880 C 275.593 2.64647 -0.828099 0
M  V30 2881 H 278.544 1.30778 -0.89904 0
M  V30 2882 H 278.565 3.8001 0.192998 0
M  V30 2883 H 278.077 3.53051 -1.61172 0
M  V30 2884 H 276.178 3.62725 0.852143 0
M  V30 2885 H 276.291 4.74462 -0.665021 0
M  V30 2886 H 274.655 2.53395 -0.257458 0
M  V30 2887 H 275.438 2.86165 -1.89643 0
M  V30 2888 N 277.883 0.443576 1.51229 0
M  V30 2889 C 279.108 -0.121648 2.07043 0
M  V30 2890 C 279.533 -1.35156 1.30823 0
M  V30 2891 O 278.891 -1.7793 0.347934 0
M  V30 2892 C 278.939 -0.41624 3.5819 0
M  V30 2893 O 278.043 -1.50163 3.8409 0
M  V30 2894 H 277.384 0.000871367 0.663999 0
M  V30 2895 H 279.914 0.626706 1.94765 0
M  V30 2896 H 279.924 -0.664867 4.02546 0
M  V30 2897 H 278.599 0.482653 4.1309 0
M  V30 2898 H 277.176 -1.24248 3.51592 0
M  V30 2899 N 279.361 -1.56624 0.175154 0
M  V30 2900 C 280.638 -1.88688 -0.515373 0
M  V30 2901 C 281.018 -1.08564 -1.81044 0
M  V30 2902 O 280.366 -0.180703 -2.27784 0
M  V30 2903 C 280.576 -3.40768 -0.753552 0
M  V30 2904 C 281.924 -4.10587 -1.08184 0
M  V30 2905 O 282.948 -3.46106 -0.841961 0
M  V30 2906 O 281.807 -5.24512 -1.53459 0
M  V30 2907 H 278.901 -0.78301 -0.26613 0
M  V30 2908 H 281.447 -1.68347 0.213877 0
M  V30 2909 H 280.219 -3.90965 0.161829 0
M  V30 2910 H 279.842 -3.66733 -1.53598 0
M  V30 2911 N 280.839 0.0985539 -1.57292 0
M  V30 2912 C 282.255 0.45267 -1.53046 0
M  V30 2913 C 282.455 1.80713 -0.891342 0
M  V30 2914 O 281.511 2.4785 -0.482375 0
M  V30 2915 C 282.824 0.418341 -2.97776 0
M  V30 2916 C 284.372 0.500443 -3.08973 0
M  V30 2917 C 284.847 0.496297 -4.55303 0
M  V30 2918 N 286.338 0.557151 -4.59837 0
M  V30 2919 C 287.073 0.575726 -5.70502 0
M  V30 2920 N 286.569 0.550714 -6.90608 0
M  V30 2921 N 288.362 0.620277 -5.58667 0
M  V30 2922 H 280.513 -0.788673 -1.97215 0
M  V30 2923 H 282.776 -0.293188 -0.901524 0
M  V30 2924 H 282.482 -0.509659 -3.47988 0
M  V30 2925 H 282.356 1.2386 -3.56284 0
M  V30 2926 H 284.743 1.41886 -2.58751 0
M  V30 2927 H 284.824 -0.347894 -2.53423 0
M  V30 2928 H 284.468 -0.418162 -5.06176 0
M  V30 2929 H 284.398 1.3618 -5.08687 0
M  V30 2930 H 286.889 0.581816 -3.73394 0
M  V30 2931 H 287.202 0.568075 -7.70709 0
M  V30 2932 H 285.547 0.517816 -6.93068 0
M  V30 2933 H 288.738 0.637322 -4.63741 0
M  V30 2934 H 288.911 0.631283 -6.44918 0
M  V30 2935 N 282.317 1.53212 0.369288 0
M  V30 2936 C 283.563 1.69466 1.11397 0
M  V30 2937 C 283.896 0.443257 1.89074 0
M  V30 2938 O 283.171 -0.559386 1.86282 0
M  V30 2939 C 283.454 2.9422 2.07621 0
M  V30 2940 C 283.307 4.29508 1.33577 0
M  V30 2941 C 284.626 3.14565 3.07794 0
M  V30 2942 H 281.745 0.616667 0.403597 0
M  V30 2943 H 284.387 1.85845 0.395179 0
M  V30 2944 H 282.537 2.80387 2.68916 0
M  V30 2945 H 284.209 4.55147 0.750955 0
M  V30 2946 H 282.452 4.29088 0.637618 0
M  V30 2947 H 283.123 5.12926 2.03989 0
M  V30 2948 H 285.599 3.2756 2.56601 0
M  V30 2949 H 284.475 4.03297 3.72348 0
M  V30 2950 H 284.736 2.29675 3.77759 0
M  V30 2951 N 283.795 -0.628877 1.44509 0
M  V30 2952 C 284.727 -1.754 1.47538 0
M  V30 2953 C 285.74 -1.58575 0.368506 0
M  V30 2954 O 286.929 -1.66847 0.634376 0
M  V30 2955 C 284.029 -3.1315 1.29577 0
M  V30 2956 C 283.202 -3.56413 2.53551 0
M  V30 2957 C 282.261 -4.7305 2.30457 0
M  V30 2958 O 281.287 -4.81247 3.03957 0
M  V30 2959 N 282.489 -5.64903 1.3366 0
M  V30 2960 H 285.254 -1.73272 2.44534 0
M  V30 2961 H 282.815 -0.813512 1.39977 0
M  V30 2962 H 284.807 -3.88902 1.11971 0
M  V30 2963 H 283.377 -3.09908 0.409371 0
M  V30 2964 H 282.597 -2.70847 2.86419 0
M  V30 2965 H 283.885 -3.82071 3.36005 0
M  V30 2966 H 283.283 -5.60975 0.729604 0
M  V30 2967 H 281.84 -6.40275 1.22032 0
M  V30 2968 N 285.273 -1.31445 -0.869486 0
M  V30 2969 C 286.203 -1.21727 -1.99261 0
M  V30 2970 C 287.184 -0.104359 -1.6978 0
M  V30 2971 O 288.369 -0.289038 -1.92037 0
M  V30 2972 C 285.499 -0.924317 -3.34774 0
M  V30 2973 C 284.453 -1.99685 -3.78563 0
M  V30 2974 C 283.779 -1.55658 -5.11541 0
M  V30 2975 C 285.079 -3.41003 -3.95619 0
M  V30 2976 H 286.773 -2.1569 -2.07649 0
M  V30 2977 H 284.319 -1.03839 -0.997675 0
M  V30 2978 H 286.272 -0.842934 -4.12883 0
M  V30 2979 H 284.996 0.0509793 -3.2656 0
M  V30 2980 H 283.655 -2.06813 -3.02694 0
M  V30 2981 H 283.303 -0.569132 -4.9977 0
M  V30 2982 H 283.003 -2.27409 -5.41811 0
M  V30 2983 H 284.527 -1.48928 -5.92159 0
M  V30 2984 H 285.941 -3.36547 -4.64122 0
M  V30 2985 H 284.338 -4.10975 -4.37286 0
M  V30 2986 H 285.408 -3.81754 -2.98985 0
M  V30 2987 N 286.751 1.08385 -1.14413 0
M  V30 2988 C 287.979 1.84517 -0.936001 0
M  V30 2989 C 288.394 1.81626 0.515503 0
M  V30 2990 O 287.751 1.22008 1.35721 0
M  V30 2991 C 287.802 3.32049 -1.42918 0
M  V30 2992 O 287.523 3.34951 -2.82381 0
M  V30 2993 C 289.024 4.24986 -1.26103 0
M  V30 2994 H 286.244 0.582491 -0.333084 0
M  V30 2995 H 288.788 1.36885 -1.5193 0
M  V30 2996 H 286.943 3.7707 -0.888641 0
M  V30 2997 H 287.357 4.27048 -3.04517 0
M  V30 2998 H 288.831 5.26615 -1.6547 0
M  V30 2999 H 289.308 4.38726 -0.20392 0
M  V30 3000 H 289.914 3.85791 -1.79012 0
M  V30 3001 N 288.23 0.939286 1.26551 0
M  V30 3002 C 289.193 0.451987 2.24699 0
M  V30 3003 C 290.193 -0.435869 1.5478 0
M  V30 3004 O 291.383 -0.235314 1.72603 0
M  V30 3005 C 288.515 -0.348801 3.39111 0
M  V30 3006 H 289.708 1.3193 2.69322 0
M  V30 3007 H 287.261 0.721072 1.38673 0
M  V30 3008 H 287.996 -1.23444 2.99887 0
M  V30 3009 H 287.781 0.287945 3.91041 0
M  V30 3010 H 289.271 -0.679726 4.12031 0
M  V30 3011 N 289.708 -1.40897 0.706093 0
M  V30 3012 C 290.671 -2.29131 0.0562841 0
M  V30 3013 C 291.671 -1.44901 -0.697166 0
M  V30 3014 O 292.861 -1.65926 -0.530484 0
M  V30 3015 C 289.993 -3.27957 -0.93043 0
M  V30 3016 H 291.186 -2.88091 0.833284 0
M  V30 3017 H 288.739 -1.4906 0.470192 0
M  V30 3018 H 289.474 -2.73997 -1.73482 0
M  V30 3019 H 289.259 -3.90124 -0.393166 0
M  V30 3020 H 290.749 -3.94049 -1.38256 0
M  V30 3021 N 291.186 -0.45159 -1.50991 0
M  V30 3022 C 292.149 0.341117 -2.26647 0
M  V30 3023 C 293.149 0.937422 -1.30649 0
M  V30 3024 O 294.339 0.809644 -1.54241 0
M  V30 3025 C 291.471 1.48398 -3.06905 0
M  V30 3026 H 292.664 -0.322117 -2.98165 0
M  V30 3027 H 290.217 -0.205122 -1.54948 0
M  V30 3028 H 290.952 2.18284 -2.39838 0
M  V30 3029 H 290.737 1.06241 -3.77432 0
M  V30 3030 H 292.227 2.04367 -3.64176 0
M  V30 3031 N 292.664 1.56529 -0.183458 0
M  V30 3032 C 293.574 2.22144 0.754272 0
M  V30 3033 C 294.59 1.21684 1.24374 0
M  V30 3034 O 295.766 1.54385 1.29333 0
M  V30 3035 C 292.831 2.85884 1.96141 0
M  V30 3036 C 291.892 4.01579 1.51765 0
M  V30 3037 C 291.125 4.6227 2.66725 0
M  V30 3038 O 291.348 4.21865 3.83909 0
M  V30 3039 O 290.282 5.51936 2.40104 0
M  V30 3040 H 294.108 3.02861 0.225527 0
M  V30 3041 H 291.693 1.49331 0.0453032 0
M  V30 3042 H 293.575 3.26253 2.66715 0
M  V30 3043 H 292.25 2.08154 2.47899 0
M  V30 3044 H 291.157 3.65856 0.781049 0
M  V30 3045 H 292.49 4.80938 1.04686 0
M  V30 3046 N 294.142 -0.090211 1.57342 0
M  V30 3047 C 295.072 -1.10976 2.05443 0
M  V30 3048 C 296.053 -1.41482 0.944284 0
M  V30 3049 O 297.238 -1.51428 1.21586 0
M  V30 3050 C 294.368 -2.42831 2.48295 0
M  V30 3051 C 293.322 -2.26721 3.63018 0
M  V30 3052 C 292.648 -3.63796 3.91863 0
M  V30 3053 C 293.948 -1.7037 4.93732 0
M  V30 3054 H 295.642 -0.709564 2.9087 0
M  V30 3055 H 293.188 -0.339874 1.39932 0
M  V30 3056 H 295.141 -3.14431 2.80555 0
M  V30 3057 H 293.865 -2.84795 1.59873 0
M  V30 3058 H 292.524 -1.57565 3.31012 0
M  V30 3059 H 292.172 -4.03297 3.00601 0
M  V30 3060 H 291.872 -3.53861 4.69101 0
M  V30 3061 H 293.396 -4.36855 4.26603 0
M  V30 3062 H 294.81 -2.31816 5.24342 0
M  V30 3063 H 293.207 -1.71181 5.75167 0
M  V30 3064 H 294.277 -0.663542 4.80339 0
M  V30 3065 N 295.62 -1.53406 -0.361157 0
M  V30 3066 C 296.55 -1.83136 -1.44857 0
M  V30 3067 C 297.531 -0.685174 -1.5569 0
M  V30 3068 O 298.716 -0.93544 -1.70186 0
M  V30 3069 C 295.846 -2.02522 -2.82138 0
M  V30 3070 C 294.8 -3.18302 -2.86126 0
M  V30 3071 C 294.126 -3.22989 -4.26125 0
M  V30 3072 C 295.426 -4.56796 -2.53248 0
M  V30 3073 H 297.12 -2.74201 -1.20226 0
M  V30 3074 H 294.666 -1.31938 -0.576922 0
M  V30 3075 H 296.619 -2.21904 -3.58241 0
M  V30 3076 H 295.343 -1.08172 -3.08166 0
M  V30 3077 H 294.002 -2.98747 -2.12475 0
M  V30 3078 H 293.65 -2.26267 -4.49235 0
M  V30 3079 H 293.35 -4.00781 -4.29708 0
M  V30 3080 H 294.874 -3.44559 -5.04094 0
M  V30 3081 H 296.288 -4.7631 -3.19064 0
M  V30 3082 H 294.685 -5.36862 -2.68141 0
M  V30 3083 H 295.755 -4.61606 -1.48484 0
M  V30 3084 N 297.098 0.621204 -1.44841 0
M  V30 3085 C 298.03 1.74615 -1.48466 0
M  V30 3086 C 299.043 1.58377 -0.37691 0
M  V30 3087 O 300.232 1.66508 -0.643215 0
M  V30 3088 C 297.332 3.12459 -1.31236 0
M  V30 3089 C 296.505 3.55064 -2.55438 0
M  V30 3090 C 295.564 4.71821 -2.32963 0
M  V30 3091 O 294.59 4.79628 -3.06505 0
M  V30 3092 N 295.792 5.64186 -1.36654 0
M  V30 3093 H 298.557 1.71973 -2.45449 0
M  V30 3094 H 296.118 0.806077 -1.40407 0
M  V30 3095 H 298.11 3.88302 -1.14032 0
M  V30 3096 H 296.68 3.09686 -0.4258 0
M  V30 3097 H 295.9 2.69324 -2.87851 0
M  V30 3098 H 297.188 3.80284 -3.38026 0
M  V30 3099 H 296.586 5.6058 -0.759344 0
M  V30 3100 H 295.143 6.39618 -1.25425 0
M  V30 3101 N 298.576 1.31904 0.862503 0
M  V30 3102 C 299.486 1.22161 2.00285 0
M  V30 3103 C 300.502 0.136785 1.73462 0
M  V30 3104 O 301.678 0.355994 1.98229 0
M  V30 3105 C 298.743 0.937093 3.33796 0
M  V30 3106 C 297.804 2.10957 3.73893 0
M  V30 3107 C 297.037 1.83853 5.01033 0
M  V30 3108 O 297.26 0.777274 5.65079 0
M  V30 3109 O 296.194 2.69741 5.38074 0
M  V30 3110 H 300.02 2.18008 2.11439 0
M  V30 3111 H 297.605 1.11716 0.991957 0
M  V30 3112 H 299.487 0.794583 4.13841 0
M  V30 3113 H 298.162 0.00871894 3.23699 0
M  V30 3114 H 297.069 2.30752 2.94456 0
M  V30 3115 H 298.402 3.02046 3.88625 0
M  V30 3116 N 300.054 -1.07777 1.14986 0
M  V30 3117 C 301.301 -1.8029 0.922056 0
M  V30 3118 C 301.629 -1.86531 -0.55105 0
M  V30 3119 O 300.884 -1.34189 -1.42449 0
M  V30 3120 C 301.183 -3.25495 1.47608 0
M  V30 3121 C 300.849 -3.39361 2.96893 0
M  V30 3122 C 299.511 -3.42852 3.37647 0
M  V30 3123 C 301.863 -3.42512 3.92854 0
M  V30 3124 C 299.191 -3.47094 4.73015 0
M  V30 3125 C 301.543 -3.4829 5.28088 0
M  V30 3126 C 300.207 -3.50058 5.68345 0
M  V30 3127 H 299.477 -0.659727 0.337404 0
M  V30 3128 H 302.124 -1.26854 1.43459 0
M  V30 3129 H 300.429 -3.81683 0.88463 0
M  V30 3130 H 302.126 -3.80168 1.27568 0
M  V30 3131 H 298.716 -3.37339 2.64387 0
M  V30 3132 H 302.9 -3.3904 3.62444 0
M  V30 3133 H 298.156 -3.46758 5.03556 0
M  V30 3134 H 302.33 -3.49675 6.02246 0
M  V30 3135 H 299.957 -3.53097 6.73221 0
M  V30 3136 N 301.532 -0.945985 -1.26051 0
M  V30 3137 C 302.78 -0.594941 -1.93145 0
M  V30 3138 C 303.101 0.86953 -1.7454 0
M  V30 3139 O 302.371 1.61838 -1.10387 0
M  V30 3140 H 300.951 -0.217044 -0.714773 0
M  V30 3141 H 303.613 -1.20235 -1.53393 0
M  V30 3142 H 302.709 -0.816835 -3.01221 0
M  V30 3143 N 303.011 1.40521 -0.713556 0
M  V30 3144 C 304.257 2.01714 -0.261382 0
M  V30 3145 C 304.612 1.55562 1.13217 0
M  V30 3146 O 303.905 0.764893 1.7567 0
M  V30 3147 C 304.099 3.56317 -0.278 0
M  V30 3148 C 303.928 4.17476 -1.67163 0
M  V30 3149 C 302.698 4.50998 -2.2788 0
M  V30 3150 C 304.896 4.42472 -2.6215 0
M  V30 3151 N 302.878 4.9754 -3.5962 0
M  V30 3152 C 304.249 4.90985 -3.78594 0
M  V30 3153 C 306.304 4.24508 -2.60188 0
M  V30 3154 C 305.007 5.2342 -4.9338 0
M  V30 3155 C 307.033 4.58043 -3.741 0
M  V30 3156 C 306.395 5.06743 -4.89276 0
M  V30 3157 H 302.494 0.769104 -0.141434 0
M  V30 3158 H 305.078 1.70785 -0.934915 0
M  V30 3159 H 303.249 3.8668 0.36509 0
M  V30 3160 H 304.981 4.0425 0.190695 0
M  V30 3161 H 301.736 4.38062 -1.79997 0
M  V30 3162 H 302.16 5.25196 -4.27198 0
M  V30 3163 H 306.802 3.86078 -1.72348 0
M  V30 3164 H 304.52 5.60765 -5.81866 0
M  V30 3165 H 308.106 4.45785 -3.73854 0
M  V30 3166 H 306.986 5.32204 -5.75959 0
M  V30 3167 N 304.489 0.459591 1.5075 0
M  V30 3168 C 305.437 -0.354678 2.2988 0
M  V30 3169 C 306.431 -1.00086 1.36672 0
M  V30 3170 O 307.637 -0.933277 1.53915 0
M  V30 3171 H 304.012 -0.13321 0.740107 0
M  V30 3172 H 305.983 0.333269 2.96533 0
M  V30 3173 C 304.732 -1.43073 3.169 0
M  V30 3174 H 304.055 -0.942882 3.88523 0
M  V30 3175 H 305.495 -1.97328 3.75284 0
M  V30 3176 C 303.954 -2.42633 2.33732 0
M  V30 3177 O 304.484 -3.47658 2.01238 0
M  V30 3178 N 302.69 -2.14066 1.9653 0
M  V30 3179 H 302.237 -1.28685 2.23155 0
M  V30 3180 H 302.195 -2.80917 1.41185 0
M  V30 3181 N 305.967 -1.56429 0.191757 0
M  V30 3182 C 307.213 -1.98541 -0.441943 0
M  V30 3183 C 307.568 -1.07646 -1.59468 0
M  V30 3184 O 306.861 -0.120191 -1.91223 0
M  V30 3185 C 307.055 -3.44449 -0.953384 0
M  V30 3186 C 306.884 -4.49456 0.148262 0
M  V30 3187 C 305.654 -5.01668 0.604781 0
M  V30 3188 C 307.852 -5.05336 0.95602 0
M  V30 3189 N 305.834 -5.90334 1.6846 0
M  V30 3190 C 307.205 -5.9064 1.88531 0
M  V30 3191 C 309.26 -4.87779 0.998811 0
M  V30 3192 C 307.963 -6.60264 2.85383 0
M  V30 3193 C 309.989 -5.58139 1.95537 0
M  V30 3194 C 309.351 -6.43187 2.8721 0
M  V30 3195 H 305.45 -0.771247 -0.129236 0
M  V30 3196 H 308.034 -1.92426 0.296682 0
M  V30 3197 H 306.205 -3.5107 -1.66146 0
M  V30 3198 H 307.937 -3.73533 -1.55741 0
M  V30 3199 H 304.692 -4.73183 0.198736 0
M  V30 3200 H 305.116 -6.39371 2.22561 0
M  V30 3201 H 309.758 -4.21705 0.304048 0
M  V30 3202 H 307.476 -7.25538 3.55837 0
M  V30 3203 H 311.062 -5.46532 1.99484 0
M  V30 3204 H 309.942 -6.96674 3.60022 0
M  V30 3205 N 307.445 0.0818655 -1.57387 0
M  V30 3206 C 308.691 0.784074 -1.8703 0
M  V30 3207 C 309.024 1.77729 -0.782689 0
M  V30 3208 O 308.299 1.93384 0.208051 0
M  V30 3209 C 308.582 1.50105 -3.27323 0
M  V30 3210 C 308.435 0.524925 -4.46727 0
M  V30 3211 C 309.754 2.44843 -3.65705 0
M  V30 3212 H 306.873 0.283582 -0.680257 0
M  V30 3213 H 309.515 0.0474352 -1.89941 0
M  V30 3214 H 307.665 2.12897 -3.24972 0
M  V30 3215 H 309.337 -0.0970111 -4.61198 0
M  V30 3216 H 307.58 -0.160606 -4.33503 0
M  V30 3217 H 308.251 1.064 -5.41648 0
M  V30 3218 H 310.727 1.92135 -3.69085 0
M  V30 3219 H 309.603 2.92018 -4.64776 0
M  V30 3220 H 309.864 3.29197 -2.95096 0
M  V30 3221 N 308.923 1.53595 0.353017 0
M  V30 3222 C 309.886 1.80232 1.41594 0
M  V30 3223 C 310.886 0.673081 1.46035 0
M  V30 3224 O 312.076 0.941335 1.46576 0
M  V30 3225 C 309.208 1.93578 2.80607 0
M  V30 3226 H 310.401 2.75174 1.19244 0
M  V30 3227 H 307.954 1.44864 0.586872 0
M  V30 3228 H 308.689 1.00746 3.08254 0
M  V30 3229 H 308.474 2.75724 2.78781 0
M  V30 3230 H 309.964 2.15735 3.57558 0
M  V30 3231 N 310.401 -0.613514 1.45168 0
M  V30 3232 C 311.364 -1.7065 1.53007 0
M  V30 3233 C 312.364 -1.5548 0.410184 0
M  V30 3234 O 313.554 -1.60656 0.673455 0
M  V30 3235 C 310.686 -3.09875 1.42093 0
M  V30 3236 H 311.879 -1.65068 2.50385 0
M  V30 3237 H 309.432 -0.828728 1.32521 0
M  V30 3238 H 310.167 -3.21039 0.458769 0
M  V30 3239 H 309.952 -3.22293 2.23315 0
M  V30 3240 H 311.442 -3.895 1.50598 0
M  V30 3241 N 311.879 -1.3236 -0.855495 0
M  V30 3242 C 312.809 -1.23833 -1.97958 0
M  V30 3243 C 313.79 -0.122361 -1.69659 0
M  V30 3244 O 314.975 -0.30939 -1.9172 0
M  V30 3245 C 312.105 -0.959772 -3.33775 0
M  V30 3246 C 311.059 -2.03689 -3.76424 0
M  V30 3247 C 310.385 -1.61075 -5.09862 0
M  V30 3248 C 311.685 -3.4518 -3.9198 0
M  V30 3249 H 313.379 -2.1788 -2.0535 0
M  V30 3250 H 310.925 -1.04891 -0.986605 0
M  V30 3251 H 312.878 -0.886678 -4.11966 0
M  V30 3252 H 311.602 0.0163404 -3.26596 0
M  V30 3253 H 310.261 -2.10012 -3.00484 0
M  V30 3254 H 309.909 -0.622107 -4.99138 0
M  V30 3255 H 309.609 -2.33143 -5.39368 0
M  V30 3256 H 311.133 -1.55201 -5.90546 0
M  V30 3257 H 312.547 -3.4145 -4.60526 0
M  V30 3258 H 310.944 -4.1559 -4.32903 0
M  V30 3259 H 312.014 -3.84903 -2.94919 0
M  V30 3260 N 313.357 1.07166 -1.15556 0
M  V30 3261 C 314.605 1.79443 -0.929764 0
M  V30 3262 C 314.926 1.87246 0.544414 0
M  V30 3263 O 314.196 1.37473 1.39564 0
M  V30 3264 H 312.776 0.664625 -0.341003 0
M  V30 3265 H 315.438 1.29499 -1.45657 0
M  V30 3266 H 314.534 2.81832 -1.34079 0
M  V30 3267 N 314.835 0.952656 1.25548 0
M  V30 3268 C 316.06 0.623025 1.97821 0
M  V30 3269 C 316.485 -0.7976 1.70352 0
M  V30 3270 O 315.843 -1.53905 0.958283 0
M  V30 3271 C 315.891 0.885532 3.49558 0
M  V30 3272 O 314.995 -0.0366641 4.12384 0
M  V30 3273 H 314.336 0.237082 0.620232 0
M  V30 3274 H 316.866 1.27871 1.59719 0
M  V30 3275 H 316.876 0.811009 3.99858 0
M  V30 3276 H 315.551 1.92094 3.6888 0
M  V30 3277 H 314.128 0.0898954 3.72792 0
M  V30 3278 N 316.313 -1.40141 0.720998 0
M  V30 3279 C 317.59 -1.94677 0.189757 0
M  V30 3280 C 317.97 -1.65879 -1.30566 0
M  V30 3281 O 317.318 -0.979391 -2.06447 0
M  V30 3282 C 317.528 -3.45279 0.508304 0
M  V30 3283 C 318.876 -4.22209 0.449934 0
M  V30 3284 O 319.9 -3.53413 0.444677 0
M  V30 3285 O 318.759 -5.44788 0.432189 0
M  V30 3286 H 315.853 -0.826459 0.0299026 0
M  V30 3287 H 318.399 -1.49719 0.7989 0
M  V30 3288 H 317.171 -3.59619 1.54239 0
M  V30 3289 H 316.794 -3.97386 -0.130525 0
M  V30 3290 N 317.792 -0.46758 -1.50504 0
M  V30 3291 C 319.069 0.15003 -1.95024 0
M  V30 3292 C 319.449 1.57304 -1.40779 0
M  V30 3293 O 318.797 2.20281 -0.607319 0
M  V30 3294 C 319.007 0.0969324 -3.48865 0
M  V30 3295 C 320.355 0.287565 -4.23625 0
M  V30 3296 O 321.379 0.173678 -3.55776 0
M  V30 3297 O 320.238 0.517186 -5.44047 0
M  V30 3298 H 317.332 0.113582 -0.819163 0
M  V30 3299 H 319.878 -0.52773 -1.61286 0
M  V30 3300 H 318.65 -0.896732 -3.80886 0
M  V30 3301 H 318.273 0.816303 -3.8913 0
M  V30 3302 N 319.27 1.56325 -0.20005 0
M  V30 3303 C 320.18 2.22931 0.730668 0
M  V30 3304 C 321.196 1.22997 1.23076 0
M  V30 3305 O 322.372 1.55748 1.27689 0
M  V30 3306 C 319.437 2.87948 1.93098 0
M  V30 3307 C 318.498 4.03166 1.47497 0
M  V30 3308 C 317.731 4.65073 2.61807 0
M  V30 3309 O 317.954 4.25913 3.79413 0
M  V30 3310 O 316.888 5.54452 2.34237 0
M  V30 3311 H 320.714 3.03084 0.193391 0
M  V30 3312 H 318.299 1.49371 0.0294621 0
M  V30 3313 H 320.181 3.29063 2.6324 0
M  V30 3314 H 318.856 2.10771 2.45677 0
M  V30 3315 H 317.763 3.66664 0.742201 0
M  V30 3316 H 319.096 4.82022 0.995796 0
M  V30 3317 N 320.748 -0.0735177 1.57428 0
M  V30 3318 C 321.978 -0.78483 1.91112 0
M  V30 3319 C 322.386 -1.71729 0.7941 0
M  V30 3320 O 321.729 -1.82105 -0.241542 0
M  V30 3321 C 321.791 -1.63346 3.20247 0
M  V30 3322 C 321.455 -0.870557 4.48632 0
M  V30 3323 C 322.452 -0.19058 5.19551 0
M  V30 3324 C 320.137 -0.838242 4.95256 0
M  V30 3325 C 322.131 0.511503 6.35344 0
M  V30 3326 C 319.818 -0.132386 6.10957 0
M  V30 3327 C 320.816 0.541288 6.80852 0
M  V30 3328 O 320.504 1.23578 7.94345 0
M  V30 3329 H 320.236 -0.228408 0.636244 0
M  V30 3330 H 322.79 -0.0486039 2.05342 0
M  V30 3331 H 321.02 -2.41245 3.02222 0
M  V30 3332 H 322.709 -2.22329 3.39595 0
M  V30 3333 H 323.475 -0.206864 4.84559 0
M  V30 3334 H 319.354 -1.35206 4.40727 0
M  V30 3335 H 322.898 1.03789 6.89836 0
M  V30 3336 H 318.795 -0.114023 6.45399 0
M  V30 3337 H 319.563 1.14487 8.10454 0
M  V30 3338 N 322.226 -1.5378 -0.344866 0
M  V30 3339 C 323.474 -1.70625 -1.08311 0
M  V30 3340 C 323.795 -0.471447 -1.89215 0
M  V30 3341 O 323.065 0.514616 -1.8902 0
M  V30 3342 H 321.645 -0.629058 -0.402859 0
M  V30 3343 H 324.307 -1.9103 -0.386459 0
M  V30 3344 H 323.403 -2.57656 -1.76124 0
M  V30 3345 N 323.704 0.605807 -1.45491 0
M  V30 3346 C 325.12 0.926751 -1.29936 0
M  V30 3347 C 325.32 1.99896 -0.253706 0
M  V30 3348 O 324.376 2.50038 0.351737 0
M  V30 3349 C 325.689 1.36599 -2.67883 0
M  V30 3350 C 327.237 1.4801 -2.75793 0
M  V30 3351 C 327.712 1.95309 -4.14268 0
M  V30 3352 N 329.203 2.0254 -4.16571 0
M  V30 3353 C 329.938 2.40363 -5.20589 0
M  V30 3354 N 329.434 2.77143 -6.34952 0
M  V30 3355 N 331.227 2.40718 -5.07948 0
M  V30 3356 H 323.378 -0.102862 -2.12151 0
M  V30 3357 H 325.641 0.016639 -0.947854 0
M  V30 3358 H 325.347 0.652306 -3.45598 0
M  V30 3359 H 325.221 2.33215 -2.96463 0
M  V30 3360 H 327.608 2.1847 -1.98381 0
M  V30 3361 H 327.689 0.497041 -2.50925 0
M  V30 3362 H 327.333 1.25436 -4.92167 0
M  V30 3363 H 327.263 2.94532 -4.3653 0
M  V30 3364 H 329.754 1.76699 -3.34045 0
M  V30 3365 H 330.067 3.0489 -7.10114 0
M  V30 3366 H 328.412 2.74834 -6.3835 0
M  V30 3367 H 331.603 2.11392 -4.1765 0
M  V30 3368 H 331.776 2.69869 -5.89131 0
M  V30 3369 N 325.182 1.32811 0.848464 0
M  V30 3370 C 326.114 1.18095 1.96433 0
M  V30 3371 C 327.127 0.114354 1.62398 0
M  V30 3372 O 328.316 0.363892 1.74751 0
M  V30 3373 C 325.416 0.786798 3.2964 0
M  V30 3374 C 324.589 1.943 3.91875 0
M  V30 3375 C 323.648 1.53138 5.03423 0
M  V30 3376 O 322.674 2.24432 5.23086 0
M  V30 3377 N 323.876 0.430915 5.78898 0
M  V30 3378 H 326.641 2.14218 2.09597 0
M  V30 3379 H 324.202 1.2543 1.02367 0
M  V30 3380 H 326.194 0.493715 4.01677 0
M  V30 3381 H 324.764 -0.0834541 3.12489 0
M  V30 3382 H 323.984 2.40224 3.12547 0
M  V30 3383 H 325.272 2.71689 4.30189 0
M  V30 3384 H 324.67 -0.162333 5.65467 0
M  V30 3385 H 323.227 0.197466 6.51501 0
M  V30 3386 N 326.66 -1.06551 1.16123 0
M  V30 3387 C 327.908 -1.78947 0.939267 0
M  V30 3388 C 328.229 -1.87532 -0.534476 0
M  V30 3389 O 327.499 -1.38211 -1.38833 0
M  V30 3390 H 326.079 -0.662807 0.344523 0
M  V30 3391 H 328.741 -1.28725 1.46342 0
M  V30 3392 H 327.837 -2.81117 1.35572 0
M  V30 3393 N 328.138 -0.959301 -1.25041 0
M  V30 3394 C 329.068 -0.501388 -2.28053 0
M  V30 3395 C 330.049 0.454673 -1.63911 0
M  V30 3396 O 331.234 0.352618 -1.90972 0
M  V30 3397 C 328.364 0.217224 -3.4662 0
M  V30 3398 C 327.318 -0.654034 -4.22973 0
M  V30 3399 C 326.644 0.195589 -5.34342 0
M  V30 3400 C 327.944 -1.93447 -4.85155 0
M  V30 3401 H 329.638 -1.36238 -2.66608 0
M  V30 3402 H 327.184 -0.656534 -1.28163 0
M  V30 3403 H 329.137 0.548732 -4.17812 0
M  V30 3404 H 327.861 1.1125 -3.07068 0
M  V30 3405 H 326.52 -0.968693 -3.5357 0
M  V30 3406 H 326.168 1.09076 -4.91031 0
M  V30 3407 H 325.868 -0.384091 -5.86343 0
M  V30 3408 H 327.392 0.521958 -6.08365 0
M  V30 3409 H 328.806 -1.66908 -5.48466 0
M  V30 3410 H 327.203 -2.46018 -5.47353 0
M  V30 3411 H 328.273 -2.63466 -4.07079 0
M  V30 3412 N 329.616 1.39756 -0.72842 0
M  V30 3413 C 330.841 2.05472 -0.282159 0
M  V30 3414 C 331.266 1.54549 1.07221 0
M  V30 3415 O 330.624 0.686372 1.67805 0
M  V30 3416 C 330.672 3.59462 -0.286264 0
M  V30 3417 O 329.776 4.05918 0.728298 0
M  V30 3418 H 329.117 0.651226 -0.129618 0
M  V30 3419 H 331.647 1.78915 -0.992499 0
M  V30 3420 H 331.657 4.07798 -0.128373 0
M  V30 3421 H 330.332 3.95889 -1.27456 0
M  V30 3422 H 328.909 3.69012 0.537081 0
M  V30 3423 N 331.094 0.475555 1.50254 0
M  V30 3424 C 332.343 -0.0795996 2.01543 0
M  V30 3425 C 332.656 -1.4038 1.36209 0
M  V30 3426 O 333.862 -2.04415 1.7868 0
M  V30 3427 C 332.318 -0.192363 3.59386 0
M  V30 3428 C 331.926 1.12367 4.33679 0
M  V30 3429 C 333.67 -0.699238 4.18701 0
M  V30 3430 C 331.577 0.974453 5.83317 0
M  V30 3431 H 330.507 -0.0335228 0.753254 0
M  V30 3432 H 333.158 0.611128 1.73025 0
M  V30 3433 H 331.54 -0.946974 3.84511 0
M  V30 3434 H 332.714 1.88958 4.20276 0
M  V30 3435 H 331.029 1.562 3.85993 0
M  V30 3436 H 333.626 -0.827978 5.28251 0
M  V30 3437 H 333.969 -1.69171 3.80377 0
M  V30 3438 H 334.502 -0.00188807 3.978 0
M  V30 3439 H 331.241 1.94042 6.26121 0
M  V30 3440 H 330.761 0.248998 5.99283 0
M  V30 3441 H 332.44 0.642867 6.43798 0
M  V30 3442 N 332.573 -1.56217 0.208337 0
M  V30 3443 C 333.82 -1.97949 -0.42692 0
M  V30 3444 C 334.148 -1.09562 -1.60706 0
M  V30 3445 O 333.403 -0.137616 -1.95216 0
M  V30 3446 C 333.702 -3.45441 -0.916797 0
M  V30 3447 C 333.368 -4.50646 0.151391 0
M  V30 3448 C 332.03 -4.79139 0.444867 0
M  V30 3449 C 334.382 -5.13811 0.874492 0
M  V30 3450 C 331.71 -5.68084 1.46619 0
M  V30 3451 C 334.062 -6.03861 1.88506 0
M  V30 3452 C 332.726 -6.30704 2.18559 0
M  V30 3453 H 331.996 -0.724345 -0.156221 0
M  V30 3454 H 334.643 -1.89006 0.308084 0
M  V30 3455 H 332.948 -3.51521 -1.73032 0
M  V30 3456 H 334.645 -3.75094 -1.41794 0
M  V30 3457 H 331.235 -4.28511 -0.0875068 0
M  V30 3458 H 335.419 -4.91879 0.660996 0
M  V30 3459 H 330.675 -5.87151 1.7048 0
M  V30 3460 H 334.849 -6.51861 2.45051 0
M  V30 3461 H 332.476 -6.99424 2.97843 0
M  V30 3462 N 334.051 0.0651679 -1.57465 0
M  V30 3463 C 335.276 0.779605 -1.9219 0
M  V30 3464 C 335.701 1.69988 -0.805333 0
M  V30 3465 O 335.059 1.79685 0.241435 0
M  V30 3466 C 335.107 1.54364 -3.2589 0
M  V30 3467 O 334.211 2.65474 -3.1559 0
M  V30 3468 H 333.552 0.212249 -0.629163 0
M  V30 3469 H 336.082 0.0314294 -2.04576 0
M  V30 3470 H 336.092 1.92146 -3.59922 0
M  V30 3471 H 334.767 0.868457 -4.06732 0
M  V30 3472 H 333.344 2.30501 -2.93128 0
M  V30 3473 N 335.529 1.53961 0.336706 0
M  V30 3474 C 336.492 1.81724 1.39675 0
M  V30 3475 C 337.492 0.688532 1.45313 0
M  V30 3476 O 338.682 0.956829 1.45569 0
M  V30 3477 C 335.814 1.96543 2.78538 0
M  V30 3478 H 337.007 2.76424 1.16318 0
M  V30 3479 H 334.56 1.45478 0.571474 0
M  V30 3480 H 335.295 1.0401 3.07168 0
M  V30 3481 H 335.08 2.78665 2.75841 0
M  V30 3482 H 336.57 2.19516 3.5525 0
M  V30 3483 N 337.007 -0.598083 1.45811 0
M  V30 3484 C 337.937 -1.71873 1.58057 0
M  V30 3485 C 338.918 -1.64533 0.431615 0
M  V30 3486 O 340.103 -1.82787 0.65595 0
M  V30 3487 C 337.233 -3.10495 1.55597 0
M  V30 3488 C 336.187 -3.32654 2.69305 0
M  V30 3489 C 335.513 -4.71646 2.51902 0
M  V30 3490 C 336.813 -3.21981 4.11248 0
M  V30 3491 H 338.507 -1.61881 2.51863 0
M  V30 3492 H 336.053 -0.777372 1.21214 0
M  V30 3493 H 338.006 -3.88699 1.6276 0
M  V30 3494 H 336.73 -3.2135 0.583255 0
M  V30 3495 H 335.389 -2.56843 2.61586 0
M  V30 3496 H 335.037 -4.79246 1.52748 0
M  V30 3497 H 334.737 -4.87426 3.2816 0
M  V30 3498 H 336.261 -5.52038 2.60933 0
M  V30 3499 H 337.675 -3.90049 4.20161 0
M  V30 3500 H 336.072 -3.49289 4.87972 0
M  V30 3501 H 337.142 -2.1928 4.32486 0
M  V30 3502 N 338.485 -1.33259 -0.841409 0
M  V30 3503 C 339.448 -1.23221 -1.9326 0
M  V30 3504 C 340.448 -0.151895 -1.60081 0
M  V30 3505 O 341.638 -0.403246 -1.69468 0
M  V30 3506 C 338.77 -0.898123 -3.28856 0
M  V30 3507 H 339.963 -2.2021 -2.03587 0
M  V30 3508 H 337.516 -1.17281 -1.03319 0
M  V30 3509 H 338.251 0.0693841 -3.24226 0
M  V30 3510 H 338.036 -1.67934 -3.54317 0
M  V30 3511 H 339.526 -0.852563 -4.08805 0
M  V30 3512 N 339.963 1.05934 -1.16686 0
M  V30 3513 C 340.926 2.11669 -0.879144 0
M  V30 3514 C 341.926 1.60294 0.127445 0
M  V30 3515 O 343.116 1.7389 -0.103865 0
M  V30 3516 C 340.248 3.39438 -0.315425 0
M  V30 3517 H 341.441 2.38626 -1.81653 0
M  V30 3518 H 338.994 1.22058 -0.976299 0
M  V30 3519 H 339.729 3.18132 0.629468 0
M  V30 3520 H 339.514 3.78034 -1.04079 0
M  V30 3521 H 341.004 4.17391 -0.132189 0
M  V30 3522 N 341.441 0.965919 1.2453 0
M  V30 3523 C 342.404 0.499547 2.2369 0
M  V30 3524 C 343.404 -0.40294 1.5567 0
M  V30 3525 O 344.594 -0.19865 1.73064 0
M  V30 3526 C 341.726 -0.276792 3.39774 0
M  V30 3527 H 342.919 1.37613 2.66463 0
M  V30 3528 H 340.472 0.750324 1.37112 0
M  V30 3529 H 341.207 -1.17055 3.02438 0
M  V30 3530 H 340.992 0.370826 3.90343 0
M  V30 3531 H 342.482 -0.592175 4.1338 0
M  V30 3532 N 342.919 -1.39368 0.735821 0
M  V30 3533 C 344.335 -1.54204 0.411492 0
M  V30 3534 C 344.535 -1.70268 -1.07755 0
M  V30 3535 O 343.591 -1.70364 -1.86366 0
M  V30 3536 C 344.904 -2.75925 1.19523 0
M  V30 3537 C 346.452 -2.89761 1.18354 0
M  V30 3538 C 346.927 -4.14421 1.94986 0
M  V30 3539 N 348.418 -4.21462 1.92156 0
M  V30 3540 C 349.153 -5.16871 2.48258 0
M  V30 3541 N 348.649 -6.18063 3.13001 0
M  V30 3542 N 350.442 -5.09093 2.38287 0
M  V30 3543 H 342.593 -1.27189 1.70108 0
M  V30 3544 H 344.856 -0.616517 0.720147 0
M  V30 3545 H 344.562 -2.70401 2.24892 0
M  V30 3546 H 344.436 -3.68614 0.800222 0
M  V30 3547 H 346.823 -2.94777 0.137975 0
M  V30 3548 H 346.904 -1.98133 1.61793 0
M  V30 3549 H 346.548 -4.10166 2.99543 0
M  V30 3550 H 346.478 -5.05095 1.48953 0
M  V30 3551 H 348.969 -3.48979 1.44991 0
M  V30 3552 H 349.282 -6.87326 3.53275 0
M  V30 3553 H 347.627 -6.18448 3.17091 0
M  V30 3554 H 350.818 -4.28973 1.8735 0
M  V30 3555 H 350.991 -5.83272 2.82308 0
M  V30 3556 N 344.397 -0.483516 -1.5 0
M  V30 3557 C 345.645 0.067027 -2.01989 0
M  V30 3558 C 345.966 1.3909 -1.36671 0
M  V30 3559 O 345.236 1.88978 -0.516152 0
M  V30 3560 H 343.816 0.0277606 -0.746484 0
M  V30 3561 H 346.478 -0.636773 -1.84204 0
M  V30 3562 H 345.574 0.209484 -3.11396 0
M  V30 3563 N 345.875 1.56104 -0.216619 0
M  V30 3564 C 347.124 1.97348 0.416744 0
M  V30 3565 C 347.437 1.10715 1.6125 0
M  V30 3566 O 348.643 1.41836 2.31506 0
M  V30 3567 C 347.099 3.51059 0.792835 0
M  V30 3568 C 346.707 4.46387 -0.379828 0
M  V30 3569 C 348.451 4.01026 1.39208 0
M  V30 3570 C 346.358 5.91397 0.0184223 0
M  V30 3571 H 345.288 0.736942 0.159475 0
M  V30 3572 H 347.939 1.80827 -0.31205 0
M  V30 3573 H 346.321 3.63162 1.57891 0
M  V30 3574 H 347.495 4.46029 -1.15737 0
M  V30 3575 H 345.81 4.06734 -0.891979 0
M  V30 3576 H 348.407 5.0686 1.70286 0
M  V30 3577 H 348.75 3.46587 2.30614 0
M  V30 3578 H 349.283 3.92125 0.669537 0
M  V30 3579 H 346.022 6.49807 -0.862002 0
M  V30 3580 H 345.542 5.94961 0.760384 0
M  V30 3581 H 347.221 6.45455 0.446818 0
M  V30 3582 N 347.353 -0.0568162 1.57498 0
M  V30 3583 C 348.593 -0.758273 1.89815 0
M  V30 3584 C 348.957 -1.73978 0.812132 0
M  V30 3585 O 350.158 -2.48744 1.01881 0
M  V30 3586 C 348.429 -1.43465 3.27342 0
M  V30 3587 S 349.988 -2.1691 3.81439 0
M  V30 3588 H 346.806 -0.251836 0.664906 0
M  V30 3589 H 349.408 -0.0137997 1.95495 0
M  V30 3590 H 348.112 -0.706693 4.0427 0
M  V30 3591 H 347.643 -2.21825 3.24896 0
M  V30 3592 H 349.658 -3.43658 3.5793 0
M  V30 3593 N 348.832 -1.54138 -0.328536 0
M  V30 3594 C 350.081 -1.71318 -1.06456 0
M  V30 3595 C 350.394 -0.491109 -1.89334 0
M  V30 3596 O 351.6 -0.54416 -2.65991 0
M  V30 3597 C 350.056 -3.03 -1.94214 0
M  V30 3598 C 349.664 -4.32595 -1.16471 0
M  V30 3599 C 351.408 -3.29544 -2.67583 0
M  V30 3600 C 349.315 -5.55341 -2.03347 0
M  V30 3601 H 348.245 -0.638429 -0.401155 0
M  V30 3602 H 350.896 -1.80633 -0.323106 0
M  V30 3603 H 349.278 -2.87579 -2.72239 0
M  V30 3604 H 350.452 -4.58766 -0.432525 0
M  V30 3605 H 348.767 -4.12777 -0.548063 0
M  V30 3606 H 351.364 -4.18444 -3.3288 0
M  V30 3607 H 351.707 -2.47206 -3.34955 0
M  V30 3608 H 352.24 -3.45809 -1.96623 0
M  V30 3609 H 348.979 -6.40268 -1.40491 0
M  V30 3610 H 348.499 -5.33397 -2.74313 0
M  V30 3611 H 350.178 -5.91557 -2.62049 0
M  V30 3612 N 350.31 0.590341 -1.46126 0
M  V30 3613 C 351.273 1.68194 -1.55703 0
M  V30 3614 C 352.273 1.54808 -0.434868 0
M  V30 3615 O 353.463 1.59564 -0.698928 0
M  V30 3616 C 350.595 3.07575 -1.47005 0
M  V30 3617 H 351.788 1.61064 -2.52979 0
M  V30 3618 H 349.341 0.807541 -1.33823 0
M  V30 3619 H 350.076 3.20268 -0.509785 0
M  V30 3620 H 349.861 3.187 -2.28414 0
M  V30 3621 H 351.351 3.87055 -1.56776 0
M  V30 3622 N 351.788 1.33704 0.83433 0
M  V30 3623 C 352.738 1.20899 1.93306 0
M  V30 3624 C 353.722 0.110783 1.60518 0
M  V30 3625 O 354.914 0.339331 1.73717 0
M  V30 3626 C 352.043 0.955018 3.29749 0
M  V30 3627 C 351.129 2.09587 3.68692 0
M  V30 3628 N 351.52 3.34621 3.79292 0
M  V30 3629 C 349.818 2.00358 3.98463 0
M  V30 3630 C 350.519 4.09472 4.13167 0
M  V30 3631 N 349.495 3.37954 4.25779 0
M  V30 3632 H 353.297 2.15665 1.99664 0
M  V30 3633 H 350.811 1.25777 1.02732 0
M  V30 3634 H 352.808 0.844208 4.08263 0
M  V30 3635 H 351.468 0.0159317 3.24696 0
M  V30 3636 H 352.479 3.69313 3.63082 0
M  V30 3637 H 349.156 1.14137 4.01596 0
M  V30 3638 H 350.546 5.17391 4.28668 0
M  V30 3639 N 353.266 -1.05314 1.17247 0
M  V30 3640 C 354.176 -2.16538 0.90268 0
M  V30 3641 C 355.192 -1.73523 -0.128707 0
M  V30 3642 O 356.368 -2.01337 0.0502701 0
M  V30 3643 C 353.433 -3.44167 0.418356 0
M  V30 3644 C 352.494 -4.01635 1.51618 0
M  V30 3645 C 351.727 -5.23171 1.05487 0
M  V30 3646 O 351.95 -5.70327 -0.0914715 0
M  V30 3647 O 350.884 -5.72848 1.8474 0
M  V30 3648 H 354.71 -2.42145 1.83302 0
M  V30 3649 H 352.295 -1.15037 0.953246 0
M  V30 3650 H 354.177 -4.21112 0.155726 0
M  V30 3651 H 352.852 -3.20063 -0.48385 0
M  V30 3652 H 351.759 -3.26135 1.83268 0
M  V30 3653 H 353.092 -4.30053 2.39405 0
M  V30 3654 N 354.744 -0.972509 -1.24016 0
M  V30 3655 C 355.992 -0.635776 -1.91839 0
M  V30 3656 C 356.313 0.832312 -1.76345 0
M  V30 3657 O 355.583 1.5946 -1.13795 0
M  V30 3658 H 354.163 -0.232157 -0.710009 0
M  V30 3659 H 356.825 -1.23462 -1.50809 0
M  V30 3660 H 355.921 -0.880545 -2.99421 0
M  V30 3661 N 356.222 1.38976 -0.743202 0
M  V30 3662 C 357.152 2.33171 -0.123873 0
M  V30 3663 C 358.133 1.54336 0.71516 0
M  V30 3664 O 359.318 1.82696 0.658467 0
M  V30 3665 C 356.448 3.38474 0.777978 0
M  V30 3666 C 355.402 4.27979 0.0424758 0
M  V30 3667 C 354.728 5.2405 1.06189 0
M  V30 3668 C 356.028 5.10155 -1.1198 0
M  V30 3669 H 357.722 2.85213 -0.910709 0
M  V30 3670 H 355.268 1.37133 -0.439388 0
M  V30 3671 H 357.221 4.03328 1.22084 0
M  V30 3672 H 355.945 2.84891 1.59702 0
M  V30 3673 H 354.604 3.64616 -0.380853 0
M  V30 3674 H 354.252 4.66758 1.87472 0
M  V30 3675 H 353.952 5.84785 0.574485 0
M  V30 3676 H 355.476 5.9178 1.50428 0
M  V30 3677 H 356.89 5.68307 -0.75499 0
M  V30 3678 H 355.287 5.80073 -1.53738 0
M  V30 3679 H 356.357 4.44504 -1.93764 0
M  V30 3680 N 357.7 0.491464 1.49741 0
M  V30 3681 C 358.946 -0.0565092 2.02721 0
M  V30 3682 C 359.279 -1.37522 1.37118 0
M  V30 3683 O 358.554 -1.87866 0.503645 0
M  V30 3684 C 358.837 -0.219051 3.59433 0
M  V30 3685 C 358.69 1.12211 4.35579 0
M  V30 3686 C 360.009 -0.964157 4.29409 0
M  V30 3687 H 357.128 -0.0190627 0.736753 0
M  V30 3688 H 359.77 0.641021 1.7886 0
M  V30 3689 H 357.92 -0.813165 3.79895 0
M  V30 3690 H 359.592 1.75437 4.26637 0
M  V30 3691 H 357.835 1.71377 3.98513 0
M  V30 3692 H 358.506 0.961794 5.43556 0
M  V30 3693 H 360.982 -0.460378 4.13545 0
M  V30 3694 H 359.858 -1.04671 5.38828 0
M  V30 3695 H 360.119 -2.00563 3.93988 0
M  V30 3696 N 359.178 -1.55987 0.224894 0
M  V30 3697 C 360.589 -1.84553 -0.282345 0
M  V30 3698 C 360.94 -1.14634 -1.59227 0
M  V30 3699 O 360.065 -0.417155 -2.12341 0
M  V30 3700 C 360.66 -3.348 -0.519062 0
M  V30 3701 C 359.219 -3.63671 -0.970604 0
M  V30 3702 C 358.366 -2.77277 -0.0355261 0
M  V30 3703 H 361.317 -1.52245 0.448006 0
M  V30 3704 H 361.338 -3.55187 -1.36463 0
M  V30 3705 H 360.85 -3.8566 0.43449 0
M  V30 3706 H 358.951 -3.1827 -1.9374 0
M  V30 3707 H 359.064 -4.71631 -0.842698 0
M  V30 3708 H 357.428 -2.48846 -0.542927 0
M  V30 3709 H 358.211 -3.30937 0.913003 0
M  V30 3710 N 360.656 0.0484629 -1.57525 0
M  V30 3711 C 361.586 1.0549 -2.08313 0
M  V30 3712 C 362.567 1.38929 -0.981463 0
M  V30 3713 O 363.752 1.48151 -1.25558 0
M  V30 3714 C 360.882 2.36162 -2.54646 0
M  V30 3715 C 359.836 2.17016 -3.68901 0
M  V30 3716 C 359.162 3.53278 -4.01371 0
M  V30 3717 C 360.462 1.57219 -4.98076 0
M  V30 3718 H 362.156 0.632195 -2.92649 0
M  V30 3719 H 359.702 0.302654 -1.40784 0
M  V30 3720 H 361.655 3.06882 -2.88793 0
M  V30 3721 H 360.379 2.80456 -1.67368 0
M  V30 3722 H 359.038 1.48733 -3.35073 0
M  V30 3723 H 358.686 3.95185 -3.11188 0
M  V30 3724 H 358.386 3.41299 -4.78318 0
M  V30 3725 H 359.91 4.25391 -4.38035 0
M  V30 3726 H 361.324 2.17832 -5.30304 0
M  V30 3727 H 359.721 1.55871 -5.79503 0
M  V30 3728 H 360.791 0.535956 -4.81929 0
M  V30 3729 N 362.134 1.5431 0.320358 0
M  V30 3730 C 363.545 1.63872 0.894594 0
M  V30 3731 C 363.896 0.534847 1.88769 0
M  V30 3732 O 363.021 -0.331732 2.13842 0
M  V30 3733 C 363.616 2.97049 1.62934 0
M  V30 3734 C 362.175 3.08796 2.15226 0
M  V30 3735 C 361.322 2.59456 0.978671 0
M  V30 3736 H 364.273 1.58398 0.0978544 0
M  V30 3737 H 364.294 2.87388 2.49376 0
M  V30 3738 H 363.806 3.7737 0.906302 0
M  V30 3739 H 361.907 2.33156 2.90636 0
M  V30 3740 H 362.02 4.14649 2.40006 0
M  V30 3741 H 360.384 2.1543 1.35875 0
M  V30 3742 H 361.167 3.42237 0.269895 0
M  V30 3743 N 363.613 -0.582584 1.46437 0
M  V30 3744 C 365.029 -0.905962 1.31394 0
M  V30 3745 C 365.229 -1.99468 0.285476 0
M  V30 3746 O 364.285 -2.50566 -0.311914 0
M  V30 3747 C 365.598 -1.3232 2.70022 0
M  V30 3748 C 367.146 -1.43604 2.78113 0
M  V30 3749 C 367.621 -1.88694 4.17323 0
M  V30 3750 N 369.112 -1.95887 4.19741 0
M  V30 3751 C 369.847 -2.32051 5.24347 0
M  V30 3752 N 369.343 -2.67006 6.39281 0
M  V30 3753 N 371.136 -2.32606 5.11713 0
M  V30 3754 H 363.287 0.1366 2.1196 0
M  V30 3755 H 365.55 -0.00155736 0.947999 0
M  V30 3756 H 365.256 -0.597242 3.46592 0
M  V30 3757 H 365.13 -2.28469 3.00136 0
M  V30 3758 H 367.517 -2.15286 2.01832 0
M  V30 3759 H 367.598 -0.457059 2.51684 0
M  V30 3760 H 367.242 -1.1759 4.941 0
M  V30 3761 H 367.172 -2.8755 4.4116 0
M  V30 3762 H 369.663 -1.71362 3.36814 0
M  V30 3763 H 369.976 -2.93554 7.14875 0
M  V30 3764 H 368.321 -2.64644 6.42642 0
M  V30 3765 H 371.512 -2.04721 4.2096 0
M  V30 3766 H 371.685 -2.60462 5.93349 0
M  V30 3767 N 365.091 -1.34144 -0.827227 0
M  V30 3768 C 366.054 -1.25264 -1.91942 0
M  V30 3769 C 367.054 -0.168866 -1.59911 0
M  V30 3770 O 368.244 -0.421198 -1.69031 0
M  V30 3771 C 365.376 -0.932952 -3.27885 0
M  V30 3772 H 366.569 -2.22357 -2.0124 0
M  V30 3773 H 364.122 -1.1837 -1.0207 0
M  V30 3774 H 364.857 0.0349917 -3.24281 0
M  V30 3775 H 364.642 -1.71682 -3.52516 0
M  V30 3776 H 366.132 -0.895874 -4.07877 0
M  V30 3777 N 366.569 1.04691 -1.17803 0
M  V30 3778 C 367.846 1.7472 -0.879328 0
M  V30 3779 C 368.226 2.01812 0.619271 0
M  V30 3780 O 367.574 1.65824 1.57209 0
M  V30 3781 C 367.784 3.03686 -1.71976 0
M  V30 3782 C 369.132 3.77542 -1.94286 0
M  V30 3783 O 370.156 3.13569 -1.68976 0
M  V30 3784 O 369.015 4.92506 -2.36855 0
M  V30 3785 H 366.109 0.760011 -0.326056 0
M  V30 3786 H 368.655 1.10813 -1.28525 0
M  V30 3787 H 367.427 2.79754 -2.73594 0
M  V30 3788 H 367.05 3.75332 -1.31194 0
M  V30 3789 N 368.047 0.979072 1.23499 0
M  V30 3790 C 369.324 0.563674 1.87302 0
M  V30 3791 C 369.704 -0.959199 1.88049 0
M  V30 3792 O 369.052 -1.83535 1.36114 0
M  V30 3793 C 369.262 1.16822 3.28867 0
M  V30 3794 C 370.61 1.26014 4.0547 0
M  V30 3795 O 371.634 1.12158 3.38082 0
M  V30 3796 O 370.493 1.48044 5.26066 0
M  V30 3797 H 367.587 0.189602 0.804972 0
M  V30 3798 H 370.133 1.07407 1.31384 0
M  V30 3799 H 368.905 2.21049 3.22883 0
M  V30 3800 H 368.528 0.642564 3.92373 0
M  V30 3801 N 369.525 -1.3858 0.750561 0
M  V30 3802 C 370.75 -2.04997 0.314812 0
M  V30 3803 C 371.175 -1.56235 -1.04749 0
M  V30 3804 O 370.533 -0.712981 -1.66692 0
M  V30 3805 C 370.581 -3.58961 0.343415 0
M  V30 3806 O 369.685 -4.07025 -0.663628 0
M  V30 3807 H 369.026 -0.649081 0.139962 0
M  V30 3808 H 371.556 -1.77313 1.02084 0
M  V30 3809 H 371.566 -4.07542 0.193233 0
M  V30 3810 H 370.241 -3.93811 1.33738 0
M  V30 3811 H 368.818 -3.6982 -0.478307 0
M  V30 3812 N 371.003 -0.499398 -1.49478 0
M  V30 3813 C 372.419 -0.155261 -1.58843 0
M  V30 3814 C 372.619 1.34008 -1.50479 0
M  V30 3815 O 371.675 2.11589 -1.37791 0
M  V30 3816 C 372.988 -0.730636 -2.91689 0
M  V30 3817 C 374.536 -0.696599 -3.0515 0
M  V30 3818 C 375.011 -1.25001 -4.40612 0
M  V30 3819 N 376.502 -1.21064 -4.47099 0
M  V30 3820 C 377.237 -1.60905 -5.50361 0
M  V30 3821 N 376.733 -2.08331 -6.60735 0
M  V30 3822 N 378.526 -1.52331 -5.41065 0
M  V30 3823 H 370.677 -1.47162 -1.53158 0
M  V30 3824 H 372.94 -0.610309 -0.725415 0
M  V30 3825 H 372.646 -1.77928 -3.03372 0
M  V30 3826 H 372.52 -0.190161 -3.7672 0
M  V30 3827 H 374.907 0.343204 -2.93097 0
M  V30 3828 H 374.988 -1.2742 -2.21806 0
M  V30 3829 H 374.632 -2.28859 -4.53416 0
M  V30 3830 H 374.562 -0.64836 -5.22593 0
M  V30 3831 H 377.053 -0.863128 -3.67911 0
M  V30 3832 H 377.366 -2.36805 -7.35624 0
M  V30 3833 H 375.711 -2.12304 -6.6178 0
M  V30 3834 H 378.902 -1.151 -4.53729 0
M  V30 3835 H 379.075 -1.83704 -6.21415 0
M  V30 3836 N 372.481 1.55866 -0.233164 0
M  V30 3837 C 373.411 2.23783 0.666599 0
M  V30 3838 C 374.392 1.21343 1.19205 0
M  V30 3839 O 375.577 1.4996 1.23392 0
M  V30 3840 C 372.707 2.92671 1.86978 0
M  V30 3841 C 371.661 4.01682 1.47768 0
M  V30 3842 C 370.987 4.57926 2.76058 0
M  V30 3843 C 372.287 5.18126 0.658993 0
M  V30 3844 H 373.981 2.99232 0.100306 0
M  V30 3845 H 371.527 1.43924 0.046804 0
M  V30 3846 H 373.48 3.3888 2.50476 0
M  V30 3847 H 372.204 2.14688 2.46123 0
M  V30 3848 H 370.863 3.56222 0.866106 0
M  V30 3849 H 370.511 3.76659 3.33372 0
M  V30 3850 H 370.211 5.31505 2.50552 0
M  V30 3851 H 371.735 5.06859 3.40479 0
M  V30 3852 H 373.149 5.60644 1.19795 0
M  V30 3853 H 371.546 5.98009 0.500552 0
M  V30 3854 H 372.616 4.83763 -0.331856 0
M  V30 3855 N 373.959 -0.0401083 1.57549 0
M  V30 3856 C 375.207 -0.731677 1.8839 0
M  V30 3857 C 375.528 -1.76481 0.829425 0
M  V30 3858 O 374.798 -1.95411 -0.1383 0
M  V30 3859 H 373.378 -0.273225 0.695239 0
M  V30 3860 H 376.04 -0.00867725 1.94898 0
M  V30 3861 H 375.136 -1.22816 2.86919 0
M  V30 3862 N 375.437 -1.54477 -0.31217 0
M  V30 3863 C 376.384 -1.84655 -1.38461 0
M  V30 3864 C 377.354 -0.694536 -1.50882 0
M  V30 3865 O 378.539 -0.942081 -1.6592 0
M  V30 3866 C 375.679 -2.0896 -2.74645 0
M  V30 3867 C 374.792 -3.36618 -2.70763 0
M  V30 3868 C 373.927 -3.50824 -3.98868 0
M  V30 3869 C 372.966 -4.72315 -3.89339 0
M  V30 3870 N 372.103 -4.83387 -5.09197 0
M  V30 3871 H 376.943 -2.76142 -1.12026 0
M  V30 3872 H 374.48 -1.36748 -0.542065 0
M  V30 3873 H 376.438 -2.21045 -3.53829 0
M  V30 3874 H 375.068 -1.20752 -2.99364 0
M  V30 3875 H 374.12 -3.33211 -1.83506 0
M  V30 3876 H 375.432 -4.25917 -2.59608 0
M  V30 3877 H 374.586 -3.62513 -4.86486 0
M  V30 3878 H 373.325 -2.59638 -4.12843 0
M  V30 3879 H 372.33 -4.6067 -3.00105 0
M  V30 3880 H 373.555 -5.64897 -3.76919 0
M  V30 3881 H 371.501 -3.9512 -5.23657 0
M  V30 3882 H 371.418 -5.66669 -5.00422 0
M  V30 3883 H 372.686 -4.9942 -5.98498 0
M  V30 3884 N 376.915 0.57481 -1.46744 0
M  V30 3885 C 378.161 1.3347 -1.52688 0
M  V30 3886 C 378.494 1.93353 -0.181229 0
M  V30 3887 O 377.769 1.76912 0.808237 0
M  V30 3888 C 378.052 2.45811 -2.63152 0
M  V30 3889 C 377.905 1.90912 -4.07275 0
M  V30 3890 C 379.224 3.47822 -2.69644 0
M  V30 3891 H 376.343 0.483935 -0.555856 0
M  V30 3892 H 378.985 0.644968 -1.78718 0
M  V30 3893 H 377.135 3.04646 -2.41088 0
M  V30 3894 H 378.807 1.36473 -4.4065 0
M  V30 3895 H 377.05 1.21691 -4.16382 0
M  V30 3896 H 377.721 2.72042 -4.80309 0
M  V30 3897 H 380.197 2.9888 -2.895 0
M  V30 3898 H 379.073 4.23876 -3.48742 0
M  V30 3899 H 379.334 4.05555 -1.76005 0
M  V30 3900 N 378.394 1.34581 0.820102 0
M  V30 3901 C 379.326 1.22236 1.93884 0
M  V30 3902 C 380.339 0.148776 1.62119 0
M  V30 3903 O 381.528 0.400877 1.7394 0
M  V30 3904 C 378.628 0.856542 3.27897 0
M  V30 3905 C 377.801 2.02569 3.87666 0
M  V30 3906 C 376.86 1.63782 5.00062 0
M  V30 3907 O 375.886 2.35477 5.18208 0
M  V30 3908 N 377.088 0.553611 5.77854 0
M  V30 3909 H 379.853 2.18615 2.05006 0
M  V30 3910 H 377.414 1.27573 0.99683 0
M  V30 3911 H 379.406 0.578806 4.0054 0
M  V30 3912 H 377.976 -0.0171518 3.12595 0
M  V30 3913 H 377.196 2.468 3.07382 0
M  V30 3914 H 378.484 2.80752 4.24329 0
M  V30 3915 H 377.882 -0.0423528 5.65684 0
M  V30 3916 H 376.439 0.335614 6.50935 0
M  V30 3917 N 379.872 -1.04064 1.18357 0
M  V30 3918 C 381.149 -1.74252 0.888581 0
M  V30 3919 C 381.529 -2.02138 -0.60856 0
M  V30 3920 O 380.877 -1.66656 -1.56327 0
M  V30 3921 C 381.087 -3.0277 1.73584 0
M  V30 3922 C 382.435 -3.76506 1.96286 0
M  V30 3923 O 383.459 -3.12668 1.70637 0
M  V30 3924 O 382.318 -4.91243 2.39464 0
M  V30 3925 H 379.412 -0.758271 0.330082 0
M  V30 3926 H 381.958 -1.1013 1.2911 0
M  V30 3927 H 380.73 -2.78299 2.75073 0
M  V30 3928 H 380.353 -3.74631 1.33183 0
M  V30 3929 N 381.35 -0.985608 -1.22978 0
M  V30 3930 C 382.596 -0.65836 -1.91816 0
M  V30 3931 C 382.929 0.806692 -1.76653 0
M  V30 3932 O 382.204 1.58252 -1.13078 0
M  V30 3933 C 382.487 -1.056 -3.44268 0
M  V30 3934 C 382.34 -2.57906 -3.68516 0
M  V30 3935 C 383.659 -0.603781 -4.35939 0
M  V30 3936 H 380.778 -0.24065 -0.696604 0
M  V30 3937 H 383.42 -1.22783 -1.44998 0
M  V30 3938 H 381.57 -0.571445 -3.84274 0
M  V30 3939 H 383.242 -3.13976 -3.3796 0
M  V30 3940 H 381.485 -3.00305 -3.13048 0
M  V30 3941 H 382.156 -2.80779 -4.75255 0
M  V30 3942 H 384.632 -1.01987 -4.03408 0
M  V30 3943 H 383.508 -0.910383 -5.41298 0
M  V30 3944 H 383.769 0.495761 -4.39312 0
M  V30 3945 N 382.828 1.3818 -0.7579 0
M  V30 3946 C 383.758 2.33027 -0.148597 0
M  V30 3947 C 384.739 1.55085 0.69875 0
M  V30 3948 O 385.924 1.83384 0.639053 0
M  V30 3949 C 383.054 3.3928 0.742034 0
M  V30 3950 C 382.008 4.28 -0.00291946 0
M  V30 3951 C 381.334 5.25146 1.00625 0
M  V30 3952 C 382.634 5.08938 -1.17385 0
M  V30 3953 H 384.328 2.84231 -0.940909 0
M  V30 3954 H 381.874 1.36659 -0.453908 0
M  V30 3955 H 383.827 4.046 1.17799 0
M  V30 3956 H 382.551 2.86569 1.56671 0
M  V30 3957 H 381.21 3.64192 -0.419504 0
M  V30 3958 H 380.858 4.68721 1.8251 0
M  V30 3959 H 380.558 5.85361 0.512428 0
M  V30 3960 H 382.082 5.93342 1.44143 0
M  V30 3961 H 383.496 5.67474 -0.815224 0
M  V30 3962 H 381.893 5.7841 -1.59882 0
M  V30 3963 H 382.963 4.42424 -1.98468 0
M  V30 3964 N 384.306 0.507319 1.49211 0
M  V30 3965 C 385.256 -0.287112 2.26185 0
M  V30 3966 C 386.24 -0.929983 1.31302 0
M  V30 3967 O 387.432 -0.836538 1.55984 0
M  V30 3968 C 384.561 -1.34718 3.15763 0
M  V30 3969 C 383.647 -0.710235 4.18111 0
M  V30 3970 N 384.038 0.190836 5.0544 0
M  V30 3971 C 382.336 -0.97009 4.35322 0
M  V30 3972 C 383.037 0.55606 5.79036 0
M  V30 3973 N 382.013 -0.0775232 5.43545 0
M  V30 3974 H 385.815 0.406445 2.91076 0
M  V30 3975 H 383.329 0.323814 1.59139 0
M  V30 3976 H 385.326 -1.92982 3.69545 0
M  V30 3977 H 383.986 -2.04235 2.52424 0
M  V30 3978 H 384.997 0.562047 5.14841 0
M  V30 3979 H 381.674 -1.65753 3.83187 0
M  V30 3980 H 383.064 1.2936 6.5933 0
M  V30 3981 N 385.784 -1.5574 0.241426 0
M  V30 3982 C 386.716 -2.18469 -0.693091 0
M  V30 3983 C 387.729 -1.15942 -1.14286 0
M  V30 3984 O 388.918 -1.42832 -1.07058 0
M  V30 3985 C 386.018 -2.7696 -1.95311 0
M  V30 3986 C 385.191 -4.04853 -1.65568 0
M  V30 3987 C 384.25 -4.47715 -2.76474 0
M  V30 3988 O 383.276 -5.14205 -2.44094 0
M  V30 3989 N 384.478 -4.15044 -4.05855 0
M  V30 3990 H 387.243 -2.99292 -0.156388 0
M  V30 3991 H 384.804 -1.61784 0.0611752 0
M  V30 3992 H 386.796 -3.02594 -2.68736 0
M  V30 3993 H 385.366 -2.00326 -2.39975 0
M  V30 3994 H 384.586 -3.86865 -0.756886 0
M  V30 3995 H 385.874 -4.88246 -1.43153 0
M  V30 3996 H 385.272 -3.61654 -4.34998 0
M  V30 3997 H 383.829 -4.45526 -4.75762 0
M  V30 3998 N 387.262 0.0317525 -1.57568 0
M  V30 3999 C 388.508 0.724175 -1.8943 0
M  V30 4000 C 388.841 1.75149 -0.838836 0
M  V30 4001 O 388.116 1.93948 0.146422 0
M  V30 4002 C 388.399 1.39615 -3.31933 0
M  V30 4003 C 388.252 0.382537 -4.4817 0
M  V30 4004 C 389.571 2.33084 -3.73309 0
M  V30 4005 H 386.69 0.261797 -0.688935 0
M  V30 4006 H 389.332 -0.013017 -1.89996 0
M  V30 4007 H 387.482 2.02451 -3.31581 0
M  V30 4008 H 389.154 -0.243689 -4.60656 0
M  V30 4009 H 387.397 -0.29844 -4.32772 0
M  V30 4010 H 388.068 0.891145 -5.44759 0
M  V30 4011 H 390.544 1.80295 -3.7501 0
M  V30 4012 H 389.42 2.77084 -4.73831 0
M  V30 4013 H 389.681 3.19643 -3.05419 0
M  V30 4014 N 388.74 1.54641 0.303973 0
M  V30 4015 C 389.688 1.86137 1.39484 0
M  V30 4016 C 390.682 0.734854 1.52631 0
M  V30 4017 O 391.888 0.918803 1.54784 0
M  V30 4018 H 388.263 0.590324 0.465856 0
M  V30 4019 H 390.234 2.77324 1.10154 0
M  V30 4020 C 388.983 2.12274 2.75382 0
M  V30 4021 H 388.306 2.98429 2.66046 0
M  V30 4022 H 389.746 2.38254 3.5073 0
M  V30 4023 C 388.205 0.920365 3.24085 0
M  V30 4024 O 388.735 0.139377 4.01458 0
M  V30 4025 N 386.941 0.726566 2.81371 0
M  V30 4026 H 386.488 1.36332 2.18567 0
M  V30 4027 H 386.446 -0.0763799 3.14307 0
M  V30 4028 N 390.218 -0.567019 1.47046 0
M  V30 4029 C 391.15 -1.68985 1.54844 0
M  V30 4030 C 392.163 -1.56869 0.435431 0
M  V30 4031 O 393.352 -1.64006 0.70457 0
M  V30 4032 C 390.452 -3.07373 1.42742 0
M  V30 4033 C 389.625 -3.45339 2.6844 0
M  V30 4034 C 388.684 -4.62849 2.50314 0
M  V30 4035 O 387.71 -4.67922 3.24095 0
M  V30 4036 N 388.912 -5.58726 1.57499 0
M  V30 4037 H 391.677 -1.62745 2.51663 0
M  V30 4038 H 389.238 -0.753411 1.43302 0
M  V30 4039 H 391.23 -3.83803 1.28365 0
M  V30 4040 H 389.8 -3.07893 0.540445 0
M  V30 4041 H 389.02 -2.58455 2.97648 0
M  V30 4042 H 390.308 -3.67476 3.51907 0
M  V30 4043 H 389.706 -5.57376 0.966876 0
M  V30 4044 H 388.263 -6.34523 1.49078 0
M  V30 4045 N 391.696 -1.35014 -0.812953 0
M  V30 4046 C 392.921 -1.31187 -1.60639 0
M  V30 4047 C 393.346 0.109382 -1.87782 0
M  V30 4048 O 392.704 1.07424 -1.46047 0
M  V30 4049 C 392.752 -2.11809 -2.91838 0
M  V30 4050 O 391.856 -1.49444 -3.8437 0
M  V30 4051 H 391.197 -0.450084 -0.488181 0
M  V30 4052 H 393.727 -1.77963 -1.00947 0
M  V30 4053 H 393.737 -2.23531 -3.41318 0
M  V30 4054 H 392.412 -3.15137 -2.71407 0
M  V30 4055 H 390.989 -1.46524 -3.42907 0
M  V30 4056 N 393.175 1.03435 -1.18907 0
M  V30 4057 C 394.4 1.80919 -1.01406 0
M  V30 4058 C 394.825 1.83055 0.432721 0
M  V30 4059 O 394.183 1.25252 1.31079 0
M  V30 4060 C 394.231 3.24091 -1.58105 0
M  V30 4061 O 393.335 4.04434 -0.806669 0
M  V30 4062 H 392.676 0.558709 -0.358803 0
M  V30 4063 H 395.206 1.30223 -1.57807 0
M  V30 4064 H 395.216 3.74853 -1.61087 0
M  V30 4065 H 393.891 3.21851 -2.6341 0
M  V30 4066 H 392.468 3.63091 -0.849666 0
M  V30 4067 N 394.653 0.992116 1.22453 0
M  V30 4068 C 395.899 0.668523 1.91464 0
M  V30 4069 C 396.232 -0.797313 1.77078 0
M  V30 4070 O 395.507 -1.5765 1.13916 0
M  V30 4071 C 395.79 1.07424 3.43703 0
M  V30 4072 C 395.643 2.59857 3.67143 0
M  V30 4073 C 396.962 0.626891 4.35612 0
M  V30 4074 H 394.081 0.244341 0.695318 0
M  V30 4075 H 396.723 1.2355 1.44345 0
M  V30 4076 H 394.873 0.591816 3.83966 0
M  V30 4077 H 396.545 3.15764 3.3629 0
M  V30 4078 H 394.788 3.01961 3.11451 0
M  V30 4079 H 395.459 2.83296 4.73759 0
M  V30 4080 H 397.935 1.04125 4.02861 0
M  V30 4081 H 396.811 0.939076 5.40807 0
M  V30 4082 H 397.072 -0.472457 4.39568 0
M  V30 4083 N 396.131 -1.37776 0.765217 0
M  V30 4084 C 397.063 -2.28958 0.105361 0
M  V30 4085 C 398.076 -1.48316 -0.67128 0
M  V30 4086 O 399.265 -1.71046 -0.51045 0
M  V30 4087 C 396.365 -3.27421 -0.874569 0
M  V30 4088 C 395.538 -4.37132 -0.153123 0
M  V30 4089 C 394.597 -5.1571 -1.04547 0
M  V30 4090 O 393.623 -5.66896 -0.511672 0
M  V30 4091 N 394.825 -5.29808 -2.37243 0
M  V30 4092 H 397.59 -2.86227 0.888495 0
M  V30 4093 H 395.151 -1.49682 0.617 0
M  V30 4094 H 397.143 -3.7687 -1.47483 0
M  V30 4095 H 395.713 -2.70967 -1.55871 0
M  V30 4096 H 394.933 -3.89166 0.627975 0
M  V30 4097 H 396.221 -5.07625 0.345643 0
M  V30 4098 H 395.619 -4.89793 -2.83054 0
M  V30 4099 H 394.176 -5.82589 -2.9229 0
M  V30 4100 N 397.609 -0.515225 -1.4894 0
M  V30 4101 C 398.855 0.0242508 -2.02785 0
M  V30 4102 C 399.188 1.35323 -1.39289 0
M  V30 4103 O 398.463 1.87041 -0.533469 0
M  V30 4104 C 398.746 0.16184 -3.59736 0
M  V30 4105 C 398.599 -1.19127 -4.33738 0
M  V30 4106 C 399.918 0.895719 -4.30888 0
M  V30 4107 H 397.037 0.00733914 -0.736963 0
M  V30 4108 H 399.679 -0.669395 -1.77818 0
M  V30 4109 H 397.829 0.752624 -3.8114 0
M  V30 4110 H 399.501 -1.82202 -4.23792 0
M  V30 4111 H 397.744 -1.77695 -3.95736 0
M  V30 4112 H 398.415 -1.04815 -5.41957 0
M  V30 4113 H 400.891 0.394528 -4.14225 0
M  V30 4114 H 399.767 0.960859 -5.40425 0
M  V30 4115 H 400.028 1.9427 -3.97129 0
M  V30 4116 N 399.087 1.5561 -0.249682 0
M  V30 4117 C 400.333 1.99306 0.374841 0
M  V30 4118 C 400.666 1.13767 1.57387 0
M  V30 4119 O 399.941 0.201711 1.93451 0
M  V30 4120 C 400.224 3.51507 0.781986 0
M  V30 4121 C 400.077 4.4781 -0.422629 0
M  V30 4122 C 401.396 4.08884 1.62793 0
M  V30 4123 H 398.515 0.724572 0.134773 0
M  V30 4124 H 401.157 1.86719 -0.351549 0
M  V30 4125 H 399.307 3.62363 1.4009 0
M  V30 4126 H 400.979 4.48931 -1.06108 0
M  V30 4127 H 399.222 4.20518 -1.06524 0
M  V30 4128 H 399.893 5.51919 -0.0943766 0
M  V30 4129 H 402.369 4.01147 1.10547 0
M  V30 4130 H 401.245 5.1564 1.88166 0
M  V30 4131 H 401.506 3.57515 2.60068 0
M  V30 4132 N 400.565 -0.0233959 1.57583 0
M  V30 4133 C 401.495 -1.02162 2.09965 0
M  V30 4134 C 402.476 -1.3735 1.00344 0
M  V30 4135 O 403.661 -1.46135 1.27899 0
M  V30 4136 C 400.791 -2.32081 2.58371 0
M  V30 4137 C 399.745 -2.1112 3.72307 0
M  V30 4138 C 399.071 -3.46848 4.06941 0
M  V30 4139 C 400.371 -1.49276 5.00514 0
M  V30 4140 H 402.065 -0.585557 2.93618 0
M  V30 4141 H 399.611 -0.280218 1.41247 0
M  V30 4142 H 401.564 -3.02249 2.93639 0
M  V30 4143 H 400.288 -2.77758 1.71808 0
M  V30 4144 H 398.947 -1.43384 3.37397 0
M  V30 4145 H 398.595 -3.90184 3.17436 0
M  V30 4146 H 398.295 -3.33646 4.83688 0
M  V30 4147 H 399.819 -4.18369 4.44747 0
M  V30 4148 H 401.233 -2.09368 5.33702 0
M  V30 4149 H 399.63 -1.46632 5.8191 0
M  V30 4150 H 400.7 -0.459217 4.82721 0
M  V30 4151 N 402.043 -1.548 -0.295768 0
M  V30 4152 C 402.973 -1.89115 -1.36959 0
M  V30 4153 C 403.954 -0.75059 -1.52644 0
M  V30 4154 O 405.139 -1.00678 -1.66065 0
M  V30 4155 C 402.269 -2.14307 -2.73295 0
M  V30 4156 C 401.223 -3.30151 -2.72368 0
M  V30 4157 C 400.549 -3.40772 -4.12042 0
M  V30 4158 C 401.849 -4.67126 -2.33646 0
M  V30 4159 H 403.543 -2.79053 -1.08488 0
M  V30 4160 H 401.089 -1.34266 -0.520443 0
M  V30 4161 H 403.042 -2.36898 -3.48507 0
M  V30 4162 H 401.766 -1.21145 -3.03301 0
M  V30 4163 H 400.425 -3.0749 -1.99613 0
M  V30 4164 H 400.073 -2.45117 -4.39234 0
M  V30 4165 H 399.773 -4.18645 -4.12322 0
M  V30 4166 H 401.297 -3.6563 -4.89027 0
M  V30 4167 H 402.711 -4.89414 -2.98575 0
M  V30 4168 H 401.108 -5.47751 -2.45129 0
M  V30 4169 H 402.178 -4.67489 -1.28772 0
M  V30 4170 N 403.521 0.559213 -1.47345 0
M  V30 4171 C 404.768 1.31648 -1.53867 0
M  V30 4172 C 405.096 1.93468 -0.200104 0
M  V30 4173 O 404.351 1.78295 0.806799 0
M  V30 4174 C 404.65 2.44853 -2.6035 0
M  V30 4175 C 404.316 2.00876 -4.03683 0
M  V30 4176 C 402.978 1.88599 -4.42701 0
M  V30 4177 C 405.33 1.67279 -4.93626 0
M  V30 4178 C 402.658 1.41017 -5.69501 0
M  V30 4179 C 405.01 1.21169 -6.20887 0
M  V30 4180 C 403.674 1.07487 -6.58789 0
M  V30 4181 H 402.944 0.481734 -0.56304 0
M  V30 4182 H 405.591 0.627301 -1.80934 0
M  V30 4183 H 403.896 3.19318 -2.27032 0
M  V30 4184 H 405.593 3.03039 -2.62619 0
M  V30 4185 H 402.183 2.11374 -3.72853 0
M  V30 4186 H 406.367 1.75638 -4.64182 0
M  V30 4187 H 401.623 1.29086 -5.97618 0
M  V30 4188 H 405.797 0.942345 -6.89995 0
M  V30 4189 H 403.424 0.703946 -7.56934 0
M  V30 4190 N 404.999 1.35443 0.805782 0
M  V30 4191 C 405.962 1.28301 1.89925 0
M  V30 4192 C 406.962 0.194285 1.59622 0
M  V30 4193 O 408.152 0.448036 1.6834 0
M  V30 4194 C 405.284 0.984997 3.2636 0
M  V30 4195 H 406.477 2.2553 1.97677 0
M  V30 4196 H 404.03 1.19979 1.00173 0
M  V30 4197 H 404.765 0.016603 3.24296 0
M  V30 4198 H 404.55 1.77269 3.4974 0
M  V30 4199 H 406.04 0.960651 4.064 0
M  V30 4200 N 406.477 -1.02803 1.19454 0
M  V30 4201 C 407.702 -1.80378 1.02364 0
M  V30 4202 C 408.127 -1.83282 -0.423007 0
M  V30 4203 O 407.485 -1.25945 -1.30413 0
M  V30 4204 C 407.533 -3.23248 1.59821 0
M  V30 4205 O 406.637 -4.04 0.828105 0
M  V30 4206 H 405.978 -0.556799 0.361761 0
M  V30 4207 H 408.508 -1.29385 1.58495 0
M  V30 4208 H 408.518 -3.73994 1.63073 0
M  V30 4209 H 407.193 -3.2045 2.65113 0
M  V30 4210 H 405.77 -3.62635 0.86891 0
M  V30 4211 N 407.956 -0.998596 -1.21925 0
M  V30 4212 C 409.202 -0.678667 -1.91107 0
M  V30 4213 C 409.535 0.78791 -1.77498 0
M  V30 4214 O 408.81 1.57043 -1.1475 0
M  V30 4215 C 409.093 -1.09245 -3.43129 0
M  V30 4216 C 408.946 -2.61801 -3.6576 0
M  V30 4217 C 410.265 -0.649984 -4.35274 0
M  V30 4218 H 407.384 -0.248025 -0.694012 0
M  V30 4219 H 410.026 -1.24314 -1.43688 0
M  V30 4220 H 408.176 -0.612171 -3.83647 0
M  V30 4221 H 409.848 -3.17543 -3.34611 0
M  V30 4222 H 408.091 -3.03609 -3.09845 0
M  V30 4223 H 408.762 -2.85804 -4.7225 0
M  V30 4224 H 411.238 -1.0626 -4.02303 0
M  V30 4225 H 410.114 -0.967743 -5.40302 0
M  V30 4226 H 410.375 0.449139 -4.39813 0
M  V30 4227 N 409.434 1.37368 -0.772513 0
M  V30 4228 C 410.384 2.27613 -0.132823 0
M  V30 4229 C 411.368 1.46138 0.673247 0
M  V30 4230 O 412.56 1.68686 0.536095 0
M  V30 4231 C 409.689 3.35122 0.744864 0
M  V30 4232 C 408.775 4.24044 -0.0690771 0
M  V30 4233 N 409.166 4.93355 -1.1151 0
M  V30 4234 C 407.464 4.45731 0.154782 0
M  V30 4235 C 408.165 5.59 -1.60917 0
M  V30 4236 N 407.141 5.35737 -0.921222 0
M  V30 4237 H 410.943 2.78675 -0.933681 0
M  V30 4238 H 408.457 1.50494 -0.610342 0
M  V30 4239 H 410.454 3.98683 1.21892 0
M  V30 4240 H 409.114 2.85616 1.54446 0
M  V30 4241 H 410.125 4.95785 -1.49726 0
M  V30 4242 H 406.802 4.07096 0.926224 0
M  V30 4243 H 408.192 6.24395 -2.48153 0
M  V30 4244 N 410.912 0.523116 1.48665 0
M  V30 4245 C 411.875 -0.232592 2.28017 0
M  V30 4246 C 412.875 -0.874021 1.34972 0
M  V30 4247 O 414.065 -0.735132 1.57929 0
M  V30 4248 C 411.197 -1.33586 3.13636 0
M  V30 4249 H 412.39 0.464008 2.96289 0
M  V30 4250 H 409.943 0.278816 1.53793 0
M  V30 4251 H 410.678 -2.06593 2.4998 0
M  V30 4252 H 410.463 -0.881125 3.82071 0
M  V30 4253 H 411.953 -1.86759 3.73511 0
M  V30 4254 N 412.39 -1.55475 0.257931 0
M  V30 4255 C 413.353 -2.20551 -0.623706 0
M  V30 4256 C 414.353 -1.17809 -1.09443 0
M  V30 4257 O 415.543 -1.42823 -0.997362 0
M  V30 4258 C 412.675 -2.85784 -1.8585 0
M  V30 4259 H 413.868 -2.99848 -0.0557743 0
M  V30 4260 H 411.421 -1.56298 0.0084422 0
M  V30 4261 H 412.156 -2.10453 -2.46739 0
M  V30 4262 H 411.941 -3.61057 -1.52907 0
M  V30 4263 H 413.431 -3.35553 -2.48584 0
M  V30 4264 N 413.868 0.0150385 -1.57593 0
M  V30 4265 C 414.818 1.01943 -2.0394 0
M  V30 4266 C 415.802 1.31209 -0.931286 0
M  V30 4267 O 416.994 1.30559 -1.19513 0
M  V30 4268 C 414.123 2.31621 -2.53391 0
M  V30 4269 C 413.209 2.05384 -3.7105 0
M  V30 4270 N 413.6 1.49253 -4.83278 0
M  V30 4271 C 411.898 2.35601 -3.78693 0
M  V30 4272 C 412.599 1.39143 -5.64813 0
M  V30 4273 N 411.575 1.87187 -5.10355 0
M  V30 4274 H 415.377 0.57969 -2.88126 0
M  V30 4275 H 412.891 0.221056 -1.60888 0
M  V30 4276 H 414.888 3.044 -2.84862 0
M  V30 4277 H 413.548 2.76261 -1.70616 0
M  V30 4278 H 414.559 1.17334 -5.04433 0
M  V30 4279 H 411.236 2.8322 -3.06746 0
M  V30 4280 H 412.626 0.961153 -6.6499 0
M  V30 4281 N 415.346 1.54954 0.287554 0
M  V30 4282 C 416.309 1.86076 1.33823 0
M  V30 4283 C 417.309 0.734414 1.43049 0
M  V30 4284 O 418.499 1.00266 1.42452 0
M  V30 4285 C 415.631 2.05305 2.72144 0
M  V30 4286 H 416.824 2.79984 1.07465 0
M  V30 4287 H 414.377 1.47223 0.524902 0
M  V30 4288 H 415.112 1.1373 3.03704 0
M  V30 4289 H 414.897 2.873 2.66836 0
M  V30 4290 H 416.387 2.30706 3.48087 0
M  V30 4291 N 416.824 -0.551391 1.4764 0
M  V30 4292 C 417.754 -1.66757 1.63445 0
M  V30 4293 C 418.735 -1.63077 0.483742 0
M  V30 4294 O 419.92 -1.80607 0.71377 0
M  V30 4295 C 417.05 -3.05387 1.65396 0
M  V30 4296 C 416.004 -3.23918 2.79752 0
M  V30 4297 C 415.33 -4.63393 2.66779 0
M  V30 4298 C 416.63 -3.08735 4.21284 0
M  V30 4299 H 418.324 -1.53786 2.56886 0
M  V30 4300 H 415.87 -0.738415 1.23626 0
M  V30 4301 H 417.823 -3.83325 1.75043 0
M  V30 4302 H 416.547 -3.19332 0.685195 0
M  V30 4303 H 415.206 -2.48391 2.69625 0
M  V30 4304 H 414.854 -4.74144 1.67918 0
M  V30 4305 H 414.554 -4.7674 3.43501 0
M  V30 4306 H 416.078 -5.43458 2.78364 0
M  V30 4307 H 417.492 -3.76484 4.32357 0
M  V30 4308 H 415.889 -3.33588 4.98838 0
M  V30 4309 H 416.959 -2.0541 4.39243 0
M  V30 4310 N 418.302 -1.35869 -0.798587 0
M  V30 4311 C 419.549 -1.29588 -1.55606 0
M  V30 4312 C 419.877 0.127456 -1.94082 0
M  V30 4313 O 419.132 1.09461 -1.62225 0
M  V30 4314 C 419.431 -2.1556 -2.85077 0
M  V30 4315 C 419.097 -3.6424 -2.65781 0
M  V30 4316 C 417.759 -4.04766 -2.60227 0
M  V30 4317 C 420.111 -4.58547 -2.47758 0
M  V30 4318 C 417.439 -5.37753 -2.34603 0
M  V30 4319 C 419.791 -5.91742 -2.23662 0
M  V30 4320 C 418.455 -6.31402 -2.16534 0
M  V30 4321 H 417.725 -0.474197 -0.569402 0
M  V30 4322 H 420.372 -1.67839 -0.922086 0
M  V30 4323 H 418.677 -1.70216 -3.52893 0
M  V30 4324 H 420.374 -2.08031 -3.42818 0
M  V30 4325 H 416.964 -3.32086 -2.70956 0
M  V30 4326 H 421.148 -4.28117 -2.51056 0
M  V30 4327 H 416.404 -5.67474 -2.2756 0
M  V30 4328 H 420.578 -6.6439 -2.08708 0
M  V30 4329 H 418.205 -7.34381 -1.96441 0
M  V30 4330 N 419.78 1.02168 -1.19998 0
M  V30 4331 C 420.728 2.12717 -0.940967 0
M  V30 4332 C 421.722 1.69069 0.105841 0
M  V30 4333 O 422.928 1.79946 -0.0440583 0
M  V30 4334 H 419.303 0.695108 -0.28693 0
M  V30 4335 H 421.274 2.3175 -1.87975 0
M  V30 4336 C 420.023 3.44027 -0.504049 0
M  V30 4337 H 419.346 3.78036 -1.30112 0
M  V30 4338 H 420.786 4.22452 -0.361991 0
M  V30 4339 C 419.245 3.27678 0.782878 0
M  V30 4340 O 419.775 3.56949 1.84256 0
M  V30 4341 N 417.981 2.80943 0.742921 0
M  V30 4342 H 417.528 2.57322 -0.119687 0
M  V30 4343 H 417.486 2.70385 1.60435 0
M  V30 4344 N 421.258 1.00505 1.21394 0
M  V30 4345 C 422.488 0.705584 1.94178 0
M  V30 4346 C 422.896 -0.735846 1.74304 0
M  V30 4347 O 422.239 -1.50954 1.04683 0
M  V30 4348 C 422.301 0.94689 3.46806 0
M  V30 4349 C 421.965 2.37517 3.90429 0
M  V30 4350 C 422.962 3.35539 3.97127 0
M  V30 4351 C 420.647 2.71284 4.22742 0
M  V30 4352 C 422.641 4.65395 4.3553 0
M  V30 4353 C 420.328 4.01356 4.60822 0
M  V30 4354 C 421.326 4.98223 4.67186 0
M  V30 4355 O 421.014 6.25969 5.04399 0
M  V30 4356 H 420.746 0.259216 0.624326 0
M  V30 4357 H 423.3 1.34592 1.55159 0
M  V30 4358 H 421.53 0.249386 3.85895 0
M  V30 4359 H 423.219 0.640804 4.0081 0
M  V30 4360 H 423.985 3.10786 3.7234 0
M  V30 4361 H 419.864 1.96581 4.16985 0
M  V30 4362 H 423.408 5.41002 4.40412 0
M  V30 4363 H 419.305 4.25893 4.85063 0
M  V30 4364 H 420.073 6.30085 5.22431 0
M  V30 4365 N 422.737 -1.36956 0.779787 0
M  V30 4366 C 423.962 -2.04283 0.358224 0
M  V30 4367 C 424.387 -1.58422 -1.01411 0
M  V30 4368 O 423.745 -0.748179 -1.65142 0
M  V30 4369 C 423.793 -3.58152 0.419479 0
M  V30 4370 O 422.897 -4.08342 -0.577142 0
M  V30 4371 H 422.238 -0.645967 0.153698 0
M  V30 4372 H 424.768 -1.75108 1.05822 0
M  V30 4373 H 424.778 -4.07041 0.279636 0
M  V30 4374 H 423.453 -3.90886 1.42061 0
M  V30 4375 H 422.03 -3.70751 -0.399755 0
M  V30 4376 N 424.215 -0.530993 -1.48385 0
M  V30 4377 C 425.464 0.00474348 -2.01699 0
M  V30 4378 C 425.777 1.35227 -1.41325 0
M  V30 4379 O 426.983 1.97643 -1.86144 0
M  V30 4380 C 425.439 0.0588473 -3.59852 0
M  V30 4381 C 425.047 -1.28385 -4.2921 0
M  V30 4382 C 426.791 0.543358 -4.21008 0
M  V30 4383 C 424.698 -1.19028 -5.79298 0
M  V30 4384 H 423.628 0.00554317 -0.75398 0
M  V30 4385 H 426.279 -0.674924 -1.70637 0
M  V30 4386 H 424.661 0.803612 -3.8776 0
M  V30 4387 H 425.835 -2.04426 -4.12973 0
M  V30 4388 H 424.15 -1.70418 -3.7993 0
M  V30 4389 H 426.747 0.631351 -5.3096 0
M  V30 4390 H 427.09 1.54937 -3.86394 0
M  V30 4391 H 427.623 -0.145754 -3.97533 0
M  V30 4392 H 424.362 -2.17147 -6.18488 0
M  V30 4393 H 423.882 -0.471246 -5.97946 0
M  V30 4394 H 425.561 -0.881365 -6.40969 0
M  V30 4395 N 425.693 1.55336 -0.266172 0
M  V30 4396 C 426.918 2.04258 0.359661 0
M  V30 4397 C 427.343 1.14359 1.49344 0
M  V30 4398 O 426.701 0.140369 1.80756 0
M  V30 4399 C 426.749 3.50997 0.826635 0
M  V30 4400 O 425.853 3.64204 1.93466 0
M  V30 4401 H 425.194 0.659668 0.075727 0
M  V30 4402 H 427.724 2.00694 -0.39786 0
M  V30 4403 H 427.734 3.9219 1.12477 0
M  V30 4404 H 426.409 4.159 -0.00293032 0
M  V30 4405 H 424.986 3.34913 1.63974 0
M  V30 4406 N 427.171 -0.0066808 1.57599 0
M  V30 4407 C 428.396 -0.707738 1.94951 0
M  V30 4408 C 428.821 -1.66882 0.867868 0
M  V30 4409 O 428.179 -1.80457 -0.17458 0
M  V30 4410 C 428.227 -1.42162 3.31394 0
M  V30 4411 O 427.331 -2.53578 3.25226 0
M  V30 4412 H 426.672 -0.188752 0.636607 0
M  V30 4413 H 429.202 0.0445193 2.04552 0
M  V30 4414 H 429.212 -1.78655 3.66806 0
M  V30 4415 H 427.887 -0.716903 4.09675 0
M  V30 4416 H 426.464 -2.19463 3.01481 0
M  V30 4417 N 428.649 -1.55105 -0.279332 0
M  V30 4418 C 430.065 -1.46803 -0.626187 0
M  V30 4419 C 430.265 -0.676939 -1.89789 0
M  V30 4420 O 429.321 -0.19326 -2.51759 0
M  V30 4421 C 430.634 -2.90962 -0.759034 0
M  V30 4422 C 432.182 -3.01138 -0.853504 0
M  V30 4423 C 432.657 -4.46539 -1.01818 0
M  V30 4424 N 434.148 -4.50341 -1.08386 0
M  V30 4425 C 434.883 -5.60053 -1.22996 0
M  V30 4426 N 434.379 -6.79645 -1.34366 0
M  V30 4427 N 436.172 -5.47783 -1.26056 0
M  V30 4428 H 428.323 -2.04996 0.555921 0
M  V30 4429 H 430.586 -0.929325 0.187239 0
M  V30 4430 H 430.292 -3.51544 0.104852 0
M  V30 4431 H 430.166 -3.39619 -1.64131 0
M  V30 4432 H 432.553 -2.40658 -1.70786 0
M  V30 4433 H 432.634 -2.55745 0.0532466 0
M  V30 4434 H 432.278 -5.0762 -0.168504 0
M  V30 4435 H 432.208 -4.89583 -1.93948 0
M  V30 4436 H 434.699 -3.64191 -1.00864 0
M  V30 4437 H 435.012 -7.59012 -1.4533 0
M  V30 4438 H 433.357 -6.82469 -1.31382 0
M  V30 4439 H 436.548 -4.53294 -1.168 0
M  V30 4440 H 436.721 -6.33331 -1.37098 0
M  V30 4441 N 430.127 0.543554 -1.4793 0
M  V30 4442 C 431.057 1.65888 -1.64327 0
M  V30 4443 C 432.038 1.62818 -0.492383 0
M  V30 4444 O 433.223 1.80226 -0.723338 0
M  V30 4445 C 430.353 3.04506 -1.67013 0
M  V30 4446 C 429.307 3.2243 -2.81466 0
M  V30 4447 C 428.633 4.61972 -2.69233 0
M  V30 4448 C 429.933 3.06496 -4.22915 0
M  V30 4449 H 431.627 1.52421 -2.57698 0
M  V30 4450 H 429.173 0.731849 -1.24016 0
M  V30 4451 H 431.126 3.82391 -1.77074 0
M  V30 4452 H 429.85 3.18964 -0.70212 0
M  V30 4453 H 428.509 2.46957 -2.70938 0
M  V30 4454 H 428.157 4.73247 -1.7043 0
M  V30 4455 H 427.857 4.74911 -3.46025 0
M  V30 4456 H 429.381 5.41974 -2.81242 0
M  V30 4457 H 430.795 3.74186 -4.34348 0
M  V30 4458 H 429.192 3.30938 -5.006 0
M  V30 4459 H 430.262 2.03077 -4.40327 0
M  V30 4460 N 431.605 1.3629 0.791371 0
M  V30 4461 C 432.83 1.33726 1.58531 0
M  V30 4462 C 433.255 -0.0794933 1.87932 0
M  V30 4463 O 432.613 -1.05087 1.47738 0
M  V30 4464 C 432.661 2.16425 2.88431 0
M  V30 4465 O 431.765 1.5554 3.81944 0
M  V30 4466 H 431.106 0.457793 0.480959 0
M  V30 4467 H 433.636 1.79547 0.981031 0
M  V30 4468 H 433.646 2.28933 3.37718 0
M  V30 4469 H 432.321 3.19415 2.66359 0
M  V30 4470 H 430.898 1.51961 3.40532 0
M  V30 4471 N 433.083 -1.0153 1.20538 0
M  V30 4472 C 434.494 -1.56598 1.01657 0
M  V30 4473 C 434.845 -1.91505 -0.426668 0
M  V30 4474 O 433.97 -1.72375 -1.30827 0
M  V30 4475 C 434.565 -2.84542 1.83905 0
M  V30 4476 C 433.124 -3.36133 1.69386 0
M  V30 4477 C 432.271 -2.09427 1.81757 0
M  V30 4478 H 435.222 -0.838974 1.34711 0
M  V30 4479 H 435.243 -3.56004 1.34319 0
M  V30 4480 H 434.755 -2.59105 2.8894 0
M  V30 4481 H 432.856 -3.66528 0.669933 0
M  V30 4482 H 432.969 -4.08248 2.50739 0
M  V30 4483 H 431.333 -2.21941 1.24957 0
M  V30 4484 H 432.116 -1.86414 2.88279 0
M  V30 4485 N 434.561 -1.01147 -1.20859 0
M  V30 4486 C 435.508 -0.577354 -2.23462 0
M  V30 4487 C 436.478 0.399922 -1.61214 0
M  V30 4488 O 437.663 0.300515 -1.88419 0
M  V30 4489 C 434.803 0.083372 -3.44999 0
M  V30 4490 C 433.916 -0.937856 -4.21697 0
M  V30 4491 C 433.051 -0.248717 -5.30617 0
M  V30 4492 C 432.09 -1.25705 -5.99053 0
M  V30 4493 N 431.227 -0.594939 -6.99575 0
M  V30 4494 H 436.067 -1.45695 -2.59956 0
M  V30 4495 H 433.604 -0.729428 -1.27741 0
M  V30 4496 H 435.562 0.483535 -4.14388 0
M  V30 4497 H 434.192 0.926645 -3.09214 0
M  V30 4498 H 433.244 -1.45622 -3.51423 0
M  V30 4499 H 434.556 -1.70493 -4.68757 0
M  V30 4500 H 433.71 0.207215 -6.06346 0
M  V30 4501 H 432.449 0.55071 -4.84581 0
M  V30 4502 H 431.454 -1.72343 -5.2209 0
M  V30 4503 H 432.679 -2.05767 -6.47176 0
M  V30 4504 H 430.625 0.184713 -6.5574 0
M  V30 4505 H 430.542 -1.30017 -7.44736 0
M  V30 4506 H 431.81 -0.162427 -7.79331 0
M  V30 4507 N 436.039 1.36541 -0.78704 0
M  V30 4508 C 437.285 1.99599 -0.358872 0
M  V30 4509 C 437.618 1.62323 1.06606 0
M  V30 4510 O 436.893 0.876858 1.73613 0
M  V30 4511 C 437.176 3.56327 -0.519944 0
M  V30 4512 C 437.029 4.03464 -1.98839 0
M  V30 4513 C 438.348 4.4005 0.0664737 0
M  V30 4514 H 435.467 0.725107 -0.131869 0
M  V30 4515 H 438.109 1.6199 -0.992936 0
M  V30 4516 H 436.259 3.88495 0.0198321 0
M  V30 4517 H 437.931 3.81793 -2.58905 0
M  V30 4518 H 436.174 3.55092 -2.49183 0
M  V30 4519 H 436.845 5.12439 -2.05207 0
M  V30 4520 H 439.321 4.14228 -0.394267 0
M  V30 4521 H 438.197 5.48847 -0.0762682 0
M  V30 4522 H 438.458 4.26655 1.15835 0
M  V30 4523 N 437.518 0.538854 1.48102 0
M  V30 4524 C 438.764 0.0161732 2.03394 0
M  V30 4525 C 439.119 -1.31154 1.40771 0
M  V30 4526 O 438.412 -1.83613 0.547421 0
M  V30 4527 C 438.606 -0.153808 3.57069 0
M  V30 4528 C 438.435 1.15588 4.34591 0
M  V30 4529 C 437.205 1.71818 4.75191 0
M  V30 4530 C 439.403 2.06867 4.70861 0
M  V30 4531 N 437.385 2.96983 5.37284 0
M  V30 4532 C 438.756 3.16609 5.33066 0
M  V30 4533 C 440.811 2.07085 4.52791 0
M  V30 4534 C 439.514 4.26645 5.79109 0
M  V30 4535 C 441.54 3.16121 4.99821 0
M  V30 4536 C 440.902 4.24582 5.62058 0
M  V30 4537 H 437.001 0.0476346 0.780548 0
M  V30 4538 H 439.585 0.722094 1.80815 0
M  V30 4539 H 437.756 -0.828825 3.79454 0
M  V30 4540 H 439.488 -0.676896 3.98999 0
M  V30 4541 H 436.243 1.25845 4.56574 0
M  V30 4542 H 436.667 3.60732 5.72889 0
M  V30 4543 H 441.309 1.24522 4.04047 0
M  V30 4544 H 439.027 5.0998 6.26854 0
M  V30 4545 H 442.613 3.17355 4.87624 0
M  V30 4546 H 441.493 5.07562 5.97788 0
M  V30 4547 N 438.996 -1.55193 0.274407 0
M  V30 4548 C 440.242 -1.99877 -0.343086 0
M  V30 4549 C 440.575 -1.16256 -1.55558 0
M  V30 4550 O 439.85 -0.232462 -1.93106 0
M  V30 4551 C 440.133 -3.52706 -0.725965 0
M  V30 4552 C 439.986 -4.47081 0.493818 0
M  V30 4553 C 441.305 -4.11422 -1.56268 0
M  V30 4554 H 438.424 -0.726625 -0.123229 0
M  V30 4555 H 441.066 -1.86136 0.38121 0
M  V30 4556 H 439.216 -3.64546 -1.34307 0
M  V30 4557 H 440.888 -4.47186 1.13237 0
M  V30 4558 H 439.131 -4.1877 1.13201 0
M  V30 4559 H 439.802 -5.51699 0.18217 0
M  V30 4560 H 442.278 -4.02855 -1.04151 0
M  V30 4561 H 441.154 -5.18568 -1.79939 0
M  V30 4562 H 441.415 -3.61607 -2.54348 0
M  V30 4563 N 440.474 -0.00167713 -1.576 0
M  V30 4564 C 441.437 0.974046 -2.07473 0
M  V30 4565 C 442.437 1.27143 -0.984444 0
M  V30 4566 O 443.627 1.21633 -1.24703 0
M  V30 4567 C 440.759 2.29849 -2.51759 0
M  V30 4568 H 441.952 0.54262 -2.9495 0
M  V30 4569 H 439.505 0.245829 -1.54355 0
M  V30 4570 H 440.24 2.77677 -1.67529 0
M  V30 4571 H 440.025 2.09584 -3.31386 0
M  V30 4572 H 441.515 2.9984 -2.90664 0
M  V30 4573 N 441.952 1.55251 0.271103 0
M  V30 4574 C 443.177 1.80306 1.02491 0
M  V30 4575 C 443.602 0.575457 1.79081 0
M  V30 4576 O 442.96 -0.474987 1.74967 0
M  V30 4577 C 443.008 3.02832 1.95768 0
M  V30 4578 O 442.112 2.78051 3.04568 0
M  V30 4579 H 441.453 0.595896 0.292923 0
M  V30 4580 H 443.983 2.02397 0.299436 0
M  V30 4581 H 443.993 3.31616 2.37686 0
M  V30 4582 H 442.668 3.9183 1.39434 0
M  V30 4583 H 441.245 2.60369 2.66951 0
M  V30 4584 N 443.43 -0.535701 1.48216 0
M  V30 4585 C 444.34 -1.66785 1.64985 0
M  V30 4586 C 445.356 -1.65654 0.532414 0
M  V30 4587 O 446.532 -1.8471 0.80275 0
M  V30 4588 C 443.597 -3.0326 1.68031 0
M  V30 4589 C 442.658 -3.1529 2.9136 0
M  V30 4590 C 441.891 -4.45255 2.94252 0
M  V30 4591 O 442.114 -5.32011 2.05719 0
M  V30 4592 O 441.048 -4.6153 3.86359 0
M  V30 4593 H 444.874 -1.55576 2.60825 0
M  V30 4594 H 442.459 -0.70815 1.31551 0
M  V30 4595 H 444.341 -3.84436 1.72589 0
M  V30 4596 H 443.016 -3.14805 0.753628 0
M  V30 4597 H 441.923 -2.3343 2.92337 0
M  V30 4598 H 443.256 -3.08658 3.83394 0
M  V30 4599 N 444.908 -1.36708 -0.784132 0
M  V30 4600 C 445.871 -1.31307 -1.87859 0
M  V30 4601 C 446.871 -0.219654 -1.59293 0
M  V30 4602 O 448.061 -0.47476 -1.67606 0
M  V30 4603 C 445.193 -1.03679 -3.24751 0
M  V30 4604 H 446.386 -2.28647 -1.94064 0
M  V30 4605 H 443.939 -1.21558 -0.98252 0
M  V30 4606 H 444.674 -0.0681936 -3.24228 0
M  V30 4607 H 444.459 -1.82811 -3.46876 0
M  V30 4608 H 445.949 -1.02518 -4.04821 0
M  V30 4609 N 446.386 1.0089 -1.21074 0
M  V30 4610 C 447.632 1.7497 -1.03717 0
M  V30 4611 C 447.987 1.8764 0.425344 0
M  V30 4612 O 447.28 1.39679 1.3115 0
M  V30 4613 C 447.474 3.16335 -1.66334 0
M  V30 4614 C 447.303 3.17449 -3.18522 0
M  V30 4615 C 446.073 3.2425 -3.87543 0
M  V30 4616 C 448.271 3.02877 -4.15656 0
M  V30 4617 N 446.253 3.14949 -5.26954 0
M  V30 4618 C 447.624 3.0143 -5.41793 0
M  V30 4619 C 449.679 2.8715 -4.06755 0
M  V30 4620 C 448.382 2.85869 -6.60054 0
M  V30 4621 C 450.408 2.72944 -5.24648 0
M  V30 4622 C 449.77 2.72171 -6.49694 0
M  V30 4623 H 445.869 0.650627 -0.43383 0
M  V30 4624 H 448.453 1.19944 -1.53367 0
M  V30 4625 H 446.624 3.69638 -1.19256 0
M  V30 4626 H 448.356 3.78888 -1.42219 0
M  V30 4627 H 445.111 3.31288 -3.38446 0
M  V30 4628 H 445.535 3.13651 -5.9996 0
M  V30 4629 H 450.177 2.86557 -3.10878 0
M  V30 4630 H 447.895 2.8521 -7.56096 0
M  V30 4631 H 451.481 2.61782 -5.19578 0
M  V30 4632 H 450.361 2.61307 -7.39384 0
M  V30 4633 N 447.864 1.01787 1.20321 0
M  V30 4634 C 448.794 0.609625 2.25401 0
M  V30 4635 C 449.775 -0.375951 1.65893 0
M  V30 4636 O 450.96 -0.261101 1.92437 0
M  V30 4637 C 448.09 -0.0515995 3.47262 0
M  V30 4638 C 447.044 0.855095 4.19371 0
M  V30 4639 C 446.37 0.0595757 5.34667 0
M  V30 4640 C 447.67 2.16374 4.75373 0
M  V30 4641 H 449.364 1.48803 2.59804 0
M  V30 4642 H 446.91 0.716934 1.24884 0
M  V30 4643 H 448.863 -0.348764 4.19954 0
M  V30 4644 H 447.587 -0.964726 3.12027 0
M  V30 4645 H 446.246 1.13628 3.48546 0
M  V30 4646 H 445.894 -0.85524 4.95676 0
M  V30 4647 H 445.594 0.663406 5.83843 0
M  V30 4648 H 447.118 -0.231105 6.10162 0
M  V30 4649 H 448.532 1.92885 5.39878 0
M  V30 4650 H 446.929 2.71853 5.34991 0
M  V30 4651 H 447.999 2.82589 3.94045 0
M  V30 4652 N 449.342 -1.36122 0.79427 0
M  V30 4653 C 450.57 -2.03362 0.380989 0
M  V30 4654 C 450.985 -1.59881 -1.00416 0
M  V30 4655 O 450.342 -0.790515 -1.6449 0
M  V30 4656 C 450.393 -3.58804 0.440649 0
M  V30 4657 O 450.114 -4.007 1.77118 0
M  V30 4658 C 451.615 -4.43296 0.0186117 0
M  V30 4659 H 448.835 -0.652526 0.156367 0
M  V30 4660 H 451.379 -1.73998 1.07447 0
M  V30 4661 H 449.534 -3.8686 -0.204458 0
M  V30 4662 H 449.948 -4.95309 1.72538 0
M  V30 4663 H 451.422 -5.51887 0.111488 0
M  V30 4664 H 451.899 -4.2684 -1.03461 0
M  V30 4665 H 452.505 -4.20512 0.636395 0
M  V30 4666 N 450.82 -0.546701 -1.47814 0
M  V30 4667 C 452.045 -0.021268 -2.07389 0
M  V30 4668 C 452.47 1.25822 -1.39822 0
M  V30 4669 O 451.828 1.75111 -0.46968 0
M  V30 4670 C 451.876 0.168502 -3.60206 0
M  V30 4671 O 450.98 1.23347 -3.93522 0
M  V30 4672 H 450.321 -0.0466108 -0.662362 0
M  V30 4673 H 452.851 -0.759387 -1.89985 0
M  V30 4674 H 452.861 0.385982 -4.0617 0
M  V30 4675 H 451.536 -0.766075 -4.08784 0
M  V30 4676 H 450.113 0.997319 -3.59316 0
M  V30 4677 N 452.299 1.55045 -0.282633 0
M  V30 4678 C 453.576 1.9179 0.384166 0
M  V30 4679 C 453.956 1.20778 1.73136 0
M  V30 4680 O 453.304 0.33719 2.25998 0
M  V30 4681 C 453.514 3.45149 0.517014 0
M  V30 4682 C 454.862 4.17064 0.796427 0
M  V30 4683 O 455.886 3.51084 0.601535 0
M  V30 4684 O 454.745 5.33837 1.16962 0
M  V30 4685 H 451.839 0.799483 0.211558 0
M  V30 4686 H 454.385 1.66474 -0.32934 0
M  V30 4687 H 453.157 3.88922 -0.430772 0
M  V30 4688 H 452.78 3.76443 1.2797 0
M  V30 4689 N 453.777 0.010035 1.57597 0
M  V30 4690 C 454.707 -0.976857 2.12084 0
M  V30 4691 C 455.688 -1.35191 1.03235 0
M  V30 4692 O 456.873 -1.43389 1.3097 0
M  V30 4693 C 454.003 -2.26548 2.63236 0
M  V30 4694 C 452.957 -2.03175 3.76701 0
M  V30 4695 C 452.283 -3.38138 4.14206 0
M  V30 4696 C 453.583 -1.38625 5.03568 0
M  V30 4697 H 455.277 -0.523145 2.94794 0
M  V30 4698 H 452.823 -0.250195 1.4181 0
M  V30 4699 H 454.776 -2.95952 2.99984 0
M  V30 4700 H 453.5 -2.74051 1.77661 0
M  V30 4701 H 452.159 -1.36195 3.40362 0
M  V30 4702 H 451.807 -3.83363 3.25641 0
M  V30 4703 H 451.507 -3.23312 4.90656 0
M  V30 4704 H 453.031 -4.08841 4.53521 0
M  V30 4705 H 454.445 -1.98 5.38023 0
M  V30 4706 H 452.842 -1.34256 5.84889 0
M  V30 4707 H 453.912 -0.356722 4.83586 0
M  V30 4708 N 455.255 -1.55392 -0.262866 0
M  V30 4709 C 456.501 -1.76737 -0.99458 0
M  V30 4710 C 456.834 -0.572453 -1.85571 0
M  V30 4711 O 456.109 0.429732 -1.89693 0
M  V30 4712 C 456.392 -3.07824 -1.8686 0
M  V30 4713 C 456.245 -4.3769 -1.03672 0
M  V30 4714 C 457.564 -3.35021 -2.85393 0
M  V30 4715 H 454.683 -0.643005 -0.360157 0
M  V30 4716 H 457.325 -1.88126 -0.266216 0
M  V30 4717 H 455.475 -2.98245 -2.48962 0
M  V30 4718 H 457.147 -4.59238 -0.43563 0
M  V30 4719 H 455.39 -4.32461 -0.340513 0
M  V30 4720 H 456.061 -5.25759 -1.6817 0
M  V30 4721 H 458.537 -3.44458 -2.33426 0
M  V30 4722 H 457.413 -4.27989 -3.43681 0
M  V30 4723 H 457.674 -2.55153 -3.61039 0
M  V30 4724 N 456.733 0.527833 -1.48498 0
M  V30 4725 C 457.666 1.64892 -1.57753 0
M  V30 4726 C 458.644 1.5687 -0.427867 0
M  V30 4727 O 459.828 1.77311 -0.639764 0
M  V30 4728 C 456.955 3.03301 -1.50752 0
M  V30 4729 C 456.001 3.29675 -2.70586 0
M  V30 4730 S 456.834 3.15712 -4.32535 0
M  V30 4731 C 457.99 4.56564 -4.28136 0
M  V30 4732 H 458.223 1.56792 -2.52594 0
M  V30 4733 H 455.756 0.710959 -1.37057 0
M  V30 4734 H 457.714 3.83123 -1.474 0
M  V30 4735 H 456.375 3.08839 -0.572454 0
M  V30 4736 H 455.568 4.3065 -2.61833 0
M  V30 4737 H 455.17 2.57526 -2.71212 0
M  V30 4738 H 457.462 5.48126 -3.98201 0
M  V30 4739 H 458.405 4.70371 -5.29298 0
M  V30 4740 H 458.813 4.35987 -3.58574 0
M  V30 4741 N 458.211 1.37122 0.776871 0
M  V30 4742 C 459.459 1.31787 1.53221 0
M  V30 4743 C 459.78 -0.0987589 1.9475 0
M  V30 4744 O 459.05 -1.0417 1.65908 0
M  V30 4745 H 457.63 0.484839 0.568278 0
M  V30 4746 H 460.292 1.71556 0.924917 0
M  V30 4747 H 459.388 1.95355 2.43398 0
M  V30 4748 N 459.689 -1.00246 1.21608 0
M  V30 4749 C 460.619 -2.10921 1.00172 0
M  V30 4750 C 461.6 -1.69938 -0.0741587 0
M  V30 4751 O 462.785 -1.94009 0.0861753 0
M  V30 4752 C 459.915 -3.42618 0.568355 0
M  V30 4753 C 458.869 -3.97407 1.58909 0
M  V30 4754 C 458.195 -5.25038 1.01187 0
M  V30 4755 C 459.495 -4.2918 2.97661 0
M  V30 4756 H 461.189 -2.29112 1.92739 0
M  V30 4757 H 458.735 -1.10101 0.928102 0
M  V30 4758 H 460.688 -4.19444 0.405555 0
M  V30 4759 H 459.412 -3.24227 -0.392961 0
M  V30 4760 H 458.071 -3.22703 1.73949 0
M  V30 4761 H 457.719 -5.02982 0.0421965 0
M  V30 4762 H 457.419 -5.62661 1.6937 0
M  V30 4763 H 458.943 -6.04507 0.860448 0
M  V30 4764 H 460.357 -4.96839 2.86049 0
M  V30 4765 H 458.754 -4.77952 3.6288 0
M  V30 4766 H 459.824 -3.3735 3.48315 0
M  V30 4767 N 461.167 -1.02423 -1.1978 0
M  V30 4768 C 462.578 -0.748389 -1.71044 0
M  V30 4769 C 462.929 0.732398 -1.82017 0
M  V30 4770 O 462.054 1.57116 -1.48807 0
M  V30 4771 C 462.649 -1.35187 -3.1066 0
M  V30 4772 C 461.208 -1.12472 -3.59203 0
M  V30 4773 C 460.355 -1.45283 -2.36195 0
M  V30 4774 H 463.306 -1.19275 -1.04686 0
M  V30 4775 H 463.327 -0.746408 -3.73107 0
M  V30 4776 H 462.839 -2.4296 -3.02642 0
M  V30 4777 H 460.94 -0.0649983 -3.72543 0
M  V30 4778 H 461.053 -1.81016 -4.43588 0
M  V30 4779 H 459.417 -0.872034 -2.39307 0
M  V30 4780 H 460.2 -2.54129 -2.30811 0
M  V30 4781 N 462.645 1.35699 -0.801477 0
M  V30 4782 C 463.893 1.9852 -0.37871 0
M  V30 4783 C 464.214 1.63907 1.05638 0
M  V30 4784 O 463.484 0.919013 1.73006 0
M  V30 4785 H 462.064 0.734322 -0.137042 0
M  V30 4786 H 464.726 1.65697 -1.02619 0
M  V30 4787 H 463.822 3.08382 -0.480284 0
M  V30 4788 N 464.123 0.554532 1.47522 0
M  V30 4789 C 465.056 -0.242442 2.26908 0
M  V30 4790 C 466.034 -0.922722 1.33883 0
M  V30 4791 O 467.218 -0.942244 1.63261 0
M  V30 4792 C 464.345 -1.34525 3.10839 0
M  V30 4793 C 463.391 -0.773805 4.19422 0
M  V30 4794 S 464.224 0.377525 5.34168 0
M  V30 4795 C 465.38 -0.727164 6.21662 0
M  V30 4796 H 465.613 0.431218 2.94156 0
M  V30 4797 H 463.146 0.3408 1.50592 0
M  V30 4798 H 465.104 -1.97683 3.59766 0
M  V30 4799 H 463.765 -1.99073 2.42958 0
M  V30 4800 H 462.958 -1.60187 4.77866 0
M  V30 4801 H 462.56 -0.218448 3.73361 0
M  V30 4802 H 464.852 -1.61992 6.57849 0
M  V30 4803 H 465.795 -0.180135 7.07871 0
M  V30 4804 H 466.203 -1.01863 5.55233 0
M  V30 4805 N 465.601 -1.54893 0.290851 0
M  V30 4806 C 466.564 -2.21824 -0.576784 0
M  V30 4807 C 467.564 -1.20104 -1.06919 0
M  V30 4808 O 468.754 -1.44906 -0.966843 0
M  V30 4809 C 465.886 -2.89662 -1.79747 0
M  V30 4810 H 467.079 -2.99899 0.00784051 0
M  V30 4811 H 464.632 -1.56245 0.0415934 0
M  V30 4812 H 465.367 -2.15639 -2.42219 0
M  V30 4813 H 465.152 -3.64219 -1.45214 0
M  V30 4814 H 466.642 -3.4075 -2.4141 0
M  V30 4815 N 467.08 -0.0183926 -1.57589 0
M  V30 4816 C 468.012 0.995557 -2.06449 0
M  V30 4817 C 469.025 1.29556 -0.985849 0
M  V30 4818 O 470.214 1.2621 -1.26227 0
M  V30 4819 C 467.314 2.32572 -2.46502 0
M  V30 4820 C 466.487 2.21245 -3.77319 0
M  V30 4821 C 465.546 3.37104 -4.04039 0
M  V30 4822 O 464.572 3.14468 -4.74445 0
M  V30 4823 N 465.774 4.60553 -3.53372 0
M  V30 4824 H 468.539 0.578746 -2.94059 0
M  V30 4825 H 466.1 0.168603 -1.6102 0
M  V30 4826 H 468.092 3.08887 -2.61478 0
M  V30 4827 H 466.662 2.65931 -1.64315 0
M  V30 4828 H 465.882 1.29723 -3.72244 0
M  V30 4829 H 467.17 2.10868 -4.63047 0
M  V30 4830 H 466.568 4.81839 -2.96391 0
M  V30 4831 H 465.125 5.34072 -3.73644 0
M  V30 4832 N 468.558 1.5553 0.254621 0
M  V30 4833 C 469.491 1.84624 1.34124 0
M  V30 4834 C 470.469 0.700693 1.46728 0
M  V30 4835 O 471.653 0.94564 1.63064 0
M  V30 4836 C 468.78 2.02412 2.71564 0
M  V30 4837 C 467.826 3.25028 2.7615 0
M  V30 4838 S 468.659 4.81893 2.33538 0
M  V30 4839 C 469.815 5.02677 3.72917 0
M  V30 4840 H 470.048 2.76501 1.09245 0
M  V30 4841 H 467.581 1.47537 0.455211 0
M  V30 4842 H 469.539 2.13345 3.50705 0
M  V30 4843 H 468.2 1.11391 2.93685 0
M  V30 4844 H 467.393 3.34418 3.77069 0
M  V30 4845 H 466.995 3.12781 2.05046 0
M  V30 4846 H 469.287 4.89546 4.68349 0
M  V30 4847 H 470.23 6.0468 3.68467 0
M  V30 4848 H 470.638 4.30561 3.65072 0
M  V30 4849 N 470.036 -0.519951 1.48776 0
M  V30 4850 C 471.284 -1.2727 1.56993 0
M  V30 4851 C 471.605 -1.9339 0.25004 0
M  V30 4852 O 470.875 -1.81822 -0.729216 0
M  V30 4853 H 469.455 -0.472732 0.578389 0
M  V30 4854 H 472.117 -0.604234 1.85297 0
M  V30 4855 H 471.213 -2.04669 2.3562 0
M  V30 4856 N 471.514 -1.37532 -0.769588 0
M  V30 4857 C 472.742 -1.36059 -1.55871 0
M  V30 4858 C 473.157 0.053544 -1.88724 0
M  V30 4859 O 472.514 1.01591 -1.5161 0
M  V30 4860 C 472.565 -2.20107 -2.86767 0
M  V30 4861 O 472.286 -3.56009 -2.55321 0
M  V30 4862 C 473.787 -2.26636 -3.80987 0
M  V30 4863 H 471.007 -0.465967 -0.482821 0
M  V30 4864 H 473.551 -1.80901 -0.953686 0
M  V30 4865 H 471.706 -1.78768 -3.43687 0
M  V30 4866 H 472.12 -4.0009 -3.39158 0
M  V30 4867 H 473.594 -2.89763 -4.69831 0
M  V30 4868 H 474.071 -1.2754 -4.20274 0
M  V30 4869 H 474.677 -2.68296 -3.29996 0
M  V30 4870 N 472.992 0.995999 -1.22138 0
M  V30 4871 C 474.238 1.73767 -1.04561 0
M  V30 4872 C 474.571 1.89633 0.418698 0
M  V30 4873 O 473.846 1.43723 1.3105 0
M  V30 4874 C 474.129 3.14505 -1.75382 0
M  V30 4875 C 473.982 3.06306 -3.29388 0
M  V30 4876 C 475.301 4.13615 -1.50369 0
M  V30 4877 H 472.42 0.630728 -0.38125 0
M  V30 4878 H 475.062 1.16057 -1.50435 0
M  V30 4879 H 473.212 3.63775 -1.36383 0
M  V30 4880 H 474.884 2.64681 -3.77812 0
M  V30 4881 H 473.127 2.43186 -3.59226 0
M  V30 4882 H 473.798 4.05884 -3.74116 0
M  V30 4883 H 476.274 3.73089 -1.84239 0
M  V30 4884 H 475.15 5.10212 -2.02421 0
M  V30 4885 H 475.411 4.39949 -0.435611 0
M  V30 4886 N 474.47 1.03057 1.19235 0
M  V30 4887 C 475.4 0.633497 2.24742 0
M  V30 4888 C 476.381 -0.358335 1.66283 0
M  V30 4889 O 477.566 -0.240676 1.92703 0
M  V30 4890 C 474.696 -0.0147648 3.47297 0
M  V30 4891 C 473.65 0.899527 4.18441 0
M  V30 4892 C 472.976 0.116281 5.34574 0
M  V30 4893 C 474.276 2.21404 4.73051 0
M  V30 4894 H 475.97 1.5155 2.58211 0
M  V30 4895 H 473.516 0.73014 1.24117 0
M  V30 4896 H 475.469 -0.304202 4.20301 0
M  V30 4897 H 474.193 -0.931577 3.13032 0
M  V30 4898 H 472.852 1.17319 3.47321 0
M  V30 4899 H 472.5 -0.802619 4.96555 0
M  V30 4900 H 472.2 0.725293 5.83107 0
M  V30 4901 H 473.724 -0.166376 6.10373 0
M  V30 4902 H 475.138 1.98601 5.37802 0
M  V30 4903 H 473.535 2.77512 5.32078 0
M  V30 4904 H 474.605 2.86752 3.91026 0
M  V30 4905 N 475.948 -1.35272 0.808662 0
M  V30 4906 C 477.196 -1.98316 0.389233 0
M  V30 4907 C 477.517 -1.64465 -1.04767 0
M  V30 4908 O 476.787 -0.928175 -1.72516 0
M  V30 4909 H 475.367 -0.733585 0.140935 0
M  V30 4910 H 478.029 -1.6515 1.03496 0
M  V30 4911 H 477.125 -3.08123 0.496631 0
M  V30 4912 N 477.426 -0.562348 -1.47226 0
M  V30 4913 C 478.673 -0.0402165 -2.0246 0
M  V30 4914 C 479.001 1.31169 -1.43614 0
M  V30 4915 O 478.256 1.86805 -0.5833 0
M  V30 4916 C 478.555 0.0969817 -3.57268 0
M  V30 4917 C 478.221 -1.1847 -4.35058 0
M  V30 4918 C 476.883 -1.53588 -4.56031 0
M  V30 4919 C 479.235 -2.03378 -4.79882 0
M  V30 4920 C 476.563 -2.73452 -5.19077 0
M  V30 4921 C 478.915 -3.2245 -5.44251 0
M  V30 4922 C 477.579 -3.57876 -5.63455 0
M  V30 4923 H 476.849 -0.0147163 -0.740854 0
M  V30 4924 H 479.496 -0.734895 -1.76838 0
M  V30 4925 H 477.801 0.87466 -3.81912 0
M  V30 4926 H 479.498 0.516408 -3.97661 0
M  V30 4927 H 476.088 -0.90126 -4.19017 0
M  V30 4928 H 480.272 -1.77553 -4.63453 0
M  V30 4929 H 475.528 -3.01062 -5.32139 0
M  V30 4930 H 479.702 -3.88526 -5.77945 0
M  V30 4931 H 477.329 -4.50849 -6.12078 0
M  V30 4932 N 478.904 1.54736 -0.299062 0
M  V30 4933 C 479.834 2.26409 0.571085 0
M  V30 4934 C 480.815 1.2629 1.13951 0
M  V30 4935 O 482 1.55059 1.16921 0
M  V30 4936 C 479.13 3.00338 1.74396 0
M  V30 4937 C 478.084 4.07588 1.30599 0
M  V30 4938 C 477.41 4.69222 2.56387 0
M  V30 4939 C 478.71 5.20455 0.438645 0
M  V30 4940 H 480.404 2.99388 -0.0266991 0
M  V30 4941 H 477.95 1.43993 -0.0142812 0
M  V30 4942 H 479.903 3.49198 2.35878 0
M  V30 4943 H 478.627 2.24934 2.36796 0
M  V30 4944 H 477.286 3.59575 0.71424 0
M  V30 4945 H 476.934 3.9046 3.17097 0
M  V30 4946 H 476.634 5.41653 2.27784 0
M  V30 4947 H 478.158 5.20844 3.18675 0
M  V30 4948 H 479.572 5.65221 0.959085 0
M  V30 4949 H 477.969 5.99594 0.246466 0
M  V30 4950 H 479.039 4.8192 -0.536738 0
M  V30 4951 N 480.382 0.0267497 1.57577 0
M  V30 4952 C 481.314 -0.984594 2.06974 0
M  V30 4953 C 482.327 -1.29032 0.992705 0
M  V30 4954 O 483.516 -1.25539 1.26895 0
M  V30 4955 C 480.616 -2.31262 2.47732 0
M  V30 4956 C 479.789 -2.1924 3.78487 0
M  V30 4957 C 478.848 -3.34956 4.05821 0
M  V30 4958 O 477.874 -3.11948 4.76106 0
M  V30 4959 N 479.076 -4.58672 3.55809 0
M  V30 4960 H 481.841 -0.563143 2.94362 0
M  V30 4961 H 479.402 -0.160061 1.61107 0
M  V30 4962 H 481.394 -3.07496 2.63112 0
M  V30 4963 H 479.964 -2.65056 1.65723 0
M  V30 4964 H 479.184 -1.27747 3.72927 0
M  V30 4965 H 480.472 -2.08409 4.64158 0
M  V30 4966 H 479.87 -4.8026 2.98942 0
M  V30 4967 H 478.427 -5.32083 3.76472 0
M  V30 4968 N 481.861 -1.55662 -0.24637 0
M  V30 4969 C 483.277 -1.48098 -0.594907 0
M  V30 4970 C 483.477 -0.717044 -1.8831 0
M  V30 4971 O 482.533 -0.246618 -2.51293 0
M  V30 4972 C 483.846 -2.92507 -0.697146 0
M  V30 4973 C 485.394 -3.02881 -0.789436 0
M  V30 4974 C 485.869 -4.48598 -0.923232 0
M  V30 4975 N 487.36 -4.52538 -0.988088 0
M  V30 4976 C 488.095 -5.62536 -1.11089 0
M  V30 4977 N 487.591 -6.82342 -1.19919 0
M  V30 4978 N 489.384 -5.50334 -1.14408 0
M  V30 4979 H 481.535 -2.0377 0.599278 0
M  V30 4980 H 483.798 -0.925145 0.20691 0
M  V30 4981 H 483.504 -3.51242 0.179396 0
M  V30 4982 H 483.378 -3.43024 -1.5689 0
M  V30 4983 H 485.765 -2.44226 -1.65643 0
M  V30 4984 H 485.846 -2.55574 0.107482 0
M  V30 4985 H 485.49 -5.07864 -0.0607927 0
M  V30 4986 H 485.42 -4.93587 -1.8352 0
M  V30 4987 H 487.911 -3.66248 -0.931167 0
M  V30 4988 H 488.224 -7.61924 -1.29197 0
M  V30 4989 H 486.569 -6.85102 -1.16876 0
M  V30 4990 H 489.76 -4.5567 -1.07158 0
M  V30 4991 H 489.933 -6.36096 -1.23634 0
M  V30 4992 N 483.339 0.512053 -1.4905 0
M  V30 4993 C 484.587 1.26436 -1.57665 0
M  V30 4994 C 484.908 1.93255 -0.260293 0
M  V30 4995 O 484.178 1.82206 0.719564 0
M  V30 4996 H 482.758 0.469658 -0.580888 0
M  V30 4997 H 485.42 0.594398 -1.85615 0
M  V30 4998 H 484.516 2.03417 -2.36702 0
M  V30 4999 N 484.817 1.37938 0.762283 0
M  V30 5000 C 485.78 1.34279 1.85747 0
M  V30 5001 C 486.78 0.244969 1.58923 0
M  V30 5002 O 487.97 0.501365 1.66829 0
M  V30 5003 C 485.102 1.08833 3.23061 0
M  V30 5004 H 486.295 2.31705 1.90401 0
M  V30 5005 H 483.848 1.23105 0.963057 0
M  V30 5006 H 484.583 0.119767 3.24079 0
M  V30 5007 H 484.368 1.88306 3.43923 0
M  V30 5008 H 485.858 1.08946 4.03138 0
M  V30 5009 N 486.295 -0.989507 1.22664 0
M  V30 5010 C 487.227 -2.0824 0.957542 0
M  V30 5011 C 488.24 -1.6267 -0.0651098 0
M  V30 5012 O 489.429 -1.77695 0.169312 0
M  V30 5013 C 486.529 -3.36298 0.419145 0
M  V30 5014 C 485.702 -4.10882 1.49982 0
M  V30 5015 C 484.761 -5.17221 0.967904 0
M  V30 5016 O 483.787 -5.44613 1.65487 0
M  V30 5017 N 484.989 -5.80124 -0.20896 0
M  V30 5018 H 487.754 -2.31904 1.89843 0
M  V30 5019 H 485.315 -1.15552 1.13399 0
M  V30 5020 H 487.307 -4.04671 0.0485451 0
M  V30 5021 H 485.877 -3.09671 -0.426937 0
M  V30 5022 H 485.097 -3.37092 2.04359 0
M  V30 5023 H 486.385 -4.57482 2.22682 0
M  V30 5024 H 485.783 -5.60244 -0.783818 0
M  V30 5025 H 484.34 -6.49715 -0.520913 0
M  V30 5026 N 487.773 -1.03688 -1.18687 0
M  V30 5027 C 488.703 -0.645407 -2.24403 0
M  V30 5028 C 489.684 0.349511 -1.66471 0
M  V30 5029 O 490.869 0.230453 -1.92828 0
M  V30 5030 C 487.999 -0.00365337 -3.473 0
M  V30 5031 C 486.953 -0.921705 -4.17958 0
M  V30 5032 C 486.279 -0.144629 -5.34504 0
M  V30 5033 C 487.579 -2.23909 -4.71871 0
M  V30 5034 H 489.273 -1.52917 -2.57404 0
M  V30 5035 H 486.819 -0.736711 -1.23728 0
M  V30 5036 H 488.772 0.281908 -4.20456 0
M  V30 5037 H 487.496 0.914963 -3.13522 0
M  V30 5038 H 486.155 -1.19159 -3.46694 0
M  V30 5039 H 485.803 0.776274 -4.96974 0
M  V30 5040 H 485.503 -0.756206 -5.82714 0
M  V30 5041 H 487.027 0.134004 -6.10453 0
M  V30 5042 H 488.441 -2.0145 -5.36741 0
M  V30 5043 H 486.838 -2.8033 -5.30599 0
M  V30 5044 H 487.908 -2.88822 -3.895 0
M  V30 5045 N 489.251 1.34841 -0.815825 0
M  V30 5046 C 490.201 2.27075 -0.205169 0
M  V30 5047 C 491.185 1.48205 0.626414 0
M  V30 5048 O 492.377 1.70306 0.482157 0
M  V30 5049 C 489.506 3.37322 0.637871 0
M  V30 5050 C 488.592 4.23609 -0.203948 0
M  V30 5051 N 488.983 4.89558 -1.27149 0
M  V30 5052 C 487.281 4.45998 0.0128971 0
M  V30 5053 C 487.982 5.53597 -1.7862 0
M  V30 5054 N 486.958 5.32535 -1.0912 0
M  V30 5055 H 490.76 2.75563 -1.02187 0
M  V30 5056 H 488.274 1.48477 -0.657912 0
M  V30 5057 H 490.271 4.02359 1.09146 0
M  V30 5058 H 488.931 2.90385 1.45281 0
M  V30 5059 H 489.942 4.9077 -1.65423 0
M  V30 5060 H 486.619 4.09837 0.79624 0
M  V30 5061 H 488.009 6.16184 -2.67892 0
M  V30 5062 N 490.729 0.570148 1.46925 0
M  V30 5063 C 491.639 -0.173061 2.33961 0
M  V30 5064 C 492.655 -0.898825 1.48987 0
M  V30 5065 O 493.831 -0.864825 1.81887 0
M  V30 5066 C 490.896 -1.18177 3.25937 0
M  V30 5067 C 489.957 -0.462041 4.26806 0
M  V30 5068 C 489.19 -1.4227 5.14388 0
M  V30 5069 O 489.413 -2.65842 5.04662 0
M  V30 5070 O 488.347 -0.940127 5.94513 0
M  V30 5071 H 492.173 0.541216 2.98839 0
M  V30 5072 H 489.758 0.330647 1.45695 0
M  V30 5073 H 491.64 -1.76372 3.82715 0
M  V30 5074 H 490.315 -1.87774 2.63671 0
M  V30 5075 H 489.222 0.161429 3.73752 0
M  V30 5076 H 490.555 0.192719 4.91823 0
M  V30 5077 N 492.207 -1.54576 0.307264 0
M  V30 5078 C 493.454 -2.00263 -0.300167 0
M  V30 5079 C 493.782 -1.19561 -1.53413 0
M  V30 5080 O 493.037 -0.261487 -1.93945 0
M  V30 5081 C 493.336 -3.50572 -0.695253 0
M  V30 5082 C 493.002 -4.48771 0.437679 0
M  V30 5083 C 491.664 -4.7534 0.748681 0
M  V30 5084 C 494.016 -5.0721 1.19949 0
M  V30 5085 C 491.344 -5.5761 1.8245 0
M  V30 5086 C 493.696 -5.90651 2.26527 0
M  V30 5087 C 492.36 -6.15528 2.58227 0
M  V30 5088 H 491.63 -0.732814 -0.109839 0
M  V30 5089 H 494.277 -1.86664 0.427661 0
M  V30 5090 H 492.582 -3.61814 -1.50326 0
M  V30 5091 H 494.279 -3.83352 -1.17653 0
M  V30 5092 H 490.869 -4.282 0.185187 0
M  V30 5093 H 495.053 -4.86679 0.972474 0
M  V30 5094 H 490.309 -5.75121 2.07476 0
M  V30 5095 H 494.483 -6.34957 2.86011 0
M  V30 5096 H 492.11 -6.79066 3.4172 0
M  V30 5097 N 493.685 -0.035106 -1.57561 0
M  V30 5098 C 495.096 0.502885 -1.798 0
M  V30 5099 C 495.447 1.71892 -0.945921 0
M  V30 5100 O 494.572 2.15822 -0.157991 0
M  V30 5101 C 495.167 0.919097 -3.26095 0
M  V30 5102 C 493.726 1.40216 -3.49308 0
M  V30 5103 C 492.873 0.369709 -2.74824 0
M  V30 5104 H 495.824 -0.261102 -1.56537 0
M  V30 5105 H 495.845 1.78308 -3.36135 0
M  V30 5106 H 495.357 0.0338526 -3.88085 0
M  V30 5107 H 493.458 2.30714 -2.92578 0
M  V30 5108 H 493.571 1.40541 -4.58023 0
M  V30 5109 H 491.935 0.839113 -2.40481 0
M  V30 5110 H 492.718 -0.507173 -3.39533 0
M  V30 5111 N 495.163 1.55791 0.238111 0
M  V30 5112 C 496.095 1.87513 1.31802 0
M  V30 5113 C 497.108 0.762053 1.43863 0
M  V30 5114 O 498.297 1.04024 1.45056 0
M  V30 5115 C 495.397 2.05402 2.69561 0
M  V30 5116 C 494.57 3.3632 2.79656 0
M  V30 5117 C 493.629 3.43844 3.98319 0
M  V30 5118 O 492.655 4.16994 3.87433 0
M  V30 5119 N 493.857 2.73777 5.11885 0
M  V30 5120 H 496.622 2.80734 1.04922 0
M  V30 5121 H 494.183 1.56135 0.428196 0
M  V30 5122 H 496.175 2.07769 3.47296 0
M  V30 5123 H 494.745 1.18884 2.89111 0
M  V30 5124 H 493.965 3.46195 1.88528 0
M  V30 5125 H 495.253 4.22594 2.83358 0
M  V30 5126 H 494.651 2.14094 5.23622 0
M  V30 5127 H 493.208 2.81825 5.87723 0
M  V30 5128 N 496.642 -0.504142 1.49319 0
M  V30 5129 C 497.872 -1.28071 1.62116 0
M  V30 5130 C 498.28 -1.86955 0.290566 0
M  V30 5131 O 497.623 -1.68415 -0.733616 0
M  V30 5132 C 497.685 -2.4521 2.62893 0
M  V30 5133 C 497.349 -2.07218 4.0732 0
M  V30 5134 C 498.346 -1.61375 4.94221 0
M  V30 5135 C 496.031 -2.16949 4.53033 0
M  V30 5136 C 498.025 -1.25763 6.2487 0
M  V30 5137 C 495.712 -1.80949 5.83696 0
M  V30 5138 C 496.71 -1.3543 6.69438 0
M  V30 5139 O 496.398 -0.99915 7.97667 0
M  V30 5140 H 496.13 -0.394763 0.54876 0
M  V30 5141 H 498.684 -0.612118 1.96067 0
M  V30 5142 H 496.914 -3.15134 2.24115 0
M  V30 5143 H 498.603 -3.0724 2.65252 0
M  V30 5144 H 499.369 -1.53306 4.60133 0
M  V30 5145 H 495.248 -2.5133 3.86463 0
M  V30 5146 H 498.792 -0.901631 6.91749 0
M  V30 5147 H 494.689 -1.88667 6.17313 0
M  V30 5148 H 495.457 -1.13089 8.1065 0
M  V30 5149 N 498.12 -1.38341 -0.754957 0
M  V30 5150 C 499.366 -1.34672 -1.51628 0
M  V30 5151 C 499.699 0.0636036 -1.94096 0
M  V30 5152 O 498.974 1.0245 -1.6533 0
M  V30 5153 C 499.257 -2.30116 -2.76981 0
M  V30 5154 C 499.11 -3.80003 -2.4066 0
M  V30 5155 C 500.429 -2.23715 -3.78998 0
M  V30 5156 H 497.548 -0.490517 -0.550056 0
M  V30 5157 H 500.19 -1.69178 -0.864807 0
M  V30 5158 H 498.34 -2.00821 -3.3257 0
M  V30 5159 H 500.012 -4.19966 -1.90856 0
M  V30 5160 H 498.255 -3.97751 -1.73137 0
M  V30 5161 H 498.926 -4.42244 -3.30339 0
M  V30 5162 H 501.402 -2.49574 -3.32945 0
M  V30 5163 H 500.278 -2.9261 -4.64403 0
M  V30 5164 H 500.539 -1.23554 -4.24484 0
M  V30 5165 N 499.598 0.982988 -1.23187 0
M  V30 5166 C 500.545 2.07491 -1.01075 0
M  V30 5167 C 501.515 1.65949 0.070905 0
M  V30 5168 O 502.7 1.90629 -0.0806822 0
M  V30 5169 C 499.84 3.39751 -0.605261 0
M  V30 5170 C 498.953 3.94578 -1.75876 0
M  V30 5171 C 498.088 5.15039 -1.3003 0
M  V30 5172 C 497.127 5.62027 -2.42472 0
M  V30 5173 N 496.264 6.73719 -1.97602 0
M  V30 5174 H 501.104 2.25739 -1.9454 0
M  V30 5175 H 498.641 1.10659 -0.969179 0
M  V30 5176 H 500.599 4.15719 -0.351279 0
M  V30 5177 H 499.229 3.21473 0.292382 0
M  V30 5178 H 498.281 3.1539 -2.12681 0
M  V30 5179 H 499.593 4.25422 -2.60418 0
M  V30 5180 H 498.747 5.9833 -1.00429 0
M  V30 5181 H 497.486 4.85843 -0.425216 0
M  V30 5182 H 496.491 4.77318 -2.7285 0
M  V30 5183 H 497.716 5.93244 -3.30512 0
M  V30 5184 H 495.662 6.46287 -1.1247 0
M  V30 5185 H 495.579 7.03934 -2.75705 0
M  V30 5186 H 496.847 7.6049 -1.71098 0
M  V30 5187 N 501.076 1.04316 1.18135 0
M  V30 5188 C 502.304 0.768117 1.92113 0
M  V30 5189 C 502.719 -0.675057 1.76319 0
M  V30 5190 O 502.076 -1.46038 1.09449 0
M  V30 5191 C 502.127 1.12808 3.43448 0
M  V30 5192 O 501.848 2.5146 3.58747 0
M  V30 5193 C 503.349 0.8779 4.3452 0
M  V30 5194 H 500.569 0.279937 0.609817 0
M  V30 5195 H 503.113 1.39149 1.49859 0
M  V30 5196 H 501.268 0.549623 3.83481 0
M  V30 5197 H 501.682 2.65313 4.52448 0
M  V30 5198 H 503.156 1.17959 5.39249 0
M  V30 5199 H 503.633 -0.187239 4.38801 0
M  V30 5200 H 504.239 1.43977 4.00188 0
M  V30 5201 N 502.554 -1.34406 0.822964 0
M  V30 5202 C 503.504 -2.26963 0.217208 0
M  V30 5203 C 504.488 -1.48536 -0.618545 0
M  V30 5204 O 505.68 -1.7056 -0.473118 0
M  V30 5205 C 502.809 -3.37655 -0.619973 0
M  V30 5206 C 501.895 -4.23495 0.226411 0
M  V30 5207 N 502.286 -4.88876 1.29744 0
M  V30 5208 C 500.584 -4.45999 0.0107554 0
M  V30 5209 C 501.285 -5.52642 1.81553 0
M  V30 5210 N 500.261 -5.31949 1.11942 0
M  V30 5211 H 504.063 -2.75017 1.03647 0
M  V30 5212 H 501.577 -1.48126 0.665777 0
M  V30 5213 H 503.574 -4.02932 -1.07011 0
M  V30 5214 H 502.234 -2.91151 -1.43739 0
M  V30 5215 H 503.245 -4.89886 1.68024 0
M  V30 5216 H 499.922 -4.10253 -0.774495 0
M  V30 5217 H 501.312 -6.14755 2.71156 0
M  V30 5218 N 504.032 -0.577932 -1.46621 0
M  V30 5219 C 504.962 0.145917 -2.33044 0
M  V30 5220 C 505.943 0.888412 -1.45056 0
M  V30 5221 O 507.128 0.864812 -1.73881 0
M  V30 5222 C 504.258 1.16322 -3.27241 0
M  V30 5223 C 503.212 0.535868 -4.24632 0
M  V30 5224 C 502.538 1.65929 -5.08303 0
M  V30 5225 C 503.838 -0.523861 -5.19666 0
M  V30 5226 H 505.532 -0.575636 -2.93814 0
M  V30 5227 H 503.078 -0.278272 -1.41286 0
M  V30 5228 H 505.031 1.67793 -3.86553 0
M  V30 5229 H 503.755 1.91498 -2.64567 0
M  V30 5230 H 502.414 0.0422759 -3.66576 0
M  V30 5231 H 502.062 2.40061 -4.42018 0
M  V30 5232 H 501.762 1.2452 -5.74255 0
M  V30 5233 H 503.286 2.17686 -5.70478 0
M  V30 5234 H 504.7 -0.0944059 -5.73222 0
M  V30 5235 H 503.097 -0.858 -5.93935 0
M  V30 5236 H 504.167 -1.41197 -4.63887 0
M  V30 5237 N 505.51 1.54411 -0.315457 0
M  V30 5238 C 506.473 2.22713 0.54142 0
M  V30 5239 C 507.473 1.2179 1.04995 0
M  V30 5240 O 508.663 1.46426 0.943667 0
M  V30 5241 C 505.795 2.92485 1.75116 0
M  V30 5242 H 506.988 2.99849 -0.0555508 0
M  V30 5243 H 504.541 1.56159 -0.0664453 0
M  V30 5244 H 505.276 2.19466 2.38758 0
M  V30 5245 H 505.061 3.66483 1.39401 0
M  V30 5246 H 506.551 3.44548 2.35959 0
M  V30 5247 N 506.988 0.0434614 1.5754 0
M  V30 5248 C 507.918 -0.931651 2.14109 0
M  V30 5249 C 508.899 -1.32971 1.06079 0
M  V30 5250 O 510.084 -1.40579 1.33982 0
M  V30 5251 C 507.214 -2.20914 2.67982 0
M  V30 5252 C 506.168 -1.95139 3.80926 0
M  V30 5253 C 505.494 -3.29276 4.21285 0
M  V30 5254 C 506.794 -1.27913 5.06395 0
M  V30 5255 H 508.488 -0.460497 2.95837 0
M  V30 5256 H 506.034 -0.220058 1.42309 0
M  V30 5257 H 507.987 -2.89522 3.06194 0
M  V30 5258 H 506.711 -2.70221 1.83434 0
M  V30 5259 H 505.37 -1.28945 3.43175 0
M  V30 5260 H 505.018 -3.76369 3.33699 0
M  V30 5261 H 504.718 -3.12831 4.97404 0
M  V30 5262 H 506.242 -3.99129 4.62091 0
M  V30 5263 H 507.656 -1.86544 5.42102 0
M  V30 5264 H 506.053 -1.2182 5.87605 0
M  V30 5265 H 507.123 -0.254066 4.84234 0
M  V30 5266 N 508.466 -1.55915 -0.229846 0
M  V30 5267 C 509.429 -1.90914 -1.26824 0
M  V30 5268 C 510.429 -0.786999 -1.40225 0
M  V30 5269 O 511.619 -1.05484 -1.38632 0
M  V30 5270 C 508.751 -2.15264 -2.64337 0
M  V30 5271 H 509.944 -2.8378 -0.969998 0
M  V30 5272 H 507.497 -1.49069 -0.4699 0
M  V30 5273 H 508.232 -1.24923 -2.99274 0
M  V30 5274 H 508.017 -2.97005 -2.55989 0
M  V30 5275 H 509.507 -2.43467 -3.39284 0
M  V30 5276 N 509.944 0.496216 -1.49584 0
M  V30 5277 C 511.172 1.27394 -1.63029 0
M  V30 5278 C 511.587 1.86344 -0.303569 0
M  V30 5279 O 510.944 1.68057 0.711547 0
M  V30 5280 C 510.995 2.40077 -2.70269 0
M  V30 5281 O 510.716 1.83549 -3.97796 0
M  V30 5282 C 512.217 3.31372 -2.94462 0
M  V30 5283 H 509.437 0.386211 -0.54871 0
M  V30 5284 H 511.981 0.595163 -1.95648 0
M  V30 5285 H 510.136 3.03775 -2.40415 0
M  V30 5286 H 510.55 2.57561 -4.56905 0
M  V30 5287 H 512.024 4.06707 -3.73221 0
M  V30 5288 H 512.501 3.88654 -2.0456 0
M  V30 5289 H 513.107 2.73435 -3.25751 0
M  V30 5290 N 511.423 1.38739 0.74761 0
M  V30 5291 C 512.7 1.25791 1.49786 0
M  V30 5292 C 513.08 -0.138075 2.10648 0
M  V30 5293 O 512.428 -1.14815 1.9756 0
M  V30 5294 C 512.638 2.37265 2.55942 0
M  V30 5295 C 513.986 2.75978 3.22679 0
M  V30 5296 O 515.01 2.36621 2.6625 0
M  V30 5297 O 513.869 3.43867 4.24756 0
M  V30 5298 H 510.963 0.492251 0.664543 0
M  V30 5299 H 513.509 1.50582 0.782511 0
M  V30 5300 H 512.281 3.30644 2.0926 0
M  V30 5301 H 511.904 2.14071 3.35051 0
M  V30 5302 N 512.901 -0.976442 1.23707 0
M  V30 5303 C 514.312 -1.53284 1.06587 0
M  V30 5304 C 514.663 -1.92765 -0.365526 0
M  V30 5305 O 513.788 -1.7645 -1.25277 0
M  V30 5306 C 514.383 -2.78548 1.92864 0
M  V30 5307 C 512.942 -3.30574 1.79994 0
M  V30 5308 C 512.089 -2.03538 1.88328 0
M  V30 5309 H 515.04 -0.795692 1.37311 0
M  V30 5310 H 515.061 -3.5155 1.45577 0
M  V30 5311 H 514.573 -2.49782 2.97037 0
M  V30 5312 H 512.674 -3.64211 0.786202 0
M  V30 5313 H 512.787 -4.00065 2.636 0
M  V30 5314 H 511.151 -2.17853 1.31954 0
M  V30 5315 H 511.934 -1.77149 2.94063 0
M  V30 5316 N 514.379 -1.04941 -1.1758 0
M  V30 5317 C 515.342 -0.652456 -2.19717 0
M  V30 5318 C 516.342 0.294745 -1.58076 0
M  V30 5319 O 517.532 0.0789579 -1.74021 0
M  V30 5320 C 514.664 0.0420712 -3.40874 0
M  V30 5321 H 515.857 -1.55642 -2.5635 0
M  V30 5322 H 513.41 -0.842995 -1.31618 0
M  V30 5323 H 514.145 0.95943 -3.09783 0
M  V30 5324 H 513.93 -0.638844 -3.86861 0
M  V30 5325 H 515.42 0.306 -4.16477 0
M  V30 5326 N 515.857 1.33968 -0.830081 0
M  V30 5327 C 517.104 1.98063 -0.421566 0
M  V30 5328 C 517.432 1.65787 1.0171 0
M  V30 5329 O 516.687 0.925348 1.72441 0
M  V30 5330 C 516.986 3.52679 -0.57898 0
M  V30 5331 C 516.652 4.04884 -1.98443 0
M  V30 5332 C 515.314 4.18852 -2.36888 0
M  V30 5333 C 517.666 4.32879 -2.90285 0
M  V30 5334 C 514.994 4.58145 -3.66497 0
M  V30 5335 C 517.346 4.7362 -4.19364 0
M  V30 5336 C 516.01 4.85794 -4.57778 0
M  V30 5337 H 515.28 0.724765 -0.154262 0
M  V30 5338 H 517.927 1.59792 -1.05541 0
M  V30 5339 H 516.232 3.91556 0.138219 0
M  V30 5340 H 517.929 4.00261 -0.243317 0
M  V30 5341 H 514.519 3.9448 -1.67581 0
M  V30 5342 H 518.703 4.21619 -2.61823 0
M  V30 5343 H 513.959 4.65762 -3.96075 0
M  V30 5344 H 518.133 4.9424 -4.90612 0
M  V30 5345 H 515.76 5.15998 -5.58256 0
M  V30 5346 N 517.335 0.585699 1.46312 0
M  V30 5347 C 518.575 0.0751432 2.04262 0
M  V30 5348 C 518.939 -1.26201 1.44697 0
M  V30 5349 O 520.14 -1.86198 1.93865 0
M  V30 5350 C 518.411 0.013478 3.57397 0
M  V30 5351 S 519.97 -0.439068 4.36598 0
M  V30 5352 H 516.788 0.0389228 0.709934 0
M  V30 5353 H 519.39 0.778871 1.79315 0
M  V30 5354 H 518.094 0.990558 3.98266 0
M  V30 5355 H 517.625 -0.712927 3.86886 0
M  V30 5356 H 519.64 -1.6932 4.66417 0
M  V30 5357 N 518.813 -1.54241 0.323641 0
M  V30 5358 C 520.038 -2.05452 -0.283605 0
M  V30 5359 C 520.463 -1.19823 -1.44997 0
M  V30 5360 O 519.821 -0.207358 -1.8011 0
M  V30 5361 C 519.869 -3.53823 -0.695795 0
M  V30 5362 O 518.973 -3.71134 -1.79815 0
M  V30 5363 H 518.314 -0.662024 -0.0511917 0
M  V30 5364 H 520.844 -1.99079 0.472073 0
M  V30 5365 H 520.854 -3.96094 -0.978434 0
M  V30 5366 H 519.529 -4.15602 0.157287 0
M  V30 5367 H 518.106 -3.40768 -1.51431 0
M  V30 5368 N 520.291 -0.0518155 -1.57515 0
M  V30 5369 C 521.254 0.907547 -2.10467 0
M  V30 5370 C 522.254 1.23947 -1.02439 0
M  V30 5371 O 523.444 1.17604 -1.2851 0
M  V30 5372 C 520.576 2.21723 -2.58944 0
M  V30 5373 H 521.769 0.44851 -2.96527 0
M  V30 5374 H 519.322 0.196598 -1.55059 0
M  V30 5375 H 520.057 2.72206 -1.76279 0
M  V30 5376 H 519.842 1.98935 -3.37886 0
M  V30 5377 H 521.332 2.90441 -3.00056 0
M  V30 5378 N 521.769 1.56035 0.221574 0
M  V30 5379 C 522.699 1.95434 1.2778 0
M  V30 5380 C 523.68 0.822564 1.48889 0
M  V30 5381 O 524.865 1.08486 1.61072 0
M  V30 5382 C 521.995 2.27102 2.62759 0
M  V30 5383 C 520.949 3.4277 2.56306 0
M  V30 5384 C 520.275 3.60043 3.95314 0
M  V30 5385 C 521.575 4.77742 2.11093 0
M  V30 5386 H 523.269 2.83912 0.950504 0
M  V30 5387 H 520.815 1.36596 0.455791 0
M  V30 5388 H 522.768 2.53256 3.36807 0
M  V30 5389 H 521.492 1.35478 2.97176 0
M  V30 5390 H 520.151 3.16664 1.84715 0
M  V30 5391 H 519.799 2.65794 4.27039 0
M  V30 5392 H 519.499 4.37841 3.91879 0
M  V30 5393 H 521.023 3.88545 4.71025 0
M  V30 5394 H 522.437 5.03102 2.74885 0
M  V30 5395 H 520.834 5.58823 2.18716 0
M  V30 5396 H 521.904 4.731 1.06321 0
M  V30 5397 N 523.247 -0.488276 1.49845 0
M  V30 5398 C 524.495 -1.23911 1.59657 0
M  V30 5399 C 524.816 -1.92816 0.291005 0
M  V30 5400 O 524.086 -1.83328 -0.690485 0
M  V30 5401 H 522.666 -0.460357 0.588286 0
M  V30 5402 H 525.328 -0.564794 1.86537 0
M  V30 5403 H 524.424 -1.99625 2.39909 0
M  V30 5404 N 524.725 -1.39134 -0.740242 0
M  V30 5405 C 525.635 -1.39697 -1.88473 0
M  V30 5406 C 526.651 -0.292403 -1.71526 0
M  V30 5407 O 527.827 -0.533021 -1.94219 0
M  V30 5408 C 524.892 -1.23382 -3.24003 0
M  V30 5409 C 523.953 -2.43763 -3.53381 0
M  V30 5410 C 523.186 -2.28216 -4.82445 0
M  V30 5411 O 523.409 -1.28288 -5.55786 0
M  V30 5412 O 522.343 -3.1709 -5.11603 0
M  V30 5413 H 526.169 -2.36159 -1.90952 0
M  V30 5414 H 523.754 -1.20194 -0.887346 0
M  V30 5415 H 525.636 -1.16395 -4.05006 0
M  V30 5416 H 524.311 -0.300121 -3.22306 0
M  V30 5417 H 523.218 -2.56325 -2.72485 0
M  V30 5418 H 524.551 -3.35808 -3.59852 0
M  V30 5419 N 526.204 0.969867 -1.24223 0
M  V30 5420 C 527.62 1.23809 -1.00716 0
M  V30 5421 C 527.82 1.99469 0.285358 0
M  V30 5422 O 526.876 2.31764 1.00207 0
M  V30 5423 C 528.189 2.02734 -2.2208 0
M  V30 5424 C 529.737 2.15834 -2.26681 0
M  V30 5425 C 530.212 2.98154 -3.47661 0
M  V30 5426 N 531.703 3.05737 -3.47964 0
M  V30 5427 C 532.438 3.69785 -4.38231 0
M  V30 5428 N 531.934 4.35569 -5.3875 0
M  V30 5429 N 533.727 3.66775 -4.25949 0
M  V30 5430 H 525.878 0.463294 -2.07286 0
M  V30 5431 H 528.141 0.267348 -0.909521 0
M  V30 5432 H 527.847 1.54524 -3.15935 0
M  V30 5433 H 527.721 3.0347 -2.24021 0
M  V30 5434 H 530.108 2.63248 -1.33359 0
M  V30 5435 H 530.189 1.14453 -2.28767 0
M  V30 5436 H 529.833 2.51435 -4.41297 0
M  V30 5437 H 529.763 3.99729 -3.42818 0
M  V30 5438 H 532.254 2.58941 -2.75242 0
M  V30 5439 H 532.567 4.82251 -6.03866 0
M  V30 5440 H 530.912 4.34244 -5.42639 0
M  V30 5441 H 534.103 3.14558 -3.46657 0
M  V30 5442 H 534.276 4.16407 -4.96497 0
M  V30 5443 N 527.682 1.05563 1.17022 0
M  V30 5444 C 528.592 0.670758 2.24807 0
M  V30 5445 C 529.608 -0.309865 1.71219 0
M  V30 5446 O 530.784 -0.161025 2.00755 0
M  V30 5447 C 527.849 0.055337 3.46656 0
M  V30 5448 C 526.91 1.08688 4.15314 0
M  V30 5449 C 526.143 0.500736 5.31346 0
M  V30 5450 O 526.366 -0.688718 5.66227 0
M  V30 5451 O 525.3 1.23683 5.89055 0
M  V30 5452 H 529.126 1.56914 2.60023 0
M  V30 5453 H 526.711 0.827428 1.24395 0
M  V30 5454 H 528.593 -0.286492 4.20425 0
M  V30 5455 H 527.268 -0.816638 3.13229 0
M  V30 5456 H 526.175 1.48077 3.43546 0
M  V30 5457 H 527.508 1.93014 4.52777 0
M  V30 5458 N 529.16 -1.33526 0.837174 0
M  V30 5459 C 530.092 -2.28077 0.226579 0
M  V30 5460 C 531.105 -1.51666 -0.591717 0
M  V30 5461 O 532.294 -1.73511 -0.419064 0
M  V30 5462 C 529.394 -3.31597 -0.69978 0
M  V30 5463 C 528.567 -4.37329 0.0788067 0
M  V30 5464 C 527.626 -5.20526 -0.770637 0
M  V30 5465 O 526.652 -5.68811 -0.210453 0
M  V30 5466 N 527.854 -5.41639 -2.08825 0
M  V30 5467 H 530.619 -2.81115 1.03897 0
M  V30 5468 H 528.18 -1.46201 0.695476 0
M  V30 5469 H 530.172 -3.84158 -1.27298 0
M  V30 5470 H 528.742 -2.78848 -1.41288 0
M  V30 5471 H 527.962 -3.8529 0.833381 0
M  V30 5472 H 529.25 -5.05079 0.614238 0
M  V30 5473 H 528.648 -5.04108 -2.56693 0
M  V30 5474 H 527.205 -5.97263 -2.60998 0
M  V30 5475 N 530.638 -0.59345 -1.46 0
M  V30 5476 C 531.886 -0.082988 -2.0193 0
M  V30 5477 C 532.207 1.28569 -1.46612 0
M  V30 5478 O 531.477 1.84629 -0.654909 0
M  V30 5479 H 530.057 -0.0276882 -0.746487 0
M  V30 5480 H 532.719 -0.771657 -1.78973 0
M  V30 5481 H 531.815 -0.022079 -3.12092 0
M  V30 5482 N 532.116 1.54067 -0.331816 0
M  V30 5483 C 533.046 2.27569 0.522932 0
M  V30 5484 C 534.027 1.28679 1.11247 0
M  V30 5485 O 535.212 1.57504 1.13605 0
M  V30 5486 C 532.342 3.0397 1.67987 0
M  V30 5487 C 531.296 4.10267 1.21924 0
M  V30 5488 C 530.622 4.74555 2.46377 0
M  V30 5489 C 531.922 5.21268 0.32815 0
M  V30 5490 H 533.616 2.99264 -0.0901977 0
M  V30 5491 H 531.162 1.4393 -0.044821 0
M  V30 5492 H 533.115 3.54123 2.28418 0
M  V30 5493 H 531.839 2.29906 2.31971 0
M  V30 5494 H 530.498 3.61009 0.637809 0
M  V30 5495 H 530.146 3.97098 3.08743 0
M  V30 5496 H 529.846 5.46363 2.16243 0
M  V30 5497 H 531.37 5.27487 3.07555 0
M  V30 5498 H 532.784 5.67128 0.838978 0
M  V30 5499 H 531.181 5.99982 0.119228 0
M  V30 5500 H 532.251 4.80673 -0.638839 0
M  V30 5501 N 533.594 0.0601682 1.57485 0
M  V30 5502 C 534.504 -0.926121 2.15546 0
M  V30 5503 C 535.52 -1.33532 1.11558 0
M  V30 5504 O 536.696 -1.4104 1.4377 0
M  V30 5505 C 533.761 -2.17952 2.69625 0
M  V30 5506 C 532.822 -1.82783 3.88444 0
M  V30 5507 C 532.055 -3.02148 4.39935 0
M  V30 5508 O 532.278 -4.15803 3.90466 0
M  V30 5509 O 531.212 -2.82639 5.31412 0
M  V30 5510 H 535.038 -0.462289 3.00161 0
M  V30 5511 H 532.623 -0.162246 1.48516 0
M  V30 5512 H 534.505 -2.91474 3.04337 0
M  V30 5513 H 533.18 -2.63456 1.88077 0
M  V30 5514 H 532.087 -1.06549 3.58606 0
M  V30 5515 H 533.42 -1.42072 4.7125 0
M  V30 5516 N 535.072 -1.5615 -0.213296 0
M  V30 5517 C 535.982 -1.96265 -1.28519 0
M  V30 5518 C 536.998 -0.86765 -1.50824 0
M  V30 5519 O 538.174 -1.17191 -1.63793 0
M  V30 5520 C 535.239 -2.27836 -2.61327 0
M  V30 5521 C 534.3 -3.50949 -2.47252 0
M  V30 5522 C 533.533 -3.81004 -3.73727 0
M  V30 5523 O 533.756 -3.12612 -4.77106 0
M  V30 5524 O 532.69 -4.74477 -3.70344 0
M  V30 5525 H 536.516 -2.87631 -0.974795 0
M  V30 5526 H 534.101 -1.43467 -0.416832 0
M  V30 5527 H 535.983 -2.49299 -3.39747 0
M  V30 5528 H 534.658 -1.39643 -2.9203 0
M  V30 5529 H 533.565 -3.34754 -1.67004 0
M  V30 5530 H 534.898 -4.39551 -2.21486 0
M  V30 5531 N 536.55 0.480323 -1.50102 0
M  V30 5532 C 537.827 1.24159 -1.51142 0
M  V30 5533 C 538.207 2.09605 -0.250818 0
M  V30 5534 O 537.555 2.15274 0.766118 0
M  V30 5535 C 537.765 2.08057 -2.80202 0
M  V30 5536 C 539.113 2.66556 -3.30504 0
M  V30 5537 O 540.137 2.18308 -2.81461 0
M  V30 5538 O 538.996 3.54442 -4.15973 0
M  V30 5539 H 536.09 0.562928 -0.605839 0
M  V30 5540 H 538.636 0.492899 -1.62384 0
M  V30 5541 H 537.408 1.45032 -3.6343 0
M  V30 5542 H 537.031 2.90079 -2.71919 0
M  V30 5543 N 538.028 1.39524 0.732853 0
M  V30 5544 C 539.274 1.37068 1.49467 0
M  V30 5545 C 539.607 -0.0327166 1.94172 0
M  V30 5546 O 538.882 -0.998071 1.66939 0
M  V30 5547 C 539.165 2.34494 2.73285 0
M  V30 5548 C 539.018 3.83784 2.34585 0
M  V30 5549 C 540.337 2.29717 3.75391 0
M  V30 5550 H 537.456 0.499206 0.542183 0
M  V30 5551 H 540.098 1.70532 0.837783 0
M  V30 5552 H 538.248 2.06087 3.29333 0
M  V30 5553 H 539.92 4.22949 1.84151 0
M  V30 5554 H 538.163 4.00455 1.66787 0
M  V30 5555 H 538.834 4.47444 3.23262 0
M  V30 5556 H 541.31 2.54839 3.28932 0
M  V30 5557 H 540.186 2.99962 4.59689 0
M  V30 5558 H 540.447 1.30291 4.22465 0
M  V30 5559 N 539.506 -0.963266 1.24736 0
M  V30 5560 C 540.752 -1.70933 1.09131 0
M  V30 5561 C 541.085 -1.90676 -0.368273 0
M  V30 5562 O 540.36 -1.47147 -1.27193 0
M  V30 5563 C 540.643 -3.09744 1.83658 0
M  V30 5564 C 540.496 -2.97465 3.37394 0
M  V30 5565 C 541.815 -4.09483 1.61282 0
M  V30 5566 H 538.934 -0.620398 0.397838 0
M  V30 5567 H 541.576 -1.12028 1.53459 0
M  V30 5568 H 539.726 -3.60031 1.4598 0
M  V30 5569 H 541.398 -2.54571 3.84696 0
M  V30 5570 H 539.641 -2.33576 3.65547 0
M  V30 5571 H 540.312 -3.95822 3.84745 0
M  V30 5572 H 542.788 -3.68073 1.94066 0
M  V30 5573 H 541.664 -5.04666 2.15878 0
M  V30 5574 H 541.925 -4.38639 0.552102 0
M  V30 5575 N 540.985 -1.06182 -1.16461 0
M  V30 5576 C 542.233 -0.776326 -1.86595 0
M  V30 5577 C 542.554 0.69921 -1.82033 0
M  V30 5578 O 541.824 1.50579 -1.2531 0
M  V30 5579 H 540.404 -0.284184 -0.690832 0
M  V30 5580 H 543.066 -1.34308 -1.41235 0
M  V30 5581 H 542.162 -1.10022 -2.92064 0
M  V30 5582 N 542.463 1.3308 -0.844243 0
M  V30 5583 C 543.395 2.27954 -0.238671 0
M  V30 5584 C 544.408 1.51978 0.583665 0
M  V30 5585 O 545.597 1.73731 0.409857 0
M  V30 5586 C 542.697 3.31963 0.682185 0
M  V30 5587 C 541.87 4.37281 -0.101998 0
M  V30 5588 C 540.929 5.20928 0.743022 0
M  V30 5589 O 539.955 5.68914 0.180285 0
M  V30 5590 N 541.157 5.42738 2.0595 0
M  V30 5591 H 543.922 2.8056 -1.05386 0
M  V30 5592 H 541.483 1.4583 -0.70322 0
M  V30 5593 H 543.475 3.84828 1.25259 0
M  V30 5594 H 542.045 2.79594 1.39808 0
M  V30 5595 H 541.265 3.84843 -0.853802 0
M  V30 5596 H 542.553 5.04746 -0.641015 0
M  V30 5597 H 541.951 5.05463 2.54016 0
M  V30 5598 H 540.508 5.98639 2.57827 0
M  V30 5599 N 543.941 0.601185 1.45683 0
M  V30 5600 C 545.357 0.264315 1.57396 0
M  V30 5601 C 545.557 -1.23324 1.59353 0
M  V30 5602 O 544.613 -2.01594 1.52039 0
M  V30 5603 C 545.926 0.929839 2.85962 0
M  V30 5604 C 547.474 0.905156 2.99626 0
M  V30 5605 C 547.949 1.55057 4.30954 0
M  V30 5606 N 549.44 1.51576 4.37697 0
M  V30 5607 C 550.175 1.98436 5.37969 0
M  V30 5608 N 549.671 2.53352 6.44813 0
M  V30 5609 N 551.464 1.89242 5.29286 0
M  V30 5610 H 543.615 1.57363 1.42656 0
M  V30 5611 H 545.878 0.658831 0.681649 0
M  V30 5612 H 545.584 1.98404 2.90394 0
M  V30 5613 H 545.458 0.449224 3.74515 0
M  V30 5614 H 547.845 -0.14048 2.94765 0
M  V30 5615 H 547.926 1.42397 2.12501 0
M  V30 5616 H 547.57 2.5955 4.36573 0
M  V30 5617 H 547.5 1.00682 5.16886 0
M  V30 5618 H 549.991 1.11452 3.61091 0
M  V30 5619 H 550.304 2.86918 7.17564 0
M  V30 5620 H 548.649 2.57388 6.45582 0
M  V30 5621 H 551.84 1.46083 4.44722 0
M  V30 5622 H 552.013 2.26075 6.07284 0
M  V30 5623 N 545.419 -1.53889 0.339982 0
M  V30 5624 C 546.659 -2.02765 -0.258011 0
M  V30 5625 C 547.023 -1.22249 -1.48051 0
M  V30 5626 O 548.224 -1.61007 -2.15245 0
M  V30 5627 C 546.495 -3.5286 -0.567872 0
M  V30 5628 S 548.054 -4.23647 -1.14318 0
M  V30 5629 H 544.872 -0.706814 -0.0770389 0
M  V30 5630 H 547.474 -1.89594 0.476917 0
M  V30 5631 H 546.178 -4.09073 0.329745 0
M  V30 5632 H 545.709 -3.70144 -1.33256 0
M  V30 5633 H 547.724 -4.32676 -2.42911 0
M  V30 5634 N 546.897 -0.0685191 -1.57451 0
M  V30 5635 C 548.308 0.464634 -1.80826 0
M  V30 5636 C 548.659 1.69847 -0.982169 0
M  V30 5637 O 547.784 2.15439 -0.203734 0
M  V30 5638 C 548.379 0.849721 -3.27971 0
M  V30 5639 C 546.938 1.32776 -3.52204 0
M  V30 5640 C 546.085 0.311332 -2.75547 0
M  V30 5641 H 549.036 -0.294248 -1.55948 0
M  V30 5642 H 549.057 1.71138 -3.39841 0
M  V30 5643 H 548.569 -0.0484736 -3.8807 0
M  V30 5644 H 546.67 2.24456 -2.97406 0
M  V30 5645 H 546.783 1.30794 -4.60901 0
M  V30 5646 H 545.147 0.787915 -2.42206 0
M  V30 5647 H 545.93 -0.579078 -3.38381 0
M  V30 5648 N 548.375 1.56261 0.205012 0
M  V30 5649 C 549.307 1.90266 1.27795 0
M  V30 5650 C 550.32 0.792397 1.42214 0
M  V30 5651 O 551.509 1.07077 1.42817 0
M  V30 5652 C 548.609 2.11074 2.65143 0
M  V30 5653 C 547.782 3.42176 2.7246 0
M  V30 5654 C 546.841 3.52216 3.90936 0
M  V30 5655 O 545.867 4.25119 3.78501 0
M  V30 5656 N 547.069 2.84573 5.05963 0
M  V30 5657 H 549.834 2.82896 0.989434 0
M  V30 5658 H 547.395 1.57008 0.394981 0
M  V30 5659 H 549.387 2.15089 3.4281 0
M  V30 5660 H 547.957 1.2499 2.86524 0
M  V30 5661 H 547.177 3.50116 1.81142 0
M  V30 5662 H 548.465 4.28509 2.74331 0
M  V30 5663 H 547.863 2.25152 5.18963 0
M  V30 5664 H 546.42 2.94228 5.81613 0
M  V30 5665 N 549.853 -0.472356 1.50355 0
M  V30 5666 C 551.093 -1.23439 1.62918 0
M  V30 5667 C 551.457 -1.89284 0.321801 0
M  V30 5668 O 552.658 -2.66854 0.322852 0
M  V30 5669 C 550.929 -2.25119 2.7759 0
M  V30 5670 S 552.488 -3.10278 3.10279 0
M  V30 5671 H 549.306 -0.41911 0.574341 0
M  V30 5672 H 551.908 -0.531621 1.88133 0
M  V30 5673 H 550.612 -1.75324 3.71066 0
M  V30 5674 H 550.143 -3.00026 2.54457 0
M  V30 5675 H 552.158 -4.26257 2.54007 0
M  V30 5676 N 551.331 -1.39911 -0.725443 0
M  V30 5677 C 552.608 -1.28158 -1.47766 0
M  V30 5678 C 552.988 0.104545 -2.10841 0
M  V30 5679 O 552.336 1.11657 -1.99361 0
M  V30 5680 C 552.546 -2.41306 -2.52135 0
M  V30 5681 C 553.894 -2.81076 -3.18247 0
M  V30 5682 O 554.918 -2.40827 -2.62452 0
M  V30 5683 O 553.777 -3.50581 -4.19231 0
M  V30 5684 H 550.871 -0.502761 -0.656628 0
M  V30 5685 H 553.417 -1.51808 -0.758456 0
M  V30 5686 H 552.189 -3.33932 -2.03974 0
M  V30 5687 H 551.812 -2.19374 -3.31603 0
M  V30 5688 N 552.809 0.956637 -1.25245 0
M  V30 5689 C 554.049 1.71585 -1.11076 0
M  V30 5690 C 554.413 1.88916 0.34277 0
M  V30 5691 O 555.614 2.61875 0.606227 0
M  V30 5692 C 553.885 3.06267 -1.84215 0
M  V30 5693 S 555.444 3.97469 -1.85914 0
M  V30 5694 H 552.262 0.589803 -0.397055 0
M  V30 5695 H 554.864 1.14114 -1.58739 0
M  V30 5696 H 553.568 2.91322 -2.89067 0
M  V30 5697 H 553.099 3.688 -1.36931 0
M  V30 5698 H 555.114 4.87316 -0.93474 0
M  V30 5699 N 554.287 1.06798 1.15896 0
M  V30 5700 C 555.536 0.782796 1.8589 0
M  V30 5701 C 555.849 -0.693498 1.82893 0
M  V30 5702 O 557.055 -1.09325 2.48516 0
M  V30 5703 C 555.511 1.3502 3.33613 0
M  V30 5704 C 555.119 2.8571 3.45071 0
M  V30 5705 C 556.863 1.14278 4.08829 0
M  V30 5706 C 554.77 3.35669 4.86909 0
M  V30 5707 H 553.7 0.289149 0.696354 0
M  V30 5708 H 556.351 1.28734 1.30766 0
M  V30 5709 H 554.733 0.773407 3.88374 0
M  V30 5710 H 555.907 3.49385 3.00445 0
M  V30 5711 H 554.222 3.05178 2.83294 0
M  V30 5712 H 556.819 1.49087 5.13495 0
M  V30 5713 H 557.162 0.0814575 4.1622 0
M  V30 5714 H 557.695 1.68563 3.60321 0
M  V30 5715 H 554.434 4.41302 4.84698 0
M  V30 5716 H 553.954 2.76745 5.32139 0
M  V30 5717 H 555.633 3.31296 5.55745 0
M  V30 5718 N 555.766 -1.3263 0.851289 0
M  V30 5719 C 556.994 -2.01563 0.466899 0
M  V30 5720 C 557.409 -1.63996 -0.935447 0
M  V30 5721 O 556.766 -0.85957 -1.6099 0
M  V30 5722 C 556.817 -3.56613 0.592433 0
M  V30 5723 O 556.538 -3.92828 1.93954 0
M  V30 5724 C 558.039 -4.42818 0.206612 0
M  V30 5725 H 555.259 -0.645307 0.183902 0
M  V30 5726 H 557.803 -1.69285 1.1473 0
M  V30 5727 H 555.958 -3.87379 -0.0401936 0
M  V30 5728 H 556.372 -4.87545 1.9339 0
M  V30 5729 H 557.846 -5.50918 0.345462 0
M  V30 5730 H 558.323 -4.30844 -0.85264 0
M  V30 5731 H 558.929 -4.17434 0.814176 0
M  V30 5732 N 557.244 -0.608902 -1.45362 0
M  V30 5733 C 558.174 0.0964526 -2.33301 0
M  V30 5734 C 559.155 0.857444 -1.46908 0
M  V30 5735 O 560.34 0.827735 -1.75676 0
M  V30 5736 C 557.47 1.09354 -3.29635 0
M  V30 5737 C 556.424 0.445676 -4.25673 0
M  V30 5738 C 555.75 1.5511 -5.11708 0
M  V30 5739 C 557.05 -0.633972 -5.18438 0
M  V30 5740 H 558.744 -0.637829 -2.92527 0
M  V30 5741 H 556.29 -0.308178 -1.40664 0
M  V30 5742 H 558.243 1.59556 -3.90025 0
M  V30 5743 H 556.967 1.85843 -2.6857 0
M  V30 5744 H 555.626 -0.0354897 -3.66583 0
M  V30 5745 H 555.274 2.30631 -4.4701 0
M  V30 5746 H 554.974 1.12311 -5.76767 0
M  V30 5747 H 556.498 2.05537 -5.74967 0
M  V30 5748 H 557.912 -0.215974 -5.72893 0
M  V30 5749 H 556.309 -0.983789 -5.91981 0
M  V30 5750 H 557.379 -1.51005 -4.60788 0
M  V30 5751 N 558.722 1.53707 -0.348139 0
M  V30 5752 C 559.654 2.22725 0.540946 0
M  V30 5753 C 560.667 1.2354 1.06027 0
M  V30 5754 O 561.856 1.49867 0.96964 0
M  V30 5755 C 558.956 2.89756 1.75768 0
M  V30 5756 C 558.129 4.15297 1.37285 0
M  V30 5757 C 557.188 4.65697 2.44976 0
M  V30 5758 O 556.214 5.29798 2.08092 0
M  V30 5759 N 557.416 4.42017 3.763 0
M  V30 5760 H 560.181 2.99658 -0.0501592 0
M  V30 5761 H 557.742 1.60979 -0.17248 0
M  V30 5762 H 559.734 3.20388 2.47252 0
M  V30 5763 H 558.304 2.16382 2.25605 0
M  V30 5764 H 557.524 3.9116 0.488584 0
M  V30 5765 H 558.812 4.96948 1.09179 0
M  V30 5766 H 558.21 3.9076 4.09051 0
M  V30 5767 H 556.767 4.77242 4.4394 0
M  V30 5768 N 560.2 0.0768682 1.57412 0
M  V30 5769 C 561.148 -0.906229 2.1422 0
M  V30 5770 C 562.142 -1.30477 1.08037 0
M  V30 5771 O 563.348 -1.28143 1.2641 0
M  V30 5772 H 559.723 -0.310207 0.685037 0
M  V30 5773 H 561.694 -0.402228 2.95677 0
M  V30 5774 C 560.443 -2.16245 2.72274 0
M  V30 5775 H 559.766 -1.86463 3.53655 0
M  V30 5776 H 561.206 -2.83134 3.15613 0
M  V30 5777 C 559.665 -2.92437 1.67279 0
M  V30 5778 O 560.195 -3.86322 1.10081 0
M  V30 5779 N 558.401 -2.55637 1.38195 0
M  V30 5780 H 557.948 -1.79363 1.84897 0
M  V30 5781 H 557.906 -3.06919 0.681787 0
M  V30 5782 N 561.678 -1.56367 -0.196722 0
M  V30 5783 C 562.924 -1.80796 -0.918725 0
M  V30 5784 C 563.257 -0.650645 -1.82976 0
M  V30 5785 O 562.532 0.348889 -1.91345 0
M  V30 5786 C 562.815 -3.15472 -1.73636 0
M  V30 5787 C 562.668 -4.41693 -0.85015 0
M  V30 5788 C 563.987 -3.46824 -2.70927 0
M  V30 5789 H 561.106 -0.657702 -0.332561 0
M  V30 5790 H 563.748 -1.89086 -0.186186 0
M  V30 5791 H 561.898 -3.08536 -2.36088 0
M  V30 5792 H 563.57 -4.60673 -0.240459 0
M  V30 5793 H 561.813 -4.33517 -0.156785 0
M  V30 5794 H 562.484 -5.32419 -1.45719 0
M  V30 5795 H 564.96 -3.54049 -2.18607 0
M  V30 5796 H 563.836 -4.4218 -3.25219 0
M  V30 5797 H 564.097 -2.70236 -3.49893 0
M  V30 5798 N 563.156 0.464375 -1.50603 0
M  V30 5799 C 564.381 1.24372 -1.65971 0
M  V30 5800 C 564.806 1.84901 -0.345453 0
M  V30 5801 O 564.164 1.67596 0.691457 0
M  V30 5802 C 564.212 2.32331 -2.7578 0
M  V30 5803 O 563.316 3.37146 -2.375 0
M  V30 5804 H 562.657 0.365604 -0.554283 0
M  V30 5805 H 565.187 0.55183 -1.97018 0
M  V30 5806 H 565.197 2.77539 -2.99059 0
M  V30 5807 H 563.872 1.87648 -3.71162 0
M  V30 5808 H 562.449 2.97602 -2.24694 0
M  V30 5809 N 564.634 1.40294 0.718013 0
M  V30 5810 C 565.597 1.4012 1.81381 0
M  V30 5811 C 566.597 0.295405 1.58063 0
M  V30 5812 O 567.787 0.554187 1.6515 0
M  V30 5813 C 564.919 1.19056 3.19435 0
M  V30 5814 H 566.112 2.37645 1.82933 0
M  V30 5815 H 563.665 1.26107 0.923405 0
M  V30 5816 H 564.4 0.222809 3.23534 0
M  V30 5817 H 564.185 1.99152 3.37758 0
M  V30 5818 H 565.675 1.21716 3.99468 0
M  V30 5819 N 566.112 -0.949982 1.2575 0
M  V30 5820 C 567.36 -1.6918 1.10555 0
M  V30 5821 C 567.681 -1.91773 -0.353298 0
M  V30 5822 O 566.951 -1.50814 -1.25027 0
M  V30 5823 H 565.531 -0.626952 0.406129 0
M  V30 5824 H 568.193 -1.1419 1.57945 0
M  V30 5825 H 567.289 -2.66915 1.61749 0
M  V30 5826 N 567.59 -1.07411 -1.15328 0
M  V30 5827 C 568.52 -0.716472 -2.22236 0
M  V30 5828 C 569.501 0.296373 -1.67498 0
M  V30 5829 O 570.686 0.168989 -1.93463 0
M  V30 5830 C 567.816 -0.114142 -3.47112 0
M  V30 5831 C 566.77 -1.05421 -4.14814 0
M  V30 5832 C 566.096 -0.314604 -5.33774 0
M  V30 5833 C 567.396 -2.38808 -4.64508 0
M  V30 5834 H 569.09 -1.61029 -2.52408 0
M  V30 5835 H 566.636 -0.775702 -1.21321 0
M  V30 5836 H 568.589 0.148001 -4.2114 0
M  V30 5837 H 567.313 0.814755 -3.16274 0
M  V30 5838 H 565.972 -1.30128 -3.42728 0
M  V30 5839 H 565.62 0.617772 -4.99192 0
M  V30 5840 H 565.32 -0.941209 -5.80013 0
M  V30 5841 H 566.844 -0.0602747 -6.1057 0
M  V30 5842 H 568.258 -2.18424 -5.3006 0
M  V30 5843 H 566.655 -2.97069 -5.21412 0
M  V30 5844 H 567.725 -3.01067 -3.80114 0
M  V30 5845 N 569.068 1.32177 -0.85831 0
M  V30 5846 C 570.016 2.30729 -0.294442 0
M  V30 5847 C 571.01 1.59009 0.584165 0
M  V30 5848 O 572.216 1.73713 0.471562 0
M  V30 5849 H 568.591 0.748097 -0.0765171 0
M  V30 5850 H 570.562 2.75774 -1.1398 0
M  V30 5851 C 569.311 3.44098 0.499208 0
M  V30 5852 H 568.634 3.99449 -0.167579 0
M  V30 5853 H 570.074 4.15202 0.859273 0
M  V30 5854 C 568.533 2.91684 1.68588 0
M  V30 5855 O 569.063 2.89481 2.78503 0
M  V30 5856 N 567.269 2.48036 1.51415 0
M  V30 5857 H 566.816 2.50027 0.620006 0
M  V30 5858 H 566.774 2.13322 2.30957 0
M  V30 5859 N 570.547 0.616602 1.45037 0
M  V30 5860 C 571.497 -0.118543 2.27692 0
M  V30 5861 C 572.481 -0.830025 1.37838 0
M  V30 5862 O 573.673 -0.718528 1.6176 0
M  V30 5863 C 570.802 -1.10924 3.24886 0
M  V30 5864 C 569.888 -0.398134 4.22227 0
M  V30 5865 N 570.279 0.565233 5.02632 0
M  V30 5866 C 568.577 -0.644506 4.41319 0
M  V30 5867 C 569.278 0.984043 5.73316 0
M  V30 5868 N 568.254 0.325879 5.42622 0
M  V30 5869 H 572.056 0.621239 2.87259 0
M  V30 5870 H 569.57 0.440968 1.56299 0
M  V30 5871 H 571.567 -1.65038 3.82842 0
M  V30 5872 H 570.227 -1.84948 2.66879 0
M  V30 5873 H 571.238 0.942395 5.09254 0
M  V30 5874 H 567.915 -1.36873 3.94426 0
M  V30 5875 H 569.305 1.77911 6.47918 0
M  V30 5876 N 572.025 -1.5352 0.356285 0
M  V30 5877 C 572.975 -2.22204 -0.510815 0
M  V30 5878 C 573.959 -1.21393 -1.05605 0
M  V30 5879 O 575.151 -1.46883 -0.987639 0
M  V30 5880 C 572.28 -3.00786 -1.65478 0
M  V30 5881 C 571.366 -4.08965 -1.12287 0
M  V30 5882 N 571.757 -5.04829 -0.313191 0
M  V30 5883 C 570.055 -4.23505 -1.39856 0
M  V30 5884 C 570.756 -5.81695 -0.0230322 0
M  V30 5885 N 569.732 -5.40074 -0.618144 0
M  V30 5886 H 573.534 -2.93676 0.114711 0
M  V30 5887 H 571.048 -1.61572 0.163811 0
M  V30 5888 H 573.045 -3.48502 -2.28806 0
M  V30 5889 H 571.705 -2.30843 -2.28345 0
M  V30 5890 H 572.716 -5.17879 0.0468202 0
M  V30 5891 H 569.393 -3.64786 -2.0307 0
M  V30 5892 H 570.783 -6.68931 0.630927 0
M  V30 5893 N 573.503 -0.0852151 -1.57369 0
M  V30 5894 C 574.435 0.907099 -2.10486 0
M  V30 5895 C 575.448 1.25259 -1.03991 0
M  V30 5896 O 576.637 1.20743 -1.31467 0
M  V30 5897 C 573.737 2.21908 -2.56145 0
M  V30 5898 C 572.91 2.05042 -3.86363 0
M  V30 5899 C 571.969 3.19664 -4.17973 0
M  V30 5900 O 570.995 2.94062 -4.87356 0
M  V30 5901 N 572.197 4.45151 -3.72587 0
M  V30 5902 H 574.962 0.453505 -2.96249 0
M  V30 5903 H 572.523 0.100157 -1.6159 0
M  V30 5904 H 574.515 2.97519 -2.74343 0
M  V30 5905 H 573.085 2.58723 -1.75446 0
M  V30 5906 H 572.305 1.13819 -3.77411 0
M  V30 5907 H 573.593 1.91039 -4.71574 0
M  V30 5908 H 572.991 4.68834 -3.16561 0
M  V30 5909 H 571.548 5.17744 -3.9596 0
M  V30 5910 N 574.981 1.5647 0.188427 0
M  V30 5911 C 576.209 1.85131 0.923803 0
M  V30 5912 C 576.624 0.668537 1.76567 0
M  V30 5913 O 575.981 -0.362662 1.7886 0
M  V30 5914 C 576.032 3.12661 1.81453 0
M  V30 5915 O 575.753 4.26378 1.00665 0
M  V30 5916 C 577.254 3.54548 2.66103 0
M  V30 5917 H 574.474 0.614624 0.269218 0
M  V30 5918 H 577.018 2.03581 0.193671 0
M  V30 5919 H 575.173 2.96088 2.49821 0
M  V30 5920 H 575.587 4.99041 1.61425 0
M  V30 5921 H 577.061 4.4673 3.24247 0
M  V30 5922 H 577.538 2.77853 3.40139 0
M  V30 5923 H 578.144 3.73674 2.03096 0
M  V30 5924 N 576.459 -0.456382 1.50847 0
M  V30 5925 C 577.706 -1.20736 1.62571 0
M  V30 5926 C 578.034 -1.9163 0.332904 0
M  V30 5927 O 577.289 -1.8343 -0.682058 0
M  V30 5928 C 577.588 -2.26336 2.76599 0
M  V30 5929 C 577.254 -1.7259 4.16562 0
M  V30 5930 C 575.916 -1.57654 4.54641 0
M  V30 5931 C 578.268 -1.32877 5.03977 0
M  V30 5932 C 575.596 -1.0145 5.77862 0
M  V30 5933 C 577.948 -0.7811 6.27759 0
M  V30 5934 C 576.612 -0.618488 6.64628 0
M  V30 5935 H 575.882 -0.441803 0.594888 0
M  V30 5936 H 578.529 -0.501169 1.84826 0
M  V30 5937 H 576.834 -3.0292 2.48489 0
M  V30 5938 H 578.531 -2.84227 2.82871 0
M  V30 5939 H 575.121 -1.85187 3.86528 0
M  V30 5940 H 579.305 -1.43245 4.75179 0
M  V30 5941 H 574.561 -0.876109 6.0509 0
M  V30 5942 H 578.735 -0.464783 6.94847 0
M  V30 5943 H 576.362 -0.180838 7.59985 0
M  V30 5944 N 577.937 -1.40673 -0.710563 0
M  V30 5945 C 579.162 -1.42741 -1.50465 0
M  V30 5946 C 579.587 -0.0302116 -1.88076 0
M  V30 5947 O 578.945 0.962945 -1.53613 0
M  V30 5948 C 578.993 -2.32873 -2.75322 0
M  V30 5949 O 578.097 -1.77544 -3.72226 0
M  V30 5950 H 577.438 -0.485056 -0.45345 0
M  V30 5951 H 579.968 -1.84961 -0.874681 0
M  V30 5952 H 579.978 -2.48233 -3.23797 0
M  V30 5953 H 578.653 -3.34401 -2.47283 0
M  V30 5954 H 577.23 -1.71556 -3.31093 0
M  V30 5955 N 579.415 0.9433 -1.26252 0
M  V30 5956 C 580.661 1.69175 -1.11837 0
M  V30 5957 C 580.994 1.91238 0.337891 0
M  V30 5958 O 580.269 1.49152 1.24836 0
M  V30 5959 C 580.552 3.06783 -1.88563 0
M  V30 5960 C 580.405 2.9206 -3.42083 0
M  V30 5961 C 581.724 4.06865 -1.67776 0
M  V30 5962 H 578.843 0.61399 -0.407658 0
M  V30 5963 H 581.485 1.09572 -1.55222 0
M  V30 5964 H 579.635 3.57663 -1.51689 0
M  V30 5965 H 581.307 2.48419 -3.88698 0
M  V30 5966 H 579.55 2.27731 -3.69217 0
M  V30 5967 H 580.221 3.89651 -3.90994 0
M  V30 5968 H 582.697 3.64939 -1.99897 0
M  V30 5969 H 581.573 5.01168 -2.23879 0
M  V30 5970 H 581.834 4.37705 -0.621816 0
M  V30 5971 N 580.893 1.08022 1.14757 0
M  V30 5972 C 582.123 0.827646 1.89298 0
M  V30 5973 C 582.531 -0.623506 1.78631 0
M  V30 5974 O 581.874 -1.43991 1.14071 0
M  V30 5975 C 581.936 1.16553 3.40082 0
M  V30 5976 C 581.6 2.61866 3.74533 0
M  V30 5977 C 582.597 3.60116 3.74984 0
M  V30 5978 C 580.282 2.97619 4.04633 0
M  V30 5979 C 582.276 4.92151 4.05051 0
M  V30 5980 C 579.963 4.2985 4.34364 0
M  V30 5981 C 580.961 5.26926 4.34555 0
M  V30 5982 O 580.649 6.5678 4.63568 0
M  V30 5983 H 580.381 0.298396 0.606577 0
M  V30 5984 H 582.935 1.44187 1.46285 0
M  V30 5985 H 581.165 0.494296 3.83528 0
M  V30 5986 H 582.854 0.894407 3.95923 0
M  V30 5987 H 583.62 3.33837 3.51821 0
M  V30 5988 H 579.499 2.22702 4.03639 0
M  V30 5989 H 583.043 5.67915 4.05115 0
M  V30 5990 H 578.94 4.55879 4.56995 0
M  V30 5991 H 579.708 6.62035 4.81303 0
M  V30 5992 N 582.371 -1.3172 0.865308 0
M  V30 5993 C 583.334 -2.26918 0.322627 0
M  V30 5994 C 584.334 -1.52031 -0.523751 0
M  V30 5995 O 585.524 -1.70973 -0.333727 0
M  V30 5996 C 582.656 -3.36558 -0.542338 0
M  V30 5997 H 583.849 -2.76432 1.16298 0
M  V30 5998 H 581.402 -1.42573 0.640512 0
M  V30 5999 H 582.137 -2.92329 -1.40407 0
M  V30 6000 H 581.922 -3.92048 0.0636395 0
M  V30 6001 H 583.412 -4.07465 -0.91446 0
M  V30 6002 N 583.85 -0.624285 -1.44708 0
M  V30 6003 C 584.812 0.0749638 -2.29077 0
M  V30 6004 C 585.812 0.778965 -1.40673 0
M  V30 6005 O 587.003 0.624591 -1.62618 0
M  V30 6006 C 584.135 1.11663 -3.22094 0
M  V30 6007 H 585.327 -0.667013 -2.92388 0
M  V30 6008 H 582.88 -0.384098 -1.51507 0
M  V30 6009 H 583.615 1.88881 -2.63618 0
M  V30 6010 H 583.401 0.61583 -3.87234 0
M  V30 6011 H 584.891 1.60585 -3.8549 0
M  V30 6012 N 585.328 1.53329 -0.364422 0
M  V30 6013 C 586.574 2.01537 0.225969 0
M  V30 6014 C 586.907 1.25128 1.48515 0
M  V30 6015 O 586.182 0.344653 1.91422 0
M  V30 6016 C 586.465 3.56339 0.519092 0
M  V30 6017 C 586.318 4.43441 -0.753639 0
M  V30 6018 C 587.637 4.19833 1.32015 0
M  V30 6019 H 584.756 0.732573 0.0806548 0
M  V30 6020 H 587.398 1.83597 -0.489084 0
M  V30 6021 H 585.548 3.71756 1.12825 0
M  V30 6022 H 587.22 4.39823 -1.39116 0
M  V30 6023 H 585.463 4.11457 -1.37424 0
M  V30 6024 H 586.134 5.49699 -0.503517 0
M  V30 6025 H 588.61 4.08242 0.804859 0
M  V30 6026 H 587.486 5.28177 1.49399 0
M  V30 6027 H 587.747 3.75821 2.32832 0
M  V30 6028 N 586.806 0.0935595 1.57322 0
M  V30 6029 C 588.036 -0.578095 1.98347 0
M  V30 6030 C 588.444 -1.62357 0.971441 0
M  V30 6031 O 587.787 -1.83639 -0.0473959 0
M  V30 6032 C 587.849 -1.28525 3.3574 0
M  V30 6033 C 587.513 -0.390714 4.55327 0
M  V30 6034 C 588.51 0.360522 5.18648 0
M  V30 6035 C 586.195 -0.309221 5.01347 0
M  V30 6036 C 588.189 1.18125 6.26359 0
M  V30 6037 C 585.876 0.515157 6.08925 0
M  V30 6038 C 586.874 1.25904 6.71295 0
M  V30 6039 O 586.562 2.06978 7.76798 0
M  V30 6040 H 586.294 -0.159767 0.656849 0
M  V30 6041 H 588.848 0.169058 2.04703 0
M  V30 6042 H 587.078 -2.07894 3.26063 0
M  V30 6043 H 588.767 -1.85128 3.61223 0
M  V30 6044 H 589.533 0.307285 4.84026 0
M  V30 6045 H 585.412 -0.877881 4.52564 0
M  V30 6046 H 588.956 1.76236 6.74971 0
M  V30 6047 H 584.853 0.56988 6.42979 0
M  V30 6048 H 585.621 1.99644 7.93779 0
M  V30 6049 N 588.284 -1.56567 -0.180126 0
M  V30 6050 C 589.509 -1.85975 -0.918041 0
M  V30 6051 C 589.934 -0.678888 -1.75422 0
M  V30 6052 O 589.292 0.372168 -1.77439 0
M  V30 6053 C 589.34 -3.13731 -1.77779 0
M  V30 6054 O 588.444 -2.95335 -2.87838 0
M  V30 6055 H 587.785 -0.61196 -0.257683 0
M  V30 6056 H 590.315 -2.03798 -0.180923 0
M  V30 6057 H 590.325 -3.4491 -2.17948 0
M  V30 6058 H 589 -3.99293 -1.16352 0
M  V30 6059 H 587.577 -2.7549 -2.51316 0
M  V30 6060 N 589.762 0.448376 -1.51087 0
M  V30 6061 C 591.008 1.20049 -1.6345 0
M  V30 6062 C 591.341 1.91121 -0.344444 0
M  V30 6063 O 590.616 1.83125 0.655396 0
M  V30 6064 C 590.899 2.22624 -2.83038 0
M  V30 6065 C 590.752 1.55708 -4.21989 0
M  V30 6066 C 592.071 3.23718 -2.98152 0
M  V30 6067 H 589.19 0.435085 -0.59487 0
M  V30 6068 H 591.832 0.491183 -1.83541 0
M  V30 6069 H 589.982 2.83117 -2.66039 0
M  V30 6070 H 591.654 0.986367 -4.50631 0
M  V30 6071 H 589.897 0.859647 -4.25197 0
M  V30 6072 H 590.568 2.30357 -5.01637 0
M  V30 6073 H 593.044 2.73269 -3.13788 0
M  V30 6074 H 591.92 3.92795 -3.83411 0
M  V30 6075 H 592.181 3.89179 -2.09743 0
M  V30 6076 N 591.24 1.41047 0.703093 0
M  V30 6077 C 592.203 1.42036 1.79884 0
M  V30 6078 C 593.203 0.312153 1.57741 0
M  V30 6079 O 594.393 0.571672 1.64553 0
M  V30 6080 C 591.525 1.22437 3.18154 0
M  V30 6081 H 592.718 2.39572 1.80403 0
M  V30 6082 H 590.271 1.27079 0.909977 0
M  V30 6083 H 591.006 0.257112 3.23279 0
M  V30 6084 H 590.791 2.02723 3.35627 0
M  V30 6085 H 592.281 1.25946 3.98155 0
M  V30 6086 N 592.718 -0.936591 1.26751 0
M  V30 6087 C 593.65 -2.03991 1.045 0
M  V30 6088 C 594.663 -1.628 0.00394261 0
M  V30 6089 O 595.852 -1.76817 0.244526 0
M  V30 6090 C 592.952 -3.34218 0.561403 0
M  V30 6091 C 592.125 -4.04151 1.67274 0
M  V30 6092 C 591.184 -5.12651 1.1864 0
M  V30 6093 O 590.21 -5.37104 1.88437 0
M  V30 6094 N 591.412 -5.80488 0.037278 0
M  V30 6095 H 594.177 -2.23644 1.99508 0
M  V30 6096 H 591.738 -1.10638 1.18198 0
M  V30 6097 H 593.73 -4.04101 0.220136 0
M  V30 6098 H 592.3 -3.11203 -0.295211 0
M  V30 6099 H 591.52 -3.28121 2.18472 0
M  V30 6100 H 592.808 -4.47626 2.41885 0
M  V30 6101 H 592.206 -5.63064 -0.545494 0
M  V30 6102 H 590.763 -6.5134 -0.244877 0
M  V30 6103 N 594.196 -1.08629 -1.14182 0
M  V30 6104 C 595.159 -0.722027 -2.1753 0
M  V30 6105 C 596.159 0.244305 -1.58933 0
M  V30 6106 O 597.349 0.0235545 -1.74184 0
M  V30 6107 C 594.481 -0.0663966 -3.40835 0
M  V30 6108 H 595.674 -1.63719 -2.51269 0
M  V30 6109 H 593.227 -0.884442 -1.28869 0
M  V30 6110 H 593.962 0.860389 -3.12678 0
M  V30 6111 H 593.747 -0.761598 -3.84632 0
M  V30 6112 H 595.237 0.173346 -4.1724 0
M  V30 6113 N 595.674 1.31259 -0.872281 0
M  V30 6114 C 596.604 2.30929 -0.345554 0
M  V30 6115 C 597.585 1.60449 0.5648 0
M  V30 6116 O 598.77 1.8814 0.481335 0
M  V30 6117 C 595.9 3.44348 0.451823 0
M  V30 6118 C 594.854 4.26435 -0.365641 0
M  V30 6119 C 594.18 5.31785 0.557562 0
M  V30 6120 C 595.48 4.97159 -1.60095 0
M  V30 6121 H 597.174 2.75234 -1.17841 0
M  V30 6122 H 594.72 1.3232 -0.568094 0
M  V30 6123 H 596.673 4.13128 0.830854 0
M  V30 6124 H 595.397 2.98816 1.31821 0
M  V30 6125 H 594.056 3.59326 -0.726649 0
M  V30 6126 H 593.704 4.82502 1.4213 0
M  V30 6127 H 593.404 5.87598 0.0144878 0
M  V30 6128 H 594.928 6.03424 0.933387 0
M  V30 6129 H 596.342 5.58523 -1.29323 0
M  V30 6130 H 594.739 5.62779 -2.08327 0
M  V30 6131 H 595.809 4.24012 -2.35249 0
M  V30 6132 N 597.152 0.631951 1.44375 0
M  V30 6133 C 598.102 -0.0943862 2.27805 0
M  V30 6134 C 599.086 -0.815359 1.38711 0
M  V30 6135 O 600.278 -0.701331 1.62513 0
M  V30 6136 C 597.407 -1.07472 3.26044 0
M  V30 6137 C 596.493 -0.353329 4.22626 0
M  V30 6138 N 596.884 0.618512 5.02004 0
M  V30 6139 C 595.182 -0.597662 4.41977 0
M  V30 6140 C 595.883 1.0448 5.7224 0
M  V30 6141 N 594.859 0.383413 5.42246 0
M  V30 6142 H 598.661 0.651672 2.86584 0
M  V30 6143 H 596.175 0.45752 1.55822 0
M  V30 6144 H 598.172 -1.60969 3.84571 0
M  V30 6145 H 596.832 -1.82107 2.68825 0
M  V30 6146 H 597.843 0.996356 5.08226 0
M  V30 6147 H 594.52 -1.32682 3.95856 0
M  V30 6148 H 595.91 1.84773 6.45994 0
M  V30 6149 N 598.631 -1.53133 0.372548 0
M  V30 6150 C 599.579 -2.27473 -0.485681 0
M  V30 6151 C 600.573 -1.30719 -1.07745 0
M  V30 6152 O 601.779 -1.48321 -1.01985 0
M  V30 6153 H 598.154 -0.731269 -0.175356 0
M  V30 6154 H 600.125 -2.97955 0.162986 0
M  V30 6155 C 598.874 -3.08191 -1.60978 0
M  V30 6156 H 598.197 -3.82488 -1.16373 0
M  V30 6157 H 599.637 -3.63373 -2.18485 0
M  V30 6158 C 598.096 -2.19461 -2.55614 0
M  V30 6159 O 598.626 -1.81008 -3.58607 0
M  V30 6160 N 596.832 -1.83955 -2.24965 0
M  V30 6161 H 596.379 -2.15423 -1.41247 0
M  V30 6162 H 596.337 -1.24874 -2.88538 0
M  V30 6163 N 600.109 -0.101901 -1.5727 0
M  V30 6164 C 601.337 0.568392 -1.98939 0
M  V30 6165 C 601.752 1.61301 -0.981194 0
M  V30 6166 O 601.109 1.82478 0.0282869 0
M  V30 6167 C 601.16 1.20997 -3.40649 0
M  V30 6168 O 600.881 0.207129 -4.3761 0
M  V30 6169 C 602.382 1.96523 -3.97358 0
M  V30 6170 H 599.602 0.15186 -0.65359 0
M  V30 6171 H 602.146 -0.183198 -2.03678 0
M  V30 6172 H 600.301 1.91245 -3.36904 0
M  V30 6173 H 600.715 0.671071 -5.20189 0
M  V30 6174 H 602.189 2.36764 -4.98645 0
M  V30 6175 H 602.666 2.83376 -3.35552 0
M  V30 6176 H 603.272 1.31076 -4.04598 0
M  V30 6177 N 601.587 1.56661 0.17182 0
M  V30 6178 C 602.517 1.99401 1.21498 0
M  V30 6179 C 603.498 0.869516 1.46197 0
M  V30 6180 O 604.683 1.13556 1.57539 0
M  V30 6181 C 601.813 2.35346 2.55401 0
M  V30 6182 C 600.767 3.5075 2.45272 0
M  V30 6183 C 600.093 3.72437 3.8366 0
M  V30 6184 C 601.393 4.84216 1.95787 0
M  V30 6185 H 603.087 2.86792 0.859699 0
M  V30 6186 H 600.633 1.37977 0.412103 0
M  V30 6187 H 602.586 2.63843 3.2858 0
M  V30 6188 H 601.31 1.44864 2.92715 0
M  V30 6189 H 599.969 3.2238 1.74547 0
M  V30 6190 H 599.617 2.79246 4.18367 0
M  V30 6191 H 599.317 4.50087 3.77751 0
M  V30 6192 H 600.841 4.03334 4.58426 0
M  V30 6193 H 602.255 5.11592 2.5874 0
M  V30 6194 H 600.652 5.65498 2.00827 0
M  V30 6195 H 601.722 4.76243 0.912159 0
M  V30 6196 N 603.065 -0.440357 1.51323 0
M  V30 6197 C 603.997 -1.55254 1.68609 0
M  V30 6198 C 605.01 -1.52614 0.566812 0
M  V30 6199 O 606.199 -1.57445 0.841032 0
M  V30 6200 C 603.299 -2.94169 1.68279 0
M  V30 6201 C 602.472 -3.21346 2.96742 0
M  V30 6202 C 601.531 -4.3997 2.8864 0
M  V30 6203 O 600.557 -4.38771 3.62586 0
M  V30 6204 N 601.759 -5.43367 2.04285 0
M  V30 6205 H 604.524 -1.40831 2.6455 0
M  V30 6206 H 602.085 -0.629251 1.49171 0
M  V30 6207 H 604.077 -3.71543 1.60431 0
M  V30 6208 H 602.647 -3.02205 0.799441 0
M  V30 6209 H 601.867 -2.32299 3.18482 0
M  V30 6210 H 603.155 -3.3633 3.81785 0
M  V30 6211 H 602.553 -5.47176 1.43578 0
M  V30 6212 H 601.11 -6.19605 2.02318 0
M  V30 6213 N 604.543 -1.41418 -0.695603 0
M  V30 6214 C 605.783 -1.42241 -1.46788 0
M  V30 6215 C 606.147 -0.0300827 -1.91976 0
M  V30 6216 O 607.348 0.0868914 -2.6866 0
M  V30 6217 C 605.619 -2.4011 -2.6473 0
M  V30 6218 S 607.178 -2.59462 -3.53871 0
M  V30 6219 H 603.996 -0.503893 -0.50161 0
M  V30 6220 H 606.598 -1.77855 -0.811654 0
M  V30 6221 H 605.302 -3.40073 -2.29736 0
M  V30 6222 H 604.833 -2.05849 -3.35246 0
M  V30 6223 H 606.848 -1.862 -4.59939 0
M  V30 6224 N 606.021 0.929856 -1.27246 0
M  V30 6225 C 606.969 2.05151 -1.09616 0
M  V30 6226 C 607.963 1.69388 -0.0198617 0
M  V30 6227 O 609.169 1.79124 -0.177417 0
M  V30 6228 H 605.544 0.671909 -0.337701 0
M  V30 6229 H 607.515 2.17168 -2.04648 0
M  V30 6230 C 606.264 3.3934 -0.757851 0
M  V30 6231 H 605.587 3.67343 -1.57795 0
M  V30 6232 H 607.027 4.18603 -0.674358 0
M  V30 6233 C 605.486 3.32582 0.537658 0
M  V30 6234 O 606.016 3.69633 1.57271 0
M  V30 6235 N 604.222 2.8568 0.532478 0
M  V30 6236 H 603.769 2.55725 -0.310233 0
M  V30 6237 H 603.727 2.81541 1.39936 0
M  V30 6238 N 607.499 1.09233 1.13605 0
M  V30 6239 C 608.462 0.733553 2.17144 0
M  V30 6240 C 609.462 -0.235873 1.59061 0
M  V30 6241 O 610.652 -0.0143167 1.74194 0
M  V30 6242 C 607.784 0.084471 3.40795 0
M  V30 6243 H 608.977 1.65049 2.50397 0
M  V30 6244 H 606.53 0.891264 1.28399 0
M  V30 6245 H 607.265 -0.843795 3.1313 0
M  V30 6246 H 607.05 0.781985 3.84223 0
M  V30 6247 H 608.54 -0.151216 4.17326 0
M  V30 6248 N 608.977 -1.30795 0.87923 0
M  V30 6249 C 610.202 -2.01063 0.508769 0
M  V30 6250 C 610.627 -1.65508 -0.893803 0
M  V30 6251 O 609.985 -0.868616 -1.59138 0
M  V30 6252 C 610.033 -3.54054 0.683991 0
M  V30 6253 O 609.137 -4.11498 -0.272654 0
M  V30 6254 H 608.478 -0.632786 0.201191 0
M  V30 6255 H 611.008 -1.66776 1.18519 0
M  V30 6256 H 611.018 -4.03845 0.580798 0
M  V30 6257 H 609.693 -3.79271 1.70665 0
M  V30 6258 H 608.27 -3.72695 -0.12364 0
M  V30 6259 N 610.455 -0.639598 -1.44038 0
M  V30 6260 C 611.703 -0.147188 -2.01563 0
M  V30 6261 C 612.024 1.2384 -1.50628 0
M  V30 6262 O 611.294 1.82452 -0.713316 0
M  V30 6263 H 609.874 -0.0514231 -0.745228 0
M  V30 6264 H 612.536 -0.828205 -1.76428 0
M  V30 6265 H 611.632 -0.121358 -3.11864 0
M  V30 6266 N 611.933 1.52934 -0.380664 0
M  V30 6267 C 613.173 2.03378 0.204161 0
M  V30 6268 C 613.537 1.26132 1.44758 0
M  V30 6269 O 614.738 1.66657 2.109 0
M  V30 6270 C 613.009 3.54241 0.474118 0
M  V30 6271 S 614.568 4.26529 1.03046 0
M  V30 6272 H 611.386 0.708608 0.0582719 0
M  V30 6273 H 613.988 1.88263 -0.527017 0
M  V30 6274 H 612.692 4.08055 -0.438088 0
M  V30 6275 H 612.223 3.73547 1.23396 0
M  V30 6276 H 614.238 4.38964 2.31354 0
M  V30 6277 N 613.412 0.11024 1.57214 0
M  V30 6278 C 614.823 -0.416527 1.81994 0
M  V30 6279 C 615.174 -1.67183 1.02686 0
M  V30 6280 O 614.299 -2.14823 0.260782 0
M  V30 6281 C 614.894 -0.762466 3.30109 0
M  V30 6282 C 613.453 -1.23391 3.556 0
M  V30 6283 C 612.6 -0.238166 2.76275 0
M  V30 6284 H 615.551 0.335491 1.55113 0
M  V30 6285 H 615.572 -1.62068 3.44259 0
M  V30 6286 H 615.084 0.151346 3.87805 0
M  V30 6287 H 613.185 -2.16492 3.03253 0
M  V30 6288 H 613.298 -1.18528 4.64207 0
M  V30 6289 H 611.662 -0.723421 2.4421 0
M  V30 6290 H 612.445 0.668591 3.36727 0
M  V30 6291 N 614.89 -1.56749 -0.16351 0
M  V30 6292 C 615.853 -1.96121 -1.18613 0
M  V30 6293 C 616.853 -0.845765 -1.36761 0
M  V30 6294 O 618.043 -1.11268 -1.34033 0
M  V30 6295 C 615.175 -2.26282 -2.54969 0
M  V30 6296 H 616.368 -2.87639 -0.848764 0
M  V30 6297 H 613.921 -1.50928 -0.406251 0
M  V30 6298 H 614.656 -1.37504 -2.93706 0
M  V30 6299 H 614.441 -3.07595 -2.43162 0
M  V30 6300 H 615.931 -2.57638 -3.28653 0
M  V30 6301 N 616.368 0.432326 -1.51554 0
M  V30 6302 C 617.3 1.54357 -1.6943 0
M  V30 6303 C 618.313 1.52311 -0.574897 0
M  V30 6304 O 619.502 1.56997 -0.849369 0
M  V30 6305 C 616.602 2.93273 -1.69836 0
M  V30 6306 C 615.775 3.19768 -2.98442 0
M  V30 6307 C 614.834 4.38433 -2.90969 0
M  V30 6308 O 613.86 4.36842 -3.64908 0
M  V30 6309 N 615.062 5.42276 -2.07163 0
M  V30 6310 H 617.827 1.39426 -2.65293 0
M  V30 6311 H 615.388 0.621331 -1.49503 0
M  V30 6312 H 617.38 3.70687 -1.62399 0
M  V30 6313 H 615.95 3.01777 -0.815456 0
M  V30 6314 H 615.17 2.30607 -3.19709 0
M  V30 6315 H 616.458 3.343 -3.83563 0
M  V30 6316 H 615.856 5.46407 -1.46477 0
M  V30 6317 H 614.413 6.18524 -2.05601 0
M  V30 6318 N 617.846 1.41785 0.688094 0
M  V30 6319 C 619.123 1.32031 1.44316 0
M  V30 6320 C 619.503 -0.0486079 2.11044 0
M  V30 6321 O 618.851 -1.06332 2.02252 0
M  V30 6322 C 619.061 2.47906 2.45649 0
M  V30 6323 C 620.409 2.89415 3.10683 0
M  V30 6324 O 621.433 2.477 2.55975 0
M  V30 6325 O 620.292 3.61573 4.09789 0
M  V30 6326 H 617.386 0.519994 0.643067 0
M  V30 6327 H 619.932 1.53765 0.71794 0
M  V30 6328 H 618.704 3.39222 1.95048 0
M  V30 6329 H 618.327 2.28089 3.25671 0
M  V30 6330 N 619.324 -0.923095 1.27737 0
M  V30 6331 C 620.735 -1.48626 1.12993 0
M  V30 6332 C 621.086 -1.94142 -0.283439 0
M  V30 6333 O 620.211 -1.81605 -1.17681 0
M  V30 6334 C 620.806 -2.70117 2.04505 0
M  V30 6335 C 619.365 -3.22642 1.93853 0
M  V30 6336 C 618.512 -1.95368 1.96791 0
M  V30 6337 H 621.463 -0.736737 1.40563 0
M  V30 6338 H 621.484 -3.4506 1.60356 0
M  V30 6339 H 620.996 -2.36959 3.07363 0
M  V30 6340 H 619.097 -3.60549 0.939968 0
M  V30 6341 H 619.21 -3.88525 2.80331 0
M  V30 6342 H 617.574 -2.12061 1.41076 0
M  V30 6343 H 618.357 -1.64517 3.01312 0
M  V30 6344 N 620.802 -1.09834 -1.13024 0
M  V30 6345 C 622.048 -0.83819 -1.84668 0
M  V30 6346 C 622.381 0.634645 -1.83537 0
M  V30 6347 O 621.656 1.46753 -1.27647 0
M  V30 6348 C 621.939 -1.37933 -3.32636 0
M  V30 6349 C 621.792 -2.91857 -3.42257 0
M  V30 6350 C 623.111 -1.01654 -4.28199 0
M  V30 6351 H 620.23 -0.30595 -0.670495 0
M  V30 6352 H 622.872 -1.36044 -1.32635 0
M  V30 6353 H 621.022 -0.935111 -3.77078 0
M  V30 6354 H 622.694 -3.44759 -3.06495 0
M  V30 6355 H 620.937 -3.28776 -2.83 0
M  V30 6356 H 621.608 -3.24799 -4.46329 0
M  V30 6357 H 624.084 -1.39973 -3.9185 0
M  V30 6358 H 622.96 -1.42217 -5.30156 0
M  V30 6359 H 623.221 0.0747794 -4.42037 0
M  V30 6360 N 622.28 1.30327 -0.886154 0
M  V30 6361 C 623.227 2.28099 -0.352069 0
M  V30 6362 C 624.197 1.56433 0.558397 0
M  V30 6363 O 625.382 1.84492 0.486561 0
M  V30 6364 C 622.522 3.42456 0.426346 0
M  V30 6365 C 621.635 4.28938 -0.513472 0
M  V30 6366 C 620.77 5.30458 0.280657 0
M  V30 6367 C 619.809 6.0859 -0.654556 0
M  V30 6368 N 618.946 7.02022 0.104322 0
M  V30 6369 H 623.786 2.73166 -1.19097 0
M  V30 6370 H 621.323 1.34367 -0.598662 0
M  V30 6371 H 623.281 4.07518 0.893587 0
M  V30 6372 H 621.911 2.98455 1.22981 0
M  V30 6373 H 620.963 3.64173 -1.09921 0
M  V30 6374 H 622.275 4.83399 -1.2299 0
M  V30 6375 H 621.429 6.01273 0.8097 0
M  V30 6376 H 620.168 4.76693 1.03029 0
M  V30 6377 H 619.173 5.36651 -1.19522 0
M  V30 6378 H 620.398 6.64443 -1.4033 0
M  V30 6379 H 618.344 6.50645 0.836472 0
M  V30 6380 H 618.261 7.53979 -0.552453 0
M  V30 6381 H 619.529 7.77077 0.614069 0
M  V30 6382 N 623.758 0.647228 1.43697 0
M  V30 6383 C 625.169 0.238689 1.85168 0
M  V30 6384 C 625.52 -1.21345 1.54175 0
M  V30 6385 O 624.645 -1.92542 0.987743 0
M  V30 6386 C 625.24 0.426422 3.36106 0
M  V30 6387 C 623.799 0.0722541 3.76331 0
M  V30 6388 C 622.946 0.732153 2.6746 0
M  V30 6389 H 625.897 0.851309 1.33934 0
M  V30 6390 H 625.918 -0.32987 3.79067 0
M  V30 6391 H 625.43 1.48339 3.58632 0
M  V30 6392 H 623.531 -0.982355 3.59417 0
M  V30 6393 H 623.644 0.493541 4.76551 0
M  V30 6394 H 622.008 0.16594 2.54159 0
M  V30 6395 H 622.791 1.79204 2.92816 0
M  V30 6396 N 625.236 -1.5273 0.388769 0
M  V30 6397 C 626.482 -2.02545 -0.186351 0
M  V30 6398 C 626.837 -1.27017 -1.44514 0
M  V30 6399 O 626.13 -0.361948 -1.8815 0
M  V30 6400 C 626.324 -3.53765 -0.508445 0
M  V30 6401 C 626.153 -4.43938 0.71758 0
M  V30 6402 C 624.923 -4.89933 1.23668 0
M  V30 6403 C 627.121 -4.89113 1.58974 0
M  V30 6404 N 625.103 -5.64176 2.42031 0
M  V30 6405 C 626.474 -5.61931 2.61979 0
M  V30 6406 C 628.529 -4.71155 1.60989 0
M  V30 6407 C 627.232 -6.18698 3.66886 0
M  V30 6408 C 629.258 -5.28804 2.64803 0
M  V30 6409 C 628.62 -6.01527 3.6653 0
M  V30 6410 H 624.719 -0.781413 -0.0302921 0
M  V30 6411 H 627.303 -1.87104 0.538539 0
M  V30 6412 H 625.474 -3.6932 -1.20239 0
M  V30 6413 H 627.206 -3.9028 -1.07067 0
M  V30 6414 H 623.961 -4.66833 0.797763 0
M  V30 6415 H 624.385 -6.05949 3.01919 0
M  V30 6416 H 629.027 -4.14435 0.836881 0
M  V30 6417 H 626.745 -6.74501 4.45055 0
M  V30 6418 H 630.331 -5.1679 2.67245 0
M  V30 6419 H 629.211 -6.45339 4.45542 0
M  V30 6420 N 626.714 -0.118576 -1.57153 0
M  V30 6421 C 627.646 0.862247 -2.12363 0
M  V30 6422 C 628.659 1.23025 -1.06625 0
M  V30 6423 O 629.848 1.17927 -1.33998 0
M  V30 6424 C 626.948 2.16425 -2.60794 0
M  V30 6425 C 626.121 1.96801 -3.90626 0
M  V30 6426 C 625.18 3.10726 -4.2466 0
M  V30 6427 O 624.206 2.83659 -4.93484 0
M  V30 6428 N 625.408 4.37147 -3.81946 0
M  V30 6429 H 628.173 0.390564 -2.97144 0
M  V30 6430 H 625.734 0.0658591 -1.61766 0
M  V30 6431 H 627.726 2.91633 -2.80593 0
M  V30 6432 H 626.296 2.54943 -1.80895 0
M  V30 6433 H 625.516 1.05787 -3.7974 0
M  V30 6434 H 626.804 1.80993 -4.7552 0
M  V30 6435 H 626.202 4.62014 -3.26435 0
M  V30 6436 H 624.759 5.09229 -4.06853 0
M  V30 6437 N 628.193 1.56834 0.155195 0
M  V30 6438 C 629.123 2.00678 1.19376 0
M  V30 6439 C 630.104 0.884973 1.45266 0
M  V30 6440 O 631.289 1.1522 1.56326 0
M  V30 6441 C 628.419 2.38042 2.5289 0
M  V30 6442 C 627.373 3.53332 2.41538 0
M  V30 6443 C 626.699 3.76485 3.79688 0
M  V30 6444 C 627.999 4.86265 1.9064 0
M  V30 6445 H 629.693 2.87688 0.829232 0
M  V30 6446 H 627.239 1.38407 0.397445 0
M  V30 6447 H 629.192 2.67314 3.25763 0
M  V30 6448 H 627.916 1.4796 2.91162 0
M  V30 6449 H 626.575 3.24213 1.71117 0
M  V30 6450 H 626.223 2.83667 4.15382 0
M  V30 6451 H 625.923 4.54068 3.72956 0
M  V30 6452 H 627.447 4.08174 4.54122 0
M  V30 6453 H 628.861 5.14308 2.53299 0
M  V30 6454 H 627.258 5.67597 1.94818 0
M  V30 6455 H 628.328 4.77184 0.861596 0
M  V30 6456 N 629.671 -0.424282 1.51781 0
M  V30 6457 C 630.601 -1.52305 1.7699 0
M  V30 6458 C 631.582 -1.5839 0.620209 0
M  V30 6459 O 632.767 -1.73908 0.864268 0
M  V30 6460 C 629.897 -2.90271 1.90683 0
M  V30 6461 C 628.851 -2.99043 3.06198 0
M  V30 6462 C 628.177 -4.39116 3.05092 0
M  V30 6463 C 629.477 -2.7192 4.45934 0
M  V30 6464 H 631.171 -1.31461 2.68995 0
M  V30 6465 H 628.717 -0.630985 1.29439 0
M  V30 6466 H 630.67 -3.6711 2.06901 0
M  V30 6467 H 629.394 -3.12376 0.953365 0
M  V30 6468 H 628.053 -2.24646 2.89706 0
M  V30 6469 H 627.701 -4.58207 2.07498 0
M  V30 6470 H 627.401 -4.45912 3.82669 0
M  V30 6471 H 628.925 -5.17911 3.2342 0
M  V30 6472 H 630.339 -3.38487 4.62709 0
M  V30 6473 H 628.736 -2.90111 5.25315 0
M  V30 6474 H 629.806 -1.67445 4.55072 0
M  V30 6475 N 631.149 -1.42148 -0.680565 0
M  V30 6476 C 632.059 -1.47565 -1.82378 0
M  V30 6477 C 633.075 -0.36489 -1.70131 0
M  V30 6478 O 634.251 -0.614916 -1.91783 0
M  V30 6479 C 631.316 -1.37013 -3.18478 0
M  V30 6480 C 630.377 -2.58532 -3.42724 0
M  V30 6481 C 629.61 -2.48473 -4.72331 0
M  V30 6482 O 629.833 -1.51745 -5.49845 0
M  V30 6483 O 628.767 -3.38503 -4.97694 0
M  V30 6484 H 632.593 -2.44045 -1.80764 0
M  V30 6485 H 630.178 -1.23849 -0.835569 0
M  V30 6486 H 632.06 -1.33468 -3.99705 0
M  V30 6487 H 630.735 -0.436552 -3.20743 0
M  V30 6488 H 629.642 -2.67652 -2.61368 0
M  V30 6489 H 630.975 -3.50769 -3.45286 0
M  V30 6490 N 632.627 0.916307 -1.28225 0
M  V30 6491 C 633.575 2.03977 -1.11786 0
M  V30 6492 C 634.569 1.69358 -0.0378265 0
M  V30 6493 O 635.775 1.78925 -0.196405 0
M  V30 6494 H 632.15 0.66829 -0.344809 0
M  V30 6495 H 634.121 2.14985 -2.06939 0
M  V30 6496 C 632.87 3.38518 -0.7938 0
M  V30 6497 H 632.193 3.65649 -1.61682 0
M  V30 6498 H 633.633 4.17864 -0.718719 0
M  V30 6499 C 632.092 3.33134 0.502353 0
M  V30 6500 O 632.622 3.71281 1.53341 0
M  V30 6501 N 630.828 2.86229 0.502147 0
M  V30 6502 H 630.375 2.55382 -0.337338 0
M  V30 6503 H 630.333 2.83009 1.36942 0
M  V30 6504 N 634.105 1.10431 1.1244 0
M  V30 6505 C 635.038 0.696987 2.17296 0
M  V30 6506 C 636.016 -0.301673 1.59777 0
M  V30 6507 O 637.2 -0.200583 1.8743 0
M  V30 6508 C 634.327 0.0284094 3.38688 0
M  V30 6509 C 633.373 0.990536 4.14838 0
M  V30 6510 S 634.206 2.50785 4.73146 0
M  V30 6511 C 635.362 1.85198 5.97873 0
M  V30 6512 H 635.595 1.58523 2.51511 0
M  V30 6513 H 633.128 0.921312 1.239 0
M  V30 6514 H 635.086 -0.351009 4.08997 0
M  V30 6515 H 633.747 -0.836629 3.02753 0
M  V30 6516 H 632.94 0.469991 5.01804 0
M  V30 6517 H 632.542 1.31186 3.50237 0
M  V30 6518 H 634.834 1.18217 6.67106 0
M  V30 6519 H 635.777 2.7012 6.54554 0
M  V30 6520 H 636.185 1.31653 5.48933 0
M  V30 6521 N 635.583 -1.29855 0.893053 0
M  V30 6522 C 636.813 -1.99686 0.530019 0
M  V30 6523 C 637.221 -1.67066 -0.888012 0
M  V30 6524 O 636.564 -0.908366 -1.5967 0
M  V30 6525 C 636.626 -3.53855 0.63457 0
M  V30 6526 C 636.29 -4.10013 2.01837 0
M  V30 6527 C 637.287 -4.25406 2.98874 0
M  V30 6528 C 634.972 -4.45202 2.32595 0
M  V30 6529 C 636.966 -4.7521 4.24799 0
M  V30 6530 C 634.653 -4.94704 3.58763 0
M  V30 6531 C 635.651 -5.09662 4.5468 0
M  V30 6532 O 635.339 -5.58093 5.78608 0
M  V30 6533 H 635.071 -0.644913 0.20264 0
M  V30 6534 H 637.625 -1.66518 1.20253 0
M  V30 6535 H 635.855 -3.86583 -0.0949477 0
M  V30 6536 H 637.544 -4.04922 0.281648 0
M  V30 6537 H 638.31 -3.98515 2.76425 0
M  V30 6538 H 634.189 -4.32822 1.58701 0
M  V30 6539 H 637.733 -4.86801 4.99671 0
M  V30 6540 H 633.63 -5.21032 3.81046 0
M  V30 6541 H 634.398 -5.7642 5.81104 0
M  V30 6542 N 637.061 -0.65484 -1.43351 0
M  V30 6543 C 638.009 0.0476784 -2.32551 0
M  V30 6544 C 639.003 0.811403 -1.48703 0
M  V30 6545 O 640.209 0.721621 -1.64902 0
M  V30 6546 H 636.584 0.0342038 -0.751222 0
M  V30 6547 H 638.555 -0.722342 -2.89525 0
M  V30 6548 C 637.304 0.999251 -3.33032 0
M  V30 6549 H 636.627 0.421005 -3.97577 0
M  V30 6550 H 638.067 1.45986 -3.98076 0
M  V30 6551 C 636.526 2.09606 -2.63756 0
M  V30 6552 O 637.056 3.18004 -2.4543 0
M  V30 6553 N 635.262 1.86207 -2.23103 0
M  V30 6554 H 634.809 0.980555 -2.38208 0
M  V30 6555 H 634.767 2.59787 -1.77081 0
M  V30 6556 N 638.539 1.52521 -0.396863 0
M  V30 6557 C 639.469 2.29582 0.425941 0
M  V30 6558 C 640.45 1.33281 1.05689 0
M  V30 6559 O 641.635 1.62181 1.06823 0
M  V30 6560 C 638.765 3.10821 1.54943 0
M  V30 6561 C 637.719 4.15069 1.04413 0
M  V30 6562 C 637.045 4.84578 2.26028 0
M  V30 6563 C 638.345 5.22191 0.106767 0
M  V30 6564 H 640.039 2.98612 -0.217045 0
M  V30 6565 H 637.585 1.43611 -0.105826 0
M  V30 6566 H 639.538 3.63492 2.13193 0
M  V30 6567 H 638.262 2.39538 2.22011 0
M  V30 6568 H 636.921 3.63389 0.484118 0
M  V30 6569 H 636.569 4.09835 2.91623 0
M  V30 6570 H 636.269 5.55043 1.92876 0
M  V30 6571 H 637.793 5.40056 2.84906 0
M  V30 6572 H 639.207 5.70176 0.597685 0
M  V30 6573 H 637.604 5.99947 -0.135352 0
M  V30 6574 H 638.674 4.77531 -0.842134 0
M  V30 6575 N 640.017 0.126909 1.57088 0
M  V30 6576 C 641.245 -0.53667 1.99819 0
M  V30 6577 C 641.66 -1.5972 1.00673 0
M  V30 6578 O 641.017 -1.825 0.000747365 0
M  V30 6579 C 641.068 -1.15563 3.42531 0
M  V30 6580 O 640.789 -0.137483 4.37884 0
M  V30 6581 C 642.29 -1.90176 4.00435 0
M  V30 6582 H 639.51 -0.141443 0.655923 0
M  V30 6583 H 642.054 0.215578 2.03361 0
M  V30 6584 H 640.209 -1.85861 3.39904 0
M  V30 6585 H 640.623 -0.588229 5.21191 0
M  V30 6586 H 642.097 -2.28801 5.02349 0
M  V30 6587 H 642.574 -2.78002 3.40017 0
M  V30 6588 H 643.18 -1.24623 4.06632 0
M  V30 6589 N 641.495 -1.56914 -0.146875 0
M  V30 6590 C 642.742 -1.83356 -0.859467 0
M  V30 6591 C 643.07 -0.707811 -1.81164 0
M  V30 6592 O 642.325 0.303155 -1.93338 0
M  V30 6593 C 642.624 -3.16128 -1.66727 0
M  V30 6594 C 642.29 -4.42586 -0.861881 0
M  V30 6595 C 640.952 -4.76929 -0.639687 0
M  V30 6596 C 643.304 -5.20344 -0.298643 0
M  V30 6597 C 640.632 -5.86491 0.156451 0
M  V30 6598 C 642.984 -6.30742 0.484536 0
M  V30 6599 C 641.648 -6.63635 0.717306 0
M  V30 6600 H 640.918 -0.670947 -0.314501 0
M  V30 6601 H 643.565 -1.91104 -0.123108 0
M  V30 6602 H 641.87 -3.03831 -2.47374 0
M  V30 6603 H 643.567 -3.33802 -2.2221 0
M  V30 6604 H 640.157 -4.15662 -1.04513 0
M  V30 6605 H 644.341 -4.94186 -0.457585 0
M  V30 6606 H 639.597 -6.10419 0.346292 0
M  V30 6607 H 643.771 -6.90188 0.928105 0
M  V30 6608 H 641.398 -7.48367 1.33607 0
M  V30 6609 N 642.974 0.416227 -1.52004 0
M  V30 6610 C 643.924 1.50558 -1.7122 0
M  V30 6611 C 644.908 1.50613 -0.56609 0
M  V30 6612 O 646.1 1.56709 -0.822874 0
M  V30 6613 C 643.229 2.88556 -1.85984 0
M  V30 6614 C 642.315 2.93177 -3.06445 0
M  V30 6615 N 642.706 2.67505 -4.29272 0
M  V30 6616 C 641.004 3.24343 -3.06133 0
M  V30 6617 C 641.705 2.78511 -5.10692 0
M  V30 6618 N 640.681 3.11087 -4.45787 0
M  V30 6619 H 644.483 1.29494 -2.63834 0
M  V30 6620 H 641.997 0.62384 -1.4994 0
M  V30 6621 H 643.994 3.66954 -1.97865 0
M  V30 6622 H 642.654 3.10624 -0.945654 0
M  V30 6623 H 643.665 2.42033 -4.57865 0
M  V30 6624 H 640.342 3.52051 -2.24425 0
M  V30 6625 H 641.732 2.62438 -6.18527 0
M  V30 6626 N 644.452 1.42507 0.673017 0
M  V30 6627 C 645.698 1.43284 1.43519 0
M  V30 6628 C 646.031 0.049668 1.94136 0
M  V30 6629 O 645.306 -0.926369 1.71022 0
M  V30 6630 C 645.589 2.45874 2.63093 0
M  V30 6631 C 645.442 3.93388 2.18096 0
M  V30 6632 C 646.761 2.45431 3.6531 0
M  V30 6633 H 643.88 0.521752 0.520522 0
M  V30 6634 H 646.522 1.73932 0.764701 0
M  V30 6635 H 644.672 2.19869 3.20296 0
M  V30 6636 H 646.344 4.30379 1.66046 0
M  V30 6637 H 644.587 4.07169 1.49652 0
M  V30 6638 H 645.258 4.60752 3.03993 0
M  V30 6639 H 647.734 2.68561 3.17827 0
M  V30 6640 H 646.61 3.19189 4.46553 0
M  V30 6641 H 646.871 1.48092 4.16559 0
M  V30 6642 N 645.93 -0.909495 1.28709 0
M  V30 6643 C 647.178 -1.65577 1.15882 0
M  V30 6644 C 647.499 -1.928 -0.292108 0
M  V30 6645 O 646.769 -1.54716 -1.20166 0
M  V30 6646 H 645.349 -0.613714 0.425869 0
M  V30 6647 H 648.011 -1.09108 1.61498 0
M  V30 6648 H 647.107 -2.61634 1.70159 0
M  V30 6649 N 647.408 -1.11026 -1.11852 0
M  V30 6650 C 648.656 -0.854769 -1.83134 0
M  V30 6651 C 648.977 0.621375 -1.84835 0
M  V30 6652 O 648.247 1.45129 -1.31584 0
M  V30 6653 H 646.827 -0.313229 -0.678157 0
M  V30 6654 H 649.489 -1.40178 -1.35411 0
M  V30 6655 H 648.585 -1.22311 -2.87135 0
M  V30 6656 N 648.886 1.2938 -0.899927 0
M  V30 6657 C 649.816 2.30144 -0.39446 0
M  V30 6658 C 650.797 1.61611 0.530639 0
M  V30 6659 O 651.982 1.89119 0.441319 0
M  V30 6660 C 649.112 3.45229 0.37868 0
M  V30 6661 C 648.066 4.25564 -0.456012 0
M  V30 6662 C 647.392 5.32848 0.444637 0
M  V30 6663 C 648.692 4.93651 -1.70605 0
M  V30 6664 H 650.386 2.72673 -1.23653 0
M  V30 6665 H 647.932 1.31086 -0.596034 0
M  V30 6666 H 649.885 4.14797 0.743037 0
M  V30 6667 H 648.609 3.01545 1.25453 0
M  V30 6668 H 647.268 3.57704 -0.802704 0
M  V30 6669 H 646.916 4.85408 1.31863 0
M  V30 6670 H 646.616 5.87497 -0.110154 0
M  V30 6671 H 648.14 6.05268 0.805182 0
M  V30 6672 H 649.554 5.55655 -1.41141 0
M  V30 6673 H 647.951 5.58233 -2.20217 0
M  V30 6674 H 649.021 4.18926 -2.4419 0
M  V30 6675 N 650.364 0.662433 1.43002 0
M  V30 6676 C 651.775 0.258315 1.84904 0
M  V30 6677 C 652.126 -1.19703 1.55453 0
M  V30 6678 O 651.251 -1.91484 1.00811 0
M  V30 6679 C 651.846 0.462047 3.35635 0
M  V30 6680 C 650.405 0.112165 3.76233 0
M  V30 6681 C 649.552 0.760479 2.66668 0
M  V30 6682 H 652.503 0.865467 1.33024 0
M  V30 6683 H 652.524 -0.289646 3.79396 0
M  V30 6684 H 652.036 1.52135 3.57039 0
M  V30 6685 H 650.137 -0.944179 3.60439 0
M  V30 6686 H 650.25 0.544058 4.76001 0
M  V30 6687 H 648.614 0.192887 2.53969 0
M  V30 6688 H 649.397 1.82299 2.90898 0
M  V30 6689 N 651.842 -1.52309 0.404946 0
M  V30 6690 C 652.772 -2.29805 -0.41376 0
M  V30 6691 C 653.753 -1.3384 -1.0498 0
M  V30 6692 O 654.938 -1.62745 -1.05961 0
M  V30 6693 C 652.068 -3.11639 -1.53292 0
M  V30 6694 C 651.022 -4.15616 -1.02211 0
M  V30 6695 C 650.348 -4.8577 -2.23455 0
M  V30 6696 C 651.648 -5.2224 -0.0790725 0
M  V30 6697 H 653.342 -2.98493 0.232878 0
M  V30 6698 H 650.888 -1.43552 0.113441 0
M  V30 6699 H 652.841 -3.64618 -2.11262 0
M  V30 6700 H 651.565 -2.40712 -2.20738 0
M  V30 6701 H 650.224 -3.63641 -0.46484 0
M  V30 6702 H 649.872 -4.11376 -2.89445 0
M  V30 6703 H 649.572 -5.56058 -1.89929 0
M  V30 6704 H 651.096 -5.4156 -2.82038 0
M  V30 6705 H 652.51 -5.70485 -0.567438 0
M  V30 6706 H 650.907 -5.99867 0.167167 0
M  V30 6707 H 651.977 -4.77078 0.867447 0
M  V30 6708 N 653.32 -0.135238 -1.57019 0
M  V30 6709 C 654.736 0.221262 -1.58059 0
M  V30 6710 C 654.936 1.65538 -1.14889 0
M  V30 6711 O 653.992 2.37985 -0.843751 0
M  V30 6712 C 655.305 -0.0268114 -3.00688 0
M  V30 6713 C 656.853 0.0378206 -3.12977 0
M  V30 6714 C 657.328 -0.182769 -4.57635 0
M  V30 6715 N 658.819 -0.129292 -4.6302 0
M  V30 6716 C 659.554 -0.274648 -5.72742 0
M  V30 6717 N 659.05 -0.477075 -6.91155 0
M  V30 6718 N 660.843 -0.213077 -5.61696 0
M  V30 6719 H 652.994 -1.07177 -1.83376 0
M  V30 6720 H 655.257 -0.423338 -0.848227 0
M  V30 6721 H 654.963 -1.01889 -3.36618 0
M  V30 6722 H 654.837 0.697863 -3.70688 0
M  V30 6723 H 657.224 1.02043 -2.76896 0
M  V30 6724 H 657.305 -0.718996 -2.45487 0
M  V30 6725 H 656.949 -1.16243 -4.94419 0
M  V30 6726 H 656.879 0.59423 -5.23237 0
M  V30 6727 H 659.37 0.0229896 -3.77893 0
M  V30 6728 H 659.683 -0.578413 -7.70632 0
M  V30 6729 H 658.028 -0.513252 -6.93102 0
M  V30 6730 H 661.219 -0.0557796 -4.68067 0
M  V30 6731 H 661.392 -0.329796 -6.4716 0
M  V30 6732 N 654.798 1.5699 0.138552 0
M  V30 6733 C 656.045 1.83809 0.849732 0
M  V30 6734 C 656.373 0.717409 1.80786 0
M  V30 6735 O 655.628 -0.292897 1.93496 0
M  V30 6736 C 655.927 3.17007 1.65049 0
M  V30 6737 C 655.593 4.43037 0.838398 0
M  V30 6738 C 654.255 4.77262 0.614385 0
M  V30 6739 C 656.607 5.20495 0.271044 0
M  V30 6740 C 653.935 5.864 -0.187552 0
M  V30 6741 C 656.287 6.30476 -0.517979 0
M  V30 6742 C 654.951 6.63245 -0.75249 0
M  V30 6743 H 654.221 0.672605 0.310939 0
M  V30 6744 H 656.868 1.91166 0.112971 0
M  V30 6745 H 655.173 3.05138 2.4576 0
M  V30 6746 H 656.87 3.34975 2.20437 0
M  V30 6747 H 653.46 4.16211 1.02307 0
M  V30 6748 H 657.644 4.94422 0.431371 0
M  V30 6749 H 652.9 6.10226 -0.378659 0
M  V30 6750 H 657.074 6.89686 -0.964694 0
M  V30 6751 H 654.701 7.47648 -1.37573 0
M  V30 6752 N 656.276 -0.40816 1.52223 0
M  V30 6753 C 657.553 -1.16807 1.56893 0
M  V30 6754 C 657.933 -2.08169 0.350537 0
M  V30 6755 O 657.281 -2.18684 -0.662536 0
M  V30 6756 C 657.491 -1.94451 2.8981 0
M  V30 6757 C 658.839 -2.50484 3.42845 0
M  V30 6758 O 659.863 -2.0463 2.91556 0
M  V30 6759 O 658.722 -3.34192 4.3241 0
M  V30 6760 H 655.816 -0.533382 0.632007 0
M  V30 6761 H 658.362 -0.414862 1.64551 0
M  V30 6762 H 657.134 -1.27527 3.69936 0
M  V30 6763 H 656.757 -2.76775 2.85449 0
M  V30 6764 N 657.755 -1.42862 -0.66545 0
M  V30 6765 C 658.98 -1.47456 -1.45848 0
M  V30 6766 C 659.405 -0.0900312 -1.87884 0
M  V30 6767 O 658.763 0.913587 -1.56599 0
M  V30 6768 C 658.811 -2.41514 -2.67774 0
M  V30 6769 O 657.915 -1.89296 -3.66389 0
M  V30 6770 H 657.256 -0.499236 -0.437789 0
M  V30 6771 H 659.786 -1.8765 -0.815394 0
M  V30 6772 H 659.796 -2.58409 -3.15735 0
M  V30 6773 H 658.471 -3.42099 -2.36519 0
M  V30 6774 H 657.048 -1.82003 -3.25468 0
M  V30 6775 N 659.233 0.902656 -1.29189 0
M  V30 6776 C 660.458 1.69167 -1.19989 0
M  V30 6777 C 660.883 1.86607 0.236495 0
M  V30 6778 O 660.241 1.38425 1.17082 0
M  V30 6779 C 660.289 3.05532 -1.91527 0
M  V30 6780 O 659.393 3.93621 -1.2303 0
M  V30 6781 H 658.734 0.517584 -0.415936 0
M  V30 6782 H 661.264 1.12785 -1.70706 0
M  V30 6783 H 661.274 3.55693 -1.99866 0
M  V30 6784 H 659.949 2.92156 -2.96003 0
M  V30 6785 H 658.526 3.52055 -1.22928 0
M  V30 6786 N 660.711 1.11618 1.11262 0
M  V30 6787 C 661.959 0.864469 1.82678 0
M  V30 6788 C 662.28 -0.611564 1.85162 0
M  V30 6789 O 661.55 -1.44429 1.32352 0
M  V30 6790 H 660.13 0.316821 0.676486 0
M  V30 6791 H 662.792 1.40894 1.34666 0
M  V30 6792 H 661.888 1.23832 2.86482 0
M  V30 6793 N 662.189 -1.289 0.906776 0
M  V30 6794 C 663.137 -2.29477 0.379873 0
M  V30 6795 C 664.131 -1.61068 -0.524747 0
M  V30 6796 O 665.337 -1.75344 -0.406765 0
M  V30 6797 H 661.712 -0.744742 0.10423 0
M  V30 6798 H 663.683 -2.71353 1.24137 0
M  V30 6799 C 662.432 -3.45713 -0.371154 0
M  V30 6800 H 661.755 -3.98551 0.315716 0
M  V30 6801 H 663.195 -4.18105 -0.704581 0
M  V30 6802 C 661.654 -2.9774 -1.57646 0
M  V30 6803 O 662.184 -2.99618 -2.67567 0
M  V30 6804 N 660.39 -2.53485 -1.42105 0
M  V30 6805 H 659.937 -2.52156 -0.526783 0
M  V30 6806 H 659.895 -2.21747 -2.22881 0
M  V30 6807 N 663.667 -0.670007 -1.42649 0
M  V30 6808 C 664.913 -0.190568 -2.01903 0
M  V30 6809 C 665.246 1.19817 -1.52832 0
M  V30 6810 O 664.521 1.80342 -0.728485 0
M  V30 6811 C 664.804 -0.21991 -3.59428 0
M  V30 6812 C 664.657 -1.64376 -4.18689 0
M  V30 6813 C 665.976 0.434519 -4.3795 0
M  V30 6814 H 663.095 -0.0707219 -0.733599 0
M  V30 6815 H 665.737 -0.853883 -1.69732 0
M  V30 6816 H 663.887 0.344894 -3.86966 0
M  V30 6817 H 665.559 -2.26044 -4.02122 0
M  V30 6818 H 663.802 -2.18591 -3.747 0
M  V30 6819 H 664.473 -1.61601 -5.27815 0
M  V30 6820 H 666.949 -0.0462156 -4.16074 0
M  V30 6821 H 665.825 0.38333 -5.4756 0
M  V30 6822 H 666.086 1.51135 -4.15464 0
M  V30 6823 N 665.145 1.52092 -0.413018 0
M  V30 6824 C 666.422 1.94356 0.22024 0
M  V30 6825 C 666.802 1.35017 1.62277 0
M  V30 6826 O 666.15 0.527511 2.22328 0
M  V30 6827 C 666.36 3.48289 0.222638 0
M  V30 6828 C 667.708 4.22313 0.440098 0
M  V30 6829 O 668.732 3.54919 0.301826 0
M  V30 6830 O 667.591 5.41829 0.712984 0
M  V30 6831 H 664.685 0.814536 0.14304 0
M  V30 6832 H 667.231 1.63083 -0.469242 0
M  V30 6833 H 666.003 3.83872 -0.758836 0
M  V30 6834 H 665.626 3.85934 0.956057 0
M  V30 6835 N 666.623 0.143563 1.56945 0
M  V30 6836 C 667.556 -0.835367 2.1236 0
M  V30 6837 C 668.534 -1.24466 1.04627 0
M  V30 6838 O 669.718 -1.34138 1.32436 0
M  V30 6839 C 666.845 -2.12123 2.64048 0
M  V30 6840 C 665.891 -1.85812 3.83896 0
M  V30 6841 S 666.724 -1.05222 5.25061 0
M  V30 6842 C 667.88 -2.34935 5.80135 0
M  V30 6843 H 668.113 -0.364109 2.95062 0
M  V30 6844 H 665.646 -0.0706601 1.54238 0
M  V30 6845 H 667.604 -2.85993 2.94479 0
M  V30 6846 H 666.265 -2.56364 1.81483 0
M  V30 6847 H 665.458 -2.81151 4.18294 0
M  V30 6848 H 665.06 -1.20052 3.54208 0
M  V30 6849 H 667.352 -3.3061 5.91357 0
M  V30 6850 H 668.295 -2.05046 6.77762 0
M  V30 6851 H 668.703 -2.45426 5.08356 0
M  V30 6852 N 668.101 -1.57061 -0.130224 0
M  V30 6853 C 669.011 -2.02802 -1.17934 0
M  V30 6854 C 670.027 -0.946378 -1.46013 0
M  V30 6855 O 671.203 -1.25708 -1.57351 0
M  V30 6856 C 668.268 -2.41368 -2.48882 0
M  V30 6857 C 667.329 -3.63561 -2.28301 0
M  V30 6858 C 666.562 -4.00279 -3.53005 0
M  V30 6859 O 666.785 -3.37463 -4.59864 0
M  V30 6860 O 665.719 -4.93441 -3.44673 0
M  V30 6861 H 669.545 -2.92394 -0.820958 0
M  V30 6862 H 667.13 -1.45475 -0.340197 0
M  V30 6863 H 669.012 -2.66958 -3.26054 0
M  V30 6864 H 667.687 -1.54926 -2.84217 0
M  V30 6865 H 666.594 -3.43136 -1.49025 0
M  V30 6866 H 667.927 -4.50673 -1.97875 0
M  V30 6867 N 669.579 0.400081 -1.52437 0
M  V30 6868 C 670.809 1.16598 -1.70553 0
M  V30 6869 C 671.217 1.8451 -0.418665 0
M  V30 6870 O 670.56 1.73069 0.615855 0
M  V30 6871 C 670.622 2.26517 -2.7916 0
M  V30 6872 C 670.286 1.78666 -4.20628 0
M  V30 6873 C 671.283 1.26946 -5.04163 0
M  V30 6874 C 668.968 1.85225 -4.66902 0
M  V30 6875 C 670.962 0.824187 -6.32049 0
M  V30 6876 C 668.649 1.40309 -5.94774 0
M  V30 6877 C 669.647 0.889922 -6.77178 0
M  V30 6878 O 669.335 0.447281 -8.02655 0
M  V30 6879 H 669.067 0.356023 -0.574651 0
M  V30 6880 H 671.621 0.475598 -1.99818 0
M  V30 6881 H 669.851 2.98946 -2.45292 0
M  V30 6882 H 671.54 2.88237 -2.85787 0
M  V30 6883 H 672.306 1.21244 -4.69601 0
M  V30 6884 H 668.185 2.24111 -4.02859 0
M  V30 6885 H 671.729 0.422958 -6.96317 0
M  V30 6886 H 667.626 1.45693 -6.28843 0
M  V30 6887 H 668.394 0.569768 -8.16514 0
M  V30 6888 N 671.057 1.43213 0.657864 0
M  V30 6889 C 672.334 1.35063 1.41483 0
M  V30 6890 C 672.714 -0.0038314 2.111 0
M  V30 6891 O 672.062 -1.02018 2.04462 0
M  V30 6892 C 672.272 2.53061 2.40335 0
M  V30 6893 C 673.62 2.9594 3.04474 0
M  V30 6894 O 674.644 2.53074 2.50663 0
M  V30 6895 O 673.503 3.70184 4.02027 0
M  V30 6896 H 670.597 0.533517 0.631893 0
M  V30 6897 H 673.143 1.55253 0.685162 0
M  V30 6898 H 671.915 3.43283 1.87809 0
M  V30 6899 H 671.538 2.34945 3.20759 0
M  V30 6900 N 672.536 -0.895792 1.29666 0
M  V30 6901 C 673.466 -2.01673 1.17688 0
M  V30 6902 C 674.447 -1.69955 0.0701317 0
M  V30 6903 O 675.632 -1.9258 0.250289 0
M  V30 6904 C 672.762 -3.36568 0.856681 0
M  V30 6905 C 671.716 -3.82509 1.92017 0
M  V30 6906 C 671.042 -5.14574 1.4532 0
M  V30 6907 C 672.342 -4.02409 3.32963 0
M  V30 6908 H 674.036 -2.11953 2.11463 0
M  V30 6909 H 671.582 -1.01839 1.01807 0
M  V30 6910 H 673.535 -4.14498 0.759577 0
M  V30 6911 H 672.259 -3.26391 -0.116763 0
M  V30 6912 H 670.918 -3.068 2.00673 0
M  V30 6913 H 670.566 -5.00815 0.468325 0
M  V30 6914 H 670.266 -5.46283 2.16447 0
M  V30 6915 H 671.79 -5.9504 1.36968 0
M  V30 6916 H 673.204 -4.70808 3.27127 0
M  V30 6917 H 671.601 -4.45478 4.02082 0
M  V30 6918 H 672.671 -3.06616 3.75652 0
M  V30 6919 N 674.014 -1.12206 -1.10668 0
M  V30 6920 C 674.961 -0.787716 -2.16942 0
M  V30 6921 C 675.931 0.244442 -1.64291 0
M  V30 6922 O 677.116 0.119558 -1.90425 0
M  V30 6923 C 674.256 -0.24584 -3.44223 0
M  V30 6924 C 673.369 -1.33552 -4.10838 0
M  V30 6925 C 672.504 -0.753337 -5.25831 0
M  V30 6926 C 671.543 -1.82231 -5.84344 0
M  V30 6927 N 670.68 -1.25902 -6.90719 0
M  V30 6928 H 675.52 -1.69809 -2.44885 0
M  V30 6929 H 673.057 -0.847862 -1.20207 0
M  V30 6930 H 675.015 0.0863639 -4.17111 0
M  V30 6931 H 673.645 0.627702 -3.16638 0
M  V30 6932 H 672.697 -1.78454 -3.35944 0
M  V30 6933 H 674.009 -2.14396 -4.50373 0
M  V30 6934 H 673.163 -0.37166 -6.05561 0
M  V30 6935 H 671.902 0.0863297 -4.87624 0
M  V30 6936 H 670.907 -2.2132 -5.03287 0
M  V30 6937 H 672.132 -2.66515 -6.24617 0
M  V30 6938 H 670.078 -0.44114 -6.54515 0
M  V30 6939 H 669.995 -2.00408 -7.28953 0
M  V30 6940 H 671.263 -0.904498 -7.74235 0
M  V30 6941 N 675.492 1.28418 -0.913599 0
M  V30 6942 C 676.422 2.29713 -0.418847 0
M  V30 6943 C 677.403 1.62165 0.513469 0
M  V30 6944 O 678.588 1.89576 0.421235 0
M  V30 6945 C 675.718 3.45612 0.342042 0
M  V30 6946 C 674.672 4.25056 -0.501123 0
M  V30 6947 C 673.998 5.3329 0.388097 0
M  V30 6948 C 675.298 4.91814 -1.75831 0
M  V30 6949 H 676.992 2.71346 -1.26538 0
M  V30 6950 H 674.538 1.30446 -0.609903 0
M  V30 6951 H 676.491 4.15562 0.699 0
M  V30 6952 H 675.215 3.02858 1.22248 0
M  V30 6953 H 673.874 3.56833 -0.840598 0
M  V30 6954 H 673.522 4.8678 1.26707 0
M  V30 6955 H 673.222 5.87347 -0.172459 0
M  V30 6956 H 674.746 6.06088 0.74094 0
M  V30 6957 H 676.16 5.54126 -1.47026 0
M  V30 6958 H 674.557 5.55866 -2.26126 0
M  V30 6959 H 675.627 4.16313 -2.4862 0
M  V30 6960 N 676.97 0.677563 1.42291 0
M  V30 6961 C 678.216 0.209962 2.02313 0
M  V30 6962 C 678.571 -1.1714 1.52631 0
M  V30 6963 O 677.864 -1.7756 0.719938 0
M  V30 6964 C 678.058 0.187229 3.56909 0
M  V30 6965 C 677.887 1.56484 4.21595 0
M  V30 6966 C 676.657 2.16329 4.56651 0
M  V30 6967 C 678.855 2.50805 4.49 0
M  V30 6968 N 676.837 3.46842 5.06531 0
M  V30 6969 C 678.208 3.65976 5.00461 0
M  V30 6970 C 680.263 2.493 4.30992 0
M  V30 6971 C 678.966 4.79899 5.35807 0
M  V30 6972 C 680.992 3.62322 4.67415 0
M  V30 6973 C 680.354 4.76221 5.19031 0
M  V30 6974 H 676.453 0.121815 0.772454 0
M  V30 6975 H 679.037 0.891148 1.73109 0
M  V30 6976 H 677.208 -0.46338 3.85626 0
M  V30 6977 H 678.94 -0.293512 4.03634 0
M  V30 6978 H 675.695 1.6879 4.42501 0
M  V30 6979 H 676.119 4.13694 5.35898 0
M  V30 6980 H 680.761 1.62467 3.90339 0
M  V30 6981 H 678.479 5.67406 5.75392 0
M  V30 6982 H 682.065 3.62388 4.55155 0
M  V30 6983 H 680.945 5.62228 5.46689 0
M  V30 6984 N 678.448 -1.51871 0.421078 0
M  V30 6985 C 679.694 -2.02237 -0.151014 0
M  V30 6986 C 680.027 -1.30554 -1.43768 0
M  V30 6987 O 679.302 -0.41546 -1.90011 0
M  V30 6988 C 679.585 -3.5802 -0.386482 0
M  V30 6989 C 679.438 -4.40339 0.9177 0
M  V30 6990 C 680.757 -4.24444 -1.16342 0
M  V30 6991 H 677.876 -0.735062 -0.0534102 0
M  V30 6992 H 680.518 -1.81656 0.556888 0
M  V30 6993 H 678.668 -3.75688 -0.989494 0
M  V30 6994 H 680.34 -4.34357 1.55344 0
M  V30 6995 H 678.583 -4.06073 1.526 0
M  V30 6996 H 679.254 -5.47451 0.707187 0
M  V30 6997 H 681.73 -4.10948 -0.652788 0
M  V30 6998 H 680.606 -5.33358 -1.29693 0
M  V30 6999 H 680.867 -3.84204 -2.18724 0
M  V30 7000 N 679.926 -0.151884 -1.56866 0
M  V30 7001 C 681.172 0.492327 -1.97352 0
M  V30 7002 C 681.527 1.62156 -1.03553 0
M  V30 7003 O 680.82 1.91467 -0.0714872 0
M  V30 7004 C 681.014 1.04074 -3.41911 0
M  V30 7005 C 680.843 -0.0338306 -4.49687 0
M  V30 7006 C 679.613 -0.476914 -5.03044 0
M  V30 7007 C 681.811 -0.827105 -5.07606 0
M  V30 7008 N 679.793 -1.53382 -5.9443 0
M  V30 7009 C 681.164 -1.73439 -5.95247 0
M  V30 7010 C 683.219 -0.874351 -4.90163 0
M  V30 7011 C 681.922 -2.68488 -6.67313 0
M  V30 7012 C 683.948 -1.81269 -5.62935 0
M  V30 7013 C 683.31 -2.70749 -6.50288 0
M  V30 7014 H 679.409 0.148822 -0.767708 0
M  V30 7015 H 681.993 -0.247615 -1.93119 0
M  V30 7016 H 680.164 1.75027 -3.46728 0
M  V30 7017 H 681.896 1.65197 -3.69448 0
M  V30 7018 H 678.651 -0.0782493 -4.73535 0
M  V30 7019 H 679.075 -2.06217 -6.44828 0
M  V30 7020 H 683.717 -0.196628 -4.22343 0
M  V30 7021 H 681.435 -3.37257 -7.34359 0
M  V30 7022 H 685.021 -1.85511 -5.51432 0
M  V30 7023 H 683.901 -3.42175 -7.0561 0
M  V30 7024 N 681.404 1.57128 0.121893 0
M  V30 7025 C 682.336 1.96773 1.17529 0
M  V30 7026 C 683.349 0.866668 1.37814 0
M  V30 7027 O 684.538 1.14497 1.3694 0
M  V30 7028 C 681.638 2.24832 2.53582 0
M  V30 7029 C 680.811 3.56138 2.53939 0
M  V30 7030 C 679.87 3.72443 3.71716 0
M  V30 7031 O 678.896 4.44584 3.55434 0
M  V30 7032 N 680.098 3.10993 4.90167 0
M  V30 7033 H 682.863 2.87743 0.838086 0
M  V30 7034 H 680.424 1.58881 0.311199 0
M  V30 7035 H 682.416 2.32958 3.30927 0
M  V30 7036 H 680.986 1.40002 2.79496 0
M  V30 7037 H 680.206 3.59226 1.62329 0
M  V30 7038 H 681.494 4.42448 2.51231 0
M  V30 7039 H 680.892 2.52345 5.06299 0
M  V30 7040 H 679.449 3.24644 5.65198 0
M  V30 7041 N 682.882 -0.391992 1.52647 0
M  V30 7042 C 684.13 -1.13507 1.67214 0
M  V30 7043 C 684.451 -1.90575 0.41304 0
M  V30 7044 O 683.721 -1.87348 -0.572498 0
M  V30 7045 H 682.301 -0.422013 0.616372 0
M  V30 7046 H 684.963 -0.44502 1.89751 0
M  V30 7047 H 684.059 -1.83964 2.52118 0
M  V30 7048 N 684.36 -1.4356 -0.65026 0
M  V30 7049 C 685.585 -1.48995 -1.44275 0
M  V30 7050 C 686.01 -0.109954 -1.87778 0
M  V30 7051 O 685.368 0.896926 -1.57559 0
M  V30 7052 C 685.416 -2.44341 -2.65198 0
M  V30 7053 O 684.52 -1.93172 -3.6436 0
M  V30 7054 H 683.861 -0.503852 -0.432469 0
M  V30 7055 H 686.391 -1.88504 -0.795446 0
M  V30 7056 H 686.401 -2.61743 -3.12977 0
M  V30 7057 H 685.076 -3.44588 -2.32877 0
M  V30 7058 H 683.653 -1.85445 -3.23519 0
M  V30 7059 N 685.838 0.888903 -1.30139 0
M  V30 7060 C 687.084 1.6428 -1.18912 0
M  V30 7061 C 687.417 1.92499 0.256477 0
M  V30 7062 O 686.692 1.54312 1.18397 0
M  V30 7063 C 686.975 2.9851 -2.01405 0
M  V30 7064 C 686.828 2.77288 -3.54163 0
M  V30 7065 C 688.147 3.99383 -1.84882 0
M  V30 7066 H 685.266 0.596148 -0.433333 0
M  V30 7067 H 687.908 1.0289 -1.5973 0
M  V30 7068 H 686.058 3.50907 -1.66722 0
M  V30 7069 H 687.73 2.31709 -3.98884 0
M  V30 7070 H 685.973 2.11867 -3.78543 0
M  V30 7071 H 686.644 3.72717 -4.07168 0
M  V30 7072 H 689.12 3.56132 -2.15196 0
M  V30 7073 H 687.996 4.91222 -2.44934 0
M  V30 7074 H 688.257 4.34674 -0.806902 0
M  V30 7075 N 687.317 1.12792 1.10072 0
M  V30 7076 C 688.728 0.899346 1.63611 0
M  V30 7077 C 689.079 -0.565547 1.87872 0
M  V30 7078 O 688.204 -1.43081 1.62348 0
M  V30 7079 C 688.799 1.62608 2.97227 0
M  V30 7080 C 687.358 1.44356 3.47618 0
M  V30 7081 C 686.505 1.65958 2.22156 0
M  V30 7082 H 689.456 1.28216 0.935223 0
M  V30 7083 H 689.477 1.0793 3.64872 0
M  V30 7084 H 688.989 2.69221 2.79538 0
M  V30 7085 H 687.09 0.400148 3.70445 0
M  V30 7086 H 687.203 2.20218 4.25489 0
M  V30 7087 H 685.567 1.08395 2.30484 0
M  V30 7088 H 686.35 2.73877 2.06993 0
M  V30 7089 N 688.795 -1.27931 0.920396 0
M  V30 7090 C 690.211 -1.47085 0.619537 0
M  V30 7091 C 690.411 -1.83463 -0.833291 0
M  V30 7092 O 689.467 -1.94363 -1.61181 0
M  V30 7093 C 690.78 -2.56878 1.56314 0
M  V30 7094 C 692.328 -2.70743 1.57058 0
M  V30 7095 C 692.803 -3.83687 2.50097 0
M  V30 7096 N 694.294 -3.9105 2.48262 0
M  V30 7097 C 695.029 -4.77842 3.16945 0
M  V30 7098 N 694.525 -5.69176 3.94982 0
M  V30 7099 N 696.318 -4.71509 3.06 0
M  V30 7100 H 688.469 -1.02601 1.85975 0
M  V30 7101 H 690.732 -0.511682 0.798051 0
M  V30 7102 H 690.438 -2.36923 2.59923 0
M  V30 7103 H 690.312 -3.54117 1.29928 0
M  V30 7104 H 692.699 -2.90083 0.541832 0
M  V30 7105 H 692.78 -1.74015 1.8749 0
M  V30 7106 H 692.424 -3.65101 3.53077 0
M  V30 7107 H 692.354 -4.79827 2.16964 0
M  V30 7108 H 694.845 -3.25738 1.91581 0
M  V30 7109 H 695.158 -6.32245 4.44394 0
M  V30 7110 H 693.503 -5.68995 3.99086 0
M  V30 7111 H 696.694 -3.99151 2.44533 0
M  V30 7112 H 696.867 -5.38933 3.59799 0
M  V30 7113 N 690.273 -0.685099 -1.4193 0
M  V30 7114 C 691.203 -0.0273506 -2.33484 0
M  V30 7115 C 692.184 0.778366 -1.51246 0
M  V30 7116 O 693.369 0.733449 -1.79817 0
M  V30 7117 C 690.499 0.917272 -3.34968 0
M  V30 7118 C 689.453 0.21941 -4.27437 0
M  V30 7119 C 688.779 1.27768 -5.1921 0
M  V30 7120 C 690.079 -0.907894 -5.14349 0
M  V30 7121 H 691.773 -0.791994 -2.88735 0
M  V30 7122 H 689.319 -0.382308 -1.38832 0
M  V30 7123 H 691.272 1.38657 -3.97935 0
M  V30 7124 H 689.996 1.71346 -2.78043 0
M  V30 7125 H 688.655 -0.229757 -3.65879 0
M  V30 7126 H 688.303 2.06612 -4.58607 0
M  V30 7127 H 688.003 0.815803 -5.81909 0
M  V30 7128 H 689.527 1.7477 -5.85054 0
M  V30 7129 H 690.941 -0.519348 -5.70943 0
M  V30 7130 H 689.338 -1.2962 -5.85934 0
M  V30 7131 H 690.408 -1.75218 -4.52136 0
M  V30 7132 N 691.751 1.51645 -0.429126 0
M  V30 7133 C 692.701 2.24388 0.404217 0
M  V30 7134 C 693.685 1.26294 0.996933 0
M  V30 7135 O 694.877 1.51428 0.916434 0
M  V30 7136 C 692.006 3.08338 1.50938 0
M  V30 7137 C 691.092 4.13857 0.926464 0
M  V30 7138 N 691.483 5.05749 0.0719732 0
M  V30 7139 C 689.781 4.29695 1.19491 0
M  V30 7140 C 690.482 5.81143 -0.254528 0
M  V30 7141 N 689.458 5.42408 0.359763 0
M  V30 7142 H 693.26 2.92794 -0.254697 0
M  V30 7143 H 690.774 1.60606 -0.240712 0
M  V30 7144 H 692.771 3.59022 2.11918 0
M  V30 7145 H 691.431 2.41475 2.17072 0
M  V30 7146 H 692.442 5.17066 -0.293854 0
M  V30 7147 H 689.119 3.74059 1.85434 0
M  V30 7148 H 690.509 6.65159 -0.949365 0
M  V30 7149 N 693.229 0.160201 1.56784 0
M  V30 7150 C 694.506 -0.533355 1.88188 0
M  V30 7151 C 694.886 -1.82072 1.06831 0
M  V30 7152 O 694.234 -2.27946 0.158959 0
M  V30 7153 C 694.444 -0.786034 3.40033 0
M  V30 7154 C 695.792 -1.12097 4.09536 0
M  V30 7155 O 696.816 -0.874949 3.45287 0
M  V30 7156 O 695.675 -1.58457 5.23023 0
M  V30 7157 H 692.769 -0.273589 0.780434 0
M  V30 7158 H 695.315 0.197803 1.68543 0
M  V30 7159 H 694.087 0.124515 3.91102 0
M  V30 7160 H 693.71 -1.57091 3.65251 0
M  V30 7161 N 694.707 -1.5719 -0.113559 0
M  V30 7162 C 695.953 -1.85412 -0.821597 0
M  V30 7163 C 696.286 -0.746722 -1.7927 0
M  V30 7164 O 695.561 0.246971 -1.92926 0
M  V30 7165 C 695.844 -3.24233 -1.56669 0
M  V30 7166 C 695.697 -4.45578 -0.614823 0
M  V30 7167 C 697.016 -3.60697 -2.52161 0
M  V30 7168 H 694.135 -0.674406 -0.29723 0
M  V30 7169 H 696.777 -1.89807 -0.085694 0
M  V30 7170 H 694.927 -3.20617 -2.19401 0
M  V30 7171 H 696.599 -4.613 0.00407137 0
M  V30 7172 H 694.842 -4.33738 0.0732332 0
M  V30 7173 H 695.513 -5.39395 -1.17292 0
M  V30 7174 H 697.989 -3.65139 -1.99532 0
M  V30 7175 H 696.865 -4.58798 -3.01323 0
M  V30 7176 H 697.126 -2.88403 -3.35076 0
M  V30 7177 N 696.185 0.383891 -1.52853 0
M  V30 7178 C 697.433 1.12619 -1.67814 0
M  V30 7179 C 697.754 1.90354 -0.423141 0
M  V30 7180 O 697.024 1.87649 0.562554 0
M  V30 7181 H 695.604 0.418738 -0.618601 0
M  V30 7182 H 698.266 0.43495 -1.89985 0
M  V30 7183 H 697.362 1.82624 -2.5309 0
M  V30 7184 N 697.663 1.43903 0.642637 0
M  V30 7185 C 699.079 1.27536 0.959519 0
M  V30 7186 C 699.279 0.202751 2.00477 0
M  V30 7187 O 698.335 -0.415256 2.49062 0
M  V30 7188 C 699.648 2.6432 1.43372 0
M  V30 7189 C 701.196 2.71937 1.54981 0
M  V30 7190 C 701.671 4.09164 2.05789 0
M  V30 7191 N 703.162 4.11282 2.13076 0
M  V30 7192 C 703.897 5.14303 2.53534 0
M  V30 7193 N 703.393 6.27693 2.93212 0
M  V30 7194 N 705.186 5.01657 2.53567 0
M  V30 7195 H 697.337 2.12344 -0.0488376 0
M  V30 7196 H 699.6 0.947124 0.0407559 0
M  V30 7197 H 699.306 3.43826 0.740048 0
M  V30 7198 H 699.18 2.90432 2.40685 0
M  V30 7199 H 701.567 1.92757 2.23448 0
M  V30 7200 H 701.648 2.49578 0.560739 0
M  V30 7201 H 701.292 4.88815 1.37921 0
M  V30 7202 H 701.222 4.28893 3.05546 0
M  V30 7203 H 703.713 3.2944 1.85143 0
M  V30 7204 H 704.026 7.02125 3.22863 0
M  V30 7205 H 702.371 6.31149 2.90991 0
M  V30 7206 H 705.562 4.12134 2.21952 0
M  V30 7207 H 705.735 5.82072 2.84774 0
M  V30 7208 N 699.141 -0.881989 1.30609 0
M  V30 7209 C 700.388 -1.63405 1.19604 0
M  V30 7210 C 700.716 -1.92905 -0.248574 0
M  V30 7211 O 699.971 -1.55062 -1.19391 0
M  V30 7212 C 700.27 -2.97999 1.97311 0
M  V30 7213 C 699.936 -2.88039 3.46907 0
M  V30 7214 C 698.598 -2.85029 3.877 0
M  V30 7215 C 700.95 -2.75948 4.42156 0
M  V30 7216 C 698.278 -2.67772 5.2203 0
M  V30 7217 C 700.63 -2.60228 5.76597 0
M  V30 7218 C 699.294 -2.55595 6.16626 0
M  V30 7219 H 698.564 -0.597941 0.437662 0
M  V30 7220 H 701.211 -1.02524 1.61744 0
M  V30 7221 H 699.516 -3.62847 1.47815 0
M  V30 7222 H 701.213 -3.55156 1.86186 0
M  V30 7223 H 697.803 -2.91192 3.14492 0
M  V30 7224 H 701.987 -2.77337 4.1158 0
M  V30 7225 H 697.243 -2.62601 5.52133 0
M  V30 7226 H 701.417 -2.49847 6.50038 0
M  V30 7227 H 699.044 -2.41981 7.20659 0
M  V30 7228 N 700.619 -1.13374 -1.09472 0
M  V30 7229 C 701.567 -0.806105 -2.18185 0
M  V30 7230 C 702.561 0.21136 -1.68076 0
M  V30 7231 O 703.767 0.0685558 -1.79869 0
M  V30 7232 H 700.142 -0.242901 -0.71169 0
M  V30 7233 H 702.113 -1.73115 -2.43051 0
M  V30 7234 C 700.862 -0.287928 -3.46506 0
M  V30 7235 H 700.185 -1.06217 -3.85432 0
M  V30 7236 H 701.625 -0.0971054 -4.23889 0
M  V30 7237 C 700.084 0.986256 -3.22141 0
M  V30 7238 O 700.614 2.06217 -3.44728 0
M  V30 7239 N 698.82 0.917153 -2.75747 0
M  V30 7240 H 698.367 0.0414609 -2.57567 0
M  V30 7241 H 698.325 1.77029 -2.59823 0
M  V30 7242 N 702.098 1.27442 -0.927168 0
M  V30 7243 C 703.346 1.94007 -0.566203 0
M  V30 7244 C 703.667 1.7323 0.895345 0
M  V30 7245 O 702.937 1.07973 1.63459 0
M  V30 7246 H 701.517 0.717917 -0.206409 0
M  V30 7247 H 704.179 1.55161 -1.17945 0
M  V30 7248 H 703.275 3.02401 -0.772028 0
M  V30 7249 N 703.576 0.692616 1.41565 0
M  V30 7250 C 704.801 0.229776 2.06123 0
M  V30 7251 C 705.226 -1.11119 1.5177 0
M  V30 7252 O 704.584 -1.69498 0.643444 0
M  V30 7253 C 704.632 0.19469 3.60074 0
M  V30 7254 O 703.736 -0.831366 4.03933 0
M  V30 7255 H 703.077 0.113002 0.654314 0
M  V30 7256 H 705.607 0.946645 1.81383 0
M  V30 7257 H 705.617 0.0245487 4.07993 0
M  V30 7258 H 704.292 1.17339 3.99004 0
M  V30 7259 H 702.869 -0.630819 3.67526 0
M  V30 7260 N 705.054 -1.51416 0.437162 0
M  V30 7261 C 705.984 -2.30631 -0.364922 0
M  V30 7262 C 706.965 -1.36037 -1.02118 0
M  V30 7263 O 708.15 -1.64956 -1.02485 0
M  V30 7264 C 705.28 -3.1482 -1.46648 0
M  V30 7265 C 704.234 -4.17691 -0.933717 0
M  V30 7266 C 703.56 -4.904 -2.13101 0
M  V30 7267 C 704.86 -5.2229 0.0317201 0
M  V30 7268 H 706.554 -2.97932 0.29614 0
M  V30 7269 H 704.1 -1.4328 0.143865 0
M  V30 7270 H 706.053 -3.69017 -2.03481 0
M  V30 7271 H 704.777 -2.4534 -2.15583 0
M  V30 7272 H 703.436 -3.64545 -0.387602 0
M  V30 7273 H 703.084 -4.17423 -2.80654 0
M  V30 7274 H 702.784 -5.59962 -1.78092 0
M  V30 7275 H 704.308 -5.4742 -2.70487 0
M  V30 7276 H 705.722 -5.7156 -0.446302 0
M  V30 7277 H 704.119 -5.99378 0.29437 0
M  V30 7278 H 705.189 -4.75131 0.968447 0
M  V30 7279 N 706.532 -0.168513 -1.56696 0
M  V30 7280 C 707.948 0.187686 -1.58493 0
M  V30 7281 C 708.148 1.63063 -1.18375 0
M  V30 7282 O 707.204 2.36142 -0.894042 0
M  V30 7283 C 708.517 -0.0905858 -3.00564 0
M  V30 7284 C 710.065 -0.028575 -3.12987 0
M  V30 7285 C 710.54 -0.279799 -4.57145 0
M  V30 7286 N 712.031 -0.227476 -4.62641 0
M  V30 7287 C 712.766 -0.396073 -5.7203 0
M  V30 7288 N 712.262 -0.623572 -6.89988 0
M  V30 7289 N 714.055 -0.332173 -5.61118 0
M  V30 7290 H 706.206 -1.11042 -1.81062 0
M  V30 7291 H 708.469 -0.441235 -0.839056 0
M  V30 7292 H 708.175 -1.09006 -3.34381 0
M  V30 7293 H 708.049 0.619078 -3.72085 0
M  V30 7294 H 710.436 0.961471 -2.78998 0
M  V30 7295 H 710.517 -0.770905 -2.43907 0
M  V30 7296 H 710.161 -1.26704 -4.91842 0
M  V30 7297 H 710.091 0.48311 -5.24379 0
M  V30 7298 H 712.582 -0.0571723 -3.77857 0
M  V30 7299 H 712.895 -0.741745 -7.69232 0
M  V30 7300 H 711.24 -0.660153 -6.91858 0
M  V30 7301 H 714.431 -0.155051 -4.67843 0
M  V30 7302 H 714.604 -0.466994 -6.46315 0
M  V30 7303 N 708.01 1.57248 0.105221 0
M  V30 7304 C 709.238 1.89768 0.82437 0
M  V30 7305 C 709.653 0.761192 1.72775 0
M  V30 7306 O 709.01 -0.267342 1.80531 0
M  V30 7307 C 709.061 3.2184 1.64625 0
M  V30 7308 O 708.782 4.31115 0.779217 0
M  V30 7309 C 710.283 3.68155 2.46935 0
M  V30 7310 H 707.503 0.628031 0.236259 0
M  V30 7311 H 710.047 2.04321 0.085485 0
M  V30 7312 H 708.202 3.08915 2.33775 0
M  V30 7313 H 708.616 5.06897 1.34745 0
M  V30 7314 H 710.09 4.6329 3.00111 0
M  V30 7315 H 710.567 2.95492 3.24932 0
M  V30 7316 H 711.173 3.83914 1.83002 0
M  V30 7317 N 709.488 -0.375779 1.53054 0
M  V30 7318 C 710.398 -1.48381 1.81715 0
M  V30 7319 C 711.414 -1.59087 0.704795 0
M  V30 7320 O 712.59 -1.75174 0.993785 0
M  V30 7321 C 709.655 -2.83767 1.99192 0
M  V30 7322 C 708.716 -2.82673 3.23102 0
M  V30 7323 C 707.949 -4.11601 3.39736 0
M  V30 7324 O 708.172 -5.07243 2.60885 0
M  V30 7325 O 707.106 -4.18034 4.33049 0
M  V30 7326 H 710.932 -1.27089 2.7583 0
M  V30 7327 H 708.517 -0.564902 1.38308 0
M  V30 7328 H 710.399 -3.64004 2.12318 0
M  V30 7329 H 709.074 -3.05057 1.08267 0
M  V30 7330 H 707.981 -2.0117 3.15407 0
M  V30 7331 H 709.314 -2.66335 4.13916 0
M  V30 7332 N 710.966 -1.44241 -0.634997 0
M  V30 7333 C 712.382 -1.28043 -0.952742 0
M  V30 7334 C 712.582 -0.21338 -2.00367 0
M  V30 7335 O 711.638 0.402042 -2.49279 0
M  V30 7336 C 712.951 -2.65076 -1.41968 0
M  V30 7337 C 714.499 -2.72755 -1.53537 0
M  V30 7338 C 714.974 -4.10249 -2.03616 0
M  V30 7339 N 716.465 -4.12406 -2.10892 0
M  V30 7340 C 717.2 -5.15641 -2.50803 0
M  V30 7341 N 716.696 -6.29239 -2.89879 0
M  V30 7342 N 718.489 -5.02995 -2.50903 0
M  V30 7343 H 710.64 -2.12315 0.060098 0
M  V30 7344 H 712.903 -0.947326 -0.0357325 0
M  V30 7345 H 712.609 -3.44213 -0.721804 0
M  V30 7346 H 712.483 -2.91704 -2.39141 0
M  V30 7347 H 714.87 -1.93939 -2.22422 0
M  V30 7348 H 714.951 -2.49872 -0.547496 0
M  V30 7349 H 714.595 -4.8954 -1.35327 0
M  V30 7350 H 714.525 -4.30507 -3.03268 0
M  V30 7351 H 717.016 -3.30417 -1.83393 0
M  V30 7352 H 717.329 -7.03827 -3.19135 0
M  V30 7353 H 715.674 -6.32683 -2.8764 0
M  V30 7354 H 718.865 -4.13306 -2.19763 0
M  V30 7355 H 719.038 -5.83574 -2.81683 0
M  V30 7356 N 712.444 0.87505 -1.31075 0
M  V30 7357 C 713.374 1.99775 -1.20881 0
M  V30 7358 C 714.355 1.69822 -0.0971612 0
M  V30 7359 O 715.54 1.92158 -0.280895 0
M  V30 7360 C 712.67 3.35163 -0.910118 0
M  V30 7361 C 711.624 3.79406 -1.98078 0
M  V30 7362 C 710.95 5.12197 -1.53488 0
M  V30 7363 C 712.25 3.97061 -3.39323 0
M  V30 7364 H 713.944 2.08562 -2.14808 0
M  V30 7365 H 711.49 1.00207 -1.03415 0
M  V30 7366 H 713.443 4.13237 -0.825423 0
M  V30 7367 H 712.167 3.26536 0.064822 0
M  V30 7368 H 710.826 3.03568 -2.05528 0
M  V30 7369 H 710.474 5.00007 -0.547941 0
M  V30 7370 H 710.174 5.4277 -2.2511 0
M  V30 7371 H 711.698 5.92785 -1.46417 0
M  V30 7372 H 713.112 4.65545 -3.34576 0
M  V30 7373 H 711.509 4.39025 -4.09118 0
M  V30 7374 H 712.579 3.00601 -3.80483 0
M  V30 7375 N 713.922 1.13953 1.08869 0
M  V30 7376 C 714.869 0.82213 2.15661 0
M  V30 7377 C 715.839 -0.218274 1.6466 0
M  V30 7378 O 717.024 -0.0892475 1.90591 0
M  V30 7379 C 714.164 0.300572 3.43789 0
M  V30 7380 C 713.277 1.40071 4.08661 0
M  V30 7381 C 712.412 0.836897 5.24566 0
M  V30 7382 C 711.451 1.91504 5.81371 0
M  V30 7383 N 710.588 1.36875 6.88629 0
M  V30 7384 H 715.428 1.73683 2.42153 0
M  V30 7385 H 712.965 0.866879 1.18843 0
M  V30 7386 H 714.923 -0.0199943 4.17195 0
M  V30 7387 H 713.553 -0.577248 3.17597 0
M  V30 7388 H 712.605 1.83776 3.33062 0
M  V30 7389 H 713.917 2.21534 4.46905 0
M  V30 7390 H 713.071 0.467953 6.04893 0
M  V30 7391 H 711.81 -0.00874207 4.87699 0
M  V30 7392 H 710.815 2.29299 4.99702 0
M  V30 7393 H 712.04 2.76419 6.20298 0
M  V30 7394 H 709.986 0.545211 6.5373 0
M  V30 7395 H 709.903 2.1198 7.25672 0
M  V30 7396 H 711.171 1.02756 7.72698 0
M  V30 7397 N 715.4 -1.26948 0.933913 0
M  V30 7398 C 716.649 -1.93378 0.573409 0
M  V30 7399 C 716.962 -1.74148 -0.890614 0
M  V30 7400 O 718.168 -2.34971 -1.36017 0
M  V30 7401 C 716.624 -3.46449 0.974747 0
M  V30 7402 C 716.232 -3.74425 2.45988 0
M  V30 7403 C 717.976 -4.18924 0.685791 0
M  V30 7404 C 715.883 -5.209 2.8003 0
M  V30 7405 H 714.813 -0.723952 0.210736 0
M  V30 7406 H 717.464 -1.44143 1.13557 0
M  V30 7407 H 715.846 -3.94528 0.341181 0
M  V30 7408 H 717.02 -3.37079 3.14188 0
M  V30 7409 H 715.335 -3.15167 2.72138 0
M  V30 7410 H 717.932 -5.26786 0.916546 0
M  V30 7411 H 718.275 -4.14587 -0.377217 0
M  V30 7412 H 718.808 -3.76687 1.27874 0
M  V30 7413 H 715.547 -5.30332 3.85264 0
M  V30 7414 H 715.067 -5.59369 2.16485 0
M  V30 7415 H 716.746 -5.88837 2.68105 0
M  V30 7416 N 716.879 -0.700114 -1.41195 0
M  V30 7417 C 718.295 -0.372114 -1.55201 0
M  V30 7418 C 718.495 1.12053 -1.6747 0
M  V30 7419 O 717.551 1.90642 -1.65566 0
M  V30 7420 C 718.864 -1.12462 -2.78878 0
M  V30 7421 C 720.412 -1.10941 -2.92679 0
M  V30 7422 C 720.887 -1.84376 -4.19249 0
M  V30 7423 N 722.378 -1.81368 -4.26216 0
M  V30 7424 C 723.113 -2.35024 -5.23021 0
M  V30 7425 N 722.609 -2.9717 -6.25829 0
M  V30 7426 N 724.402 -2.25254 -5.14992 0
M  V30 7427 H 716.553 -1.66816 -1.31477 0
M  V30 7428 H 718.816 -0.704223 -0.634644 0
M  V30 7429 H 718.522 -2.17937 -2.76037 0
M  V30 7430 H 718.396 -0.706152 -3.70531 0
M  V30 7431 H 720.783 -0.062911 -2.95033 0
M  V30 7432 H 720.864 -1.56698 -2.02187 0
M  V30 7433 H 720.508 -2.89008 -4.17656 0
M  V30 7434 H 720.438 -1.3605 -5.08722 0
M  V30 7435 H 722.929 -1.36062 -3.52556 0
M  V30 7436 H 723.242 -3.35668 -6.96094 0
M  V30 7437 H 721.587 -3.01249 -6.26318 0
M  V30 7438 H 724.778 -1.76372 -4.33602 0
M  V30 7439 H 724.951 -2.67373 -5.90268 0
M  V30 7440 N 718.357 1.51182 -0.445186 0
M  V30 7441 C 719.603 2.03097 0.111049 0
M  V30 7442 C 719.958 1.32293 1.397 0
M  V30 7443 O 719.251 0.431529 1.86677 0
M  V30 7444 C 719.445 3.55408 0.376797 0
M  V30 7445 C 719.274 4.40969 -0.88185 0
M  V30 7446 C 718.044 4.85006 -1.41766 0
M  V30 7447 C 720.242 4.82876 -1.77017 0
M  V30 7448 N 718.224 5.54804 -2.62803 0
M  V30 7449 C 719.595 5.51821 -2.82654 0
M  V30 7450 C 721.65 4.64855 -1.78365 0
M  V30 7451 C 720.353 6.04655 -3.89595 0
M  V30 7452 C 722.379 5.18612 -2.84246 0
M  V30 7453 C 721.741 5.87509 -3.88603 0
M  V30 7454 H 717.84 0.781999 0.0012696 0
M  V30 7455 H 720.424 1.84976 -0.60761 0
M  V30 7456 H 718.595 3.73528 1.06449 0
M  V30 7457 H 720.327 3.93985 0.925082 0
M  V30 7458 H 717.082 4.6355 -0.970476 0
M  V30 7459 H 717.506 5.94326 -3.24201 0
M  V30 7460 H 722.148 4.11043 -0.990119 0
M  V30 7461 H 719.866 6.57518 -4.69782 0
M  V30 7462 H 723.452 5.06515 -2.86241 0
M  V30 7463 H 722.332 6.28358 -4.69186 0
M  V30 7464 N 719.835 0.176821 1.56605 0
M  V30 7465 C 720.785 -0.763718 2.14829 0
M  V30 7466 C 721.769 -1.18903 1.08401 0
M  V30 7467 O 722.961 -1.15048 1.3451 0
M  V30 7468 C 720.09 -1.99069 2.7969 0
M  V30 7469 C 719.176 -1.58711 3.93283 0
M  V30 7470 N 719.567 -0.893423 4.97847 0
M  V30 7471 C 717.865 -1.87774 4.04545 0
M  V30 7472 C 718.566 -0.693866 5.77547 0
M  V30 7473 N 717.542 -1.23699 5.29339 0
M  V30 7474 H 721.344 -0.224811 2.93039 0
M  V30 7475 H 718.858 -0.0236563 1.62383 0
M  V30 7476 H 720.855 -2.67478 3.19783 0
M  V30 7477 H 719.515 -2.53449 2.02962 0
M  V30 7478 H 720.526 -0.550868 5.14962 0
M  V30 7479 H 717.203 -2.43793 3.38927 0
M  V30 7480 H 718.593 -0.144899 6.71744 0
M  V30 7481 N 721.313 -1.57302 -0.09688 0
M  V30 7482 C 722.541 -1.90202 -0.814295 0
M  V30 7483 C 722.956 -0.770344 -1.72369 0
M  V30 7484 O 722.313 0.257764 -1.8067 0
M  V30 7485 C 722.364 -3.22708 -1.62916 0
M  V30 7486 O 722.085 -4.31522 -0.756343 0
M  V30 7487 C 723.586 -3.69459 -2.44979 0
M  V30 7488 H 720.806 -0.629275 -0.232925 0
M  V30 7489 H 723.35 -2.04364 -0.0746482 0
M  V30 7490 H 721.505 -3.1015 -2.32133 0
M  V30 7491 H 721.919 -5.07604 -1.32054 0
M  V30 7492 H 723.393 -4.64875 -2.9765 0
M  V30 7493 H 723.87 -2.97211 -3.23361 0
M  V30 7494 H 724.476 -3.84879 -1.80964 0
M  V30 7495 N 722.791 0.367657 -1.53252 0
M  V30 7496 C 724.016 1.13566 -1.73544 0
M  V30 7497 C 724.441 1.82329 -0.462344 0
M  V30 7498 O 723.799 1.71655 0.583472 0
M  V30 7499 C 723.847 2.14322 -2.89997 0
M  V30 7500 O 722.951 3.21359 -2.58461 0
M  V30 7501 H 722.292 0.329614 -0.576412 0
M  V30 7502 H 724.822 0.425417 -2.00128 0
M  V30 7503 H 724.832 2.57958 -3.16104 0
M  V30 7504 H 723.507 1.63664 -3.82344 0
M  V30 7505 H 722.084 2.8271 -2.43165 0
M  V30 7506 N 724.269 1.44576 0.627338 0
M  V30 7507 C 725.546 1.38033 1.38586 0
M  V30 7508 C 725.926 0.0409468 2.1106 0
M  V30 7509 O 725.274 -0.976582 2.0658 0
M  V30 7510 C 725.484 2.58102 2.34913 0
M  V30 7511 C 726.832 3.02332 2.98129 0
M  V30 7512 O 727.856 2.58334 2.45238 0
M  V30 7513 O 726.715 3.78628 3.94085 0
M  V30 7514 H 723.809 0.546801 0.620434 0
M  V30 7515 H 726.355 1.56672 0.652077 0
M  V30 7516 H 725.127 3.4719 1.80485 0
M  V30 7517 H 724.75 2.41696 3.15703 0
M  V30 7518 N 725.747 -0.868086 1.31537 0
M  V30 7519 C 726.695 -1.99688 1.1928 0
M  V30 7520 C 727.689 -1.69101 0.100656 0
M  V30 7521 O 728.895 -1.78073 0.262677 0
M  V30 7522 H 725.27 -0.655032 0.369374 0
M  V30 7523 H 727.241 -2.07157 2.14776 0
M  V30 7524 C 725.99 -3.35338 0.918892 0
M  V30 7525 H 725.313 -3.59396 1.75142 0
M  V30 7526 H 726.753 -4.14909 0.873311 0
M  V30 7527 C 725.212 -3.34769 -0.378366 0
M  V30 7528 O 725.742 -3.76716 -1.39456 0
M  V30 7529 N 723.948 -2.87895 -0.39557 0
M  V30 7530 H 723.495 -2.53954 0.431889 0
M  V30 7531 H 723.453 -2.87897 -1.26344 0
M  V30 7532 N 727.225 -1.14528 -1.08264 0
M  V30 7533 C 728.157 -0.791325 -2.15106 0
M  V30 7534 C 729.17 0.192449 -1.61659 0
M  V30 7535 O 730.359 -0.0294704 -1.78476 0
M  V30 7536 C 727.459 -0.154183 -3.38549 0
M  V30 7537 C 726.632 -1.17305 -4.21377 0
M  V30 7538 C 725.691 -0.559401 -5.23218 0
M  V30 7539 O 724.717 -1.22277 -5.55911 0
M  V30 7540 N 725.919 0.663159 -5.767 0
M  V30 7541 H 728.684 -1.71076 -2.46075 0
M  V30 7542 H 726.245 -1.0399 -1.24087 0
M  V30 7543 H 728.237 0.268884 -4.03806 0
M  V30 7544 H 726.807 0.668418 -3.0537 0
M  V30 7545 H 726.027 -1.773 -3.52077 0
M  V30 7546 H 727.315 -1.86128 -4.73533 0
M  V30 7547 H 726.713 1.22066 -5.52373 0
M  V30 7548 H 725.27 1.02871 -6.43631 0
M  V30 7549 N 728.703 1.26451 -0.940633 0
M  V30 7550 C 729.65 2.264 -0.448497 0
M  V30 7551 C 730.62 1.5866 0.491546 0
M  V30 7552 O 731.805 1.86389 0.407874 0
M  V30 7553 C 728.945 3.43956 0.280715 0
M  V30 7554 C 728.058 4.26374 -0.694937 0
M  V30 7555 C 727.193 5.31171 0.0554186 0
M  V30 7556 C 726.232 6.05266 -0.912091 0
M  V30 7557 N 725.369 7.01833 -0.193524 0
M  V30 7558 H 730.209 2.67869 -1.30576 0
M  V30 7559 H 727.746 1.31707 -0.655112 0
M  V30 7560 H 729.704 4.10941 0.71994 0
M  V30 7561 H 728.334 3.03403 1.10212 0
M  V30 7562 H 727.386 3.59183 -1.25267 0
M  V30 7563 H 728.698 4.77748 -1.43382 0
M  V30 7564 H 727.852 6.04166 0.553951 0
M  V30 7565 H 726.591 4.80634 0.827183 0
M  V30 7566 H 725.596 5.31099 -1.42175 0
M  V30 7567 H 726.821 6.57893 -1.68385 0
M  V30 7568 H 724.767 6.53607 0.559758 0
M  V30 7569 H 724.684 7.50957 -0.871744 0
M  V30 7570 H 725.952 7.78983 0.283932 0
M  V30 7571 N 730.181 0.707592 1.40822 0
M  V30 7572 C 731.592 0.317011 1.83989 0
M  V30 7573 C 731.943 -1.14697 1.59182 0
M  V30 7574 O 731.068 -1.8818 1.06852 0
M  V30 7575 C 731.663 0.568593 3.33995 0
M  V30 7576 C 730.222 0.231804 3.75686 0
M  V30 7577 C 729.369 0.844933 2.64114 0
M  V30 7578 H 732.32 0.907349 1.30203 0
M  V30 7579 H 732.341 -0.168798 3.80125 0
M  V30 7580 H 731.853 1.63417 3.52018 0
M  V30 7581 H 729.954 -0.82903 3.6326 0
M  V30 7582 H 730.067 0.695219 4.74029 0
M  V30 7583 H 728.431 0.273588 2.53226 0
M  V30 7584 H 729.214 1.91462 2.84951 0
M  V30 7585 N 731.66 -1.50943 0.453197 0
M  V30 7586 C 732.906 -2.02512 -0.108082 0
M  V30 7587 C 733.239 -1.33574 -1.40967 0
M  V30 7588 O 732.514 -0.455671 -1.89087 0
M  V30 7589 C 732.797 -3.58759 -0.310453 0
M  V30 7590 C 732.65 -4.38293 1.0109 0
M  V30 7591 C 733.969 -4.26816 -1.07313 0
M  V30 7592 H 731.088 -0.73603 -0.0378064 0
M  V30 7593 H 733.73 -1.80433 0.595295 0
M  V30 7594 H 731.88 -3.77702 -0.909582 0
M  V30 7595 H 733.552 -4.30964 1.64523 0
M  V30 7596 H 731.795 -4.02745 1.61179 0
M  V30 7597 H 732.466 -5.45828 0.82315 0
M  V30 7598 H 734.942 -4.1224 -0.565473 0
M  V30 7599 H 733.818 -5.35989 -1.1835 0
M  V30 7600 H 734.079 -3.88757 -2.10525 0
M  V30 7601 N 733.138 -0.185124 -1.56509 0
M  V30 7602 C 734.363 0.465278 -2.02114 0
M  V30 7603 C 734.788 1.55083 -1.06447 0
M  V30 7604 O 734.146 1.81241 -0.0462852 0
M  V30 7605 C 734.194 1.00784 -3.46229 0
M  V30 7606 O 733.298 2.12123 -3.53663 0
M  V30 7607 H 732.639 0.109891 -0.654843 0
M  V30 7608 H 735.169 -0.293072 -2.0249 0
M  V30 7609 H 735.179 1.32697 -3.85818 0
M  V30 7610 H 733.854 0.213113 -4.15354 0
M  V30 7611 H 732.431 1.8115 -3.25943 0
M  V30 7612 N 734.616 1.57351 0.0885366 0
M  V30 7613 C 736.032 1.53331 0.442916 0
M  V30 7614 C 736.232 0.902831 1.80142 0
M  V30 7615 O 735.288 0.498147 2.47537 0
M  V30 7616 C 736.601 2.98036 0.399372 0
M  V30 7617 C 738.149 3.09286 0.480759 0
M  V30 7618 C 738.624 4.5561 0.467296 0
M  V30 7619 N 740.115 4.60182 0.52786 0
M  V30 7620 C 740.85 5.70857 0.539388 0
M  V30 7621 N 740.346 6.90944 0.506729 0
M  V30 7622 N 742.139 5.59051 0.584691 0
M  V30 7623 H 734.29 1.96709 -0.801215 0
M  V30 7624 H 736.553 0.899639 -0.298922 0
M  V30 7625 H 736.259 3.47656 -0.531806 0
M  V30 7626 H 736.133 3.57066 1.21589 0
M  V30 7627 H 738.52 2.5965 1.40236 0
M  V30 7628 H 738.601 2.53197 -0.364023 0
M  V30 7629 H 738.245 5.05899 -0.450384 0
M  V30 7630 H 738.175 5.09544 1.32938 0
M  V30 7631 H 740.666 3.73757 0.558028 0
M  V30 7632 H 740.979 7.71055 0.518989 0
M  V30 7633 H 739.324 6.93384 0.473675 0
M  V30 7634 H 742.515 4.64138 0.607781 0
M  V30 7635 H 742.688 6.45307 0.590206 0
M  V30 7636 N 736.094 -0.359525 1.53444 0
M  V30 7637 C 737.334 -1.11014 1.71625 0
M  V30 7638 C 737.698 -1.86376 0.46132 0
M  V30 7639 O 738.899 -2.63724 0.519908 0
M  V30 7640 C 737.17 -2.03907 2.93524 0
M  V30 7641 S 738.729 -2.86408 3.3244 0
M  V30 7642 H 735.547 -0.375352 0.603847 0
M  V30 7643 H 738.149 -0.390604 1.91558 0
M  V30 7644 H 736.853 -1.47316 3.83048 0
M  V30 7645 H 736.384 -2.80324 2.76011 0
M  V30 7646 H 738.399 -4.06241 2.84926 0
M  V30 7647 N 737.572 -1.44907 -0.619662 0
M  V30 7648 C 738.797 -1.52021 -1.41083 0
M  V30 7649 C 739.222 -0.14976 -1.87503 0
M  V30 7650 O 738.58 0.863303 -1.59426 0
M  V30 7651 C 738.628 -2.49911 -2.59955 0
M  V30 7652 O 737.732 -2.00857 -3.60181 0
M  V30 7653 H 737.073 -0.512912 -0.421684 0
M  V30 7654 H 739.603 -1.90149 -0.755282 0
M  V30 7655 H 739.613 -2.68323 -3.07354 0
M  V30 7656 H 738.288 -3.4945 -2.25516 0
M  V30 7657 H 736.865 -1.92265 -3.19513 0
M  V30 7658 N 739.05 0.861098 -1.31996 0
M  V30 7659 C 740.466 1.14827 -1.10846 0
M  V30 7660 C 740.666 2.0117 0.11528 0
M  V30 7661 O 739.722 2.39423 0.802048 0
M  V30 7662 C 741.035 1.83183 -2.38462 0
M  V30 7663 C 742.583 1.95847 -2.44158 0
M  V30 7664 C 743.058 2.67617 -3.71679 0
M  V30 7665 N 744.549 2.75147 -3.72624 0
M  V30 7666 C 745.284 3.31314 -4.67994 0
M  V30 7667 N 744.78 3.88343 -5.73726 0
M  V30 7668 N 746.573 3.29356 -4.55501 0
M  V30 7669 H 738.724 0.285951 -2.10466 0
M  V30 7670 H 740.987 0.189303 -0.928907 0
M  V30 7671 H 740.693 1.27193 -3.27895 0
M  V30 7672 H 740.567 2.83393 -2.48935 0
M  V30 7673 H 742.954 2.50999 -1.55189 0
M  V30 7674 H 743.035 0.94653 -2.37644 0
M  V30 7675 H 742.679 2.13131 -4.61018 0
M  V30 7676 H 742.609 3.69237 -3.75462 0
M  V30 7677 H 745.1 2.34682 -2.96197 0
M  V30 7678 H 745.413 4.29338 -6.42564 0
M  V30 7679 H 743.758 3.86693 -5.77489 0
M  V30 7680 H 746.949 2.84047 -3.72069 0
M  V30 7681 H 747.122 3.7283 -5.30001 0
M  V30 7682 N 740.528 1.15101 1.07655 0
M  V30 7683 C 741.46 0.802722 2.14684 0
M  V30 7684 C 742.473 -0.183874 1.61758 0
M  V30 7685 O 743.662 0.0389349 1.78458 0
M  V30 7686 C 740.762 0.172135 3.38463 0
M  V30 7687 C 739.935 1.19538 4.20749 0
M  V30 7688 C 738.994 0.58714 5.22914 0
M  V30 7689 O 738.02 1.25224 5.55255 0
M  V30 7690 N 739.222 -0.632566 5.77043 0
M  V30 7691 H 741.987 1.72379 2.45164 0
M  V30 7692 H 739.548 1.04647 1.23534 0
M  V30 7693 H 741.54 -0.247465 4.03943 0
M  V30 7694 H 740.11 -0.652214 3.0572 0
M  V30 7695 H 739.33 1.79165 3.51132 0
M  V30 7696 H 740.618 1.88636 4.7254 0
M  V30 7697 H 740.016 -1.19135 5.53013 0
M  V30 7698 H 738.573 -0.994566 6.44167 0
M  V30 7699 N 742.006 -1.2595 0.947325 0
M  V30 7700 C 743.246 -1.95218 0.605743 0
M  V30 7701 C 743.61 -1.72624 -0.84054 0
M  V30 7702 O 744.811 -2.35748 -1.29136 0
M  V30 7703 C 743.082 -3.44654 0.94596 0
M  V30 7704 S 744.641 -4.32922 0.715849 0
M  V30 7705 H 741.459 -0.675159 0.222894 0
M  V30 7706 H 744.061 -1.52766 1.21995 0
M  V30 7707 H 742.765 -3.586 1.99585 0
M  V30 7708 H 742.296 -3.92082 0.321718 0
M  V30 7709 H 744.311 -4.94445 -0.416959 0
M  V30 7710 N 743.484 -0.715051 -1.40445 0
M  V30 7711 C 744.416 -0.0227516 -2.29189 0
M  V30 7712 C 745.429 0.724313 -1.458 0
M  V30 7713 O 746.618 0.571781 -1.69094 0
M  V30 7714 C 743.718 0.992038 -3.24055 0
M  V30 7715 C 742.891 0.310613 -4.36296 0
M  V30 7716 C 741.95 1.23071 -5.11605 0
M  V30 7717 O 740.976 0.71571 -5.64682 0
M  V30 7718 N 742.178 2.56188 -5.2091 0
M  V30 7719 H 744.943 -0.78473 -2.89244 0
M  V30 7720 H 742.504 -0.562637 -1.51809 0
M  V30 7721 H 744.496 1.60973 -3.71308 0
M  V30 7722 H 743.066 1.65538 -2.65171 0
M  V30 7723 H 742.286 -0.487269 -3.91177 0
M  V30 7724 H 743.574 -0.162415 -5.08541 0
M  V30 7725 H 742.972 3.00527 -4.7927 0
M  V30 7726 H 741.529 3.13103 -5.71673 0
M  V30 7727 N 744.962 1.50701 -0.461195 0
M  V30 7728 C 745.872 2.32069 0.343661 0
M  V30 7729 C 746.888 1.42016 1.00535 0
M  V30 7730 O 748.064 1.75077 0.995498 0
M  V30 7731 C 745.129 3.16424 1.41692 0
M  V30 7732 C 744.19 4.22286 0.772869 0
M  V30 7733 C 743.423 5.02609 1.79499 0
M  V30 7734 O 743.646 4.83874 3.0203 0
M  V30 7735 O 742.58 5.86047 1.3723 0
M  V30 7736 H 746.406 3.01996 -0.321268 0
M  V30 7737 H 743.991 1.47723 -0.223235 0
M  V30 7738 H 745.873 3.68795 2.03883 0
M  V30 7739 H 744.548 2.49236 2.0655 0
M  V30 7740 H 743.455 3.73931 0.112277 0
M  V30 7741 H 744.788 4.91915 0.167399 0
M  V30 7742 N 746.441 0.193421 1.56409 0
M  V30 7743 C 747.689 -0.444908 1.97142 0
M  V30 7744 C 748.01 -1.62268 1.08139 0
M  V30 7745 O 747.28 -1.95307 0.152326 0
M  V30 7746 H 745.86 -0.16736 0.728011 0
M  V30 7747 H 748.522 0.279763 1.92882 0
M  V30 7748 H 747.618 -0.790159 3.01932 0
M  V30 7749 N 747.919 -1.57396 -0.0801906 0
M  V30 7750 C 748.851 -1.9982 -1.12271 0
M  V30 7751 C 749.864 -0.902902 -1.35468 0
M  V30 7752 O 751.053 -1.18088 -1.33856 0
M  V30 7753 C 748.153 -2.31476 -2.47532 0
M  V30 7754 C 747.326 -3.62745 -2.44407 0
M  V30 7755 C 746.385 -3.82168 -3.6171 0
M  V30 7756 O 745.411 -4.53852 -3.43522 0
M  V30 7757 N 746.613 -3.2388 -4.81749 0
M  V30 7758 H 749.378 -2.89864 -0.761501 0
M  V30 7759 H 746.939 -1.5965 -0.268965 0
M  V30 7760 H 748.931 -2.4165 -3.24634 0
M  V30 7761 H 747.501 -1.47364 -2.75686 0
M  V30 7762 H 746.721 -3.63403 -1.52747 0
M  V30 7763 H 748.009 -4.48954 -2.39412 0
M  V30 7764 H 747.407 -2.6568 -4.9943 0
M  V30 7765 H 745.964 -3.39515 -5.56392 0
M  V30 7766 N 749.397 0.351382 -1.53633 0
M  V30 7767 C 750.643 1.09411 -1.70754 0
M  V30 7768 C 750.976 1.88544 -0.465293 0
M  V30 7769 O 750.251 1.86923 0.537608 0
M  V30 7770 C 750.534 2.04173 -2.96623 0
M  V30 7771 C 750.387 1.28556 -4.31038 0
M  V30 7772 C 751.706 3.04102 -3.18136 0
M  V30 7773 H 748.825 0.396373 -0.621335 0
M  V30 7774 H 751.467 0.373464 -1.86293 0
M  V30 7775 H 749.617 2.65625 -2.83506 0
M  V30 7776 H 751.289 0.697786 -4.55992 0
M  V30 7777 H 749.532 0.587498 -4.29803 0
M  V30 7778 H 750.203 1.97989 -5.15271 0
M  V30 7779 H 752.679 2.5276 -3.30532 0
M  V30 7780 H 751.555 3.67616 -4.07615 0
M  V30 7781 H 751.816 3.75053 -2.34068 0
M  V30 7782 N 750.875 1.45233 0.611969 0
M  V30 7783 C 752.291 1.29542 0.932251 0
M  V30 7784 C 752.491 0.24523 2.00002 0
M  V30 7785 O 751.547 -0.362333 2.49887 0
M  V30 7786 C 752.86 2.67301 1.37733 0
M  V30 7787 C 754.408 2.75163 1.49178 0
M  V30 7788 C 754.883 4.13437 1.97064 0
M  V30 7789 N 756.374 4.15709 2.04304 0
M  V30 7790 C 757.109 5.19566 2.42568 0
M  V30 7791 N 756.605 6.33771 2.79832 0
M  V30 7792 N 758.398 5.06923 2.42869 0
M  V30 7793 H 750.549 2.12192 -0.0938679 0
M  V30 7794 H 752.812 0.947775 0.0206569 0
M  V30 7795 H 752.518 3.45318 0.666951 0
M  V30 7796 H 752.392 2.95472 2.3447 0
M  V30 7797 H 754.779 1.97453 2.19309 0
M  V30 7798 H 754.86 2.50712 0.507674 0
M  V30 7799 H 754.504 4.91631 1.27521 0
M  V30 7800 H 754.434 4.35277 2.9638 0
M  V30 7801 H 756.925 3.33293 1.78113 0
M  V30 7802 H 757.238 7.08815 3.07898 0
M  V30 7803 H 755.583 6.37179 2.77538 0
M  V30 7804 H 758.774 4.1675 2.1316 0
M  V30 7805 H 758.947 5.87981 2.72364 0
M  V30 7806 N 752.353 -0.854086 1.3245 0
M  V30 7807 C 753.769 -1.14238 1.11453 0
M  V30 7808 C 753.969 -2.01228 -0.10461 0
M  V30 7809 O 753.025 -2.39845 -0.789339 0
M  V30 7810 C 754.338 -1.81916 2.39431 0
M  V30 7811 C 755.886 -1.94549 2.45193 0
M  V30 7812 C 756.361 -2.65642 3.73093 0
M  V30 7813 N 757.852 -2.73167 3.74078 0
M  V30 7814 C 758.587 -3.28828 4.69744 0
M  V30 7815 N 758.083 -3.85295 5.75778 0
M  V30 7816 N 759.876 -3.26936 4.57241 0
M  V30 7817 H 752.027 -0.274786 2.10615 0
M  V30 7818 H 754.29 -0.184375 0.929898 0
M  V30 7819 H 753.996 -1.25452 3.28565 0
M  V30 7820 H 753.87 -2.82068 2.50434 0
M  V30 7821 H 756.257 -2.50172 1.56518 0
M  V30 7822 H 756.338 -0.933914 2.38142 0
M  V30 7823 H 755.982 -2.10683 4.62142 0
M  V30 7824 H 755.912 -3.6724 3.77415 0
M  V30 7825 H 758.403 -2.33108 2.97438 0
M  V30 7826 H 758.716 -4.25925 6.44832 0
M  V30 7827 H 757.061 -3.83625 5.79531 0
M  V30 7828 H 760.252 -2.8207 3.7357 0
M  V30 7829 H 760.425 -3.70014 5.31971 0
M  V30 7830 N 753.831 -1.1567 -1.07043 0
M  V30 7831 C 755.077 -0.9349 -1.79965 0
M  V30 7832 C 755.41 0.536464 -1.86643 0
M  V30 7833 O 754.685 1.39781 -1.35247 0
M  V30 7834 C 754.968 -1.55371 -3.24857 0
M  V30 7835 C 754.821 -3.09589 -3.26305 0
M  V30 7836 C 756.14 -1.24209 -4.22209 0
M  V30 7837 H 753.259 -0.341061 -0.653335 0
M  V30 7838 H 755.901 -1.42883 -1.25237 0
M  V30 7839 H 754.051 -1.13368 -3.71591 0
M  V30 7840 H 755.723 -3.60521 -2.87789 0
M  V30 7841 H 753.966 -3.43315 -2.65174 0
M  V30 7842 H 754.637 -3.48002 -4.28484 0
M  V30 7843 H 757.113 -1.60548 -3.8388 0
M  V30 7844 H 755.989 -1.70119 -5.21872 0
M  V30 7845 H 756.25 -0.15964 -4.41812 0
M  V30 7846 N 755.309 1.25446 -0.953992 0
M  V30 7847 C 756.256 2.25912 -0.472485 0
M  V30 7848 C 757.226 1.59173 0.47469 0
M  V30 7849 O 758.411 1.86812 0.388082 0
M  V30 7850 C 755.551 3.44235 0.244218 0
M  V30 7851 C 754.664 4.25613 -0.740121 0
M  V30 7852 C 753.799 5.312 -0.000922267 0
M  V30 7853 C 752.838 6.04265 -0.976236 0
M  V30 7854 N 751.975 7.01589 -0.267952 0
M  V30 7855 H 756.815 2.66469 -1.3341 0
M  V30 7856 H 754.352 1.31005 -0.669045 0
M  V30 7857 H 756.31 4.11682 0.676314 0
M  V30 7858 H 754.94 3.04554 1.06988 0
M  V30 7859 H 753.992 3.57834 -1.2907 0
M  V30 7860 H 755.304 4.762 -1.48441 0
M  V30 7861 H 754.458 6.04719 0.48984 0
M  V30 7862 H 753.197 4.81484 0.776159 0
M  V30 7863 H 752.202 5.29561 -1.478 0
M  V30 7864 H 753.427 6.5607 -1.75354 0
M  V30 7865 H 751.373 6.54164 0.490403 0
M  V30 7866 H 751.29 7.4999 -0.951344 0
M  V30 7867 H 752.558 7.7924 0.201294 0
M  V30 7868 N 756.787 0.722489 1.40064 0
M  V30 7869 C 758.035 0.264455 2.00362 0
M  V30 7870 C 758.356 -1.14847 1.57592 0
M  V30 7871 O 757.626 -1.77982 0.818477 0
M  V30 7872 H 756.206 0.0947846 0.740962 0
M  V30 7873 H 758.868 0.929659 1.71299 0
M  V30 7874 H 757.964 0.302977 3.10626 0
M  V30 7875 N 758.265 -1.50454 0.469181 0
M  V30 7876 C 759.512 -2.02315 -0.086469 0
M  V30 7877 C 759.84 -1.3513 -1.39893 0
M  V30 7878 O 759.095 -0.465341 -1.90087 0
M  V30 7879 C 759.394 -3.55963 -0.320207 0
M  V30 7880 C 759.06 -4.41615 0.910318 0
M  V30 7881 C 757.722 -4.64743 1.2477 0
M  V30 7882 C 760.074 -4.91661 1.72971 0
M  V30 7883 C 757.402 -5.35161 2.40457 0
M  V30 7884 C 759.754 -5.6335 2.87785 0
M  V30 7885 C 758.418 -5.84732 3.2194 0
M  V30 7886 H 757.688 -0.740324 -0.0316412 0
M  V30 7887 H 760.335 -1.81087 0.622872 0
M  V30 7888 H 758.64 -3.75695 -1.11177 0
M  V30 7889 H 760.337 -3.93653 -0.764071 0
M  V30 7890 H 756.927 -4.23833 0.637467 0
M  V30 7891 H 761.111 -4.73649 1.48224 0
M  V30 7892 H 756.367 -5.49924 2.67196 0
M  V30 7893 H 760.541 -6.0111 3.51624 0
M  V30 7894 H 758.168 -6.39074 4.1169 0
M  V30 7895 N 759.743 -0.201713 -1.56304 0
M  V30 7896 C 760.693 0.729444 -2.16016 0
M  V30 7897 C 761.677 1.17164 -1.10279 0
M  V30 7898 O 762.869 1.12893 -1.36324 0
M  V30 7899 C 759.998 1.94594 -2.82822 0
M  V30 7900 C 759.084 1.52434 -3.95758 0
M  V30 7901 N 759.475 0.814106 -4.99205 0
M  V30 7902 C 757.773 1.81314 -4.07481 0
M  V30 7903 C 758.474 0.601896 -5.78578 0
M  V30 7904 N 757.45 1.15263 -5.3124 0
M  V30 7905 H 761.252 0.178163 -2.93359 0
M  V30 7906 H 758.766 -0.00218038 -1.624 0
M  V30 7907 H 760.763 2.62357 -3.23998 0
M  V30 7908 H 759.423 2.50188 -2.06969 0
M  V30 7909 H 760.434 0.468872 -5.15773 0
M  V30 7910 H 757.111 2.3837 -3.42762 0
M  V30 7911 H 758.501 0.0380119 -6.71889 0
M  V30 7912 N 761.222 1.57436 0.0718424 0
M  V30 7913 C 762.447 1.91858 0.787745 0
M  V30 7914 C 762.872 0.798119 1.70328 0
M  V30 7915 O 762.23 -0.24905 1.79581 0
M  V30 7916 C 762.278 3.25232 1.55744 0
M  V30 7917 O 761.382 3.14462 2.6681 0
M  V30 7918 H 760.723 0.628258 0.214914 0
M  V30 7919 H 763.253 2.04561 0.0401012 0
M  V30 7920 H 763.263 3.59105 1.9367 0
M  V30 7921 H 761.938 4.0636 0.885691 0
M  V30 7922 H 760.515 2.92148 2.31741 0
M  V30 7923 N 762.7 -0.34323 1.53817 0
M  V30 7924 C 763.94 -1.09188 1.72793 0
M  V30 7925 C 764.304 -1.85876 0.481062 0
M  V30 7926 O 765.505 -2.63158 0.547851 0
M  V30 7927 C 763.776 -2.00783 2.9567 0
M  V30 7928 S 765.335 -2.82866 3.35459 0
M  V30 7929 H 762.153 -0.368926 0.607795 0
M  V30 7930 H 764.755 -0.370265 1.91962 0
M  V30 7931 H 763.459 -1.43245 3.84589 0
M  V30 7932 H 762.99 -2.77381 2.78968 0
M  V30 7933 H 765.005 -4.03196 2.89218 0
M  V30 7934 N 764.178 -1.45556 -0.604258 0
M  V30 7935 C 765.418 -1.51289 -1.37445 0
M  V30 7936 C 765.782 -0.152112 -1.91397 0
M  V30 7937 O 766.983 -0.0841419 -2.68668 0
M  V30 7938 C 765.254 -2.5646 -2.48924 0
M  V30 7939 S 766.813 -2.81442 -3.36654 0
M  V30 7940 H 763.631 -0.534774 -0.468549 0
M  V30 7941 H 766.233 -1.82657 -0.696902 0
M  V30 7942 H 764.937 -3.53995 -2.07644 0
M  V30 7943 H 764.468 -2.26753 -3.21476 0
M  V30 7944 H 766.483 -2.15074 -4.47166 0
M  V30 7945 N 765.656 0.84705 -1.32902 0
M  V30 7946 C 766.886 1.63166 -1.26729 0
M  V30 7947 C 767.294 1.88474 0.165595 0
M  V30 7948 O 766.637 1.45947 1.11558 0
M  V30 7949 C 766.699 3.0103 -1.96522 0
M  V30 7950 C 766.363 2.9873 -3.45846 0
M  V30 7951 C 767.36 2.75032 -4.41196 0
M  V30 7952 C 765.045 3.19125 -3.87898 0
M  V30 7953 C 767.039 2.71743 -5.76571 0
M  V30 7954 C 764.726 3.15462 -5.2338 0
M  V30 7955 C 765.724 2.91801 -6.17528 0
M  V30 7956 O 765.412 2.88027 -7.5053 0
M  V30 7957 H 765.144 0.51469 -0.438258 0
M  V30 7958 H 767.698 1.06383 -1.75704 0
M  V30 7959 H 765.928 3.59634 -1.42128 0
M  V30 7960 H 767.617 3.61821 -1.83958 0
M  V30 7961 H 768.383 2.59034 -4.10032 0
M  V30 7962 H 764.262 3.36565 -3.15032 0
M  V30 7963 H 767.806 2.53194 -6.5003 0
M  V30 7964 H 763.703 3.31006 -5.54171 0
M  V30 7965 H 764.471 3.03927 -7.59981 0
M  V30 7966 N 767.134 1.16236 1.06428 0
M  V30 7967 C 768.411 0.853294 1.76006 0
M  V30 7968 C 768.791 -0.649162 2.00871 0
M  V30 7969 O 768.139 -1.59653 1.63472 0
M  V30 7970 C 768.349 1.67448 3.06206 0
M  V30 7971 C 769.697 1.8866 3.80385 0
M  V30 7972 O 770.721 1.64303 3.16043 0
M  V30 7973 O 769.58 2.29518 4.95968 0
M  V30 7974 H 766.674 0.314737 0.764767 0
M  V30 7975 H 769.22 1.26865 1.12709 0
M  V30 7976 H 767.992 2.69411 2.83784 0
M  V30 7977 H 767.615 1.25608 3.77238 0
M  V30 7978 N 768.612 -1.24939 0.960631 0
M  V30 7979 C 769.852 -1.94565 0.626414 0
M  V30 7980 C 770.216 -1.73505 -0.822184 0
M  V30 7981 O 771.417 -2.37105 -1.26628 0
M  V30 7982 C 769.688 -3.43631 0.982462 0
M  V30 7983 S 771.247 -4.32138 0.761726 0
M  V30 7984 H 768.065 -0.672757 0.230043 0
M  V30 7985 H 770.667 -1.51464 1.23608 0
M  V30 7986 H 769.371 -3.56463 2.03377 0
M  V30 7987 H 768.902 -3.91719 0.363286 0
M  V30 7988 H 770.917 -4.94859 -0.364493 0
M  V30 7989 N 770.09 -0.729906 -1.39679 0
M  V30 7990 C 771.336 -0.27603 -2.00913 0
M  V30 7991 C 771.669 1.13227 -1.57776 0
M  V30 7992 O 770.944 1.7709 -0.804319 0
M  V30 7993 C 771.227 -0.372157 -3.58172 0
M  V30 7994 C 771.08 -1.81986 -4.11341 0
M  V30 7995 C 772.399 0.248378 -4.39399 0
M  V30 7996 H 769.518 -0.101773 -0.729939 0
M  V30 7997 H 772.16 -0.925104 -1.65957 0
M  V30 7998 H 770.31 0.180459 -3.88081 0
M  V30 7999 H 771.982 -2.42896 -3.92172 0
M  V30 8000 H 770.225 -2.34287 -3.65092 0
M  V30 8001 H 770.896 -1.83842 -5.20486 0
M  V30 8002 H 773.372 -0.222645 -4.15504 0
M  V30 8003 H 772.248 0.150746 -5.48693 0
M  V30 8004 H 772.509 1.33378 -4.21501 0
M  V30 8005 N 771.568 1.50203 -0.477153 0
M  V30 8006 C 772.845 1.95115 0.137609 0
M  V30 8007 C 773.225 1.41778 1.56404 0
M  V30 8008 O 772.573 0.621333 2.1989 0
M  V30 8009 C 772.783 3.4892 0.0747168 0
M  V30 8010 C 774.131 4.238 0.260585 0
M  V30 8011 O 775.155 3.5588 0.151021 0
M  V30 8012 O 774.014 5.44366 0.482534 0
M  V30 8013 H 771.108 0.81987 0.108364 0
M  V30 8014 H 773.654 1.60946 -0.537989 0
M  V30 8015 H 772.426 3.80308 -0.920966 0
M  V30 8016 H 772.049 3.89642 0.791509 0
M  V30 8017 N 773.046 0.209999 1.56195 0
M  V30 8018 C 774.286 -0.4268 1.99894 0
M  V30 8019 C 774.65 -1.57763 1.0943 0
M  V30 8020 O 775.851 -2.27964 1.42428 0
M  V30 8021 C 774.122 -0.861188 3.46869 0
M  V30 8022 S 775.681 -1.49372 4.12593 0
M  V30 8023 H 772.499 -0.135922 0.697887 0
M  V30 8024 H 775.101 0.316573 1.9292 0
M  V30 8025 H 773.805 -0.0137653 4.10398 0
M  V30 8026 H 773.336 -1.63766 3.57693 0
M  V30 8027 H 775.351 -2.7827 4.10829 0
M  V30 8028 N 774.524 -1.57472 -0.0634922 0
M  V30 8029 C 775.434 -2.07621 -1.09227 0
M  V30 8030 C 776.45 -1.00746 -1.41867 0
M  V30 8031 O 777.626 -1.32269 -1.51878 0
M  V30 8032 C 774.691 -2.51707 -2.38421 0
M  V30 8033 C 773.752 -3.72917 -2.12676 0
M  V30 8034 C 772.985 -4.14891 -3.3571 0
M  V30 8035 O 773.208 -3.56663 -4.45137 0
M  V30 8036 O 772.142 -5.07616 -3.23434 0
M  V30 8037 H 775.968 -2.95612 -0.696205 0
M  V30 8038 H 773.553 -1.46787 -0.27819 0
M  V30 8039 H 775.435 -2.80547 -3.14438 0
M  V30 8040 H 774.11 -1.66842 -2.77391 0
M  V30 8041 H 773.017 -3.49148 -1.34337 0
M  V30 8042 H 774.35 -4.5866 -1.78583 0
M  V30 8043 N 776.003 0.335068 -1.53997 0
M  V30 8044 C 776.966 1.39481 -1.81872 0
M  V30 8045 C 777.966 1.4524 -0.690078 0
M  V30 8046 O 779.156 1.45467 -0.958377 0
M  V30 8047 C 776.288 2.78329 -1.9684 0
M  V30 8048 H 777.481 1.16024 -2.76547 0
M  V30 8049 H 775.034 0.569926 -1.45539 0
M  V30 8050 H 775.769 3.07058 -1.04337 0
M  V30 8051 H 775.554 2.75544 -2.78958 0
M  V30 8052 H 777.044 3.55016 -2.19894 0
M  V30 8053 N 777.481 1.45874 0.596531 0
M  V30 8054 C 778.729 1.5017 1.35253 0
M  V30 8055 C 779.05 0.149246 1.94428 0
M  V30 8056 O 778.32 -0.82268 1.77789 0
M  V30 8057 H 776.9 0.553052 0.502138 0
M  V30 8058 H 779.562 1.81908 0.699671 0
M  V30 8059 H 778.658 2.24671 2.16632 0
M  V30 8060 N 778.959 -0.83999 1.33349 0
M  V30 8061 C 780.184 -1.63249 1.27924 0
M  V30 8062 C 780.609 -1.87523 -0.147193 0
M  V30 8063 O 779.967 -1.43853 -1.10345 0
M  V30 8064 C 780.015 -2.96046 2.05886 0
M  V30 8065 O 779.119 -3.87303 1.4167 0
M  V30 8066 H 778.46 -0.49715 0.440157 0
M  V30 8067 H 780.99 -1.04512 1.75893 0
M  V30 8068 H 781 -3.45752 2.16609 0
M  V30 8069 H 779.675 -2.77701 3.09605 0
M  V30 8070 H 778.252 -3.45789 1.39585 0
M  V30 8071 N 780.437 -1.16799 -1.0581 0
M  V30 8072 C 781.667 -0.975454 -1.82122 0
M  V30 8073 C 782.075 0.479584 -1.83021 0
M  V30 8074 O 781.418 1.34471 -1.25153 0
M  V30 8075 C 781.48 -1.43209 -3.29744 0
M  V30 8076 C 781.144 -2.908 -3.5254 0
M  V30 8077 C 782.141 -3.88775 -3.45181 0
M  V30 8078 C 779.826 -3.28832 -3.79703 0
M  V30 8079 C 781.82 -5.22782 -3.64661 0
M  V30 8080 C 779.507 -4.63007 -3.98832 0
M  V30 8081 C 780.505 -5.59791 -3.91309 0
M  V30 8082 O 780.193 -6.9154 -4.09911 0
M  V30 8083 H 779.925 -0.345655 -0.580947 0
M  V30 8084 H 782.479 -1.55355 -1.34365 0
M  V30 8085 H 780.709 -0.797504 -3.78387 0
M  V30 8086 H 782.398 -1.2062 -3.87564 0
M  V30 8087 H 783.164 -3.60738 -3.2418 0
M  V30 8088 H 779.043 -2.54073 -3.84666 0
M  V30 8089 H 782.587 -5.98312 -3.58705 0
M  V30 8090 H 778.484 -4.90752 -4.19324 0
M  V30 8091 H 779.252 -6.98188 -4.27172 0
M  V30 8092 N 781.915 1.24427 -0.967243 0
M  V30 8093 C 783.331 1.44684 -0.6737 0
M  V30 8094 C 783.531 1.86429 0.764625 0
M  V30 8095 O 782.587 2.00211 1.53857 0
M  V30 8096 C 783.9 2.509 -1.6574 0
M  V30 8097 C 785.448 2.64728 -1.66998 0
M  V30 8098 C 785.923 3.7414 -2.64165 0
M  V30 8099 N 787.414 3.81567 -2.62604 0
M  V30 8100 C 788.149 4.6575 -3.34462 0
M  V30 8101 N 787.645 5.54124 -4.15835 0
M  V30 8102 N 789.438 4.59827 -3.23288 0
M  V30 8103 H 781.589 0.956276 -1.89655 0
M  V30 8104 H 783.852 0.48171 -0.816492 0
M  V30 8105 H 783.558 2.27113 -2.68538 0
M  V30 8106 H 783.432 3.4905 -1.42981 0
M  V30 8107 H 785.819 2.87872 -0.649121 0
M  V30 8108 H 785.9 1.66936 -1.93819 0
M  V30 8109 H 785.544 3.51745 -3.66384 0
M  V30 8110 H 785.474 4.71444 -2.34623 0
M  V30 8111 H 787.965 3.18403 -2.03539 0
M  V30 8112 H 788.278 6.15316 -4.67553 0
M  V30 8113 H 786.623 5.53791 -4.19929 0
M  V30 8114 H 789.814 3.898 -2.59179 0
M  V30 8115 H 789.987 5.25208 -3.79553 0
M  V30 8116 N 783.393 0.737304 1.3929 0
M  V30 8117 C 784.325 0.0592106 2.29124 0
M  V30 8118 C 785.338 -0.701026 1.46934 0
M  V30 8119 O 786.527 -0.544808 1.69983 0
M  V30 8120 C 783.627 -0.940358 3.25592 0
M  V30 8121 C 782.8 -0.241163 4.36735 0
M  V30 8122 C 781.859 -1.14916 5.13498 0
M  V30 8123 O 780.885 -0.625783 5.6575 0
M  V30 8124 N 782.087 -2.47869 5.2492 0
M  V30 8125 H 784.852 0.830647 2.87959 0
M  V30 8126 H 782.413 0.586718 1.50895 0
M  V30 8127 H 784.405 -1.55046 3.73822 0
M  V30 8128 H 782.975 -1.61299 2.67771 0
M  V30 8129 H 782.195 0.549441 3.90352 0
M  V30 8130 H 783.483 0.243299 5.08218 0
M  V30 8131 H 782.881 -2.92864 4.83991 0
M  V30 8132 H 781.438 -3.03969 5.76581 0
M  V30 8133 N 784.871 -1.49948 0.485112 0
M  V30 8134 C 785.819 -2.30449 -0.315609 0
M  V30 8135 C 786.813 -1.38351 -0.977516 0
M  V30 8136 O 788.019 -1.55477 -0.907019 0
M  V30 8137 H 784.394 -0.742262 -0.120629 0
M  V30 8138 H 786.365 -2.95925 0.383552 0
M  V30 8139 C 785.114 -3.19283 -1.37673 0
M  V30 8140 H 784.437 -3.90067 -0.876801 0
M  V30 8141 H 785.877 -3.78579 -1.90929 0
M  V30 8142 C 784.336 -2.37817 -2.38631 0
M  V30 8143 O 784.866 -2.0711 -3.44192 0
M  V30 8144 N 783.072 -2.00135 -2.107 0
M  V30 8145 H 782.619 -2.25307 -1.24878 0
M  V30 8146 H 782.577 -1.45933 -2.7848 0
M  V30 8147 N 786.349 -0.21828 -1.56081 0
M  V30 8148 C 787.76 0.290166 -1.84431 0
M  V30 8149 C 788.111 1.59712 -1.13958 0
M  V30 8150 O 787.236 2.12516 -0.40815 0
M  V30 8151 C 787.831 0.53325 -3.34577 0
M  V30 8152 C 786.39 0.986011 -3.63256 0
M  V30 8153 C 785.537 0.0472798 -2.7726 0
M  V30 8154 H 788.488 -0.441548 -1.52434 0
M  V30 8155 H 788.509 1.37967 -3.54606 0
M  V30 8156 H 788.021 -0.418137 -3.85841 0
M  V30 8157 H 786.122 1.95087 -3.17446 0
M  V30 8158 H 786.235 0.862684 -4.71269 0
M  V30 8159 H 784.599 0.553471 -2.48614 0
M  V30 8160 H 785.382 -0.898966 -3.31321 0
M  V30 8161 N 787.827 1.57504 0.0551401 0
M  V30 8162 C 789.104 1.79155 0.785048 0
M  V30 8163 C 789.484 0.809995 1.94942 0
M  V30 8164 O 788.832 -0.153432 2.27984 0
M  V30 8165 C 789.042 3.26134 1.24247 0
M  V30 8166 C 790.39 3.90419 1.66908 0
M  V30 8167 O 791.414 3.30126 1.33772 0
M  V30 8168 O 790.273 4.96523 2.28314 0
M  V30 8169 H 787.367 0.735825 0.377479 0
M  V30 8170 H 789.913 1.69666 0.0339285 0
M  V30 8171 H 788.685 3.89145 0.410089 0
M  V30 8172 H 788.308 3.40411 2.05441 0
M  V30 8173 N 789.305 -0.326896 1.54172 0
M  V30 8174 C 790.582 -1.08326 1.62864 0
M  V30 8175 C 790.962 -2.06018 0.46039 0
M  V30 8176 O 790.31 -2.21889 -0.545685 0
M  V30 8177 C 790.52 -1.78816 2.9971 0
M  V30 8178 C 791.868 -2.31958 3.55641 0
M  V30 8179 O 792.892 -1.88888 3.01993 0
M  V30 8180 O 791.751 -3.10801 4.49517 0
M  V30 8181 H 788.845 -0.499131 0.659392 0
M  V30 8182 H 791.391 -0.327054 1.66519 0
M  V30 8183 H 790.163 -1.07739 3.76176 0
M  V30 8184 H 789.786 -2.61255 2.99719 0
M  V30 8185 N 790.784 -1.46188 -0.588786 0
M  V30 8186 C 792.033 -1.50452 -1.34339 0
M  V30 8187 C 792.346 -0.158096 -1.9496 0
M  V30 8188 O 793.552 -0.0784918 -2.71387 0
M  V30 8189 C 792.008 -2.65074 -2.43441 0
M  V30 8190 C 791.616 -4.06111 -1.8915 0
M  V30 8191 C 793.36 -2.78603 -3.20282 0
M  V30 8192 C 791.267 -5.12084 -2.95845 0
M  V30 8193 H 790.197 -0.559905 -0.504997 0
M  V30 8194 H 792.848 -1.72382 -0.629014 0
M  V30 8195 H 791.23 -2.36462 -3.1765 0
M  V30 8196 H 792.404 -4.44487 -1.21524 0
M  V30 8197 H 790.719 -3.97197 -1.24995 0
M  V30 8198 H 793.316 -3.54944 -3.99898 0
M  V30 8199 H 793.659 -1.85902 -3.72486 0
M  V30 8200 H 794.192 -3.06832 -2.53178 0
M  V30 8201 H 790.931 -6.06556 -2.48535 0
M  V30 8202 H 790.451 -4.78259 -3.61979 0
M  V30 8203 H 792.13 -5.37661 -3.59902 0
M  V30 8204 N 792.262 0.832906 -1.33792 0
M  V30 8205 C 793.225 1.92471 -1.24449 0
M  V30 8206 C 794.225 1.59981 -0.162085 0
M  V30 8207 O 795.415 1.69208 -0.414029 0
M  V30 8208 C 792.547 3.28278 -0.919044 0
M  V30 8209 H 793.74 2.0218 -2.21502 0
M  V30 8210 H 791.293 1.0257 -1.17936 0
M  V30 8211 H 792.028 3.24263 0.048738 0
M  V30 8212 H 791.813 3.53241 -1.70187 0
M  V30 8213 H 793.303 4.08253 -0.878576 0
M  V30 8214 N 793.74 1.17359 1.05189 0
M  V30 8215 C 794.98 0.972812 1.79766 0
M  V30 8216 C 795.344 -0.489832 1.85647 0
M  V30 8217 O 796.545 -0.809682 2.56315 0
M  V30 8218 C 794.816 1.59636 3.19767 0
M  V30 8219 S 796.375 1.54178 4.10822 0
M  V30 8220 H 793.193 0.34959 0.619119 0
M  V30 8221 H 795.795 1.49304 1.26209 0
M  V30 8222 H 794.499 2.65336 3.13089 0
M  V30 8223 H 794.03 1.07594 3.78401 0
M  V30 8224 H 796.045 0.549785 4.93145 0
M  V30 8225 N 795.218 -1.23913 0.973828 0
M  V30 8226 C 796.446 -1.96195 0.656891 0
M  V30 8227 C 796.861 -1.72166 -0.774876 0
M  V30 8228 O 796.218 -1.0091 -1.52064 0
M  V30 8229 C 796.269 -3.49342 0.929638 0
M  V30 8230 O 795.99 -3.72553 2.30512 0
M  V30 8231 C 797.491 -4.38833 0.627739 0
M  V30 8232 H 794.711 -0.624841 0.244572 0
M  V30 8233 H 797.255 -1.57579 1.30343 0
M  V30 8234 H 795.41 -3.85999 0.329216 0
M  V30 8235 H 795.824 -4.66893 2.3898 0
M  V30 8236 H 797.298 -5.45117 0.868991 0
M  V30 8237 H 797.775 -4.37009 -0.438104 0
M  V30 8238 H 798.381 -4.07773 1.20834 0
M  V30 8239 N 796.696 -0.74468 -1.38897 0
M  V30 8240 C 797.943 -0.296884 -2.00312 0
M  V30 8241 C 798.271 1.11878 -1.59102 0
M  V30 8242 O 797.526 1.7789 -0.815702 0
M  V30 8243 C 797.825 -0.357302 -3.55609 0
M  V30 8244 C 797.491 -1.72736 -4.16501 0
M  V30 8245 C 796.153 -2.10232 -4.32846 0
M  V30 8246 C 798.505 -2.62647 -4.50184 0
M  V30 8247 C 795.833 -3.3713 -4.80167 0
M  V30 8248 C 798.185 -3.88926 -4.98918 0
M  V30 8249 C 796.849 -4.26503 -5.1347 0
M  V30 8250 H 796.119 -0.108638 -0.732993 0
M  V30 8251 H 798.766 -0.953419 -1.66079 0
M  V30 8252 H 797.071 0.382805 -3.89925 0
M  V30 8253 H 798.768 0.0074596 -4.00999 0
M  V30 8254 H 795.358 -1.42585 -4.04187 0
M  V30 8255 H 799.542 -2.34945 -4.37166 0
M  V30 8256 H 794.798 -3.66174 -4.89619 0
M  V30 8257 H 798.972 -4.58745 -5.23952 0
M  V30 8258 H 796.599 -5.24896 -5.49898 0
M  V30 8259 N 798.174 1.49689 -0.493057 0
M  V30 8260 C 799.414 2.04332 0.0527374 0
M  V30 8261 C 799.778 1.36522 1.35003 0
M  V30 8262 O 800.979 1.81842 1.97957 0
M  V30 8263 C 799.25 3.56782 0.210044 0
M  V30 8264 S 800.809 4.32998 0.711232 0
M  V30 8265 H 797.627 0.710978 0.00554853 0
M  V30 8266 H 800.229 1.83835 -0.665213 0
M  V30 8267 H 798.933 4.03681 -0.739566 0
M  V30 8268 H 798.464 3.81671 0.953468 0
M  V30 8269 H 800.479 4.54916 1.98156 0
M  V30 8270 N 799.652 0.226554 1.55963 0
M  V30 8271 C 800.9 -0.402991 1.98041 0
M  V30 8272 C 801.221 -1.59938 1.11557 0
M  V30 8273 O 800.491 -1.9494 0.193719 0
M  V30 8274 H 799.071 -0.15188 0.731397 0
M  V30 8275 H 801.733 0.320613 1.92245 0
M  V30 8276 H 800.829 -0.725937 3.0354 0
M  V30 8277 N 801.13 -1.57531 -0.0467866 0
M  V30 8278 C 802.062 -2.02156 -1.08007 0
M  V30 8279 C 803.075 -0.931434 -1.33522 0
M  V30 8280 O 804.264 -1.209 -1.31321 0
M  V30 8281 C 801.364 -2.36675 -2.42566 0
M  V30 8282 C 800.537 -3.67848 -2.36658 0
M  V30 8283 C 799.596 -3.89754 -3.53523 0
M  V30 8284 O 798.622 -4.61036 -3.33818 0
M  V30 8285 N 799.824 -3.34025 -4.74771 0
M  V30 8286 H 802.589 -2.91414 -0.699845 0
M  V30 8287 H 800.15 -1.60185 -0.235041 0
M  V30 8288 H 802.142 -2.48482 -3.19435 0
M  V30 8289 H 800.712 -1.53178 -2.72498 0
M  V30 8290 H 799.932 -3.66561 -1.45005 0
M  V30 8291 H 801.22 -4.53931 -2.29835 0
M  V30 8292 H 800.618 -2.76214 -4.93683 0
M  V30 8293 H 799.175 -3.51241 -5.49066 0
M  V30 8294 N 802.608 0.318715 -1.54344 0
M  V30 8295 C 803.885 1.07461 -1.63437 0
M  V30 8296 C 804.265 2.05771 -0.47131 0
M  V30 8297 O 803.613 2.22175 0.53391 0
M  V30 8298 C 803.823 1.77224 -3.00654 0
M  V30 8299 C 805.171 2.30069 -3.56866 0
M  V30 8300 O 806.195 1.87284 -3.0299 0
M  V30 8301 O 805.054 3.08412 -4.51159 0
M  V30 8302 H 802.148 0.495627 -0.66203 0
M  V30 8303 H 804.694 0.318218 -1.6669 0
M  V30 8304 H 803.466 1.05742 -3.76742 0
M  V30 8305 H 803.089 2.59662 -3.01101 0
M  V30 8306 N 804.086 1.46499 0.581025 0
M  V30 8307 C 804.996 1.59778 1.71779 0
M  V30 8308 C 806.012 0.481223 1.67213 0
M  V30 8309 O 807.188 0.74557 1.87091 0
M  V30 8310 C 804.253 1.58626 3.08283 0
M  V30 8311 C 803.314 2.81527 3.241 0
M  V30 8312 C 802.547 2.80421 4.54092 0
M  V30 8313 O 802.77 1.89262 5.38085 0
M  V30 8314 O 801.704 3.71984 4.73193 0
M  V30 8315 H 805.53 2.55918 1.63523 0
M  V30 8316 H 803.115 1.29311 0.748267 0
M  V30 8317 H 804.997 1.60686 3.89561 0
M  V30 8318 H 803.672 0.656467 3.16973 0
M  V30 8319 H 802.579 2.85021 2.42309 0
M  V30 8320 H 803.912 3.73721 3.20302 0
M  V30 8321 N 805.565 -0.825799 1.34232 0
M  V30 8322 C 806.811 -1.58379 1.27623 0
M  V30 8323 C 807.166 -1.91789 -0.15323 0
M  V30 8324 O 806.459 -1.56965 -1.09875 0
M  V30 8325 C 806.653 -2.89362 2.09772 0
M  V30 8326 C 806.482 -2.68747 3.60562 0
M  V30 8327 C 805.252 -2.6563 4.29848 0
M  V30 8328 C 807.45 -2.40463 4.54623 0
M  V30 8329 N 805.432 -2.3653 5.66504 0
M  V30 8330 C 806.803 -2.21032 5.79262 0
M  V30 8331 C 808.858 -2.26168 4.43568 0
M  V30 8332 C 807.561 -1.88754 6.94093 0
M  V30 8333 C 809.587 -1.95284 5.58228 0
M  V30 8334 C 808.949 -1.76674 6.81884 0
M  V30 8335 H 805.048 -0.582062 0.522234 0
M  V30 8336 H 807.632 -0.968308 1.68914 0
M  V30 8337 H 805.803 -3.48838 1.70783 0
M  V30 8338 H 807.535 -3.54716 1.94831 0
M  V30 8339 H 804.29 -2.79601 3.82257 0
M  V30 8340 H 804.714 -2.24827 6.38578 0
M  V30 8341 H 809.356 -2.39262 3.48588 0
M  V30 8342 H 807.074 -1.74397 7.89057 0
M  V30 8343 H 810.66 -1.84959 5.51617 0
M  V30 8344 H 809.54 -1.53123 7.69105 0
M  V30 8345 N 807.043 -1.17915 -1.04565 0
M  V30 8346 C 808.268 -0.996749 -1.81878 0
M  V30 8347 C 808.693 0.450169 -1.82634 0
M  V30 8348 O 808.051 1.32268 -1.23995 0
M  V30 8349 C 808.099 -1.55005 -3.25585 0
M  V30 8350 O 807.203 -0.76804 -4.05185 0
M  V30 8351 H 806.544 -0.353456 -0.562108 0
M  V30 8352 H 809.074 -1.56557 -1.31723 0
M  V30 8353 H 809.084 -1.57503 -3.76373 0
M  V30 8354 H 807.759 -2.60327 -3.2435 0
M  V30 8355 H 806.336 -0.81498 -3.63885 0
M  V30 8356 N 808.521 1.23394 -0.980386 0
M  V30 8357 C 809.932 1.73631 -0.686239 0
M  V30 8358 C 810.283 1.79259 0.797541 0
M  V30 8359 O 809.408 1.43046 1.62379 0
M  V30 8360 C 810.003 3.15332 -1.239 0
M  V30 8361 C 808.562 3.63024 -0.994494 0
M  V30 8362 C 807.709 2.41279 -1.36673 0
M  V30 8363 H 810.66 1.08918 -1.15423 0
M  V30 8364 H 810.681 3.75556 -0.611414 0
M  V30 8365 H 810.193 3.11204 -2.31892 0
M  V30 8366 H 808.294 3.72535 0.0693492 0
M  V30 8367 H 808.407 4.49825 -1.64906 0
M  V30 8368 H 806.771 2.42295 -0.785195 0
M  V30 8369 H 807.554 2.39822 -2.45642 0
M  V30 8370 N 809.999 0.752036 1.385 0
M  V30 8371 C 810.909 0.125318 2.34265 0
M  V30 8372 C 811.925 -0.702437 1.59191 0
M  V30 8373 O 813.101 -0.626951 1.91393 0
M  V30 8374 C 810.166 -0.758486 3.38301 0
M  V30 8375 C 809.227 0.0834636 4.29219 0
M  V30 8376 C 808.46 -0.758252 5.28286 0
M  V30 8377 O 808.683 -1.99632 5.34325 0
M  V30 8378 O 807.617 -0.177878 6.01637 0
M  V30 8379 H 811.443 0.91617 2.89551 0
M  V30 8380 H 809.028 0.512911 1.4032 0
M  V30 8381 H 810.91 -1.26365 4.02007 0
M  V30 8382 H 809.585 -1.52786 2.85374 0
M  V30 8383 H 808.492 0.634545 3.68679 0
M  V30 8384 H 809.825 0.815455 4.85398 0
M  V30 8385 N 811.477 -1.49425 0.500989 0
M  V30 8386 C 812.893 -1.58826 0.156951 0
M  V30 8387 C 813.093 -1.50622 -1.33848 0
M  V30 8388 O 812.149 -1.38016 -2.11442 0
M  V30 8389 C 813.462 -2.91611 0.73374 0
M  V30 8390 C 815.01 -3.05076 0.699846 0
M  V30 8391 C 815.485 -4.40479 1.2547 0
M  V30 8392 N 816.976 -4.4697 1.2154 0
M  V30 8393 C 817.711 -5.50189 1.6149 0
M  V30 8394 N 817.207 -6.60512 2.09034 0
M  V30 8395 N 819 -5.40903 1.52907 0
M  V30 8396 H 811.151 -1.53001 1.47324 0
M  V30 8397 H 813.414 -0.724765 0.61108 0
M  V30 8398 H 813.12 -3.03182 1.78251 0
M  V30 8399 H 812.994 -3.767 0.19417 0
M  V30 8400 H 815.381 -2.93134 -0.340085 0
M  V30 8401 H 815.462 -2.2167 1.27656 0
M  V30 8402 H 815.106 -4.53172 2.29341 0
M  V30 8403 H 815.036 -5.22524 0.653921 0
M  V30 8404 H 817.527 -3.67819 0.867043 0
M  V30 8405 H 817.84 -7.35372 2.37588 0
M  V30 8406 H 816.185 -6.61553 2.13008 0
M  V30 8407 H 819.376 -4.53606 1.15583 0
M  V30 8408 H 819.549 -6.21219 1.84365 0
M  V30 8409 N 812.955 -0.234822 -1.55841 0
M  V30 8410 C 814.18 0.400741 -2.03492 0
M  V30 8411 C 814.605 1.51618 -1.11327 0
M  V30 8412 O 813.963 1.81002 -0.103922 0
M  V30 8413 C 814.011 0.897184 -3.49261 0
M  V30 8414 O 813.115 2.00764 -3.60233 0
M  V30 8415 H 812.456 0.0890023 -0.658008 0
M  V30 8416 H 814.986 -0.357345 -2.01455 0
M  V30 8417 H 814.996 1.20356 -3.89844 0
M  V30 8418 H 813.671 0.0808639 -4.15821 0
M  V30 8419 H 812.248 1.70689 -3.31541 0
M  V30 8420 N 814.433 1.57553 0.0384317 0
M  V30 8421 C 815.661 1.93093 0.743141 0
M  V30 8422 C 816.076 0.833787 1.69391 0
M  V30 8423 O 815.433 -0.190532 1.81503 0
M  V30 8424 C 815.484 3.28533 1.50826 0
M  V30 8425 O 815.205 4.34032 0.595665 0
M  V30 8426 C 816.706 3.78297 2.31098 0
M  V30 8427 H 813.926 0.637486 0.20941 0
M  V30 8428 H 816.47 2.045 -0.00125154 0
M  V30 8429 H 814.625 3.18552 2.20462 0
M  V30 8430 H 815.039 5.12155 1.13124 0
M  V30 8431 H 816.513 4.75602 2.80191 0
M  V30 8432 H 816.99 3.09008 3.12107 0
M  V30 8433 H 817.596 3.91331 1.66555 0
M  V30 8434 N 815.911 -0.310526 1.54511 0
M  V30 8435 C 817.327 -0.655637 1.45511 0
M  V30 8436 C 817.527 -1.91114 0.638564 0
M  V30 8437 O 816.583 -2.52098 0.142497 0
M  V30 8438 C 817.896 -0.817501 2.89374 0
M  V30 8439 C 819.444 -0.914003 2.99358 0
M  V30 8440 C 819.919 -1.10794 4.44397 0
M  V30 8441 N 821.41 -1.17437 4.48066 0
M  V30 8442 C 822.145 -1.34255 5.57461 0
M  V30 8443 N 821.641 -1.48032 6.768 0
M  V30 8444 N 823.434 -1.37067 5.45132 0
M  V30 8445 H 815.585 0.514506 2.06074 0
M  V30 8446 H 817.848 0.168478 0.932909 0
M  V30 8447 H 817.554 0.034003 3.51684 0
M  V30 8448 H 817.428 -1.7094 3.36243 0
M  V30 8449 H 819.815 -1.756 2.37168 0
M  V30 8450 H 819.896 0.00170958 2.558 0
M  V30 8451 H 819.54 -0.270743 5.07178 0
M  V30 8452 H 819.47 -2.03773 4.85576 0
M  V30 8453 H 821.961 -1.08181 3.62084 0
M  V30 8454 H 822.274 -1.60593 7.5593 0
M  V30 8455 H 820.619 -1.45105 6.79683 0
M  V30 8456 H 823.81 -1.25909 4.50849 0
M  V30 8457 H 823.983 -1.49831 6.3044 0
M  V30 8458 N 817.389 -1.46805 -0.573248 0
M  V30 8459 C 818.629 -1.5417 -1.34205 0
M  V30 8460 C 818.993 -0.192675 -1.91031 0
M  V30 8461 O 820.194 -0.141111 -2.68429 0
M  V30 8462 C 818.465 -2.61682 -2.43428 0
M  V30 8463 S 820.024 -2.88519 -3.30609 0
M  V30 8464 H 816.842 -0.544592 -0.4571 0
M  V30 8465 H 819.444 -1.84094 -0.658001 0
M  V30 8466 H 818.148 -3.58319 -2.00088 0
M  V30 8467 H 817.679 -2.33521 -3.16594 0
M  V30 8468 H 819.694 -2.2451 -4.42504 0
M  V30 8469 N 818.867 0.818669 -1.34668 0
M  V30 8470 C 820.114 1.57512 -1.27264 0
M  V30 8471 C 820.442 1.93871 0.156254 0
M  V30 8472 O 819.697 1.60582 1.11857 0
M  V30 8473 C 819.996 2.88245 -2.11304 0
M  V30 8474 C 819.662 2.71159 -3.60255 0
M  V30 8475 C 818.324 2.66207 -4.00858 0
M  V30 8476 C 820.676 2.54538 -4.54819 0
M  V30 8477 C 818.004 2.4256 -5.34211 0
M  V30 8478 C 820.356 2.32421 -5.88356 0
M  V30 8479 C 819.02 2.25884 -6.28118 0
M  V30 8480 H 818.29 0.576378 -0.465692 0
M  V30 8481 H 820.937 0.9469 -1.66451 0
M  V30 8482 H 819.242 3.55381 -1.64958 0
M  V30 8483 H 820.939 3.45869 -2.02919 0
M  V30 8484 H 817.529 2.75856 -3.28027 0
M  V30 8485 H 821.713 2.57384 -4.24343 0
M  V30 8486 H 816.969 2.35959 -5.64033 0
M  V30 8487 H 821.143 2.18548 -6.61218 0
M  V30 8488 H 818.77 2.07322 -7.31383 0
M  V30 8489 N 820.346 1.18468 1.03938 0
M  V30 8490 C 821.762 0.934635 1.29371 0
M  V30 8491 C 821.962 -0.399067 1.97509 0
M  V30 8492 O 821.018 -1.13309 2.25648 0
M  V30 8493 C 822.331 2.10111 2.15114 0
M  V30 8494 C 823.879 2.13955 2.28456 0
M  V30 8495 C 824.354 3.30024 3.17566 0
M  V30 8496 N 825.845 3.29893 3.25153 0
M  V30 8497 C 826.58 4.16346 3.94263 0
M  V30 8498 N 826.076 5.12934 4.65693 0
M  V30 8499 N 827.869 4.04256 3.90556 0
M  V30 8500 H 820.02 2.04294 0.581185 0
M  V30 8501 H 822.283 0.892727 0.318971 0
M  V30 8502 H 821.989 3.06572 1.72355 0
M  V30 8503 H 821.863 2.06283 3.15796 0
M  V30 8504 H 824.25 1.18072 2.7045 0
M  V30 8505 H 824.331 2.2184 1.2736 0
M  V30 8506 H 823.975 4.26181 2.76283 0
M  V30 8507 H 823.905 3.19376 4.18697 0
M  V30 8508 H 826.396 2.59969 2.74271 0
M  V30 8509 H 826.709 5.75271 5.16026 0
M  V30 8510 H 825.054 5.16893 4.64593 0
M  V30 8511 H 828.245 3.28083 3.33885 0
M  V30 8512 H 828.418 4.71848 4.44144 0
M  V30 8513 N 821.824 -1.22873 0.986916 0
M  V30 8514 C 823.24 -1.43594 0.696633 0
M  V30 8515 C 823.44 -1.87622 -0.734869 0
M  V30 8516 O 822.496 -2.02633 -1.50652 0
M  V30 8517 C 823.809 -2.48231 1.69711 0
M  V30 8518 C 825.357 -2.62037 1.71188 0
M  V30 8519 C 825.832 -3.6989 2.70084 0
M  V30 8520 N 827.323 -3.77341 2.68641 0
M  V30 8521 C 828.058 -4.6037 3.41829 0
M  V30 8522 N 827.554 -5.47438 4.24598 0
M  V30 8523 N 829.347 -4.54626 3.30563 0
M  V30 8524 H 821.498 -0.925982 1.91153 0
M  V30 8525 H 823.761 -0.46866 0.824052 0
M  V30 8526 H 823.467 -2.22812 2.72117 0
M  V30 8527 H 823.341 -3.46731 1.48516 0
M  V30 8528 H 825.728 -2.86803 0.694837 0
M  V30 8529 H 825.809 -1.63831 1.96451 0
M  V30 8530 H 825.453 -3.45872 3.71934 0
M  V30 8531 H 825.383 -4.67652 2.42093 0
M  V30 8532 H 827.874 -3.15124 2.08578 0
M  V30 8533 H 828.187 -6.078 4.77283 0
M  V30 8534 H 826.532 -5.4704 4.28687 0
M  V30 8535 H 829.723 -3.85627 2.65347 0
M  V30 8536 H 829.896 -5.19103 3.8786 0
M  V30 8537 N 823.302 -0.75937 -1.38099 0
M  V30 8538 C 824.718 -0.437606 -1.53483 0
M  V30 8539 C 824.918 1.04849 -1.72072 0
M  V30 8540 O 823.974 1.83448 -1.73502 0
M  V30 8541 C 825.287 -1.24189 -2.73857 0
M  V30 8542 C 826.835 -1.23255 -2.8771 0
M  V30 8543 C 827.31 -2.01992 -4.11051 0
M  V30 8544 N 828.801 -1.99282 -4.1814 0
M  V30 8545 C 829.536 -2.56996 -5.12583 0
M  V30 8546 N 829.032 -3.23446 -6.12662 0
M  V30 8547 N 830.825 -2.46894 -5.04975 0
M  V30 8548 H 822.976 -1.72242 -1.24283 0
M  V30 8549 H 825.239 -0.730507 -0.604205 0
M  V30 8550 H 824.945 -2.29449 -2.66545 0
M  V30 8551 H 824.819 -0.862672 -3.67203 0
M  V30 8552 H 827.206 -0.187988 -2.94501 0
M  V30 8553 H 827.287 -1.65132 -1.95359 0
M  V30 8554 H 826.931 -3.06462 -4.05023 0
M  V30 8555 H 826.861 -1.57505 -5.02494 0
M  V30 8556 H 829.352 -1.50893 -3.46467 0
M  V30 8557 H 829.665 -3.6489 -6.81231 0
M  V30 8558 H 828.01 -3.27543 -6.12977 0
M  V30 8559 H 831.201 -1.94604 -4.25731 0
M  V30 8560 H 831.374 -2.92168 -5.78396 0
M  V30 8561 N 824.78 1.49157 -0.508906 0
M  V30 8562 C 826.005 2.07376 0.0315182 0
M  V30 8563 C 826.43 1.36575 1.2934 0
M  V30 8564 O 825.788 0.424963 1.76249 0
M  V30 8565 C 825.836 3.59661 0.260118 0
M  V30 8566 O 824.94 3.90255 1.33322 0
M  V30 8567 H 824.281 0.663334 -0.029739 0
M  V30 8568 H 826.811 1.91857 -0.710791 0
M  V30 8569 H 826.821 4.05056 0.489225 0
M  V30 8570 H 825.496 4.10601 -0.661794 0
M  V30 8571 H 824.073 3.56661 1.08844 0
M  V30 8572 N 826.258 0.243083 1.55714 0
M  V30 8573 C 827.674 -0.111853 1.59208 0
M  V30 8574 C 827.874 -1.5723 1.2602 0
M  V30 8575 O 826.93 -2.31608 1.00569 0
M  V30 8576 C 828.243 0.233885 2.99789 0
M  V30 8577 C 829.791 0.177873 3.12494 0
M  V30 8578 C 830.266 0.49759 4.55289 0
M  V30 8579 N 831.757 0.447949 4.61029 0
M  V30 8580 C 832.492 0.668545 5.69489 0
M  V30 8581 N 831.988 0.952064 6.86227 0
M  V30 8582 N 833.781 0.599512 5.58894 0
M  V30 8583 H 825.932 1.19554 1.75558 0
M  V30 8584 H 828.195 0.480765 0.817049 0
M  V30 8585 H 827.901 1.24835 3.28799 0
M  V30 8586 H 827.775 -0.440846 3.74615 0
M  V30 8587 H 830.162 -0.827263 2.83267 0
M  V30 8588 H 830.243 0.886399 2.39951 0
M  V30 8589 H 829.887 1.50026 4.85237 0
M  V30 8590 H 829.817 -0.232371 5.26087 0
M  V30 8591 H 832.308 0.237388 3.77154 0
M  V30 8592 H 832.621 1.10791 7.64817 0
M  V30 8593 H 830.966 0.989496 6.8792 0
M  V30 8594 H 834.157 0.378088 4.66571 0
M  V30 8595 H 834.33 0.774828 6.43351 0
M  V30 8596 N 827.736 -1.57571 -0.0300757 0
M  V30 8597 C 828.983 -1.89226 -0.721091 0
M  V30 8598 C 829.311 -0.840244 -1.75414 0
M  V30 8599 O 828.566 0.158906 -1.95054 0
M  V30 8600 C 828.865 -3.27624 -1.42818 0
M  V30 8601 C 828.531 -4.4776 -0.531208 0
M  V30 8602 C 827.193 -4.8036 -0.28415 0
M  V30 8603 C 829.545 -5.21125 0.0881582 0
M  V30 8604 C 826.873 -5.83715 0.591065 0
M  V30 8605 C 829.225 -6.2541 0.95107 0
M  V30 8606 C 827.889 -6.56486 1.2076 0
M  V30 8607 H 827.159 -0.692428 -0.263866 0
M  V30 8608 H 829.806 -1.91491 0.0189874 0
M  V30 8609 H 828.111 -3.21343 -2.24155 0
M  V30 8610 H 829.808 -3.49365 -1.96838 0
M  V30 8611 H 826.398 -4.2227 -0.73392 0
M  V30 8612 H 830.582 -4.96219 -0.0897496 0
M  V30 8613 H 825.838 -6.06168 0.798132 0
M  V30 8614 H 830.012 -6.81402 1.43751 0
M  V30 8615 H 827.639 -7.36395 1.88751 0
M  V30 8616 N 829.214 0.302327 -1.54673 0
M  V30 8617 C 830.144 1.37759 -1.88533 0
M  V30 8618 C 831.125 1.52961 -0.744113 0
M  V30 8619 O 832.31 1.6649 -0.999731 0
M  V30 8620 C 829.44 2.74201 -2.13146 0
M  V30 8621 C 828.394 2.73765 -3.28993 0
M  V30 8622 C 827.72 4.13483 -3.39022 0
M  V30 8623 C 829.02 2.35624 -4.66132 0
M  V30 8624 H 830.714 1.0967 -2.78591 0
M  V30 8625 H 828.26 0.52613 -1.34044 0
M  V30 8626 H 830.213 3.49508 -2.35419 0
M  V30 8627 H 828.937 3.03812 -1.19858 0
M  V30 8628 H 827.596 2.00914 -3.06642 0
M  V30 8629 H 827.244 4.40269 -2.43253 0
M  V30 8630 H 826.944 4.14093 -4.16894 0
M  V30 8631 H 828.468 4.90572 -3.63553 0
M  V30 8632 H 829.882 3.00647 -4.88143 0
M  V30 8633 H 828.279 2.47449 -5.46707 0
M  V30 8634 H 829.349 1.30753 -4.66939 0
M  V30 8635 N 830.692 1.47107 0.565454 0
M  V30 8636 C 831.655 1.58535 1.65527 0
M  V30 8637 C 832.655 0.461081 1.54048 0
M  V30 8638 O 833.845 0.725911 1.58355 0
M  V30 8639 C 830.977 1.52204 3.05036 0
M  V30 8640 H 832.17 2.55676 1.56747 0
M  V30 8641 H 829.723 1.35174 0.78471 0
M  V30 8642 H 830.458 0.564071 3.19357 0
M  V30 8643 H 830.243 2.3379 3.14777 0
M  V30 8644 H 831.733 1.63322 3.84338 0
M  V30 8645 N 832.17 -0.811516 1.35101 0
M  V30 8646 C 833.416 -1.57016 1.29296 0
M  V30 8647 C 833.771 -1.91941 -0.13288 0
M  V30 8648 O 833.064 -1.58121 -1.08204 0
M  V30 8649 C 833.258 -2.87121 2.1283 0
M  V30 8650 C 833.087 -2.64908 3.63392 0
M  V30 8651 C 831.857 -2.61055 4.32641 0
M  V30 8652 C 834.055 -2.35628 4.57148 0
M  V30 8653 N 832.037 -2.30508 5.68981 0
M  V30 8654 C 833.408 -2.14876 5.81574 0
M  V30 8655 C 835.463 -2.2145 4.45942 0
M  V30 8656 C 834.166 -1.81381 6.96055 0
M  V30 8657 C 836.192 -1.89352 5.60267 0
M  V30 8658 C 835.554 -1.69432 6.83719 0
M  V30 8659 H 831.653 -0.57649 0.528378 0
M  V30 8660 H 834.237 -0.950338 1.69931 0
M  V30 8661 H 832.408 -3.47007 1.74473 0
M  V30 8662 H 834.14 -3.52629 1.98582 0
M  V30 8663 H 830.895 -2.75531 3.85201 0
M  V30 8664 H 831.319 -2.18042 6.40927 0
M  V30 8665 H 835.961 -2.35551 3.51106 0
M  V30 8666 H 833.679 -1.66018 7.90863 0
M  V30 8667 H 837.265 -1.79098 5.53548 0
M  V30 8668 H 836.145 -1.44957 7.70686 0
M  V30 8669 N 833.648 -1.19017 -1.03309 0
M  V30 8670 C 834.896 -0.988258 -1.76289 0
M  V30 8671 C 835.217 0.482557 -1.88935 0
M  V30 8672 O 834.487 1.34969 -1.41987 0
M  V30 8673 H 833.067 -0.36267 -0.653054 0
M  V30 8674 H 835.729 -1.49836 -1.2464 0
M  V30 8675 H 834.825 -1.43273 -2.77271 0
M  V30 8676 N 835.127 1.22348 -0.993418 0
M  V30 8677 C 836.037 2.27987 -0.553076 0
M  V30 8678 C 837.053 1.69378 0.398386 0
M  V30 8679 O 838.229 1.99648 0.26509 0
M  V30 8680 C 835.294 3.46475 0.124809 0
M  V30 8681 C 834.355 4.20399 -0.869682 0
M  V30 8682 C 833.588 5.33229 -0.224052 0
M  V30 8683 O 833.811 5.61885 0.981915 0
M  V30 8684 O 832.745 5.94685 -0.929174 0
M  V30 8685 H 836.571 2.67822 -1.43195 0
M  V30 8686 H 834.156 1.28525 -0.761694 0
M  V30 8687 H 836.038 4.18369 0.504496 0
M  V30 8688 H 834.713 3.08565 0.978243 0
M  V30 8689 H 833.62 3.50774 -1.30031 0
M  V30 8690 H 834.953 4.62191 -1.69233 0
M  V30 8691 N 836.605 0.766683 1.37694 0
M  V30 8692 C 838.016 0.394761 1.82479 0
M  V30 8693 C 838.367 -1.07842 1.63904 0
M  V30 8694 O 837.492 -1.83479 1.14737 0
M  V30 8695 C 838.087 0.70974 3.31283 0
M  V30 8696 C 836.646 0.390936 3.74364 0
M  V30 8697 C 835.793 0.956192 2.60293 0
M  V30 8698 H 838.744 0.961756 1.26238 0
M  V30 8699 H 838.765 -0.00742144 3.80499 0
M  V30 8700 H 838.277 1.782 3.4477 0
M  V30 8701 H 836.378 -0.674213 3.66449 0
M  V30 8702 H 836.491 0.895645 4.70654 0
M  V30 8703 H 834.855 0.380744 2.51838 0
M  V30 8704 H 835.638 2.03375 2.76575 0
M  V30 8705 N 838.083 -1.48885 0.516809 0
M  V30 8706 C 839.046 -2.27916 -0.242256 0
M  V30 8707 C 840.046 -1.34601 -0.879735 0
M  V30 8708 O 841.236 -1.57616 -0.74182 0
M  V30 8709 C 838.368 -3.13067 -1.34914 0
M  V30 8710 H 839.561 -2.96483 0.451444 0
M  V30 8711 H 837.114 -1.5391 0.272294 0
M  V30 8712 H 837.849 -2.49102 -2.07651 0
M  V30 8713 H 837.634 -3.81695 -0.897313 0
M  V30 8714 H 839.124 -3.72716 -1.88341 0
M  V30 8715 N 839.561 -0.251338 -1.55583 0
M  V30 8716 C 840.807 0.37272 -1.99346 0
M  V30 8717 C 841.14 1.57266 -1.13934 0
M  V30 8718 O 840.415 1.9343 -0.20377 0
M  V30 8719 C 840.698 0.778245 -3.5159 0
M  V30 8720 C 840.551 -0.427394 -4.47765 0
M  V30 8721 C 841.87 1.62358 -4.09057 0
M  V30 8722 H 838.989 0.134002 -0.724715 0
M  V30 8723 H 841.631 -0.353536 -1.86682 0
M  V30 8724 H 839.781 1.39704 -3.62512 0
M  V30 8725 H 841.453 -1.06586 -4.48818 0
M  V30 8726 H 839.696 -1.06972 -4.20404 0
M  V30 8727 H 840.367 -0.10025 -5.51909 0
M  V30 8728 H 842.843 1.1012 -4.01264 0
M  V30 8729 H 841.719 1.87617 -5.1584 0
M  V30 8730 H 841.98 2.59688 -3.57791 0
M  V30 8731 N 841.039 1.57585 0.0217189 0
M  V30 8732 C 841.969 2.10073 1.01939 0
M  V30 8733 C 842.95 1.0049 1.37243 0
M  V30 8734 O 844.135 1.28055 1.45999 0
M  V30 8735 C 841.265 2.58618 2.31806 0
M  V30 8736 C 840.219 3.72531 2.10724 0
M  V30 8737 C 839.545 4.07309 3.46415 0
M  V30 8738 C 840.845 5.00672 1.48743 0
M  V30 8739 H 842.539 2.9368 0.582432 0
M  V30 8740 H 840.085 1.41277 0.278715 0
M  V30 8741 H 842.038 2.9396 3.01936 0
M  V30 8742 H 840.762 1.72104 2.77575 0
M  V30 8743 H 839.421 3.37549 1.43025 0
M  V30 8744 H 839.069 3.17851 3.89846 0
M  V30 8745 H 838.769 4.84042 3.33132 0
M  V30 8746 H 840.293 4.45192 4.17895 0
M  V30 8747 H 841.707 5.33925 2.088 0
M  V30 8748 H 840.104 5.82065 1.46013 0
M  V30 8749 H 841.174 4.82769 0.45408 0
M  V30 8750 N 842.517 -0.29412 1.54831 0
M  V30 8751 C 843.447 -1.36757 1.89261 0
M  V30 8752 C 844.428 -1.52564 0.752214 0
M  V30 8753 O 845.613 -1.65958 1.00855 0
M  V30 8754 C 842.743 -2.73066 2.14597 0
M  V30 8755 C 841.697 -2.72017 3.3044 0
M  V30 8756 C 841.023 -4.11679 3.4121 0
M  V30 8757 C 842.323 -2.33149 4.67375 0
M  V30 8758 H 844.017 -1.08191 2.79169 0
M  V30 8759 H 841.563 -0.519014 1.34321 0
M  V30 8760 H 843.516 -3.48255 2.37269 0
M  V30 8761 H 842.24 -3.03172 1.21467 0
M  V30 8762 H 840.899 -1.99285 3.07703 0
M  V30 8763 H 840.547 -4.38973 2.45584 0
M  V30 8764 H 840.247 -4.11877 4.19084 0
M  V30 8765 H 841.771 -4.88637 3.6615 0
M  V30 8766 H 843.185 -2.98054 4.89731 0
M  V30 8767 H 841.582 -2.44546 5.48012 0
M  V30 8768 H 842.652 -1.28275 4.67626 0
M  V30 8769 N 843.995 -1.47404 -0.557645 0
M  V30 8770 C 844.925 -1.62736 -1.67449 0
M  V30 8771 C 845.906 -0.476824 -1.6328 0
M  V30 8772 O 847.091 -0.706108 -1.80908 0
M  V30 8773 C 844.221 -1.641 -3.06086 0
M  V30 8774 C 843.175 -2.78377 -3.25101 0
M  V30 8775 C 842.501 -2.64812 -4.6452 0
M  V30 8776 C 843.801 -4.19971 -3.10518 0
M  V30 8777 H 845.495 -2.56232 -1.54873 0
M  V30 8778 H 843.041 -1.23312 -0.743649 0
M  V30 8779 H 844.994 -1.73417 -3.84063 0
M  V30 8780 H 843.718 -0.671652 -3.19619 0
M  V30 8781 H 842.377 -2.6857 -2.49531 0
M  V30 8782 H 842.025 -1.65906 -4.74852 0
M  V30 8783 H 841.725 -3.41477 -4.78191 0
M  V30 8784 H 843.249 -2.76057 -5.44633 0
M  V30 8785 H 844.663 -4.30757 -3.78313 0
M  V30 8786 H 843.06 -4.97419 -3.35699 0
M  V30 8787 H 844.13 -4.38369 -2.0727 0
M  V30 8788 N 845.473 0.80434 -1.35529 0
M  V30 8789 C 846.403 1.93086 -1.31301 0
M  V30 8790 C 847.384 1.69068 -0.187044 0
M  V30 8791 O 848.569 1.90399 -0.382359 0
M  V30 8792 C 845.699 3.29867 -1.0865 0
M  V30 8793 C 844.653 3.68373 -2.17911 0
M  V30 8794 C 843.979 5.0334 -1.80423 0
M  V30 8795 C 845.279 3.78516 -3.59893 0
M  V30 8796 H 846.973 1.96882 -2.25561 0
M  V30 8797 H 844.519 0.945841 -1.08581 0
M  V30 8798 H 846.472 4.08281 -1.04331 0
M  V30 8799 H 845.196 3.2642 -0.108359 0
M  V30 8800 H 843.855 2.92247 -2.21331 0
M  V30 8801 H 843.503 4.96399 -0.812213 0
M  V30 8802 H 843.203 5.30074 -2.53565 0
M  V30 8803 H 844.727 5.84191 -1.77633 0
M  V30 8804 H 846.141 4.47155 -3.58783 0
M  V30 8805 H 844.538 4.16721 -4.31814 0
M  V30 8806 H 845.608 2.8001 -3.95882 0
M  V30 8807 N 846.951 1.19563 1.02676 0
M  V30 8808 C 847.881 0.959024 2.12897 0
M  V30 8809 C 848.862 -0.108382 1.69754 0
M  V30 8810 O 850.047 0.0470698 1.94143 0
M  V30 8811 C 847.177 0.499211 3.43693 0
M  V30 8812 C 846.131 1.5087 4.00528 0
M  V30 8813 C 845.457 0.905884 5.2697 0
M  V30 8814 C 846.757 2.88954 4.3509 0
M  V30 8815 H 848.451 1.88084 2.32948 0
M  V30 8816 H 845.997 0.905731 1.11949 0
M  V30 8817 H 847.95 0.320965 4.20176 0
M  V30 8818 H 846.674 -0.458205 3.2337 0
M  V30 8819 H 845.333 1.67413 3.26142 0
M  V30 8820 H 844.981 -0.0591506 5.02965 0
M  V30 8821 H 844.681 1.58 5.65959 0
M  V30 8822 H 846.205 0.73848 6.06118 0
M  V30 8823 H 847.619 2.75981 5.02501 0
M  V30 8824 H 846.016 3.53177 4.85166 0
M  V30 8825 H 847.086 3.41447 3.44299 0
M  V30 8826 N 848.429 -1.21819 0.999893 0
M  V30 8827 C 849.359 -2.26282 0.576096 0
M  V30 8828 C 850.34 -1.65317 -0.400537 0
M  V30 8829 O 851.525 -1.92028 -0.28964 0
M  V30 8830 C 848.655 -3.47147 -0.103145 0
M  V30 8831 C 847.609 -4.20594 0.792745 0
M  V30 8832 C 846.935 -5.34696 -0.0198026 0
M  V30 8833 C 848.235 -4.78533 2.09293 0
M  V30 8834 H 849.929 -2.61984 1.4493 0
M  V30 8835 H 847.475 -1.25935 0.698316 0
M  V30 8836 H 849.428 -4.1939 -0.411068 0
M  V30 8837 H 848.152 -3.1056 -1.01094 0
M  V30 8838 H 846.811 -3.50194 1.08442 0
M  V30 8839 H 846.459 -4.94352 -0.928729 0
M  V30 8840 H 846.159 -5.84764 0.576661 0
M  V30 8841 H 847.683 -6.09752 -0.321659 0
M  V30 8842 H 849.097 -5.42682 1.8485 0
M  V30 8843 H 847.494 -5.38968 2.63881 0
M  V30 8844 H 848.564 -3.98197 2.76708 0
M  V30 8845 N 849.908 -0.773975 -1.37286 0
M  V30 8846 C 850.838 -0.175782 -2.32837 0
M  V30 8847 C 851.819 0.680603 -1.5589 0
M  V30 8848 O 853.004 0.617607 -1.84117 0
M  V30 8849 C 850.134 0.702388 -3.40123 0
M  V30 8850 C 849.088 -0.0528687 -4.27967 0
M  V30 8851 C 848.414 0.944891 -5.26285 0
M  V30 8852 C 849.714 -1.23316 -5.07534 0
M  V30 8853 H 851.408 -0.974016 -2.83114 0
M  V30 8854 H 848.954 -0.469826 -1.3612 0
M  V30 8855 H 850.907 1.13069 -4.05947 0
M  V30 8856 H 849.631 1.53316 -2.88378 0
M  V30 8857 H 848.29 -0.461978 -3.63678 0
M  V30 8858 H 847.938 1.77028 -4.70819 0
M  V30 8859 H 847.638 0.444079 -5.8592 0
M  V30 8860 H 849.162 1.37209 -5.94984 0
M  V30 8861 H 850.576 -0.881395 -5.66484 0
M  V30 8862 H 848.973 -1.66621 -5.76504 0
M  V30 8863 H 850.043 -2.03617 -4.40077 0
M  V30 8864 N 851.386 1.48609 -0.524698 0
M  V30 8865 C 852.611 2.07398 0.00952139 0
M  V30 8866 C 853.036 1.37939 1.27884 0
M  V30 8867 O 852.394 0.443633 1.75788 0
M  V30 8868 C 852.442 3.59916 0.221956 0
M  V30 8869 O 851.546 3.91647 1.29175 0
M  V30 8870 H 850.887 0.662981 -0.0367729 0
M  V30 8871 H 853.417 1.91092 -0.7311 0
M  V30 8872 H 853.427 4.05552 0.446236 0
M  V30 8873 H 852.102 4.09876 -0.705306 0
M  V30 8874 H 850.679 3.57796 1.05055 0
M  V30 8875 N 852.864 0.259585 1.55447 0
M  V30 8876 C 853.794 -0.62852 2.24882 0
M  V30 8877 C 854.775 -1.17128 1.23349 0
M  V30 8878 O 855.96 -1.20829 1.52033 0
M  V30 8879 C 853.09 -1.81983 2.95803 0
M  V30 8880 C 852.044 -1.40929 4.04132 0
M  V30 8881 C 851.37 -2.68246 4.62545 0
M  V30 8882 C 852.67 -0.570956 5.1917 0
M  V30 8883 H 854.364 -0.0495021 2.99359 0
M  V30 8884 H 851.91 -0.0223688 1.43983 0
M  V30 8885 H 853.863 -2.44689 3.43082 0
M  V30 8886 H 852.587 -2.42444 2.18835 0
M  V30 8887 H 851.246 -0.805519 3.57641 0
M  V30 8888 H 850.894 -3.26931 3.82263 0
M  V30 8889 H 850.594 -2.41495 5.35681 0
M  V30 8890 H 852.118 -3.31827 5.12565 0
M  V30 8891 H 853.532 -1.10262 5.62597 0
M  V30 8892 H 851.929 -0.398979 5.98772 0
M  V30 8893 H 852.999 0.413918 4.8313 0
M  V30 8894 N 854.342 -1.57594 -0.0133615 0
M  V30 8895 C 855.305 -2.06534 -0.993799 0
M  V30 8896 C 856.305 -0.972267 -1.28077 0
M  V30 8897 O 857.495 -1.23537 -1.22818 0
M  V30 8898 C 854.627 -2.49554 -2.3224 0
M  V30 8899 H 855.82 -2.94419 -0.570741 0
M  V30 8900 H 853.373 -1.54113 -0.260546 0
M  V30 8901 H 854.108 -1.64872 -2.79263 0
M  V30 8902 H 853.893 -3.29371 -2.12737 0
M  V30 8903 H 855.383 -2.8779 -3.026 0
M  V30 8904 N 855.82 0.285905 -1.54985 0
M  V30 8905 C 856.75 1.35752 -1.89983 0
M  V30 8906 C 857.731 1.52163 -0.760295 0
M  V30 8907 O 858.916 1.65421 -1.01733 0
M  V30 8908 C 856.046 2.71925 -2.16042 0
M  V30 8909 C 855 2.70261 -3.31878 0
M  V30 8910 C 854.326 4.09864 -3.43388 0
M  V30 8911 C 855.626 2.30667 -4.68604 0
M  V30 8912 H 857.32 1.06709 -2.79738 0
M  V30 8913 H 854.866 0.511884 -1.34595 0
M  V30 8914 H 856.819 3.46992 -2.39113 0
M  V30 8915 H 855.543 3.02523 -1.23074 0
M  V30 8916 H 854.202 1.97651 -3.08755 0
M  V30 8917 H 853.85 4.37664 -2.47909 0
M  V30 8918 H 853.55 4.09648 -4.21262 0
M  V30 8919 H 855.074 4.86689 -3.68736 0
M  V30 8920 H 856.488 2.95453 -4.91305 0
M  V30 8921 H 854.885 2.41637 -5.49301 0
M  V30 8922 H 855.955 1.25793 -4.68299 0
M  V30 8923 N 857.298 1.47698 0.54982 0
M  V30 8924 C 858.546 1.54397 1.30407 0
M  V30 8925 C 858.867 0.211026 1.93855 0
M  V30 8926 O 858.137 -0.765701 1.80316 0
M  V30 8927 H 856.717 0.568747 0.484289 0
M  V30 8928 H 859.379 1.84042 0.641444 0
M  V30 8929 H 858.475 2.31449 2.09375 0
M  V30 8930 N 858.776 -0.797141 1.35954 0
M  V30 8931 C 859.706 -1.92387 1.32323 0
M  V30 8932 C 860.687 -1.68967 0.196007 0
M  V30 8933 O 861.872 -1.90193 0.39245 0
M  V30 8934 C 859.002 -3.29286 1.10398 0
M  V30 8935 C 857.956 -3.67212 2.19862 0
M  V30 8936 C 857.282 -5.02377 1.8309 0
M  V30 8937 C 858.582 -3.76602 3.61896 0
M  V30 8938 H 860.276 -1.95683 2.26602 0
M  V30 8939 H 857.822 -0.94007 1.09081 0
M  V30 8940 H 859.775 -4.07721 1.06495 0
M  V30 8941 H 858.499 -3.26358 0.125668 0
M  V30 8942 H 857.158 -2.91069 2.22878 0
M  V30 8943 H 856.806 -4.95961 0.838527 0
M  V30 8944 H 856.506 -5.28722 2.56372 0
M  V30 8945 H 858.03 -5.8324 1.80729 0
M  V30 8946 H 859.444 -4.45246 3.6115 0
M  V30 8947 H 857.841 -4.14425 4.34018 0
M  V30 8948 H 858.911 -2.77906 3.97361 0
M  V30 8949 N 860.254 -1.20106 -1.0204 0
M  V30 8950 C 861.5 -1.01039 -1.75838 0
M  V30 8951 C 861.833 0.456819 -1.88751 0
M  V30 8952 O 861.108 1.33919 -1.41053 0
M  V30 8953 C 861.391 -1.69009 -3.17975 0
M  V30 8954 C 861.244 -3.2315 -3.1288 0
M  V30 8955 C 862.563 -1.42005 -4.16561 0
M  V30 8956 H 859.682 -0.368465 -0.638281 0
M  V30 8957 H 862.324 -1.48066 -1.19064 0
M  V30 8958 H 860.474 -1.29026 -3.66449 0
M  V30 8959 H 862.146 -3.72402 -2.72239 0
M  V30 8960 H 860.389 -3.54253 -2.50374 0
M  V30 8961 H 861.06 -3.65862 -4.13339 0
M  V30 8962 H 863.536 -1.76685 -3.76725 0
M  V30 8963 H 862.412 -1.92101 -5.14187 0
M  V30 8964 H 862.673 -0.346884 -4.40737 0
M  V30 8965 N 861.732 1.21287 -1.00634 0
M  V30 8966 C 862.662 2.25973 -0.588089 0
M  V30 8967 C 863.643 1.65527 0.391764 0
M  V30 8968 O 864.828 1.92179 0.279452 0
M  V30 8969 C 861.958 3.47197 0.0847336 0
M  V30 8970 C 860.912 4.20168 -0.815039 0
M  V30 8971 C 860.238 5.34699 -0.00855393 0
M  V30 8972 C 861.538 4.77416 -2.11828 0
M  V30 8973 H 863.232 2.61212 -1.46317 0
M  V30 8974 H 860.778 1.25563 -0.704985 0
M  V30 8975 H 862.731 4.19602 0.388821 0
M  V30 8976 H 861.455 3.11092 0.994456 0
M  V30 8977 H 860.114 3.49614 -1.10297 0
M  V30 8978 H 859.762 4.94837 0.902499 0
M  V30 8979 H 859.462 5.84449 -0.607664 0
M  V30 8980 H 860.986 6.09914 0.289317 0
M  V30 8981 H 862.4 5.41694 -1.87725 0
M  V30 8982 H 860.797 5.37561 -2.66736 0
M  V30 8983 H 861.867 3.96724 -2.78816 0
M  V30 8984 N 863.21 0.781244 1.36873 0
M  V30 8985 C 864.173 0.180094 2.28491 0
M  V30 8986 C 865.173 -0.617798 1.48458 0
M  V30 8987 O 866.363 -0.439991 1.68552 0
M  V30 8988 C 863.495 -0.751741 3.32508 0
M  V30 8989 H 864.688 0.987837 2.83164 0
M  V30 8990 H 862.241 0.550102 1.463 0
M  V30 8991 H 862.976 -1.58413 2.82977 0
M  V30 8992 H 862.761 -0.181649 3.91679 0
M  V30 8993 H 864.251 -1.16748 4.00949 0
M  V30 8994 N 864.689 -1.48329 0.532571 0
M  V30 8995 C 865.652 -2.2816 -0.218069 0
M  V30 8996 C 866.652 -1.35526 -0.865409 0
M  V30 8997 O 867.842 -1.58394 -0.725061 0
M  V30 8998 C 864.974 -3.1448 -1.31586 0
M  V30 8999 H 866.167 -2.95987 0.482865 0
M  V30 9000 H 863.72 -1.53612 0.288603 0
M  V30 9001 H 864.455 -2.5129 -2.04997 0
M  V30 9002 H 864.24 -3.82625 -0.856779 0
M  V30 9003 H 865.73 -3.74693 -1.84377 0
M  V30 9004 N 866.167 -0.267825 -1.55308 0
M  V30 9005 C 867.097 0.616585 -2.25212 0
M  V30 9006 C 868.078 1.16472 -1.23969 0
M  V30 9007 O 869.263 1.20021 -1.52672 0
M  V30 9008 C 866.393 1.80412 -2.96764 0
M  V30 9009 C 865.347 1.38784 -4.04874 0
M  V30 9010 C 864.673 2.65789 -4.63961 0
M  V30 9011 C 865.973 0.543415 -5.19465 0
M  V30 9012 H 867.667 0.0336257 -2.99381 0
M  V30 9013 H 865.213 0.0147328 -1.43992 0
M  V30 9014 H 867.166 2.42866 -3.44375 0
M  V30 9015 H 865.89 2.4128 -2.20118 0
M  V30 9016 H 864.549 0.786541 -3.58063 0
M  V30 9017 H 864.197 3.24899 -3.83992 0
M  V30 9018 H 863.897 2.38651 -5.36954 0
M  V30 9019 H 865.421 3.29104 -5.14318 0
M  V30 9020 H 866.835 1.07277 -5.63174 0
M  V30 9021 H 865.232 0.367219 -5.98975 0
M  V30 9022 H 866.302 -0.439534 -4.82904 0
M  V30 9023 N 867.645 1.57599 0.00500368 0
M  V30 9024 C 868.893 1.89973 0.68953 0
M  V30 9025 C 869.214 0.868531 1.7459 0
M  V30 9026 O 868.484 -0.0947367 1.95671 0
M  V30 9027 H 867.064 0.701153 0.25767 0
M  V30 9028 H 869.726 1.94869 -0.0347392 0
M  V30 9029 H 868.822 2.89584 1.16394 0
M  V30 9030 N 869.123 -0.277682 1.55134 0
M  V30 9031 C 870.053 -1.34742 1.90701 0
M  V30 9032 C 871.034 -1.51757 0.768354 0
M  V30 9033 O 872.219 -1.64879 1.02609 0
M  V30 9034 C 869.349 -2.70775 2.17481 0
M  V30 9035 C 868.303 -2.68497 3.33307 0
M  V30 9036 C 867.629 -4.08037 3.45557 0
M  V30 9037 C 868.929 -2.28178 4.69821 0
M  V30 9038 H 870.623 -1.05224 2.803 0
M  V30 9039 H 868.169 -0.504738 1.34864 0
M  V30 9040 H 870.122 -3.45719 2.40949 0
M  V30 9041 H 868.846 -3.01867 1.24676 0
M  V30 9042 H 867.505 -1.9601 3.09799 0
M  V30 9043 H 867.153 -4.36344 2.50226 0
M  V30 9044 H 866.853 -4.07409 4.23429 0
M  V30 9045 H 868.377 -4.84726 3.71312 0
M  V30 9046 H 869.791 -2.92843 4.92865 0
M  V30 9047 H 868.188 -2.3872 5.50575 0
M  V30 9048 H 869.258 -1.23308 4.6896 0
M  V30 9049 N 870.601 -1.47988 -0.541979 0
M  V30 9050 C 871.848 -1.55393 -1.29843 0
M  V30 9051 C 872.176 -0.222668 -1.93221 0
M  V30 9052 O 871.431 0.785936 -1.79225 0
M  V30 9053 C 871.73 -2.63189 -2.41798 0
M  V30 9054 C 871.396 -4.05999 -1.96151 0
M  V30 9055 C 870.058 -4.44872 -1.83419 0
M  V30 9056 C 872.41 -4.95545 -1.61507 0
M  V30 9057 C 869.738 -5.71108 -1.34361 0
M  V30 9058 C 872.09 -6.22259 -1.13915 0
M  V30 9059 C 870.754 -6.59998 -0.997911 0
M  V30 9060 H 870.024 -0.568623 -0.47513 0
M  V30 9061 H 872.671 -1.81654 -0.606142 0
M  V30 9062 H 870.976 -2.30743 -3.16647 0
M  V30 9063 H 872.673 -2.66138 -2.99953 0
M  V30 9064 H 869.263 -3.75294 -2.07008 0
M  V30 9065 H 873.447 -4.662 -1.70209 0
M  V30 9066 H 868.703 -5.99083 -1.22103 0
M  V30 9067 H 872.877 -6.91048 -0.861755 0
M  V30 9068 H 870.504 -7.57704 -0.615561 0
M  V30 9069 N 872.079 0.78992 -1.36375 0
M  V30 9070 C 873.325 1.55007 -1.3077 0
M  V30 9071 C 873.658 1.93871 0.112979 0
M  V30 9072 O 872.933 1.6267 1.06625 0
M  V30 9073 C 873.216 2.82748 -2.22993 0
M  V30 9074 C 873.069 2.50253 -3.73756 0
M  V30 9075 C 874.388 3.84569 -2.13998 0
M  V30 9076 H 871.507 0.562362 -0.476359 0
M  V30 9077 H 874.149 0.907582 -1.66922 0
M  V30 9078 H 872.299 3.37573 -1.92292 0
M  V30 9079 H 873.971 2.01482 -4.14973 0
M  V30 9080 H 872.214 1.83203 -3.93216 0
M  V30 9081 H 872.885 3.41487 -4.33694 0
M  V30 9082 H 875.361 3.39188 -2.4102 0
M  V30 9083 H 874.237 4.717 -2.80697 0
M  V30 9084 H 874.498 4.27491 -1.12711 0
M  V30 9085 N 873.557 1.20646 1.01402 0
M  V30 9086 C 874.507 0.925209 2.08384 0
M  V30 9087 C 875.491 -0.115994 1.60481 0
M  V30 9088 O 876.683 0.0917276 1.76762 0
M  V30 9089 C 873.812 0.48193 3.399 0
M  V30 9090 C 872.898 1.5567 3.94497 0
M  V30 9091 N 873.289 2.77971 4.2257 0
M  V30 9092 C 871.587 1.42347 4.22674 0
M  V30 9093 C 872.288 3.47317 4.66632 0
M  V30 9094 N 871.264 2.74736 4.69064 0
M  V30 9095 H 875.066 1.85452 2.28002 0
M  V30 9096 H 872.58 1.10084 1.19395 0
M  V30 9097 H 874.577 0.261835 4.16077 0
M  V30 9098 H 873.237 -0.440725 3.21695 0
M  V30 9099 H 874.248 3.14598 4.11398 0
M  V30 9100 H 870.925 0.565417 4.13654 0
M  V30 9101 H 872.315 4.51985 4.97151 0
M  V30 9102 N 875.035 -1.20752 1.01276 0
M  V30 9103 C 875.985 -2.21252 0.550602 0
M  V30 9104 C 876.969 -1.56052 -0.391985 0
M  V30 9105 O 878.161 -1.75682 -0.215575 0
M  V30 9106 C 875.29 -3.43112 -0.113601 0
M  V30 9107 C 874.376 -4.15485 0.850465 0
M  V30 9108 N 874.767 -4.64301 2.00643 0
M  V30 9109 C 873.065 -4.40932 0.670476 0
M  V30 9110 C 873.766 -5.197 2.61317 0
M  V30 9111 N 872.742 -5.09534 1.8941 0
M  V30 9112 H 876.544 -2.56657 1.43194 0
M  V30 9113 H 874.058 -1.36646 0.877597 0
M  V30 9114 H 876.055 -4.1433 -0.462211 0
M  V30 9115 H 874.715 -3.09213 -0.990825 0
M  V30 9116 H 875.726 -4.59637 2.38651 0
M  V30 9117 H 872.403 -4.17197 -0.159016 0
M  V30 9118 H 873.793 -5.67873 3.59123 0
M  V30 9119 N 876.513 -0.788492 -1.36457 0
M  V30 9120 C 877.929 -0.470063 -1.52521 0
M  V30 9121 C 878.129 1.01176 -1.74258 0
M  V30 9122 O 877.185 1.79726 -1.77355 0
M  V30 9123 C 878.498 -1.2997 -2.71161 0
M  V30 9124 C 880.046 -1.2933 -2.85031 0
M  V30 9125 C 880.521 -2.10665 -4.06674 0
M  V30 9126 N 882.012 -2.08107 -4.13819 0
M  V30 9127 C 882.747 -2.6781 -5.07016 0
M  V30 9128 N 882.243 -3.36369 -6.05663 0
M  V30 9129 N 884.036 -2.57549 -4.99625 0
M  V30 9130 H 876.187 -1.7484 -1.20602 0
M  V30 9131 H 878.45 -0.743159 -0.588574 0
M  V30 9132 H 878.156 -2.35051 -2.61618 0
M  V30 9133 H 878.03 -0.940367 -3.6529 0
M  V30 9134 H 880.417 -0.250414 -2.94036 0
M  V30 9135 H 880.498 -1.69239 -1.91812 0
M  V30 9136 H 880.142 -3.14984 -3.98431 0
M  V30 9137 H 880.072 -1.68128 -4.9904 0
M  V30 9138 H 882.563 -1.58208 -3.43189 0
M  V30 9139 H 882.876 -3.79258 -6.73338 0
M  V30 9140 H 881.221 -3.40471 -6.05891 0
M  V30 9141 H 884.412 -2.0359 -4.21508 0
M  V30 9142 H 884.585 -3.0437 -5.72069 0
M  V30 9143 N 877.991 1.48044 -0.54043 0
M  V30 9144 C 879.268 1.95523 0.0547302 0
M  V30 9145 C 879.648 1.48284 1.5025 0
M  V30 9146 O 878.996 0.714037 2.17057 0
M  V30 9147 C 879.206 3.48923 -0.0733393 0
M  V30 9148 C 880.554 4.24523 0.0806026 0
M  V30 9149 O 881.578 3.562 -5.58687e-05 0
M  V30 9150 O 880.437 5.45922 0.251216 0
M  V30 9151 H 877.531 0.823728 0.073493 0
M  V30 9152 H 880.077 1.5852 -0.605768 0
M  V30 9153 H 878.849 3.76059 -1.08144 0
M  V30 9154 H 878.472 3.92648 0.625536 0
M  V30 9155 N 879.47 0.276058 1.55163 0
M  V30 9156 C 880.695 -0.346648 2.04483 0
M  V30 9157 C 881.12 -1.48613 1.15308 0
M  V30 9158 O 880.478 -1.80663 0.151875 0
M  V30 9159 C 880.526 -0.804268 3.51517 0
M  V30 9160 O 879.63 -1.91143 3.65429 0
M  V30 9161 H 878.971 -0.0715251 0.660136 0
M  V30 9162 H 881.501 0.410631 2.00437 0
M  V30 9163 H 881.511 -1.09977 3.92898 0
M  V30 9164 H 880.186 0.0294123 4.1589 0
M  V30 9165 H 878.763 -1.61839 3.3595 0
M  V30 9166 N 880.948 -1.576 0.00335426 0
M  V30 9167 C 882.359 -1.7875 -0.539008 0
M  V30 9168 C 882.71 -0.911097 -1.73763 0
M  V30 9169 O 881.835 -0.114476 -2.16097 0
M  V30 9170 C 882.43 -3.24177 -0.984611 0
M  V30 9171 C 880.989 -3.46412 -1.47226 0
M  V30 9172 C 880.136 -2.74024 -0.425004 0
M  V30 9173 H 883.087 -1.57032 0.229511 0
M  V30 9174 H 883.108 -3.32474 -1.85044 0
M  V30 9175 H 882.62 -3.87938 -0.112035 0
M  V30 9176 H 880.721 -2.8787 -2.36562 0
M  V30 9177 H 880.834 -4.55098 -1.49741 0
M  V30 9178 H 879.198 -2.38741 -0.887394 0
M  V30 9179 H 879.981 -3.40486 0.438662 0
M  V30 9180 N 882.426 0.269451 -1.5528 0
M  V30 9181 C 883.356 1.33729 -1.91413 0
M  V30 9182 C 884.337 1.51348 -0.776391 0
M  V30 9183 O 885.522 1.64332 -1.03482 0
M  V30 9184 C 882.652 2.69618 -2.18914 0
M  V30 9185 C 881.606 2.66725 -3.34726 0
M  V30 9186 C 880.932 4.06199 -3.47716 0
M  V30 9187 C 882.232 2.25684 -4.71025 0
M  V30 9188 H 883.926 1.03736 -2.80854 0
M  V30 9189 H 881.472 0.497579 -1.3513 0
M  V30 9190 H 883.425 3.44436 -2.42779 0
M  V30 9191 H 882.149 3.01201 -1.26275 0
M  V30 9192 H 880.808 1.94365 -3.10834 0
M  V30 9193 H 880.456 4.3501 -2.52537 0
M  V30 9194 H 880.156 4.05157 -4.25583 0
M  V30 9195 H 881.68 4.8275 -3.73877 0
M  V30 9196 H 883.094 2.90225 -4.94411 0
M  V30 9197 H 881.491 2.35797 -5.51833 0
M  V30 9198 H 882.561 1.20819 -4.69607 0
M  V30 9199 N 883.904 1.48273 0.534124 0
M  V30 9200 C 885.15 1.56311 1.29208 0
M  V30 9201 C 885.483 0.234481 1.92779 0
M  V30 9202 O 884.758 -0.759143 1.79073 0
M  V30 9203 C 885.041 2.69831 2.3846 0
M  V30 9204 C 884.894 4.12385 1.79608 0
M  V30 9205 C 886.213 2.79133 3.40254 0
M  V30 9206 H 883.332 0.56899 0.468422 0
M  V30 9207 H 885.974 1.80429 0.595438 0
M  V30 9208 H 884.124 2.49397 2.97881 0
M  V30 9209 H 885.796 4.44246 1.24269 0
M  V30 9210 H 884.039 4.19579 1.10162 0
M  V30 9211 H 884.71 4.87629 2.58693 0
M  V30 9212 H 887.186 2.97632 2.90783 0
M  V30 9213 H 886.062 3.60298 4.14097 0
M  V30 9214 H 886.323 1.87122 4.00547 0
M  V30 9215 N 885.382 -0.782676 1.36792 0
M  V30 9216 C 886.314 -1.9044 1.27536 0
M  V30 9217 C 887.327 -1.61647 0.193426 0
M  V30 9218 O 888.516 -1.72769 0.448692 0
M  V30 9219 C 885.616 -3.2541 0.946641 0
M  V30 9220 C 884.789 -3.81932 2.13183 0
M  V30 9221 C 883.848 -4.95355 1.7751 0
M  V30 9222 O 882.874 -5.11517 2.49678 0
M  V30 9223 N 884.076 -5.76108 0.712755 0
M  V30 9224 H 886.841 -1.98899 2.24186 0
M  V30 9225 H 884.402 -0.96127 1.30274 0
M  V30 9226 H 886.394 -3.98791 0.689043 0
M  V30 9227 H 884.964 -3.12524 0.0690591 0
M  V30 9228 H 884.184 -3.00459 2.55183 0
M  V30 9229 H 885.472 -4.16426 2.92347 0
M  V30 9230 H 884.87 -5.65586 0.113662 0
M  V30 9231 H 883.427 -6.49762 0.514995 0
M  V30 9232 N 886.86 -1.21182 -1.00761 0
M  V30 9233 C 887.823 -0.970339 -2.07646 0
M  V30 9234 C 888.823 0.0576345 -1.60697 0
M  V30 9235 O 890.013 -0.179369 -1.73274 0
M  V30 9236 C 887.145 -0.462703 -3.37745 0
M  V30 9237 H 888.338 -1.91856 -2.30502 0
M  V30 9238 H 885.891 -1.02844 -1.17698 0
M  V30 9239 H 886.626 0.490559 -3.20568 0
M  V30 9240 H 886.411 -1.20416 -3.73152 0
M  V30 9241 H 887.901 -0.313531 -4.16421 0
M  V30 9242 N 888.338 1.20213 -1.01915 0
M  V30 9243 C 889.563 1.94163 -0.729076 0
M  V30 9244 C 889.988 1.74416 0.704323 0
M  V30 9245 O 889.346 1.0401 1.48498 0
M  V30 9246 C 889.394 3.44258 -1.07324 0
M  V30 9247 O 888.498 4.11979 -0.186367 0
M  V30 9248 H 887.839 0.606506 -0.270272 0
M  V30 9249 H 890.369 1.52571 -1.3632 0
M  V30 9250 H 890.379 3.94888 -1.02603 0
M  V30 9251 H 889.054 3.57954 -2.11759 0
M  V30 9252 H 887.631 3.7176 -0.291334 0
M  V30 9253 N 889.816 0.795718 1.36037 0
M  V30 9254 C 891.064 0.370291 1.98679 0
M  V30 9255 C 891.385 -1.06332 1.63458 0
M  V30 9256 O 890.655 -1.73394 0.911671 0
M  V30 9257 H 889.235 0.133928 0.734896 0
M  V30 9258 H 891.897 1.01915 1.6613 0
M  V30 9259 H 890.993 0.467207 3.08583 0
M  V30 9260 N 891.294 -1.47756 0.548274 0
M  V30 9261 C 892.542 -2.02089 0.0208542 0
M  V30 9262 C 892.863 -1.42589 -1.33017 0
M  V30 9263 O 892.133 -0.597825 -1.86555 0
M  V30 9264 H 890.713 -0.746985 0.00472023 0
M  V30 9265 H 893.375 -1.81262 0.716257 0
M  V30 9266 H 892.471 -3.12012 -0.0739016 0
M  V30 9267 N 892.772 -0.284283 -1.55015 0
M  V30 9268 C 894.183 0.211681 -1.85496 0
M  V30 9269 C 894.534 1.54735 -1.2063 0
M  V30 9270 O 893.659 2.10594 -0.497918 0
M  V30 9271 C 894.254 0.390864 -3.36538 0
M  V30 9272 C 892.813 0.831055 -3.67111 0
M  V30 9273 C 891.96 -0.0703581 -2.77211 0
M  V30 9274 H 894.911 -0.505803 -1.50424 0
M  V30 9275 H 894.932 1.22803 -3.60138 0
M  V30 9276 H 894.444 -0.581409 -3.8372 0
M  V30 9277 H 892.545 1.81447 -3.25434 0
M  V30 9278 H 892.658 0.662026 -4.74504 0
M  V30 9279 H 891.022 0.447528 -2.50737 0
M  V30 9280 H 891.805 -1.03868 -3.2721 0
M  V30 9281 N 894.251 1.57596 -0.0117121 0
M  V30 9282 C 895.181 2.12188 0.9746 0
M  V30 9283 C 896.162 1.03379 1.35081 0
M  V30 9284 O 897.347 1.31123 1.4325 0
M  V30 9285 C 894.477 2.63477 2.26268 0
M  V30 9286 C 893.431 3.76917 2.02774 0
M  V30 9287 C 892.757 4.14566 3.37697 0
M  V30 9288 C 894.057 5.03715 1.38089 0
M  V30 9289 H 895.751 2.9485 0.520007 0
M  V30 9290 H 893.297 1.41836 0.248685 0
M  V30 9291 H 895.25 3.00299 2.95633 0
M  V30 9292 H 893.974 1.77953 2.73862 0
M  V30 9293 H 892.633 3.40507 1.35832 0
M  V30 9294 H 892.281 3.26048 3.83016 0
M  V30 9295 H 891.981 4.91 3.22789 0
M  V30 9296 H 893.505 4.53956 4.08358 0
M  V30 9297 H 894.919 5.38233 1.97428 0
M  V30 9298 H 893.316 5.85032 1.33634 0
M  V30 9299 H 894.386 4.83624 0.351575 0
M  V30 9300 N 895.729 -0.261212 1.5542 0
M  V30 9301 C 896.692 -1.30645 1.8832 0
M  V30 9302 C 897.692 -1.41782 0.758588 0
M  V30 9303 O 898.882 -1.40729 1.02669 0
M  V30 9304 C 896.014 -2.6862 2.09895 0
M  V30 9305 H 897.207 -1.02698 2.81768 0
M  V30 9306 H 894.76 -0.499838 1.48092 0
M  V30 9307 H 895.495 -3.0173 1.18868 0
M  V30 9308 H 895.28 -2.61921 2.91787 0
M  V30 9309 H 896.77 -3.44121 2.36581 0
M  V30 9310 N 897.207 -1.48554 -0.526253 0
M  V30 9311 C 898.447 -1.58362 -1.29232 0
M  V30 9312 C 898.811 -0.253353 -1.90321 0
M  V30 9313 O 900.012 -0.226439 -2.67845 0
M  V30 9314 C 898.283 -2.69294 -2.3498 0
M  V30 9315 S 899.842 -2.98891 -3.21262 0
M  V30 9316 H 896.66 -0.558859 -0.439543 0
M  V30 9317 H 899.262 -1.86094 -0.599099 0
M  V30 9318 H 897.966 -3.64504 -1.88587 0
M  V30 9319 H 897.497 -2.43475 -3.09004 0
M  V30 9320 H 899.512 -2.38475 -4.35137 0
M  V30 9321 N 898.685 0.775411 -1.37205 0
M  V30 9322 C 899.932 1.53384 -1.32211 0
M  V30 9323 C 900.26 1.9427 0.0944958 0
M  V30 9324 O 899.515 1.64059 1.06692 0
M  V30 9325 C 899.814 2.81377 -2.20367 0
M  V30 9326 C 899.48 2.59561 -3.68699 0
M  V30 9327 C 898.142 2.53319 -4.09124 0
M  V30 9328 C 900.494 2.39939 -4.62686 0
M  V30 9329 C 897.822 2.25442 -5.41658 0
M  V30 9330 C 900.174 2.13586 -5.95453 0
M  V30 9331 C 898.838 2.05786 -6.34987 0
M  V30 9332 H 898.108 0.561271 -0.483793 0
M  V30 9333 H 900.755 0.893466 -1.6938 0
M  V30 9334 H 899.06 3.49954 -1.76181 0
M  V30 9335 H 900.757 3.39238 -2.13819 0
M  V30 9336 H 897.347 2.6528 -3.36637 0
M  V30 9337 H 901.531 2.43753 -4.32317 0
M  V30 9338 H 896.787 2.17896 -5.71254 0
M  V30 9339 H 900.961 1.97401 -6.67837 0
M  V30 9340 H 898.588 1.83948 -7.37609 0
M  V30 9341 N 900.163 1.21714 1.00117 0
M  V30 9342 C 901.411 1.03465 1.73607 0
M  V30 9343 C 901.732 -0.432295 1.90148 0
M  V30 9344 O 901.002 -1.31157 1.45515 0
M  V30 9345 H 899.582 0.379857 0.643209 0
M  V30 9346 H 902.244 1.53088 1.20624 0
M  V30 9347 H 901.34 1.50574 2.73375 0
M  V30 9348 N 901.641 -1.19671 1.02551 0
M  V30 9349 C 902.571 -2.25009 0.623965 0
M  V30 9350 C 903.552 -1.66129 -0.36538 0
M  V30 9351 O 904.737 -1.92599 -0.248842 0
M  V30 9352 C 901.867 -3.47287 -0.0294869 0
M  V30 9353 C 900.821 -4.18818 0.881781 0
M  V30 9354 C 900.147 -5.34618 0.0936189 0
M  V30 9355 C 901.447 -4.73986 2.19396 0
M  V30 9356 H 903.141 -2.58851 1.50454 0
M  V30 9357 H 900.687 -1.24425 0.724872 0
M  V30 9358 H 902.64 -4.20168 -0.322016 0
M  V30 9359 H 901.364 -3.12635 -0.944838 0
M  V30 9360 H 900.023 -3.47815 1.15845 0
M  V30 9361 H 899.671 -4.9621 -0.823661 0
M  V30 9362 H 899.371 -5.83409 0.700568 0
M  V30 9363 H 900.895 -6.10297 -0.192249 0
M  V30 9364 H 902.309 -5.38639 1.96319 0
M  V30 9365 H 900.706 -5.3325 2.75254 0
M  V30 9366 H 901.776 -3.92238 2.85092 0
M  V30 9367 N 903.119 -0.802921 -1.35613 0
M  V30 9368 C 904.365 -0.382141 -1.99167 0
M  V30 9369 C 904.698 1.04704 -1.63556 0
M  V30 9370 O 903.973 1.72578 -0.89706 0
M  V30 9371 C 904.256 -0.561493 -3.55695 0
M  V30 9372 C 904.109 -2.03534 -4.01116 0
M  V30 9373 C 905.428 0.0151135 -4.40097 0
M  V30 9374 H 902.547 -0.140322 -0.723518 0
M  V30 9375 H 905.189 -1.01177 -1.6082 0
M  V30 9376 H 903.339 -0.0255083 -3.88492 0
M  V30 9377 H 905.011 -2.63343 -3.78746 0
M  V30 9378 H 903.254 -2.5331 -3.52159 0
M  V30 9379 H 903.925 -2.11173 -5.1001 0
M  V30 9380 H 906.401 -0.442582 -4.1374 0
M  V30 9381 H 905.277 -0.140316 -5.48721 0
M  V30 9382 H 905.538 1.10848 -4.27978 0
M  V30 9383 N 904.597 1.47463 -0.556102 0
M  V30 9384 C 905.837 2.04372 -0.0339743 0
M  V30 9385 C 906.201 1.42125 1.29091 0
M  V30 9386 O 907.402 1.90074 1.90066 0
M  V30 9387 C 905.673 3.57352 0.0585316 0
M  V30 9388 S 907.232 4.35625 0.526943 0
M  V30 9389 H 904.05 0.710574 -0.0246115 0
M  V30 9390 H 906.652 1.80848 -0.742585 0
M  V30 9391 H 905.356 4.00181 -0.910116 0
M  V30 9392 H 904.887 3.85371 0.790731 0
M  V30 9393 H 906.902 4.62911 1.78683 0
M  V30 9394 N 906.075 0.2925 1.54862 0
M  V30 9395 C 907.005 -0.580677 2.26165 0
M  V30 9396 C 907.986 -1.14485 1.25806 0
M  V30 9397 O 909.171 -1.17577 1.54562 0
M  V30 9398 C 906.301 -1.75668 2.99596 0
M  V30 9399 C 905.255 -1.32325 4.07031 0
M  V30 9400 C 904.581 -2.58374 4.68131 0
M  V30 9401 C 905.881 -0.460703 5.20264 0
M  V30 9402 H 907.575 0.0140075 2.99397 0
M  V30 9403 H 905.121 0.00817706 1.43998 0
M  V30 9404 H 907.074 -2.37356 3.48195 0
M  V30 9405 H 905.798 -2.37747 2.23928 0
M  V30 9406 H 904.457 -0.729477 3.59269 0
M  V30 9407 H 904.105 -3.18749 3.89112 0
M  V30 9408 H 903.805 -2.30078 5.40683 0
M  V30 9409 H 905.329 -3.2088 5.19489 0
M  V30 9410 H 906.743 -0.983037 5.64809 0
M  V30 9411 H 905.14 -0.271881 5.99484 0
M  V30 9412 H 906.21 0.516304 4.82143 0
M  V30 9413 N 907.553 -1.57587 0.0200696 0
M  V30 9414 C 908.801 -1.91046 -0.65922 0
M  V30 9415 C 909.122 -0.896197 -1.73186 0
M  V30 9416 O 908.392 0.0635952 -1.95797 0
M  V30 9417 H 906.972 -0.705163 -0.246483 0
M  V30 9418 H 909.634 -1.94789 0.0657368 0
M  V30 9419 H 908.73 -2.91399 -1.11773 0
M  V30 9420 N 909.032 0.252966 -1.55557 0
M  V30 9421 C 909.962 1.31691 -1.9282 0
M  V30 9422 C 910.943 1.50516 -0.7924 0
M  V30 9423 O 912.128 1.63225 -1.05219 0
M  V30 9424 C 909.258 2.67281 -2.21762 0
M  V30 9425 C 908.212 2.6316 -3.37536 0
M  V30 9426 C 907.538 4.02488 -3.52005 0
M  V30 9427 C 908.838 2.20675 -4.73392 0
M  V30 9428 H 910.532 1.00751 -2.81939 0
M  V30 9429 H 908.078 0.483219 -1.3565 0
M  V30 9430 H 910.031 3.41842 -2.46419 0
M  V30 9431 H 908.755 2.99845 -1.29463 0
M  V30 9432 H 907.414 1.91057 -3.12878 0
M  V30 9433 H 907.062 4.32307 -2.57137 0
M  V30 9434 H 906.762 4.00621 -4.29857 0
M  V30 9435 H 908.286 4.78758 -3.78977 0
M  V30 9436 H 909.7 2.84965 -4.97461 0
M  V30 9437 H 908.097 2.29931 -5.54303 0
M  V30 9438 H 909.167 1.15831 -4.70862 0
M  V30 9439 N 910.51 1.48831 0.518367 0
M  V30 9440 C 911.756 1.57672 1.27543 0
M  V30 9441 C 912.089 0.254915 1.9252 0
M  V30 9442 O 911.364 -0.740107 1.79868 0
M  V30 9443 C 911.647 2.72345 2.35585 0
M  V30 9444 C 911.5 4.14267 1.75224 0
M  V30 9445 C 912.819 2.82726 3.37274 0
M  V30 9446 H 909.938 0.573926 0.462361 0
M  V30 9447 H 912.58 1.8105 0.576267 0
M  V30 9448 H 910.73 2.52543 2.95219 0
M  V30 9449 H 912.402 4.45539 1.19551 0
M  V30 9450 H 910.645 4.20724 1.05706 0
M  V30 9451 H 911.316 4.90345 2.53507 0
M  V30 9452 H 913.792 3.00699 2.8761 0
M  V30 9453 H 912.668 3.6467 4.10252 0
M  V30 9454 H 912.929 1.9136 3.9854 0
M  V30 9455 N 911.988 -0.768124 1.37614 0
M  V30 9456 C 913.228 -1.53979 1.34424 0
M  V30 9457 C 913.592 -1.91874 -0.0696803 0
M  V30 9458 O 914.793 -2.67845 -0.22633 0
M  V30 9459 C 913.064 -2.76845 2.26034 0
M  V30 9460 S 914.623 -3.66871 2.4073 0
M  V30 9461 H 911.441 -0.527108 0.477157 0
M  V30 9462 H 914.043 -0.902945 1.73399 0
M  V30 9463 H 912.747 -2.47091 3.2768 0
M  V30 9464 H 912.278 -3.45486 1.88157 0
M  V30 9465 H 914.293 -4.6899 1.62057 0
M  V30 9466 N 913.466 -1.22244 -0.994698 0
M  V30 9467 C 914.396 -1.01513 -2.10279 0
M  V30 9468 C 915.377 0.0633365 -1.69982 0
M  V30 9469 O 916.562 -0.0985268 -1.9395 0
M  V30 9470 C 913.692 -0.59016 -3.42249 0
M  V30 9471 C 912.646 -1.61436 -3.96387 0
M  V30 9472 C 911.972 -1.04528 -5.24383 0
M  V30 9473 C 913.272 -3.00388 -4.27276 0
M  V30 9474 H 914.966 -1.94194 -2.2788 0
M  V30 9475 H 912.512 -0.935094 -1.09508 0
M  V30 9476 H 914.465 -0.432254 -4.19177 0
M  V30 9477 H 913.189 0.372308 -3.24471 0
M  V30 9478 H 911.848 -1.76001 -3.21589 0
M  V30 9479 H 911.496 -0.0742225 -5.02945 0
M  V30 9480 H 911.196 -1.72949 -5.61571 0
M  V30 9481 H 912.72 -0.898922 -6.03947 0
M  V30 9482 H 914.134 -2.89207 -4.95007 0
M  V30 9483 H 912.531 -3.65916 -4.75631 0
M  V30 9484 H 913.601 -3.50456 -3.35125 0
M  V30 9485 N 914.944 1.19125 -1.03184 0
M  V30 9486 C 916.169 1.93379 -0.749628 0
M  V30 9487 C 916.594 1.75153 0.685785 0
M  V30 9488 O 915.952 1.05579 1.47386 0
M  V30 9489 C 916 3.43101 -1.1097 0
M  V30 9490 O 915.104 4.11758 -0.230053 0
M  V30 9491 H 914.445 0.603605 -0.276689 0
M  V30 9492 H 916.975 1.51116 -1.37931 0
M  V30 9493 H 916.985 3.93778 -1.06785 0
M  V30 9494 H 915.66 3.55688 -2.15544 0
M  V30 9495 H 914.237 3.7143 -0.330748 0
M  V30 9496 N 916.422 0.810101 1.35185 0
M  V30 9497 C 917.668 0.392698 1.98962 0
M  V30 9498 C 918.001 -1.03835 1.64109 0
M  V30 9499 O 917.276 -1.721 0.9062 0
M  V30 9500 C 917.559 0.580349 3.55393 0
M  V30 9501 C 917.412 2.05658 4.00031 0
M  V30 9502 C 918.731 0.00822618 4.40099 0
M  V30 9503 H 915.85 0.144157 0.722764 0
M  V30 9504 H 918.492 1.02029 1.60281 0
M  V30 9505 H 916.642 0.0461106 3.88473 0
M  V30 9506 H 918.314 2.65348 3.77344 0
M  V30 9507 H 916.557 2.55174 3.50811 0
M  V30 9508 H 917.228 2.13875 5.08883 0
M  V30 9509 H 919.704 0.464517 4.13499 0
M  V30 9510 H 918.58 0.169414 5.48638 0
M  V30 9511 H 918.841 -1.08576 4.2856 0
M  V30 9512 N 917.9 -1.47166 0.563914 0
M  V30 9513 C 918.83 -2.32894 -0.168148 0
M  V30 9514 C 919.811 -1.44202 -0.902214 0
M  V30 9515 O 920.996 -1.73048 -0.881365 0
M  V30 9516 C 918.126 -3.26116 -1.19439 0
M  V30 9517 C 917.08 -4.24101 -0.576363 0
M  V30 9518 C 916.406 -5.06696 -1.70772 0
M  V30 9519 C 917.706 -5.20142 0.47425 0
M  V30 9520 H 919.4 -2.9435 0.547573 0
M  V30 9521 H 916.946 -1.41545 0.264778 0
M  V30 9522 H 918.899 -3.84935 -1.71474 0
M  V30 9523 H 917.623 -2.62728 -1.94014 0
M  V30 9524 H 916.282 -3.66519 -0.0772534 0
M  V30 9525 H 915.93 -4.39707 -2.44268 0
M  V30 9526 H 915.63 -5.7304 -1.29994 0
M  V30 9527 H 917.154 -5.68375 -2.2312 0
M  V30 9528 H 918.568 -5.73286 0.0397035 0
M  V30 9529 H 916.965 -5.94726 0.801287 0
M  V30 9530 H 918.035 -4.65214 1.36764 0
M  V30 9531 N 919.378 -0.300708 -1.54705 0
M  V30 9532 C 920.308 0.568675 -2.26469 0
M  V30 9533 C 921.289 1.13817 -1.26411 0
M  V30 9534 O 922.474 1.16756 -1.55183 0
M  V30 9535 C 919.604 1.74077 -3.00524 0
M  V30 9536 C 918.558 1.30165 -4.07727 0
M  V30 9537 C 917.884 2.55888 -4.69495 0
M  V30 9538 C 919.184 0.433106 -5.20501 0
M  V30 9539 H 920.878 -0.0298851 -2.99385 0
M  V30 9540 H 918.424 -0.0158135 -1.43991 0
M  V30 9541 H 920.377 2.35506 -3.49449 0
M  V30 9542 H 919.101 2.36556 -2.25186 0
M  V30 9543 H 917.76 0.710414 -3.59651 0
M  V30 9544 H 917.408 3.16681 -3.90797 0
M  V30 9545 H 917.108 2.27207 -5.41895 0
M  V30 9546 H 918.632 3.18121 -5.21183 0
M  V30 9547 H 920.046 0.95307 -5.65322 0
M  V30 9548 H 918.443 0.240085 -5.9962 0
M  V30 9549 H 919.513 -0.541866 -4.81863 0
M  V30 9550 N 920.856 1.57574 -0.0284266 0
M  V30 9551 C 922.103 1.91772 0.650364 0
M  V30 9552 C 922.431 0.904769 1.72175 0
M  V30 9553 O 921.686 -0.0864038 1.95509 0
M  V30 9554 C 921.985 3.32699 1.3056 0
M  V30 9555 C 921.651 4.49423 0.364658 0
M  V30 9556 C 920.313 4.81084 0.105672 0
M  V30 9557 C 922.665 5.20439 -0.28151 0
M  V30 9558 C 919.993 5.81119 -0.8073 0
M  V30 9559 C 922.345 6.21449 -1.18253 0
M  V30 9560 C 921.009 6.51551 -1.45042 0
M  V30 9561 H 920.279 0.701744 0.237985 0
M  V30 9562 H 922.926 1.91288 -0.0900448 0
M  V30 9563 H 921.231 3.29441 2.12075 0
M  V30 9564 H 922.928 3.5643 1.83736 0
M  V30 9565 H 919.518 4.24703 0.576692 0
M  V30 9566 H 923.702 4.9621 -0.0944806 0
M  V30 9567 H 918.958 6.02788 -1.02256 0
M  V30 9568 H 923.132 6.75597 -1.68942 0
M  V30 9569 H 920.759 7.28882 -2.15951 0
M  V30 9570 N 922.334 -0.244713 1.55689 0
M  V30 9571 C 923.745 -0.813603 1.6804 0
M  V30 9572 C 924.096 -1.85936 0.626281 0
M  V30 9573 O 923.221 -2.15206 -0.227038 0
M  V30 9574 C 923.816 -1.48252 3.04642 0
M  V30 9575 C 922.375 -1.99908 3.18926 0
M  V30 9576 C 921.522 -0.850958 2.6392 0
M  V30 9577 H 924.473 -0.0204805 1.58687 0
M  V30 9578 H 924.494 -2.35062 2.99209 0
M  V30 9579 H 924.006 -0.721164 3.81341 0
M  V30 9580 H 922.107 -2.78918 2.47054 0
M  V30 9581 H 922.22 -2.19497 4.25862 0
M  V30 9582 H 920.584 -1.25206 2.21801 0
M  V30 9583 H 921.367 -0.10265 3.43146 0
M  V30 9584 N 923.813 -1.49104 -0.510467 0
M  V30 9585 C 925.061 -1.578 -1.26268 0
M  V30 9586 C 925.382 -0.262349 -1.93227 0
M  V30 9587 O 924.652 0.717624 -1.82283 0
M  V30 9588 H 923.232 -0.581387 -0.46904 0
M  V30 9589 H 925.894 -1.85678 -0.592423 0
M  V30 9590 H 924.99 -2.36919 -2.03165 0
M  V30 9591 N 925.291 0.760815 -1.38019 0
M  V30 9592 C 926.223 1.88387 -1.30549 0
M  V30 9593 C 927.236 1.61319 -0.219119 0
M  V30 9594 O 928.425 1.72033 -0.476122 0
M  V30 9595 C 925.525 3.23863 -0.998291 0
M  V30 9596 C 924.698 3.78492 -2.19232 0
M  V30 9597 C 923.757 4.92468 -1.85368 0
M  V30 9598 O 922.783 5.0748 -2.57785 0
M  V30 9599 N 923.985 5.74901 -0.804319 0
M  V30 9600 H 926.75 1.95308 -2.27322 0
M  V30 9601 H 924.311 0.940423 -1.31786 0
M  V30 9602 H 926.303 3.97644 -0.7524 0
M  V30 9603 H 924.873 3.12374 -0.11877 0
M  V30 9604 H 924.093 2.96361 -2.5993 0
M  V30 9605 H 925.381 4.11722 -2.98935 0
M  V30 9606 H 924.779 5.65333 -0.203628 0
M  V30 9607 H 923.336 6.48861 -0.618301 0
M  V30 9608 N 926.769 1.22769 0.988202 0
M  V30 9609 C 928.18 1.0512 1.54294 0
M  V30 9610 C 928.531 -0.383904 1.92407 0
M  V30 9611 O 927.656 -1.26955 1.75246 0
M  V30 9612 C 928.251 1.90198 2.80375 0
M  V30 9613 C 926.81 1.76831 3.32276 0
M  V30 9614 C 925.957 1.86377 2.05326 0
M  V30 9615 H 928.908 1.36546 0.808758 0
M  V30 9616 H 928.929 1.42216 3.52923 0
M  V30 9617 H 928.441 2.9464 2.52605 0
M  V30 9618 H 926.542 0.751412 3.64945 0
M  V30 9619 H 926.655 2.59771 4.02562 0
M  V30 9620 H 925.019 1.2987 2.19103 0
M  V30 9621 H 925.802 2.9236 1.79946 0
M  V30 9622 N 928.247 -1.18576 1.03814 0
M  V30 9623 C 929.472 -1.92978 0.759873 0
M  V30 9624 C 929.897 -1.75514 -0.676486 0
M  V30 9625 O 929.255 -1.06359 -1.46824 0
M  V30 9626 C 929.303 -3.42507 1.12788 0
M  V30 9627 O 928.407 -4.1163 0.251886 0
M  V30 9628 H 927.748 -0.602129 0.279886 0
M  V30 9629 H 930.278 -1.50383 1.3873 0
M  V30 9630 H 930.288 -3.93206 1.08872 0
M  V30 9631 H 928.963 -3.5454 2.17427 0
M  V30 9632 H 927.54 -3.7125 0.350441 0
M  V30 9633 N 929.725 -0.817259 -1.34754 0
M  V30 9634 C 931.136 -0.462215 -1.80888 0
M  V30 9635 C 931.487 1.01685 -1.67794 0
M  V30 9636 O 930.612 1.79094 -1.21468 0
M  V30 9637 C 931.207 -0.832204 -3.2842 0
M  V30 9638 C 929.766 -0.52961 -3.72655 0
M  V30 9639 C 928.913 -1.05214 -2.56564 0
M  V30 9640 H 931.864 -1.00795 -1.22581 0
M  V30 9641 H 931.885 -0.133804 -3.80265 0
M  V30 9642 H 931.397 -1.90873 -3.37919 0
M  V30 9643 H 929.498 0.537743 -3.68699 0
M  V30 9644 H 929.611 -1.06971 -4.67005 0
M  V30 9645 H 927.975 -0.473949 -2.50251 0
M  V30 9646 H 928.758 -2.135 -2.68836 0
M  V30 9647 N 931.203 1.46865 -0.571711 0
M  V30 9648 C 932.166 2.28658 0.157499 0
M  V30 9649 C 933.166 1.37773 0.829172 0
M  V30 9650 O 934.356 1.6026 0.682811 0
M  V30 9651 C 931.488 3.17859 1.23202 0
M  V30 9652 H 932.681 2.94603 -0.561171 0
M  V30 9653 H 930.234 1.52793 -0.329229 0
M  V30 9654 H 930.969 2.56637 1.98262 0
M  V30 9655 H 930.754 3.84762 0.755031 0
M  V30 9656 H 932.244 3.7945 1.74378 0
M  V30 9657 N 932.681 0.308908 1.54543 0
M  V30 9658 C 934.097 -0.0442273 1.59539 0
M  V30 9659 C 934.297 -1.51743 1.32575 0
M  V30 9660 O 933.353 -2.27134 1.10302 0
M  V30 9661 C 934.666 0.360826 2.98527 0
M  V30 9662 C 936.214 0.310252 3.11459 0
M  V30 9663 C 936.689 0.690246 4.52769 0
M  V30 9664 N 938.18 0.643084 4.58714 0
M  V30 9665 C 938.915 0.909483 5.66141 0
M  V30 9666 N 938.411 1.24226 6.81572 0
M  V30 9667 N 940.204 0.836018 5.55848 0
M  V30 9668 H 932.355 1.26893 1.70329 0
M  V30 9669 H 934.618 0.514986 0.795923 0
M  V30 9670 H 934.324 1.38669 3.23209 0
M  V30 9671 H 934.198 -0.281563 3.76148 0
M  V30 9672 H 936.585 -0.706375 2.86521 0
M  V30 9673 H 936.666 0.987373 2.35976 0
M  V30 9674 H 936.31 1.70472 4.78437 0
M  V30 9675 H 936.24 -0.00903075 5.26599 0
M  V30 9676 H 938.731 0.397138 3.75807 0
M  V30 9677 H 939.044 1.4313 7.5943 0
M  V30 9678 H 937.389 1.28038 6.83104 0
M  V30 9679 H 940.58 0.575637 4.64547 0
M  V30 9680 H 940.753 1.047 6.39486 0
M  V30 9681 N 934.159 -1.57557 0.0367827 0
M  V30 9682 C 935.399 -1.93981 -0.644252 0
M  V30 9683 C 935.763 -0.913982 -1.6885 0
M  V30 9684 O 936.964 -1.16468 -2.42257 0
M  V30 9685 C 935.235 -3.35281 -1.23779 0
M  V30 9686 S 936.794 -3.93643 -1.93883 0
M  V30 9687 H 933.612 -0.678683 -0.21192 0
M  V30 9688 H 936.214 -1.95232 0.102281 0
M  V30 9689 H 934.918 -4.07752 -0.465451 0
M  V30 9690 H 934.449 -3.37492 -2.02146 0
M  V30 9691 H 936.464 -3.777 -3.21803 0
M  V30 9692 N 935.637 0.236453 -1.55816 0
M  V30 9693 C 936.567 1.29639 -1.94206 0
M  V30 9694 C 937.548 1.49667 -0.808319 0
M  V30 9695 O 938.733 1.621 -1.06945 0
M  V30 9696 C 935.863 2.64914 -2.24584 0
M  V30 9697 C 934.817 2.59565 -3.40308 0
M  V30 9698 C 934.143 3.98732 -3.56254 0
M  V30 9699 C 935.443 2.15642 -4.75706 0
M  V30 9700 H 937.137 0.977552 -2.82992 0
M  V30 9701 H 934.683 0.468804 -1.36155 0
M  V30 9702 H 936.636 3.39209 -2.50031 0
M  V30 9703 H 935.36 2.98455 -1.32636 0
M  V30 9704 H 934.019 1.87728 -3.14887 0
M  V30 9705 H 933.667 4.29556 -2.61707 0
M  V30 9706 H 933.367 3.96039 -4.34082 0
M  V30 9707 H 934.891 4.74711 -3.84033 0
M  V30 9708 H 936.305 2.79673 -5.00456 0
M  V30 9709 H 934.702 2.24039 -5.56711 0
M  V30 9710 H 935.772 1.10831 -4.72064 0
M  V30 9711 N 937.115 1.49373 0.502552 0
M  V30 9712 C 938.078 1.65413 1.58654 0
M  V30 9713 C 939.078 0.526003 1.51953 0
M  V30 9714 O 940.268 0.792421 1.55133 0
M  V30 9715 C 937.4 1.65005 2.98306 0
M  V30 9716 H 938.593 2.62095 1.45762 0
M  V30 9717 H 936.146 1.38381 0.726672 0
M  V30 9718 H 936.881 0.699014 3.16677 0
M  V30 9719 H 936.666 2.46931 3.04578 0
M  V30 9720 H 938.156 1.79477 3.77065 0
M  V30 9721 N 938.594 -0.753485 1.38421 0
M  V30 9722 C 939.526 -1.87692 1.31547 0
M  V30 9723 C 940.539 -1.612 0.227671 0
M  V30 9724 O 941.728 -1.71778 0.485238 0
M  V30 9725 C 938.828 -3.23329 1.01545 0
M  V30 9726 C 938.001 -3.77324 2.21236 0
M  V30 9727 C 937.06 -4.91478 1.87977 0
M  V30 9728 O 936.086 -5.06106 2.60472 0
M  V30 9729 N 937.288 -5.74466 0.834796 0
M  V30 9730 H 940.053 -1.94099 2.28354 0
M  V30 9731 H 937.614 -0.933421 1.32283 0
M  V30 9732 H 939.606 -3.9724 0.773477 0
M  V30 9733 H 938.176 -3.12307 0.135334 0
M  V30 9734 H 937.396 -2.94978 2.61498 0
M  V30 9735 H 938.684 -4.10131 3.01115 0
M  V30 9736 H 938.082 -5.65217 0.233606 0
M  V30 9737 H 936.639 -6.48524 0.652703 0
M  V30 9738 N 940.072 -1.23292 -0.981677 0
M  V30 9739 C 941.004 -0.970782 -2.07626 0
M  V30 9740 C 942.017 0.0547506 -1.62708 0
M  V30 9741 O 943.206 -0.180623 -1.77584 0
M  V30 9742 C 940.306 -0.44055 -3.36024 0
M  V30 9743 C 939.479 -1.52595 -4.09919 0
M  V30 9744 C 938.538 -1.00082 -5.16595 0
M  V30 9745 O 937.564 -1.68951 -5.43548 0
M  V30 9746 N 938.766 0.172017 -5.80245 0
M  V30 9747 H 941.531 -1.91316 -2.30691 0
M  V30 9748 H 939.092 -1.14133 -1.14828 0
M  V30 9749 H 941.084 -0.0743111 -4.04632 0
M  V30 9750 H 939.654 0.407211 -3.09936 0
M  V30 9751 H 938.874 -2.06501 -3.35784 0
M  V30 9752 H 940.162 -2.2559 -4.56055 0
M  V30 9753 H 939.56 0.748129 -5.60731 0
M  V30 9754 H 938.117 0.479532 -6.50034 0
M  V30 9755 N 941.55 1.18024 -1.04442 0
M  V30 9756 C 942.961 1.69749 -0.777312 0
M  V30 9757 C 943.312 1.83234 0.701399 0
M  V30 9758 O 942.437 1.51452 1.54568 0
M  V30 9759 C 943.032 3.08321 -1.40441 0
M  V30 9760 C 941.591 3.57243 -1.18553 0
M  V30 9761 C 940.738 2.33695 -1.49271 0
M  V30 9762 H 943.689 1.02647 -1.21035 0
M  V30 9763 H 943.71 3.71787 -0.809628 0
M  V30 9764 H 943.222 2.98474 -2.48062 0
M  V30 9765 H 941.323 3.72379 -0.128221 0
M  V30 9766 H 941.436 4.40451 -1.88519 0
M  V30 9767 H 939.8 2.37792 -0.912526 0
M  V30 9768 H 940.583 2.26464 -2.5801 0
M  V30 9769 N 943.028 0.824394 1.34319 0
M  V30 9770 C 943.958 0.262077 2.32025 0
M  V30 9771 C 944.939 -0.622277 1.58309 0
M  V30 9772 O 946.124 -0.548848 1.86283 0
M  V30 9773 C 943.254 -0.57567 3.42496 0
M  V30 9774 C 942.208 0.21167 4.27476 0
M  V30 9775 C 941.534 -0.748913 5.29429 0
M  V30 9776 C 942.834 1.42068 5.02607 0
M  V30 9777 H 944.528 1.07842 2.79304 0
M  V30 9778 H 942.074 0.520022 1.34282 0
M  V30 9779 H 944.027 -0.979251 4.09864 0
M  V30 9780 H 942.751 -1.42508 2.93869 0
M  V30 9781 H 941.41 0.596636 3.61712 0
M  V30 9782 H 941.058 -1.59432 4.77064 0
M  V30 9783 H 940.758 -0.226313 5.87164 0
M  V30 9784 H 942.282 -1.15032 5.99667 0
M  V30 9785 H 943.696 1.09103 5.62823 0
M  V30 9786 H 942.093 1.87903 5.69923 0
M  V30 9787 H 943.163 2.1981 4.32217 0
M  V30 9788 N 944.506 -1.46559 0.579492 0
M  V30 9789 C 945.731 -2.0729 0.0674595 0
M  V30 9790 C 946.156 -1.4259 -1.22677 0
M  V30 9791 O 945.514 -0.50857 -1.74021 0
M  V30 9792 C 945.562 -3.60492 -0.0882227 0
M  V30 9793 O 944.666 -3.96172 -1.14551 0
M  V30 9794 H 944.007 -0.661159 0.0613536 0
M  V30 9795 H 946.537 -1.88247 0.801519 0
M  V30 9796 H 946.547 -4.06929 -0.295411 0
M  V30 9797 H 945.222 -4.06976 0.856943 0
M  V30 9798 H 943.799 -3.61448 -0.917033 0
M  V30 9799 N 945.984 -0.3171 -1.54377 0
M  V30 9800 C 946.934 0.567199 -2.20832 0
M  V30 9801 C 947.918 1.08661 -1.18666 0
M  V30 9802 O 949.11 1.0247 -1.44322 0
M  V30 9803 C 946.239 1.73079 -2.96477 0
M  V30 9804 C 945.325 1.22658 -4.05975 0
M  V30 9805 N 945.716 0.441565 -5.03869 0
M  V30 9806 C 944.014 1.50589 -4.19808 0
M  V30 9807 C 944.715 0.171063 -5.81448 0
M  V30 9808 N 943.691 0.755389 -5.38326 0
M  V30 9809 H 947.493 -0.0399349 -2.93873 0
M  V30 9810 H 945.007 -0.122639 -1.61936 0
M  V30 9811 H 947.004 2.37601 -3.42566 0
M  V30 9812 H 945.664 2.34146 -2.24957 0
M  V30 9813 H 946.675 0.0849921 -5.1783 0
M  V30 9814 H 943.352 2.12288 -3.595 0
M  V30 9815 H 944.742 -0.460484 -6.7032 0
M  V30 9816 N 947.462 1.57535 -0.0451378 0
M  V30 9817 C 948.392 2.14208 0.929372 0
M  V30 9818 C 949.373 1.06221 1.32858 0
M  V30 9819 O 950.558 1.34132 1.40436 0
M  V30 9820 C 947.688 2.68217 2.20629 0
M  V30 9821 C 946.642 3.81134 1.94734 0
M  V30 9822 C 945.968 4.21636 3.28828 0
M  V30 9823 C 947.268 5.06531 1.27374 0
M  V30 9824 H 948.962 2.95886 0.457348 0
M  V30 9825 H 946.508 1.42332 0.218544 0
M  V30 9826 H 948.461 3.06502 2.89196 0
M  V30 9827 H 947.185 1.83722 2.70026 0
M  V30 9828 H 945.844 3.43312 1.28579 0
M  V30 9829 H 945.492 3.34099 3.76014 0
M  V30 9830 H 945.192 4.97736 3.12302 0
M  V30 9831 H 946.716 4.62516 3.98637 0
M  V30 9832 H 948.13 5.423 1.85967 0
M  V30 9833 H 946.527 5.87735 1.21194 0
M  V30 9834 H 947.597 4.84261 0.248913 0
M  V30 9835 N 948.94 -0.228186 1.55939 0
M  V30 9836 C 950.351 -0.795734 1.68893 0
M  V30 9837 C 950.702 -1.85261 0.645967 0
M  V30 9838 O 949.827 -2.15434 -0.2042 0
M  V30 9839 C 950.422 -1.45013 3.06197 0
M  V30 9840 C 948.981 -1.96514 3.21028 0
M  V30 9841 C 948.128 -0.822918 2.64808 0
M  V30 9842 H 951.079 -0.0036485 1.587 0
M  V30 9843 H 951.1 -2.31875 3.01685 0
M  V30 9844 H 950.612 -0.680678 3.82084 0
M  V30 9845 H 948.713 -2.76282 2.49998 0
M  V30 9846 H 948.826 -2.14967 4.28166 0
M  V30 9847 H 947.19 -1.22846 2.23116 0
M  V30 9848 H 947.973 -0.0662493 3.43236 0
M  V30 9849 N 950.418 -1.49637 -0.494624 0
M  V30 9850 C 951.348 -1.69692 -1.60396 0
M  V30 9851 C 952.329 -0.545648 -1.61111 0
M  V30 9852 O 953.514 -0.782202 -1.77751 0
M  V30 9853 C 950.644 -1.76934 -2.9885 0
M  V30 9854 C 949.598 -2.91915 -3.13001 0
M  V30 9855 C 948.924 -2.84276 -4.5287 0
M  V30 9856 C 950.224 -4.32764 -2.92426 0
M  V30 9857 H 951.918 -2.6257 -1.43866 0
M  V30 9858 H 949.464 -1.26355 -0.690679 0
M  V30 9859 H 951.417 -1.8955 -3.76362 0
M  V30 9860 H 950.141 -0.806609 -3.16483 0
M  V30 9861 H 948.8 -2.78911 -2.37916 0
M  V30 9862 H 948.448 -1.85897 -4.67388 0
M  V30 9863 H 948.148 -3.61452 -4.63278 0
M  V30 9864 H 949.672 -2.98909 -5.32434 0
M  V30 9865 H 951.086 -4.46415 -3.59703 0
M  V30 9866 H 949.483 -5.1121 -3.143 0
M  V30 9867 H 950.553 -4.46765 -1.88491 0
M  V30 9868 N 951.896 0.746133 -1.38819 0
M  V30 9869 C 953.124 1.53539 -1.38685 0
M  V30 9870 C 953.539 1.88788 0.0215039 0
M  V30 9871 O 952.896 1.53312 0.990031 0
M  V30 9872 C 952.947 2.8299 -2.24942 0
M  V30 9873 O 952.668 2.49242 -3.60292 0
M  V30 9874 C 954.169 3.77085 -2.3307 0
M  V30 9875 H 951.389 0.474842 -0.474095 0
M  V30 9876 H 953.933 0.922844 -1.82493 0
M  V30 9877 H 952.088 3.40603 -1.84576 0
M  V30 9878 H 952.502 3.32319 -4.05789 0
M  V30 9879 H 953.976 4.64845 -2.97696 0
M  V30 9880 H 954.453 4.18049 -1.34655 0
M  V30 9881 H 955.059 3.25394 -2.73859 0
M  V30 9882 N 953.375 1.23811 0.975125 0
M  V30 9883 C 954.623 1.07124 1.71373 0
M  V30 9884 C 954.944 -0.391864 1.91022 0
M  V30 9885 O 954.214 -1.28041 1.48265 0
M  V30 9886 H 952.794 0.393415 0.635007 0
M  V30 9887 H 955.456 1.55612 1.17349 0
M  V30 9888 H 954.552 1.56338 2.7012 0
M  V30 9889 N 954.853 -1.17469 1.05066 0
M  V30 9890 C 956.093 -1.89382 0.769012 0
M  V30 9891 C 956.457 -1.79126 -0.691217 0
M  V30 9892 O 957.658 -2.45845 -1.08692 0
M  V30 9893 C 955.929 -3.35397 1.23465 0
M  V30 9894 S 957.488 -4.25297 1.08018 0
M  V30 9895 H 954.306 -0.653839 0.279312 0
M  V30 9896 H 956.908 -1.41877 1.34503 0
M  V30 9897 H 955.612 -3.40395 2.29258 0
M  V30 9898 H 955.143 -3.87945 0.652853 0
M  V30 9899 H 957.158 -4.962 0.00358573 0
M  V30 9900 N 956.331 -0.831506 -1.3388 0
M  V30 9901 C 957.261 -0.274378 -2.31882 0
M  V30 9902 C 958.242 0.613872 -1.58637 0
M  V30 9903 O 959.427 0.538961 -1.86571 0
M  V30 9904 C 956.557 0.557498 -3.42796 0
M  V30 9905 C 955.511 -0.234337 -4.27358 0
M  V30 9906 C 954.837 0.720825 -5.29819 0
M  V30 9907 C 956.137 -1.44732 -5.01847 0
M  V30 9908 H 957.831 -1.09322 -2.78728 0
M  V30 9909 H 955.377 -0.527136 -1.34005 0
M  V30 9910 H 957.33 0.957501 -4.10378 0
M  V30 9911 H 956.054 1.40947 -2.94621 0
M  V30 9912 H 954.713 -0.61581 -3.61391 0
M  V30 9913 H 954.361 1.569 -4.77903 0
M  V30 9914 H 954.061 0.195171 -5.87276 0
M  V30 9915 H 955.585 1.1185 -6.00268 0
M  V30 9916 H 956.999 -1.12087 -5.62236 0
M  V30 9917 H 955.396 -1.90923 -5.68919 0
M  V30 9918 H 956.466 -2.22099 -4.31045 0
M  V30 9919 N 957.809 1.4625 -0.587256 0
M  V30 9920 C 959.034 2.07252 -0.0784517 0
M  V30 9921 C 959.459 1.43239 1.21919 0
M  V30 9922 O 958.817 0.517791 1.73749 0
M  V30 9923 C 958.865 3.60534 0.0691037 0
M  V30 9924 O 957.969 3.96773 1.12448 0
M  V30 9925 H 957.31 0.660825 -0.064859 0
M  V30 9926 H 959.84 1.87819 -0.811491 0
M  V30 9927 H 959.85 4.0708 0.273826 0
M  V30 9928 H 958.525 4.06516 -0.878514 0
M  V30 9929 H 957.102 3.6193 0.897852 0
M  V30 9930 N 959.287 0.325282 1.54207 0
M  V30 9931 C 960.515 -0.27869 2.05014 0
M  V30 9932 C 960.93 -1.45649 1.20133 0
M  V30 9933 O 960.287 -1.81014 0.232398 0
M  V30 9934 C 960.338 -0.711486 3.54429 0
M  V30 9935 O 960.059 0.419458 4.36087 0
M  V30 9936 C 961.56 -1.37809 4.21336 0
M  V30 9937 H 958.78 -0.0570388 0.668571 0
M  V30 9938 H 961.324 0.47197 1.98979 0
M  V30 9939 H 959.479 -1.41212 3.60746 0
M  V30 9940 H 959.893 0.0781037 5.24442 0
M  V30 9941 H 961.367 -1.63184 5.27328 0
M  V30 9942 H 961.844 -2.32593 3.72555 0
M  V30 9943 H 962.45 -0.719987 4.19161 0
M  V30 9944 N 960.765 -1.57509 0.0534917 0
M  V30 9945 C 961.695 -2.14698 -0.917999 0
M  V30 9946 C 962.676 -1.06924 -1.32292 0
M  V30 9947 O 963.861 -1.34875 -1.39723 0
M  V30 9948 C 960.991 -2.69383 -2.19203 0
M  V30 9949 C 959.945 -3.82161 -1.9271 0
M  V30 9950 C 959.271 -4.23373 -3.26587 0
M  V30 9951 C 960.571 -5.07199 -1.24686 0
M  V30 9952 H 962.265 -2.96125 -0.44165 0
M  V30 9953 H 959.811 -1.42446 -0.210993 0
M  V30 9954 H 961.764 -3.08031 -2.87567 0
M  V30 9955 H 960.488 -1.85151 -2.69048 0
M  V30 9956 H 959.147 -3.43989 -1.26757 0
M  V30 9957 H 958.795 -3.36089 -3.74237 0
M  V30 9958 H 958.495 -4.99385 -3.09658 0
M  V30 9959 H 960.019 -4.64623 -3.96178 0
M  V30 9960 H 961.433 -5.43279 -1.83088 0
M  V30 9961 H 959.83 -5.88369 -1.18076 0
M  V30 9962 H 960.9 -4.84386 -0.223227 0
M  V30 9963 N 962.243 0.219913 -1.56058 0
M  V30 9964 C 963.49 0.944064 -1.79147 0
M  V30 9965 C 963.818 1.84268 -0.622531 0
M  V30 9966 O 963.073 1.91713 0.393013 0
M  V30 9967 C 963.372 1.81293 -3.08006 0
M  V30 9968 C 963.038 1.0674 -4.38084 0
M  V30 9969 C 961.7 0.86147 -4.73426 0
M  V30 9970 C 964.052 0.541049 -5.18384 0
M  V30 9971 C 961.38 0.117307 -5.86583 0
M  V30 9972 C 963.732 -0.189779 -6.32315 0
M  V30 9973 C 962.396 -0.406951 -6.66258 0
M  V30 9974 H 961.666 0.345458 -0.655546 0
M  V30 9975 H 964.313 0.212121 -1.90322 0
M  V30 9976 H 962.618 2.61278 -2.9196 0
M  V30 9977 H 964.315 2.3754 -3.23072 0
M  V30 9978 H 960.905 1.23789 -4.10334 0
M  V30 9979 H 965.089 0.687617 -4.91514 0
M  V30 9980 H 960.345 -0.0611651 -6.11369 0
M  V30 9981 H 964.519 -0.605134 -6.93766 0
M  V30 9982 H 962.146 -0.985511 -7.53785 0
M  V30 9983 N 963.721 1.49897 0.486681 0
M  V30 9984 C 964.651 1.7054 1.59494 0
M  V30 9985 C 965.632 0.554184 1.60819 0
M  V30 9986 O 966.817 0.791617 1.77333 0
M  V30 9987 C 963.947 1.78517 2.97908 0
M  V30 9988 C 962.901 2.93571 3.11449 0
M  V30 9989 C 962.227 2.86674 4.51356 0
M  V30 9990 C 963.527 4.34308 2.90127 0
M  V30 9991 H 965.221 2.63329 1.42472 0
M  V30 9992 H 962.767 1.2672 0.683969 0
M  V30 9993 H 964.72 1.91544 3.75352 0
M  V30 9994 H 963.444 0.823381 3.16051 0
M  V30 9995 H 962.103 2.80169 2.36433 0
M  V30 9996 H 961.751 1.88373 4.66395 0
M  V30 9997 H 961.451 3.63903 4.61355 0
M  V30 9998 H 962.975 3.01728 5.30841 0
M  V30 9999 H 964.389 4.48317 3.57331 0
M  V30 10000 H 962.786 5.12869 3.11585 0
M  V30 10001 H 963.856 4.47759 1.86119 0
M  V30 10002 N 965.199 -0.738761 1.39212 0
M  V30 10003 C 966.131 -1.86286 1.3353 0
M  V30 10004 C 967.144 -1.6095 0.244755 0
M  V30 10005 O 968.333 -1.71254 0.50343 0
M  V30 10006 C 965.433 -3.22234 1.04969 0
M  V30 10007 C 964.606 -3.74956 2.25226 0
M  V30 10008 C 963.665 -4.89457 1.9318 0
M  V30 10009 O 962.691 -5.03314 2.65826 0
M  V30 10010 N 963.893 -5.73548 0.895679 0
M  V30 10011 H 966.658 -1.91666 2.304 0
M  V30 10012 H 964.219 -0.919338 1.33266 0
M  V30 10013 H 966.211 -3.96397 0.815566 0
M  V30 10014 H 964.781 -3.12146 0.168451 0
M  V30 10015 H 964.001 -2.92188 2.64612 0
M  V30 10016 H 965.289 -4.06914 3.05448 0
M  V30 10017 H 964.687 -5.64938 0.293541 0
M  V30 10018 H 963.244 -6.47795 0.721451 0
M  V30 10019 N 966.677 -1.24326 -0.968545 0
M  V30 10020 C 967.64 -1.03591 -2.04454 0
M  V30 10021 C 968.64 0.0064809 -1.60799 0
M  V30 10022 O 969.83 -0.234404 -1.72616 0
M  V30 10023 C 966.962 -0.56992 -3.36102 0
M  V30 10024 H 968.155 -1.99092 -2.24282 0
M  V30 10025 H 965.708 -1.06537 -1.14366 0
M  V30 10026 H 966.443 0.388325 -3.21967 0
M  V30 10027 H 966.228 -1.32227 -3.69132 0
M  V30 10028 H 967.718 -0.445854 -4.15213 0
M  V30 10029 N 968.156 1.1691 -1.05688 0
M  V30 10030 C 969.119 2.19297 -0.666433 0
M  V30 10031 C 970.119 1.5826 0.284674 0
M  V30 10032 O 971.309 1.74068 0.0678757 0
M  V30 10033 C 968.441 3.40894 0.0203656 0
M  V30 10034 H 969.634 2.55354 -1.57272 0
M  V30 10035 H 967.187 1.31078 -0.851359 0
M  V30 10036 H 967.922 3.10388 0.939686 0
M  V30 10037 H 967.707 3.86446 -0.663464 0
M  V30 10038 H 969.197 4.16664 0.279475 0
M  V30 10039 N 969.634 0.838594 1.33437 0
M  V30 10040 C 970.544 0.274048 2.32994 0
M  V30 10041 C 971.56 -0.599776 1.63336 0
M  V30 10042 O 972.736 -0.503963 1.94993 0
M  V30 10043 C 969.801 -0.541804 3.4244 0
M  V30 10044 C 968.862 0.356262 4.27819 0
M  V30 10045 C 968.095 -0.420747 5.32039 0
M  V30 10046 O 968.318 -1.65247 5.45939 0
M  V30 10047 O 967.252 0.205101 6.0155 0
M  V30 10048 H 971.078 1.09846 2.83139 0
M  V30 10049 H 968.663 0.601111 1.36774 0
M  V30 10050 H 970.545 -1.00544 4.0923 0
M  V30 10051 H 969.22 -1.34328 2.94513 0
M  V30 10052 H 968.127 0.867726 3.63897 0
M  V30 10053 H 969.46 1.1225 4.79229 0
M  V30 10054 N 971.112 -1.45937 0.595003 0
M  V30 10055 C 972.361 -2.01529 0.0829531 0
M  V30 10056 C 972.674 -1.47071 -1.28955 0
M  V30 10057 O 973.88 -1.94561 -1.89363 0
M  V30 10058 C 972.336 -3.59767 0.0976597 0
M  V30 10059 C 971.944 -4.23223 1.46924 0
M  V30 10060 C 973.688 -4.22972 -0.359805 0
M  V30 10061 C 971.595 -5.73576 1.44101 0
M  V30 10062 H 970.525 -0.753508 0.0272425 0
M  V30 10063 H 973.176 -1.67541 0.748473 0
M  V30 10064 H 971.558 -3.90888 -0.634268 0
M  V30 10065 H 972.732 -4.03695 2.22187 0
M  V30 10066 H 971.047 -3.72161 1.86775 0
M  V30 10067 H 973.644 -5.33202 -0.39991 0
M  V30 10068 H 973.987 -3.92765 -1.37991 0
M  V30 10069 H 974.52 -3.96523 0.31845 0
M  V30 10070 H 971.259 -6.08462 2.43831 0
M  V30 10071 H 970.779 -5.95332 0.730767 0
M  V30 10072 H 972.458 -6.36531 1.1592 0
M  V30 10073 N 972.59 -0.333456 -1.54032 0
M  V30 10074 C 973.837 0.266133 -2.00744 0
M  V30 10075 C 974.165 1.51361 -1.22148 0
M  V30 10076 O 973.42 1.93473 -0.294368 0
M  V30 10077 C 973.719 0.63565 -3.51702 0
M  V30 10078 C 973.385 -0.513786 -4.47963 0
M  V30 10079 C 972.047 -0.829253 -4.74001 0
M  V30 10080 C 974.399 -1.2854 -5.05101 0
M  V30 10081 C 971.727 -1.91888 -5.54433 0
M  V30 10082 C 974.079 -2.3652 -5.86721 0
M  V30 10083 C 972.743 -2.68637 -6.11057 0
M  V30 10084 H 972.013 0.097385 -0.734573 0
M  V30 10085 H 974.66 -0.459282 -1.85911 0
M  V30 10086 H 972.965 1.44163 -3.64313 0
M  V30 10087 H 974.662 1.11129 -3.85294 0
M  V30 10088 H 971.252 -0.25784 -4.27824 0
M  V30 10089 H 975.436 -1.05494 -4.84958 0
M  V30 10090 H 970.692 -2.17208 -5.71516 0
M  V30 10091 H 974.866 -2.96747 -6.30011 0
M  V30 10092 H 972.493 -3.53197 -6.73169 0
M  V30 10093 N 974.068 1.57479 -0.061844 0
M  V30 10094 C 975.314 1.93395 0.610443 0
M  V30 10095 C 975.647 0.941334 1.6986 0
M  V30 10096 O 974.922 -0.0310262 1.94475 0
M  V30 10097 C 975.205 3.39636 1.19664 0
M  V30 10098 C 975.058 4.49651 0.115805 0
M  V30 10099 C 976.377 3.86488 2.10512 0
M  V30 10100 H 973.496 0.703262 0.220436 0
M  V30 10101 H 976.138 1.89583 -0.125785 0
M  V30 10102 H 974.288 3.43015 1.82409 0
M  V30 10103 H 975.96 4.58397 -0.516728 0
M  V30 10104 H 974.203 4.30237 -0.55483 0
M  V30 10105 H 974.874 5.49089 0.566176 0
M  V30 10106 H 977.35 3.85052 1.57715 0
M  V30 10107 H 976.226 4.89444 2.48466 0
M  V30 10108 H 976.487 3.23856 3.00948 0
M  V30 10109 N 975.546 -0.211634 1.56173 0
M  V30 10110 C 976.456 -1.2831 1.96402 0
M  V30 10111 C 977.472 -1.50731 0.869254 0
M  V30 10112 O 978.648 -1.63669 1.17365 0
M  V30 10113 C 975.713 -2.61084 2.28114 0
M  V30 10114 C 974.774 -2.46879 3.51211 0
M  V30 10115 C 974.007 -3.73321 3.81401 0
M  V30 10116 O 974.23 -4.76773 3.13119 0
M  V30 10117 O 973.164 -3.69839 4.74871 0
M  V30 10118 H 976.99 -0.971733 2.87734 0
M  V30 10119 H 974.575 -0.415305 1.43512 0
M  V30 10120 H 976.457 -3.39481 2.49661 0
M  V30 10121 H 975.132 -2.91881 1.39954 0
M  V30 10122 H 974.039 -1.66648 3.34932 0
M  V30 10123 H 975.372 -2.21018 4.39786 0
M  V30 10124 N 977.024 -1.50153 -0.478725 0
M  V30 10125 C 978.249 -1.64776 -1.2595 0
M  V30 10126 C 978.674 -0.327794 -1.85222 0
M  V30 10127 O 978.032 0.707418 -1.66929 0
M  V30 10128 C 978.08 -2.73551 -2.34952 0
M  V30 10129 O 977.184 -2.34273 -3.39397 0
M  V30 10130 H 976.525 -0.550769 -0.370877 0
M  V30 10131 H 979.055 -1.96482 -0.570605 0
M  V30 10132 H 979.065 -2.96397 -2.8038 0
M  V30 10133 H 977.74 -3.69354 -1.91181 0
M  V30 10134 H 976.317 -2.21844 -2.99733 0
M  V30 10135 N 978.502 0.731368 -1.39602 0
M  V30 10136 C 979.412 1.87579 -1.40894 0
M  V30 10137 C 980.428 1.71336 -0.303319 0
M  V30 10138 O 981.604 1.93875 -0.545377 0
M  V30 10139 C 978.669 3.23211 -1.25442 0
M  V30 10140 C 977.73 3.51822 -2.46008 0
M  V30 10141 C 976.963 4.80982 -2.31284 0
M  V30 10142 O 977.186 5.54958 -1.31824 0
M  V30 10143 O 976.12 5.09574 -3.20341 0
M  V30 10144 H 979.946 1.89444 -2.3737 0
M  V30 10145 H 977.531 0.879675 -1.20756 0
M  V30 10146 H 979.413 4.04257 -1.18972 0
M  V30 10147 H 978.088 3.22108 -0.320637 0
M  V30 10148 H 976.995 2.70847 -2.58055 0
M  V30 10149 H 978.328 3.57707 -3.38093 0
M  V30 10150 N 979.98 1.24838 0.961938 0
M  V30 10151 C 980.91 1.07053 2.07514 0
M  V30 10152 C 981.891 -0.0182465 1.7009 0
M  V30 10153 O 983.076 0.149915 1.9362 0
M  V30 10154 C 980.206 0.680693 3.40564 0
M  V30 10155 C 979.16 1.71889 3.91967 0
M  V30 10156 C 978.486 1.18395 5.21428 0
M  V30 10157 C 979.786 3.1161 4.19161 0
M  V30 10158 H 981.48 2.00167 2.22651 0
M  V30 10159 H 979.026 0.963799 1.0699 0
M  V30 10160 H 980.979 0.54324 4.17884 0
M  V30 10161 H 979.703 -0.28615 3.25344 0
M  V30 10162 H 978.362 1.84465 3.16809 0
M  V30 10163 H 978.01 0.207543 5.02572 0
M  V30 10164 H 977.71 1.87778 5.56788 0
M  V30 10165 H 979.234 1.05873 6.01351 0
M  V30 10166 H 980.648 3.0223 4.87165 0
M  V30 10167 H 979.045 3.78398 4.65763 0
M  V30 10168 H 980.115 3.59218 3.25715 0
M  V30 10169 N 981.458 -1.16348 1.06306 0
M  V30 10170 C 982.869 -1.68491 0.80422 0
M  V30 10171 C 983.22 -1.84327 -0.672159 0
M  V30 10172 O 982.345 -1.53892 -1.52139 0
M  V30 10173 C 982.94 -3.06048 1.45328 0
M  V30 10174 C 981.499 -3.55311 1.24221 0
M  V30 10175 C 980.646 -2.31291 1.5297 0
M  V30 10176 H 983.597 -1.00708 1.22652 0
M  V30 10177 H 983.618 -3.70451 0.868674 0
M  V30 10178 H 983.13 -2.9449 2.52779 0
M  V30 10179 H 981.231 -3.72128 0.187447 0
M  V30 10180 H 981.344 -4.37397 1.95502 0
M  V30 10181 H 979.708 -2.3631 0.950241 0
M  V30 10182 H 980.491 -2.22331 2.6158 0
M  V30 10183 N 982.937 -0.845659 -1.3299 0
M  V30 10184 C 983.867 -0.298957 -2.31578 0
M  V30 10185 C 984.848 0.597012 -1.59279 0
M  V30 10186 O 986.033 0.519142 -1.87132 0
M  V30 10187 C 983.163 0.521109 -3.43368 0
M  V30 10188 C 982.117 -0.279651 -4.27085 0
M  V30 10189 C 981.443 0.664591 -5.30554 0
M  V30 10190 C 982.743 -1.50046 -5.00283 0
M  V30 10191 H 984.437 -1.12272 -2.77552 0
M  V30 10192 H 981.983 -0.54132 -1.33438 0
M  V30 10193 H 983.936 0.913921 -4.1137 0
M  V30 10194 H 982.66 1.37815 -2.96099 0
M  V30 10195 H 981.319 -0.654106 -3.60717 0
M  V30 10196 H 980.967 1.51822 -4.79541 0
M  V30 10197 H 980.667 0.132871 -5.8745 0
M  V30 10198 H 982.191 1.05477 -6.01421 0
M  V30 10199 H 983.605 -1.18044 -5.61016 0
M  V30 10200 H 982.002 -1.96946 -5.66862 0
M  V30 10201 H 983.072 -2.26659 -4.28665 0
M  V30 10202 N 984.415 1.45619 -0.602734 0
M  V30 10203 C 985.64 2.07157 -0.100429 0
M  V30 10204 C 986.065 1.44524 1.20393 0
M  V30 10205 O 985.423 0.536191 1.7319 0
M  V30 10206 C 985.471 3.60587 0.0308604 0
M  V30 10207 O 984.575 3.97944 1.08234 0
M  V30 10208 H 983.916 0.6601 -0.0718643 0
M  V30 10209 H 986.446 1.86948 -0.831366 0
M  V30 10210 H 986.456 4.07348 0.230634 0
M  V30 10211 H 985.131 4.05561 -0.921581 0
M  V30 10212 H 983.708 3.62862 0.859414 0
M  V30 10213 N 985.893 0.34162 1.53853 0
M  V30 10214 C 987.139 -0.248546 2.01876 0
M  V30 10215 C 987.494 -1.48352 1.22513 0
M  V30 10216 O 986.787 -1.89174 0.303919 0
M  V30 10217 C 986.981 -0.616989 3.52034 0
M  V30 10218 C 986.81 0.580727 4.45935 0
M  V30 10219 C 985.58 1.08544 4.93504 0
M  V30 10220 C 987.778 1.43858 4.93771 0
M  V30 10221 N 985.76 2.24568 5.71351 0
M  V30 10222 C 987.131 2.44575 5.69722 0
M  V30 10223 C 989.186 1.46425 4.75882 0
M  V30 10224 C 987.889 3.47687 6.29688 0
M  V30 10225 C 989.915 2.48416 5.36697 0
M  V30 10226 C 989.277 3.4786 6.12514 0
M  V30 10227 H 985.376 -0.0543067 0.780112 0
M  V30 10228 H 987.96 0.480749 1.88671 0
M  V30 10229 H 986.131 -1.31539 3.65448 0
M  V30 10230 H 987.863 -1.19018 3.86803 0
M  V30 10231 H 984.618 0.653832 4.69065 0
M  V30 10232 H 985.042 2.83143 6.14946 0
M  V30 10233 H 989.684 0.709044 4.16812 0
M  V30 10234 H 987.402 4.24103 6.87868 0
M  V30 10235 H 990.988 2.51227 5.24763 0
M  V30 10236 H 989.868 4.25486 6.58734 0
M  V30 10237 N 987.371 -1.57444 0.0701946 0
M  V30 10238 C 988.334 -2.11511 -0.882923 0
M  V30 10239 C 989.334 -1.03879 -1.22743 0
M  V30 10240 O 990.524 -1.29874 -1.16097 0
M  V30 10241 C 987.656 -2.61514 -2.18686 0
M  V30 10242 H 988.849 -2.9703 -0.413873 0
M  V30 10243 H 986.402 -1.55278 -0.178488 0
M  V30 10244 H 987.137 -1.79443 -2.70131 0
M  V30 10245 H 986.922 -3.40185 -1.94978 0
M  V30 10246 H 988.412 -3.03425 -2.86919 0
M  V30 10247 N 988.849 0.203349 -1.56283 0
M  V30 10248 C 990.126 0.950415 -1.70958 0
M  V30 10249 C 990.506 2.01708 -0.622647 0
M  V30 10250 O 989.854 2.25523 0.367635 0
M  V30 10251 C 990.064 1.54434 -3.12971 0
M  V30 10252 C 991.412 2.02964 -3.72949 0
M  V30 10253 O 992.436 1.64293 -3.16048 0
M  V30 10254 O 991.295 2.74097 -4.72793 0
M  V30 10255 H 988.389 0.445154 -0.69697 0
M  V30 10256 H 990.935 0.193695 -1.68591 0
M  V30 10257 H 989.707 0.77505 -3.83547 0
M  V30 10258 H 989.33 2.36611 -3.19532 0
M  V30 10259 N 990.327 1.50405 0.470755 0
M  V30 10260 C 991.743 1.37838 0.804534 0
M  V30 10261 C 991.943 0.434743 1.96754 0
M  V30 10262 O 990.999 -0.122507 2.52203 0
M  V30 10263 C 992.312 2.79212 1.11629 0
M  V30 10264 C 993.86 2.88129 1.22272 0
M  V30 10265 C 994.335 4.30337 1.5676 0
M  V30 10266 N 995.826 4.3329 1.63751 0
M  V30 10267 C 996.561 5.4032 1.91942 0
M  V30 10268 N 996.057 6.57558 2.18151 0
M  V30 10269 N 997.85 5.27764 1.93446 0
M  V30 10270 H 990.001 2.10332 -0.295689 0
M  V30 10271 H 992.264 0.945429 -0.0697733 0
M  V30 10272 H 991.97 3.50103 0.334778 0
M  V30 10273 H 991.844 3.16475 2.0524 0
M  V30 10274 H 994.231 2.17457 1.9949 0
M  V30 10275 H 994.312 2.54409 0.2664 0
M  V30 10276 H 993.956 5.01547 0.800817 0
M  V30 10277 H 993.886 4.61545 2.53543 0
M  V30 10278 H 996.377 3.48752 1.45535 0
M  V30 10279 H 996.69 7.34935 2.38936 0
M  V30 10280 H 995.035 6.60732 2.15542 0
M  V30 10281 H 998.226 4.35169 1.72468 0
M  V30 10282 H 998.399 6.11264 2.15081 0
M  V30 10283 N 991.805 -0.723954 1.39988 0
M  V30 10284 C 992.735 -1.85103 1.42335 0
M  V30 10285 C 993.716 -1.6769 0.285297 0
M  V30 10286 O 994.901 -1.87846 0.492716 0
M  V30 10287 C 992.031 -3.22972 1.27697 0
M  V30 10288 C 990.985 -3.55041 2.39018 0
M  V30 10289 C 990.311 -4.91965 2.09462 0
M  V30 10290 C 991.611 -3.56889 3.8135 0
M  V30 10291 H 993.305 -1.83396 2.36656 0
M  V30 10292 H 990.851 -0.880926 1.13911 0
M  V30 10293 H 992.804 -4.01503 1.27958 0
M  V30 10294 H 991.528 -3.25233 0.298487 0
M  V30 10295 H 990.187 -2.78845 2.37993 0
M  V30 10296 H 989.835 -4.90819 1.10025 0
M  V30 10297 H 989.535 -5.14389 2.84038 0
M  V30 10298 H 991.059 -5.7284 2.11391 0
M  V30 10299 H 992.473 -4.25476 3.84243 0
M  V30 10300 H 990.87 -3.90836 4.55376 0
M  V30 10301 H 991.94 -2.56452 4.11534 0
M  V30 10302 N 993.283 -1.25346 -0.955304 0
M  V30 10303 C 994.508 -1.12892 -1.73983 0
M  V30 10304 C 994.933 0.313455 -1.8547 0
M  V30 10305 O 994.291 1.22706 -1.33465 0
M  V30 10306 C 994.339 -1.78729 -3.1319 0
M  V30 10307 O 993.443 -1.06648 -3.98372 0
M  V30 10308 H 992.784 -0.394178 -0.534341 0
M  V30 10309 H 995.314 -1.65897 -1.19747 0
M  V30 10310 H 995.324 -1.84987 -3.63653 0
M  V30 10311 H 993.999 -2.83669 -3.04146 0
M  V30 10312 H 992.576 -1.08266 -3.56837 0
M  V30 10313 N 994.761 1.15782 -1.06922 0
M  V30 10314 C 996.009 1.86097 -0.788192 0
M  V30 10315 C 996.33 1.82475 0.687606 0
M  V30 10316 O 995.6 1.26266 1.49778 0
M  V30 10317 H 994.18 0.689008 -0.288577 0
M  V30 10318 H 996.842 1.40377 -1.35205 0
M  V30 10319 H 995.938 2.91358 -1.1188 0
M  V30 10320 N 996.239 0.8527 1.3254 0
M  V30 10321 C 997.479 0.461385 1.99125 0
M  V30 10322 C 997.843 -0.964507 1.66016 0
M  V30 10323 O 999.044 -1.46027 2.25676 0
M  V30 10324 C 997.315 0.69143 3.50648 0
M  V30 10325 S 998.874 0.397397 4.36997 0
M  V30 10326 H 995.692 0.172933 0.689649 0
M  V30 10327 H 998.294 1.10499 1.61277 0
M  V30 10328 H 996.998 1.72831 3.72233 0
M  V30 10329 H 996.529 0.0341812 3.93385 0
M  V30 10330 H 998.544 -0.777363 4.90073 0
M  V30 10331 N 997.718 -1.45297 0.610449 0
M  V30 10332 C 998.648 -2.33311 -0.0939698 0
M  V30 10333 C 999.629 -1.46999 -0.85588 0
M  V30 10334 O 1000.81 -1.75764 -0.825865 0
M  V30 10335 C 997.944 -3.29751 -1.09003 0
M  V30 10336 C 996.898 -4.2572 -0.441146 0
M  V30 10337 C 996.224 -5.11873 -1.54566 0
M  V30 10338 C 997.524 -5.1837 0.639489 0
M  V30 10339 H 999.218 -2.92459 0.640941 0
M  V30 10340 H 996.764 -1.40631 0.309675 0
M  V30 10341 H 998.717 -3.90195 -1.59141 0
M  V30 10342 H 997.441 -2.68768 -1.85557 0
M  V30 10343 H 996.1 -3.66579 0.0393908 0
M  V30 10344 H 995.748 -4.47256 -2.30155 0
M  V30 10345 H 995.448 -5.76886 -1.11698 0
M  V30 10346 H 996.972 -5.75185 -2.04925 0
M  V30 10347 H 998.386 -5.7287 0.22207 0
M  V30 10348 H 996.783 -5.91876 0.990089 0
M  V30 10349 H 997.853 -4.60627 1.51495 0
M  V30 10350 N 999.196 -0.349774 -1.5367 0
M  V30 10351 C 1000.61 0.00191293 -1.596 0
M  V30 10352 C 1000.81 1.48175 -1.36552 0
M  V30 10353 O 999.868 2.24129 -1.16285 0
M  V30 10354 C 1001.18 -0.439848 -2.97466 0
M  V30 10355 C 1002.73 -0.392721 -3.10526 0
M  V30 10356 C 1003.2 -0.810047 -4.5078 0
M  V30 10357 N 1004.69 -0.764478 -4.56848 0
M  V30 10358 C 1005.43 -1.05927 -5.63531 0
M  V30 10359 N 1004.93 -1.42253 -6.78038 0
M  V30 10360 N 1006.72 -0.983098 -5.53436 0
M  V30 10361 H 998.87 -1.31364 -1.66905 0
M  V30 10362 H 1001.13 -0.535908 -0.781989 0
M  V30 10363 H 1000.84 -1.47189 -3.19419 0
M  V30 10364 H 1000.71 0.181735 -3.76762 0
M  V30 10365 H 1003.1 0.630161 -2.88293 0
M  V30 10366 H 1003.18 -1.04959 -2.33275 0
M  V30 10367 H 1002.82 -1.83097 -4.73749 0
M  V30 10368 H 1002.75 -0.130591 -5.26438 0
M  V30 10369 H 1005.25 -0.496637 -3.74622 0
M  V30 10370 H 1005.56 -1.63215 -7.55368 0
M  V30 10371 H 1003.9 -1.46104 -6.79469 0
M  V30 10372 H 1007.09 -0.698601 -4.62858 0
M  V30 10373 H 1007.27 -1.21618 -6.36485 0
M  V30 10374 N 1000.67 1.57404 -0.0785433 0
M  V30 10375 C 1001.92 1.93361 0.58786 0
M  V30 10376 C 1002.24 0.959856 1.6974 0
M  V30 10377 O 1001.51 0.0091173 1.95898 0
M  V30 10378 H 1000.09 0.713825 0.220141 0
M  V30 10379 H 1002.75 1.94411 -0.137986 0
M  V30 10380 H 1001.85 2.95346 1.00881 0
M  V30 10381 N 1002.15 -0.195058 1.56388 0
M  V30 10382 C 1003.56 -0.75973 1.70543 0
M  V30 10383 C 1003.91 -1.83849 0.685118 0
M  V30 10384 O 1003.04 -2.15819 -0.158457 0
M  V30 10385 C 1003.63 -1.38485 3.09204 0
M  V30 10386 C 1002.19 -1.89661 3.25124 0
M  V30 10387 C 1001.34 -0.766563 2.66494 0
M  V30 10388 H 1004.29 0.0300148 1.58672 0
M  V30 10389 H 1004.31 -2.25424 3.06536 0
M  V30 10390 H 1003.82 -0.599479 3.83442 0
M  V30 10391 H 1001.92 -2.70917 2.55802 0
M  V30 10392 H 1002.04 -2.05837 4.32629 0
M  V30 10393 H 1000.4 -1.18086 2.25672 0
M  V30 10394 H 1001.18 0.00657102 3.43299 0
M  V30 10395 N 1003.63 -1.50653 -0.462772 0
M  V30 10396 C 1004.88 -1.63264 -1.21311 0
M  V30 10397 C 1005.23 -0.332647 -1.89503 0
M  V30 10398 O 1004.52 0.669994 -1.79504 0
M  V30 10399 C 1004.72 -2.75637 -2.27507 0
M  V30 10400 C 1004.55 -4.16438 -1.69734 0
M  V30 10401 C 1003.32 -4.82727 -1.49341 0
M  V30 10402 C 1005.51 -5.00399 -1.18765 0
M  V30 10403 N 1003.5 -6.07718 -0.868991 0
M  V30 10404 C 1004.87 -6.16182 -0.68697 0
M  V30 10405 C 1006.92 -4.86112 -1.07699 0
M  V30 10406 C 1005.63 -7.19248 -0.0865268 0
M  V30 10407 C 1007.65 -5.89363 -0.490473 0
M  V30 10408 C 1007.01 -7.044 -0.000208479 0
M  V30 10409 H 1003.11 -0.651518 -0.432491 0
M  V30 10410 H 1005.7 -1.878 -0.51375 0
M  V30 10411 H 1003.87 -2.52809 -2.9486 0
M  V30 10412 H 1005.6 -2.77562 -2.94519 0
M  V30 10413 H 1002.35 -4.40161 -1.74801 0
M  V30 10414 H 1002.78 -6.74554 -0.574957 0
M  V30 10415 H 1007.42 -3.97452 -1.44194 0
M  V30 10416 H 1005.14 -8.07577 0.290614 0
M  V30 10417 H 1008.72 -5.80374 -0.407099 0
M  V30 10418 H 1007.6 -7.82928 0.44652 0
M  V30 10419 N 1005.11 0.71652 -1.4037 0
M  V30 10420 C 1006.07 1.81231 -1.40313 0
M  V30 10421 C 1007.07 1.58032 -0.297087 0
M  V30 10422 O 1008.26 1.65091 -0.555944 0
M  V30 10423 C 1005.39 3.19308 -1.19395 0
M  V30 10424 H 1006.59 1.8268 -2.3784 0
M  V30 10425 H 1004.14 0.922062 -1.26205 0
M  V30 10426 H 1004.87 3.2351 -0.226252 0
M  V30 10427 H 1004.66 3.37546 -1.99512 0
M  V30 10428 H 1006.15 3.99339 -1.22141 0
M  V30 10429 N 1006.59 1.25851 0.948643 0
M  V30 10430 C 1007.83 1.12127 1.69703 0
M  V30 10431 C 1008.19 -0.333318 1.89491 0
M  V30 10432 O 1007.48 -1.24181 1.4591 0
M  V30 10433 C 1007.67 1.81565 3.07846 0
M  V30 10434 C 1007.5 3.33626 3.01535 0
M  V30 10435 C 1006.27 4.02897 3.04962 0
M  V30 10436 C 1008.47 4.29934 2.82243 0
M  V30 10437 N 1006.45 5.41688 2.88872 0
M  V30 10438 C 1007.82 5.5585 2.74646 0
M  V30 10439 C 1009.88 4.20276 2.66969 0
M  V30 10440 C 1008.58 6.73212 2.53335 0
M  V30 10441 C 1010.61 5.37336 2.4703 0
M  V30 10442 C 1009.97 6.62196 2.40158 0
M  V30 10443 H 1006.07 0.465047 0.628693 0
M  V30 10444 H 1008.65 1.59035 1.12321 0
M  V30 10445 H 1006.82 1.37143 3.63382 0
M  V30 10446 H 1008.56 1.6053 3.715 0
M  V30 10447 H 1005.31 3.54201 3.14386 0
M  V30 10448 H 1005.74 6.14544 2.84015 0
M  V30 10449 H 1010.38 3.24485 2.71053 0
M  V30 10450 H 1008.1 7.69107 2.47993 0
M  V30 10451 H 1011.68 5.31728 2.36128 0
M  V30 10452 H 1010.56 7.51249 2.24933 0
M  V30 10453 N 1008.06 -1.15214 1.07534 0
M  V30 10454 C 1008.99 -2.2216 0.718837 0
M  V30 10455 C 1009.98 -1.6753 -0.29459 0
M  V30 10456 O 1011.16 -1.93481 -0.166931 0
M  V30 10457 C 1008.29 -3.471 0.117836 0
M  V30 10458 C 1007.24 -4.14701 1.05862 0
M  V30 10459 C 1006.57 -5.3374 0.320284 0
M  V30 10460 C 1007.87 -4.64254 2.39302 0
M  V30 10461 H 1009.56 -2.52237 1.61297 0
M  V30 10462 H 1007.11 -1.21239 0.776992 0
M  V30 10463 H 1009.06 -4.21156 -0.143519 0
M  V30 10464 H 1007.79 -3.16361 -0.811389 0
M  V30 10465 H 1006.45 -3.42589 1.30493 0
M  V30 10466 H 1006.09 -4.99257 -0.61246 0
M  V30 10467 H 1005.79 -5.79912 0.947381 0
M  V30 10468 H 1007.32 -6.10563 0.0667721 0
M  V30 10469 H 1008.73 -5.29827 2.18988 0
M  V30 10470 H 1007.13 -5.21095 2.97623 0
M  V30 10471 H 1008.2 -3.79793 3.01472 0
M  V30 10472 N 1009.54 -0.859717 -1.32086 0
M  V30 10473 C 1010.79 -0.466271 -1.97367 0
M  V30 10474 C 1011.12 0.976728 -1.6785 0
M  V30 10475 O 1010.4 1.68618 -0.969449 0
M  V30 10476 C 1010.68 -0.711851 -3.52994 0
M  V30 10477 C 1010.53 -2.20364 -3.92122 0
M  V30 10478 C 1011.85 -0.17156 -4.39765 0
M  V30 10479 H 1008.97 -0.170883 -0.716916 0
M  V30 10480 H 1011.61 -1.07907 -1.56384 0
M  V30 10481 H 1009.76 -0.190258 -3.88034 0
M  V30 10482 H 1011.43 -2.7917 -3.67236 0
M  V30 10483 H 1009.68 -2.68019 -3.41099 0
M  V30 10484 H 1010.35 -2.32615 -5.00594 0
M  V30 10485 H 1012.82 -0.617665 -4.1149 0
M  V30 10486 H 1011.7 -0.372921 -5.47632 0
M  V30 10487 H 1011.96 0.925959 -4.32294 0
M  V30 10488 N 1011.02 1.44971 -0.618145 0
M  V30 10489 C 1012.27 2.02458 -0.117656 0
M  V30 10490 C 1012.6 1.48413 1.25248 0
M  V30 10491 O 1011.87 0.662997 1.82851 0
M  V30 10492 C 1012.16 3.59987 -0.0901897 0
M  V30 10493 C 1012.01 4.24343 -1.49175 0
M  V30 10494 C 1013.33 4.36099 0.592121 0
M  V30 10495 H 1010.45 0.735672 -0.0442291 0
M  V30 10496 H 1013.09 1.727 -0.792138 0
M  V30 10497 H 1011.24 3.85471 0.484175 0
M  V30 10498 H 1012.91 4.10009 -2.114 0
M  V30 10499 H 1011.16 3.82337 -2.04941 0
M  V30 10500 H 1011.83 5.33298 -1.42468 0
M  V30 10501 H 1014.3 4.1597 0.103813 0
M  V30 10502 H 1013.18 5.45822 0.580481 0
M  V30 10503 H 1013.44 4.09746 1.66015 0
M  V30 10504 N 1012.5 0.357919 1.53482 0
M  V30 10505 C 1013.43 -0.484231 2.28424 0
M  V30 10506 C 1014.41 -1.09046 1.30548 0
M  V30 10507 O 1015.59 -1.10916 1.59409 0
M  V30 10508 C 1012.72 -1.62803 3.06778 0
M  V30 10509 C 1011.68 -1.14943 4.12277 0
M  V30 10510 C 1011 -2.38287 4.78669 0
M  V30 10511 C 1012.3 -0.239627 5.2175 0
M  V30 10512 H 1014 0.140979 2.99068 0
M  V30 10513 H 1011.54 0.069244 1.43833 0
M  V30 10514 H 1013.5 -2.22374 3.57949 0
M  V30 10515 H 1012.22 -2.28036 2.3381 0
M  V30 10516 H 1010.88 -0.576442 3.6204 0
M  V30 10517 H 1010.53 -3.01959 4.02281 0
M  V30 10518 H 1010.23 -2.06939 5.49955 0
M  V30 10519 H 1011.75 -2.98558 5.32631 0
M  V30 10520 H 1013.17 -0.742597 5.6847 0
M  V30 10521 H 1011.56 -0.0173747 6.00097 0
M  V30 10522 H 1012.63 0.720333 4.7952 0
M  V30 10523 N 1013.98 -1.5736 0.0868897 0
M  V30 10524 C 1014.91 -2.16596 -0.872252 0
M  V30 10525 C 1015.89 -1.09706 -1.29995 0
M  V30 10526 O 1017.07 -1.37808 -1.36831 0
M  V30 10527 C 1014.2 -2.73972 -2.1344 0
M  V30 10528 C 1013.16 -3.86163 -1.8456 0
M  V30 10529 C 1012.48 -4.30206 -3.17533 0
M  V30 10530 C 1013.78 -5.0973 -1.13899 0
M  V30 10531 H 1015.48 -2.96995 -0.378738 0
M  V30 10532 H 1013.02 -1.42861 -0.18073 0
M  V30 10533 H 1014.98 -3.14062 -2.80968 0
M  V30 10534 H 1013.7 -1.90817 -2.6506 0
M  V30 10535 H 1012.36 -3.466 -1.19432 0
M  V30 10536 H 1012.01 -3.43951 -3.67024 0
M  V30 10537 H 1011.71 -5.05841 -2.98996 0
M  V30 10538 H 1013.23 -4.72922 -3.86234 0
M  V30 10539 H 1014.64 -5.4704 -1.71523 0
M  V30 10540 H 1013.04 -5.90741 -1.05569 0
M  V30 10541 H 1014.11 -4.8475 -0.120432 0
M  V30 10542 N 1015.45 0.186762 -1.56489 0
M  V30 10543 C 1016.42 1.21511 -1.94339 0
M  V30 10544 C 1017.42 1.38001 -0.82537 0
M  V30 10545 O 1018.61 1.3567 -1.09266 0
M  V30 10546 C 1015.74 2.583 -2.22472 0
M  V30 10547 H 1016.93 0.891371 -2.86347 0
M  V30 10548 H 1014.49 0.428612 -1.50308 0
M  V30 10549 H 1015.22 2.95715 -1.33129 0
M  V30 10550 H 1015.01 2.47701 -3.03951 0
M  V30 10551 H 1016.5 3.32441 -2.5273 0
M  V30 10552 N 1016.93 1.50896 0.454776 0
M  V30 10553 C 1017.87 1.65608 1.57001 0
M  V30 10554 C 1018.84 0.50387 1.54596 0
M  V30 10555 O 1020.03 0.725485 1.7398 0
M  V30 10556 C 1017.15 1.65366 2.95587 0
M  V30 10557 C 1016.2 2.86344 3.16085 0
M  V30 10558 S 1017.03 4.47418 2.9424 0
M  V30 10559 C 1018.19 4.49895 4.35138 0
M  V30 10560 H 1018.42 2.59941 1.44285 0
M  V30 10561 H 1015.96 1.40362 0.643264 0
M  V30 10562 H 1017.91 1.65911 3.75478 0
M  V30 10563 H 1016.57 0.722407 3.0568 0
M  V30 10564 H 1015.77 2.82526 4.17367 0
M  V30 10565 H 1015.37 2.8345 2.43992 0
M  V30 10566 H 1017.66 4.24462 5.28051 0
M  V30 10567 H 1018.6 5.5161 4.43995 0
M  V30 10568 H 1019.01 3.79412 4.17979 0
M  V30 10569 N 1018.41 -0.709066 1.40748 0
M  V30 10570 C 1019.34 -1.83583 1.4429 0
M  V30 10571 C 1020.32 -1.67378 0.303067 0
M  V30 10572 O 1021.51 -1.87312 0.512612 0
M  V30 10573 C 1018.64 -3.21599 1.31116 0
M  V30 10574 C 1017.59 -3.52486 2.4277 0
M  V30 10575 C 1016.92 -4.89716 2.14668 0
M  V30 10576 C 1018.22 -3.52824 3.85113 0
M  V30 10577 H 1019.91 -1.80876 2.38588 0
M  V30 10578 H 1017.46 -0.868795 1.14839 0
M  V30 10579 H 1019.41 -4.00123 1.32209 0
M  V30 10580 H 1018.13 -3.24898 0.332965 0
M  V30 10581 H 1016.79 -2.76305 2.40937 0
M  V30 10582 H 1016.44 -4.89625 1.15224 0
M  V30 10583 H 1016.14 -5.11347 2.89478 0
M  V30 10584 H 1017.66 -5.70566 2.17455 0
M  V30 10585 H 1019.08 -4.21377 3.88734 0
M  V30 10586 H 1017.48 -3.85984 4.59496 0
M  V30 10587 H 1018.55 -2.52073 4.14231 0
M  V30 10588 N 1019.89 -1.26353 -0.941956 0
M  V30 10589 C 1021.14 -1.12017 -1.69056 0
M  V30 10590 C 1021.47 0.335856 -1.91274 0
M  V30 10591 O 1020.74 1.24677 -1.49285 0
M  V30 10592 C 1021.03 -1.88889 -3.06583 0
M  V30 10593 C 1020.88 -3.42394 -2.91696 0
M  V30 10594 C 1022.2 -1.68209 -4.06686 0
M  V30 10595 H 1019.32 -0.408311 -0.613556 0
M  V30 10596 H 1021.96 -1.55339 -1.09407 0
M  V30 10597 H 1020.11 -1.5207 -3.57501 0
M  V30 10598 H 1021.78 -3.88962 -2.48005 0
M  V30 10599 H 1020.02 -3.69459 -2.27338 0
M  V30 10600 H 1020.7 -3.91408 -3.89235 0
M  V30 10601 H 1023.17 -2.00286 -3.64726 0
M  V30 10602 H 1022.05 -2.24412 -5.00929 0
M  V30 10603 H 1022.31 -0.626474 -4.37639 0
M  V30 10604 N 1021.37 1.14642 -1.08144 0
M  V30 10605 C 1022.28 2.23257 -0.720668 0
M  V30 10606 C 1023.29 1.71866 0.271648 0
M  V30 10607 O 1024.47 2.01064 0.116266 0
M  V30 10608 C 1021.53 3.46447 -0.132542 0
M  V30 10609 C 1020.6 4.12789 -1.17913 0
M  V30 10610 C 1019.83 5.30099 -0.618971 0
M  V30 10611 O 1020.05 5.6762 0.562418 0
M  V30 10612 O 1018.99 5.86154 -1.36774 0
M  V30 10613 H 1022.81 2.56463 -1.62667 0
M  V30 10614 H 1020.4 1.22521 -0.854932 0
M  V30 10615 H 1022.28 4.20959 0.19277 0
M  V30 10616 H 1020.95 3.14971 0.746662 0
M  V30 10617 H 1019.86 3.40163 -1.55693 0
M  V30 10618 H 1021.19 4.48365 -2.03051 0
M  V30 10619 N 1022.85 0.866709 1.31628 0
M  V30 10620 C 1024.09 0.476731 1.97117 0
M  V30 10621 C 1024.42 -0.967813 1.68366 0
M  V30 10622 O 1023.7 -1.68101 0.978377 0
M  V30 10623 C 1023.98 0.730561 3.52611 0
M  V30 10624 C 1023.84 2.2244 3.90948 0
M  V30 10625 C 1025.15 0.19488 4.39668 0
M  V30 10626 H 1022.27 0.174682 0.715999 0
M  V30 10627 H 1024.92 1.08735 1.5581 0
M  V30 10628 H 1023.07 0.210834 3.87927 0
M  V30 10629 H 1024.74 2.81113 3.6575 0
M  V30 10630 H 1022.98 2.69824 3.39673 0
M  V30 10631 H 1023.65 2.35266 4.99353 0
M  V30 10632 H 1026.13 0.639478 4.11157 0
M  V30 10633 H 1025 0.401958 5.47426 0
M  V30 10634 H 1025.26 -0.90302 4.32779 0
M  V30 10635 N 1024.32 -1.44642 0.625825 0
M  V30 10636 C 1025.29 -2.29085 -0.072526 0
M  V30 10637 C 1026.29 -1.40755 -0.777467 0
M  V30 10638 O 1027.48 -1.62684 -0.622861 0
M  V30 10639 C 1024.61 -3.22212 -1.1132 0
M  V30 10640 H 1025.8 -2.92317 0.670124 0
M  V30 10641 H 1023.35 -1.51466 0.38571 0
M  V30 10642 H 1024.09 -2.63819 -1.88601 0
M  V30 10643 H 1023.87 -3.87299 -0.611709 0
M  V30 10644 H 1025.36 -3.8566 -1.60175 0
M  V30 10645 N 1025.8 -0.366053 -1.5329 0
M  V30 10646 C 1026.73 0.47211 -2.28677 0
M  V30 10647 C 1027.71 1.08353 -1.31125 0
M  V30 10648 O 1028.9 1.10069 -1.59995 0
M  V30 10649 C 1026.03 1.61174 -3.07637 0
M  V30 10650 C 1024.98 1.12755 -4.12881 0
M  V30 10651 C 1024.31 2.35745 -4.79925 0
M  V30 10652 C 1025.61 0.211954 -5.2187 0
M  V30 10653 H 1027.3 -0.156838 -2.98989 0
M  V30 10654 H 1024.85 -0.0768709 -1.43795 0
M  V30 10655 H 1026.8 2.20473 -3.59123 0
M  V30 10656 H 1025.52 2.26793 -2.35016 0
M  V30 10657 H 1024.18 0.557234 -3.6234 0
M  V30 10658 H 1023.83 2.99821 -4.03877 0
M  V30 10659 H 1023.53 2.04019 -5.51044 0
M  V30 10660 H 1025.06 2.95729 -5.34207 0
M  V30 10661 H 1026.47 0.71244 -5.68856 0
M  V30 10662 H 1024.87 -0.0144501 -6.00098 0
M  V30 10663 H 1025.94 -0.745753 -4.79131 0
M  V30 10664 N 1027.28 1.57312 -0.0952337 0
M  V30 10665 C 1028.52 1.96239 0.571813 0
M  V30 10666 C 1028.88 0.97602 1.65342 0
M  V30 10667 O 1030.08 1.25379 2.37768 0
M  V30 10668 C 1028.36 3.39644 1.1125 0
M  V30 10669 S 1029.91 4.00568 1.7914 0
M  V30 10670 H 1026.73 0.686081 0.186585 0
M  V30 10671 H 1029.33 1.94718 -0.174669 0
M  V30 10672 H 1028.04 4.09199 0.313796 0
M  V30 10673 H 1027.57 3.44762 1.89481 0
M  V30 10674 H 1029.58 3.89383 3.07563 0
M  V30 10675 N 1028.76 -0.17846 1.56586 0
M  V30 10676 C 1029.99 -0.911996 1.85715 0
M  V30 10677 C 1030.4 -1.76138 0.679766 0
M  V30 10678 O 1029.76 -1.79088 -0.351266 0
M  V30 10679 C 1029.81 -1.79459 3.1381 0
M  V30 10680 O 1029.53 -0.979476 4.2701 0
M  V30 10681 C 1031.03 -2.6384 3.56235 0
M  V30 10682 H 1028.25 -0.265299 0.616326 0
M  V30 10683 H 1030.79 -0.180704 2.037 0
M  V30 10684 H 1028.95 -2.4793 2.97673 0
M  V30 10685 H 1029.36 -1.58244 5.00059 0
M  V30 10686 H 1030.84 -3.21396 4.48786 0
M  V30 10687 H 1031.31 -3.38363 2.80013 0
M  V30 10688 H 1031.92 -2.00712 3.7496 0
M  V30 10689 N 1030.24 -1.51135 -0.446768 0
M  V30 10690 C 1031.48 -1.64542 -1.19573 0
M  V30 10691 C 1031.84 -0.352728 -1.89139 0
M  V30 10692 O 1031.13 0.650917 -1.80204 0
M  V30 10693 C 1031.32 -2.78034 -2.2457 0
M  V30 10694 C 1031.15 -4.18214 -1.65308 0
M  V30 10695 C 1029.92 -4.84284 -1.44212 0
M  V30 10696 C 1032.12 -5.01631 -1.13451 0
M  V30 10697 N 1030.1 -6.08606 -0.804486 0
M  V30 10698 C 1031.47 -6.16876 -0.621577 0
M  V30 10699 C 1033.53 -4.87227 -1.02537 0
M  V30 10700 C 1032.23 -7.19299 -0.0102361 0
M  V30 10701 C 1034.26 -5.8985 -0.427936 0
M  V30 10702 C 1033.62 -7.04361 0.0745026 0
M  V30 10703 H 1029.72 -0.656068 -0.425556 0
M  V30 10704 H 1032.3 -1.88334 -0.493802 0
M  V30 10705 H 1030.47 -2.55922 -2.92162 0
M  V30 10706 H 1032.21 -2.8067 -2.91558 0
M  V30 10707 H 1028.96 -4.4199 -1.70123 0
M  V30 10708 H 1029.38 -6.75126 -0.503379 0
M  V30 10709 H 1034.03 -3.98959 -1.39971 0
M  V30 10710 H 1031.74 -8.07224 0.376252 0
M  V30 10711 H 1035.33 -5.80773 -0.34552 0
M  V30 10712 H 1034.21 -7.8241 0.529535 0
M  V30 10713 N 1031.71 0.701592 -1.41122 0
M  V30 10714 C 1032.94 1.48833 -1.43291 0
M  V30 10715 C 1033.35 1.89168 -0.0348668 0
M  V30 10716 O 1032.69 1.56937 0.9548 0
M  V30 10717 C 1032.76 2.78533 -2.27287 0
M  V30 10718 C 1032.42 2.60438 -3.75528 0
M  V30 10719 C 1033.42 2.26778 -4.67833 0
M  V30 10720 C 1031.1 2.76266 -4.19503 0
M  V30 10721 C 1033.1 2.09176 -6.021 0
M  V30 10722 C 1030.78 2.58281 -5.53836 0
M  V30 10723 C 1031.78 2.24786 -6.4495 0
M  V30 10724 O 1031.47 2.06952 -7.76805 0
M  V30 10725 H 1031.2 0.465401 -0.490284 0
M  V30 10726 H 1033.76 0.871843 -1.85979 0
M  V30 10727 H 1031.99 3.42566 -1.79403 0
M  V30 10728 H 1033.67 3.40312 -2.21229 0
M  V30 10729 H 1034.44 2.1417 -4.35151 0
M  V30 10730 H 1030.32 3.01322 -3.48893 0
M  V30 10731 H 1033.86 1.82955 -6.73181 0
M  V30 10732 H 1029.76 2.70478 -5.86099 0
M  V30 10733 H 1030.53 2.21762 -7.87886 0
M  V30 10734 N 1033.19 1.2685 0.935242 0
M  V30 10735 C 1034.12 1.1143 2.05196 0
M  V30 10736 C 1035.1 0.0178362 1.70091 0
M  V30 10737 O 1036.29 0.190951 1.93259 0
M  V30 10738 C 1033.42 0.752779 3.39044 0
M  V30 10739 C 1032.37 1.80164 3.88233 0
M  V30 10740 C 1031.7 1.29428 5.18799 0
M  V30 10741 C 1033 3.20431 4.12457 0
M  V30 10742 H 1034.69 2.04845 2.18355 0
M  V30 10743 H 1032.24 0.986276 1.04922 0
M  V30 10744 H 1034.19 0.631757 4.16637 0
M  V30 10745 H 1032.91 -0.217075 3.25878 0
M  V30 10746 H 1031.57 1.91144 3.12825 0
M  V30 10747 H 1031.22 0.3141 5.02018 0
M  V30 10748 H 1030.92 1.99546 5.5268 0
M  V30 10749 H 1032.45 1.18605 5.9897 0
M  V30 10750 H 1033.86 3.12495 4.80645 0
M  V30 10751 H 1032.26 3.88193 4.57631 0
M  V30 10752 H 1033.33 3.66046 3.18023 0
M  V30 10753 N 1034.67 -1.14067 1.0875 0
M  V30 10754 C 1035.92 -1.85459 0.82053 0
M  V30 10755 C 1036.25 -1.82923 -0.65213 0
M  V30 10756 O 1035.52 -1.26241 -1.47965 0
M  V30 10757 C 1035.81 -3.33937 1.34752 0
M  V30 10758 C 1035.66 -3.45026 2.88578 0
M  V30 10759 C 1036.98 -4.2915 0.975636 0
M  V30 10760 H 1034.1 -0.673384 0.299538 0
M  V30 10761 H 1036.74 -1.33927 1.34772 0
M  V30 10762 H 1034.89 -3.77953 0.899086 0
M  V30 10763 H 1036.56 -3.09771 3.41818 0
M  V30 10764 H 1034.81 -2.86124 3.26061 0
M  V30 10765 H 1035.48 -4.49408 3.20526 0
M  V30 10766 H 1037.95 -3.93168 1.36228 0
M  V30 10767 H 1036.83 -5.31489 1.37152 0
M  V30 10768 H 1037.09 -4.41945 -0.116956 0
M  V30 10769 N 1036.15 -0.873678 -1.31166 0
M  V30 10770 C 1037.11 -0.337069 -2.26708 0
M  V30 10771 C 1038.11 0.51406 -1.52362 0
M  V30 10772 O 1039.3 0.322834 -1.71182 0
M  V30 10773 C 1036.43 0.520897 -3.36897 0
M  V30 10774 H 1037.63 -1.18056 -2.75686 0
M  V30 10775 H 1035.18 -0.649577 -1.42163 0
M  V30 10776 H 1035.91 1.38543 -2.93217 0
M  V30 10777 H 1035.7 -0.0886015 -3.92 0
M  V30 10778 H 1037.19 0.888497 -4.08039 0
M  V30 10779 N 1037.63 1.44308 -0.633487 0
M  V30 10780 C 1038.87 2.02023 -0.138917 0
M  V30 10781 C 1039.2 1.49841 1.24008 0
M  V30 10782 O 1038.46 0.673718 1.83738 0
M  V30 10783 C 1038.76 3.57316 -0.0773886 0
M  V30 10784 C 1038.42 4.28762 -1.39548 0
M  V30 10785 C 1037.08 4.47997 -1.75648 0
M  V30 10786 C 1039.44 4.69391 -2.26542 0
M  V30 10787 C 1036.76 5.05121 -2.98445 0
M  V30 10788 C 1039.12 5.27876 -3.48612 0
M  V30 10789 C 1037.78 5.45329 -3.84932 0
M  V30 10790 H 1037.05 0.739254 -0.0508333 0
M  V30 10791 H 1039.7 1.73043 -0.820271 0
M  V30 10792 H 1038 3.85724 0.687345 0
M  V30 10793 H 1039.7 3.99706 0.321837 0
M  V30 10794 H 1036.29 4.14122 -1.10456 0
M  V30 10795 H 1040.47 4.54241 -1.99946 0
M  V30 10796 H 1035.73 5.16821 -3.26658 0
M  V30 10797 H 1039.9 5.58307 -4.16253 0
M  V30 10798 H 1037.53 5.8936 -4.80166 0
M  V30 10799 N 1039.1 0.374177 1.53094 0
M  V30 10800 C 1040.52 -0.103172 1.86415 0
M  V30 10801 C 1040.87 -1.47439 1.29446 0
M  V30 10802 O 1039.99 -2.07333 0.619853 0
M  V30 10803 C 1040.59 -0.193988 3.38244 0
M  V30 10804 C 1039.15 -0.615605 3.71332 0
M  V30 10805 C 1038.29 0.23186 2.76329 0
M  V30 10806 H 1041.24 0.592644 1.47219 0
M  V30 10807 H 1041.26 -1.01597 3.66686 0
M  V30 10808 H 1040.78 0.80414 3.79678 0
M  V30 10809 H 1038.88 -1.62165 3.3546 0
M  V30 10810 H 1038.99 -0.38425 4.77557 0
M  V30 10811 H 1037.35 -0.300579 2.5292 0
M  V30 10812 H 1038.14 1.22769 3.20597 0
M  V30 10813 N 1040.58 -1.57259 0.103575 0
M  V30 10814 C 1041.99 -1.81816 -0.424239 0
M  V30 10815 C 1042.34 -1.01976 -1.67617 0
M  V30 10816 O 1041.47 -0.251673 -2.14932 0
M  V30 10817 C 1042.06 -3.29783 -0.776453 0
M  V30 10818 C 1040.62 -3.55074 -1.24897 0
M  V30 10819 C 1039.77 -2.76172 -0.249875 0
M  V30 10820 H 1042.72 -1.55254 0.328913 0
M  V30 10821 H 1042.74 -3.43569 -1.63526 0
M  V30 10822 H 1042.25 -3.87865 0.134906 0
M  V30 10823 H 1040.36 -3.02332 -2.17775 0
M  V30 10824 H 1040.47 -4.637 -1.20495 0
M  V30 10825 H 1038.83 -2.43902 -0.733767 0
M  V30 10826 H 1039.62 -3.37007 0.65431 0
M  V30 10827 N 1042.06 0.170153 -1.56679 0
M  V30 10828 C 1042.97 1.23057 -1.99735 0
M  V30 10829 C 1043.99 1.48374 -0.908912 0
M  V30 10830 O 1045.16 1.60499 -1.21663 0
M  V30 10831 C 1042.23 2.54944 -2.34956 0
M  V30 10832 C 1041.29 2.3748 -3.57634 0
M  V30 10833 C 1040.52 3.63078 -3.91165 0
M  V30 10834 O 1040.74 4.68304 -3.2565 0
M  V30 10835 O 1039.68 3.57119 -4.8451 0
M  V30 10836 H 1043.5 0.895104 -2.9021 0
M  V30 10837 H 1041.09 0.377109 -1.44562 0
M  V30 10838 H 1042.97 3.32742 -2.58574 0
M  V30 10839 H 1041.65 2.88068 -1.47643 0
M  V30 10840 H 1040.55 1.57709 -3.39232 0
M  V30 10841 H 1041.89 2.0928 -4.45491 0
M  V30 10842 N 1043.54 1.5137 0.438746 0
M  V30 10843 C 1044.78 1.64211 1.19006 0
M  V30 10844 C 1045.12 0.356607 1.90898 0
M  V30 10845 O 1044.39 -0.643722 1.83539 0
M  V30 10846 C 1044.68 2.8445 2.20817 0
M  V30 10847 C 1044.53 4.22972 1.53018 0
M  V30 10848 C 1045.85 3.00207 3.21813 0
M  V30 10849 H 1042.97 0.597628 0.431288 0
M  V30 10850 H 1045.61 1.8385 0.479487 0
M  V30 10851 H 1043.76 2.67836 2.81418 0
M  V30 10852 H 1045.43 4.5125 0.957654 0
M  V30 10853 H 1043.67 4.25736 0.832556 0
M  V30 10854 H 1044.34 5.03094 2.27158 0
M  V30 10855 H 1046.82 3.15522 2.71266 0
M  V30 10856 H 1045.7 3.85904 3.90345 0
M  V30 10857 H 1045.96 2.12216 3.87836 0
M  V30 10858 N 1045.02 -0.694098 1.41492 0
M  V30 10859 C 1046.26 -1.4563 1.41137 0
M  V30 10860 C 1046.6 -1.94189 0.0208428 0
M  V30 10861 O 1045.87 -1.69628 -0.951655 0
M  V30 10862 C 1046.15 -2.66714 2.41941 0
M  V30 10863 C 1046.01 -2.23912 3.90107 0
M  V30 10864 C 1047.33 -3.68913 2.39981 0
M  V30 10865 H 1044.44 -0.52821 0.513968 0
M  V30 10866 H 1047.09 -0.790437 1.72778 0
M  V30 10867 H 1045.24 -3.23525 2.1509 0
M  V30 10868 H 1046.91 -1.72417 4.27867 0
M  V30 10869 H 1045.15 -1.5568 4.04903 0
M  V30 10870 H 1045.82 -3.108 4.56188 0
M  V30 10871 H 1048.3 -3.21779 2.63813 0
M  V30 10872 H 1047.17 -4.51242 3.12524 0
M  V30 10873 H 1047.44 -4.18711 1.41892 0
M  V30 10874 N 1046.49 -1.27344 -0.928501 0
M  V30 10875 C 1047.72 -1.16447 -1.7102 0
M  V30 10876 C 1048.14 0.278799 -1.8673 0
M  V30 10877 O 1047.49 1.18989 -1.38376 0
M  V30 10878 C 1047.55 -1.84242 -3.11026 0
M  V30 10879 O 1047.27 -3.2293 -2.96054 0
M  V30 10880 C 1048.77 -1.7946 -4.05351 0
M  V30 10881 H 1045.99 -0.404898 -0.535069 0
M  V30 10882 H 1048.53 -1.68201 -1.16313 0
M  V30 10883 H 1046.69 -1.36395 -3.62595 0
M  V30 10884 H 1047.1 -3.5667 -3.8456 0
M  V30 10885 H 1048.57 -2.31511 -5.01105 0
M  V30 10886 H 1049.05 -0.763771 -4.32508 0
M  V30 10887 H 1049.66 -2.26918 -3.59706 0
M  V30 10888 N 1047.97 1.13488 -1.09353 0
M  V30 10889 C 1049.25 1.80998 -0.741559 0
M  V30 10890 C 1049.63 1.96418 0.773505 0
M  V30 10891 O 1048.98 1.53168 1.69563 0
M  V30 10892 C 1049.19 3.16078 -1.47972 0
M  V30 10893 C 1050.54 3.91438 -1.64504 0
M  V30 10894 O 1051.56 3.25699 -1.44218 0
M  V30 10895 O 1050.42 5.0935 -1.98054 0
M  V30 10896 H 1047.51 0.782953 -0.266297 0
M  V30 10897 H 1050.06 1.20422 -1.19569 0
M  V30 10898 H 1048.83 3.00076 -2.51137 0
M  V30 10899 H 1048.45 3.84354 -1.01772 0
M  V30 10900 N 1049.45 0.880621 1.30701 0
M  V30 10901 C 1050.7 0.506967 1.96981 0
M  V30 10902 C 1051.05 -0.932694 1.68281 0
M  V30 10903 O 1050.35 -1.64954 0.974709 0
M  V30 10904 C 1050.54 0.713203 3.50212 0
M  V30 10905 C 1050.37 2.17136 3.93805 0
M  V30 10906 C 1049.14 2.81508 4.19621 0
M  V30 10907 C 1051.34 3.14473 4.06954 0
M  V30 10908 N 1049.32 4.17965 4.49643 0
M  V30 10909 C 1050.69 4.3599 4.40809 0
M  V30 10910 C 1052.74 3.1032 3.89366 0
M  V30 10911 C 1051.45 5.53889 4.58911 0
M  V30 10912 C 1053.47 4.27487 4.08667 0
M  V30 10913 C 1052.84 5.47769 4.42864 0
M  V30 10914 H 1048.93 0.234756 0.745931 0
M  V30 10915 H 1051.52 1.13745 1.5802 0
M  V30 10916 H 1049.69 0.112239 3.88238 0
M  V30 10917 H 1051.42 0.30688 4.03535 0
M  V30 10918 H 1048.18 2.32399 4.12659 0
M  V30 10919 H 1048.6 4.88425 4.68796 0
M  V30 10920 H 1053.24 2.18428 3.62007 0
M  V30 10921 H 1050.96 6.46289 4.85114 0
M  V30 10922 H 1054.55 4.25738 3.96533 0
M  V30 10923 H 1053.43 6.36922 4.57493 0
M  V30 10924 N 1050.93 -1.4397 0.641131 0
M  V30 10925 C 1051.88 -2.2786 -0.079879 0
M  V30 10926 C 1052.86 -1.39227 -0.80651 0
M  V30 10927 O 1054.06 -1.62956 -0.690969 0
M  V30 10928 C 1051.18 -3.26722 -1.05394 0
M  V30 10929 C 1050.27 -4.22842 -0.326411 0
M  V30 10930 N 1050.66 -5.016 0.650464 0
M  V30 10931 C 1048.96 -4.42349 -0.569507 0
M  V30 10932 C 1049.66 -5.71563 1.08121 0
M  V30 10933 N 1048.64 -5.41991 0.417932 0
M  V30 10934 H 1052.44 -2.86163 0.669906 0
M  V30 10935 H 1049.95 -1.55528 0.467433 0
M  V30 10936 H 1051.95 -3.85588 -1.58517 0
M  V30 10937 H 1050.61 -2.69979 -1.80392 0
M  V30 10938 H 1051.62 -5.07581 1.0287 0
M  V30 10939 H 1048.3 -3.96693 -1.30159 0
M  V30 10940 H 1049.69 -6.44805 1.88883 0
M  V30 10941 N 1052.41 -0.382291 -1.52893 0
M  V30 10942 C 1053.34 0.500194 -2.22651 0
M  V30 10943 C 1054.32 1.06969 -1.22459 0
M  V30 10944 O 1055.5 1.12267 -1.51422 0
M  V30 10945 C 1052.63 1.6917 -2.93427 0
M  V30 10946 C 1051.68 1.24811 -4.07829 0
M  V30 10947 S 1052.51 0.235466 -5.34982 0
M  V30 10948 C 1053.66 1.43292 -6.09277 0
M  V30 10949 H 1053.9 -0.0921913 -2.97157 0
M  V30 10950 H 1051.43 -0.16645 -1.535 0
M  V30 10951 H 1053.39 2.37507 -3.34815 0
M  V30 10952 H 1052.05 2.25537 -2.18613 0
M  V30 10953 H 1051.24 2.13754 -4.56426 0
M  V30 10954 H 1050.84 0.643744 -3.68418 0
M  V30 10955 H 1053.14 2.36118 -6.35023 0
M  V30 10956 H 1054.08 0.988003 -7.01173 0
M  V30 10957 H 1054.49 1.64655 -5.39953 0
M  V30 10958 N 1053.89 1.57202 -0.111913 0
M  V30 10959 C 1054.82 2.17957 0.837683 0
M  V30 10960 C 1055.8 1.1176 1.28233 0
M  V30 10961 O 1056.98 1.39967 1.34621 0
M  V30 10962 C 1054.11 2.77333 2.09054 0
M  V30 10963 C 1053.07 3.8905 1.78393 0
M  V30 10964 C 1052.39 4.35203 3.10649 0
M  V30 10965 C 1053.69 5.11477 1.05775 0
M  V30 10966 H 1055.39 2.9756 0.331441 0
M  V30 10967 H 1052.93 1.43131 0.157979 0
M  V30 10968 H 1054.88 3.18492 2.75936 0
M  V30 10969 H 1053.61 1.95009 2.6199 0
M  V30 10970 H 1052.27 3.48456 1.13903 0
M  V30 10971 H 1051.92 3.49747 3.61506 0
M  V30 10972 H 1051.62 5.10534 2.9091 0
M  V30 10973 H 1053.14 4.79007 3.78661 0
M  V30 10974 H 1054.55 5.497 1.62798 0
M  V30 10975 H 1052.95 5.92346 0.961573 0
M  V30 10976 H 1054.02 4.84881 0.043297 0
M  V30 10977 N 1055.36 -0.161842 1.56767 0
M  V30 10978 C 1056.77 -0.723385 1.72116 0
M  V30 10979 C 1057.13 -1.82355 0.723961 0
M  V30 10980 O 1056.25 -2.16107 -0.112643 0
M  V30 10981 C 1056.85 -1.31895 3.12072 0
M  V30 10982 C 1055.4 -1.82722 3.29074 0
M  V30 10983 C 1054.55 -0.709863 2.6806 0
M  V30 10984 H 1057.5 0.0636647 1.58572 0
M  V30 10985 H 1057.52 -2.18871 3.11249 0
M  V30 10986 H 1057.04 -0.51801 3.84627 0
M  V30 10987 H 1055.14 -2.6543 2.61491 0
M  V30 10988 H 1055.25 -1.96614 4.36898 0
M  V30 10989 H 1053.61 -1.13273 2.28126 0
M  V30 10990 H 1054.4 0.0793884 3.43208 0
M  V30 10991 N 1056.84 -1.516 -0.430713 0
M  V30 10992 C 1058.07 -1.68414 -1.20185 0
M  V30 10993 C 1058.48 -0.384297 -1.84847 0
M  V30 10994 O 1057.84 0.637808 -1.70992 0
M  V30 10995 C 1057.89 -2.80451 -2.28099 0
M  V30 10996 O 1057.61 -4.05399 -1.66081 0
M  V30 10997 C 1059.11 -3.0859 -3.18256 0
M  V30 10998 H 1056.33 -0.564982 -0.361989 0
M  V30 10999 H 1058.88 -1.9805 -0.50954 0
M  V30 11000 H 1057.03 -2.53395 -2.93036 0
M  V30 11001 H 1057.45 -4.67671 -2.37453 0
M  V30 11002 H 1058.92 -3.9055 -3.90096 0
M  V30 11003 H 1059.4 -2.21264 -3.79393 0
M  V30 11004 H 1060 -3.37331 -2.59014 0
M  V30 11005 N 1058.32 0.686584 -1.41858 0
M  V30 11006 C 1059.23 1.83002 -1.46791 0
M  V30 11007 C 1060.25 1.70284 -0.357675 0
M  V30 11008 O 1061.42 1.92042 -0.606781 0
M  V30 11009 C 1058.49 3.19056 -1.35661 0
M  V30 11010 C 1057.55 3.43817 -2.57077 0
M  V30 11011 C 1056.78 4.7338 -2.46469 0
M  V30 11012 O 1057 5.50483 -1.49413 0
M  V30 11013 O 1055.94 4.99124 -3.36391 0
M  V30 11014 H 1059.76 1.81797 -2.43277 0
M  V30 11015 H 1057.35 0.840812 -1.23494 0
M  V30 11016 H 1059.23 4.00267 -1.31773 0
M  V30 11017 H 1057.91 3.20925 -0.422951 0
M  V30 11018 H 1056.81 2.625 -2.66541 0
M  V30 11019 H 1058.15 3.4677 -3.49302 0
M  V30 11020 N 1059.8 1.27835 0.921735 0
M  V30 11021 C 1060.76 1.11108 2.00469 0
M  V30 11022 C 1061.76 0.053203 1.60712 0
M  V30 11023 O 1062.95 0.298308 1.71627 0
M  V30 11024 C 1060.08 0.694269 3.33755 0
M  V30 11025 H 1061.28 2.07279 2.16738 0
M  V30 11026 H 1058.83 1.10708 1.10333 0
M  V30 11027 H 1059.56 -0.268561 3.23186 0
M  V30 11028 H 1059.35 1.45836 3.6397 0
M  V30 11029 H 1060.84 0.59965 4.13272 0
M  V30 11030 N 1061.28 -1.12907 1.09954 0
M  V30 11031 C 1062.21 -2.20585 0.765799 0
M  V30 11032 C 1063.19 -1.68117 -0.258989 0
M  V30 11033 O 1064.37 -1.93792 -0.125853 0
M  V30 11034 C 1061.5 -3.46772 0.191435 0
M  V30 11035 C 1060.46 -4.12363 1.14635 0
M  V30 11036 C 1059.78 -5.3294 0.433426 0
M  V30 11037 C 1061.08 -4.59073 2.49096 0
M  V30 11038 H 1062.78 -2.48759 1.66612 0
M  V30 11039 H 1060.32 -1.19563 0.802534 0
M  V30 11040 H 1062.27 -4.21365 -0.0541535 0
M  V30 11041 H 1061 -3.18011 -0.744101 0
M  V30 11042 H 1059.66 -3.39744 1.37731 0
M  V30 11043 H 1059.31 -5.00444 -0.506422 0
M  V30 11044 H 1059.01 -5.77772 1.07018 0
M  V30 11045 H 1060.53 -6.10284 0.196267 0
M  V30 11046 H 1061.94 -5.25063 2.30177 0
M  V30 11047 H 1060.34 -5.14665 3.0861 0
M  V30 11048 H 1061.41 -3.73313 3.0946 0
M  V30 11049 N 1062.75 -0.88754 -1.30232 0
M  V30 11050 C 1064 -0.508031 -1.96334 0
M  V30 11051 C 1064.33 0.940905 -1.69884 0
M  V30 11052 O 1063.61 1.66523 -1.005 0
M  V30 11053 C 1063.89 -0.786566 -3.51405 0
M  V30 11054 C 1063.74 -2.28632 -3.8736 0
M  V30 11055 C 1065.06 -0.264803 -4.39303 0
M  V30 11056 H 1062.18 -0.186051 -0.71313 0
M  V30 11057 H 1064.82 -1.112 -1.5406 0
M  V30 11058 H 1062.97 -0.272523 -3.87543 0
M  V30 11059 H 1064.65 -2.86896 -3.61231 0
M  V30 11060 H 1062.89 -2.75194 -3.35337 0
M  V30 11061 H 1063.56 -2.43181 -4.95547 0
M  V30 11062 H 1066.04 -0.704809 -4.10087 0
M  V30 11063 H 1064.91 -0.488998 -5.46717 0
M  V30 11064 H 1065.17 0.834055 -4.34161 0
M  V30 11065 N 1064.23 1.43628 -0.648757 0
M  V30 11066 C 1065.18 2.27899 0.0677939 0
M  V30 11067 C 1066.17 1.39653 0.799115 0
M  V30 11068 O 1067.36 1.6332 0.682317 0
M  V30 11069 C 1064.49 3.27276 1.0366 0
M  V30 11070 C 1063.57 4.23009 0.303982 0
M  V30 11071 N 1063.96 5.01248 -0.677056 0
M  V30 11072 C 1062.26 4.42645 0.546041 0
M  V30 11073 C 1062.96 5.70982 -1.11151 0
M  V30 11074 N 1061.94 5.41762 -0.446669 0
M  V30 11075 H 1065.74 2.85804 -0.685073 0
M  V30 11076 H 1063.26 1.55277 -0.475674 0
M  V30 11077 H 1065.25 3.86423 1.5647 0
M  V30 11078 H 1063.91 2.70932 1.78958 0
M  V30 11079 H 1064.92 5.07028 -1.0556 0
M  V30 11080 H 1061.6 3.97377 1.28053 0
M  V30 11081 H 1062.99 6.43794 -1.923 0
M  V30 11082 N 1065.71 0.390394 1.52688 0
M  V30 11083 C 1066.95 -0.191207 2.03504 0
M  V30 11084 C 1067.31 -1.43952 1.27051 0
M  V30 11085 O 1068.52 -2.09835 1.67996 0
M  V30 11086 C 1066.79 -0.451552 3.54536 0
M  V30 11087 S 1068.35 -1.00328 4.27176 0
M  V30 11088 H 1065.16 -0.0537587 0.708965 0
M  V30 11089 H 1067.77 0.538993 1.87923 0
M  V30 11090 H 1066.47 0.464061 4.07768 0
M  V30 11091 H 1066 -1.21015 3.74325 0
M  V30 11092 H 1068.02 -2.28555 4.40428 0
M  V30 11093 N 1067.19 -1.57141 0.120249 0
M  V30 11094 C 1068.6 -1.5784 -0.236335 0
M  V30 11095 C 1068.8 -1.13304 -1.66626 0
M  V30 11096 O 1067.86 -0.821004 -2.3878 0
M  V30 11097 C 1069.17 -3.007 -0.00188211 0
M  V30 11098 C 1070.72 -3.12927 -0.0676838 0
M  V30 11099 C 1071.2 -4.57789 0.139092 0
M  V30 11100 N 1072.69 -4.63122 0.085104 0
M  V30 11101 C 1073.42 -5.72978 0.219983 0
M  V30 11102 N 1072.92 -6.91579 0.411102 0
M  V30 11103 N 1074.71 -5.61874 0.159469 0
M  V30 11104 H 1066.86 -1.84391 1.05422 0
M  V30 11105 H 1069.13 -0.852228 0.415225 0
M  V30 11106 H 1068.83 -3.37575 0.986718 0
M  V30 11107 H 1068.71 -3.70005 -0.733203 0
M  V30 11108 H 1071.09 -2.75909 -1.04681 0
M  V30 11109 H 1071.17 -2.46162 0.695538 0
M  V30 11110 H 1070.82 -4.95506 1.1152 0
M  V30 11111 H 1070.75 -5.22646 -0.644131 0
M  V30 11112 H 1073.24 -3.77854 -0.0590479 0
M  V30 11113 H 1073.55 -7.71149 0.504851 0
M  V30 11114 H 1071.9 -6.9356 0.447091 0
M  V30 11115 H 1075.09 -4.68099 0.0111131 0
M  V30 11116 H 1075.26 -6.47445 0.268028 0
M  V30 11117 N 1068.67 0.153526 -1.5685 0
M  V30 11118 C 1069.89 0.882335 -1.87143 0
M  V30 11119 C 1070.31 1.75034 -0.707702 0
M  V30 11120 O 1069.67 1.79624 0.32273 0
M  V30 11121 C 1069.72 1.74444 -3.16625 0
M  V30 11122 O 1069.44 0.911419 -4.28515 0
M  V30 11123 C 1070.94 2.58139 -3.60388 0
M  V30 11124 H 1068.16 0.25546 -0.620469 0
M  V30 11125 H 1070.7 0.148275 -2.03962 0
M  V30 11126 H 1068.86 2.43163 -3.0158 0
M  V30 11127 H 1069.27 1.50268 -5.02513 0
M  V30 11128 H 1070.75 3.14215 -4.53842 0
M  V30 11129 H 1071.22 3.33865 -2.85361 0
M  V30 11130 H 1071.83 1.94721 -3.78105 0
M  V30 11131 N 1070.14 1.51827 0.422667 0
M  V30 11132 C 1071.56 1.40328 0.760275 0
M  V30 11133 C 1071.76 0.497119 1.95272 0
M  V30 11134 O 1070.82 -0.0422083 2.52465 0
M  V30 11135 C 1072.13 2.82622 1.02689 0
M  V30 11136 C 1073.68 2.91874 1.13044 0
M  V30 11137 C 1074.15 4.35107 1.4299 0
M  V30 11138 N 1075.64 4.3828 1.49883 0
M  V30 11139 C 1076.38 5.46153 1.74655 0
M  V30 11140 N 1075.87 6.64165 1.9712 0
M  V30 11141 N 1077.67 5.33651 1.76558 0
M  V30 11142 H 1069.82 2.09285 -0.362455 0
M  V30 11143 H 1072.08 0.94273 -0.0998161 0
M  V30 11144 H 1071.79 3.50991 0.223226 0
M  V30 11145 H 1071.66 3.22844 1.95068 0
M  V30 11146 H 1074.05 2.23694 1.92471 0
M  V30 11147 H 1074.13 2.55128 0.185326 0
M  V30 11148 H 1073.77 5.03841 0.640848 0
M  V30 11149 H 1073.7 4.69377 2.38731 0
M  V30 11150 H 1076.19 3.53206 1.34366 0
M  V30 11151 H 1076.51 7.42165 2.15434 0
M  V30 11152 H 1074.85 6.67255 1.94413 0
M  V30 11153 H 1078.04 4.40436 1.58536 0
M  V30 11154 H 1078.22 6.17798 1.95525 0
M  V30 11155 N 1071.62 -0.679052 1.4222 0
M  V30 11156 C 1072.85 -1.47248 1.46058 0
M  V30 11157 C 1073.27 -1.87962 0.0720987 0
M  V30 11158 O 1072.63 -1.5572 -0.928488 0
M  V30 11159 C 1072.68 -2.70067 2.38948 0
M  V30 11160 O 1071.78 -3.68178 1.85791 0
M  V30 11161 H 1071.12 -0.442533 0.495036 0
M  V30 11162 H 1073.65 -0.833263 1.86863 0
M  V30 11163 H 1073.66 -3.18187 2.55385 0
M  V30 11164 H 1072.34 -2.39773 3.39826 0
M  V30 11165 H 1070.92 -3.2719 1.78889 0
M  V30 11166 N 1073.1 -1.28322 -0.914942 0
M  V30 11167 C 1074.35 -1.16587 -1.6667 0
M  V30 11168 C 1074.7 0.282961 -1.90308 0
M  V30 11169 O 1073.99 1.20269 -1.49151 0
M  V30 11170 C 1074.19 -1.89663 -3.02924 0
M  V30 11171 C 1074.02 -3.41504 -2.92584 0
M  V30 11172 C 1072.79 -4.10841 -2.94173 0
M  V30 11173 C 1074.99 -4.37266 -2.70745 0
M  V30 11174 N 1072.97 -5.49157 -2.74409 0
M  V30 11175 C 1074.34 -5.62937 -2.59812 0
M  V30 11176 C 1076.39 -4.27207 -2.55732 0
M  V30 11177 C 1075.1 -6.79692 -2.35397 0
M  V30 11178 C 1077.12 -5.43697 -2.32697 0
M  V30 11179 C 1076.48 -6.6833 -2.22517 0
M  V30 11180 H 1072.58 -0.481552 -0.616142 0
M  V30 11181 H 1075.17 -1.61957 -1.08065 0
M  V30 11182 H 1073.34 -1.46729 -3.59618 0
M  V30 11183 H 1075.07 -1.70323 -3.67113 0
M  V30 11184 H 1071.83 -3.62412 -3.04884 0
M  V30 11185 H 1072.25 -6.21858 -2.67622 0
M  V30 11186 H 1076.89 -3.31557 -2.62354 0
M  V30 11187 H 1074.61 -7.75412 -2.27514 0
M  V30 11188 H 1078.2 -5.37802 -2.21947 0
M  V30 11189 H 1077.08 -7.56949 -2.04936 0
M  V30 11190 N 1074.58 1.12322 -1.10551 0
M  V30 11191 C 1075.82 1.8413 -0.849932 0
M  V30 11192 C 1076.16 1.83938 0.622946 0
M  V30 11193 O 1075.43 1.28579 1.45937 0
M  V30 11194 C 1075.72 3.31751 -1.40048 0
M  V30 11195 C 1075.57 3.40391 -2.9403 0
M  V30 11196 C 1076.89 4.27543 -1.04379 0
M  V30 11197 H 1074.01 0.668533 -0.310213 0
M  V30 11198 H 1076.65 1.31766 -1.36886 0
M  V30 11199 H 1074.8 3.76475 -0.959102 0
M  V30 11200 H 1076.47 3.04294 -3.46703 0
M  V30 11201 H 1074.71 2.809 -3.30571 0
M  V30 11202 H 1075.38 4.44252 -3.27635 0
M  V30 11203 H 1077.86 3.90951 -1.42466 0
M  V30 11204 H 1076.74 5.2924 -1.4559 0
M  V30 11205 H 1077 4.42075 0.0466316 0
M  V30 11206 N 1076.06 0.894434 1.2976 0
M  V30 11207 C 1077.28 0.5322 2.00455 0
M  V30 11208 C 1077.71 -0.874427 1.66539 0
M  V30 11209 O 1077.06 -1.58113 0.887129 0
M  V30 11210 C 1077.11 0.725264 3.53231 0
M  V30 11211 O 1076.22 -0.224612 4.11788 0
M  V30 11212 H 1075.56 0.208562 0.630395 0
M  V30 11213 H 1078.09 1.20458 1.65382 0
M  V30 11214 H 1078.1 0.627889 4.0314 0
M  V30 11215 H 1076.77 1.75079 3.77253 0
M  V30 11216 H 1075.35 -0.0801361 3.72814 0
M  V30 11217 N 1077.53 -1.43282 0.656365 0
M  V30 11218 C 1078.78 -2.01776 0.171039 0
M  V30 11219 C 1079.11 -1.51795 -1.21609 0
M  V30 11220 O 1078.36 -0.702864 -1.82643 0
M  V30 11221 C 1078.66 -3.57148 0.134225 0
M  V30 11222 C 1078.33 -4.26488 1.46352 0
M  V30 11223 C 1076.99 -4.45146 1.82753 0
M  V30 11224 C 1079.34 -4.65728 2.33981 0
M  V30 11225 C 1076.67 -5.0031 3.06443 0
M  V30 11226 C 1079.02 -5.22263 3.56966 0
M  V30 11227 C 1077.69 -5.39136 3.93559 0
M  V30 11228 H 1076.96 -0.738352 0.0625878 0
M  V30 11229 H 1079.6 -1.71716 0.847697 0
M  V30 11230 H 1077.91 -3.86768 -0.625892 0
M  V30 11231 H 1079.61 -4.00168 -0.258207 0
M  V30 11232 H 1076.2 -4.12313 1.1703 0
M  V30 11233 H 1080.38 -4.51003 2.07148 0
M  V30 11234 H 1075.64 -5.11559 3.34839 0
M  V30 11235 H 1079.81 -5.51614 4.25082 0
M  V30 11236 H 1077.44 -5.81646 4.89481 0
M  V30 11237 N 1079.01 -0.398486 -1.52479 0
M  V30 11238 C 1080.26 0.180394 -2.01293 0
M  V30 11239 C 1080.58 1.46548 -1.28641 0
M  V30 11240 O 1079.85 1.91579 -0.409173 0
M  V30 11241 H 1078.43 0.0696528 -0.743746 0
M  V30 11242 H 1081.09 -0.532285 -1.87491 0
M  V30 11243 H 1080.19 0.38409 -3.09728 0
M  V30 11244 N 1080.49 1.57075 -0.12858 0
M  V30 11245 C 1081.42 2.18833 0.814519 0
M  V30 11246 C 1082.4 1.13114 1.2704 0
M  V30 11247 O 1083.59 1.41387 1.33129 0
M  V30 11248 C 1080.72 2.79535 2.06101 0
M  V30 11249 C 1079.67 3.9092 1.74257 0
M  V30 11250 C 1079 4.38473 3.06015 0
M  V30 11251 C 1080.3 5.1257 1.00345 0
M  V30 11252 H 1081.99 2.97895 0.299862 0
M  V30 11253 H 1079.54 1.4329 0.14279 0
M  V30 11254 H 1081.49 3.21401 2.72543 0
M  V30 11255 H 1080.21 1.97777 2.59907 0
M  V30 11256 H 1078.87 3.49645 1.102 0
M  V30 11257 H 1078.52 3.53561 3.57776 0
M  V30 11258 H 1078.22 5.13591 2.85479 0
M  V30 11259 H 1079.75 4.82997 3.7356 0
M  V30 11260 H 1081.16 5.51395 1.56959 0
M  V30 11261 H 1079.56 5.93333 0.898693 0
M  V30 11262 H 1080.63 4.84899 -0.0081335 0
M  V30 11263 N 1081.97 -0.145205 1.5693 0
M  V30 11264 C 1082.93 -1.16316 1.97492 0
M  V30 11265 C 1083.93 -1.35764 0.861668 0
M  V30 11266 O 1085.12 -1.32726 1.12825 0
M  V30 11267 C 1082.25 -2.52311 2.29242 0
M  V30 11268 H 1083.45 -0.815138 2.8861 0
M  V30 11269 H 1081 -0.38861 1.51392 0
M  V30 11270 H 1081.74 -2.92081 1.40922 0
M  V30 11271 H 1081.52 -2.39555 3.10412 0
M  V30 11272 H 1083.01 -3.25624 2.61456 0
M  V30 11273 N 1083.45 -1.52049 -0.414609 0
M  V30 11274 C 1084.4 -1.7138 -1.50376 0
M  V30 11275 C 1085.38 -0.567692 -1.50553 0
M  V30 11276 O 1086.57 -0.824541 -1.56622 0
M  V30 11277 C 1083.7 -1.86291 -2.88358 0
M  V30 11278 C 1082.79 -3.06757 -2.9285 0
M  V30 11279 N 1083.18 -4.29557 -2.67048 0
M  V30 11280 C 1081.48 -3.06478 -3.24018 0
M  V30 11281 C 1082.18 -5.10988 -2.77968 0
M  V30 11282 N 1081.15 -4.46117 -3.10613 0
M  V30 11283 H 1084.96 -2.63972 -1.29213 0
M  V30 11284 H 1082.47 -1.50006 -0.622244 0
M  V30 11285 H 1084.47 -1.98256 -3.66743 0
M  V30 11286 H 1083.13 -0.948959 -3.10524 0
M  V30 11287 H 1084.14 -4.58122 -2.41546 0
M  V30 11288 H 1080.82 -2.24799 -3.51812 0
M  V30 11289 H 1082.21 -6.18806 -2.6178 0
M  V30 11290 N 1084.93 0.6715 -1.42579 0
M  V30 11291 C 1085.89 1.76676 -1.46008 0
M  V30 11292 C 1086.89 1.57007 -0.347213 0
M  V30 11293 O 1088.08 1.63238 -0.608185 0
M  V30 11294 C 1085.21 3.15348 -1.29494 0
M  V30 11295 H 1086.4 1.75021 -2.43531 0
M  V30 11296 H 1083.96 0.881444 -1.29075 0
M  V30 11297 H 1084.69 3.22626 -0.32906 0
M  V30 11298 H 1084.48 3.31028 -2.10149 0
M  V30 11299 H 1085.97 3.95251 -1.34784 0
M  V30 11300 N 1086.4 1.28806 0.908124 0
M  V30 11301 C 1087.63 1.19153 1.69146 0
M  V30 11302 C 1088.05 -0.249056 1.8715 0
M  V30 11303 O 1087.4 -1.16772 1.40251 0
M  V30 11304 C 1087.45 1.89167 3.08055 0
M  V30 11305 O 1087.18 3.27599 2.90879 0
M  V30 11306 C 1088.68 1.85886 4.02444 0
M  V30 11307 H 1085.9 0.413359 0.528559 0
M  V30 11308 H 1088.44 1.7003 1.13622 0
M  V30 11309 H 1086.6 1.42146 3.60379 0
M  V30 11310 H 1087.01 3.62743 3.78837 0
M  V30 11311 H 1088.48 2.39454 4.97359 0
M  V30 11312 H 1088.96 0.832483 4.31238 0
M  V30 11313 H 1089.57 2.32612 3.5605 0
M  V30 11314 N 1087.88 -1.11734 1.11145 0
M  V30 11315 C 1088.83 -2.19765 0.761982 0
M  V30 11316 C 1089.82 -1.67616 -0.24518 0
M  V30 11317 O 1091.03 -1.79695 -0.104781 0
M  V30 11318 H 1087.4 -0.71644 0.228513 0
M  V30 11319 H 1089.38 -2.4649 1.68183 0
M  V30 11320 C 1088.12 -3.47016 0.218057 0
M  V30 11321 H 1087.45 -3.87494 0.984299 0
M  V30 11322 H 1088.89 -4.23998 0.0116825 0
M  V30 11323 C 1087.35 -3.20088 -1.05096 0
M  V30 11324 O 1087.88 -3.40503 -2.1312 0
M  V30 11325 N 1086.08 -2.73844 -0.972523 0
M  V30 11326 H 1085.63 -2.57431 -0.0933459 0
M  V30 11327 H 1085.59 -2.56204 -1.82228 0
M  V30 11328 N 1089.36 -0.901303 -1.29284 0
M  V30 11329 C 1090.32 -0.385081 -2.25942 0
M  V30 11330 C 1091.32 0.481626 -1.53418 0
M  V30 11331 O 1092.51 0.286451 -1.71829 0
M  V30 11332 C 1089.64 0.449319 -3.37926 0
M  V30 11333 H 1090.84 -1.23877 -2.7312 0
M  V30 11334 H 1088.39 -0.679586 -1.40753 0
M  V30 11335 H 1089.13 1.32292 -2.9609 0
M  V30 11336 H 1088.91 -0.171731 -3.91724 0
M  V30 11337 H 1090.4 0.801746 -4.09831 0
M  V30 11338 N 1090.84 1.42931 -0.663954 0
M  V30 11339 C 1092.07 2.06028 -0.189808 0
M  V30 11340 C 1092.48 1.49827 1.14879 0
M  V30 11341 O 1091.84 0.633778 1.71142 0
M  V30 11342 C 1091.89 3.61349 -0.104343 0
M  V30 11343 O 1091.61 4.15463 -1.39004 0
M  V30 11344 C 1093.11 4.4154 0.394599 0
M  V30 11345 H 1090.33 0.664259 -0.0948744 0
M  V30 11346 H 1092.87 1.83255 -0.907632 0
M  V30 11347 H 1091.03 3.83271 0.564103 0
M  V30 11348 H 1091.44 5.09233 -1.25626 0
M  V30 11349 H 1092.92 5.50525 0.403329 0
M  V30 11350 H 1093.39 4.1534 1.4279 0
M  V30 11351 H 1094 4.24612 -0.241729 0
M  V30 11352 N 1092.32 0.406567 1.52266 0
M  V30 11353 C 1093.25 -0.411314 2.29849 0
M  V30 11354 C 1094.23 -1.04838 1.33952 0
M  V30 11355 O 1095.41 -1.05788 1.62857 0
M  V30 11356 C 1092.54 -1.52961 3.11802 0
M  V30 11357 C 1091.5 -1.01768 4.15725 0
M  V30 11358 C 1090.82 -2.22938 4.86007 0
M  V30 11359 C 1092.12 -0.073515 5.22248 0
M  V30 11360 H 1093.82 0.236054 2.98468 0
M  V30 11361 H 1091.36 0.114968 1.4354 0
M  V30 11362 H 1093.31 -2.10874 3.64843 0
M  V30 11363 H 1092.04 -2.20482 2.40947 0
M  V30 11364 H 1090.7 -0.46097 3.6369 0
M  V30 11365 H 1090.35 -2.89007 4.11684 0
M  V30 11366 H 1090.05 -1.89338 5.5626 0
M  V30 11367 H 1091.57 -2.81462 5.41859 0
M  V30 11368 H 1092.98 -0.561367 5.70545 0
M  V30 11369 H 1091.38 0.173551 5.99849 0
M  V30 11370 H 1092.45 0.872524 4.76985 0
M  V30 11371 N 1093.79 -1.57004 0.136909 0
M  V30 11372 C 1094.76 -2.15066 -0.792419 0
M  V30 11373 C 1095.76 -1.08991 -1.18226 0
M  V30 11374 O 1096.95 -1.34681 -1.10484 0
M  V30 11375 C 1094.08 -2.70554 -2.07397 0
M  V30 11376 H 1095.27 -2.98519 -0.28752 0
M  V30 11377 H 1092.83 -1.55895 -0.112469 0
M  V30 11378 H 1093.56 -1.90739 -2.62277 0
M  V30 11379 H 1093.35 -3.48149 -1.80374 0
M  V30 11380 H 1094.84 -3.15322 -2.73792 0
M  V30 11381 N 1095.27 0.136881 -1.57004 0
M  V30 11382 C 1096.52 0.847775 -1.83899 0
M  V30 11383 C 1096.85 1.80709 -0.719332 0
M  V30 11384 O 1096.1 1.93527 0.290838 0
M  V30 11385 C 1096.4 1.64711 -3.17183 0
M  V30 11386 C 1096.07 0.833683 -4.43126 0
M  V30 11387 C 1094.73 0.609306 -4.77327 0
M  V30 11388 C 1097.08 0.265504 -5.20523 0
M  V30 11389 C 1094.41 -0.193793 -5.8638 0
M  V30 11390 C 1096.76 -0.524688 -6.3042 0
M  V30 11391 C 1095.43 -0.759548 -6.63164 0
M  V30 11392 H 1094.7 0.310223 -0.672936 0
M  V30 11393 H 1097.34 0.110937 -1.91178 0
M  V30 11394 H 1095.65 2.45435 -3.054 0
M  V30 11395 H 1097.34 2.20081 -3.3521 0
M  V30 11396 H 1093.93 1.01864 -4.16319 0
M  V30 11397 H 1098.12 0.426109 -4.94467 0
M  V30 11398 H 1093.37 -0.385153 -6.10186 0
M  V30 11399 H 1097.55 -0.972033 -6.89583 0
M  V30 11400 H 1095.18 -1.38369 -7.47501 0
M  V30 11401 N 1096.75 1.52266 0.40654 0
M  V30 11402 C 1097.68 1.78755 1.50229 0
M  V30 11403 C 1098.66 0.638652 1.57655 0
M  V30 11404 O 1099.85 0.884505 1.72888 0
M  V30 11405 C 1096.98 1.94057 2.88026 0
M  V30 11406 C 1095.93 3.09667 2.95449 0
M  V30 11407 C 1095.26 3.10196 4.35526 0
M  V30 11408 C 1096.56 4.49077 2.66697 0
M  V30 11409 H 1098.25 2.70511 1.28313 0
M  V30 11410 H 1095.8 1.30167 0.615836 0
M  V30 11411 H 1097.75 2.11171 3.64671 0
M  V30 11412 H 1096.47 0.989755 3.11242 0
M  V30 11413 H 1095.13 2.92308 2.2125 0
M  V30 11414 H 1094.78 2.12831 4.55754 0
M  V30 11415 H 1094.48 3.87847 4.41416 0
M  V30 11416 H 1096 3.29443 5.14101 0
M  V30 11417 H 1097.42 4.66628 3.33064 0
M  V30 11418 H 1095.82 5.28665 2.8396 0
M  V30 11419 H 1096.89 4.56995 1.62122 0
M  V30 11420 N 1098.23 -0.663929 1.42933 0
M  V30 11421 C 1099.47 -1.43583 1.45476 0
M  V30 11422 C 1099.83 -1.91862 0.0728387 0
M  V30 11423 O 1101.03 -2.68786 -0.0270249 0
M  V30 11424 C 1099.3 -2.59316 2.45947 0
M  V30 11425 S 1100.86 -3.48004 2.6728 0
M  V30 11426 H 1097.68 -0.490261 0.514942 0
M  V30 11427 H 1100.28 -0.771834 1.79619 0
M  V30 11428 H 1098.99 -2.22104 3.45106 0
M  V30 11429 H 1098.52 -3.30577 2.13266 0
M  V30 11430 H 1100.53 -4.55677 1.96399 0
M  V30 11431 N 1099.71 -1.29285 -0.901281 0
M  V30 11432 C 1100.95 -1.17165 -1.65162 0
M  V30 11433 C 1101.28 0.277184 -1.92515 0
M  V30 11434 O 1100.54 1.2168 -1.53273 0
M  V30 11435 C 1100.84 -1.92865 -3.00895 0
M  V30 11436 C 1100.5 -3.42593 -2.93157 0
M  V30 11437 C 1099.16 -3.83426 -2.90754 0
M  V30 11438 C 1101.52 -4.38011 -2.82481 0
M  V30 11439 C 1098.84 -5.17997 -2.75492 0
M  V30 11440 C 1101.2 -5.7267 -2.68759 0
M  V30 11441 C 1099.86 -6.12764 -2.64721 0
M  V30 11442 H 1099.13 -0.428737 -0.604372 0
M  V30 11443 H 1101.78 -1.60204 -1.04914 0
M  V30 11444 H 1100.08 -1.42412 -3.65001 0
M  V30 11445 H 1101.78 -1.80893 -3.57881 0
M  V30 11446 H 1098.37 -3.10134 -2.95829 0
M  V30 11447 H 1102.55 -4.07417 -2.83416 0
M  V30 11448 H 1097.81 -5.48173 -2.70769 0
M  V30 11449 H 1101.98 -6.46258 -2.59469 0
M  V30 11450 H 1099.61 -7.16987 -2.52652 0
M  V30 11451 N 1101.18 1.11143 -1.11736 0
M  V30 11452 C 1102.11 2.19339 -0.800795 0
M  V30 11453 C 1103.1 1.68508 0.23221 0
M  V30 11454 O 1104.28 1.93967 0.0950063 0
M  V30 11455 C 1101.41 3.46424 -0.246579 0
M  V30 11456 C 1100.36 4.10487 -1.21181 0
M  V30 11457 C 1099.69 5.32183 -0.518158 0
M  V30 11458 C 1100.99 4.55052 -2.56368 0
M  V30 11459 H 1102.68 2.46077 -1.70548 0
M  V30 11460 H 1100.23 1.18271 -0.821454 0
M  V30 11461 H 1102.18 4.21398 -0.0128889 0
M  V30 11462 H 1100.91 3.19154 0.693415 0
M  V30 11463 H 1099.57 3.3751 -1.43118 0
M  V30 11464 H 1099.21 5.01187 0.426742 0
M  V30 11465 H 1098.91 5.75997 -1.16196 0
M  V30 11466 H 1100.44 6.09895 -0.293333 0
M  V30 11467 H 1101.85 5.21335 -2.38501 0
M  V30 11468 H 1100.25 5.0969 -3.16758 0
M  V30 11469 H 1101.32 3.68343 -3.1536 0
M  V30 11470 N 1102.66 0.908147 1.28804 0
M  V30 11471 C 1103.91 0.53734 1.94826 0
M  V30 11472 C 1104.23 -0.920962 1.71882 0
M  V30 11473 O 1103.5 -1.65043 1.05534 0
M  V30 11474 H 1102.08 0.195729 0.720902 0
M  V30 11475 H 1104.74 1.15628 1.56895 0
M  V30 11476 H 1103.84 0.727052 3.03513 0
M  V30 11477 N 1104.14 -1.42577 0.671525 0
M  V30 11478 C 1105.37 -2.05924 0.200731 0
M  V30 11479 C 1105.78 -1.50434 -1.14083 0
M  V30 11480 O 1105.14 -0.642845 -1.70803 0
M  V30 11481 C 1105.19 -3.61289 0.123505 0
M  V30 11482 O 1104.91 -4.1472 1.41205 0
M  V30 11483 C 1106.41 -4.41743 -0.371178 0
M  V30 11484 H 1103.63 -0.663746 0.0983958 0
M  V30 11485 H 1106.18 -1.82771 0.917338 0
M  V30 11486 H 1104.33 -3.83565 -0.543769 0
M  V30 11487 H 1104.75 -5.0856 1.28325 0
M  V30 11488 H 1106.22 -5.50731 -0.374128 0
M  V30 11489 H 1106.7 -4.16092 -1.40585 0
M  V30 11490 H 1107.3 -4.24478 0.264244 0
M  V30 11491 N 1105.62 -0.414636 -1.52048 0
M  V30 11492 C 1106.87 0.159349 -2.01872 0
M  V30 11493 C 1107.19 1.44674 -1.29999 0
M  V30 11494 O 1106.45 1.91641 -0.396511 0
M  V30 11495 C 1106.75 0.448327 -3.54577 0
M  V30 11496 C 1106.41 -0.75052 -4.4461 0
M  V30 11497 C 1105.08 -1.07935 -4.68939 0
M  V30 11498 C 1107.43 -1.55134 -4.97577 0
M  V30 11499 C 1104.76 -2.21008 -5.43482 0
M  V30 11500 C 1107.11 -2.67288 -5.73358 0
M  V30 11501 C 1105.77 -3.00651 -5.95958 0
M  V30 11502 H 1105.04 0.05831 -0.738702 0
M  V30 11503 H 1107.69 -0.557184 -1.83215 0
M  V30 11504 H 1105.99 1.24649 -3.71443 0
M  V30 11505 H 1107.69 0.90549 -3.90643 0
M  V30 11506 H 1104.28 -0.484257 -4.25856 0
M  V30 11507 H 1108.46 -1.31052 -4.78685 0
M  V30 11508 H 1103.72 -2.47197 -5.59199 0
M  V30 11509 H 1107.89 -3.29725 -6.13396 0
M  V30 11510 H 1105.52 -3.88384 -6.535 0
M  V30 11511 N 1107.1 1.56929 -0.145233 0
M  V30 11512 C 1108.03 2.19685 0.791263 0
M  V30 11513 C 1109.01 1.14455 1.25833 0
M  V30 11514 O 1110.19 1.42791 1.31622 0
M  V30 11515 C 1107.32 2.81705 2.03124 0
M  V30 11516 C 1106.28 3.92746 1.70101 0
M  V30 11517 C 1105.6 4.41694 3.01347 0
M  V30 11518 C 1106.9 5.13606 0.949025 0
M  V30 11519 H 1108.6 2.98196 0.26825 0
M  V30 11520 H 1106.14 1.43434 0.127584 0
M  V30 11521 H 1108.1 3.24273 2.69119 0
M  V30 11522 H 1106.82 2.00523 2.57795 0
M  V30 11523 H 1105.48 3.50794 1.06486 0
M  V30 11524 H 1105.13 3.57336 3.54006 0
M  V30 11525 H 1104.83 5.1659 2.80016 0
M  V30 11526 H 1106.35 4.86931 3.68416 0
M  V30 11527 H 1107.76 5.53029 1.51102 0
M  V30 11528 H 1106.16 5.94252 0.835711 0
M  V30 11529 H 1107.23 4.84863 -0.0595631 0
M  V30 11530 N 1108.58 -0.128553 1.57075 0
M  V30 11531 C 1109.82 -0.839252 1.8462 0
M  V30 11532 C 1110.15 -1.79974 0.729582 0
M  V30 11533 O 1109.43 -1.92681 -0.265369 0
M  V30 11534 C 1109.71 -1.59756 3.22723 0
M  V30 11535 C 1109.57 -0.657313 4.44971 0
M  V30 11536 C 1110.88 -2.55592 3.58275 0
M  V30 11537 H 1108 -0.303652 0.671539 0
M  V30 11538 H 1110.65 -0.103802 1.89716 0
M  V30 11539 H 1108.8 -2.22451 3.18509 0
M  V30 11540 H 1110.47 -0.0399471 4.61283 0
M  V30 11541 H 1108.71 0.0318416 4.33788 0
M  V30 11542 H 1109.38 -1.22433 5.38251 0
M  V30 11543 H 1111.86 -2.03007 3.63218 0
M  V30 11544 H 1110.73 -3.05687 4.55902 0
M  V30 11545 H 1110.99 -3.37813 2.85193 0
M  V30 11546 N 1110.05 -1.5248 -0.398459 0
M  V30 11547 C 1111.47 -1.4152 -0.737854 0
M  V30 11548 C 1111.67 -0.528122 -1.94456 0
M  V30 11549 O 1110.73 0.00203799 -2.525 0
M  V30 11550 C 1112.04 -2.8422 -0.9818 0
M  V30 11551 C 1113.59 -2.93635 -1.08386 0
M  V30 11552 C 1114.06 -4.37327 -1.3605 0
M  V30 11553 N 1115.55 -4.40609 -1.42892 0
M  V30 11554 C 1116.29 -5.48863 -1.65944 0
M  V30 11555 N 1115.78 -6.67217 -1.86529 0
M  V30 11556 N 1117.58 -5.36393 -1.68046 0
M  V30 11557 H 1109.73 -2.08681 0.395705 0
M  V30 11558 H 1111.99 -0.941023 0.114801 0
M  V30 11559 H 1111.7 -3.51302 -0.167358 0
M  V30 11560 H 1111.57 -3.25907 -1.89907 0
M  V30 11561 H 1113.96 -2.26728 -1.88888 0
M  V30 11562 H 1114.04 -2.5539 -0.144714 0
M  V30 11563 H 1113.68 -5.04797 -0.56061 0
M  V30 11564 H 1113.61 -4.73116 -2.31233 0
M  V30 11565 H 1116.1 -3.55298 -1.2873 0
M  V30 11566 H 1116.42 -7.45498 -2.03599 0
M  V30 11567 H 1114.76 -6.70263 -1.83773 0
M  V30 11568 H 1117.95 -4.42903 -1.51509 0
M  V30 11569 H 1118.13 -6.2083 -1.85672 0
M  V30 11570 N 1111.53 0.65634 -1.43283 0
M  V30 11571 C 1112.76 1.44906 -1.48382 0
M  V30 11572 C 1113.18 1.87823 -0.101993 0
M  V30 11573 O 1112.54 1.57178 0.903597 0
M  V30 11574 C 1112.59 2.66231 -2.43215 0
M  V30 11575 O 1111.69 3.65176 -1.91625 0
M  V30 11576 H 1111.03 0.434601 -0.502014 0
M  V30 11577 H 1113.56 0.803429 -1.88165 0
M  V30 11578 H 1113.57 3.14083 -2.60414 0
M  V30 11579 H 1112.25 2.34336 -3.43598 0
M  V30 11580 H 1110.82 3.24302 -1.84072 0
M  V30 11581 N 1113.01 1.29761 0.894412 0
M  V30 11582 C 1113.94 1.1115 2.00445 0
M  V30 11583 C 1114.95 0.0574655 1.62699 0
M  V30 11584 O 1116.14 0.302528 1.75918 0
M  V30 11585 C 1113.24 0.670984 3.32191 0
M  V30 11586 C 1112.42 1.80471 3.98433 0
M  V30 11587 C 1111.48 1.35431 5.08473 0
M  V30 11588 O 1110.5 2.05994 5.30618 0
M  V30 11589 N 1111.7 0.22811 5.80052 0
M  V30 11590 H 1114.47 2.06753 2.16964 0
M  V30 11591 H 1112.03 1.21772 1.06692 0
M  V30 11592 H 1114.02 0.352877 4.03159 0
M  V30 11593 H 1112.59 -0.192735 3.12005 0
M  V30 11594 H 1111.81 2.29142 3.20761 0
M  V30 11595 H 1113.1 2.56471 4.39431 0
M  V30 11596 H 1112.5 -0.360076 5.64553 0
M  V30 11597 H 1111.05 -0.0305985 6.51793 0
M  V30 11598 N 1114.49 -1.10549 1.12324 0
M  V30 11599 C 1115.9 -1.63991 0.892402 0
M  V30 11600 C 1116.25 -1.87631 -0.573506 0
M  V30 11601 O 1115.37 -1.6174 -1.43768 0
M  V30 11602 C 1115.97 -2.97914 1.61347 0
M  V30 11603 C 1114.53 -3.48227 1.42881 0
M  V30 11604 C 1113.68 -2.22857 1.65015 0
M  V30 11605 H 1116.63 -0.94065 1.27818 0
M  V30 11606 H 1116.65 -3.65326 1.06382 0
M  V30 11607 H 1116.16 -2.80677 2.68034 0
M  V30 11608 H 1114.26 -3.70611 0.384441 0
M  V30 11609 H 1114.37 -4.26419 2.18413 0
M  V30 11610 H 1112.74 -2.30941 1.07417 0
M  V30 11611 H 1113.52 -2.08152 2.72997 0
M  V30 11612 N 1115.97 -0.914965 -1.28321 0
M  V30 11613 C 1117.21 -0.547665 -1.94538 0
M  V30 11614 C 1117.53 0.911834 -1.72368 0
M  V30 11615 O 1116.8 1.64481 -1.06408 0
M  V30 11616 H 1115.38 -0.199549 -0.719853 0
M  V30 11617 H 1118.05 -1.16459 -1.5628 0
M  V30 11618 H 1117.14 -0.743138 -3.03124 0
M  V30 11619 N 1117.44 1.42219 -0.679077 0
M  V30 11620 C 1118.68 2.03349 -0.207058 0
M  V30 11621 C 1119.05 1.52554 1.16581 0
M  V30 11622 O 1120.25 2.05499 1.73274 0
M  V30 11623 C 1118.52 3.56562 -0.244537 0
M  V30 11624 S 1120.08 4.38523 0.155853 0
M  V30 11625 H 1116.9 0.705932 -0.0847444 0
M  V30 11626 H 1119.5 1.73904 -0.893183 0
M  V30 11627 H 1118.2 3.91028 -1.246 0
M  V30 11628 H 1117.73 3.90686 0.461282 0
M  V30 11629 H 1119.75 4.76389 1.38808 0
M  V30 11630 N 1118.92 0.422693 1.51826 0
M  V30 11631 C 1120.15 -0.14753 2.06073 0
M  V30 11632 C 1120.56 -1.38264 1.2915 0
M  V30 11633 O 1119.9 -1.8052 0.340306 0
M  V30 11634 C 1119.96 -0.549558 3.55275 0
M  V30 11635 C 1119.63 0.576704 4.53347 0
M  V30 11636 C 1120.63 1.44442 4.99432 0
M  V30 11637 C 1118.31 0.753264 4.9662 0
M  V30 11638 C 1120.3 2.47352 5.87448 0
M  V30 11639 C 1117.99 1.78566 5.84429 0
M  V30 11640 C 1118.99 2.64419 6.29739 0
M  V30 11641 O 1118.68 3.65888 7.15808 0
M  V30 11642 H 1118.41 -0.0178911 0.675763 0
M  V30 11643 H 1120.96 0.596258 1.96555 0
M  V30 11644 H 1119.19 -1.34583 3.62525 0
M  V30 11645 H 1120.88 -1.04925 3.92104 0
M  V30 11646 H 1121.65 1.31948 4.66706 0
M  V30 11647 H 1117.53 0.0946405 4.60903 0
M  V30 11648 H 1121.07 3.14397 6.22736 0
M  V30 11649 H 1116.97 1.91086 6.16568 0
M  V30 11650 H 1117.74 3.62294 7.33952 0
M  V30 11651 N 1120.4 -1.5685 0.153553 0
M  V30 11652 C 1121.35 -2.18385 -0.800667 0
M  V30 11653 C 1122.34 -1.14272 -1.25053 0
M  V30 11654 O 1123.55 -1.32509 -1.21825 0
M  V30 11655 H 1119.92 -0.699352 -0.276425 0
M  V30 11656 H 1121.89 -2.97287 -0.257535 0
M  V30 11657 C 1120.64 -2.82497 -2.02708 0
M  V30 11658 H 1119.97 -3.62328 -1.68992 0
M  V30 11659 H 1121.41 -3.29047 -2.67403 0
M  V30 11660 C 1119.86 -1.81343 -2.8393 0
M  V30 11661 O 1120.39 -1.28793 -3.80493 0
M  V30 11662 N 1118.6 -1.50499 -2.48593 0
M  V30 11663 H 1118.15 -1.93425 -1.70131 0
M  V30 11664 H 1118.11 -0.830672 -3.03228 0
M  V30 11665 N 1121.88 0.120221 -1.57141 0
M  V30 11666 C 1123.29 0.473718 -1.52408 0
M  V30 11667 C 1123.49 1.81925 -0.866354 0
M  V30 11668 O 1122.55 2.48491 -0.448173 0
M  V30 11669 C 1123.86 0.459338 -2.97171 0
M  V30 11670 C 1125.41 0.542975 -3.08254 0
M  V30 11671 C 1125.89 0.558996 -4.54576 0
M  V30 11672 N 1127.38 0.620469 -4.59026 0
M  V30 11673 C 1128.11 0.654292 -5.69655 0
M  V30 11674 N 1127.61 0.645835 -6.89783 0
M  V30 11675 N 1129.4 0.697208 -5.57759 0
M  V30 11676 H 1121.55 -0.76142 -1.98283 0
M  V30 11677 H 1123.81 -0.280736 -0.905479 0
M  V30 11678 H 1123.52 -0.461654 -3.48657 0
M  V30 11679 H 1123.39 1.28759 -3.54543 0
M  V30 11680 H 1125.78 1.45439 -2.56772 0
M  V30 11681 H 1125.86 -0.312936 -2.53879 0
M  V30 11682 H 1125.51 -0.348367 -5.06704 0
M  V30 11683 H 1125.44 1.43177 -5.06762 0
M  V30 11684 H 1127.93 0.633218 -3.72557 0
M  V30 11685 H 1128.24 0.674233 -7.69853 0
M  V30 11686 H 1126.59 0.613279 -6.92289 0
M  V30 11687 H 1129.78 0.70117 -4.62819 0
M  V30 11688 H 1129.95 0.7201 -6.43986 0
M  V30 11689 N 1123.36 1.52689 0.390367 0
M  V30 11690 C 1124.32 1.76726 1.45947 0
M  V30 11691 C 1125.32 0.637269 1.47633 0
M  V30 11692 O 1126.51 0.905312 1.48828 0
M  V30 11693 C 1123.64 1.86678 2.85244 0
M  V30 11694 H 1124.83 2.72185 1.25918 0
M  V30 11695 H 1122.39 1.4339 0.622023 0
M  V30 11696 H 1123.12 0.931991 3.10619 0
M  V30 11697 H 1122.91 2.68843 2.85422 0
M  V30 11698 H 1124.4 2.06952 3.62713 0
M  V30 11699 N 1124.83 -0.648732 1.43629 0
M  V30 11700 C 1126.25 -0.964917 1.27128 0
M  V30 11701 C 1126.45 -2.00561 0.194251 0
M  V30 11702 O 1125.51 -2.48884 -0.42581 0
M  V30 11703 C 1126.82 -1.44491 2.6371 0
M  V30 11704 C 1128.37 -1.56133 2.71278 0
M  V30 11705 C 1128.84 -2.07521 4.08288 0
M  V30 11706 N 1130.33 -2.14817 4.10375 0
M  V30 11707 C 1131.07 -2.55712 5.13224 0
M  V30 11708 N 1130.56 -2.9587 6.26444 0
M  V30 11709 N 1132.36 -2.55691 5.00578 0
M  V30 11710 H 1124.51 0.0398357 2.12363 0
M  V30 11711 H 1126.77 -0.0447705 0.946942 0
M  V30 11712 H 1126.48 -0.754616 3.43509 0
M  V30 11713 H 1126.35 -2.41914 2.89409 0
M  V30 11714 H 1128.74 -2.24263 1.91808 0
M  V30 11715 H 1128.82 -0.571314 2.49338 0
M  V30 11716 H 1128.46 -1.39992 4.88226 0
M  V30 11717 H 1128.39 -3.07362 4.27594 0
M  V30 11718 H 1130.88 -1.86538 3.28652 0
M  V30 11719 H 1131.2 -3.25837 7.0075 0
M  V30 11720 H 1129.54 -2.93664 6.2991 0
M  V30 11721 H 1132.73 -2.23697 4.1119 0
M  V30 11722 H 1132.91 -2.87239 5.80859 0
M  V30 11723 N 1126.31 -1.30234 -0.887518 0
M  V30 11724 C 1127.56 -1.18675 -1.63587 0
M  V30 11725 C 1127.88 0.259342 -1.93268 0
M  V30 11726 O 1127.15 1.17523 -1.56733 0
M  V30 11727 H 1125.73 -0.436224 -0.606397 0
M  V30 11728 H 1128.39 -1.63326 -1.06351 0
M  V30 11729 H 1127.49 -1.74575 -2.58708 0
M  V30 11730 N 1127.79 1.09952 -1.12909 0
M  V30 11731 C 1128.72 2.18477 -0.824014 0
M  V30 11732 C 1129.7 1.68744 0.214324 0
M  V30 11733 O 1130.89 1.94057 0.0744281 0
M  V30 11734 C 1128.02 3.46143 -0.283308 0
M  V30 11735 C 1126.97 4.09178 -1.25528 0
M  V30 11736 C 1126.3 5.31604 -0.574574 0
M  V30 11737 C 1127.6 4.52308 -2.6118 0
M  V30 11738 H 1129.29 2.44254 -1.73148 0
M  V30 11739 H 1126.84 1.17394 -0.833952 0
M  V30 11740 H 1128.79 4.21361 -0.057583 0
M  V30 11741 H 1127.51 3.19872 0.659525 0
M  V30 11742 H 1126.17 3.35973 -1.4669 0
M  V30 11743 H 1125.82 5.01611 0.37356 0
M  V30 11744 H 1125.52 5.74732 -1.22299 0
M  V30 11745 H 1127.04 6.0955 -0.358004 0
M  V30 11746 H 1128.46 5.18776 -2.44017 0
M  V30 11747 H 1126.86 5.06302 -3.22147 0
M  V30 11748 H 1127.93 3.64977 -3.19249 0
M  V30 11749 N 1129.27 0.921757 1.27833 0
M  V30 11750 C 1130.5 0.575202 1.98744 0
M  V30 11751 C 1130.91 -0.845405 1.68815 0
M  V30 11752 O 1130.27 -1.56106 0.94536 0
M  V30 11753 C 1130.32 0.784389 3.52888 0
M  V30 11754 O 1130.04 2.1491 3.81766 0
M  V30 11755 C 1131.54 0.445744 4.41053 0
M  V30 11756 H 1128.76 0.218525 0.634419 0
M  V30 11757 H 1131.31 1.23715 1.62834 0
M  V30 11758 H 1129.46 0.169323 3.8703 0
M  V30 11759 H 1129.87 2.19469 4.76375 0
M  V30 11760 H 1131.35 0.64284 5.48244 0
M  V30 11761 H 1131.83 -0.618433 4.34824 0
M  V30 11762 H 1132.43 1.03869 4.12421 0
M  V30 11763 N 1130.75 -1.41857 0.686609 0
M  V30 11764 C 1131.99 -2.01368 0.213801 0
M  V30 11765 C 1132.32 -1.5434 -1.18361 0
M  V30 11766 O 1131.58 -0.741447 -1.81111 0
M  V30 11767 C 1131.88 -3.56783 0.209951 0
M  V30 11768 C 1131.54 -4.23288 1.55365 0
M  V30 11769 C 1130.2 -4.41169 1.92154 0
M  V30 11770 C 1132.56 -4.6066 2.43807 0
M  V30 11771 C 1129.88 -4.93697 3.16986 0
M  V30 11772 C 1132.24 -5.14573 3.67963 0
M  V30 11773 C 1130.9 -5.30667 4.04906 0
M  V30 11774 H 1130.17 -0.736858 0.0782352 0
M  V30 11775 H 1132.82 -1.69879 0.88393 0
M  V30 11776 H 1131.12 -3.88009 -0.543712 0
M  V30 11777 H 1132.82 -4.00625 -0.173267 0
M  V30 11778 H 1129.41 -4.09738 1.2575 0
M  V30 11779 H 1133.59 -4.46507 2.16668 0
M  V30 11780 H 1128.85 -5.04342 3.45615 0
M  V30 11781 H 1133.02 -5.42473 4.36687 0
M  V30 11782 H 1130.65 -5.71133 5.01709 0
M  V30 11783 N 1132.22 -0.430739 -1.51599 0
M  V30 11784 C 1133.19 0.372319 -2.26156 0
M  V30 11785 C 1134.19 0.955338 -1.29344 0
M  V30 11786 O 1135.38 0.830823 -1.53111 0
M  V30 11787 C 1132.51 1.52613 -3.04831 0
M  V30 11788 H 1133.7 -0.280996 -2.98581 0
M  V30 11789 H 1131.26 -0.183749 -1.55216 0
M  V30 11790 H 1131.99 2.21569 -2.36807 0
M  V30 11791 H 1131.78 1.11433 -3.75932 0
M  V30 11792 H 1133.27 2.09366 -3.61325 0
M  V30 11793 N 1133.7 1.56767 -0.161869 0
M  V30 11794 C 1134.64 2.13321 0.810527 0
M  V30 11795 C 1135.61 1.06073 1.23237 0
M  V30 11796 O 1136.8 1.33993 1.32583 0
M  V30 11797 C 1133.92 2.66506 2.09027 0
M  V30 11798 C 1132.97 3.86038 1.8132 0
M  V30 11799 S 1133.8 5.26253 0.990873 0
M  V30 11800 C 1134.96 5.82837 2.28149 0
M  V30 11801 H 1135.19 2.95467 0.32965 0
M  V30 11802 H 1132.73 1.5431 0.052655 0
M  V30 11803 H 1134.68 2.97797 2.82537 0
M  V30 11804 H 1133.34 1.84463 2.54229 0
M  V30 11805 H 1132.54 4.21547 2.7625 0
M  V30 11806 H 1132.14 3.55585 1.1591 0
M  V30 11807 H 1134.43 5.95175 3.23686 0
M  V30 11808 H 1135.37 6.80109 1.97123 0
M  V30 11809 H 1135.78 5.11186 2.39477 0
M  V30 11810 N 1135.18 -0.111886 1.57202 0
M  V30 11811 C 1136.11 -1.13796 2.03894 0
M  V30 11812 C 1137.09 -1.4277 0.924696 0
M  V30 11813 O 1138.28 -1.53089 1.19488 0
M  V30 11814 C 1135.41 -2.46229 2.44925 0
M  V30 11815 C 1134.36 -2.31702 3.59859 0
M  V30 11816 C 1133.69 -3.69161 3.86813 0
M  V30 11817 C 1134.99 -1.77158 4.91337 0
M  V30 11818 H 1136.68 -0.749581 2.89865 0
M  V30 11819 H 1134.23 -0.359126 1.3945 0
M  V30 11820 H 1136.18 -3.18267 2.76195 0
M  V30 11821 H 1134.9 -2.86971 1.55933 0
M  V30 11822 H 1133.56 -1.62112 3.28809 0
M  V30 11823 H 1133.21 -4.07401 2.95015 0
M  V30 11824 H 1132.91 -3.60292 4.6418 0
M  V30 11825 H 1134.43 -4.42693 4.20542 0
M  V30 11826 H 1135.85 -2.3902 5.21097 0
M  V30 11827 H 1134.25 -1.79091 5.72753 0
M  V30 11828 H 1135.32 -0.729675 4.79379 0
M  V30 11829 N 1136.66 -1.52894 -0.382264 0
M  V30 11830 C 1137.62 -1.77497 -1.45008 0
M  V30 11831 C 1138.62 -0.64509 -1.47293 0
M  V30 11832 O 1139.81 -0.913192 -1.48346 0
M  V30 11833 C 1136.94 -1.88188 -2.8425 0
M  V30 11834 H 1138.14 -2.72849 -1.24473 0
M  V30 11835 H 1135.69 -1.43717 -0.61441 0
M  V30 11836 H 1136.42 -0.948451 -3.10121 0
M  V30 11837 H 1136.21 -2.70353 -2.83992 0
M  V30 11838 H 1137.7 -2.08873 -3.6161 0
M  V30 11839 N 1138.14 0.641106 -1.43971 0
M  V30 11840 C 1139.37 1.42622 -1.49475 0
M  V30 11841 C 1139.78 1.8885 -0.115068 0
M  V30 11842 O 1139.12 1.60846 0.887378 0
M  V30 11843 C 1139.18 2.68643 -2.38896 0
M  V30 11844 C 1138.84 2.44276 -3.86236 0
M  V30 11845 C 1139.84 2.06732 -4.7703 0
M  V30 11846 C 1137.53 2.58225 -4.30842 0
M  V30 11847 C 1139.52 1.83451 -6.1043 0
M  V30 11848 C 1137.21 2.34559 -5.64292 0
M  V30 11849 C 1138.21 1.97229 -6.53903 0
M  V30 11850 O 1137.89 1.73819 -7.84884 0
M  V30 11851 H 1137.63 0.444187 -0.509582 0
M  V30 11852 H 1140.18 0.792179 -1.89509 0
M  V30 11853 H 1138.41 3.34649 -1.93771 0
M  V30 11854 H 1140.1 3.30623 -2.35464 0
M  V30 11855 H 1140.86 1.95521 -4.43843 0
M  V30 11856 H 1136.74 2.86253 -3.61359 0
M  V30 11857 H 1140.29 1.54238 -6.80335 0
M  V30 11858 H 1136.18 2.45376 -5.97043 0
M  V30 11859 H 1136.95 1.88146 -7.96582 0
M  V30 11860 N 1139.62 1.30703 0.880598 0
M  V30 11861 C 1140.86 1.19778 1.63277 0
M  V30 11862 C 1141.19 -0.246521 1.92931 0
M  V30 11863 O 1140.45 -1.19226 1.55189 0
M  V30 11864 C 1140.74 1.97628 2.97789 0
M  V30 11865 C 1140.41 3.47213 2.87669 0
M  V30 11866 C 1139.07 3.88004 2.84617 0
M  V30 11867 C 1141.42 4.4245 2.75477 0
M  V30 11868 C 1138.75 5.22315 2.67216 0
M  V30 11869 C 1141.1 5.76874 2.59614 0
M  V30 11870 C 1139.77 6.16898 2.54939 0
M  V30 11871 H 1139.04 0.438298 0.597475 0
M  V30 11872 H 1141.69 1.61853 1.02352 0
M  V30 11873 H 1139.99 1.48201 3.6269 0
M  V30 11874 H 1141.69 1.86563 3.54958 0
M  V30 11875 H 1138.28 3.14802 2.90857 0
M  V30 11876 H 1142.46 4.11875 2.76899 0
M  V30 11877 H 1137.72 5.52412 2.62014 0
M  V30 11878 H 1141.89 6.50304 2.49155 0
M  V30 11879 H 1139.52 7.20916 2.41214 0
M  V30 11880 N 1141.09 -1.09351 1.1349 0
M  V30 11881 C 1142.34 -1.80915 0.89177 0
M  V30 11882 C 1142.66 -1.86688 -0.5837 0
M  V30 11883 O 1143.86 -2.54568 -0.943788 0
M  V30 11884 C 1142.32 -3.25009 1.54587 0
M  V30 11885 C 1141.93 -3.27501 3.05691 0
M  V30 11886 C 1143.67 -4.01323 1.38346 0
M  V30 11887 C 1141.58 -4.66123 3.63983 0
M  V30 11888 H 1140.51 -0.677961 0.329978 0
M  V30 11889 H 1143.16 -1.22893 1.3627 0
M  V30 11890 H 1141.54 -3.83098 1.0026 0
M  V30 11891 H 1142.71 -2.79174 3.66604 0
M  V30 11892 H 1141.03 -2.64677 3.21457 0
M  V30 11893 H 1143.63 -5.03739 1.79307 0
M  V30 11894 H 1143.97 -4.15003 0.328404 0
M  V30 11895 H 1144.5 -3.49679 1.89656 0
M  V30 11896 H 1141.24 -4.57646 4.69298 0
M  V30 11897 H 1140.76 -5.14772 3.07848 0
M  V30 11898 H 1142.44 -5.35097 3.63703 0
M  V30 11899 N 1142.57 -0.928524 -1.27343 0
M  V30 11900 C 1143.8 -0.585734 -1.98436 0
M  V30 11901 C 1144.21 0.83644 -1.69261 0
M  V30 11902 O 1143.57 1.55603 -0.953626 0
M  V30 11903 C 1143.62 -0.803092 -3.52467 0
M  V30 11904 O 1143.34 -2.16932 -3.80621 0
M  V30 11905 C 1144.84 -0.469127 -4.40811 0
M  V30 11906 H 1142.06 -0.221887 -0.633251 0
M  V30 11907 H 1144.61 -1.24577 -1.62175 0
M  V30 11908 H 1142.76 -0.189846 -3.86935 0
M  V30 11909 H 1143.18 -2.21992 -4.75205 0
M  V30 11910 H 1144.65 -0.671906 -5.47895 0
M  V30 11911 H 1145.13 0.595365 -4.35146 0
M  V30 11912 H 1145.73 -1.06055 -4.11865 0
M  V30 11913 N 1144.05 1.41491 -0.694123 0
M  V30 11914 C 1145.3 2.02055 -0.233559 0
M  V30 11915 C 1145.65 1.53987 1.1535 0
M  V30 11916 O 1144.94 0.740611 1.76707 0
M  V30 11917 C 1145.14 3.56666 -0.228869 0
M  V30 11918 C 1144.97 4.1974 -1.61394 0
M  V30 11919 C 1143.74 4.54095 -2.21643 0
M  V30 11920 C 1145.93 4.46043 -2.56028 0
M  V30 11921 N 1143.92 5.02449 -3.5273 0
M  V30 11922 C 1145.29 4.96156 -3.71792 0
M  V30 11923 C 1147.34 4.28053 -2.54313 0
M  V30 11924 C 1146.05 5.3017 -4.8612 0
M  V30 11925 C 1148.07 4.63155 -3.67752 0
M  V30 11926 C 1147.43 5.13438 -4.82246 0
M  V30 11927 H 1143.53 0.77098 -0.130821 0
M  V30 11928 H 1146.12 1.72057 -0.91129 0
M  V30 11929 H 1144.29 3.8614 0.418344 0
M  V30 11930 H 1146.02 4.03949 0.246387 0
M  V30 11931 H 1142.77 4.40501 -1.73943 0
M  V30 11932 H 1143.2 5.31033 -4.1992 0
M  V30 11933 H 1147.84 3.88416 -1.67011 0
M  V30 11934 H 1145.56 5.68731 -5.74083 0
M  V30 11935 H 1149.14 4.50895 -3.67675 0
M  V30 11936 H 1148.02 5.4009 -5.6857 0
M  V30 11937 N 1145.53 0.438773 1.51369 0
M  V30 11938 C 1146.77 -0.127401 2.02399 0
M  V30 11939 C 1147.11 -1.42235 1.32223 0
M  V30 11940 O 1146.38 -1.89513 0.437607 0
M  V30 11941 C 1146.66 -0.344673 3.58447 0
M  V30 11942 C 1146.52 0.969027 4.39238 0
M  V30 11943 C 1147.84 -1.11381 4.25773 0
M  V30 11944 H 1144.96 -0.0448281 0.735635 0
M  V30 11945 H 1147.6 0.57805 1.80993 0
M  V30 11946 H 1145.75 -0.945582 3.76817 0
M  V30 11947 H 1147.42 1.60403 4.32514 0
M  V30 11948 H 1145.66 1.57329 4.04265 0
M  V30 11949 H 1146.33 0.771029 5.46589 0
M  V30 11950 H 1148.81 -0.604785 4.11681 0
M  V30 11951 H 1147.69 -1.23459 5.34835 0
M  V30 11952 H 1147.95 -2.14225 3.8673 0
M  V30 11953 N 1147.01 -1.56678 0.170181 0
M  V30 11954 C 1148.23 -2.0166 -0.484543 0
M  V30 11955 C 1148.66 -1.04962 -1.56091 0
M  V30 11956 O 1148.01 -0.0289887 -1.81277 0
M  V30 11957 C 1148.06 -3.45252 -1.04084 0
M  V30 11958 O 1147.17 -3.51623 -2.15488 0
M  V30 11959 H 1146.51 -0.653765 -0.116135 0
M  V30 11960 H 1149.04 -2.02761 0.273737 0
M  V30 11961 H 1149.05 -3.84534 -1.36373 0
M  V30 11962 H 1147.72 -4.15131 -0.252738 0
M  V30 11963 H 1146.3 -3.242 -1.84252 0
M  V30 11964 N 1148.48 0.103547 -1.57259 0
M  V30 11965 C 1149.73 0.808576 -1.85656 0
M  V30 11966 C 1150.06 1.79143 -0.757502 0
M  V30 11967 O 1149.31 1.941 0.249723 0
M  V30 11968 C 1149.61 1.57946 -3.20605 0
M  V30 11969 C 1149.28 0.739502 -4.44795 0
M  V30 11970 C 1147.94 0.507921 -4.78512 0
M  V30 11971 C 1150.29 0.155034 -5.20969 0
M  V30 11972 C 1147.62 -0.318129 -5.85837 0
M  V30 11973 C 1149.97 -0.658292 -6.29166 0
M  V30 11974 C 1148.64 -0.900044 -6.61404 0
M  V30 11975 H 1147.91 0.295879 -0.679365 0
M  V30 11976 H 1150.55 0.0703604 -1.91371 0
M  V30 11977 H 1148.86 2.38902 -3.10537 0
M  V30 11978 H 1150.56 2.12921 -3.39803 0
M  V30 11979 H 1147.15 0.930103 -4.18386 0
M  V30 11980 H 1151.33 0.32113 -4.9526 0
M  V30 11981 H 1146.59 -0.514495 -6.09231 0
M  V30 11982 H 1150.76 -1.11809 -6.87366 0
M  V30 11983 H 1148.39 -1.54194 -7.44398 0
M  V30 11984 N 1149.96 1.53094 0.37415 0
M  V30 11985 C 1151.21 1.69111 1.11934 0
M  V30 11986 C 1151.54 0.437252 1.89213 0
M  V30 11987 O 1150.82 -0.565298 1.86104 0
M  V30 11988 C 1151.1 2.93559 2.08554 0
M  V30 11989 C 1150.95 4.29082 1.3494 0
M  V30 11990 C 1152.27 3.13586 3.08791 0
M  V30 11991 H 1149.39 0.615383 0.405553 0
M  V30 11992 H 1152.03 1.85719 0.401078 0
M  V30 11993 H 1150.18 2.79531 2.69805 0
M  V30 11994 H 1151.85 4.54906 0.765402 0
M  V30 11995 H 1150.1 4.28884 0.651238 0
M  V30 11996 H 1150.77 5.12275 2.05616 0
M  V30 11997 H 1153.24 3.26743 2.57639 0
M  V30 11998 H 1152.12 4.02112 3.73627 0
M  V30 11999 H 1152.38 2.28475 3.78486 0
M  V30 12000 N 1151.44 -0.633461 1.44309 0
M  V30 12001 C 1152.85 -1.21504 1.41752 0
M  V30 12002 C 1153.2 -1.95758 0.131667 0
M  V30 12003 O 1152.33 -2.02311 -0.768072 0
M  V30 12004 C 1152.92 -2.21005 2.56792 0
M  V30 12005 C 1151.48 -2.74596 2.57438 0
M  V30 12006 C 1150.63 -1.49555 2.33513 0
M  V30 12007 H 1153.58 -0.424277 1.52923 0
M  V30 12008 H 1153.6 -3.03563 2.29412 0
M  V30 12009 H 1153.11 -1.66934 3.50364 0
M  V30 12010 H 1151.21 -3.32676 1.67801 0
M  V30 12011 H 1151.33 -3.20794 3.55849 0
M  V30 12012 H 1149.69 -1.77605 1.82561 0
M  V30 12013 H 1150.47 -0.973899 3.29196 0
M  V30 12014 N 1152.92 -1.31168 -0.873655 0
M  V30 12015 C 1153.85 -1.21094 -1.99646 0
M  V30 12016 C 1154.83 -0.0989684 -1.69812 0
M  V30 12017 O 1156.01 -0.282939 -1.92128 0
M  V30 12018 C 1153.14 -0.913684 -3.35066 0
M  V30 12019 C 1152.1 -1.98482 -3.79195 0
M  V30 12020 C 1151.42 -1.54033 -5.12033 0
M  V30 12021 C 1152.72 -3.39745 -3.96699 0
M  V30 12022 H 1154.42 -2.1503 -2.08333 0
M  V30 12023 H 1151.96 -1.03521 -1.00097 0
M  V30 12024 H 1153.92 -0.829821 -4.13149 0
M  V30 12025 H 1152.64 0.0613471 -3.26542 0
M  V30 12026 H 1151.3 -2.05851 -3.03349 0
M  V30 12027 H 1150.95 -0.553261 -4.99948 0
M  V30 12028 H 1150.65 -2.25688 -5.4253 0
M  V30 12029 H 1152.17 -1.47047 -5.92629 0
M  V30 12030 H 1153.59 -3.35071 -4.65188 0
M  V30 12031 H 1151.98 -4.09585 -4.38589 0
M  V30 12032 H 1153.05 -3.80802 -3.00196 0
M  V30 12033 N 1154.4 1.08748 -1.14068 0
M  V30 12034 C 1155.33 2.17591 -0.84714 0
M  V30 12035 C 1156.31 1.68962 0.196415 0
M  V30 12036 O 1157.49 1.94125 0.0538415 0
M  V30 12037 C 1154.62 3.45823 -0.320005 0
M  V30 12038 C 1153.58 4.07824 -1.2986 0
M  V30 12039 C 1152.9 5.30965 -0.630925 0
M  V30 12040 C 1154.2 4.49512 -2.65963 0
M  V30 12041 H 1155.9 2.42404 -1.75729 0
M  V30 12042 H 1153.44 1.16502 -0.846356 0
M  V30 12043 H 1155.4 4.21276 -0.102271 0
M  V30 12044 H 1154.12 3.20553 0.625561 0
M  V30 12045 H 1152.78 3.34398 -1.50245 0
M  V30 12046 H 1152.43 5.01979 0.320337 0
M  V30 12047 H 1152.13 5.73402 -1.28388 0
M  V30 12048 H 1153.65 6.09136 -0.422635 0
M  V30 12049 H 1155.06 5.16159 -2.49506 0
M  V30 12050 H 1153.46 5.02857 -3.27498 0
M  V30 12051 H 1154.53 3.6157 -3.23102 0
M  V30 12052 N 1155.87 0.935264 1.26849 0
M  V30 12053 C 1156.84 0.44485 2.24842 0
M  V30 12054 C 1157.84 -0.440781 1.54641 0
M  V30 12055 O 1159.03 -0.240793 1.72528 0
M  V30 12056 C 1156.16 -0.359566 3.38998 0
M  V30 12057 H 1157.35 1.31074 2.6974 0
M  V30 12058 H 1154.91 0.716665 1.38901 0
M  V30 12059 H 1155.64 -1.24396 2.99493 0
M  V30 12060 H 1155.43 0.275529 3.91131 0
M  V30 12061 H 1156.92 -0.692804 4.11813 0
M  V30 12062 N 1157.35 -1.41121 0.701616 0
M  V30 12063 C 1158.3 -2.32582 0.0288052 0
M  V30 12064 C 1159.29 -1.5129 -0.762074 0
M  V30 12065 O 1160.5 -1.67185 -0.667014 0
M  V30 12066 H 1156.88 -0.75194 -0.00948675 0
M  V30 12067 H 1158.85 -2.86994 0.817141 0
M  V30 12068 C 1157.6 -3.36137 -0.889217 0
M  V30 12069 H 1156.92 -3.98746 -0.290062 0
M  V30 12070 H 1158.36 -4.0266 -1.32819 0
M  V30 12071 C 1156.82 -2.70504 -2.00821 0
M  V30 12072 O 1157.35 -2.55753 -3.09763 0
M  V30 12073 N 1155.55 -2.29105 -1.78772 0
M  V30 12074 H 1155.1 -2.41303 -0.901708 0
M  V30 12075 H 1155.06 -1.85527 -2.53825 0
M  V30 12076 N 1158.83 -0.446794 -1.51134 0
M  V30 12077 C 1160.08 0.116666 -2.02464 0
M  V30 12078 C 1160.41 1.41532 -1.32975 0
M  V30 12079 O 1159.68 1.89278 -0.447651 0
M  V30 12080 C 1159.97 0.325659 -3.58624 0
M  V30 12081 C 1159.82 -0.992307 -4.38718 0
M  V30 12082 C 1161.14 1.09121 -4.26357 0
M  V30 12083 H 1158.26 0.0409262 -0.735863 0
M  V30 12084 H 1160.9 -0.587641 -1.80684 0
M  V30 12085 H 1159.05 0.925585 -3.77313 0
M  V30 12086 H 1160.72 -1.62694 -4.31658 0
M  V30 12087 H 1158.97 -1.5947 -4.03425 0
M  V30 12088 H 1159.64 -0.800005 -5.46172 0
M  V30 12089 H 1162.11 0.582944 -4.11996 0
M  V30 12090 H 1160.99 1.20621 -5.35483 0
M  V30 12091 H 1161.25 2.12171 -3.87861 0
M  V30 12092 N 1160.31 1.56586 -0.178487 0
M  V30 12093 C 1161.24 2.155 0.780543 0
M  V30 12094 C 1162.25 1.11244 1.18864 0
M  V30 12095 O 1163.44 1.38403 1.12725 0
M  V30 12096 C 1160.54 2.68867 2.0631 0
M  V30 12097 C 1159.72 3.97854 1.81744 0
M  V30 12098 C 1158.77 4.36213 2.94287 0
M  V30 12099 O 1157.8 5.03954 2.64612 0
M  V30 12100 N 1159 3.98356 4.22247 0
M  V30 12101 H 1161.77 2.98419 0.276836 0
M  V30 12102 H 1159.33 1.61899 0.00405241 0
M  V30 12103 H 1161.32 2.91522 2.80708 0
M  V30 12104 H 1159.89 1.90496 2.47851 0
M  V30 12105 H 1159.11 3.83502 0.912127 0
M  V30 12106 H 1160.4 4.82083 1.62707 0
M  V30 12107 H 1159.8 3.43835 4.49215 0
M  V30 12108 H 1158.35 4.25998 4.93325 0
M  V30 12109 N 1161.79 -0.095206 1.57312 0
M  V30 12110 C 1163.03 -0.799903 1.86358 0
M  V30 12111 C 1163.37 -1.78386 0.767593 0
M  V30 12112 O 1162.64 -1.93201 -0.224439 0
M  V30 12113 C 1162.92 -1.52875 3.26039 0
M  V30 12114 C 1162.78 -0.562781 4.46265 0
M  V30 12115 C 1164.1 -2.47935 3.63616 0
M  V30 12116 H 1161.21 -0.289339 0.677829 0
M  V30 12117 H 1163.86 -0.0635369 1.89894 0
M  V30 12118 H 1162.01 -2.15645 3.23156 0
M  V30 12119 H 1163.68 0.0579068 4.61264 0
M  V30 12120 H 1161.92 0.123847 4.33623 0
M  V30 12121 H 1162.59 -1.10989 5.40727 0
M  V30 12122 H 1165.07 -1.95257 3.67442 0
M  V30 12123 H 1163.94 -2.95948 4.62283 0
M  V30 12124 H 1164.21 -3.31687 2.92294 0
M  V30 12125 N 1163.26 -1.53291 -0.366026 0
M  V30 12126 C 1164.51 -1.69702 -1.11036 0
M  V30 12127 C 1164.84 -0.44728 -1.88979 0
M  V30 12128 O 1164.12 0.55542 -1.86401 0
M  V30 12129 C 1164.4 -2.94661 -2.06995 0
M  V30 12130 C 1164.25 -4.29791 -1.32663 0
M  V30 12131 C 1165.57 -3.15219 -3.07123 0
M  V30 12132 H 1162.69 -0.617525 -0.402284 0
M  V30 12133 H 1165.33 -1.85929 -0.391223 0
M  V30 12134 H 1163.48 -2.80958 -2.68318 0
M  V30 12135 H 1165.16 -4.55305 -0.741266 0
M  V30 12136 H 1163.4 -4.29223 -0.628484 0
M  V30 12137 H 1164.07 -5.13359 -2.02896 0
M  V30 12138 H 1166.55 -3.28105 -2.55903 0
M  V30 12139 H 1165.42 -4.04088 -3.71489 0
M  V30 12140 H 1165.68 -2.30479 -3.77269 0
M  V30 12141 N 1164.74 0.6258 -1.44643 0
M  V30 12142 C 1165.67 1.74858 -1.54748 0
M  V30 12143 C 1166.65 1.65327 -0.400138 0
M  V30 12144 O 1167.84 1.84005 -0.620948 0
M  V30 12145 C 1164.97 3.13408 -1.49643 0
M  V30 12146 C 1163.92 3.37733 -2.62908 0
M  V30 12147 C 1163.25 4.76367 -2.42855 0
M  V30 12148 C 1164.55 3.29771 -4.05029 0
M  V30 12149 H 1166.24 1.66658 -2.48728 0
M  V30 12150 H 1163.79 0.800363 -1.19709 0
M  V30 12151 H 1165.74 3.91735 -1.55312 0
M  V30 12152 H 1164.47 3.22404 -0.521824 0
M  V30 12153 H 1163.12 2.61788 -2.56637 0
M  V30 12154 H 1162.77 4.82074 -1.43575 0
M  V30 12155 H 1162.47 4.936 -3.18799 0
M  V30 12156 H 1164 5.56917 -2.50351 0
M  V30 12157 H 1165.41 3.97996 -4.12641 0
M  V30 12158 H 1163.81 3.58538 -4.81218 0
M  V30 12159 H 1164.88 2.27493 -4.28223 0
M  V30 12160 N 1166.22 1.31629 0.866686 0
M  V30 12161 C 1167.64 1.10358 1.15296 0
M  V30 12162 C 1167.84 -0.123807 2.01119 0
M  V30 12163 O 1166.89 -0.81219 2.39081 0
M  V30 12164 C 1168.21 2.37684 1.84193 0
M  V30 12165 C 1169.75 2.43326 1.9688 0
M  V30 12166 C 1170.23 3.70541 2.69191 0
M  V30 12167 N 1171.72 3.71454 2.76724 0
M  V30 12168 C 1172.45 4.66585 3.33295 0
M  V30 12169 N 1171.95 5.72075 3.90771 0
M  V30 12170 N 1173.74 4.541 3.31284 0
M  V30 12171 H 1165.89 2.10343 0.29487 0
M  V30 12172 H 1168.16 0.928096 0.193239 0
M  V30 12173 H 1167.86 3.27352 1.28582 0
M  V30 12174 H 1167.74 2.47731 2.84445 0
M  V30 12175 H 1170.12 1.54124 2.51654 0
M  V30 12176 H 1170.21 2.3724 0.956596 0
M  V30 12177 H 1169.85 4.60111 2.15083 0
M  V30 12178 H 1169.78 3.73894 3.70825 0
M  V30 12179 H 1172.27 2.952 2.35936 0
M  V30 12180 H 1172.58 6.40738 4.32058 0
M  V30 12181 H 1170.93 5.75844 3.89138 0
M  V30 12182 H 1174.12 3.70861 2.85622 0
M  V30 12183 H 1174.29 5.28416 3.75074 0
M  V30 12184 N 1167.7 -1.08142 1.14644 0
M  V30 12185 C 1169.11 -1.62061 0.926986 0
M  V30 12186 C 1169.46 -1.88805 -0.533578 0
M  V30 12187 O 1168.59 -1.64753 -1.40305 0
M  V30 12188 C 1169.18 -2.94425 1.67629 0
M  V30 12189 C 1167.74 -3.45118 1.50235 0
M  V30 12190 C 1166.89 -2.19307 1.69705 0
M  V30 12191 H 1169.84 -0.913326 1.29785 0
M  V30 12192 H 1169.86 -3.62987 1.14107 0
M  V30 12193 H 1169.37 -2.74928 2.73927 0
M  V30 12194 H 1167.47 -3.69713 0.462967 0
M  V30 12195 H 1167.59 -4.2169 2.27408 0
M  V30 12196 H 1165.95 -2.28611 1.12291 0
M  V30 12197 H 1166.73 -2.02315 2.77351 0
M  V30 12198 N 1169.18 -0.941978 -1.26351 0
M  V30 12199 C 1170.14 -0.456768 -2.24602 0
M  V30 12200 C 1171.14 0.432574 -1.54872 0
M  V30 12201 O 1172.33 0.23164 -1.72653 0
M  V30 12202 C 1169.46 0.341583 -3.39184 0
M  V30 12203 H 1170.66 -1.32503 -2.69041 0
M  V30 12204 H 1168.21 -0.724021 -1.38519 0
M  V30 12205 H 1168.94 1.22806 -3.00149 0
M  V30 12206 H 1168.73 -0.296268 -3.90979 0
M  V30 12207 H 1170.22 0.670955 -4.12175 0
M  V30 12208 N 1170.66 1.40747 -0.709091 0
M  V30 12209 C 1171.9 2.013 -0.246174 0
M  V30 12210 C 1172.23 1.56078 1.15556 0
M  V30 12211 O 1171.51 0.777941 1.78265 0
M  V30 12212 C 1171.79 3.58685 -0.318945 0
M  V30 12213 C 1171.65 4.13997 -1.75859 0
M  V30 12214 C 1172.96 4.38981 0.31358 0
M  V30 12215 H 1170.08 0.73137 -0.0909255 0
M  V30 12216 H 1172.73 1.67312 -0.900365 0
M  V30 12217 H 1170.88 3.8777 0.23805 0
M  V30 12218 H 1172.55 3.95735 -2.37047 0
M  V30 12219 H 1170.79 3.6853 -2.28841 0
M  V30 12220 H 1171.46 5.23158 -1.76095 0
M  V30 12221 H 1173.94 4.15789 -0.160939 0
M  V30 12222 H 1172.81 5.48409 0.232184 0
M  V30 12223 H 1173.07 4.19474 1.39621 0
M  V30 12224 N 1172.13 0.454803 1.50895 0
M  V30 12225 C 1173.07 -0.383826 2.25963 0
M  V30 12226 C 1174.08 -0.971263 1.30653 0
M  V30 12227 O 1175.27 -0.862434 1.56283 0
M  V30 12228 C 1172.37 -1.55069 3.01342 0
M  V30 12229 C 1171.54 -1.07899 4.23883 0
M  V30 12230 C 1170.6 -2.118 4.81692 0
M  V30 12231 O 1169.63 -1.70523 5.43057 0
M  V30 12232 N 1170.83 -3.44459 4.67256 0
M  V30 12233 H 1173.59 0.259646 2.98573 0
M  V30 12234 H 1171.15 0.284661 1.59378 0
M  V30 12235 H 1173.15 -2.24236 3.36898 0
M  V30 12236 H 1171.72 -2.09917 2.31633 0
M  V30 12237 H 1170.94 -0.213773 3.9362 0
M  V30 12238 H 1172.22 -0.741501 5.03368 0
M  V30 12239 H 1171.62 -3.80716 4.18416 0
M  V30 12240 H 1170.18 -4.0947 5.07127 0
M  V30 12241 N 1173.61 -1.56489 0.186789 0
M  V30 12242 C 1174.54 -2.14583 -0.776487 0
M  V30 12243 C 1175.52 -1.0802 -1.21534 0
M  V30 12244 O 1176.71 -1.36085 -1.30434 0
M  V30 12245 C 1173.83 -2.69798 -2.04761 0
M  V30 12246 C 1172.88 -3.88874 -1.75155 0
M  V30 12247 S 1173.71 -5.27763 -0.907026 0
M  V30 12248 C 1174.87 -5.86393 -2.18847 0
M  V30 12249 H 1175.1 -2.95954 -0.282602 0
M  V30 12250 H 1172.63 -1.54374 -0.0280989 0
M  V30 12251 H 1174.59 -3.02254 -2.77764 0
M  V30 12252 H 1173.25 -1.88484 -2.51262 0
M  V30 12253 H 1172.45 -4.25888 -2.69509 0
M  V30 12254 H 1172.05 -3.57384 -1.10239 0
M  V30 12255 H 1174.34 -6.00249 -3.14177 0
M  V30 12256 H 1175.28 -6.83159 -1.86278 0
M  V30 12257 H 1175.69 -5.14931 -2.31314 0
M  V30 12258 N 1175.09 0.086862 -1.5736 0
M  V30 12259 C 1176.34 0.787281 -1.86135 0
M  V30 12260 C 1176.66 1.78866 -0.776667 0
M  V30 12261 O 1175.93 1.94915 0.19625 0
M  V30 12262 H 1174.51 0.293744 -0.686821 0
M  V30 12263 H 1177.17 0.0665326 -1.94786 0
M  V30 12264 H 1176.27 1.3128 -2.83147 0
M  V30 12265 N 1176.57 1.53483 0.357892 0
M  V30 12266 C 1177.53 1.79782 1.42166 0
M  V30 12267 C 1178.53 0.668441 1.46248 0
M  V30 12268 O 1179.72 0.936677 1.46874 0
M  V30 12269 C 1176.85 1.92686 2.8122 0
M  V30 12270 H 1178.05 2.74794 1.20117 0
M  V30 12271 H 1175.6 1.44677 0.591468 0
M  V30 12272 H 1176.33 0.997669 3.08573 0
M  V30 12273 H 1176.12 2.74837 2.79655 0
M  V30 12274 H 1177.61 2.14599 3.58242 0
M  V30 12275 N 1178.05 -0.61812 1.44973 0
M  V30 12276 C 1178.98 -1.74035 1.55673 0
M  V30 12277 C 1179.96 -1.65112 0.4089 0
M  V30 12278 O 1181.14 -1.83673 0.630698 0
M  V30 12279 C 1178.27 -3.1261 1.51303 0
M  V30 12280 C 1177.23 -3.36334 2.64696 0
M  V30 12281 C 1176.55 -4.75072 2.45378 0
M  V30 12282 C 1177.85 -3.27618 4.06772 0
M  V30 12283 H 1179.55 -1.65336 2.49608 0
M  V30 12284 H 1177.09 -0.794003 1.20132 0
M  V30 12285 H 1179.04 -3.90906 1.57388 0
M  V30 12286 H 1177.77 -3.22123 0.538914 0
M  V30 12287 H 1176.43 -2.60423 2.58022 0
M  V30 12288 H 1176.08 -4.81306 1.46129 0
M  V30 12289 H 1175.78 -4.91903 3.21412 0
M  V30 12290 H 1177.3 -5.55582 2.53301 0
M  V30 12291 H 1178.71 -3.95802 4.14746 0
M  V30 12292 H 1177.11 -3.55981 4.83113 0
M  V30 12293 H 1178.18 -2.25219 4.29423 0
M  V30 12294 N 1179.52 -1.32087 -0.859693 0
M  V30 12295 C 1180.45 -1.23204 -1.98351 0
M  V30 12296 C 1181.43 -0.116974 -1.69697 0
M  V30 12297 O 1182.62 -0.303301 -1.91817 0
M  V30 12298 C 1179.75 -0.949171 -3.34078 0
M  V30 12299 C 1178.7 -2.02493 -3.77069 0
M  V30 12300 C 1178.03 -1.59455 -5.1037 0
M  V30 12301 C 1179.33 -3.43934 -3.93074 0
M  V30 12302 H 1181.02 -2.17227 -2.0604 0
M  V30 12303 H 1178.57 -1.04577 -0.989931 0
M  V30 12304 H 1180.52 -0.873594 -4.12245 0
M  V30 12305 H 1179.25 0.0267095 -3.26589 0
M  V30 12306 H 1177.91 -2.09057 -3.01149 0
M  V30 12307 H 1177.55 -0.606256 -4.99333 0
M  V30 12308 H 1177.25 -2.31429 -5.40106 0
M  V30 12309 H 1178.78 -1.53325 -5.91036 0
M  V30 12310 H 1180.19 -3.39986 -4.61608 0
M  V30 12311 H 1178.59 -4.14214 -4.3422 0
M  V30 12312 H 1179.66 -3.83965 -2.9614 0
M  V30 12313 N 1181 1.07532 -1.15215 0
M  V30 12314 C 1181.93 2.1668 -0.870171 0
M  V30 12315 C 1182.91 1.69161 0.178483 0
M  V30 12316 O 1184.1 1.94172 0.0332489 0
M  V30 12317 C 1181.23 3.45464 -0.356666 0
M  V30 12318 C 1180.18 4.06424 -1.34179 0
M  V30 12319 C 1179.51 5.30266 -0.687206 0
M  V30 12320 C 1180.81 4.46666 -2.70715 0
M  V30 12321 H 1182.5 2.40526 -1.7829 0
M  V30 12322 H 1180.05 1.15598 -0.858665 0
M  V30 12323 H 1182 4.21144 -0.146947 0
M  V30 12324 H 1180.72 3.21199 0.591527 0
M  V30 12325 H 1179.38 3.32786 -1.53783 0
M  V30 12326 H 1179.03 5.0229 0.267077 0
M  V30 12327 H 1178.73 5.72009 -1.34462 0
M  V30 12328 H 1180.26 6.08653 -0.487218 0
M  V30 12329 H 1181.67 5.13483 -2.54966 0
M  V30 12330 H 1180.07 4.99355 -3.32813 0
M  V30 12331 H 1181.14 3.58123 -3.26919 0
M  V30 12332 N 1182.48 0.948665 1.2585 0
M  V30 12333 C 1183.72 0.60782 1.95154 0
M  V30 12334 C 1184.08 -0.838703 1.72713 0
M  V30 12335 O 1185.29 -1.28885 2.35886 0
M  V30 12336 C 1183.56 0.949628 3.44553 0
M  V30 12337 S 1185.12 0.720456 4.32845 0
M  V30 12338 H 1181.93 0.223613 0.674921 0
M  V30 12339 H 1184.54 1.22157 1.52636 0
M  V30 12340 H 1183.24 1.99966 3.58388 0
M  V30 12341 H 1182.77 0.325891 3.92048 0
M  V30 12342 H 1184.79 -0.411697 4.94489 0
M  V30 12343 N 1183.96 -1.40369 0.716545 0
M  V30 12344 C 1185.2 -2.01167 0.256846 0
M  V30 12345 C 1185.54 -1.56689 -1.14727 0
M  V30 12346 O 1184.81 -0.787384 -1.7785 0
M  V30 12347 C 1185.1 -3.58511 0.337963 0
M  V30 12348 C 1184.95 -4.13059 1.78052 0
M  V30 12349 C 1186.27 -4.39142 -0.290295 0
M  V30 12350 H 1183.39 -0.730877 0.0948028 0
M  V30 12351 H 1186.03 -1.66833 0.909225 0
M  V30 12352 H 1184.18 -3.87891 -0.217482 0
M  V30 12353 H 1185.85 -3.94472 2.39143 0
M  V30 12354 H 1184.09 -3.67311 2.30793 0
M  V30 12355 H 1184.76 -5.22217 1.78867 0
M  V30 12356 H 1187.24 -4.15697 0.182987 0
M  V30 12357 H 1186.12 -5.48524 -0.203097 0
M  V30 12358 H 1186.38 -4.20209 -1.37394 0
M  V30 12359 N 1185.44 -0.462799 -1.50652 0
M  V30 12360 C 1186.37 0.325724 -2.31217 0
M  V30 12361 C 1187.35 0.997942 -1.3775 0
M  V30 12362 O 1188.53 0.996707 -1.66671 0
M  V30 12363 C 1185.66 1.41283 -3.17264 0
M  V30 12364 C 1184.62 0.862687 -4.19216 0
M  V30 12365 C 1183.94 2.04746 -4.93946 0
M  V30 12366 C 1185.24 -0.120365 -5.22161 0
M  V30 12367 H 1186.94 -0.346666 -2.97386 0
M  V30 12368 H 1184.48 -0.168163 -1.43015 0
M  V30 12369 H 1186.44 1.97188 -3.72418 0
M  V30 12370 H 1185.16 2.11387 -2.48964 0
M  V30 12371 H 1183.82 0.325671 -3.65151 0
M  V30 12372 H 1183.47 2.73529 -4.22127 0
M  V30 12373 H 1183.17 1.68562 -5.62904 0
M  V30 12374 H 1184.69 2.61157 -5.51932 0
M  V30 12375 H 1186.1 0.349226 -5.72235 0
M  V30 12376 H 1184.5 -0.396061 -5.98792 0
M  V30 12377 H 1185.57 -1.04895 -4.73418 0
M  V30 12378 N 1186.91 1.56388 -0.195085 0
M  V30 12379 C 1188.16 1.97189 0.44281 0
M  V30 12380 C 1188.48 1.08312 1.62153 0
M  V30 12381 O 1187.75 0.154404 1.95291 0
M  V30 12382 H 1186.33 0.728188 0.166585 0
M  V30 12383 H 1189 1.92852 -0.281815 0
M  V30 12384 H 1188.09 3.02016 0.786945 0
M  V30 12385 N 1188.39 -0.0785156 1.57404 0
M  V30 12386 C 1189.64 -0.777722 1.86103 0
M  V30 12387 C 1189.95 -1.79079 0.786771 0
M  V30 12388 O 1191.16 -2.53908 0.961393 0
M  V30 12389 C 1189.62 -1.43407 3.30095 0
M  V30 12390 C 1189.22 -0.459912 4.45633 0
M  V30 12391 C 1190.97 -2.11603 3.68 0
M  V30 12392 C 1188.88 -1.12179 5.80663 0
M  V30 12393 H 1187.81 -0.294205 0.694233 0
M  V30 12394 H 1190.46 -0.0309003 1.83474 0
M  V30 12395 H 1188.84 -2.22892 3.27315 0
M  V30 12396 H 1190.01 0.304642 4.59792 0
M  V30 12397 H 1188.33 0.117242 4.16235 0
M  V30 12398 H 1190.92 -2.61887 4.66175 0
M  V30 12399 H 1191.27 -2.91244 2.9746 0
M  V30 12400 H 1191.8 -1.38958 3.72741 0
M  V30 12401 H 1188.54 -0.365842 6.54478 0
M  V30 12402 H 1188.06 -1.85737 5.70317 0
M  V30 12403 H 1189.74 -1.64355 6.25777 0
M  V30 12404 N 1189.87 -1.5367 -0.349747 0
M  V30 12405 C 1190.8 -1.84208 -1.43492 0
M  V30 12406 C 1191.78 -0.696725 -1.55177 0
M  V30 12407 O 1192.97 -0.948061 -1.69486 0
M  V30 12408 C 1190.1 -2.04613 -2.80625 0
M  V30 12409 C 1189.05 -3.20419 -2.83753 0
M  V30 12410 C 1188.38 -3.26147 -4.23713 0
M  V30 12411 C 1189.68 -4.58666 -2.49846 0
M  V30 12412 H 1191.37 -2.75087 -1.18185 0
M  V30 12413 H 1188.92 -1.32363 -0.567101 0
M  V30 12414 H 1190.87 -2.2456 -3.56582 0
M  V30 12415 H 1189.59 -1.10459 -3.07354 0
M  V30 12416 H 1188.25 -3.00318 -2.10249 0
M  V30 12417 H 1187.9 -2.29599 -4.47541 0
M  V30 12418 H 1187.6 -4.03963 -4.26717 0
M  V30 12419 H 1189.12 -3.48296 -5.0152 0
M  V30 12420 H 1190.54 -4.78668 -3.15516 0
M  V30 12421 H 1188.94 -5.3884 -2.64144 0
M  V30 12422 H 1190.01 -4.62697 -1.4505 0
M  V30 12423 N 1191.35 0.610423 -1.45298 0
M  V30 12424 C 1192.31 1.70324 -1.5337 0
M  V30 12425 C 1193.31 1.55393 -0.413492 0
M  V30 12426 O 1194.5 1.60512 -0.676872 0
M  V30 12427 C 1191.63 3.09572 -1.42752 0
M  V30 12428 H 1192.83 1.64535 -2.50736 0
M  V30 12429 H 1190.38 0.825906 -1.32697 0
M  V30 12430 H 1191.11 3.2094 -0.465601 0
M  V30 12431 H 1190.9 3.21817 -2.24 0
M  V30 12432 H 1192.39 3.89178 -1.51427 0
M  V30 12433 N 1192.83 1.32541 0.852676 0
M  V30 12434 C 1193.79 1.21578 1.94297 0
M  V30 12435 C 1194.79 0.138318 1.60204 0
M  V30 12436 O 1195.98 0.388864 1.69804 0
M  V30 12437 C 1193.11 0.870209 3.29606 0
M  V30 12438 H 1194.3 2.18476 2.05446 0
M  V30 12439 H 1191.86 1.16401 1.0431 0
M  V30 12440 H 1192.59 -0.0968698 3.24155 0
M  V30 12441 H 1192.38 1.64924 3.55728 0
M  V30 12442 H 1193.87 0.817874 4.09513 0
M  V30 12443 N 1194.3 -1.0692 1.15784 0
M  V30 12444 C 1195.55 -1.796 0.935429 0
M  V30 12445 C 1195.88 -1.86935 -0.537173 0
M  V30 12446 O 1195.13 -1.35244 -1.41448 0
M  V30 12447 C 1195.43 -3.24389 1.50022 0
M  V30 12448 C 1195.1 -3.37145 2.99406 0
M  V30 12449 C 1193.76 -3.40334 3.40186 0
M  V30 12450 C 1196.11 -3.39584 3.95389 0
M  V30 12451 C 1193.44 -3.43569 4.75581 0
M  V30 12452 C 1195.79 -3.44356 5.30661 0
M  V30 12453 C 1194.46 -3.45824 5.70931 0
M  V30 12454 H 1193.73 -0.657201 0.342298 0
M  V30 12455 H 1196.37 -1.25784 1.44397 0
M  V30 12456 H 1194.68 -3.81015 0.91297 0
M  V30 12457 H 1196.38 -3.79209 1.30389 0
M  V30 12458 H 1192.97 -3.35365 2.66887 0
M  V30 12459 H 1197.15 -3.36337 3.64954 0
M  V30 12460 H 1192.41 -3.43006 5.06119 0
M  V30 12461 H 1196.58 -3.4519 6.04828 0
M  V30 12462 H 1194.21 -3.48084 6.75826 0
M  V30 12463 N 1195.78 -0.955326 -1.25345 0
M  V30 12464 C 1196.73 -0.446792 -2.23579 0
M  V30 12465 C 1197.72 0.464354 -1.54054 0
M  V30 12466 O 1198.91 0.297293 -1.74485 0
M  V30 12467 C 1196.04 0.273533 -3.42209 0
M  V30 12468 C 1195.12 -0.655722 -4.19 0
M  V30 12469 N 1195.51 -1.78766 -4.73156 0
M  V30 12470 C 1193.81 -0.464059 -4.43579 0
M  V30 12471 C 1194.51 -2.36789 -5.31324 0
M  V30 12472 N 1193.49 -1.65435 -5.17815 0
M  V30 12473 H 1197.29 -1.31065 -2.63057 0
M  V30 12474 H 1194.81 -0.812899 -1.40591 0
M  V30 12475 H 1196.8 0.654986 -4.11723 0
M  V30 12476 H 1195.46 1.13399 -3.04254 0
M  V30 12477 H 1196.47 -2.1695 -4.70269 0
M  V30 12478 H 1193.15 0.353459 -4.16001 0
M  V30 12479 H 1194.54 -3.32242 -5.84008 0
M  V30 12480 N 1197.26 1.39987 -0.723979 0
M  V30 12481 C 1198.19 2.3332 -0.0917282 0
M  V30 12482 C 1199.17 1.53335 0.736361 0
M  V30 12483 O 1200.36 1.81771 0.683582 0
M  V30 12484 C 1197.49 3.3737 0.824549 0
M  V30 12485 C 1196.44 4.2788 0.101452 0
M  V30 12486 C 1195.77 5.22536 1.13401 0
M  V30 12487 C 1197.07 5.11649 -1.04939 0
M  V30 12488 H 1198.76 2.86441 -0.871318 0
M  V30 12489 H 1196.31 1.37725 -0.420448 0
M  V30 12490 H 1198.26 4.01607 1.27631 0
M  V30 12491 H 1196.98 2.82663 1.63613 0
M  V30 12492 H 1195.64 3.65107 -0.330569 0
M  V30 12493 H 1195.29 4.64131 1.93886 0
M  V30 12494 H 1194.99 5.83938 0.65502 0
M  V30 12495 H 1196.52 5.89651 1.58569 0
M  V30 12496 H 1197.93 5.69293 -0.6766 0
M  V30 12497 H 1196.33 5.82137 -1.45729 0
M  V30 12498 H 1197.4 4.47132 -1.8762 0
M  V30 12499 N 1198.74 0.470782 1.50404 0
M  V30 12500 C 1200.15 0.0155901 1.86693 0
M  V30 12501 C 1200.5 -1.38908 1.38561 0
M  V30 12502 O 1199.63 -2.02971 0.750454 0
M  V30 12503 C 1200.22 0.0215152 3.38793 0
M  V30 12504 C 1198.78 -0.378206 3.74495 0
M  V30 12505 C 1197.93 0.407126 2.74295 0
M  V30 12506 H 1200.88 0.68507 1.43152 0
M  V30 12507 H 1200.9 -0.780717 3.72404 0
M  V30 12508 H 1200.41 1.04397 3.73795 0
M  V30 12509 H 1198.51 -1.40503 3.45094 0
M  V30 12510 H 1198.63 -0.0797643 4.79034 0
M  V30 12511 H 1196.99 -0.139123 2.5432 0
M  V30 12512 H 1197.77 1.42909 3.12141 0
M  V30 12513 N 1200.22 -1.56282 0.203376 0
M  V30 12514 C 1201.63 -1.58871 -0.152335 0
M  V30 12515 C 1201.83 -1.21978 -1.60386 0
M  V30 12516 O 1200.89 -0.946422 -2.34092 0
M  V30 12517 C 1202.2 -3.00287 0.157515 0
M  V30 12518 C 1203.75 -3.12846 0.098287 0
M  V30 12519 C 1204.23 -4.56408 0.38156 0
M  V30 12520 N 1205.72 -4.6202 0.330475 0
M  V30 12521 C 1206.45 -5.71006 0.523397 0
M  V30 12522 N 1205.95 -6.88428 0.777115 0
M  V30 12523 N 1207.74 -5.60238 0.457082 0
M  V30 12524 H 1199.89 -1.78543 1.15048 0
M  V30 12525 H 1202.15 -0.829019 0.459816 0
M  V30 12526 H 1201.86 -3.3187 1.16427 0
M  V30 12527 H 1201.73 -3.73372 -0.536041 0
M  V30 12528 H 1204.12 -2.8107 -0.899085 0
M  V30 12529 H 1204.2 -2.42129 0.825045 0
M  V30 12530 H 1203.85 -4.88897 1.37629 0
M  V30 12531 H 1203.78 -5.25325 -0.366182 0
M  V30 12532 H 1206.27 -3.77636 0.141327 0
M  V30 12533 H 1206.58 -7.67389 0.912911 0
M  V30 12534 H 1204.93 -6.90215 0.814104 0
M  V30 12535 H 1208.12 -4.67382 0.259226 0
M  V30 12536 H 1208.29 -6.45114 0.610848 0
M  V30 12537 N 1201.7 0.070167 -1.57444 0
M  V30 12538 C 1202.94 0.774338 -1.89165 0
M  V30 12539 C 1203.3 1.7466 -0.797353 0
M  V30 12540 O 1204.5 2.49599 -0.997682 0
M  V30 12541 C 1202.77 1.46235 -3.26114 0
M  V30 12542 S 1204.33 2.20136 -3.79586 0
M  V30 12543 H 1201.15 0.257464 -0.662747 0
M  V30 12544 H 1203.75 0.0303734 -1.95476 0
M  V30 12545 H 1202.45 0.740942 -4.03656 0
M  V30 12546 H 1201.99 2.24571 -3.23004 0
M  V30 12547 H 1204 3.4668 -3.55003 0
M  V30 12548 N 1203.17 1.53854 0.341593 0
M  V30 12549 C 1204.4 1.7488 1.10002 0
M  V30 12550 C 1204.81 0.488802 1.82777 0
M  V30 12551 O 1204.15 -0.549333 1.75294 0
M  V30 12552 C 1204.22 2.87604 2.15694 0
M  V30 12553 C 1203.88 4.27142 1.62477 0
M  V30 12554 C 1204.88 5.08642 1.07606 0
M  V30 12555 C 1202.56 4.73633 1.67265 0
M  V30 12556 C 1204.56 6.34735 0.582284 0
M  V30 12557 C 1202.24 5.99697 1.175 0
M  V30 12558 C 1203.24 6.80081 0.630742 0
M  V30 12559 O 1202.93 8.03777 0.140519 0
M  V30 12560 H 1202.66 0.587824 0.333824 0
M  V30 12561 H 1205.22 2.01488 0.398965 0
M  V30 12562 H 1203.45 2.56526 2.89364 0
M  V30 12563 H 1205.13 2.96583 2.77117 0
M  V30 12564 H 1205.9 4.73887 1.03227 0
M  V30 12565 H 1201.78 4.11121 2.08567 0
M  V30 12566 H 1205.32 6.97424 0.156811 0
M  V30 12567 H 1201.22 6.33947 1.21579 0
M  V30 12568 H 1201.99 8.18094 0.257626 0
M  V30 12569 N 1204.65 -0.602709 1.4562 0
M  V30 12570 C 1205.58 -1.72374 1.5751 0
M  V30 12571 C 1206.56 -1.64669 0.426389 0
M  V30 12572 O 1207.75 -1.82994 0.650143 0
M  V30 12573 C 1204.88 -3.10987 1.5461 0
M  V30 12574 C 1203.83 -3.33507 2.68248 0
M  V30 12575 C 1203.16 -4.72443 2.50403 0
M  V30 12576 C 1204.46 -3.23285 4.10224 0
M  V30 12577 H 1206.15 -1.62679 2.51348 0
M  V30 12578 H 1203.7 -0.781217 1.20967 0
M  V30 12579 H 1205.65 -3.89214 1.61525 0
M  V30 12580 H 1204.37 -3.21533 0.573049 0
M  V30 12581 H 1203.03 -2.57672 2.60769 0
M  V30 12582 H 1202.68 -4.79729 1.51226 0
M  V30 12583 H 1202.38 -4.88466 3.26611 0
M  V30 12584 H 1203.91 -5.52864 2.59179 0
M  V30 12585 H 1205.32 -3.91381 4.1892 0
M  V30 12586 H 1203.72 -3.50837 4.86861 0
M  V30 12587 H 1204.79 -2.20652 4.31788 0
M  V30 12588 N 1206.13 -1.32992 -0.845635 0
M  V30 12589 C 1207.06 -1.25301 -1.97033 0
M  V30 12590 C 1208.04 -0.134966 -1.69564 0
M  V30 12591 O 1209.23 -0.323629 -1.91484 0
M  V30 12592 C 1206.36 -0.984551 -3.33052 0
M  V30 12593 C 1205.31 -2.06481 -3.749 0
M  V30 12594 C 1204.64 -1.6486 -5.08651 0
M  V30 12595 C 1205.94 -3.48083 -3.89404 0
M  V30 12596 H 1207.63 -2.194 -2.03725 0
M  V30 12597 H 1205.18 -1.05621 -0.978783 0
M  V30 12598 H 1207.13 -0.917269 -4.11296 0
M  V30 12599 H 1205.85 -0.00793116 -3.26599 0
M  V30 12600 H 1204.51 -2.1224 -2.98915 0
M  V30 12601 H 1204.16 -0.659183 -4.98662 0
M  V30 12602 H 1203.86 -2.37145 -5.37621 0
M  V30 12603 H 1205.38 -1.59585 -5.89377 0
M  V30 12604 H 1206.8 -3.44863 -4.57976 0
M  V30 12605 H 1205.19 -4.18796 -4.29802 0
M  V30 12606 H 1206.26 -3.87084 -2.92051 0
M  V30 12607 N 1207.61 1.06304 -1.1635 0
M  V30 12608 C 1208.54 2.13209 -0.81346 0
M  V30 12609 C 1209.52 1.61174 0.21484 0
M  V30 12610 O 1210.7 1.8824 0.0989458 0
M  V30 12611 C 1207.83 3.38039 -0.211498 0
M  V30 12612 C 1206.88 4.08875 -1.21339 0
M  V30 12613 S 1207.71 4.58894 -2.76001 0
M  V30 12614 C 1208.86 5.86985 -2.17254 0
M  V30 12615 H 1209.1 2.42572 -1.7189 0
M  V30 12616 H 1206.63 1.18737 -0.986957 0
M  V30 12617 H 1208.59 4.10296 0.129349 0
M  V30 12618 H 1207.25 3.06834 0.671705 0
M  V30 12619 H 1206.44 4.98528 -0.740631 0
M  V30 12620 H 1206.04 3.42632 -1.49932 0
M  V30 12621 H 1208.34 6.59738 -1.54115 0
M  V30 12622 H 1209.28 6.38991 -3.05117 0
M  V30 12623 H 1209.69 5.41012 -1.61141 0
M  V30 12624 N 1209.09 0.96196 1.24836 0
M  V30 12625 C 1210.5 0.667561 1.44968 0
M  V30 12626 C 1210.7 -0.772521 1.86103 0
M  V30 12627 O 1209.76 -1.54704 1.99557 0
M  V30 12628 C 1211.07 1.64675 2.516 0
M  V30 12629 C 1212.62 1.65874 2.65433 0
M  V30 12630 C 1213.09 2.62576 3.75257 0
M  V30 12631 N 1214.58 2.60984 3.82677 0
M  V30 12632 C 1215.32 3.32484 4.67163 0
M  V30 12633 N 1214.82 4.13482 5.55882 0
M  V30 12634 N 1216.61 3.21336 4.61193 0
M  V30 12635 H 1208.76 1.89248 0.964307 0
M  V30 12636 H 1211.02 0.814443 0.485167 0
M  V30 12637 H 1210.73 2.67572 2.2825 0
M  V30 12638 H 1210.6 1.415 3.49653 0
M  V30 12639 H 1212.99 0.636912 2.88145 0
M  V30 12640 H 1213.07 1.9311 1.67756 0
M  V30 12641 H 1212.71 3.6489 3.53295 0
M  V30 12642 H 1212.64 2.32622 4.72435 0
M  V30 12643 H 1215.14 2.02187 3.19263 0
M  V30 12644 H 1215.45 4.6494 6.17293 0
M  V30 12645 H 1213.79 4.17578 5.55566 0
M  V30 12646 H 1216.98 2.57524 3.90895 0
M  V30 12647 H 1217.16 3.77323 5.26812 0
M  V30 12648 N 1210.56 -1.39601 0.731392 0
M  V30 12649 C 1211.5 -2.29147 0.0494974 0
M  V30 12650 C 1212.51 -1.46635 -0.707248 0
M  V30 12651 O 1213.7 -1.6975 -0.552008 0
M  V30 12652 C 1210.8 -3.25191 -0.954152 0
M  V30 12653 C 1209.97 -4.36629 -0.259674 0
M  V30 12654 C 1209.03 -5.13007 -1.17092 0
M  V30 12655 O 1208.06 -5.65479 -0.64976 0
M  V30 12656 N 1209.26 -5.23865 -2.50092 0
M  V30 12657 H 1212.02 -2.88308 0.818433 0
M  V30 12658 H 1209.58 -1.51142 0.580316 0
M  V30 12659 H 1211.58 -3.73161 -1.56629 0
M  V30 12660 H 1210.15 -2.67085 -1.62432 0
M  V30 12661 H 1209.37 -3.90582 0.532888 0
M  V30 12662 H 1210.65 -5.08317 0.221753 0
M  V30 12663 H 1210.05 -4.82745 -2.94913 0
M  V30 12664 H 1208.61 -5.75288 -3.0641 0
M  V30 12665 N 1212.04 -0.478751 -1.50152 0
M  V30 12666 C 1213.45 -0.0254907 -1.86683 0
M  V30 12667 C 1213.8 1.38171 -1.39295 0
M  V30 12668 O 1212.93 2.0257 -0.761207 0
M  V30 12669 C 1213.52 -0.0394819 -3.38777 0
M  V30 12670 C 1212.08 0.35834 -3.7469 0
M  V30 12671 C 1211.23 -0.421667 -2.74075 0
M  V30 12672 H 1214.18 -0.692653 -1.42787 0
M  V30 12673 H 1214.2 0.760957 -3.72813 0
M  V30 12674 H 1213.71 -1.06378 -3.73236 0
M  V30 12675 H 1211.82 1.38671 -3.45834 0
M  V30 12676 H 1211.93 0.0543589 -4.79069 0
M  V30 12677 H 1210.29 0.125634 -2.5439 0
M  V30 12678 H 1211.08 -1.44562 -3.11379 0
M  V30 12679 N 1213.52 1.56172 -0.211661 0
M  V30 12680 C 1214.77 1.97648 0.421871 0
M  V30 12681 C 1215.09 1.10026 1.60995 0
M  V30 12682 O 1214.36 0.175109 1.95116 0
M  V30 12683 H 1212.94 0.729914 0.158852 0
M  V30 12684 H 1215.6 1.92542 -0.302254 0
M  V30 12685 H 1214.7 3.02834 0.754868 0
M  V30 12686 N 1215 -0.0618163 1.57479 0
M  V30 12687 C 1215.93 -1.07252 2.07411 0
M  V30 12688 C 1216.91 -1.39756 0.969649 0
M  V30 12689 O 1218.09 -1.4921 1.24298 0
M  V30 12690 C 1215.22 -2.38313 2.52635 0
M  V30 12691 C 1214.18 -2.20136 3.67048 0
M  V30 12692 C 1213.5 -3.56668 3.98361 0
M  V30 12693 C 1214.8 -1.61437 4.96725 0
M  V30 12694 H 1216.5 -0.656983 2.92103 0
M  V30 12695 H 1214.04 -0.314579 1.40522 0
M  V30 12696 H 1216 -3.09319 2.86181 0
M  V30 12697 H 1214.72 -2.81865 1.64984 0
M  V30 12698 H 1213.38 -1.51569 3.338 0
M  V30 12699 H 1213.03 -3.97809 3.07826 0
M  V30 12700 H 1212.73 -3.45342 4.75408 0
M  V30 12701 H 1214.25 -4.2909 4.34413 0
M  V30 12702 H 1215.67 -2.2232 5.28438 0
M  V30 12703 H 1214.06 -1.60779 5.78161 0
M  V30 12704 H 1215.13 -0.576795 4.81457 0
M  V30 12705 N 1216.48 -1.54033 -0.333429 0
M  V30 12706 C 1217.42 -1.83441 -1.43011 0
M  V30 12707 C 1218.42 -0.705592 -1.54006 0
M  V30 12708 O 1219.62 -0.889098 -1.56509 0
M  V30 12709 H 1216 -0.581326 -0.477037 0
M  V30 12710 H 1217.97 -2.75172 -1.15426 0
M  V30 12711 C 1216.72 -2.0698 -2.79382 0
M  V30 12712 H 1216.04 -2.93297 -2.71692 0
M  V30 12713 H 1217.48 -2.31517 -3.55212 0
M  V30 12714 C 1215.94 -0.85835 -3.25782 0
M  V30 12715 O 1216.47 -0.062739 -4.01651 0
M  V30 12716 N 1214.68 -0.672738 -2.82706 0
M  V30 12717 H 1214.22 -1.32136 -2.21128 0
M  V30 12718 H 1214.18 0.136347 -3.14104 0
M  V30 12719 N 1217.95 0.594978 -1.45938 0
M  V30 12720 C 1219.18 1.37994 -1.5416 0
M  V30 12721 C 1219.6 1.87954 -0.17848 0
M  V30 12722 O 1218.95 1.62932 0.822161 0
M  V30 12723 C 1219.01 2.57586 -2.53637 0
M  V30 12724 O 1218.73 2.09698 -3.84653 0
M  V30 12725 C 1220.23 3.50292 -2.71681 0
M  V30 12726 H 1217.45 0.421983 -0.5217 0
M  V30 12727 H 1219.99 0.724459 -1.91238 0
M  V30 12728 H 1218.15 3.19149 -2.19597 0
M  V30 12729 H 1218.56 2.87492 -4.3869 0
M  V30 12730 H 1220.03 4.30717 -3.45234 0
M  V30 12731 H 1220.51 4.01444 -1.78156 0
M  V30 12732 H 1221.12 2.94573 -3.06768 0
M  V30 12733 N 1219.43 1.33438 0.838571 0
M  V30 12734 C 1220.84 1.22366 1.41009 0
M  V30 12735 C 1221.19 -0.157317 1.95568 0
M  V30 12736 O 1220.32 -1.05692 1.88834 0
M  V30 12737 C 1220.91 2.21542 2.56329 0
M  V30 12738 C 1219.47 2.14309 3.09433 0
M  V30 12739 C 1218.62 2.09012 1.82235 0
M  V30 12740 H 1221.57 1.45032 0.64431 0
M  V30 12741 H 1221.59 1.82332 3.33969 0
M  V30 12742 H 1221.1 3.22042 2.16589 0
M  V30 12743 H 1219.21 1.17113 3.53717 0
M  V30 12744 H 1219.32 3.04866 3.69586 0
M  V30 12745 H 1217.68 1.54492 2.02495 0
M  V30 12746 H 1218.47 3.11319 1.4469 0
M  V30 12747 N 1220.91 -1.05686 1.16912 0
M  V30 12748 C 1221.82 -2.16824 0.8958 0
M  V30 12749 C 1222.84 -1.73482 -0.134215 0
M  V30 12750 O 1224.01 -2.01352 0.0438776 0
M  V30 12751 C 1221.08 -3.44298 0.407427 0
M  V30 12752 C 1220.14 -4.02114 1.50342 0
M  V30 12753 C 1219.37 -5.23503 1.03826 0
M  V30 12754 O 1219.59 -5.70295 -0.109579 0
M  V30 12755 O 1218.53 -5.73432 1.8292 0
M  V30 12756 H 1222.35 -2.42725 1.82533 0
M  V30 12757 H 1219.94 -1.15339 0.949589 0
M  V30 12758 H 1221.82 -4.21159 0.142356 0
M  V30 12759 H 1220.5 -3.19908 -0.494009 0
M  V30 12760 H 1219.4 -3.26715 1.82231 0
M  V30 12761 H 1220.74 -4.30811 2.38039 0
M  V30 12762 N 1222.39 -0.968567 -1.24324 0
M  V30 12763 C 1223.64 -0.630928 -1.9242 0
M  V30 12764 C 1223.96 0.834001 -1.75712 0
M  V30 12765 O 1223.22 1.61558 -1.10442 0
M  V30 12766 C 1223.52 -0.952762 -3.44467 0
M  V30 12767 C 1223.18 -2.40597 -3.81345 0
M  V30 12768 C 1221.85 -2.80316 -3.91122 0
M  V30 12769 C 1224.2 -3.34906 -3.99359 0
M  V30 12770 C 1221.53 -4.13383 -4.16331 0
M  V30 12771 C 1223.88 -4.67602 -4.26065 0
M  V30 12772 C 1222.54 -5.07097 -4.34061 0
M  V30 12773 H 1221.81 -0.230873 -0.704116 0
M  V30 12774 H 1224.46 -1.22022 -1.47591 0
M  V30 12775 H 1222.76 -0.281244 -3.90789 0
M  V30 12776 H 1224.46 -0.6699 -3.95365 0
M  V30 12777 H 1221.05 -2.088 -3.743 0
M  V30 12778 H 1225.23 -3.05404 -3.91206 0
M  V30 12779 H 1220.49 -4.43606 -4.20742 0
M  V30 12780 H 1224.66 -5.40646 -4.38948 0
M  V30 12781 H 1222.29 -6.10229 -4.53349 0
M  V30 12782 N 1223.87 1.39211 -0.738786 0
M  V30 12783 C 1225.11 2.00436 -0.28839 0
M  V30 12784 C 1225.44 1.58626 1.12552 0
M  V30 12785 O 1224.7 0.808154 1.78234 0
M  V30 12786 C 1225 3.55758 -0.342224 0
M  V30 12787 C 1224.66 4.1723 -1.70968 0
M  V30 12788 C 1223.32 4.33734 -2.08395 0
M  V30 12789 C 1225.68 4.51294 -2.60736 0
M  V30 12790 C 1223 4.81592 -3.35091 0
M  V30 12791 C 1225.36 5.00562 -3.86808 0
M  V30 12792 C 1224.02 5.15274 -4.24322 0
M  V30 12793 H 1223.29 0.733447 -0.105529 0
M  V30 12794 H 1225.94 1.66481 -0.94637 0
M  V30 12795 H 1224.24 3.8976 0.399331 0
M  V30 12796 H 1225.94 4.00993 0.0244582 0
M  V30 12797 H 1222.53 4.04788 -1.4087 0
M  V30 12798 H 1226.71 4.38158 -2.3309 0
M  V30 12799 H 1221.97 4.91167 -3.64095 0
M  V30 12800 H 1226.14 5.25892 -4.5652 0
M  V30 12801 H 1223.77 5.52119 -5.2256 0
M  V30 12802 N 1225.34 0.486708 1.49896 0
M  V30 12803 C 1226.27 -0.288898 2.31706 0
M  V30 12804 C 1227.26 -0.975901 1.3932 0
M  V30 12805 O 1228.44 -0.970065 1.68236 0
M  V30 12806 C 1225.57 -1.36218 3.19471 0
M  V30 12807 C 1224.52 -0.795884 4.20535 0
M  V30 12808 C 1223.85 -1.96862 4.97141 0
M  V30 12809 C 1225.15 0.203421 5.21904 0
M  V30 12810 H 1226.84 0.393934 2.96797 0
M  V30 12811 H 1224.39 0.190894 1.42729 0
M  V30 12812 H 1226.34 -1.91238 3.75508 0
M  V30 12813 H 1225.07 -2.074 2.52295 0
M  V30 12814 H 1223.73 -0.267538 3.65622 0
M  V30 12815 H 1223.37 -2.66779 4.26425 0
M  V30 12816 H 1223.07 -1.59585 5.65514 0
M  V30 12817 H 1224.6 -2.52343 5.56017 0
M  V30 12818 H 1226.01 -0.258144 5.72719 0
M  V30 12819 H 1224.41 0.491273 5.98086 0
M  V30 12820 H 1225.48 1.12414 4.7169 0
M  V30 12821 N 1226.82 -1.56058 0.219941 0
M  V30 12822 C 1228.07 -1.97869 -0.411383 0
M  V30 12823 C 1228.39 -1.10878 -1.60409 0
M  V30 12824 O 1227.66 -0.185454 -1.9502 0
M  V30 12825 H 1226.24 -0.730747 -0.154979 0
M  V30 12826 H 1228.9 -1.92379 0.312461 0
M  V30 12827 H 1228 -3.0323 -0.738798 0
M  V30 12828 N 1228.3 0.053464 -1.57509 0
M  V30 12829 C 1229.55 0.747622 -1.87763 0
M  V30 12830 C 1229.87 1.77178 -0.814433 0
M  V30 12831 O 1229.14 1.95287 0.154862 0
M  V30 12832 H 1227.72 0.279109 -0.692898 0
M  V30 12833 H 1230.38 0.0252006 -1.94884 0
M  V30 12834 H 1229.48 1.25244 -2.85868 0
M  V30 12835 N 1229.78 1.54207 0.325255 0
M  V30 12836 C 1231.03 1.71991 1.0613 0
M  V30 12837 C 1231.35 0.495505 1.88599 0
M  V30 12838 O 1230.62 -0.490504 1.8966 0
M  V30 12839 H 1229.2 0.634137 0.394816 0
M  V30 12840 H 1231.86 1.91507 0.362101 0
M  V30 12841 H 1230.96 2.59878 1.72829 0
M  V30 12842 N 1231.26 -0.58723 1.46251 0
M  V30 12843 C 1232.67 -1.16933 1.45546 0
M  V30 12844 C 1233.02 -1.9524 0.193879 0
M  V30 12845 O 1232.14 -2.04652 -0.70332 0
M  V30 12846 C 1232.74 -2.12723 2.63693 0
M  V30 12847 C 1231.3 -2.66267 2.66043 0
M  V30 12848 C 1230.45 -1.42051 2.38153 0
M  V30 12849 H 1233.4 -0.375411 1.54196 0
M  V30 12850 H 1233.42 -2.96111 2.38953 0
M  V30 12851 H 1232.93 -1.55703 3.55497 0
M  V30 12852 H 1231.03 -3.2717 1.783 0
M  V30 12853 H 1231.14 -3.0931 3.65874 0
M  V30 12854 H 1229.51 -1.71707 1.88119 0
M  V30 12855 H 1230.29 -0.868675 3.32128 0
M  V30 12856 N 1232.74 -1.33881 -0.831482 0
M  V30 12857 C 1233.98 -1.25507 -1.58406 0
M  V30 12858 C 1234.3 0.177137 -1.94194 0
M  V30 12859 O 1233.57 1.10769 -1.61576 0
M  V30 12860 H 1232.15 -0.461551 -0.587349 0
M  V30 12861 H 1234.82 -1.6769 -0.99328 0
M  V30 12862 H 1233.91 -1.85391 -2.51071 0
M  V30 12863 N 1234.21 1.05064 -1.1747 0
M  V30 12864 C 1235.49 1.74999 -0.873776 0
M  V30 12865 C 1235.87 2.01615 0.625676 0
M  V30 12866 O 1235.22 1.65324 1.57734 0
M  V30 12867 C 1235.43 3.04231 -1.7101 0
M  V30 12868 C 1236.78 3.78157 -1.93087 0
M  V30 12869 O 1237.8 3.14104 -1.6798 0
M  V30 12870 O 1236.66 4.93255 -2.3529 0
M  V30 12871 H 1233.75 0.761042 -0.323641 0
M  V30 12872 H 1236.3 1.1122 -1.28172 0
M  V30 12873 H 1235.07 2.80621 -2.72704 0
M  V30 12874 H 1234.69 3.75746 -1.30002 0
M  V30 12875 N 1235.69 0.975146 1.23809 0
M  V30 12876 C 1236.65 0.516157 2.23312 0
M  V30 12877 C 1237.65 -0.39136 1.55965 0
M  V30 12878 O 1238.84 -0.185783 1.73206 0
M  V30 12879 C 1235.98 -0.251534 3.39971 0
M  V30 12880 H 1237.17 1.3959 2.65433 0
M  V30 12881 H 1234.72 0.760493 1.36551 0
M  V30 12882 H 1235.46 -1.14805 3.03299 0
M  V30 12883 H 1235.24 0.399825 3.90056 0
M  V30 12884 H 1236.73 -0.561438 4.13809 0
M  V30 12885 N 1237.17 -1.38817 0.746158 0
M  V30 12886 C 1238.1 -2.29081 0.0737986 0
M  V30 12887 C 1239.11 -1.47377 -0.691656 0
M  V30 12888 O 1240.3 -1.70326 -0.533973 0
M  V30 12889 C 1237.4 -3.26185 -0.919607 0
M  V30 12890 C 1236.58 -4.36879 -0.213349 0
M  V30 12891 C 1235.64 -5.1422 -1.11644 0
M  V30 12892 O 1234.66 -5.66137 -0.589747 0
M  V30 12893 N 1235.86 -5.26488 -2.44521 0
M  V30 12894 H 1238.63 -2.87424 0.848966 0
M  V30 12895 H 1236.19 -1.50518 0.596314 0
M  V30 12896 H 1238.18 -3.74802 -1.52662 0
M  V30 12897 H 1236.75 -2.68793 -1.5959 0
M  V30 12898 H 1235.97 -3.89994 0.574285 0
M  V30 12899 H 1237.26 -5.08053 0.275655 0
M  V30 12900 H 1236.66 -4.85846 -2.89777 0
M  V30 12901 H 1235.21 -5.78505 -3.00291 0
M  V30 12902 N 1238.65 -0.49465 -1.49636 0
M  V30 12903 C 1239.9 0.0520143 -2.02033 0
M  V30 12904 C 1240.22 1.38071 -1.37701 0
M  V30 12905 O 1239.49 1.88589 -0.530181 0
M  V30 12906 H 1238.07 0.0222123 -0.74667 0
M  V30 12907 H 1240.73 -0.650445 -1.83726 0
M  V30 12908 H 1239.82 0.186337 -3.11543 0
M  V30 12909 N 1240.13 1.55939 -0.228214 0
M  V30 12910 C 1241.06 2.17874 0.711589 0
M  V30 12911 C 1242.07 1.14969 1.15265 0
M  V30 12912 O 1243.26 1.41919 1.08265 0
M  V30 12913 C 1240.36 2.75294 1.97652 0
M  V30 12914 C 1239.53 4.03435 1.68994 0
M  V30 12915 C 1238.59 4.45354 2.8026 0
M  V30 12916 O 1237.62 5.12117 2.48445 0
M  V30 12917 N 1238.82 4.11588 4.0936 0
M  V30 12918 H 1241.58 2.99148 0.181757 0
M  V30 12919 H 1239.15 1.6183 -0.0474567 0
M  V30 12920 H 1241.14 3.00305 2.71292 0
M  V30 12921 H 1239.71 1.98285 2.41665 0
M  V30 12922 H 1238.93 3.8621 0.789657 0
M  V30 12923 H 1240.22 4.87015 1.47287 0
M  V30 12924 H 1239.61 3.57953 4.38048 0
M  V30 12925 H 1238.17 4.41477 4.79522 0
M  V30 12926 N 1241.6 -0.0451101 1.57535 0
M  V30 12927 C 1242.55 -1.0692 2.06569 0
M  V30 12928 C 1243.55 -1.38443 0.976218 0
M  V30 12929 O 1244.75 -1.37536 1.1612 0
M  V30 12930 H 1241.13 -0.36226 0.658993 0
M  V30 12931 H 1243.1 -0.629709 2.9168 0
M  V30 12932 C 1241.85 -2.36656 2.54733 0
M  V30 12933 H 1241.17 -2.13257 3.38174 0
M  V30 12934 H 1242.61 -3.06696 2.92769 0
M  V30 12935 C 1241.07 -3.04499 1.4416 0
M  V30 12936 O 1241.6 -3.93679 0.798721 0
M  V30 12937 N 1239.81 -2.6556 1.18009 0
M  V30 12938 H 1239.35 -1.93126 1.7047 0
M  V30 12939 H 1239.31 -3.11272 0.442363 0
M  V30 12940 N 1243.08 -1.54377 -0.317073 0
M  V30 12941 C 1244.36 -1.63551 -1.07287 0
M  V30 12942 C 1244.74 -0.473499 -2.05721 0
M  V30 12943 O 1244.09 0.531545 -2.22232 0
M  V30 12944 C 1244.3 -3.00842 -1.76904 0
M  V30 12945 C 1245.65 -3.57111 -2.29689 0
M  V30 12946 O 1246.67 -3.0319 -1.86961 0
M  V30 12947 O 1245.53 -4.51486 -3.07932 0
M  V30 12948 H 1242.62 -0.662557 -0.494922 0
M  V30 12949 H 1245.17 -1.66723 -0.316444 0
M  V30 12950 H 1243.94 -3.76854 -1.05341 0
M  V30 12951 H 1243.56 -3.01377 -2.59341 0
M  V30 12952 N 1244.56 0.579466 -1.4656 0
M  V30 12953 C 1245.81 1.33492 -1.51738 0
M  V30 12954 C 1246.13 1.94241 -0.171926 0
M  V30 12955 O 1245.4 1.78737 0.801875 0
M  V30 12956 H 1243.98 0.49565 -0.558874 0
M  V30 12957 H 1246.64 0.678394 -1.82712 0
M  V30 12958 H 1245.74 2.13995 -2.27183 0
M  V30 12959 N 1246.04 1.3432 0.824371 0
M  V30 12960 C 1246.99 1.2578 1.95658 0
M  V30 12961 C 1247.98 0.156199 1.68678 0
M  V30 12962 O 1249.19 0.321081 1.77113 0
M  V30 12963 H 1245.56 0.390711 0.642533 0
M  V30 12964 H 1247.53 2.21471 1.99983 0
M  V30 12965 C 1246.28 1.02865 3.32136 0
M  V30 12966 H 1245.6 1.86863 3.53443 0
M  V30 12967 H 1247.04 1.00925 4.11813 0
M  V30 12968 C 1245.5 -0.268097 3.35832 0
M  V30 12969 O 1246.03 -1.26995 3.81097 0
M  V30 12970 N 1244.24 -0.300702 2.8904 0
M  V30 12971 H 1243.79 0.51515 2.52396 0
M  V30 12972 H 1243.74 -1.16811 2.91895 0
M  V30 12973 N 1247.52 -1.0444 1.18026 0
M  V30 12974 C 1248.74 -1.81234 0.998089 0
M  V30 12975 C 1249.16 -1.83271 -0.453559 0
M  V30 12976 O 1248.52 -1.26545 -1.31502 0
M  V30 12977 C 1248.57 -3.27007 1.54106 0
M  V30 12978 O 1248.29 -3.25174 2.93587 0
M  V30 12979 C 1249.79 -4.20461 1.40455 0
M  V30 12980 H 1247.01 -0.57085 0.352663 0
M  V30 12981 H 1249.55 -1.31649 1.56489 0
M  V30 12982 H 1247.71 -3.73837 1.01611 0
M  V30 12983 H 1248.12 -4.16466 3.18836 0
M  V30 12984 H 1249.6 -5.20695 1.83249 0
M  V30 12985 H 1250.07 -4.37781 0.352713 0
M  V30 12986 H 1250.68 -3.79493 1.92004 0
M  V30 12987 N 1248.99 -0.981699 -1.2329 0
M  V30 12988 C 1250.24 -0.650015 -1.91361 0
M  V30 12989 C 1250.56 0.819184 -1.76959 0
M  V30 12990 O 1249.83 1.5861 -1.14977 0
M  V30 12991 H 1248.41 -0.237427 -0.708264 0
M  V30 12992 H 1251.08 -1.24579 -1.49887 0
M  V30 12993 H 1250.17 -0.902772 -2.98758 0
M  V30 12994 N 1250.47 1.3842 -0.753509 0
M  V30 12995 C 1251.42 2.32315 -0.115107 0
M  V30 12996 C 1252.41 1.54015 0.705398 0
M  V30 12997 O 1253.62 1.69546 0.604505 0
M  V30 12998 H 1250 0.751774 -0.0184276 0
M  V30 12999 H 1251.97 2.83763 -0.923094 0
M  V30 13000 C 1250.72 3.39206 0.763849 0
M  V30 13001 H 1250.04 3.99548 0.14187 0
M  V30 13002 H 1251.48 4.07312 1.17783 0
M  V30 13003 C 1249.94 2.77771 1.90643 0
M  V30 13004 O 1250.47 2.67073 3.00058 0
M  V30 13005 N 1248.67 2.35582 1.70145 0
M  V30 13006 H 1248.22 2.44483 0.811528 0
M  V30 13007 H 1248.18 1.9482 2.46764 0
M  V30 13008 N 1251.95 0.502579 1.49372 0
M  V30 13009 C 1252.88 -0.311743 2.2707 0
M  V30 13010 C 1253.9 -0.929204 1.33677 0
M  V30 13011 O 1255.08 -0.812277 1.58948 0
M  V30 13012 C 1252.18 -1.45404 3.06122 0
M  V30 13013 C 1251.36 -0.943591 4.27101 0
M  V30 13014 C 1250.42 -1.96368 4.88186 0
M  V30 13015 O 1249.44 -1.5316 5.48207 0
M  V30 13016 N 1250.64 -3.29419 4.77978 0
M  V30 13017 H 1253.41 0.354503 2.97596 0
M  V30 13018 H 1250.97 0.335222 1.58392 0
M  V30 13019 H 1252.96 -2.13404 3.43862 0
M  V30 13020 H 1251.53 -2.02441 2.38194 0
M  V30 13021 H 1250.75 -0.0884372 3.94101 0
M  V30 13022 H 1252.04 -0.580983 5.05472 0
M  V30 13023 H 1251.44 -3.67211 4.30317 0
M  V30 13024 H 1250 -3.93129 5.19897 0
M  V30 13025 N 1253.43 -1.55816 0.23648 0
M  V30 13026 C 1254.68 -1.98294 -0.390373 0
M  V30 13027 C 1255 -1.12573 -1.59224 0
M  V30 13028 O 1254.27 -0.206128 -1.94813 0
M  V30 13029 H 1252.85 -0.732349 -0.14722 0
M  V30 13030 H 1255.51 -1.92037 0.332848 0
M  V30 13031 H 1254.61 -3.03996 -0.706595 0
M  V30 13032 N 1254.91 0.036755 -1.57557 0
M  V30 13033 C 1255.85 1.03975 -2.06053 0
M  V30 13034 C 1256.82 1.36384 -0.948089 0
M  V30 13035 O 1258.01 1.46853 -1.21815 0
M  V30 13036 C 1255.15 2.33796 -2.53837 0
M  V30 13037 C 1254.26 2.07614 -3.78841 0
M  V30 13038 C 1253.4 3.3125 -4.15267 0
M  V30 13039 C 1252.44 3.00587 -5.33211 0
M  V30 13040 N 1251.57 4.16653 -5.65106 0
M  V30 13041 H 1256.41 0.61924 -2.91495 0
M  V30 13042 H 1253.95 0.294151 -1.44129 0
M  V30 13043 H 1255.91 3.09639 -2.79606 0
M  V30 13044 H 1254.54 2.73584 -1.71323 0
M  V30 13045 H 1253.59 1.22302 -3.60203 0
M  V30 13046 H 1254.9 1.80989 -4.64806 0
M  V30 13047 H 1254.06 4.15466 -4.42123 0
M  V30 13048 H 1252.79 3.60981 -3.27939 0
M  V30 13049 H 1251.8 2.14772 -5.06115 0
M  V30 13050 H 1253.02 2.72142 -6.22186 0
M  V30 13051 H 1250.97 4.4635 -4.80737 0
M  V30 13052 H 1250.89 3.93425 -6.45564 0
M  V30 13053 H 1252.16 5.01764 -5.96534 0
M  V30 13054 N 1256.39 1.54543 0.308881 0
M  V30 13055 C 1257.34 1.81332 1.38212 0
M  V30 13056 C 1258.32 0.670056 1.46284 0
M  V30 13057 O 1259.51 0.930476 1.50569 0
M  V30 13058 C 1256.64 2.05713 2.7484 0
M  V30 13059 C 1255.73 3.26202 2.71023 0
M  V30 13060 N 1256.12 4.46933 2.36822 0
M  V30 13061 C 1254.42 3.28071 3.02135 0
M  V30 13062 C 1255.12 5.28923 2.42106 0
M  V30 13063 N 1254.09 4.66455 2.79143 0
M  V30 13064 H 1257.89 2.72246 1.10722 0
M  V30 13065 H 1255.41 1.53936 0.51743 0
M  V30 13066 H 1257.41 2.23049 3.52214 0
M  V30 13067 H 1256.07 1.16062 3.03249 0
M  V30 13068 H 1257.08 4.73674 2.09413 0
M  V30 13069 H 1253.75 2.48501 3.3549 0
M  V30 13070 H 1255.14 6.35369 2.1853 0
M  V30 13071 N 1257.86 -0.571685 1.46866 0
M  V30 13072 C 1258.77 -1.70758 1.60869 0
M  V30 13073 C 1259.79 -1.66903 0.49186 0
M  V30 13074 O 1260.97 -1.86613 0.757468 0
M  V30 13075 C 1258.03 -3.07267 1.60586 0
M  V30 13076 C 1257.09 -3.22301 2.83585 0
M  V30 13077 C 1256.32 -4.52298 2.83306 0
M  V30 13078 O 1256.55 -5.36869 1.92685 0
M  V30 13079 O 1255.48 -4.70814 3.7499 0
M  V30 13080 H 1259.31 -1.6189 2.56954 0
M  V30 13081 H 1256.89 -0.740018 1.29785 0
M  V30 13082 H 1258.77 -3.8853 1.63163 0
M  V30 13083 H 1257.45 -3.16549 0.676637 0
M  V30 13084 H 1256.36 -2.4049 2.86558 0
M  V30 13085 H 1257.69 -3.17916 3.75753 0
M  V30 13086 O 1259.38 -1.44754 -0.716129 0
M  V30 13087 H 1260.07 -1.37238 -1.36695 0
M  V30 END ATOM
M  V30 BEGIN BOND
M  V30 END BOND
M  V30 END CTAB
M  END
$$$$
