drugbank_target|O00204 Sulfotransferase family cytosolic 2B member 1 (DB01812; DB02789; DB03309)
 OpenBabel12092119513D

  0  0  0     0  0            999 V3000
M  V30 BEGIN CTAB
M  V30 COUNTS 5736 5829 0 0 0
M  V30 BEGIN ATOM
M  V30 1 H -0.908 1.98254 -0.117106 0
M  V30 2 N 0 1.576 0 0
M  V30 3 C 0.933 2.03868 1.02534 0
M  V30 4 C 1.911 0.928543 1.3348 0
M  V30 5 O 3.095 1.19667 1.45644 0
M  V30 6 C 0.222 2.43627 2.35294 0
M  V30 7 C -0.732 3.65373 2.2001 0
M  V30 8 S 0.101 5.13292 1.52614 0
M  V30 9 C 1.257 5.56322 2.86805 0
M  V30 10 H 1.49 2.90518 0.631377 0
M  V30 11 H -0.977 1.52953 0.210867 0
M  V30 12 H 0.981 2.67203 3.11629 0
M  V30 13 H -0.358 1.57376 2.7183 0
M  V30 14 H -1.165 3.90944 3.18086 0
M  V30 15 H -1.563 3.418 1.51819 0
M  V30 16 H 0.729 5.58782 3.83104 0
M  V30 17 H 1.672 6.56266 2.65933 0
M  V30 18 H 2.08 4.83886 2.90714 0
M  V30 19 N 1.4781 -0.272755 1.55222 0
M  V30 20 C 2.7551 -1.02562 1.66555 0
M  V30 21 C 3.1351 -2.04282 0.532189 0
M  V30 22 O 2.4831 -2.23662 -0.467717 0
M  V30 23 C 2.6931 -1.6822 3.05782 0
M  V30 24 C 4.0411 -2.19373 3.63539 0
M  V30 25 O 5.0651 -1.78206 3.08417 0
M  V30 26 O 3.9241 -2.94883 4.60115 0
M  V30 27 H 1.0181 -0.475755 0.676451 0
M  V30 28 H 3.5641 -0.268593 1.67561 0
M  V30 29 H 2.3361 -0.945112 3.79715 0
M  V30 30 H 1.9591 -2.50609 3.08676 0
M  V30 31 N 2.9562 -1.48159 -0.537278 0
M  V30 32 C 4.2042 -1.55497 -1.29094 0
M  V30 33 C 4.5252 -0.227454 -1.93669 0
M  V30 34 O 3.7952 0.750386 -1.80959 0
M  V30 35 H 2.3752 -0.572832 -0.47945 0
M  V30 36 H 5.0372 -1.84579 -0.625818 0
M  V30 37 H 4.1332 -2.33216 -2.07405 0
M  V30 38 N 4.4343 0.785586 -1.36625 0
M  V30 39 C 5.8453 1.36101 -1.27803 0
M  V30 40 C 6.1963 1.96035 0.0804875 0
M  V30 41 O 5.3213 1.92834 0.982042 0
M  V30 42 C 5.9163 2.47442 -2.31426 0
M  V30 43 C 4.4753 3.00789 -2.26281 0
M  V30 44 C 3.6223 1.73896 -2.15999 0
M  V30 45 H 6.5733 0.586928 -1.47448 0
M  V30 46 H 6.5943 3.2656 -1.95291 0
M  V30 47 H 6.1063 2.03791 -3.30289 0
M  V30 48 H 4.2073 3.48851 -1.30896 0
M  V30 49 H 4.3203 3.57343 -3.19128 0
M  V30 50 H 2.6843 1.9628 -1.62316 0
M  V30 51 H 3.4673 1.32368 -3.16755 0
M  V30 52 N 5.9124 1.20967 1.01018 0
M  V30 53 C 6.8754 0.965918 2.07853 0
M  V30 54 C 7.8754 -0.0610545 1.60684 0
M  V30 55 O 9.0654 0.175681 1.73312 0
M  V30 56 C 6.1974 0.455513 3.37843 0
M  V30 57 H 7.3904 1.91365 2.3091 0
M  V30 58 H 4.9434 1.02594 1.17916 0
M  V30 59 H 5.6784 -0.497381 3.20463 0
M  V30 60 H 5.4634 1.19622 3.73407 0
M  V30 61 H 6.9534 0.304667 4.16487 0
M  V30 62 N 7.3905 -1.2043 1.01659 0
M  V30 63 C 8.3005 -2.2689 0.596484 0
M  V30 64 C 9.3165 -1.70107 -0.36599 0
M  V30 65 O 10.4925 -2.00117 -0.226942 0
M  V30 66 C 7.5575 -3.4665 -0.0586659 0
M  V30 67 C 6.6185 -4.18662 0.949751 0
M  V30 68 C 5.8515 -5.32705 0.32577 0
M  V30 69 O 6.0745 -5.63656 -0.874509 0
M  V30 70 O 5.0085 -5.92803 1.04249 0
M  V30 71 H 8.8345 -2.65041 1.4828 0
M  V30 72 H 6.4195 -1.27048 0.786082 0
M  V30 73 H 8.3015 -4.19256 -0.424564 0
M  V30 74 H 6.9765 -3.10375 -0.91918 0
M  V30 75 H 5.8835 -3.48229 1.36702 0
M  V30 76 H 7.2165 -4.58878 1.78023 0
M  V30 77 N 8.8686 -0.792821 -1.36206 0
M  V30 78 C 10.2796 -0.429513 -1.81692 0
M  V30 79 C 10.6306 1.04695 -1.65932 0
M  V30 80 O 9.7556 1.81256 -1.18218 0
M  V30 81 C 10.3506 -0.772831 -3.29868 0
M  V30 82 C 8.9096 -0.462307 -3.7355 0
M  V30 83 C 8.0566 -1.00569 -2.5842 0
M  V30 84 H 11.0076 -0.985672 -1.24379 0
M  V30 85 H 11.0286 -0.0651928 -3.80444 0
M  V30 86 H 10.5406 -1.84747 -3.41307 0
M  V30 87 H 8.6416 0.604158 -3.67669 0
M  V30 88 H 8.7546 -0.985299 -4.68859 0
M  V30 89 H 7.1186 -0.428734 -2.51066 0
M  V30 90 H 7.9016 -2.08616 -2.72643 0
M  V30 91 N 10.3467 1.47872 -0.545128 0
M  V30 92 C 11.2787 2.27869 0.246621 0
M  V30 93 C 12.2917 1.36282 0.890561 0
M  V30 94 O 13.4807 1.61207 0.766449 0
M  V30 95 C 10.5807 3.10159 1.36582 0
M  V30 96 C 9.7537 4.29627 0.820954 0
M  V30 97 C 8.8127 4.93607 1.82314 0
M  V30 98 O 7.8387 5.52366 1.37406 0
M  V30 99 N 9.0407 4.87211 3.15603 0
M  V30 100 H 11.8057 2.96459 -0.439539 0
M  V30 101 H 9.3667 1.57367 -0.380421 0
M  V30 102 H 11.3587 3.49829 2.03474 0
M  V30 103 H 9.9287 2.43891 1.9554 0
M  V30 104 H 9.1487 3.94192 -0.0244032 0
M  V30 105 H 10.4367 5.06928 0.436063 0
M  V30 106 H 9.8347 4.40651 3.54744 0
M  V30 107 H 8.3917 5.30937 3.78087 0
M  V30 108 N 11.8248 0.280983 1.55075 0
M  V30 109 C 13.0738 -0.334784 1.98902 0
M  V30 110 C 13.3868 -1.56534 1.17288 0
M  V30 111 O 14.5928 -2.25443 1.51287 0
M  V30 112 C 13.0488 -0.646994 3.54037 0
M  V30 113 C 12.6568 0.564085 4.44435 0
M  V30 114 C 14.4008 -1.22506 4.06439 0
M  V30 115 C 12.3078 0.226137 5.90967 0
M  V30 116 H 11.2378 -0.128866 0.742906 0
M  V30 117 H 13.8888 0.386556 1.79382 0
M  V30 118 H 12.2708 -1.42739 3.6938 0
M  V30 119 H 13.4448 1.34082 4.40861 0
M  V30 120 H 11.7598 1.0594 4.02698 0
M  V30 121 H 14.3568 -1.49182 5.13468 0
M  V30 122 H 14.6998 -2.16085 3.55827 0
M  V30 123 H 15.2328 -0.50682 3.94558 0
M  V30 124 H 11.9718 1.12996 6.45687 0
M  V30 125 H 11.4918 -0.513717 5.97596 0
M  V30 126 H 13.1708 -0.179539 6.46751 0
M  V30 127 N 13.3029 -1.57598 0.00835791 0
M  V30 128 C 14.7139 -1.7892 -0.53333 0
M  V30 129 C 15.0649 -0.916609 -1.73473 0
M  V30 130 O 14.1899 -0.121336 -2.1606 0
M  V30 131 C 14.7849 -3.24488 -0.974313 0
M  V30 132 C 13.3439 -3.46878 -1.46125 0
M  V30 133 C 12.4909 -2.74157 -0.416302 0
M  V30 134 H 15.4419 -1.56958 0.234495 0
M  V30 135 H 15.4629 -3.3306 -1.83988 0
M  V30 136 H 14.9749 -3.87972 -0.099718 0
M  V30 137 H 13.0759 -2.8862 -2.35646 0
M  V30 138 H 13.1889 -4.55572 -1.48295 0
M  V30 139 H 11.5529 -2.39022 -0.87981 0
M  V30 140 H 12.3359 -3.40345 0.44947 0
M  V30 141 N 14.781 0.264519 -1.55364 0
M  V30 142 C 16.029 0.993021 -1.76021 0
M  V30 143 C 16.35 1.86511 -0.569099 0
M  V30 144 O 15.62 1.91438 0.415735 0
M  V30 145 H 14.2 0.369639 -0.649135 0
M  V30 146 H 16.862 0.286707 -1.9278 0
M  V30 147 H 15.958 1.62502 -2.66457 0
M  V30 148 N 16.2591 1.48442 0.529413 0
M  V30 149 C 17.1891 1.65902 1.64313 0
M  V30 150 C 18.1701 0.507897 1.6234 0
M  V30 151 O 19.3551 0.740503 1.79528 0
M  V30 152 C 16.4851 1.69911 3.02898 0
M  V30 153 C 15.4391 2.8453 3.19729 0
M  V30 154 C 14.7651 2.73629 4.59381 0
M  V30 155 C 16.0651 4.25821 3.02447 0
M  V30 156 H 17.7591 2.5914 1.49955 0
M  V30 157 H 15.3051 1.24709 0.719982 0
M  V30 158 H 17.2581 1.80715 3.80684 0
M  V30 159 H 15.9821 0.732524 3.18279 0
M  V30 160 H 14.6411 2.73283 2.44361 0
M  V30 161 H 14.2891 1.74938 4.71599 0
M  V30 162 H 13.9891 3.50541 4.71588 0
M  V30 163 H 15.5131 2.86401 5.39265 0
M  V30 164 H 16.9271 4.37898 3.70024 0
M  V30 165 H 15.3241 5.03735 3.26146 0
M  V30 166 H 16.3941 4.42244 1.98867 0
M  V30 167 N 17.7372 -0.778329 1.37039 0
M  V30 168 C 18.9832 -1.53817 1.33086 0
M  V30 169 C 19.3382 -1.92208 -0.0860346 0
M  V30 170 O 18.6312 -1.60713 -1.04316 0
M  V30 171 C 18.8252 -2.81845 2.19768 0
M  V30 172 C 18.6542 -2.55967 3.69744 0
M  V30 173 C 17.4242 -2.50428 4.38878 0
M  V30 174 C 19.6222 -2.2441 4.62758 0
M  V30 175 N 17.6042 -2.16564 5.74433 0
M  V30 176 C 18.9752 -2.0063 5.86641 0
M  V30 177 C 21.0302 -2.1051 4.5121 0
M  V30 178 C 19.7332 -1.64354 7.00272 0
M  V30 179 C 21.7592 -1.75634 5.64718 0
M  V30 180 C 21.1212 -1.52709 6.87648 0
M  V30 181 H 17.2202 -0.563434 0.542279 0
M  V30 182 H 19.8042 -0.908617 1.72198 0
M  V30 183 H 17.9752 -3.42649 1.82883 0
M  V30 184 H 19.7072 -3.47682 2.07122 0
M  V30 185 H 16.4622 -2.66056 3.91805 0
M  V30 186 H 16.8862 -2.02348 6.46053 0
M  V30 187 H 21.5282 -2.26919 3.56746 0
M  V30 188 H 19.2462 -1.46683 7.94676 0
M  V30 189 H 22.8322 -1.65546 5.57751 0
M  V30 190 H 21.7122 -1.2612 7.73992 0
M  V30 191 N 19.2153 -1.21501 -1.00376 0
M  V30 192 C 20.4923 -0.941745 -1.71437 0
M  V30 193 C 20.8723 0.546114 -2.03914 0
M  V30 194 O 20.2203 1.51128 -1.71384 0
M  V30 195 C 20.4303 -1.82812 -2.97289 0
M  V30 196 C 21.7783 -2.07771 -3.70292 0
M  V30 197 O 22.8023 -1.80171 -3.07273 0
M  V30 198 O 21.6613 -2.54456 -4.83647 0
M  V30 199 H 18.7553 -0.353243 -0.747762 0
M  V30 200 H 21.3013 -1.32436 -1.06108 0
M  V30 201 H 20.0733 -2.83501 -2.69709 0
M  V30 202 H 19.6963 -1.4464 -3.70358 0
M  V30 203 N 20.6934 1.19889 -1.02296 0
M  V30 204 C 21.9214 1.9339 -0.735399 0
M  V30 205 C 22.3364 1.75148 0.704887 0
M  V30 206 O 21.6934 1.06954 1.47875 0
M  V30 207 C 21.7444 3.45313 -1.06962 0
M  V30 208 O 21.4654 3.62964 -2.45334 0
M  V30 209 C 22.9664 4.35948 -0.804021 0
M  V30 210 H 20.1864 0.61448 -0.269546 0
M  V30 211 H 22.7304 1.522 -1.36585 0
M  V30 212 H 20.8854 3.84359 -0.484455 0
M  V30 213 H 21.2994 4.56886 -2.57595 0
M  V30 214 H 22.7734 5.41174 -1.0879 0
M  V30 215 H 23.2504 4.3842 0.261691 0
M  V30 216 H 23.8564 4.02574 -1.37164 0
M  V30 217 N 22.1715 0.800033 1.35784 0
M  V30 218 C 23.4015 0.389041 2.02904 0
M  V30 219 C 23.8095 -1.0027 1.60445 0
M  V30 220 O 23.1525 -1.65633 0.794453 0
M  V30 221 C 23.2145 0.385495 3.57427 0
M  V30 222 C 22.8785 1.72662 4.23127 0
M  V30 223 C 23.8755 2.68385 4.4527 0
M  V30 224 C 21.5605 2.00883 4.60381 0
M  V30 225 C 23.5545 3.90517 5.03761 0
M  V30 226 C 21.2415 3.2328 5.18588 0
M  V30 227 C 22.2395 4.17915 5.40218 0
M  V30 228 O 21.9275 5.38153 5.97199 0
M  V30 229 H 21.6595 0.157032 0.657508 0
M  V30 230 H 24.2135 1.08311 1.74522 0
M  V30 231 H 22.4435 -0.365128 3.84972 0
M  V30 232 H 24.1325 -0.00228296 4.059 0
M  V30 233 H 24.8985 2.47872 4.16874 0
M  V30 234 H 20.7775 1.28037 4.42863 0
M  V30 235 H 24.3215 4.64395 5.2056 0
M  V30 236 H 20.2185 3.43667 5.4641 0
M  V30 237 H 20.9865 5.3936 6.15656 0
M  V30 238 N 23.6496 -1.47581 0.552962 0
M  V30 239 C 24.5596 -2.33743 -0.200353 0
M  V30 240 C 25.5756 -1.47928 -0.916151 0
M  V30 241 O 26.7516 -1.80865 -0.885993 0
M  V30 242 C 23.8166 -3.24536 -1.21973 0
M  V30 243 C 22.8776 -4.26238 -0.511819 0
M  V30 244 C 22.1106 -5.12693 -1.48263 0
M  V30 245 O 22.3336 -5.01525 -2.71714 0
M  V30 246 O 21.2676 -5.93375 -1.00945 0
M  V30 247 H 25.0936 -2.9945 0.506304 0
M  V30 248 H 22.6786 -1.46071 0.313622 0
M  V30 249 H 24.5606 -3.80631 -1.80827 0
M  V30 250 H 23.2356 -2.61462 -1.90839 0
M  V30 251 H 22.1426 -3.73914 0.117799 0
M  V30 252 H 23.4756 -4.92014 0.135308 0
M  V30 253 N 25.1277 -0.289203 -1.54924 0
M  V30 254 C 26.4047 0.376032 -1.91951 0
M  V30 255 C 26.7847 1.72622 -1.21511 0
M  V30 256 O 26.1327 2.25853 -0.346767 0
M  V30 257 C 26.3427 0.502378 -3.45365 0
M  V30 258 C 27.6907 0.778741 -4.17398 0
M  V30 259 O 28.7147 0.586647 -3.51336 0
M  V30 260 O 27.5737 1.14698 -5.34328 0
M  V30 261 H 24.6677 0.208167 -0.800372 0
M  V30 262 H 27.2137 -0.336394 -1.66332 0
M  V30 263 H 25.9857 -0.447255 -3.88736 0
M  V30 264 H 25.6087 1.26373 -3.76982 0
M  V30 265 N 26.6058 1.57591 -0.0167156 0
M  V30 266 C 27.8828 1.82547 0.702564 0
M  V30 267 C 28.2628 0.898018 1.91047 0
M  V30 268 O 27.6108 -0.0493456 2.28447 0
M  V30 269 C 27.8208 3.31459 1.09251 0
M  V30 270 C 29.1688 3.97622 1.48937 0
M  V30 271 O 30.1928 3.35881 1.18584 0
M  V30 272 O 29.0518 5.06415 2.05442 0
M  V30 273 H 26.1458 0.752268 0.343544 0
M  V30 274 H 28.6918 1.69644 -0.0434495 0
M  V30 275 H 27.4638 3.9061 0.23227 0
M  V30 276 H 27.0868 3.49422 1.89709 0
M  V30 277 N 28.0839 -0.256276 1.55502 0
M  V30 278 C 29.3329 -0.983486 1.76098 0
M  V30 279 C 29.6459 -1.86837 0.578896 0
M  V30 280 O 30.8519 -2.63163 0.667648 0
M  V30 281 C 29.3079 -1.79868 3.1173 0
M  V30 282 C 28.9159 -0.961648 4.37557 0
M  V30 283 C 30.6599 -2.51919 3.41668 0
M  V30 284 C 28.5669 -1.77219 5.64223 0
M  V30 285 H 27.4969 -0.370936 0.656447 0
M  V30 286 H 30.1479 -0.238492 1.81944 0
M  V30 287 H 28.5299 -2.58527 2.99966 0
M  V30 288 H 29.7039 -0.218048 4.60284 0
M  V30 289 H 28.0189 -0.354913 4.14885 0
M  V30 290 H 30.6159 -3.12998 4.33516 0
M  V30 291 H 30.9589 -3.23059 2.62562 0
M  V30 292 H 31.4919 -1.80278 3.54605 0
M  V30 293 H 28.2309 -1.10471 6.46124 0
M  V30 294 H 27.7509 -2.49132 5.45613 0
M  V30 295 H 29.4299 -2.34169 6.03137 0
M  V30 296 N 29.562 -1.4872 -0.521534 0
M  V30 297 C 30.787 -1.61101 -1.30618 0
M  V30 298 C 31.212 -0.274611 -1.86085 0
M  V30 299 O 30.57 0.754937 -1.64834 0
M  V30 300 C 30.618 -2.66709 -2.4269 0
M  V30 301 O 29.722 -2.24456 -3.45967 0
M  V30 302 H 29.063 -0.539921 -0.386499 0
M  V30 303 H 31.593 -1.94767 -0.626645 0
M  V30 304 H 31.603 -2.88245 -2.88754 0
M  V30 305 H 30.278 -3.63727 -2.01682 0
M  V30 306 H 28.855 -2.13168 -3.05964 0
M  V30 307 N 31.0401 0.771051 -1.3745 0
M  V30 308 C 31.9501 1.91538 -1.35464 0
M  V30 309 C 32.9661 1.72134 -0.254123 0
M  V30 310 O 34.1421 1.95358 -0.489626 0
M  V30 311 C 31.2071 3.26671 -1.16134 0
M  V30 312 C 30.2681 3.58723 -2.35831 0
M  V30 313 C 29.5011 4.87409 -2.17413 0
M  V30 314 O 29.7241 5.58506 -1.15876 0
M  V30 315 O 28.6581 5.18539 -3.05615 0
M  V30 316 H 32.4841 1.96165 -2.31847 0
M  V30 317 H 30.0691 0.9139 -1.18187 0
M  V30 318 H 31.9511 4.07499 -1.07345 0
M  V30 319 H 30.6261 3.22894 -0.228251 0
M  V30 320 H 29.5331 2.78127 -2.50192 0
M  V30 321 H 30.8661 3.67243 -3.27709 0
M  V30 322 N 32.5182 1.22032 0.997298 0
M  V30 323 C 33.7672 1.03637 1.73038 0
M  V30 324 C 34.0802 -0.429475 1.90827 0
M  V30 325 O 35.2862 -0.732995 2.61418 0
M  V30 326 C 33.7422 1.80582 3.11317 0
M  V30 327 C 33.3502 3.31387 3.01474 0
M  V30 328 C 35.0942 1.70621 3.88701 0
M  V30 329 C 33.0012 4.00791 4.3488 0
M  V30 330 H 31.9312 0.384179 0.648785 0
M  V30 331 H 34.5822 1.4584 1.11368 0
M  V30 332 H 32.9642 1.31175 3.73643 0
M  V30 333 H 34.1382 3.88155 2.4834 0
M  V30 334 H 32.4532 3.41976 2.37575 0
M  V30 335 H 35.0502 2.19799 4.87434 0
M  V30 336 H 35.3932 0.665823 4.10941 0
M  V30 337 H 35.9262 2.17547 3.33044 0
M  V30 338 H 32.6652 5.05064 4.1784 0
M  V30 339 H 32.1852 3.48811 4.87945 0
M  V30 340 H 33.8642 4.06139 5.03647 0
M  V30 341 N 33.9963 -1.19345 1.0293 0
M  V30 342 C 35.2213 -1.93538 0.745511 0
M  V30 343 C 35.6463 -1.75007 -0.689511 0
M  V30 344 O 35.0043 -1.05265 -1.47611 0
M  V30 345 C 35.0523 -3.43336 1.10239 0
M  V30 346 O 34.1563 -4.11806 0.221289 0
M  V30 347 H 33.4973 -0.604193 0.275404 0
M  V30 348 H 36.0273 -1.5141 1.37609 0
M  V30 349 H 36.0373 -3.94004 1.05947 0
M  V30 350 H 34.7123 -3.56146 2.14786 0
M  V30 351 H 33.2893 -3.715 0.322842 0
M  V30 352 N 35.4744 -0.807222 -1.35358 0
M  V30 353 C 36.4064 -0.175717 -2.28525 0
M  V30 354 C 37.4194 0.625354 -1.5031 0
M  V30 355 O 38.6084 0.457611 -1.72535 0
M  V30 356 C 35.7084 0.773471 -3.29956 0
M  V30 357 C 34.8814 0.0186296 -4.37396 0
M  V30 358 C 33.9404 0.886395 -5.18681 0
M  V30 359 O 32.9664 0.337106 -5.68201 0
M  V30 360 N 34.1684 2.20839 -5.36852 0
M  V30 361 H 36.9334 -0.976091 -2.83359 0
M  V30 362 H 34.4944 -0.662737 -1.47714 0
M  V30 363 H 36.4864 1.35824 -3.81227 0
M  V30 364 H 35.0564 1.47465 -2.75632 0
M  V30 365 H 34.2764 -0.747349 -3.87051 0
M  V30 366 H 35.5644 -0.501577 -5.06322 0
M  V30 367 H 34.9624 2.67858 -4.98265 0
M  V30 368 H 33.5194 2.74237 -5.91301 0
M  V30 369 N 36.9525 1.47285 -0.560781 0
M  V30 370 C 37.8995 2.30058 0.18491 0
M  V30 371 C 38.8695 1.39281 0.904986 0
M  V30 372 O 40.0545 1.68241 0.899979 0
M  V30 373 C 37.1945 3.23317 1.20666 0
M  V30 374 C 36.3075 4.29186 0.492285 0
M  V30 375 C 35.4425 5.09592 1.49964 0
M  V30 376 C 34.4815 6.07232 0.770439 0
M  V30 377 N 33.6185 6.80584 1.72479 0
M  V30 378 H 38.4585 2.93302 -0.527048 0
M  V30 379 H 35.9955 1.44568 -0.271738 0
M  V30 380 H 37.9535 3.75811 1.81168 0
M  V30 381 H 36.5835 2.61929 1.88661 0
M  V30 382 H 35.6355 3.7972 -0.227333 0
M  V30 383 H 36.9475 4.98738 -0.0787929 0
M  V30 384 H 36.1015 5.66254 2.17809 0
M  V30 385 H 34.8405 4.3995 2.10464 0
M  V30 386 H 33.8455 5.49745 0.0780846 0
M  V30 387 H 35.0705 6.78884 0.171134 0
M  V30 388 H 33.0165 6.1367 2.3183 0
M  V30 389 H 32.9335 7.46319 1.20596 0
M  V30 390 H 34.2015 7.41818 2.39428 0
M  V30 391 N 38.4306 0.297415 1.54768 0
M  V30 392 C 39.3606 -0.573494 2.26348 0
M  V30 393 C 40.3416 -1.14085 1.26169 0
M  V30 394 O 41.5266 -1.17086 1.54934 0
M  V30 395 C 38.6566 -1.74716 3.00153 0
M  V30 396 C 37.6106 -1.31032 4.07449 0
M  V30 397 C 36.9366 -2.56887 4.68949 0
M  V30 398 C 38.2366 -0.444183 5.20408 0
M  V30 399 H 39.9306 0.0235131 2.99391 0
M  V30 400 H 37.4766 0.0127488 1.43994 0
M  V30 401 H 39.4296 -2.3625 3.48947 0
M  V30 402 H 38.1536 -2.37035 2.24682 0
M  V30 403 H 36.8126 -0.718066 3.59499 0
M  V30 404 H 36.4606 -3.17512 3.90122 0
M  V30 405 H 36.1606 -2.2836 5.41411 0
M  V30 406 H 37.6846 -3.19229 5.20505 0
M  V30 407 H 39.0986 -0.9651 5.65118 0
M  V30 408 H 37.4956 -0.252846 5.99567 0
M  V30 409 H 38.5656 0.531609 4.81977 0
M  V30 410 N 39.9087 -1.5758 0.0250728 0
M  V30 411 C 41.3197 -1.79476 -0.514323 0
M  V30 412 C 41.6707 -0.934956 -1.72491 0
M  V30 413 O 40.7957 -0.144245 -2.15919 0
M  V30 414 C 41.3907 -3.25503 -0.939842 0
M  V30 415 C 39.9497 -3.48408 -1.42438 0
M  V30 416 C 39.0967 -2.74583 -0.387201 0
M  V30 417 H 42.0477 -1.567 0.25113 0
M  V30 418 H 42.0687 -3.34992 -1.80445 0
M  V30 419 H 41.5807 -3.88056 -0.0585628 0
M  V30 420 H 39.6817 -2.91103 -2.32572 0
M  V30 421 H 39.7947 -4.57119 -1.43455 0
M  V30 422 H 38.1587 -2.39942 -0.854409 0
M  V30 423 H 38.9417 -3.39849 0.485543 0
M  V30 424 N 41.3868 0.248026 -1.55636 0
M  V30 425 C 42.6348 0.974295 -1.77065 0
M  V30 426 C 42.9558 1.85897 -0.588849 0
M  V30 427 O 42.2258 1.91868 0.395407 0
M  V30 428 H 40.8058 0.362733 -0.653019 0
M  V30 429 H 43.4678 0.266244 -1.93073 0
M  V30 430 H 42.5638 1.59667 -2.68166 0
M  V30 431 N 42.8649 1.48995 0.513639 0
M  V30 432 C 43.7749 1.67443 1.64317 0
M  V30 433 C 44.7909 0.556947 1.64846 0
M  V30 434 O 45.9669 0.830082 1.83498 0
M  V30 435 C 43.0319 1.72515 3.00732 0
M  V30 436 C 42.0929 2.96009 3.1093 0
M  V30 437 C 41.3259 3.00829 4.40837 0
M  V30 438 O 41.5489 2.13594 5.28898 0
M  V30 439 O 40.4829 3.93168 4.55744 0
M  V30 440 H 44.3089 2.63106 1.51687 0
M  V30 441 H 41.8939 1.32588 0.688543 0
M  V30 442 H 43.7759 1.78277 3.81831 0
M  V30 443 H 42.4509 0.800278 3.13651 0
M  V30 444 H 41.3579 2.9577 2.29065 0
M  V30 445 H 42.6909 3.87934 3.02933 0
M  V30 446 N 44.343 -0.763751 1.37857 0
M  V30 447 C 45.573 -1.55067 1.3652 0
M  V30 448 C 45.981 -1.89135 -0.0494227 0
M  V30 449 O 45.324 -1.52529 -1.02375 0
M  V30 450 C 45.386 -2.8838 2.14656 0
M  V30 451 C 45.05 -2.76905 3.63555 0
M  V30 452 C 46.047 -2.4739 4.57268 0
M  V30 453 C 43.732 -2.94676 4.06781 0
M  V30 454 C 45.726 -2.35786 5.92186 0
M  V30 455 C 43.413 -2.82692 5.41782 0
M  V30 456 C 44.411 -2.53289 6.34298 0
M  V30 457 O 44.099 -2.41345 7.66817 0
M  V30 458 H 43.831 -0.486776 0.469069 0
M  V30 459 H 46.385 -0.953812 1.81911 0
M  V30 460 H 44.615 -3.50217 1.63967 0
M  V30 461 H 46.304 -3.49828 2.05852 0
M  V30 462 H 47.07 -2.33339 4.2518 0
M  V30 463 H 42.949 -3.16563 3.35126 0
M  V30 464 H 46.493 -2.12757 6.64365 0
M  V30 465 H 42.39 -2.96314 5.7347 0
M  V30 466 H 43.158 -2.56634 7.77226 0
M  V30 467 N 45.8211 -1.22559 -0.990812 0
M  V30 468 C 47.0681 -1.05141 -1.73065 0
M  V30 469 C 47.3961 0.413191 -1.9006 0
M  V30 470 O 46.6511 1.32257 -1.44245 0
M  V30 471 C 46.9501 -1.71011 -3.13831 0
M  V30 472 C 46.6161 -3.20911 -3.16745 0
M  V30 473 C 45.2781 -3.61812 -3.17247 0
M  V30 474 C 47.6301 -4.16846 -3.12872 0
M  V30 475 C 44.9581 -4.97127 -3.1158 0
M  V30 476 C 47.3101 -5.5214 -3.08746 0
M  V30 477 C 45.9741 -5.92419 -3.07565 0
M  V30 478 H 45.2441 -0.384738 -0.633291 0
M  V30 479 H 47.8911 -1.5235 -1.16025 0
M  V30 480 H 46.1961 -1.16133 -3.74193 0
M  V30 481 H 47.8931 -1.55023 -3.69823 0
M  V30 482 H 44.4831 -2.88344 -3.17105 0
M  V30 483 H 48.6671 -3.86263 -3.11632 0
M  V30 484 H 43.9231 -5.27562 -3.09012 0
M  V30 485 H 48.0971 -6.26201 -3.04705 0
M  V30 486 H 45.7241 -6.97236 -3.02929 0
M  V30 487 N 47.2992 1.18797 -1.03562 0
M  V30 488 C 48.7152 1.40671 -0.753917 0
M  V30 489 C 48.9152 1.9043 0.658686 0
M  V30 490 O 47.9712 2.08538 1.42366 0
M  V30 491 C 49.2842 2.41192 -1.79574 0
M  V30 492 C 50.8322 2.54928 -1.81606 0
M  V30 493 C 51.3072 3.58709 -2.84766 0
M  V30 494 N 52.7982 3.66212 -2.83625 0
M  V30 495 C 53.5332 4.46225 -3.60098 0
M  V30 496 N 53.0292 5.29888 -4.46308 0
M  V30 497 N 54.8222 4.40939 -3.4861 0
M  V30 498 H 46.9732 0.848221 -1.94728 0
M  V30 499 H 49.2362 0.435081 -0.842264 0
M  V30 500 H 48.9422 2.11669 -2.80872 0
M  V30 501 H 48.8162 3.40467 -1.62365 0
M  V30 502 H 51.2032 2.83771 -0.809817 0
M  V30 503 H 51.2842 1.55784 -2.02891 0
M  V30 504 H 50.9282 3.30607 -3.85566 0
M  V30 505 H 50.8582 4.57519 -2.60737 0
M  V30 506 H 53.3492 3.06466 -2.21105 0
M  V30 507 H 53.6622 5.88078 -5.01382 0
M  V30 508 H 52.0072 5.29326 -4.50377 0
M  V30 509 H 55.1982 3.74624 -2.80668 0
M  V30 510 H 55.3712 5.03056 -4.08459 0
M  V30 511 N 48.7773 0.814389 1.34928 0
M  V30 512 C 50.0073 0.41054 2.0248 0
M  V30 513 C 50.4153 -0.985625 1.61499 0
M  V30 514 O 49.7583 -1.64781 0.811976 0
M  V30 515 C 49.8203 0.423384 3.56998 0
M  V30 516 C 49.4843 1.77141 4.21272 0
M  V30 517 C 50.4813 2.73093 4.42398 0
M  V30 518 C 48.1663 2.05755 4.58225 0
M  V30 519 C 50.1603 3.95838 4.9959 0
M  V30 520 C 47.8473 3.28762 5.1513 0
M  V30 521 C 48.8453 4.23621 5.35755 0
M  V30 522 O 48.5333 5.44456 5.91458 0
M  V30 523 H 48.2653 0.163997 0.655806 0
M  V30 524 H 50.8193 1.10155 1.73364 0
M  V30 525 H 49.0493 -0.324276 3.85338 0
M  V30 526 H 50.7383 0.0407683 4.0588 0
M  V30 527 H 51.5043 2.5228 4.14222 0
M  V30 528 H 47.3833 1.32727 4.4148 0
M  V30 529 H 50.9273 4.69891 5.15605 0
M  V30 530 H 46.8243 3.49443 5.42734 0
M  V30 531 H 47.5923 5.4586 6.09901 0
M  V30 532 N 50.2554 -1.46986 0.568584 0
M  V30 533 C 51.2024 -2.30153 -0.172707 0
M  V30 534 C 52.1724 -1.39759 -0.897586 0
M  V30 535 O 53.3574 -1.68716 -0.891044 0
M  V30 536 C 50.4974 -3.23952 -1.1895 0
M  V30 537 C 49.6104 -4.29441 -0.469517 0
M  V30 538 C 48.7454 -5.1038 -1.47259 0
M  V30 539 C 47.7844 -6.07632 -0.738225 0
M  V30 540 N 46.9214 -6.8149 -1.68868 0
M  V30 541 H 51.7614 -2.93019 0.542596 0
M  V30 542 H 49.2984 -1.44422 0.279401 0
M  V30 543 H 51.2564 -3.76767 -1.79173 0
M  V30 544 H 49.8864 -2.62926 -1.87269 0
M  V30 545 H 48.9384 -3.79594 0.247467 0
M  V30 546 H 50.2504 -4.98689 0.105241 0
M  V30 547 H 49.4044 -5.67402 -2.14803 0
M  V30 548 H 48.1434 -4.4106 -2.08128 0
M  V30 549 H 47.1484 -5.49778 -0.0489293 0
M  V30 550 H 48.3734 -6.78966 -0.135129 0
M  V30 551 H 46.3194 -6.14891 -2.28573 0
M  V30 552 H 46.2364 -7.46948 -1.16636 0
M  V30 553 H 47.5044 -7.43078 -2.3549 0
M  V30 554 N 51.7335 -0.305618 -1.54608 0
M  V30 555 C 52.9815 0.301701 -1.99835 0
M  V30 556 C 53.3025 1.54054 -1.19551 0
M  V30 557 O 52.5725 1.93702 -0.292658 0
M  V30 558 H 51.1525 0.114468 -0.738178 0
M  V30 559 H 53.8145 -0.418016 -1.90364 0
M  V30 560 H 52.9105 0.570548 -3.06841 0
M  V30 561 N 53.2116 1.57565 -0.0334293 0
M  V30 562 C 54.4576 1.92262 0.645226 0
M  V30 563 C 54.7906 0.910543 1.71531 0
M  V30 564 O 54.0656 -0.066099 1.94388 0
M  V30 565 C 54.3486 3.37422 1.2577 0
M  V30 566 C 54.2016 4.49369 0.196891 0
M  V30 567 C 55.5206 3.82628 2.17449 0
M  V30 568 H 52.6396 0.699171 0.233085 0
M  V30 569 H 55.2816 1.89779 -0.0915694 0
M  V30 570 H 53.4316 3.39669 1.88566 0
M  V30 571 H 55.1036 4.59254 -0.433962 0
M  V30 572 H 53.3466 4.31168 -0.477137 0
M  V30 573 H 54.0176 5.47978 0.665124 0
M  V30 574 H 56.4936 3.82145 1.64634 0
M  V30 575 H 55.3696 4.84883 2.57254 0
M  V30 576 H 55.6306 3.18376 3.0674 0
M  V30 577 N 54.6897 -0.239769 1.55765 0
M  V30 578 C 56.1007 -0.808263 1.68297 0
M  V30 579 C 56.4517 -1.85736 0.632181 0
M  V30 580 O 55.5767 -2.15277 -0.220204 0
M  V30 581 C 56.1717 -1.47284 3.05111 0
M  V30 582 C 54.7307 -1.98895 3.19559 0
M  V30 583 C 53.8777 -0.842575 2.64189 0
M  V30 584 H 56.8287 -0.0154422 1.58692 0
M  V30 585 H 56.8497 -2.34111 2.99954 0
M  V30 586 H 56.3617 -0.709053 3.81568 0
M  V30 587 H 54.4627 -2.78132 2.47938 0
M  V30 588 H 54.5757 -2.18143 4.26556 0
M  V30 589 H 52.9397 -1.24501 2.22197 0
M  V30 590 H 53.7227 -0.0917552 3.43177 0
M  V30 591 N 56.1678 -1.49265 -0.50573 0
M  V30 592 C 57.4148 -1.58513 -1.26015 0
M  V30 593 C 57.7428 -0.26972 -1.92621 0
M  V30 594 O 56.9978 0.741997 -1.81088 0
M  V30 595 C 57.2968 -2.69008 -2.35308 0
M  V30 596 C 56.9628 -4.10662 -1.86192 0
M  V30 597 C 55.6248 -4.49212 -1.72516 0
M  V30 598 C 57.9768 -4.99336 -1.49375 0
M  V30 599 C 55.3048 -5.74214 -1.20394 0
M  V30 600 C 57.6568 -6.24852 -0.987072 0
M  V30 601 C 56.3208 -6.62236 -0.836669 0
M  V30 602 H 55.5908 -0.580041 -0.461122 0
M  V30 603 H 58.2378 -1.83078 -0.561665 0
M  V30 604 H 56.5428 -2.38396 -3.10926 0
M  V30 605 H 58.2398 -2.73373 -2.93374 0
M  V30 606 H 54.8298 -3.8023 -1.97795 0
M  V30 607 H 59.0138 -4.70212 -1.5879 0
M  V30 608 H 54.2698 -6.01883 -1.07458 0
M  V30 609 H 58.4438 -6.92944 -0.692983 0
M  V30 610 H 56.0708 -7.58979 -0.430607 0
M  V30 611 N 57.6459 0.756429 -1.3826 0
M  V30 612 C 59.0569 1.33359 -1.30661 0
M  V30 613 C 59.4079 1.96161 0.0388875 0
M  V30 614 O 58.5329 1.94874 0.940918 0
M  V30 615 C 59.1279 2.42477 -2.36622 0
M  V30 616 C 57.6869 2.95922 -2.3261 0
M  V30 617 C 56.8339 1.69275 -2.19639 0
M  V30 618 H 59.7849 0.55552 -1.4866 0
M  V30 619 H 59.8059 3.22345 -2.02174 0
M  V30 620 H 59.3179 1.96739 -3.34538 0
M  V30 621 H 57.4189 3.45996 -1.38267 0
M  V30 622 H 57.5319 3.50494 -3.26636 0
M  V30 623 H 55.8959 1.92793 -1.66442 0
M  V30 624 H 56.6789 1.25619 -3.19491 0
M  V30 625 N 59.124 1.23083 0.984299 0
M  V30 626 C 60.37 1.06214 1.72761 0
M  V30 627 C 60.703 -0.400584 1.90024 0
M  V30 628 O 59.978 -1.29672 1.44967 0
M  V30 629 C 60.261 1.78375 3.12817 0
M  V30 630 C 60.114 3.32296 3.03149 0
M  V30 631 C 61.433 1.54309 4.12161 0
M  V30 632 H 58.552 0.387251 0.627061 0
M  V30 633 H 61.194 1.51536 1.14616 0
M  V30 634 H 59.344 1.39848 3.62457 0
M  V30 635 H 61.016 3.8032 2.61064 0
M  V30 636 H 59.259 3.6153 2.39747 0
M  V30 637 H 59.93 3.77972 4.02295 0
M  V30 638 H 62.406 1.87791 3.71314 0
M  V30 639 H 61.282 2.07281 5.08258 0
M  V30 640 H 61.543 0.477572 4.39513 0
M  V30 641 N 60.6021 -1.18246 1.0419 0
M  V30 642 C 61.8501 -1.87886 0.744543 0
M  V30 643 C 62.1711 -1.8082 -0.730006 0
M  V30 644 O 61.4411 -1.22736 -1.52685 0
M  V30 645 H 60.0211 -0.695556 0.272417 0
M  V30 646 H 62.6831 -1.43494 1.31892 0
M  V30 647 H 61.7791 -2.9389 1.05049 0
M  V30 648 N 62.0802 -0.821533 -1.34494 0
M  V30 649 C 63.0102 -0.257138 -2.3208 0
M  V30 650 C 63.9912 0.625645 -1.58176 0
M  V30 651 O 65.1762 0.552811 -1.86166 0
M  V30 652 C 62.3062 0.582958 -3.42372 0
M  V30 653 C 61.2602 -0.202571 -4.2752 0
M  V30 654 C 60.5862 0.760179 -5.29269 0
M  V30 655 C 61.8862 -1.40998 -5.02908 0
M  V30 656 H 63.5802 -1.07247 -2.79532 0
M  V30 657 H 61.1262 -0.517163 -1.34393 0
M  V30 658 H 63.0792 0.987972 -4.09655 0
M  V30 659 H 61.8032 1.43133 -2.93565 0
M  V30 660 H 60.4622 -0.588936 -3.61838 0
M  V30 661 H 60.1102 1.60447 -4.76724 0
M  V30 662 H 59.8102 0.238809 -5.87115 0
M  V30 663 H 61.3342 1.16308 -5.9942 0
M  V30 664 H 62.7482 -1.07905 -5.63054 0
M  V30 665 H 61.1452 -1.86689 -5.70322 0
M  V30 666 H 62.2152 -2.1889 -4.32684 0
M  V30 667 N 63.5583 1.46682 -0.576371 0
M  V30 668 C 64.7883 2.06498 -0.0648694 0
M  V30 669 C 65.1963 1.42665 1.24271 0
M  V30 670 O 64.5393 0.523886 1.76071 0
M  V30 671 C 64.6013 3.5904 0.181816 0
M  V30 672 C 64.2653 4.45028 -1.0392 0
M  V30 673 C 65.2623 4.81959 -1.94966 0
M  V30 674 C 62.9473 4.86259 -1.25927 0
M  V30 675 C 64.9413 5.58942 -3.06371 0
M  V30 676 C 62.6283 5.63002 -2.37638 0
M  V30 677 C 63.6263 5.99257 -3.2769 0
M  V30 678 O 63.3143 6.7445 -4.37461 0
M  V30 679 H 63.0463 0.674028 -0.0515987 0
M  V30 680 H 65.6003 1.89393 -0.794951 0
M  V30 681 H 63.8303 3.74429 0.966436 0
M  V30 682 H 65.5193 4.00806 0.641047 0
M  V30 683 H 66.2853 4.50689 -1.79177 0
M  V30 684 H 62.1643 4.57494 -0.567448 0
M  V30 685 H 65.7083 5.87158 -3.76684 0
M  V30 686 H 61.6053 5.93686 -2.53392 0
M  V30 687 H 62.3733 6.92867 -4.35749 0
M  V30 688 N 65.0364 0.313813 1.54444 0
M  V30 689 C 66.2614 -0.296681 2.05267 0
M  V30 690 C 66.6864 -1.45757 1.18897 0
M  V30 691 O 66.0444 -1.80239 0.195886 0
M  V30 692 C 66.0924 -0.71831 3.53373 0
M  V30 693 O 65.1964 -1.82175 3.69981 0
M  V30 694 H 64.5374 -0.0554061 0.661684 0
M  V30 695 H 67.0674 0.459387 1.99376 0
M  V30 696 H 67.0774 -1.00364 3.95463 0
M  V30 697 H 65.7524 0.130821 4.15694 0
M  V30 698 H 64.3294 -1.53598 3.39797 0
M  V30 699 N 66.5145 -1.57545 0.0417849 0
M  V30 700 C 67.4445 -2.14009 -0.933929 0
M  V30 701 C 68.4255 -1.05938 -1.33083 0
M  V30 702 O 69.6105 -1.33833 -1.40721 0
M  V30 703 C 66.7405 -2.67747 -2.21199 0
M  V30 704 C 65.6945 -3.80718 -1.95544 0
M  V30 705 C 65.0205 -4.20935 -3.29724 0
M  V30 706 C 66.3205 -5.06258 -1.28452 0
M  V30 707 H 68.0145 -2.95788 -0.463645 0
M  V30 708 H 65.5605 -1.42285 -0.221573 0
M  V30 709 H 67.5135 -3.05886 -2.89848 0
M  V30 710 H 66.2375 -1.83147 -2.70416 0
M  V30 711 H 64.8965 -3.43037 -1.2931 0
M  V30 712 H 64.5445 -3.33298 -3.76724 0
M  V30 713 H 64.2445 -4.9707 -3.13361 0
M  V30 714 H 65.7685 -4.61666 -3.9962 0
M  V30 715 H 67.1825 -5.41903 -1.8712 0
M  V30 716 H 65.5795 -5.87475 -1.22445 0
M  V30 717 H 66.6495 -4.84207 -0.259219 0
M  V30 718 N 67.9926 0.231505 -1.5589 0
M  V30 719 C 68.9026 1.308 -1.94752 0
M  V30 720 C 69.9186 1.51826 -0.849989 0
M  V30 721 O 71.0946 1.6515 -1.15271 0
M  V30 722 C 68.1596 2.63968 -2.24771 0
M  V30 723 C 67.2206 2.51331 -3.48039 0
M  V30 724 C 66.4536 3.78148 -3.76616 0
M  V30 725 O 66.6766 4.80722 -3.07022 0
M  V30 726 O 65.6106 3.75857 -4.70123 0
M  V30 727 H 69.4366 1.0083 -2.86474 0
M  V30 728 H 67.0216 0.433547 -1.42971 0
M  V30 729 H 68.9036 3.42633 -2.45318 0
M  V30 730 H 67.5786 2.9364 -1.36225 0
M  V30 731 H 66.4856 1.709 -3.32782 0
M  V30 732 H 67.8186 2.26601 -4.36936 0
M  V30 733 N 69.4707 1.49531 0.497807 0
M  V30 734 C 70.6957 1.63159 1.28039 0
M  V30 735 C 71.1207 0.30418 1.85624 0
M  V30 736 O 70.4787 -0.728618 1.66015 0
M  V30 737 C 70.5267 2.70537 2.38416 0
M  V30 738 O 69.6307 2.29931 3.42353 0
M  V30 739 H 68.9717 0.546001 0.377861 0
M  V30 740 H 71.5017 1.9574 0.59558 0
M  V30 741 H 71.5117 2.92802 2.84132 0
M  V30 742 H 70.1867 3.6689 1.95869 0
M  V30 743 H 68.7637 2.18009 3.02533 0
M  V30 744 N 70.9488 -0.749086 1.3866 0
M  V30 745 C 72.1978 -1.50371 1.3443 0
M  V30 746 C 72.5108 -1.95503 -0.0616397 0
M  V30 747 O 73.7168 -2.70554 -0.226489 0
M  V30 748 C 72.1728 -2.71644 2.36088 0
M  V30 749 C 71.7808 -2.3352 3.82325 0
M  V30 750 C 73.5248 -3.49518 2.40909 0
M  V30 751 C 71.4318 -3.51431 4.75658 0
M  V30 752 H 70.3618 -0.564628 0.499712 0
M  V30 753 H 73.0128 -0.818449 1.64237 0
M  V30 754 H 71.3948 -3.42175 1.9933 0
M  V30 755 H 72.5688 -1.70627 4.28046 0
M  V30 756 H 70.8838 -1.6877 3.80665 0
M  V30 757 H 73.4808 -4.37197 3.07836 0
M  V30 758 H 73.8238 -3.90992 1.42937 0
M  V30 759 H 74.3568 -2.86005 2.76489 0
M  V30 760 H 71.0958 -3.15019 5.74842 0
M  V30 761 H 70.6158 -4.13352 4.34627 0
M  V30 762 H 72.2948 -4.17953 4.93887 0
M  V30 763 N 72.4269 -1.23603 -0.977757 0
M  V30 764 C 73.6519 -1.09735 -1.75991 0
M  V30 765 C 74.0769 0.346858 -1.84874 0
M  V30 766 O 73.4349 1.25093 -1.3123 0
M  V30 767 C 73.4829 -1.73051 -3.16363 0
M  V30 768 O 72.5869 -0.994452 -4.0023 0
M  V30 769 H 71.9279 -0.384476 -0.541364 0
M  V30 770 H 74.4579 -1.6371 -1.2272 0
M  V30 771 H 74.4679 -1.78398 -3.66931 0
M  V30 772 H 73.1429 -2.78137 -3.09213 0
M  V30 773 H 71.7199 -1.01812 -3.58732 0
M  V30 774 N 73.905 1.17692 -1.04816 0
M  V30 775 C 74.835 2.23777 -0.666791 0
M  V30 776 C 75.816 1.66796 0.33361 0
M  V30 777 O 77.001 1.93039 0.212042 0
M  V30 778 C 74.131 3.47281 -0.0367933 0
M  V30 779 C 73.085 4.17059 -0.961546 0
M  V30 780 C 72.411 5.34342 -0.195626 0
M  V30 781 C 73.711 4.69713 -2.28402 0
M  V30 782 H 75.405 2.55933 -1.55367 0
M  V30 783 H 72.951 1.23019 -0.748484 0
M  V30 784 H 74.904 4.20706 0.241775 0
M  V30 785 H 73.628 3.14381 0.885004 0
M  V30 786 H 72.287 3.45541 -1.22462 0
M  V30 787 H 71.935 4.97692 0.728816 0
M  V30 788 H 71.635 5.81966 -0.811775 0
M  V30 789 H 73.159 6.10553 0.0757473 0
M  V30 790 H 74.573 5.34794 -2.06563 0
M  V30 791 H 72.97 5.279 -2.8538 0
M  V30 792 H 74.04 3.86726 -2.92525 0
M  V30 793 N 75.3831 0.828654 1.34056 0
M  V30 794 C 76.3461 0.259927 2.27721 0
M  V30 795 C 77.3461 -0.565478 1.50529 0
M  V30 796 O 78.5361 -0.38075 1.69988 0
M  V30 797 C 75.6681 -0.634944 3.34935 0
M  V30 798 H 76.8611 1.0863 2.79534 0
M  V30 799 H 74.4141 0.600951 1.44285 0
M  V30 800 H 75.1491 -1.48416 2.88346 0
M  V30 801 H 74.9341 -0.0444999 3.92075 0
M  V30 802 H 76.4241 -1.02648 4.04788 0
M  V30 803 N 76.8612 -1.46375 0.584142 0
M  V30 804 C 77.7712 -2.34115 -0.150728 0
M  V30 805 C 78.7872 -1.49838 -0.884567 0
M  V30 806 O 79.9632 -1.82704 -0.847429 0
M  V30 807 C 77.0282 -3.2705 -1.15062 0
M  V30 808 C 76.0892 -4.27228 -0.421293 0
M  V30 809 C 75.3222 -5.15722 -1.37355 0
M  V30 810 O 75.5452 -5.07176 -2.61014 0
M  V30 811 O 74.4792 -5.95383 -0.883355 0
M  V30 812 H 78.3052 -2.98309 0.569708 0
M  V30 813 H 75.8902 -1.45373 0.344535 0
M  V30 814 H 77.7722 -3.84381 -1.72712 0
M  V30 815 H 76.4472 -2.65451 -1.8525 0
M  V30 816 H 75.3542 -3.7358 0.197085 0
M  V30 817 H 76.6872 -4.91616 0.239641 0
M  V30 818 N 78.3393 -0.321999 -1.54275 0
M  V30 819 C 79.2873 0.560206 -2.25753 0
M  V30 820 C 80.2813 1.11984 -1.27106 0
M  V30 821 O 81.4873 1.06806 -1.44888 0
M  V30 822 H 77.8623 0.199304 -0.725108 0
M  V30 823 H 79.8333 -0.0649365 -2.98329 0
M  V30 824 C 78.5823 1.71023 -3.02731 0
M  V30 825 H 77.9053 1.28885 -3.78456 0
M  V30 826 H 79.3453 2.30314 -3.55993 0
M  V30 827 C 77.8043 2.62692 -2.10938 0
M  V30 828 O 78.3343 3.64364 -1.6912 0
M  V30 829 N 76.5403 2.30891 -1.76459 0
M  V30 830 H 76.0873 1.48253 -2.10663 0
M  V30 831 H 76.0453 2.92487 -1.1532 0
M  V30 832 N 79.8174 1.5752 -0.0501392 0
M  V30 833 C 81.0454 1.96963 0.633492 0
M  V30 834 C 81.4604 0.927631 1.6444 0
M  V30 835 O 80.8174 -0.0882665 1.82286 0
M  V30 836 C 80.8684 3.36487 1.32132 0
M  V30 837 O 80.5894 4.36693 0.350894 0
M  V30 838 C 82.0904 3.90682 2.09481 0
M  V30 839 H 79.3104 0.648244 0.173266 0
M  V30 840 H 81.8544 2.0417 -0.116134 0
M  V30 841 H 80.0094 3.30434 2.02218 0
M  V30 842 H 80.4234 5.17702 0.841735 0
M  V30 843 H 81.8974 4.90591 2.5303 0
M  V30 844 H 82.3744 3.26053 2.94255 0
M  V30 845 H 82.9804 4.00069 1.44307 0
M  V30 846 N 81.2955 -0.223234 1.56011 0
M  V30 847 C 82.2275 -1.30006 1.88762 0
M  V30 848 C 83.2405 -1.43129 0.775746 0
M  V30 849 O 84.4295 -1.44057 1.05403 0
M  V30 850 C 81.5295 -2.67589 2.07965 0
M  V30 851 C 80.7025 -2.76434 3.38973 0
M  V30 852 C 79.7615 -3.95019 3.47629 0
M  V30 853 O 78.7875 -3.83436 4.20672 0
M  V30 854 N 79.9895 -5.09249 2.78649 0
M  V30 855 H 82.7545 -1.02238 2.81722 0
M  V30 856 H 80.3155 -0.413278 1.56536 0
M  V30 857 H 82.3075 -3.45297 2.11073 0
M  V30 858 H 80.8775 -2.87964 1.21638 0
M  V30 859 H 80.0975 -1.85216 3.47978 0
M  V30 860 H 81.3855 -2.79313 4.25278 0
M  V30 861 H 80.7835 -5.21556 2.19081 0
M  V30 862 H 79.3405 -5.85007 2.8742 0
M  V30 863 N 82.7736 -1.49793 -0.48987 0
M  V30 864 C 84.0506 -1.50348 -1.25119 0
M  V30 865 C 84.4306 -0.237466 -2.0976 0
M  V30 866 O 83.7786 0.77981 -2.14782 0
M  V30 867 C 83.9886 -2.78872 -2.09837 0
M  V30 868 C 85.3366 -3.288 -2.68655 0
M  V30 869 O 86.3606 -2.80065 -2.20096 0
M  V30 870 O 85.2196 -4.13707 -3.57083 0
M  V30 871 H 82.3136 -0.602242 -0.566775 0
M  V30 872 H 84.8596 -1.62067 -0.503229 0
M  V30 873 H 83.6316 -3.62499 -1.47343 0
M  V30 874 H 83.2546 -2.70066 -2.91805 0
M  V30 875 N 84.2517 0.741722 -1.39055 0
M  V30 876 C 85.4977 1.50336 -1.36113 0
M  V30 877 C 85.8307 1.94148 0.0450796 0
M  V30 878 O 85.1057 1.66301 1.00868 0
M  V30 879 C 85.3887 2.74773 -2.32749 0
M  V30 880 C 85.2417 2.37023 -3.82283 0
M  V30 881 C 86.5607 3.76846 -2.27322 0
M  V30 882 H 83.6797 0.545351 -0.495743 0
M  V30 883 H 86.3217 0.848624 -1.69995 0
M  V30 884 H 84.4717 3.30639 -2.03986 0
M  V30 885 H 86.1437 1.8684 -4.21768 0
M  V30 886 H 84.3867 1.69334 -3.99385 0
M  V30 887 H 85.0577 3.26104 -4.45376 0
M  V30 888 H 87.5337 3.30548 -2.5274 0
M  V30 889 H 86.4097 4.6159 -2.97028 0
M  V30 890 H 86.6707 4.23286 -1.27599 0
M  V30 891 N 85.7298 1.2412 0.971189 0
M  V30 892 C 87.1458 1.00584 1.23916 0
M  V30 893 C 87.3458 -0.287481 1.99439 0
M  V30 894 O 86.4018 -1.00454 2.31658 0
M  V30 895 C 87.7148 2.21864 2.0297 0
M  V30 896 C 89.2628 2.26452 2.16076 0
M  V30 897 C 89.7378 3.47343 2.98524 0
M  V30 898 N 91.2288 3.47639 3.06107 0
M  V30 899 C 91.9638 4.37837 3.70251 0
M  V30 900 N 91.4598 5.38286 4.36142 0
M  V30 901 N 93.2528 4.25558 3.67228 0
M  V30 902 H 85.4038 2.07236 0.465499 0
M  V30 903 H 87.6668 0.909236 0.268315 0
M  V30 904 H 87.3728 3.15771 1.54861 0
M  V30 905 H 87.2468 2.23698 3.03709 0
M  V30 906 H 89.6338 1.33078 2.6339 0
M  V30 907 H 89.7148 2.28645 1.14696 0
M  V30 908 H 89.3588 4.41029 2.51905 0
M  V30 909 H 89.2888 3.42393 4.00093 0
M  V30 910 H 91.7798 2.74966 2.59233 0
M  V30 911 H 92.0928 6.03352 4.82894 0
M  V30 912 H 90.4378 5.42176 4.34822 0
M  V30 913 H 93.6288 3.46322 3.14927 0
M  V30 914 H 93.8018 4.96054 4.16935 0
M  V30 915 N 87.2079 -1.17134 1.05439 0
M  V30 916 C 88.4849 -1.83411 0.679699 0
M  V30 917 C 88.8649 -1.9368 -0.839726 0
M  V30 918 O 88.2129 -1.47325 -1.74664 0
M  V30 919 C 88.4229 -3.20918 1.37159 0
M  V30 920 C 89.7709 -3.96796 1.51123 0
M  V30 921 O 90.7949 -3.30406 1.3308 0
M  V30 922 O 89.6539 -5.15778 1.80651 0
M  V30 923 H 86.7479 -0.79154 0.239569 0
M  V30 924 H 89.2939 -1.24411 1.15413 0
M  V30 925 H 88.0659 -3.08428 2.40807 0
M  V30 926 H 87.6889 -3.87587 0.886674 0
M  V30 927 N 88.686 -0.835752 -1.33615 0
M  V30 928 C 89.963 -0.352017 -1.92406 0
M  V30 929 C 90.343 1.16225 -1.76224 0
M  V30 930 O 89.691 1.97526 -1.14873 0
M  V30 931 C 89.901 -0.795485 -3.39813 0
M  V30 932 C 91.249 -0.801703 -4.16963 0
M  V30 933 O 92.273 -0.738889 -3.48452 0
M  V30 934 O 91.132 -0.886607 -5.3926 0
M  V30 935 H 88.226 -0.0989641 -0.821057 0
M  V30 936 H 90.772 -0.921397 -1.42507 0
M  V30 937 H 89.544 -1.83795 -3.45449 0
M  V30 938 H 89.167 -0.202505 -3.97084 0
M  V30 939 N 90.1641 1.46063 -0.591896 0
M  V30 940 C 91.4411 1.95595 -0.0137119 0
M  V30 941 C 91.8211 1.5345 1.4497 0
M  V30 942 O 91.1691 0.789543 2.14426 0
M  V30 943 C 91.3791 3.48453 -0.195373 0
M  V30 944 C 92.7271 4.24546 -0.0679765 0
M  V30 945 O 93.7511 3.55982 -0.124681 0
M  V30 946 O 92.6101 5.46467 0.0600579 0
M  V30 947 H 89.7041 0.825795 0.0446279 0
M  V30 948 H 92.2501 1.56303 -0.660859 0
M  V30 949 H 91.0221 3.72045 -1.21235 0
M  V30 950 H 90.6451 3.94597 0.487775 0
M  V30 951 N 91.6422 0.330177 1.54103 0
M  V30 952 C 92.8912 -0.271336 1.99867 0
M  V30 953 C 93.2042 -1.52723 1.22209 0
M  V30 954 O 94.4102 -2.20515 1.58383 0
M  V30 955 C 92.8662 -0.534032 3.55916 0
M  V30 956 C 92.4742 0.705193 4.42415 0
M  V30 957 C 94.2182 -1.09514 4.1013 0
M  V30 958 C 92.1252 0.414035 5.89949 0
M  V30 959 H 91.0552 -0.105166 0.74663 0
M  V30 960 H 93.7062 0.443429 1.78062 0
M  V30 961 H 92.0882 -1.30915 3.73734 0
M  V30 962 H 93.2622 1.4804 4.36372 0
M  V30 963 H 91.5772 1.18698 3.99124 0
M  V30 964 H 94.1742 -1.3277 5.17954 0
M  V30 965 H 94.5172 -2.04656 3.62521 0
M  V30 966 H 95.0502 -0.381038 3.95971 0
M  V30 967 H 91.7892 1.33481 6.41766 0
M  V30 968 H 91.3092 -0.323336 5.98928 0
M  V30 969 H 92.9882 0.0263105 6.46995 0
M  V30 970 N 93.1203 -1.57491 0.0584922 0
M  V30 971 C 94.3673 -1.92978 -0.613648 0
M  V30 972 C 94.6953 -0.937461 -1.70417 0
M  V30 973 O 93.9503 0.049078 -1.95638 0
M  V30 974 C 94.2493 -3.3513 -1.24188 0
M  V30 975 C 93.9153 -4.50037 -0.278826 0
M  V30 976 C 92.5773 -4.81198 -0.0138447 0
M  V30 977 C 94.9293 -5.19807 0.380777 0
M  V30 978 C 92.2573 -5.79473 0.918052 0
M  V30 979 C 94.6093 -6.19079 1.30091 0
M  V30 980 C 93.2733 -6.48665 1.57449 0
M  V30 981 H 92.5433 -0.706157 -0.22455 0
M  V30 982 H 95.1903 -1.91082 0.126533 0
M  V30 983 H 93.4953 -3.33429 -2.05749 0
M  V30 984 H 95.1923 -3.59871 -1.769 0
M  V30 985 H 91.7823 -4.25726 -0.495539 0
M  V30 986 H 95.9663 -4.95939 0.189158 0
M  V30 987 H 91.2223 -6.00727 1.1374 0
M  V30 988 H 95.3963 -6.7225 1.81804 0
M  V30 989 H 93.0233 -7.24628 2.29822 0
M  V30 990 N 94.5984 0.214957 -1.56127 0
M  V30 991 C 95.8474 0.936451 -1.78643 0
M  V30 992 C 96.1604 1.85237 -0.628229 0
M  V30 993 O 97.3664 2.613 -0.737186 0
M  V30 994 C 95.8224 1.7154 -3.16389 0
M  V30 995 C 95.4304 0.845299 -4.39953 0
M  V30 996 C 97.1744 2.42772 -3.48227 0
M  V30 997 C 95.0814 1.62198 -5.68723 0
M  V30 998 H 94.0114 0.353401 -0.666051 0
M  V30 999 H 96.6624 0.190169 -1.82512 0
M  V30 1000 H 95.0444 2.50484 -3.06715 0
M  V30 1001 H 96.2184 0.0959353 -4.607 0
M  V30 1002 H 94.5334 0.244789 -4.1568 0
M  V30 1003 H 97.1304 3.01394 -4.41663 0
M  V30 1004 H 97.4734 3.15984 -2.71035 0
M  V30 1005 H 98.0064 1.70813 -3.5926 0
M  V30 1006 H 94.7454 0.933011 -6.48826 0
M  V30 1007 H 94.2654 2.34579 -5.52026 0
M  V30 1008 H 95.9444 2.18095 -6.09133 0
M  V30 1009 N 96.0765 1.50051 0.48192 0
M  V30 1010 C 97.3255 1.59741 1.23149 0
M  V30 1011 C 97.6385 0.298163 1.93314 0
M  V30 1012 O 98.8445 0.273835 2.70116 0
M  V30 1013 C 97.3005 2.81926 2.23708 0
M  V30 1014 C 96.9085 4.18685 1.59396 0
M  V30 1015 C 98.6525 3.00956 2.99375 0
M  V30 1016 C 96.5595 5.3207 2.58178 0
M  V30 1017 H 95.4895 0.594838 0.46334 0
M  V30 1018 H 98.1405 1.76467 0.503169 0
M  V30 1019 H 96.5225 2.58736 2.99786 0
M  V30 1020 H 97.6965 4.52088 0.891811 0
M  V30 1021 H 96.0115 4.05171 0.960503 0
M  V30 1022 H 98.6085 3.82836 3.73283 0
M  V30 1023 H 98.9515 2.12258 3.58123 0
M  V30 1024 H 99.4845 3.24277 2.30411 0
M  V30 1025 H 96.2235 6.22888 2.04184 0
M  V30 1026 H 95.7435 5.03098 3.26577 0
M  V30 1027 H 97.4225 5.62196 3.20225 0
M  V30 1028 N 97.5546 -0.734337 1.39446 0
M  V30 1029 C 98.7826 -1.52358 1.39981 0
M  V30 1030 C 99.1976 -1.88799 -0.0054975 0
M  V30 1031 O 98.5546 -1.54146 -0.976998 0
M  V30 1032 C 98.6056 -2.81072 2.27333 0
M  V30 1033 O 98.3266 -2.46178 3.62392 0
M  V30 1034 C 99.8276 -3.75096 2.36259 0
M  V30 1035 H 97.0476 -0.470806 0.478103 0
M  V30 1036 H 99.5916 -0.907339 1.83269 0
M  V30 1037 H 97.7466 -3.39026 1.87457 0
M  V30 1038 H 98.1606 -3.28866 4.08592 0
M  V30 1039 H 99.6346 -4.62305 3.01626 0
M  V30 1040 H 100.112 -4.16892 1.38194 0
M  V30 1041 H 100.718 -3.23061 2.76608 0
M  V30 1042 N 99.0327 -1.24633 -0.964593 0
M  V30 1043 C 100.263 -1.11339 -1.74032 0
M  V30 1044 C 100.671 0.336593 -1.86182 0
M  V30 1045 O 100.014 1.24389 -1.35178 0
M  V30 1046 C 100.076 -1.68284 -3.1768 0
M  V30 1047 C 99.7397 -3.17196 -3.28992 0
M  V30 1048 C 100.737 -4.14308 -3.14078 0
M  V30 1049 C 98.4217 -3.57215 -3.53133 0
M  V30 1050 C 100.416 -5.4942 -3.23135 0
M  V30 1051 C 98.1027 -4.92468 -3.61827 0
M  V30 1052 C 99.1007 -5.8838 -3.46841 0
M  V30 1053 O 98.7887 -7.21173 -3.55197 0
M  V30 1054 H 98.5207 -0.389551 -0.552472 0
M  V30 1055 H 101.075 -1.65282 -1.21946 0
M  V30 1056 H 99.3047 -1.08777 -3.71085 0
M  V30 1057 H 100.994 -1.50234 -3.77074 0
M  V30 1058 H 101.76 -3.84731 -2.95308 0
M  V30 1059 H 97.6387 -2.83063 -3.63863 0
M  V30 1060 H 101.183 -6.24263 -3.11355 0
M  V30 1061 H 97.0797 -5.21714 -3.80111 0
M  V30 1062 H 97.8477 -7.29135 -3.71892 0
M  V30 1063 N 100.511 1.16574 -1.06058 0
M  V30 1064 C 101.922 1.68662 -0.800632 0
M  V30 1065 C 102.273 1.84184 0.67608 0
M  V30 1066 O 101.398 1.53568 1.52466 0
M  V30 1067 C 101.993 3.06356 -1.44676 0
M  V30 1068 C 100.552 3.55575 -1.23465 0
M  V30 1069 C 99.6988 2.31616 -1.52477 0
M  V30 1070 H 102.65 1.00969 -1.22438 0
M  V30 1071 H 102.671 3.70636 -0.860788 0
M  V30 1072 H 102.183 2.95027 -2.52152 0
M  V30 1073 H 100.284 3.72167 -0.179527 0
M  V30 1074 H 100.397 4.37812 -1.94571 0
M  V30 1075 H 98.7608 2.36512 -0.945209 0
M  V30 1076 H 99.5438 2.22887 -2.61106 0
M  V30 1077 N 101.989 0.842826 1.3317 0
M  V30 1078 C 102.936 0.276885 2.29133 0
M  V30 1079 C 103.906 -0.609527 1.54512 0
M  V30 1080 O 105.091 -0.546955 1.82792 0
M  V30 1081 C 102.231 -0.538707 3.40869 0
M  V30 1082 C 101.344 0.372169 4.30394 0
M  V30 1083 C 100.479 -0.454908 5.29249 0
M  V30 1084 C 99.5179 0.45411 6.10413 0
M  V30 1085 N 98.6549 -0.335075 7.013 0
M  V30 1086 H 103.495 1.10052 2.76934 0
M  V30 1087 H 101.032 0.554161 1.36262 0
M  V30 1088 H 102.99 -1.02709 4.0436 0
M  V30 1089 H 101.62 -1.32727 2.9425 0
M  V30 1090 H 100.672 0.97888 3.6759 0
M  V30 1091 H 101.984 1.0703 4.87182 0
M  V30 1092 H 101.138 -1.00695 5.98285 0
M  V30 1093 H 99.8769 -1.18646 4.73048 0
M  V30 1094 H 98.8819 1.01813 5.40291 0
M  V30 1095 H 100.107 1.18409 6.68697 0
M  V30 1096 H 98.0529 -1.04994 6.47543 0
M  V30 1097 H 97.9699 0.304262 7.55387 0
M  V30 1098 H 99.2379 -0.869224 7.74638 0
M  V30 1099 N 103.467 -1.45747 0.599634 0
M  V30 1100 C 104.692 -2.07178 0.0960198 0
M  V30 1101 C 105.117 -1.44268 -1.207 0
M  V30 1102 O 104.475 -0.532503 -1.73303 0
M  V30 1103 C 104.523 -3.60579 -0.0385348 0
M  V30 1104 O 103.627 -3.97713 -1.0908 0
M  V30 1105 H 102.968 -0.660251 0.0704593 0
M  V30 1106 H 105.498 -1.87124 0.827385 0
M  V30 1107 H 105.508 -4.07298 -0.239304 0
M  V30 1108 H 104.183 -4.05756 0.912947 0
M  V30 1109 H 102.76 -3.62678 -0.867135 0
M  V30 1110 N 104.945 -0.338344 -1.53925 0
M  V30 1111 C 106.193 0.259245 -2.0043 0
M  V30 1112 C 106.514 1.51484 -1.22791 0
M  V30 1113 O 105.784 1.93037 -0.33368 0
M  V30 1114 H 104.364 0.0987845 -0.740439 0
M  V30 1115 H 107.026 -0.458302 -1.89435 0
M  V30 1116 H 106.122 0.505334 -3.07982 0
M  V30 1117 N 106.423 1.57458 -0.0668435 0
M  V30 1118 C 107.651 1.97624 0.612565 0
M  V30 1119 C 108.066 0.94502 1.63447 0
M  V30 1120 O 107.423 -0.0689276 1.8237 0
M  V30 1121 C 107.474 3.37869 1.28555 0
M  V30 1122 O 107.195 4.3704 0.304557 0
M  V30 1123 C 108.696 3.92882 2.05325 0
M  V30 1124 H 105.916 0.650045 0.166381 0
M  V30 1125 H 108.46 2.04035 -0.137782 0
M  V30 1126 H 106.615 3.3256 1.98702 0
M  V30 1127 H 107.029 5.18565 0.786779 0
M  V30 1128 H 108.503 4.93247 2.47812 0
M  V30 1129 H 108.98 3.29156 2.9078 0
M  V30 1130 H 109.586 4.01577 1.40056 0
M  V30 1131 N 107.901 -0.206675 1.56239 0
M  V30 1132 C 109.129 -0.945345 1.8404 0
M  V30 1133 C 109.544 -1.77336 0.647885 0
M  V30 1134 O 108.901 -1.78425 -0.383511 0
M  V30 1135 C 108.952 -1.8509 3.10522 0
M  V30 1136 O 108.673 -1.05634 4.25174 0
M  V30 1137 C 110.174 -2.70222 3.51418 0
M  V30 1138 H 107.394 -0.276372 0.61144 0
M  V30 1139 H 109.938 -0.217417 2.03341 0
M  V30 1140 H 108.093 -2.53259 2.93153 0
M  V30 1141 H 108.507 -1.67238 4.97124 0
M  V30 1142 H 109.981 -3.29438 4.42916 0
M  V30 1143 H 110.458 -3.43358 2.73864 0
M  V30 1144 H 111.064 -2.07443 3.71278 0
M  V30 1145 N 109.379 -1.50304 -0.473955 0
M  V30 1146 C 110.625 -1.62358 -1.22521 0
M  V30 1147 C 110.98 -0.318555 -1.89745 0
M  V30 1148 O 110.273 0.683315 -1.79001 0
M  V30 1149 C 110.467 -2.73938 -2.29549 0
M  V30 1150 C 110.296 -4.15165 -1.72825 0
M  V30 1151 C 109.066 -4.81604 -1.52924 0
M  V30 1152 C 111.264 -4.99503 -1.22481 0
M  V30 1153 N 109.246 -6.07056 -0.91413 0
M  V30 1154 C 110.617 -6.15655 -0.732743 0
M  V30 1155 C 112.672 -4.85299 -1.11308 0
M  V30 1156 C 111.375 -7.19164 -0.139976 0
M  V30 1157 C 113.401 -5.88982 -0.534258 0
M  V30 1158 C 112.763 -7.0438 -0.0525562 0
M  V30 1159 H 108.862 -0.648286 -0.437321 0
M  V30 1160 H 111.446 -1.87413 -0.527692 0
M  V30 1161 H 109.617 -2.50611 -2.9673 0
M  V30 1162 H 111.349 -2.75366 -2.96573 0
M  V30 1163 H 108.104 -4.3885 -1.78067 0
M  V30 1164 H 108.528 -6.74108 -0.625071 0
M  V30 1165 H 113.17 -3.96369 -1.47144 0
M  V30 1166 H 110.888 -8.07771 0.230591 0
M  V30 1167 H 114.474 -5.80055 -0.450219 0
M  V30 1168 H 113.354 -7.83238 0.388324 0
M  V30 1169 N 110.857 0.726932 -1.39834 0
M  V30 1170 C 111.79 1.8501 -1.33592 0
M  V30 1171 C 112.768 1.61262 -0.208191 0
M  V30 1172 O 113.952 1.84422 -0.389981 0
M  V30 1173 C 111.079 3.21143 -1.07633 0
M  V30 1174 C 110.125 3.63737 -2.22705 0
M  V30 1175 S 110.958 3.72167 -3.85035 0
M  V30 1176 C 112.114 5.11077 -3.61318 0
M  V30 1177 H 112.347 1.90022 -2.28646 0
M  V30 1178 H 109.88 0.892595 -1.25985 0
M  V30 1179 H 111.838 3.99747 -0.933415 0
M  V30 1180 H 110.499 3.13776 -0.142526 0
M  V30 1181 H 109.692 4.62551 -2.00155 0
M  V30 1182 H 109.294 2.9236 -2.33242 0
M  V30 1183 H 111.586 5.97656 -3.19083 0
M  V30 1184 H 112.529 5.38658 -4.59623 0
M  V30 1185 H 112.937 4.81135 -2.95245 0
M  V30 1186 N 112.336 1.25143 0.95797 0
M  V30 1187 C 113.585 1.0909 1.69654 0
M  V30 1188 C 113.898 -0.368548 1.92097 0
M  V30 1189 O 115.104 -0.649455 2.63618 0
M  V30 1190 C 113.56 1.90395 3.05414 0
M  V30 1191 C 113.168 3.4081 2.90779 0
M  V30 1192 C 114.912 1.82901 3.83076 0
M  V30 1193 C 112.819 4.14423 4.21909 0
M  V30 1194 H 111.749 0.404625 0.636235 0
M  V30 1195 H 114.4 1.4931 1.06672 0
M  V30 1196 H 112.782 1.42996 3.69281 0
M  V30 1197 H 113.956 3.95859 2.35865 0
M  V30 1198 H 112.271 3.49361 2.26575 0
M  V30 1199 H 114.868 2.35196 4.80195 0
M  V30 1200 H 115.211 0.796224 4.08615 0
M  V30 1201 H 115.744 2.28033 3.25954 0
M  V30 1202 H 112.483 5.18102 4.01561 0
M  V30 1203 H 112.003 3.64159 4.76601 0
M  V30 1204 H 113.682 4.21956 4.90471 0
M  V30 1205 N 113.814 -1.1601 1.06675 0
M  V30 1206 C 114.724 -2.24156 0.692179 0
M  V30 1207 C 115.74 -1.71507 -0.293513 0
M  V30 1208 O 116.916 -2.009 -0.141861 0
M  V30 1209 C 113.981 -3.46587 0.0884131 0
M  V30 1210 C 113.042 -4.14257 1.12646 0
M  V30 1211 C 112.275 -5.30844 0.551416 0
M  V30 1212 O 112.498 -5.66858 -0.634656 0
M  V30 1213 O 111.432 -5.87848 1.29298 0
M  V30 1214 H 115.258 -2.58513 1.59388 0
M  V30 1215 H 112.843 -1.23599 0.83926 0
M  V30 1216 H 114.725 -4.20679 -0.246361 0
M  V30 1217 H 113.4 -3.13994 -0.786712 0
M  V30 1218 H 112.307 -3.42118 1.51348 0
M  V30 1219 H 113.64 -4.50914 1.97325 0
M  V30 1220 N 115.292 -0.849877 -1.32721 0
M  V30 1221 C 116.541 -0.447175 -1.96681 0
M  V30 1222 C 116.854 1.00135 -1.68025 0
M  V30 1223 O 118.06 1.50926 -2.25685 0
M  V30 1224 C 116.516 -0.7487 -3.52026 0
M  V30 1225 C 116.124 -2.21264 -3.89546 0
M  V30 1226 C 117.868 -0.413487 -4.22481 0
M  V30 1227 C 115.775 -2.45763 -5.37917 0
M  V30 1228 H 114.705 -0.163486 -0.736063 0
M  V30 1229 H 117.356 -1.03999 -1.51183 0
M  V30 1230 H 115.738 -0.0853727 -3.95908 0
M  V30 1231 H 116.912 -2.91736 -3.56689 0
M  V30 1232 H 115.227 -2.5119 -3.32103 0
M  V30 1233 H 117.824 -0.574017 -5.3161 0
M  V30 1234 H 118.167 0.644492 -4.11281 0
M  V30 1235 H 118.7 -1.03251 -3.84167 0
M  V30 1236 H 115.439 -3.50168 -5.54132 0
M  V30 1237 H 114.959 -1.79864 -5.72197 0
M  V30 1238 H 116.638 -2.29471 -6.0494 0
M  V30 1239 N 116.77 1.45427 -0.607355 0
M  V30 1240 C 118.019 2.01452 -0.100036 0
M  V30 1241 C 118.332 1.48159 1.27704 0
M  V30 1242 O 119.538 1.96159 1.87707 0
M  V30 1243 C 117.994 3.59672 -0.128158 0
M  V30 1244 C 117.602 4.21962 -1.50507 0
M  V30 1245 C 119.346 4.23262 0.323932 0
M  V30 1246 C 117.253 5.72333 -1.48959 0
M  V30 1247 H 116.183 0.75325 -0.0336299 0
M  V30 1248 H 118.834 1.66901 -0.76265 0
M  V30 1249 H 117.216 3.91411 0.601105 0
M  V30 1250 H 118.39 4.01796 -2.25602 0
M  V30 1251 H 116.705 3.70565 -1.89923 0
M  V30 1252 H 119.302 5.33522 0.354691 0
M  V30 1253 H 119.645 3.93921 1.34656 0
M  V30 1254 H 120.178 3.96239 -0.352056 0
M  V30 1255 H 116.917 6.06373 -2.48981 0
M  V30 1256 H 116.437 5.94691 -0.781214 0
M  V30 1257 H 118.116 6.35525 -1.21313 0
M  V30 1258 N 118.248 0.346503 1.53744 0
M  V30 1259 C 119.488 -0.249413 2.02873 0
M  V30 1260 C 119.852 -1.47532 1.22876 0
M  V30 1261 O 121.053 -2.1456 1.61918 0
M  V30 1262 C 119.324 -0.552909 3.53097 0
M  V30 1263 S 120.883 -1.12521 4.24128 0
M  V30 1264 H 117.701 -0.074042 0.707134 0
M  V30 1265 H 120.303 0.48495 1.8939 0
M  V30 1266 H 119.007 0.347083 4.0893 0
M  V30 1267 H 118.538 -1.31686 3.70705 0
M  V30 1268 H 120.553 -2.41075 4.33702 0
M  V30 1269 N 119.726 -1.57421 0.075193 0
M  V30 1270 C 120.656 -2.15942 -0.888324 0
M  V30 1271 C 121.637 -1.08737 -1.30806 0
M  V30 1272 O 122.822 -1.36787 -1.37851 0
M  V30 1273 C 119.952 -2.72379 -2.1547 0
M  V30 1274 C 118.906 -3.8478 -1.87425 0
M  V30 1275 C 118.232 -4.27834 -3.20721 0
M  V30 1276 C 119.532 -5.08869 -1.17684 0
M  V30 1277 H 121.226 -2.96705 -0.400799 0
M  V30 1278 H 118.772 -1.42723 -0.191342 0
M  V30 1279 H 120.725 -3.11965 -2.83295 0
M  V30 1280 H 119.449 -1.88841 -2.6647 0
M  V30 1281 H 118.108 -3.45703 -1.22004 0
M  V30 1282 H 117.756 -3.41214 -3.6957 0
M  V30 1283 H 117.456 -5.03605 -3.02746 0
M  V30 1284 H 118.98 -4.70039 -3.89738 0
M  V30 1285 H 120.394 -5.4575 -1.75584 0
M  V30 1286 H 118.791 -5.8994 -1.09956 0
M  V30 1287 H 119.861 -4.84648 -0.156453 0
M  V30 1288 N 121.204 0.198386 -1.56346 0
M  V30 1289 C 122.453 0.917451 -1.79627 0
M  V30 1290 C 122.766 1.8456 -0.64784 0
M  V30 1291 O 123.972 2.60504 -0.764859 0
M  V30 1292 C 122.428 1.68175 -3.18191 0
M  V30 1293 C 122.036 0.798589 -4.40825 0
M  V30 1294 C 123.78 2.39065 -3.50782 0
M  V30 1295 C 121.687 1.56157 -5.70411 0
M  V30 1296 H 120.617 0.346317 -0.669762 0
M  V30 1297 H 123.268 0.170801 -1.82703 0
M  V30 1298 H 121.65 2.47216 -3.09354 0
M  V30 1299 H 122.824 0.0470665 -4.60776 0
M  V30 1300 H 121.139 0.200686 -4.15916 0
M  V30 1301 H 123.736 2.96692 -4.44835 0
M  V30 1302 H 124.079 3.13091 -2.74371 0
M  V30 1303 H 124.612 1.66993 -3.61052 0
M  V30 1304 H 121.351 0.864142 -6.49779 0
M  V30 1305 H 120.871 2.2871 -5.54483 0
M  V30 1306 H 122.55 2.11622 -6.11412 0
M  V30 1307 N 122.682 1.50554 0.465978 0
M  V30 1308 C 123.612 1.72722 1.57128 0
M  V30 1309 C 124.593 0.576294 1.6004 0
M  V30 1310 O 125.778 0.81598 1.76225 0
M  V30 1311 C 122.908 1.82605 2.95419 0
M  V30 1312 C 121.862 2.97835 3.07373 0
M  V30 1313 C 121.188 2.92867 4.47363 0
M  V30 1314 C 122.488 4.38265 2.84114 0
M  V30 1315 H 124.182 2.65267 1.38829 0
M  V30 1316 H 121.728 1.2765 0.666441 0
M  V30 1317 H 123.681 1.96698 3.72677 0
M  V30 1318 H 122.405 0.866858 3.14886 0
M  V30 1319 H 121.064 2.83401 2.3255 0
M  V30 1320 H 120.712 1.94783 4.63755 0
M  V30 1321 H 120.412 3.70227 4.56296 0
M  V30 1322 H 121.936 3.09015 5.26633 0
M  V30 1323 H 123.35 4.53198 3.51118 0
M  V30 1324 H 121.747 5.17115 3.04487 0
M  V30 1325 H 122.817 4.50281 1.7993 0
M  V30 1326 N 124.16 -0.719506 1.40217 0
M  V30 1327 C 125.107 -1.83359 1.40172 0
M  V30 1328 C 126.077 -1.64065 0.259206 0
M  V30 1329 O 127.262 -1.85254 0.456677 0
M  V30 1330 C 124.402 -3.2103 1.26624 0
M  V30 1331 C 123.515 -3.51923 2.50548 0
M  V30 1332 C 122.65 -4.79079 2.29471 0
M  V30 1333 C 121.689 -5.02863 3.48992 0
M  V30 1334 N 120.826 -6.2123 3.27135 0
M  V30 1335 H 125.666 -1.82733 2.35399 0
M  V30 1336 H 123.203 -0.892688 1.16917 0
M  V30 1337 H 125.161 -4.00524 1.16776 0
M  V30 1338 H 123.791 -3.20895 0.350176 0
M  V30 1339 H 122.843 -2.67014 2.70939 0
M  V30 1340 H 124.155 -3.6541 3.39525 0
M  V30 1341 H 123.309 -5.66582 2.16955 0
M  V30 1342 H 122.048 -4.67794 1.37913 0
M  V30 1343 H 121.053 -4.13816 3.6199 0
M  V30 1344 H 122.278 -5.16023 4.41472 0
M  V30 1345 H 120.224 -6.11204 2.38256 0
M  V30 1346 H 120.141 -6.35375 4.09675 0
M  V30 1347 H 121.409 -7.11532 3.18344 0
M  V30 1348 N 125.638 -1.25649 -0.95132 0
M  V30 1349 C 126.548 -1.08073 -2.08224 0
M  V30 1350 C 127.564 -0.0169666 -1.73992 0
M  V30 1351 O 128.74 -0.218593 -2.0021 0
M  V30 1352 C 125.805 -0.704922 -3.39458 0
M  V30 1353 C 124.866 -1.84699 -3.87537 0
M  V30 1354 C 124.099 -1.48902 -5.12508 0
M  V30 1355 O 124.322 -0.386156 -5.69091 0
M  V30 1356 O 123.256 -2.32033 -5.55378 0
M  V30 1357 H 127.082 -2.02924 -2.25954 0
M  V30 1358 H 124.667 -1.04618 -1.06656 0
M  V30 1359 H 126.549 -0.507609 -4.18332 0
M  V30 1360 H 125.224 0.214291 -3.2299 0
M  V30 1361 H 124.131 -2.09919 -3.09653 0
M  V30 1362 H 125.464 -2.74557 -4.08509 0
M  V30 1363 N 127.117 1.15442 -1.07289 0
M  V30 1364 C 128.365 1.85845 -0.794096 0
M  V30 1365 C 128.686 1.82692 0.681809 0
M  V30 1366 O 127.956 1.26741 1.49377 0
M  V30 1367 H 126.536 0.688089 -0.290763 0
M  V30 1368 H 129.198 1.39947 -1.3565 0
M  V30 1369 H 128.294 2.91001 -1.12804 0
M  V30 1370 N 128.595 0.856903 1.32268 0
M  V30 1371 C 129.872 0.382583 1.91822 0
M  V30 1372 C 130.252 -1.13407 1.78051 0
M  V30 1373 O 129.6 -1.95673 1.18001 0
M  V30 1374 C 129.81 0.849446 3.38505 0
M  V30 1375 C 131.158 0.867936 4.15634 0
M  V30 1376 O 132.182 0.794232 3.47232 0
M  V30 1377 O 131.041 0.972286 5.37781 0
M  V30 1378 H 128.135 0.112014 0.819379 0
M  V30 1379 H 130.681 0.943952 1.41024 0
M  V30 1380 H 129.453 1.89267 3.42482 0
M  V30 1381 H 129.076 0.265652 3.96712 0
M  V30 1382 N 130.073 -1.45103 0.615059 0
M  V30 1383 C 131.484 -1.85654 0.197383 0
M  V30 1384 C 131.835 -1.51433 -1.24749 0
M  V30 1385 O 130.96 -0.944608 -1.94695 0
M  V30 1386 C 131.555 -3.36972 0.351448 0
M  V30 1387 C 130.114 -3.76398 -0.011593 0
M  V30 1388 C 129.261 -2.69024 0.672394 0
M  V30 1389 H 132.212 -1.35797 0.821263 0
M  V30 1390 H 132.233 -3.78239 -0.414227 0
M  V30 1391 H 131.745 -3.61847 1.40314 0
M  V30 1392 H 129.846 -3.5714 -1.06217 0
M  V30 1393 H 129.959 -4.77532 0.387265 0
M  V30 1394 H 128.323 -2.54465 0.109284 0
M  V30 1395 H 129.106 -2.96735 1.72636 0
M  V30 1396 N 131.551 -0.354651 -1.53558 0
M  V30 1397 C 132.776 0.242153 -2.05981 0
M  V30 1398 C 133.201 1.42553 -1.2272 0
M  V30 1399 O 132.559 1.79656 -0.243604 0
M  V30 1400 C 132.607 0.624367 -3.55154 0
M  V30 1401 O 131.711 1.72301 -3.74681 0
M  V30 1402 H 131.052 0.0378432 -0.662921 0
M  V30 1403 H 133.582 -0.512087 -1.98088 0
M  V30 1404 H 133.592 0.898433 -3.97985 0
M  V30 1405 H 132.267 -0.240989 -4.15201 0
M  V30 1406 H 130.844 1.44535 -3.4375 0
M  V30 1407 N 133.029 1.57378 -0.0835403 0
M  V30 1408 C 134.275 1.95025 0.577664 0
M  V30 1409 C 134.63 0.964049 1.66505 0
M  V30 1410 O 133.923 -0.0118235 1.91596 0
M  V30 1411 C 134.117 3.37063 1.1884 0
M  V30 1412 C 133.946 4.49409 0.16171 0
M  V30 1413 C 132.716 5.04642 -0.257756 0
M  V30 1414 C 134.914 5.10722 -0.605634 0
M  V30 1415 N 132.896 6.00537 -1.27393 0
M  V30 1416 C 134.267 6.02225 -1.47395 0
M  V30 1417 C 136.322 4.93501 -0.660418 0
M  V30 1418 C 135.025 6.78355 -2.39221 0
M  V30 1419 C 137.051 5.70283 -1.56623 0
M  V30 1420 C 136.413 6.61444 -2.4222 0
M  V30 1421 H 132.512 0.760512 0.182058 0
M  V30 1422 H 135.096 1.94013 -0.163419 0
M  V30 1423 H 133.267 3.3879 1.89936 0
M  V30 1424 H 134.999 3.61917 1.81103 0
M  V30 1425 H 131.754 4.73428 0.127702 0
M  V30 1426 H 132.178 6.53184 -1.77987 0
M  V30 1427 H 136.82 4.22798 -0.0128221 0
M  V30 1428 H 134.538 7.48327 -3.05011 0
M  V30 1429 H 138.124 5.58976 -1.61361 0
M  V30 1430 H 137.004 7.1982 -3.11174 0
M  V30 1431 N 134.507 -0.190092 1.56449 0
M  V30 1432 C 135.756 -0.907912 1.80111 0
M  V30 1433 C 136.069 -1.84214 0.657619 0
M  V30 1434 O 137.275 -2.60094 0.778663 0
M  V30 1435 C 135.731 -1.66485 3.19078 0
M  V30 1436 C 135.339 -0.7752 4.41242 0
M  V30 1437 C 137.083 -2.37201 3.52045 0
M  V30 1438 C 134.99 -1.53129 5.71231 0
M  V30 1439 H 133.92 -0.34276 0.671589 0
M  V30 1440 H 136.571 -0.161109 1.82791 0
M  V30 1441 H 134.953 -2.45572 3.10661 0
M  V30 1442 H 136.127 -0.0226298 4.60794 0
M  V30 1443 H 134.442 -0.178627 4.16017 0
M  V30 1444 H 137.039 -2.94329 4.46402 0
M  V30 1445 H 137.382 -3.11632 2.76028 0
M  V30 1446 H 137.915 -1.65075 3.61932 0
M  V30 1447 H 134.654 -0.82967 6.50228 0
M  V30 1448 H 134.174 -2.25767 5.55688 0
M  V30 1449 H 135.853 -2.08377 6.12526 0
M  V30 1450 N 135.985 -1.50799 -0.457987 0
M  V30 1451 C 137.401 -1.38515 -0.792819 0
M  V30 1452 C 137.601 -0.451409 -1.96379 0
M  V30 1453 O 136.657 0.10112 -2.52297 0
M  V30 1454 C 137.97 -2.80149 -1.09258 0
M  V30 1455 C 139.518 -2.89156 -1.19825 0
M  V30 1456 C 139.993 -4.31651 -1.53106 0
M  V30 1457 N 141.484 -4.34662 -1.60072 0
M  V30 1458 C 142.219 -5.41928 -1.87354 0
M  V30 1459 N 141.715 -6.59384 -2.12568 0
M  V30 1460 N 143.508 -5.29385 -1.88965 0
M  V30 1461 H 135.659 -2.10073 0.313511 0
M  V30 1462 H 137.922 -0.944803 0.0777862 0
M  V30 1463 H 137.628 -3.50374 -0.305084 0
M  V30 1464 H 137.502 -3.18204 -2.02549 0
M  V30 1465 H 139.889 -2.19141 -1.97639 0
M  V30 1466 H 139.97 -2.54626 -0.244821 0
M  V30 1467 H 139.614 -5.02208 -0.758266 0
M  V30 1468 H 139.544 -4.63678 -2.49621 0
M  V30 1469 H 142.035 -3.49973 -1.42573 0
M  V30 1470 H 142.348 -7.36934 -2.32696 0
M  V30 1471 H 140.693 -6.62535 -2.09933 0
M  V30 1472 H 143.884 -4.36616 -1.68772 0
M  V30 1473 H 144.057 -6.13066 -2.09891 0
M  V30 1474 N 137.463 0.71206 -1.40597 0
M  V30 1475 C 138.688 1.50617 -1.42581 0
M  V30 1476 C 139.113 1.88079 -0.0282102 0
M  V30 1477 O 138.471 1.53511 0.964579 0
M  V30 1478 C 138.519 2.7557 -2.3258 0
M  V30 1479 O 137.623 3.72414 -1.77148 0
M  V30 1480 H 136.964 0.453966 -0.484573 0
M  V30 1481 H 139.494 0.876649 -1.84868 0
M  V30 1482 H 139.504 3.2406 -2.47889 0
M  V30 1483 H 138.179 2.47639 -3.34138 0
M  V30 1484 H 136.756 3.31276 -1.71204 0
M  V30 1485 N 138.941 1.26152 0.944643 0
M  V30 1486 C 140.187 1.11657 1.69294 0
M  V30 1487 C 140.52 -0.339926 1.91202 0
M  V30 1488 O 139.795 -1.24994 1.49019 0
M  V30 1489 C 140.078 1.88236 3.06984 0
M  V30 1490 C 139.931 3.41772 2.92424 0
M  V30 1491 C 141.25 1.67343 4.07043 0
M  V30 1492 H 138.369 0.407004 0.614424 0
M  V30 1493 H 141.011 1.55106 1.09737 0
M  V30 1494 H 139.161 1.51308 3.57824 0
M  V30 1495 H 140.833 3.88433 2.48832 0
M  V30 1496 H 139.076 3.68974 2.28124 0
M  V30 1497 H 139.747 3.90579 3.90067 0
M  V30 1498 H 142.223 1.99509 3.65151 0
M  V30 1499 H 141.099 2.23346 5.01406 0
M  V30 1500 H 141.36 0.617158 4.37771 0
M  V30 1501 N 140.419 -1.14872 1.07899 0
M  V30 1502 C 141.83 -1.67367 0.827363 0
M  V30 1503 C 142.181 -1.85236 -0.646693 0
M  V30 1504 O 141.306 -1.55974 -1.50004 0
M  V30 1505 C 141.901 -3.04016 1.49532 0
M  V30 1506 C 140.46 -3.53566 1.29106 0
M  V30 1507 C 139.607 -2.29161 1.56143 0
M  V30 1508 H 142.558 -0.990083 1.24028 0
M  V30 1509 H 142.579 -3.69219 0.919643 0
M  V30 1510 H 142.091 -2.90978 2.56814 0
M  V30 1511 H 140.192 -3.71835 0.238713 0
M  V30 1512 H 140.305 -4.34661 2.01511 0
M  V30 1513 H 138.669 -2.34978 0.982717 0
M  V30 1514 H 139.452 -2.18705 2.64619 0
M  V30 1515 N 141.898 -0.863906 -1.31812 0
M  V30 1516 C 143.147 -0.46801 -1.96195 0
M  V30 1517 C 143.46 0.983474 -1.69077 0
M  V30 1518 O 144.666 1.48523 -2.27273 0
M  V30 1519 C 143.122 -0.785995 -3.51212 0
M  V30 1520 C 142.73 -2.25383 -3.87178 0
M  V30 1521 C 144.474 -0.458274 -4.22019 0
M  V30 1522 C 142.381 -2.51455 -5.3528 0
M  V30 1523 H 141.311 -0.171283 -0.734287 0
M  V30 1524 H 143.962 -1.05597 -1.50072 0
M  V30 1525 H 142.344 -0.127359 -3.95795 0
M  V30 1526 H 143.518 -2.95502 -3.53575 0
M  V30 1527 H 141.833 -2.54698 -3.2942 0
M  V30 1528 H 144.43 -0.630369 -5.30971 0
M  V30 1529 H 144.773 0.600834 -4.11941 0
M  V30 1530 H 145.306 -1.07319 -3.8305 0
M  V30 1531 H 142.045 -3.56025 -5.50387 0
M  V30 1532 H 141.565 -1.85923 -5.70257 0
M  V30 1533 H 143.244 -2.35874 -6.02472 0
M  V30 1534 N 143.376 1.44774 -0.622745 0
M  V30 1535 C 144.622 2.02968 -0.13257 0
M  V30 1536 C 144.977 1.48047 1.22881 0
M  V30 1537 O 144.27 0.651625 1.80179 0
M  V30 1538 C 144.464 3.57364 -0.0508323 0
M  V30 1539 C 144.293 4.27262 -1.40275 0
M  V30 1540 C 143.063 4.64577 -1.98737 0
M  V30 1541 C 145.261 4.58248 -2.3348 0
M  V30 1542 N 143.243 5.19404 -3.27251 0
M  V30 1543 C 144.614 5.14069 -3.46603 0
M  V30 1544 C 146.669 4.40195 -2.32664 0
M  V30 1545 C 145.372 5.53738 -4.59093 0
M  V30 1546 C 147.398 4.80907 -3.44213 0
M  V30 1547 C 146.76 5.36834 -4.56058 0
M  V30 1548 H 142.859 0.776541 -0.0922354 0
M  V30 1549 H 145.443 1.76385 -0.82441 0
M  V30 1550 H 143.614 3.83576 0.610265 0
M  V30 1551 H 145.346 4.02219 0.447397 0
M  V30 1552 H 142.101 4.48622 -1.51774 0
M  V30 1553 H 142.525 5.51301 -3.92933 0
M  V30 1554 H 147.167 3.96257 -1.47446 0
M  V30 1555 H 144.885 5.96635 -5.45025 0
M  V30 1556 H 148.471 4.68659 -3.44747 0
M  V30 1557 H 147.351 5.67755 -5.40947 0
M  V30 1558 N 144.854 0.36279 1.53368 0
M  V30 1559 C 145.764 -0.492994 2.29362 0
M  V30 1560 C 146.78 -1.09507 1.35219 0
M  V30 1561 O 147.956 -1.10662 1.68273 0
M  V30 1562 C 145.021 -1.61855 3.066 0
M  V30 1563 C 144.082 -1.04429 4.16405 0
M  V30 1564 C 143.315 -2.11621 4.89951 0
M  V30 1565 O 143.538 -3.32684 4.63333 0
M  V30 1566 O 142.472 -1.74835 5.75948 0
M  V30 1567 H 146.298 0.125331 3.03441 0
M  V30 1568 H 143.883 0.127253 1.48857 0
M  V30 1569 H 145.765 -2.27302 3.54841 0
M  V30 1570 H 144.44 -2.22233 2.3536 0
M  V30 1571 H 143.347 -0.353819 3.72423 0
M  V30 1572 H 144.68 -0.485113 4.89804 0
M  V30 1573 N 146.332 -1.57332 0.0918853 0
M  V30 1574 C 147.748 -1.57389 -0.264766 0
M  V30 1575 C 147.948 -1.10281 -1.68643 0
M  V30 1576 O 147.004 -0.777801 -2.40222 0
M  V30 1577 C 148.317 -3.00648 -0.0561195 0
M  V30 1578 C 149.865 -3.12754 -0.124116 0
M  V30 1579 C 150.34 -4.57965 0.0564972 0
M  V30 1580 N 151.831 -4.632 0.00155611 0
M  V30 1581 C 152.566 -5.73281 0.116598 0
M  V30 1582 N 152.062 -6.92208 0.286294 0
M  V30 1583 N 153.855 -5.6207 0.0580973 0
M  V30 1584 H 146.006 -1.86262 1.02079 0
M  V30 1585 H 148.269 -0.859579 0.399786 0
M  V30 1586 H 147.975 -3.393 0.925669 0
M  V30 1587 H 147.849 -3.68623 -0.799823 0
M  V30 1588 H 150.236 -2.73976 -1.09641 0
M  V30 1589 H 150.317 -2.47377 0.651024 0
M  V30 1590 H 149.961 -4.97436 1.02564 0
M  V30 1591 H 149.891 -5.21399 -0.738297 0
M  V30 1592 H 152.382 -3.77686 -0.127192 0
M  V30 1593 H 152.695 -7.71934 0.365676 0
M  V30 1594 H 151.04 -6.94254 0.32192 0
M  V30 1595 H 154.231 -4.68043 -0.0733204 0
M  V30 1596 H 154.404 -6.47824 0.151203 0
M  V30 1597 N 147.81 0.181792 -1.56548 0
M  V30 1598 C 148.773 1.20894 -1.94724 0
M  V30 1599 C 149.773 1.37738 -0.829747 0
M  V30 1600 O 150.963 1.35323 -1.09697 0
M  V30 1601 C 148.095 2.57593 -2.23291 0
M  V30 1602 H 149.288 0.882275 -2.86629 0
M  V30 1603 H 146.841 0.423838 -1.50444 0
M  V30 1604 H 147.576 2.95291 -1.34067 0
M  V30 1605 H 147.361 2.46735 -3.04736 0
M  V30 1606 H 148.851 3.31637 -2.53785 0
M  V30 1607 N 149.288 1.51039 0.449983 0
M  V30 1608 C 150.699 1.557 1.03026 0
M  V30 1609 C 151.05 0.372939 1.92623 0
M  V30 1610 O 150.175 -0.511771 2.10261 0
M  V30 1611 C 150.77 2.82171 1.87523 0
M  V30 1612 C 149.329 2.89444 2.40622 0
M  V30 1613 C 148.476 2.50228 1.19504 0
M  V30 1614 H 151.427 1.56999 0.231745 0
M  V30 1615 H 151.448 2.65219 2.72835 0
M  V30 1616 H 150.96 3.68331 1.22286 0
M  V30 1617 H 149.061 2.07685 3.0935 0
M  V30 1618 H 149.174 3.92816 2.74285 0
M  V30 1619 H 147.538 2.03139 1.53644 0
M  V30 1620 H 148.321 3.38719 0.558972 0
M  V30 1621 N 150.766 -0.704594 1.40972 0
M  V30 1622 C 152.012 -1.46546 1.41053 0
M  V30 1623 C 152.367 -1.92393 0.0159714 0
M  V30 1624 O 151.66 -1.66017 -0.956506 0
M  V30 1625 C 151.854 -2.698 2.34399 0
M  V30 1626 C 151.683 -2.36008 3.82793 0
M  V30 1627 C 150.453 -2.26812 4.51536 0
M  V30 1628 C 152.651 -1.99565 4.74003 0
M  V30 1629 N 150.633 -1.8581 5.85105 0
M  V30 1630 C 152.004 -1.69251 5.96451 0
M  V30 1631 C 154.059 -1.86296 4.61734 0
M  V30 1632 C 152.762 -1.27003 7.07999 0
M  V30 1633 C 154.788 -1.45452 5.73234 0
M  V30 1634 C 154.15 -1.16043 6.94776 0
M  V30 1635 H 150.249 -0.533896 0.571383 0
M  V30 1636 H 152.833 -0.816061 1.76773 0
M  V30 1637 H 151.004 -3.32473 2.00789 0
M  V30 1638 H 152.736 -3.36214 2.25261 0
M  V30 1639 H 149.491 -2.44913 4.05357 0
M  V30 1640 H 149.915 -1.67817 6.55871 0
M  V30 1641 H 154.557 -2.0769 3.68273 0
M  V30 1642 H 152.275 -1.04353 8.01334 0
M  V30 1643 H 155.861 -1.35748 5.65742 0
M  V30 1644 H 154.741 -0.84915 7.79589 0
M  V30 1645 N 152.244 -1.26651 -0.937939 0
M  V30 1646 C 153.484 -1.13611 -1.69917 0
M  V30 1647 C 153.848 0.314687 -1.89404 0
M  V30 1648 O 155.049 0.567285 -2.62746 0
M  V30 1649 C 153.32 -1.88742 -3.03498 0
M  V30 1650 S 154.879 -1.91794 -3.94665 0
M  V30 1651 H 151.697 -0.405767 -0.583844 0
M  V30 1652 H 154.299 -1.60416 -1.11745 0
M  V30 1653 H 153.003 -2.9336 -2.86999 0
M  V30 1654 H 152.534 -1.42391 -3.66727 0
M  V30 1655 H 154.549 -1.00698 -4.85875 0
M  V30 1656 N 153.722 1.14298 -1.08507 0
M  V30 1657 C 154.632 2.23027 -0.727753 0
M  V30 1658 C 155.648 1.71952 0.26619 0
M  V30 1659 O 156.824 2.011 0.109882 0
M  V30 1660 C 153.889 3.46403 -0.143541 0
M  V30 1661 C 152.95 4.12413 -1.19223 0
M  V30 1662 C 152.183 5.29899 -0.635798 0
M  V30 1663 O 152.406 5.67796 0.544393 0
M  V30 1664 O 151.34 5.85717 -1.38634 0
M  V30 1665 H 155.166 2.55945 -1.63481 0
M  V30 1666 H 152.751 1.22248 -0.858817 0
M  V30 1667 H 154.633 4.21018 0.179404 0
M  V30 1668 H 153.308 3.15206 0.736659 0
M  V30 1669 H 152.215 3.39667 -1.56772 0
M  V30 1670 H 153.548 4.47718 -2.04474 0
M  V30 1671 N 155.201 0.870884 1.31352 0
M  V30 1672 C 156.429 0.49677 2.00848 0
M  V30 1673 C 156.844 -0.910998 1.65367 0
M  V30 1674 O 156.201 -1.59696 0.883374 0
M  V30 1675 C 156.252 0.645308 3.55694 0
M  V30 1676 O 155.973 1.99764 3.89905 0
M  V30 1677 C 157.474 0.272326 4.42463 0
M  V30 1678 H 154.694 0.193462 0.642506 0
M  V30 1679 H 157.238 1.1723 1.67563 0
M  V30 1680 H 155.393 0.0173176 3.87396 0
M  V30 1681 H 155.807 2.00607 4.84621 0
M  V30 1682 H 157.281 0.427208 5.50344 0
M  V30 1683 H 157.758 -0.788587 4.32062 0
M  V30 1684 H 158.364 0.876054 4.1618 0
M  V30 1685 N 156.679 -1.44442 0.630414 0
M  V30 1686 C 157.928 -2.01267 0.132073 0
M  V30 1687 C 158.241 -1.50172 -1.25331 0
M  V30 1688 O 159.447 -1.9912 -1.84562 0
M  V30 1689 C 157.903 -3.59422 0.185362 0
M  V30 1690 C 157.511 -4.19514 1.57201 0
M  V30 1691 C 159.255 -4.23724 -0.256553 0
M  V30 1692 C 157.162 -5.69891 1.58045 0
M  V30 1693 H 156.092 -0.752619 0.0456092 0
M  V30 1694 H 158.743 -1.65666 0.789106 0
M  V30 1695 H 157.125 -3.92318 -0.538759 0
M  V30 1696 H 158.299 -3.98156 2.31966 0
M  V30 1697 H 156.614 -3.67496 1.95795 0
M  V30 1698 H 159.211 -5.34019 -0.269767 0
M  V30 1699 H 159.554 -3.96013 -1.28372 0
M  V30 1700 H 160.087 -3.95629 0.41505 0
M  V30 1701 H 156.826 -6.02336 2.58597 0
M  V30 1702 H 156.346 -5.93373 0.875725 0
M  V30 1703 H 158.025 -6.33515 1.31408 0
M  V30 1704 N 158.157 -0.370918 -1.53173 0
M  V30 1705 C 159.403 0.217423 -2.01631 0
M  V30 1706 C 159.736 1.47983 -1.25756 0
M  V30 1707 O 159.011 1.91274 -0.352764 0
M  V30 1708 C 159.294 0.503982 -3.56556 0
M  V30 1709 C 159.147 -0.77243 -4.43118 0
M  V30 1710 C 160.466 1.30234 -4.20389 0
M  V30 1711 H 157.585 0.0775486 -0.732909 0
M  V30 1712 H 160.227 -0.496863 -1.83388 0
M  V30 1713 H 158.377 1.11248 -3.72231 0
M  V30 1714 H 160.049 -1.4098 -4.39229 0
M  V30 1715 H 158.292 -1.39167 -4.10871 0
M  V30 1716 H 158.963 -0.526815 -5.4948 0
M  V30 1717 H 161.439 0.787546 -4.08579 0
M  V30 1718 H 160.315 1.47158 -5.28806 0
M  V30 1719 H 160.576 2.31237 -3.76805 0
M  V30 1720 N 159.635 1.57281 -0.100228 0
M  V30 1721 C 160.883 1.94153 0.561157 0
M  V30 1722 C 161.204 0.983157 1.68401 0
M  V30 1723 O 160.474 0.0361132 1.95867 0
M  V30 1724 H 159.054 0.716791 0.210283 0
M  V30 1725 H 161.716 1.94202 -0.164765 0
M  V30 1726 H 160.812 2.96709 0.968008 0
M  V30 1727 N 161.113 -0.173488 1.56642 0
M  V30 1728 C 162.076 -1.19859 1.95362 0
M  V30 1729 C 163.076 -1.37296 0.83704 0
M  V30 1730 O 164.266 -1.34739 1.10413 0
M  V30 1731 C 161.398 -2.56405 2.24654 0
M  V30 1732 H 162.591 -0.867062 2.87092 0
M  V30 1733 H 160.144 -0.415853 1.50666 0
M  V30 1734 H 160.879 -2.94576 1.35631 0
M  V30 1735 H 160.664 -2.45115 3.06041 0
M  V30 1736 H 162.154 -3.30287 2.5554 0
M  V30 1737 N 162.591 -1.51276 -0.441967 0
M  V30 1738 C 163.838 -1.63715 -1.19179 0
M  V30 1739 C 164.166 -0.351175 -1.91303 0
M  V30 1740 O 163.421 0.664524 -1.84072 0
M  V30 1741 C 163.72 -2.78746 -2.23686 0
M  V30 1742 C 163.386 -4.18189 -1.68607 0
M  V30 1743 C 162.048 -4.56125 -1.53308 0
M  V30 1744 C 164.4 -5.05222 -1.28062 0
M  V30 1745 C 161.728 -5.78804 -0.959317 0
M  V30 1746 C 164.08 -6.28476 -0.721162 0
M  V30 1747 C 162.744 -6.65188 -0.55504 0
M  V30 1748 H 162.014 -0.599076 -0.436106 0
M  V30 1749 H 164.661 -1.85296 -0.48351 0
M  V30 1750 H 162.966 -2.51369 -3.00535 0
M  V30 1751 H 164.663 -2.8557 -2.81515 0
M  V30 1752 H 161.253 -3.88277 -1.8149 0
M  V30 1753 H 165.437 -4.76524 -1.38704 0
M  V30 1754 H 160.693 -6.05899 -0.81833 0
M  V30 1755 H 164.867 -6.95259 -0.398458 0
M  V30 1756 H 162.494 -7.60123 -0.108311 0
M  V30 1757 N 164.069 0.697108 -1.41344 0
M  V30 1758 C 165.294 1.49096 -1.44171 0
M  V30 1759 C 165.719 1.88038 -0.0481568 0
M  V30 1760 O 165.077 1.54525 0.948243 0
M  V30 1761 C 165.125 2.73088 -2.3549 0
M  V30 1762 O 164.229 3.70514 -1.81088 0
M  V30 1763 H 163.57 0.448801 -0.489361 0
M  V30 1764 H 166.1 0.856992 -1.85787 0
M  V30 1765 H 166.11 3.21413 -2.51312 0
M  V30 1766 H 164.785 2.44081 -3.36745 0
M  V30 1767 H 163.362 3.29441 -1.74708 0
M  V30 1768 N 165.547 1.27147 0.931209 0
M  V30 1769 C 166.477 1.12081 2.04842 0
M  V30 1770 C 167.458 0.0232364 1.70084 0
M  V30 1771 O 168.643 0.197085 1.93197 0
M  V30 1772 C 165.773 0.76354 3.38803 0
M  V30 1773 C 164.727 1.81396 3.87659 0
M  V30 1774 C 164.053 1.31075 5.18385 0
M  V30 1775 C 165.353 3.21739 4.11438 0
M  V30 1776 H 167.047 2.05537 2.17703 0
M  V30 1777 H 164.593 0.989603 1.04608 0
M  V30 1778 H 166.546 0.644982 4.16435 0
M  V30 1779 H 165.27 -0.206727 3.25945 0
M  V30 1780 H 163.929 1.92136 3.12217 0
M  V30 1781 H 163.577 0.330037 5.01916 0
M  V30 1782 H 163.277 2.013 5.52044 0
M  V30 1783 H 164.801 1.20506 5.98591 0
M  V30 1784 H 166.215 3.14019 4.79651 0
M  V30 1785 H 164.612 3.89644 4.56397 0
M  V30 1786 H 165.682 3.67054 3.16859 0
M  V30 1787 N 167.025 -1.13721 1.09112 0
M  V30 1788 C 168.436 -1.6648 0.845068 0
M  V30 1789 C 168.787 -1.85911 -0.62701 0
M  V30 1790 O 167.912 -1.57556 -1.48341 0
M  V30 1791 C 168.507 -3.02413 1.52748 0
M  V30 1792 C 167.066 -3.52176 1.32849 0
M  V30 1793 C 166.213 -2.27492 1.58564 0
M  V30 1794 H 169.164 -0.976872 1.25072 0
M  V30 1795 H 169.185 -3.68223 0.958752 0
M  V30 1796 H 168.697 -2.88238 2.59885 0
M  V30 1797 H 166.798 -3.7156 0.278137 0
M  V30 1798 H 166.911 -4.32499 2.0611 0
M  V30 1799 H 165.275 -2.33923 1.00758 0
M  V30 1800 H 166.058 -2.15886 2.66924 0
M  V30 1801 N 168.503 -0.877838 -1.30888 0
M  V30 1802 C 169.78 -0.413052 -1.91189 0
M  V30 1803 C 170.16 1.1056 -1.79832 0
M  V30 1804 O 169.508 1.93771 -1.21099 0
M  V30 1805 C 169.718 -0.903191 -3.3711 0
M  V30 1806 C 171.066 -0.93395 -4.14201 0
M  V30 1807 O 172.09 -0.849373 -3.45925 0
M  V30 1808 O 170.949 -1.05772 -5.36167 0
M  V30 1809 H 168.043 -0.125035 -0.817493 0
M  V30 1810 H 170.589 -0.966269 -1.39504 0
M  V30 1811 H 169.361 -1.94692 -3.39427 0
M  V30 1812 H 168.984 -0.328732 -3.96239 0
M  V30 1813 N 169.982 1.44106 -0.638065 0
M  V30 1814 C 170.914 2.28976 0.101205 0
M  V30 1815 C 171.927 1.4167 0.802088 0
M  V30 1816 O 173.116 1.65755 0.662375 0
M  V30 1817 C 170.216 3.18217 1.16581 0
M  V30 1818 C 169.389 4.33978 0.546066 0
M  V30 1819 C 168.448 5.04202 1.50554 0
M  V30 1820 O 167.474 5.59986 1.01999 0
M  V30 1821 N 168.676 5.06296 2.8398 0
M  V30 1822 H 171.441 2.93064 -0.627186 0
M  V30 1823 H 169.002 1.54629 -0.479731 0
M  V30 1824 H 170.994 3.62061 1.80815 0
M  V30 1825 H 169.564 2.55833 1.79634 0
M  V30 1826 H 168.784 3.93239 -0.275046 0
M  V30 1827 H 170.072 5.08675 0.112793 0
M  V30 1828 H 169.47 4.62319 3.26002 0
M  V30 1829 H 168.027 5.53907 3.43556 0
M  V30 1830 N 171.46 0.379036 1.52974 0
M  V30 1831 C 172.69 -0.20649 2.05566 0
M  V30 1832 C 173.098 -1.41906 1.25137 0
M  V30 1833 O 172.441 -1.81421 0.288464 0
M  V30 1834 C 172.503 -0.651086 3.53555 0
M  V30 1835 C 172.167 0.446626 4.54812 0
M  V30 1836 C 173.164 1.30079 5.03364 0
M  V30 1837 C 170.849 0.610719 4.98573 0
M  V30 1838 C 172.843 2.30426 5.94292 0
M  V30 1839 C 170.53 1.61754 5.89304 0
M  V30 1840 C 171.528 2.46274 6.37054 0
M  V30 1841 O 171.216 3.45237 7.25994 0
M  V30 1842 H 170.948 -0.0372381 0.674974 0
M  V30 1843 H 173.502 0.539718 1.98182 0
M  V30 1844 H 171.732 -1.44911 3.58522 0
M  V30 1845 H 173.421 -1.16112 3.88938 0
M  V30 1846 H 174.187 1.18527 4.70294 0
M  V30 1847 H 170.066 -0.0374044 4.60985 0
M  V30 1848 H 173.61 2.96432 6.31485 0
M  V30 1849 H 169.507 1.73348 6.21788 0
M  V30 1850 H 170.275 3.41124 7.44027 0
M  V30 1851 N 172.938 -1.57226 0.108567 0
M  V30 1852 C 174.163 -1.99604 -0.563303 0
M  V30 1853 C 174.588 -0.987563 -1.6009 0
M  V30 1854 O 173.946 0.0421687 -1.81251 0
M  V30 1855 C 173.994 -3.40902 -1.17552 0
M  V30 1856 O 173.098 -3.42896 -2.2912 0
M  V30 1857 H 172.439 -0.648704 -0.1417 0
M  V30 1858 H 174.969 -2.03679 0.193961 0
M  V30 1859 H 174.979 -3.78886 -1.51357 0
M  V30 1860 H 173.654 -4.1382 -0.415445 0
M  V30 1861 H 172.231 -3.1672 -1.96832 0
M  V30 1862 N 174.416 0.165178 -1.56732 0
M  V30 1863 C 175.827 0.727046 -1.71962 0
M  V30 1864 C 176.178 1.82508 -0.720078 0
M  V30 1865 O 175.303 2.16082 0.117242 0
M  V30 1866 C 175.898 1.32559 -3.11791 0
M  V30 1867 C 174.457 1.83422 -3.28684 0
M  V30 1868 C 173.604 0.715567 -2.67908 0
M  V30 1869 H 176.555 -0.0602896 -1.58585 0
M  V30 1870 H 176.576 2.19533 -3.10782 0
M  V30 1871 H 176.088 0.526195 -3.84516 0
M  V30 1872 H 174.189 2.65986 -2.60926 0
M  V30 1873 H 174.302 1.97543 -4.36478 0
M  V30 1874 H 172.666 1.13758 -2.27884 0
M  V30 1875 H 173.449 -0.0720836 -3.43224 0
M  V30 1876 N 175.894 1.51508 0.433938 0
M  V30 1877 C 177.31 1.39759 0.770682 0
M  V30 1878 C 177.51 0.482594 1.95636 0
M  V30 1879 O 176.566 -0.0609691 2.52426 0
M  V30 1880 C 177.879 2.81851 1.04787 0
M  V30 1881 C 179.427 2.91025 1.1521 0
M  V30 1882 C 179.902 4.34032 1.46219 0
M  V30 1883 N 181.393 4.37154 1.53136 0
M  V30 1884 C 182.128 5.4484 1.78709 0
M  V30 1885 N 181.624 6.62682 2.02051 0
M  V30 1886 N 183.417 5.32324 1.80519 0
M  V30 1887 H 175.568 2.09548 -0.346892 0
M  V30 1888 H 177.831 0.943446 -0.0928074 0
M  V30 1889 H 177.537 3.50815 0.249304 0
M  V30 1890 H 177.411 3.21386 1.97461 0
M  V30 1891 H 179.798 2.22257 1.94128 0
M  V30 1892 H 179.879 2.54983 0.204281 0
M  V30 1893 H 179.523 5.03351 0.678274 0
M  V30 1894 H 179.453 4.6759 2.42212 0
M  V30 1895 H 181.944 3.52197 1.36987 0
M  V30 1896 H 182.257 7.40543 2.20943 0
M  V30 1897 H 180.602 6.65791 1.99366 0
M  V30 1898 H 183.793 4.39246 1.61805 0
M  V30 1899 H 183.966 6.16328 2.00111 0
M  V30 1900 N 177.372 -0.689602 1.41712 0
M  V30 1901 C 178.302 -1.81577 1.46806 0
M  V30 1902 C 179.283 -1.66945 0.326105 0
M  V30 1903 O 180.468 -1.86588 0.538377 0
M  V30 1904 C 177.598 -3.19762 1.35535 0
M  V30 1905 C 176.552 -3.49107 2.47605 0
M  V30 1906 C 175.878 -4.86711 2.21397 0
M  V30 1907 C 177.178 -3.47483 3.89939 0
M  V30 1908 H 178.872 -1.7757 2.41058 0
M  V30 1909 H 176.418 -0.852887 1.16025 0
M  V30 1910 H 178.371 -3.98263 1.3771 0
M  V30 1911 H 177.095 -3.24409 0.377708 0
M  V30 1912 H 175.754 -2.72959 2.44722 0
M  V30 1913 H 175.402 -4.8799 1.21961 0
M  V30 1914 H 175.102 -5.0731 2.96497 0
M  V30 1915 H 176.626 -5.67515 2.25297 0
M  V30 1916 H 178.04 -4.1598 3.94505 0
M  V30 1917 H 176.437 -3.79615 4.64771 0
M  V30 1918 H 177.507 -2.46341 4.17665 0
M  V30 1919 N 178.85 -1.27639 -0.924453 0
M  V30 1920 C 179.783 -1.04966 -2.02626 0
M  V30 1921 C 180.761 0.0309505 -1.62571 0
M  V30 1922 O 181.945 -0.114846 -1.8815 0
M  V30 1923 C 179.072 -0.59292 -3.3347 0
M  V30 1924 C 178.118 -1.66858 -3.92506 0
M  V30 1925 S 178.951 -3.2619 -4.24689 0
M  V30 1926 C 180.107 -2.82325 -5.58609 0
M  V30 1927 H 180.34 -1.98252 -2.21547 0
M  V30 1928 H 177.873 -1.11506 -1.06798 0
M  V30 1929 H 179.831 -0.336086 -4.09122 0
M  V30 1930 H 178.492 0.319939 -3.12466 0
M  V30 1931 H 177.685 -1.30038 -4.86935 0
M  V30 1932 H 177.287 -1.87766 -3.2345 0
M  V30 1933 H 179.579 -2.2783 -6.38044 0
M  V30 1934 H 180.522 -3.75511 -6.00331 0
M  V30 1935 H 180.93 -2.21367 -5.19285 0
M  V30 1936 N 180.328 1.1314 -1.09713 0
M  V30 1937 C 181.553 1.88862 -0.857081 0
M  V30 1938 C 181.978 1.78729 0.586304 0
M  V30 1939 O 181.336 1.13692 1.41222 0
M  V30 1940 C 181.384 3.36325 -1.30069 0
M  V30 1941 O 180.488 4.09815 -0.461007 0
M  V30 1942 H 179.829 0.587108 -0.310162 0
M  V30 1943 H 182.359 1.43129 -1.46203 0
M  V30 1944 H 182.369 3.87157 -1.28738 0
M  V30 1945 H 181.044 3.43017 -2.35185 0
M  V30 1946 H 179.621 3.68986 -0.538888 0
M  V30 1947 N 181.806 0.884767 1.30421 0
M  V30 1948 C 183.031 0.517288 2.00845 0
M  V30 1949 C 183.456 -0.886779 1.65885 0
M  V30 1950 O 182.814 -1.58768 0.875354 0
M  V30 1951 C 182.862 0.698994 3.5376 0
M  V30 1952 O 181.966 -0.255208 4.1161 0
M  V30 1953 H 181.307 0.203872 0.631927 0
M  V30 1954 H 183.837 1.19225 1.66272 0
M  V30 1955 H 183.847 0.597912 4.03595 0
M  V30 1956 H 182.522 1.72271 3.78544 0
M  V30 1957 H 181.099 -0.10784 3.72744 0
M  V30 1958 N 183.284 -1.43765 0.645699 0
M  V30 1959 C 184.234 -2.27884 -0.0726442 0
M  V30 1960 C 185.218 -1.39483 -0.802086 0
M  V30 1961 O 186.41 -1.63174 -0.685791 0
M  V30 1962 C 183.539 -3.27055 -1.04356 0
M  V30 1963 C 182.625 -4.22944 -0.312985 0
M  V30 1964 N 183.016 -5.01391 0.666386 0
M  V30 1965 C 181.314 -4.42528 -0.55546 0
M  V30 1966 C 182.015 -5.71217 1.09935 0
M  V30 1967 N 180.991 -5.41856 0.435137 0
M  V30 1968 H 184.793 -2.85949 0.678988 0
M  V30 1969 H 182.307 -1.55378 0.472368 0
M  V30 1970 H 184.304 -3.86089 -1.57292 0
M  V30 1971 H 182.964 -2.70551 -1.79534 0
M  V30 1972 H 183.975 -5.07252 1.04481 0
M  V30 1973 H 180.652 -3.97104 -1.28899 0
M  V30 1974 H 182.042 -6.44202 1.90929 0
M  V30 1975 N 184.763 -0.387143 -1.52771 0
M  V30 1976 C 185.693 0.440551 -2.29306 0
M  V30 1977 C 186.674 1.06535 -1.32606 0
M  V30 1978 O 187.859 1.07853 -1.61497 0
M  V30 1979 C 184.989 1.56919 -3.09829 0
M  V30 1980 C 183.943 1.07054 -4.14395 0
M  V30 1981 C 183.269 2.29109 -4.83129 0
M  V30 1982 C 184.569 0.140015 -5.22112 0
M  V30 1983 H 186.263 -0.198026 -2.98744 0
M  V30 1984 H 183.809 -0.09668 -1.43675 0
M  V30 1985 H 185.762 2.15503 -3.62128 0
M  V30 1986 H 184.486 2.23532 -2.3812 0
M  V30 1987 H 183.145 0.507247 -3.63074 0
M  V30 1988 H 182.793 2.94227 -4.0797 0
M  V30 1989 H 182.493 1.96406 -5.53804 0
M  V30 1990 H 184.017 2.88339 -5.38231 0
M  V30 1991 H 185.431 0.633978 -5.69784 0
M  V30 1992 H 183.828 -0.0971485 -6.00021 0
M  V30 1993 H 184.898 -0.811711 -4.78058 0
M  V30 1994 N 186.241 1.57166 -0.116904 0
M  V30 1995 C 187.652 1.82169 0.408809 0
M  V30 1996 C 188.003 1.03393 1.66746 0
M  V30 1997 O 187.128 0.269886 2.1471 0
M  V30 1998 C 187.723 3.30429 0.748466 0
M  V30 1999 C 186.282 3.5612 1.21882 0
M  V30 2000 C 185.429 2.76374 0.226452 0
M  V30 2001 H 188.38 1.5497 -0.342063 0
M  V30 2002 H 188.401 3.44943 1.60607 0
M  V30 2003 H 187.913 3.87737 -0.167784 0
M  V30 2004 H 186.014 3.04168 2.15204 0
M  V30 2005 H 186.127 4.64705 1.16559 0
M  V30 2006 H 184.491 2.44515 0.713063 0
M  V30 2007 H 185.274 3.3644 -0.682859 0
M  V30 2008 N 187.719 -0.156864 1.56817 0
M  V30 2009 C 188.968 -0.869504 1.81996 0
M  V30 2010 C 189.281 -1.82777 0.696545 0
M  V30 2011 O 190.487 -2.58384 0.833658 0
M  V30 2012 C 188.943 -1.59679 3.22538 0
M  V30 2013 C 188.551 -0.681431 4.42787 0
M  V30 2014 C 190.295 -2.2968 3.56997 0
M  V30 2015 C 188.202 -1.40978 5.74351 0
M  V30 2016 H 187.132 -0.328438 0.678708 0
M  V30 2017 H 189.783 -0.1223 1.83092 0
M  V30 2018 H 188.165 -2.38927 3.158 0
M  V30 2019 H 189.339 0.0751166 4.60739 0
M  V30 2020 H 187.654 -0.0903431 4.16302 0
M  V30 2021 H 190.251 -2.84794 4.52544 0
M  V30 2022 H 190.594 -3.05707 2.82576 0
M  V30 2023 H 191.127 -1.57361 3.65352 0
M  V30 2024 H 187.866 -0.691561 6.51842 0
M  V30 2025 H 187.386 -2.13929 5.60352 0
M  V30 2026 H 189.065 -1.95337 6.16808 0
M  V30 2027 N 189.197 -1.51736 -0.425897 0
M  V30 2028 C 190.129 -1.70083 -1.53638 0
M  V30 2029 C 191.142 -0.581349 -1.52066 0
M  V30 2030 O 192.331 -0.856017 -1.56635 0
M  V30 2031 C 189.431 -1.71078 -2.9255 0
M  V30 2032 C 188.604 -2.99795 -3.185 0
M  V30 2033 C 187.663 -2.92825 -4.37196 0
M  V30 2034 O 186.689 -3.66756 -4.35291 0
M  V30 2035 N 187.891 -2.0946 -5.41393 0
M  V30 2036 H 190.656 -2.65882 -1.383 0
M  V30 2037 H 188.217 -1.49765 -0.614988 0
M  V30 2038 H 190.209 -1.63969 -3.69995 0
M  V30 2039 H 188.779 -0.828242 -3.01428 0
M  V30 2040 H 187.999 -3.20684 -2.2925 0
M  V30 2041 H 189.287 -3.84977 -3.32671 0
M  V30 2042 H 188.685 -1.48792 -5.45781 0
M  V30 2043 H 187.242 -2.08221 -6.17647 0
M  V30 2044 N 190.675 0.682077 -1.42076 0
M  V30 2045 C 191.924 1.43786 -1.41451 0
M  V30 2046 C 192.237 1.95574 -0.0317074 0
M  V30 2047 O 193.443 2.71326 0.0971462 0
M  V30 2048 C 191.899 2.60071 -2.48779 0
M  V30 2049 C 191.507 2.15013 -3.93031 0
M  V30 2050 C 193.251 3.37626 -2.57311 0
M  V30 2051 C 191.158 3.28336 -4.91883 0
M  V30 2052 H 190.088 0.540143 -0.526082 0
M  V30 2053 H 192.739 0.739157 -1.67955 0
M  V30 2054 H 191.121 3.32275 -2.15429 0
M  V30 2055 H 192.295 1.5001 -4.35699 0
M  V30 2056 H 190.61 1.50416 -3.88284 0
M  V30 2057 H 193.207 4.22012 -3.28345 0
M  V30 2058 H 193.55 3.83727 -1.61429 0
M  V30 2059 H 194.083 2.72488 -2.89819 0
M  V30 2060 H 190.822 2.87234 -5.89217 0
M  V30 2061 H 190.342 3.92145 -4.53853 0
M  V30 2062 H 192.021 3.93913 -5.13265 0
M  V30 2063 N 192.153 1.28127 0.917671 0
M  V30 2064 C 193.4 1.15052 1.66641 0
M  V30 2065 C 193.728 -0.301677 1.92146 0
M  V30 2066 O 192.983 -1.23622 1.51711 0
M  V30 2067 C 193.282 1.89018 3.03327 0
M  V30 2068 C 192.948 3.38832 2.97496 0
M  V30 2069 C 191.61 3.79693 2.95613 0
M  V30 2070 C 193.962 4.34378 2.88036 0
M  V30 2071 C 191.29 5.14447 2.82066 0
M  V30 2072 C 193.642 5.69201 2.7603 0
M  V30 2073 C 192.306 6.09343 2.72502 0
M  V30 2074 H 191.576 0.421006 0.609783 0
M  V30 2075 H 194.223 1.58855 1.06945 0
M  V30 2076 H 192.528 1.37752 3.66785 0
M  V30 2077 H 194.225 1.76321 3.60156 0
M  V30 2078 H 190.815 3.06342 2.99754 0
M  V30 2079 H 194.999 4.03775 2.88581 0
M  V30 2080 H 190.255 5.44681 2.77728 0
M  V30 2081 H 194.429 6.42901 2.67678 0
M  V30 2082 H 192.056 7.13712 2.61762 0
M  V30 2083 N 193.631 -1.12557 1.10312 0
M  V30 2084 C 194.859 -1.87864 0.866873 0
M  V30 2085 C 195.274 -1.79588 -0.582557 0
M  V30 2086 O 194.631 -1.16887 -1.40156 0
M  V30 2087 C 194.682 -3.37125 1.30496 0
M  V30 2088 O 194.403 -3.45201 2.69755 0
M  V30 2089 C 195.904 -4.29373 1.10243 0
M  V30 2090 H 193.124 -0.594452 0.311236 0
M  V30 2091 H 195.668 -1.42429 1.46745 0
M  V30 2092 H 193.823 -3.80109 0.748081 0
M  V30 2093 H 194.237 -4.38056 2.88457 0
M  V30 2094 H 195.711 -5.32394 1.45811 0
M  V30 2095 H 196.188 -4.39181 0.0409492 0
M  V30 2096 H 196.794 -3.92169 1.64571 0
M  V30 2097 N 195.109 -0.891671 -1.2995 0
M  V30 2098 C 196.056 -0.361736 -2.27948 0
M  V30 2099 C 197.026 0.551761 -1.56668 0
M  V30 2100 O 198.211 0.478736 -1.84696 0
M  V30 2101 C 195.351 0.411825 -3.42634 0
M  V30 2102 C 194.464 -0.531651 -4.28716 0
M  V30 2103 C 193.599 0.258167 -5.30572 0
M  V30 2104 C 192.638 -0.680349 -6.08307 0
M  V30 2105 N 191.775 0.0745613 -7.0206 0
M  V30 2106 H 196.615 -1.20254 -2.72659 0
M  V30 2107 H 194.152 -0.604352 -1.34112 0
M  V30 2108 H 196.11 0.876304 -4.07893 0
M  V30 2109 H 194.74 1.21715 -2.98974 0
M  V30 2110 H 193.792 -1.11463 -3.63703 0
M  V30 2111 H 195.104 -1.25038 -4.82874 0
M  V30 2112 H 194.258 0.784204 -6.0161 0
M  V30 2113 H 192.997 1.01008 -4.77126 0
M  V30 2114 H 192.002 -1.21796 -5.3614 0
M  V30 2115 H 193.227 -1.43145 -6.63842 0
M  V30 2116 H 191.173 0.808883 -6.50994 0
M  V30 2117 H 191.09 -0.584409 -7.53738 0
M  V30 2118 H 192.358 0.581123 -7.77331 0
M  V30 2119 N 196.587 1.43421 -0.653314 0
M  V30 2120 C 197.55 2.29182 0.0287951 0
M  V30 2121 C 198.55 1.42213 0.750465 0
M  V30 2122 O 199.74 1.63843 0.591701 0
M  V30 2123 C 196.872 3.24278 1.05151 0
M  V30 2124 H 198.065 2.90985 -0.725786 0
M  V30 2125 H 195.618 1.50702 -0.414545 0
M  V30 2126 H 196.353 2.6737 1.83532 0
M  V30 2127 H 196.138 3.88396 0.537687 0
M  V30 2128 H 197.628 3.88647 1.52786 0
M  V30 2129 N 198.065 0.39524 1.52563 0
M  V30 2130 C 199.312 -0.185044 2.01653 0
M  V30 2131 C 199.64 -1.46317 1.28146 0
M  V30 2132 O 198.895 -1.9213 0.372074 0
M  V30 2133 C 199.194 -0.493444 3.53977 0
M  V30 2134 C 198.86 0.69384 4.4553 0
M  V30 2135 C 197.522 1.01954 4.70275 0
M  V30 2136 C 199.874 1.48785 4.99512 0
M  V30 2137 C 197.202 2.14069 5.46252 0
M  V30 2138 C 199.554 2.59965 5.76716 0
M  V30 2139 C 198.218 2.93037 5.99738 0
M  V30 2140 H 197.488 -0.0677123 0.7379 0
M  V30 2141 H 200.135 0.533807 1.8391 0
M  V30 2142 H 198.44 -1.29369 3.69825 0
M  V30 2143 H 200.137 -0.955163 3.89458 0
M  V30 2144 H 196.727 0.429987 4.26438 0
M  V30 2145 H 200.911 1.24946 4.80315 0
M  V30 2146 H 196.167 2.40056 5.62302 0
M  V30 2147 H 200.341 3.21887 6.17545 0
M  V30 2148 H 197.968 3.8003 6.58393 0
M  V30 2149 N 199.544 -1.57102 0.125237 0
M  V30 2150 C 200.791 -1.95407 -0.531248 0
M  V30 2151 C 201.119 -1.0089 -1.66287 0
M  V30 2152 O 200.374 -0.0339431 -1.95671 0
M  V30 2153 C 200.673 -3.40096 -1.09862 0
M  V30 2154 C 200.339 -4.50815 -0.0876989 0
M  V30 2155 C 199.001 -4.80824 0.19026 0
M  V30 2156 C 201.353 -5.17724 0.600902 0
M  V30 2157 C 198.681 -5.75058 1.163 0
M  V30 2158 C 201.033 -6.13005 1.56231 0
M  V30 2159 C 199.697 -6.41403 1.8482 0
M  V30 2160 H 198.967 -0.715046 -0.194397 0
M  V30 2161 H 201.614 -1.90373 0.207463 0
M  V30 2162 H 199.919 -3.41855 -1.91422 0
M  V30 2163 H 201.616 -3.6705 -1.61478 0
M  V30 2164 H 198.206 -4.27444 -0.314528 0
M  V30 2165 H 202.39 -4.94691 0.399333 0
M  V30 2166 H 197.646 -5.95362 1.39117 0
M  V30 2167 H 201.82 -6.63934 2.10153 0
M  V30 2168 H 199.447 -7.14229 2.60349 0
M  V30 2169 N 201.022 0.148545 -1.56898 0
M  V30 2170 C 202.247 0.880385 -1.87787 0
M  V30 2171 C 202.672 1.74018 -0.714093 0
M  V30 2172 O 202.03 1.78153 0.336343 0
M  V30 2173 C 202.078 1.71422 -3.17249 0
M  V30 2174 O 201.182 2.8183 -3.01074 0
M  V30 2175 H 200.523 0.245301 -0.617028 0
M  V30 2176 H 203.053 0.139826 -2.04122 0
M  V30 2177 H 203.063 2.10954 -3.49231 0
M  V30 2178 H 201.738 1.08284 -4.01556 0
M  V30 2179 H 200.315 2.45715 -2.80497 0
M  V30 2180 N 202.5 1.5196 0.417844 0
M  V30 2181 C 203.725 1.69717 1.1921 0
M  V30 2182 C 204.15 0.402148 1.83751 0
M  V30 2183 O 203.508 -0.639593 1.69643 0
M  V30 2184 C 203.556 2.82794 2.2374 0
M  V30 2185 O 202.66 2.47756 3.29683 0
M  V30 2186 H 202.001 0.565263 0.348387 0
M  V30 2187 H 204.531 1.98621 0.490985 0
M  V30 2188 H 204.541 3.07452 2.68212 0
M  V30 2189 H 203.216 3.76756 1.76146 0
M  V30 2190 H 201.793 2.33739 2.90552 0
M  V30 2191 N 203.978 -0.674533 1.42435 0
M  V30 2192 C 204.925 -1.78807 1.45934 0
M  V30 2193 C 205.895 -1.63157 0.311271 0
M  V30 2194 O 207.08 -1.83707 0.515383 0
M  V30 2195 C 204.22 -3.16839 1.36773 0
M  V30 2196 C 203.333 -3.43774 2.61617 0
M  V30 2197 C 202.468 -4.71536 2.44597 0
M  V30 2198 C 201.507 -4.91505 3.64814 0
M  V30 2199 N 200.644 -6.10508 3.46734 0
M  V30 2200 H 205.484 -1.75151 2.41093 0
M  V30 2201 H 203.021 -0.85504 1.19697 0
M  V30 2202 H 204.979 -3.96606 1.29459 0
M  V30 2203 H 203.609 -3.19619 0.452089 0
M  V30 2204 H 202.661 -2.58259 2.79297 0
M  V30 2205 H 203.973 -3.54423 3.50978 0
M  V30 2206 H 203.127 -5.59393 2.3487 0
M  V30 2207 H 201.866 -4.6317 1.52726 0
M  V30 2208 H 200.871 -4.0209 3.74972 0
M  V30 2209 H 202.096 -5.01716 4.57665 0
M  V30 2210 H 200.042 -6.03315 2.5758 0
M  V30 2211 H 199.959 -6.2202 4.29682 0
M  V30 2212 H 201.227 -7.01044 3.40819 0
M  V30 2213 N 205.456 -1.28612 -0.910864 0
M  V30 2214 C 206.419 -1.12803 -1.9952 0
M  V30 2215 C 207.419 -0.0668264 -1.60661 0
M  V30 2216 O 208.609 -0.312847 -1.71368 0
M  V30 2217 C 205.741 -0.72254 -3.33155 0
M  V30 2218 H 206.934 -2.09109 -2.14973 0
M  V30 2219 H 204.487 -1.11639 -1.09391 0
M  V30 2220 H 205.222 0.241152 -3.23402 0
M  V30 2221 H 205.007 -1.48916 -3.62721 0
M  V30 2222 H 206.497 -0.634666 -4.12749 0
M  V30 2223 N 206.934 1.1197 -1.10907 0
M  V30 2224 C 207.881 2.17846 -0.762345 0
M  V30 2225 C 208.851 1.63995 0.263599 0
M  V30 2226 O 210.036 1.90273 0.141773 0
M  V30 2227 C 207.176 3.44487 -0.205651 0
M  V30 2228 C 206.289 4.12369 -1.28748 0
M  V30 2229 C 205.424 5.26674 -0.691919 0
M  V30 2230 C 204.463 5.86431 -1.75399 0
M  V30 2231 N 203.6 6.92142 -1.17833 0
M  V30 2232 H 208.44 2.46851 -1.6694 0
M  V30 2233 H 205.977 1.21188 -0.833776 0
M  V30 2234 H 207.935 4.16981 0.135037 0
M  V30 2235 H 206.565 3.15884 0.664613 0
M  V30 2236 H 205.617 3.38003 -1.74522 0
M  V30 2237 H 206.929 4.52844 -2.09125 0
M  V30 2238 H 206.083 6.05953 -0.300963 0
M  V30 2239 H 204.822 4.8749 0.143232 0
M  V30 2240 H 203.827 5.05835 -2.15432 0
M  V30 2241 H 205.052 6.27685 -2.59208 0
M  V30 2242 H 202.998 6.54985 -0.364725 0
M  V30 2243 H 202.915 7.31242 -1.91887 0
M  V30 2244 H 204.183 7.75237 -0.81408 0
M  V30 2245 N 208.412 0.89855 1.29475 0
M  V30 2246 C 209.658 0.524658 1.95896 0
M  V30 2247 C 209.991 -0.926468 1.70676 0
M  V30 2248 O 209.266 -1.65665 1.01908 0
M  V30 2249 C 209.549 0.81633 3.50725 0
M  V30 2250 C 209.402 2.31907 3.85408 0
M  V30 2251 C 210.721 0.302038 4.39062 0
M  V30 2252 H 207.84 0.19209 0.711527 0
M  V30 2253 H 210.482 1.12502 1.53112 0
M  V30 2254 H 208.632 0.305369 3.87298 0
M  V30 2255 H 210.304 2.89949 3.58786 0
M  V30 2256 H 208.547 2.78027 3.32992 0
M  V30 2257 H 209.218 2.47373 4.93468 0
M  V30 2258 H 211.694 0.739551 4.09475 0
M  V30 2259 H 210.57 0.535331 5.46283 0
M  V30 2260 H 210.831 -0.797216 4.34853 0
M  V30 2261 N 209.89 -1.43072 0.660911 0
M  V30 2262 C 211.139 -2.00942 0.174735 0
M  V30 2263 C 211.452 -1.52797 -1.22117 0
M  V30 2264 O 212.658 -2.02991 -1.80297 0
M  V30 2265 C 211.114 -3.58948 0.261559 0
M  V30 2266 C 210.722 -4.16085 1.66064 0
M  V30 2267 C 212.466 -4.24173 -0.166617 0
M  V30 2268 C 210.373 -5.6641 1.70098 0
M  V30 2269 H 209.303 -0.751483 0.0615631 0
M  V30 2270 H 211.954 -1.63955 0.824069 0
M  V30 2271 H 210.336 -3.93372 -0.455421 0
M  V30 2272 H 211.51 -3.93147 2.40359 0
M  V30 2273 H 209.825 -3.6326 2.03546 0
M  V30 2274 H 212.422 -5.34471 -0.156433 0
M  V30 2275 H 212.765 -3.98647 -1.19943 0
M  V30 2276 H 213.298 -3.94659 0.498875 0
M  V30 2277 H 210.037 -5.96715 2.71315 0
M  V30 2278 H 209.557 -5.91382 1.00139 0
M  V30 2279 H 211.236 -6.30585 1.44816 0
M  V30 2280 N 211.368 -0.403325 -1.52352 0
M  V30 2281 C 212.598 0.17376 -2.05868 0
M  V30 2282 C 213.006 1.39898 -1.27378 0
M  V30 2283 O 212.349 1.80939 -0.31729 0
M  V30 2284 C 212.411 0.594756 -3.54546 0
M  V30 2285 C 212.075 -0.518926 -4.54044 0
M  V30 2286 C 213.072 -1.3807 -5.01231 0
M  V30 2287 C 210.757 -0.689961 -4.97539 0
M  V30 2288 C 212.751 -2.39852 -5.90551 0
M  V30 2289 C 210.438 -1.71109 -5.86656 0
M  V30 2290 C 211.436 -2.56378 -6.33056 0
M  V30 2291 O 211.124 -3.56743 -7.20409 0
M  V30 2292 H 210.856 0.0264951 -0.675481 0
M  V30 2293 H 213.41 -0.571179 -1.97299 0
M  V30 2294 H 211.64 1.39189 -3.60782 0
M  V30 2295 H 213.329 1.0991 -3.90736 0
M  V30 2296 H 214.095 -1.25994 -4.68349 0
M  V30 2297 H 209.974 -0.035939 -4.60986 0
M  V30 2298 H 213.518 -3.06441 -6.26689 0
M  V30 2299 H 209.415 -1.83218 -6.18952 0
M  V30 2300 H 210.183 -3.52918 -7.38506 0
M  V30 2301 N 212.846 1.57033 -0.133567 0
M  V30 2302 C 213.779 2.11824 0.848872 0
M  V30 2303 C 214.757 1.03833 1.2513 0
M  V30 2304 O 215.941 1.31579 1.34978 0
M  V30 2305 C 213.068 2.62692 2.138 0
M  V30 2306 C 212.114 3.82705 1.88253 0
M  V30 2307 S 212.947 5.2438 1.08563 0
M  V30 2308 C 214.103 5.78627 2.38624 0
M  V30 2309 H 214.336 2.94824 0.38289 0
M  V30 2310 H 211.869 1.5419 0.0804796 0
M  V30 2311 H 213.827 2.92652 2.87863 0
M  V30 2312 H 212.488 1.79847 2.57515 0
M  V30 2313 H 211.681 4.16496 2.83809 0
M  V30 2314 H 211.283 3.53437 1.22305 0
M  V30 2315 H 213.575 5.8924 3.34369 0
M  V30 2316 H 214.518 6.76443 2.09358 0
M  V30 2317 H 214.926 5.06783 2.48658 0
M  V30 2318 N 214.325 -0.140222 1.56975 0
M  V30 2319 C 215.573 -0.850005 1.83356 0
M  V30 2320 C 215.894 -1.81399 0.71551 0
M  V30 2321 O 215.164 -1.94136 -0.262294 0
M  V30 2322 H 213.744 -0.316886 0.676456 0
M  V30 2323 H 216.406 -0.132608 1.94448 0
M  V30 2324 H 215.502 -1.40814 2.78528 0
M  V30 2325 N 215.803 -1.52179 -0.40978 0
M  V30 2326 C 217.219 -1.40968 -0.74835 0
M  V30 2327 C 217.419 -0.513657 -1.94843 0
M  V30 2328 O 216.475 0.0208026 -2.52491 0
M  V30 2329 C 217.788 -2.83483 -1.0029 0
M  V30 2330 C 219.336 -2.92821 -1.10565 0
M  V30 2331 C 219.811 -4.36303 -1.39296 0
M  V30 2332 N 221.302 -4.39535 -1.46162 0
M  V30 2333 C 222.037 -5.47614 -1.70018 0
M  V30 2334 N 221.533 -6.65812 -1.91483 0
M  V30 2335 N 223.326 -5.35129 -1.72027 0
M  V30 2336 H 215.477 -2.0897 0.380186 0
M  V30 2337 H 217.74 -0.94185 0.107805 0
M  V30 2338 H 217.446 -3.51168 -0.193461 0
M  V30 2339 H 217.32 -3.24487 -1.92323 0
M  V30 2340 H 219.707 -2.25318 -1.90568 0
M  V30 2341 H 219.788 -2.55276 -0.16369 0
M  V30 2342 H 219.432 -5.04366 -0.598109 0
M  V30 2343 H 219.362 -4.71385 -2.34743 0
M  V30 2344 H 221.853 -3.54332 -1.31367 0
M  V30 2345 H 222.166 -7.43964 -2.09134 0
M  V30 2346 H 220.511 -6.68879 -1.88749 0
M  V30 2347 H 223.702 -4.41764 -1.54796 0
M  V30 2348 H 223.875 -6.19433 -1.9028 0
M  V30 2349 N 217.281 0.66697 -1.42791 0
M  V30 2350 C 218.229 1.80157 -1.47127 0
M  V30 2351 C 219.223 1.65825 -0.346199 0
M  V30 2352 O 220.429 1.72338 -0.519572 0
M  V30 2353 H 216.804 0.594158 -0.460956 0
M  V30 2354 H 218.775 1.73619 -2.42692 0
M  V30 2355 C 217.524 3.18351 -1.39813 0
M  V30 2356 H 216.847 3.3001 -2.25684 0
M  V30 2357 H 218.287 3.97736 -1.46908 0
M  V30 2358 C 216.746 3.36707 -0.11391 0
M  V30 2359 O 217.276 3.93027 0.830241 0
M  V30 2360 N 215.482 2.90586 -0.0285295 0
M  V30 2361 H 215.029 2.4494 -0.79764 0
M  V30 2362 H 214.987 3.03245 0.830063 0
M  V30 2363 N 218.759 1.29093 0.90403 0
M  V30 2364 C 220.17 1.15186 1.46932 0
M  V30 2365 C 220.521 -0.254587 1.94541 0
M  V30 2366 O 219.646 -1.14972 1.83332 0
M  V30 2367 C 220.241 2.08492 2.67051 0
M  V30 2368 C 218.8 1.98621 3.19729 0
M  V30 2369 C 217.947 1.9967 1.92425 0
M  V30 2370 H 220.898 1.41641 0.715789 0
M  V30 2371 H 220.919 1.65461 3.42641 0
M  V30 2372 H 220.431 3.10847 2.3237 0
M  V30 2373 H 218.532 0.993389 3.59114 0
M  V30 2374 H 218.645 2.86068 3.8432 0
M  V30 2375 H 217.009 1.44208 2.09943 0
M  V30 2376 H 217.792 3.03721 1.60026 0
M  V30 2377 N 220.237 -1.11381 1.11499 0
M  V30 2378 C 221.653 -1.35143 0.849031 0
M  V30 2379 C 221.853 -1.94515 -0.525938 0
M  V30 2380 O 220.909 -2.1785 -1.27662 0
M  V30 2381 C 222.222 -2.28249 1.95762 0
M  V30 2382 C 223.77 -2.41812 1.98736 0
M  V30 2383 C 224.245 -3.3824 3.088 0
M  V30 2384 N 225.736 -3.45803 3.08179 0
M  V30 2385 C 226.471 -4.20358 3.89982 0
M  V30 2386 N 225.967 -4.97884 4.8175 0
M  V30 2387 N 227.76 -4.15877 3.78157 0
M  V30 2388 H 219.911 -0.712062 2.00109 0
M  V30 2389 H 222.174 -0.376025 0.870235 0
M  V30 2390 H 221.88 -1.91817 2.94787 0
M  V30 2391 H 221.754 -3.28473 1.85433 0
M  V30 2392 H 224.141 -2.77518 1.00338 0
M  V30 2393 H 224.222 -1.41437 2.13141 0
M  V30 2394 H 223.866 -3.03261 4.07425 0
M  V30 2395 H 223.796 -4.38471 2.91635 0
M  V30 2396 H 226.287 -2.90506 2.41691 0
M  V30 2397 H 226.6 -5.52142 5.40702 0
M  V30 2398 H 224.945 -4.97043 4.85771 0
M  V30 2399 H 228.136 -3.544 3.05808 0
M  V30 2400 H 228.309 -4.73723 4.42143 0
M  V30 2401 N 221.715 -0.905404 -1.28997 0
M  V30 2402 C 222.992 -0.453513 -1.9027 0
M  V30 2403 C 223.372 1.06721 -1.82137 0
M  V30 2404 O 222.72 1.91159 -1.25182 0
M  V30 2405 C 222.93 -0.974494 -3.35119 0
M  V30 2406 C 224.278 -1.0216 -4.12127 0
M  V30 2407 O 225.302 -0.922557 -3.44046 0
M  V30 2408 O 224.161 -1.17121 -5.33802 0
M  V30 2409 H 221.255 -0.142347 -0.814657 0
M  V30 2410 H 223.801 -0.995642 -1.37423 0
M  V30 2411 H 222.573 -2.01848 -3.35221 0
M  V30 2412 H 222.196 -0.412706 -3.95452 0
M  V30 2413 N 223.193 1.4272 -0.668489 0
M  V30 2414 C 224.439 2.01923 -0.188419 0
M  V30 2415 C 224.772 1.52704 1.19979 0
M  V30 2416 O 224.047 0.726566 1.8042 0
M  V30 2417 C 224.33 3.59451 -0.216085 0
M  V30 2418 C 224.183 4.18864 -1.6393 0
M  V30 2419 C 225.502 4.37903 0.439179 0
M  V30 2420 H 222.621 0.733674 -0.0699412 0
M  V30 2421 H 225.263 1.69822 -0.852076 0
M  V30 2422 H 223.413 3.86929 0.349012 0
M  V30 2423 H 225.085 4.02362 -2.25616 0
M  V30 2424 H 223.328 3.74933 -2.18193 0
M  V30 2425 H 223.999 5.27987 -1.61039 0
M  V30 2426 H 226.475 4.16079 -0.0417878 0
M  V30 2427 H 225.351 5.47519 0.389157 0
M  V30 2428 H 225.612 4.15303 1.51577 0
M  V30 2429 N 224.671 0.411399 1.52136 0
M  V30 2430 C 225.917 -0.163888 2.02137 0
M  V30 2431 C 226.25 -1.44597 1.29636 0
M  V30 2432 O 225.525 -1.90272 0.403353 0
M  V30 2433 C 225.808 -0.40927 3.57767 0
M  V30 2434 C 225.661 0.889643 4.40914 0
M  V30 2435 C 226.98 -1.19042 4.23694 0
M  V30 2436 H 224.099 -0.0580896 0.734707 0
M  V30 2437 H 226.741 0.54531 1.82007 0
M  V30 2438 H 224.891 -1.0134 3.7505 0
M  V30 2439 H 226.563 1.52575 4.35337 0
M  V30 2440 H 224.806 1.50011 4.07037 0
M  V30 2441 H 225.477 0.672314 5.4789 0
M  V30 2442 H 227.953 -0.678942 4.10524 0
M  V30 2443 H 226.829 -1.33086 5.32522 0
M  V30 2444 H 227.09 -2.21166 3.82803 0
M  V30 2445 N 226.149 -1.5696 0.141893 0
M  V30 2446 C 227.395 -1.9625 -0.511248 0
M  V30 2447 C 227.728 -1.02654 -1.64851 0
M  V30 2448 O 227.003 -0.0679676 -1.94381 0
M  V30 2449 C 227.286 -3.45285 -1.02227 0
M  V30 2450 C 227.139 -4.49658 0.113138 0
M  V30 2451 C 228.458 -3.96698 -1.90574 0
M  V30 2452 H 225.577 -0.713567 -0.184367 0
M  V30 2453 H 228.219 -1.88698 0.222087 0
M  V30 2454 H 226.369 -3.51852 -1.64719 0
M  V30 2455 H 228.041 -4.55174 0.749302 0
M  V30 2456 H 226.284 -4.26857 0.773026 0
M  V30 2457 H 226.955 -5.51258 -0.286053 0
M  V30 2458 H 229.431 -3.92578 -1.37918 0
M  V30 2459 H 228.307 -5.01453 -2.2324 0
M  V30 2460 H 228.568 -3.3875 -2.84079 0
M  V30 2461 N 227.627 0.131896 -1.57047 0
M  V30 2462 C 228.852 0.860418 -1.8871 0
M  V30 2463 C 229.277 1.73251 -0.73251 0
M  V30 2464 O 228.635 1.785 0.317429 0
M  V30 2465 C 228.683 1.68047 -3.19049 0
M  V30 2466 O 227.787 2.7862 -3.04047 0
M  V30 2467 H 227.128 0.238743 -0.619595 0
M  V30 2468 H 229.658 0.118169 -2.04258 0
M  V30 2469 H 229.668 2.07238 -3.51449 0
M  V30 2470 H 228.343 1.04018 -4.02682 0
M  V30 2471 H 226.92 2.42726 -2.83088 0
M  V30 2472 N 229.106 1.52395 0.401703 0
M  V30 2473 C 230.036 1.79231 1.49661 0
M  V30 2474 C 231.017 0.643654 1.57452 0
M  V30 2475 O 232.202 0.889989 1.72606 0
M  V30 2476 C 229.332 1.94971 2.87409 0
M  V30 2477 C 228.286 3.10604 2.94465 0
M  V30 2478 C 227.612 3.11577 4.34538 0
M  V30 2479 C 228.912 4.49921 2.6527 0
M  V30 2480 H 230.606 2.70917 1.27454 0
M  V30 2481 H 228.152 1.30362 0.6117 0
M  V30 2482 H 230.105 2.12328 3.63999 0
M  V30 2483 H 228.829 0.999632 3.10926 0
M  V30 2484 H 227.488 2.93009 2.20321 0
M  V30 2485 H 227.136 2.14277 4.55076 0
M  V30 2486 H 226.836 3.89247 4.40183 0
M  V30 2487 H 228.36 3.31073 5.13053 0
M  V30 2488 H 229.774 4.67683 3.31581 0
M  V30 2489 H 228.171 5.29564 2.82281 0
M  V30 2490 H 229.241 4.57507 1.60671 0
M  V30 2491 N 230.584 -0.659388 1.43143 0
M  V30 2492 C 231.814 -1.44513 1.47646 0
M  V30 2493 C 232.222 -1.88981 0.0910095 0
M  V30 2494 O 231.565 -1.59702 -0.907789 0
M  V30 2495 C 231.627 -2.71663 2.35456 0
M  V30 2496 C 231.291 -2.49175 3.83094 0
M  V30 2497 C 232.288 -2.1279 4.74359 0
M  V30 2498 C 229.973 -2.63691 4.27519 0
M  V30 2499 C 231.967 -1.9121 6.08044 0
M  V30 2500 C 229.654 -2.41726 5.61259 0
M  V30 2501 C 230.652 -2.0554 6.51339 0
M  V30 2502 O 230.34 -1.838 7.82606 0
M  V30 2503 H 230.072 -0.45064 0.503884 0
M  V30 2504 H 232.626 -0.816248 1.88485 0
M  V30 2505 H 230.856 -3.37089 1.89493 0
M  V30 2506 H 232.545 -3.33595 2.31235 0
M  V30 2507 H 233.311 -2.01157 4.41317 0
M  V30 2508 H 229.19 -2.90832 3.57684 0
M  V30 2509 H 232.734 -1.62889 6.78316 0
M  V30 2510 H 228.631 -2.52959 5.9387 0
M  V30 2511 H 229.399 -1.98275 7.94122 0
M  V30 2512 N 232.062 -1.29571 -0.897171 0
M  V30 2513 C 233.012 -1.11539 -1.98855 0
M  V30 2514 C 233.996 -0.0340716 -1.60864 0
M  V30 2515 O 235.188 -0.256062 -1.75138 0
M  V30 2516 C 232.317 -0.796603 -3.3393 0
M  V30 2517 C 231.403 -1.91758 -3.78272 0
M  V30 2518 N 231.794 -3.16143 -3.94826 0
M  V30 2519 C 230.092 -1.81119 -4.07568 0
M  V30 2520 C 230.793 -3.89293 -4.32233 0
M  V30 2521 N 229.769 -3.17255 -4.41419 0
M  V30 2522 H 233.571 -2.05894 -2.09726 0
M  V30 2523 H 231.085 -1.20732 -1.08616 0
M  V30 2524 H 233.082 -0.648459 -4.11826 0
M  V30 2525 H 231.742 0.139003 -3.24402 0
M  V30 2526 H 232.753 -3.5157 -3.80288 0
M  V30 2527 H 229.43 -0.948461 -4.06584 0
M  V30 2528 H 230.82 -4.9635 -4.52865 0
M  V30 2529 N 233.54 1.10788 -1.12088 0
M  V30 2530 C 234.77 1.86191 -0.895351 0
M  V30 2531 C 235.178 1.80763 0.558702 0
M  V30 2532 O 234.521 1.19188 1.39785 0
M  V30 2533 C 234.583 3.35659 -1.28737 0
M  V30 2534 C 234.247 3.64849 -2.75198 0
M  V30 2535 C 235.244 3.61757 -3.734 0
M  V30 2536 C 232.929 3.93641 -3.12013 0
M  V30 2537 C 234.923 3.87045 -5.06434 0
M  V30 2538 C 232.61 4.18585 -4.4523 0
M  V30 2539 C 233.608 4.15277 -5.42249 0
M  V30 2540 O 233.296 4.3959 -6.73065 0
M  V30 2541 H 233.028 0.595425 -0.32007 0
M  V30 2542 H 235.582 1.40992 -1.49367 0
M  V30 2543 H 233.812 3.81497 -0.63224 0
M  V30 2544 H 235.501 3.92441 -1.03656 0
M  V30 2545 H 236.267 3.39557 -3.46303 0
M  V30 2546 H 232.146 3.95348 -2.37109 0
M  V30 2547 H 235.69 3.84378 -5.82151 0
M  V30 2548 H 231.587 4.40264 -4.72057 0
M  V30 2549 H 232.355 4.57123 -6.78956 0
M  V30 2550 N 235.018 0.912232 1.28515 0
M  V30 2551 C 236.243 0.559774 1.99703 0
M  V30 2552 C 236.668 -0.851393 1.67729 0
M  V30 2553 O 236.026 -1.56875 0.908834 0
M  V30 2554 C 236.074 0.773874 3.52198 0
M  V30 2555 O 235.178 -0.167842 4.12058 0
M  V30 2556 H 234.519 0.21723 0.627461 0
M  V30 2557 H 237.049 1.22725 1.63706 0
M  V30 2558 H 237.059 0.683386 4.02236 0
M  V30 2559 H 235.734 1.80261 3.74805 0
M  V30 2560 H 234.311 -0.0287509 3.72889 0
M  V30 2561 N 236.496 -1.42363 0.676048 0
M  V30 2562 C 237.443 -2.308 -0.00150904 0
M  V30 2563 C 238.413 -1.46032 -0.791444 0
M  V30 2564 O 239.598 -1.74861 -0.76344 0
M  V30 2565 C 236.738 -3.31883 -0.945919 0
M  V30 2566 C 235.851 -4.31741 -0.149675 0
M  V30 2567 C 234.986 -5.19898 -1.08995 0
M  V30 2568 C 234.025 -6.11434 -0.285465 0
M  V30 2569 N 233.162 -6.92138 -1.17851 0
M  V30 2570 H 238.002 -2.88187 0.758455 0
M  V30 2571 H 235.539 -1.41952 0.38576 0
M  V30 2572 H 237.497 -3.89019 -1.50731 0
M  V30 2573 H 236.127 -2.76093 -1.6725 0
M  V30 2574 H 235.179 -3.76713 0.528359 0
M  V30 2575 H 236.491 -4.96534 0.474866 0
M  V30 2576 H 235.645 -5.81772 -1.72123 0
M  V30 2577 H 234.384 -4.55284 -1.74837 0
M  V30 2578 H 233.389 -5.48627 0.359018 0
M  V30 2579 H 234.614 -6.78097 0.368883 0
M  V30 2580 H 232.56 -6.30152 -1.82332 0
M  V30 2581 H 232.477 -7.53542 -0.609082 0
M  V30 2582 H 233.745 -7.58499 -1.79722 0
M  V30 2583 N 237.974 -0.419461 -1.51915 0
M  V30 2584 C 239.223 0.154346 -2.01109 0
M  V30 2585 C 239.536 1.45338 -1.30905 0
M  V30 2586 O 240.742 2.10906 -1.7097 0
M  V30 2587 C 239.198 0.325615 -3.58424 0
M  V30 2588 C 238.806 -0.961934 -4.37551 0
M  V30 2589 C 240.55 0.854155 -4.15818 0
M  V30 2590 C 238.457 -0.757287 -5.86531 0
M  V30 2591 H 237.387 0.0614563 -0.751491 0
M  V30 2592 H 240.038 -0.54649 -1.75173 0
M  V30 2593 H 238.42 1.08903 -3.80731 0
M  V30 2594 H 239.594 -1.7323 -4.26999 0
M  V30 2595 H 237.909 -1.41766 -3.91524 0
M  V30 2596 H 240.506 1.02346 -5.24814 0
M  V30 2597 H 240.849 1.83172 -3.73837 0
M  V30 2598 H 241.382 0.149528 -3.97519 0
M  V30 2599 H 238.121 -1.70671 -6.32892 0
M  V30 2600 H 237.641 -0.0264061 -5.99794 0
M  V30 2601 H 239.32 -0.403482 -6.45741 0
M  V30 2602 N 239.452 1.56882 -0.150215 0
M  V30 2603 C 240.415 2.1573 0.774157 0
M  V30 2604 C 241.415 1.0999 1.17298 0
M  V30 2605 O 242.605 1.35613 1.09338 0
M  V30 2606 C 239.737 2.72302 2.05096 0
M  V30 2607 H 240.93 2.98752 0.262201 0
M  V30 2608 H 238.483 1.55985 0.099248 0
M  V30 2609 H 239.218 1.92956 2.6065 0
M  V30 2610 H 239.003 3.49665 1.77416 0
M  V30 2611 H 240.493 3.17632 2.71109 0
M  V30 2612 N 240.93 -0.123565 1.57115 0
M  V30 2613 C 242.178 -0.83051 1.84247 0
M  V30 2614 C 242.499 -1.80629 0.73471 0
M  V30 2615 O 241.769 -1.94403 -0.241688 0
M  V30 2616 H 240.349 -0.309694 0.679778 0
M  V30 2617 H 243.011 -0.111976 1.94578 0
M  V30 2618 H 242.107 -1.37852 2.80006 0
M  V30 2619 N 242.408 -1.52605 -0.393616 0
M  V30 2620 C 243.34 -1.73303 -1.49995 0
M  V30 2621 C 244.353 -0.613473 -1.50799 0
M  V30 2622 O 245.542 -0.889049 -1.54784 0
M  V30 2623 C 242.642 -1.77245 -2.88855 0
M  V30 2624 C 241.815 -3.06483 -3.12069 0
M  V30 2625 C 240.874 -3.02033 -4.30886 0
M  V30 2626 O 239.9 -3.75907 -4.27414 0
M  V30 2627 N 241.102 -2.20897 -5.36828 0
M  V30 2628 H 243.867 -2.68756 -1.32629 0
M  V30 2629 H 241.428 -1.51036 -0.583083 0
M  V30 2630 H 243.42 -1.7178 -3.66434 0
M  V30 2631 H 241.99 -0.891993 -2.99603 0
M  V30 2632 H 241.21 -3.25474 -2.22396 0
M  V30 2633 H 242.498 -3.91947 -3.2443 0
M  V30 2634 H 241.896 -1.60336 -5.42502 0
M  V30 2635 H 240.453 -2.21275 -6.13091 0
M  V30 2636 N 243.887 0.651787 -1.4349 0
M  V30 2637 C 244.817 1.77621 -1.51569 0
M  V30 2638 C 245.798 1.66022 -0.370253 0
M  V30 2639 O 246.983 1.85095 -0.587658 0
M  V30 2640 C 244.113 3.16056 -1.43966 0
M  V30 2641 C 243.067 3.4242 -2.56774 0
M  V30 2642 C 242.393 4.8067 -2.34223 0
M  V30 2643 C 243.693 3.37023 -3.99015 0
M  V30 2644 H 245.387 1.71117 -2.45681 0
M  V30 2645 H 242.933 0.821825 -1.18246 0
M  V30 2646 H 244.886 3.94472 -1.48221 0
M  V30 2647 H 243.61 3.23293 -0.463586 0
M  V30 2648 H 242.269 2.66375 -2.51873 0
M  V30 2649 H 241.917 4.84585 -1.34856 0
M  V30 2650 H 241.617 4.9927 -3.09844 0
M  V30 2651 H 243.141 5.61342 -2.40265 0
M  V30 2652 H 244.555 4.05374 -4.05395 0
M  V30 2653 H 242.952 3.67159 -4.74673 0
M  V30 2654 H 244.022 2.3518 -4.2405 0
M  V30 2655 N 245.365 1.30045 0.890287 0
M  V30 2656 C 246.312 1.15976 1.99545 0
M  V30 2657 C 247.282 0.0506202 1.66023 0
M  V30 2658 O 248.467 0.219847 1.89529 0
M  V30 2659 C 245.607 0.852054 3.34416 0
M  V30 2660 C 244.72 2.04255 3.80662 0
M  V30 2661 C 243.855 1.6734 5.04154 0
M  V30 2662 C 242.894 2.82916 5.42794 0
M  V30 2663 N 242.031 2.46333 6.57468 0
M  V30 2664 H 246.871 2.10524 2.10911 0
M  V30 2665 H 244.408 1.04749 1.03276 0
M  V30 2666 H 246.366 0.654296 4.12037 0
M  V30 2667 H 244.996 -0.0565502 3.2275 0
M  V30 2668 H 244.048 2.35172 2.98995 0
M  V30 2669 H 245.36 2.90826 4.05242 0
M  V30 2670 H 244.514 1.43908 5.89386 0
M  V30 2671 H 243.253 0.779308 4.81433 0
M  V30 2672 H 242.258 3.0702 4.56091 0
M  V30 2673 H 243.483 3.73004 5.6749 0
M  V30 2674 H 241.429 1.59423 6.36334 0
M  V30 2675 H 241.346 3.26436 6.81891 0
M  V30 2676 H 242.614 2.26244 7.45945 0
M  V30 2677 N 246.843 -1.10192 1.12674 0
M  V30 2678 C 248.12 -1.78717 0.794965 0
M  V30 2679 C 248.5 -1.98628 -0.714853 0
M  V30 2680 O 247.848 -1.58135 -1.64941 0
M  V30 2681 C 248.058 -3.11546 1.5729 0
M  V30 2682 C 249.406 -3.86382 1.76052 0
M  V30 2683 O 250.43 -3.21274 1.53823 0
M  V30 2684 O 249.289 -5.03246 2.13087 0
M  V30 2685 H 246.383 -0.774702 0.289423 0
M  V30 2686 H 248.929 -1.16819 1.23091 0
M  V30 2687 H 247.701 -2.92489 2.59935 0
M  V30 2688 H 247.324 -3.81164 1.13137 0
M  V30 2689 N 248.321 -0.919034 -1.28029 0
M  V30 2690 C 249.732 -0.600735 -1.76771 0
M  V30 2691 C 250.083 0.884024 -1.75156 0
M  V30 2692 O 249.208 1.69163 -1.34956 0
M  V30 2693 C 249.803 -1.08372 -3.21 0
M  V30 2694 C 248.362 -0.816248 -3.67443 0
M  V30 2695 C 247.509 -1.24742 -2.47658 0
M  V30 2696 H 250.46 -1.09974 -1.14418 0
M  V30 2697 H 250.481 -0.427512 -3.78091 0
M  V30 2698 H 249.993 -2.16437 -3.22144 0
M  V30 2699 H 248.094 0.250968 -3.71754 0
M  V30 2700 H 248.207 -1.4277 -4.57333 0
M  V30 2701 H 246.571 -0.666083 -2.45836 0
M  V30 2702 H 247.354 -2.33653 -2.51518 0
M  V30 2703 N 249.799 1.42003 -0.683588 0
M  V30 2704 C 251.047 2.01015 -0.209101 0
M  V30 2705 C 251.368 1.54365 1.19149 0
M  V30 2706 O 250.638 0.769083 1.80172 0
M  V30 2707 H 249.218 0.743294 -0.074315 0
M  V30 2708 H 251.88 1.73798 -0.882066 0
M  V30 2709 H 250.976 3.11343 -0.2172 0
M  V30 2710 N 251.277 0.427512 1.51691 0
M  V30 2711 C 252.505 -0.141191 2.06418 0
M  V30 2712 C 252.92 -1.37303 1.29589 0
M  V30 2713 O 252.277 -1.79059 0.352732 0
M  V30 2714 C 252.328 -0.473266 3.58389 0
M  V30 2715 O 252.049 0.709673 4.32314 0
M  V30 2716 C 253.55 -1.09371 4.29596 0
M  V30 2717 H 250.77 -0.0122747 0.670888 0
M  V30 2718 H 253.314 0.603764 1.95384 0
M  V30 2719 H 251.469 -1.16812 3.69369 0
M  V30 2720 H 251.883 0.42807 5.2275 0
M  V30 2721 H 253.357 -1.27613 5.37046 0
M  V30 2722 H 253.834 -2.072 3.87253 0
M  V30 2723 H 254.44 -0.43853 4.23033 0
M  V30 2724 N 252.755 -1.56801 0.158532 0
M  V30 2725 C 254.166 -1.83189 -0.360366 0
M  V30 2726 C 254.517 -1.07778 -1.63946 0
M  V30 2727 O 253.642 -0.326718 -2.13919 0
M  V30 2728 C 254.237 -3.32297 -0.660595 0
M  V30 2729 C 252.796 -3.59227 -1.12398 0
M  V30 2730 C 251.943 -2.76877 -0.153097 0
M  V30 2731 H 254.894 -1.54008 0.383031 0
M  V30 2732 H 254.915 -3.4908 -1.51405 0
M  V30 2733 H 254.427 -3.87156 0.270527 0
M  V30 2734 H 252.528 -3.09766 -2.07064 0
M  V30 2735 H 252.641 -4.67632 -1.04197 0
M  V30 2736 H 251.005 -2.46319 -0.647983 0
M  V30 2737 H 251.788 -3.34511 0.77182 0
M  V30 2738 N 254.233 0.115231 -1.57178 0
M  V30 2739 C 255.51 0.852873 -1.76027 0
M  V30 2740 C 255.89 1.97892 -0.73498 0
M  V30 2741 O 255.238 2.27232 0.24036 0
M  V30 2742 C 255.448 1.36608 -3.21153 0
M  V30 2743 C 256.796 1.81692 -3.83762 0
M  V30 2744 O 257.82 1.46278 -3.24779 0
M  V30 2745 O 256.679 2.47104 -4.87444 0
M  V30 2746 H 253.773 0.405296 -0.720877 0
M  V30 2747 H 256.319 0.0986785 -1.69413 0
M  V30 2748 H 255.091 0.558357 -3.87296 0
M  V30 2749 H 254.714 2.18287 -3.3232 0
M  V30 2750 N 255.711 1.52812 0.385517 0
M  V30 2751 C 256.643 1.74096 1.49074 0
M  V30 2752 C 257.656 0.621462 1.50472 0
M  V30 2753 O 258.845 0.897245 1.54311 0
M  V30 2754 C 255.945 1.78774 2.87911 0
M  V30 2755 C 255.118 3.08134 3.10439 0
M  V30 2756 C 254.177 3.04313 4.29278 0
M  V30 2757 O 253.203 3.78168 4.25415 0
M  V30 2758 N 254.405 2.23741 5.35649 0
M  V30 2759 H 257.17 2.69455 1.31202 0
M  V30 2760 H 254.731 1.51343 0.575065 0
M  V30 2761 H 256.723 1.73721 3.65518 0
M  V30 2762 H 255.293 0.907869 2.99126 0
M  V30 2763 H 254.513 3.26649 2.20667 0
M  V30 2764 H 255.801 3.93662 3.22347 0
M  V30 2765 H 255.199 1.63211 5.41645 0
M  V30 2766 H 253.756 2.24524 6.11909 0
M  V30 2767 N 257.189 -0.644168 1.43834 0
M  V30 2768 C 258.436 -1.40395 1.4593 0
M  V30 2769 C 258.764 -1.94305 0.0869658 0
M  V30 2770 O 258.019 -1.73288 -0.909378 0
M  V30 2771 C 258.318 -2.59615 2.45631 0
M  V30 2772 C 257.984 -2.2407 3.91284 0
M  V30 2773 C 256.646 -2.14089 4.30952 0
M  V30 2774 C 258.998 -1.95775 4.83034 0
M  V30 2775 C 256.326 -1.73981 5.6031 0
M  V30 2776 C 258.678 -1.57163 6.12766 0
M  V30 2777 C 257.342 -1.45713 6.51402 0
M  V30 2778 H 256.612 -0.513741 0.533995 0
M  V30 2779 H 259.259 -0.731724 1.76969 0
M  V30 2780 H 257.564 -3.32011 2.08028 0
M  V30 2781 H 259.261 -3.17834 2.44504 0
M  V30 2782 H 255.851 -2.32753 3.59895 0
M  V30 2783 H 260.035 -2.02403 4.53152 0
M  V30 2784 H 255.291 -1.63709 5.89075 0
M  V30 2785 H 259.465 -1.34303 6.83327 0
M  V30 2786 H 257.092 -1.14406 7.51542 0
M  V30 2787 N 258.668 -1.30515 -0.883378 0
M  V30 2788 C 259.598 -1.19607 -2.00541 0
M  V30 2789 C 260.579 -0.086346 -1.69881 0
M  V30 2790 O 261.764 -0.268654 -1.92333 0
M  V30 2791 C 258.894 -0.888758 -3.35736 0
M  V30 2792 C 257.848 -1.95659 -3.8066 0
M  V30 2793 C 257.174 -1.50224 -5.13164 0
M  V30 2794 C 258.474 -3.36788 -3.99213 0
M  V30 2795 H 260.168 -2.13476 -2.09925 0
M  V30 2796 H 257.714 -1.02775 -1.00863 0
M  V30 2797 H 259.667 -0.799094 -4.13754 0
M  V30 2798 H 258.391 0.0856125 -3.26488 0
M  V30 2799 H 257.05 -2.03591 -3.04871 0
M  V30 2800 H 256.698 -0.516092 -5.00345 0
M  V30 2801 H 256.398 -2.2165 -5.44192 0
M  V30 2802 H 257.922 -1.42639 -5.93706 0
M  V30 2803 H 259.336 -3.31605 -4.67665 0
M  V30 2804 H 257.733 -4.06314 -4.41621 0
M  V30 2805 H 258.803 -3.78561 -3.03017 0
M  V30 2806 N 260.146 1.09593 -1.13257 0
M  V30 2807 C 261.562 1.33775 -0.870423 0
M  V30 2808 C 261.762 1.95327 0.494926 0
M  V30 2809 O 260.818 2.19853 1.2418 0
M  V30 2810 C 262.131 2.25106 -1.99369 0
M  V30 2811 C 263.679 2.3862 -2.02558 0
M  V30 2812 C 264.154 3.33285 -3.14142 0
M  V30 2813 N 265.645 3.40857 -3.13641 0
M  V30 2814 C 266.38 4.14101 -3.96621 0
M  V30 2815 N 265.876 4.90157 -4.8961 0
M  V30 2816 N 267.669 4.09808 -3.84726 0
M  V30 2817 H 259.82 0.680136 -2.01216 0
M  V30 2818 H 262.083 0.362133 -0.876107 0
M  V30 2819 H 261.789 1.87103 -2.97801 0
M  V30 2820 H 261.663 3.25481 -1.90635 0
M  V30 2821 H 264.05 2.75887 -1.0474 0
M  V30 2822 H 264.131 1.38028 -2.15364 0
M  V30 2823 H 263.775 2.96741 -4.12198 0
M  V30 2824 H 263.705 4.33776 -2.98574 0
M  V30 2825 H 266.196 2.86624 -2.46282 0
M  V30 2826 H 266.509 5.4347 -5.49418 0
M  V30 2827 H 264.854 4.89251 -4.93617 0
M  V30 2828 H 268.045 3.4949 -3.11408 0
M  V30 2829 H 268.218 4.66629 -4.49623 0
M  V30 2830 N 261.624 0.925811 1.2754 0
M  V30 2831 C 262.901 0.483726 1.89524 0
M  V30 2832 C 263.281 -1.03809 1.83812 0
M  V30 2833 O 262.629 -1.89143 1.28207 0
M  V30 2834 C 262.839 1.02769 3.33526 0
M  V30 2835 C 264.187 1.08703 4.10449 0
M  V30 2836 O 265.211 0.977175 3.42534 0
M  V30 2837 O 264.07 1.25599 5.31871 0
M  V30 2838 H 261.164 0.15529 0.812289 0
M  V30 2839 H 263.71 1.01738 1.35822 0
M  V30 2840 H 262.482 2.07155 3.31967 0
M  V30 2841 H 262.105 0.475567 3.94746 0
M  V30 2842 N 263.102 -1.41638 0.69111 0
M  V30 2843 C 264.349 -2.01299 0.220193 0
M  V30 2844 C 264.677 -1.54715 -1.17871 0
M  V30 2845 O 263.932 -0.747193 -1.80874 0
M  V30 2846 C 264.231 -3.56714 0.221277 0
M  V30 2847 C 263.897 -4.22792 1.56709 0
M  V30 2848 C 262.559 -4.40557 1.93554 0
M  V30 2849 C 264.911 -4.59883 2.45268 0
M  V30 2850 C 262.239 -4.92688 3.18552 0
M  V30 2851 C 264.591 -5.13403 3.69595 0
M  V30 2852 C 263.255 -5.29379 4.06589 0
M  V30 2853 H 262.525 -0.736606 0.0805743 0
M  V30 2854 H 265.172 -1.69598 0.889319 0
M  V30 2855 H 263.477 -3.8818 -0.531391 0
M  V30 2856 H 265.174 -4.00678 -0.160547 0
M  V30 2857 H 261.764 -4.09336 1.2705 0
M  V30 2858 H 265.948 -4.45817 2.18084 0
M  V30 2859 H 261.204 -5.03242 3.47214 0
M  V30 2860 H 265.378 -5.41084 4.38407 0
M  V30 2861 H 263.005 -5.69537 5.03519 0
M  V30 2862 N 264.58 -0.43555 -1.51462 0
M  V30 2863 C 265.51 0.367376 -2.30592 0
M  V30 2864 C 266.491 1.02263 -1.35928 0
M  V30 2865 O 267.676 1.02661 -1.64847 0
M  V30 2866 C 264.806 1.46983 -3.14664 0
M  V30 2867 C 263.76 0.938161 -4.17591 0
M  V30 2868 C 263.086 2.13622 -4.90173 0
M  V30 2869 C 264.386 -0.0261621 -5.22293 0
M  V30 2870 H 266.08 -0.292969 -2.97963 0
M  V30 2871 H 263.626 -0.14234 -1.43295 0
M  V30 2872 H 265.579 2.03873 -3.688 0
M  V30 2873 H 264.303 2.15843 -2.4511 0
M  V30 2874 H 262.962 0.391481 -3.64504 0
M  V30 2875 H 262.61 2.81098 -4.17124 0
M  V30 2876 H 262.31 1.78688 -5.59772 0
M  V30 2877 H 263.834 2.7107 -5.47132 0
M  V30 2878 H 265.248 0.452384 -5.71512 0
M  V30 2879 H 263.645 -0.287992 -5.99409 0
M  V30 2880 H 264.715 -0.963391 -4.75233 0
M  V30 2881 N 266.058 1.56714 -0.166846 0
M  V30 2882 C 267.005 2.17746 0.765193 0
M  V30 2883 C 267.975 1.11614 1.23011 0
M  V30 2884 O 269.16 1.39745 1.29908 0
M  V30 2885 C 266.3 2.81882 1.9909 0
M  V30 2886 C 265.413 4.02462 1.56997 0
M  V30 2887 C 264.548 4.54537 2.749 0
M  V30 2888 C 263.587 5.67538 2.29275 0
M  V30 2889 N 262.724 6.14142 3.40255 0
M  V30 2890 H 267.564 2.97048 0.237952 0
M  V30 2891 H 265.101 1.4672 0.105725 0
M  V30 2892 H 267.059 3.17221 2.70974 0
M  V30 2893 H 265.689 2.05191 2.49192 0
M  V30 2894 H 264.741 3.72973 0.748037 0
M  V30 2895 H 266.053 4.84273 1.19503 0
M  V30 2896 H 265.207 4.92035 3.54946 0
M  V30 2897 H 263.946 3.71774 3.1565 0
M  V30 2898 H 262.951 5.29597 1.47674 0
M  V30 2899 H 264.176 6.52099 1.89588 0
M  V30 2900 H 262.122 5.3431 3.8059 0
M  V30 2901 H 262.039 6.9093 3.06841 0
M  V30 2902 H 263.307 6.56289 4.206 0
M  V30 2903 N 267.536 -0.106894 1.57237 0
M  V30 2904 C 268.784 -0.810921 1.85117 0
M  V30 2905 C 269.105 -1.7984 0.753827 0
M  V30 2906 O 268.375 -1.94649 -0.221056 0
M  V30 2907 H 266.955 -0.302466 0.683025 0
M  V30 2908 H 269.617 -0.0913324 1.94686 0
M  V30 2909 H 268.713 -1.34875 2.81452 0
M  V30 2910 N 269.014 -1.53014 -0.377408 0
M  V30 2911 C 269.924 -1.81557 -1.48574 0
M  V30 2912 C 270.94 -0.703102 -1.59162 0
M  V30 2913 O 272.116 -0.99192 -1.75279 0
M  V30 2914 C 269.181 -1.9889 -2.83978 0
M  V30 2915 C 268.242 -3.22801 -2.83016 0
M  V30 2916 C 267.475 -3.39298 -4.11962 0
M  V30 2917 O 267.698 -2.60345 -5.0752 0
M  V30 2918 O 266.632 -4.32604 -4.18494 0
M  V30 2919 H 270.458 -2.75695 -1.27382 0
M  V30 2920 H 268.043 -1.38248 -0.566373 0
M  V30 2921 H 269.925 -2.11931 -3.6423 0
M  V30 2922 H 268.6 -1.07942 -3.05172 0
M  V30 2923 H 267.507 -3.15193 -2.01505 0
M  V30 2924 H 268.84 -4.13632 -2.66775 0
M  V30 2925 N 270.492 0.636531 -1.44174 0
M  V30 2926 C 271.738 1.39826 -1.4689 0
M  V30 2927 C 272.071 1.93947 -0.0990585 0
M  V30 2928 O 271.346 1.73325 0.882544 0
M  V30 2929 C 271.629 2.56751 -2.5249 0
M  V30 2930 C 271.482 2.08014 -3.98811 0
M  V30 2931 C 272.801 3.58946 -2.54649 0
M  V30 2932 H 269.92 0.507075 -0.53483 0
M  V30 2933 H 272.562 0.720188 -1.75822 0
M  V30 2934 H 270.712 3.14597 -2.2795 0
M  V30 2935 H 272.384 1.5504 -4.34466 0
M  V30 2936 H 270.627 1.39242 -4.10846 0
M  V30 2937 H 271.298 2.92169 -4.68339 0
M  V30 2938 H 273.774 3.1089 -2.76563 0
M  V30 2939 H 272.65 4.38286 -3.3045 0
M  V30 2940 H 272.911 4.12655 -1.58646 0
M  V30 2941 N 271.97 1.30982 0.876444 0
M  V30 2942 C 272.902 1.13902 1.98894 0
M  V30 2943 C 273.915 0.0798815 1.62604 0
M  V30 2944 O 275.104 0.326743 1.75484 0
M  V30 2945 C 272.204 0.716699 3.31235 0
M  V30 2946 C 271.377 1.85945 3.95908 0
M  V30 2947 C 270.436 1.42426 5.06558 0
M  V30 2948 O 269.462 2.13287 5.27729 0
M  V30 2949 N 270.664 0.308025 5.79682 0
M  V30 2950 H 273.429 2.09724 2.14094 0
M  V30 2951 H 270.99 1.2323 1.05004 0
M  V30 2952 H 272.982 0.408403 4.02634 0
M  V30 2953 H 271.552 -0.149719 3.12241 0
M  V30 2954 H 270.772 2.33541 3.17573 0
M  V30 2955 H 272.06 2.62503 4.35855 0
M  V30 2956 H 271.458 -0.282241 5.64995 0
M  V30 2957 H 270.015 0.0592282 6.51773 0
M  V30 2958 N 273.449 -1.08991 1.13837 0
M  V30 2959 C 274.696 -1.81258 0.902882 0
M  V30 2960 C 275.024 -1.85936 -0.570803 0
M  V30 2961 O 274.279 -1.3267 -1.43865 0
M  V30 2962 C 274.578 -3.27042 1.44147 0
M  V30 2963 C 274.244 -3.4249 2.93276 0
M  V30 2964 C 272.906 -3.46414 3.33992 0
M  V30 2965 C 275.258 -3.4666 3.892 0
M  V30 2966 C 272.586 -3.52091 4.69307 0
M  V30 2967 C 274.938 -3.53872 5.24364 0
M  V30 2968 C 273.602 -3.56066 5.646 0
M  V30 2969 H 272.872 -0.663268 0.330388 0
M  V30 2970 H 275.519 -1.28368 1.42105 0
M  V30 2971 H 273.824 -3.82599 0.844097 0
M  V30 2972 H 275.521 -3.81499 1.23528 0
M  V30 2973 H 272.111 -3.40124 2.60794 0
M  V30 2974 H 276.295 -3.42865 3.58828 0
M  V30 2975 H 271.551 -3.52079 4.9985 0
M  V30 2976 H 275.725 -3.56043 5.98503 0
M  V30 2977 H 273.352 -3.60218 6.69438 0
M  V30 2978 N 274.927 -0.932562 -1.27047 0
M  V30 2979 C 276.175 -0.574422 -1.93765 0
M  V30 2980 C 276.496 0.887993 -1.73608 0
M  V30 2981 O 275.766 1.62999 -1.08665 0
M  V30 2982 H 274.346 -0.209451 -0.717035 0
M  V30 2983 H 277.008 -1.18601 -1.5466 0
M  V30 2984 H 276.104 -0.784841 -3.02071 0
M  V30 2985 N 276.405 1.4127 -0.698611 0
M  V30 2986 C 277.63 2.06024 -0.238512 0
M  V30 2987 C 278.055 1.5224 1.10475 0
M  V30 2988 O 277.413 0.650623 1.69223 0
M  V30 2989 C 277.461 3.59988 -0.209952 0
M  V30 2990 O 276.565 4.04282 0.814235 0
M  V30 2991 H 275.906 0.653829 -0.115775 0
M  V30 2992 H 278.436 1.8098 -0.954326 0
M  V30 2993 H 278.446 4.07979 -0.0418436 0
M  V30 2994 H 277.121 3.98503 -1.1903 0
M  V30 2995 H 275.698 3.6779 0.615234 0
M  V30 2996 N 277.883 0.443576 1.51229 0
M  V30 2997 C 279.129 -0.11321 2.03085 0
M  V30 2998 C 279.484 -1.39841 1.32145 0
M  V30 2999 O 278.777 -1.86723 0.429542 0
M  V30 3000 C 278.971 -0.380579 3.55368 0
M  V30 3001 C 278.8 0.877157 4.41062 0
M  V30 3002 C 277.57 1.4125 4.85156 0
M  V30 3003 C 279.768 1.76503 4.83064 0
M  V30 3004 N 277.75 2.62213 5.55083 0
M  V30 3005 C 279.121 2.82067 5.52122 0
M  V30 3006 C 281.176 1.7787 4.65045 0
M  V30 3007 C 279.879 3.88952 6.05069 0
M  V30 3008 C 281.905 2.83694 5.18914 0
M  V30 3009 C 281.267 3.87978 5.87922 0
M  V30 3010 H 277.366 -0.00210178 0.781997 0
M  V30 3011 H 279.95 0.605641 1.85041 0
M  V30 3012 H 278.121 -1.06847 3.73414 0
M  V30 3013 H 279.853 -0.929274 3.93887 0
M  V30 3014 H 276.608 0.965542 4.63653 0
M  V30 3015 H 277.032 3.23568 5.9467 0
M  V30 3016 H 281.674 0.985744 4.11148 0
M  V30 3017 H 279.392 4.69082 6.58018 0
M  V30 3018 H 282.978 2.85702 5.06819 0
M  V30 3019 H 281.858 4.68517 6.28857 0
M  V30 3020 N 279.361 -1.56624 0.175154 0
M  V30 3021 C 280.608 -1.96999 -0.468811 0
M  V30 3022 C 280.936 -1.06129 -1.62994 0
M  V30 3023 O 280.191 -0.0961771 -1.95464 0
M  V30 3024 C 280.49 -3.43419 -0.989864 0
M  V30 3025 C 280.156 -4.50866 0.0557687 0
M  V30 3026 C 278.818 -4.79975 0.343134 0
M  V30 3027 C 281.17 -5.15551 0.765308 0
M  V30 3028 C 278.498 -5.71066 1.34536 0
M  V30 3029 C 280.85 -6.07724 1.75654 0
M  V30 3030 C 279.514 -6.35199 2.05132 0
M  V30 3031 H 278.784 -0.720869 -0.17155 0
M  V30 3032 H 281.431 -1.89616 0.267924 0
M  V30 3033 H 279.736 -3.47772 -1.80449 0
M  V30 3034 H 281.433 -3.72002 -1.49719 0
M  V30 3035 H 278.023 -4.28229 -0.178381 0
M  V30 3036 H 282.207 -4.9317 0.556513 0
M  V30 3037 H 277.463 -5.90635 1.57988 0
M  V30 3038 H 281.637 -6.56912 2.31169 0
M  V30 3039 H 279.264 -7.05584 2.8294 0
M  V30 3040 N 280.839 0.0985539 -1.57292 0
M  V30 3041 C 282.116 0.834155 -1.76921 0
M  V30 3042 C 282.496 1.97101 -0.755928 0
M  V30 3043 O 281.844 2.27474 0.216245 0
M  V30 3044 C 282.054 1.33194 -3.22584 0
M  V30 3045 C 283.402 1.77611 -3.85668 0
M  V30 3046 O 284.426 1.42825 -3.26312 0
M  V30 3047 O 283.285 2.4192 -4.90038 0
M  V30 3048 H 280.379 0.397628 -0.725135 0
M  V30 3049 H 282.925 0.0807044 -1.69508 0
M  V30 3050 H 281.697 0.517248 -3.87866 0
M  V30 3051 H 281.32 2.1475 -3.34616 0
M  V30 3052 N 282.317 1.53212 0.369288 0
M  V30 3053 C 283.267 1.75769 1.45222 0
M  V30 3054 C 284.251 0.612136 1.48801 0
M  V30 3055 O 285.443 0.870674 1.54105 0
M  V30 3056 C 282.572 1.94769 2.82701 0
M  V30 3057 C 281.658 3.15315 2.83615 0
M  V30 3058 N 282.049 4.37295 2.54178 0
M  V30 3059 C 280.347 3.15962 3.14776 0
M  V30 3060 C 281.048 5.19015 2.62675 0
M  V30 3061 N 280.024 4.55142 2.97232 0
M  V30 3062 H 283.826 2.67691 1.2132 0
M  V30 3063 H 281.34 1.51787 0.577438 0
M  V30 3064 H 283.337 2.09056 3.60696 0
M  V30 3065 H 281.997 1.04073 3.07569 0
M  V30 3066 H 283.008 4.65091 2.27839 0
M  V30 3067 H 279.685 2.35144 3.44983 0
M  V30 3068 H 281.075 6.26305 2.43294 0
M  V30 3069 N 283.795 -0.628877 1.44509 0
M  V30 3070 C 285.044 -1.38437 1.4669 0
M  V30 3071 C 285.357 -1.95322 0.104272 0
M  V30 3072 O 286.563 -2.715 0.00362163 0
M  V30 3073 C 285.019 -2.50659 2.5826 0
M  V30 3074 C 284.627 -2.00277 4.0074 0
M  V30 3075 C 286.371 -3.27844 2.69664 0
M  V30 3076 C 284.278 -3.09854 5.0373 0
M  V30 3077 H 283.208 -0.520245 0.545766 0
M  V30 3078 H 285.859 -0.676313 1.70582 0
M  V30 3079 H 284.241 -3.2405 2.27612 0
M  V30 3080 H 285.415 -1.33736 4.40966 0
M  V30 3081 H 283.73 -1.35901 3.93599 0
M  V30 3082 H 286.327 -4.09534 3.43781 0
M  V30 3083 H 286.67 -3.77471 1.75559 0
M  V30 3084 H 287.203 -2.61543 2.99733 0
M  V30 3085 H 283.942 -2.65168 5.99472 0
M  V30 3086 H 283.462 -3.7503 4.68095 0
M  V30 3087 H 285.141 -3.74592 5.27532 0
M  V30 3088 N 285.273 -1.31445 -0.869486 0
M  V30 3089 C 286.22 -1.19135 -1.97675 0
M  V30 3090 C 287.19 -0.0770266 -1.65921 0
M  V30 3091 O 288.375 -0.249972 -1.89155 0
M  V30 3092 C 285.515 -0.905149 -3.33018 0
M  V30 3093 C 284.628 -2.10285 -3.77365 0
M  V30 3094 C 283.763 -1.75339 -5.01427 0
M  V30 3095 C 282.802 -2.91515 -5.38224 0
M  V30 3096 N 281.939 -2.56762 -6.53466 0
M  V30 3097 H 286.779 -2.13853 -2.07535 0
M  V30 3098 H 284.316 -1.06379 -1.01597 0
M  V30 3099 H 286.274 -0.719765 -4.10944 0
M  V30 3100 H 284.904 0.00519624 -3.228 0
M  V30 3101 H 283.956 -2.39899 -2.95216 0
M  V30 3102 H 285.268 -2.97237 -4.00564 0
M  V30 3103 H 284.422 -1.53266 -5.87022 0
M  V30 3104 H 283.161 -0.855801 -4.80133 0
M  V30 3105 H 282.166 -3.14237 -4.51149 0
M  V30 3106 H 283.391 -3.81985 -5.61484 0
M  V30 3107 H 281.337 -1.69526 -6.33717 0
M  V30 3108 H 281.254 -3.37243 -6.76612 0
M  V30 3109 H 282.522 -2.38083 -7.42251 0
M  V30 3110 N 286.751 1.08385 -1.14413 0
M  V30 3111 C 287.999 1.80419 -0.910679 0
M  V30 3112 C 288.32 1.86658 0.564243 0
M  V30 3113 O 287.59 1.35985 1.41014 0
M  V30 3114 H 286.17 0.668204 -0.333934 0
M  V30 3115 H 288.832 1.31037 -1.44275 0
M  V30 3116 H 287.928 2.83238 -1.31082 0
M  V30 3117 N 288.23 0.939286 1.26551 0
M  V30 3118 C 289.476 0.596234 1.94465 0
M  V30 3119 C 289.831 -0.855013 1.72358 0
M  V30 3120 O 289.124 -1.6034 1.04889 0
M  V30 3121 C 289.318 0.872106 3.46596 0
M  V30 3122 C 289.147 2.34862 3.83497 0
M  V30 3123 C 287.917 3.00344 4.06352 0
M  V30 3124 C 290.115 3.32697 3.92195 0
M  V30 3125 N 288.097 4.38027 4.30123 0
M  V30 3126 C 289.468 4.55631 4.20476 0
M  V30 3127 C 291.523 3.27747 3.74815 0
M  V30 3128 C 290.226 5.74233 4.33185 0
M  V30 3129 C 292.252 4.45672 3.88755 0
M  V30 3130 C 291.614 5.67388 4.17433 0
M  V30 3131 H 287.713 0.268515 0.734455 0
M  V30 3132 H 290.297 1.2083 1.5267 0
M  V30 3133 H 288.468 0.289102 3.87323 0
M  V30 3134 H 290.2 0.490513 4.01716 0
M  V30 3135 H 286.955 2.50969 4.01636 0
M  V30 3136 H 287.379 5.09288 4.46044 0
M  V30 3137 H 292.021 2.34703 3.51673 0
M  V30 3138 H 289.739 6.67731 4.55149 0
M  V30 3139 H 293.325 4.43372 3.76713 0
M  V30 3140 H 292.205 6.57115 4.27983 0
M  V30 3141 N 289.708 -1.40897 0.706093 0
M  V30 3142 C 290.638 -2.33418 0.0620085 0
M  V30 3143 C 291.619 -1.52385 -0.755827 0
M  V30 3144 O 292.804 -1.80886 -0.706674 0
M  V30 3145 C 289.934 -3.36293 -0.867445 0
M  V30 3146 C 288.888 -4.27716 -0.155932 0
M  V30 3147 C 288.214 -5.2105 -1.20046 0
M  V30 3148 C 289.514 -5.12944 0.984149 0
M  V30 3149 H 291.208 -2.87527 0.83477 0
M  V30 3150 H 288.754 -1.38249 0.402875 0
M  V30 3151 H 290.707 -3.99949 -1.32735 0
M  V30 3152 H 289.431 -2.80556 -1.67199 0
M  V30 3153 H 288.09 -3.65498 0.284047 0
M  V30 3154 H 287.738 -4.61624 -1.99781 0
M  V30 3155 H 287.438 -5.83056 -0.729328 0
M  V30 3156 H 288.962 -5.87584 -1.66066 0
M  V30 3157 H 290.376 -5.70109 0.604048 0
M  V30 3158 H 288.773 -5.83945 1.38304 0
M  V30 3159 H 289.843 -4.49485 1.81911 0
M  V30 3160 N 291.186 -0.45159 -1.50991 0
M  V30 3161 C 292.602 -0.104647 -1.59257 0
M  V30 3162 C 292.802 1.38728 -1.4614 0
M  V30 3163 O 291.858 2.15866 -1.30989 0
M  V30 3164 C 293.171 -0.637468 -2.93865 0
M  V30 3165 C 294.719 -0.599166 -3.07212 0
M  V30 3166 C 295.194 -1.1092 -4.44366 0
M  V30 3167 N 296.685 -1.06778 -4.50725 0
M  V30 3168 C 297.42 -1.43314 -5.55201 0
M  V30 3169 N 296.916 -1.87204 -6.67028 0
M  V30 3170 N 298.709 -1.3504 -5.45638 0
M  V30 3171 H 290.86 -1.42214 -1.57762 0
M  V30 3172 H 293.123 -0.586921 -0.744465 0
M  V30 3173 H 292.829 -1.68187 -3.08879 0
M  V30 3174 H 292.703 -0.0702139 -3.77135 0
M  V30 3175 H 295.09 0.436277 -2.91857 0
M  V30 3176 H 295.171 -1.20299 -2.25747 0
M  V30 3177 H 294.815 -2.14318 -4.60467 0
M  V30 3178 H 294.745 -0.481773 -5.24392 0
M  V30 3179 H 297.236 -0.745643 -3.70471 0
M  V30 3180 H 297.549 -2.13282 -7.42786 0
M  V30 3181 H 295.894 -1.91142 -6.68199 0
M  V30 3182 H 299.085 -1.00607 -4.57161 0
M  V30 3183 H 299.258 -1.63841 -6.26945 0
M  V30 3184 N 292.664 1.56529 -0.183458 0
M  V30 3185 C 293.597 2.14417 0.781052 0
M  V30 3186 C 294.575 1.07761 1.21763 0
M  V30 3187 O 295.759 1.35807 1.30724 0
M  V30 3188 C 292.886 2.69361 2.05335 0
M  V30 3189 C 291.932 3.885 1.75982 0
M  V30 3190 S 292.765 5.27568 0.918256 0
M  V30 3191 C 293.921 5.85926 2.20095 0
M  V30 3192 H 294.154 2.95893 0.2889 0
M  V30 3193 H 291.687 1.54368 0.0313844 0
M  V30 3194 H 293.645 3.01662 2.78406 0
M  V30 3195 H 292.306 1.87949 2.51663 0
M  V30 3196 H 291.499 4.25314 2.70415 0
M  V30 3197 H 291.101 3.57149 1.10999 0
M  V30 3198 H 293.393 5.99579 3.15453 0
M  V30 3199 H 294.336 6.82761 1.87731 0
M  V30 3200 H 294.744 5.14438 2.32409 0
M  V30 3201 N 294.142 -0.090211 1.57342 0
M  V30 3202 C 295.089 -1.10909 2.02405 0
M  V30 3203 C 296.059 -1.39523 0.901252 0
M  V30 3204 O 297.244 -1.50903 1.1676 0
M  V30 3205 C 294.384 -2.42277 2.45755 0
M  V30 3206 C 293.497 -2.20352 3.71576 0
M  V30 3207 C 292.632 -3.45154 4.03785 0
M  V30 3208 C 291.671 -3.18512 5.22701 0
M  V30 3209 N 290.808 -4.35593 5.50639 0
M  V30 3210 H 295.648 -0.71782 2.89225 0
M  V30 3211 H 293.185 -0.342901 1.43048 0
M  V30 3212 H 295.143 -3.18951 2.68935 0
M  V30 3213 H 293.773 -2.79242 1.61938 0
M  V30 3214 H 292.825 -1.34458 3.55844 0
M  V30 3215 H 294.137 -1.96661 4.58395 0
M  V30 3216 H 293.291 -4.30233 4.27767 0
M  V30 3217 H 292.03 -3.71904 3.15498 0
M  V30 3218 H 291.035 -2.31827 4.98534 0
M  V30 3219 H 292.26 -2.93103 6.12591 0
M  V30 3220 H 290.206 -4.6241 4.6531 0
M  V30 3221 H 290.123 -4.1511 6.31838 0
M  V30 3222 H 291.391 -5.21723 5.7916 0
M  V30 3223 N 295.62 -1.53406 -0.361157 0
M  V30 3224 C 296.868 -1.69467 -1.10115 0
M  V30 3225 C 297.189 -0.451352 -1.89705 0
M  V30 3226 O 296.459 0.534636 -1.88463 0
M  V30 3227 H 295.039 -0.624749 -0.409508 0
M  V30 3228 H 297.701 -1.90609 -0.406699 0
M  V30 3229 H 296.797 -2.55774 -1.78847 0
M  V30 3230 N 297.098 0.621204 -1.44841 0
M  V30 3231 C 298.045 1.73267 -1.5247 0
M  V30 3232 C 299.015 1.6189 -0.371611 0
M  V30 3233 O 300.2 1.81668 -0.58321 0
M  V30 3234 C 297.34 3.11545 -1.48438 0
M  V30 3235 C 296.453 3.33827 -2.74196 0
M  V30 3236 C 295.588 4.62133 -2.61929 0
M  V30 3237 C 294.627 4.77627 -3.82804 0
M  V30 3238 N 293.764 5.97219 -3.69153 0
M  V30 3239 H 298.604 1.66082 -2.47428 0
M  V30 3240 H 296.141 0.810026 -1.22788 0
M  V30 3241 H 298.099 3.91528 -1.4409 0
M  V30 3242 H 296.729 3.1772 -0.570402 0
M  V30 3243 H 295.781 2.47715 -2.88689 0
M  V30 3244 H 297.093 3.41153 -3.6389 0
M  V30 3245 H 296.247 5.50291 -2.5547 0
M  V30 3246 H 294.986 4.57182 -1.69811 0
M  V30 3247 H 293.991 3.87896 -3.89637 0
M  V30 3248 H 295.216 4.84385 -4.75971 0
M  V30 3249 H 293.162 5.93339 -2.79794 0
M  V30 3250 H 293.079 6.05644 -4.52472 0
M  V30 3251 H 294.347 6.87912 -3.66603 0
M  V30 3252 N 298.576 1.31904 0.862503 0
M  V30 3253 C 299.853 1.12644 1.59908 0
M  V30 3254 C 300.233 -0.316104 2.0872 0
M  V30 3255 O 299.581 -1.31145 1.87118 0
M  V30 3256 C 299.791 2.1472 2.7513 0
M  V30 3257 C 301.139 2.47637 3.44907 0
M  V30 3258 O 302.163 2.13205 2.85346 0
M  V30 3259 O 301.022 3.06632 4.52371 0
M  V30 3260 H 298.116 0.43416 0.703871 0
M  V30 3261 H 300.662 1.43408 0.907314 0
M  V30 3262 H 299.434 3.1172 2.3653 0
M  V30 3263 H 299.057 1.84905 3.51989 0
M  V30 3264 N 300.054 -1.07777 1.14986 0
M  V30 3265 C 301.002 -2.16964 0.838406 0
M  V30 3266 C 301.996 -1.68372 -0.186386 0
M  V30 3267 O 303.202 -1.79951 -0.0418465 0
M  V30 3268 H 299.577 -0.708006 0.253439 0
M  V30 3269 H 301.548 -2.40454 1.76704 0
M  V30 3270 C 300.297 -3.4604 0.339335 0
M  V30 3271 H 299.62 -3.83813 1.11927 0
M  V30 3272 H 301.06 -4.23698 0.160021 0
M  V30 3273 C 299.519 -3.23569 -0.938325 0
M  V30 3274 O 300.049 -3.47752 -2.01077 0
M  V30 3275 N 298.255 -2.77079 -0.876117 0
M  V30 3276 H 297.802 -2.576 -0.00322037 0
M  V30 3277 H 297.76 -2.62422 -1.73153 0
M  V30 3278 N 301.532 -0.945985 -1.26051 0
M  V30 3279 C 302.779 -0.596118 -1.93527 0
M  V30 3280 C 303.107 0.865559 -1.74179 0
M  V30 3281 O 302.362 1.63524 -1.0751 0
M  V30 3282 C 302.661 -0.890475 -3.46129 0
M  V30 3283 C 302.327 -2.3368 -3.85622 0
M  V30 3284 C 300.989 -2.73216 -3.96114 0
M  V30 3285 C 303.341 -3.27648 -4.05334 0
M  V30 3286 C 300.669 -4.05806 -4.2372 0
M  V30 3287 C 303.021 -4.59841 -4.3443 0
M  V30 3288 C 301.685 -4.99185 -4.43137 0
M  V30 3289 H 300.955 -0.218135 -0.708165 0
M  V30 3290 H 303.602 -1.1934 -1.49768 0
M  V30 3291 H 301.907 -0.210711 -3.91233 0
M  V30 3292 H 303.604 -0.598478 -3.96509 0
M  V30 3293 H 300.194 -2.02015 -3.78005 0
M  V30 3294 H 304.378 -2.98298 -3.96651 0
M  V30 3295 H 299.634 -4.35945 -4.28675 0
M  V30 3296 H 303.808 -5.32641 -4.48628 0
M  V30 3297 H 301.435 -6.01952 -4.64282 0
M  V30 3298 N 303.011 1.40521 -0.713556 0
M  V30 3299 C 303.941 2.33381 -0.0743864 0
M  V30 3300 C 304.922 1.52784 0.747735 0
M  V30 3301 O 306.107 1.81258 0.697071 0
M  V30 3302 C 303.237 3.36748 0.849598 0
M  V30 3303 C 302.191 4.27793 0.133247 0
M  V30 3304 C 301.517 5.21679 1.17281 0
M  V30 3305 C 302.817 5.12415 -1.01134 0
M  V30 3306 H 304.511 2.87081 -0.850007 0
M  V30 3307 H 302.057 1.38034 -0.410201 0
M  V30 3308 H 304.01 4.00648 1.30612 0
M  V30 3309 H 302.734 2.81439 1.65709 0
M  V30 3310 H 301.393 3.65342 -0.303426 0
M  V30 3311 H 301.041 4.62677 1.9733 0
M  V30 3312 H 300.741 5.83435 0.698397 0
M  V30 3313 H 302.265 5.88456 1.62947 0
M  V30 3314 H 303.679 5.69781 -0.634274 0
M  V30 3315 H 302.076 5.83203 -1.41399 0
M  V30 3316 H 303.146 4.48514 -1.84292 0
M  V30 3317 N 304.489 0.459591 1.5075 0
M  V30 3318 C 305.736 -0.0993495 2.02256 0
M  V30 3319 C 306.064 -1.40751 1.34237 0
M  V30 3320 O 305.319 -1.90379 0.453228 0
M  V30 3321 C 305.618 -0.342866 3.55752 0
M  V30 3322 C 305.284 0.88218 4.42186 0
M  V30 3323 C 303.946 1.21808 4.65528 0
M  V30 3324 C 306.298 1.69837 4.92752 0
M  V30 3325 C 303.626 2.37045 5.36681 0
M  V30 3326 C 305.978 2.84192 5.65171 0
M  V30 3327 C 304.642 3.1821 5.8677 0
M  V30 3328 H 303.912 -0.0363545 0.740108 0
M  V30 3329 H 306.559 0.611329 1.8148 0
M  V30 3330 H 304.864 -1.13567 3.7498 0
M  V30 3331 H 306.561 -0.789121 3.93159 0
M  V30 3332 H 303.151 0.610467 4.2423 0
M  V30 3333 H 307.335 1.45205 4.74583 0
M  V30 3334 H 302.591 2.63689 5.51614 0
M  V30 3335 H 306.765 3.4779 6.03337 0
M  V30 3336 H 304.392 4.07613 6.41682 0
M  V30 3337 N 305.967 -1.56429 0.191757 0
M  V30 3338 C 307.216 -1.9666 -0.448088 0
M  V30 3339 C 307.529 -1.08136 -1.62991 0
M  V30 3340 O 308.735 -1.38135 -2.33733 0
M  V30 3341 C 307.191 -3.49753 -0.848585 0
M  V30 3342 C 306.799 -4.46935 0.308764 0
M  V30 3343 C 308.543 -3.9876 -1.4557 0
M  V30 3344 C 306.45 -5.91293 -0.112506 0
M  V30 3345 H 305.38 -0.734312 -0.171179 0
M  V30 3346 H 308.031 -1.81301 0.283242 0
M  V30 3347 H 306.413 -3.60604 -1.63649 0
M  V30 3348 H 307.587 -4.47813 1.08627 0
M  V30 3349 H 305.902 -4.08102 0.827158 0
M  V30 3350 H 308.499 -5.04086 -1.78328 0
M  V30 3351 H 308.842 -3.42875 -2.36099 0
M  V30 3352 H 309.375 -3.9101 -0.731836 0
M  V30 3353 H 306.114 -6.51097 0.758514 0
M  V30 3354 H 305.634 -5.93676 -0.854941 0
M  V30 3355 H 307.313 -6.44663 -0.549448 0
M  V30 3356 N 307.445 0.0818655 -1.57387 0
M  V30 3357 C 308.673 0.796108 -1.9097 0
M  V30 3358 C 309.088 1.71626 -0.786757 0
M  V30 3359 O 308.445 1.80908 0.240513 0
M  V30 3360 C 308.496 1.59829 -3.24248 0
M  V30 3361 O 308.217 0.715131 -4.32224 0
M  V30 3362 C 309.718 2.41442 -3.7178 0
M  V30 3363 H 306.938 0.22691 -0.631469 0
M  V30 3364 H 309.482 0.0551439 -2.04426 0
M  V30 3365 H 307.637 2.29163 -3.12351 0
M  V30 3366 H 308.051 1.27205 -5.08841 0
M  V30 3367 H 309.525 2.932 -4.67694 0
M  V30 3368 H 310.002 3.2051 -3.00283 0
M  V30 3369 H 310.608 1.77283 -3.86589 0
M  V30 3370 N 308.923 1.53595 0.353017 0
M  V30 3371 C 310.153 1.74058 1.11299 0
M  V30 3372 C 310.561 0.475205 1.83135 0
M  V30 3373 O 309.904 -0.562344 1.74881 0
M  V30 3374 C 309.966 2.85994 2.17825 0
M  V30 3375 C 309.63 4.25923 1.65647 0
M  V30 3376 C 310.627 5.07829 1.11383 0
M  V30 3377 C 308.312 4.72377 1.7078 0
M  V30 3378 C 310.306 6.34285 0.629439 0
M  V30 3379 C 307.993 5.98808 1.21953 0
M  V30 3380 C 308.991 6.79594 0.681265 0
M  V30 3381 O 308.679 8.03651 0.200248 0
M  V30 3382 H 308.411 0.585327 0.338183 0
M  V30 3383 H 310.965 2.01186 0.413927 0
M  V30 3384 H 309.195 2.54368 2.91262 0
M  V30 3385 H 310.884 2.94515 2.79313 0
M  V30 3386 H 311.65 4.73107 1.06746 0
M  V30 3387 H 307.529 4.0956 2.11617 0
M  V30 3388 H 311.073 6.97288 0.208636 0
M  V30 3389 H 306.97 6.33026 1.26287 0
M  V30 3390 H 307.738 8.1788 0.318416 0
M  V30 3391 N 310.401 -0.613514 1.45168 0
M  V30 3392 C 311.311 -1.75296 1.55912 0
M  V30 3393 C 312.327 -1.68244 0.443856 0
M  V30 3394 O 313.503 -1.88706 0.70371 0
M  V30 3395 C 310.568 -3.1174 1.5172 0
M  V30 3396 C 309.629 -3.30291 2.74238 0
M  V30 3397 C 308.862 -4.60226 2.70236 0
M  V30 3398 O 309.085 -5.42168 1.77229 0
M  V30 3399 O 308.019 -4.81361 3.61352 0
M  V30 3400 H 311.845 -1.69183 2.52212 0
M  V30 3401 H 309.43 -0.776886 1.27612 0
M  V30 3402 H 311.312 -3.93044 1.51968 0
M  V30 3403 H 309.987 -3.18357 0.585697 0
M  V30 3404 H 308.894 -2.48598 2.79553 0
M  V30 3405 H 310.227 -3.28547 3.66494 0
M  V30 3406 N 311.879 -1.3236 -0.855495 0
M  V30 3407 C 312.789 -1.23221 -1.99634 0
M  V30 3408 C 313.805 -0.145983 -1.73387 0
M  V30 3409 O 314.981 -0.366502 -1.98037 0
M  V30 3410 C 312.046 -0.954782 -3.33294 0
M  V30 3411 C 311.107 -2.12937 -3.72769 0
M  V30 3412 C 310.34 -1.86508 -5.00051 0
M  V30 3413 O 310.563 -0.807231 -5.64659 0
M  V30 3414 O 309.497 -2.72591 -5.36636 0
M  V30 3415 H 313.323 -2.19126 -2.1028 0
M  V30 3416 H 310.908 -1.12241 -0.986018 0
M  V30 3417 H 312.79 -0.816519 -4.13414 0
M  V30 3418 H 311.465 -0.0258854 -3.2369 0
M  V30 3419 H 310.372 -2.3231 -2.93228 0
M  V30 3420 H 311.705 -3.04102 -3.87018 0
M  V30 3421 N 313.357 1.07166 -1.15556 0
M  V30 3422 C 314.287 2.16403 -0.877046 0
M  V30 3423 C 315.268 1.69217 0.173111 0
M  V30 3424 O 316.453 1.94181 0.027084 0
M  V30 3425 C 313.583 3.45349 -0.367632 0
M  V30 3426 C 312.537 4.05995 -1.35468 0
M  V30 3427 C 311.863 5.30045 -0.704038 0
M  V30 3428 C 313.163 4.45804 -2.72132 0
M  V30 3429 H 314.857 2.39959 -1.79053 0
M  V30 3430 H 312.403 1.15325 -0.862331 0
M  V30 3431 H 314.356 4.21095 -0.160317 0
M  V30 3432 H 313.08 3.21385 0.581326 0
M  V30 3433 H 311.739 3.32296 -1.54839 0
M  V30 3434 H 311.387 5.02373 0.251128 0
M  V30 3435 H 311.087 5.71579 -1.36277 0
M  V30 3436 H 312.611 6.08495 -0.50654 0
M  V30 3437 H 314.025 5.12671 -2.56595 0
M  V30 3438 H 312.422 4.98296 -3.34397 0
M  V30 3439 H 313.492 3.57083 -3.28054 0
M  V30 3440 N 314.835 0.952656 1.25548 0
M  V30 3441 C 315.767 0.428609 2.25157 0
M  V30 3442 C 316.78 -0.454428 1.56329 0
M  V30 3443 O 317.969 -0.263023 1.76552 0
M  V30 3444 C 315.069 -0.401972 3.36508 0
M  V30 3445 C 314.242 0.467601 4.34893 0
M  V30 3446 C 313.301 -0.30445 5.25319 0
M  V30 3447 O 312.327 0.296473 5.68427 0
M  V30 3448 N 313.529 -1.59805 5.5807 0
M  V30 3449 H 316.294 1.28497 2.70756 0
M  V30 3450 H 313.855 0.822798 1.39433 0
M  V30 3451 H 315.847 -0.926134 3.9396 0
M  V30 3452 H 314.417 -1.15918 2.90313 0
M  V30 3453 H 313.637 1.17288 3.76347 0
M  V30 3454 H 314.925 1.06119 4.97611 0
M  V30 3455 H 314.323 -2.10823 5.24948 0
M  V30 3456 H 312.88 -2.06822 6.18116 0
M  V30 3457 N 316.313 -1.40141 0.720998 0
M  V30 3458 C 317.245 -2.29177 0.0324669 0
M  V30 3459 C 318.258 -1.46105 -0.718126 0
M  V30 3460 O 319.447 -1.69335 -0.564608 0
M  V30 3461 C 316.547 -3.24473 -0.978292 0
M  V30 3462 C 315.72 -4.36423 -0.292115 0
M  V30 3463 C 314.779 -5.12122 -1.20901 0
M  V30 3464 O 313.805 -5.64981 -0.691766 0
M  V30 3465 N 315.007 -5.21992 -2.53978 0
M  V30 3466 H 317.772 -2.88909 0.796984 0
M  V30 3467 H 315.333 -1.51569 0.569068 0
M  V30 3468 H 317.325 -3.71987 -1.59398 0
M  V30 3469 H 315.895 -2.65871 -1.64413 0
M  V30 3470 H 315.115 -3.90967 0.503847 0
M  V30 3471 H 316.403 -5.08467 0.183971 0
M  V30 3472 H 315.801 -4.8054 -2.98493 0
M  V30 3473 H 314.358 -5.72995 -3.10677 0
M  V30 3474 N 317.792 -0.46758 -1.50504 0
M  V30 3475 C 319.069 0.15003 -1.95024 0
M  V30 3476 C 319.449 1.57304 -1.40779 0
M  V30 3477 O 318.797 2.20281 -0.607319 0
M  V30 3478 C 319.007 0.0969324 -3.48865 0
M  V30 3479 C 320.355 0.287565 -4.23625 0
M  V30 3480 O 321.379 0.173678 -3.55776 0
M  V30 3481 O 320.238 0.517186 -5.44047 0
M  V30 3482 H 317.332 0.113582 -0.819163 0
M  V30 3483 H 319.878 -0.52773 -1.61286 0
M  V30 3484 H 318.65 -0.896732 -3.80886 0
M  V30 3485 H 318.273 0.816303 -3.8913 0
M  V30 3486 N 319.27 1.56325 -0.20005 0
M  V30 3487 C 320.2 2.22318 0.713916 0
M  V30 3488 C 321.181 1.18788 1.21752 0
M  V30 3489 O 322.366 1.47309 1.26545 0
M  V30 3490 C 319.496 2.88639 1.93144 0
M  V30 3491 C 318.45 3.98457 1.56255 0
M  V30 3492 C 317.776 4.51967 2.85709 0
M  V30 3493 C 319.076 5.16612 0.768747 0
M  V30 3494 H 320.77 2.98952 0.163755 0
M  V30 3495 H 318.316 1.43792 0.0773219 0
M  V30 3496 H 320.269 3.33491 2.57608 0
M  V30 3497 H 318.993 2.09419 2.50621 0
M  V30 3498 H 317.652 3.54305 0.941471 0
M  V30 3499 H 317.3 3.69503 3.41287 0
M  V30 3500 H 317 5.26071 2.6177 0
M  V30 3501 H 318.524 4.99523 3.51154 0
M  V30 3502 H 319.938 5.57977 1.3166 0
M  V30 3503 H 318.335 5.96812 0.627286 0
M  V30 3504 H 319.405 4.84358 -0.229168 0
M  V30 3505 N 320.748 -0.0735177 1.57428 0
M  V30 3506 C 321.68 -1.11423 2.00294 0
M  V30 3507 C 322.693 -1.35084 0.908637 0
M  V30 3508 O 323.882 -1.33355 1.18654 0
M  V30 3509 C 320.982 -2.46548 2.32523 0
M  V30 3510 C 320.155 -2.42867 3.63778 0
M  V30 3511 C 319.214 -3.60087 3.83697 0
M  V30 3512 O 318.24 -3.41595 4.55304 0
M  V30 3513 N 319.442 -4.80372 3.25919 0
M  V30 3514 H 322.207 -0.749206 2.90184 0
M  V30 3515 H 319.768 -0.262195 1.59763 0
M  V30 3516 H 321.76 -3.23607 2.43024 0
M  V30 3517 H 320.33 -2.75059 1.48531 0
M  V30 3518 H 319.55 -1.51206 3.64047 0
M  V30 3519 H 320.838 -2.37506 4.49965 0
M  V30 3520 H 320.236 -4.983 2.67795 0
M  V30 3521 H 318.793 -5.54948 3.41871 0
M  V30 3522 N 322.226 -1.5378 -0.344866 0
M  V30 3523 C 323.474 -1.70625 -1.08311 0
M  V30 3524 C 323.795 -0.471447 -1.89215 0
M  V30 3525 O 323.065 0.514616 -1.8902 0
M  V30 3526 H 321.645 -0.629058 -0.402859 0
M  V30 3527 H 324.307 -1.9103 -0.386459 0
M  V30 3528 H 323.403 -2.57656 -1.76124 0
M  V30 3529 N 323.704 0.605807 -1.45491 0
M  V30 3530 C 324.929 1.39625 -1.53361 0
M  V30 3531 C 325.354 1.87351 -0.167645 0
M  V30 3532 O 324.712 1.60243 0.848051 0
M  V30 3533 C 324.76 2.57559 -2.5238 0
M  V30 3534 O 323.864 3.58248 -2.04285 0
M  V30 3535 H 323.205 0.416771 -0.516912 0
M  V30 3536 H 325.735 0.737103 -1.90861 0
M  V30 3537 H 325.745 3.0478 -2.71244 0
M  V30 3538 H 324.42 2.22171 -3.51586 0
M  V30 3539 H 322.997 3.17664 -1.95305 0
M  V30 3540 N 325.182 1.32811 0.848464 0
M  V30 3541 C 326.428 1.23907 1.60546 0
M  V30 3542 C 326.761 -0.197161 1.93197 0
M  V30 3543 O 326.036 -1.13596 1.5788 0
M  V30 3544 C 326.319 2.10489 2.92175 0
M  V30 3545 C 326.172 3.62522 2.66266 0
M  V30 3546 C 327.491 1.97075 3.93509 0
M  V30 3547 H 324.61 0.451459 0.58254 0
M  V30 3548 H 327.252 1.62818 0.979296 0
M  V30 3549 H 325.402 1.77434 3.45614 0
M  V30 3550 H 327.074 4.05821 2.19334 0
M  V30 3551 H 325.317 3.84879 2.00126 0
M  V30 3552 H 325.988 4.18437 3.6002 0
M  V30 3553 H 328.464 2.26045 3.49346 0
M  V30 3554 H 327.34 2.59923 4.83457 0
M  V30 3555 H 327.601 0.940186 4.31987 0
M  V30 3556 N 326.66 -1.06551 1.16123 0
M  V30 3557 C 327.57 -2.17484 0.879662 0
M  V30 3558 C 328.586 -1.73377 -0.147104 0
M  V30 3559 O 329.762 -2.01379 0.0289128 0
M  V30 3560 C 326.827 -3.44591 0.381829 0
M  V30 3561 C 325.888 -4.0322 1.4735 0
M  V30 3562 C 325.121 -5.24261 0.999324 0
M  V30 3563 O 325.344 -5.70198 -0.151957 0
M  V30 3564 O 324.278 -5.74775 1.78653 0
M  V30 3565 H 328.104 -2.44075 1.80724 0
M  V30 3566 H 325.689 -1.16042 0.940992 0
M  V30 3567 H 327.571 -4.21254 0.111053 0
M  V30 3568 H 326.246 -3.19532 -0.51777 0
M  V30 3569 H 325.153 -3.2806 1.79798 0
M  V30 3570 H 326.486 -4.32568 2.34831 0
M  V30 3571 N 328.138 -0.959301 -1.25041 0
M  V30 3572 C 329.554 -0.664474 -1.4511 0
M  V30 3573 C 329.754 0.776481 -1.85938 0
M  V30 3574 O 328.81 1.55128 -1.99227 0
M  V30 3575 C 330.123 -1.64139 -2.5195 0
M  V30 3576 C 331.671 -1.65309 -2.65786 0
M  V30 3577 C 332.146 -2.61777 -3.75815 0
M  V30 3578 N 333.637 -2.60169 -3.83231 0
M  V30 3579 C 334.372 -3.31489 -4.6787 0
M  V30 3580 N 333.868 -4.12298 -5.56761 0
M  V30 3581 N 335.661 -3.20354 -4.61876 0
M  V30 3582 H 327.812 -1.89043 -0.968332 0
M  V30 3583 H 330.075 -0.813408 -0.4869 0
M  V30 3584 H 329.781 -2.67086 -2.28819 0
M  V30 3585 H 329.655 -1.40756 -3.49954 0
M  V30 3586 H 332.042 -0.630778 -2.8828 0
M  V30 3587 H 332.123 -1.92753 -1.68167 0
M  V30 3588 H 331.767 -3.64137 -3.54071 0
M  V30 3589 H 331.697 -2.31616 -4.72929 0
M  V30 3590 H 334.188 -2.01507 -3.19692 0
M  V30 3591 H 334.501 -4.63625 -6.18281 0
M  V30 3592 H 332.846 -4.16395 -5.56454 0
M  V30 3593 H 336.037 -2.56692 -3.91442 0
M  V30 3594 H 336.21 -3.76201 -5.27614 0
M  V30 3595 N 329.616 1.39756 -0.72842 0
M  V30 3596 C 330.865 1.99879 -0.270407 0
M  V30 3597 C 331.178 1.58449 1.14688 0
M  V30 3598 O 332.384 2.11362 1.70407 0
M  V30 3599 C 330.84 3.57292 -0.43252 0
M  V30 3600 C 330.448 4.07688 -1.85727 0
M  V30 3601 C 332.192 4.24485 -0.0359507 0
M  V30 3602 C 330.099 5.5765 -1.96928 0
M  V30 3603 H 329.029 0.747689 -0.0973472 0
M  V30 3604 H 331.68 1.59837 -0.901355 0
M  V30 3605 H 330.062 3.95097 0.267219 0
M  V30 3606 H 331.236 3.81231 -2.58843 0
M  V30 3607 H 329.551 3.53135 -2.20646 0
M  V30 3608 H 332.148 5.34609 -0.0987484 0
M  V30 3609 H 332.491 4.03915 1.00787 0
M  V30 3610 H 333.024 3.9183 -0.686604 0
M  V30 3611 H 329.763 5.8309 -2.99476 0
M  V30 3612 H 329.283 5.8593 -1.28241 0
M  V30 3613 H 330.962 6.22957 -1.74737 0
M  V30 3614 N 331.094 0.475555 1.50254 0
M  V30 3615 C 332.334 -0.0765802 2.04256 0
M  V30 3616 C 332.698 -1.36587 1.34937 0
M  V30 3617 O 333.899 -2.00066 1.79519 0
M  V30 3618 C 332.17 -0.251668 3.56513 0
M  V30 3619 S 333.729 -0.761716 4.32138 0
M  V30 3620 H 330.547 -0.0138456 0.710865 0
M  V30 3621 H 333.149 0.643714 1.84598 0
M  V30 3622 H 331.853 0.692404 4.04517 0
M  V30 3623 H 331.384 -0.997946 3.80532 0
M  V30 3624 H 333.399 -2.03451 4.52573 0
M  V30 3625 N 332.573 -1.56217 0.208337 0
M  V30 3626 C 333.821 -1.97558 -0.426076 0
M  V30 3627 C 334.142 -1.09683 -1.61229 0
M  V30 3628 O 333.412 -0.170956 -1.95153 0
M  V30 3629 H 331.992 -0.729575 -0.160405 0
M  V30 3630 H 334.654 -1.92606 0.298155 0
M  V30 3631 H 333.75 -3.02672 -0.761312 0
M  V30 3632 N 334.051 0.0651679 -1.57465 0
M  V30 3633 C 335.298 0.763063 -1.87573 0
M  V30 3634 C 335.626 1.77242 -0.800961 0
M  V30 3635 O 334.881 1.94651 0.202316 0
M  V30 3636 C 335.18 1.50081 -3.24362 0
M  V30 3637 C 334.846 0.630816 -4.46466 0
M  V30 3638 C 333.508 0.391082 -4.79608 0
M  V30 3639 C 335.86 0.0279465 -5.21193 0
M  V30 3640 C 333.188 -0.460894 -5.84887 0
M  V30 3641 C 335.54 -0.811522 -6.27373 0
M  V30 3642 C 334.204 -1.06106 -6.59013 0
M  V30 3643 H 333.474 0.279224 -0.686378 0
M  V30 3644 H 336.121 0.0236726 -1.91485 0
M  V30 3645 H 334.426 2.31258 -3.16271 0
M  V30 3646 H 336.123 2.04571 -3.44894 0
M  V30 3647 H 332.713 0.8278 -4.2053 0
M  V30 3648 H 336.897 0.200262 -4.95896 0
M  V30 3649 H 332.153 -0.662907 -6.07796 0
M  V30 3650 H 336.327 -1.28537 -6.84435 0
M  V30 3651 H 333.954 -1.723 -7.40417 0
M  V30 3652 N 335.529 1.53961 0.336706 0
M  V30 3653 C 336.459 1.85417 1.41925 0
M  V30 3654 C 337.44 0.709856 1.5458 0
M  V30 3655 O 338.625 0.962396 1.68676 0
M  V30 3656 C 335.755 2.06985 2.78881 0
M  V30 3657 C 334.709 3.22813 2.81026 0
M  V30 3658 C 334.035 3.29727 4.20932 0
M  V30 3659 C 335.335 4.60767 2.45949 0
M  V30 3660 H 337.029 2.76079 1.15848 0
M  V30 3661 H 334.575 1.32839 0.555859 0
M  V30 3662 H 336.528 2.27575 3.54665 0
M  V30 3663 H 335.252 1.13061 3.06406 0
M  V30 3664 H 333.911 3.0209 2.07695 0
M  V30 3665 H 333.559 2.33385 4.45579 0
M  V30 3666 H 333.259 4.07566 4.23277 0
M  V30 3667 H 334.783 3.52536 4.98549 0
M  V30 3668 H 336.197 4.81325 3.11446 0
M  V30 3669 H 334.594 5.4106 2.59566 0
M  V30 3670 H 335.664 4.6391 1.41122 0
M  V30 3671 N 337.007 -0.598083 1.45811 0
M  V30 3672 C 338.255 -1.35413 1.50026 0
M  V30 3673 C 338.576 -1.94444 0.147177 0
M  V30 3674 O 337.846 -1.77701 -0.824571 0
M  V30 3675 H 336.426 -0.502727 0.552517 0
M  V30 3676 H 339.088 -0.701606 1.81834 0
M  V30 3677 H 338.184 -2.16871 2.2444 0
M  V30 3678 N 338.485 -1.33259 -0.841409 0
M  V30 3679 C 339.901 -1.12538 -1.13169 0
M  V30 3680 C 340.101 0.0854037 -2.01319 0
M  V30 3681 O 339.157 0.766417 -2.40587 0
M  V30 3682 C 340.47 -2.41156 -1.79623 0
M  V30 3683 C 342.018 -2.47038 -1.922 0
M  V30 3684 C 342.493 -3.7561 -2.6207 0
M  V30 3685 N 343.984 -3.76667 -2.69585 0
M  V30 3686 C 344.719 -4.72861 -3.2433 0
M  V30 3687 N 344.215 -5.79428 -3.79783 0
M  V30 3688 N 346.008 -4.6034 -3.22558 0
M  V30 3689 H 338.159 -2.10868 -0.254676 0
M  V30 3690 H 340.422 -0.931615 -0.175493 0
M  V30 3691 H 340.128 -3.29747 -1.22311 0
M  V30 3692 H 340.002 -2.53114 -2.79666 0
M  V30 3693 H 342.389 -1.58898 -2.48667 0
M  V30 3694 H 342.47 -2.39022 -0.911148 0
M  V30 3695 H 342.114 -4.64131 -2.06263 0
M  V30 3696 H 342.044 -3.80902 -3.63622 0
M  V30 3697 H 344.535 -2.99648 -2.30259 0
M  V30 3698 H 344.848 -6.48867 -4.19752 0
M  V30 3699 H 343.193 -5.83166 -3.78078 0
M  V30 3700 H 346.384 -3.76244 -2.78492 0
M  V30 3701 H 346.557 -5.35478 -3.64921 0
M  V30 3702 N 339.963 1.05934 -1.16686 0
M  V30 3703 C 341.374 1.60263 -0.957745 0
M  V30 3704 C 341.725 1.89789 0.49745 0
M  V30 3705 O 340.85 1.67401 1.37135 0
M  V30 3706 C 341.445 2.91172 -1.73218 0
M  V30 3707 C 340.004 3.42188 -1.56794 0
M  V30 3708 C 339.151 2.16028 -1.73859 0
M  V30 3709 H 342.102 0.888392 -1.31504 0
M  V30 3710 H 342.123 3.60744 -1.21014 0
M  V30 3711 H 341.635 2.6965 -2.79124 0
M  V30 3712 H 339.736 3.68762 -0.533437 0
M  V30 3713 H 339.849 4.17273 -2.35414 0
M  V30 3714 H 338.213 2.26426 -1.16633 0
M  V30 3715 H 338.996 1.96985 -2.81161 0
M  V30 3716 N 341.441 0.965919 1.2453 0
M  V30 3717 C 342.371 0.513476 2.27784 0
M  V30 3718 C 343.352 -0.445974 1.6415 0
M  V30 3719 O 344.537 -0.342485 1.91156 0
M  V30 3720 C 341.667 -0.198839 3.4673 0
M  V30 3721 C 340.621 0.676456 4.2262 0
M  V30 3722 C 339.947 -0.167248 5.34438 0
M  V30 3723 C 341.247 1.96017 4.84123 0
M  V30 3724 H 342.941 1.3765 2.65881 0
M  V30 3725 H 340.487 0.663321 1.27813 0
M  V30 3726 H 342.44 -0.526567 4.18097 0
M  V30 3727 H 341.164 -1.0962 3.07654 0
M  V30 3728 H 339.823 0.98743 3.53052 0
M  V30 3729 H 339.471 -1.0647 4.91603 0
M  V30 3730 H 339.171 0.415181 5.86131 0
M  V30 3731 H 340.695 -0.489688 6.08633 0
M  V30 3732 H 342.109 1.69814 5.47573 0
M  V30 3733 H 340.506 2.48918 5.4604 0
M  V30 3734 H 341.576 2.65622 4.05676 0
M  V30 3735 N 342.919 -1.39368 0.735821 0
M  V30 3736 C 344.167 -2.00101 0.283562 0
M  V30 3737 C 344.488 -1.5868 -1.13338 0
M  V30 3738 O 343.758 -0.835423 -1.77193 0
M  V30 3739 H 342.338 -0.740024 0.101851 0
M  V30 3740 H 345 -1.70404 0.945962 0
M  V30 3741 H 344.096 -3.10323 0.332604 0
M  V30 3742 N 344.397 -0.483516 -1.5 0
M  V30 3743 C 345.344 0.304164 -2.28787 0
M  V30 3744 C 346.314 0.976114 -1.34392 0
M  V30 3745 O 347.499 0.986156 -1.63339 0
M  V30 3746 C 344.639 1.37298 -3.16612 0
M  V30 3747 C 343.752 0.714561 -4.26049 0
M  V30 3748 C 342.887 1.76232 -5.01114 0
M  V30 3749 C 341.926 1.08483 -6.0241 0
M  V30 3750 N 341.063 2.076 -6.70706 0
M  V30 3751 H 345.903 -0.373981 -2.95644 0
M  V30 3752 H 343.44 -0.196275 -1.45785 0
M  V30 3753 H 345.398 2.00445 -3.65893 0
M  V30 3754 H 344.028 2.02012 -2.51776 0
M  V30 3755 H 343.08 -0.0297798 -3.80388 0
M  V30 3756 H 344.392 0.180383 -4.98474 0
M  V30 3757 H 343.546 2.46929 -5.54176 0
M  V30 3758 H 342.285 2.33033 -4.28424 0
M  V30 3759 H 341.29 0.363545 -5.48597 0
M  V30 3760 H 342.515 0.523551 -6.77079 0
M  V30 3761 H 340.461 2.63394 -6.00799 0
M  V30 3762 H 340.378 1.59201 -7.39047 0
M  V30 3763 H 341.646 2.77639 -7.2838 0
M  V30 3764 N 345.875 1.56104 -0.216619 0
M  V30 3765 C 346.785 2.23694 0.706982 0
M  V30 3766 C 347.801 1.24295 1.21765 0
M  V30 3767 O 348.977 1.57094 1.2603 0
M  V30 3768 C 346.042 2.8998 1.90033 0
M  V30 3769 C 345.103 4.04708 1.43213 0
M  V30 3770 C 344.336 4.67824 2.56859 0
M  V30 3771 O 344.559 4.29913 3.74874 0
M  V30 3772 O 343.493 5.56905 2.28343 0
M  V30 3773 H 347.319 3.03272 0.161235 0
M  V30 3774 H 344.904 1.49394 0.0136177 0
M  V30 3775 H 346.786 3.31837 2.59735 0
M  V30 3776 H 345.461 2.13365 2.43428 0
M  V30 3777 H 344.368 3.6743 0.70327 0
M  V30 3778 H 345.701 4.83051 0.944615 0
M  V30 3779 N 347.353 -0.0568162 1.57498 0
M  V30 3780 C 348.316 -1.05038 2.03715 0
M  V30 3781 C 349.316 -1.30709 0.936577 0
M  V30 3782 O 350.506 -1.26178 1.20103 0
M  V30 3783 C 347.638 -2.39034 2.43055 0
M  V30 3784 H 348.831 -0.651715 2.92733 0
M  V30 3785 H 346.384 -0.302947 1.53336 0
M  V30 3786 H 347.119 -2.83703 1.57108 0
M  V30 3787 H 346.904 -2.21739 3.2338 0
M  V30 3788 H 348.394 -3.10421 2.79336 0
M  V30 3789 N 348.832 -1.54138 -0.328536 0
M  V30 3790 C 349.762 -1.86167 -1.40939 0
M  V30 3791 C 350.743 -0.718044 -1.54202 0
M  V30 3792 O 351.928 -0.971328 -1.68163 0
M  V30 3793 C 349.058 -2.08461 -2.77779 0
M  V30 3794 C 348.012 -3.24299 -2.7931 0
M  V30 3795 C 347.338 -3.31955 -4.19178 0
M  V30 3796 C 348.638 -4.62065 -2.43502 0
M  V30 3797 H 350.332 -2.76689 -1.14383 0
M  V30 3798 H 347.878 -1.33132 -0.548806 0
M  V30 3799 H 349.831 -2.29453 -3.53454 0
M  V30 3800 H 348.555 -1.14684 -3.05802 0
M  V30 3801 H 347.214 -3.03187 -2.0609 0
M  V30 3802 H 346.862 -2.35745 -4.44335 0
M  V30 3803 H 346.562 -4.09805 -4.2111 0
M  V30 3804 H 348.086 -3.55175 -4.96672 0
M  V30 3805 H 349.5 -4.8297 -3.08889 0
M  V30 3806 H 347.897 -5.42429 -2.56693 0
M  V30 3807 H 348.967 -4.64652 -1.38659 0
M  V30 3808 N 350.31 0.590341 -1.46126 0
M  V30 3809 C 351.558 1.34616 -1.50742 0
M  V30 3810 C 351.879 1.94363 -0.157486 0
M  V30 3811 O 351.149 1.78136 0.815136 0
M  V30 3812 H 349.729 0.499789 -0.555175 0
M  V30 3813 H 352.391 0.691953 -1.82203 0
M  V30 3814 H 351.487 2.15678 -2.25587 0
M  V30 3815 N 351.788 1.33704 0.83433 0
M  V30 3816 C 353.013 1.28615 1.62705 0
M  V30 3817 C 353.438 -0.139242 1.87584 0
M  V30 3818 O 352.796 -1.09734 1.4432 0
M  V30 3819 C 352.844 2.07139 2.95171 0
M  V30 3820 O 351.948 1.4331 3.86699 0
M  V30 3821 H 351.289 0.44226 0.49528 0
M  V30 3822 H 353.819 1.76335 1.03766 0
M  V30 3823 H 353.829 2.18073 3.44831 0
M  V30 3824 H 352.504 3.10779 2.76386 0
M  V30 3825 H 351.081 1.4105 3.45195 0
M  V30 3826 N 353.266 -1.05314 1.17247 0
M  V30 3827 C 354.512 -1.78557 0.961513 0
M  V30 3828 C 354.845 -1.87419 -0.508697 0
M  V30 3829 O 354.12 -1.37307 -1.37757 0
M  V30 3830 C 354.403 -3.22514 1.60176 0
M  V30 3831 C 354.256 -3.21673 3.14399 0
M  V30 3832 C 355.575 -4.20318 1.30463 0
M  V30 3833 H 352.694 -0.6482 0.350723 0
M  V30 3834 H 355.336 -1.23102 1.44727 0
M  V30 3835 H 353.486 -3.69867 1.18871 0
M  V30 3836 H 355.158 -2.82405 3.64753 0
M  V30 3837 H 353.401 -2.60048 3.47214 0
M  V30 3838 H 354.072 -4.23271 3.54324 0
M  V30 3839 H 356.548 -3.81454 1.66229 0
M  V30 3840 H 355.424 -5.19289 1.77848 0
M  V30 3841 H 355.685 -4.41526 0.22521 0
M  V30 3842 N 354.744 -0.972509 -1.24016 0
M  V30 3843 C 355.99 -0.637978 -1.92504 0
M  V30 3844 C 356.323 0.825383 -1.75787 0
M  V30 3845 O 355.598 1.59442 -1.11393 0
M  V30 3846 C 355.881 -1.01942 -3.45369 0
M  V30 3847 C 355.734 -2.53983 -3.71231 0
M  V30 3848 C 357.053 -0.55751 -4.36555 0
M  V30 3849 H 354.172 -0.233248 -0.699117 0
M  V30 3850 H 356.814 -1.21238 -1.46292 0
M  V30 3851 H 354.964 -0.530656 -3.84859 0
M  V30 3852 H 356.636 -3.10374 -3.41271 0
M  V30 3853 H 354.879 -2.96968 -3.16216 0
M  V30 3854 H 355.55 -2.75723 -4.78206 0
M  V30 3855 H 358.026 -0.977029 -4.04467 0
M  V30 3856 H 356.902 -0.85292 -5.42233 0
M  V30 3857 H 357.163 0.542328 -4.38761 0
M  V30 3858 N 356.222 1.38976 -0.743202 0
M  V30 3859 C 357.185 2.28901 -0.117014 0
M  V30 3860 C 358.185 1.46698 0.658503 0
M  V30 3861 O 359.375 1.67274 0.486305 0
M  V30 3862 C 356.507 3.30309 0.84315 0
M  V30 3863 H 357.7 2.8578 -0.909373 0
M  V30 3864 H 355.253 1.47761 -0.509547 0
M  V30 3865 H 355.988 2.785 1.66157 0
M  V30 3866 H 355.773 3.91029 0.289594 0
M  V30 3867 H 357.263 3.97577 1.2776 0
M  V30 3868 N 357.7 0.491464 1.49741 0
M  V30 3869 C 358.65 -0.311086 2.25868 0
M  V30 3870 C 359.634 -0.943857 1.30308 0
M  V30 3871 O 360.826 -0.853035 1.55088 0
M  V30 3872 C 357.955 -1.38059 3.14316 0
M  V30 3873 C 357.041 -0.754541 4.17334 0
M  V30 3874 N 357.432 0.137216 5.05614 0
M  V30 3875 C 355.73 -1.01621 4.34269 0
M  V30 3876 C 356.431 0.494614 5.79593 0
M  V30 3877 N 355.407 -0.135169 5.43432 0
M  V30 3878 H 359.209 0.37555 2.91491 0
M  V30 3879 H 356.723 0.306917 1.59473 0
M  V30 3880 H 358.72 -1.96891 3.67477 0
M  V30 3881 H 357.38 -2.06901 2.50244 0
M  V30 3882 H 358.391 0.50741 5.15408 0
M  V30 3883 H 355.068 -1.69808 3.81407 0
M  V30 3884 H 356.458 1.2236 6.60665 0
M  V30 3885 N 359.178 -1.55987 0.224894 0
M  V30 3886 C 360.403 -2.03232 -0.41369 0
M  V30 3887 C 360.828 -1.10359 -1.52323 0
M  V30 3888 O 360.186 -0.092395 -1.81064 0
M  V30 3889 C 360.234 -3.48682 -0.919405 0
M  V30 3890 O 359.338 -3.58947 -2.03054 0
M  V30 3891 H 358.679 -0.657428 -0.0931903 0
M  V30 3892 H 361.209 -2.01679 0.34451 0
M  V30 3893 H 361.219 -3.8907 -1.22835 0
M  V30 3894 H 359.894 -4.15761 -0.107339 0
M  V30 3895 H 358.471 -3.30448 -1.72796 0
M  V30 3896 N 360.656 0.0484629 -1.57525 0
M  V30 3897 C 361.884 0.755421 -1.92616 0
M  V30 3898 C 362.299 1.69919 -0.822984 0
M  V30 3899 O 361.656 1.81378 0.202085 0
M  V30 3900 C 361.707 1.52915 -3.27566 0
M  V30 3901 O 361.428 0.62329 -4.33644 0
M  V30 3902 C 362.929 2.33502 -3.76818 0
M  V30 3903 H 360.149 0.213465 -0.63614 0
M  V30 3904 H 362.693 0.0117698 -2.04497 0
M  V30 3905 H 360.848 2.22486 -3.17142 0
M  V30 3906 H 361.262 1.16383 -5.11425 0
M  V30 3907 H 362.736 2.83214 -4.73808 0
M  V30 3908 H 363.213 3.14068 -3.07014 0
M  V30 3909 H 363.819 1.69043 -3.90262 0
M  V30 3910 N 362.134 1.5431 0.320358 0
M  V30 3911 C 363.381 1.72668 1.05792 0
M  V30 3912 C 363.709 0.502084 1.87908 0
M  V30 3913 O 362.964 -0.516149 1.88771 0
M  V30 3914 C 363.263 2.95639 2.00828 0
M  V30 3915 C 362.929 4.30265 1.34843 0
M  V30 3916 C 361.591 4.66865 1.16578 0
M  V30 3917 C 363.943 5.13801 0.875095 0
M  V30 3918 C 361.271 5.84597 0.496336 0
M  V30 3919 C 363.623 6.32219 0.219463 0
M  V30 3920 C 362.287 6.67495 0.0246915 0
M  V30 3921 H 361.557 0.631837 0.387121 0
M  V30 3922 H 364.204 1.88552 0.334735 0
M  V30 3923 H 362.509 2.74456 2.79609 0
M  V30 3924 H 364.206 3.07038 2.57932 0
M  V30 3925 H 360.796 4.01472 1.50061 0
M  V30 3926 H 364.98 4.86039 1.00398 0
M  V30 3927 H 360.236 6.10486 0.334264 0
M  V30 3928 H 364.41 6.96227 -0.155291 0
M  V30 3929 H 362.037 7.5858 -0.496065 0
M  V30 3930 N 363.613 -0.582584 1.46437 0
M  V30 3931 C 364.838 -1.37168 1.55563 0
M  V30 3932 C 365.263 -1.87061 0.19743 0
M  V30 3933 O 364.621 -1.61572 -0.822451 0
M  V30 3934 C 364.669 -2.53511 2.56446 0
M  V30 3935 O 363.773 -3.54953 2.09958 0
M  V30 3936 H 363.114 -0.408494 0.523477 0
M  V30 3937 H 365.644 -0.706646 1.9201 0
M  V30 3938 H 365.654 -3.00426 2.76058 0
M  V30 3939 H 364.329 -2.16549 3.55076 0
M  V30 3940 H 362.906 -3.14516 2.00334 0
M  V30 3941 N 365.091 -1.34144 -0.827227 0
M  V30 3942 C 366.054 -1.25264 -1.91942 0
M  V30 3943 C 367.054 -0.168866 -1.59911 0
M  V30 3944 O 368.244 -0.421198 -1.69031 0
M  V30 3945 C 365.376 -0.932952 -3.27885 0
M  V30 3946 H 366.569 -2.22357 -2.0124 0
M  V30 3947 H 364.122 -1.1837 -1.0207 0
M  V30 3948 H 364.857 0.0349917 -3.24281 0
M  V30 3949 H 364.642 -1.71682 -3.52516 0
M  V30 3950 H 366.132 -0.895874 -4.07877 0
M  V30 3951 N 366.569 1.04691 -1.17803 0
M  V30 3952 C 367.502 2.12068 -0.842765 0
M  V30 3953 C 368.48 1.61455 0.192608 0
M  V30 3954 O 369.664 1.88359 0.072995 0
M  V30 3955 C 366.791 3.37715 -0.258063 0
M  V30 3956 C 365.837 4.07164 -1.26962 0
M  V30 3957 S 366.67 4.55047 -2.82299 0
M  V30 3958 C 367.826 5.83935 -2.25323 0
M  V30 3959 H 368.059 2.4018 -1.75217 0
M  V30 3960 H 365.592 1.17366 -1.00323 0
M  V30 3961 H 367.55 4.10435 0.0727935 0
M  V30 3962 H 366.211 3.0773 0.629357 0
M  V30 3963 H 365.404 4.9746 -0.809263 0
M  V30 3964 H 365.006 3.40533 -1.54639 0
M  V30 3965 H 367.298 6.57552 -1.63192 0
M  V30 3966 H 368.241 6.34725 -3.13894 0
M  V30 3967 H 368.649 5.3874 -1.68582 0
M  V30 3968 N 368.047 0.979072 1.23499 0
M  V30 3969 C 368.994 0.517904 2.24914 0
M  V30 3970 C 369.964 -0.442525 1.60097 0
M  V30 3971 O 371.149 -0.350365 1.87556 0
M  V30 3972 C 368.289 -0.174813 3.44657 0
M  V30 3973 C 367.402 0.825721 4.24035 0
M  V30 3974 C 366.537 0.107946 5.3109 0
M  V30 3975 C 365.576 1.09778 6.02175 0
M  V30 3976 N 364.713 0.40925 7.00906 0
M  V30 3977 H 369.553 1.38751 2.63727 0
M  V30 3978 H 367.09 0.695303 1.2963 0
M  V30 3979 H 369.048 -0.593233 4.12961 0
M  V30 3980 H 367.678 -1.0083 3.06648 0
M  V30 3981 H 366.73 1.36253 3.55161 0
M  V30 3982 H 368.042 1.58005 4.73113 0
M  V30 3983 H 367.196 -0.367904 6.05583 0
M  V30 3984 H 365.935 -0.678994 4.8295 0
M  V30 3985 H 364.94 1.5844 5.26476 0
M  V30 3986 H 366.165 1.88536 6.52404 0
M  V30 3987 H 364.111 -0.358506 6.5502 0
M  V30 3988 H 364.028 1.10226 7.47921 0
M  V30 3989 H 365.296 -0.0442557 7.79487 0
M  V30 3990 N 369.525 -1.3858 0.750561 0
M  V30 3991 C 370.488 -2.28836 0.129152 0
M  V30 3992 C 371.488 -1.47045 -0.650714 0
M  V30 3993 O 372.678 -1.6753 -0.477428 0
M  V30 3994 C 369.81 -3.30751 -0.825622 0
M  V30 3995 H 371.003 -2.85294 0.924516 0
M  V30 3996 H 368.556 -1.47489 0.517376 0
M  V30 3997 H 369.291 -2.79378 -1.64677 0
M  V30 3998 H 369.076 -3.91177 -0.268852 0
M  V30 3999 H 370.566 -3.98249 -1.2565 0
M  V30 4000 N 371.003 -0.499398 -1.49478 0
M  V30 4001 C 371.951 0.293604 -2.3074 0
M  V30 4002 C 372.945 0.96427 -1.39277 0
M  V30 4003 O 374.151 0.892141 -1.56336 0
M  V30 4004 H 370.526 0.113541 -0.743379 0
M  V30 4005 H 372.497 -0.411772 -2.95545 0
M  V30 4006 C 371.246 1.3462 -3.20582 0
M  V30 4007 H 370.569 0.83954 -3.90886 0
M  V30 4008 H 372.009 1.87308 -3.80384 0
M  V30 4009 C 370.468 2.36351 -2.40083 0
M  V30 4010 O 370.998 3.422 -2.10385 0
M  V30 4011 N 369.204 2.0878 -2.02137 0
M  V30 4012 H 368.751 1.22723 -2.26488 0
M  V30 4013 H 368.709 2.77075 -1.48583 0
M  V30 4014 N 372.481 1.55866 -0.233164 0
M  V30 4015 C 373.709 2.02998 0.399905 0
M  V30 4016 C 374.124 1.11274 1.52524 0
M  V30 4017 O 373.481 0.124528 1.82075 0
M  V30 4018 C 373.532 3.4958 0.920639 0
M  V30 4019 O 373.253 4.37808 -0.159834 0
M  V30 4020 C 374.754 4.12411 1.62578 0
M  V30 4021 H 371.974 0.664006 0.0966281 0
M  V30 4022 H 374.518 2.0143 -0.353013 0
M  V30 4023 H 372.673 3.51727 1.62379 0
M  V30 4024 H 373.087 5.23981 0.23337 0
M  V30 4025 H 374.561 5.16711 1.94201 0
M  V30 4026 H 375.038 3.5809 2.54299 0
M  V30 4027 H 375.644 4.14148 0.967553 0
M  V30 4028 N 373.959 -0.0401083 1.57549 0
M  V30 4029 C 374.892 -1.07689 2.01192 0
M  V30 4030 C 375.87 -1.358 0.894273 0
M  V30 4031 O 377.054 -1.48642 1.15921 0
M  V30 4032 C 374.181 -2.41418 2.3756 0
M  V30 4033 C 373.227 -2.29237 3.59656 0
M  V30 4034 S 374.06 -1.65628 5.09242 0
M  V30 4035 C 375.216 -3.0087 5.48843 0
M  V30 4036 H 375.449 -0.705108 2.88817 0
M  V30 4037 H 372.982 -0.249724 1.52367 0
M  V30 4038 H 374.94 -3.18329 2.59186 0
M  V30 4039 H 373.601 -2.75747 1.50407 0
M  V30 4040 H 372.794 -3.27932 3.82722 0
M  V30 4041 H 372.396 -1.60469 3.37825 0
M  V30 4042 H 374.688 -3.97201 5.48851 0
M  V30 4043 H 375.631 -2.82549 6.49286 0
M  V30 4044 H 376.039 -3.02934 4.76331 0
M  V30 4045 N 375.437 -1.54477 -0.31217 0
M  V30 4046 C 376.662 -1.77526 -1.07235 0
M  V30 4047 C 377.087 -0.527775 -1.80544 0
M  V30 4048 O 376.445 0.52121 -1.73646 0
M  V30 4049 C 376.493 -2.97535 -2.03728 0
M  V30 4050 O 375.597 -2.69878 -3.11833 0
M  V30 4051 H 374.938 -0.58792 -0.30862 0
M  V30 4052 H 377.468 -2.01532 -0.352993 0
M  V30 4053 H 377.478 -3.25198 -2.46395 0
M  V30 4054 H 376.153 -3.87996 -1.49774 0
M  V30 4055 H 374.73 -2.53199 -2.7376 0
M  V30 4056 N 376.915 0.57481 -1.46744 0
M  V30 4057 C 377.863 1.70435 -1.58286 0
M  V30 4058 C 378.857 1.63287 -0.450956 0
M  V30 4059 O 380.063 1.68685 -0.628121 0
M  V30 4060 H 376.438 0.56364 -0.497809 0
M  V30 4061 H 378.409 1.57833 -2.53242 0
M  V30 4062 C 377.158 3.08815 -1.59776 0
M  V30 4063 H 376.481 3.1499 -2.46214 0
M  V30 4064 H 377.921 3.87588 -1.71905 0
M  V30 4065 C 376.38 3.35301 -0.327812 0
M  V30 4066 O 376.91 3.97511 0.57861 0
M  V30 4067 N 375.116 2.89816 -0.213274 0
M  V30 4068 H 374.663 2.39371 -0.951798 0
M  V30 4069 H 374.621 3.0791 0.63553 0
M  V30 4070 N 378.394 1.34581 0.820102 0
M  V30 4071 C 379.624 1.29991 1.6058 0
M  V30 4072 C 380.032 -0.127588 1.88769 0
M  V30 4073 O 379.375 -1.08595 1.48165 0
M  V30 4074 C 379.437 2.02548 2.9701 0
M  V30 4075 C 379.101 3.51794 2.91701 0
M  V30 4076 C 380.098 4.46647 2.66087 0
M  V30 4077 C 377.783 3.94249 3.11245 0
M  V30 4078 C 379.777 5.81929 2.60071 0
M  V30 4079 C 377.464 5.2963 3.04853 0
M  V30 4080 C 378.462 6.23282 2.793 0
M  V30 4081 O 378.15 7.56181 2.72847 0
M  V30 4082 H 377.882 0.448539 0.505756 0
M  V30 4083 H 380.436 1.77811 1.02822 0
M  V30 4084 H 378.666 1.49345 3.56697 0
M  V30 4085 H 380.355 1.91211 3.58041 0
M  V30 4086 H 381.121 4.15168 2.5072 0
M  V30 4087 H 377 3.21749 3.30149 0
M  V30 4088 H 380.544 6.54999 2.40046 0
M  V30 4089 H 376.441 5.60727 3.19774 0
M  V30 4090 H 377.209 7.6595 2.88553 0
M  V30 4091 N 379.872 -1.04064 1.18357 0
M  V30 4092 C 381.1 -1.80916 1.00384 0
M  V30 4093 C 381.515 -1.83414 -0.447738 0
M  V30 4094 O 380.872 -1.26962 -1.31099 0
M  V30 4095 C 380.923 -3.26516 1.55144 0
M  V30 4096 O 380.644 -3.2424 2.94618 0
M  V30 4097 C 382.145 -4.20013 1.41789 0
M  V30 4098 H 379.365 -0.569728 0.354474 0
M  V30 4099 H 381.909 -1.31151 1.56906 0
M  V30 4100 H 380.064 -3.73512 1.02798 0
M  V30 4101 H 380.478 -4.15452 3.20156 0
M  V30 4102 H 381.952 -5.20111 1.84901 0
M  V30 4103 H 382.429 -4.37667 0.36661 0
M  V30 4104 H 383.035 -3.78881 1.93207 0
M  V30 4105 N 381.35 -0.985608 -1.22978 0
M  V30 4106 C 382.28 -0.549649 -2.26939 0
M  V30 4107 C 383.261 0.419803 -1.64838 0
M  V30 4108 O 384.446 0.31203 -1.91677 0
M  V30 4109 C 381.576 0.143652 -3.47003 0
M  V30 4110 C 380.53 -0.743606 -4.21491 0
M  V30 4111 C 379.856 0.0822027 -5.34637 0
M  V30 4112 C 381.156 -2.03694 -4.80943 0
M  V30 4113 H 382.85 -1.41862 -2.63658 0
M  V30 4114 H 380.396 -0.683571 -1.26741 0
M  V30 4115 H 382.349 0.459985 -4.18882 0
M  V30 4116 H 381.073 1.04711 -3.09359 0
M  V30 4117 H 379.732 -1.04347 -3.51436 0
M  V30 4118 H 379.38 0.986359 -4.93234 0
M  V30 4119 H 379.08 -0.508377 -5.85397 0
M  V30 4120 H 380.604 0.392797 -6.09335 0
M  V30 4121 H 382.018 -1.78504 -5.44802 0
M  V30 4122 H 380.415 -2.57573 -5.42011 0
M  V30 4123 H 381.485 -2.72042 -4.01399 0
M  V30 4124 N 382.828 1.3818 -0.7579 0
M  V30 4125 C 383.758 2.33027 -0.148597 0
M  V30 4126 C 384.739 1.55085 0.69875 0
M  V30 4127 O 385.924 1.83384 0.639053 0
M  V30 4128 C 383.054 3.3928 0.742034 0
M  V30 4129 C 382.008 4.28 -0.00291946 0
M  V30 4130 C 381.334 5.25146 1.00625 0
M  V30 4131 C 382.634 5.08938 -1.17385 0
M  V30 4132 H 384.328 2.84231 -0.940909 0
M  V30 4133 H 381.874 1.36659 -0.453908 0
M  V30 4134 H 383.827 4.046 1.17799 0
M  V30 4135 H 382.551 2.86569 1.56671 0
M  V30 4136 H 381.21 3.64192 -0.419504 0
M  V30 4137 H 380.858 4.68721 1.8251 0
M  V30 4138 H 380.558 5.85361 0.512428 0
M  V30 4139 H 382.082 5.93342 1.44143 0
M  V30 4140 H 383.496 5.67474 -0.815224 0
M  V30 4141 H 381.893 5.7841 -1.59882 0
M  V30 4142 H 382.963 4.42424 -1.98468 0
M  V30 4143 N 384.306 0.507319 1.49211 0
M  V30 4144 C 385.717 0.0611118 1.866 0
M  V30 4145 C 386.068 -1.35488 1.41907 0
M  V30 4146 O 385.193 -2.0108 0.799726 0
M  V30 4147 C 385.788 0.104125 3.3864 0
M  V30 4148 C 384.347 -0.28677 3.75306 0
M  V30 4149 C 383.494 0.473893 2.73221 0
M  V30 4150 H 386.445 0.719775 1.41439 0
M  V30 4151 H 386.466 -0.689672 3.74198 0
M  V30 4152 H 385.978 1.13482 3.71138 0
M  V30 4153 H 384.079 -1.32046 3.48417 0
M  V30 4154 H 384.192 0.0370745 4.79086 0
M  V30 4155 H 382.556 -0.0770644 2.54583 0
M  V30 4156 H 383.339 1.50478 3.08563 0
M  V30 4157 N 385.784 -1.5574 0.241426 0
M  V30 4158 C 387.195 -1.84842 -0.262755 0
M  V30 4159 C 387.546 -1.16317 -1.58003 0
M  V30 4160 O 386.671 -0.439653 -2.11887 0
M  V30 4161 C 387.266 -3.35332 -0.483523 0
M  V30 4162 C 385.825 -3.6468 -0.931977 0
M  V30 4163 C 384.972 -2.77299 -0.0061151 0
M  V30 4164 H 387.923 -1.51761 0.464129 0
M  V30 4165 H 387.944 -3.56615 -1.32688 0
M  V30 4166 H 387.456 -3.85178 0.47537 0
M  V30 4167 H 385.557 -3.20307 -1.90353 0
M  V30 4168 H 385.67 -4.72498 -0.792628 0
M  V30 4169 H 384.034 -2.49408 -0.516503 0
M  V30 4170 H 384.817 -3.2995 0.948052 0
M  V30 4171 N 387.262 0.0317525 -1.57568 0
M  V30 4172 C 388.487 0.738664 -1.938 0
M  V30 4173 C 388.912 1.68242 -0.841208 0
M  V30 4174 O 388.27 1.80157 0.203267 0
M  V30 4175 C 388.318 1.47417 -3.29091 0
M  V30 4176 O 387.422 2.5872 -3.2115 0
M  V30 4177 H 386.763 0.198856 -0.633524 0
M  V30 4178 H 389.293 -0.0119713 -2.04596 0
M  V30 4179 H 389.303 1.84468 -3.63917 0
M  V30 4180 H 387.978 0.781988 -4.08482 0
M  V30 4181 H 386.555 2.24231 -2.97951 0
M  V30 4182 N 388.74 1.54641 0.303973 0
M  V30 4183 C 389.67 1.88386 1.3796 0
M  V30 4184 C 390.651 0.742485 1.5304 0
M  V30 4185 O 391.836 0.997959 1.66597 0
M  V30 4186 C 388.966 2.12854 2.74427 0
M  V30 4187 C 387.92 3.28702 2.74115 0
M  V30 4188 C 387.246 3.38582 4.13844 0
M  V30 4189 C 388.546 4.65881 2.3612 0
M  V30 4190 H 390.24 2.78474 1.09966 0
M  V30 4191 H 387.786 1.33988 0.527556 0
M  V30 4192 H 389.739 2.35047 3.49758 0
M  V30 4193 H 388.463 1.19535 3.03939 0
M  V30 4194 H 387.122 3.06428 2.0124 0
M  V30 4195 H 386.77 2.42784 4.40528 0
M  V30 4196 H 386.47 4.16453 4.14537 0
M  V30 4197 H 387.994 3.63031 4.90959 0
M  V30 4198 H 389.408 4.87823 3.01167 0
M  V30 4199 H 387.805 5.46444 2.48031 0
M  V30 4200 H 388.875 4.66799 1.3125 0
M  V30 4201 N 390.218 -0.567019 1.47046 0
M  V30 4202 C 391.148 -1.68482 1.61667 0
M  V30 4203 C 392.129 -1.6358 0.466418 0
M  V30 4204 O 393.314 -1.81354 0.694574 0
M  V30 4205 C 390.444 -3.07124 1.62148 0
M  V30 4206 C 389.398 -3.26867 2.76301 0
M  V30 4207 C 388.724 -4.66196 2.61849 0
M  V30 4208 C 390.024 -3.13186 4.17986 0
M  V30 4209 H 391.718 -1.56502 2.5524 0
M  V30 4210 H 389.264 -0.751486 1.22836 0
M  V30 4211 H 391.217 -3.8516 1.70968 0
M  V30 4212 H 389.941 -3.2004 0.651287 0
M  V30 4213 H 388.6 -2.51237 2.66975 0
M  V30 4214 H 388.248 -4.75898 1.62879 0
M  V30 4215 H 387.948 -4.80356 3.38425 0
M  V30 4216 H 389.472 -5.46379 2.72584 0
M  V30 4217 H 390.886 -3.81049 4.2834 0
M  V30 4218 H 389.283 -3.3886 4.95272 0
M  V30 4219 H 390.353 -2.10057 4.3704 0
M  V30 4220 N 391.696 -1.35014 -0.812953 0
M  V30 4221 C 392.973 -1.18502 -1.55617 0
M  V30 4222 C 393.353 0.238421 -2.09749 0
M  V30 4223 O 392.701 1.2411 -1.91857 0
M  V30 4224 C 392.911 -2.24783 -2.66971 0
M  V30 4225 C 394.259 -2.60268 -3.35478 0
M  V30 4226 O 395.283 -2.23648 -2.77236 0
M  V30 4227 O 394.142 -3.2321 -4.40678 0
M  V30 4228 H 391.236 -0.459984 -0.687272 0
M  V30 4229 H 393.782 -1.46677 -0.853464 0
M  V30 4230 H 392.554 -3.20284 -2.24798 0
M  V30 4231 H 392.177 -1.97841 -3.44884 0
M  V30 4232 N 393.175 1.03435 -1.18907 0
M  V30 4233 C 394.125 2.09924 -0.889706 0
M  V30 4234 C 395.109 1.60261 0.143216 0
M  V30 4235 O 396.301 1.76892 -0.0617122 0
M  V30 4236 C 393.43 3.40669 -0.424168 0
M  V30 4237 C 392.516 3.97082 -1.48952 0
M  V30 4238 N 392.907 4.27227 -2.70759 0
M  V30 4239 C 391.205 4.25029 -1.35152 0
M  V30 4240 C 391.906 4.7246 -3.39347 0
M  V30 4241 N 390.882 4.7366 -2.66735 0
M  V30 4242 H 394.684 2.31116 -1.81555 0
M  V30 4243 H 392.198 1.21246 -1.08042 0
M  V30 4244 H 394.195 4.16461 -0.191176 0
M  V30 4245 H 392.855 3.20901 0.495263 0
M  V30 4246 H 393.866 4.16678 -3.0757 0
M  V30 4247 H 390.543 4.14554 -0.495126 0
M  V30 4248 H 391.933 5.04751 -4.43481 0
M  V30 4249 N 394.653 0.992116 1.22453 0
M  V30 4250 C 396.069 0.702713 1.43297 0
M  V30 4251 C 396.269 -0.726909 1.87932 0
M  V30 4252 O 395.325 -1.49792 2.0327 0
M  V30 4253 C 396.638 1.70762 2.47509 0
M  V30 4254 C 398.186 1.72298 2.61309 0
M  V30 4255 C 398.661 2.71649 3.68742 0
M  V30 4256 N 400.152 2.70239 3.76199 0
M  V30 4257 C 400.887 3.43778 4.58917 0
M  V30 4258 N 400.383 4.26914 5.45633 0
M  V30 4259 N 402.176 3.32487 4.5322 0
M  V30 4260 H 394.327 1.91543 0.917871 0
M  V30 4261 H 396.59 0.826031 0.465162 0
M  V30 4262 H 396.296 2.73059 2.21657 0
M  V30 4263 H 396.17 1.49985 3.46099 0
M  V30 4264 H 398.557 0.706989 2.86506 0
M  V30 4265 H 398.638 1.97143 1.62997 0
M  V30 4266 H 398.282 3.73397 3.44292 0
M  V30 4267 H 398.212 2.44074 4.66622 0
M  V30 4268 H 400.703 2.09912 3.14237 0
M  V30 4269 H 401.016 4.79855 6.05771 0
M  V30 4270 H 399.361 4.31002 5.45218 0
M  V30 4271 H 402.552 2.6698 3.84499 0
M  V30 4272 H 402.725 3.90058 5.17454 0
M  V30 4273 N 396.131 -1.37776 0.765217 0
M  V30 4274 C 397.547 -1.53297 0.444108 0
M  V30 4275 C 397.747 -1.72515 -1.04119 0
M  V30 4276 O 396.803 -1.74278 -1.82711 0
M  V30 4277 C 398.116 -2.73328 1.25349 0
M  V30 4278 C 399.664 -2.87185 1.24473 0
M  V30 4279 C 400.139 -4.10191 2.03733 0
M  V30 4280 N 401.63 -4.17291 2.01053 0
M  V30 4281 C 402.365 -5.11488 2.59166 0
M  V30 4282 N 401.861 -6.11285 3.26041 0
M  V30 4283 N 403.654 -5.03924 2.49032 0
M  V30 4284 H 395.805 -1.23552 1.72768 0
M  V30 4285 H 398.068 -0.601103 0.733062 0
M  V30 4286 H 397.774 -2.6557 2.30577 0
M  V30 4287 H 397.648 -3.66834 0.87823 0
M  V30 4288 H 400.035 -2.94418 0.20047 0
M  V30 4289 H 400.116 -1.94657 1.65959 0
M  V30 4290 H 399.76 -4.0372 3.08176 0
M  V30 4291 H 399.69 -5.01821 1.59633 0
M  V30 4292 H 402.181 -3.45825 1.5236 0
M  V30 4293 H 402.494 -6.79678 3.67774 0
M  V30 4294 H 400.839 -6.11583 3.30138 0
M  V30 4295 H 404.03 -4.24902 1.96407 0
M  V30 4296 H 404.203 -5.77152 2.94617 0
M  V30 4297 N 397.609 -0.515225 -1.4894 0
M  V30 4298 C 398.857 0.0241671 -2.02086 0
M  V30 4299 C 399.178 1.3616 -1.3959 0
M  V30 4300 O 398.448 1.87841 -0.556121 0
M  V30 4301 H 397.028 0.0119203 -0.746905 0
M  V30 4302 H 399.69 -0.675702 -1.82812 0
M  V30 4303 H 398.786 0.143385 -3.1177 0
M  V30 4304 N 399.087 1.5561 -0.249682 0
M  V30 4305 C 400.05 2.20217 0.635394 0
M  V30 4306 C 401.05 1.17227 1.10066 0
M  V30 4307 O 402.24 1.42292 1.00492 0
M  V30 4308 C 399.372 2.84794 1.87363 0
M  V30 4309 H 400.565 2.99814 0.0716752 0
M  V30 4310 H 398.118 1.563 -0.000153234 0
M  V30 4311 H 398.853 2.09142 2.47851 0
M  V30 4312 H 398.638 3.60241 1.5482 0
M  V30 4313 H 400.128 3.3423 2.5036 0
M  V30 4314 N 400.565 -0.0233959 1.57583 0
M  V30 4315 C 401.812 -0.713063 1.8953 0
M  V30 4316 C 402.14 -1.75056 0.847673 0
M  V30 4317 O 401.395 -1.95119 -0.150636 0
M  V30 4318 C 401.694 -1.41428 3.28227 0
M  V30 4319 C 401.36 -0.512222 4.47981 0
M  V30 4320 C 400.022 -0.263785 4.80476 0
M  V30 4321 C 402.374 0.110248 5.21083 0
M  V30 4322 C 399.702 0.615804 5.83459 0
M  V30 4323 C 402.054 0.977573 6.25001 0
M  V30 4324 C 400.718 1.23542 6.55968 0
M  V30 4325 H 399.988 -0.260928 0.69354 0
M  V30 4326 H 402.635 0.0271047 1.91481 0
M  V30 4327 H 400.94 -2.22791 3.22291 0
M  V30 4328 H 402.637 -1.95355 3.50196 0
M  V30 4329 H 399.227 -0.716013 4.22577 0
M  V30 4330 H 403.411 -0.0687137 4.96252 0
M  V30 4331 H 398.667 0.82382 6.05824 0
M  V30 4332 H 402.841 1.46638 6.80786 0
M  V30 4333 H 400.468 1.91871 7.35588 0
M  V30 4334 N 402.043 -1.548 -0.295768 0
M  V30 4335 C 402.973 -1.89115 -1.36959 0
M  V30 4336 C 403.954 -0.75059 -1.52644 0
M  V30 4337 O 405.139 -1.00678 -1.66065 0
M  V30 4338 C 402.269 -2.14307 -2.73295 0
M  V30 4339 C 401.223 -3.30151 -2.72368 0
M  V30 4340 C 400.549 -3.40772 -4.12042 0
M  V30 4341 C 401.849 -4.67126 -2.33646 0
M  V30 4342 H 403.543 -2.79053 -1.08488 0
M  V30 4343 H 401.089 -1.34266 -0.520443 0
M  V30 4344 H 403.042 -2.36898 -3.48507 0
M  V30 4345 H 401.766 -1.21145 -3.03301 0
M  V30 4346 H 400.425 -3.0749 -1.99613 0
M  V30 4347 H 400.073 -2.45117 -4.39234 0
M  V30 4348 H 399.773 -4.18645 -4.12322 0
M  V30 4349 H 401.297 -3.6563 -4.89027 0
M  V30 4350 H 402.711 -4.89414 -2.98575 0
M  V30 4351 H 401.108 -5.47751 -2.45129 0
M  V30 4352 H 402.178 -4.67489 -1.28772 0
M  V30 4353 N 403.521 0.559213 -1.47345 0
M  V30 4354 C 404.937 0.884943 -1.32819 0
M  V30 4355 C 405.137 1.98988 -0.317173 0
M  V30 4356 O 404.193 2.51031 0.272011 0
M  V30 4357 C 405.506 1.28007 -2.72093 0
M  V30 4358 C 407.054 1.39161 -2.80363 0
M  V30 4359 C 407.529 1.82031 -4.20272 0
M  V30 4360 N 409.02 1.89185 -4.22804 0
M  V30 4361 C 409.755 2.2368 -5.27973 0
M  V30 4362 N 409.251 2.56802 -6.43447 0
M  V30 4363 N 411.044 2.24436 -5.15349 0
M  V30 4364 H 403.195 -0.170304 -2.11716 0
M  V30 4365 H 405.458 -0.0135247 -0.947904 0
M  V30 4366 H 405.164 0.542027 -3.47498 0
M  V30 4367 H 405.038 2.23665 -3.03733 0
M  V30 4368 H 407.425 2.12048 -2.05231 0
M  V30 4369 H 407.506 0.41696 -2.52379 0
M  V30 4370 H 407.15 1.09715 -4.95908 0
M  V30 4371 H 407.08 2.80495 -4.45679 0
M  V30 4372 H 409.571 1.65982 -3.39497 0
M  V30 4373 H 409.884 2.82144 -7.19454 0
M  V30 4374 H 408.229 2.54387 -6.46771 0
M  V30 4375 H 411.42 1.97998 -4.24163 0
M  V30 4376 H 411.593 2.50989 -5.97418 0
M  V30 4377 N 404.999 1.35443 0.805782 0
M  V30 4378 C 405.946 1.28431 1.91766 0
M  V30 4379 C 406.916 0.156102 1.65365 0
M  V30 4380 O 408.101 0.339936 1.87747 0
M  V30 4381 C 405.241 1.06301 3.2832 0
M  V30 4382 C 404.354 2.2805 3.66902 0
M  V30 4383 C 403.489 1.99064 4.92491 0
M  V30 4384 C 402.528 3.16863 5.23703 0
M  V30 4385 N 401.665 2.87647 6.40471 0
M  V30 4386 H 406.505 2.23511 1.97096 0
M  V30 4387 H 404.042 1.11105 0.964054 0
M  V30 4388 H 406 0.915012 4.07042 0
M  V30 4389 H 404.63 0.148822 3.22457 0
M  V30 4390 H 403.682 2.53711 2.83434 0
M  V30 4391 H 404.994 3.1601 3.85927 0
M  V30 4392 H 404.148 1.81099 5.7904 0
M  V30 4393 H 402.887 1.0839 4.75503 0
M  V30 4394 H 401.892 3.35404 4.35642 0
M  V30 4395 H 403.117 4.08339 5.4262 0
M  V30 4396 H 401.063 1.99568 6.24907 0
M  V30 4397 H 400.98 3.69141 6.59751 0
M  V30 4398 H 402.248 2.73226 7.30047 0
M  V30 4399 N 406.477 -1.02803 1.19454 0
M  V30 4400 C 407.725 -1.75869 0.995722 0
M  V30 4401 C 408.046 -1.89138 -0.474543 0
M  V30 4402 O 407.316 -1.42558 -1.34366 0
M  V30 4403 H 405.896 -0.651511 0.365435 0
M  V30 4404 H 408.558 -1.24004 1.50363 0
M  V30 4405 H 407.654 -2.76661 1.44447 0
M  V30 4406 N 407.956 -0.998596 -1.21925 0
M  V30 4407 C 409.202 -0.678667 -1.91107 0
M  V30 4408 C 409.535 0.78791 -1.77498 0
M  V30 4409 O 408.81 1.57043 -1.1475 0
M  V30 4410 C 409.093 -1.09245 -3.43129 0
M  V30 4411 C 408.946 -2.61801 -3.6576 0
M  V30 4412 C 410.265 -0.649984 -4.35274 0
M  V30 4413 H 407.384 -0.248025 -0.694012 0
M  V30 4414 H 410.026 -1.24314 -1.43688 0
M  V30 4415 H 408.176 -0.612171 -3.83647 0
M  V30 4416 H 409.848 -3.17543 -3.34611 0
M  V30 4417 H 408.091 -3.03609 -3.09845 0
M  V30 4418 H 408.762 -2.85804 -4.7225 0
M  V30 4419 H 411.238 -1.0626 -4.02303 0
M  V30 4420 H 410.114 -0.967743 -5.40302 0
M  V30 4421 H 410.375 0.449139 -4.39813 0
M  V30 4422 N 409.434 1.37368 -0.772513 0
M  V30 4423 C 410.674 2.01512 -0.342361 0
M  V30 4424 C 411.038 1.59997 1.06136 0
M  V30 4425 O 412.239 2.16609 1.59167 0
M  V30 4426 C 410.51 3.54134 -0.482048 0
M  V30 4427 S 412.069 4.38585 -0.137272 0
M  V30 4428 H 408.887 0.698699 -0.131686 0
M  V30 4429 H 411.489 1.67552 -1.0073 0
M  V30 4430 H 410.193 3.81837 -1.50428 0
M  V30 4431 H 409.724 3.92894 0.199413 0
M  V30 4432 H 411.739 4.84594 1.06692 0
M  V30 4433 N 410.912 0.523116 1.48665 0
M  V30 4434 C 412.16 -0.0134497 2.02096 0
M  V30 4435 C 412.481 -1.35418 1.40311 0
M  V30 4436 O 411.751 -1.87543 0.566074 0
M  V30 4437 H 410.331 -0.00795915 0.746958 0
M  V30 4438 H 412.993 0.685388 1.82451 0
M  V30 4439 H 412.089 -0.126849 3.11842 0
M  V30 4440 N 412.39 -1.55475 0.257931 0
M  V30 4441 C 413.667 -1.91155 -0.414629 0
M  V30 4442 C 414.047 -1.18008 -1.75035 0
M  V30 4443 O 413.395 -0.301193 -2.26506 0
M  V30 4444 C 413.605 -3.44283 -0.571859 0
M  V30 4445 C 414.953 -4.15744 -0.862678 0
M  V30 4446 O 415.977 -3.50083 -0.657314 0
M  V30 4447 O 414.836 -5.31909 -1.2544 0
M  V30 4448 H 411.93 -0.796016 -0.22425 0
M  V30 4449 H 414.476 -1.66976 0.302814 0
M  V30 4450 H 413.248 -3.89558 0.368844 0
M  V30 4451 H 412.871 -3.7436 -1.33943 0
M  V30 4452 N 413.868 0.0150385 -1.57593 0
M  V30 4453 C 415.114 0.69849 -1.91031 0
M  V30 4454 C 415.469 1.72208 -0.85804 0
M  V30 4455 O 414.762 1.91147 0.131614 0
M  V30 4456 C 414.956 1.39686 -3.28972 0
M  V30 4457 C 414.785 0.442428 -4.47518 0
M  V30 4458 C 413.555 0.0583223 -5.05266 0
M  V30 4459 C 415.753 -0.285072 -5.13509 0
M  V30 4460 N 413.735 -0.895893 -6.07328 0
M  V30 4461 C 415.106 -1.09447 -6.10263 0
M  V30 4462 C 417.161 -0.350518 -4.96665 0
M  V30 4463 C 415.864 -1.96333 -6.91987 0
M  V30 4464 C 417.89 -1.20655 -5.78962 0
M  V30 4465 C 417.252 -2.00383 -6.75297 0
M  V30 4466 H 413.351 0.22926 -0.747639 0
M  V30 4467 H 415.935 -0.0417748 -1.94655 0
M  V30 4468 H 414.106 2.1075 -3.2625 0
M  V30 4469 H 415.838 2.03381 -3.49883 0
M  V30 4470 H 412.593 0.423506 -4.71703 0
M  V30 4471 H 413.017 -1.36792 -6.63036 0
M  V30 4472 H 417.659 0.251596 -4.22051 0
M  V30 4473 H 415.377 -2.57618 -7.65936 0
M  V30 4474 H 418.963 -1.2609 -5.67972 0
M  V30 4475 H 417.843 -2.65552 -7.3787 0
M  V30 4476 N 415.346 1.54954 0.287554 0
M  V30 4477 C 416.293 1.86834 1.35505 0
M  V30 4478 C 417.263 0.718452 1.49758 0
M  V30 4479 O 418.448 0.968358 1.644 0
M  V30 4480 C 415.588 2.13303 2.71286 0
M  V30 4481 C 414.701 3.40883 2.65373 0
M  V30 4482 C 413.836 3.57125 3.93236 0
M  V30 4483 C 412.875 4.78449 3.81776 0
M  V30 4484 N 412.012 4.91426 5.01443 0
M  V30 4485 H 416.852 2.77889 1.07619 0
M  V30 4486 H 414.389 1.37593 0.520241 0
M  V30 4487 H 416.347 2.26646 3.50267 0
M  V30 4488 H 414.977 1.25499 2.97405 0
M  V30 4489 H 414.029 3.36088 1.78182 0
M  V30 4490 H 415.341 4.29993 2.52799 0
M  V30 4491 H 414.495 3.70207 4.80658 0
M  V30 4492 H 413.234 2.66173 4.0866 0
M  V30 4493 H 412.239 4.65386 2.92738 0
M  V30 4494 H 413.464 5.70822 3.67884 0
M  V30 4495 H 411.41 4.03401 5.17304 0
M  V30 4496 H 411.327 5.74559 4.91343 0
M  V30 4497 H 412.595 5.08879 5.90477 0
M  V30 4498 N 416.824 -0.551391 1.4764 0
M  V30 4499 C 417.772 -1.67896 1.60978 0
M  V30 4500 C 418.766 -1.62549 0.476877 0
M  V30 4501 O 419.972 -1.67664 0.654878 0
M  V30 4502 H 416.347 -0.555649 0.506713 0
M  V30 4503 H 418.318 -1.53784 2.55721 0
M  V30 4504 C 417.067 -3.06234 1.64669 0
M  V30 4505 H 416.39 -3.11033 2.51194 0
M  V30 4506 H 417.83 -3.84804 1.7805 0
M  V30 4507 C 416.289 -3.34737 0.381115 0
M  V30 4508 O 416.819 -3.98381 -0.515297 0
M  V30 4509 N 415.025 -2.8944 0.259354 0
M  V30 4510 H 414.572 -2.37827 0.98976 0
M  V30 4511 H 414.53 -3.08882 -0.586464 0
M  V30 4512 N 418.302 -1.35869 -0.798587 0
M  V30 4513 C 419.252 -1.25982 -1.90033 0
M  V30 4514 C 420.236 -0.153303 -1.60168 0
M  V30 4515 O 421.428 -0.38527 -1.72756 0
M  V30 4516 C 418.557 -1.04211 -3.27101 0
M  V30 4517 C 417.643 -2.19289 -3.63006 0
M  V30 4518 N 418.034 -3.44559 -3.70287 0
M  V30 4519 C 416.332 -2.10852 -3.93011 0
M  V30 4520 C 417.033 -4.20283 -4.02166 0
M  V30 4521 N 416.009 -3.49124 -4.16669 0
M  V30 4522 H 419.811 -2.20883 -1.93876 0
M  V30 4523 H 417.325 -1.28457 -0.993614 0
M  V30 4524 H 419.322 -0.952155 -4.05881 0
M  V30 4525 H 417.982 -0.102013 -3.2454 0
M  V30 4526 H 418.993 -3.7881 -3.53162 0
M  V30 4527 H 415.67 -1.24744 -3.98428 0
M  V30 4528 H 417.06 -5.28575 -4.14799 0
M  V30 4529 N 419.78 1.02168 -1.19998 0
M  V30 4530 C 421.027 1.75685 -1.00702 0
M  V30 4531 C 421.355 1.88947 0.461426 0
M  V30 4532 O 420.61 1.40832 1.35885 0
M  V30 4533 C 420.909 3.18081 -1.62969 0
M  V30 4534 C 420.575 3.24809 -3.12746 0
M  V30 4535 C 419.237 3.26352 -3.53621 0
M  V30 4536 C 421.589 3.23379 -4.08749 0
M  V30 4537 C 418.917 3.2413 -4.89036 0
M  V30 4538 C 421.269 3.22698 -5.44104 0
M  V30 4539 C 419.933 3.22542 -5.84399 0
M  V30 4540 H 419.203 0.642877 -0.368496 0
M  V30 4541 H 421.85 1.19865 -1.49348 0
M  V30 4542 H 420.155 3.77027 -1.06573 0
M  V30 4543 H 421.852 3.73648 -1.45561 0
M  V30 4544 H 418.442 3.2434 -2.80181 0
M  V30 4545 H 422.626 3.21361 -3.78207 0
M  V30 4546 H 417.882 3.22338 -5.19527 0
M  V30 4547 H 422.056 3.20543 -6.18244 0
M  V30 4548 H 419.683 3.20575 -6.89301 0
M  V30 4549 N 421.258 1.00505 1.21394 0
M  V30 4550 C 422.486 0.706609 1.9446 0
M  V30 4551 C 422.901 -0.73081 1.74082 0
M  V30 4552 O 422.258 -1.49446 1.04747 0
M  V30 4553 C 422.309 1.01824 3.46863 0
M  V30 4554 O 422.03 2.39919 3.66566 0
M  V30 4555 C 423.531 0.739216 4.37093 0
M  V30 4556 H 420.751 0.260394 0.618414 0
M  V30 4557 H 423.295 1.34311 1.54211 0
M  V30 4558 H 421.45 0.427343 3.85036 0
M  V30 4559 H 421.864 2.50784 4.6066 0
M  V30 4560 H 423.338 1.00744 5.42729 0
M  V30 4561 H 423.815 -0.326746 4.37983 0
M  V30 4562 H 424.421 1.31173 4.04566 0
M  V30 4563 N 422.737 -1.36956 0.779787 0
M  V30 4564 C 423.983 -1.99787 0.348281 0
M  V30 4565 C 424.316 -1.61756 -1.07465 0
M  V30 4566 O 423.591 -0.867639 -1.74075 0
M  V30 4567 C 423.874 -3.56597 0.50104 0
M  V30 4568 C 423.727 -4.04513 1.96697 0
M  V30 4569 C 425.046 -4.40008 -0.0898097 0
M  V30 4570 H 422.165 -0.725796 0.128022 0
M  V30 4571 H 424.807 -1.62514 0.984331 0
M  V30 4572 H 422.957 -3.88479 -0.0404347 0
M  V30 4573 H 424.629 -3.83161 2.56876 0
M  V30 4574 H 422.872 -3.56408 2.47297 0
M  V30 4575 H 423.543 -5.1352 2.02486 0
M  V30 4576 H 426.019 -4.14431 0.372293 0
M  V30 4577 H 424.895 -5.4888 0.0471605 0
M  V30 4578 H 425.156 -4.26035 -1.18096 0
M  V30 4579 N 424.215 -0.530993 -1.48385 0
M  V30 4580 C 425.178 0.220497 -2.28137 0
M  V30 4581 C 426.178 0.866851 -1.35434 0
M  V30 4582 O 427.368 0.726746 -1.58316 0
M  V30 4583 C 424.5 1.31921 -3.1434 0
M  V30 4584 H 425.693 -0.479714 -2.96038 0
M  V30 4585 H 423.246 -0.286968 -1.53643 0
M  V30 4586 H 423.981 2.05264 -2.51072 0
M  V30 4587 H 423.766 0.86085 -3.82533 0
M  V30 4588 H 425.256 1.84776 -3.74497 0
M  V30 4589 N 425.693 1.55336 -0.266172 0
M  V30 4590 C 426.625 2.19544 0.658247 0
M  V30 4591 C 427.638 1.17746 1.12427 0
M  V30 4592 O 428.827 1.44517 1.04772 0
M  V30 4593 C 425.927 2.80032 1.9088 0
M  V30 4594 C 425.1 4.07436 1.59106 0
M  V30 4595 C 424.159 4.52056 2.69317 0
M  V30 4596 O 423.185 5.18023 2.35883 0
M  V30 4597 N 424.387 4.21448 3.99201 0
M  V30 4598 H 427.152 2.99503 0.108754 0
M  V30 4599 H 424.713 1.61667 -0.0869059 0
M  V30 4600 H 426.705 3.06831 2.63888 0
M  V30 4601 H 425.275 2.04119 2.36758 0
M  V30 4602 H 424.495 3.88021 0.695243 0
M  V30 4603 H 425.783 4.90462 1.35367 0
M  V30 4604 H 425.181 3.68528 4.29189 0
M  V30 4605 H 423.738 4.53039 4.68614 0
M  V30 4606 N 427.171 -0.0066808 1.57599 0
M  V30 4607 C 428.396 -0.707738 1.94951 0
M  V30 4608 C 428.821 -1.66882 0.867868 0
M  V30 4609 O 428.179 -1.80457 -0.17458 0
M  V30 4610 C 428.227 -1.42162 3.31394 0
M  V30 4611 O 427.331 -2.53578 3.25226 0
M  V30 4612 H 426.672 -0.188752 0.636607 0
M  V30 4613 H 429.202 0.0445193 2.04552 0
M  V30 4614 H 429.212 -1.78655 3.66806 0
M  V30 4615 H 427.887 -0.716903 4.09675 0
M  V30 4616 H 426.464 -2.19463 3.01481 0
M  V30 4617 N 428.649 -1.55105 -0.279332 0
M  V30 4618 C 429.559 -1.90638 -1.36727 0
M  V30 4619 C 430.575 -0.802899 -1.54368 0
M  V30 4620 O 431.751 -1.10138 -1.68616 0
M  V30 4621 C 428.816 -2.16547 -2.70755 0
M  V30 4622 C 427.877 -3.40146 -2.61915 0
M  V30 4623 C 427.11 -3.6481 -3.8955 0
M  V30 4624 O 427.333 -2.92095 -4.89935 0
M  V30 4625 O 426.267 -4.58343 -3.90135 0
M  V30 4626 H 430.093 -2.83237 -1.09591 0
M  V30 4627 H 427.678 -1.4157 -0.477306 0
M  V30 4628 H 429.56 -2.34665 -3.50014 0
M  V30 4629 H 428.235 -1.27131 -2.9769 0
M  V30 4630 H 427.142 -3.2737 -1.81052 0
M  V30 4631 H 428.475 -4.29761 -2.3993 0
M  V30 4632 N 430.127 0.543554 -1.4793 0
M  V30 4633 C 431.09 1.63156 -1.60975 0
M  V30 4634 C 432.09 1.53346 -0.483899 0
M  V30 4635 O 433.28 1.5726 -0.749339 0
M  V30 4636 C 430.412 3.02743 -1.56716 0
M  V30 4637 H 431.605 1.52934 -2.57975 0
M  V30 4638 H 429.158 0.764557 -1.36324 0
M  V30 4639 H 429.893 3.18484 -0.611418 0
M  V30 4640 H 429.678 3.11272 -2.38438 0
M  V30 4641 H 431.168 3.81871 -1.6901 0
M  V30 4642 N 431.605 1.3629 0.791371 0
M  V30 4643 C 432.852 1.30412 1.54916 0
M  V30 4644 C 433.18 -0.117162 1.94147 0
M  V30 4645 O 432.435 -1.08599 1.62803 0
M  V30 4646 C 432.734 2.17068 2.8393 0
M  V30 4647 C 432.4 3.65645 2.63846 0
M  V30 4648 C 431.062 4.0614 2.58077 0
M  V30 4649 C 433.414 4.59855 2.45322 0
M  V30 4650 C 430.742 5.3899 2.31748 0
M  V30 4651 C 433.094 5.9292 2.2052 0
M  V30 4652 C 431.758 6.32542 2.13183 0
M  V30 4653 H 431.028 0.47721 0.566879 0
M  V30 4654 H 433.675 1.68325 0.913172 0
M  V30 4655 H 431.98 1.72085 3.51986 0
M  V30 4656 H 433.677 2.09846 3.4171 0
M  V30 4657 H 430.267 3.33518 2.69191 0
M  V30 4658 H 434.451 4.29443 2.48782 0
M  V30 4659 H 429.707 5.68672 2.24548 0
M  V30 4660 H 433.881 6.65487 2.05182 0
M  V30 4661 H 431.508 7.35412 1.92544 0
M  V30 4662 N 433.083 -1.0153 1.20538 0
M  V30 4663 C 434.36 -1.72327 0.925343 0
M  V30 4664 C 434.74 -2.03383 -0.565547 0
M  V30 4665 O 434.088 -1.69934 -1.52757 0
M  V30 4666 C 434.298 -2.9902 1.79967 0
M  V30 4667 C 435.646 -3.72258 2.04228 0
M  V30 4668 O 436.67 -3.08979 1.77231 0
M  V30 4669 O 435.529 -4.86053 2.4983 0
M  V30 4670 H 432.623 -0.751099 0.346092 0
M  V30 4671 H 435.169 -1.07366 1.31417 0
M  V30 4672 H 433.941 -2.72402 2.80915 0
M  V30 4673 H 433.564 -3.71721 1.41099 0
M  V30 4674 N 434.561 -1.01147 -1.20859 0
M  V30 4675 C 435.977 -0.725422 -1.42161 0
M  V30 4676 C 436.177 0.696919 -1.89064 0
M  V30 4677 O 435.233 1.46539 -2.05627 0
M  V30 4678 C 436.546 -1.74678 -2.44761 0
M  V30 4679 C 438.094 -1.76433 -2.58535 0
M  V30 4680 C 438.569 -2.77481 -3.64374 0
M  V30 4681 N 440.06 -2.76189 -3.71852 0
M  V30 4682 C 440.795 -3.51035 -4.53389 0
M  V30 4683 N 440.291 -4.35541 -5.38773 0
M  V30 4684 N 442.084 -3.39655 -4.47873 0
M  V30 4685 H 434.235 -1.92979 -0.887282 0
M  V30 4686 H 436.498 -0.833327 -0.451962 0
M  V30 4687 H 436.204 -2.76551 -2.17285 0
M  V30 4688 H 436.078 -1.55472 -3.43669 0
M  V30 4689 H 438.465 -0.75248 -2.85345 0
M  V30 4690 H 438.546 -1.99712 -1.5984 0
M  V30 4691 H 438.19 -3.78827 -3.38308 0
M  V30 4692 H 438.12 -2.51466 -4.6268 0
M  V30 4693 H 440.611 -2.14885 -3.10858 0
M  V30 4694 H 440.924 -4.89432 -5.98061 0
M  V30 4695 H 439.269 -4.39621 -5.38292 0
M  V30 4696 H 442.46 -2.73063 -3.80203 0
M  V30 4697 H 442.633 -3.9824 -5.11184 0
M  V30 4698 N 436.039 1.36541 -0.78704 0
M  V30 4699 C 437.002 2.28413 -0.189778 0
M  V30 4700 C 438.002 1.48719 0.611499 0
M  V30 4701 O 439.192 1.68737 0.432842 0
M  V30 4702 C 436.324 3.32824 0.737638 0
M  V30 4703 H 437.517 2.82743 -0.999831 0
M  V30 4704 H 435.07 1.46065 -0.556298 0
M  V30 4705 H 435.805 2.83646 1.57212 0
M  V30 4706 H 435.59 3.91752 0.165044 0
M  V30 4707 H 437.08 4.0144 1.15047 0
M  V30 4708 N 437.518 0.538854 1.48102 0
M  V30 4709 C 438.748 0.0122958 2.06596 0
M  V30 4710 C 439.156 -1.27861 1.39457 0
M  V30 4711 O 438.499 -1.77348 0.478907 0
M  V30 4712 C 438.561 -0.273131 3.58461 0
M  V30 4713 C 438.225 0.92561 4.47528 0
M  V30 4714 C 439.222 1.82637 4.86765 0
M  V30 4715 C 436.907 1.13511 4.89306 0
M  V30 4716 C 438.901 2.92047 5.66558 0
M  V30 4717 C 436.588 2.23233 5.68868 0
M  V30 4718 C 437.586 3.12333 6.07402 0
M  V30 4719 O 437.274 4.20155 6.85365 0
M  V30 4720 H 437.006 0.0344283 0.675123 0
M  V30 4721 H 439.56 0.746494 1.91355 0
M  V30 4722 H 437.79 -1.06141 3.71848 0
M  V30 4723 H 439.479 -0.742842 3.99045 0
M  V30 4724 H 440.245 1.67649 4.55103 0
M  V30 4725 H 436.124 0.450835 4.5879 0
M  V30 4726 H 439.668 3.6162 5.96554 0
M  V30 4727 H 435.565 2.38201 5.99942 0
M  V30 4728 H 436.333 4.17975 7.03732 0
M  V30 4729 N 438.996 -1.55193 0.274407 0
M  V30 4730 C 440.412 -1.59401 -0.0797543 0
M  V30 4731 C 440.612 -1.29162 -1.54659 0
M  V30 4732 O 439.668 -1.05215 -2.29534 0
M  V30 4733 C 440.981 -2.99257 0.294238 0
M  V30 4734 C 442.529 -3.12072 0.240796 0
M  V30 4735 C 443.004 -4.54194 0.589218 0
M  V30 4736 N 444.495 -4.60033 0.540744 0
M  V30 4737 C 445.23 -5.68027 0.783147 0
M  V30 4738 N 444.726 -6.8417 1.09013 0
M  V30 4739 N 446.519 -5.57572 0.711993 0
M  V30 4740 H 438.67 -1.73113 1.23067 0
M  V30 4741 H 440.933 -0.807197 0.497129 0
M  V30 4742 H 440.639 -3.26217 1.31435 0
M  V30 4743 H 440.513 -3.75427 -0.365281 0
M  V30 4744 H 442.9 -2.84877 -0.770024 0
M  V30 4745 H 442.981 -2.38117 0.934563 0
M  V30 4746 H 442.625 -4.82115 1.59772 0
M  V30 4747 H 442.555 -5.26448 -0.126331 0
M  V30 4748 H 445.046 -3.76599 0.313327 0
M  V30 4749 H 445.359 -7.6243 1.26178 0
M  V30 4750 H 443.704 -6.85787 1.12789 0
M  V30 4751 H 446.895 -4.65714 0.472014 0
M  V30 4752 H 447.068 -6.41659 0.90429 0
M  V30 4753 N 440.474 -0.00167713 -1.576 0
M  V30 4754 C 441.421 0.989195 -2.08527 0
M  V30 4755 C 442.391 1.34031 -0.981065 0
M  V30 4756 O 443.576 1.43839 -1.2536 0
M  V30 4757 C 440.716 2.27537 -2.59463 0
M  V30 4758 C 439.829 1.98314 -3.83791 0
M  V30 4759 C 438.964 3.21025 -4.23222 0
M  V30 4760 C 438.003 2.87495 -5.40382 0
M  V30 4761 N 437.14 4.02749 -5.75098 0
M  V30 4762 H 441.98 0.547973 -2.92919 0
M  V30 4763 H 439.517 0.258917 -1.44803 0
M  V30 4764 H 441.475 3.02729 -2.87073 0
M  V30 4765 H 440.105 2.69325 -1.77943 0
M  V30 4766 H 439.157 1.13482 -3.63078 0
M  V30 4767 H 440.469 1.69601 -4.69081 0
M  V30 4768 H 439.623 4.04561 -4.52123 0
M  V30 4769 H 438.362 3.52877 -3.36644 0
M  V30 4770 H 437.367 2.02367 -5.11202 0
M  V30 4771 H 438.592 2.56889 -6.28637 0
M  V30 4772 H 436.538 4.34494 -4.91478 0
M  V30 4773 H 436.455 3.77566 -6.54966 0
M  V30 4774 H 437.723 4.87068 -6.08592 0
M  V30 4775 N 441.952 1.55251 0.271103 0
M  V30 4776 C 442.884 1.84675 1.35749 0
M  V30 4777 C 443.897 0.731366 1.45447 0
M  V30 4778 O 445.086 1.00924 1.4723 0
M  V30 4779 C 442.186 1.99638 2.73857 0
M  V30 4780 C 441.359 3.30312 2.86727 0
M  V30 4781 C 440.418 3.35318 4.05522 0
M  V30 4782 O 439.444 4.08682 3.96191 0
M  V30 4783 N 440.646 2.62857 5.17577 0
M  V30 4784 H 443.411 2.78445 1.10853 0
M  V30 4785 H 440.972 1.55191 0.461218 0
M  V30 4786 H 442.964 2.00355 3.51625 0
M  V30 4787 H 441.534 1.12725 2.91568 0
M  V30 4788 H 440.754 3.42118 1.95829 0
M  V30 4789 H 442.042 4.16488 2.92258 0
M  V30 4790 H 441.44 2.02939 5.28046 0
M  V30 4791 H 439.997 2.69295 5.93568 0
M  V30 4792 N 443.43 -0.535701 1.48216 0
M  V30 4793 C 444.363 -1.65726 1.56876 0
M  V30 4794 C 445.341 -1.57094 0.419542 0
M  V30 4795 O 446.525 -1.77648 0.630352 0
M  V30 4796 C 443.652 -3.04096 1.49142 0
M  V30 4797 C 442.698 -3.31105 2.68834 0
M  V30 4798 S 443.531 -3.18001 4.30854 0
M  V30 4799 C 444.687 -4.58828 4.25709 0
M  V30 4800 H 444.92 -1.58129 2.51759 0
M  V30 4801 H 442.453 -0.718218 1.36678 0
M  V30 4802 H 444.411 -3.839 1.45366 0
M  V30 4803 H 443.072 -3.09139 0.556067 0
M  V30 4804 H 442.265 -4.32033 2.59545 0
M  V30 4805 H 441.867 -2.58961 2.69843 0
M  V30 4806 H 444.159 -5.5023 3.95289 0
M  V30 4807 H 445.102 -4.73172 5.26796 0
M  V30 4808 H 445.51 -4.37883 3.56257 0
M  V30 4809 N 444.908 -1.36708 -0.784132 0
M  V30 4810 C 446.324 -1.17237 -1.08294 0
M  V30 4811 C 446.524 -5.93947e-05 -2.015 0
M  V30 4812 O 445.58 0.663686 -2.43622 0
M  V30 4813 C 446.893 -2.48557 -1.69233 0
M  V30 4814 C 448.441 -2.54968 -1.8155 0
M  V30 4815 C 448.916 -3.86388 -2.45904 0
M  V30 4816 N 450.407 -3.87762 -2.53367 0
M  V30 4817 C 451.142 -4.86191 -3.03983 0
M  V30 4818 N 450.638 -5.95015 -3.54866 0
M  V30 4819 N 452.431 -4.73606 -3.02743 0
M  V30 4820 H 444.582 -2.11758 -0.16501 0
M  V30 4821 H 446.845 -0.93822 -0.135822 0
M  V30 4822 H 446.551 -3.34638 -1.08215 0
M  V30 4823 H 446.425 -2.64748 -2.68679 0
M  V30 4824 H 448.812 -1.69302 -2.41704 0
M  V30 4825 H 448.893 -2.42672 -0.80895 0
M  V30 4826 H 448.537 -4.72462 -1.86392 0
M  V30 4827 H 448.467 -3.95982 -3.4714 0
M  V30 4828 H 450.958 -3.09145 -2.17343 0
M  V30 4829 H 451.271 -6.66086 -3.91854 0
M  V30 4830 H 449.616 -5.98676 -3.53003 0
M  V30 4831 H 452.807 -3.87717 -2.62284 0
M  V30 4832 H 452.98 -5.50473 -3.41881 0
M  V30 4833 N 446.386 1.0089 -1.21074 0
M  V30 4834 C 447.634 1.74262 -1.02358 0
M  V30 4835 C 447.955 1.89869 0.444393 0
M  V30 4836 O 447.225 1.44677 1.32081 0
M  V30 4837 H 445.805 0.645615 -0.375754 0
M  V30 4838 H 448.467 1.21596 -1.52317 0
M  V30 4839 H 447.563 2.74328 -1.4883 0
M  V30 4840 N 447.864 1.01787 1.20321 0
M  V30 4841 C 448.797 0.533882 2.21867 0
M  V30 4842 C 449.775 -0.419361 1.57099 0
M  V30 4843 O 450.959 -0.339062 1.85426 0
M  V30 4844 C 448.086 -0.222899 3.37966 0
M  V30 4845 C 447.132 0.680091 4.21043 0
M  V30 4846 S 447.965 2.14997 4.90445 0
M  V30 4847 C 449.121 1.40339 6.09964 0
M  V30 4848 H 449.354 1.39429 2.62577 0
M  V30 4849 H 446.887 0.826867 1.30393 0
M  V30 4850 H 448.845 -0.653425 4.05266 0
M  V30 4851 H 447.506 -1.0589 2.95713 0
M  V30 4852 H 446.699 0.0964704 5.03908 0
M  V30 4853 H 446.301 1.04845 3.59004 0
M  V30 4854 H 448.593 0.68407 6.74038 0
M  V30 4855 H 449.536 2.20823 6.72787 0
M  V30 4856 H 449.944 0.905716 5.57187 0
M  V30 4857 N 449.342 -1.36122 0.79427 0
M  V30 4858 C 450.753 -1.81646 0.431446 0
M  V30 4859 C 451.104 -1.66043 -1.04518 0
M  V30 4860 O 450.229 -1.1841 -1.8113 0
M  V30 4861 C 450.824 -3.29785 0.776341 0
M  V30 4862 C 449.383 -3.73501 0.466282 0
M  V30 4863 C 448.53 -2.58313 1.00844 0
M  V30 4864 H 451.481 -1.24274 0.986995 0
M  V30 4865 H 451.502 -3.80437 0.0692413 0
M  V30 4866 H 451.014 -3.4111 1.8511 0
M  V30 4867 H 449.115 -3.67733 -0.600245 0
M  V30 4868 H 449.228 -4.68754 0.990288 0
M  V30 4869 H 447.592 -2.5102 0.431406 0
M  V30 4870 H 448.375 -2.72421 2.08906 0
M  V30 4871 N 450.82 -0.546701 -1.47814 0
M  V30 4872 C 452.048 -0.0232857 -2.06887 0
M  V30 4873 C 452.463 1.26571 -1.4009 0
M  V30 4874 O 451.82 1.7569 -0.493906 0
M  V30 4875 C 451.871 0.186975 -3.61016 0
M  V30 4876 O 451.592 -1.05097 -4.25307 0
M  V30 4877 C 453.093 0.748872 -4.36929 0
M  V30 4878 H 450.313 -0.0410763 -0.669742 0
M  V30 4879 H 452.857 -0.757117 -1.89968 0
M  V30 4880 H 451.012 0.870903 -3.77484 0
M  V30 4881 H 451.426 -0.842121 -5.17695 0
M  V30 4882 H 452.9 0.845334 -5.45489 0
M  V30 4883 H 453.377 1.75772 -4.02493 0
M  V30 4884 H 453.983 0.100979 -4.2518 0
M  V30 4885 N 452.299 1.55045 -0.282633 0
M  V30 4886 C 453.546 1.9976 0.33199 0
M  V30 4887 C 453.874 1.17105 1.55295 0
M  V30 4888 O 453.129 0.230599 1.94337 0
M  V30 4889 C 453.428 3.49422 0.750938 0
M  V30 4890 C 453.094 4.4941 -0.366228 0
M  V30 4891 C 451.756 4.76471 -0.672964 0
M  V30 4892 C 454.108 5.09054 -1.11864 0
M  V30 4893 C 451.436 5.60442 -1.73556 0
M  V30 4894 C 453.788 5.9418 -2.17102 0
M  V30 4895 C 452.452 6.19558 -2.48402 0
M  V30 4896 H 451.722 0.730974 0.121484 0
M  V30 4897 H 454.369 1.8732 -0.39791 0
M  V30 4898 H 452.674 3.59377 1.56063 0
M  V30 4899 H 454.371 3.81432 1.23736 0
M  V30 4900 H 450.961 4.2844 -0.117041 0
M  V30 4901 H 455.145 4.88165 -0.894925 0
M  V30 4902 H 450.401 5.78349 -1.983 0
M  V30 4903 H 454.575 6.39427 -2.75873 0
M  V30 4904 H 452.202 6.84417 -3.30874 0
M  V30 4905 N 453.777 0.010035 1.57597 0
M  V30 4906 C 455.188 -0.531426 1.78977 0
M  V30 4907 C 455.539 -1.73375 0.918454 0
M  V30 4908 O 454.664 -2.16047 0.123635 0
M  V30 4909 C 455.259 -0.97086 3.24592 0
M  V30 4910 C 453.818 -1.45756 3.47033 0
M  V30 4911 C 452.965 -0.413384 2.74201 0
M  V30 4912 H 455.916 0.236166 1.56933 0
M  V30 4913 H 455.937 -1.83633 3.33255 0
M  V30 4914 H 455.449 -0.0955893 3.87982 0
M  V30 4915 H 453.55 -2.35339 2.88871 0
M  V30 4916 H 453.663 -1.4781 4.55729 0
M  V30 4917 H 452.027 -0.877266 2.39115 0
M  V30 4918 H 452.81 0.453092 3.40297 0
M  V30 4919 N 455.255 -1.55392 -0.262866 0
M  V30 4920 C 456.501 -1.77657 -0.990424 0
M  V30 4921 C 456.856 -0.576333 -1.83565 0
M  V30 4922 O 456.149 0.430795 -1.86694 0
M  V30 4923 C 456.343 -3.02889 -1.89718 0
M  V30 4924 C 456.172 -4.34979 -1.14121 0
M  V30 4925 C 454.942 -4.98052 -0.852768 0
M  V30 4926 C 457.14 -5.11597 -0.526625 0
M  V30 4927 N 455.122 -6.13859 -0.0710649 0
M  V30 4928 C 456.493 -6.19883 0.12042 0
M  V30 4929 C 458.548 -4.95992 -0.435485 0
M  V30 4930 C 457.251 -7.14262 0.849833 0
M  V30 4931 C 459.277 -5.90735 0.280359 0
M  V30 4932 C 458.639 -6.98417 0.916103 0
M  V30 4933 H 454.738 -0.702242 -0.344064 0
M  V30 4934 H 457.322 -1.92887 -0.265088 0
M  V30 4935 H 455.493 -2.89017 -2.59468 0
M  V30 4936 H 457.225 -3.13516 -2.5591 0
M  V30 4937 H 453.98 -4.5916 -1.16058 0
M  V30 4938 H 454.404 -6.76302 0.307413 0
M  V30 4939 H 459.046 -4.12832 -0.912671 0
M  V30 4940 H 456.764 -7.96935 1.33867 0
M  V30 4941 H 460.35 -5.80738 0.351332 0
M  V30 4942 H 459.23 -7.70467 1.46119 0
M  V30 4943 N 456.733 0.527833 -1.48498 0
M  V30 4944 C 458.01 1.28905 -1.47115 0
M  V30 4945 C 458.39 2.10297 -0.184007 0
M  V30 4946 O 457.738 2.12728 0.834218 0
M  V30 4947 C 457.948 2.16866 -2.73441 0
M  V30 4948 C 459.296 2.76936 -3.21857 0
M  V30 4949 O 460.32 2.27152 -2.74373 0
M  V30 4950 O 459.179 3.67496 -4.04486 0
M  V30 4951 H 456.273 0.581918 -0.587623 0
M  V30 4952 H 458.819 0.544311 -1.60734 0
M  V30 4953 H 457.591 1.56521 -3.58632 0
M  V30 4954 H 457.214 2.98583 -2.62553 0
M  V30 4955 N 458.211 1.37122 0.776871 0
M  V30 4956 C 459.121 1.34651 1.9211 0
M  V30 4957 C 460.137 0.246824 1.7224 0
M  V30 4958 O 461.313 0.48134 1.95563 0
M  V30 4959 C 458.378 1.14748 3.2716 0
M  V30 4960 C 457.439 2.34308 3.5972 0
M  V30 4961 C 456.672 2.15345 4.88326 0
M  V30 4962 O 456.895 1.13507 5.58992 0
M  V30 4963 O 455.829 3.03414 5.1983 0
M  V30 4964 H 459.655 2.31013 1.97146 0
M  V30 4965 H 457.24 1.17799 0.918901 0
M  V30 4966 H 459.122 1.05616 4.0795 0
M  V30 4967 H 457.797 0.214562 3.22988 0
M  V30 4968 H 456.704 2.49011 2.79185 0
M  V30 4969 H 458.037 3.26149 3.68629 0
M  V30 4970 N 459.689 -1.00246 1.21608 0
M  V30 4971 C 460.966 -1.71336 0.943568 0
M  V30 4972 C 461.346 -2.03972 -0.543943 0
M  V30 4973 O 460.694 -1.71545 -1.50946 0
M  V30 4974 C 460.904 -2.97094 1.83128 0
M  V30 4975 C 462.252 -3.70071 2.08165 0
M  V30 4976 O 463.276 -3.07081 1.80498 0
M  V30 4977 O 462.135 -4.83376 2.54971 0
M  V30 4978 H 459.229 -0.747386 0.354039 0
M  V30 4979 H 461.775 -1.05967 1.32549 0
M  V30 4980 H 460.547 -2.69407 2.83788 0
M  V30 4981 H 460.17 -3.70204 1.45034 0
M  V30 4982 N 461.167 -1.02423 -1.1978 0
M  V30 4983 C 462.578 -0.748389 -1.71044 0
M  V30 4984 C 462.929 0.732398 -1.82017 0
M  V30 4985 O 462.054 1.57116 -1.48807 0
M  V30 4986 C 462.649 -1.35187 -3.1066 0
M  V30 4987 C 461.208 -1.12472 -3.59203 0
M  V30 4988 C 460.355 -1.45283 -2.36195 0
M  V30 4989 H 463.306 -1.19275 -1.04686 0
M  V30 4990 H 463.327 -0.746408 -3.73107 0
M  V30 4991 H 462.839 -2.4296 -3.02642 0
M  V30 4992 H 460.94 -0.0649983 -3.72543 0
M  V30 4993 H 461.053 -1.81016 -4.43588 0
M  V30 4994 H 459.417 -0.872034 -2.39307 0
M  V30 4995 H 460.2 -2.54129 -2.30811 0
M  V30 4996 N 462.645 1.35699 -0.801477 0
M  V30 4997 C 463.555 2.33661 -0.209691 0
M  V30 4998 C 464.571 1.6162 0.644591 0
M  V30 4999 O 465.747 1.93529 0.557545 0
M  V30 5000 C 462.812 3.40816 0.636033 0
M  V30 5001 C 461.873 4.28639 -0.238147 0
M  V30 5002 C 461.106 5.30676 0.567307 0
M  V30 5003 O 461.329 5.41174 1.8024 0
M  V30 5004 O 460.263 6.01887 -0.0391336 0
M  V30 5005 H 464.089 2.8606 -1.01996 0
M  V30 5006 H 461.674 1.38379 -0.563164 0
M  V30 5007 H 463.556 4.06301 1.11791 0
M  V30 5008 H 462.231 2.90696 1.42399 0
M  V30 5009 H 461.138 3.66152 -0.767044 0
M  V30 5010 H 462.471 4.82143 -0.989915 0
M  V30 5011 N 464.123 0.554532 1.47522 0
M  V30 5012 C 465.033 -0.197865 2.33764 0
M  V30 5013 C 466.049 -0.914576 1.48025 0
M  V30 5014 O 467.225 -0.884067 1.80959 0
M  V30 5015 C 464.29 -1.21628 3.24665 0
M  V30 5016 C 463.351 -0.507283 4.26292 0
M  V30 5017 C 462.584 -1.47718 5.1285 0
M  V30 5018 O 462.807 -2.7118 5.01814 0
M  V30 5019 O 461.741 -1.00313 5.93482 0
M  V30 5020 H 465.567 0.50949 2.99396 0
M  V30 5021 H 463.152 0.315176 1.46038 0
M  V30 5022 H 465.034 -1.80421 3.80823 0
M  V30 5023 H 463.709 -1.9056 2.61665 0
M  V30 5024 H 462.616 0.121778 3.73902 0
M  V30 5025 H 463.949 0.140544 4.91999 0
M  V30 5026 N 465.601 -1.54893 0.290851 0
M  V30 5027 C 466.878 -1.91991 -0.373989 0
M  V30 5028 C 467.258 -1.21694 -1.72493 0
M  V30 5029 O 466.606 -0.34917 -2.25816 0
M  V30 5030 C 466.816 -3.45419 -0.498703 0
M  V30 5031 C 468.164 -4.1748 -0.774298 0
M  V30 5032 O 469.188 -3.51398 -0.582908 0
M  V30 5033 O 468.047 -5.3445 -1.14129 0
M  V30 5034 H 465.141 -0.800593 -0.207315 0
M  V30 5035 H 467.687 -1.66297 0.338164 0
M  V30 5036 H 466.459 -3.88688 0.451392 0
M  V30 5037 H 466.082 -3.77117 -1.25972 0
M  V30 5038 N 467.08 -0.0183926 -1.57589 0
M  V30 5039 C 468.328 0.661253 -1.90976 0
M  V30 5040 C 468.649 1.73281 -0.894353 0
M  V30 5041 O 467.919 1.9579 0.0656788 0
M  V30 5042 H 466.499 0.247233 -0.704901 0
M  V30 5043 H 469.161 -0.0636639 -1.94796 0
M  V30 5044 H 468.257 1.12083 -2.9128 0
M  V30 5045 N 468.558 1.5553 0.254621 0
M  V30 5046 C 469.783 1.81383 1.00573 0
M  V30 5047 C 470.208 0.594419 1.78461 0
M  V30 5048 O 469.566 -0.456403 1.75461 0
M  V30 5049 C 469.614 3.04892 1.92545 0
M  V30 5050 O 468.718 2.81266 3.01601 0
M  V30 5051 H 468.059 0.598969 0.286587 0
M  V30 5052 H 470.589 2.02703 0.277952 0
M  V30 5053 H 470.599 3.34119 2.34155 0
M  V30 5054 H 469.274 3.93287 1.3527 0
M  V30 5055 H 467.851 2.63185 2.64174 0
M  V30 5056 N 470.036 -0.519951 1.48776 0
M  V30 5057 C 471.447 -1.10177 1.50725 0
M  V30 5058 C 471.798 -1.94153 0.282678 0
M  V30 5059 O 470.923 -2.07645 -0.609298 0
M  V30 5060 C 471.518 -2.00482 2.73116 0
M  V30 5061 C 470.077 -2.53862 2.77905 0
M  V30 5062 C 469.224 -1.31047 2.44381 0
M  V30 5063 H 472.175 -0.30473 1.55747 0
M  V30 5064 H 472.196 -2.8491 2.52203 0
M  V30 5065 H 471.708 -1.39335 3.62225 0
M  V30 5066 H 469.809 -3.18702 1.93029 0
M  V30 5067 H 469.922 -2.9231 3.79594 0
M  V30 5068 H 468.286 -1.62953 1.95751 0
M  V30 5069 H 469.069 -0.71637 3.35743 0
M  V30 5070 N 471.514 -1.37532 -0.769588 0
M  V30 5071 C 472.791 -1.23392 -1.51768 0
M  V30 5072 C 473.171 0.17157 -2.10402 0
M  V30 5073 O 472.519 1.17943 -1.95708 0
M  V30 5074 C 472.729 -2.33163 -2.59685 0
M  V30 5075 C 474.077 -2.70809 -3.27028 0
M  V30 5076 O 475.101 -2.32355 -2.69981 0
M  V30 5077 O 473.96 -3.37066 -4.30173 0
M  V30 5078 H 471.054 -0.481617 -0.67229 0
M  V30 5079 H 473.6 -1.49318 -0.806368 0
M  V30 5080 H 472.372 -3.27273 -2.14494 0
M  V30 5081 H 471.995 -2.08713 -3.38415 0
M  V30 5082 N 472.992 0.995999 -1.22138 0
M  V30 5083 C 474.403 1.54961 -1.04135 0
M  V30 5084 C 474.754 1.92159 0.396147 0
M  V30 5085 O 473.879 1.74435 1.28069 0
M  V30 5086 C 474.474 2.81581 -1.88408 0
M  V30 5087 C 473.033 3.33396 -1.74712 0
M  V30 5088 C 472.18 2.06509 -1.85066 0
M  V30 5089 H 475.131 0.817436 -1.36028 0
M  V30 5090 H 475.152 3.53822 -1.39966 0
M  V30 5091 H 474.664 2.54476 -2.93025 0
M  V30 5092 H 472.765 3.65416 -0.728159 0
M  V30 5093 H 472.878 4.04208 -2.57202 0
M  V30 5094 H 471.242 2.19925 -1.28472 0
M  V30 5095 H 472.025 1.81804 -2.91208 0
M  V30 5096 N 474.47 1.03057 1.19235 0
M  V30 5097 C 475.38 0.622922 2.26179 0
M  V30 5098 C 476.396 -0.346113 1.70523 0
M  V30 5099 O 477.572 -0.203572 2.00369 0
M  V30 5100 C 474.637 -0.0182063 3.46695 0
M  V30 5101 C 473.698 0.998546 4.17526 0
M  V30 5102 C 472.931 0.387917 5.32288 0
M  V30 5103 O 473.154 -0.808668 5.64639 0
M  V30 5104 O 472.088 1.1116 5.91546 0
M  V30 5105 H 475.914 1.51363 2.63292 0
M  V30 5106 H 473.499 0.800856 1.26122 0
M  V30 5107 H 475.381 -0.375606 4.19723 0
M  V30 5108 H 474.056 -0.882895 3.11427 0
M  V30 5109 H 472.963 1.40756 3.4661 0
M  V30 5110 H 474.296 1.83366 4.56769 0
M  V30 5111 N 475.948 -1.35272 0.808662 0
M  V30 5112 C 477.359 -1.81179 0.450688 0
M  V30 5113 C 477.71 -1.67143 -1.02751 0
M  V30 5114 O 476.835 -1.20325 -1.79864 0
M  V30 5115 C 477.43 -3.28943 0.811275 0
M  V30 5116 C 475.989 -3.72985 0.505871 0
M  V30 5117 C 475.136 -2.57229 1.03578 0
M  V30 5118 H 478.087 -1.2322 1.00012 0
M  V30 5119 H 478.108 -3.80342 0.109588 0
M  V30 5120 H 477.62 -3.39127 1.88718 0
M  V30 5121 H 475.721 -3.68349 -0.561209 0
M  V30 5122 H 475.834 -4.67677 1.03995 0
M  V30 5123 H 474.198 -2.50548 0.458005 0
M  V30 5124 H 474.981 -2.7019 2.11784 0
M  V30 5125 N 477.426 -0.562348 -1.47226 0
M  V30 5126 C 478.651 -0.0432632 -2.07355 0
M  V30 5127 C 479.076 1.24332 -1.41149 0
M  V30 5128 O 478.434 1.74603 -0.488226 0
M  V30 5129 C 478.482 0.130288 -3.60365 0
M  V30 5130 O 477.586 1.19166 -3.94808 0
M  V30 5131 H 476.927 -0.0536334 -0.66183 0
M  V30 5132 H 479.457 -0.779495 -1.89169 0
M  V30 5133 H 479.467 0.342881 -4.06557 0
M  V30 5134 H 478.142 -0.809389 -4.07948 0
M  V30 5135 H 476.719 0.959153 -3.60354 0
M  V30 5136 N 478.904 1.54736 -0.299062 0
M  V30 5137 C 480.315 1.8569 0.193971 0
M  V30 5138 C 480.666 1.22101 1.53577 0
M  V30 5139 O 479.791 0.51799 2.10109 0
M  V30 5140 C 480.386 3.36895 0.358733 0
M  V30 5141 C 478.945 3.67887 0.795986 0
M  V30 5142 C 478.092 2.77131 -0.096807 0
M  V30 5143 H 481.043 1.49934 -0.520134 0
M  V30 5144 H 481.064 3.61294 1.19361 0
M  V30 5145 H 480.576 3.83148 -0.617998 0
M  V30 5146 H 478.677 3.27151 1.78334 0
M  V30 5147 H 478.79 4.75114 0.616718 0
M  V30 5148 H 477.154 2.51153 0.423581 0
M  V30 5149 H 477.937 3.26204 -1.06986 0
M  V30 5150 N 480.382 0.0267497 1.57577 0
M  V30 5151 C 481.292 -0.971633 2.13533 0
M  V30 5152 C 482.308 -1.35868 1.08701 0
M  V30 5153 O 483.484 -1.44058 1.40746 0
M  V30 5154 C 480.549 -2.23622 2.64941 0
M  V30 5155 C 479.61 -1.90982 3.8448 0
M  V30 5156 C 478.843 -3.11411 4.33427 0
M  V30 5157 O 479.066 -4.23992 3.81558 0
M  V30 5158 O 478 -2.93848 5.25297 0
M  V30 5159 H 481.826 -0.525853 2.99113 0
M  V30 5160 H 479.411 -0.193712 1.48139 0
M  V30 5161 H 481.293 -2.97864 2.98086 0
M  V30 5162 H 479.968 -2.67386 1.82446 0
M  V30 5163 H 478.875 -1.14132 3.56265 0
M  V30 5164 H 480.208 -1.52036 4.6813 0
M  V30 5165 N 481.861 -1.55662 -0.24637 0
M  V30 5166 C 483.272 -1.67953 -0.81539 0
M  V30 5167 C 483.623 -0.624302 -1.86002 0
M  V30 5168 O 482.748 0.229328 -2.15181 0
M  V30 5169 C 483.343 -3.04484 -1.48576 0
M  V30 5170 C 481.902 -3.18713 -2.00248 0
M  V30 5171 C 481.049 -2.6383 -0.853766 0
M  V30 5172 H 484 -1.58685 -0.0221692 0
M  V30 5173 H 484.021 -2.98959 -2.3538 0
M  V30 5174 H 483.533 -3.81264 -0.725222 0
M  V30 5175 H 481.634 -2.46757 -2.79181 0
M  V30 5176 H 481.747 -4.25628 -2.1995 0
M  V30 5177 H 480.111 -2.21667 -1.25442 0
M  V30 5178 H 480.894 -3.43135 -0.106302 0
M  V30 5179 N 483.339 0.512053 -1.4905 0
M  V30 5180 C 484.249 1.64139 -1.67617 0
M  V30 5181 C 485.265 1.64786 -0.558701 0
M  V30 5182 O 486.441 1.8341 -0.832034 0
M  V30 5183 C 483.506 3.00548 -1.72835 0
M  V30 5184 C 482.567 3.10615 -2.96339 0
M  V30 5185 C 481.8 4.40517 -3.01298 0
M  V30 5186 O 482.023 5.28671 -2.14157 0
M  V30 5187 O 480.957 4.55325 -3.93653 0
M  V30 5188 H 484.783 1.51407 -2.63267 0
M  V30 5189 H 482.368 0.687131 -1.32661 0
M  V30 5190 H 484.25 3.81641 -1.78683 0
M  V30 5191 H 482.925 3.13566 -0.803616 0
M  V30 5192 H 481.832 2.2875 -2.96014 0
M  V30 5193 H 483.165 3.0252 -3.88256 0
M  V30 5194 N 484.817 1.37938 0.762283 0
M  V30 5195 C 486.228 1.30094 1.33912 0
M  V30 5196 C 486.579 -0.0472026 1.96143 0
M  V30 5197 O 485.704 -0.94917 1.94473 0
M  V30 5198 C 486.299 2.35592 2.43478 0
M  V30 5199 C 484.858 2.31353 2.96905 0
M  V30 5200 C 484.005 2.18919 1.70205 0
M  V30 5201 H 486.956 1.48423 0.561816 0
M  V30 5202 H 486.977 2.00806 3.23199 0
M  V30 5203 H 486.489 3.33701 1.98155 0
M  V30 5204 H 484.59 1.36799 3.46579 0
M  V30 5205 H 484.703 3.25147 3.51875 0
M  V30 5206 H 483.067 1.65624 1.93496 0
M  V30 5207 H 483.85 3.18956 1.26973 0
M  V30 5208 N 486.295 -0.989507 1.22664 0
M  V30 5209 C 487.242 -2.08024 0.999733 0
M  V30 5210 C 488.212 -1.65909 -0.0797047 0
M  V30 5211 O 489.397 -1.90669 0.0705715 0
M  V30 5212 C 486.537 -3.40067 0.587234 0
M  V30 5213 C 485.65 -3.95505 1.73781 0
M  V30 5214 C 484.785 -5.15722 1.27297 0
M  V30 5215 C 483.824 -5.63305 2.39488 0
M  V30 5216 N 482.961 -6.74758 1.94026 0
M  V30 5217 H 487.801 -2.26768 1.9334 0
M  V30 5218 H 485.338 -1.11171 0.963297 0
M  V30 5219 H 487.296 -4.15899 0.329227 0
M  V30 5220 H 485.926 -3.21314 -0.309426 0
M  V30 5221 H 484.978 -3.16513 2.11006 0
M  V30 5222 H 486.29 -4.26797 2.58158 0
M  V30 5223 H 485.444 -5.98854 0.972546 0
M  V30 5224 H 484.183 -4.86061 0.399445 0
M  V30 5225 H 483.188 -4.78759 2.70315 0
M  V30 5226 H 484.413 -5.94988 3.27362 0
M  V30 5227 H 482.359 -6.46874 1.09041 0
M  V30 5228 H 482.276 -7.05386 2.71968 0
M  V30 5229 H 483.544 -7.61387 1.67062 0
M  V30 5230 N 487.773 -1.03688 -1.18687 0
M  V30 5231 C 489.184 -0.766488 -1.70241 0
M  V30 5232 C 489.535 0.713052 -1.82784 0
M  V30 5233 O 488.66 1.55529 -1.50465 0
M  V30 5234 C 489.255 -1.38475 -3.09209 0
M  V30 5235 C 487.814 -1.16276 -3.5799 0
M  V30 5236 C 486.961 -1.4778 -2.34641 0
M  V30 5237 H 489.912 -1.20378 -1.03415 0
M  V30 5238 H 489.933 -0.785939 -3.72295 0
M  V30 5239 H 489.445 -2.46157 -3.00048 0
M  V30 5240 H 487.546 -0.104508 -3.72453 0
M  V30 5241 H 487.659 -1.8571 -4.41643 0
M  V30 5242 H 486.023 -0.897366 -2.38368 0
M  V30 5243 H 486.806 -2.56562 -2.28102 0
M  V30 5244 N 489.251 1.34841 -0.815825 0
M  V30 5245 C 490.476 2.03261 -0.41226 0
M  V30 5246 C 490.901 1.61055 0.971751 0
M  V30 5247 O 490.259 0.7917 1.63101 0
M  V30 5248 C 490.307 3.56914 -0.514289 0
M  V30 5249 O 489.411 4.09728 0.468675 0
M  V30 5250 H 488.752 0.641664 -0.170771 0
M  V30 5251 H 491.282 1.72241 -1.10427 0
M  V30 5252 H 491.292 4.06156 -0.387457 0
M  V30 5253 H 489.967 3.86982 -1.52375 0
M  V30 5254 H 488.544 3.71681 0.301316 0
M  V30 5255 N 490.729 0.570148 1.46925 0
M  V30 5256 C 491.659 -0.158274 2.32963 0
M  V30 5257 C 492.64 -0.896093 1.44583 0
M  V30 5258 O 493.825 -0.874022 1.7342 0
M  V30 5259 C 490.955 -1.18055 3.26619 0
M  V30 5260 C 489.909 -0.558379 4.24342 0
M  V30 5261 C 489.235 -1.68623 5.07415 0
M  V30 5262 C 490.535 0.496295 5.19937 0
M  V30 5263 H 492.229 0.560046 2.94115 0
M  V30 5264 H 489.775 0.270775 1.41431 0
M  V30 5265 H 491.728 -1.69841 3.85658 0
M  V30 5266 H 490.452 -1.92899 2.63548 0
M  V30 5267 H 489.111 -0.0617157 3.66548 0
M  V30 5268 H 488.759 -2.42402 4.40738 0
M  V30 5269 H 488.459 -1.27564 5.73586 0
M  V30 5270 H 489.983 -2.20709 5.69315 0
M  V30 5271 H 491.397 0.0640052 5.73264 0
M  V30 5272 H 489.794 0.82649 5.94381 0
M  V30 5273 H 490.864 1.38735 4.6463 0
M  V30 5274 N 492.207 -1.54576 0.307264 0
M  V30 5275 C 493.117 -2.27435 -0.57536 0
M  V30 5276 C 494.133 -1.31183 -1.14311 0
M  V30 5277 O 495.309 -1.64175 -1.16656 0
M  V30 5278 C 492.374 -3.00566 -1.72803 0
M  V30 5279 C 491.435 -4.12369 -1.19373 0
M  V30 5280 C 490.668 -4.82003 -2.29147 0
M  V30 5281 O 490.891 -4.51038 -3.49171 0
M  V30 5282 O 489.825 -5.69271 -1.95485 0
M  V30 5283 H 493.651 -3.03696 0.0158558 0
M  V30 5284 H 491.236 -1.49219 0.0735064 0
M  V30 5285 H 493.118 -3.46416 -2.39946 0
M  V30 5286 H 491.793 -2.27195 -2.30574 0
M  V30 5287 H 490.7 -3.70905 -0.487851 0
M  V30 5288 H 492.033 -4.87736 -0.661376 0
M  V30 5289 N 493.685 -0.035106 -1.57561 0
M  V30 5290 C 495.096 0.502885 -1.798 0
M  V30 5291 C 495.447 1.71892 -0.945921 0
M  V30 5292 O 494.572 2.15822 -0.157991 0
M  V30 5293 C 495.167 0.919097 -3.26095 0
M  V30 5294 C 493.726 1.40216 -3.49308 0
M  V30 5295 C 492.873 0.369709 -2.74824 0
M  V30 5296 H 495.824 -0.261102 -1.56537 0
M  V30 5297 H 495.845 1.78308 -3.36135 0
M  V30 5298 H 495.357 0.0338526 -3.88085 0
M  V30 5299 H 493.458 2.30714 -2.92578 0
M  V30 5300 H 493.571 1.40541 -4.58023 0
M  V30 5301 H 491.935 0.839113 -2.40481 0
M  V30 5302 H 492.718 -0.507173 -3.39533 0
M  V30 5303 N 495.163 1.55791 0.238111 0
M  V30 5304 C 496.111 1.91885 1.31464 0
M  V30 5305 C 497.105 0.798929 1.49377 0
M  V30 5306 O 498.311 0.983626 1.50747 0
M  V30 5307 H 494.686 0.609551 0.440399 0
M  V30 5308 H 496.657 2.81747 0.982925 0
M  V30 5309 C 495.406 2.23763 2.6613 0
M  V30 5310 H 494.729 3.09444 2.53149 0
M  V30 5311 H 496.169 2.52915 3.40309 0
M  V30 5312 C 494.628 1.05699 3.1989 0
M  V30 5313 O 495.158 0.309524 4.00506 0
M  V30 5314 N 493.364 0.845251 2.78036 0
M  V30 5315 H 492.911 1.4548 2.12588 0
M  V30 5316 H 492.869 0.0569973 3.14348 0
M  V30 5317 N 496.642 -0.504142 1.49319 0
M  V30 5318 C 497.87 -1.28256 1.62351 0
M  V30 5319 C 498.285 -1.86502 0.293682 0
M  V30 5320 O 497.642 -1.67678 -0.720449 0
M  V30 5321 C 497.693 -2.41507 2.68992 0
M  V30 5322 O 497.414 -1.85656 3.96817 0
M  V30 5323 C 498.915 -3.32929 2.927 0
M  V30 5324 H 496.135 -0.389115 0.546654 0
M  V30 5325 H 498.679 -0.605531 1.95329 0
M  V30 5326 H 496.834 -3.05046 2.38801 0
M  V30 5327 H 497.248 -2.59981 4.55533 0
M  V30 5328 H 498.722 -4.0868 3.71058 0
M  V30 5329 H 499.199 -3.89733 2.02496 0
M  V30 5330 H 499.805 -2.75158 3.24296 0
M  V30 5331 N 498.12 -1.38341 -0.754957 0
M  V30 5332 C 499.345 -1.37882 -1.5493 0
M  V30 5333 C 499.77 0.0296385 -1.88077 0
M  V30 5334 O 499.128 1.01133 -1.50472 0
M  V30 5335 C 499.176 -2.23996 -2.82592 0
M  V30 5336 O 498.28 -1.65612 -3.77686 0
M  V30 5337 H 497.621 -0.470384 -0.468652 0
M  V30 5338 H 500.151 -1.82084 -0.933082 0
M  V30 5339 H 500.161 -2.37806 -3.3153 0
M  V30 5340 H 498.836 -3.26365 -2.57796 0
M  V30 5341 H 497.413 -1.60936 -3.36384 0
M  V30 5342 N 499.598 0.982988 -1.23187 0
M  V30 5343 C 500.528 2.09301 -1.03515 0
M  V30 5344 C 501.509 1.70035 0.0471136 0
M  V30 5345 O 502.694 1.93847 -0.117029 0
M  V30 5346 C 499.824 3.4167 -0.622791 0
M  V30 5347 C 498.778 3.94828 -1.65211 0
M  V30 5348 C 498.104 5.23362 -1.09527 0
M  V30 5349 C 499.404 4.2439 -3.04451 0
M  V30 5350 H 501.098 2.26016 -1.96359 0
M  V30 5351 H 498.644 1.08611 -0.945501 0
M  V30 5352 H 500.597 4.18746 -0.472233 0
M  V30 5353 H 499.321 3.24811 0.341329 0
M  V30 5354 H 497.98 3.19895 -1.79061 0
M  V30 5355 H 497.628 5.02852 -0.122211 0
M  V30 5356 H 497.328 5.59895 -1.783 0
M  V30 5357 H 498.852 6.03062 -0.956511 0
M  V30 5358 H 500.266 4.92225 -2.93917 0
M  V30 5359 H 498.663 4.72118 -3.70438 0
M  V30 5360 H 499.733 3.31765 -3.53638 0
M  V30 5361 N 501.076 1.04316 1.18135 0
M  V30 5362 C 501.986 0.646876 2.25505 0
M  V30 5363 C 503.002 -0.328008 1.7088 0
M  V30 5364 O 504.178 -0.182309 2.00573 0
M  V30 5365 C 501.243 0.0185664 3.46695 0
M  V30 5366 C 500.304 1.04277 4.16443 0
M  V30 5367 C 499.537 0.444352 5.31847 0
M  V30 5368 O 499.76 -0.748735 5.65465 0
M  V30 5369 O 498.694 1.17428 5.90334 0
M  V30 5370 H 502.52 1.54147 2.61672 0
M  V30 5371 H 500.105 0.814188 1.25265 0
M  V30 5372 H 501.987 -0.331068 4.20097 0
M  V30 5373 H 500.662 -0.849814 3.12346 0
M  V30 5374 H 499.569 1.44425 3.45098 0
M  V30 5375 H 500.902 1.882 4.54798 0
M  V30 5376 N 502.554 -1.34406 0.822964 0
M  V30 5377 C 503.97 -1.51275 0.508727 0
M  V30 5378 C 504.17 -1.76776 -0.967083 0
M  V30 5379 O 503.226 -1.81871 -1.75155 0
M  V30 5380 C 504.539 -2.67765 1.36829 0
M  V30 5381 C 506.087 -2.81647 1.36542 0
M  V30 5382 C 506.562 -4.01181 2.20947 0
M  V30 5383 N 508.053 -4.08388 2.18571 0
M  V30 5384 C 508.788 -5.00036 2.80627 0
M  V30 5385 N 508.284 -5.96906 3.51674 0
M  V30 5386 N 510.077 -4.92908 2.70181 0
M  V30 5387 H 502.228 -1.16113 1.77852 0
M  V30 5388 H 504.491 -0.56947 0.757897 0
M  V30 5389 H 504.197 -2.55551 2.41633 0
M  V30 5390 H 504.071 -3.62779 1.03303 0
M  V30 5391 H 506.458 -2.93303 0.325163 0
M  V30 5392 H 506.539 -1.87443 1.74066 0
M  V30 5393 H 506.183 -3.90286 3.25022 0
M  V30 5394 H 506.113 -4.94599 1.80774 0
M  V30 5395 H 508.604 -3.39051 1.66891 0
M  V30 5396 H 508.917 -6.63468 3.96271 0
M  V30 5397 H 507.262 -5.9703 3.5578 0
M  V30 5398 H 510.453 -4.1619 2.14251 0
M  V30 5399 H 510.626 -5.64137 3.18831 0
M  V30 5400 N 504.032 -0.577932 -1.46621 0
M  V30 5401 C 504.942 0.160651 -2.34049 0
M  V30 5402 C 505.958 0.890911 -1.49462 0
M  V30 5403 O 507.134 0.855166 -1.82343 0
M  V30 5404 C 504.199 1.16447 -3.26559 0
M  V30 5405 C 503.26 0.4394 -4.27045 0
M  V30 5406 C 502.493 1.3954 -5.15135 0
M  V30 5407 O 502.716 2.63162 -5.06065 0
M  V30 5408 O 501.65 0.908585 -5.95003 0
M  V30 5409 H 505.476 -0.557057 -2.98547 0
M  V30 5410 H 503.061 -0.338369 -1.45518 0
M  V30 5411 H 504.943 1.7434 -3.83645 0
M  V30 5412 H 503.618 1.86373 -2.64663 0
M  V30 5413 H 502.525 -0.181247 -3.73661 0
M  V30 5414 H 503.858 -0.218799 -4.91713 0
M  V30 5415 N 505.51 1.54411 -0.315457 0
M  V30 5416 C 506.921 1.85885 0.174265 0
M  V30 5417 C 507.272 1.23723 1.52273 0
M  V30 5418 O 506.397 0.540246 2.09548 0
M  V30 5419 C 506.992 3.37257 0.322981 0
M  V30 5420 C 505.551 3.68711 0.756922 0
M  V30 5421 C 504.698 2.77013 -0.126195 0
M  V30 5422 H 507.649 1.49374 -0.536007 0
M  V30 5423 H 507.67 3.62539 1.15522 0
M  V30 5424 H 507.182 3.82471 -0.658602 0
M  V30 5425 H 505.283 3.29024 1.74854 0
M  V30 5426 H 505.396 4.75741 0.566291 0
M  V30 5427 H 503.76 2.51588 0.39692 0
M  V30 5428 H 504.543 3.25051 -1.1044 0
M  V30 5429 N 506.988 0.0434614 1.5754 0
M  V30 5430 C 508.404 -0.313039 1.565 0
M  V30 5431 C 508.604 -1.71954 1.05043 0
M  V30 5432 O 507.66 -2.425 0.703564 0
M  V30 5433 C 508.973 -0.148544 3.00333 0
M  V30 5434 C 510.521 -0.220231 3.12224 0
M  V30 5435 C 510.996 -0.0843565 4.57922 0
M  V30 5436 N 512.487 -0.140881 4.62986 0
M  V30 5437 C 513.222 -0.0597443 5.73369 0
M  V30 5438 N 512.718 0.0733004 6.92761 0
M  V30 5439 N 514.511 -0.11477 5.61983 0
M  V30 5440 H 506.662 0.96303 1.89313 0
M  V30 5441 H 508.925 0.373164 0.871466 0
M  V30 5442 H 508.631 0.820894 3.41986 0
M  V30 5443 H 508.505 -0.912798 3.65989 0
M  V30 5444 H 510.892 -1.18014 2.70475 0
M  V30 5445 H 510.973 0.574646 2.49262 0
M  V30 5446 H 510.617 0.872192 5.00355 0
M  V30 5447 H 510.547 -0.898281 5.18882 0
M  V30 5448 H 513.038 -0.243273 3.77116 0
M  V30 5449 H 513.351 0.128128 7.72694 0
M  V30 5450 H 511.696 0.10828 6.94916 0
M  V30 5451 H 514.887 -0.217212 4.67596 0
M  V30 5452 H 515.06 -0.0480779 6.47982 0
M  V30 5453 N 508.466 -1.55915 -0.229846 0
M  V30 5454 C 509.877 -1.68809 -0.797531 0
M  V30 5455 C 510.228 -0.643995 -1.8533 0
M  V30 5456 O 509.353 0.206492 -2.15413 0
M  V30 5457 C 509.948 -3.06043 -1.45338 0
M  V30 5458 C 508.507 -3.20819 -1.96856 0
M  V30 5459 C 507.654 -2.6472 -0.825736 0
M  V30 5460 H 510.605 -1.58699 -0.00533733 0
M  V30 5461 H 510.626 -3.01438 -2.32196 0
M  V30 5462 H 510.138 -3.82012 -0.684743 0
M  V30 5463 H 508.239 -2.49704 -2.76548 0
M  V30 5464 H 508.352 -4.27937 -2.15423 0
M  V30 5465 H 506.716 -2.22985 -1.23084 0
M  V30 5466 H 507.499 -3.43229 -0.0699019 0
M  V30 5467 N 509.944 0.496216 -1.49584 0
M  V30 5468 C 510.892 1.61805 -1.67098 0
M  V30 5469 C 511.886 1.60667 -0.536877 0
M  V30 5470 O 513.092 1.65118 -0.716654 0
M  V30 5471 H 509.467 0.53646 -0.526986 0
M  V30 5472 H 511.438 1.44187 -2.61252 0
M  V30 5473 C 510.187 2.99912 -1.75921 0
M  V30 5474 H 509.51 3.01496 -2.62565 0
M  V30 5475 H 510.95 3.77931 -1.92209 0
M  V30 5476 C 509.409 3.33092 -0.505088 0
M  V30 5477 O 509.939 4.00019 0.367085 0
M  V30 5478 N 508.145 2.88278 -0.366599 0
M  V30 5479 H 507.692 2.33989 -1.07735 0
M  V30 5480 H 507.65 3.10846 0.47142 0
M  V30 5481 N 511.423 1.38739 0.74761 0
M  V30 5482 C 512.648 1.38702 1.54197 0
M  V30 5483 C 513.073 -0.019664 1.8809 0
M  V30 5484 O 512.431 -1.00333 1.51006 0
M  V30 5485 C 512.479 2.25492 2.814 0
M  V30 5486 O 511.583 1.67613 3.76802 0
M  V30 5487 H 510.924 0.472863 0.466151 0
M  V30 5488 H 513.454 1.82577 0.923413 0
M  V30 5489 H 513.464 2.39561 3.30264 0
M  V30 5490 H 512.139 3.27727 2.56062 0
M  V30 5491 H 510.716 1.62718 3.35526 0
M  V30 5492 N 512.901 -0.976442 1.23707 0
M  V30 5493 C 514.126 -1.75875 1.09922 0
M  V30 5494 C 514.551 -1.84911 -0.34489 0
M  V30 5495 O 513.909 -1.31363 -1.24954 0
M  V30 5496 C 513.957 -3.16179 1.73388 0
M  V30 5497 O 513.061 -4.00124 0.99871 0
M  V30 5498 H 512.402 -0.540954 0.385052 0
M  V30 5499 H 514.932 -1.22546 1.6384 0
M  V30 5500 H 514.942 -3.66741 1.78788 0
M  V30 5501 H 513.617 -3.08917 2.78466 0
M  V30 5502 H 512.194 -3.58624 1.02193 0
M  V30 5503 N 514.379 -1.04941 -1.1758 0
M  V30 5504 C 515.79 -0.784501 -1.69418 0
M  V30 5505 C 516.141 0.693625 -1.8353 0
M  V30 5506 O 515.266 1.53925 -1.52106 0
M  V30 5507 C 515.861 -1.41746 -3.07723 0
M  V30 5508 C 514.42 -1.20066 -3.56737 0
M  V30 5509 C 513.567 -1.5026 -2.33061 0
M  V30 5510 H 516.518 -1.21469 -1.02133 0
M  V30 5511 H 516.539 -0.825381 -3.7144 0
M  V30 5512 H 516.051 -2.49325 -2.9742 0
M  V30 5513 H 514.152 -0.144006 -3.72322 0
M  V30 5514 H 514.265 -1.90384 -4.39648 0
M  V30 5515 H 512.629 -0.922598 -2.37403 0
M  V30 5516 H 513.412 -2.58967 -2.25368 0
M  V30 5517 N 515.857 1.33968 -0.830081 0
M  V30 5518 C 517.082 2.02813 -0.433796 0
M  V30 5519 C 517.507 1.62076 0.954614 0
M  V30 5520 O 516.865 0.808955 1.62252 0
M  V30 5521 C 516.913 3.56348 -0.552115 0
M  V30 5522 O 516.017 4.10202 0.425191 0
M  V30 5523 H 515.358 0.639817 -0.177567 0
M  V30 5524 H 517.888 1.7106 -1.12248 0
M  V30 5525 H 517.898 4.05722 -0.430513 0
M  V30 5526 H 516.573 3.85344 -1.56471 0
M  V30 5527 H 515.15 3.71979 0.261878 0
M  V30 5528 N 517.335 0.585699 1.46312 0
M  V30 5529 C 518.746 0.159938 1.86014 0
M  V30 5530 C 519.097 -1.27775 1.48889 0
M  V30 5531 O 518.222 -1.96559 0.90519 0
M  V30 5532 C 518.817 0.283485 3.37612 0
M  V30 5533 C 517.376 -0.0874256 3.76298 0
M  V30 5534 C 516.523 0.618055 2.70325 0
M  V30 5535 H 519.474 0.793737 1.37425 0
M  V30 5536 H 519.495 -0.490348 3.77327 0
M  V30 5537 H 519.007 1.32995 3.64601 0
M  V30 5538 H 517.108 -1.13391 3.54927 0
M  V30 5539 H 517.221 0.290975 4.78216 0
M  V30 5540 H 515.585 0.057993 2.54634 0
M  V30 5541 H 516.368 1.66623 3.00153 0
M  V30 5542 N 518.813 -1.54241 0.323641 0
M  V30 5543 C 520.038 -2.05452 -0.283605 0
M  V30 5544 C 520.463 -1.19823 -1.44997 0
M  V30 5545 O 519.821 -0.207358 -1.8011 0
M  V30 5546 C 519.869 -3.53823 -0.695795 0
M  V30 5547 O 518.973 -3.71134 -1.79815 0
M  V30 5548 H 518.314 -0.662024 -0.0511917 0
M  V30 5549 H 520.844 -1.99079 0.472073 0
M  V30 5550 H 520.854 -3.96094 -0.978434 0
M  V30 5551 H 519.529 -4.15602 0.157287 0
M  V30 5552 H 518.106 -3.40768 -1.51431 0
M  V30 5553 N 520.291 -0.0518155 -1.57515 0
M  V30 5554 C 521.702 0.483787 -1.80323 0
M  V30 5555 C 522.053 1.70879 -0.964099 0
M  V30 5556 O 521.178 2.15643 -0.180872 0
M  V30 5557 C 521.773 0.884459 -3.27052 0
M  V30 5558 C 520.332 1.36504 -3.50776 0
M  V30 5559 C 519.479 0.340539 -2.75201 0
M  V30 5560 H 522.43 -0.277691 -1.56252 0
M  V30 5561 H 522.451 1.74733 -3.38007 0
M  V30 5562 H 521.963 -0.00731093 -3.88099 0
M  V30 5563 H 520.064 2.27598 -2.95009 0
M  V30 5564 H 520.177 1.35675 -4.59488 0
M  V30 5565 H 518.541 0.81356 -2.41357 0
M  V30 5566 H 519.324 -0.543156 -3.38976 0
M  V30 5567 N 521.769 1.56035 0.221574 0
M  V30 5568 C 523.017 1.78693 0.944102 0
M  V30 5569 C 523.338 0.620317 1.8487 0
M  V30 5570 O 522.608 -0.362784 1.92512 0
M  V30 5571 H 521.188 0.659082 0.351597 0
M  V30 5572 H 523.85 1.93497 0.233435 0
M  V30 5573 H 522.946 2.70837 1.55093 0
M  V30 5574 N 523.247 -0.488276 1.49845 0
M  V30 5575 C 524.179 -1.60539 1.63584 0
M  V30 5576 C 525.192 -1.5434 0.517972 0
M  V30 5577 O 526.381 -1.60041 0.790516 0
M  V30 5578 C 523.481 -2.99374 1.58835 0
M  V30 5579 C 522.654 -3.30624 2.86368 0
M  V30 5580 C 521.713 -4.4893 2.74496 0
M  V30 5581 O 520.739 -4.50085 3.48443 0
M  V30 5582 N 521.941 -5.49591 1.86894 0
M  V30 5583 H 524.706 -1.49176 2.59936 0
M  V30 5584 H 522.267 -0.67639 1.47094 0
M  V30 5585 H 524.259 -3.76459 1.48529 0
M  V30 5586 H 522.829 -3.04595 0.702892 0
M  V30 5587 H 522.049 -2.42314 3.1093 0
M  V30 5588 H 523.337 -3.48305 3.70892 0
M  V30 5589 H 522.735 -5.51467 1.26097 0
M  V30 5590 H 521.292 -6.25728 1.82503 0
M  V30 5591 N 524.725 -1.39134 -0.740242 0
M  V30 5592 C 525.688 -1.37217 -1.83587 0
M  V30 5593 C 526.688 -0.270221 -1.58513 0
M  V30 5594 O 527.878 -0.527843 -1.6601 0
M  V30 5595 C 525.01 -1.13959 -3.21288 0
M  V30 5596 H 526.203 -2.34705 -1.86691 0
M  V30 5597 H 523.756 -1.24622 -0.94335 0
M  V30 5598 H 524.491 -0.17131 -3.23847 0
M  V30 5599 H 524.276 -1.93754 -3.40884 0
M  V30 5600 H 525.766 -1.15346 -4.01354 0
M  V30 5601 N 526.204 0.969867 -1.24223 0
M  V30 5602 C 527.429 1.75289 -1.10853 0
M  V30 5603 C 527.854 1.85091 0.335079 0
M  V30 5604 O 527.212 1.32024 1.24255 0
M  V30 5605 C 527.26 3.15255 -1.75062 0
M  V30 5606 O 526.364 3.99589 -1.01992 0
M  V30 5607 H 525.705 0.538904 -0.387915 0
M  V30 5608 H 528.235 1.21675 -1.64488 0
M  V30 5609 H 528.245 3.65787 -1.80731 0
M  V30 5610 H 526.92 3.07436 -2.801 0
M  V30 5611 H 525.497 3.58077 -1.04094 0
M  V30 5612 N 527.682 1.05563 1.17022 0
M  V30 5613 C 528.592 0.670758 2.24807 0
M  V30 5614 C 529.608 -0.309865 1.71219 0
M  V30 5615 O 530.784 -0.161025 2.00755 0
M  V30 5616 C 527.849 0.055337 3.46656 0
M  V30 5617 C 526.91 1.08688 4.15314 0
M  V30 5618 C 526.143 0.500736 5.31346 0
M  V30 5619 O 526.366 -0.688718 5.66227 0
M  V30 5620 O 525.3 1.23683 5.89055 0
M  V30 5621 H 529.126 1.56914 2.60023 0
M  V30 5622 H 526.711 0.827428 1.24395 0
M  V30 5623 H 528.593 -0.286492 4.20425 0
M  V30 5624 H 527.268 -0.816638 3.13229 0
M  V30 5625 H 526.175 1.48077 3.43546 0
M  V30 5626 H 527.508 1.93014 4.52777 0
M  V30 5627 N 529.16 -1.33526 0.837174 0
M  V30 5628 C 530.388 -2.02047 0.445494 0
M  V30 5629 C 530.803 -1.62995 -0.952788 0
M  V30 5630 O 530.16 -0.842447 -1.61892 0
M  V30 5631 C 530.211 -3.57221 0.554577 0
M  V30 5632 O 529.932 -3.94863 1.89776 0
M  V30 5633 C 531.433 -4.43012 0.159634 0
M  V30 5634 H 528.653 -0.647221 0.177048 0
M  V30 5635 H 531.197 -1.70492 1.12928 0
M  V30 5636 H 529.352 -3.87315 -0.0812781 0
M  V30 5637 H 529.766 -4.89569 1.88208 0
M  V30 5638 H 531.24 -5.51253 0.28701 0
M  V30 5639 H 531.717 -4.29916 -0.898289 0
M  V30 5640 H 532.323 -4.18274 0.769855 0
M  V30 5641 N 530.638 -0.59345 -1.46 0
M  V30 5642 C 532.049 -0.169801 -1.85926 0
M  V30 5643 C 532.4 1.26984 -1.49565 0
M  V30 5644 O 531.525 1.96076 -0.915602 0
M  V30 5645 C 532.12 -0.301385 -3.37457 0
M  V30 5646 C 530.679 0.0674684 -3.7634 0
M  V30 5647 C 529.826 -0.632383 -2.69993 0
M  V30 5648 H 532.777 -0.801014 -1.37002 0
M  V30 5649 H 532.798 0.470331 -3.77582 0
M  V30 5650 H 532.31 -1.34927 -3.63891 0
M  V30 5651 H 530.411 1.11507 -3.55523 0
M  V30 5652 H 530.524 -0.316332 -4.78055 0
M  V30 5653 H 528.888 -0.0714961 -2.546 0
M  V30 5654 H 529.671 -1.68212 -2.99265 0
M  V30 5655 N 532.116 1.54067 -0.331816 0
M  V30 5656 C 533.066 2.21363 0.546101 0
M  V30 5657 C 534.05 1.19698 1.07523 0
M  V30 5658 O 535.242 1.45293 1.01088 0
M  V30 5659 C 532.371 2.98115 1.70242 0
M  V30 5660 C 531.457 4.07127 1.18779 0
M  V30 5661 N 531.848 5.04267 0.393465 0
M  V30 5662 C 530.146 4.21226 1.46576 0
M  V30 5663 C 530.847 5.81585 0.115572 0
M  V30 5664 N 529.823 5.39022 0.703987 0
M  V30 5665 H 533.625 2.93821 -0.0679751 0
M  V30 5666 H 531.139 1.61812 -0.138085 0
M  V30 5667 H 533.136 3.44818 2.34321 0
M  V30 5668 H 531.796 2.27181 2.31989 0
M  V30 5669 H 532.807 5.17888 0.0355757 0
M  V30 5670 H 529.484 3.61509 2.08848 0
M  V30 5671 H 530.874 6.6985 -0.524426 0
M  V30 5672 N 533.594 0.0601682 1.57485 0
M  V30 5673 C 535.005 -0.474217 1.80577 0
M  V30 5674 C 535.356 -1.70365 0.973147 0
M  V30 5675 O 534.481 -2.15544 0.192306 0
M  V30 5676 C 535.076 -0.867102 3.27516 0
M  V30 5677 C 533.635 -1.34642 3.51495 0
M  V30 5678 C 532.782 -0.32594 2.75378 0
M  V30 5679 H 535.733 0.285973 1.56102 0
M  V30 5680 H 535.754 -1.72938 3.38929 0
M  V30 5681 H 535.266 0.0278927 3.8809 0
M  V30 5682 H 533.367 -2.2603 2.96212 0
M  V30 5683 H 533.48 -1.33237 4.60201 0
M  V30 5684 H 531.844 -0.800749 2.41785 0
M  V30 5685 H 532.627 0.561125 3.38683 0
M  V30 5686 N 535.072 -1.5615 -0.213296 0
M  V30 5687 C 536.488 -1.49327 -0.56336 0
M  V30 5688 C 536.688 -0.756826 -1.86747 0
M  V30 5689 O 535.744 -0.299866 -2.50713 0
M  V30 5690 C 537.057 -2.9392 -0.634944 0
M  V30 5691 C 538.605 -3.04487 -0.725013 0
M  V30 5692 C 539.08 -4.50456 -0.82787 0
M  V30 5693 N 540.571 -4.54533 -0.891876 0
M  V30 5694 C 541.306 -5.64766 -0.991315 0
M  V30 5695 N 540.802 -6.84733 -1.05419 0
M  V30 5696 N 542.595 -5.52637 -1.02709 0
M  V30 5697 H 534.746 -2.02453 0.642366 0
M  V30 5698 H 537.009 -0.920548 0.226487 0
M  V30 5699 H 536.715 -3.50783 0.253859 0
M  V30 5700 H 536.589 -3.46274 -1.49579 0
M  V30 5701 H 538.976 -2.47685 -1.60425 0
M  V30 5702 H 539.057 -2.55289 0.161669 0
M  V30 5703 H 538.701 -5.07878 0.0469464 0
M  V30 5704 H 538.631 -4.97369 -1.73009 0
M  V30 5705 H 541.122 -3.68141 -0.85327 0
M  V30 5706 H 541.435 -7.64493 -1.13007 0
M  V30 5707 H 539.78 -6.87427 -1.02318 0
M  V30 5708 H 542.971 -4.5784 -0.974687 0
M  V30 5709 H 543.144 -6.38576 -1.10113 0
M  V30 5710 N 536.55 0.480323 -1.50102 0
M  V30 5711 C 537.961 1.06142 -1.53593 0
M  V30 5712 C 538.312 1.93335 -0.334055 0
M  V30 5713 O 537.437 2.09188 0.55403 0
M  V30 5714 C 538.032 1.9317 -2.78336 0
M  V30 5715 C 536.591 2.46405 -2.84538 0
M  V30 5716 C 535.738 1.24521 -2.4777 0
M  V30 5717 H 538.689 0.26333 -1.565 0
M  V30 5718 H 538.71 2.78123 -2.59669 0
M  V30 5719 H 538.222 1.29683 -3.65792 0
M  V30 5720 H 536.323 3.13472 -2.01411 0
M  V30 5721 H 536.436 2.82143 -3.87211 0
M  V30 5722 H 534.8 1.57706 -2.00003 0
M  V30 5723 H 535.583 0.627102 -3.37524 0
M  V30 5724 N 538.028 1.39524 0.732853 0
M  V30 5725 C 539.253 1.40329 1.52717 0
M  V30 5726 C 539.678 0.000286574 1.881 0
M  V30 5727 O 539.036 -0.987262 1.52062 0
M  V30 5728 C 539.084 2.28464 2.78992 0
M  V30 5729 O 538.188 1.716 3.75003 0
M  V30 5730 H 537.529 0.47778 0.461109 0
M  V30 5731 H 540.059 1.83546 0.903996 0
M  V30 5732 H 540.069 2.43051 3.27705 0
M  V30 5733 H 538.744 3.30425 2.52572 0
M  V30 5734 H 537.321 1.66267 3.33781 0
M  V30 5735 O 539.545 -0.874016 1.35806 0
M  V30 5736 H 540.236 -1.51229 1.21035 0
M  V30 END ATOM
M  V30 BEGIN BOND
M  V30 END BOND
M  V30 END CTAB
M  END
$$$$
