drugbank_target|O75185 Calcium-transporting ATPase type 2C member 2 (DB01189)
 OpenBabel12092121243D

  0  0  0     0  0            999 V3000
M  V30 BEGIN CTAB
M  V30 COUNTS 14699 14808 0 0 0
M  V30 BEGIN ATOM
M  V30 1 H -0.908 1.98254 -0.117106 0
M  V30 2 N 0 1.576 0 0
M  V30 3 C 0.933 2.03868 1.02534 0
M  V30 4 C 1.911 0.928543 1.3348 0
M  V30 5 O 3.095 1.19667 1.45644 0
M  V30 6 C 0.222 2.43627 2.35294 0
M  V30 7 C -0.732 3.65373 2.2001 0
M  V30 8 S 0.101 5.13292 1.52614 0
M  V30 9 C 1.257 5.56322 2.86805 0
M  V30 10 H 1.49 2.90518 0.631377 0
M  V30 11 H -0.977 1.52953 0.210867 0
M  V30 12 H 0.981 2.67203 3.11629 0
M  V30 13 H -0.358 1.57376 2.7183 0
M  V30 14 H -1.165 3.90944 3.18086 0
M  V30 15 H -1.563 3.418 1.51819 0
M  V30 16 H 0.729 5.58782 3.83104 0
M  V30 17 H 1.672 6.56266 2.65933 0
M  V30 18 H 2.08 4.83886 2.90714 0
M  V30 19 N 1.4781 -0.272755 1.55222 0
M  V30 20 C 2.7241 -1.00581 1.761 0
M  V30 21 C 3.0571 -1.85932 0.560625 0
M  V30 22 O 2.3321 -1.89416 -0.441801 0
M  V30 23 C 2.6151 -1.88816 3.06628 0
M  V30 24 C 2.4681 -1.06457 4.37021 0
M  V30 25 C 3.7871 -2.8752 3.33197 0
M  V30 26 H 0.9061 -0.364244 0.640699 0
M  V30 27 H 3.5481 -0.278189 1.87952 0
M  V30 28 H 1.6981 -2.50856 2.96654 0
M  V30 29 H 3.3701 -0.464863 4.58952 0
M  V30 30 H 1.6131 -0.368043 4.32236 0
M  V30 31 H 2.2841 -1.71514 5.24678 0
M  V30 32 H 4.7601 -2.35615 3.42965 0
M  V30 33 H 3.6361 -3.46399 4.25792 0
M  V30 34 H 3.8971 -3.62657 2.52849 0
M  V30 35 N 2.9562 -1.48159 -0.537278 0
M  V30 36 C 3.8662 -1.64807 -1.6696 0
M  V30 37 C 4.8822 -0.530651 -1.65711 0
M  V30 38 O 6.0582 -0.800784 -1.84796 0
M  V30 39 C 3.1232 -1.67708 -3.03438 0
M  V30 40 C 2.1842 -2.91025 -3.156 0
M  V30 41 C 1.4172 -2.93778 -4.45567 0
M  V30 42 O 1.6402 -2.05153 -5.3223 0
M  V30 43 O 0.5742 -3.85868 -4.61941 0
M  V30 44 H 4.4002 -2.6066 -1.55853 0
M  V30 45 H 1.9852 -1.31475 -0.709549 0
M  V30 46 H 3.8672 -1.7218 -3.84619 0
M  V30 47 H 2.5422 -0.750278 -3.14885 0
M  V30 48 H 1.4492 -2.92089 -2.33741 0
M  V30 49 H 2.7822 -3.83065 -3.09066 0
M  V30 50 N 4.4343 0.785586 -1.36625 0
M  V30 51 C 5.6823 1.54057 -1.30808 0
M  V30 52 C 6.0033 1.94683 0.111157 0
M  V30 53 O 5.2733 1.65241 1.05224 0
M  V30 54 H 3.8533 0.571354 -0.481211 0
M  V30 55 H 6.5153 0.935821 -1.70963 0
M  V30 56 H 5.6113 2.44637 -1.93801 0
M  V30 57 N 5.9124 1.20967 1.01018 0
M  V30 58 C 7.3284 0.965905 1.27053 0
M  V30 59 C 7.5284 -0.350785 1.98423 0
M  V30 60 O 6.5844 -1.07773 2.28344 0
M  V30 61 C 7.8974 2.15294 2.09926 0
M  V30 62 C 9.4454 2.19463 2.23171 0
M  V30 63 C 9.9204 3.3767 3.09424 0
M  V30 64 N 11.4114 3.37724 3.17012 0
M  V30 65 C 12.1464 4.25837 3.83993 0
M  V30 66 N 11.6424 5.24138 4.53047 0
M  V30 67 N 13.4354 4.1366 3.80581 0
M  V30 68 H 5.5864 2.0565 0.531194 0
M  V30 69 H 7.8494 0.90024 0.297106 0
M  V30 70 H 7.5554 3.10684 1.64828 0
M  V30 71 H 7.4294 2.13923 3.10672 0
M  V30 72 H 9.8164 1.24632 2.6749 0
M  V30 73 H 9.8974 2.2488 1.21912 0
M  V30 74 H 9.5414 4.32791 2.65808 0
M  V30 75 H 9.4714 3.29491 4.10784 0
M  V30 76 H 11.9624 2.6658 2.6785 0
M  V30 77 H 12.2754 5.87684 5.01844 0
M  V30 78 H 10.6204 5.28068 4.5185 0
M  V30 79 H 13.8114 3.36127 3.25785 0
M  V30 80 H 13.9844 4.82538 4.32505 0
M  V30 81 N 7.3905 -1.2043 1.01659 0
M  V30 82 C 8.6365 -1.90079 0.706963 0
M  V30 83 C 8.9695 -1.78648 -0.761474 0
M  V30 84 O 8.2445 -1.17069 -1.55323 0
M  V30 85 C 8.5275 -3.41469 1.14327 0
M  V30 86 C 8.3805 -3.61833 2.67201 0
M  V30 87 C 9.6995 -4.34261 0.714529 0
M  V30 88 H 6.8185 -0.690254 0.2583 0
M  V30 89 H 9.4605 -1.41826 1.26433 0
M  V30 90 H 7.6105 -3.82696 0.669056 0
M  V30 91 H 9.2825 -3.2986 3.22475 0
M  V30 92 H 7.5255 -3.05304 3.08175 0
M  V30 93 H 8.1965 -4.67955 2.92783 0
M  V30 94 H 10.6725 -4.00682 1.12221 0
M  V30 95 H 9.5485 -5.38806 1.04784 0
M  V30 96 H 9.8095 -4.40431 -0.383799 0
M  V30 97 N 8.8686 -0.792821 -1.36206 0
M  V30 98 C 10.0936 -0.377701 -2.03932 0
M  V30 99 C 10.5186 0.998947 -1.59382 0
M  V30 100 O 9.8766 1.64421 -0.763903 0
M  V30 101 C 9.9246 -0.453635 -3.57735 0
M  V30 102 O 9.0286 0.538151 -4.08874 0
M  V30 103 H 8.3696 -0.159855 -0.644471 0
M  V30 104 H 10.8996 -1.07488 -1.7409 0
M  V30 105 H 10.9096 -0.318464 -4.06755 0
M  V30 106 H 9.5846 -1.45784 -3.89512 0
M  V30 107 H 8.1616 0.364359 -3.71116 0
M  V30 108 N 10.3467 1.47872 -0.545128 0
M  V30 109 C 11.2567 2.33633 0.212746 0
M  V30 110 C 12.2727 1.4744 0.923983 0
M  V30 111 O 13.4487 1.80393 0.895572 0
M  V30 112 C 10.5137 3.23884 1.23693 0
M  V30 113 C 9.5747 4.25961 0.534417 0
M  V30 114 C 8.8077 5.11899 1.5098 0
M  V30 115 O 9.0307 5.00077 2.7437 0
M  V30 116 O 7.9647 5.92831 1.0409 0
M  V30 117 H 11.7907 2.99714 -0.490416 0
M  V30 118 H 9.3757 1.46235 -0.305871 0
M  V30 119 H 11.2577 3.79666 1.82843 0
M  V30 120 H 9.9327 2.60446 1.92222 0
M  V30 121 H 8.8397 3.73972 -0.0979679 0
M  V30 122 H 10.1727 4.92079 -0.109213 0
M  V30 123 N 11.8248 0.280983 1.55075 0
M  V30 124 C 13.0718 -0.334115 1.99725 0
M  V30 125 C 13.3998 -1.5542 1.1694 0
M  V30 126 O 12.6548 -1.94361 0.228531 0
M  V30 127 C 12.9538 -0.754656 3.49342 0
M  V30 128 C 12.6198 0.361445 4.49449 0
M  V30 129 C 11.2818 0.667893 4.76542 0
M  V30 130 C 13.6338 1.11322 5.09173 0
M  V30 131 C 10.9618 1.7296 5.60626 0
M  V30 132 C 13.3138 2.1647 5.9441 0
M  V30 133 C 11.9778 2.47742 6.19822 0
M  V30 134 H 11.2478 -0.122261 0.730844 0
M  V30 135 H 13.8948 0.395917 1.87363 0
M  V30 136 H 12.1998 -1.56446 3.5921 0
M  V30 137 H 13.8968 -1.24142 3.813 0
M  V30 138 H 10.4868 0.112481 4.28452 0
M  V30 139 H 14.6708 0.88973 4.8826 0
M  V30 140 H 9.9268 1.97684 5.78559 0
M  V30 141 H 14.1008 2.75193 6.3972 0
M  V30 142 H 11.7278 3.30145 6.84769 0
M  V30 143 N 13.3029 -1.57598 0.00835791 0
M  V30 144 C 14.2329 -2.1198 -0.979113 0
M  V30 145 C 15.2139 -1.03091 -1.35301 0
M  V30 146 O 16.3989 -1.30818 -1.43528 0
M  V30 147 C 13.5289 -2.62995 -2.26828 0
M  V30 148 C 12.4829 -3.76485 -2.03576 0
M  V30 149 C 11.8089 -4.13846 -3.38579 0
M  V30 150 C 13.1089 -5.0342 -1.39161 0
M  V30 151 H 14.8029 -2.94738 -0.526281 0
M  V30 152 H 12.3489 -1.41783 -0.251704 0
M  V30 153 H 14.3019 -2.99669 -2.96271 0
M  V30 154 H 13.0259 -1.7737 -2.7424 0
M  V30 155 H 11.6849 -3.40217 -1.36557 0
M  V30 156 H 11.3329 -3.25232 -3.83709 0
M  V30 157 H 11.0329 -4.90312 -3.23834 0
M  V30 158 H 12.5569 -4.53086 -4.09323 0
M  V30 159 H 13.9709 -5.37812 -1.98573 0
M  V30 160 H 12.3679 -5.84746 -1.34878 0
M  V30 161 H 13.4379 -4.83548 -0.361868 0
M  V30 162 N 14.781 0.264519 -1.55364 0
M  V30 163 C 15.728 1.32717 -1.88825 0
M  V30 164 C 16.698 1.48675 -0.740605 0
M  V30 165 O 17.883 1.62945 -0.992657 0
M  V30 166 C 15.023 2.68089 -2.17307 0
M  V30 167 C 14.136 2.60284 -3.44785 0
M  V30 168 C 13.271 3.87892 -3.62924 0
M  V30 169 C 12.31 3.74631 -4.84064 0
M  V30 170 N 11.447 4.94092 -4.98816 0
M  V30 171 H 16.287 1.03481 -2.79456 0
M  V30 172 H 13.824 0.499757 -1.3835 0
M  V30 173 H 15.782 3.46864 -2.31821 0
M  V30 174 H 14.412 2.95509 -1.299 0
M  V30 175 H 13.464 1.73173 -3.38697 0
M  V30 176 H 14.776 2.46388 -4.33698 0
M  V30 177 H 13.93 4.75109 -3.77302 0
M  V30 178 H 12.669 4.04664 -2.7221 0
M  V30 179 H 11.674 2.85797 -4.69681 0
M  V30 180 H 12.899 3.5937 -5.76221 0
M  V30 181 H 10.845 5.11259 -4.11036 0
M  V30 182 H 10.762 4.8276 -5.81789 0
M  V30 183 H 12.03 5.82857 -5.17588 0
M  V30 184 N 16.2591 1.48442 0.529413 0
M  V30 185 C 17.2061 1.63007 1.63394 0
M  V30 186 C 18.1761 0.47212 1.59249 0
M  V30 187 O 19.3611 0.695673 1.77666 0
M  V30 188 C 16.5011 1.6763 3.01653 0
M  V30 189 C 15.6141 2.94535 3.16027 0
M  V30 190 C 14.7491 2.90316 4.44849 0
M  V30 191 C 13.7881 4.11923 4.52754 0
M  V30 192 N 12.9251 4.05777 5.72965 0
M  V30 193 H 17.7651 2.5733 1.50285 0
M  V30 194 H 15.3021 1.27613 0.731656 0
M  V30 195 H 17.2601 1.68292 3.81751 0
M  V30 196 H 15.8901 0.76797 3.13532 0
M  V30 197 H 14.9421 3.03615 2.29177 0
M  V30 198 H 16.2541 3.84512 3.17729 0
M  V30 199 H 15.4081 2.89382 5.33238 0
M  V30 200 H 14.1471 1.98068 4.45668 0
M  V30 201 H 13.1521 4.13131 3.62771 0
M  V30 202 H 14.3771 5.0533 4.53672 0
M  V30 203 H 12.3231 3.16351 5.74681 0
M  V30 204 H 12.2401 4.8946 5.76164 0
M  V30 205 H 13.5081 4.08904 6.6364 0
M  V30 206 N 17.7372 -0.778329 1.37039 0
M  V30 207 C 18.6672 -1.90546 1.34962 0
M  V30 208 C 19.6482 -1.68681 0.219274 0
M  V30 209 O 20.8332 -1.89634 0.418624 0
M  V30 210 C 17.9632 -3.27734 1.14925 0
M  V30 211 C 16.9172 -3.64147 2.24902 0
M  V30 212 C 16.2432 -4.99806 1.89996 0
M  V30 213 C 17.5432 -3.71579 3.67051 0
M  V30 214 H 19.2372 -1.92541 2.29277 0
M  V30 215 H 16.7832 -0.924948 1.10366 0
M  V30 216 H 18.7362 -4.06215 1.12104 0
M  V30 217 H 17.4602 -3.26154 0.170631 0
M  V30 218 H 16.1192 -2.8797 2.26868 0
M  V30 219 H 15.7672 -4.94759 0.906796 0
M  V30 220 H 15.4672 -5.25139 2.63634 0
M  V30 221 H 16.9912 -5.80694 1.88749 0
M  V30 222 H 18.4052 -4.40227 3.67251 0
M  V30 223 H 16.8022 -4.08405 4.39688 0
M  V30 224 H 17.8722 -2.72404 4.01154 0
M  V30 225 N 19.2153 -1.21501 -1.00376 0
M  V30 226 C 20.4633 -1.03095 -1.73827 0
M  V30 227 C 20.7843 0.436341 -1.90055 0
M  V30 228 O 20.0543 1.31466 -1.45236 0
M  V30 229 H 18.6343 -0.378487 -0.644016 0
M  V30 230 H 21.2963 -1.52831 -1.20949 0
M  V30 231 H 20.3923 -1.49991 -2.73695 0
M  V30 232 N 20.6934 1.19889 -1.02296 0
M  V30 233 C 21.9404 1.8942 -0.715972 0
M  V30 234 C 22.2684 1.79251 0.754944 0
M  V30 235 O 21.5234 1.17526 1.56481 0
M  V30 236 C 21.8224 3.39883 -1.10518 0
M  V30 237 C 21.4884 3.70254 -2.57337 0
M  V30 238 C 20.1504 3.78254 -2.97452 0
M  V30 239 C 22.5024 3.84052 -3.52354 0
M  V30 240 C 19.8304 3.97514 -4.31509 0
M  V30 241 C 22.1824 4.04824 -4.86108 0
M  V30 242 C 20.8464 4.11054 -5.25919 0
M  V30 243 H 20.1164 0.693138 -0.261993 0
M  V30 244 H 22.7634 1.42012 -1.28472 0
M  V30 245 H 21.0684 3.8915 -0.454953 0
M  V30 246 H 22.7654 3.9199 -0.845261 0
M  V30 247 H 19.3554 3.64632 -2.25258 0
M  V30 248 H 23.5394 3.77221 -3.22518 0
M  V30 249 H 18.7954 4.00574 -4.61898 0
M  V30 250 H 22.9694 4.14442 -5.59653 0
M  V30 251 H 20.5964 4.2573 -6.29808 0
M  V30 252 N 22.1715 0.800033 1.35784 0
M  V30 253 C 23.3965 0.388511 2.03729 0
M  V30 254 C 23.8215 -0.990481 1.5991 0
M  V30 255 O 23.1795 -1.64013 0.772612 0
M  V30 256 C 23.2275 0.4726 3.5749 0
M  V30 257 O 22.3315 -0.51646 4.09153 0
M  V30 258 H 21.6725 0.163271 0.643614 0
M  V30 259 H 24.2025 1.0841 1.73518 0
M  V30 260 H 24.2125 0.34003 4.06581 0
M  V30 261 H 22.8875 1.47848 3.88734 0
M  V30 262 H 21.4645 -0.344673 3.71304 0
M  V30 263 N 23.6496 -1.47581 0.552962 0
M  V30 264 C 24.8976 -2.02082 0.0272703 0
M  V30 265 C 25.2186 -1.4301 -1.32563 0
M  V30 266 O 24.4886 -0.603745 -1.86365 0
M  V30 267 H 23.0686 -0.746966 0.00709182 0
M  V30 268 H 25.7306 -1.81033 0.722008 0
M  V30 269 H 24.8266 -3.12034 -0.0639951 0
M  V30 270 N 25.1277 -0.289203 -1.54924 0
M  V30 271 C 26.3757 0.322879 -1.99504 0
M  V30 272 C 26.6967 1.55313 -1.1791 0
M  V30 273 O 25.9667 1.94001 -0.272097 0
M  V30 274 H 24.5467 0.122291 -0.736922 0
M  V30 275 H 27.2087 -0.397802 -1.90797 0
M  V30 276 H 26.3047 0.603061 -3.06218 0
M  V30 277 N 26.6058 1.57591 -0.0167156 0
M  V30 278 C 27.8538 1.90906 0.663285 0
M  V30 279 C 28.1748 0.892509 1.73376 0
M  V30 280 O 27.4448 -0.0677623 1.95783 0
M  V30 281 H 26.0248 0.704637 0.247983 0
M  V30 282 H 28.6868 1.94803 -0.0615909 0
M  V30 283 H 27.7828 2.9116 1.12393 0
M  V30 284 N 28.0839 -0.256276 1.55502 0
M  V30 285 C 29.4999 -0.604325 1.47716 0
M  V30 286 C 29.6999 -1.88763 0.705039 0
M  V30 287 O 28.7559 -2.51445 0.230613 0
M  V30 288 C 30.0689 -0.715756 2.92057 0
M  V30 289 C 31.6169 -0.808706 3.02372 0
M  V30 290 C 32.0919 -0.951777 4.48001 0
M  V30 291 N 33.5829 -1.01688 4.519 0
M  V30 292 C 34.3179 -1.14668 5.61817 0
M  V30 293 N 33.8139 -1.24261 6.81565 0
M  V30 294 N 35.6069 -1.1791 5.49594 0
M  V30 295 H 27.7579 0.586291 2.04148 0
M  V30 296 H 30.0209 0.201015 0.926443 0
M  V30 297 H 29.7269 0.157027 3.51349 0
M  V30 298 H 29.6009 -1.59071 3.42018 0
M  V30 299 H 31.9879 -1.67195 2.43166 0
M  V30 300 H 32.0689 0.0912063 2.55637 0
M  V30 301 H 31.7129 -0.0931291 5.07815 0
M  V30 302 H 31.6429 -1.86659 4.92408 0
M  V30 303 H 34.1339 -0.954468 3.65648 0
M  V30 304 H 34.4469 -1.34046 7.61086 0
M  V30 305 H 32.7919 -1.21236 6.84344 0
M  V30 306 H 35.9829 -1.10057 4.54978 0
M  V30 307 H 36.1559 -1.27681 6.35296 0
M  V30 308 N 29.562 -1.4872 -0.521534 0
M  V30 309 C 30.494 -1.59968 -1.64143 0
M  V30 310 C 31.507 -0.483463 -1.55456 0
M  V30 311 O 32.696 -0.75467 -1.61762 0
M  V30 312 C 29.796 -1.52127 -3.02838 0
M  V30 313 C 28.969 -2.78932 -3.36921 0
M  V30 314 C 28.028 -2.64428 -4.54933 0
M  V30 315 O 27.054 -3.38331 -4.57735 0
M  V30 316 N 28.256 -1.74606 -5.53618 0
M  V30 317 H 31.021 -2.56548 -1.54929 0
M  V30 318 H 28.582 -1.45551 -0.708988 0
M  V30 319 H 30.574 -1.40106 -3.79674 0
M  V30 320 H 29.144 -0.634868 -3.06085 0
M  V30 321 H 28.364 -3.05455 -2.4918 0
M  V30 322 H 29.652 -3.63041 -3.56481 0
M  V30 323 H 29.05 -1.13782 -5.54139 0
M  V30 324 H 27.607 -1.6852 -6.29638 0
M  V30 325 N 31.0401 0.771051 -1.3745 0
M  V30 326 C 32.2701 1.55789 -1.35696 0
M  V30 327 C 32.6781 1.89107 0.0594523 0
M  V30 328 O 32.0211 1.51984 1.03183 0
M  V30 329 C 32.0831 2.89515 -2.13123 0
M  V30 330 C 31.7471 2.78829 -3.62082 0
M  V30 331 C 32.7441 2.49812 -4.5595 0
M  V30 332 C 30.4291 2.9683 -4.05213 0
M  V30 333 C 32.4231 2.38923 -5.90927 0
M  V30 334 C 30.1101 2.85562 -5.40276 0
M  V30 335 C 31.1081 2.56649 -6.32946 0
M  V30 336 O 30.7961 2.45408 -7.65526 0
M  V30 337 H 30.5281 0.489257 -0.466481 0
M  V30 338 H 33.0821 0.963446 -1.81403 0
M  V30 339 H 31.3121 3.51081 -1.62107 0
M  V30 340 H 33.0011 3.50915 -2.03994 0
M  V30 341 H 33.7671 2.3559 -4.23937 0
M  V30 342 H 29.6461 3.18335 -3.33442 0
M  V30 343 H 33.1901 2.16277 -6.63227 0
M  V30 344 H 29.0871 2.99351 -5.71891 0
M  V30 345 H 29.8551 2.60753 -7.75855 0
M  V30 346 N 32.5182 1.22032 0.997298 0
M  V30 347 C 33.4502 0.944263 2.08845 0
M  V30 348 C 34.4632 -0.0754663 1.62625 0
M  V30 349 O 35.6522 0.157994 1.77799 0
M  V30 350 C 32.7522 0.397723 3.36558 0
M  V30 351 C 31.9252 1.47362 4.11829 0
M  V30 352 C 30.9842 0.934951 5.17827 0
M  V30 353 O 30.0102 1.62016 5.45655 0
M  V30 354 N 31.2122 -0.245895 5.79979 0
M  V30 355 H 33.9772 1.88363 2.33109 0
M  V30 356 H 31.5382 1.12661 1.16272 0
M  V30 357 H 33.5302 0.0227771 4.04694 0
M  V30 358 H 32.1002 -0.446646 3.09393 0
M  V30 359 H 31.3202 2.02208 3.38386 0
M  V30 360 H 32.6082 2.19764 4.58891 0
M  V30 361 H 32.0062 -0.819475 5.59733 0
M  V30 362 H 30.5632 -0.562272 6.4937 0
M  V30 363 N 33.9963 -1.19345 1.0293 0
M  V30 364 C 34.9593 -2.20793 0.615069 0
M  V30 365 C 35.9593 -1.57553 -0.321533 0
M  V30 366 O 37.1493 -1.73862 -0.108483 0
M  V30 367 C 34.2813 -3.40754 -0.0999222 0
M  V30 368 H 35.4743 -2.58955 1.51269 0
M  V30 369 H 33.0273 -1.3303 0.820534 0
M  V30 370 H 33.7623 -3.0811 -1.01187 0
M  V30 371 H 33.5473 -3.87889 0.57309 0
M  V30 372 H 35.0373 -4.15898 -0.376645 0
M  V30 373 N 35.4744 -0.807222 -1.35358 0
M  V30 374 C 36.4044 -0.232509 -2.3234 0
M  V30 375 C 37.3854 0.642386 -1.57504 0
M  V30 376 O 38.5704 0.572526 -1.85569 0
M  V30 377 C 35.7004 0.619238 -3.41735 0
M  V30 378 C 34.6544 -0.157215 -4.27711 0
M  V30 379 C 33.9804 0.816273 -5.28433 0
M  V30 380 C 35.2804 -1.35656 -5.04376 0
M  V30 381 H 36.9744 -1.04276 -2.80654 0
M  V30 382 H 34.5204 -0.50288 -1.34934 0
M  V30 383 H 36.4734 1.03137 -4.08584 0
M  V30 384 H 35.1974 1.46239 -2.92031 0
M  V30 385 H 33.8564 -0.550525 -3.62443 0
M  V30 386 H 33.5044 1.65494 -4.74996 0
M  V30 387 H 33.2044 0.301067 -5.86828 0
M  V30 388 H 34.7284 1.22659 -5.98153 0
M  V30 389 H 36.1424 -1.01927 -5.64166 0
M  V30 390 H 34.5394 -1.8063 -5.7227 0
M  V30 391 H 35.6094 -2.14288 -4.34981 0
M  V30 392 N 36.9525 1.47285 -0.560781 0
M  V30 393 C 37.8625 2.33846 0.187954 0
M  V30 394 C 38.8785 1.48412 0.908293 0
M  V30 395 O 40.0545 1.81332 0.876388 0
M  V30 396 C 37.1195 3.25178 1.2025 0
M  V30 397 C 36.1805 4.26504 0.489208 0
M  V30 398 C 35.4135 5.13472 1.45542 0
M  V30 399 O 35.6365 5.02959 2.6905 0
M  V30 400 O 34.5705 5.93902 0.977963 0
M  V30 401 H 38.3965 2.99177 -0.522177 0
M  V30 402 H 35.9815 1.45903 -0.321364 0
M  V30 403 H 37.8635 3.81584 1.78805 0
M  V30 404 H 36.5385 2.6247 1.89449 0
M  V30 405 H 35.4455 3.73847 -0.137627 0
M  V30 406 H 36.7785 4.91935 -0.161399 0
M  V30 407 N 38.4306 0.297415 1.54768 0
M  V30 408 C 39.3776 -0.580276 2.23386 0
M  V30 409 C 40.3476 -1.13238 1.21517 0
M  V30 410 O 41.5326 -1.17757 1.50126 0
M  V30 411 C 38.6726 -1.74801 2.97555 0
M  V30 412 C 37.7856 -1.22764 4.1419 0
M  V30 413 C 36.9206 -2.35895 4.75949 0
M  V30 414 C 35.9596 -1.80974 5.84735 0
M  V30 415 N 35.0966 -2.87664 6.40464 0
M  V30 416 H 39.9366 0.0114833 2.97998 0
M  V30 417 H 37.4736 0.0174361 1.4709 0
M  V30 418 H 39.4316 -2.43475 3.38786 0
M  V30 419 H 38.0616 -2.31145 2.25326 0
M  V30 420 H 37.1136 -0.433271 3.77924 0
M  V30 421 H 38.4256 -0.785551 4.92575 0
M  V30 422 H 37.5796 -3.12523 5.20014 0
M  V30 423 H 36.3186 -2.83429 3.96887 0
M  V30 424 H 35.3236 -1.02834 5.40097 0
M  V30 425 H 36.5486 -1.34348 6.65678 0
M  V30 426 H 34.4946 -3.34538 5.64287 0
M  V30 427 H 34.4116 -2.4794 7.14186 0
M  V30 428 H 35.6796 -3.642 6.89187 0
M  V30 429 N 39.9087 -1.5758 0.0250728 0
M  V30 430 C 41.1857 -1.82917 -0.692873 0
M  V30 431 C 41.5657 -0.908137 -1.90568 0
M  V30 432 O 40.9137 0.0372298 -2.2847 0
M  V30 433 C 41.1237 -3.32034 -1.07492 0
M  V30 434 C 42.4717 -3.98406 -1.46826 0
M  V30 435 O 43.4957 -3.36505 -1.16801 0
M  V30 436 O 42.3547 -5.07497 -2.02754 0
M  V30 437 H 39.4487 -0.754079 -0.33955 0
M  V30 438 H 41.9947 -1.69619 0.0524456 0
M  V30 439 H 40.7667 -3.90728 -0.211552 0
M  V30 440 H 40.3897 -3.50424 -1.87854 0
M  V30 441 N 41.3868 0.248026 -1.55636 0
M  V30 442 C 42.2968 1.32859 -1.93354 0
M  V30 443 C 43.3128 1.52719 -0.833838 0
M  V30 444 O 44.4888 1.66363 -1.13513 0
M  V30 445 C 41.5538 2.66337 -2.21958 0
M  V30 446 C 40.6148 2.55008 -3.45354 0
M  V30 447 C 39.8478 3.82121 -3.72584 0
M  V30 448 O 40.0708 4.83951 -3.01907 0
M  V30 449 O 39.0048 3.80822 -4.6611 0
M  V30 450 H 42.8308 1.03862 -2.85388 0
M  V30 451 H 40.4158 0.448686 -1.42503 0
M  V30 452 H 42.2978 3.45216 -2.4167 0
M  V30 453 H 40.9728 2.95068 -1.33103 0
M  V30 454 H 39.8798 1.7442 -3.30951 0
M  V30 455 H 41.2128 2.31222 -4.34508 0
M  V30 456 N 42.8649 1.48995 0.513639 0
M  V30 457 C 43.7749 1.67443 1.64317 0
M  V30 458 C 44.7909 0.556947 1.64846 0
M  V30 459 O 45.9669 0.830082 1.83498 0
M  V30 460 C 43.0319 1.72515 3.00732 0
M  V30 461 C 42.0929 2.96009 3.1093 0
M  V30 462 C 41.3259 3.00829 4.40837 0
M  V30 463 O 41.5489 2.13594 5.28898 0
M  V30 464 O 40.4829 3.93168 4.55744 0
M  V30 465 H 44.3089 2.63106 1.51687 0
M  V30 466 H 41.8939 1.32588 0.688543 0
M  V30 467 H 43.7759 1.78277 3.81831 0
M  V30 468 H 42.4509 0.800278 3.13651 0
M  V30 469 H 41.3579 2.9577 2.29065 0
M  V30 470 H 42.6909 3.87934 3.02933 0
M  V30 471 N 44.343 -0.763751 1.37857 0
M  V30 472 C 45.253 -1.90817 1.36478 0
M  V30 473 C 46.269 -1.71997 0.263248 0
M  V30 474 O 47.445 -1.95095 0.499979 0
M  V30 475 C 44.51 -3.2605 1.17864 0
M  V30 476 C 43.571 -3.57467 2.3773 0
M  V30 477 C 42.804 -4.86249 2.19995 0
M  V30 478 O 43.027 -5.57884 1.18836 0
M  V30 479 O 41.961 -5.16911 3.08361 0
M  V30 480 H 45.787 -1.94933 2.32884 0
M  V30 481 H 43.372 -0.907619 1.1867 0
M  V30 482 H 45.254 -4.06924 1.09504 0
M  V30 483 H 43.929 -3.22769 0.245372 0
M  V30 484 H 42.836 -2.76796 2.51664 0
M  V30 485 H 44.169 -3.655 3.29652 0
M  V30 486 N 45.8211 -1.22559 -0.990812 0
M  V30 487 C 46.7841 -0.998863 -2.0629 0
M  V30 488 C 47.7841 0.0354834 -1.60761 0
M  V30 489 O 48.9741 -0.203231 -1.7301 0
M  V30 490 C 46.1061 -0.509203 -3.37076 0
M  V30 491 H 47.2991 -1.95014 -2.27837 0
M  V30 492 H 44.8521 -1.04456 -1.16269 0
M  V30 493 H 45.5871 0.446335 -3.21214 0
M  V30 494 H 45.3721 -1.25547 -3.71457 0
M  V30 495 H 46.8621 -0.370888 -4.1595 0
M  V30 496 N 47.2992 1.18797 -1.03562 0
M  V30 497 C 48.2292 2.24472 -0.643019 0
M  V30 498 C 49.2102 1.66433 0.351283 0
M  V30 499 O 50.3952 1.92803 0.232505 0
M  V30 500 C 47.5252 3.473 4.24935e-05 0
M  V30 501 C 46.4792 4.18055 -0.917257 0
M  V30 502 C 45.8052 5.34519 -0.138941 0
M  V30 503 C 47.1052 4.72109 -2.23407 0
M  V30 504 H 48.7992 2.57566 -1.52643 0
M  V30 505 H 46.3452 1.23806 -0.735394 0
M  V30 506 H 48.2982 4.20426 0.286383 0
M  V30 507 H 47.0222 3.13424 0.918299 0
M  V30 508 H 45.6812 3.46821 -1.1879 0
M  V30 509 H 45.3292 4.96891 0.781562 0
M  V30 510 H 45.0292 5.82794 -0.750005 0
M  V30 511 H 46.5532 6.10438 0.1405 0
M  V30 512 H 47.9672 5.36955 -2.00879 0
M  V30 513 H 46.3642 5.30897 -2.79765 0
M  V30 514 H 47.4342 3.89807 -2.88407 0
M  V30 515 N 48.7773 0.814389 1.34928 0
M  V30 516 C 50.0263 0.394871 1.97797 0
M  V30 517 C 50.3393 -1.04555 1.65311 0
M  V30 518 O 51.5453 -1.56856 2.21604 0
M  V30 519 C 50.0013 0.655103 3.53888 0
M  V30 520 C 49.6093 2.10858 3.95276 0
M  V30 521 C 51.3533 0.301329 4.23429 0
M  V30 522 C 49.2603 2.31415 5.44244 0
M  V30 523 H 48.1903 0.143913 0.740139 0
M  V30 524 H 50.8413 0.999544 1.53888 0
M  V30 525 H 49.2233 -0.0196253 3.95995 0
M  V30 526 H 50.3973 2.82176 3.64298 0
M  V30 527 H 48.7123 2.42297 3.38646 0
M  V30 528 H 51.3093 0.432869 5.32945 0
M  V30 529 H 51.6523 -0.75331 4.09428 0
M  V30 530 H 52.1853 0.930288 3.86769 0
M  V30 531 H 48.9243 3.35353 5.63222 0
M  V30 532 H 48.4443 1.6463 5.76764 0
M  V30 533 H 50.1233 2.13352 6.10811 0
M  V30 534 N 50.2554 -1.46986 0.568584 0
M  V30 535 C 51.5324 -1.95592 -0.0174074 0
M  V30 536 C 51.9124 -1.51124 -1.47393 0
M  V30 537 O 51.2604 -0.755329 -2.15655 0
M  V30 538 C 51.4704 -3.48719 0.139913 0
M  V30 539 C 52.8184 -4.246 0.000426376 0
M  V30 540 O 53.8424 -3.56135 0.0680316 0
M  V30 541 O 52.7014 -5.46302 -0.146988 0
M  V30 542 H 49.7954 -0.82498 -0.0577599 0
M  V30 543 H 52.3414 -1.57335 0.635909 0
M  V30 544 H 51.1134 -3.73927 1.15301 0
M  V30 545 H 50.7364 -3.93771 -0.550491 0
M  V30 546 N 51.7335 -0.305618 -1.54608 0
M  V30 547 C 52.6435 0.57778 -2.27374 0
M  V30 548 C 53.6595 1.14451 -1.31061 0
M  V30 549 O 54.8355 1.16831 -1.6405 0
M  V30 550 C 51.9005 1.73123 -3.00382 0
M  V30 551 C 50.9615 1.19812 -4.12242 0
M  V30 552 C 50.1945 2.2966 -4.81759 0
M  V30 553 O 50.4175 3.49651 -4.50666 0
M  V30 554 O 49.3515 1.96091 -5.69062 0
M  V30 555 H 53.1775 -0.012624 -3.03697 0
M  V30 556 H 50.7625 -0.0719184 -1.49227 0
M  V30 557 H 52.6445 2.40315 -3.4616 0
M  V30 558 H 51.3195 2.30815 -2.26949 0
M  V30 559 H 50.2265 0.491798 -3.70853 0
M  V30 560 H 51.5595 0.666566 -4.87666 0
M  V30 561 N 53.2116 1.57565 -0.0334293 0
M  V30 562 C 54.1436 2.0739 0.975811 0
M  V30 563 C 55.1566 0.998166 1.2861 0
M  V30 564 O 56.3456 1.27426 1.25 0
M  V30 565 C 53.4456 2.4871 2.30209 0
M  V30 566 C 52.6186 3.79413 2.17634 0
M  V30 567 C 51.6776 4.07237 3.33233 0
M  V30 568 O 50.7036 4.77425 3.09927 0
M  V30 569 N 51.9056 3.5775 4.5716 0
M  V30 570 H 54.6706 2.94598 0.55066 0
M  V30 571 H 52.2316 1.61173 0.15323 0
M  V30 572 H 54.2236 2.64413 3.06378 0
M  V30 573 H 52.7936 1.66845 2.64351 0
M  V30 574 H 52.0136 3.73465 1.26165 0
M  V30 575 H 53.3016 4.65038 2.0644 0
M  V30 576 H 52.6996 3.00976 4.78989 0
M  V30 577 H 51.2566 3.78724 5.30482 0
M  V30 578 N 54.6897 -0.239769 1.55765 0
M  V30 579 C 55.9147 -0.988373 1.82335 0
M  V30 580 C 56.3397 -1.77886 0.611421 0
M  V30 581 O 55.6977 -1.75889 -0.439639 0
M  V30 582 C 55.7457 -1.89627 3.06715 0
M  V30 583 O 54.8497 -2.98904 2.84131 0
M  V30 584 H 54.1907 -0.280858 0.601677 0
M  V30 585 H 56.7207 -0.258597 2.02959 0
M  V30 586 H 56.7307 -2.30957 3.36338 0
M  V30 587 H 55.4057 -1.31511 3.9456 0
M  V30 588 H 53.9827 -2.61651 2.65694 0
M  V30 589 N 56.1678 -1.49265 -0.50573 0
M  V30 590 C 57.0778 -1.68312 -1.63427 0
M  V30 591 C 58.0938 -0.565682 -1.64548 0
M  V30 592 O 59.2698 -0.839801 -1.83055 0
M  V30 593 C 56.3348 -1.74107 -2.99813 0
M  V30 594 C 55.3958 -2.97653 -3.09356 0
M  V30 595 C 54.6288 -3.03163 -4.39236 0
M  V30 596 O 54.8518 -2.16396 -5.27758 0
M  V30 597 O 53.7858 -3.9558 -4.53652 0
M  V30 598 H 57.6118 -2.63907 -1.50289 0
M  V30 599 H 55.1968 -1.32951 -0.681502 0
M  V30 600 H 57.0788 -1.803 -3.80881 0
M  V30 601 H 55.7538 -0.816901 -3.13223 0
M  V30 602 H 54.6608 -2.96981 -2.27493 0
M  V30 603 H 55.9938 -3.89535 -3.00871 0
M  V30 604 N 57.6459 0.756429 -1.3826 0
M  V30 605 C 58.5759 1.88374 -1.37976 0
M  V30 606 C 59.5569 1.68311 -0.246082 0
M  V30 607 O 60.7419 1.88944 -0.44874 0
M  V30 608 C 57.8719 3.25864 -1.20125 0
M  V30 609 C 56.8259 3.60523 -2.30666 0
M  V30 610 C 56.1519 4.9672 -1.97923 0
M  V30 611 C 57.4519 3.65692 -3.72916 0
M  V30 612 H 59.1459 1.88869 -2.32312 0
M  V30 613 H 56.6919 0.907272 -1.11824 0
M  V30 614 H 58.6449 4.0438 -1.18552 0
M  V30 615 H 57.3689 3.25841 -0.222498 0
M  V30 616 H 56.0279 2.84324 -2.3142 0
M  V30 617 H 55.6759 4.93253 -0.985393 0
M  V30 618 H 55.3759 5.20878 -2.71955 0
M  V30 619 H 56.8999 5.77618 -1.97964 0
M  V30 620 H 58.3139 4.34328 -3.74208 0
M  V30 621 H 56.7109 4.01358 -4.4613 0
M  V30 622 H 57.7809 2.65987 -4.05436 0
M  V30 623 N 59.124 1.23083 0.984299 0
M  V30 624 C 60.071 1.00854 2.07598 0
M  V30 625 C 61.041 -0.0726709 1.65941 0
M  V30 626 O 62.226 0.0786535 1.90638 0
M  V30 627 C 59.366 0.601645 3.39815 0
M  V30 628 C 58.479 1.75456 3.94765 0
M  V30 629 C 57.614 1.29482 5.15177 0
M  V30 630 C 56.653 2.41873 5.62284 0
M  V30 631 N 55.79 1.96885 6.73929 0
M  V30 632 H 60.63 1.943 2.25946 0
M  V30 633 H 58.167 0.968001 1.10762 0
M  V30 634 H 60.125 0.346854 4.15756 0
M  V30 635 H 58.755 -0.295803 3.21442 0
M  V30 636 H 57.807 2.12346 3.15616 0
M  V30 637 H 59.119 2.59965 4.25699 0
M  V30 638 H 58.273 0.997923 5.98437 0
M  V30 639 H 57.012 0.420046 4.85888 0
M  V30 640 H 56.017 2.72342 4.77608 0
M  V30 641 H 57.242 3.29881 5.93595 0
M  V30 642 H 55.188 1.11782 6.46406 0
M  V30 643 H 55.105 2.74956 7.04227 0
M  V30 644 H 56.373 1.70289 7.60672 0
M  V30 645 N 60.6021 -1.18246 1.0419 0
M  V30 646 C 61.5651 -2.20128 0.638452 0
M  V30 647 C 62.5651 -1.57885 -0.304805 0
M  V30 648 O 63.7551 -1.73967 -0.0900369 0
M  V30 649 C 60.8871 -3.4084 -0.0637751 0
M  V30 650 H 62.0801 -2.57336 1.54007 0
M  V30 651 H 59.6331 -1.32152 0.834598 0
M  V30 652 H 60.3681 -3.09166 -0.979136 0
M  V30 653 H 60.1531 -3.8726 0.614198 0
M  V30 654 H 61.6431 -4.16274 -0.332512 0
M  V30 655 N 62.0802 -0.821533 -1.34494 0
M  V30 656 C 63.3292 -0.405355 -1.97585 0
M  V30 657 C 63.6422 1.03677 -1.65863 0
M  V30 658 O 64.8482 1.55679 -2.22433 0
M  V30 659 C 63.3042 -0.673861 -3.53535 0
M  V30 660 C 62.9122 -2.12951 -3.94152 0
M  V30 661 C 64.6562 -0.32378 -4.23263 0
M  V30 662 C 62.5632 -2.34298 -5.43009 0
M  V30 663 H 61.4932 -0.147836 -0.739365 0
M  V30 664 H 64.1442 -1.00769 -1.53355 0
M  V30 665 H 62.5262 -0.00137554 -3.96 0
M  V30 666 H 63.7002 -2.84104 -3.62797 0
M  V30 667 H 62.0152 -2.44089 -3.37356 0
M  V30 668 H 64.6122 -0.461126 -5.32708 0
M  V30 669 H 64.9552 0.731586 -4.09821 0
M  V30 670 H 65.4882 -0.950786 -3.8627 0
M  V30 671 H 62.2272 -3.38335 -5.61435 0
M  V30 672 H 61.7472 -1.67687 -5.75883 0
M  V30 673 H 63.4262 -2.16588 -6.09671 0
M  V30 674 N 63.5583 1.46682 -0.576371 0
M  V30 675 C 64.4683 2.34032 0.163141 0
M  V30 676 C 65.4843 1.49367 0.892501 0
M  V30 677 O 66.6603 1.82252 0.857106 0
M  V30 678 C 63.7253 3.26435 1.16795 0
M  V30 679 C 62.7863 4.26998 0.443944 0
M  V30 680 C 62.0193 5.14986 1.40088 0
M  V30 681 O 62.2423 5.05785 2.637 0
M  V30 682 O 61.1763 5.94906 0.914917 0
M  V30 683 H 65.0023 2.98607 -0.55388 0
M  V30 684 H 62.5873 1.45554 -0.336821 0
M  V30 685 H 64.4693 3.83459 1.74748 0
M  V30 686 H 63.1443 2.64465 1.86655 0
M  V30 687 H 62.0513 3.7368 -0.177271 0
M  V30 688 H 63.3843 4.91736 -0.213566 0
M  V30 689 N 65.0364 0.313813 1.54444 0
M  V30 690 C 65.9834 -0.55655 2.23989 0
M  V30 691 C 66.9534 -1.11943 1.22711 0
M  V30 692 O 68.1384 -1.16158 1.51367 0
M  V30 693 C 65.2784 -1.71635 2.99392 0
M  V30 694 C 64.3914 -1.18364 4.15468 0
M  V30 695 C 63.5264 -2.30834 4.78424 0
M  V30 696 C 62.5654 -1.74762 5.86622 0
M  V30 697 N 61.7024 -2.80855 6.43479 0
M  V30 698 H 66.5424 0.0430893 2.97969 0
M  V30 699 H 64.0794 0.0330359 1.47063 0
M  V30 700 H 66.0374 -2.39868 3.41349 0
M  V30 701 H 64.6674 -2.28742 2.27765 0
M  V30 702 H 63.7194 -0.393163 3.78363 0
M  V30 703 H 65.0314 -0.733262 4.93381 0
M  V30 704 H 64.1854 -3.0699 5.23299 0
M  V30 705 H 62.9244 -2.79204 3.99871 0
M  V30 706 H 61.9294 -0.970995 5.41158 0
M  V30 707 H 63.1544 -1.2728 6.67066 0
M  V30 708 H 61.1004 -3.28535 5.67804 0
M  V30 709 H 61.0174 -2.40351 7.16776 0
M  V30 710 H 62.2854 -3.5687 6.93011 0
M  V30 711 N 66.5145 -1.57545 0.0417849 0
M  V30 712 C 67.4245 -2.14451 -0.951213 0
M  V30 713 C 68.4405 -1.09992 -1.34825 0
M  V30 714 O 69.6165 -1.42114 -1.42708 0
M  V30 715 C 66.6815 -2.67063 -2.21084 0
M  V30 716 C 65.7425 -3.86284 -1.87304 0
M  V30 717 C 64.9755 -4.36378 -3.07261 0
M  V30 718 O 65.1985 -3.85587 -4.20332 0
M  V30 719 O 64.1325 -5.28077 -2.88822 0
M  V30 720 H 67.9585 -2.99601 -0.497287 0
M  V30 721 H 65.5435 -1.48317 -0.179567 0
M  V30 722 H 67.4255 -3.00914 -2.95006 0
M  V30 723 H 66.1005 -1.84989 -2.65633 0
M  V30 724 H 65.0075 -3.57338 -1.10727 0
M  V30 725 H 66.3405 -4.6956 -1.47562 0
M  V30 726 N 67.9926 0.231505 -1.5589 0
M  V30 727 C 68.9396 1.28682 -1.91598 0
M  V30 728 C 69.9096 1.47071 -0.771974 0
M  V30 729 O 71.0946 1.60802 -1.027 0
M  V30 730 C 68.2346 2.6342 -2.22944 0
M  V30 731 C 67.3476 2.52912 -3.50228 0
M  V30 732 C 66.4826 3.80106 -3.7107 0
M  V30 733 C 65.5216 3.64279 -4.91902 0
M  V30 734 N 64.6586 4.834 -5.09184 0
M  V30 735 H 69.4986 0.975305 -2.81588 0
M  V30 736 H 67.0356 0.470299 -1.39379 0
M  V30 737 H 68.9936 3.41869 -2.39126 0
M  V30 738 H 67.6236 2.92687 -1.36139 0
M  V30 739 H 66.6756 1.6595 -3.42294 0
M  V30 740 H 67.9876 2.37133 -4.38827 0
M  V30 741 H 67.1416 4.66999 -3.87295 0
M  V30 742 H 65.8806 3.98799 -2.80733 0
M  V30 743 H 64.8856 2.7577 -4.75637 0
M  V30 744 H 66.1106 3.47067 -5.83714 0
M  V30 745 H 64.0566 5.02425 -4.21788 0
M  V30 746 H 63.9736 4.70311 -5.91898 0
M  V30 747 H 65.2416 5.71747 -5.29835 0
M  V30 748 N 69.4707 1.49531 0.497807 0
M  V30 749 C 70.4177 1.66436 1.59899 0
M  V30 750 C 71.3877 0.505793 1.58212 0
M  V30 751 O 72.5727 0.733202 1.7615 0
M  V30 752 C 69.7127 1.7399 2.98029 0
M  V30 753 C 68.8257 3.01172 3.09708 0
M  V30 754 C 67.9607 2.99686 4.38591 0
M  V30 755 C 66.9997 4.21434 4.43914 0
M  V30 756 N 66.1367 4.1784 5.64229 0
M  V30 757 H 70.9767 2.60459 1.44793 0
M  V30 758 H 68.5137 1.29137 0.704423 0
M  V30 759 H 70.4717 1.76352 3.78095 0
M  V30 760 H 69.1017 0.834301 3.11832 0
M  V30 761 H 68.1537 3.08408 2.22685 0
M  V30 762 H 69.4657 3.91165 3.09502 0
M  V30 763 H 68.6197 3.00628 5.2698 0
M  V30 764 H 67.3587 2.07477 4.41367 0
M  V30 765 H 66.3637 4.20733 3.53926 0
M  V30 766 H 67.5887 5.14839 4.42851 0
M  V30 767 H 65.5347 3.28469 5.67841 0
M  V30 768 H 65.4517 5.01571 5.65652 0
M  V30 769 H 66.7197 4.22889 6.54817 0
M  V30 770 N 70.9488 -0.749086 1.3866 0
M  V30 771 C 72.1948 -1.51056 1.35314 0
M  V30 772 C 72.5278 -1.94121 -0.0553751 0
M  V30 773 O 71.8028 -1.65763 -1.01749 0
M  V30 774 C 72.0858 -2.76003 2.31288 0
M  V30 775 C 71.9388 -2.39047 3.8102 0
M  V30 776 C 73.2578 -3.78046 2.2532 0
M  V30 777 H 70.3768 -0.547972 0.492844 0
M  V30 778 H 73.0188 -0.857628 1.69543 0
M  V30 779 H 71.1688 -3.31716 2.02229 0
M  V30 780 H 72.8408 -1.89074 4.20771 0
M  V30 781 H 71.0838 -1.71449 3.98482 0
M  V30 782 H 71.7548 -3.28462 4.4364 0
M  V30 783 H 74.2308 -3.31884 2.50983 0
M  V30 784 H 73.1068 -4.63159 2.94576 0
M  V30 785 H 73.3678 -4.23957 1.25352 0
M  V30 786 N 72.4269 -1.23603 -0.977757 0
M  V30 787 C 73.6549 -1.09646 -1.75458 0
M  V30 788 C 74.0699 0.351859 -1.85492 0
M  V30 789 O 73.4269 1.24327 -1.336 0
M  V30 790 C 73.4779 -1.71895 -3.18016 0
M  V30 791 O 73.1989 -3.11063 -3.08498 0
M  V30 792 C 74.6999 -1.63415 -4.12081 0
M  V30 793 H 71.9199 -0.38359 -0.550545 0
M  V30 794 H 74.4639 -1.63507 -1.22824 0
M  V30 795 H 72.6189 -1.22061 -3.67668 0
M  V30 796 H 73.0329 -3.41305 -3.9826 0
M  V30 797 H 74.5069 -2.11669 -5.09804 0
M  V30 798 H 74.9839 -0.593462 -4.35172 0
M  V30 799 H 75.5899 -2.12628 -3.68334 0
M  V30 800 N 73.905 1.17692 -1.04816 0
M  V30 801 C 74.868 2.19787 -0.650117 0
M  V30 802 C 75.868 1.58044 0.296427 0
M  V30 803 O 77.058 1.74012 0.0808097 0
M  V30 804 C 74.19 3.40869 0.0456987 0
M  V30 805 H 75.383 2.56516 -1.5537 0
M  V30 806 H 72.936 1.31708 -0.841594 0
M  V30 807 H 73.671 3.09681 0.962726 0
M  V30 808 H 73.456 3.86928 -0.634727 0
M  V30 809 H 74.946 4.16445 0.310432 0
M  V30 810 N 75.3831 0.828654 1.34056 0
M  V30 811 C 76.3131 0.269443 2.3194 0
M  V30 812 C 77.2941 -0.617247 1.58506 0
M  V30 813 O 78.4791 -0.542931 1.86456 0
M  V30 814 C 75.6091 -0.564793 3.42677 0
M  V30 815 C 74.5631 0.225241 4.27407 0
M  V30 816 C 73.8891 -0.7321 5.29664 0
M  V30 817 C 75.1891 1.43663 5.02154 0
M  V30 818 H 76.8831 1.08728 2.7896 0
M  V30 819 H 74.4291 0.524283 1.34117 0
M  V30 820 H 76.3821 -0.966233 4.10173 0
M  V30 821 H 75.1061 -1.41574 2.9432 0
M  V30 822 H 73.7651 0.608117 3.61521 0
M  V30 823 H 73.4131 -1.57916 4.77568 0
M  V30 824 H 73.1131 -0.20767 5.87233 0
M  V30 825 H 74.6371 -1.13128 6.00029 0
M  V30 826 H 76.0511 1.1089 5.62473 0
M  V30 827 H 74.4481 1.89711 5.69324 0
M  V30 828 H 75.5181 2.21181 4.31517 0
M  V30 829 N 76.8612 -1.46375 0.584142 0
M  V30 830 C 78.2722 -1.86031 0.157959 0
M  V30 831 C 78.6232 -1.48753 -1.27933 0
M  V30 832 O 77.7482 -0.903098 -1.96655 0
M  V30 833 C 78.3432 -3.37642 0.279892 0
M  V30 834 C 76.9022 -3.76289 -0.09143 0
M  V30 835 C 76.0492 -2.7039 0.615178 0
M  V30 836 H 79.0002 -1.37509 0.792274 0
M  V30 837 H 79.0212 -3.77275 -0.494364 0
M  V30 838 H 78.5332 -3.64742 1.32607 0
M  V30 839 H 76.6342 -3.54806 -1.13769 0
M  V30 840 H 76.7472 -4.78246 0.285886 0
M  V30 841 H 75.1112 -2.5464 0.0552833 0
M  V30 842 H 75.8942 -3.0033 1.66303 0
M  V30 843 N 78.3393 -0.321999 -1.54275 0
M  V30 844 C 79.7503 0.166384 -1.85957 0
M  V30 845 C 80.1013 1.51747 -1.24367 0
M  V30 846 O 79.2263 2.09317 -0.549124 0
M  V30 847 C 79.8213 0.308681 -3.37391 0
M  V30 848 C 78.3803 0.741286 -3.69028 0
M  V30 849 C 77.5273 -0.137937 -2.76957 0
M  V30 850 H 80.4783 -0.542335 -1.49146 0
M  V30 851 H 80.4993 1.13984 -3.63026 0
M  V30 852 H 80.0113 -0.674809 -3.82188 0
M  V30 853 H 78.1123 1.73458 -3.29762 0
M  V30 854 H 78.2253 0.546118 -4.75977 0
M  V30 855 H 76.5893 0.386251 -2.51754 0
M  V30 856 H 77.3723 -1.11816 -3.2458 0
M  V30 857 N 79.8174 1.5752 -0.0501392 0
M  V30 858 C 80.7644 2.1147 0.924603 0
M  V30 859 C 81.7344 1.02182 1.30951 0
M  V30 860 O 82.9194 1.29723 1.39916 0
M  V30 861 C 80.0594 2.66337 2.19451 0
M  V30 862 C 79.1724 3.89708 1.86418 0
M  V30 863 C 78.3074 4.32893 3.07859 0
M  V30 864 C 77.3464 5.48967 2.70742 0
M  V30 865 N 76.4834 5.87211 3.84874 0
M  V30 866 H 81.3234 2.94465 0.457639 0
M  V30 867 H 78.8604 1.45531 0.214266 0
M  V30 868 H 80.8184 2.96247 2.93758 0
M  V30 869 H 79.4484 1.86141 2.63726 0
M  V30 870 H 78.5004 3.66396 1.02264 0
M  V30 871 H 79.8124 4.74074 1.55096 0
M  V30 872 H 78.9664 4.6435 3.90466 0
M  V30 873 H 77.7054 3.47336 3.42358 0
M  V30 874 H 76.7104 5.17183 1.86551 0
M  V30 875 H 77.9354 6.3624 2.37436 0
M  V30 876 H 75.8814 5.04607 4.19175 0
M  V30 877 H 75.7984 6.66266 3.57247 0
M  V30 878 H 77.0664 6.23282 4.68123 0
M  V30 879 N 81.2955 -0.223234 1.56011 0
M  V30 880 C 82.2055 -1.29766 1.95443 0
M  V30 881 C 83.2215 -1.51373 0.858028 0
M  V30 882 O 84.3975 -1.64536 1.16146 0
M  V30 883 C 81.4625 -2.62772 2.26167 0
M  V30 884 C 80.5235 -2.49482 3.49367 0
M  V30 885 C 79.7565 -3.76145 3.78616 0
M  V30 886 O 79.9795 -4.79087 3.09568 0
M  V30 887 O 78.9135 -3.73358 4.72109 0
M  V30 888 H 82.7395 -0.99309 2.87004 0
M  V30 889 H 80.3245 -0.425958 1.43199 0
M  V30 890 H 82.2065 -3.41327 2.47131 0
M  V30 891 H 80.8815 -2.92913 1.37781 0
M  V30 892 H 79.7885 -1.69133 3.33684 0
M  V30 893 H 81.1215 -2.2428 4.38131 0
M  V30 894 N 82.7736 -1.49793 -0.48987 0
M  V30 895 C 83.7366 -1.66752 -1.57246 0
M  V30 896 C 84.7366 -0.538867 -1.51502 0
M  V30 897 O 85.9266 -0.805545 -1.54456 0
M  V30 898 C 83.0586 -1.67528 -2.96896 0
M  V30 899 H 84.2516 -2.63321 -1.43534 0
M  V30 900 H 81.8046 -1.38992 -0.714914 0
M  V30 901 H 82.5396 -0.725837 -3.16073 0
M  V30 902 H 82.3246 -2.49504 -3.02473 0
M  V30 903 H 83.8146 -1.82667 -3.7553 0
M  V30 904 N 84.2517 0.741722 -1.39055 0
M  V30 905 C 85.4917 1.51385 -1.37338 0
M  V30 906 C 85.8557 1.91972 0.0330513 0
M  V30 907 O 87.0567 2.68229 0.175174 0
M  V30 908 C 85.3277 2.72481 -2.31276 0
M  V30 909 S 86.8867 3.62211 -2.47687 0
M  V30 910 H 83.7047 0.517906 -0.487129 0
M  V30 911 H 86.3067 0.86969 -1.7509 0
M  V30 912 H 85.0107 2.40793 -3.32336 0
M  V30 913 H 84.5417 3.41832 -1.94716 0
M  V30 914 H 86.5567 4.65812 -1.70978 0
M  V30 915 N 85.7298 1.2412 0.971189 0
M  V30 916 C 86.6768 1.0305 2.06517 0
M  V30 917 C 87.6468 -0.0550666 1.66009 0
M  V30 918 O 88.8318 0.0988688 1.90544 0
M  V30 919 C 85.9718 0.637653 3.39158 0
M  V30 920 C 85.0848 1.79633 3.92882 0
M  V30 921 C 84.2198 1.34939 5.13775 0
M  V30 922 C 83.2588 2.47823 5.59687 0
M  V30 923 N 82.3958 2.04022 6.71803 0
M  V30 924 H 87.2358 1.96685 2.23873 0
M  V30 925 H 84.7728 0.979694 1.09729 0
M  V30 926 H 86.7308 0.390931 4.15364 0
M  V30 927 H 85.3608 -0.261693 3.21737 0
M  V30 928 H 84.4128 2.15681 3.13346 0
M  V30 929 H 85.7248 2.64466 4.22918 0
M  V30 930 H 84.8788 1.06134 5.97345 0
M  V30 931 H 83.6178 0.471557 4.85415 0
M  V30 932 H 82.6228 2.77392 4.74693 0
M  V30 933 H 83.8478 3.36158 5.90063 0
M  V30 934 H 81.7938 1.18632 6.45184 0
M  V30 935 H 81.7108 2.82409 7.01271 0
M  V30 936 H 82.9788 1.78347 7.58823 0
M  V30 937 N 87.2079 -1.17134 1.05439 0
M  V30 938 C 88.4479 -1.89137 0.77502 0
M  V30 939 C 88.8119 -1.79345 -0.685526 0
M  V30 940 O 90.0129 -2.46188 -1.0791 0
M  V30 941 C 88.2839 -3.35003 1.2453 0
M  V30 942 S 89.8429 -4.24952 1.09367 0
M  V30 943 H 86.6609 -0.652949 0.281387 0
M  V30 944 H 89.2629 -1.4145 1.34953 0
M  V30 945 H 87.9669 -3.39666 2.30338 0
M  V30 946 H 87.4979 -3.87736 0.665166 0
M  V30 947 H 89.5129 -4.96196 0.0193397 0
M  V30 948 N 88.686 -0.835752 -1.33615 0
M  V30 949 C 89.618 -0.224151 -2.28101 0
M  V30 950 C 90.631 0.593331 -1.51603 0
M  V30 951 O 91.82 0.420911 -1.73466 0
M  V30 952 C 88.92 0.703309 -3.31522 0
M  V30 953 C 88.093 -0.0741528 -4.37337 0
M  V30 954 C 87.152 0.776176 -5.20444 0
M  V30 955 O 86.178 0.216506 -5.68788 0
M  V30 956 N 87.38 2.09401 -5.41416 0
M  V30 957 H 90.145 -1.03598 -2.81225 0
M  V30 958 H 87.706 -0.69392 -1.46275 0
M  V30 959 H 89.698 1.27707 -3.84022 0
M  V30 960 H 88.268 1.41585 -2.78698 0
M  V30 961 H 87.488 -0.82928 -3.85378 0
M  V30 962 H 88.776 -0.608863 -5.05144 0
M  V30 963 H 88.174 2.57229 -5.03835 0
M  V30 964 H 86.731 2.61633 -5.96985 0
M  V30 965 N 90.1641 1.46063 -0.591896 0
M  V30 966 C 91.1111 2.30399 0.136069 0
M  V30 967 C 92.0811 1.41169 0.875238 0
M  V30 968 O 93.2661 1.70112 0.86409 0
M  V30 969 C 90.4061 3.25804 1.13781 0
M  V30 970 C 89.5191 4.30134 0.401137 0
M  V30 971 C 88.6541 5.12659 1.39121 0
M  V30 972 C 87.6931 6.0873 0.641462 0
M  V30 973 N 86.8301 6.8409 1.58004 0
M  V30 974 H 91.6701 2.92118 -0.589144 0
M  V30 975 H 89.2071 1.43959 -0.302342 0
M  V30 976 H 91.1651 3.79569 1.73156 0
M  V30 977 H 89.7951 2.65872 1.83062 0
M  V30 978 H 88.8471 3.79152 -0.307826 0
M  V30 979 H 90.1591 4.98458 -0.184565 0
M  V30 980 H 89.3131 5.70747 2.05749 0
M  V30 981 H 88.0521 4.44316 2.01084 0
M  V30 982 H 87.0571 5.49786 -0.0385419 0
M  V30 983 H 88.2821 6.79095 0.0270945 0
M  V30 984 H 86.2281 6.18449 2.18761 0
M  V30 985 H 86.1451 7.48709 1.04738 0
M  V30 986 H 87.4131 7.4673 2.23639 0
M  V30 987 N 91.6422 0.330177 1.54103 0
M  V30 988 C 92.5522 -0.541534 2.28264 0
M  V30 989 C 93.5682 -1.12351 1.32866 0
M  V30 990 O 94.7442 -1.14206 1.65888 0
M  V30 991 C 91.8092 -1.68322 3.03098 0
M  V30 992 C 90.8702 -1.13238 4.14096 0
M  V30 993 C 90.1032 -2.21966 4.85352 0
M  V30 994 O 90.3262 -3.42437 4.56172 0
M  V30 995 O 89.2602 -1.87013 5.7211 0
M  V30 996 H 93.0862 0.060938 3.03639 0
M  V30 997 H 90.6712 0.09565 1.49093 0
M  V30 998 H 92.5532 -2.34777 3.49939 0
M  V30 999 H 91.2282 -2.27176 2.30593 0
M  V30 1000 H 90.1352 -0.432736 3.71589 0
M  V30 1001 H 91.4682 -0.588898 4.88664 0
M  V30 1002 N 93.1203 -1.57491 0.0584922 0
M  V30 1003 C 94.3973 -1.84346 -0.653918 0
M  V30 1004 C 94.7773 -0.948355 -1.88599 0
M  V30 1005 O 94.1253 -0.0112403 -2.28497 0
M  V30 1006 C 94.3353 -3.34239 -1.00425 0
M  V30 1007 C 95.6833 -4.01431 -1.38342 0
M  V30 1008 O 96.7073 -3.38907 -1.09637 0
M  V30 1009 O 95.5663 -5.11683 -1.91943 0
M  V30 1010 H 92.6603 -0.761112 -0.323478 0
M  V30 1011 H 95.2063 -1.6947 0.0884125 0
M  V30 1012 H 93.9783 -3.91089 -0.128625 0
M  V30 1013 H 93.6013 -3.54329 -1.80378 0
M  V30 1014 N 94.5984 0.214957 -1.56127 0
M  V30 1015 C 95.5284 1.2695 -1.95974 0
M  V30 1016 C 96.5094 1.48539 -0.828868 0
M  V30 1017 O 97.6944 1.60611 -1.09168 0
M  V30 1018 C 94.8244 2.61794 -2.28214 0
M  V30 1019 C 93.7784 2.54851 -3.43853 0
M  V30 1020 C 93.1044 3.93785 -3.61715 0
M  V30 1021 C 94.4044 2.09065 -4.78632 0
M  V30 1022 H 96.0984 0.93846 -2.84312 0
M  V30 1023 H 93.6444 0.449996 -1.36788 0
M  V30 1024 H 95.5974 3.35731 -2.54682 0
M  V30 1025 H 94.3214 2.96599 -1.36736 0
M  V30 1026 H 92.9804 1.8337 -3.17444 0
M  V30 1027 H 92.6284 4.25908 -2.67602 0
M  V30 1028 H 92.3284 3.90019 -4.39498 0
M  V30 1029 H 93.8524 4.69374 -3.90539 0
M  V30 1030 H 95.2664 2.7275 -5.04262 0
M  V30 1031 H 93.6634 2.16346 -5.59745 0
M  V30 1032 H 94.7334 1.04315 -4.73547 0
M  V30 1033 N 96.0765 1.50051 0.48192 0
M  V30 1034 C 97.0395 1.67584 1.5636 0
M  V30 1035 C 98.0395 0.546894 1.51214 0
M  V30 1036 O 99.2295 0.813725 1.54026 0
M  V30 1037 C 96.3615 1.691 2.96003 0
M  V30 1038 H 97.5545 2.64078 1.42136 0
M  V30 1039 H 95.1075 1.39369 0.707533 0
M  V30 1040 H 95.8425 0.742589 3.15684 0
M  V30 1041 H 95.6275 2.51105 3.01146 0
M  V30 1042 H 97.1175 1.84656 3.74556 0
M  V30 1043 N 97.5546 -0.734337 1.39446 0
M  V30 1044 C 98.9706 -1.03997 1.21065 0
M  V30 1045 C 99.1706 -2.01369 0.0727019 0
M  V30 1046 O 98.2266 -2.45856 -0.575426 0
M  V30 1047 C 99.5396 -1.60163 2.54496 0
M  V30 1048 C 101.088 -1.7224 2.61347 0
M  V30 1049 C 101.563 -2.31814 3.95002 0
M  V30 1050 N 103.054 -2.39223 3.96644 0
M  V30 1051 C 103.789 -2.86258 4.96834 0
M  V30 1052 N 103.285 -3.33184 6.07421 0
M  V30 1053 N 105.078 -2.85473 4.84213 0
M  V30 1054 H 97.2286 -0.0885624 2.12215 0
M  V30 1055 H 99.4916 -0.10191 0.942506 0
M  V30 1056 H 99.1976 -0.960811 3.38321 0
M  V30 1057 H 99.0716 -2.5896 2.74262 0
M  V30 1058 H 101.459 -2.35443 1.77906 0
M  V30 1059 H 101.54 -0.720939 2.4543 0
M  V30 1060 H 101.184 -1.69238 4.78875 0
M  V30 1061 H 101.114 -3.32638 4.08239 0
M  V30 1062 H 103.605 -2.06057 3.16779 0
M  V30 1063 H 103.918 -3.67586 6.7978 0
M  V30 1064 H 102.263 -3.31191 6.11013 0
M  V30 1065 H 105.454 -2.48136 3.96921 0
M  V30 1066 H 105.627 -3.21814 5.62441 0
M  V30 1067 N 99.0327 -1.24633 -0.964593 0
M  V30 1068 C 99.9957 -1.0424 -2.04124 0
M  V30 1069 C 100.996 0.00137563 -1.608 0
M  V30 1070 O 102.186 -0.239883 -1.7254 0
M  V30 1071 C 99.3177 -0.580588 -3.3592 0
M  V30 1072 H 100.511 -1.99803 -2.23649 0
M  V30 1073 H 98.0637 -1.06899 -1.14027 0
M  V30 1074 H 98.7987 0.3781 -3.22088 0
M  V30 1075 H 98.5837 -1.33398 -3.6871 0
M  V30 1076 H 100.074 -0.459034 -4.15069 0
M  V30 1077 N 100.511 1.16574 -1.06058 0
M  V30 1078 C 101.758 1.87047 -0.775873 0
M  V30 1079 C 102.086 1.81562 0.697534 0
M  V30 1080 O 101.341 1.22445 1.52662 0
M  V30 1081 C 101.64 3.36195 -1.21275 0
M  V30 1082 C 101.306 3.6188 -2.68986 0
M  V30 1083 C 99.9678 3.68599 -3.09335 0
M  V30 1084 C 102.32 3.72648 -3.64394 0
M  V30 1085 C 99.6478 3.83584 -4.43937 0
M  V30 1086 C 102 3.89154 -4.98741 0
M  V30 1087 C 100.664 3.94114 -5.3873 0
M  V30 1088 H 99.9338 0.684452 -0.283912 0
M  V30 1089 H 102.581 1.37853 -1.32925 0
M  V30 1090 H 100.886 3.87505 -0.578528 0
M  V30 1091 H 102.583 3.89103 -0.969542 0
M  V30 1092 H 99.1728 3.57281 -2.36744 0
M  V30 1093 H 103.357 3.66769 -3.34356 0
M  V30 1094 H 98.6128 3.85677 -4.74409 0
M  V30 1095 H 102.787 3.96427 -5.72554 0
M  V30 1096 H 100.414 4.05478 -6.43033 0
M  V30 1097 N 101.989 0.842826 1.3317 0
M  V30 1098 C 103.229 0.446574 1.99462 0
M  V30 1099 C 103.593 -0.976818 1.65295 0
M  V30 1100 O 104.794 -1.477 2.24584 0
M  V30 1101 C 103.065 0.665353 3.51152 0
M  V30 1102 S 104.624 0.364911 4.3728 0
M  V30 1103 H 101.442 0.167803 0.690915 0
M  V30 1104 H 104.044 1.09297 1.62094 0
M  V30 1105 H 102.748 1.7006 3.73507 0
M  V30 1106 H 102.279 0.00494568 3.934 0
M  V30 1107 H 104.294 -0.813761 4.89482 0
M  V30 1108 N 103.467 -1.45747 0.599634 0
M  V30 1109 C 104.713 -2.02592 0.0918643 0
M  V30 1110 C 105.046 -1.46806 -1.27128 0
M  V30 1111 O 104.321 -0.639658 -1.83681 0
M  V30 1112 C 104.604 -3.60073 0.0443398 0
M  V30 1113 C 104.457 -4.26208 1.43759 0
M  V30 1114 C 105.776 -4.35309 -0.647608 0
M  V30 1115 H 102.895 -0.736175 0.034857 0
M  V30 1116 H 105.537 -1.73694 0.770081 0
M  V30 1117 H 103.687 -3.84823 -0.533224 0
M  V30 1118 H 105.359 -4.12668 2.06162 0
M  V30 1119 H 103.602 -3.84916 2.00056 0
M  V30 1120 H 104.273 -5.35069 1.35665 0
M  V30 1121 H 106.749 -4.15805 -0.156776 0
M  V30 1122 H 105.625 -5.45038 -0.649942 0
M  V30 1123 H 105.886 -4.07598 -1.71219 0
M  V30 1124 N 104.945 -0.338344 -1.53925 0
M  V30 1125 C 106.222 0.314774 -1.93051 0
M  V30 1126 C 106.602 1.68669 -1.26941 0
M  V30 1127 O 105.95 2.24636 -0.418445 0
M  V30 1128 C 106.16 0.392249 -3.46789 0
M  V30 1129 C 107.508 0.645554 -4.19664 0
M  V30 1130 O 108.532 0.474575 -3.53024 0
M  V30 1131 O 107.391 0.976408 -5.37707 0
M  V30 1132 H 104.485 0.182598 -0.80659 0
M  V30 1133 H 107.031 -0.389141 -1.65178 0
M  V30 1134 H 105.803 -0.570702 -3.87116 0
M  V30 1135 H 105.426 1.14316 -3.80812 0
M  V30 1136 N 106.423 1.57458 -0.0668435 0
M  V30 1137 C 107.353 2.15468 0.899764 0
M  V30 1138 C 108.334 1.08042 1.31381 0
M  V30 1139 O 109.519 1.36054 1.38574 0
M  V30 1140 C 106.649 2.71232 2.16911 0
M  V30 1141 C 105.603 3.83781 1.89463 0
M  V30 1142 C 104.929 4.26127 3.22986 0
M  V30 1143 C 106.229 5.08238 1.20381 0
M  V30 1144 H 107.923 2.96488 0.416529 0
M  V30 1145 H 105.469 1.4262 0.198908 0
M  V30 1146 H 107.422 3.10458 2.84945 0
M  V30 1147 H 106.146 1.87426 2.67468 0
M  V30 1148 H 104.805 3.45051 1.23836 0
M  V30 1149 H 104.453 3.39249 3.71374 0
M  V30 1150 H 104.153 5.01993 3.05413 0
M  V30 1151 H 105.677 4.67966 3.92225 0
M  V30 1152 H 107.091 5.44811 1.78475 0
M  V30 1153 H 105.488 5.89349 1.13083 0
M  V30 1154 H 106.558 4.84558 0.182153 0
M  V30 1155 N 107.901 -0.206675 1.56239 0
M  V30 1156 C 108.851 -1.26 1.90021 0
M  V30 1157 C 109.835 -1.41566 0.764721 0
M  V30 1158 O 111.027 -1.44131 1.02739 0
M  V30 1159 C 108.156 -2.6073 2.23326 0
M  V30 1160 C 107.242 -2.49005 3.43304 0
M  V30 1161 N 107.633 -2.06946 4.61527 0
M  V30 1162 C 105.931 -2.79927 3.47213 0
M  V30 1163 C 106.632 -2.06832 5.43687 0
M  V30 1164 N 105.608 -2.47892 4.83788 0
M  V30 1165 H 109.41 -0.925955 2.78932 0
M  V30 1166 H 106.924 -0.415172 1.57003 0
M  V30 1167 H 108.921 -3.36798 2.45708 0
M  V30 1168 H 107.581 -2.94968 1.35735 0
M  V30 1169 H 108.592 -1.77839 4.86409 0
M  V30 1170 H 105.269 -3.18438 2.70006 0
M  V30 1171 H 106.659 -1.76312 6.48354 0
M  V30 1172 N 109.379 -1.50304 -0.473955 0
M  V30 1173 C 110.607 -1.64902 -1.24959 0
M  V30 1174 C 111.022 -0.331198 -1.85872 0
M  V30 1175 O 110.379 0.68652 -1.69095 0
M  V30 1176 C 110.43 -2.73803 -2.36038 0
M  V30 1177 O 110.151 -4.00477 -1.77624 0
M  V30 1178 C 111.652 -2.99349 -3.26964 0
M  V30 1179 H 108.872 -0.554383 -0.378022 0
M  V30 1180 H 111.416 -1.9651 -0.566054 0
M  V30 1181 H 109.571 -2.44898 -3.00173 0
M  V30 1182 H 109.985 -4.60678 -2.5075 0
M  V30 1183 H 111.459 -3.79217 -4.01121 0
M  V30 1184 H 111.936 -2.10307 -3.85574 0
M  V30 1185 H 112.542 -3.29774 -2.68569 0
M  V30 1186 N 110.857 0.726932 -1.39834 0
M  V30 1187 C 112.105 1.4837 -1.37225 0
M  V30 1188 C 112.426 1.94979 0.0284857 0
M  V30 1189 O 111.696 1.69555 0.981213 0
M  V30 1190 H 110.276 0.55043 -0.505011 0
M  V30 1191 H 112.938 0.862468 -1.74778 0
M  V30 1192 H 112.034 2.36198 -2.04003 0
M  V30 1193 N 112.336 1.25143 0.95797 0
M  V30 1194 C 113.266 1.07711 2.07173 0
M  V30 1195 C 114.247 -0.0128462 1.70095 0
M  V30 1196 O 115.432 0.156061 1.93572 0
M  V30 1197 C 112.562 0.691503 3.40346 0
M  V30 1198 C 111.516 1.73132 3.9142 0
M  V30 1199 C 110.842 1.20049 5.21049 0
M  V30 1200 C 112.142 3.1294 4.1817 0
M  V30 1201 H 113.836 2.00873 2.22014 0
M  V30 1202 H 111.382 0.967191 1.06684 0
M  V30 1203 H 113.335 0.556505 4.17709 0
M  V30 1204 H 112.059 -0.275819 3.25433 0
M  V30 1205 H 110.718 1.8547 3.16222 0
M  V30 1206 H 110.366 0.223499 5.02503 0
M  V30 1207 H 110.066 1.89545 5.56189 0
M  V30 1208 H 111.59 1.07782 6.01012 0
M  V30 1209 H 113.004 3.03775 4.86203 0
M  V30 1210 H 111.401 3.79875 4.64559 0
M  V30 1211 H 112.471 3.6025 3.24573 0
M  V30 1212 N 113.814 -1.1601 1.06675 0
M  V30 1213 C 115.039 -1.91068 0.806706 0
M  V30 1214 C 115.464 -1.77112 -0.633485 0
M  V30 1215 O 114.822 -1.09908 -1.44187 0
M  V30 1216 C 114.87 -3.39655 1.21106 0
M  V30 1217 O 113.974 -4.10893 0.352189 0
M  V30 1218 H 113.315 -0.595125 0.294486 0
M  V30 1219 H 115.845 -1.46955 1.42356 0
M  V30 1220 H 115.855 -3.90434 1.18428 0
M  V30 1221 H 114.53 -3.49132 2.26008 0
M  V30 1222 H 113.107 -3.70285 0.440868 0
M  V30 1223 N 115.292 -0.849877 -1.32721 0
M  V30 1224 C 116.202 -0.293791 -2.32753 0
M  V30 1225 C 117.218 0.585906 -1.63839 0
M  V30 1226 O 118.394 0.487413 -1.95413 0
M  V30 1227 C 115.459 0.512752 -3.42887 0
M  V30 1228 C 114.52 -0.39252 -4.27502 0
M  V30 1229 C 113.753 0.375625 -5.32377 0
M  V30 1230 O 113.976 1.60613 -5.4732 0
M  V30 1231 O 112.91 -0.256094 -6.01355 0
M  V30 1232 H 116.736 -1.12242 -2.82197 0
M  V30 1233 H 114.321 -0.612685 -1.36259 0
M  V30 1234 H 116.203 0.970704 -4.10067 0
M  V30 1235 H 114.878 1.31826 -2.95641 0
M  V30 1236 H 113.785 -0.898547 -3.63149 0
M  V30 1237 H 115.118 -1.16309 -4.7826 0
M  V30 1238 N 116.77 1.45427 -0.607355 0
M  V30 1239 C 118.017 2.02241 -0.102455 0
M  V30 1240 C 118.345 1.4758 1.26691 0
M  V30 1241 O 117.6 0.640468 1.84923 0
M  V30 1242 C 117.899 3.57398 -0.0129263 0
M  V30 1243 C 117.565 4.3121 -1.31792 0
M  V30 1244 C 116.227 4.51092 -1.67539 0
M  V30 1245 C 118.579 4.73401 -2.18039 0
M  V30 1246 C 115.907 5.10422 -2.89285 0
M  V30 1247 C 118.259 5.34078 -3.39034 0
M  V30 1248 C 116.923 5.52184 -3.75033 0
M  V30 1249 H 116.193 0.740051 -0.037491 0
M  V30 1250 H 118.84 1.74494 -0.788926 0
M  V30 1251 H 117.145 3.84421 0.756806 0
M  V30 1252 H 118.842 3.99061 0.393881 0
M  V30 1253 H 115.432 4.16047 -1.02968 0
M  V30 1254 H 119.616 4.57774 -1.91721 0
M  V30 1255 H 114.872 5.22629 -3.17283 0
M  V30 1256 H 119.046 5.65724 -4.06115 0
M  V30 1257 H 116.673 5.97925 -4.69457 0
M  V30 1258 N 118.248 0.346503 1.53744 0
M  V30 1259 C 119.473 -0.253074 2.0585 0
M  V30 1260 C 119.898 -1.43202 1.21962 0
M  V30 1261 O 119.256 -1.79783 0.234073 0
M  V30 1262 C 119.304 -0.643193 3.54817 0
M  V30 1263 O 118.408 -1.74286 3.73762 0
M  V30 1264 H 117.749 -0.0413583 0.662711 0
M  V30 1265 H 120.279 0.501574 1.98357 0
M  V30 1266 H 120.289 -0.919526 3.97503 0
M  V30 1267 H 118.964 0.218966 4.15323 0
M  V30 1268 H 117.541 -1.46356 3.42979 0
M  V30 1269 N 119.726 -1.57421 0.075193 0
M  V30 1270 C 120.972 -1.93905 -0.594025 0
M  V30 1271 C 121.305 -0.955701 -1.69056 0
M  V30 1272 O 120.58 0.0145373 -1.94495 0
M  V30 1273 C 120.863 -3.40638 -1.1678 0
M  V30 1274 C 120.716 -4.49733 -0.0776792 0
M  V30 1275 C 122.035 -3.88259 -2.07228 0
M  V30 1276 H 119.154 -0.705105 -0.214466 0
M  V30 1277 H 121.796 -1.8947 0.141854 0
M  V30 1278 H 119.946 -3.44549 -1.79494 0
M  V30 1279 H 121.618 -4.57942 0.555573 0
M  V30 1280 H 119.861 -4.29751 0.591286 0
M  V30 1281 H 120.532 -5.49549 -0.519603 0
M  V30 1282 H 123.008 -3.86376 -1.54445 0
M  V30 1283 H 121.884 -4.91533 -2.44308 0
M  V30 1284 H 122.145 -3.26396 -2.98191 0
M  V30 1285 N 121.204 0.198386 -1.56346 0
M  V30 1286 C 122.432 0.935572 -1.84539 0
M  V30 1287 C 122.847 1.76989 -0.657281 0
M  V30 1288 O 122.204 1.78626 0.374043 0
M  V30 1289 C 122.255 1.8344 -3.11499 0
M  V30 1290 O 121.976 1.03377 -4.25728 0
M  V30 1291 C 123.477 2.68355 -3.52846 0
M  V30 1292 H 120.697 0.273126 -0.612897 0
M  V30 1293 H 123.241 0.20663 -2.03453 0
M  V30 1294 H 121.396 2.51701 -2.94492 0
M  V30 1295 H 121.81 1.64599 -4.98003 0
M  V30 1296 H 123.284 3.27085 -4.44657 0
M  V30 1297 H 123.761 3.41901 -2.75681 0
M  V30 1298 H 124.367 2.05471 -3.72373 0
M  V30 1299 N 122.682 1.50554 0.465978 0
M  V30 1300 C 123.614 1.65949 1.58093 0
M  V30 1301 C 124.627 0.540827 1.53554 0
M  V30 1302 O 125.816 0.814187 1.5885 0
M  V30 1303 C 122.916 1.63261 2.96983 0
M  V30 1304 C 122.089 2.91245 3.26336 0
M  V30 1305 C 121.148 2.8113 4.44806 0
M  V30 1306 O 120.174 3.55086 4.44862 0
M  V30 1307 N 121.376 1.95032 5.46756 0
M  V30 1308 H 124.141 2.62122 1.45301 0
M  V30 1309 H 121.702 1.48082 0.65448 0
M  V30 1310 H 123.694 1.54101 3.74212 0
M  V30 1311 H 122.264 0.748032 3.03518 0
M  V30 1312 H 121.484 3.14493 2.37672 0
M  V30 1313 H 122.772 3.76022 3.42761 0
M  V30 1314 H 122.17 1.3427 5.49534 0
M  V30 1315 H 120.727 1.91772 6.2295 0
M  V30 1316 N 124.16 -0.719506 1.40217 0
M  V30 1317 C 125.576 -1.02707 1.22161 0
M  V30 1318 C 125.776 -2.0128 0.0940557 0
M  V30 1319 O 124.832 -2.46452 -0.549318 0
M  V30 1320 C 126.145 -1.57454 2.56181 0
M  V30 1321 C 127.693 -1.69458 2.63159 0
M  V30 1322 C 128.168 -2.27611 3.97438 0
M  V30 1323 N 129.659 -2.35002 3.99159 0
M  V30 1324 C 130.394 -2.80972 4.99842 0
M  V30 1325 N 129.89 -3.26723 6.10921 0
M  V30 1326 N 131.683 -2.80321 4.87213 0
M  V30 1327 H 123.834 -0.0660492 2.12297 0
M  V30 1328 H 126.097 -0.0919077 0.943534 0
M  V30 1329 H 125.803 -0.924873 3.39321 0
M  V30 1330 H 125.677 -2.56036 2.76993 0
M  V30 1331 H 128.064 -2.33543 1.80393 0
M  V30 1332 H 128.145 -0.694867 2.46181 0
M  V30 1333 H 127.789 -1.6415 4.80643 0
M  V30 1334 H 127.719 -3.2829 4.11744 0
M  V30 1335 H 130.21 -2.02685 3.18947 0
M  V30 1336 H 130.523 -3.60355 6.8364 0
M  V30 1337 H 128.868 -3.24692 6.14492 0
M  V30 1338 H 132.059 -2.43912 3.9953 0
M  V30 1339 H 132.232 -3.15831 5.65822 0
M  V30 1340 N 125.638 -1.25649 -0.95132 0
M  V30 1341 C 127.054 -1.02542 -1.223 0
M  V30 1342 C 127.254 0.255715 -1.99871 0
M  V30 1343 O 126.31 0.967558 -2.33226 0
M  V30 1344 C 127.623 -2.25065 -1.99415 0
M  V30 1345 C 129.171 -2.29861 -2.12446 0
M  V30 1346 C 129.646 -3.52048 -2.92961 0
M  V30 1347 N 131.137 -3.52465 -3.00538 0
M  V30 1348 C 131.872 -4.43672 -3.63239 0
M  V30 1349 N 131.368 -5.45157 -4.27523 0
M  V30 1350 N 133.161 -4.31346 -3.60412 0
M  V30 1351 H 125.312 -2.07951 -0.432471 0
M  V30 1352 H 127.575 -0.91339 -0.253816 0
M  V30 1353 H 127.281 -3.18194 -1.49817 0
M  V30 1354 H 127.155 -2.28502 -3.00111 0
M  V30 1355 H 129.542 -1.37252 -2.61239 0
M  V30 1356 H 129.623 -2.3044 -1.11044 0
M  V30 1357 H 129.267 -4.44981 -2.44856 0
M  V30 1358 H 129.197 -3.48715 -3.94596 0
M  V30 1359 H 131.688 -2.79056 -2.54826 0
M  V30 1360 H 132.001 -6.10958 -4.73234 0
M  V30 1361 H 130.346 -5.49025 -4.26141 0
M  V30 1362 H 133.537 -3.51288 -3.09377 0
M  V30 1363 H 133.71 -5.02624 -4.0899 0
M  V30 1364 N 127.117 1.15442 -1.07289 0
M  V30 1365 C 128.047 2.22312 -0.714107 0
M  V30 1366 C 129.028 1.67467 0.298155 0
M  V30 1367 O 130.213 1.93445 0.171048 0
M  V30 1368 C 127.343 3.47124 -0.110448 0
M  V30 1369 C 126.297 4.14926 -1.04979 0
M  V30 1370 C 125.623 5.33807 -0.308924 0
M  V30 1371 C 126.923 4.64762 -2.38314 0
M  V30 1372 H 128.617 2.5258 -1.6076 0
M  V30 1373 H 126.163 1.21404 -0.77441 0
M  V30 1374 H 128.116 4.21124 0.152482 0
M  V30 1375 H 126.84 3.16187 0.81812 0
M  V30 1376 H 125.499 3.42866 -1.29764 0
M  V30 1377 H 125.147 4.99126 0.623084 0
M  V30 1378 H 124.847 5.80113 -0.935036 0
M  V30 1379 H 126.371 6.10576 -0.0537771 0
M  V30 1380 H 127.785 5.30292 -2.1786 0
M  V30 1381 H 126.182 5.21728 -2.96514 0
M  V30 1382 H 127.252 3.80434 -3.00663 0
M  V30 1383 N 128.595 0.856903 1.32268 0
M  V30 1384 C 129.558 0.308171 2.27119 0
M  V30 1385 C 130.558 -0.533421 1.51695 0
M  V30 1386 O 131.748 -0.344607 1.70757 0
M  V30 1387 C 128.88 -0.563757 3.36206 0
M  V30 1388 H 130.073 1.14535 2.77167 0
M  V30 1389 H 127.626 0.631421 1.42978 0
M  V30 1390 H 128.361 -1.42266 2.91429 0
M  V30 1391 H 128.146 0.0386749 3.92081 0
M  V30 1392 H 129.636 -0.940386 4.06874 0
M  V30 1393 N 130.073 -1.45103 0.615059 0
M  V30 1394 C 131.023 -2.27679 -0.120966 0
M  V30 1395 C 132.007 -1.3775 -0.831491 0
M  V30 1396 O 133.199 -1.61683 -0.720249 0
M  V30 1397 C 130.328 -3.24767 -1.1127 0
M  V30 1398 C 129.414 -4.22184 -0.402627 0
M  V30 1399 N 129.805 -5.02692 0.559884 0
M  V30 1400 C 128.103 -4.4125 -0.649202 0
M  V30 1401 C 128.804 -5.73421 0.977942 0
M  V30 1402 N 127.78 -5.42657 0.320104 0
M  V30 1403 H 131.582 -2.87325 0.618181 0
M  V30 1404 H 129.096 -1.56345 0.439304 0
M  V30 1405 H 131.093 -3.82666 -1.65446 0
M  V30 1406 H 129.753 -2.66682 -1.85232 0
M  V30 1407 H 130.764 -5.09354 0.936976 0
M  V30 1408 H 127.441 -3.9428 -1.37293 0
M  V30 1409 H 128.831 -6.48107 1.77222 0
M  V30 1410 N 131.551 -0.354651 -1.53558 0
M  V30 1411 C 132.799 0.237972 -2.00694 0
M  V30 1412 C 133.12 1.50173 -1.24391 0
M  V30 1413 O 132.39 1.92673 -0.354135 0
M  V30 1414 H 130.97 0.0909256 -0.741446 0
M  V30 1415 H 133.632 -0.478368 -1.88938 0
M  V30 1416 H 132.728 0.47264 -3.085 0
M  V30 1417 N 133.029 1.57378 -0.0835403 0
M  V30 1418 C 134.275 1.95025 0.577664 0
M  V30 1419 C 134.63 0.964049 1.66505 0
M  V30 1420 O 133.923 -0.0118235 1.91596 0
M  V30 1421 C 134.117 3.37063 1.1884 0
M  V30 1422 C 133.946 4.49409 0.16171 0
M  V30 1423 C 132.716 5.04642 -0.257756 0
M  V30 1424 C 134.914 5.10722 -0.605634 0
M  V30 1425 N 132.896 6.00537 -1.27393 0
M  V30 1426 C 134.267 6.02225 -1.47395 0
M  V30 1427 C 136.322 4.93501 -0.660418 0
M  V30 1428 C 135.025 6.78355 -2.39221 0
M  V30 1429 C 137.051 5.70283 -1.56623 0
M  V30 1430 C 136.413 6.61444 -2.4222 0
M  V30 1431 H 132.512 0.760512 0.182058 0
M  V30 1432 H 135.096 1.94013 -0.163419 0
M  V30 1433 H 133.267 3.3879 1.89936 0
M  V30 1434 H 134.999 3.61917 1.81103 0
M  V30 1435 H 131.754 4.73428 0.127702 0
M  V30 1436 H 132.178 6.53184 -1.77987 0
M  V30 1437 H 136.82 4.22798 -0.0128221 0
M  V30 1438 H 134.538 7.48327 -3.05011 0
M  V30 1439 H 138.124 5.58976 -1.61361 0
M  V30 1440 H 137.004 7.1982 -3.11174 0
M  V30 1441 N 134.507 -0.190092 1.56449 0
M  V30 1442 C 135.455 -1.25501 1.95837 0
M  V30 1443 C 136.449 -1.4685 0.844485 0
M  V30 1444 O 137.655 -1.47651 1.02952 0
M  V30 1445 H 134.03 -0.421447 0.622805 0
M  V30 1446 H 136.001 -0.895821 2.84636 0
M  V30 1447 C 134.75 -2.59124 2.31841 0
M  V30 1448 H 134.073 -2.43514 3.17082 0
M  V30 1449 H 135.513 -3.32371 2.6326 0
M  V30 1450 C 133.972 -3.16488 1.15486 0
M  V30 1451 O 134.502 -3.99365 0.432535 0
M  V30 1452 N 132.708 -2.75305 0.930349 0
M  V30 1453 H 132.255 -2.08013 1.51948 0
M  V30 1454 H 132.213 -3.14024 0.153634 0
M  V30 1455 N 135.985 -1.50799 -0.457987 0
M  V30 1456 C 136.895 -1.73426 -1.57989 0
M  V30 1457 C 137.911 -0.617745 -1.62665 0
M  V30 1458 O 139.087 -0.897614 -1.80291 0
M  V30 1459 C 136.152 -1.83557 -2.94122 0
M  V30 1460 C 135.213 -3.07345 -2.99729 0
M  V30 1461 C 134.446 -3.16983 -4.29368 0
M  V30 1462 O 134.669 -2.33077 -5.20607 0
M  V30 1463 O 133.603 -4.09812 -4.40837 0
M  V30 1464 H 137.429 -2.68555 -1.41817 0
M  V30 1465 H 135.014 -1.35052 -0.638859 0
M  V30 1466 H 136.896 -1.92326 -3.74952 0
M  V30 1467 H 135.571 -0.916137 -3.10465 0
M  V30 1468 H 134.478 -3.04068 -2.1793 0
M  V30 1469 H 135.811 -3.9891 -2.88326 0
M  V30 1470 N 137.463 0.71206 -1.40597 0
M  V30 1471 C 138.71 1.47197 -1.39065 0
M  V30 1472 C 139.038 1.94499 0.00583891 0
M  V30 1473 O 138.293 1.68752 0.99102 0
M  V30 1474 C 138.592 2.71039 -2.32965 0
M  V30 1475 C 138.258 2.42484 -3.80148 0
M  V30 1476 C 136.92 2.34406 -4.20247 0
M  V30 1477 C 139.272 2.18598 -4.73143 0
M  V30 1478 C 136.6 2.00516 -5.51371 0
M  V30 1479 C 138.952 1.8622 -6.0457 0
M  V30 1480 C 137.616 1.76626 -6.43708 0
M  V30 1481 H 136.886 0.538634 -0.508876 0
M  V30 1482 H 139.533 0.815325 -1.73276 0
M  V30 1483 H 137.838 3.41558 -1.91951 0
M  V30 1484 H 139.535 3.29138 -2.29061 0
M  V30 1485 H 136.125 2.49659 -3.4838 0
M  V30 1486 H 140.309 2.23793 -4.42979 0
M  V30 1487 H 135.565 1.91628 -5.80593 0
M  V30 1488 H 139.739 1.66752 -6.76141 0
M  V30 1489 H 137.366 1.50133 -7.45228 0
M  V30 1490 N 138.941 1.26152 0.944643 0
M  V30 1491 C 140.187 1.11657 1.69294 0
M  V30 1492 C 140.52 -0.339926 1.91202 0
M  V30 1493 O 139.795 -1.24994 1.49019 0
M  V30 1494 C 140.078 1.88236 3.06984 0
M  V30 1495 C 139.931 3.41772 2.92424 0
M  V30 1496 C 141.25 1.67343 4.07043 0
M  V30 1497 H 138.369 0.407004 0.614424 0
M  V30 1498 H 141.011 1.55106 1.09737 0
M  V30 1499 H 139.161 1.51308 3.57824 0
M  V30 1500 H 140.833 3.88433 2.48832 0
M  V30 1501 H 139.076 3.68974 2.28124 0
M  V30 1502 H 139.747 3.90579 3.90067 0
M  V30 1503 H 142.223 1.99509 3.65151 0
M  V30 1504 H 141.099 2.23346 5.01406 0
M  V30 1505 H 141.36 0.617158 4.37771 0
M  V30 1506 N 140.419 -1.14872 1.07899 0
M  V30 1507 C 141.382 -2.17986 0.708161 0
M  V30 1508 C 142.382 -1.58775 -0.25442 0
M  V30 1509 O 143.572 -1.74166 -0.034645 0
M  V30 1510 C 140.704 -3.40871 0.0446929 0
M  V30 1511 H 141.897 -2.52306 1.62116 0
M  V30 1512 H 139.45 -1.2943 0.876218 0
M  V30 1513 H 140.185 -3.12124 -0.880281 0
M  V30 1514 H 139.97 -3.8511 0.737091 0
M  V30 1515 H 141.46 -4.17121 -0.19991 0
M  V30 1516 N 141.898 -0.863906 -1.31812 0
M  V30 1517 C 143.175 -0.39275 -1.91616 0
M  V30 1518 C 143.555 1.12461 -1.7865 0
M  V30 1519 O 142.903 1.95045 -1.19037 0
M  V30 1520 C 143.113 -0.867385 -3.38049 0
M  V30 1521 C 144.461 -0.889966 -4.15168 0
M  V30 1522 O 145.485 -0.812635 -3.46806 0
M  V30 1523 O 144.344 -1.00079 -5.37258 0
M  V30 1524 H 141.438 -0.116358 -0.818773 0
M  V30 1525 H 143.984 -0.951418 -1.40521 0
M  V30 1526 H 142.756 -1.91081 -3.41473 0
M  V30 1527 H 142.379 -0.286687 -3.96565 0
M  V30 1528 N 143.376 1.44774 -0.622745 0
M  V30 1529 C 144.324 2.32387 0.0994683 0
M  V30 1530 C 145.318 1.46859 0.844326 0
M  V30 1531 O 146.524 1.63254 0.758174 0
M  V30 1532 H 142.899 0.750273 0.0509291 0
M  V30 1533 H 144.87 2.91062 -0.65767 0
M  V30 1534 C 143.619 3.30723 1.07319 0
M  V30 1535 H 142.942 3.96541 0.509462 0
M  V30 1536 H 144.382 3.94725 1.54817 0
M  V30 1537 C 142.841 2.59021 2.15429 0
M  V30 1538 O 143.371 2.38286 3.23393 0
M  V30 1539 N 141.577 2.189 1.91131 0
M  V30 1540 H 141.124 2.35964 1.03337 0
M  V30 1541 H 141.082 1.71251 2.63668 0
M  V30 1542 N 144.854 0.36279 1.53368 0
M  V30 1543 C 146.079 -0.231226 2.06107 0
M  V30 1544 C 146.504 -1.419 1.23474 0
M  V30 1545 O 145.862 -1.79524 0.253128 0
M  V30 1546 C 145.91 -0.605523 3.5548 0
M  V30 1547 O 145.014 -1.70312 3.7559 0
M  V30 1548 H 144.355 -0.034327 0.663112 0
M  V30 1549 H 146.885 0.522584 1.97814 0
M  V30 1550 H 146.895 -0.877314 3.98456 0
M  V30 1551 H 145.57 0.263004 4.15068 0
M  V30 1552 H 144.147 -1.4271 3.44512 0
M  V30 1553 N 146.332 -1.57332 0.0918853 0
M  V30 1554 C 147.242 -2.17368 -0.882505 0
M  V30 1555 C 148.258 -1.14226 -1.31257 0
M  V30 1556 O 149.434 -1.46582 -1.38115 0
M  V30 1557 C 146.499 -2.73962 -2.12476 0
M  V30 1558 C 145.56 -3.92048 -1.7492 0
M  V30 1559 C 144.793 -4.45933 -2.93223 0
M  V30 1560 O 145.016 -3.98764 -4.07852 0
M  V30 1561 O 143.95 -5.36999 -2.71875 0
M  V30 1562 H 147.776 -3.01031 -0.40172 0
M  V30 1563 H 145.361 -1.48813 -0.132291 0
M  V30 1564 H 147.243 -3.10147 -2.85283 0
M  V30 1565 H 145.918 -1.93347 -2.59613 0
M  V30 1566 H 144.825 -3.6068 -0.993025 0
M  V30 1567 H 146.158 -4.74017 -1.32548 0
M  V30 1568 N 147.81 0.181792 -1.56548 0
M  V30 1569 C 149.221 0.745244 -1.71181 0
M  V30 1570 C 149.572 1.83262 -0.70068 0
M  V30 1571 O 148.697 2.15946 0.140154 0
M  V30 1572 C 149.292 1.35859 -3.10367 0
M  V30 1573 C 147.851 1.86898 -3.2672 0
M  V30 1574 C 146.998 0.743942 -2.67134 0
M  V30 1575 H 149.949 -0.0434661 -1.5864 0
M  V30 1576 H 149.97 2.22817 -3.08436 0
M  V30 1577 H 149.482 0.566948 -3.83937 0
M  V30 1578 H 147.583 2.68738 -2.5809 0
M  V30 1579 H 147.696 2.02162 -4.34359 0
M  V30 1580 H 146.06 1.16169 -2.26665 0
M  V30 1581 H 146.843 -0.035676 -3.43281 0
M  V30 1582 N 149.288 1.51039 0.449983 0
M  V30 1583 C 150.534 1.63322 1.20223 0
M  V30 1584 C 150.867 0.34241 1.91158 0
M  V30 1585 O 150.142 -0.657344 1.83055 0
M  V30 1586 C 150.425 2.82801 2.22925 0
M  V30 1587 C 150.278 4.21823 1.56157 0
M  V30 1588 C 151.597 2.97807 3.24035 0
M  V30 1589 H 148.716 0.594407 0.435718 0
M  V30 1590 H 151.358 1.83489 0.493136 0
M  V30 1591 H 149.508 2.65738 2.834 0
M  V30 1592 H 151.18 4.50526 0.991162 0
M  V30 1593 H 149.423 4.25105 0.864172 0
M  V30 1594 H 150.094 5.01391 2.30891 0
M  V30 1595 H 152.57 3.13497 2.73603 0
M  V30 1596 H 151.446 3.82992 3.93202 0
M  V30 1597 H 151.707 2.09328 3.89402 0
M  V30 1598 N 150.766 -0.704594 1.40972 0
M  V30 1599 C 152.012 -1.46546 1.41053 0
M  V30 1600 C 152.367 -1.92393 0.0159714 0
M  V30 1601 O 151.66 -1.66017 -0.956506 0
M  V30 1602 C 151.854 -2.698 2.34399 0
M  V30 1603 C 151.683 -2.36008 3.82793 0
M  V30 1604 C 150.453 -2.26812 4.51536 0
M  V30 1605 C 152.651 -1.99565 4.74003 0
M  V30 1606 N 150.633 -1.8581 5.85105 0
M  V30 1607 C 152.004 -1.69251 5.96451 0
M  V30 1608 C 154.059 -1.86296 4.61734 0
M  V30 1609 C 152.762 -1.27003 7.07999 0
M  V30 1610 C 154.788 -1.45452 5.73234 0
M  V30 1611 C 154.15 -1.16043 6.94776 0
M  V30 1612 H 150.249 -0.533896 0.571383 0
M  V30 1613 H 152.833 -0.816061 1.76773 0
M  V30 1614 H 151.004 -3.32473 2.00789 0
M  V30 1615 H 152.736 -3.36214 2.25261 0
M  V30 1616 H 149.491 -2.44913 4.05357 0
M  V30 1617 H 149.915 -1.67817 6.55871 0
M  V30 1618 H 154.557 -2.0769 3.68273 0
M  V30 1619 H 152.275 -1.04353 8.01334 0
M  V30 1620 H 155.861 -1.35748 5.65742 0
M  V30 1621 H 154.741 -0.84915 7.79589 0
M  V30 1622 N 152.244 -1.26651 -0.937939 0
M  V30 1623 C 153.191 -1.0849 -2.03712 0
M  V30 1624 C 154.161 0.011033 -1.66096 0
M  V30 1625 O 155.346 -0.149353 -1.90215 0
M  V30 1626 C 152.486 -0.72735 -3.37348 0
M  V30 1627 C 151.599 -1.89986 -3.87981 0
M  V30 1628 C 150.734 -1.48513 -5.10017 0
M  V30 1629 C 149.773 -2.62575 -5.5292 0
M  V30 1630 N 148.91 -2.21762 -6.66158 0
M  V30 1631 H 153.75 -2.02551 -2.18579 0
M  V30 1632 H 151.287 -1.00844 -1.07093 0
M  V30 1633 H 153.245 -0.50092 -4.14182 0
M  V30 1634 H 151.875 0.176298 -3.22318 0
M  V30 1635 H 150.927 -2.23913 -3.07518 0
M  V30 1636 H 152.239 -2.75586 -4.15757 0
M  V30 1637 H 151.393 -1.21934 -5.94321 0
M  V30 1638 H 150.132 -0.60009 -4.83994 0
M  V30 1639 H 149.137 -2.8988 -4.67172 0
M  V30 1640 H 150.362 -3.51685 -5.80943 0
M  V30 1641 H 148.308 -1.35696 -6.41812 0
M  V30 1642 H 148.225 -3.00903 -6.93537 0
M  V30 1643 H 149.493 -1.98403 -7.53828 0
M  V30 1644 N 153.722 1.14298 -1.08507 0
M  V30 1645 C 154.669 2.19414 -0.715965 0
M  V30 1646 C 155.639 1.63399 0.298326 0
M  V30 1647 O 156.824 1.89929 0.182101 0
M  V30 1648 C 153.964 3.44845 -0.132534 0
M  V30 1649 C 153.077 4.15007 -1.19973 0
M  V30 1650 C 152.212 5.28024 -0.580048 0
M  V30 1651 C 151.251 5.9002 -1.62921 0
M  V30 1652 N 150.388 6.94485 -1.03125 0
M  V30 1653 H 155.228 2.50336 -1.61666 0
M  V30 1654 H 152.765 1.2293 -0.807882 0
M  V30 1655 H 154.723 4.16601 0.223454 0
M  V30 1656 H 153.353 3.14403 0.731467 0
M  V30 1657 H 152.405 3.41629 -1.67313 0
M  V30 1658 H 153.717 4.57178 -1.99473 0
M  V30 1659 H 152.871 6.06455 -0.172364 0
M  V30 1660 H 151.61 4.87076 0.246603 0
M  V30 1661 H 150.615 5.10291 -2.04654 0
M  V30 1662 H 151.84 6.33042 -2.45835 0
M  V30 1663 H 149.786 6.55612 -0.225711 0
M  V30 1664 H 149.703 7.35148 -1.76334 0
M  V30 1665 H 150.971 7.7679 -0.649458 0
M  V30 1666 N 155.201 0.870884 1.31352 0
M  V30 1667 C 156.431 0.496049 2.00557 0
M  V30 1668 C 156.839 -0.916241 1.65534 0
M  V30 1669 O 156.182 -1.61188 0.881134 0
M  V30 1670 C 156.244 0.574418 3.54881 0
M  V30 1671 C 155.908 1.94849 4.1338 0
M  V30 1672 C 156.905 2.91611 4.30417 0
M  V30 1673 C 154.59 2.25005 4.49086 0
M  V30 1674 C 156.584 4.16672 4.82352 0
M  V30 1675 C 154.271 3.50315 5.00722 0
M  V30 1676 C 155.269 4.45964 5.17306 0
M  V30 1677 O 154.957 5.69052 5.67833 0
M  V30 1678 H 154.689 0.191664 0.64826 0
M  V30 1679 H 157.243 1.17409 1.68536 0
M  V30 1680 H 155.473 -0.160549 3.86367 0
M  V30 1681 H 157.162 0.212879 4.05341 0
M  V30 1682 H 157.928 2.69622 4.03149 0
M  V30 1683 H 153.807 1.51332 4.35453 0
M  V30 1684 H 157.351 4.91336 4.95211 0
M  V30 1685 H 153.248 3.72147 5.27424 0
M  V30 1686 H 154.016 5.71236 5.86201 0
M  V30 1687 N 156.679 -1.44442 0.630414 0
M  V30 1688 C 157.609 -2.33418 -0.0618083 0
M  V30 1689 C 158.59 -1.48165 -0.835541 0
M  V30 1690 O 159.775 -1.76886 -0.801564 0
M  V30 1691 C 156.905 -3.31222 -1.04449 0
M  V30 1692 C 155.859 -4.26288 -0.382436 0
M  V30 1693 C 155.185 -5.13954 -1.47497 0
M  V30 1694 C 156.485 -5.1744 0.710865 0
M  V30 1695 H 158.179 -2.91548 0.681184 0
M  V30 1696 H 155.725 -1.40191 0.329026 0
M  V30 1697 H 157.678 -3.92351 -1.53748 0
M  V30 1698 H 156.402 -2.71299 -1.81836 0
M  V30 1699 H 155.061 -3.6649 0.0899054 0
M  V30 1700 H 154.709 -4.50385 -2.2397 0
M  V30 1701 H 154.409 -5.7837 -1.03737 0
M  V30 1702 H 155.933 -5.77955 -1.96979 0
M  V30 1703 H 157.347 -5.72509 0.300996 0
M  V30 1704 H 155.744 -5.90455 1.07156 0
M  V30 1705 H 156.814 -4.58496 1.57829 0
M  V30 1706 N 158.157 -0.370918 -1.53173 0
M  V30 1707 C 159.434 0.273754 -1.93675 0
M  V30 1708 C 159.814 1.65938 -1.3049 0
M  V30 1709 O 159.162 2.23698 -0.465999 0
M  V30 1710 C 159.372 0.318602 -3.47543 0
M  V30 1711 C 160.72 0.556392 -4.20939 0
M  V30 1712 O 161.744 0.399587 -3.53952 0
M  V30 1713 O 160.603 0.862133 -5.39657 0
M  V30 1714 H 157.697 0.165448 -0.810281 0
M  V30 1715 H 160.243 -0.42409 -1.64315 0
M  V30 1716 H 159.015 -0.652687 -3.85818 0
M  V30 1717 H 158.638 1.06212 -3.83151 0
M  V30 1718 N 159.635 1.57281 -0.100228 0
M  V30 1719 C 160.567 2.11342 0.886972 0
M  V30 1720 C 161.58 1.05182 1.24261 0
M  V30 1721 O 162.769 1.32613 1.19483 0
M  V30 1722 C 159.869 2.5825 2.19454 0
M  V30 1723 C 159.042 3.88302 2.01346 0
M  V30 1724 C 158.101 4.21004 3.15661 0
M  V30 1725 O 157.127 4.9014 2.89398 0
M  V30 1726 N 158.329 3.76818 4.41575 0
M  V30 1727 H 161.094 2.96668 0.425216 0
M  V30 1728 H 158.655 1.61678 0.0847334 0
M  V30 1729 H 160.647 2.7717 2.94888 0
M  V30 1730 H 159.217 1.77907 2.57037 0
M  V30 1731 H 158.437 3.7848 1.10212 0
M  V30 1732 H 159.725 4.73375 1.8653 0
M  V30 1733 H 159.123 3.2102 4.65792 0
M  V30 1734 H 157.68 4.00882 5.13942 0
M  V30 1735 N 161.113 -0.173488 1.56642 0
M  V30 1736 C 162.36 -0.890465 1.81871 0
M  V30 1737 C 162.688 -1.82339 0.67696 0
M  V30 1738 O 161.943 -1.92795 -0.335926 0
M  V30 1739 C 162.242 -1.72069 3.13252 0
M  V30 1740 C 161.908 -0.936878 4.41059 0
M  V30 1741 C 160.57 -0.720545 4.75775 0
M  V30 1742 C 162.922 -0.386919 5.19762 0
M  V30 1743 C 160.25 0.0568829 5.86672 0
M  V30 1744 C 162.602 0.37741 6.31473 0
M  V30 1745 C 161.266 0.604563 6.64757 0
M  V30 1746 H 160.536 -0.325844 0.665512 0
M  V30 1747 H 163.183 -0.155527 1.90867 0
M  V30 1748 H 161.488 -2.52496 2.99588 0
M  V30 1749 H 163.185 -2.27844 3.29982 0
M  V30 1750 H 159.775 -1.11553 4.13828 0
M  V30 1751 H 163.959 -0.541398 4.93338 0
M  V30 1752 H 159.215 0.242635 6.10918 0
M  V30 1753 H 163.389 0.810825 6.91664 0
M  V30 1754 H 161.016 1.20885 7.50527 0
M  V30 1755 N 162.591 -1.51276 -0.441967 0
M  V30 1756 C 163.538 -1.72256 -1.53612 0
M  V30 1757 C 164.508 -0.564164 -1.56225 0
M  V30 1758 O 165.693 -0.798074 -1.73307 0
M  V30 1759 C 162.833 -1.84932 -2.91366 0
M  V30 1760 C 161.946 -3.12459 -2.98317 0
M  V30 1761 C 161.081 -3.15758 -4.27166 0
M  V30 1762 C 160.12 -4.37619 -4.27967 0
M  V30 1763 N 159.257 -4.38493 -5.48333 0
M  V30 1764 H 164.097 -2.65654 -1.35026 0
M  V30 1765 H 161.634 -1.31662 -0.656009 0
M  V30 1766 H 163.592 -1.90263 -3.7129 0
M  V30 1767 H 162.222 -0.949461 -3.08521 0
M  V30 1768 H 161.274 -3.1646 -2.11086 0
M  V30 1769 H 162.586 -4.02382 -2.94771 0
M  V30 1770 H 161.74 -3.19979 -5.15459 0
M  V30 1771 H 160.479 -2.23715 -4.33362 0
M  V30 1772 H 159.484 -4.33579 -3.38067 0
M  V30 1773 H 160.709 -5.30921 -4.23438 0
M  V30 1774 H 158.655 -3.49318 -5.55259 0
M  V30 1775 H 158.572 -5.22219 -5.46647 0
M  V30 1776 H 159.84 -4.469 -6.38671 0
M  V30 1777 N 164.069 0.697108 -1.41344 0
M  V30 1778 C 165.017 1.83237 -1.43272 0
M  V30 1779 C 166.011 1.66522 -0.310947 0
M  V30 1780 O 167.217 1.73402 -0.482899 0
M  V30 1781 H 163.592 0.603802 -0.448249 0
M  V30 1782 H 165.563 1.78727 -2.38954 0
M  V30 1783 C 164.312 3.21245 -1.33029 0
M  V30 1784 H 163.635 3.34723 -2.18633 0
M  V30 1785 H 165.075 4.00763 -1.38439 0
M  V30 1786 C 163.534 3.36873 -0.0424635 0
M  V30 1787 O 164.064 3.91177 0.913421 0
M  V30 1788 N 162.27 2.90581 0.0331145 0
M  V30 1789 H 161.817 2.46577 -0.745506 0
M  V30 1790 H 161.775 3.01416 0.894199 0
M  V30 1791 N 165.547 1.27147 0.931209 0
M  V30 1792 C 166.958 1.12044 1.49342 0
M  V30 1793 C 167.309 -0.295795 1.93957 0
M  V30 1794 O 166.434 -1.18835 1.80852 0
M  V30 1795 C 167.029 2.02781 2.71414 0
M  V30 1796 C 165.588 1.91794 3.2387 0
M  V30 1797 C 164.735 1.95543 1.96617 0
M  V30 1798 H 167.686 1.40091 0.745672 0
M  V30 1799 H 167.707 1.58156 3.46074 0
M  V30 1800 H 167.219 3.05848 2.38911 0
M  V30 1801 H 165.32 0.916992 3.6114 0
M  V30 1802 H 165.433 2.77852 3.90302 0
M  V30 1803 H 163.797 1.39722 2.12955 0
M  V30 1804 H 164.58 3.00259 1.66432 0
M  V30 1805 N 167.025 -1.13721 1.09112 0
M  V30 1806 C 167.955 -2.21148 0.749385 0
M  V30 1807 C 168.936 -1.6792 -0.271475 0
M  V30 1808 O 170.121 -1.93693 -0.140251 0
M  V30 1809 C 167.251 -3.46905 0.165659 0
M  V30 1810 C 166.205 -4.13203 1.11567 0
M  V30 1811 C 165.531 -5.33248 0.393809 0
M  V30 1812 C 166.831 -4.60912 2.45678 0
M  V30 1813 H 168.525 -2.4999 1.64758 0
M  V30 1814 H 166.071 -1.20156 0.793626 0
M  V30 1815 H 168.024 -4.21313 -0.085466 0
M  V30 1816 H 166.748 -3.17449 -0.767714 0
M  V30 1817 H 165.407 -3.40758 1.35202 0
M  V30 1818 H 165.055 -5.00054 -0.543599 0
M  V30 1819 H 164.755 -5.78552 1.02721 0
M  V30 1820 H 166.279 -6.10413 0.150908 0
M  V30 1821 H 167.693 -5.26759 2.26269 0
M  V30 1822 H 166.09 -5.16944 3.04776 0
M  V30 1823 H 167.16 -3.75603 3.06677 0
M  V30 1824 N 168.503 -0.877838 -1.30888 0
M  V30 1825 C 169.752 -0.488793 -1.95688 0
M  V30 1826 C 170.065 0.965485 -1.70111 0
M  V30 1827 O 171.271 1.46104 -2.28836 0
M  V30 1828 C 169.727 -0.823201 -3.50359 0
M  V30 1829 C 169.335 -2.29477 -3.84765 0
M  V30 1830 C 171.079 -0.503009 -4.21509 0
M  V30 1831 C 168.986 -2.57118 -5.32583 0
M  V30 1832 H 167.916 -0.179062 -0.732429 0
M  V30 1833 H 170.567 -1.07183 -1.48943 0
M  V30 1834 H 168.949 -0.169331 -3.95638 0
M  V30 1835 H 170.123 -2.99236 -3.5042 0
M  V30 1836 H 168.438 -2.58178 -3.267 0
M  V30 1837 H 171.035 -0.68665 -5.30273 0
M  V30 1838 H 171.378 0.557109 -4.12555 0
M  V30 1839 H 171.911 -1.11376 -3.8189 0
M  V30 1840 H 168.65 -3.61843 -5.4658 0
M  V30 1841 H 168.17 -1.91961 -5.68253 0
M  V30 1842 H 169.849 -2.42251 -5.99936 0
M  V30 1843 N 169.982 1.44106 -0.638065 0
M  V30 1844 C 170.912 2.33448 0.0494287 0
M  V30 1845 C 171.893 1.48606 0.827672 0
M  V30 1846 O 173.078 1.77308 0.792173 0
M  V30 1847 C 170.208 3.31771 1.02691 0
M  V30 1848 C 169.162 4.26485 0.359823 0
M  V30 1849 C 168.488 5.14729 1.44769 0
M  V30 1850 C 169.788 5.17056 -0.738296 0
M  V30 1851 H 171.482 2.91183 -0.696636 0
M  V30 1852 H 169.028 1.40014 -0.336456 0
M  V30 1853 H 170.981 3.93161 1.51666 0
M  V30 1854 H 169.705 2.7226 1.80395 0
M  V30 1855 H 168.364 3.66437 -0.10934 0
M  V30 1856 H 168.012 4.51566 2.21578 0
M  V30 1857 H 167.712 5.78913 1.00668 0
M  V30 1858 H 169.236 5.78991 1.93911 0
M  V30 1859 H 170.65 5.72342 -0.331354 0
M  V30 1860 H 169.047 5.89879 -1.10286 0
M  V30 1861 H 170.117 4.57652 -1.60258 0
M  V30 1862 N 171.46 0.379036 1.52974 0
M  V30 1863 C 172.39 -0.452706 2.29069 0
M  V30 1864 C 173.371 -1.07237 1.32039 0
M  V30 1865 O 174.556 -1.08708 1.60923 0
M  V30 1866 C 171.686 -1.5856 3.08992 0
M  V30 1867 C 170.64 -1.0925 4.13822 0
M  V30 1868 C 169.966 -2.31668 4.81907 0
M  V30 1869 C 171.266 -0.167702 5.22031 0
M  V30 1870 H 172.96 0.182181 2.98845 0
M  V30 1871 H 170.506 0.0890592 1.43724 0
M  V30 1872 H 172.459 -2.1742 3.6098 0
M  V30 1873 H 171.183 -2.24792 2.36931 0
M  V30 1874 H 169.842 -0.526494 3.628 0
M  V30 1875 H 169.49 -2.96386 4.06404 0
M  V30 1876 H 169.19 -1.9934 5.52754 0
M  V30 1877 H 170.714 -2.91189 5.36695 0
M  V30 1878 H 172.128 -0.664186 5.6944 0
M  V30 1879 H 170.525 0.0653265 6.00064 0
M  V30 1880 H 171.595 0.786347 4.78482 0
M  V30 1881 N 172.938 -1.57226 0.108567 0
M  V30 1882 C 173.868 -2.17778 -0.84232 0
M  V30 1883 C 174.849 -1.11487 -1.2847 0
M  V30 1884 O 176.034 -1.39681 -1.34918 0
M  V30 1885 C 173.164 -2.76888 -2.09644 0
M  V30 1886 C 172.118 -3.88669 -1.79221 0
M  V30 1887 C 171.444 -4.34541 -3.11574 0
M  V30 1888 C 172.744 -5.11251 -1.06864 0
M  V30 1889 H 174.438 -2.97489 -0.337774 0
M  V30 1890 H 171.984 -1.43097 -0.161025 0
M  V30 1891 H 173.937 -3.17904 -2.76614 0
M  V30 1892 H 172.661 -1.94451 -2.62405 0
M  V30 1893 H 171.32 -3.48213 -1.14644 0
M  V30 1894 H 170.968 -3.48977 -3.62249 0
M  V30 1895 H 170.668 -5.09914 -2.91996 0
M  V30 1896 H 172.192 -4.782 -3.7968 0
M  V30 1897 H 173.606 -5.49352 -1.63968 0
M  V30 1898 H 172.003 -5.9214 -0.974178 0
M  V30 1899 H 173.073 -4.8487 -0.0536168 0
M  V30 1900 N 174.416 0.165178 -1.56732 0
M  V30 1901 C 175.346 1.20651 -1.99914 0
M  V30 1902 C 176.327 1.45827 -0.875705 0
M  V30 1903 O 177.512 1.57057 -1.14223 0
M  V30 1904 C 174.642 2.54401 -2.36427 0
M  V30 1905 C 173.596 2.43782 -3.51787 0
M  V30 1906 C 172.922 3.82078 -3.7406 0
M  V30 1907 C 174.222 1.93732 -4.85041 0
M  V30 1908 H 175.916 0.847534 -2.87154 0
M  V30 1909 H 173.462 0.40625 -1.38151 0
M  V30 1910 H 175.415 3.27458 -2.65234 0
M  V30 1911 H 174.139 2.92098 -1.46103 0
M  V30 1912 H 172.798 1.73178 -3.23117 0
M  V30 1913 H 172.446 4.17179 -2.81017 0
M  V30 1914 H 172.146 3.7584 -4.51684 0
M  V30 1915 H 173.67 4.56712 -4.05274 0
M  V30 1916 H 175.084 2.56569 -5.12684 0
M  V30 1917 H 173.481 1.98428 -5.66345 0
M  V30 1918 H 174.551 0.891962 -4.76626 0
M  V30 1919 N 175.894 1.51508 0.433938 0
M  V30 1920 C 177.142 1.6402 1.18075 0
M  V30 1921 C 177.463 0.360328 1.91642 0
M  V30 1922 O 176.733 -0.623945 1.85698 0
M  V30 1923 H 175.313 0.6045 0.43885 0
M  V30 1924 H 177.975 1.88452 0.497178 0
M  V30 1925 H 177.071 2.46949 1.90847 0
M  V30 1926 N 177.372 -0.689602 1.41712 0
M  V30 1927 C 178.597 -1.48329 1.44959 0
M  V30 1928 C 179.022 -1.8801 0.0581283 0
M  V30 1929 O 178.38 -1.55026 -0.940035 0
M  V30 1930 C 178.428 -2.71835 2.36935 0
M  V30 1931 O 177.532 -3.69549 1.8305 0
M  V30 1932 H 176.873 -0.446199 0.491734 0
M  V30 1933 H 179.403 -0.847127 1.86239 0
M  V30 1934 H 179.413 -3.20076 2.53013 0
M  V30 1935 H 178.088 -2.42291 3.38035 0
M  V30 1936 H 176.665 -3.2851 1.76452 0
M  V30 1937 N 178.85 -1.27639 -0.924453 0
M  V30 1938 C 179.813 -1.10681 -2.00705 0
M  V30 1939 C 180.813 -0.0497823 -1.60723 0
M  V30 1940 O 182.003 -0.294654 -1.7169 0
M  V30 1941 C 179.135 -0.687164 -3.33902 0
M  V30 1942 H 180.328 -2.06817 -2.17179 0
M  V30 1943 H 177.881 -1.10473 -1.10569 0
M  V30 1944 H 178.616 0.275439 -3.23128 0
M  V30 1945 H 178.401 -1.45061 -3.6428 0
M  V30 1946 H 179.891 -0.590853 -4.13399 0
M  V30 1947 N 180.328 1.1314 -1.09713 0
M  V30 1948 C 181.258 2.20748 -0.761102 0
M  V30 1949 C 182.239 1.68061 0.262566 0
M  V30 1950 O 183.424 1.93765 0.129977 0
M  V30 1951 C 180.554 3.46812 -0.184054 0
M  V30 1952 C 179.508 4.12606 -1.13757 0
M  V30 1953 C 178.834 5.33031 -0.422083 0
M  V30 1954 C 180.134 4.59603 -2.48118 0
M  V30 1955 H 181.828 2.49113 -1.66082 0
M  V30 1956 H 179.374 1.19734 -0.799987 0
M  V30 1957 H 181.327 4.21353 0.0631215 0
M  V30 1958 H 180.051 3.17851 0.750868 0
M  V30 1959 H 178.71 3.40036 -1.37007 0
M  V30 1960 H 178.358 5.00335 0.517072 0
M  V30 1961 H 178.058 5.77999 -1.05788 0
M  V30 1962 H 179.582 6.10325 -0.183277 0
M  V30 1963 H 180.996 5.25552 -2.29059 0
M  V30 1964 H 179.393 5.15321 -3.07514 0
M  V30 1965 H 180.463 3.73971 -3.08665 0
M  V30 1966 N 181.806 0.884767 1.30421 0
M  V30 1967 C 183.052 0.503851 1.96441 0
M  V30 1968 C 183.385 -0.944518 1.69684 0
M  V30 1969 O 182.66 -1.66737 1.00145 0
M  V30 1970 C 182.943 0.779085 3.51571 0
M  V30 1971 C 182.796 2.27807 3.87846 0
M  V30 1972 C 184.115 0.255452 4.39358 0
M  V30 1973 H 181.234 0.184533 0.713524 0
M  V30 1974 H 183.876 1.10872 1.54297 0
M  V30 1975 H 182.026 0.264274 3.876 0
M  V30 1976 H 183.698 2.86127 3.61841 0
M  V30 1977 H 181.941 2.74479 3.35922 0
M  V30 1978 H 182.612 2.42125 4.96064 0
M  V30 1979 H 185.088 0.696079 4.10236 0
M  V30 1980 H 183.964 0.477361 5.4682 0
M  V30 1981 H 184.225 -0.843293 4.33983 0
M  V30 1982 N 183.284 -1.43765 0.645699 0
M  V30 1983 C 184.509 -2.06767 0.161883 0
M  V30 1984 C 184.934 -1.48034 -1.16049 0
M  V30 1985 O 184.292 -0.587369 -1.71522 0
M  V30 1986 C 184.34 -3.60519 0.0762003 0
M  V30 1987 O 183.444 -4.00982 -0.963721 0
M  V30 1988 H 182.785 -0.657675 0.091429 0
M  V30 1989 H 185.315 -1.84397 0.886499 0
M  V30 1990 H 185.325 -4.07853 -0.109604 0
M  V30 1991 H 184 -4.02646 1.04157 0
M  V30 1992 H 182.577 -3.65253 -0.751312 0
M  V30 1993 N 184.763 -0.387143 -1.52771 0
M  V30 1994 C 186.009 0.196025 -2.0185 0
M  V30 1995 C 186.342 1.46641 -1.27319 0
M  V30 1996 O 185.617 1.90889 -0.373032 0
M  V30 1997 C 185.9 0.466136 -3.5707 0
M  V30 1998 C 185.753 -0.819385 -4.42274 0
M  V30 1999 C 187.072 1.25768 -4.21747 0
M  V30 2000 H 184.191 0.0697708 -0.73369 0
M  V30 2001 H 186.833 -0.516286 -1.82851 0
M  V30 2002 H 184.983 1.07293 -3.7339 0
M  V30 2003 H 186.655 -1.4563 -4.37709 0
M  V30 2004 H 184.898 -1.43517 -4.09372 0
M  V30 2005 H 185.569 -0.585065 -5.48891 0
M  V30 2006 H 188.045 0.744167 -4.09391 0
M  V30 2007 H 186.921 1.41541 -5.30337 0
M  V30 2008 H 187.182 2.27228 -3.79236 0
M  V30 2009 N 186.241 1.57166 -0.116904 0
M  V30 2010 C 187.171 2.18222 0.830759 0
M  V30 2011 C 188.152 1.12167 1.27877 0
M  V30 2012 O 189.337 1.40394 1.34176 0
M  V30 2013 C 186.467 2.77996 2.08172 0
M  V30 2014 C 185.421 3.89614 1.77157 0
M  V30 2015 C 184.747 4.36187 3.09265 0
M  V30 2016 C 186.047 5.1181 1.04151 0
M  V30 2017 H 187.741 2.97664 0.321992 0
M  V30 2018 H 185.287 1.4318 0.153434 0
M  V30 2019 H 187.24 3.19366 2.74924 0
M  V30 2020 H 185.964 1.9584 2.6137 0
M  V30 2021 H 184.623 3.48816 1.12796 0
M  V30 2022 H 184.271 3.50893 3.60393 0
M  V30 2023 H 183.971 5.11455 2.89288 0
M  V30 2024 H 185.495 4.80207 3.77139 0
M  V30 2025 H 186.909 5.50214 1.61052 0
M  V30 2026 H 185.306 5.92648 0.942762 0
M  V30 2027 H 186.376 4.84892 0.0279022 0
M  V30 2028 N 187.719 -0.156864 1.56817 0
M  V30 2029 C 188.947 -0.886316 1.86955 0
M  V30 2030 C 189.362 -1.75185 0.703975 0
M  V30 2031 O 188.719 -1.79555 -0.326552 0
M  V30 2032 C 188.77 -1.75117 3.16253 0
M  V30 2033 O 188.491 -0.920537 4.2832 0
M  V30 2034 C 189.992 -2.58905 3.59837 0
M  V30 2035 H 187.212 -0.25678 0.619923 0
M  V30 2036 H 189.756 -0.152615 2.0393 0
M  V30 2037 H 187.911 -2.43805 3.01062 0
M  V30 2038 H 188.325 -1.51337 5.02192 0
M  V30 2039 H 189.799 -3.1518 4.53172 0
M  V30 2040 H 190.276 -3.34472 2.84649 0
M  V30 2041 H 190.882 -1.95526 3.7769 0
M  V30 2042 N 189.197 -1.51736 -0.425897 0
M  V30 2043 C 190.144 -1.73875 -1.51776 0
M  V30 2044 C 191.114 -0.580702 -1.55618 0
M  V30 2045 O 192.299 -0.81641 -1.72451 0
M  V30 2046 C 189.439 -1.88012 -2.89388 0
M  V30 2047 C 188.552 -3.15606 -2.94986 0
M  V30 2048 C 187.687 -3.20271 -4.23793 0
M  V30 2049 C 186.726 -4.42134 -4.23302 0
M  V30 2050 N 185.863 -4.44284 -5.43651 0
M  V30 2051 H 190.703 -2.67071 -1.32201 0
M  V30 2052 H 188.24 -1.32351 -0.642008 0
M  V30 2053 H 190.198 -1.9419 -3.69251 0
M  V30 2054 H 188.828 -0.98213 -3.07496 0
M  V30 2055 H 187.88 -3.18681 -2.07717 0
M  V30 2056 H 189.192 -4.05486 -2.90486 0
M  V30 2057 H 188.346 -3.25428 -5.12036 0
M  V30 2058 H 187.085 -2.28299 -4.30965 0
M  V30 2059 H 186.09 -4.3714 -3.3345 0
M  V30 2060 H 187.315 -5.35382 -4.17783 0
M  V30 2061 H 185.261 -3.55188 -5.51523 0
M  V30 2062 H 185.178 -5.27988 -5.41078 0
M  V30 2063 H 186.446 -4.53649 -6.33895 0
M  V30 2064 N 190.675 0.682077 -1.42076 0
M  V30 2065 C 191.585 1.82535 -1.47371 0
M  V30 2066 C 192.601 1.7017 -0.363079 0
M  V30 2067 O 193.777 1.91848 -0.612875 0
M  V30 2068 C 190.842 3.18624 -1.36674 0
M  V30 2069 C 189.903 3.42999 -2.58167 0
M  V30 2070 C 189.136 4.72595 -2.4797 0
M  V30 2071 O 189.359 5.50006 -1.5116 0
M  V30 2072 O 188.293 4.98054 -3.37974 0
M  V30 2073 H 192.119 1.81023 -2.43853 0
M  V30 2074 H 189.704 0.836887 -1.2376 0
M  V30 2075 H 191.586 3.99847 -1.33043 0
M  V30 2076 H 190.261 3.20789 -0.433138 0
M  V30 2077 H 189.168 2.61653 -2.67373 0
M  V30 2078 H 190.501 3.45659 -3.50401 0
M  V30 2079 N 192.153 1.28127 0.917671 0
M  V30 2080 C 193.383 1.17722 1.6978 0
M  V30 2081 C 193.791 -0.267261 1.87303 0
M  V30 2082 O 193.134 -1.19286 1.39702 0
M  V30 2083 C 193.196 1.79958 3.11216 0
M  V30 2084 C 192.86 3.29187 3.16993 0
M  V30 2085 C 193.857 4.25679 2.98485 0
M  V30 2086 C 191.542 3.70075 3.39632 0
M  V30 2087 C 193.536 5.61035 3.02521 0
M  V30 2088 C 191.223 5.05557 3.433 0
M  V30 2089 C 192.221 6.00847 3.24764 0
M  V30 2090 O 191.909 7.33859 3.28187 0
M  V30 2091 H 191.641 0.409788 0.537634 0
M  V30 2092 H 194.195 1.69694 1.15728 0
M  V30 2093 H 192.425 1.22475 3.66793 0
M  V30 2094 H 194.114 1.64125 3.71238 0
M  V30 2095 H 194.88 3.95426 2.80826 0
M  V30 2096 H 190.759 2.96373 3.53106 0
M  V30 2097 H 194.303 6.35388 2.87971 0
M  V30 2098 H 190.2 5.35462 3.60486 0
M  V30 2099 H 190.968 7.42436 3.44575 0
M  V30 2100 N 193.631 -1.12557 1.10312 0
M  V30 2101 C 194.541 -2.21841 0.763142 0
M  V30 2102 C 195.557 -1.72354 -0.238801 0
M  V30 2103 O 196.733 -2.01249 -0.0778746 0
M  V30 2104 C 193.798 -3.46131 0.198632 0
M  V30 2105 C 192.859 -4.10464 1.25769 0
M  V30 2106 C 192.092 -5.28821 0.72002 0
M  V30 2107 O 192.315 -5.6859 -0.453993 0
M  V30 2108 O 191.249 -5.83437 1.47935 0
M  V30 2109 H 195.075 -2.53312 1.67532 0
M  V30 2110 H 192.66 -1.20867 0.878157 0
M  V30 2111 H 194.542 -4.2125 -0.112401 0
M  V30 2112 H 193.217 -3.16338 -0.686419 0
M  V30 2113 H 192.124 -3.3713 1.62156 0
M  V30 2114 H 193.457 -4.44408 2.11571 0
M  V30 2115 N 195.109 -0.891671 -1.2995 0
M  V30 2116 C 196.386 -0.433307 -1.9074 0
M  V30 2117 C 196.766 1.08646 -1.80995 0
M  V30 2118 O 196.114 1.92476 -1.23147 0
M  V30 2119 C 196.324 -0.938895 -3.36134 0
M  V30 2120 C 197.672 -0.977829 -4.13187 0
M  V30 2121 O 198.696 -0.886015 -3.45005 0
M  V30 2122 O 197.555 -1.11453 -5.35015 0
M  V30 2123 H 194.649 -0.133699 -0.816121 0
M  V30 2124 H 197.195 -0.981011 -1.38471 0
M  V30 2125 H 195.967 -1.98281 -3.37343 0
M  V30 2126 H 195.59 -0.37074 -3.95868 0
M  V30 2127 N 196.587 1.43421 -0.653314 0
M  V30 2128 C 197.55 2.29182 0.0287951 0
M  V30 2129 C 198.55 1.42213 0.750465 0
M  V30 2130 O 199.74 1.63843 0.591701 0
M  V30 2131 C 196.872 3.24278 1.05151 0
M  V30 2132 H 198.065 2.90985 -0.725786 0
M  V30 2133 H 195.618 1.50702 -0.414545 0
M  V30 2134 H 196.353 2.6737 1.83532 0
M  V30 2135 H 196.138 3.88396 0.537687 0
M  V30 2136 H 197.628 3.88647 1.52786 0
M  V30 2137 N 198.065 0.39524 1.52563 0
M  V30 2138 C 199.311 -0.185318 2.01952 0
M  V30 2139 C 199.644 -1.45964 1.28095 0
M  V30 2140 O 198.919 -1.90689 0.38315 0
M  V30 2141 C 199.202 -0.447193 3.57312 0
M  V30 2142 C 199.055 0.842828 4.41833 0
M  V30 2143 C 200.374 -1.23529 4.22408 0
M  V30 2144 H 197.493 -0.0658788 0.73405 0
M  V30 2145 H 200.135 0.525975 1.82575 0
M  V30 2146 H 198.285 -1.05312 3.73954 0
M  V30 2147 H 199.957 1.4795 4.36931 0
M  V30 2148 H 198.2 1.45686 4.08605 0
M  V30 2149 H 198.871 0.614165 5.48573 0
M  V30 2150 H 201.347 -0.722445 4.0978 0
M  V30 2151 H 200.223 -1.38727 5.3108 0
M  V30 2152 H 200.484 -2.25213 3.80436 0
M  V30 2153 N 199.544 -1.57102 0.125237 0
M  V30 2154 C 200.769 -2.0019 -0.542101 0
M  V30 2155 C 201.194 -1.00449 -1.59034 0
M  V30 2156 O 200.552 0.0229423 -1.81285 0
M  V30 2157 C 200.6 -3.42129 -1.13929 0
M  V30 2158 O 199.704 -3.45307 -2.2547 0
M  V30 2159 H 199.045 -0.650171 -0.134812 0
M  V30 2160 H 201.575 -2.03461 0.215553 0
M  V30 2161 H 201.585 -3.80471 -1.4733 0
M  V30 2162 H 200.26 -4.14237 -0.371531 0
M  V30 2163 H 198.837 -3.1879 -1.93462 0
M  V30 2164 N 201.022 0.148545 -1.56898 0
M  V30 2165 C 202.271 0.85984 -1.82454 0
M  V30 2166 C 202.584 1.82406 -0.706229 0
M  V30 2167 O 203.79 2.57938 -0.847349 0
M  V30 2168 C 202.246 1.57967 -3.2338 0
M  V30 2169 C 201.854 0.65794 -4.43142 0
M  V30 2170 C 203.598 2.27784 -3.58211 0
M  V30 2171 C 201.505 1.3793 -5.75091 0
M  V30 2172 H 200.435 0.324834 -0.68044 0
M  V30 2173 H 203.086 0.112588 -1.83154 0
M  V30 2174 H 201.468 2.37249 -3.17063 0
M  V30 2175 H 202.642 -0.0995497 -4.60692 0
M  V30 2176 H 200.957 0.0682643 -4.16344 0
M  V30 2177 H 203.554 2.8239 -4.54048 0
M  V30 2178 H 203.897 3.04204 -2.84193 0
M  V30 2179 H 204.43 1.55421 -3.66182 0
M  V30 2180 H 201.169 0.656982 -6.52199 0
M  V30 2181 H 200.689 2.10954 -5.61479 0
M  V30 2182 H 202.368 1.92063 -6.17835 0
M  V30 2183 N 202.5 1.5196 0.417844 0
M  V30 2184 C 203.463 1.74065 1.49111 0
M  V30 2185 C 204.463 0.610537 1.48758 0
M  V30 2186 O 205.653 0.87832 1.50437 0
M  V30 2187 C 202.785 1.81502 2.88565 0
M  V30 2188 H 203.978 2.69869 1.30807 0
M  V30 2189 H 201.531 1.42244 0.647785 0
M  V30 2190 H 202.266 0.875813 3.1225 0
M  V30 2191 H 202.051 2.63651 2.90225 0
M  V30 2192 H 203.541 2.00376 3.66387 0
M  V30 2193 N 203.978 -0.674533 1.42435 0
M  V30 2194 C 205.206 -1.46283 1.46317 0
M  V30 2195 C 205.621 -1.88653 0.0745836 0
M  V30 2196 O 204.978 -1.58151 -0.91074 0
M  V30 2197 C 205.029 -2.71178 2.3905 0
M  V30 2198 O 204.75 -2.30586 3.72507 0
M  V30 2199 C 206.251 -3.64738 2.51955 0
M  V30 2200 H 203.471 -0.450104 0.497642 0
M  V30 2201 H 206.015 -0.828792 1.86953 0
M  V30 2202 H 204.17 -3.3077 2.01667 0
M  V30 2203 H 204.584 -3.11241 4.22172 0
M  V30 2204 H 206.058 -4.49096 3.20962 0
M  V30 2205 H 206.535 -4.10656 1.55752 0
M  V30 2206 H 207.141 -3.11038 2.90061 0
M  V30 2207 N 205.456 -1.28612 -0.910864 0
M  V30 2208 C 206.419 -1.12803 -1.9952 0
M  V30 2209 C 207.419 -0.0668264 -1.60661 0
M  V30 2210 O 208.609 -0.312847 -1.71368 0
M  V30 2211 C 205.741 -0.72254 -3.33155 0
M  V30 2212 H 206.934 -2.09109 -2.14973 0
M  V30 2213 H 204.487 -1.11639 -1.09391 0
M  V30 2214 H 205.222 0.241152 -3.23402 0
M  V30 2215 H 205.007 -1.48916 -3.62721 0
M  V30 2216 H 206.497 -0.634666 -4.12749 0
M  V30 2217 N 206.934 1.1197 -1.10907 0
M  V30 2218 C 208.18 1.8386 -0.855773 0
M  V30 2219 C 208.513 1.84134 0.617103 0
M  V30 2220 O 207.788 1.29041 1.45529 0
M  V30 2221 C 208.071 3.31305 -1.411 0
M  V30 2222 C 207.924 3.39456 -2.9511 0
M  V30 2223 C 209.243 4.2721 -1.05736 0
M  V30 2224 H 206.362 0.667545 -0.312334 0
M  V30 2225 H 209.004 1.31331 -1.37303 0
M  V30 2226 H 207.154 3.76169 -0.97105 0
M  V30 2227 H 208.826 3.03191 -3.47668 0
M  V30 2228 H 207.069 2.79849 -3.31462 0
M  V30 2229 H 207.74 4.43209 -3.29044 0
M  V30 2230 H 210.216 3.90497 -1.43706 0
M  V30 2231 H 209.092 5.28775 -1.47269 0
M  V30 2232 H 209.353 4.42088 0.0325958 0
M  V30 2233 N 208.412 0.89855 1.29475 0
M  V30 2234 C 209.342 0.39201 2.30186 0
M  V30 2235 C 210.323 -0.532359 1.61555 0
M  V30 2236 O 211.508 -0.443331 1.89072 0
M  V30 2237 C 208.638 -0.382353 3.45189 0
M  V30 2238 C 207.592 0.451483 4.25612 0
M  V30 2239 C 206.918 -0.450307 5.328 0
M  V30 2240 C 208.218 1.70079 4.93832 0
M  V30 2241 H 209.912 1.23362 2.72804 0
M  V30 2242 H 207.458 0.594638 1.31149 0
M  V30 2243 H 209.411 -0.747451 4.14718 0
M  V30 2244 H 208.135 -1.25774 3.01411 0
M  V30 2245 H 206.794 0.798897 3.57789 0
M  V30 2246 H 206.442 -1.32379 4.85268 0
M  V30 2247 H 206.142 0.103902 5.87508 0
M  V30 2248 H 207.666 -0.811623 6.05182 0
M  V30 2249 H 209.08 1.40549 5.55805 0
M  V30 2250 H 207.477 2.19623 5.58467 0
M  V30 2251 H 208.547 2.43744 4.19186 0
M  V30 2252 N 209.89 -1.43072 0.660911 0
M  V30 2253 C 211.136 -2.0202 0.177708 0
M  V30 2254 C 211.469 -1.52066 -1.20787 0
M  V30 2255 O 210.744 -0.716987 -1.80802 0
M  V30 2256 C 211.027 -3.59561 0.197019 0
M  V30 2257 C 210.88 -4.19727 1.61706 0
M  V30 2258 C 212.199 -4.37664 -0.462396 0
M  V30 2259 H 209.318 -0.734034 0.0660494 0
M  V30 2260 H 211.96 -1.70272 0.843058 0
M  V30 2261 H 210.11 -3.86739 -0.369527 0
M  V30 2262 H 211.782 -4.03553 2.23479 0
M  V30 2263 H 210.025 -3.76084 2.16201 0
M  V30 2264 H 210.696 -5.28834 1.58237 0
M  V30 2265 H 213.172 -4.16095 0.0197215 0
M  V30 2266 H 212.048 -5.47305 -0.418188 0
M  V30 2267 H 212.309 -4.14493 -1.53778 0
M  V30 2268 N 211.368 -0.403325 -1.52352 0
M  V30 2269 C 212.614 0.174605 -2.02047 0
M  V30 2270 C 212.947 1.45282 -1.28867 0
M  V30 2271 O 212.222 1.90483 -0.393257 0
M  V30 2272 C 212.505 0.428238 -3.57545 0
M  V30 2273 C 212.358 -0.866248 -4.4138 0
M  V30 2274 C 213.677 1.21287 -4.23057 0
M  V30 2275 H 210.796 0.0619851 -0.734389 0
M  V30 2276 H 213.438 -0.53565 -1.82293 0
M  V30 2277 H 211.588 1.03327 -3.74507 0
M  V30 2278 H 213.26 -1.50265 -4.3614 0
M  V30 2279 H 211.503 -1.47851 -4.07827 0
M  V30 2280 H 212.174 -0.643249 -5.48239 0
M  V30 2281 H 214.65 0.700703 -4.10158 0
M  V30 2282 H 213.526 1.35909 -5.31808 0
M  V30 2283 H 213.787 2.23193 -3.81625 0
M  V30 2284 N 212.846 1.57033 -0.133567 0
M  V30 2285 C 214.092 1.95976 0.521649 0
M  V30 2286 C 214.425 1.01779 1.65393 0
M  V30 2287 O 213.7 0.0576581 1.94415 0
M  V30 2288 C 213.983 3.44738 1.04057 0
M  V30 2289 C 213.836 4.49711 -0.0892897 0
M  V30 2290 C 215.155 3.95682 1.92675 0
M  V30 2291 H 212.274 0.712579 0.188149 0
M  V30 2292 H 214.916 1.88813 -0.212076 0
M  V30 2293 H 213.066 3.50973 1.66583 0
M  V30 2294 H 214.738 4.55565 -0.725152 0
M  V30 2295 H 212.981 4.27261 -0.750378 0
M  V30 2296 H 213.652 5.51099 0.315284 0
M  V30 2297 H 216.128 3.91841 1.39998 0
M  V30 2298 H 215.004 5.00262 2.25897 0
M  V30 2299 H 215.265 3.37239 2.85872 0
M  V30 2300 N 214.325 -0.140222 1.56975 0
M  V30 2301 C 215.553 -0.866437 1.87884 0
M  V30 2302 C 215.968 -1.74428 0.722517 0
M  V30 2303 O 215.325 -1.79891 -0.30749 0
M  V30 2304 C 215.376 -1.71753 3.18093 0
M  V30 2305 O 215.097 -0.875056 4.29272 0
M  V30 2306 C 216.598 -2.55074 3.62563 0
M  V30 2307 H 213.818 -0.25019 0.622612 0
M  V30 2308 H 216.362 -0.130977 2.0408 0
M  V30 2309 H 214.517 -2.40598 3.03631 0
M  V30 2310 H 214.931 -1.46002 5.03769 0
M  V30 2311 H 216.405 -3.10356 4.5649 0
M  V30 2312 H 216.882 -3.31434 2.88181 0
M  V30 2313 H 217.488 -1.91509 3.79743 0
M  V30 2314 N 215.803 -1.52179 -0.40978 0
M  V30 2315 C 217.049 -1.66453 -1.15851 0
M  V30 2316 C 217.382 -0.392972 -1.90182 0
M  V30 2317 O 216.657 0.608579 -1.84734 0
M  V30 2318 C 216.94 -2.88612 -2.15349 0
M  V30 2319 C 216.793 -4.25815 -1.44918 0
M  V30 2320 C 218.112 -3.06294 -3.16026 0
M  V30 2321 H 215.231 -0.60575 -0.419805 0
M  V30 2322 H 217.873 -1.84732 -0.444314 0
M  V30 2323 H 216.023 -2.73158 -2.76255 0
M  V30 2324 H 217.695 -4.52995 -0.871365 0
M  V30 2325 H 215.938 -4.27247 -0.751159 0
M  V30 2326 H 216.609 -5.07337 -2.17516 0
M  V30 2327 H 219.085 -3.20641 -2.65195 0
M  V30 2328 H 217.961 -3.93283 -3.8291 0
M  V30 2329 H 218.222 -2.19579 -3.83715 0
M  V30 2330 N 217.281 0.66697 -1.42791 0
M  V30 2331 C 218.244 1.76211 -1.46568 0
M  V30 2332 C 219.244 1.56896 -0.352196 0
M  V30 2333 O 220.434 1.63044 -0.613364 0
M  V30 2334 C 217.566 3.14935 -1.30494 0
M  V30 2335 H 218.759 1.74247 -2.44086 0
M  V30 2336 H 216.312 0.877342 -1.29354 0
M  V30 2337 H 217.047 3.2252 -0.339301 0
M  V30 2338 H 216.832 3.30359 -2.11199 0
M  V30 2339 H 218.322 3.94821 -1.36038 0
M  V30 2340 N 218.759 1.29093 0.90403 0
M  V30 2341 C 220.006 1.16813 1.65411 0
M  V30 2342 C 220.334 -0.28128 1.92455 0
M  V30 2343 O 219.589 -1.22006 1.53013 0
M  V30 2344 C 219.888 1.92224 3.01305 0
M  V30 2345 C 219.554 3.41968 2.93885 0
M  V30 2346 C 218.216 3.82807 2.91569 0
M  V30 2347 C 220.568 4.37409 2.83413 0
M  V30 2348 C 217.896 5.1741 2.76594 0
M  V30 2349 C 220.248 5.72097 2.69977 0
M  V30 2350 C 218.912 6.12199 2.66024 0
M  V30 2351 H 218.182 0.42745 0.605283 0
M  V30 2352 H 220.829 1.59981 1.05254 0
M  V30 2353 H 219.134 1.41635 3.65304 0
M  V30 2354 H 220.831 1.80131 3.58265 0
M  V30 2355 H 217.421 3.09504 2.96488 0
M  V30 2356 H 221.605 4.06813 2.84283 0
M  V30 2357 H 216.861 5.47596 2.71935 0
M  V30 2358 H 221.035 6.45704 2.60844 0
M  V30 2359 H 218.662 7.16448 2.54178 0
M  V30 2360 N 220.237 -1.11381 1.11499 0
M  V30 2361 C 221.486 -1.82494 0.858993 0
M  V30 2362 C 221.799 -1.85605 -0.617278 0
M  V30 2363 O 223.005 -2.52824 -0.989552 0
M  V30 2364 C 221.461 -3.27745 1.48699 0
M  V30 2365 C 221.069 -3.32961 2.99735 0
M  V30 2366 C 222.813 -4.03754 1.31085 0
M  V30 2367 C 220.72 -4.72612 3.55516 0
M  V30 2368 H 219.65 -0.683802 0.317696 0
M  V30 2369 H 222.301 -1.25331 1.34031 0
M  V30 2370 H 220.683 -3.84844 0.933339 0
M  V30 2371 H 221.857 -2.85741 3.61509 0
M  V30 2372 H 220.172 -2.70433 3.16631 0
M  V30 2373 H 222.769 -5.06891 1.70192 0
M  V30 2374 H 223.112 -4.15527 0.253496 0
M  V30 2375 H 223.645 -3.53043 1.83318 0
M  V30 2376 H 220.384 -4.66036 4.60967 0
M  V30 2377 H 219.904 -5.2024 2.98513 0
M  V30 2378 H 221.583 -5.4157 3.53992 0
M  V30 2379 N 221.715 -0.905404 -1.28997 0
M  V30 2380 C 222.647 -0.344748 -2.26592 0
M  V30 2381 C 223.66 0.512135 -1.54535 0
M  V30 2382 O 224.849 0.328368 -1.75454 0
M  V30 2383 C 221.949 0.526587 -3.34784 0
M  V30 2384 C 221.122 -0.305871 -4.36329 0
M  V30 2385 C 220.181 0.499209 -5.23827 0
M  V30 2386 O 219.207 -0.0853004 -5.69136 0
M  V30 2387 N 220.409 1.80408 -5.51755 0
M  V30 2388 H 223.174 -1.18359 -2.75338 0
M  V30 2389 H 220.735 -0.770481 -1.42391 0
M  V30 2390 H 222.727 1.07171 -3.90252 0
M  V30 2391 H 221.297 1.26613 -2.85811 0
M  V30 2392 H 220.517 -1.0324 -3.80441 0
M  V30 2393 H 221.805 -0.875773 -5.01206 0
M  V30 2394 H 221.203 2.3016 -5.16762 0
M  V30 2395 H 219.76 2.29621 -6.10014 0
M  V30 2396 N 223.193 1.4272 -0.668489 0
M  V30 2397 C 224.103 2.34596 0.0139753 0
M  V30 2398 C 225.119 1.5474 0.795703 0
M  V30 2399 O 226.295 1.87334 0.739466 0
M  V30 2400 C 223.36 3.33202 0.957982 0
M  V30 2401 C 222.421 4.28957 0.17149 0
M  V30 2402 C 221.654 5.22853 1.07053 0
M  V30 2403 O 221.877 5.21531 2.31001 0
M  V30 2404 O 220.811 5.9952 0.534727 0
M  V30 2405 H 224.637 2.9448 -0.742661 0
M  V30 2406 H 222.222 1.43117 -0.428705 0
M  V30 2407 H 224.104 3.93796 1.50008 0
M  V30 2408 H 222.779 2.758 1.69458 0
M  V30 2409 H 221.686 3.71796 -0.414558 0
M  V30 2410 H 223.019 4.89383 -0.52586 0
M  V30 2411 N 224.671 0.411399 1.52136 0
M  V30 2412 C 225.901 -0.16284 2.05957 0
M  V30 2413 C 226.309 -1.3922 1.28119 0
M  V30 2414 O 225.652 -1.80768 0.326881 0
M  V30 2415 C 225.714 -0.575946 3.54856 0
M  V30 2416 C 225.378 0.542998 4.53763 0
M  V30 2417 C 226.375 1.40726 5.00492 0
M  V30 2418 C 224.06 0.716337 4.97166 0
M  V30 2419 C 226.054 2.4298 5.8927 0
M  V30 2420 C 223.741 1.74218 5.8574 0
M  V30 2421 C 224.739 2.59731 6.31687 0
M  V30 2422 O 224.427 3.60558 7.18507 0
M  V30 2423 H 224.159 -0.0229125 0.675612 0
M  V30 2424 H 226.713 0.581634 1.96993 0
M  V30 2425 H 224.943 -1.37274 3.61515 0
M  V30 2426 H 226.632 -1.07836 3.91313 0
M  V30 2427 H 227.398 1.28476 4.67674 0
M  V30 2428 H 223.277 0.0603857 4.6096 0
M  V30 2429 H 226.821 3.0976 6.25055 0
M  V30 2430 H 222.718 1.86498 6.17971 0
M  V30 2431 H 223.486 3.56829 7.36624 0
M  V30 2432 N 226.149 -1.5696 0.141893 0
M  V30 2433 C 227.565 -1.58151 -0.21456 0
M  V30 2434 C 227.765 -1.1559 -1.65049 0
M  V30 2435 O 226.821 -0.853832 -2.37626 0
M  V30 2436 C 228.134 -3.00674 0.0395576 0
M  V30 2437 C 229.682 -3.1299 -0.0245529 0
M  V30 2438 C 230.157 -4.57554 0.202167 0
M  V30 2439 N 231.648 -4.62961 0.148919 0
M  V30 2440 C 232.383 -5.7262 0.298924 0
M  V30 2441 N 231.879 -6.90947 0.50637 0
M  V30 2442 N 233.672 -5.61601 0.236886 0
M  V30 2443 H 225.823 -1.8292 1.07953 0
M  V30 2444 H 228.086 -0.846425 0.42693 0
M  V30 2445 H 227.792 -3.36183 1.03315 0
M  V30 2446 H 227.666 -3.70981 -0.682143 0
M  V30 2447 H 230.053 -2.77326 -1.00869 0
M  V30 2448 H 230.134 -2.4518 0.729396 0
M  V30 2449 H 229.778 -4.93922 1.18338 0
M  V30 2450 H 229.708 -5.23484 -0.572044 0
M  V30 2451 H 232.199 -3.77899 -0.00697015 0
M  V30 2452 H 232.512 -7.7038 0.611076 0
M  V30 2453 H 230.857 -6.92878 0.542628 0
M  V30 2454 H 234.048 -4.68039 0.0756209 0
M  V30 2455 H 234.221 -6.47015 0.357227 0
M  V30 2456 N 227.627 0.131896 -1.57047 0
M  V30 2457 C 228.852 0.860418 -1.8871 0
M  V30 2458 C 229.277 1.73251 -0.73251 0
M  V30 2459 O 228.635 1.785 0.317429 0
M  V30 2460 C 228.683 1.68047 -3.19049 0
M  V30 2461 O 227.787 2.7862 -3.04047 0
M  V30 2462 H 227.128 0.238743 -0.619595 0
M  V30 2463 H 229.658 0.118169 -2.04258 0
M  V30 2464 H 229.668 2.07238 -3.51449 0
M  V30 2465 H 228.343 1.04018 -4.02682 0
M  V30 2466 H 226.92 2.42726 -2.83088 0
M  V30 2467 N 229.106 1.52395 0.401703 0
M  V30 2468 C 230.016 1.7917 1.51444 0
M  V30 2469 C 231.032 0.677691 1.6026 0
M  V30 2470 O 232.208 0.963909 1.76835 0
M  V30 2471 C 229.273 1.94347 2.87107 0
M  V30 2472 C 228.334 3.18257 2.88116 0
M  V30 2473 C 227.567 3.32701 4.17308 0
M  V30 2474 O 227.79 2.52238 5.11598 0
M  V30 2475 O 226.724 4.25891 4.25324 0
M  V30 2476 H 230.55 2.73633 1.31752 0
M  V30 2477 H 228.135 1.3733 0.588296 0
M  V30 2478 H 230.017 2.06109 3.67555 0
M  V30 2479 H 228.692 1.03073 3.06851 0
M  V30 2480 H 227.599 3.11947 2.06494 0
M  V30 2481 H 228.932 4.09336 2.73322 0
M  V30 2482 N 230.584 -0.659388 1.43143 0
M  V30 2483 C 231.531 -1.77249 1.47822 0
M  V30 2484 C 232.501 -1.62818 0.328558 0
M  V30 2485 O 233.686 -1.83151 0.534838 0
M  V30 2486 C 230.826 -3.15371 1.40126 0
M  V30 2487 C 229.939 -3.4098 2.65249 0
M  V30 2488 C 229.074 -4.68915 2.49584 0
M  V30 2489 C 228.113 -4.87608 3.70006 0
M  V30 2490 N 227.25 -6.06796 3.53189 0
M  V30 2491 H 232.09 -1.72584 2.42938 0
M  V30 2492 H 229.627 -0.842297 1.20598 0
M  V30 2493 H 231.585 -3.9521 1.33659 0
M  V30 2494 H 230.215 -3.19121 0.485964 0
M  V30 2495 H 229.267 -2.55282 2.8202 0
M  V30 2496 H 230.579 -3.50681 3.54717 0
M  V30 2497 H 229.733 -5.56871 2.4079 0
M  V30 2498 H 228.472 -4.61524 1.5763 0
M  V30 2499 H 227.477 -3.9809 3.79215 0
M  V30 2500 H 228.702 -4.96834 4.62961 0
M  V30 2501 H 226.648 -6.00549 2.63965 0
M  V30 2502 H 226.565 -6.17428 4.36255 0
M  V30 2503 H 227.833 -6.9739 3.48236 0
M  V30 2504 N 232.062 -1.29571 -0.897171 0
M  V30 2505 C 233.287 -1.20705 -1.68656 0
M  V30 2506 C 233.712 0.228582 -1.86706 0
M  V30 2507 O 233.07 1.16494 -1.3892 0
M  V30 2508 C 233.118 -1.9282 -3.04717 0
M  V30 2509 O 232.222 -1.24697 -3.93096 0
M  V30 2510 H 231.563 -0.418126 -0.515816 0
M  V30 2511 H 234.093 -1.71183 -1.12061 0
M  V30 2512 H 234.103 -2.01372 -3.54843 0
M  V30 2513 H 232.778 -2.97239 -2.90899 0
M  V30 2514 H 231.355 -1.2442 -3.51531 0
M  V30 2515 N 233.54 1.10788 -1.12088 0
M  V30 2516 C 234.47 2.19083 -0.807755 0
M  V30 2517 C 235.451 1.6858 0.226859 0
M  V30 2518 O 236.636 1.93997 0.0888475 0
M  V30 2519 C 233.766 3.46344 -0.257576 0
M  V30 2520 C 232.72 4.101 -1.22483 0
M  V30 2521 C 232.046 5.32016 -0.535052 0
M  V30 2522 C 233.346 4.54236 -2.57811 0
M  V30 2523 H 235.04 2.45534 -1.71328 0
M  V30 2524 H 232.586 1.1801 -0.825205 0
M  V30 2525 H 234.539 4.21392 -0.0262679 0
M  V30 2526 H 233.263 3.19373 0.683278 0
M  V30 2527 H 231.922 3.37054 -1.44189 0
M  V30 2528 H 231.57 5.01319 0.410827 0
M  V30 2529 H 231.27 5.75625 -1.18024 0
M  V30 2530 H 232.794 6.09799 -0.312695 0
M  V30 2531 H 234.208 5.20575 -2.40155 0
M  V30 2532 H 232.605 5.08682 -3.18375 0
M  V30 2533 H 233.675 3.6734 -3.16528 0
M  V30 2534 N 235.018 0.912232 1.28515 0
M  V30 2535 C 235.928 0.404506 2.31086 0
M  V30 2536 C 236.944 -0.50707 1.66448 0
M  V30 2537 O 238.12 -0.393624 1.97516 0
M  V30 2538 C 235.185 -0.348572 3.44943 0
M  V30 2539 C 234.246 0.59604 4.25142 0
M  V30 2540 C 233.479 -0.121194 5.33562 0
M  V30 2541 O 233.702 -1.34317 5.5436 0
M  V30 2542 O 232.636 0.542716 5.99448 0
M  V30 2543 H 236.462 1.25579 2.76521 0
M  V30 2544 H 234.047 0.676998 1.33181 0
M  V30 2545 H 235.929 -0.77395 4.14232 0
M  V30 2546 H 234.604 -1.17571 3.01594 0
M  V30 2547 H 233.511 1.07079 3.58448 0
M  V30 2548 H 234.844 1.38995 4.72167 0
M  V30 2549 N 236.496 -1.42363 0.676048 0
M  V30 2550 C 237.406 -2.346 -0.00153389 0
M  V30 2551 C 238.422 -1.5516 -0.787485 0
M  V30 2552 O 239.598 -1.87723 -0.729521 0
M  V30 2553 C 236.663 -3.33705 -0.940298 0
M  V30 2554 C 235.724 -4.29042 -0.148739 0
M  V30 2555 C 234.957 -5.23413 -1.04279 0
M  V30 2556 O 235.18 -5.22749 -2.28232 0
M  V30 2557 O 234.114 -5.99795 -0.502925 0
M  V30 2558 H 237.94 -2.94082 0.758268 0
M  V30 2559 H 235.525 -1.42888 0.436289 0
M  V30 2560 H 237.407 -3.94586 -1.47917 0
M  V30 2561 H 236.082 -2.76695 -1.67993 0
M  V30 2562 H 234.989 -3.71571 0.43427 0
M  V30 2563 H 236.322 -4.89097 0.551805 0
M  V30 2564 N 237.974 -0.419461 -1.51915 0
M  V30 2565 C 238.904 0.391813 -2.30189 0
M  V30 2566 C 239.885 1.03699 -1.34836 0
M  V30 2567 O 241.07 1.04403 -1.63748 0
M  V30 2568 C 238.2 1.50312 -3.13087 0
M  V30 2569 C 237.154 0.9824 -4.16573 0
M  V30 2570 C 236.48 2.18809 -4.8788 0
M  V30 2571 C 237.78 0.0292356 -5.22292 0
M  V30 2572 H 239.474 -0.26135 -2.98257 0
M  V30 2573 H 237.02 -0.127134 -1.43438 0
M  V30 2574 H 238.973 2.07773 -3.66617 0
M  V30 2575 H 237.697 2.18431 -2.42807 0
M  V30 2576 H 236.356 0.430119 -3.64068 0
M  V30 2577 H 236.004 2.85507 -4.14119 0
M  V30 2578 H 235.704 1.84615 -5.57845 0
M  V30 2579 H 237.228 2.76858 -5.44226 0
M  V30 2580 H 238.642 0.512976 -5.71 0
M  V30 2581 H 237.039 -0.2244 -5.9968 0
M  V30 2582 H 238.109 -0.912931 -4.76228 0
M  V30 2583 N 239.452 1.56882 -0.150215 0
M  V30 2584 C 240.68 2.00593 0.506948 0
M  V30 2585 C 241.095 1.03033 1.58208 0
M  V30 2586 O 240.452 0.0278396 1.82479 0
M  V30 2587 C 240.503 3.44209 1.10465 0
M  V30 2588 O 240.224 4.3804 0.0724636 0
M  V30 2589 C 241.725 4.03214 1.84211 0
M  V30 2590 H 238.945 0.65795 0.13169 0
M  V30 2591 H 241.489 2.03018 -0.245743 0
M  V30 2592 H 239.644 3.42625 1.80795 0
M  V30 2593 H 240.058 5.22007 0.510793 0
M  V30 2594 H 241.532 5.0569 2.21318 0
M  V30 2595 H 242.009 3.44107 2.72923 0
M  V30 2596 H 242.615 4.08437 1.18572 0
M  V30 2597 N 240.93 -0.123565 1.57115 0
M  V30 2598 C 241.877 -1.15177 2.00007 0
M  V30 2599 C 242.847 -1.41403 0.871454 0
M  V30 2600 O 244.032 -1.53346 1.13533 0
M  V30 2601 C 241.172 -2.47436 2.40561 0
M  V30 2602 C 240.285 -2.28184 3.66819 0
M  V30 2603 C 239.42 -3.53641 3.96373 0
M  V30 2604 C 238.459 -3.29528 5.15827 0
M  V30 2605 N 237.596 -4.47175 5.41275 0
M  V30 2606 H 242.436 -0.779008 2.87638 0
M  V30 2607 H 239.973 -0.373166 1.42288 0
M  V30 2608 H 241.931 -3.24584 2.62109 0
M  V30 2609 H 240.561 -2.82614 1.55978 0
M  V30 2610 H 239.613 -1.41976 3.52912 0
M  V30 2611 H 240.925 -2.0634 4.5412 0
M  V30 2612 H 240.079 -4.39209 4.18545 0
M  V30 2613 H 238.818 -3.78512 3.07538 0
M  V30 2614 H 237.823 -2.42349 4.93505 0
M  V30 2615 H 239.048 -3.06031 6.06236 0
M  V30 2616 H 236.994 -4.72175 4.55397 0
M  V30 2617 H 236.911 -4.28419 6.22891 0
M  V30 2618 H 238.179 -5.3389 5.67963 0
M  V30 2619 N 242.408 -1.52605 -0.393616 0
M  V30 2620 C 243.338 -1.80022 -1.48709 0
M  V30 2621 C 244.319 -0.651995 -1.57108 0
M  V30 2622 O 245.504 -0.89913 -1.72132 0
M  V30 2623 C 242.634 -1.96492 -2.86371 0
M  V30 2624 C 241.588 -3.12161 -2.92813 0
M  V30 2625 C 240.914 -3.13877 -4.3288 0
M  V30 2626 C 242.214 -4.51322 -2.6288 0
M  V30 2627 H 243.908 -2.71589 -1.26015 0
M  V30 2628 H 241.454 -1.30684 -0.604778 0
M  V30 2629 H 243.407 -2.14255 -3.62867 0
M  V30 2630 H 242.131 -1.01611 -3.10391 0
M  V30 2631 H 240.79 -2.94173 -2.18764 0
M  V30 2632 H 240.438 -2.16687 -4.53933 0
M  V30 2633 H 240.138 -3.91576 -4.38112 0
M  V30 2634 H 241.662 -3.33789 -5.1129 0
M  V30 2635 H 243.076 -4.69435 -3.29096 0
M  V30 2636 H 241.473 -5.31053 -2.79468 0
M  V30 2637 H 242.543 -4.58353 -1.58242 0
M  V30 2638 N 243.887 0.651787 -1.4349 0
M  V30 2639 C 245.133 1.41376 -1.45398 0
M  V30 2640 C 245.466 1.94041 -0.0784823 0
M  V30 2641 O 244.741 1.72379 0.900878 0
M  V30 2642 C 245.024 2.59414 -2.49752 0
M  V30 2643 C 244.877 2.12232 -3.96582 0
M  V30 2644 C 246.196 3.61626 -2.50827 0
M  V30 2645 H 243.315 0.512719 -0.529422 0
M  V30 2646 H 245.957 0.738796 -1.75048 0
M  V30 2647 H 244.107 3.16997 -2.246 0
M  V30 2648 H 245.779 1.59639 -4.32797 0
M  V30 2649 H 244.022 1.43592 -4.09346 0
M  V30 2650 H 244.693 2.9712 -4.65214 0
M  V30 2651 H 247.169 3.13805 -2.7325 0
M  V30 2652 H 246.045 4.41766 -3.25783 0
M  V30 2653 H 246.306 4.14314 -1.5426 0
M  V30 2654 N 245.365 1.30045 0.890287 0
M  V30 2655 C 246.776 1.16738 1.45702 0
M  V30 2656 C 247.127 -0.233939 1.948 0
M  V30 2657 O 246.252 -1.13021 1.84541 0
M  V30 2658 C 246.847 2.11313 2.64825 0
M  V30 2659 C 245.406 2.02001 3.17604 0
M  V30 2660 C 244.553 2.01699 1.90296 0
M  V30 2661 H 247.504 1.42392 0.700726 0
M  V30 2662 H 247.525 1.69086 3.40867 0
M  V30 2663 H 247.037 3.13294 2.2906 0
M  V30 2664 H 245.138 1.03142 3.5804 0
M  V30 2665 H 245.251 2.90128 3.81264 0
M  V30 2666 H 243.615 1.46427 2.08402 0
M  V30 2667 H 244.398 3.05402 1.56795 0
M  V30 2668 N 246.843 -1.10192 1.12674 0
M  V30 2669 C 248.254 -1.63707 0.897604 0
M  V30 2670 C 248.605 -1.87812 -0.567546 0
M  V30 2671 O 247.73 -1.62196 -1.43253 0
M  V30 2672 C 248.325 -2.974 1.62292 0
M  V30 2673 C 246.884 -3.47772 1.43986 0
M  V30 2674 C 246.031 -2.22332 1.65722 0
M  V30 2675 H 248.982 -0.936587 1.28116 0
M  V30 2676 H 249.003 -3.64986 1.07541 0
M  V30 2677 H 248.515 -2.79824 2.68924 0
M  V30 2678 H 246.616 -3.70487 0.396206 0
M  V30 2679 H 246.729 -4.25723 2.19765 0
M  V30 2680 H 245.093 -2.30599 1.08149 0
M  V30 2681 H 245.876 -2.07285 2.73657 0
M  V30 2682 N 248.321 -0.919034 -1.28029 0
M  V30 2683 C 249.231 -0.416756 -2.30869 0
M  V30 2684 C 250.247 0.498235 -1.66714 0
M  V30 2685 O 251.423 0.383144 -1.97722 0
M  V30 2686 C 248.488 0.330274 -3.45123 0
M  V30 2687 C 247.549 -0.618578 -4.2482 0
M  V30 2688 C 246.782 0.0928959 -5.33619 0
M  V30 2689 O 247.005 1.31375 -5.55065 0
M  V30 2690 O 245.939 -0.574499 -5.99152 0
M  V30 2691 H 249.765 -1.27043 -2.75851 0
M  V30 2692 H 247.35 -0.684052 -1.3282 0
M  V30 2693 H 249.232 0.751972 -4.14636 0
M  V30 2694 H 247.907 1.1597 -3.02213 0
M  V30 2695 H 246.814 -1.08978 -3.57875 0
M  V30 2696 H 248.147 -1.41497 -4.71423 0
M  V30 2697 N 249.799 1.42003 -0.683588 0
M  V30 2698 C 251.039 2.03282 -0.213513 0
M  V30 2699 C 251.403 1.52924 1.16097 0
M  V30 2700 O 252.604 2.06048 1.7262 0
M  V30 2701 C 250.875 3.56483 -0.255856 0
M  V30 2702 S 252.434 4.3857 0.14193 0
M  V30 2703 H 249.252 0.705659 -0.0869853 0
M  V30 2704 H 251.854 1.73619 -0.8987 0
M  V30 2705 H 250.558 3.90631 -1.25841 0
M  V30 2706 H 250.089 3.90831 0.448875 0
M  V30 2707 H 252.104 4.76828 1.37295 0
M  V30 2708 N 251.277 0.427512 1.51691 0
M  V30 2709 C 252.225 -0.403359 2.29076 0
M  V30 2710 C 253.219 -1.02962 1.34518 0
M  V30 2711 O 254.425 -0.965715 1.51901 0
M  V30 2712 H 250.8 -0.148879 0.737115 0
M  V30 2713 H 252.771 0.270295 2.97173 0
M  V30 2714 C 251.52 -1.49763 3.13794 0
M  V30 2715 H 250.843 -1.02508 3.86435 0
M  V30 2716 H 252.283 -2.05244 3.71014 0
M  V30 2717 C 250.742 -2.47536 2.28533 0
M  V30 2718 O 251.272 -3.51848 1.93819 0
M  V30 2719 N 249.478 -2.18187 1.91945 0
M  V30 2720 H 249.025 -1.33389 2.20375 0
M  V30 2721 H 248.983 -2.83848 1.35195 0
M  V30 2722 N 252.755 -1.56801 0.158532 0
M  V30 2723 C 253.995 -1.98383 -0.49229 0
M  V30 2724 C 254.359 -1.04184 -1.61275 0
M  V30 2725 O 255.56 -1.34856 -2.32524 0
M  V30 2726 C 253.831 -3.4385 -0.974766 0
M  V30 2727 S 255.39 -4.07459 -1.62857 0
M  V30 2728 H 252.208 -0.693041 -0.158794 0
M  V30 2729 H 254.81 -1.93856 0.252974 0
M  V30 2730 H 253.514 -4.10131 -0.148688 0
M  V30 2731 H 253.045 -3.52115 -1.75438 0
M  V30 2732 H 255.06 -4.01458 -2.91627 0
M  V30 2733 N 254.233 0.115231 -1.57178 0
M  V30 2734 C 255.163 1.1423 -2.03651 0
M  V30 2735 C 256.144 1.42967 -0.921655 0
M  V30 2736 O 257.329 1.53343 -1.19162 0
M  V30 2737 C 254.459 2.4675 -2.44401 0
M  V30 2738 C 253.413 2.32467 -3.59365 0
M  V30 2739 C 252.739 3.69984 -3.86026 0
M  V30 2740 C 254.039 1.78203 -4.90959 0
M  V30 2741 H 255.733 0.755749 -2.89705 0
M  V30 2742 H 253.279 0.362093 -1.39373 0
M  V30 2743 H 255.232 3.18854 -2.75517 0
M  V30 2744 H 253.956 2.87302 -1.55322 0
M  V30 2745 H 252.615 1.62811 -3.28463 0
M  V30 2746 H 252.263 4.08028 -2.94147 0
M  V30 2747 H 251.963 3.61279 -4.63412 0
M  V30 2748 H 253.487 4.43587 -4.19599 0
M  V30 2749 H 254.901 2.40128 -5.20587 0
M  V30 2750 H 253.298 1.8031 -5.72371 0
M  V30 2751 H 254.368 0.739876 -4.79222 0
M  V30 2752 N 255.711 1.52812 0.385517 0
M  V30 2753 C 257.127 1.4214 0.725829 0
M  V30 2754 C 257.327 0.544589 1.94001 0
M  V30 2755 O 256.383 0.0193693 2.52493 0
M  V30 2756 C 257.696 2.85042 0.957668 0
M  V30 2757 C 259.244 2.94543 1.05892 0
M  V30 2758 C 259.719 4.38464 1.32337 0
M  V30 2759 N 261.21 4.41804 1.39151 0
M  V30 2760 C 261.945 5.5025 1.61285 0
M  V30 2761 N 261.441 6.68775 1.80866 0
M  V30 2762 N 263.234 5.37798 1.63492 0
M  V30 2763 H 255.385 2.08338 -0.413383 0
M  V30 2764 H 257.648 0.940016 -0.122775 0
M  V30 2765 H 257.354 3.51431 0.137568 0
M  V30 2766 H 257.228 3.27505 1.87137 0
M  V30 2767 H 259.615 2.28321 1.86959 0
M  V30 2768 H 259.696 2.55504 0.123057 0
M  V30 2769 H 259.34 5.05254 0.517793 0
M  V30 2770 H 259.27 4.75059 2.27214 0
M  V30 2771 H 261.761 3.56377 1.25713 0
M  V30 2772 H 262.074 7.47197 1.97271 0
M  V30 2773 H 260.419 6.71797 1.78083 0
M  V30 2774 H 263.61 4.44171 1.47749 0
M  V30 2775 H 263.783 6.22382 1.80402 0
M  V30 2776 N 257.189 -0.644168 1.43834 0
M  V30 2777 C 258.099 -1.78563 1.52159 0
M  V30 2778 C 259.115 -1.69147 0.408069 0
M  V30 2779 O 260.291 -1.90156 0.663524 0
M  V30 2780 C 257.356 -3.14888 1.45073 0
M  V30 2781 C 256.417 -3.36034 2.6717 0
M  V30 2782 C 255.65 -4.65855 2.60413 0
M  V30 2783 O 255.873 -5.45805 1.65689 0
M  V30 2784 O 254.807 -4.88918 3.5106 0
M  V30 2785 H 258.633 -1.74494 2.48567 0
M  V30 2786 H 256.218 -0.80378 1.25935 0
M  V30 2787 H 258.1 -3.96179 1.43597 0
M  V30 2788 H 256.775 -3.19528 0.518037 0
M  V30 2789 H 255.682 -2.54472 2.74217 0
M  V30 2790 H 257.015 -3.36247 3.59442 0
M  V30 2791 N 258.668 -1.30515 -0.883378 0
M  V30 2792 C 259.916 -1.19194 -1.63209 0
M  V30 2793 C 260.237 0.253205 -1.93349 0
M  V30 2794 O 259.507 1.17025 -1.57105 0
M  V30 2795 H 258.087 -0.438148 -0.605009 0
M  V30 2796 H 260.749 -1.63663 -1.05832 0
M  V30 2797 H 259.845 -1.75396 -2.58153 0
M  V30 2798 N 260.146 1.09593 -1.13257 0
M  V30 2799 C 261.093 2.1618 -0.808381 0
M  V30 2800 C 262.063 1.64517 0.228754 0
M  V30 2801 O 263.248 1.9053 0.101381 0
M  V30 2802 C 260.388 3.43973 -0.278675 0
M  V30 2803 C 259.501 4.09545 -1.37466 0
M  V30 2804 C 258.636 5.25088 -0.803479 0
M  V30 2805 C 257.675 5.82579 -1.87799 0
M  V30 2806 N 256.812 6.89486 -1.32488 0
M  V30 2807 H 261.652 2.43254 -1.72138 0
M  V30 2808 H 259.189 1.19392 -0.859294 0
M  V30 2809 H 261.147 4.17174 0.0465583 0
M  V30 2810 H 259.777 3.17223 0.597459 0
M  V30 2811 H 258.829 3.34226 -1.81652 0
M  V30 2812 H 260.141 4.48307 -2.18684 0
M  V30 2813 H 259.295 6.05178 -0.429427 0
M  V30 2814 H 258.034 4.87684 0.0397956 0
M  V30 2815 H 257.039 5.01152 -2.26113 0
M  V30 2816 H 258.264 6.22045 -2.72463 0
M  V30 2817 H 256.21 6.54064 -0.503575 0
M  V30 2818 H 256.127 7.27007 -2.07355 0
M  V30 2819 H 257.395 7.73336 -0.978336 0
M  V30 2820 N 261.624 0.925811 1.2754 0
M  V30 2821 C 262.554 0.440748 2.29303 0
M  V30 2822 C 263.535 -0.497971 1.62648 0
M  V30 2823 O 264.72 -0.403126 1.8997 0
M  V30 2824 C 261.85 -0.309048 3.45922 0
M  V30 2825 C 260.804 0.54166 4.24559 0
M  V30 2826 C 260.13 -0.337191 5.33636 0
M  V30 2827 C 261.43 1.80516 4.90114 0
M  V30 2828 H 263.124 1.29121 2.70126 0
M  V30 2829 H 260.67 0.622323 1.29858 0
M  V30 2830 H 262.623 -0.659315 4.1621 0
M  V30 2831 H 261.347 -1.19352 3.04011 0
M  V30 2832 H 260.006 0.874609 3.56014 0
M  V30 2833 H 259.654 -1.22056 4.87966 0
M  V30 2834 H 259.354 0.228497 5.87156 0
M  V30 2835 H 260.878 -0.683072 6.06767 0
M  V30 2836 H 262.292 1.52307 5.52698 0
M  V30 2837 H 260.689 2.3142 5.53683 0
M  V30 2838 H 261.759 2.52581 4.13921 0
M  V30 2839 N 263.102 -1.41638 0.69111 0
M  V30 2840 C 264.034 -2.29194 -0.0161523 0
M  V30 2841 C 265.047 -1.44549 -0.748955 0
M  V30 2842 O 266.236 -1.681 -0.6004 0
M  V30 2843 C 263.336 -3.22325 -1.0469 0
M  V30 2844 C 262.509 -4.35706 -0.384621 0
M  V30 2845 C 261.568 -5.09443 -1.31737 0
M  V30 2846 O 260.594 -5.63386 -0.811451 0
M  V30 2847 N 261.796 -5.16487 -2.64993 0
M  V30 2848 H 264.561 -2.90534 0.735523 0
M  V30 2849 H 262.122 -1.52742 0.53679 0
M  V30 2850 H 264.114 -3.68522 -1.67252 0
M  V30 2851 H 262.684 -2.62323 -1.70015 0
M  V30 2852 H 261.904 -3.91948 0.420804 0
M  V30 2853 H 263.192 -5.08743 0.0760765 0
M  V30 2854 H 262.59 -4.741 -3.08619 0
M  V30 2855 H 261.147 -5.66276 -3.22761 0
M  V30 2856 N 264.58 -0.43555 -1.51462 0
M  V30 2857 C 265.53 0.394701 -2.24558 0
M  V30 2858 C 266.514 0.99157 -1.26715 0
M  V30 2859 O 267.706 0.910007 -1.51815 0
M  V30 2860 C 264.835 1.4963 -3.08975 0
M  V30 2861 C 263.921 0.908912 -4.14246 0
M  V30 2862 N 264.312 0.0505335 -5.05775 0
M  V30 2863 C 262.61 1.17668 -4.30198 0
M  V30 2864 C 263.311 -0.279161 -5.8103 0
M  V30 2865 N 262.287 0.336767 -5.42556 0
M  V30 2866 H 266.089 -0.267106 -2.92684 0
M  V30 2867 H 263.603 -0.247518 -1.60503 0
M  V30 2868 H 265.6 2.10394 -3.59917 0
M  V30 2869 H 264.26 2.16046 -2.42393 0
M  V30 2870 H 265.271 -0.31577 -5.16936 0
M  V30 2871 H 261.948 1.83847 -3.74842 0
M  V30 2872 H 263.338 -0.977553 -6.64751 0
M  V30 2873 N 266.058 1.56714 -0.166846 0
M  V30 2874 C 266.988 2.20754 0.760913 0
M  V30 2875 C 267.969 1.16178 1.24244 0
M  V30 2876 O 269.154 1.44592 1.29641 0
M  V30 2877 C 266.284 2.84478 1.99223 0
M  V30 2878 C 265.238 3.95053 1.64672 0
M  V30 2879 C 264.564 4.45805 2.95232 0
M  V30 2880 C 265.864 5.14865 0.878155 0
M  V30 2881 H 267.558 2.98537 0.22713 0
M  V30 2882 H 265.104 1.43596 0.107805 0
M  V30 2883 H 267.057 3.27951 2.64624 0
M  V30 2884 H 265.781 2.04056 2.55007 0
M  V30 2885 H 264.44 3.52228 1.01641 0
M  V30 2886 H 264.088 3.62181 3.49047 0
M  V30 2887 H 263.788 5.204 2.7287 0
M  V30 2888 H 265.312 4.91962 3.6167 0
M  V30 2889 H 266.726 5.55059 1.43466 0
M  V30 2890 H 265.123 5.95348 0.753738 0
M  V30 2891 H 266.193 4.84735 -0.126377 0
M  V30 2892 N 267.536 -0.106894 1.57237 0
M  V30 2893 C 268.466 -1.13148 2.04254 0
M  V30 2894 C 269.447 -1.42476 0.929224 0
M  V30 2895 O 270.632 -1.52709 1.19973 0
M  V30 2896 C 267.762 -2.4545 2.45706 0
M  V30 2897 C 266.716 -2.30558 3.60592 0
M  V30 2898 C 266.042 -3.67931 3.87983 0
M  V30 2899 C 267.342 -1.75597 4.91897 0
M  V30 2900 H 269.036 -0.740374 2.90101 0
M  V30 2901 H 266.582 -0.354696 1.39563 0
M  V30 2902 H 268.535 -3.17389 2.77205 0
M  V30 2903 H 267.259 -2.86475 1.56843 0
M  V30 2904 H 265.918 -1.61067 3.29322 0
M  V30 2905 H 265.566 -4.06462 2.96306 0
M  V30 2906 H 265.266 -3.58817 4.65322 0
M  V30 2907 H 266.79 -4.41356 4.21945 0
M  V30 2908 H 268.204 -2.37364 5.21854 0
M  V30 2909 H 266.601 -1.77272 5.73319 0
M  V30 2910 H 267.671 -0.714451 4.79608 0
M  V30 2911 N 269.014 -1.53014 -0.377408 0
M  V30 2912 C 269.977 -1.77957 -1.44444 0
M  V30 2913 C 270.977 -0.649763 -1.47087 0
M  V30 2914 O 272.167 -0.917897 -1.48055 0
M  V30 2915 C 269.299 -1.89089 -2.83651 0
M  V30 2916 H 270.492 -2.73243 -1.23606 0
M  V30 2917 H 268.045 -1.43912 -0.609844 0
M  V30 2918 H 268.78 -0.958293 -3.09818 0
M  V30 2919 H 268.565 -2.71254 -2.83132 0
M  V30 2920 H 270.055 -2.1002 -3.60945 0
M  V30 2921 N 270.492 0.636531 -1.44174 0
M  V30 2922 C 271.908 0.954104 -1.27941 0
M  V30 2923 C 272.108 2.0039 -0.211248 0
M  V30 2924 O 271.164 2.49236 0.404695 0
M  V30 2925 C 272.477 1.4225 -2.64925 0
M  V30 2926 C 274.025 1.53827 -2.72592 0
M  V30 2927 C 274.5 2.04053 -4.10032 0
M  V30 2928 N 275.991 2.11331 -4.12182 0
M  V30 2929 C 276.726 2.51352 -5.15374 0
M  V30 2930 N 276.222 2.90549 -6.2893 0
M  V30 2931 N 278.015 2.51438 -5.02728 0
M  V30 2932 H 270.166 -0.0578386 -2.12321 0
M  V30 2933 H 272.429 0.0367406 -0.947288 0
M  V30 2934 H 272.135 0.725466 -3.44136 0
M  V30 2935 H 272.009 2.39451 -2.9145 0
M  V30 2936 H 274.396 2.22628 -1.93702 0
M  V30 2937 H 274.477 0.550154 -2.49814 0
M  V30 2938 H 274.121 1.35848 -4.89395 0
M  V30 2939 H 274.051 3.03726 -4.30184 0
M  V30 2940 H 276.542 1.83745 -3.30222 0
M  V30 2941 H 276.855 3.19884 -7.03487 0
M  V30 2942 H 275.2 2.88313 -6.32377 0
M  V30 2943 H 278.391 2.20203 -4.13072 0
M  V30 2944 H 278.564 2.82304 -5.83274 0
M  V30 2945 N 271.97 1.30982 0.876444 0
M  V30 2946 C 272.88 1.2003 2.01569 0
M  V30 2947 C 273.896 0.11838 1.73597 0
M  V30 2948 O 275.072 0.33495 1.98595 0
M  V30 2949 C 272.137 0.901637 3.34771 0
M  V30 2950 C 271.198 2.06979 3.76109 0
M  V30 2951 C 270.431 1.78529 5.02954 0
M  V30 2952 O 270.654 0.717296 5.65872 0
M  V30 2953 O 269.588 2.64019 5.40905 0
M  V30 2954 H 273.414 2.15753 2.13739 0
M  V30 2955 H 270.999 1.10658 1.00375 0
M  V30 2956 H 272.881 0.750645 4.1466 0
M  V30 2957 H 271.556 -0.0256141 3.2369 0
M  V30 2958 H 270.463 2.27616 2.96887 0
M  V30 2959 H 271.796 2.97907 3.91807 0
M  V30 2960 N 273.449 -1.08991 1.13837 0
M  V30 2961 C 274.379 -2.17771 0.842507 0
M  V30 2962 C 275.36 -1.6892 -0.20001 0
M  V30 2963 O 276.545 -1.94113 -0.0579731 0
M  V30 2964 C 273.675 -3.4589 0.312644 0
M  V30 2965 C 272.629 -4.08099 1.28992 0
M  V30 2966 C 271.955 -5.31098 0.619623 0
M  V30 2967 C 273.255 -4.50077 2.65005 0
M  V30 2968 H 274.949 -2.42777 1.75213 0
M  V30 2969 H 272.495 -1.16682 0.843875 0
M  V30 2970 H 274.448 -4.21297 0.0933043 0
M  V30 2971 H 273.172 -3.20419 -0.632382 0
M  V30 2972 H 271.831 -3.34717 1.49533 0
M  V30 2973 H 271.479 -5.0191 -0.33102 0
M  V30 2974 H 271.179 -5.73674 1.27167 0
M  V30 2975 H 272.703 -6.09224 0.409669 0
M  V30 2976 H 274.117 -5.16688 2.48407 0
M  V30 2977 H 272.514 -5.03553 3.26427 0
M  V30 2978 H 273.584 -3.62257 3.22332 0
M  V30 2979 N 274.927 -0.932562 -1.27047 0
M  V30 2980 C 276.173 -0.576412 -1.94436 0
M  V30 2981 C 276.506 0.880891 -1.73072 0
M  V30 2982 O 275.781 1.62905 -1.06264 0
M  V30 2983 C 276.064 -0.909031 -3.48437 0
M  V30 2984 C 275.917 -2.42044 -3.79123 0
M  V30 2985 C 277.236 -0.418341 -4.38107 0
M  V30 2986 H 274.355 -0.210888 -0.706184 0
M  V30 2987 H 276.997 -1.16522 -1.50075 0
M  V30 2988 H 275.147 -0.407947 -3.86352 0
M  V30 2989 H 276.819 -2.99359 -3.50973 0
M  V30 2990 H 275.062 -2.86758 -3.25503 0
M  V30 2991 H 275.733 -2.6037 -4.86736 0
M  V30 2992 H 278.209 -0.847856 -4.0737 0
M  V30 2993 H 277.085 -0.679981 -5.44672 0
M  V30 2994 H 277.346 0.681642 -4.36814 0
M  V30 2995 N 276.405 1.4127 -0.698611 0
M  V30 2996 C 277.816 1.84187 -0.305289 0
M  V30 2997 C 278.167 1.58449 1.15708 0
M  V30 2998 O 277.292 1.05651 1.88856 0
M  V30 2999 C 277.887 3.3435 -0.547314 0
M  V30 3000 C 276.446 3.75826 -0.207878 0
M  V30 3001 C 275.593 2.64647 -0.828099 0
M  V30 3002 H 278.544 1.30778 -0.89904 0
M  V30 3003 H 278.565 3.8001 0.192998 0
M  V30 3004 H 278.077 3.53051 -1.61172 0
M  V30 3005 H 276.178 3.62725 0.852143 0
M  V30 3006 H 276.291 4.74462 -0.665021 0
M  V30 3007 H 274.655 2.53395 -0.257458 0
M  V30 3008 H 275.438 2.86165 -1.89643 0
M  V30 3009 N 277.883 0.443576 1.51229 0
M  V30 3010 C 279.131 -0.120557 2.0174 0
M  V30 3011 C 279.452 -1.42665 1.32935 0
M  V30 3012 O 278.722 -1.9028 0.465866 0
M  V30 3013 H 277.302 -0.0475426 0.745486 0
M  V30 3014 H 279.964 0.587711 1.85828 0
M  V30 3015 H 279.06 -0.291972 3.10731 0
M  V30 3016 N 279.361 -1.56624 0.175154 0
M  V30 3017 C 280.638 -1.88688 -0.515373 0
M  V30 3018 C 281.018 -1.08564 -1.81044 0
M  V30 3019 O 280.366 -0.180703 -2.27784 0
M  V30 3020 C 280.576 -3.40768 -0.753552 0
M  V30 3021 C 281.924 -4.10587 -1.08184 0
M  V30 3022 O 282.948 -3.46106 -0.841961 0
M  V30 3023 O 281.807 -5.24512 -1.53459 0
M  V30 3024 H 278.901 -0.78301 -0.26613 0
M  V30 3025 H 281.447 -1.68347 0.213877 0
M  V30 3026 H 280.219 -3.90965 0.161829 0
M  V30 3027 H 279.842 -3.66733 -1.53598 0
M  V30 3028 N 280.839 0.0985539 -1.57292 0
M  V30 3029 C 282.085 0.803867 -1.86188 0
M  V30 3030 C 282.418 1.78549 -0.763794 0
M  V30 3031 O 281.693 1.93153 0.22855 0
M  V30 3032 C 281.976 1.53568 -3.25713 0
M  V30 3033 C 281.829 0.572277 -4.46145 0
M  V30 3034 C 283.148 2.48708 -3.63087 0
M  V30 3035 H 280.267 0.290781 -0.677211 0
M  V30 3036 H 282.909 0.0675783 -1.8988 0
M  V30 3037 H 281.059 2.16332 -3.22696 0
M  V30 3038 H 282.731 -0.0480894 -4.61275 0
M  V30 3039 H 280.974 -0.114618 -4.33649 0
M  V30 3040 H 281.645 1.12139 -5.40489 0
M  V30 3041 H 284.121 1.96039 -3.67026 0
M  V30 3042 H 282.997 2.96932 -4.61652 0
M  V30 3043 H 283.258 3.32309 -2.91588 0
M  V30 3044 N 282.317 1.53212 0.369288 0
M  V30 3045 C 283.563 1.69466 1.11397 0
M  V30 3046 C 283.896 0.443257 1.89074 0
M  V30 3047 O 283.171 -0.559386 1.86282 0
M  V30 3048 C 283.454 2.9422 2.07621 0
M  V30 3049 C 283.307 4.29508 1.33577 0
M  V30 3050 C 284.626 3.14565 3.07794 0
M  V30 3051 H 281.745 0.616667 0.403597 0
M  V30 3052 H 284.387 1.85845 0.395179 0
M  V30 3053 H 282.537 2.80387 2.68916 0
M  V30 3054 H 284.209 4.55147 0.750955 0
M  V30 3055 H 282.452 4.29088 0.637618 0
M  V30 3056 H 283.123 5.12926 2.03989 0
M  V30 3057 H 285.599 3.2756 2.56601 0
M  V30 3058 H 284.475 4.03297 3.72348 0
M  V30 3059 H 284.736 2.29675 3.77759 0
M  V30 3060 N 283.795 -0.628877 1.44509 0
M  V30 3061 C 285.02 -1.42048 1.5112 0
M  V30 3062 C 285.445 -1.87594 0.137818 0
M  V30 3063 O 284.803 -1.58873 -0.873437 0
M  V30 3064 C 284.851 -2.61541 2.48251 0
M  V30 3065 O 283.955 -3.61453 1.98559 0
M  V30 3066 H 283.296 -0.424942 0.510216 0
M  V30 3067 H 285.826 -0.767374 1.89664 0
M  V30 3068 H 285.836 -3.09057 2.66361 0
M  V30 3069 H 284.511 -2.27736 3.48007 0
M  V30 3070 H 283.088 -3.20731 1.90227 0
M  V30 3071 N 285.273 -1.31445 -0.869486 0
M  V30 3072 C 286.203 -1.21727 -1.99261 0
M  V30 3073 C 287.184 -0.104359 -1.6978 0
M  V30 3074 O 288.369 -0.289038 -1.92037 0
M  V30 3075 C 285.499 -0.924317 -3.34774 0
M  V30 3076 C 284.453 -1.99685 -3.78563 0
M  V30 3077 C 283.779 -1.55658 -5.11541 0
M  V30 3078 C 285.079 -3.41003 -3.95619 0
M  V30 3079 H 286.773 -2.1569 -2.07649 0
M  V30 3080 H 284.319 -1.03839 -0.997675 0
M  V30 3081 H 286.272 -0.842934 -4.12883 0
M  V30 3082 H 284.996 0.0509793 -3.2656 0
M  V30 3083 H 283.655 -2.06813 -3.02694 0
M  V30 3084 H 283.303 -0.569132 -4.9977 0
M  V30 3085 H 283.003 -2.27409 -5.41811 0
M  V30 3086 H 284.527 -1.48928 -5.92159 0
M  V30 3087 H 285.941 -3.36547 -4.64122 0
M  V30 3088 H 284.338 -4.10975 -4.37286 0
M  V30 3089 H 285.408 -3.81754 -2.98985 0
M  V30 3090 N 286.751 1.08385 -1.14413 0
M  V30 3091 C 287.976 1.85057 -0.936413 0
M  V30 3092 C 288.401 1.81055 0.509971 0
M  V30 3093 O 287.759 1.1958 1.36273 0
M  V30 3094 C 287.807 3.30505 -1.44217 0
M  V30 3095 O 286.911 4.07491 -0.634409 0
M  V30 3096 H 286.252 0.573425 -0.334784 0
M  V30 3097 H 288.782 1.36799 -1.52142 0
M  V30 3098 H 288.792 3.81348 -1.45043 0
M  V30 3099 H 287.467 3.32734 -2.49522 0
M  V30 3100 H 286.044 3.66368 -0.694902 0
M  V30 3101 N 288.23 0.939286 1.26551 0
M  V30 3102 C 289.479 0.581601 1.93133 0
M  V30 3103 C 289.792 -0.883224 1.74524 0
M  V30 3104 O 290.998 -1.3502 2.35546 0
M  V30 3105 C 289.454 0.989425 3.46032 0
M  V30 3106 C 289.062 2.47573 3.73379 0
M  V30 3107 C 290.806 0.703544 4.18629 0
M  V30 3108 C 288.713 2.82235 5.19709 0
M  V30 3109 H 287.643 0.213803 0.723052 0
M  V30 3110 H 290.294 1.14167 1.4366 0
M  V30 3111 H 288.676 0.357902 3.94379 0
M  V30 3112 H 289.85 3.15614 3.35744 0
M  V30 3113 H 288.165 2.73471 3.1401 0
M  V30 3114 H 290.762 0.938869 5.26393 0
M  V30 3115 H 291.105 -0.359639 4.14744 0
M  V30 3116 H 291.638 1.2947 3.76141 0
M  V30 3117 H 288.377 3.87509 5.28694 0
M  V30 3118 H 287.897 2.18854 5.58447 0
M  V30 3119 H 289.576 2.70599 5.87695 0
M  V30 3120 N 289.708 -1.40897 0.706093 0
M  V30 3121 C 290.956 -2.00657 0.241054 0
M  V30 3122 C 291.277 -1.56241 -1.16678 0
M  V30 3123 O 290.547 -0.79765 -1.78926 0
M  V30 3124 H 289.127 -0.742018 0.0861308 0
M  V30 3125 H 291.789 -1.72372 0.909604 0
M  V30 3126 H 290.885 -3.10958 0.266705 0
M  V30 3127 N 291.186 -0.45159 -1.50991 0
M  V30 3128 C 292.463 0.170707 -1.94854 0
M  V30 3129 C 292.843 1.58788 -1.39103 0
M  V30 3130 O 292.191 2.20913 -0.583921 0
M  V30 3131 C 292.401 0.133929 -3.48743 0
M  V30 3132 C 293.749 0.33248 -4.23296 0
M  V30 3133 O 294.773 0.211403 -3.55572 0
M  V30 3134 O 293.632 0.57486 -5.43468 0
M  V30 3135 H 290.726 0.122264 -0.817912 0
M  V30 3136 H 293.272 -0.510594 -1.61836 0
M  V30 3137 H 292.044 -0.856283 -3.81816 0
M  V30 3138 H 291.667 0.857529 -3.88242 0
M  V30 3139 N 292.664 1.56529 -0.183458 0
M  V30 3140 C 294.08 1.58664 0.172554 0
M  V30 3141 C 294.28 1.19925 1.61926 0
M  V30 3142 O 293.336 0.916534 2.35278 0
M  V30 3143 C 294.649 3.00463 -0.119262 0
M  V30 3144 C 296.197 3.12945 -0.0584396 0
M  V30 3145 C 296.672 4.56857 -0.323408 0
M  V30 3146 N 298.163 4.62403 -0.271612 0
M  V30 3147 C 298.898 5.71626 -0.450639 0
M  V30 3148 N 298.394 6.89362 -0.689384 0
M  V30 3149 N 300.187 5.60775 -0.385701 0
M  V30 3150 H 292.338 1.79994 -1.12765 0
M  V30 3151 H 294.601 0.834808 -0.449222 0
M  V30 3152 H 294.307 3.33326 -1.12192 0
M  V30 3153 H 294.181 3.72659 0.583544 0
M  V30 3154 H 296.568 2.79902 0.934805 0
M  V30 3155 H 296.649 2.4316 -0.794144 0
M  V30 3156 H 296.293 4.9061 -1.31392 0
M  V30 3157 H 296.223 5.24816 0.43305 0
M  V30 3158 H 298.714 3.77785 -0.0932256 0
M  V30 3159 H 299.027 7.68489 -0.815113 0
M  V30 3160 H 297.372 6.91196 -0.726142 0
M  V30 3161 H 300.563 4.67674 -0.199687 0
M  V30 3162 H 300.736 6.4584 -0.528646 0
M  V30 3163 N 294.142 -0.090211 1.57342 0
M  V30 3164 C 295.391 -0.791531 1.8552 0
M  V30 3165 C 295.704 -1.79659 0.773441 0
M  V30 3166 O 296.91 -2.54616 0.942497 0
M  V30 3167 C 295.366 -1.45856 3.2902 0
M  V30 3168 C 294.974 -0.493017 4.45279 0
M  V30 3169 C 296.718 -2.14332 3.66418 0
M  V30 3170 C 294.625 -1.16491 5.79814 0
M  V30 3171 H 293.555 -0.299356 0.692027 0
M  V30 3172 H 296.206 -0.0445343 1.83446 0
M  V30 3173 H 294.588 -2.25318 3.2565 0
M  V30 3174 H 295.762 0.270464 4.60006 0
M  V30 3175 H 294.077 0.0863061 4.16311 0
M  V30 3176 H 296.674 -2.65344 4.64216 0
M  V30 3177 H 297.017 -2.93447 2.95287 0
M  V30 3178 H 297.55 -1.41724 3.71698 0
M  V30 3179 H 294.289 -0.41447 6.54188 0
M  V30 3180 H 293.809 -1.8997 5.68921 0
M  V30 3181 H 295.488 -1.69001 6.24538 0
M  V30 3182 N 295.62 -1.53406 -0.361157 0
M  V30 3183 C 297.031 -1.61442 -0.937728 0
M  V30 3184 C 297.382 -0.48461 -1.90121 0
M  V30 3185 O 296.507 0.388312 -2.12888 0
M  V30 3186 C 297.102 -2.92624 -1.70753 0
M  V30 3187 C 295.661 -3.02981 -2.23337 0
M  V30 3188 C 294.808 -2.5677 -1.04712 0
M  V30 3189 H 297.759 -1.58083 -0.139816 0
M  V30 3190 H 297.78 -2.80675 -2.56908 0
M  V30 3191 H 297.292 -3.74834 -1.00604 0
M  V30 3192 H 295.393 -2.25368 -2.96715 0
M  V30 3193 H 295.506 -4.0814 -2.50916 0
M  V30 3194 H 293.87 -2.11752 -1.41539 0
M  V30 3195 H 294.653 -3.41402 -0.360539 0
M  V30 3196 N 297.098 0.621204 -1.44841 0
M  V30 3197 C 298.061 1.71459 -1.521 0
M  V30 3198 C 299.061 1.55696 -0.401933 0
M  V30 3199 O 300.251 1.61011 -0.664925 0
M  V30 3200 C 297.383 3.10624 -1.40447 0
M  V30 3201 H 298.576 1.66394 -2.49506 0
M  V30 3202 H 296.129 0.835745 -1.3208 0
M  V30 3203 H 296.864 3.21277 -0.441737 0
M  V30 3204 H 296.649 3.23473 -2.21602 0
M  V30 3205 H 298.139 3.90293 -1.4853 0
M  V30 3206 N 298.576 1.31904 0.862503 0
M  V30 3207 C 299.853 1.12644 1.59908 0
M  V30 3208 C 300.233 -0.316104 2.0872 0
M  V30 3209 O 299.581 -1.31145 1.87118 0
M  V30 3210 C 299.791 2.1472 2.7513 0
M  V30 3211 C 301.139 2.47637 3.44907 0
M  V30 3212 O 302.163 2.13205 2.85346 0
M  V30 3213 O 301.022 3.06632 4.52371 0
M  V30 3214 H 298.116 0.43416 0.703871 0
M  V30 3215 H 300.662 1.43408 0.907314 0
M  V30 3216 H 299.434 3.1172 2.3653 0
M  V30 3217 H 299.057 1.84905 3.51989 0
M  V30 3218 N 300.054 -1.07777 1.14986 0
M  V30 3219 C 301.303 -1.79669 0.916617 0
M  V30 3220 C 301.616 -1.87474 -0.557917 0
M  V30 3221 O 302.822 -2.55845 -0.908617 0
M  V30 3222 C 301.278 -3.22848 1.59051 0
M  V30 3223 C 300.886 -3.23257 3.10176 0
M  V30 3224 C 302.63 -3.99379 1.43864 0
M  V30 3225 C 300.537 -4.61063 3.70372 0
M  V30 3226 H 299.467 -0.673349 0.33929 0
M  V30 3227 H 302.118 -1.21003 1.37951 0
M  V30 3228 H 300.5 -3.8168 1.0553 0
M  V30 3229 H 301.674 -2.74095 3.70417 0
M  V30 3230 H 299.989 -2.60222 3.25074 0
M  V30 3231 H 302.586 -5.0122 1.86232 0
M  V30 3232 H 302.929 -4.14511 0.385564 0
M  V30 3233 H 303.462 -3.47032 1.94457 0
M  V30 3234 H 300.201 -4.51135 4.7556 0
M  V30 3235 H 299.721 -5.1048 3.14913 0
M  V30 3236 H 301.4 -5.30034 3.71043 0
M  V30 3237 N 301.532 -0.945985 -1.26051 0
M  V30 3238 C 302.948 -0.649045 -1.45807 0
M  V30 3239 C 303.148 0.796158 -1.85104 0
M  V30 3240 O 302.204 1.57233 -1.97571 0
M  V30 3241 C 303.517 -1.61458 -2.53677 0
M  V30 3242 C 305.065 -1.62481 -2.67524 0
M  V30 3243 C 305.54 -2.57776 -3.7857 0
M  V30 3244 N 307.031 -2.5609 -3.85969 0
M  V30 3245 C 307.766 -3.26508 -4.7136 0
M  V30 3246 N 307.262 -4.0637 -5.61102 0
M  V30 3247 N 309.055 -3.15437 -4.65248 0
M  V30 3248 H 301.206 -1.88005 -0.988328 0
M  V30 3249 H 303.469 -0.808198 -0.4955 0
M  V30 3250 H 303.175 -2.64644 -2.31638 0
M  V30 3251 H 303.049 -1.37036 -3.51427 0
M  V30 3252 H 305.436 -0.600167 -2.88933 0
M  V30 3253 H 305.517 -1.90958 -1.70202 0
M  V30 3254 H 305.161 -3.60361 -3.57913 0
M  V30 3255 H 305.091 -2.26587 -4.75359 0
M  V30 3256 H 307.582 -1.98105 -3.21812 0
M  V30 3257 H 307.895 -4.57042 -6.23164 0
M  V30 3258 H 306.24 -4.10469 -5.60839 0
M  V30 3259 H 309.431 -2.52525 -3.94143 0
M  V30 3260 H 309.604 -3.70584 -5.31575 0
M  V30 3261 N 303.011 1.40521 -0.713556 0
M  V30 3262 C 303.941 2.33381 -0.0743864 0
M  V30 3263 C 304.922 1.52784 0.747735 0
M  V30 3264 O 306.107 1.81258 0.697071 0
M  V30 3265 C 303.237 3.36748 0.849598 0
M  V30 3266 C 302.191 4.27793 0.133247 0
M  V30 3267 C 301.517 5.21679 1.17281 0
M  V30 3268 C 302.817 5.12415 -1.01134 0
M  V30 3269 H 304.511 2.87081 -0.850007 0
M  V30 3270 H 302.057 1.38034 -0.410201 0
M  V30 3271 H 304.01 4.00648 1.30612 0
M  V30 3272 H 302.734 2.81439 1.65709 0
M  V30 3273 H 301.393 3.65342 -0.303426 0
M  V30 3274 H 301.041 4.62677 1.9733 0
M  V30 3275 H 300.741 5.83435 0.698397 0
M  V30 3276 H 302.265 5.88456 1.62947 0
M  V30 3277 H 303.679 5.69781 -0.634274 0
M  V30 3278 H 302.076 5.83203 -1.41399 0
M  V30 3279 H 303.146 4.48514 -1.84292 0
M  V30 3280 N 304.489 0.459591 1.5075 0
M  V30 3281 C 305.717 -0.0973749 2.06671 0
M  V30 3282 C 306.132 -1.34524 1.32472 0
M  V30 3283 O 305.489 -1.7827 0.390634 0
M  V30 3284 C 305.54 -0.39714 3.59312 0
M  V30 3285 O 305.261 0.801214 4.30711 0
M  V30 3286 C 306.762 -1.00234 4.31819 0
M  V30 3287 H 303.982 0.00195854 0.670997 0
M  V30 3288 H 306.526 0.645072 1.94059 0
M  V30 3289 H 304.681 -1.08951 3.71764 0
M  V30 3290 H 305.095 0.538857 5.21725 0
M  V30 3291 H 306.569 -1.16193 5.39632 0
M  V30 3292 H 307.046 -1.98939 3.91561 0
M  V30 3293 H 307.652 -0.348699 4.23868 0
M  V30 3294 N 305.967 -1.56429 0.191757 0
M  V30 3295 C 306.877 -2.22541 -0.742481 0
M  V30 3296 C 307.893 -1.22342 -1.23727 0
M  V30 3297 O 309.069 -1.55069 -1.28513 0
M  V30 3298 C 306.134 -2.8692 -1.94623 0
M  V30 3299 C 305.195 -4.02378 -1.49633 0
M  V30 3300 C 304.428 -4.63678 -2.6427 0
M  V30 3301 O 304.651 -4.23895 -3.81666 0
M  V30 3302 O 303.585 -5.53202 -2.37174 0
M  V30 3303 H 307.411 -3.02977 -0.209462 0
M  V30 3304 H 304.996 -1.49353 -0.0373832 0
M  V30 3305 H 306.878 -3.27663 -2.64982 0
M  V30 3306 H 305.553 -2.09466 -2.46791 0
M  V30 3307 H 304.46 -3.66265 -0.761636 0
M  V30 3308 H 305.793 -4.81487 -1.02134 0
M  V30 3309 N 307.445 0.0818655 -1.57387 0
M  V30 3310 C 308.691 0.784074 -1.8703 0
M  V30 3311 C 309.024 1.77729 -0.782689 0
M  V30 3312 O 308.299 1.93384 0.208051 0
M  V30 3313 C 308.582 1.50105 -3.27323 0
M  V30 3314 C 308.435 0.524925 -4.46727 0
M  V30 3315 C 309.754 2.44843 -3.65705 0
M  V30 3316 H 306.873 0.283582 -0.680257 0
M  V30 3317 H 309.515 0.0474352 -1.89941 0
M  V30 3318 H 307.665 2.12897 -3.24972 0
M  V30 3319 H 309.337 -0.0970111 -4.61198 0
M  V30 3320 H 307.58 -0.160606 -4.33503 0
M  V30 3321 H 308.251 1.064 -5.41648 0
M  V30 3322 H 310.727 1.92135 -3.69085 0
M  V30 3323 H 309.603 2.92018 -4.64776 0
M  V30 3324 H 309.864 3.29197 -2.95096 0
M  V30 3325 N 308.923 1.53595 0.353017 0
M  V30 3326 C 310.151 1.74311 1.1146 0
M  V30 3327 C 310.566 0.477854 1.82653 0
M  V30 3328 O 309.923 -0.549977 1.74016 0
M  V30 3329 C 309.974 2.91694 2.13534 0
M  V30 3330 O 309.695 4.13325 1.45238 0
M  V30 3331 C 311.196 3.24384 3.02142 0
M  V30 3332 H 308.416 0.582669 0.332773 0
M  V30 3333 H 310.96 2.00386 0.408107 0
M  V30 3334 H 309.115 2.67977 2.79763 0
M  V30 3335 H 309.529 4.79148 2.13349 0
M  V30 3336 H 311.003 4.09893 3.69718 0
M  V30 3337 H 311.48 2.40282 3.67643 0
M  V30 3338 H 312.086 3.50073 2.41514 0
M  V30 3339 N 310.401 -0.613514 1.45168 0
M  V30 3340 C 311.678 -1.37263 1.39349 0
M  V30 3341 C 312.058 -2.11012 0.0610848 0
M  V30 3342 O 311.406 -2.07502 -0.956825 0
M  V30 3343 C 311.616 -2.3244 2.60332 0
M  V30 3344 C 312.964 -2.9523 3.05163 0
M  V30 3345 O 313.988 -2.42762 2.60663 0
M  V30 3346 O 312.847 -3.90454 3.82372 0
M  V30 3347 H 309.941 -0.615188 0.552696 0
M  V30 3348 H 312.487 -0.637097 1.57287 0
M  V30 3349 H 311.259 -1.77164 3.48896 0
M  V30 3350 H 310.882 -3.13383 2.44698 0
M  V30 3351 N 311.879 -1.3236 -0.855495 0
M  V30 3352 C 312.809 -1.23833 -1.97958 0
M  V30 3353 C 313.79 -0.122361 -1.69659 0
M  V30 3354 O 314.975 -0.30939 -1.9172 0
M  V30 3355 C 312.105 -0.959772 -3.33775 0
M  V30 3356 C 311.059 -2.03689 -3.76424 0
M  V30 3357 C 310.385 -1.61075 -5.09862 0
M  V30 3358 C 311.685 -3.4518 -3.9198 0
M  V30 3359 H 313.379 -2.1788 -2.0535 0
M  V30 3360 H 310.925 -1.04891 -0.986605 0
M  V30 3361 H 312.878 -0.886678 -4.11966 0
M  V30 3362 H 311.602 0.0163404 -3.26596 0
M  V30 3363 H 310.261 -2.10012 -3.00484 0
M  V30 3364 H 309.909 -0.622107 -4.99138 0
M  V30 3365 H 309.609 -2.33143 -5.39368 0
M  V30 3366 H 311.133 -1.55201 -5.90546 0
M  V30 3367 H 312.547 -3.4145 -4.60526 0
M  V30 3368 H 310.944 -4.1559 -4.32903 0
M  V30 3369 H 312.014 -3.84903 -2.94919 0
M  V30 3370 N 313.357 1.07166 -1.15556 0
M  V30 3371 C 314.287 2.16403 -0.877046 0
M  V30 3372 C 315.268 1.69217 0.173111 0
M  V30 3373 O 316.453 1.94181 0.027084 0
M  V30 3374 C 313.583 3.45349 -0.367632 0
M  V30 3375 C 312.537 4.05995 -1.35468 0
M  V30 3376 C 311.863 5.30045 -0.704038 0
M  V30 3377 C 313.163 4.45804 -2.72132 0
M  V30 3378 H 314.857 2.39959 -1.79053 0
M  V30 3379 H 312.403 1.15325 -0.862331 0
M  V30 3380 H 314.356 4.21095 -0.160317 0
M  V30 3381 H 313.08 3.21385 0.581326 0
M  V30 3382 H 311.739 3.32296 -1.54839 0
M  V30 3383 H 311.387 5.02373 0.251128 0
M  V30 3384 H 311.087 5.71579 -1.36277 0
M  V30 3385 H 312.611 6.08495 -0.50654 0
M  V30 3386 H 314.025 5.12671 -2.56595 0
M  V30 3387 H 312.422 4.98296 -3.34397 0
M  V30 3388 H 313.492 3.57083 -3.28054 0
M  V30 3389 N 314.835 0.952656 1.25548 0
M  V30 3390 C 316.081 0.607272 1.93494 0
M  V30 3391 C 316.414 -0.853245 1.74452 0
M  V30 3392 O 315.689 -1.61194 1.08843 0
M  V30 3393 C 315.972 0.96435 3.46947 0
M  V30 3394 C 315.825 2.48045 3.75225 0
M  V30 3395 C 317.144 0.487987 4.37386 0
M  V30 3396 H 314.263 0.222096 0.702739 0
M  V30 3397 H 316.905 1.18895 1.48203 0
M  V30 3398 H 315.055 0.469361 3.85654 0
M  V30 3399 H 316.727 3.04905 3.46166 0
M  V30 3400 H 314.97 2.919 3.209 0
M  V30 3401 H 315.641 2.6808 4.82532 0
M  V30 3402 H 318.117 0.912558 4.0597 0
M  V30 3403 H 316.993 0.766547 5.43521 0
M  V30 3404 H 317.254 -0.612063 4.37843 0
M  V30 3405 N 316.313 -1.40141 0.720998 0
M  V30 3406 C 317.59 -1.94677 0.189757 0
M  V30 3407 C 317.97 -1.65879 -1.30566 0
M  V30 3408 O 317.318 -0.979391 -2.06447 0
M  V30 3409 C 317.528 -3.45279 0.508304 0
M  V30 3410 C 318.876 -4.22209 0.449934 0
M  V30 3411 O 319.9 -3.53413 0.444677 0
M  V30 3412 O 318.759 -5.44788 0.432189 0
M  V30 3413 H 315.853 -0.826459 0.0299026 0
M  V30 3414 H 318.399 -1.49719 0.7989 0
M  V30 3415 H 317.171 -3.59619 1.54239 0
M  V30 3416 H 316.794 -3.97386 -0.130525 0
M  V30 3417 N 317.792 -0.46758 -1.50504 0
M  V30 3418 C 318.702 0.33382 -2.32213 0
M  V30 3419 C 319.718 0.999323 -1.42441 0
M  V30 3420 O 320.894 0.988068 -1.75497 0
M  V30 3421 C 317.959 1.4035 -3.17022 0
M  V30 3422 C 317.02 0.754961 -4.2261 0
M  V30 3423 C 316.253 1.77367 -5.03365 0
M  V30 3424 O 316.476 2.99976 -4.8515 0
M  V30 3425 O 315.41 1.34744 -5.86624 0
M  V30 3426 H 319.236 -0.334067 -3.01857 0
M  V30 3427 H 316.821 -0.229496 -1.47627 0
M  V30 3428 H 318.703 2.02318 -3.69656 0
M  V30 3429 H 317.378 2.05492 -2.5011 0
M  V30 3430 H 316.285 0.0964244 -3.73976 0
M  V30 3431 H 317.618 0.146545 -4.91982 0
M  V30 3432 N 319.27 1.56325 -0.20005 0
M  V30 3433 C 320.495 2.02548 0.44597 0
M  V30 3434 C 320.92 1.07922 1.5406 0
M  V30 3435 O 320.278 0.0635775 1.81188 0
M  V30 3436 C 320.326 3.47175 0.974761 0
M  V30 3437 O 319.43 3.55671 2.08739 0
M  V30 3438 H 318.771 0.655862 0.103638 0
M  V30 3439 H 321.301 2.02201 -0.312381 0
M  V30 3440 H 321.311 3.87067 1.2901 0
M  V30 3441 H 319.986 4.15538 0.17347 0
M  V30 3442 H 318.563 3.27657 1.78032 0
M  V30 3443 N 320.748 -0.0735177 1.57428 0
M  V30 3444 C 321.973 -0.789787 1.91774 0
M  V30 3445 C 322.398 -1.70413 0.796306 0
M  V30 3446 O 321.756 -1.79555 -0.250961 0
M  V30 3447 C 321.804 -1.5609 3.25067 0
M  V30 3448 O 320.908 -2.67144 3.14178 0
M  V30 3449 H 320.249 -0.215582 0.628029 0
M  V30 3450 H 322.779 -0.0422781 2.04556 0
M  V30 3451 H 322.789 -1.94052 3.58898 0
M  V30 3452 H 321.464 -0.890015 4.06265 0
M  V30 3453 H 320.041 -2.32052 2.91901 0
M  V30 3454 N 322.226 -1.5378 -0.344866 0
M  V30 3455 C 323.473 -1.70963 -1.08526 0
M  V30 3456 C 323.801 -0.472126 -1.88683 0
M  V30 3457 O 323.056 0.546116 -1.87926 0
M  V30 3458 C 323.355 -2.92407 -2.05506 0
M  V30 3459 C 323.021 -4.28066 -1.41671 0
M  V30 3460 C 321.683 -4.64951 -1.2399 0
M  V30 3461 C 324.035 -5.12344 -0.956726 0
M  V30 3462 C 321.363 -5.83733 -0.589277 0
M  V30 3463 C 323.715 -6.3179 -0.320015 0
M  V30 3464 C 322.379 -6.67372 -0.130881 0
M  V30 3465 H 321.649 -0.625598 -0.397124 0
M  V30 3466 H 324.296 -1.87995 -0.36469 0
M  V30 3467 H 322.601 -2.69973 -2.8394 0
M  V30 3468 H 324.298 -3.02895 -2.62784 0
M  V30 3469 H 320.888 -3.99034 -1.56429 0
M  V30 3470 H 325.072 -4.8438 -1.08118 0
M  V30 3471 H 320.328 -6.09877 -0.431344 0
M  V30 3472 H 324.502 -6.96386 0.0445072 0
M  V30 3473 H 322.129 -7.59273 0.375318 0
M  V30 3474 N 323.704 0.605807 -1.45491 0
M  V30 3475 C 324.932 1.39136 -1.5313 0
M  V30 3476 C 325.347 1.88082 -0.164507 0
M  V30 3477 O 324.704 1.62316 0.834247 0
M  V30 3478 C 324.755 2.59463 -2.51716 0
M  V30 3479 O 324.476 2.12551 -3.83084 0
M  V30 3480 C 325.977 3.52301 -2.6907 0
M  V30 3481 H 323.197 0.425849 -0.51855 0
M  V30 3482 H 325.741 0.73865 -1.90694 0
M  V30 3483 H 323.896 3.20772 -2.17219 0
M  V30 3484 H 324.31 2.90744 -4.36541 0
M  V30 3485 H 325.784 4.33271 -3.42024 0
M  V30 3486 H 326.261 4.02757 -1.75167 0
M  V30 3487 H 326.867 2.96845 -3.04571 0
M  V30 3488 N 325.182 1.32811 0.848464 0
M  V30 3489 C 326.43 1.23479 1.59991 0
M  V30 3490 C 326.751 -0.201853 1.93952 0
M  V30 3491 O 326.021 -1.12818 1.60153 0
M  V30 3492 H 324.601 0.454034 0.593179 0
M  V30 3493 H 327.263 1.66412 1.01455 0
M  V30 3494 H 326.359 1.82178 2.53412 0
M  V30 3495 N 326.66 -1.06551 1.16123 0
M  V30 3496 C 327.57 -2.17484 0.879662 0
M  V30 3497 C 328.586 -1.73377 -0.147104 0
M  V30 3498 O 329.762 -2.01379 0.0289128 0
M  V30 3499 C 326.827 -3.44591 0.381829 0
M  V30 3500 C 325.888 -4.0322 1.4735 0
M  V30 3501 C 325.121 -5.24261 0.999324 0
M  V30 3502 O 325.344 -5.70198 -0.151957 0
M  V30 3503 O 324.278 -5.74775 1.78653 0
M  V30 3504 H 328.104 -2.44075 1.80724 0
M  V30 3505 H 325.689 -1.16042 0.940992 0
M  V30 3506 H 327.571 -4.21254 0.111053 0
M  V30 3507 H 326.246 -3.19532 -0.51777 0
M  V30 3508 H 325.153 -3.2806 1.79798 0
M  V30 3509 H 326.486 -4.32568 2.34831 0
M  V30 3510 N 328.138 -0.959301 -1.25041 0
M  V30 3511 C 329.101 -0.487677 -2.23952 0
M  V30 3512 C 330.101 0.41119 -1.55454 0
M  V30 3513 O 331.291 0.207825 -1.72956 0
M  V30 3514 C 328.423 0.294807 -3.39623 0
M  V30 3515 H 329.616 -1.36198 -2.67189 0
M  V30 3516 H 327.169 -0.743042 -1.37508 0
M  V30 3517 H 327.904 1.18658 -3.01813 0
M  V30 3518 H 327.689 -0.35012 -3.90534 0
M  V30 3519 H 329.179 0.614089 -4.1306 0
M  V30 3520 N 329.616 1.39756 -0.72842 0
M  V30 3521 C 330.526 2.34444 -0.0855374 0
M  V30 3522 C 331.542 1.57976 0.729356 0
M  V30 3523 O 332.718 1.90301 0.659346 0
M  V30 3524 C 329.783 3.36965 0.815798 0
M  V30 3525 C 328.844 4.29299 -0.0105996 0
M  V30 3526 C 328.077 5.26923 0.84781 0
M  V30 3527 O 328.3 5.30859 2.08673 0
M  V30 3528 O 327.234 6.01249 0.279969 0
M  V30 3529 H 331.06 2.91065 -0.866892 0
M  V30 3530 H 328.645 1.4117 -0.48902 0
M  V30 3531 H 330.527 3.99804 1.33171 0
M  V30 3532 H 329.202 2.82739 1.57608 0
M  V30 3533 H 328.109 3.69703 -0.571877 0
M  V30 3534 H 329.442 4.86712 -0.73295 0
M  V30 3535 N 331.094 0.475555 1.50254 0
M  V30 3536 C 332.505 0.0215174 1.86688 0
M  V30 3537 C 332.856 -1.38467 1.39001 0
M  V30 3538 O 331.981 -2.02732 0.756894 0
M  V30 3539 C 332.576 0.0322715 3.38785 0
M  V30 3540 C 331.135 -0.366314 3.74613 0
M  V30 3541 C 330.282 0.415832 2.74164 0
M  V30 3542 H 333.233 0.689612 1.42934 0
M  V30 3543 H 333.254 -0.76889 3.7265 0
M  V30 3544 H 332.766 1.05584 3.73462 0
M  V30 3545 H 330.867 -1.39406 3.45538 0
M  V30 3546 H 330.98 -0.064555 4.79057 0
M  V30 3547 H 329.344 -0.131048 2.54363 0
M  V30 3548 H 330.127 1.43899 3.11686 0
M  V30 3549 N 332.573 -1.56217 0.208337 0
M  V30 3550 C 333.813 -1.99849 -0.428927 0
M  V30 3551 C 334.177 -1.09262 -1.57879 0
M  V30 3552 O 335.378 -1.42185 -2.28116 0
M  V30 3553 C 333.649 -3.46777 -0.864879 0
M  V30 3554 S 335.208 -4.12434 -1.49811 0
M  V30 3555 H 332.026 -0.697742 -0.136665 0
M  V30 3556 H 334.628 -1.92953 0.314519 0
M  V30 3557 H 333.332 -4.10396 -0.0181326 0
M  V30 3558 H 332.863 -3.57518 -1.64147 0
M  V30 3559 H 334.878 -4.10532 -2.78707 0
M  V30 3560 N 334.051 0.0651679 -1.57465 0
M  V30 3561 C 335.276 0.779605 -1.9219 0
M  V30 3562 C 335.701 1.69988 -0.805333 0
M  V30 3563 O 335.059 1.79685 0.241435 0
M  V30 3564 C 335.107 1.54364 -3.2589 0
M  V30 3565 O 334.211 2.65474 -3.1559 0
M  V30 3566 H 333.552 0.212249 -0.629163 0
M  V30 3567 H 336.082 0.0314294 -2.04576 0
M  V30 3568 H 336.092 1.92146 -3.59922 0
M  V30 3569 H 334.767 0.868457 -4.06732 0
M  V30 3570 H 333.344 2.30501 -2.93128 0
M  V30 3571 N 335.529 1.53961 0.336706 0
M  V30 3572 C 336.476 1.82428 1.41381 0
M  V30 3573 C 337.446 0.670444 1.51968 0
M  V30 3574 O 338.631 0.915565 1.67398 0
M  V30 3575 C 335.771 2.04564 2.77934 0
M  V30 3576 C 334.884 3.32267 2.76084 0
M  V30 3577 C 334.019 3.44434 4.04399 0
M  V30 3578 C 333.058 4.66061 3.96804 0
M  V30 3579 N 332.195 4.75224 5.16823 0
M  V30 3580 H 337.035 2.74324 1.16405 0
M  V30 3581 H 334.572 1.35869 0.563752 0
M  V30 3582 H 336.53 2.15388 3.57301 0
M  V30 3583 H 335.16 1.15974 3.01247 0
M  V30 3584 H 334.212 3.3025 1.88784 0
M  V30 3585 H 335.524 4.21733 2.66351 0
M  V30 3586 H 334.678 3.54728 4.92192 0
M  V30 3587 H 333.417 2.53037 4.16921 0
M  V30 3588 H 332.422 4.55838 3.07396 0
M  V30 3589 H 333.647 5.58829 3.85858 0
M  V30 3590 H 331.593 3.86739 5.29876 0
M  V30 3591 H 331.51 5.58636 5.09374 0
M  V30 3592 H 332.778 4.89835 6.06367 0
M  V30 3593 N 337.007 -0.598083 1.45811 0
M  V30 3594 C 338.235 -1.38322 1.53866 0
M  V30 3595 C 338.65 -1.87992 0.174479 0
M  V30 3596 O 338.007 -1.62756 -0.825627 0
M  V30 3597 C 338.058 -2.58125 2.53089 0
M  V30 3598 O 337.779 -2.10516 3.84206 0
M  V30 3599 C 339.28 -3.50869 2.70935 0
M  V30 3600 H 336.5 -0.423093 0.520801 0
M  V30 3601 H 339.044 -0.728527 1.91083 0
M  V30 3602 H 337.199 -3.19615 2.18917 0
M  V30 3603 H 337.613 -2.88425 4.38077 0
M  V30 3604 H 339.087 -4.31451 3.44317 0
M  V30 3605 H 339.564 -4.01822 1.77301 0
M  V30 3606 H 340.17 -2.95225 3.06141 0
M  V30 3607 N 338.485 -1.33259 -0.841409 0
M  V30 3608 C 339.762 -1.15174 -1.58096 0
M  V30 3609 C 340.142 0.282858 -2.09196 0
M  V30 3610 O 339.49 1.28151 -1.89181 0
M  V30 3611 C 339.7 -2.1907 -2.71679 0
M  V30 3612 C 341.048 -2.53093 -3.40924 0
M  V30 3613 O 342.072 -2.17717 -2.81918 0
M  V30 3614 O 340.931 -3.1379 -4.47435 0
M  V30 3615 H 338.025 -0.445303 -0.696875 0
M  V30 3616 H 340.571 -1.44833 -0.884385 0
M  V30 3617 H 339.343 -3.15443 -2.31541 0
M  V30 3618 H 338.966 -1.90481 -3.49002 0
M  V30 3619 N 339.963 1.05934 -1.16686 0
M  V30 3620 C 341.188 1.83029 -0.975455 0
M  V30 3621 C 341.613 1.82096 0.471452 0
M  V30 3622 O 340.971 1.22443 1.33706 0
M  V30 3623 C 341.019 3.27372 -1.51195 0
M  V30 3624 O 340.123 4.06054 -0.720701 0
M  V30 3625 H 339.464 0.566194 -0.346872 0
M  V30 3626 H 341.994 1.33541 -1.55009 0
M  V30 3627 H 342.004 3.78186 -1.53099 0
M  V30 3628 H 340.679 3.27366 -2.56523 0
M  V30 3629 H 339.256 3.64812 -0.772458 0
M  V30 3630 N 341.441 0.965919 1.2453 0
M  V30 3631 C 342.852 0.665929 1.7442 0
M  V30 3632 C 343.203 -0.818407 1.78316 0
M  V30 3633 O 342.328 -1.64037 1.41141 0
M  V30 3634 C 342.923 1.20211 3.16757 0
M  V30 3635 C 341.482 0.952059 3.6416 0
M  V30 3636 C 340.629 1.33848 2.42858 0
M  V30 3637 H 343.58 1.14144 1.10258 0
M  V30 3638 H 343.601 0.567544 3.76244 0
M  V30 3639 H 343.113 2.28244 3.13889 0
M  V30 3640 H 341.214 -0.112821 3.72429 0
M  V30 3641 H 341.327 1.59645 4.51719 0
M  V30 3642 H 339.691 0.756864 2.43195 0
M  V30 3643 H 340.474 2.42827 2.42673 0
M  V30 3644 N 342.919 -1.39368 0.735821 0
M  V30 3645 C 343.849 -2.33234 0.111506 0
M  V30 3646 C 344.83 -1.53954 -0.723334 0
M  V30 3647 O 346.015 -1.82344 -0.668147 0
M  V30 3648 C 343.145 -3.38057 -0.795917 0
M  V30 3649 C 342.099 -4.2795 -0.065172 0
M  V30 3650 C 341.425 -5.23479 -1.08967 0
M  V30 3651 C 342.725 -5.10741 1.09273 0
M  V30 3652 H 344.419 -2.85692 0.895571 0
M  V30 3653 H 341.965 -1.37364 0.432109 0
M  V30 3654 H 343.918 -4.02675 -1.24221 0
M  V30 3655 H 342.642 -2.8404 -1.61211 0
M  V30 3656 H 341.301 -3.64813 0.361511 0
M  V30 3657 H 340.949 -4.65758 -1.89944 0
M  V30 3658 H 340.649 -5.84472 -0.605489 0
M  V30 3659 H 342.173 -5.90974 -1.53565 0
M  V30 3660 H 343.587 -5.68699 0.724841 0
M  V30 3661 H 341.984 -5.8088 1.50659 0
M  V30 3662 H 343.054 -4.45525 1.91404 0
M  V30 3663 N 344.397 -0.483516 -1.5 0
M  V30 3664 C 345.625 0.0644831 -2.06799 0
M  V30 3665 C 346.04 1.32399 -1.34596 0
M  V30 3666 O 345.397 1.77626 -0.418946 0
M  V30 3667 C 345.448 0.339927 -3.59898 0
M  V30 3668 O 345.169 -0.869635 -4.29382 0
M  V30 3669 C 346.67 0.933515 -4.33359 0
M  V30 3670 H 343.89 -0.0126333 -0.670881 0
M  V30 3671 H 346.434 -0.675864 -1.93009 0
M  V30 3672 H 344.589 1.03022 -3.7345 0
M  V30 3673 H 345.003 -0.62179 -5.20801 0
M  V30 3674 H 346.477 1.07593 -5.41413 0
M  V30 3675 H 346.954 1.92685 -3.94676 0
M  V30 3676 H 347.56 0.281221 -4.24369 0
M  V30 3677 N 345.875 1.56104 -0.216619 0
M  V30 3678 C 347.123 1.97781 0.415593 0
M  V30 3679 C 347.444 1.10536 1.60645 0
M  V30 3680 O 346.714 0.181303 1.95059 0
M  V30 3681 H 345.294 0.730415 0.156534 0
M  V30 3682 H 347.956 1.92445 -0.308366 0
M  V30 3683 H 347.052 3.03072 0.74525 0
M  V30 3684 N 347.353 -0.0568162 1.57498 0
M  V30 3685 C 348.601 -0.751617 1.87604 0
M  V30 3686 C 348.922 -1.77351 0.81066 0
M  V30 3687 O 348.192 -1.95254 -0.159018 0
M  V30 3688 H 346.772 -0.280583 0.692302 0
M  V30 3689 H 349.434 -0.0293483 1.94878 0
M  V30 3690 H 348.53 -1.25852 2.856 0
M  V30 3691 N 348.832 -1.54138 -0.328536 0
M  V30 3692 C 350.08 -1.71765 -1.06496 0
M  V30 3693 C 350.401 -0.49149 -1.88704 0
M  V30 3694 O 349.671 0.494539 -1.89555 0
M  V30 3695 H 348.251 -0.633295 -0.396164 0
M  V30 3696 H 350.913 -1.91429 -0.366176 0
M  V30 3697 H 350.009 -2.5951 -1.73381 0
M  V30 3698 N 350.31 0.590341 -1.46126 0
M  V30 3699 C 351.587 1.35029 -1.41515 0
M  V30 3700 C 351.967 2.10888 -0.0946472 0
M  V30 3701 O 351.315 2.08998 0.923693 0
M  V30 3702 C 351.525 2.28269 -2.63997 0
M  V30 3703 C 352.873 2.90338 -3.09821 0
M  V30 3704 O 353.897 2.38585 -2.64492 0
M  V30 3705 O 352.756 3.84321 -3.88535 0
M  V30 3706 H 349.85 0.606317 -0.562413 0
M  V30 3707 H 352.396 0.611994 -1.58281 0
M  V30 3708 H 351.168 1.71591 -3.51671 0
M  V30 3709 H 350.791 3.0945 -2.49652 0
M  V30 3710 N 351.788 1.33704 0.83433 0
M  V30 3711 C 352.718 1.26967 1.95963 0
M  V30 3712 C 353.699 0.149337 1.69443 0
M  V30 3713 O 354.884 0.339852 1.91203 0
M  V30 3714 C 352.014 1.01275 3.32206 0
M  V30 3715 C 350.968 2.09652 3.73136 0
M  V30 3716 C 350.294 1.69166 5.07235 0
M  V30 3717 C 351.594 3.51372 3.86439 0
M  V30 3718 H 353.288 2.2112 2.01857 0
M  V30 3719 H 350.834 1.06447 0.969793 0
M  V30 3720 H 352.787 0.952106 4.10503 0
M  V30 3721 H 351.511 0.0356203 3.26581 0
M  V30 3722 H 350.17 2.14766 2.97104 0
M  V30 3723 H 349.818 0.701437 4.98085 0
M  V30 3724 H 349.518 2.41694 5.35591 0
M  V30 3725 H 351.042 1.64576 5.88003 0
M  V30 3726 H 352.456 3.48734 4.55036 0
M  V30 3727 H 350.853 4.22425 4.26236 0
M  V30 3728 H 351.923 3.89546 2.88759 0
M  V30 3729 N 353.266 -1.05314 1.17247 0
M  V30 3730 C 354.494 -1.81971 0.984593 0
M  V30 3731 C 354.909 -1.82929 -0.467166 0
M  V30 3732 O 354.266 -1.25564 -1.32438 0
M  V30 3733 C 354.317 -3.28143 1.51672 0
M  V30 3734 O 354.038 -3.27347 2.91163 0
M  V30 3735 C 355.539 -4.21493 1.37326 0
M  V30 3736 H 352.759 -0.573455 0.348411 0
M  V30 3737 H 355.303 -1.32808 1.55506 0
M  V30 3738 H 353.458 -3.74582 0.988302 0
M  V30 3739 H 353.872 -4.18824 3.15732 0
M  V30 3740 H 355.346 -5.22043 1.79375 0
M  V30 3741 H 355.823 -4.38031 0.320169 0
M  V30 3742 H 356.429 -3.80909 1.89178 0
M  V30 3743 N 354.744 -0.972509 -1.24016 0
M  V30 3744 C 355.972 -0.654803 -1.96265 0
M  V30 3745 C 356.387 0.776708 -1.72083 0
M  V30 3746 O 355.744 1.52171 -1.00748 0
M  V30 3747 C 355.795 -0.92592 -3.49441 0
M  V30 3748 O 355.516 -2.30116 -3.72798 0
M  V30 3749 C 357.017 -0.623068 -4.38899 0
M  V30 3750 H 354.237 -0.243907 -0.6251 0
M  V30 3751 H 356.781 -1.30175 -1.57717 0
M  V30 3752 H 354.936 -0.325108 -3.86033 0
M  V30 3753 H 355.35 -2.38483 -4.67147 0
M  V30 3754 H 356.824 -0.863189 -5.45209 0
M  V30 3755 H 357.301 0.442754 -4.36963 0
M  V30 3756 H 357.907 -1.204 -4.07902 0
M  V30 3757 N 356.222 1.38976 -0.743202 0
M  V30 3758 C 357.152 2.33171 -0.123873 0
M  V30 3759 C 358.133 1.54336 0.71516 0
M  V30 3760 O 359.318 1.82696 0.658467 0
M  V30 3761 C 356.448 3.38474 0.777978 0
M  V30 3762 C 355.402 4.27979 0.0424758 0
M  V30 3763 C 354.728 5.2405 1.06189 0
M  V30 3764 C 356.028 5.10155 -1.1198 0
M  V30 3765 H 357.722 2.85213 -0.910709 0
M  V30 3766 H 355.268 1.37133 -0.439388 0
M  V30 3767 H 357.221 4.03328 1.22084 0
M  V30 3768 H 355.945 2.84891 1.59702 0
M  V30 3769 H 354.604 3.64616 -0.380853 0
M  V30 3770 H 354.252 4.66758 1.87472 0
M  V30 3771 H 353.952 5.84785 0.574485 0
M  V30 3772 H 355.476 5.9178 1.50428 0
M  V30 3773 H 356.89 5.68307 -0.75499 0
M  V30 3774 H 355.287 5.80073 -1.53738 0
M  V30 3775 H 356.357 4.44504 -1.93764 0
M  V30 3776 N 357.7 0.491464 1.49741 0
M  V30 3777 C 358.925 -0.0557177 2.07325 0
M  V30 3778 C 359.35 -1.30925 1.35056 0
M  V30 3779 O 358.708 -1.76733 0.404365 0
M  V30 3780 C 358.756 -0.302074 3.59333 0
M  V30 3781 O 357.86 -1.37868 3.88672 0
M  V30 3782 H 357.201 0.0219956 0.663636 0
M  V30 3783 H 359.731 0.688352 1.92673 0
M  V30 3784 H 359.741 -0.536464 4.04458 0
M  V30 3785 H 358.416 0.61383 4.11345 0
M  V30 3786 H 356.993 -1.12999 3.55367 0
M  V30 3787 N 359.178 -1.55987 0.224894 0
M  V30 3788 C 360.126 -2.21808 -0.700283 0
M  V30 3789 C 361.12 -1.19854 -1.19714 0
M  V30 3790 O 362.326 -1.37925 -1.15658 0
M  V30 3791 H 358.701 -0.711226 -0.244258 0
M  V30 3792 H 360.672 -2.98152 -0.121749 0
M  V30 3793 C 359.421 -2.91444 -1.8962 0
M  V30 3794 H 358.744 -3.69655 -1.52299 0
M  V30 3795 H 360.184 -3.40894 -2.52125 0
M  V30 3796 C 358.643 -1.94098 -2.75368 0
M  V30 3797 O 359.173 -1.46004 -3.74227 0
M  V30 3798 N 357.379 -1.61675 -2.41474 0
M  V30 3799 H 356.926 -2.00979 -1.61137 0
M  V30 3800 H 356.884 -0.968036 -2.99126 0
M  V30 3801 N 360.656 0.0484629 -1.57525 0
M  V30 3802 C 361.905 0.742065 -1.87553 0
M  V30 3803 C 362.218 1.77545 -0.820802 0
M  V30 3804 O 363.424 2.52027 -1.00967 0
M  V30 3805 C 361.88 1.37081 -3.32771 0
M  V30 3806 C 361.488 0.374786 -4.4643 0
M  V30 3807 C 363.232 2.04542 -3.71972 0
M  V30 3808 C 361.139 1.01077 -5.82698 0
M  V30 3809 H 360.069 0.280903 -0.699721 0
M  V30 3810 H 362.72 -0.00411877 -1.835 0
M  V30 3811 H 361.102 2.16605 -3.31509 0
M  V30 3812 H 362.276 -0.392331 -4.59127 0
M  V30 3813 H 360.591 -0.196653 -4.15935 0
M  V30 3814 H 363.188 2.52943 -4.71088 0
M  V30 3815 H 363.531 2.85515 -3.02964 0
M  V30 3816 H 364.064 1.31819 -3.75325 0
M  V30 3817 H 360.803 0.240878 -6.55057 0
M  V30 3818 H 360.323 1.74819 -5.73758 0
M  V30 3819 H 362.002 1.52383 -6.28799 0
M  V30 3820 N 362.134 1.5431 0.320358 0
M  V30 3821 C 363.38 1.72924 1.05949 0
M  V30 3822 C 363.713 0.503185 1.87568 0
M  V30 3823 O 362.988 -0.499839 1.87968 0
M  V30 3824 C 363.271 3.00676 1.98156 0
M  V30 3825 C 363.124 4.3354 1.19845 0
M  V30 3826 C 364.443 3.24198 2.9763 0
M  V30 3827 H 361.562 0.629195 0.383774 0
M  V30 3828 H 364.204 1.87008 0.335854 0
M  V30 3829 H 362.354 2.888 2.59859 0
M  V30 3830 H 364.026 4.57305 0.605773 0
M  V30 3831 H 362.269 4.309 0.500784 0
M  V30 3832 H 362.94 5.19156 1.87567 0
M  V30 3833 H 365.416 3.35557 2.4605 0
M  V30 3834 H 364.292 4.14938 3.59329 0
M  V30 3835 H 364.553 2.41577 3.7026 0
M  V30 3836 N 363.613 -0.582584 1.46437 0
M  V30 3837 C 364.86 -1.34079 1.51753 0
M  V30 3838 C 365.188 -1.93762 0.169299 0
M  V30 3839 O 364.443 -1.76989 -0.835062 0
M  V30 3840 C 364.742 -2.48964 2.56421 0
M  V30 3841 C 364.408 -2.07273 4.00436 0
M  V30 3842 C 363.07 -1.95618 4.39644 0
M  V30 3843 C 365.422 -1.75111 4.90903 0
M  V30 3844 C 362.75 -1.5006 5.67185 0
M  V30 3845 C 365.102 -1.31032 6.18881 0
M  V30 3846 C 363.766 -1.17954 6.56996 0
M  V30 3847 H 363.036 -0.49063 0.555304 0
M  V30 3848 H 365.683 -0.656007 1.79913 0
M  V30 3849 H 363.988 -3.22889 2.21923 0
M  V30 3850 H 365.685 -3.07178 2.57765 0
M  V30 3851 H 362.275 -2.17279 3.69443 0
M  V30 3852 H 366.459 -1.83001 4.61329 0
M  V30 3853 H 361.715 -1.38577 5.95488 0
M  V30 3854 H 365.889 -1.052 6.88408 0
M  V30 3855 H 363.516 -0.824279 7.55718 0
M  V30 3856 N 365.091 -1.34144 -0.827227 0
M  V30 3857 C 366.024 -1.19707 -1.94282 0
M  V30 3858 C 367.002 -0.0897256 -1.62352 0
M  V30 3859 O 368.186 -0.254095 -1.8678 0
M  V30 3860 C 365.313 -0.838646 -3.28153 0
M  V30 3861 C 364.359 -1.95514 -3.79047 0
M  V30 3862 S 365.192 -3.56793 -3.99323 0
M  V30 3863 C 366.348 -3.22983 -5.36127 0
M  V30 3864 H 366.581 -2.1414 -2.06231 0
M  V30 3865 H 364.114 -1.19121 -0.982321 0
M  V30 3866 H 366.072 -0.638637 -4.05502 0
M  V30 3867 H 364.733 0.0872776 -3.13979 0
M  V30 3868 H 363.926 -1.658 -4.75948 0
M  V30 3869 H 363.528 -2.11241 -3.08631 0
M  V30 3870 H 365.82 -2.74531 -6.19386 0
M  V30 3871 H 366.763 -4.19008 -5.70822 0
M  V30 3872 H 367.171 -2.59276 -5.01434 0
M  V30 3873 N 366.569 1.04691 -1.17803 0
M  V30 3874 C 367.817 1.7743 -0.967617 0
M  V30 3875 C 368.138 1.88359 0.504574 0
M  V30 3876 O 367.408 1.40402 1.36617 0
M  V30 3877 H 365.988 0.657242 -0.355024 0
M  V30 3878 H 368.65 1.2638 -1.48371 0
M  V30 3879 H 367.746 2.78924 -1.40027 0
M  V30 3880 N 368.047 0.979072 1.23499 0
M  V30 3881 C 369.275 0.665202 1.95915 0
M  V30 3882 C 369.69 -0.767571 1.72493 0
M  V30 3883 O 369.047 -1.51635 1.01554 0
M  V30 3884 C 369.098 0.944438 3.48945 0
M  V30 3885 O 368.819 2.3209 3.71572 0
M  V30 3886 C 370.32 0.646336 4.38563 0
M  V30 3887 H 367.54 0.247218 0.623798 0
M  V30 3888 H 370.084 1.31009 1.57025 0
M  V30 3889 H 368.239 0.345575 3.85856 0
M  V30 3890 H 368.653 2.40957 4.65876 0
M  V30 3891 H 370.127 0.892091 5.44744 0
M  V30 3892 H 370.604 -0.419575 4.37191 0
M  V30 3893 H 371.21 1.22562 4.07258 0
M  V30 3894 N 369.525 -1.3858 0.750561 0
M  V30 3895 C 370.455 -2.33102 0.136237 0
M  V30 3896 C 371.436 -1.54713 -0.706965 0
M  V30 3897 O 372.621 -1.83043 -0.648769 0
M  V30 3898 C 369.751 -3.38882 -0.760017 0
M  V30 3899 C 368.705 -4.27995 -0.0197785 0
M  V30 3900 C 368.031 -5.24605 -1.03408 0
M  V30 3901 C 369.331 -5.09554 1.14684 0
M  V30 3902 H 371.025 -2.84726 0.925822 0
M  V30 3903 H 368.571 -1.36898 0.446654 0
M  V30 3904 H 370.524 -4.0397 -1.19943 0
M  V30 3905 H 369.248 -2.85734 -1.58189 0
M  V30 3906 H 367.907 -3.64409 0.400184 0
M  V30 3907 H 367.555 -4.67746 -1.84994 0
M  V30 3908 H 367.255 -5.85081 -0.543464 0
M  V30 3909 H 368.779 -5.9257 -1.47288 0
M  V30 3910 H 370.193 -5.67899 0.785118 0
M  V30 3911 H 368.59 -5.7925 1.56812 0
M  V30 3912 H 369.66 -4.4347 1.96118 0
M  V30 3913 N 371.003 -0.499398 -1.49478 0
M  V30 3914 C 372.249 0.0457576 -2.02748 0
M  V30 3915 C 372.582 1.36793 -1.37846 0
M  V30 3916 O 371.857 1.87596 -0.513601 0
M  V30 3917 C 372.14 0.199986 -3.59544 0
M  V30 3918 C 371.993 -1.1452 -4.34977 0
M  V30 3919 C 373.312 0.94137 -4.29914 0
M  V30 3920 H 370.431 0.0151552 -0.736844 0
M  V30 3921 H 373.073 -0.650498 -1.78518 0
M  V30 3922 H 371.223 0.793007 -3.8032 0
M  V30 3923 H 372.895 -1.77697 -4.25701 0
M  V30 3924 H 371.138 -1.73488 -3.97598 0
M  V30 3925 H 371.809 -0.990607 -5.43039 0
M  V30 3926 H 374.285 0.43844 -4.13784 0
M  V30 3927 H 373.161 1.01812 -5.39375 0
M  V30 3928 H 373.422 1.98471 -3.95046 0
M  V30 3929 N 372.481 1.55866 -0.233164 0
M  V30 3930 C 373.413 2.18099 0.704668 0
M  V30 3931 C 374.426 1.15334 1.14899 0
M  V30 3932 O 375.615 1.42262 1.07814 0
M  V30 3933 C 372.715 2.7592 1.96777 0
M  V30 3934 C 371.888 4.03969 1.67713 0
M  V30 3935 C 370.947 4.46242 2.78845 0
M  V30 3936 O 369.973 5.12903 2.46818 0
M  V30 3937 N 371.175 4.12886 4.08051 0
M  V30 3938 H 373.94 2.99205 0.172258 0
M  V30 3939 H 371.501 1.61815 -0.0525945 0
M  V30 3940 H 373.493 3.01165 2.70337 0
M  V30 3941 H 372.063 1.99051 2.41034 0
M  V30 3942 H 371.283 3.86459 0.777391 0
M  V30 3943 H 372.571 4.8748 1.4574 0
M  V30 3944 H 371.969 3.59342 4.3691 0
M  V30 3945 H 370.526 4.42997 4.78118 0
M  V30 3946 N 373.959 -0.0401083 1.57549 0
M  V30 3947 C 375.189 -0.744115 1.92734 0
M  V30 3948 C 375.597 -1.70005 0.830348 0
M  V30 3949 O 374.94 -1.82576 -0.20286 0
M  V30 3950 C 375.002 -1.56516 3.2364 0
M  V30 3951 C 374.666 -0.7752 4.50377 0
M  V30 3952 C 375.663 -0.0803326 5.19838 0
M  V30 3953 C 373.348 -0.733002 4.96923 0
M  V30 3954 C 375.342 0.646154 6.34116 0
M  V30 3955 C 373.029 -0.00276321 6.111 0
M  V30 3956 C 374.027 0.685585 6.7955 0
M  V30 3957 O 373.715 1.40399 7.91545 0
M  V30 3958 H 373.447 -0.214861 0.640945 0
M  V30 3959 H 376.001 -0.00503675 2.05399 0
M  V30 3960 H 374.231 -2.3478 3.07271 0
M  V30 3961 H 375.92 -2.15076 3.44234 0
M  V30 3962 H 376.686 -0.104035 4.84888 0
M  V30 3963 H 372.565 -1.25827 4.43496 0
M  V30 3964 H 376.109 1.18398 6.87479 0
M  V30 3965 H 372.006 0.0229012 6.45496 0
M  V30 3966 H 372.774 1.31653 8.07843 0
M  V30 3967 N 375.437 -1.54477 -0.31217 0
M  V30 3968 C 376.685 -1.72884 -1.04668 0
M  V30 3969 C 377.006 -0.511477 -1.88173 0
M  V30 3970 O 376.276 0.474407 -1.90069 0
M  V30 3971 H 374.856 -0.637461 -0.389425 0
M  V30 3972 H 377.518 -1.91807 -0.345852 0
M  V30 3973 H 376.614 -2.61334 -1.70619 0
M  V30 3974 N 376.915 0.57481 -1.46744 0
M  V30 3975 C 378.331 0.898981 -1.31873 0
M  V30 3976 C 378.531 1.99313 -0.29605 0
M  V30 3977 O 377.587 2.50728 0.298621 0
M  V30 3978 C 378.9 1.30886 -2.7072 0
M  V30 3979 C 380.448 1.42127 -2.78871 0
M  V30 3980 C 380.923 1.86478 -4.18318 0
M  V30 3981 N 382.414 1.93658 -4.20774 0
M  V30 3982 C 383.149 2.29267 -5.2557 0
M  V30 3983 N 382.645 2.63612 -6.40688 0
M  V30 3984 N 384.438 2.29889 -5.1294 0
M  V30 3985 H 376.589 -0.147839 -2.11885 0
M  V30 3986 H 378.852 -0.00347013 -0.947994 0
M  V30 3987 H 378.558 0.578853 -3.46904 0
M  V30 3988 H 378.432 2.26874 -3.01343 0
M  V30 3989 H 380.819 2.14213 -2.0297 0
M  V30 3990 H 380.9 0.443705 -2.51922 0
M  V30 3991 H 380.544 1.14968 -4.94717 0
M  V30 3992 H 380.474 2.85207 -4.42679 0
M  V30 3993 H 382.965 1.69574 -3.37718 0
M  V30 3994 H 383.278 2.89759 -7.16421 0
M  V30 3995 H 381.623 2.61232 -6.44036 0
M  V30 3996 H 384.814 2.02485 -4.22039 0
M  V30 3997 H 384.987 2.57312 -5.94722 0
M  V30 3998 N 378.394 1.34581 0.820102 0
M  V30 3999 C 379.642 1.26845 1.57336 0
M  V30 4000 C 379.963 -0.160667 1.94337 0
M  V30 4001 O 379.233 -1.09396 1.6251 0
M  V30 4002 H 377.813 0.466514 0.583415 0
M  V30 4003 H 380.475 1.68526 0.979027 0
M  V30 4004 H 379.571 1.87513 2.4949 0
M  V30 4005 N 379.872 -1.04064 1.18357 0
M  V30 4006 C 380.804 -2.12114 0.868358 0
M  V30 4007 C 381.817 -1.62247 -0.134045 0
M  V30 4008 O 383.006 -1.78253 0.0937933 0
M  V30 4009 C 380.106 -3.37773 0.276132 0
M  V30 4010 C 379.279 -4.16874 1.3242 0
M  V30 4011 C 378.338 -5.20861 0.747662 0
M  V30 4012 O 377.364 -5.51141 1.42239 0
M  V30 4013 N 378.566 -5.78715 -0.454823 0
M  V30 4014 H 381.331 -2.39748 1.79836 0
M  V30 4015 H 378.892 -1.20258 1.08396 0
M  V30 4016 H 380.884 -4.04513 -0.123133 0
M  V30 4017 H 379.454 -3.07581 -0.557895 0
M  V30 4018 H 378.674 -3.45456 1.89878 0
M  V30 4019 H 379.962 -4.66516 2.03078 0
M  V30 4020 H 379.36 -5.56415 -1.02073 0
M  V30 4021 H 377.917 -6.46921 -0.79601 0
M  V30 4022 N 381.35 -0.985608 -1.22978 0
M  V30 4023 C 382.598 -0.656087 -1.91154 0
M  V30 4024 C 382.919 0.813561 -1.77218 0
M  V30 4025 O 382.189 1.58244 -1.1548 0
M  V30 4026 H 380.769 -0.239674 -0.707506 0
M  V30 4027 H 383.431 -1.25054 -1.49491 0
M  V30 4028 H 382.527 -0.912253 -2.9847 0
M  V30 4029 N 382.828 1.3818 -0.7579 0
M  V30 4030 C 384.074 2.00316 -0.316453 0
M  V30 4031 C 384.407 1.60026 1.10025 0
M  V30 4032 O 383.682 0.839835 1.75434 0
M  V30 4033 C 383.965 3.57349 -0.444245 0
M  V30 4034 C 383.818 4.07591 -1.90236 0
M  V30 4035 C 385.137 4.3981 0.1598 0
M  V30 4036 H 382.256 0.727741 -0.116459 0
M  V30 4037 H 384.898 1.6406 -0.958352 0
M  V30 4038 H 383.048 3.88365 0.102233 0
M  V30 4039 H 384.72 3.87199 -2.50748 0
M  V30 4040 H 382.963 3.60297 -2.41595 0
M  V30 4041 H 383.634 5.16677 -1.94291 0
M  V30 4042 H 386.11 4.14971 -0.306314 0
M  V30 4043 H 384.986 5.48885 0.0401675 0
M  V30 4044 H 385.247 4.24102 1.24859 0
M  V30 4045 N 384.306 0.507319 1.49211 0
M  V30 4046 C 385.552 -0.0350047 2.0277 0
M  V30 4047 C 385.885 -1.3606 1.38569 0
M  V30 4048 O 385.16 -1.87321 0.523542 0
M  V30 4049 C 385.443 -0.180916 3.59645 0
M  V30 4050 C 385.296 1.16825 4.34364 0
M  V30 4051 C 386.615 -0.918558 4.30407 0
M  V30 4052 H 383.734 -0.0112473 0.736914 0
M  V30 4053 H 386.376 0.659956 1.7817 0
M  V30 4054 H 384.526 -0.772826 3.80736 0
M  V30 4055 H 386.198 1.79952 4.24753 0
M  V30 4056 H 384.441 1.75594 3.96673 0
M  V30 4057 H 385.112 1.01939 5.42506 0
M  V30 4058 H 387.588 -0.41649 4.1401 0
M  V30 4059 H 386.464 -0.989505 5.39907 0
M  V30 4060 H 386.725 -1.96373 3.96093 0
M  V30 4061 N 385.784 -1.5574 0.241426 0
M  V30 4062 C 387.033 -1.97986 -0.385295 0
M  V30 4063 C 387.346 -1.13267 -1.59468 0
M  V30 4064 O 388.552 -1.45501 -2.2922 0
M  V30 4065 C 387.008 -3.52275 -0.736884 0
M  V30 4066 C 386.616 -4.45726 0.450796 0
M  V30 4067 C 388.36 -4.03189 -1.3281 0
M  V30 4068 C 386.267 -5.91352 0.0756662 0
M  V30 4069 H 385.197 -0.739386 -0.147731 0
M  V30 4070 H 387.848 -1.80308 0.340779 0
M  V30 4071 H 386.23 -3.65628 -1.52094 0
M  V30 4072 H 387.404 -4.44131 1.22819 0
M  V30 4073 H 385.719 -4.05264 0.956573 0
M  V30 4074 H 388.316 -5.09505 -1.62201 0
M  V30 4075 H 388.659 -3.50212 -2.25071 0
M  V30 4076 H 389.192 -3.93141 -0.607069 0
M  V30 4077 H 385.931 -6.48354 0.965272 0
M  V30 4078 H 385.451 -5.96095 -0.665635 0
M  V30 4079 H 387.13 -6.46084 -0.344075 0
M  V30 4080 N 387.262 0.0317525 -1.57568 0
M  V30 4081 C 388.51 0.721676 -1.88776 0
M  V30 4082 C 388.831 1.76039 -0.838772 0
M  V30 4083 O 388.101 1.95482 0.127935 0
M  V30 4084 H 386.681 0.269534 -0.696678 0
M  V30 4085 H 389.343 -0.00165879 -1.949 0
M  V30 4086 H 388.439 1.21293 -2.87566 0
M  V30 4087 N 388.74 1.54641 0.303973 0
M  V30 4088 C 389.968 1.77768 1.05858 0
M  V30 4089 C 390.383 0.535722 1.8104 0
M  V30 4090 O 389.74 -0.494337 1.75677 0
M  V30 4091 C 389.791 2.9834 2.04146 0
M  V30 4092 O 389.512 4.17736 1.32015 0
M  V30 4093 C 391.013 3.33832 2.91669 0
M  V30 4094 H 388.233 0.592961 0.314067 0
M  V30 4095 H 390.777 2.01583 0.344149 0
M  V30 4096 H 388.932 2.76742 2.71096 0
M  V30 4097 H 389.346 4.85693 1.97998 0
M  V30 4098 H 390.82 4.21448 3.56491 0
M  V30 4099 H 391.297 2.51857 3.59812 0
M  V30 4100 H 391.903 3.57579 2.30254 0
M  V30 4101 N 390.218 -0.567019 1.47046 0
M  V30 4102 C 391.466 -1.322 1.52864 0
M  V30 4103 C 391.787 -1.94088 0.188388 0
M  V30 4104 O 391.057 -1.7941 -0.786693 0
M  V30 4105 H 389.637 -0.490894 0.563056 0
M  V30 4106 H 392.299 -0.662879 1.83281 0
M  V30 4107 H 391.395 -2.12062 2.2899 0
M  V30 4108 N 391.696 -1.35014 -0.812953 0
M  V30 4109 C 392.606 -1.2951 -1.95613 0
M  V30 4110 C 393.622 -0.20107 -1.72834 0
M  V30 4111 O 394.798 -0.42932 -1.96771 0
M  V30 4112 C 391.863 -1.06033 -3.30088 0
M  V30 4113 C 390.924 -2.24688 -3.65805 0
M  V30 4114 C 390.157 -2.02322 -4.93864 0
M  V30 4115 O 390.38 -0.986464 -5.61805 0
M  V30 4116 O 389.314 -2.89525 -5.27692 0
M  V30 4117 H 393.14 -2.25705 -2.03202 0
M  V30 4118 H 390.725 -1.15321 -0.949811 0
M  V30 4119 H 392.607 -0.94763 -4.10607 0
M  V30 4120 H 391.282 -0.128852 -3.23443 0
M  V30 4121 H 390.189 -2.41521 -2.85689 0
M  V30 4122 H 391.522 -3.16261 -3.77147 0
M  V30 4123 N 393.175 1.03435 -1.18907 0
M  V30 4124 C 394.4 1.80919 -1.01406 0
M  V30 4125 C 394.825 1.83055 0.432721 0
M  V30 4126 O 394.183 1.25252 1.31079 0
M  V30 4127 C 394.231 3.24091 -1.58105 0
M  V30 4128 O 393.335 4.04434 -0.806669 0
M  V30 4129 H 392.676 0.558709 -0.358803 0
M  V30 4130 H 395.206 1.30223 -1.57807 0
M  V30 4131 H 395.216 3.74853 -1.61087 0
M  V30 4132 H 393.891 3.21851 -2.6341 0
M  V30 4133 H 392.468 3.63091 -0.849666 0
M  V30 4134 N 394.653 0.992116 1.22453 0
M  V30 4135 C 395.878 0.685644 1.95739 0
M  V30 4136 C 396.303 -0.743 1.72804 0
M  V30 4137 O 395.661 -1.50778 1.00676 0
M  V30 4138 C 395.709 0.996293 3.46564 0
M  V30 4139 O 394.813 0.0945512 4.12292 0
M  V30 4140 H 394.154 0.256694 0.612376 0
M  V30 4141 H 396.684 1.32888 1.5557 0
M  V30 4142 H 396.694 0.93781 3.97076 0
M  V30 4143 H 395.369 2.03733 3.62582 0
M  V30 4144 H 393.946 0.208451 3.72317 0
M  V30 4145 N 396.131 -1.37776 0.765217 0
M  V30 4146 C 397.063 -2.28958 0.105361 0
M  V30 4147 C 398.076 -1.48316 -0.67128 0
M  V30 4148 O 399.265 -1.71046 -0.51045 0
M  V30 4149 C 396.365 -3.27421 -0.874569 0
M  V30 4150 C 395.538 -4.37132 -0.153123 0
M  V30 4151 C 394.597 -5.1571 -1.04547 0
M  V30 4152 O 393.623 -5.66896 -0.511672 0
M  V30 4153 N 394.825 -5.29808 -2.37243 0
M  V30 4154 H 397.59 -2.86227 0.888495 0
M  V30 4155 H 395.151 -1.49682 0.617 0
M  V30 4156 H 397.143 -3.7687 -1.47483 0
M  V30 4157 H 395.713 -2.70967 -1.55871 0
M  V30 4158 H 394.933 -3.89166 0.627975 0
M  V30 4159 H 396.221 -5.07625 0.345643 0
M  V30 4160 H 395.619 -4.89793 -2.83054 0
M  V30 4161 H 394.176 -5.82589 -2.9229 0
M  V30 4162 N 397.609 -0.515225 -1.4894 0
M  V30 4163 C 398.856 0.024215 -2.02486 0
M  V30 4164 C 399.184 1.35671 -1.39368 0
M  V30 4165 O 398.439 1.88566 -0.523574 0
M  V30 4166 C 398.738 0.210595 -3.56779 0
M  V30 4167 C 398.404 -1.04569 -4.38607 0
M  V30 4168 C 397.066 -1.39002 -4.60686 0
M  V30 4169 C 399.418 -1.88008 -4.86109 0
M  V30 4170 C 396.746 -2.568 -5.27514 0
M  V30 4171 C 399.098 -3.04972 -5.54234 0
M  V30 4172 C 397.762 -3.39768 -5.74555 0
M  V30 4173 H 397.032 0.00886088 -0.740947 0
M  V30 4174 H 399.679 -0.678263 -1.79086 0
M  V30 4175 H 397.984 0.99572 -3.78936 0
M  V30 4176 H 399.681 0.642659 -3.95817 0
M  V30 4177 H 396.271 -0.767497 -4.21672 0
M  V30 4178 H 400.455 -1.62719 -4.68867 0
M  V30 4179 H 395.711 -2.8398 -5.41447 0
M  V30 4180 H 399.885 -3.69943 -5.90013 0
M  V30 4181 H 397.512 -4.31148 -6.26112 0
M  V30 4182 N 399.087 1.5561 -0.249682 0
M  V30 4183 C 400.335 1.98618 0.373548 0
M  V30 4184 C 400.656 1.13919 1.58264 0
M  V30 4185 O 399.926 0.222637 1.94631 0
M  V30 4186 H 398.506 0.733571 0.141006 0
M  V30 4187 H 401.168 1.91748 -0.349117 0
M  V30 4188 H 400.264 3.04584 0.680796 0
M  V30 4189 N 400.565 -0.0233959 1.57583 0
M  V30 4190 C 401.475 -1.03907 2.10334 0
M  V30 4191 C 402.491 -1.39257 1.04323 0
M  V30 4192 O 403.667 -1.48462 1.36091 0
M  V30 4193 C 400.732 -2.31938 2.57693 0
M  V30 4194 C 399.793 -2.03117 3.78209 0
M  V30 4195 C 399.026 -3.25043 4.233 0
M  V30 4196 O 399.249 -4.35916 3.67876 0
M  V30 4197 O 398.183 -3.10411 5.15683 0
M  V30 4198 H 402.009 -0.620748 2.97288 0
M  V30 4199 H 399.594 -0.240743 1.47448 0
M  V30 4200 H 401.476 -3.07196 2.88458 0
M  V30 4201 H 400.151 -2.73055 1.73847 0
M  V30 4202 H 399.058 -1.25408 3.52454 0
M  V30 4203 H 400.391 -1.66852 4.63056 0
M  V30 4204 N 402.043 -1.548 -0.295768 0
M  V30 4205 C 403.289 -1.74588 -1.03184 0
M  V30 4206 C 403.622 -0.532962 -1.86744 0
M  V30 4207 O 402.897 0.469872 -1.88739 0
M  V30 4208 C 403.18 -3.03791 -1.93347 0
M  V30 4209 C 403.033 -4.35392 -1.12933 0
M  V30 4210 C 404.352 -3.28892 -2.92435 0
M  V30 4211 H 401.471 -0.635221 -0.373715 0
M  V30 4212 H 404.113 -1.87519 -0.30606 0
M  V30 4213 H 402.263 -2.92898 -2.55232 0
M  V30 4214 H 403.935 -4.58211 -0.532943 0
M  V30 4215 H 402.178 -4.31642 -0.432168 0
M  V30 4216 H 402.849 -5.22074 -1.79284 0
M  V30 4217 H 405.325 -3.39429 -2.4068 0
M  V30 4218 H 404.201 -4.20603 -3.52682 0
M  V30 4219 H 404.462 -2.47437 -3.6637 0
M  V30 4220 N 403.521 0.559213 -1.47345 0
M  V30 4221 C 404.768 1.31648 -1.53867 0
M  V30 4222 C 405.096 1.93468 -0.200104 0
M  V30 4223 O 404.351 1.78295 0.806799 0
M  V30 4224 C 404.65 2.44853 -2.6035 0
M  V30 4225 C 404.316 2.00876 -4.03683 0
M  V30 4226 C 402.978 1.88599 -4.42701 0
M  V30 4227 C 405.33 1.67279 -4.93626 0
M  V30 4228 C 402.658 1.41017 -5.69501 0
M  V30 4229 C 405.01 1.21169 -6.20887 0
M  V30 4230 C 403.674 1.07487 -6.58789 0
M  V30 4231 H 402.944 0.481734 -0.56304 0
M  V30 4232 H 405.591 0.627301 -1.80934 0
M  V30 4233 H 403.896 3.19318 -2.27032 0
M  V30 4234 H 405.593 3.03039 -2.62619 0
M  V30 4235 H 402.183 2.11374 -3.72853 0
M  V30 4236 H 406.367 1.75638 -4.64182 0
M  V30 4237 H 401.623 1.29086 -5.97618 0
M  V30 4238 H 405.797 0.942345 -6.89995 0
M  V30 4239 H 403.424 0.703946 -7.56934 0
M  V30 4240 N 404.999 1.35443 0.805782 0
M  V30 4241 C 405.946 1.28431 1.91766 0
M  V30 4242 C 406.916 0.156102 1.65365 0
M  V30 4243 O 408.101 0.339936 1.87747 0
M  V30 4244 C 405.241 1.06301 3.2832 0
M  V30 4245 C 404.354 2.2805 3.66902 0
M  V30 4246 C 403.489 1.99064 4.92491 0
M  V30 4247 C 402.528 3.16863 5.23703 0
M  V30 4248 N 401.665 2.87647 6.40471 0
M  V30 4249 H 406.505 2.23511 1.97096 0
M  V30 4250 H 404.042 1.11105 0.964054 0
M  V30 4251 H 406 0.915012 4.07042 0
M  V30 4252 H 404.63 0.148822 3.22457 0
M  V30 4253 H 403.682 2.53711 2.83434 0
M  V30 4254 H 404.994 3.1601 3.85927 0
M  V30 4255 H 404.148 1.81099 5.7904 0
M  V30 4256 H 402.887 1.0839 4.75503 0
M  V30 4257 H 401.892 3.35404 4.35642 0
M  V30 4258 H 403.117 4.08339 5.4262 0
M  V30 4259 H 401.063 1.99568 6.24907 0
M  V30 4260 H 400.98 3.69141 6.59751 0
M  V30 4261 H 402.248 2.73226 7.30047 0
M  V30 4262 N 406.477 -1.02803 1.19454 0
M  V30 4263 C 407.41 -2.107 0.876396 0
M  V30 4264 C 408.388 -1.61741 -0.166897 0
M  V30 4265 O 409.572 -1.88451 -0.0430195 0
M  V30 4266 C 406.699 -3.37262 0.311758 0
M  V30 4267 C 405.745 -4.05093 1.33424 0
M  V30 4268 S 406.578 -4.50498 2.89503 0
M  V30 4269 C 407.734 -5.80277 2.34584 0
M  V30 4270 H 407.967 -2.37362 1.79016 0
M  V30 4271 H 405.5 -1.15755 1.02177 0
M  V30 4272 H 407.458 -4.10499 -0.00748752 0
M  V30 4273 H 406.119 -3.08693 -0.58032 0
M  V30 4274 H 405.312 -4.9611 0.888302 0
M  V30 4275 H 404.914 -3.3803 1.60037 0
M  V30 4276 H 407.206 -6.54873 1.73633 0
M  V30 4277 H 408.149 -6.29651 3.23952 0
M  V30 4278 H 408.557 -5.3599 1.77131 0
M  V30 4279 N 407.956 -0.998596 -1.21925 0
M  V30 4280 C 408.889 -0.498517 -2.22688 0
M  V30 4281 C 409.867 0.444301 -1.56412 0
M  V30 4282 O 411.051 0.368518 -1.84863 0
M  V30 4283 C 408.178 0.276639 -3.37568 0
M  V30 4284 C 407.224 -0.61302 -4.22071 0
M  V30 4285 S 408.057 -2.07168 -4.93803 0
M  V30 4286 C 409.213 -1.30617 -6.12119 0
M  V30 4287 H 409.446 -1.35234 -2.64762 0
M  V30 4288 H 406.979 -0.806018 -1.31692 0
M  V30 4289 H 408.937 0.717817 -4.04175 0
M  V30 4290 H 407.598 1.10581 -2.93991 0
M  V30 4291 H 406.791 -0.0162909 -5.03997 0
M  V30 4292 H 406.393 -0.991202 -3.60626 0
M  V30 4293 H 408.685 -0.57675 -6.75041 0
M  V30 4294 H 409.628 -2.10091 -6.76215 0
M  V30 4295 H 410.036 -0.816957 -5.58557 0
M  V30 4296 N 409.434 1.37368 -0.772513 0
M  V30 4297 C 410.366 2.28899 -0.117502 0
M  V30 4298 C 411.379 1.4867 0.663405 0
M  V30 4299 O 412.568 1.71314 0.501372 0
M  V30 4300 C 409.668 3.2788 0.857192 0
M  V30 4301 C 408.841 4.37207 0.129938 0
M  V30 4302 C 407.9 5.16257 1.01811 0
M  V30 4303 O 406.926 5.67159 0.481601 0
M  V30 4304 N 408.128 5.31058 2.3443 0
M  V30 4305 H 410.893 2.85752 -0.903662 0
M  V30 4306 H 408.454 1.49353 -0.62493 0
M  V30 4307 H 410.446 3.77647 1.45482 0
M  V30 4308 H 409.016 2.7179 1.54432 0
M  V30 4309 H 408.236 3.88827 -0.648605 0
M  V30 4310 H 409.524 5.07434 -0.372559 0
M  V30 4311 H 408.922 4.91287 2.80452 0
M  V30 4312 H 407.479 5.84131 2.89197 0
M  V30 4313 N 410.912 0.523116 1.48665 0
M  V30 4314 C 411.875 -0.232592 2.28017 0
M  V30 4315 C 412.875 -0.874021 1.34972 0
M  V30 4316 O 414.065 -0.735132 1.57929 0
M  V30 4317 C 411.197 -1.33586 3.13636 0
M  V30 4318 H 412.39 0.464008 2.96289 0
M  V30 4319 H 409.943 0.278816 1.53793 0
M  V30 4320 H 410.678 -2.06593 2.4998 0
M  V30 4321 H 410.463 -0.881125 3.82071 0
M  V30 4322 H 411.953 -1.86759 3.73511 0
M  V30 4323 N 412.39 -1.55475 0.257931 0
M  V30 4324 C 413.3 -2.2549 -0.647425 0
M  V30 4325 C 414.316 -1.2748 -1.18427 0
M  V30 4326 O 415.492 -1.6038 -1.2182 0
M  V30 4327 C 412.557 -2.94916 -1.82278 0
M  V30 4328 C 411.618 -4.08363 -1.32432 0
M  V30 4329 C 410.851 -4.74469 -2.44366 0
M  V30 4330 O 411.074 -4.39701 -3.63344 0
M  V30 4331 O 410.008 -5.62763 -2.13497 0
M  V30 4332 H 413.834 -3.03593 -0.0807707 0
M  V30 4333 H 411.419 -1.49377 0.0259962 0
M  V30 4334 H 413.301 -3.38606 -2.50846 0
M  V30 4335 H 411.976 -2.19744 -2.37685 0
M  V30 4336 H 410.883 -3.69166 -0.605605 0
M  V30 4337 H 412.216 -4.85385 -0.816211 0
M  V30 4338 N 413.868 0.0150385 -1.57593 0
M  V30 4339 C 414.778 1.02791 -2.10882 0
M  V30 4340 C 415.794 1.38702 -1.0506 0
M  V30 4341 O 416.97 1.47739 -1.36877 0
M  V30 4342 C 414.035 2.30568 -2.58919 0
M  V30 4343 C 413.096 2.01108 -3.79281 0
M  V30 4344 C 412.329 3.22794 -4.25018 0
M  V30 4345 O 412.552 4.33959 -3.70183 0
M  V30 4346 O 411.486 3.07672 -5.17322 0
M  V30 4347 H 415.312 0.604973 -2.97613 0
M  V30 4348 H 412.897 0.23292 -1.47573 0
M  V30 4349 H 414.779 3.05662 -2.90084 0
M  V30 4350 H 413.454 2.72129 -1.75293 0
M  V30 4351 H 412.361 1.23537 -3.53114 0
M  V30 4352 H 413.694 1.64394 -4.63935 0
M  V30 4353 N 415.346 1.54954 0.287554 0
M  V30 4354 C 416.574 1.78881 1.03967 0
M  V30 4355 C 416.989 0.554894 1.80462 0
M  V30 4356 O 416.346 -0.475676 1.76192 0
M  V30 4357 C 416.397 3.00488 2.0097 0
M  V30 4358 O 416.118 4.19113 1.27577 0
M  V30 4359 C 417.619 3.36907 2.88112 0
M  V30 4360 H 414.839 0.596259 0.307761 0
M  V30 4361 H 417.383 2.01937 0.322749 0
M  V30 4362 H 415.538 2.79601 2.68145 0
M  V30 4363 H 415.952 4.87765 1.92835 0
M  V30 4364 H 417.426 4.25205 3.52001 0
M  V30 4365 H 417.903 2.55659 3.57121 0
M  V30 4366 H 418.509 3.60001 2.26449 0
M  V30 4367 N 416.824 -0.551391 1.4764 0
M  V30 4368 C 418.235 -1.13349 1.48354 0
M  V30 4369 C 418.586 -1.94709 0.241432 0
M  V30 4370 O 417.711 -2.06306 -0.653205 0
M  V30 4371 C 418.306 -2.0623 2.68802 0
M  V30 4372 C 416.865 -2.597 2.72457 0
M  V30 4373 C 416.012 -1.36201 2.41546 0
M  V30 4374 H 418.963 -0.337698 1.55065 0
M  V30 4375 H 418.984 -2.90196 2.46103 0
M  V30 4376 H 418.496 -1.46987 3.59188 0
M  V30 4377 H 416.597 -3.22724 1.86225 0
M  V30 4378 H 416.71 -3.00296 3.73308 0
M  V30 4379 H 415.074 -1.67068 1.9225 0
M  V30 4380 H 415.857 -0.787425 3.34147 0
M  V30 4381 N 418.302 -1.35869 -0.798587 0
M  V30 4382 C 419.249 -1.29446 -1.91082 0
M  V30 4383 C 420.219 -0.16487 -1.6528 0
M  V30 4384 O 421.404 -0.349888 -1.87564 0
M  V30 4385 C 418.544 -1.0804 -3.27752 0
M  V30 4386 C 417.657 -2.29993 -3.65687 0
M  V30 4387 C 416.792 -2.01673 -4.91428 0
M  V30 4388 C 415.831 -3.19636 -5.22015 0
M  V30 4389 N 414.968 -2.91039 -6.38937 0
M  V30 4390 H 419.808 -2.24553 -1.95907 0
M  V30 4391 H 417.345 -1.11615 -0.958148 0
M  V30 4392 H 419.303 -0.936586 -4.06551 0
M  V30 4393 H 417.933 -0.16592 -3.22373 0
M  V30 4394 H 416.985 -2.55211 -2.82085 0
M  V30 4395 H 418.297 -3.18052 -3.84245 0
M  V30 4396 H 417.451 -1.84168 -5.78072 0
M  V30 4397 H 416.19 -1.10911 -4.74921 0
M  V30 4398 H 415.195 -3.37709 -4.33858 0
M  V30 4399 H 416.42 -4.11211 -5.40447 0
M  V30 4400 H 414.366 -2.0288 -6.2384 0
M  V30 4401 H 414.283 -3.72635 -6.57784 0
M  V30 4402 H 415.551 -2.77093 -7.28587 0
M  V30 4403 N 419.78 1.02168 -1.19998 0
M  V30 4404 C 421.008 1.79296 -1.03249 0
M  V30 4405 C 421.423 1.84103 0.418502 0
M  V30 4406 O 420.78 1.29031 1.29063 0
M  V30 4407 C 420.831 3.24007 -1.60319 0
M  V30 4408 O 420.552 3.19512 -2.99739 0
M  V30 4409 C 422.053 4.17704 -1.48453 0
M  V30 4410 H 419.273 0.564016 -0.363493 0
M  V30 4411 H 421.817 1.28639 -1.58973 0
M  V30 4412 H 419.972 3.7183 -1.08727 0
M  V30 4413 H 420.386 4.10306 -3.26725 0
M  V30 4414 H 421.86 5.17104 -1.93153 0
M  V30 4415 H 422.337 4.37029 -0.436193 0
M  V30 4416 H 422.943 3.7576 -1.99211 0
M  V30 4417 N 421.258 1.00505 1.21394 0
M  V30 4418 C 422.669 0.721082 1.72213 0
M  V30 4419 C 423.02 -0.761263 1.80829 0
M  V30 4420 O 422.145 -1.59464 1.46288 0
M  V30 4421 C 422.74 1.30228 3.12772 0
M  V30 4422 C 421.299 1.06743 3.60947 0
M  V30 4423 C 420.446 1.41507 2.38477 0
M  V30 4424 H 423.397 1.17594 1.06571 0
M  V30 4425 H 423.418 0.686955 3.74247 0
M  V30 4426 H 422.93 2.38115 3.06468 0
M  V30 4427 H 421.031 0.00572162 3.726 0
M  V30 4428 H 421.144 1.73936 4.46411 0
M  V30 4429 H 419.508 0.833852 2.40664 0
M  V30 4430 H 420.291 2.50424 2.34824 0
M  V30 4431 N 422.737 -1.36956 0.779787 0
M  V30 4432 C 423.667 -2.32761 0.185651 0
M  V30 4433 C 424.648 -1.56177 -0.673989 0
M  V30 4434 O 425.833 -1.84378 -0.609797 0
M  V30 4435 C 422.963 -3.40418 -0.687964 0
M  V30 4436 C 421.917 -4.27941 0.0710102 0
M  V30 4437 C 421.243 -5.26681 -0.922573 0
M  V30 4438 C 422.543 -5.07006 1.25467 0
M  V30 4439 H 424.237 -2.82698 0.986008 0
M  V30 4440 H 421.783 -1.3592 0.475592 0
M  V30 4441 H 423.736 -4.06423 -1.11348 0
M  V30 4442 H 422.46 -2.89025 -1.52093 0
M  V30 4443 H 421.119 -3.63478 0.47739 0
M  V30 4444 H 420.767 -4.71565 -1.7503 0
M  V30 4445 H 420.467 -5.86103 -0.419237 0
M  V30 4446 H 421.991 -5.9556 -1.34686 0
M  V30 4447 H 423.405 -5.66105 0.905401 0
M  V30 4448 H 421.802 -5.75793 1.69063 0
M  V30 4449 H 422.872 -4.3921 2.05481 0
M  V30 4450 N 424.215 -0.530993 -1.48385 0
M  V30 4451 C 425.147 0.268353 -2.27624 0
M  V30 4452 C 426.16 0.903525 -1.35426 0
M  V30 4453 O 427.349 0.781796 -1.60469 0
M  V30 4454 C 424.449 1.39535 -3.08842 0
M  V30 4455 C 423.622 0.861913 -4.28824 0
M  V30 4456 C 422.681 1.87016 -4.91845 0
M  V30 4457 O 421.707 1.4267 -5.5103 0
M  V30 4458 N 422.909 3.20238 -4.84178 0
M  V30 4459 H 425.674 -0.41123 -2.96865 0
M  V30 4460 H 423.235 -0.365387 -1.57723 0
M  V30 4461 H 425.227 2.06803 -3.47871 0
M  V30 4462 H 423.797 1.97859 -2.42014 0
M  V30 4463 H 423.017 0.0132126 -3.94198 0
M  V30 4464 H 424.305 0.484415 -5.06489 0
M  V30 4465 H 423.703 3.58932 -4.37246 0
M  V30 4466 H 422.26 3.83136 -5.27305 0
M  V30 4467 N 425.693 1.55336 -0.266172 0
M  V30 4468 C 426.64 2.22172 0.625165 0
M  V30 4469 C 427.61 1.19211 1.15663 0
M  V30 4470 O 428.795 1.47723 1.20758 0
M  V30 4471 C 425.935 2.93972 1.8076 0
M  V30 4472 C 425.048 4.11632 1.31084 0
M  V30 4473 C 424.183 4.71099 2.45436 0
M  V30 4474 C 423.222 5.8097 1.92718 0
M  V30 4475 N 422.359 6.34538 3.00509 0
M  V30 4476 H 427.199 2.9796 0.0485582 0
M  V30 4477 H 424.736 1.47095 0.0122024 0
M  V30 4478 H 426.694 3.33811 2.50251 0
M  V30 4479 H 425.324 2.20623 2.35638 0
M  V30 4480 H 424.376 3.76975 0.509326 0
M  V30 4481 H 425.688 4.90893 0.884633 0
M  V30 4482 H 424.842 5.13612 3.22936 0
M  V30 4483 H 423.581 3.91096 2.91368 0
M  V30 4484 H 422.586 5.37916 1.13695 0
M  V30 4485 H 423.811 6.62836 1.47733 0
M  V30 4486 H 421.757 5.57433 3.45839 0
M  V30 4487 H 421.674 7.09046 2.62279 0
M  V30 4488 H 422.942 6.81709 3.78011 0
M  V30 4489 N 427.171 -0.0066808 1.57599 0
M  V30 4490 C 428.396 -0.707738 1.94951 0
M  V30 4491 C 428.821 -1.66882 0.867868 0
M  V30 4492 O 428.179 -1.80457 -0.17458 0
M  V30 4493 C 428.227 -1.42162 3.31394 0
M  V30 4494 O 427.331 -2.53578 3.25226 0
M  V30 4495 H 426.672 -0.188752 0.636607 0
M  V30 4496 H 429.202 0.0445193 2.04552 0
M  V30 4497 H 429.212 -1.78655 3.66806 0
M  V30 4498 H 427.887 -0.716903 4.09675 0
M  V30 4499 H 426.464 -2.19463 3.01481 0
M  V30 4500 N 428.649 -1.55105 -0.279332 0
M  V30 4501 C 429.582 -1.82467 -1.37044 0
M  V30 4502 C 430.56 -0.677261 -1.47824 0
M  V30 4503 O 431.744 -0.919578 -1.64548 0
M  V30 4504 C 428.871 -1.98066 -2.7475 0
M  V30 4505 C 427.917 -3.20594 -2.81286 0
M  V30 4506 S 428.75 -4.78116 -2.41175 0
M  V30 4507 C 429.906 -4.9668 -3.80867 0
M  V30 4508 H 430.139 -2.74728 -1.1363 0
M  V30 4509 H 427.672 -1.46794 -0.478625 0
M  V30 4510 H 429.63 -2.07739 -3.54055 0
M  V30 4511 H 428.291 -1.06704 -2.9542 0
M  V30 4512 H 427.484 -3.28376 -3.82341 0
M  V30 4513 H 427.086 -3.09479 -2.09996 0
M  V30 4514 H 429.378 -4.82033 -4.76078 0
M  V30 4515 H 430.321 -5.98741 -3.78041 0
M  V30 4516 H 430.729 -4.24698 -3.71876 0
M  V30 4517 N 430.127 0.543554 -1.4793 0
M  V30 4518 C 431.404 1.30458 -1.4574 0
M  V30 4519 C 431.784 2.1048 -0.161692 0
M  V30 4520 O 431.132 2.11831 0.856734 0
M  V30 4521 C 431.342 2.19754 -2.71126 0
M  V30 4522 C 432.69 2.80334 -3.18901 0
M  V30 4523 O 433.714 2.30049 -2.71948 0
M  V30 4524 O 432.573 3.71766 -4.00565 0
M  V30 4525 H 429.667 0.588117 -0.581418 0
M  V30 4526 H 432.213 0.561328 -1.60147 0
M  V30 4527 H 430.985 1.60316 -3.56952 0
M  V30 4528 H 430.608 3.01351 -2.59371 0
M  V30 4529 N 431.605 1.3629 0.791371 0
M  V30 4530 C 433.021 1.16661 1.08914 0
M  V30 4531 C 433.221 -0.0106266 2.01497 0
M  V30 4532 O 432.277 -0.676596 2.43266 0
M  V30 4533 C 433.59 2.47656 1.70549 0
M  V30 4534 C 435.138 2.54002 1.82899 0
M  V30 4535 C 435.613 3.85078 2.47949 0
M  V30 4536 N 437.104 3.86413 2.5542 0
M  V30 4537 C 437.839 4.84572 3.06557 0
M  V30 4538 N 437.335 5.93124 3.58016 0
M  V30 4539 N 439.128 4.71994 3.05251 0
M  V30 4540 H 431.279 2.11668 0.176238 0
M  V30 4541 H 433.542 0.937486 0.140796 0
M  V30 4542 H 433.248 3.34059 1.09989 0
M  V30 4543 H 433.122 2.63319 2.70079 0
M  V30 4544 H 435.509 1.68018 2.42598 0
M  V30 4545 H 435.59 2.42239 0.821808 0
M  V30 4546 H 435.234 4.71467 1.88895 0
M  V30 4547 H 435.164 3.94135 3.49235 0
M  V30 4548 H 437.655 3.07988 2.18979 0
M  V30 4549 H 437.968 6.63999 3.95381 0
M  V30 4550 H 436.313 5.96796 3.56173 0
M  V30 4551 H 439.504 3.86321 2.64336 0
M  V30 4552 H 439.677 5.48653 3.44796 0
M  V30 4553 N 433.083 -1.0153 1.20538 0
M  V30 4554 C 434.013 -2.11972 0.979295 0
M  V30 4555 C 434.994 -1.6985 -0.0921787 0
M  V30 4556 O 436.179 -1.94089 0.0655932 0
M  V30 4557 C 433.309 -3.43201 0.531984 0
M  V30 4558 C 432.263 -3.9907 1.54685 0
M  V30 4559 C 431.589 -5.26082 0.956127 0
M  V30 4560 C 432.889 -4.32313 2.93092 0
M  V30 4561 H 434.583 -2.31143 1.90298 0
M  V30 4562 H 432.129 -1.11079 0.916372 0
M  V30 4563 H 434.082 -4.1985 0.361044 0
M  V30 4564 H 432.806 -3.23792 -0.427327 0
M  V30 4565 H 431.465 -3.2453 1.70517 0
M  V30 4566 H 431.113 -5.02999 -0.0111538 0
M  V30 4567 H 430.813 -5.64426 1.63393 0
M  V30 4568 H 432.337 -6.05386 0.796284 0
M  V30 4569 H 433.751 -4.99845 2.80763 0
M  V30 4570 H 432.148 -4.81774 3.57791 0
M  V30 4571 H 433.218 -3.41025 3.44717 0
M  V30 4572 N 434.561 -1.01147 -1.20859 0
M  V30 4573 C 435.809 -0.696486 -1.89719 0
M  V30 4574 C 436.13 0.775788 -1.78904 0
M  V30 4575 O 435.4 1.55759 -1.18811 0
M  V30 4576 H 433.98 -0.254628 -0.702263 0
M  V30 4577 H 436.642 -1.28197 -1.46804 0
M  V30 4578 H 435.738 -0.975357 -2.96468 0
M  V30 4579 N 436.039 1.36541 -0.78704 0
M  V30 4580 C 436.986 2.30082 -0.181901 0
M  V30 4581 C 437.956 1.5186 0.672896 0
M  V30 4582 O 439.141 1.80374 0.622072 0
M  V30 4583 C 436.281 3.3835 0.679197 0
M  V30 4584 C 435.394 4.31565 -0.193882 0
M  V30 4585 C 434.529 5.26915 0.673364 0
M  V30 4586 C 433.568 6.11769 -0.201315 0
M  V30 4587 N 432.705 6.99315 0.624777 0
M  V30 4588 H 437.545 2.81248 -0.985064 0
M  V30 4589 H 435.082 1.38437 -0.497342 0
M  V30 4590 H 437.04 3.99767 1.19341 0
M  V30 4591 H 435.67 2.8851 1.44781 0
M  V30 4592 H 434.722 3.71323 -0.826044 0
M  V30 4593 H 436.034 4.91191 -0.867937 0
M  V30 4594 H 435.188 5.9361 1.25348 0
M  V30 4595 H 433.927 4.67737 1.38105 0
M  V30 4596 H 432.932 5.44039 -0.793849 0
M  V30 4597 H 434.157 6.73022 -0.906568 0
M  V30 4598 H 432.103 6.42648 1.3168 0
M  V30 4599 H 432.02 7.56 0.00835237 0
M  V30 4600 H 433.288 7.70382 1.18879 0
M  V30 4601 N 437.518 0.538854 1.48102 0
M  V30 4602 C 438.45 -0.256278 2.27763 0
M  V30 4603 C 439.463 -0.89633 1.35904 0
M  V30 4604 O 440.652 -0.773275 1.60881 0
M  V30 4605 C 437.752 -1.37896 3.09577 0
M  V30 4606 C 436.925 -0.839159 4.29275 0
M  V30 4607 C 435.984 -1.84405 4.9283 0
M  V30 4608 O 435.01 -1.39746 5.51779 0
M  V30 4609 N 436.212 -3.17666 4.85869 0
M  V30 4610 H 438.977 0.426968 2.96643 0
M  V30 4611 H 436.538 0.373747 1.57527 0
M  V30 4612 H 438.53 -2.04955 3.48963 0
M  V30 4613 H 437.1 -1.96572 2.4306 0
M  V30 4614 H 436.32 0.00769287 3.94199 0
M  V30 4615 H 437.608 -0.457548 5.06739 0
M  V30 4616 H 437.006 -3.56609 4.39143 0
M  V30 4617 H 435.563 -3.80334 5.29329 0
M  V30 4618 N 438.996 -1.55193 0.274407 0
M  V30 4619 C 439.926 -2.25471 -0.607032 0
M  V30 4620 C 440.907 -1.24461 -1.15946 0
M  V30 4621 O 442.092 -1.53179 -1.19373 0
M  V30 4622 C 439.222 -2.97526 -1.79153 0
M  V30 4623 C 438.176 -4.05459 -1.37067 0
M  V30 4624 C 437.502 -4.65084 -2.6382 0
M  V30 4625 C 438.802 -5.19691 -0.521389 0
M  V30 4626 H 440.496 -2.99393 -0.0209343 0
M  V30 4627 H 438.042 -1.43997 -0.00862866 0
M  V30 4628 H 439.995 -3.45402 -2.41404 0
M  V30 4629 H 438.719 -2.21138 -2.40344 0
M  V30 4630 H 437.378 -3.58393 -0.771355 0
M  V30 4631 H 437.026 -3.85365 -3.23268 0
M  V30 4632 H 436.726 -5.37961 -2.36372 0
M  V30 4633 H 438.25 -5.15708 -3.26921 0
M  V30 4634 H 439.664 -5.63623 -1.04889 0
M  V30 4635 H 438.061 -5.99126 -0.341825 0
M  V30 4636 H 439.131 -4.82713 0.46 0
M  V30 4637 N 440.474 -0.00167713 -1.576 0
M  V30 4638 C 441.702 0.693759 -1.94922 0
M  V30 4639 C 442.117 1.67215 -0.876626 0
M  V30 4640 O 441.474 1.81929 0.144279 0
M  V30 4641 C 441.525 1.42416 -3.32265 0
M  V30 4642 O 441.246 0.485014 -4.35407 0
M  V30 4643 C 442.747 2.21395 -3.84056 0
M  V30 4644 H 439.967 0.193118 -0.642609 0
M  V30 4645 H 442.511 -0.0532952 -2.04431 0
M  V30 4646 H 440.666 2.12284 -3.24059 0
M  V30 4647 H 441.08 1.00053 -5.14868 0
M  V30 4648 H 442.554 2.67996 -4.82578 0
M  V30 4649 H 443.031 3.04142 -3.16851 0
M  V30 4650 H 443.637 1.56542 -3.95443 0
M  V30 4651 N 441.952 1.55251 0.271103 0
M  V30 4652 C 442.882 1.9127 1.33933 0
M  V30 4653 C 443.863 0.77478 1.5143 0
M  V30 4654 O 445.048 1.03307 1.64442 0
M  V30 4655 C 442.178 2.18627 2.69851 0
M  V30 4656 C 441.132 3.34442 2.67081 0
M  V30 4657 C 440.458 3.47284 4.06569 0
M  V30 4658 C 441.758 4.70784 2.26185 0
M  V30 4659 H 443.452 2.80744 1.04035 0
M  V30 4660 H 440.998 1.35077 0.499017 0
M  V30 4661 H 442.951 2.42413 3.44694 0
M  V30 4662 H 441.675 1.25955 3.01335 0
M  V30 4663 H 440.334 3.10627 1.94695 0
M  V30 4664 H 439.982 2.52074 4.35279 0
M  V30 4665 H 439.682 4.25152 4.0561 0
M  V30 4666 H 441.206 3.73363 4.83148 0
M  V30 4667 H 442.62 4.94102 2.90751 0
M  V30 4668 H 441.017 5.51582 2.36384 0
M  V30 4669 H 442.087 4.69478 1.21319 0
M  V30 4670 N 443.43 -0.535701 1.48216 0
M  V30 4671 C 444.677 -1.29183 1.55942 0
M  V30 4672 C 445.005 -1.93125 0.230857 0
M  V30 4673 O 444.26 -1.79556 -0.778331 0
M  V30 4674 C 444.559 -2.4068 2.64212 0
M  V30 4675 C 444.225 -1.94428 4.06827 0
M  V30 4676 C 442.887 -1.81532 4.45645 0
M  V30 4677 C 445.239 -1.59405 4.96225 0
M  V30 4678 C 442.567 -1.31939 5.71672 0
M  V30 4679 C 444.919 -1.11276 6.22736 0
M  V30 4680 C 443.583 -0.969924 6.60416 0
M  V30 4681 H 442.853 -0.472715 0.570632 0
M  V30 4682 H 445.5 -0.598437 1.81909 0
M  V30 4683 H 443.805 -3.15666 2.32083 0
M  V30 4684 H 445.502 -2.98822 2.67407 0
M  V30 4685 H 442.092 -2.05415 3.76168 0
M  V30 4686 H 446.276 -1.68231 4.66917 0
M  V30 4687 H 441.532 -1.19562 5.99596 0
M  V30 4688 H 445.706 -0.832453 6.91407 0
M  V30 4689 H 443.333 -0.583436 7.57958 0
M  V30 4690 N 444.908 -1.36708 -0.784132 0
M  V30 4691 C 446.133 -1.34565 -1.5782 0
M  V30 4692 C 446.558 0.0695257 -1.87971 0
M  V30 4693 O 445.916 1.04302 -1.48293 0
M  V30 4694 C 445.964 -2.17952 -2.87279 0
M  V30 4695 O 445.068 -1.57563 -3.81114 0
M  V30 4696 H 444.409 -0.460337 -0.478524 0
M  V30 4697 H 446.939 -1.80064 -0.971495 0
M  V30 4698 H 446.949 -2.30721 -3.365 0
M  V30 4699 H 445.624 -3.20823 -2.64661 0
M  V30 4700 H 444.201 -1.53764 -3.39722 0
M  V30 4701 N 446.386 1.0089 -1.21074 0
M  V30 4702 C 447.633 1.74607 -1.0256 0
M  V30 4703 C 447.961 1.89426 0.44136 0
M  V30 4704 O 447.216 1.42266 1.34384 0
M  V30 4705 C 447.515 3.16335 -1.66334 0
M  V30 4706 C 447.181 3.21474 -3.16173 0
M  V30 4707 C 445.843 3.22583 -3.57062 0
M  V30 4708 C 448.195 3.19025 -4.12156 0
M  V30 4709 C 445.523 3.18925 -4.92446 0
M  V30 4710 C 447.875 3.16909 -5.47496 0
M  V30 4711 C 446.539 3.16326 -5.87787 0
M  V30 4712 H 445.809 0.638933 -0.375294 0
M  V30 4713 H 448.456 1.18274 -1.50611 0
M  V30 4714 H 446.761 3.75876 -1.10566 0
M  V30 4715 H 448.458 3.72083 -1.49516 0
M  V30 4716 H 445.048 3.2135 -2.83605 0
M  V30 4717 H 449.232 3.17332 -3.81595 0
M  V30 4718 H 444.488 3.16809 -5.22917 0
M  V30 4719 H 448.662 3.13968 -6.21609 0
M  V30 4720 H 446.289 3.13246 -6.92662 0
M  V30 4721 N 447.864 1.01787 1.20321 0
M  V30 4722 C 449.112 0.706538 1.89347 0
M  V30 4723 C 449.433 -0.766289 1.79313 0
M  V30 4724 O 448.703 -1.55126 1.19635 0
M  V30 4725 H 447.283 0.258348 0.700903 0
M  V30 4726 H 449.945 1.28974 1.46122 0
M  V30 4727 H 449.041 0.991066 2.95946 0
M  V30 4728 N 449.342 -1.36122 0.79427 0
M  V30 4729 C 450.591 -1.98361 0.365464 0
M  V30 4730 C 450.904 -1.6374 -1.06997 0
M  V30 4731 O 452.11 -2.19251 -1.60129 0
M  V30 4732 C 450.566 -3.54821 0.602496 0
M  V30 4733 C 450.174 -3.98362 2.04967 0
M  V30 4734 C 451.918 -4.2383 0.238437 0
M  V30 4735 C 449.825 -5.47619 2.2331 0
M  V30 4736 H 448.755 -0.742193 0.13291 0
M  V30 4737 H 451.406 -1.55354 0.976589 0
M  V30 4738 H 449.788 -3.95922 -0.078409 0
M  V30 4739 H 450.962 -3.68447 2.76737 0
M  V30 4740 H 449.277 -3.42206 2.37243 0
M  V30 4741 H 451.874 -5.33529 0.353705 0
M  V30 4742 H 452.217 -4.08264 -0.814006 0
M  V30 4743 H 452.75 -3.88108 0.872769 0
M  V30 4744 H 449.489 -5.68138 3.26955 0
M  V30 4745 H 449.009 -5.79145 1.5605 0
M  V30 4746 H 450.688 -6.13911 2.0426 0
M  V30 4747 N 450.82 -0.546701 -1.47814 0
M  V30 4748 C 452.069 -0.0166497 -2.01693 0
M  V30 4749 C 452.382 1.33721 -1.42752 0
M  V30 4750 O 453.588 1.95658 -1.8823 0
M  V30 4751 C 452.044 0.0206769 -3.59894 0
M  V30 4752 C 451.652 -1.3293 -4.27824 0
M  V30 4753 C 453.396 0.498674 -4.21561 0
M  V30 4754 C 451.303 -1.25165 -5.78003 0
M  V30 4755 H 450.233 -0.0024541 -0.753996 0
M  V30 4756 H 452.884 -0.692984 -1.69912 0
M  V30 4757 H 451.266 0.76244 -3.88591 0
M  V30 4758 H 452.44 -2.08795 -4.10781 0
M  V30 4759 H 450.755 -1.74438 -3.78101 0
M  V30 4760 H 453.352 0.575 -5.31599 0
M  V30 4761 H 453.695 1.5083 -3.88016 0
M  V30 4762 H 454.228 -0.18791 -3.97356 0
M  V30 4763 H 450.967 -2.23695 -6.1615 0
M  V30 4764 H 450.487 -0.53464 -5.97412 0
M  V30 4765 H 452.166 -0.949299 -6.39998 0
M  V30 4766 N 452.299 1.55045 -0.282633 0
M  V30 4767 C 453.547 1.99365 0.331334 0
M  V30 4768 C 453.868 1.1725 1.55812 0
M  V30 4769 O 453.138 0.263871 1.94115 0
M  V30 4770 H 451.718 0.736397 0.125414 0
M  V30 4771 H 454.38 1.90964 -0.389711 0
M  V30 4772 H 453.476 3.0596 0.616036 0
M  V30 4773 N 453.777 0.010035 1.57597 0
M  V30 4774 C 454.707 -0.976857 2.12084 0
M  V30 4775 C 455.688 -1.35191 1.03235 0
M  V30 4776 O 456.873 -1.43389 1.3097 0
M  V30 4777 C 454.003 -2.26548 2.63236 0
M  V30 4778 C 452.957 -2.03175 3.76701 0
M  V30 4779 C 452.283 -3.38138 4.14206 0
M  V30 4780 C 453.583 -1.38625 5.03568 0
M  V30 4781 H 455.277 -0.523145 2.94794 0
M  V30 4782 H 452.823 -0.250195 1.4181 0
M  V30 4783 H 454.776 -2.95952 2.99984 0
M  V30 4784 H 453.5 -2.74051 1.77661 0
M  V30 4785 H 452.159 -1.36195 3.40362 0
M  V30 4786 H 451.807 -3.83363 3.25641 0
M  V30 4787 H 451.507 -3.23312 4.90656 0
M  V30 4788 H 453.031 -4.08841 4.53521 0
M  V30 4789 H 454.445 -1.98 5.38023 0
M  V30 4790 H 452.842 -1.34256 5.84889 0
M  V30 4791 H 453.912 -0.356722 4.83586 0
M  V30 4792 N 455.255 -1.55392 -0.262866 0
M  V30 4793 C 456.504 -1.75679 -0.990943 0
M  V30 4794 C 456.817 -0.57097 -1.87081 0
M  V30 4795 O 458.023 -0.656486 -2.63444 0
M  V30 4796 C 456.479 -3.10964 -1.81188 0
M  V30 4797 C 456.087 -4.37146 -0.980188 0
M  V30 4798 C 457.831 -3.40597 -2.53365 0
M  V30 4799 C 455.738 -5.63466 -1.7961 0
M  V30 4800 H 454.668 -0.654868 -0.373716 0
M  V30 4801 H 457.319 -1.81841 -0.246203 0
M  V30 4802 H 455.701 -2.98867 -2.59797 0
M  V30 4803 H 456.875 -4.60187 -0.237558 0
M  V30 4804 H 455.19 -4.14731 -0.372497 0
M  V30 4805 H 457.787 -4.32186 -3.14833 0
M  V30 4806 H 458.13 -2.6119 -3.24169 0
M  V30 4807 H 458.663 -3.53838 -1.81779 0
M  V30 4808 H 455.402 -6.4565 -1.13209 0
M  V30 4809 H 454.922 -5.44552 -2.51443 0
M  V30 4810 H 456.601 -6.02139 -2.36723 0
M  V30 4811 N 456.733 0.527833 -1.48498 0
M  V30 4812 C 457.666 1.64892 -1.57753 0
M  V30 4813 C 458.644 1.5687 -0.427867 0
M  V30 4814 O 459.828 1.77311 -0.639764 0
M  V30 4815 C 456.955 3.03301 -1.50752 0
M  V30 4816 C 456.001 3.29675 -2.70586 0
M  V30 4817 S 456.834 3.15712 -4.32535 0
M  V30 4818 C 457.99 4.56564 -4.28136 0
M  V30 4819 H 458.223 1.56792 -2.52594 0
M  V30 4820 H 455.756 0.710959 -1.37057 0
M  V30 4821 H 457.714 3.83123 -1.474 0
M  V30 4822 H 456.375 3.08839 -0.572454 0
M  V30 4823 H 455.568 4.3065 -2.61833 0
M  V30 4824 H 455.17 2.57526 -2.71212 0
M  V30 4825 H 457.462 5.48126 -3.98201 0
M  V30 4826 H 458.405 4.70371 -5.29298 0
M  V30 4827 H 458.813 4.35987 -3.58574 0
M  V30 4828 N 458.211 1.37122 0.776871 0
M  V30 4829 C 459.141 1.35164 1.90402 0
M  V30 4830 C 460.122 0.221069 1.68657 0
M  V30 4831 O 461.307 0.420642 1.8959 0
M  V30 4832 C 458.437 1.15274 3.27611 0
M  V30 4833 C 457.391 2.25289 3.63908 0
M  V30 4834 C 456.717 1.90527 4.99603 0
M  V30 4835 C 458.017 3.67446 3.71188 0
M  V30 4836 H 459.711 2.29482 1.92297 0
M  V30 4837 H 457.257 1.10465 0.923773 0
M  V30 4838 H 459.21 1.12536 4.06096 0
M  V30 4839 H 457.934 0.174102 3.26136 0
M  V30 4840 H 456.593 2.27174 2.87728 0
M  V30 4841 H 456.241 0.91206 4.94662 0
M  V30 4842 H 455.941 2.64193 5.24858 0
M  V30 4843 H 457.465 1.89367 5.80493 0
M  V30 4844 H 458.879 3.67719 4.39836 0
M  V30 4845 H 457.276 4.40123 4.07936 0
M  V30 4846 H 458.346 4.01443 2.71977 0
M  V30 4847 N 459.689 -1.00246 1.21608 0
M  V30 4848 C 460.938 -1.73476 1.02902 0
M  V30 4849 C 461.251 -1.90643 -0.437561 0
M  V30 4850 O 462.457 -2.61105 -0.74407 0
M  V30 4851 C 460.913 -3.12079 1.79261 0
M  V30 4852 C 460.521 -3.02877 3.30106 0
M  V30 4853 C 462.265 -3.89421 1.68972 0
M  V30 4854 C 460.172 -4.36575 3.98944 0
M  V30 4855 H 459.102 -0.650408 0.381425 0
M  V30 4856 H 461.753 -1.11985 1.45367 0
M  V30 4857 H 460.135 -3.74196 1.2959 0
M  V30 4858 H 461.309 -2.49983 3.87098 0
M  V30 4859 H 459.624 -2.39022 3.40965 0
M  V30 4860 H 462.221 -4.88362 2.17731 0
M  V30 4861 H 462.564 -4.1122 0.648397 0
M  V30 4862 H 463.097 -3.33963 2.16133 0
M  V30 4863 H 459.836 -4.19978 5.03288 0
M  V30 4864 H 459.356 -4.8942 3.4674 0
M  V30 4865 H 461.035 -5.05364 4.04 0
M  V30 4866 N 461.167 -1.02423 -1.1978 0
M  V30 4867 C 462.415 -0.716569 -1.8897 0
M  V30 4868 C 462.736 0.756769 -1.79716 0
M  V30 4869 O 462.006 1.5449 -1.20456 0
M  V30 4870 H 460.586 -0.262062 -0.699523 0
M  V30 4871 H 463.248 -1.29747 -1.45436 0
M  V30 4872 H 462.344 -1.00675 -2.95417 0
M  V30 4873 N 462.645 1.35699 -0.801477 0
M  V30 4874 C 463.891 1.99643 -0.389135 0
M  V30 4875 C 464.246 1.62447 1.03095 0
M  V30 4876 O 463.539 0.875064 1.7045 0
M  V30 4877 C 463.733 3.53828 -0.504041 0
M  V30 4878 C 463.562 4.06 -1.93375 0
M  V30 4879 C 462.332 4.35592 -2.561 0
M  V30 4880 C 464.53 4.24905 -2.89759 0
M  V30 4881 N 462.512 4.73663 -3.90534 0
M  V30 4882 C 463.883 4.65914 -4.09052 0
M  V30 4883 C 465.938 4.07101 -2.86658 0
M  V30 4884 C 464.641 4.90984 -5.25669 0
M  V30 4885 C 466.667 4.33324 -4.02472 0
M  V30 4886 C 466.029 4.74601 -5.20512 0
M  V30 4887 H 462.128 0.758552 -0.19006 0
M  V30 4888 H 464.712 1.64493 -1.04164 0
M  V30 4889 H 462.883 3.88219 0.118437 0
M  V30 4890 H 464.615 4.04645 -0.0667794 0
M  V30 4891 H 461.37 4.25728 -2.07492 0
M  V30 4892 H 461.794 4.96965 -4.59734 0
M  V30 4893 H 466.436 3.74335 -1.96552 0
M  V30 4894 H 464.154 5.22626 -6.1635 0
M  V30 4895 H 467.74 4.21107 -4.01447 0
M  V30 4896 H 466.62 4.94497 -6.08639 0
M  V30 4897 N 464.123 0.554532 1.47522 0
M  V30 4898 C 465.348 0.0322661 2.07375 0
M  V30 4899 C 465.773 -1.25079 1.40488 0
M  V30 4900 O 465.131 -1.74859 0.47896 0
M  V30 4901 C 465.179 -0.149397 3.6029 0
M  V30 4902 O 464.283 -1.21259 3.9417 0
M  V30 4903 H 463.624 0.0501228 0.662106 0
M  V30 4904 H 466.154 0.769452 1.8958 0
M  V30 4905 H 466.164 -0.364437 4.06369 0
M  V30 4906 H 464.839 0.787743 4.08372 0
M  V30 4907 H 463.416 -0.97825 3.5984 0
M  V30 4908 N 465.601 -1.54893 0.290851 0
M  V30 4909 C 466.533 -2.20564 -0.623236 0
M  V30 4910 C 467.546 -1.19519 -1.1054 0
M  V30 4911 O 468.735 -1.46165 -1.02459 0
M  V30 4912 C 465.835 -2.83033 -1.86401 0
M  V30 4913 C 465.008 -4.09916 -1.52604 0
M  V30 4914 C 464.067 -4.56284 -2.62091 0
M  V30 4915 O 463.093 -5.2171 -2.27612 0
M  V30 4916 N 464.295 -4.27746 -3.92446 0
M  V30 4917 H 467.06 -2.99638 -0.0610915 0
M  V30 4918 H 464.621 -1.61508 0.112615 0
M  V30 4919 H 466.613 -3.1099 -2.58973 0
M  V30 4920 H 465.183 -2.0786 -2.33481 0
M  V30 4921 H 464.403 -3.89078 -0.633424 0
M  V30 4922 H 465.691 -4.92554 -1.27547 0
M  V30 4923 H 465.089 -3.7531 -4.23272 0
M  V30 4924 H 463.646 -4.60437 -4.61347 0
M  V30 4925 N 467.08 -0.0183926 -1.57589 0
M  V30 4926 C 468.328 0.661253 -1.90976 0
M  V30 4927 C 468.649 1.73281 -0.894353 0
M  V30 4928 O 467.919 1.9579 0.0656788 0
M  V30 4929 H 466.499 0.247233 -0.704901 0
M  V30 4930 H 469.161 -0.0636639 -1.94796 0
M  V30 4931 H 468.257 1.12083 -2.9128 0
M  V30 4932 N 468.558 1.5553 0.254621 0
M  V30 4933 C 469.505 1.89666 1.31512 0
M  V30 4934 C 470.475 0.750057 1.482 0
M  V30 4935 O 471.66 1.00301 1.62309 0
M  V30 4936 C 468.8 2.19009 2.667 0
M  V30 4937 C 467.913 3.46435 2.58083 0
M  V30 4938 C 467.048 3.65386 3.85573 0
M  V30 4939 C 466.087 4.8644 3.71541 0
M  V30 4940 N 465.224 5.01952 4.90906 0
M  V30 4941 H 470.064 2.80109 1.017 0
M  V30 4942 H 467.601 1.38666 0.490938 0
M  V30 4943 H 469.559 2.34025 3.45381 0
M  V30 4944 H 468.189 1.31779 2.94676 0
M  V30 4945 H 467.241 3.39792 1.71013 0
M  V30 4946 H 468.553 4.35258 2.43622 0
M  V30 4947 H 467.707 3.80319 4.72697 0
M  V30 4948 H 466.446 2.74781 4.02922 0
M  V30 4949 H 465.451 4.71491 2.82801 0
M  V30 4950 H 466.676 5.78497 3.55694 0
M  V30 4951 H 464.622 4.14283 5.08631 0
M  V30 4952 H 464.539 5.84851 4.79046 0
M  V30 4953 H 465.807 5.21289 5.7955 0
M  V30 4954 N 470.036 -0.519951 1.48776 0
M  V30 4955 C 470.968 -1.63973 1.60142 0
M  V30 4956 C 471.981 -1.55404 0.485117 0
M  V30 4957 O 473.17 -1.61682 0.756391 0
M  V30 4958 C 470.27 -3.02676 1.52449 0
M  V30 4959 C 469.443 -3.36624 2.79291 0
M  V30 4960 C 468.502 -4.54652 2.64912 0
M  V30 4961 O 467.528 -4.57374 3.38818 0
M  V30 4962 N 468.73 -5.53432 1.75195 0
M  V30 4963 H 471.495 -1.54656 2.56713 0
M  V30 4964 H 469.056 -0.707439 1.45626 0
M  V30 4965 H 471.048 -3.79525 1.4051 0
M  V30 4966 H 469.618 -3.06018 0.638125 0
M  V30 4967 H 468.838 -2.48855 3.0572 0
M  V30 4968 H 470.126 -3.56094 3.6342 0
M  V30 4969 H 469.524 -5.54018 1.14371 0
M  V30 4970 H 468.081 -6.29459 1.69189 0
M  V30 4971 N 471.514 -1.37532 -0.769588 0
M  V30 4972 C 472.444 -1.36172 -1.89682 0
M  V30 4973 C 473.425 -0.23001 -1.68538 0
M  V30 4974 O 474.61 -0.43069 -1.89364 0
M  V30 4975 C 471.74 -1.1701 -3.26995 0
M  V30 4976 C 470.694 -2.27216 -3.62708 0
M  V30 4977 C 470.02 -1.93174 -4.98586 0
M  V30 4978 C 471.32 -3.6941 -3.69234 0
M  V30 4979 H 473.014 -2.30499 -1.91078 0
M  V30 4980 H 470.56 -1.10953 -0.917902 0
M  V30 4981 H 472.513 -1.14688 -4.05493 0
M  V30 4982 H 471.237 -0.191395 -3.26039 0
M  V30 4983 H 469.896 -2.28697 -2.86519 0
M  V30 4984 H 469.544 -0.938281 -4.94171 0
M  V30 4985 H 469.244 -2.66973 -5.23449 0
M  V30 4986 H 470.768 -1.92443 -5.79481 0
M  V30 4987 H 472.182 -3.70047 -4.37879 0
M  V30 4988 H 470.579 -4.4228 -4.05597 0
M  V30 4989 H 471.649 -4.0288 -2.69844 0
M  V30 4990 N 472.992 0.995999 -1.22138 0
M  V30 4991 C 473.922 2.10387 -1.01289 0
M  V30 4992 C 474.903 1.69975 0.0651454 0
M  V30 4993 O 476.088 1.9396 -0.0964628 0
M  V30 4994 C 473.218 3.42312 -0.586517 0
M  V30 4995 C 472.172 3.96558 -1.61014 0
M  V30 4996 C 471.498 5.24494 -1.0397 0
M  V30 4997 C 472.798 4.27595 -2.99933 0
M  V30 4998 H 474.492 2.28086 -1.93951 0
M  V30 4999 H 472.038 1.09607 -0.933928 0
M  V30 5000 H 473.991 4.19223 -0.427793 0
M  V30 5001 H 472.715 3.24431 0.375761 0
M  V30 5002 H 471.374 3.21776 -1.75658 0
M  V30 5003 H 471.022 5.02953 -0.0688703 0
M  V30 5004 H 470.722 5.61755 -1.72352 0
M  V30 5005 H 472.246 6.04042 -0.892494 0
M  V30 5006 H 473.66 4.95315 -2.8868 0
M  V30 5007 H 472.057 4.76021 -3.6541 0
M  V30 5008 H 473.127 3.35498 -3.50099 0
M  V30 5009 N 474.47 1.03057 1.19235 0
M  V30 5010 C 475.695 0.74757 1.93458 0
M  V30 5011 C 476.12 -0.687648 1.7508 0
M  V30 5012 O 475.478 -1.47499 1.05422 0
M  V30 5013 C 475.526 1.10604 3.43219 0
M  V30 5014 O 474.63 0.225671 4.11782 0
M  V30 5015 H 473.971 0.276047 0.603899 0
M  V30 5016 H 476.501 1.3777 1.51263 0
M  V30 5017 H 476.511 1.06366 3.93891 0
M  V30 5018 H 475.186 2.15165 3.55917 0
M  V30 5019 H 473.763 0.326795 3.71465 0
M  V30 5020 N 475.948 -1.35272 0.808662 0
M  V30 5021 C 476.881 -2.27595 0.165994 0
M  V30 5022 C 477.859 -1.48189 -0.669241 0
M  V30 5023 O 479.043 -1.77444 -0.636073 0
M  V30 5024 C 476.17 -3.29843 -0.769505 0
M  V30 5025 C 475.216 -4.26498 -0.0136267 0
M  V30 5026 S 476.049 -5.18878 1.32384 0
M  V30 5027 C 477.205 -6.24666 0.392838 0
M  V30 5028 H 477.438 -2.81755 0.948756 0
M  V30 5029 H 474.971 -1.42103 0.603828 0
M  V30 5030 H 476.929 -3.89247 -1.30374 0
M  V30 5031 H 475.59 -2.74558 -1.52567 0
M  V30 5032 H 474.783 -4.98769 -0.724227 0
M  V30 5033 H 474.385 -3.71274 0.450713 0
M  V30 5034 H 476.677 -6.7619 -0.4211 0
M  V30 5035 H 477.62 -6.99741 1.0848 0
M  V30 5036 H 478.028 -5.64499 -0.0123908 0
M  V30 5037 N 477.426 -0.562348 -1.47226 0
M  V30 5038 C 478.673 -0.0402165 -2.0246 0
M  V30 5039 C 479.001 1.31169 -1.43614 0
M  V30 5040 O 478.256 1.86805 -0.5833 0
M  V30 5041 C 478.555 0.0969817 -3.57268 0
M  V30 5042 C 478.221 -1.1847 -4.35058 0
M  V30 5043 C 476.883 -1.53588 -4.56031 0
M  V30 5044 C 479.235 -2.03378 -4.79882 0
M  V30 5045 C 476.563 -2.73452 -5.19077 0
M  V30 5046 C 478.915 -3.2245 -5.44251 0
M  V30 5047 C 477.579 -3.57876 -5.63455 0
M  V30 5048 H 476.849 -0.0147163 -0.740854 0
M  V30 5049 H 479.496 -0.734895 -1.76838 0
M  V30 5050 H 477.801 0.87466 -3.81912 0
M  V30 5051 H 479.498 0.516408 -3.97661 0
M  V30 5052 H 476.088 -0.90126 -4.19017 0
M  V30 5053 H 480.272 -1.77553 -4.63453 0
M  V30 5054 H 475.528 -3.01062 -5.32139 0
M  V30 5055 H 479.702 -3.88526 -5.77945 0
M  V30 5056 H 477.329 -4.50849 -6.12078 0
M  V30 5057 N 478.904 1.54736 -0.299062 0
M  V30 5058 C 480.132 2.04512 0.313447 0
M  V30 5059 C 480.547 1.17643 1.47667 0
M  V30 5060 O 479.904 0.20164 1.81383 0
M  V30 5061 C 479.955 3.53171 0.771542 0
M  V30 5062 O 479.676 4.36736 -0.345379 0
M  V30 5063 C 481.177 4.18936 1.4494 0
M  V30 5064 H 478.397 0.667507 0.0683784 0
M  V30 5065 H 480.941 1.99752 -0.438129 0
M  V30 5066 H 479.096 3.58298 1.47314 0
M  V30 5067 H 479.51 5.24499 0.0109219 0
M  V30 5068 H 480.984 5.24482 1.72111 0
M  V30 5069 H 481.461 3.68554 2.38883 0
M  V30 5070 H 482.067 4.17879 0.791028 0
M  V30 5071 N 480.382 0.0267497 1.57577 0
M  V30 5072 C 481.631 -0.651736 1.9088 0
M  V30 5073 C 481.944 -1.73427 0.904576 0
M  V30 5074 O 483.15 -2.46923 1.12877 0
M  V30 5075 C 481.606 -1.21048 3.38933 0
M  V30 5076 C 481.214 -0.161362 4.47709 0
M  V30 5077 C 482.958 -1.86562 3.81307 0
M  V30 5078 C 480.865 -0.731611 5.86857 0
M  V30 5079 H 479.795 -0.247198 0.712326 0
M  V30 5080 H 482.446 0.0916641 1.83271 0
M  V30 5081 H 480.828 -2.00542 3.41466 0
M  V30 5082 H 482.002 0.61094 4.56732 0
M  V30 5083 H 480.317 0.394877 4.14523 0
M  V30 5084 H 482.914 -2.30178 4.8262 0
M  V30 5085 H 483.257 -2.70735 3.16241 0
M  V30 5086 H 483.79 -1.13762 3.81186 0
M  V30 5087 H 480.529 0.0719329 6.55461 0
M  V30 5088 H 480.049 -1.47245 5.81445 0
M  V30 5089 H 481.728 -1.22208 6.35354 0
M  V30 5090 N 481.861 -1.55662 -0.24637 0
M  V30 5091 C 483.109 -1.77168 -0.972411 0
M  V30 5092 C 483.43 -0.590827 -1.85834 0
M  V30 5093 O 482.7 0.393365 -1.9191 0
M  V30 5094 H 481.28 -0.653405 -0.362038 0
M  V30 5095 H 483.942 -1.93101 -0.264189 0
M  V30 5096 H 483.038 -2.68335 -1.59382 0
M  V30 5097 N 483.339 0.512053 -1.4905 0
M  V30 5098 C 484.585 1.26874 -1.58212 0
M  V30 5099 C 484.918 1.9241 -0.263073 0
M  V30 5100 O 484.193 1.80181 0.732476 0
M  V30 5101 C 484.476 2.34428 -2.73341 0
M  V30 5102 C 484.329 1.73466 -4.15006 0
M  V30 5103 C 485.648 3.36073 -2.84154 0
M  V30 5104 H 482.767 0.459924 -0.575881 0
M  V30 5105 H 485.409 0.568587 -1.81293 0
M  V30 5106 H 483.559 2.94146 -2.53792 0
M  V30 5107 H 485.231 1.17661 -4.46042 0
M  V30 5108 H 483.474 1.03921 -4.21168 0
M  V30 5109 H 484.145 2.51426 -4.91415 0
M  V30 5110 H 486.621 2.86332 -3.01916 0
M  V30 5111 H 485.497 4.08703 -3.66406 0
M  V30 5112 H 485.758 3.97725 -1.93048 0
M  V30 5113 N 484.817 1.37938 0.762283 0
M  V30 5114 C 486.042 1.37059 1.55659 0
M  V30 5115 C 486.467 -0.0396123 1.88058 0
M  V30 5116 O 485.825 -1.01929 1.49934 0
M  V30 5117 C 485.873 2.22494 2.83776 0
M  V30 5118 O 484.977 1.63607 3.78559 0
M  V30 5119 H 484.318 0.467892 0.47114 0
M  V30 5120 H 486.848 1.81587 0.942725 0
M  V30 5121 H 486.858 2.36045 3.32786 0
M  V30 5122 H 485.533 3.24993 2.59524 0
M  V30 5123 H 484.11 1.5915 3.37233 0
M  V30 5124 N 486.295 -0.989507 1.22664 0
M  V30 5125 C 487.225 -2.09847 1.02404 0
M  V30 5126 C 488.206 -1.70007 -0.0561303 0
M  V30 5127 O 489.391 -1.93906 0.106748 0
M  V30 5128 C 486.521 -3.41996 0.604663 0
M  V30 5129 C 485.475 -3.95699 1.63115 0
M  V30 5130 C 484.801 -5.23936 1.0675 0
M  V30 5131 C 486.101 -4.25999 3.02196 0
M  V30 5132 H 487.795 -2.27054 1.95158 0
M  V30 5133 H 485.341 -1.09111 0.939727 0
M  V30 5134 H 487.294 -4.1899 0.45002 0
M  V30 5135 H 486.018 -3.24626 -0.35855 0
M  V30 5136 H 484.677 -3.2084 1.77362 0
M  V30 5137 H 484.325 -5.02909 0.0955422 0
M  V30 5138 H 484.025 -5.60833 1.75328 0
M  V30 5139 H 485.549 -6.0356 0.924516 0
M  V30 5140 H 486.963 -4.93777 2.91303 0
M  V30 5141 H 485.36 -4.74076 3.67929 0
M  V30 5142 H 486.43 -3.33636 3.51873 0
M  V30 5143 N 487.773 -1.03688 -1.18687 0
M  V30 5144 C 488.736 -0.629115 -2.20397 0
M  V30 5145 C 489.736 0.311495 -1.57754 0
M  V30 5146 O 490.926 0.0974107 -1.73927 0
M  V30 5147 C 488.058 0.0782231 -3.4081 0
M  V30 5148 H 489.251 -1.52915 -2.57987 0
M  V30 5149 H 486.804 -0.828988 -1.32505 0
M  V30 5150 H 487.539 0.992233 -3.08748 0
M  V30 5151 H 487.324 -0.597776 -3.87517 0
M  V30 5152 H 488.814 0.350156 -4.16129 0
M  V30 5153 N 489.251 1.34841 -0.815825 0
M  V30 5154 C 490.497 1.98793 -0.401129 0
M  V30 5155 C 490.83 1.64548 1.03139 0
M  V30 5156 O 490.105 0.913487 1.71714 0
M  V30 5157 C 490.388 3.55143 -0.595409 0
M  V30 5158 C 490.241 3.99155 -2.07352 0
M  V30 5159 C 491.56 4.40092 -0.0268823 0
M  V30 5160 H 488.679 0.722146 -0.14722 0
M  V30 5161 H 491.321 1.59847 -1.02707 0
M  V30 5162 H 489.471 3.8845 -0.0625779 0
M  V30 5163 H 491.143 3.76216 -2.66945 0
M  V30 5164 H 489.386 3.49726 -2.56659 0
M  V30 5165 H 490.057 5.07971 -2.1603 0
M  V30 5166 H 492.533 4.13298 -0.482042 0
M  V30 5167 H 491.409 5.48562 -0.19267 0
M  V30 5168 H 491.67 4.29016 1.06759 0
M  V30 5169 N 490.729 0.570148 1.46925 0
M  V30 5170 C 491.692 -0.159933 2.28641 0
M  V30 5171 C 492.692 -0.830638 1.37685 0
M  V30 5172 O 493.882 -0.684516 1.60187 0
M  V30 5173 C 491.014 -1.2354 3.17727 0
M  V30 5174 H 492.207 0.558035 2.94662 0
M  V30 5175 H 489.76 0.327603 1.52828 0
M  V30 5176 H 490.495 -1.98535 2.56426 0
M  V30 5177 H 490.28 -0.759125 3.84681 0
M  V30 5178 H 491.77 -1.74782 3.79264 0
M  V30 5179 N 492.207 -1.54576 0.307264 0
M  V30 5180 C 493.17 -2.22423 -0.553224 0
M  V30 5181 C 494.17 -1.21231 -1.05639 0
M  V30 5182 O 495.36 -1.45923 -0.951419 0
M  V30 5183 C 492.492 -2.91552 -1.76664 0
M  V30 5184 H 493.685 -2.99874 0.0396484 0
M  V30 5185 H 491.238 -1.56192 0.0581629 0
M  V30 5186 H 491.973 -2.18196 -2.39918 0
M  V30 5187 H 491.758 -3.65738 -1.41343 0
M  V30 5188 H 493.248 -3.43292 -2.37783 0
M  V30 5189 N 493.685 -0.035106 -1.57561 0
M  V30 5190 C 494.934 0.641604 -1.91223 0
M  V30 5191 C 495.247 1.72944 -0.913761 0
M  V30 5192 O 496.453 2.46321 -1.14185 0
M  V30 5193 C 494.909 1.19249 -3.3957 0
M  V30 5194 C 494.517 0.137616 -4.47789 0
M  V30 5195 C 496.261 1.84537 -3.82291 0
M  V30 5196 C 494.168 0.700478 -5.87237 0
M  V30 5197 H 493.098 0.243417 -0.713627 0
M  V30 5198 H 495.749 -0.101382 -1.8322 0
M  V30 5199 H 494.131 1.98728 -3.42525 0
M  V30 5200 H 495.305 -0.635153 -4.56402 0
M  V30 5201 H 493.62 -0.416855 -4.14308 0
M  V30 5202 H 496.217 2.27616 -4.83834 0
M  V30 5203 H 496.56 2.69054 -3.17672 0
M  V30 5204 H 497.093 1.11739 -3.81784 0
M  V30 5205 H 493.832 -0.106693 -6.55413 0
M  V30 5206 H 493.352 1.4416 -5.82218 0
M  V30 5207 H 495.031 1.18837 -6.35993 0
M  V30 5208 N 495.163 1.55791 0.238111 0
M  V30 5209 C 496.574 1.68383 0.806472 0
M  V30 5210 C 496.925 0.634157 1.85669 0
M  V30 5211 O 496.05 -0.217913 2.153 0
M  V30 5212 C 496.645 3.05268 1.46959 0
M  V30 5213 C 495.204 3.1977 1.98555 0
M  V30 5214 C 494.351 2.64279 0.839763 0
M  V30 5215 H 497.302 1.58694 0.0137535 0
M  V30 5216 H 497.323 3.00203 2.33792 0
M  V30 5217 H 496.835 3.81643 0.704993 0
M  V30 5218 H 494.936 2.48234 2.77868 0
M  V30 5219 H 495.049 4.26788 2.17689 0
M  V30 5220 H 493.413 2.22329 1.24265 0
M  V30 5221 H 494.196 3.43187 0.0881032 0
M  V30 5222 N 496.642 -0.504142 1.49319 0
M  V30 5223 C 497.552 -1.63248 1.68486 0
M  V30 5224 C 498.568 -1.64488 0.567432 0
M  V30 5225 O 499.744 -1.82966 0.841749 0
M  V30 5226 C 496.809 -2.99627 1.74426 0
M  V30 5227 C 495.87 -3.09039 2.97982 0
M  V30 5228 C 495.103 -4.38913 3.0363 0
M  V30 5229 O 495.326 -5.27528 2.16958 0
M  V30 5230 O 494.26 -4.53231 3.96062 0
M  V30 5231 H 498.086 -1.50008 2.64067 0
M  V30 5232 H 495.671 -0.680086 1.33023 0
M  V30 5233 H 497.553 -3.80689 1.80705 0
M  V30 5234 H 496.228 -3.13136 0.820233 0
M  V30 5235 H 495.135 -2.27177 2.97223 0
M  V30 5236 H 496.468 -3.00456 3.89855 0
M  V30 5237 N 498.12 -1.38341 -0.754957 0
M  V30 5238 C 499.368 -1.34208 -1.51105 0
M  V30 5239 C 499.689 0.0677634 -1.94882 0
M  V30 5240 O 498.959 1.01517 -1.67544 0
M  V30 5241 H 497.539 -0.493819 -0.560493 0
M  V30 5242 H 500.201 -1.73005 -0.897507 0
M  V30 5243 H 499.297 -1.99203 -2.4026 0
M  V30 5244 N 499.598 0.982988 -1.23187 0
M  V30 5245 C 500.528 2.09301 -1.03515 0
M  V30 5246 C 501.509 1.70035 0.0471136 0
M  V30 5247 O 502.694 1.93847 -0.117029 0
M  V30 5248 C 499.824 3.4167 -0.622791 0
M  V30 5249 C 498.778 3.94828 -1.65211 0
M  V30 5250 C 498.104 5.23362 -1.09527 0
M  V30 5251 C 499.404 4.2439 -3.04451 0
M  V30 5252 H 501.098 2.26016 -1.96359 0
M  V30 5253 H 498.644 1.08611 -0.945501 0
M  V30 5254 H 500.597 4.18746 -0.472233 0
M  V30 5255 H 499.321 3.24811 0.341329 0
M  V30 5256 H 497.98 3.19895 -1.79061 0
M  V30 5257 H 497.628 5.02852 -0.122211 0
M  V30 5258 H 497.328 5.59895 -1.783 0
M  V30 5259 H 498.852 6.03062 -0.956511 0
M  V30 5260 H 500.266 4.92225 -2.93917 0
M  V30 5261 H 498.663 4.72118 -3.70438 0
M  V30 5262 H 499.733 3.31765 -3.53638 0
M  V30 5263 N 501.076 1.04316 1.18135 0
M  V30 5264 C 502.487 0.775505 1.69832 0
M  V30 5265 C 502.838 -0.703348 1.8316 0
M  V30 5266 O 501.963 -1.54729 1.51287 0
M  V30 5267 C 502.558 1.40112 3.0847 0
M  V30 5268 C 501.117 1.18172 3.57368 0
M  V30 5269 C 500.264 1.49022 2.33854 0
M  V30 5270 H 503.215 1.20925 1.02775 0
M  V30 5271 H 503.236 0.805672 3.71873 0
M  V30 5272 H 502.748 2.47744 2.98738 0
M  V30 5273 H 500.849 0.124258 3.72393 0
M  V30 5274 H 500.962 1.8805 4.40652 0
M  V30 5275 H 499.326 0.909995 2.37889 0
M  V30 5276 H 500.109 2.57768 2.26738 0
M  V30 5277 N 502.554 -1.34406 0.822964 0
M  V30 5278 C 503.803 -1.97542 0.407458 0
M  V30 5279 C 504.116 -1.65973 -1.035 0
M  V30 5280 O 505.322 -2.22598 -1.55442 0
M  V30 5281 C 503.778 -3.53463 0.677623 0
M  V30 5282 C 503.386 -3.93925 2.1337 0
M  V30 5283 C 505.13 -4.23229 0.328284 0
M  V30 5284 C 503.037 -5.42759 2.34876 0
M  V30 5285 H 501.967 -0.739207 0.148623 0
M  V30 5286 H 504.618 -1.53248 1.00932 0
M  V30 5287 H 503 -3.96 0.00558965 0
M  V30 5288 H 504.174 -3.62494 2.8449 0
M  V30 5289 H 502.489 -3.37097 2.44448 0
M  V30 5290 H 505.086 -5.32659 0.466794 0
M  V30 5291 H 505.429 -4.09899 -0.727224 0
M  V30 5292 H 505.962 -3.86169 0.954896 0
M  V30 5293 H 502.701 -5.61075 3.38932 0
M  V30 5294 H 502.221 -5.75704 1.68299 0
M  V30 5295 H 503.9 -6.0944 2.17236 0
M  V30 5296 N 504.032 -0.577932 -1.46621 0
M  V30 5297 C 505.278 -0.0617793 -2.02706 0
M  V30 5298 C 505.611 1.29294 -1.44903 0
M  V30 5299 O 504.886 1.8461 -0.61232 0
M  V30 5300 C 505.169 0.00911824 -3.60099 0
M  V30 5301 C 505.022 -1.37416 -4.28295 0
M  V30 5302 C 506.341 0.712159 -4.343 0
M  V30 5303 H 503.46 -0.0239246 -0.736612 0
M  V30 5304 H 506.102 -0.744211 -1.74818 0
M  V30 5305 H 504.252 0.590292 -3.83989 0
M  V30 5306 H 505.924 -2.00013 -4.15683 0
M  V30 5307 H 504.167 -1.94319 -3.87843 0
M  V30 5308 H 504.838 -1.27707 -5.37024 0
M  V30 5309 H 507.314 0.218486 -4.15526 0
M  V30 5310 H 506.19 0.730782 -5.44014 0
M  V30 5311 H 506.451 1.77251 -4.05012 0
M  V30 5312 N 505.51 1.54411 -0.315457 0
M  V30 5313 C 506.756 2.00716 0.289972 0
M  V30 5314 C 507.089 1.2034 1.5242 0
M  V30 5315 O 506.364 0.283579 1.92422 0
M  V30 5316 C 506.647 3.54507 0.632196 0
M  V30 5317 C 506.5 4.45615 -0.61218 0
M  V30 5318 C 507.819 4.15421 1.45305 0
M  V30 5319 H 504.938 0.729637 0.10392 0
M  V30 5320 H 507.58 1.8506 -0.430427 0
M  V30 5321 H 505.73 3.67979 1.24595 0
M  V30 5322 H 507.402 4.44026 -1.25053 0
M  V30 5323 H 505.645 4.15621 -1.24264 0
M  V30 5324 H 506.316 5.51022 -0.328379 0
M  V30 5325 H 508.792 4.05474 0.934331 0
M  V30 5326 H 507.668 5.23157 1.66127 0
M  V30 5327 H 507.929 3.68223 2.44671 0
M  V30 5328 N 506.988 0.0434614 1.5754 0
M  V30 5329 C 507.921 -0.968729 2.06618 0
M  V30 5330 C 508.899 -1.30868 0.965 0
M  V30 5331 O 510.083 -1.42288 1.23638 0
M  V30 5332 C 507.21 -2.28486 2.50023 0
M  V30 5333 C 506.256 -2.09851 3.71302 0
M  V30 5334 S 507.089 -1.38401 5.17306 0
M  V30 5335 C 508.245 -2.71354 5.64019 0
M  V30 5336 H 508.478 -0.551021 2.92149 0
M  V30 5337 H 506.011 -0.168607 1.53477 0
M  V30 5338 H 507.969 -3.04142 2.75695 0
M  V30 5339 H 506.63 -2.67387 1.64812 0
M  V30 5340 H 505.823 -3.07184 3.99567 0
M  V30 5341 H 505.425 -1.42336 3.45856 0
M  V30 5342 H 507.717 -3.67549 5.69134 0
M  V30 5343 H 508.66 -2.47734 6.6335 0
M  V30 5344 H 509.068 -2.77259 4.91719 0
M  V30 5345 N 508.466 -1.55915 -0.229846 0
M  V30 5346 C 509.712 -1.78807 -0.956868 0
M  V30 5347 C 510.045 -0.611687 -1.84315 0
M  V30 5348 O 509.32 0.389398 -1.90562 0
M  V30 5349 C 509.603 -3.11718 -1.80288 0
M  V30 5350 C 509.456 -4.3979 -0.943649 0
M  V30 5351 C 510.775 -3.40999 -2.78222 0
M  V30 5352 H 507.894 -0.6505 -0.346437 0
M  V30 5353 H 510.536 -1.88648 -0.226252 0
M  V30 5354 H 508.686 -3.03459 -2.42579 0
M  V30 5355 H 510.358 -4.60059 -0.338121 0
M  V30 5356 H 508.601 -4.33086 -0.248705 0
M  V30 5357 H 509.272 -5.29208 -1.5698 0
M  V30 5358 H 511.748 -3.49332 -2.26067 0
M  V30 5359 H 510.624 -4.35183 -3.34526 0
M  V30 5360 H 510.885 -2.62754 -3.55546 0
M  V30 5361 N 509.944 0.496216 -1.49584 0
M  V30 5362 C 511.172 1.27394 -1.63029 0
M  V30 5363 C 511.587 1.86344 -0.303569 0
M  V30 5364 O 510.944 1.68057 0.711547 0
M  V30 5365 C 510.995 2.40077 -2.70269 0
M  V30 5366 O 510.716 1.83549 -3.97796 0
M  V30 5367 C 512.217 3.31372 -2.94462 0
M  V30 5368 H 509.437 0.386211 -0.54871 0
M  V30 5369 H 511.981 0.595163 -1.95648 0
M  V30 5370 H 510.136 3.03775 -2.40415 0
M  V30 5371 H 510.55 2.57561 -4.56905 0
M  V30 5372 H 512.024 4.06707 -3.73221 0
M  V30 5373 H 512.501 3.88654 -2.0456 0
M  V30 5374 H 513.107 2.73435 -3.25751 0
M  V30 5375 N 511.423 1.38739 0.74761 0
M  V30 5376 C 512.353 1.39173 1.87492 0
M  V30 5377 C 513.334 0.256794 1.6815 0
M  V30 5378 O 514.519 0.460762 1.88655 0
M  V30 5379 C 511.649 1.22197 3.25093 0
M  V30 5380 C 510.603 2.32957 3.59047 0
M  V30 5381 C 509.929 2.01082 4.95449 0
M  V30 5382 C 511.229 3.75237 3.6331 0
M  V30 5383 H 512.923 2.3351 1.87386 0
M  V30 5384 H 510.469 1.12399 0.900134 0
M  V30 5385 H 512.422 1.21124 4.03617 0
M  V30 5386 H 511.146 0.243241 3.25693 0
M  V30 5387 H 509.805 2.33226 2.82845 0
M  V30 5388 H 509.453 1.01678 4.92616 0
M  V30 5389 H 509.153 2.75267 5.19136 0
M  V30 5390 H 510.677 2.01638 5.76346 0
M  V30 5391 H 512.091 3.76966 4.31937 0
M  V30 5392 H 510.488 4.48677 3.98509 0
M  V30 5393 H 511.558 4.07122 2.634 0
M  V30 5394 N 512.901 -0.976442 1.23707 0
M  V30 5395 C 514.147 -1.72081 1.07312 0
M  V30 5396 C 514.48 -1.90275 -0.388476 0
M  V30 5397 O 513.755 -1.4579 -1.28746 0
M  V30 5398 C 514.038 -3.11675 1.80363 0
M  V30 5399 C 513.891 -3.01027 3.3422 0
M  V30 5400 C 515.21 -4.1117 1.5693 0
M  V30 5401 H 512.329 -0.624583 0.391236 0
M  V30 5402 H 514.971 -1.13649 1.52263 0
M  V30 5403 H 513.121 -3.61559 1.42153 0
M  V30 5404 H 514.793 -2.58637 3.81975 0
M  V30 5405 H 513.036 -2.3744 3.63049 0
M  V30 5406 H 513.707 -3.9988 3.80525 0
M  V30 5407 H 516.183 -3.7011 1.90151 0
M  V30 5408 H 515.059 -5.06928 2.10513 0
M  V30 5409 H 515.32 -4.392 0.505548 0
M  V30 5410 N 514.379 -1.04941 -1.1758 0
M  V30 5411 C 515.309 -0.669172 -2.23706 0
M  V30 5412 C 516.29 0.331835 -1.66832 0
M  V30 5413 O 517.475 0.209988 -1.93061 0
M  V30 5414 C 514.605 -0.0404889 -3.47276 0
M  V30 5415 C 513.559 -0.965983 -4.16957 0
M  V30 5416 C 512.885 -0.201312 -5.34321 0
M  V30 5417 C 514.185 -2.28902 -4.69469 0
M  V30 5418 H 515.879 -1.55639 -2.55767 0
M  V30 5419 H 513.425 -0.749793 -1.22939 0
M  V30 5420 H 515.378 0.237298 -4.20731 0
M  V30 5421 H 514.102 0.881658 -3.14475 0
M  V30 5422 H 512.761 -1.22829 -3.45411 0
M  V30 5423 H 512.409 0.723519 -4.97769 0
M  V30 5424 H 512.109 -0.817968 -5.81879 0
M  V30 5425 H 513.633 0.0692499 -6.10561 0
M  V30 5426 H 515.047 -2.07132 -5.34574 0
M  V30 5427 H 513.444 -2.85942 -5.27596 0
M  V30 5428 H 514.514 -2.92937 -3.86414 0
M  V30 5429 N 515.857 1.33968 -0.830081 0
M  V30 5430 C 517.105 1.97672 -0.420734 0
M  V30 5431 C 517.426 1.66111 1.02138 0
M  V30 5432 O 516.696 0.955503 1.71017 0
M  V30 5433 H 515.276 0.73125 -0.152587 0
M  V30 5434 H 517.938 1.63483 -1.0611 0
M  V30 5435 H 517.034 3.07294 -0.545588 0
M  V30 5436 N 517.335 0.585699 1.46312 0
M  V30 5437 C 518.581 0.0725284 2.0267 0
M  V30 5438 C 518.914 -1.28523 1.45586 0
M  V30 5439 O 518.189 -1.84283 0.622101 0
M  V30 5440 C 518.472 0.0099788 3.60099 0
M  V30 5441 C 518.325 1.39685 4.27561 0
M  V30 5442 C 519.644 -0.689117 4.34671 0
M  V30 5443 H 516.763 0.0278307 0.736474 0
M  V30 5444 H 519.405 0.753472 1.74421 0
M  V30 5445 H 517.555 -0.56992 3.84297 0
M  V30 5446 H 519.227 2.02215 4.14617 0
M  V30 5447 H 517.47 1.96374 3.86807 0
M  V30 5448 H 518.141 1.30553 5.36339 0
M  V30 5449 H 520.617 -0.196446 4.15636 0
M  V30 5450 H 519.493 -0.701921 5.44393 0
M  V30 5451 H 519.754 -1.75101 4.05946 0
M  V30 5452 N 518.813 -1.54241 0.323641 0
M  V30 5453 C 519.743 -2.27289 -0.534993 0
M  V30 5454 C 520.724 -1.28087 -1.11927 0
M  V30 5455 O 521.909 -1.56899 -1.14439 0
M  V30 5456 C 519.039 -3.03075 -1.69596 0
M  V30 5457 C 517.993 -4.09614 -1.24098 0
M  V30 5458 C 517.319 -4.73242 -2.4889 0
M  V30 5459 C 518.619 -5.21087 -0.355789 0
M  V30 5460 H 520.313 -2.99308 0.0743257 0
M  V30 5461 H 517.859 -1.43952 0.0371874 0
M  V30 5462 H 519.812 -3.52907 -2.30293 0
M  V30 5463 H 518.536 -2.28673 -2.33187 0
M  V30 5464 H 517.195 -3.60666 -0.656945 0
M  V30 5465 H 516.843 -3.95455 -3.10845 0
M  V30 5466 H 516.543 -5.45209 -2.19138 0
M  V30 5467 H 518.067 -5.25848 -3.10348 0
M  V30 5468 H 519.481 -5.66675 -0.869042 0
M  V30 5469 H 517.878 -5.9991 -0.151045 0
M  V30 5470 H 518.948 -4.81005 0.613339 0
M  V30 5471 N 520.291 -0.0518155 -1.57515 0
M  V30 5472 C 521.707 0.304735 -1.56664 0
M  V30 5473 C 521.907 1.71395 -1.05953 0
M  V30 5474 O 520.963 2.42123 -0.716414 0
M  V30 5475 C 522.276 0.132614 -3.00407 0
M  V30 5476 C 523.824 0.20367 -3.12337 0
M  V30 5477 C 524.299 0.0600706 -4.57961 0
M  V30 5478 N 525.79 0.116326 -4.63054 0
M  V30 5479 C 526.525 0.0293363 -5.73392 0
M  V30 5480 N 526.021 -0.110038 -6.92713 0
M  V30 5481 N 527.814 0.0849651 -5.62036 0
M  V30 5482 H 519.965 -0.973056 -1.888 0
M  V30 5483 H 522.228 -0.377781 -0.869474 0
M  V30 5484 H 521.934 -0.839019 -3.41546 0
M  V30 5485 H 521.808 0.893376 -3.66468 0
M  V30 5486 H 524.195 1.16578 -2.71097 0
M  V30 5487 H 524.276 -0.587857 -2.48954 0
M  V30 5488 H 523.92 -0.898715 -4.99886 0
M  V30 5489 H 523.85 0.87075 -5.19351 0
M  V30 5490 H 526.341 0.22327 -3.7724 0
M  V30 5491 H 526.654 -0.169104 -7.72615 0
M  V30 5492 H 524.999 -0.145132 -6.94848 0
M  V30 5493 H 528.19 0.192411 -4.67704 0
M  V30 5494 H 528.363 0.0137131 -6.47999 0
M  V30 5495 N 521.769 1.56035 0.221574 0
M  V30 5496 C 522.702 1.87427 1.30178 0
M  V30 5497 C 523.68 0.731658 1.45209 0
M  V30 5498 O 524.864 0.980016 1.61022 0
M  V30 5499 C 521.991 2.08127 2.67209 0
M  V30 5500 C 521.037 3.30813 2.69194 0
M  V30 5501 S 521.87 4.86738 2.23263 0
M  V30 5502 C 523.026 5.10474 3.62171 0
M  V30 5503 H 523.259 2.78756 1.03355 0
M  V30 5504 H 520.792 1.48469 0.423813 0
M  V30 5505 H 522.75 2.20736 3.46101 0
M  V30 5506 H 521.411 1.17595 2.91256 0
M  V30 5507 H 520.604 3.42341 3.6989 0
M  V30 5508 H 520.206 3.1706 1.98366 0
M  V30 5509 H 522.498 4.9937 4.5786 0
M  V30 5510 H 523.441 6.12359 3.55558 0
M  V30 5511 H 523.849 4.38208 3.55857 0
M  V30 5512 N 523.247 -0.488276 1.49845 0
M  V30 5513 C 524.21 -1.57069 1.66919 0
M  V30 5514 C 525.21 -1.51445 0.540479 0
M  V30 5515 O 526.4 -1.5437 0.807188 0
M  V30 5516 C 523.532 -2.96718 1.67844 0
M  V30 5517 H 524.725 -1.43254 2.63474 0
M  V30 5518 H 522.278 -0.713435 1.39068 0
M  V30 5519 H 523.013 -3.15996 0.7292 0
M  V30 5520 H 522.798 -3.02208 2.49826 0
M  V30 5521 H 524.288 -3.75335 1.83066 0
M  V30 5522 N 524.725 -1.39134 -0.740242 0
M  V30 5523 C 525.672 -1.37434 -1.8542 0
M  V30 5524 C 526.642 -0.234822 -1.64432 0
M  V30 5525 O 527.827 -0.429125 -1.85912 0
M  V30 5526 C 524.967 -1.21844 -3.22875 0
M  V30 5527 C 524.08 -2.45296 -3.55603 0
M  V30 5528 C 523.215 -2.22334 -4.82432 0
M  V30 5529 C 522.254 -3.41488 -5.07988 0
M  V30 5530 N 521.391 -3.17877 -6.26018 0
M  V30 5531 H 526.231 -2.3266 -1.86207 0
M  V30 5532 H 523.768 -1.15578 -0.909946 0
M  V30 5533 H 525.726 -1.10818 -4.02213 0
M  V30 5534 H 524.356 -0.3025 -3.21379 0
M  V30 5535 H 523.408 -2.66945 -2.71006 0
M  V30 5536 H 524.72 -3.34063 -3.7041 0
M  V30 5537 H 523.874 -2.0852 -5.69741 0
M  V30 5538 H 522.613 -1.30954 -4.6979 0
M  V30 5539 H 521.618 -3.55807 -4.19144 0
M  V30 5540 H 522.843 -4.33763 -5.22519 0
M  V30 5541 H 520.789 -2.29156 -6.14673 0
M  V30 5542 H 520.706 -4.00198 -6.41387 0
M  V30 5543 H 521.974 -3.07746 -7.16179 0
M  V30 5544 N 526.204 0.969867 -1.24223 0
M  V30 5545 C 527.151 2.06407 -1.0327 0
M  V30 5546 C 528.121 1.66014 0.0533 0
M  V30 5547 O 529.306 1.90533 -0.100896 0
M  V30 5548 C 526.446 3.3909 -0.641262 0
M  V30 5549 C 525.559 3.9269 -1.80051 0
M  V30 5550 C 524.694 5.13631 -1.35486 0
M  V30 5551 C 523.733 5.59423 -2.48419 0
M  V30 5552 N 522.87 6.71586 -2.04737 0
M  V30 5553 H 527.71 2.23663 -1.96923 0
M  V30 5554 H 525.247 1.09624 -0.980862 0
M  V30 5555 H 527.205 4.15323 -0.395351 0
M  V30 5556 H 525.835 3.21765 0.258269 0
M  V30 5557 H 524.887 3.13116 -2.16014 0
M  V30 5558 H 526.199 4.22636 -2.64916 0
M  V30 5559 H 525.353 5.97231 -1.0677 0
M  V30 5560 H 524.092 4.85364 -0.476722 0
M  V30 5561 H 523.097 4.74398 -2.77897 0
M  V30 5562 H 524.322 5.89705 -3.36786 0
M  V30 5563 H 522.268 6.45058 -1.19318 0
M  V30 5564 H 522.185 7.0097 -2.83156 0
M  V30 5565 H 523.453 7.58633 -1.79154 0
M  V30 5566 N 527.682 1.05563 1.17022 0
M  V30 5567 C 529.098 0.777684 1.39371 0
M  V30 5568 C 529.298 -0.626269 1.91521 0
M  V30 5569 O 528.354 -1.38806 2.10924 0
M  V30 5570 C 529.667 1.83642 2.3811 0
M  V30 5571 C 531.215 1.85907 2.51809 0
M  V30 5572 C 531.69 2.90813 3.53824 0
M  V30 5573 N 533.181 2.898 3.61345 0
M  V30 5574 C 533.916 3.6762 4.40049 0
M  V30 5575 N 533.412 4.55237 5.22237 0
M  V30 5576 N 535.205 3.56044 4.34959 0
M  V30 5577 H 527.356 1.9614 0.815047 0
M  V30 5578 H 529.619 0.849527 0.420722 0
M  V30 5579 H 529.325 2.84425 2.06871 0
M  V30 5580 H 529.199 1.6812 3.37662 0
M  V30 5581 H 531.586 0.857865 2.82356 0
M  V30 5582 H 531.667 2.05506 1.52318 0
M  V30 5583 H 531.311 3.91122 3.24015 0
M  V30 5584 H 531.241 2.68465 4.53028 0
M  V30 5585 H 533.732 2.26274 3.02669 0
M  V30 5586 H 534.045 5.11291 5.79484 0
M  V30 5587 H 532.39 4.59296 5.21605 0
M  V30 5588 H 535.581 2.86986 3.69806 0
M  V30 5589 H 535.754 4.16938 4.96051 0
M  V30 5590 N 529.16 -1.33526 0.837174 0
M  V30 5591 C 530.406 -1.9813 0.432704 0
M  V30 5592 C 530.739 -1.66168 -1.00508 0
M  V30 5593 O 530.014 -0.94069 -1.70239 0
M  V30 5594 C 530.297 -3.54151 0.651834 0
M  V30 5595 C 530.15 -3.95806 2.13676 0
M  V30 5596 C 531.469 -4.39993 0.0968937 0
M  V30 5597 H 528.588 -0.719713 0.15869 0
M  V30 5598 H 531.23 -1.58193 1.05237 0
M  V30 5599 H 529.38 -3.88301 0.124369 0
M  V30 5600 H 531.052 -3.71921 2.72896 0
M  V30 5601 H 529.295 -3.45599 2.62191 0
M  V30 5602 H 529.966 -5.0447 2.24084 0
M  V30 5603 H 532.442 -4.12479 0.547733 0
M  V30 5604 H 531.318 -5.48186 0.279917 0
M  V30 5605 H 531.579 -4.3066 -0.9992 0
M  V30 5606 N 530.638 -0.59345 -1.46 0
M  V30 5607 C 531.887 -0.0808084 -2.01538 0
M  V30 5608 C 532.2 1.29112 -1.46934 0
M  V30 5609 O 533.406 1.8957 -1.94359 0
M  V30 5610 C 531.862 -0.0938311 -3.59778 0
M  V30 5611 C 531.47 -1.46474 -4.23379 0
M  V30 5612 C 533.214 0.364306 -4.22934 0
M  V30 5613 C 531.121 -1.4349 -5.73729 0
M  V30 5614 H 530.051 -0.0264407 -0.753536 0
M  V30 5615 H 532.702 -0.746689 -1.67621 0
M  V30 5616 H 531.084 0.638427 -3.9082 0
M  V30 5617 H 532.258 -2.21758 -4.03931 0
M  V30 5618 H 530.573 -1.86379 -3.7236 0
M  V30 5619 H 533.17 0.405584 -5.3316 0
M  V30 5620 H 533.513 1.38409 -3.92618 0
M  V30 5621 H 534.046 -0.31423 -3.96557 0
M  V30 5622 H 530.785 -2.43184 -6.08722 0
M  V30 5623 H 530.305 -0.724431 -5.95409 0
M  V30 5624 H 531.984 -1.15243 -6.36654 0
M  V30 5625 N 532.116 1.54067 -0.331816 0
M  V30 5626 C 533.362 2.01012 0.268667 0
M  V30 5627 C 533.695 1.2195 1.51136 0
M  V30 5628 O 532.97 0.303972 1.9211 0
M  V30 5629 C 533.253 3.55158 0.59456 0
M  V30 5630 C 533.106 4.4494 -0.659409 0
M  V30 5631 C 534.425 4.16939 1.4089 0
M  V30 5632 H 531.544 0.730698 0.0961756 0
M  V30 5633 H 534.186 1.84593 -0.450031 0
M  V30 5634 H 532.336 3.6928 1.20685 0
M  V30 5635 H 534.008 4.42675 -1.29756 0
M  V30 5636 H 532.251 4.1428 -1.28665 0
M  V30 5637 H 532.922 5.50643 -0.386804 0
M  V30 5638 H 535.398 4.06443 0.891272 0
M  V30 5639 H 534.274 5.24889 1.60569 0
M  V30 5640 H 534.535 3.70798 2.40752 0
M  V30 5641 N 533.594 0.0601682 1.57485 0
M  V30 5642 C 534.541 -0.91112 2.12055 0
M  V30 5643 C 535.511 -1.30298 1.03013 0
M  V30 5644 O 536.696 -1.39087 1.30612 0
M  V30 5645 C 533.836 -2.1775 2.67729 0
M  V30 5646 C 532.949 -1.83933 3.90887 0
M  V30 5647 C 532.084 -3.05096 4.34845 0
M  V30 5648 C 531.123 -2.67241 5.5068 0
M  V30 5649 N 530.26 -3.81127 5.8965 0
M  V30 5650 H 535.1 -0.43888 2.9475 0
M  V30 5651 H 532.637 -0.204995 1.45665 0
M  V30 5652 H 534.595 -2.91866 2.98111 0
M  V30 5653 H 533.225 -2.62535 1.87816 0
M  V30 5654 H 532.277 -0.999287 3.6704 0
M  V30 5655 H 533.589 -1.52074 4.75052 0
M  V30 5656 H 532.743 -3.87502 4.66827 0
M  V30 5657 H 531.482 -3.40139 3.49509 0
M  V30 5658 H 530.487 -1.83254 5.18361 0
M  V30 5659 H 531.712 -2.3338 6.37738 0
M  V30 5660 H 529.658 -4.15954 5.07266 0
M  V30 5661 H 529.575 -3.52997 6.68528 0
M  V30 5662 H 530.843 -4.64145 6.2625 0
M  V30 5663 N 535.072 -1.5615 -0.213296 0
M  V30 5664 C 536.019 -1.93086 -1.26437 0
M  V30 5665 C 536.989 -0.789086 -1.4616 0
M  V30 5666 O 538.174 -1.04569 -1.59593 0
M  V30 5667 C 535.314 -2.26003 -2.608 0
M  V30 5668 C 534.427 -3.53156 -2.48807 0
M  V30 5669 C 533.562 -3.7548 -3.7575 0
M  V30 5670 C 532.601 -4.96119 -3.58514 0
M  V30 5671 N 531.738 -5.14791 -4.77425 0
M  V30 5672 H 536.578 -2.82707 -0.942376 0
M  V30 5673 H 534.115 -1.39919 -0.454001 0
M  V30 5674 H 536.073 -2.431 -3.39055 0
M  V30 5675 H 534.703 -1.39546 -2.91079 0
M  V30 5676 H 533.755 -3.44207 -1.61944 0
M  V30 5677 H 535.067 -4.41565 -2.31996 0
M  V30 5678 H 534.221 -3.92718 -4.62447 0
M  V30 5679 H 532.96 -2.85368 -3.95495 0
M  V30 5680 H 531.965 -4.78823 -2.70201 0
M  V30 5681 H 533.19 -5.87724 -3.40231 0
M  V30 5682 H 531.136 -4.27623 -4.97468 0
M  V30 5683 H 531.053 -5.97347 -4.63371 0
M  V30 5684 H 532.321 -5.36471 -5.65525 0
M  V30 5685 N 536.55 0.480323 -1.50102 0
M  V30 5686 C 537.48 1.58769 -1.71215 0
M  V30 5687 C 538.461 1.60583 -0.560997 0
M  V30 5688 O 539.646 1.76996 -0.799127 0
M  V30 5689 C 536.776 2.97148 -1.79778 0
M  V30 5690 C 535.73 3.10201 -2.94888 0
M  V30 5691 C 535.056 4.50137 -2.88584 0
M  V30 5692 C 536.356 2.88283 -4.35534 0
M  V30 5693 H 538.05 1.41354 -2.6393 0
M  V30 5694 H 535.596 0.678591 -1.27008 0
M  V30 5695 H 537.549 3.74536 -1.93133 0
M  V30 5696 H 536.273 3.15699 -0.836772 0
M  V30 5697 H 534.932 2.35244 -2.81169 0
M  V30 5698 H 534.58 4.65593 -1.90349 0
M  V30 5699 H 534.28 4.59808 -3.65856 0
M  V30 5700 H 535.804 5.29558 -3.03976 0
M  V30 5701 H 537.218 3.55427 -4.49827 0
M  V30 5702 H 535.615 3.09408 -5.14186 0
M  V30 5703 H 536.685 1.84219 -4.48544 0
M  V30 5704 N 538.028 1.39524 0.732853 0
M  V30 5705 C 539.439 1.32905 1.31122 0
M  V30 5706 C 539.79 -0.00558708 1.96199 0
M  V30 5707 O 538.915 -0.907706 1.96443 0
M  V30 5708 C 539.51 2.40704 2.38426 0
M  V30 5709 C 538.069 2.37599 2.91931 0
M  V30 5710 C 537.216 2.2248 1.65523 0
M  V30 5711 H 540.167 1.49581 0.530207 0
M  V30 5712 H 540.188 2.07616 3.18867 0
M  V30 5713 H 539.7 3.37829 1.91033 0
M  V30 5714 H 537.801 1.44119 3.43599 0
M  V30 5715 H 537.914 3.32538 3.44899 0
M  V30 5716 H 536.278 1.69691 1.8994 0
M  V30 5717 H 537.061 3.21577 1.20178 0
M  V30 5718 N 539.506 -0.963266 1.24736 0
M  V30 5719 C 540.755 -1.70115 1.08369 0
M  V30 5720 C 541.068 -1.91939 -0.376688 0
M  V30 5721 O 542.274 -2.6334 -0.660624 0
M  V30 5722 C 540.73 -3.06218 1.89099 0
M  V30 5723 C 540.338 -2.92221 3.39574 0
M  V30 5724 C 542.082 -3.83848 1.81275 0
M  V30 5725 C 539.989 -4.23662 4.12631 0
M  V30 5726 H 538.919 -0.637944 0.401924 0
M  V30 5727 H 541.57 -1.07304 1.48856 0
M  V30 5728 H 539.952 -3.69884 1.41429 0
M  V30 5729 H 541.126 -2.37541 3.94856 0
M  V30 5730 H 539.441 -2.28054 3.48397 0
M  V30 5731 H 542.038 -4.81188 2.33158 0
M  V30 5732 H 542.381 -4.08949 0.778895 0
M  V30 5733 H 542.914 -3.26918 2.26649 0
M  V30 5734 H 539.653 -4.03753 5.16395 0
M  V30 5735 H 539.173 -4.78141 3.62135 0
M  V30 5736 H 540.852 -4.92256 4.19873 0
M  V30 5737 N 540.985 -1.06182 -1.16461 0
M  V30 5738 C 542.231 -0.779015 -1.87241 0
M  V30 5739 C 542.564 0.692715 -1.81425 0
M  V30 5740 O 541.839 1.5074 -1.22913 0
M  V30 5741 C 542.122 -1.2728 -3.36856 0
M  V30 5742 C 541.975 -2.80821 -3.51368 0
M  V30 5743 C 543.294 -0.879799 -4.31216 0
M  V30 5744 H 540.413 -0.284464 -0.679889 0
M  V30 5745 H 543.055 -1.31755 -1.36896 0
M  V30 5746 H 541.205 -0.814673 -3.79862 0
M  V30 5747 H 542.877 -3.34833 -3.17308 0
M  V30 5748 H 541.12 -3.19606 -2.93316 0
M  V30 5749 H 541.791 -3.10435 -4.56436 0
M  V30 5750 H 544.267 -1.27436 -3.96105 0
M  V30 5751 H 543.143 -1.25278 -5.34412 0
M  V30 5752 H 543.404 0.215372 -4.41575 0
M  V30 5753 N 542.463 1.3308 -0.844243 0
M  V30 5754 C 543.373 2.32876 -0.283922 0
M  V30 5755 C 544.389 1.63589 0.592846 0
M  V30 5756 O 545.565 1.95205 0.495693 0
M  V30 5757 C 542.63 3.42667 0.527283 0
M  V30 5758 C 541.691 4.27664 -0.374394 0
M  V30 5759 C 540.924 5.32212 0.39819 0
M  V30 5760 O 541.147 5.46635 1.62932 0
M  V30 5761 O 540.081 6.01458 -0.2306 0
M  V30 5762 H 543.907 2.82671 -1.11045 0
M  V30 5763 H 541.492 1.36518 -0.606903 0
M  V30 5764 H 543.374 4.09652 0.988078 0
M  V30 5765 H 542.049 2.95079 1.33078 0
M  V30 5766 H 540.956 3.63526 -0.883144 0
M  V30 5767 H 542.289 4.78749 -1.1428 0
M  V30 5768 N 543.941 0.601185 1.45683 0
M  V30 5769 C 545.169 0.100054 2.06658 0
M  V30 5770 C 545.584 -1.21285 1.44691 0
M  V30 5771 O 544.941 -1.73735 0.558772 0
M  V30 5772 C 544.992 -0.0528579 3.61461 0
M  V30 5773 O 544.713 1.20809 4.21114 0
M  V30 5774 C 546.214 -0.586193 4.39407 0
M  V30 5775 H 543.434 0.065905 0.667756 0
M  V30 5776 H 545.978 0.827101 1.87028 0
M  V30 5777 H 544.133 -0.730203 3.80456 0
M  V30 5778 H 544.547 1.03368 5.14213 0
M  V30 5779 H 546.021 -0.642297 5.4825 0
M  V30 5780 H 546.498 -1.60713 4.0874 0
M  V30 5781 H 547.104 0.0568935 4.25262 0
M  V30 5782 N 545.419 -1.53889 0.339982 0
M  V30 5783 C 546.349 -2.27843 -0.510856 0
M  V30 5784 C 547.33 -1.29267 -1.10563 0
M  V30 5785 O 548.515 -1.58104 -1.12768 0
M  V30 5786 C 545.645 -3.04857 -1.66372 0
M  V30 5787 C 544.599 -4.10907 -1.19746 0
M  V30 5788 C 543.925 -4.75855 -2.43857 0
M  V30 5789 C 545.225 -5.21435 -0.300501 0
M  V30 5790 H 546.919 -2.99212 0.106067 0
M  V30 5791 H 544.465 -1.43904 0.0524533 0
M  V30 5792 H 546.418 -3.5533 -2.26537 0
M  V30 5793 H 545.142 -2.31133 -2.30749 0
M  V30 5794 H 543.801 -3.61342 -0.618654 0
M  V30 5795 H 543.449 -3.9873 -3.06633 0
M  V30 5796 H 543.149 -5.47502 -2.13343 0
M  V30 5797 H 544.673 -5.2911 -3.04754 0
M  V30 5798 H 546.087 -5.67565 -0.80889 0
M  V30 5799 H 544.484 -6.00036 -0.0874076 0
M  V30 5800 H 545.554 -4.80328 0.664321 0
M  V30 5801 N 546.897 -0.0685191 -1.57451 0
M  V30 5802 C 548.145 0.60016 -1.92983 0
M  V30 5803 C 548.466 1.70348 -0.949028 0
M  V30 5804 O 547.736 1.959 0.00335647 0
M  V30 5805 H 546.316 0.224682 -0.712409 0
M  V30 5806 H 548.978 -0.125605 -1.94495 0
M  V30 5807 H 548.074 1.02759 -2.94698 0
M  V30 5808 N 548.375 1.56261 0.205012 0
M  V30 5809 C 549.615 1.81823 0.933806 0
M  V30 5810 C 549.979 0.644534 1.80858 0
M  V30 5811 O 551.18 0.779819 2.5724 0
M  V30 5812 C 549.451 3.12362 1.7368 0
M  V30 5813 S 551.01 3.59296 2.51897 0
M  V30 5814 H 547.828 0.638209 0.313386 0
M  V30 5815 H 550.43 1.94495 0.198001 0
M  V30 5816 H 549.134 3.95809 1.08459 0
M  V30 5817 H 548.665 3.02542 2.5146 0
M  V30 5818 H 550.68 3.23945 3.75864 0
M  V30 5819 N 549.853 -0.472356 1.50355 0
M  V30 5820 C 551.093 -1.23439 1.62918 0
M  V30 5821 C 551.457 -1.89284 0.321801 0
M  V30 5822 O 552.658 -2.66854 0.322852 0
M  V30 5823 C 550.929 -2.25119 2.7759 0
M  V30 5824 S 552.488 -3.10278 3.10279 0
M  V30 5825 H 549.306 -0.41911 0.574341 0
M  V30 5826 H 551.908 -0.531621 1.88133 0
M  V30 5827 H 550.612 -1.75324 3.71066 0
M  V30 5828 H 550.143 -3.00026 2.54457 0
M  V30 5829 H 552.158 -4.26257 2.54007 0
M  V30 5830 N 551.331 -1.39911 -0.725443 0
M  V30 5831 C 552.556 -1.41137 -1.5197 0
M  V30 5832 C 552.981 -0.010262 -1.88097 0
M  V30 5833 O 552.339 0.979184 -1.52583 0
M  V30 5834 C 552.387 -2.2994 -2.77777 0
M  V30 5835 O 551.491 -1.73586 -3.74088 0
M  V30 5836 H 550.832 -0.480219 -0.458569 0
M  V30 5837 H 553.362 -1.84023 -0.894249 0
M  V30 5838 H 553.372 -2.44785 -3.26411 0
M  V30 5839 H 552.047 -3.31759 -2.50816 0
M  V30 5840 H 550.624 -1.68035 -3.32894 0
M  V30 5841 N 552.809 0.956637 -1.25245 0
M  V30 5842 C 554.055 1.70352 -1.10036 0
M  V30 5843 C 554.388 1.90869 0.358156 0
M  V30 5844 O 553.663 1.47819 1.26411 0
M  V30 5845 C 553.946 3.08766 -1.85298 0
M  V30 5846 C 553.799 2.95672 -3.38966 0
M  V30 5847 C 555.118 4.08622 -1.63451 0
M  V30 5848 H 552.237 0.618279 -0.401123 0
M  V30 5849 H 554.879 1.11212 -1.54051 0
M  V30 5850 H 553.029 3.59252 -1.47887 0
M  V30 5851 H 554.701 2.52527 -3.86041 0
M  V30 5852 H 552.944 2.31634 -3.6678 0
M  V30 5853 H 553.615 3.93776 -3.86839 0
M  V30 5854 H 556.091 3.67038 -1.96015 0
M  V30 5855 H 554.967 5.03514 -2.18551 0
M  V30 5856 H 555.228 4.3834 -0.575357 0
M  V30 5857 N 554.287 1.06798 1.15896 0
M  V30 5858 C 555.217 0.704677 2.22613 0
M  V30 5859 C 556.198 -0.305252 1.67339 0
M  V30 5860 O 557.383 -0.179247 1.93371 0
M  V30 5861 C 554.513 0.0957325 3.47168 0
M  V30 5862 C 553.467 1.0322 4.15367 0
M  V30 5863 C 552.793 0.286293 5.33933 0
M  V30 5864 C 554.093 2.36341 4.65768 0
M  V30 5865 H 555.787 1.59688 2.53259 0
M  V30 5866 H 553.333 0.769257 1.21731 0
M  V30 5867 H 555.286 -0.170333 4.21056 0
M  V30 5868 H 554.01 -0.831516 3.15838 0
M  V30 5869 H 552.669 1.28309 3.43413 0
M  V30 5870 H 552.317 -0.644237 4.98857 0
M  V30 5871 H 552.017 0.910436 5.80504 0
M  V30 5872 H 553.541 0.0278938 6.10594 0
M  V30 5873 H 554.955 2.1561 5.31211 0
M  V30 5874 H 553.352 2.94299 5.2298 0
M  V30 5875 H 554.422 2.99047 3.81705 0
M  V30 5876 N 555.766 -1.3263 0.851289 0
M  V30 5877 C 557.006 -1.99174 0.459266 0
M  V30 5878 C 557.37 -1.65913 -0.966273 0
M  V30 5879 O 558.571 -2.2552 -1.46267 0
M  V30 5880 C 556.842 -3.50721 0.687698 0
M  V30 5881 S 558.401 -4.37039 0.392746 0
M  V30 5882 H 555.219 -0.689832 0.172199 0
M  V30 5883 H 557.821 -1.61395 1.10327 0
M  V30 5884 H 556.525 -3.72417 1.72435 0
M  V30 5885 H 556.056 -3.93389 0.0299949 0
M  V30 5886 H 558.071 -4.8999 -0.782578 0
M  V30 5887 N 557.244 -0.608902 -1.45362 0
M  V30 5888 C 558.469 -0.10921 -2.07112 0
M  V30 5889 C 558.894 1.19779 -1.45033 0
M  V30 5890 O 558.252 1.72961 -0.543527 0
M  V30 5891 C 558.3 0.0155745 -3.60597 0
M  V30 5892 O 557.404 1.06546 -3.98399 0
M  V30 5893 H 556.745 -0.0746619 -0.659789 0
M  V30 5894 H 559.275 -0.839283 -1.86594 0
M  V30 5895 H 559.285 0.213364 -4.07442 0
M  V30 5896 H 557.96 -0.938765 -4.05167 0
M  V30 5897 H 556.537 0.844024 -3.63223 0
M  V30 5898 N 558.722 1.53707 -0.348139 0
M  V30 5899 C 559.999 1.93247 0.302475 0
M  V30 5900 C 560.379 1.28012 1.67857 0
M  V30 5901 O 559.727 0.43274 2.24365 0
M  V30 5902 C 559.937 3.47031 0.370159 0
M  V30 5903 C 561.285 4.20066 0.61882 0
M  V30 5904 O 562.309 3.53319 0.452087 0
M  V30 5905 O 561.168 5.38318 0.94215 0
M  V30 5906 H 558.262 0.807736 0.177458 0
M  V30 5907 H 560.808 1.64927 -0.399651 0
M  V30 5908 H 559.58 3.86745 -0.59534 0
M  V30 5909 H 559.203 3.81532 1.11888 0
M  V30 5910 N 560.2 0.0768682 1.57412 0
M  V30 5911 C 561.147 -0.888577 2.13009 0
M  V30 5912 C 562.117 -1.29198 1.0439 0
M  V30 5913 O 563.302 -1.37694 1.3208 0
M  V30 5914 C 560.442 -2.14899 2.70023 0
M  V30 5915 C 559.555 -1.79777 3.92816 0
M  V30 5916 C 558.69 -3.00467 4.38056 0
M  V30 5917 C 557.729 -2.61385 5.53484 0
M  V30 5918 N 556.866 -3.74851 5.93659 0
M  V30 5919 H 561.706 -0.407593 2.95199 0
M  V30 5920 H 559.243 -0.189534 1.45874 0
M  V30 5921 H 561.201 -2.88688 3.0119 0
M  V30 5922 H 559.831 -2.60529 1.9059 0
M  V30 5923 H 558.883 -0.960301 3.68079 0
M  V30 5924 H 560.195 -1.47027 4.76639 0
M  V30 5925 H 559.349 -3.82529 4.7091 0
M  V30 5926 H 558.088 -3.36413 3.53097 0
M  V30 5927 H 557.093 -1.77746 5.20275 0
M  V30 5928 H 558.318 -2.26603 6.40178 0
M  V30 5929 H 556.264 -4.1055 5.11649 0
M  V30 5930 H 556.181 -3.45887 6.72234 0
M  V30 5931 H 557.449 -4.57477 6.31138 0
M  V30 5932 N 561.678 -1.56367 -0.196722 0
M  V30 5933 C 562.906 -1.84639 -0.933608 0
M  V30 5934 C 563.321 -0.659164 -1.76919 0
M  V30 5935 O 562.678 0.372142 -1.78665 0
M  V30 5936 C 562.729 -3.11694 -1.83109 0
M  V30 5937 O 562.45 -4.25838 -1.02924 0
M  V30 5938 C 563.951 -3.53132 -2.67979 0
M  V30 5939 H 561.171 -0.613188 -0.272473 0
M  V30 5940 H 563.715 -2.03475 -0.204465 0
M  V30 5941 H 561.87 -2.94759 -2.51387 0
M  V30 5942 H 562.284 -4.98178 -1.64069 0
M  V30 5943 H 563.758 -4.45005 -3.26611 0
M  V30 5944 H 564.235 -2.76045 -3.41608 0
M  V30 5945 H 564.841 -3.72592 -2.05074 0
M  V30 5946 N 563.156 0.464375 -1.50603 0
M  V30 5947 C 564.404 1.21356 -1.61608 0
M  V30 5948 C 564.725 1.92329 -0.321643 0
M  V30 5949 O 563.995 1.84403 0.661232 0
M  V30 5950 H 562.575 0.45094 -0.595535 0
M  V30 5951 H 565.237 0.535046 -1.87412 0
M  V30 5952 H 564.333 1.95783 -2.43054 0
M  V30 5953 N 564.634 1.40294 0.718013 0
M  V30 5954 C 565.862 1.4175 1.50714 0
M  V30 5955 C 566.277 0.0165366 1.88793 0
M  V30 5956 O 565.634 -0.958942 1.55276 0
M  V30 5957 C 565.685 2.30598 2.784 0
M  V30 5958 O 565.406 3.6524 2.41932 0
M  V30 5959 C 566.907 2.4062 3.72313 0
M  V30 5960 H 564.127 0.483565 0.465194 0
M  V30 5961 H 566.671 1.84316 0.885889 0
M  V30 5962 H 564.826 1.91401 3.36815 0
M  V30 5963 H 565.24 4.12402 3.24076 0
M  V30 5964 H 566.714 3.07001 4.58753 0
M  V30 5965 H 567.191 1.4305 4.15251 0
M  V30 5966 H 567.797 2.80359 3.19811 0
M  V30 5967 N 566.112 -0.949982 1.2575 0
M  V30 5968 C 567.042 -2.06483 1.09028 0
M  V30 5969 C 568.023 -1.701 -0.00201532 0
M  V30 5970 O 569.208 -1.93469 0.168383 0
M  V30 5971 C 566.338 -3.39899 0.71316 0
M  V30 5972 C 565.292 -3.90309 1.75621 0
M  V30 5973 C 564.618 -5.20274 1.23365 0
M  V30 5974 C 565.918 -4.16169 3.15596 0
M  V30 5975 H 567.612 -2.20731 2.02283 0
M  V30 5976 H 565.158 -1.06066 0.973964 0
M  V30 5977 H 567.111 -4.17346 0.58309 0
M  V30 5978 H 565.835 -3.25602 -0.255091 0
M  V30 5979 H 564.494 -3.15035 1.8748 0
M  V30 5980 H 564.142 -5.02351 0.255491 0
M  V30 5981 H 563.842 -5.54971 1.93082 0
M  V30 5982 H 565.366 -6.00314 1.11607 0
M  V30 5983 H 566.78 -4.84259 3.06864 0
M  V30 5984 H 565.177 -4.62131 3.82825 0
M  V30 5985 H 566.247 -3.22273 3.6231 0
M  V30 5986 N 567.59 -1.07411 -1.15328 0
M  V30 5987 C 568.818 -0.818782 -1.90009 0
M  V30 5988 C 569.233 0.628072 -1.78047 0
M  V30 5989 O 568.59 1.43085 -1.13282 0
M  V30 5990 C 568.641 -1.21874 -3.40337 0
M  V30 5991 O 568.362 -2.60883 -3.51954 0
M  V30 5992 C 569.863 -0.992796 -4.3204 0
M  V30 5993 H 567.083 -0.296007 -0.60218 0
M  V30 5994 H 569.627 -1.43073 -1.46117 0
M  V30 5995 H 567.782 -0.651103 -3.81889 0
M  V30 5996 H 568.196 -2.77216 -4.45255 0
M  V30 5997 H 569.67 -1.32215 -5.35932 0
M  V30 5998 H 570.147 0.0708331 -4.39143 0
M  V30 5999 H 570.753 -1.54537 -3.9623 0
M  V30 6000 N 569.068 1.32177 -0.85831 0
M  V30 6001 C 570.031 2.27086 -0.310588 0
M  V30 6002 C 571.031 1.51751 0.531806 0
M  V30 6003 O 572.221 1.70794 0.34279 0
M  V30 6004 C 569.353 3.36266 0.560179 0
M  V30 6005 H 570.546 2.77045 -1.1483 0
M  V30 6006 H 568.099 1.42911 -0.632942 0
M  V30 6007 H 568.834 2.9158 1.41956 0
M  V30 6008 H 568.619 3.92077 -0.0428473 0
M  V30 6009 H 570.109 4.06974 0.936056 0
M  V30 6010 N 570.547 0.616602 1.45037 0
M  V30 6011 C 571.495 -0.109318 2.32343 0
M  V30 6012 C 572.489 -0.850543 1.465 0
M  V30 6013 O 573.695 -0.765088 1.62931 0
M  V30 6014 H 570.07 -0.0541091 0.750051 0
M  V30 6015 H 572.041 0.645326 2.91338 0
M  V30 6016 C 570.79 -1.0872 3.30266 0
M  V30 6017 H 570.113 -0.526267 3.96321 0
M  V30 6018 H 571.553 -1.56489 3.94065 0
M  V30 6019 C 570.012 -2.16525 2.58105 0
M  V30 6020 O 570.542 -3.244 2.36913 0
M  V30 6021 N 568.748 -1.92057 2.18088 0
M  V30 6022 H 568.295 -1.04337 2.35524 0
M  V30 6023 H 568.253 -2.64391 1.70131 0
M  V30 6024 N 572.025 -1.5352 0.356285 0
M  V30 6025 C 572.935 -2.29151 -0.502712 0
M  V30 6026 C 573.951 -1.34753 -1.1008 0
M  V30 6027 O 575.127 -1.67803 -1.11374 0
M  V30 6028 C 572.192 -3.05911 -1.63154 0
M  V30 6029 C 571.253 -4.15958 -1.06194 0
M  V30 6030 C 570.486 -4.8905 -2.13696 0
M  V30 6031 O 570.709 -4.61919 -3.34645 0
M  V30 6032 O 569.643 -5.75202 -1.77275 0
M  V30 6033 H 573.469 -3.03492 0.112466 0
M  V30 6034 H 571.054 -1.4891 0.120942 0
M  V30 6035 H 572.936 -3.53874 -2.28804 0
M  V30 6036 H 571.611 -2.34415 -2.23229 0
M  V30 6037 H 570.518 -3.7227 -0.369603 0
M  V30 6038 H 571.851 -4.89593 -0.505872 0
M  V30 6039 N 573.503 -0.0852151 -1.57369 0
M  V30 6040 C 574.436 0.913608 -2.09113 0
M  V30 6041 C 575.414 1.28264 -0.999358 0
M  V30 6042 O 576.598 1.3896 -1.27367 0
M  V30 6043 C 573.725 2.21777 -2.55993 0
M  V30 6044 C 572.771 1.99932 -3.76735 0
M  V30 6045 S 573.604 1.24637 -5.20794 0
M  V30 6046 C 574.76 2.56304 -5.71016 0
M  V30 6047 H 574.993 0.473369 -2.93507 0
M  V30 6048 H 572.526 0.127856 -1.5387 0
M  V30 6049 H 574.484 2.96726 -2.83662 0
M  V30 6050 H 573.145 2.62923 -1.71843 0
M  V30 6051 H 572.338 2.96482 -4.07571 0
M  V30 6052 H 571.94 1.33116 -3.49509 0
M  V30 6053 H 574.232 3.5233 -5.78679 0
M  V30 6054 H 575.175 2.3006 -6.69685 0
M  V30 6055 H 575.583 2.64125 -4.98897 0
M  V30 6056 N 574.981 1.5647 0.188427 0
M  V30 6057 C 576.209 1.85131 0.923803 0
M  V30 6058 C 576.624 0.668537 1.76567 0
M  V30 6059 O 575.981 -0.362662 1.7886 0
M  V30 6060 C 576.032 3.12661 1.81453 0
M  V30 6061 O 575.753 4.26378 1.00665 0
M  V30 6062 C 577.254 3.54548 2.66103 0
M  V30 6063 H 574.474 0.614624 0.269218 0
M  V30 6064 H 577.018 2.03581 0.193671 0
M  V30 6065 H 575.173 2.96088 2.49821 0
M  V30 6066 H 575.587 4.99041 1.61425 0
M  V30 6067 H 577.061 4.4673 3.24247 0
M  V30 6068 H 577.538 2.77853 3.40139 0
M  V30 6069 H 578.144 3.73674 2.03096 0
M  V30 6070 N 576.459 -0.456382 1.50847 0
M  V30 6071 C 577.705 -1.20914 1.62811 0
M  V30 6072 C 578.038 -1.91301 0.334304 0
M  V30 6073 O 577.313 -1.82775 -0.665098 0
M  V30 6074 C 577.596 -2.24122 2.81853 0
M  V30 6075 C 577.449 -1.57944 4.21158 0
M  V30 6076 C 578.768 -3.25295 2.96431 0
M  V30 6077 H 575.887 -0.438233 0.592554 0
M  V30 6078 H 578.529 -0.50091 1.83278 0
M  V30 6079 H 576.679 -2.84524 2.64534 0
M  V30 6080 H 578.351 -1.01025 4.50102 0
M  V30 6081 H 576.594 -0.882185 4.24735 0
M  V30 6082 H 577.265 -2.33014 5.00408 0
M  V30 6083 H 579.741 -2.7493 3.12335 0
M  V30 6084 H 578.617 -3.94822 3.81322 0
M  V30 6085 H 578.878 -3.90286 2.07676 0
M  V30 6086 N 577.937 -1.40673 -0.710563 0
M  V30 6087 C 579.165 -1.42547 -1.4996 0
M  V30 6088 C 579.58 -0.0265485 -1.88781 0
M  V30 6089 O 578.937 0.950694 -1.55782 0
M  V30 6090 C 578.988 -2.32071 -2.77173 0
M  V30 6091 O 578.709 -3.66518 -2.39992 0
M  V30 6092 C 580.21 -2.42591 -3.71032 0
M  V30 6093 H 577.43 -0.486025 -0.462623 0
M  V30 6094 H 579.974 -1.84783 -0.876102 0
M  V30 6095 H 578.129 -1.93184 -3.35795 0
M  V30 6096 H 578.543 -4.14115 -3.21884 0
M  V30 6097 H 580.017 -3.09429 -4.57119 0
M  V30 6098 H 580.494 -1.4525 -4.14486 0
M  V30 6099 H 581.1 -2.82051 -3.18319 0
M  V30 6100 N 579.415 0.9433 -1.26252 0
M  V30 6101 C 580.347 2.04542 -1.03417 0
M  V30 6102 C 581.36 1.62799 0.0046911 0
M  V30 6103 O 582.549 1.76944 -0.235146 0
M  V30 6104 C 579.649 3.34511 -0.543671 0
M  V30 6105 C 578.822 4.05033 -1.65128 0
M  V30 6106 C 577.881 5.13273 -1.1592 0
M  V30 6107 O 576.907 5.38095 -1.85586 0
M  V30 6108 N 578.109 5.805 -0.00649279 0
M  V30 6109 H 580.874 2.24699 -1.98319 0
M  V30 6110 H 578.435 1.11264 -1.1761 0
M  V30 6111 H 580.427 4.04212 -0.198703 0
M  V30 6112 H 578.997 3.11042 0.311711 0
M  V30 6113 H 578.217 3.29275 -2.16729 0
M  V30 6114 H 579.505 4.48903 -2.39508 0
M  V30 6115 H 578.903 5.62767 0.575347 0
M  V30 6116 H 577.46 6.51201 0.279416 0
M  V30 6117 N 580.893 1.08022 1.14757 0
M  V30 6118 C 581.823 0.728248 2.21853 0
M  V30 6119 C 582.804 -0.287486 1.67653 0
M  V30 6120 O 583.989 -0.158727 1.9355 0
M  V30 6121 C 581.119 0.132549 3.47047 0
M  V30 6122 C 580.073 1.07619 4.14249 0
M  V30 6123 C 579.399 0.342907 5.33599 0
M  V30 6124 C 580.699 2.41268 4.63235 0
M  V30 6125 H 582.393 1.62365 2.51551 0
M  V30 6126 H 579.939 0.782125 1.20908 0
M  V30 6127 H 581.892 -0.125665 4.21213 0
M  V30 6128 H 580.616 -0.797971 3.16702 0
M  V30 6129 H 579.275 1.31944 3.42033 0
M  V30 6130 H 578.923 -0.59129 4.99513 0
M  V30 6131 H 578.623 0.971955 5.79506 0
M  V30 6132 H 580.147 0.0926538 6.1053 0
M  V30 6133 H 581.561 2.21232 5.28894 0
M  V30 6134 H 579.958 2.9983 5.19829 0
M  V30 6135 H 581.028 3.03079 3.78512 0
M  V30 6136 N 582.371 -1.3172 0.865308 0
M  V30 6137 C 583.617 -1.97168 0.474633 0
M  V30 6138 C 583.95 -1.68263 -0.969604 0
M  V30 6139 O 583.225 -0.976588 -1.68205 0
M  V30 6140 C 583.508 -3.52689 0.726808 0
M  V30 6141 C 583.361 -3.91185 2.22024 0
M  V30 6142 C 584.68 -4.39689 0.190201 0
M  V30 6143 H 581.799 -0.716185 0.17392 0
M  V30 6144 H 584.441 -1.55925 1.08569 0
M  V30 6145 H 582.591 -3.8795 0.206705 0
M  V30 6146 H 584.263 -3.66049 2.80724 0
M  V30 6147 H 582.506 -3.3996 2.69462 0
M  V30 6148 H 583.177 -4.99604 2.34735 0
M  V30 6149 H 585.653 -4.11225 0.635103 0
M  V30 6150 H 584.529 -5.47469 0.396132 0
M  V30 6151 H 584.79 -4.32683 -0.907625 0
M  V30 6152 N 583.85 -0.624285 -1.44708 0
M  V30 6153 C 585.077 -0.132919 -2.06473 0
M  V30 6154 C 585.493 1.18967 -1.46602 0
M  V30 6155 O 584.85 1.72824 -0.586341 0
M  V30 6156 C 584.901 -0.00465418 -3.615 0
M  V30 6157 O 584.622 -1.27494 -4.19138 0
M  V30 6158 C 586.123 0.516213 -4.40284 0
M  V30 6159 H 583.343 -0.0765201 -0.666623 0
M  V30 6160 H 585.887 -0.856751 -1.85688 0
M  V30 6161 H 584.042 0.669583 -3.8157 0
M  V30 6162 H 584.456 -1.11536 -5.12504 0
M  V30 6163 H 585.93 0.554994 -5.49203 0
M  V30 6164 H 586.407 1.5419 -4.11245 0
M  V30 6165 H 587.013 -0.124542 -4.25118 0
M  V30 6166 N 585.328 1.53329 -0.364422 0
M  V30 6167 C 586.553 2.06132 0.229033 0
M  V30 6168 C 586.978 1.23625 1.41769 0
M  V30 6169 O 586.336 0.255038 1.79497 0
M  V30 6170 C 586.384 3.55544 0.60174 0
M  V30 6171 O 585.488 3.75771 1.69912 0
M  V30 6172 H 584.829 0.663148 0.0336213 0
M  V30 6173 H 587.359 1.97758 -0.524689 0
M  V30 6174 H 587.369 3.98549 0.873073 0
M  V30 6175 H 586.044 4.15039 -0.267421 0
M  V30 6176 H 584.621 3.44663 1.42343 0
M  V30 6177 N 586.806 0.0935595 1.57322 0
M  V30 6178 C 588.083 -0.612692 1.85756 0
M  V30 6179 C 588.463 -1.86439 0.99013 0
M  V30 6180 O 587.811 -2.28416 0.0621362 0
M  V30 6181 C 588.021 -0.929547 3.36393 0
M  V30 6182 C 589.369 -1.29366 4.04413 0
M  V30 6183 O 590.393 -1.02061 3.41265 0
M  V30 6184 O 589.252 -1.80498 5.15832 0
M  V30 6185 H 586.346 -0.306444 0.768128 0
M  V30 6186 H 588.892 0.126141 1.69231 0
M  V30 6187 H 587.664 -0.0414766 3.91278 0
M  V30 6188 H 587.287 -1.72441 3.5826 0
M  V30 6189 N 588.284 -1.56567 -0.180126 0
M  V30 6190 C 589.532 -1.81133 -0.896392 0
M  V30 6191 C 589.853 -0.669114 -1.83161 0
M  V30 6192 O 589.123 0.311616 -1.93406 0
M  V30 6193 H 587.703 -0.668172 -0.333999 0
M  V30 6194 H 590.365 -1.94048 -0.182051 0
M  V30 6195 H 589.461 -2.74854 -1.47857 0
M  V30 6196 N 589.762 0.448376 -1.51087 0
M  V30 6197 C 590.692 1.55102 -1.74544 0
M  V30 6198 C 591.673 1.59357 -0.594932 0
M  V30 6199 O 592.858 1.75261 -0.836491 0
M  V30 6200 C 589.988 2.93268 -1.86041 0
M  V30 6201 C 588.942 3.03877 -3.01402 0
M  V30 6202 C 588.268 4.43914 -2.98068 0
M  V30 6203 C 589.568 2.7898 -4.41551 0
M  V30 6204 H 591.262 1.35724 -2.66869 0
M  V30 6205 H 588.808 0.651498 -1.28419 0
M  V30 6206 H 590.761 3.70356 -2.01034 0
M  V30 6207 H 589.485 3.13853 -0.903548 0
M  V30 6208 H 588.144 2.29227 -2.86096 0
M  V30 6209 H 587.792 4.6145 -2.00182 0
M  V30 6210 H 587.492 4.51944 -3.75527 0
M  V30 6211 H 589.016 5.22991 -3.1514 0
M  V30 6212 H 590.43 3.45805 -4.57265 0
M  V30 6213 H 588.827 2.98431 -5.20633 0
M  V30 6214 H 589.897 1.74663 -4.5235 0
M  V30 6215 N 591.24 1.41047 0.703093 0
M  V30 6216 C 592.656 1.23351 1.01275 0
M  V30 6217 C 592.856 0.11754 2.01157 0
M  V30 6218 O 591.912 -0.520518 2.47077 0
M  V30 6219 C 593.225 2.58001 1.54454 0
M  V30 6220 C 594.773 2.65119 1.66376 0
M  V30 6221 C 595.248 4.00067 2.22958 0
M  V30 6222 N 596.739 4.01875 2.30328 0
M  V30 6223 C 597.474 5.03087 2.75119 0
M  V30 6224 N 596.97 6.14692 3.19571 0
M  V30 6225 N 598.763 4.90451 2.74616 0
M  V30 6226 H 590.914 2.1236 0.0412686 0
M  V30 6227 H 593.177 0.944543 0.08089 0
M  V30 6228 H 592.883 3.40378 0.88521 0
M  V30 6229 H 592.757 2.79962 2.52786 0
M  V30 6230 H 595.144 1.83106 2.31422 0
M  V30 6231 H 595.225 2.46975 0.666089 0
M  V30 6232 H 594.869 4.82526 1.58529 0
M  V30 6233 H 594.799 4.15547 3.23462 0
M  V30 6234 H 597.29 3.21291 1.98949 0
M  V30 6235 H 597.603 6.87799 3.52352 0
M  V30 6236 H 595.948 6.18239 3.17498 0
M  V30 6237 H 599.139 4.0235 2.39233 0
M  V30 6238 H 599.312 5.6947 3.09206 0
M  V30 6239 N 592.718 -0.936591 1.26751 0
M  V30 6240 C 593.681 -2.01752 1.08761 0
M  V30 6241 C 594.681 -1.60763 0.0344435 0
M  V30 6242 O 595.871 -1.71963 0.278258 0
M  V30 6243 C 593.003 -3.34543 0.655271 0
M  V30 6244 H 594.196 -2.19143 2.04735 0
M  V30 6245 H 591.749 -1.11618 1.09413 0
M  V30 6246 H 592.484 -3.22851 -0.30626 0
M  V30 6247 H 592.269 -3.65647 1.41578 0
M  V30 6248 H 593.759 -4.13944 0.551378 0
M  V30 6249 N 594.196 -1.08629 -1.14182 0
M  V30 6250 C 595.106 -0.730126 -2.22949 0
M  V30 6251 C 596.122 0.26436 -1.7198 0
M  V30 6252 O 597.298 0.107742 -2.01112 0
M  V30 6253 C 594.363 -0.147227 -3.46387 0
M  V30 6254 C 593.424 -1.19662 -4.12286 0
M  V30 6255 C 592.657 -0.641437 -5.29831 0
M  V30 6256 O 592.88 0.538351 -5.67854 0
M  V30 6257 O 591.814 -1.39257 -5.85569 0
M  V30 6258 H 595.64 -1.63753 -2.55771 0
M  V30 6259 H 593.225 -0.860118 -1.22157 0
M  V30 6260 H 595.107 0.174923 -4.21037 0
M  V30 6261 H 593.782 0.733304 -3.15285 0
M  V30 6262 H 592.689 -1.57133 -3.395 0
M  V30 6263 H 594.022 -2.0495 -4.475 0
M  V30 6264 N 595.674 1.31259 -0.872281 0
M  V30 6265 C 596.92 1.96913 -0.485083 0
M  V30 6266 C 597.253 1.68774 0.960667 0
M  V30 6267 O 596.528 0.985495 1.67685 0
M  V30 6268 C 596.811 3.52299 -0.745502 0
M  V30 6269 C 596.664 3.90002 -2.24095 0
M  V30 6270 C 597.983 4.39582 -0.213516 0
M  V30 6271 H 595.102 0.715252 -0.177716 0
M  V30 6272 H 597.744 1.55347 -1.09395 0
M  V30 6273 H 595.894 3.87835 -0.227276 0
M  V30 6274 H 597.566 3.64555 -2.82661 0
M  V30 6275 H 595.809 3.38526 -2.71261 0
M  V30 6276 H 596.48 4.98352 -2.37381 0
M  V30 6277 H 598.956 4.10882 -0.656902 0
M  V30 6278 H 597.832 5.47251 -0.42516 0
M  V30 6279 H 598.093 4.33158 0.884666 0
M  V30 6280 N 597.152 0.631951 1.44375 0
M  V30 6281 C 598.377 0.142146 2.06912 0
M  V30 6282 C 598.802 -1.17456 1.4692 0
M  V30 6283 O 598.16 -1.72074 0.570975 0
M  V30 6284 C 598.208 0.0417952 3.60576 0
M  V30 6285 O 597.312 -1.00194 4.00044 0
M  V30 6286 H 596.653 0.0851491 0.658518 0
M  V30 6287 H 599.183 0.868863 1.85235 0
M  V30 6288 H 599.193 -0.148517 4.0773 0
M  V30 6289 H 597.868 1.0031 4.03622 0
M  V30 6290 H 596.445 -0.786131 3.64519 0
M  V30 6291 N 598.631 -1.53133 0.372548 0
M  V30 6292 C 599.879 -2.00958 -0.214534 0
M  V30 6293 C 600.2 -1.26135 -1.48711 0
M  V30 6294 O 599.47 -0.376597 -1.92246 0
M  V30 6295 H 598.05 -0.742456 -0.0822664 0
M  V30 6296 H 600.712 -1.88367 0.500385 0
M  V30 6297 H 599.808 -3.09031 -0.436605 0
M  V30 6298 N 600.109 -0.101901 -1.5727 0
M  V30 6299 C 601.355 0.561027 -1.94885 0
M  V30 6300 C 601.688 1.6741 -0.984258 0
M  V30 6301 O 600.963 1.94491 -0.0184767 0
M  V30 6302 C 601.246 1.10982 -3.42571 0
M  V30 6303 C 601.099 0.00133418 -4.498 0
M  V30 6304 C 602.418 2.00608 -3.9172 0
M  V30 6305 H 599.537 0.202467 -0.708644 0
M  V30 6306 H 602.179 -0.173992 -1.89202 0
M  V30 6307 H 600.329 1.73621 -3.47546 0
M  V30 6308 H 602.001 -0.63322 -4.56933 0
M  V30 6309 H 600.244 -0.664143 -4.28686 0
M  V30 6310 H 600.915 0.426253 -5.50352 0
M  V30 6311 H 603.391 1.47864 -3.88941 0
M  V30 6312 H 602.267 2.3593 -4.95609 0
M  V30 6313 H 602.528 2.92608 -3.3141 0
M  V30 6314 N 601.587 1.56661 0.17182 0
M  V30 6315 C 602.835 1.81606 0.886774 0
M  V30 6316 C 603.156 0.678818 1.82803 0
M  V30 6317 O 602.426 -0.301354 1.93568 0
M  V30 6318 H 601.006 0.669934 0.330451 0
M  V30 6319 H 603.668 1.94142 0.171757 0
M  V30 6320 H 602.764 2.75634 1.46398 0
M  V30 6321 N 603.065 -0.440357 1.51323 0
M  V30 6322 C 604.295 -1.21079 1.67402 0
M  V30 6323 C 604.703 -1.85555 0.369599 0
M  V30 6324 O 604.046 -1.71375 -0.661525 0
M  V30 6325 C 604.108 -2.33839 2.73056 0
M  V30 6326 C 603.772 -1.89755 4.15743 0
M  V30 6327 C 604.769 -1.40268 5.0062 0
M  V30 6328 C 602.454 -1.97539 4.61826 0
M  V30 6329 C 604.448 -0.991474 6.29642 0
M  V30 6330 C 602.135 -1.56029 5.90845 0
M  V30 6331 C 603.133 -1.06915 6.7458 0
M  V30 6332 O 602.821 -0.659933 8.01187 0
M  V30 6333 H 602.553 -0.371133 0.56501 0
M  V30 6334 H 605.107 -0.528409 1.98487 0
M  V30 6335 H 603.337 -3.05345 2.37279 0
M  V30 6336 H 605.026 -2.95713 2.78044 0
M  V30 6337 H 605.792 -1.33652 4.66221 0
M  V30 6338 H 601.671 -2.34713 3.96776 0
M  V30 6339 H 605.215 -0.607425 6.9495 0
M  V30 6340 H 601.112 -1.62315 6.24759 0
M  V30 6341 H 601.88 -0.786052 8.14717 0
M  V30 6342 N 604.543 -1.41418 -0.695603 0
M  V30 6343 C 605.82 -1.31264 -1.45014 0
M  V30 6344 C 606.2 0.0597994 -2.11015 0
M  V30 6345 O 605.548 1.07403 -2.01685 0
M  V30 6346 C 605.758 -2.466 -2.4696 0
M  V30 6347 C 607.106 -2.87763 -3.12214 0
M  V30 6348 O 608.13 -2.46339 -2.57285 0
M  V30 6349 O 606.989 -3.59395 -4.11701 0
M  V30 6350 H 604.083 -0.516576 -0.645816 0
M  V30 6351 H 606.629 -1.53382 -0.726084 0
M  V30 6352 H 605.401 -3.38183 -1.96845 0
M  V30 6353 H 605.024 -2.26358 -3.26876 0
M  V30 6354 N 606.021 0.929856 -1.27246 0
M  V30 6355 C 607.269 1.674 -1.13233 0
M  V30 6356 C 607.59 1.92311 0.322744 0
M  V30 6357 O 606.86 1.52784 1.22612 0
M  V30 6358 H 605.44 0.620411 -0.416052 0
M  V30 6359 H 608.102 1.11663 -1.59741 0
M  V30 6360 H 607.198 2.64308 -1.65975 0
M  V30 6361 N 607.499 1.09233 1.13605 0
M  V30 6362 C 608.431 0.687794 2.18637 0
M  V30 6363 C 609.444 -0.26936 1.60556 0
M  V30 6364 O 610.633 -0.0557162 1.78413 0
M  V30 6365 C 607.733 -0.00751901 3.38899 0
M  V30 6366 C 606.906 0.97067 4.26494 0
M  V30 6367 C 605.965 0.309129 5.25291 0
M  V30 6368 O 604.991 0.956149 5.61112 0
M  V30 6369 N 606.193 -0.937555 5.72879 0
M  V30 6370 H 608.958 1.59141 2.53957 0
M  V30 6371 H 606.519 0.979515 1.28907 0
M  V30 6372 H 608.511 -0.461238 4.02063 0
M  V30 6373 H 607.081 -0.813353 3.01833 0
M  V30 6374 H 606.301 1.603 3.60135 0
M  V30 6375 H 607.589 1.63323 4.81875 0
M  V30 6376 H 606.987 -1.48281 5.4592 0
M  V30 6377 H 605.544 -1.33463 6.3799 0
M  V30 6378 N 608.977 -1.30795 0.87923 0
M  V30 6379 C 610.225 -1.95974 0.493809 0
M  V30 6380 C 610.546 -1.69787 -0.959021 0
M  V30 6381 O 609.816 -1.01832 -1.67353 0
M  V30 6382 H 608.396 -0.725083 0.179622 0
M  V30 6383 H 611.058 -1.59432 1.12105 0
M  V30 6384 H 610.154 -3.05058 0.659263 0
M  V30 6385 N 610.455 -0.639598 -1.44038 0
M  V30 6386 C 611.683 -0.154811 -2.0632 0
M  V30 6387 C 612.098 1.17406 -1.47856 0
M  V30 6388 O 611.455 1.72193 -0.604638 0
M  V30 6389 C 611.506 -0.0429958 -3.61474 0
M  V30 6390 O 611.227 -1.31932 -4.17763 0
M  V30 6391 C 612.728 0.469486 -4.40807 0
M  V30 6392 H 609.948 -0.0835862 -0.665773 0
M  V30 6393 H 612.492 -0.876397 -1.84769 0
M  V30 6394 H 610.647 0.629075 -3.82258 0
M  V30 6395 H 611.061 -1.16965 -5.11292 0
M  V30 6396 H 612.535 0.496712 -5.49761 0
M  V30 6397 H 613.012 1.49819 -4.12857 0
M  V30 6398 H 613.618 -0.169624 -4.24962 0
M  V30 6399 N 611.933 1.52934 -0.380664 0
M  V30 6400 C 613.179 2.01765 0.20458 0
M  V30 6401 C 613.512 1.26696 1.47179 0
M  V30 6402 O 612.787 0.364936 1.91046 0
M  V30 6403 C 613.07 3.56869 0.481269 0
M  V30 6404 C 612.923 4.42617 -0.800629 0
M  V30 6405 C 614.242 4.2121 1.27554 0
M  V30 6406 H 611.361 0.733388 0.0728803 0
M  V30 6407 H 614.003 1.83068 -0.50853 0
M  V30 6408 H 612.153 3.72932 1.08875 0
M  V30 6409 H 613.825 4.38323 -1.43773 0
M  V30 6410 H 612.068 4.09977 -1.4178 0
M  V30 6411 H 612.739 5.49134 -0.561791 0
M  V30 6412 H 615.215 4.09072 0.761514 0
M  V30 6413 H 614.091 5.29732 1.43788 0
M  V30 6414 H 614.352 3.78269 2.28833 0
M  V30 6415 N 613.412 0.11024 1.57214 0
M  V30 6416 C 614.652 -0.553061 1.96775 0
M  V30 6417 C 615.016 -1.64403 0.991753 0
M  V30 6418 O 616.217 -2.36561 1.27642 0
M  V30 6419 C 614.488 -1.08004 3.4069 0
M  V30 6420 S 616.047 -1.75309 4.02259 0
M  V30 6421 H 612.865 -0.18003 0.68783 0
M  V30 6422 H 615.467 0.193242 1.94543 0
M  V30 6423 H 614.171 -0.274735 4.09479 0
M  V30 6424 H 613.702 -1.86182 3.46554 0
M  V30 6425 H 615.717 -3.03834 3.923 0
M  V30 6426 N 614.89 -1.56749 -0.16351 0
M  V30 6427 C 615.82 -2.00042 -1.20438 0
M  V30 6428 C 616.801 -0.877256 -1.45733 0
M  V30 6429 O 617.986 -1.1439 -1.56935 0
M  V30 6430 C 615.116 -2.36697 -2.54149 0
M  V30 6431 C 614.07 -3.52046 -2.43408 0
M  V30 6432 C 613.396 -3.74466 -3.81679 0
M  V30 6433 C 614.696 -4.85247 -1.93216 0
M  V30 6434 H 616.39 -2.87244 -0.844477 0
M  V30 6435 H 613.936 -1.38194 -0.40478 0
M  V30 6436 H 615.889 -2.65582 -3.27176 0
M  V30 6437 H 614.613 -1.46414 -2.91943 0
M  V30 6438 H 613.272 -3.23301 -1.72834 0
M  V30 6439 H 612.92 -2.81461 -4.1688 0
M  V30 6440 H 612.62 -4.52084 -3.75359 0
M  V30 6441 H 614.144 -4.0576 -4.5628 0
M  V30 6442 H 615.558 -5.12957 -2.56023 0
M  V30 6443 H 613.955 -5.66556 -1.97825 0
M  V30 6444 H 615.025 -4.7672 -0.88689 0
M  V30 6445 N 616.368 0.432326 -1.51554 0
M  V30 6446 C 617.298 1.53242 -1.76179 0
M  V30 6447 C 618.279 1.58717 -0.611801 0
M  V30 6448 O 619.464 1.74364 -0.855033 0
M  V30 6449 C 616.594 2.91278 -1.89141 0
M  V30 6450 C 615.548 3.00663 -3.04608 0
M  V30 6451 C 614.874 4.40728 -3.02759 0
M  V30 6452 C 616.174 2.74281 -4.44485 0
M  V30 6453 H 617.868 1.32886 -2.68294 0
M  V30 6454 H 615.414 0.637841 -1.29103 0
M  V30 6455 H 617.367 3.68203 -2.04951 0
M  V30 6456 H 616.091 3.12877 -0.936785 0
M  V30 6457 H 614.75 2.26179 -2.88511 0
M  V30 6458 H 614.398 4.59301 -2.05065 0
M  V30 6459 H 614.098 4.47936 -3.80299 0
M  V30 6460 H 615.622 5.19619 -3.20669 0
M  V30 6461 H 617.036 3.40936 -4.60907 0
M  V30 6462 H 615.433 2.92893 -5.23769 0
M  V30 6463 H 616.503 1.69856 -4.54177 0
M  V30 6464 N 617.846 1.41785 0.688094 0
M  V30 6465 C 619.257 1.3701 1.26828 0
M  V30 6466 C 619.608 0.056835 1.96118 0
M  V30 6467 O 618.733 -0.84475 1.99231 0
M  V30 6468 C 619.328 2.48168 2.30648 0
M  V30 6469 C 617.887 2.46766 2.84224 0
M  V30 6470 C 617.034 2.27633 1.58361 0
M  V30 6471 H 619.985 1.51192 0.482351 0
M  V30 6472 H 620.006 2.17655 3.121 0
M  V30 6473 H 619.518 3.43735 1.80188 0
M  V30 6474 H 617.619 1.54978 3.3884 0
M  V30 6475 H 617.732 3.43342 3.34145 0
M  V30 6476 H 616.096 1.75648 1.84445 0
M  V30 6477 H 616.879 3.25238 1.09887 0
M  V30 6478 N 619.324 -0.923095 1.27737 0
M  V30 6479 C 620.549 -1.71054 1.17283 0
M  V30 6480 C 620.974 -1.86208 -0.266153 0
M  V30 6481 O 620.332 -1.36545 -1.1927 0
M  V30 6482 C 620.38 -3.0854 1.86642 0
M  V30 6483 O 619.484 -3.95528 1.16752 0
M  V30 6484 H 618.825 -0.524136 0.407649 0
M  V30 6485 H 621.355 -1.15487 1.6889 0
M  V30 6486 H 621.365 -3.58828 1.94182 0
M  V30 6487 H 620.04 -2.96828 2.91317 0
M  V30 6488 H 618.617 -3.53967 1.17312 0
M  V30 6489 N 620.802 -1.09834 -1.13024 0
M  V30 6490 C 621.749 -0.741522 -2.18564 0
M  V30 6491 C 622.719 0.279236 -1.63736 0
M  V30 6492 O 623.904 0.159923 -1.90129 0
M  V30 6493 C 621.044 -0.17277 -3.44667 0
M  V30 6494 C 620.157 -1.24808 -4.13578 0
M  V30 6495 C 619.292 -0.641631 -5.27311 0
M  V30 6496 C 618.331 -1.69795 -5.88078 0
M  V30 6497 N 617.468 -1.11223 -6.93234 0
M  V30 6498 H 622.308 -1.64576 -2.48432 0
M  V30 6499 H 619.845 -0.822174 -1.21978 0
M  V30 6500 H 621.803 0.17482 -4.16834 0
M  V30 6501 H 620.433 0.694725 -3.15235 0
M  V30 6502 H 619.485 -1.71288 -3.39653 0
M  V30 6503 H 620.797 -2.04795 -4.54819 0
M  V30 6504 H 619.951 -0.243128 -6.06213 0
M  V30 6505 H 618.69 0.189742 -4.87331 0
M  V30 6506 H 617.695 -2.10595 -5.07868 0
M  V30 6507 H 618.92 -2.53206 -6.3013 0
M  V30 6508 H 616.866 -0.302208 -6.55304 0
M  V30 6509 H 616.783 -1.84901 -7.3304 0
M  V30 6510 H 618.051 -0.740068 -7.75979 0
M  V30 6511 N 622.28 1.30327 -0.886154 0
M  V30 6512 C 623.19 2.31854 -0.357866 0
M  V30 6513 C 624.206 1.65392 0.540502 0
M  V30 6514 O 625.382 1.96683 0.433339 0
M  V30 6515 C 622.447 3.44171 0.417999 0
M  V30 6516 C 621.508 4.26257 -0.510263 0
M  V30 6517 C 620.741 5.3321 0.228669 0
M  V30 6518 O 620.964 5.51542 1.45458 0
M  V30 6519 O 619.898 6.0042 -0.421832 0
M  V30 6520 H 623.724 2.78995 -1.19982 0
M  V30 6521 H 621.309 1.34518 -0.650028 0
M  V30 6522 H 623.191 4.12588 0.857251 0
M  V30 6523 H 621.866 2.99164 1.23623 0
M  V30 6524 H 620.773 3.60533 -0.99835 0
M  V30 6525 H 622.106 4.74871 -1.29454 0
M  V30 6526 N 623.758 0.647228 1.43697 0
M  V30 6527 C 625.004 0.158422 2.0218 0
M  V30 6528 C 625.337 -1.22233 1.50907 0
M  V30 6529 O 624.612 -1.81478 0.699702 0
M  V30 6530 C 624.895 0.1627 3.59732 0
M  V30 6531 C 624.748 1.57694 4.21251 0
M  V30 6532 C 626.067 -0.504138 4.37203 0
M  V30 6533 H 623.186 0.059042 0.734631 0
M  V30 6534 H 625.828 0.826772 1.71069 0
M  V30 6535 H 623.978 -0.406414 3.86368 0
M  V30 6536 H 625.65 2.19618 4.05667 0
M  V30 6537 H 623.893 2.12603 3.7813 0
M  V30 6538 H 624.564 1.53183 5.3032 0
M  V30 6539 H 627.04 -0.0199841 4.16095 0
M  V30 6540 H 625.916 -0.470394 5.46881 0
M  V30 6541 H 626.177 -1.57726 4.13007 0
M  V30 6542 N 625.236 -1.5273 0.388769 0
M  V30 6543 C 626.485 -2.00757 -0.194833 0
M  V30 6544 C 626.798 -1.27951 -1.47946 0
M  V30 6545 O 628.004 -1.66686 -2.14308 0
M  V30 6546 C 626.46 -3.57695 -0.397762 0
M  V30 6547 C 626.068 -4.394 0.873583 0
M  V30 6548 C 627.812 -4.14012 -0.937759 0
M  V30 6549 C 625.719 -5.87938 0.638962 0
M  V30 6550 H 624.649 -0.750101 -0.0765845 0
M  V30 6551 H 627.3 -1.76239 0.511086 0
M  V30 6552 H 625.682 -3.7846 -1.16552 0
M  V30 6553 H 626.856 -4.30403 1.64591 0
M  V30 6554 H 625.171 -3.94301 1.33849 0
M  V30 6555 H 627.768 -5.22645 -1.12899 0
M  V30 6556 H 628.111 -3.7007 -1.90666 0
M  V30 6557 H 628.644 -3.97137 -0.229588 0
M  V30 6558 H 625.383 -6.36202 1.57885 0
M  V30 6559 H 624.903 -5.99726 -0.094443 0
M  V30 6560 H 626.582 -6.46423 0.273299 0
M  V30 6561 N 626.714 -0.118576 -1.57153 0
M  V30 6562 C 627.661 0.831789 -2.1529 0
M  V30 6563 C 628.631 1.26385 -1.07778 0
M  V30 6564 O 629.816 1.34144 -1.35684 0
M  V30 6565 C 626.956 2.07664 -2.75626 0
M  V30 6566 C 626.069 1.69298 -3.97444 0
M  V30 6567 C 625.204 2.88747 -4.45868 0
M  V30 6568 C 624.243 2.46619 -5.60219 0
M  V30 6569 N 623.38 3.5898 -6.03389 0
M  V30 6570 H 628.22 0.329183 -2.96176 0
M  V30 6571 H 625.757 0.150792 -1.46325 0
M  V30 6572 H 627.715 2.80601 -3.08738 0
M  V30 6573 H 626.345 2.55384 -1.97431 0
M  V30 6574 H 625.397 0.862374 -3.70496 0
M  V30 6575 H 626.709 1.34338 -4.80369 0
M  V30 6576 H 625.863 3.69909 -4.80887 0
M  V30 6577 H 624.602 3.26933 -3.61892 0
M  V30 6578 H 623.607 1.63889 -5.24805 0
M  V30 6579 H 624.832 2.0955 -6.45961 0
M  V30 6580 H 622.778 3.9684 -5.22354 0
M  V30 6581 H 622.695 3.27942 -6.81168 0
M  V30 6582 H 623.963 4.40583 -6.43045 0
M  V30 6583 N 628.193 1.56834 0.155195 0
M  V30 6584 C 629.103 2.009 1.21146 0
M  V30 6585 C 630.119 0.923029 1.475 0
M  V30 6586 O 631.295 1.23189 1.59331 0
M  V30 6587 C 628.36 2.37378 2.52691 0
M  V30 6588 C 627.421 3.59883 2.34057 0
M  V30 6589 C 626.654 3.94612 3.59329 0
M  V30 6590 O 626.877 3.30104 4.65175 0
M  V30 6591 O 625.811 4.87895 3.52479 0
M  V30 6592 H 629.637 2.9105 0.867371 0
M  V30 6593 H 627.222 1.44916 0.363298 0
M  V30 6594 H 629.104 2.61737 3.3026 0
M  V30 6595 H 627.779 1.50385 2.86646 0
M  V30 6596 H 626.686 3.40722 1.54465 0
M  V30 6597 H 628.019 4.47468 2.0502 0
M  V30 6598 N 629.671 -0.424282 1.51781 0
M  V30 6599 C 630.918 -1.1726 1.65095 0
M  V30 6600 C 631.246 -1.90881 0.373477 0
M  V30 6601 O 630.501 -1.84835 -0.642997 0
M  V30 6602 C 630.8 -2.20418 2.81337 0
M  V30 6603 C 630.466 -1.63715 4.20129 0
M  V30 6604 C 629.128 -1.47975 4.57883 0
M  V30 6605 C 631.48 -1.22157 5.06682 0
M  V30 6606 C 628.808 -0.891703 5.79884 0
M  V30 6607 C 631.16 -0.647767 6.29275 0
M  V30 6608 C 629.824 -0.477371 6.65791 0
M  V30 6609 H 629.094 -0.429085 0.604125 0
M  V30 6610 H 631.741 -0.461852 1.85847 0
M  V30 6611 H 630.046 -2.97581 2.54859 0
M  V30 6612 H 631.743 -2.78163 2.88836 0
M  V30 6613 H 628.333 -1.76946 3.90369 0
M  V30 6614 H 632.517 -1.33133 4.7811 0
M  V30 6615 H 627.773 -0.747563 6.06813 0
M  V30 6616 H 631.947 -0.317291 6.95677 0
M  V30 6617 H 629.574 -0.0195936 7.60197 0
M  V30 6618 N 631.149 -1.42148 -0.680565 0
M  V30 6619 C 632.374 -1.45901 -1.47403 0
M  V30 6620 C 632.799 -0.0700985 -1.87969 0
M  V30 6621 O 632.157 0.930145 -1.55621 0
M  V30 6622 C 632.205 -2.38661 -2.70321 0
M  V30 6623 O 631.309 -1.85399 -3.68376 0
M  V30 6624 H 630.65 -0.494565 -0.443059 0
M  V30 6625 H 633.18 -1.86774 -0.835251 0
M  V30 6626 H 633.19 -2.55046 -3.18458 0
M  V30 6627 H 631.865 -3.39571 -2.40134 0
M  V30 6628 H 630.442 -1.78541 -3.2738 0
M  V30 6629 N 632.627 0.916307 -1.28225 0
M  V30 6630 C 633.575 2.03977 -1.11786 0
M  V30 6631 C 634.569 1.69358 -0.0378265 0
M  V30 6632 O 635.775 1.78925 -0.196405 0
M  V30 6633 H 632.15 0.66829 -0.344809 0
M  V30 6634 H 634.121 2.14985 -2.06939 0
M  V30 6635 C 632.87 3.38518 -0.7938 0
M  V30 6636 H 632.193 3.65649 -1.61682 0
M  V30 6637 H 633.633 4.17864 -0.718719 0
M  V30 6638 C 632.092 3.33134 0.502353 0
M  V30 6639 O 632.622 3.71281 1.53341 0
M  V30 6640 N 630.828 2.86229 0.502147 0
M  V30 6641 H 630.375 2.55382 -0.337338 0
M  V30 6642 H 630.333 2.83009 1.36942 0
M  V30 6643 N 634.105 1.10431 1.1244 0
M  V30 6644 C 635.351 0.847972 1.84221 0
M  V30 6645 C 635.684 -0.624903 1.83871 0
M  V30 6646 O 634.959 -1.46074 1.28423 0
M  V30 6647 C 635.242 1.39695 3.319 0
M  V30 6648 C 635.095 2.93668 3.40704 0
M  V30 6649 C 636.414 1.03924 4.27654 0
M  V30 6650 H 633.533 0.309502 0.668863 0
M  V30 6651 H 636.175 1.36745 1.31912 0
M  V30 6652 H 634.325 0.955095 3.76577 0
M  V30 6653 H 635.997 3.46379 3.04662 0
M  V30 6654 H 634.24 3.30272 2.81252 0
M  V30 6655 H 634.911 3.27162 4.446 0
M  V30 6656 H 637.387 1.42049 3.91102 0
M  V30 6657 H 636.263 1.45027 5.29394 0
M  V30 6658 H 636.524 -0.051336 4.4207 0
M  V30 6659 N 635.583 -1.29855 0.893053 0
M  V30 6660 C 636.808 -2.00512 0.530066 0
M  V30 6661 C 637.233 -1.66446 -0.876199 0
M  V30 6662 O 636.591 -0.885446 -1.58207 0
M  V30 6663 C 636.639 -3.53308 0.721505 0
M  V30 6664 O 635.743 -4.11764 -0.228994 0
M  V30 6665 H 635.084 -0.630617 0.207891 0
M  V30 6666 H 637.614 -1.6551 1.20282 0
M  V30 6667 H 637.624 -4.03206 0.623599 0
M  V30 6668 H 636.299 -3.77439 1.74678 0
M  V30 6669 H 634.876 -3.72805 -0.0841034 0
M  V30 6670 N 637.061 -0.65484 -1.43351 0
M  V30 6671 C 638.307 -0.169142 -2.02093 0
M  V30 6672 C 638.64 1.21431 -1.51553 0
M  V30 6673 O 637.915 1.81105 -0.709317 0
M  V30 6674 C 638.198 -0.181775 -3.59641 0
M  V30 6675 C 638.051 -1.59926 -4.20409 0
M  V30 6676 C 639.37 0.480945 -4.37464 0
M  V30 6677 H 636.489 -0.0629371 -0.734308 0
M  V30 6678 H 639.131 -0.835833 -1.70628 0
M  V30 6679 H 637.281 0.385918 -3.86578 0
M  V30 6680 H 638.953 -2.21766 -4.04497 0
M  V30 6681 H 637.196 -2.14605 -3.76998 0
M  V30 6682 H 637.867 -1.55994 -5.295 0
M  V30 6683 H 640.343 -0.00208273 -4.161 0
M  V30 6684 H 639.219 0.441384 -5.47122 0
M  V30 6685 H 639.48 1.55533 -4.13838 0
M  V30 6686 N 638.539 1.52521 -0.396863 0
M  V30 6687 C 639.787 2.01274 0.182536 0
M  V30 6688 C 640.108 1.28485 1.46685 0
M  V30 6689 O 639.378 0.407134 1.91623 0
M  V30 6690 H 637.958 0.743671 0.0704442 0
M  V30 6691 H 640.62 1.87547 -0.530289 0
M  V30 6692 H 639.716 3.09687 0.387385 0
M  V30 6693 N 640.017 0.126909 1.57088 0
M  V30 6694 C 640.964 -0.82036 2.15728 0
M  V30 6695 C 641.934 -1.25811 1.08447 0
M  V30 6696 O 643.119 -1.33422 1.36393 0
M  V30 6697 C 640.259 -2.06199 2.76724 0
M  V30 6698 C 639.372 -1.67188 3.98337 0
M  V30 6699 C 638.507 -2.86378 4.47393 0
M  V30 6700 C 637.546 -2.43644 5.61519 0
M  V30 6701 N 636.683 -3.55775 6.05284 0
M  V30 6702 H 641.523 -0.313472 2.96347 0
M  V30 6703 H 639.06 -0.14303 1.46403 0
M  V30 6704 H 641.018 -2.78959 3.10222 0
M  V30 6705 H 639.648 -2.54333 1.98782 0
M  V30 6706 H 638.7 -0.842714 3.70948 0
M  V30 6707 H 640.012 -1.31789 4.81075 0
M  V30 6708 H 639.166 -3.67353 4.82842 0
M  V30 6709 H 637.905 -3.25009 3.63621 0
M  V30 6710 H 636.91 -1.61104 5.25667 0
M  V30 6711 H 638.135 -2.06122 6.47063 0
M  V30 6712 H 636.081 -3.94065 5.24451 0
M  V30 6713 H 635.998 -3.24325 6.82898 0
M  V30 6714 H 637.266 -4.37166 6.45373 0
M  V30 6715 N 641.495 -1.56914 -0.146875 0
M  V30 6716 C 642.425 -2.01308 -1.1831 0
M  V30 6717 C 643.406 -0.892664 -1.44795 0
M  V30 6718 O 644.591 -1.16048 -1.55713 0
M  V30 6719 C 641.721 -2.3938 -2.51624 0
M  V30 6720 C 640.675 -3.54608 -2.3966 0
M  V30 6721 C 640.001 -3.78493 -3.77686 0
M  V30 6722 C 641.301 -4.87269 -1.88058 0
M  V30 6723 H 642.995 -2.88123 -0.813964 0
M  V30 6724 H 640.541 -1.38615 -0.3901 0
M  V30 6725 H 642.494 -2.69037 -3.24341 0
M  V30 6726 H 641.218 -1.49502 -2.90373 0
M  V30 6727 H 639.877 -3.25116 -1.69396 0
M  V30 6728 H 639.525 -2.85866 -4.13871 0
M  V30 6729 H 639.225 -4.56039 -3.70543 0
M  V30 6730 H 640.749 -4.10576 -4.51951 0
M  V30 6731 H 642.163 -5.15644 -2.50568 0
M  V30 6732 H 640.56 -5.68622 -1.91805 0
M  V30 6733 H 641.63 -4.77634 -0.836277 0
M  V30 6734 N 642.974 0.416227 -1.52004 0
M  V30 6735 C 644.22 1.16555 -1.6596 0
M  V30 6736 C 644.553 1.90347 -0.384906 0
M  V30 6737 O 643.828 1.84474 0.616405 0
M  V30 6738 C 644.111 2.1657 -2.87696 0
M  V30 6739 C 643.964 1.46722 -4.25197 0
M  V30 6740 C 645.283 3.17321 -3.04951 0
M  V30 6741 H 642.402 0.422369 -0.603965 0
M  V30 6742 H 645.044 0.452141 -1.84542 0
M  V30 6743 H 643.194 2.77411 -2.71985 0
M  V30 6744 H 644.866 0.89056 -4.52622 0
M  V30 6745 H 643.109 0.769263 -4.26925 0
M  V30 6746 H 643.78 2.19665 -5.0641 0
M  V30 6747 H 646.256 2.66552 -3.19514 0
M  V30 6748 H 645.132 3.84573 -3.91656 0
M  V30 6749 H 645.393 3.84643 -2.17951 0
M  V30 6750 N 644.452 1.42507 0.673017 0
M  V30 6751 C 645.362 1.4853 1.81593 0
M  V30 6752 C 646.378 0.373907 1.69935 0
M  V30 6753 O 647.554 0.625078 1.91454 0
M  V30 6754 C 644.619 1.387 3.17747 0
M  V30 6755 C 643.68 2.60346 3.41348 0
M  V30 6756 C 642.913 2.50975 4.71007 0
M  V30 6757 O 643.136 1.54659 5.49033 0
M  V30 6758 O 642.07 3.41138 4.95892 0
M  V30 6759 H 645.896 2.45001 1.79467 0
M  V30 6760 H 643.481 1.2429 0.82899 0
M  V30 6761 H 645.363 1.35586 3.98992 0
M  V30 6762 H 644.038 0.453555 3.20507 0
M  V30 6763 H 642.945 2.69034 2.59945 0
M  V30 6764 H 644.278 3.52595 3.43421 0
M  V30 6765 N 645.93 -0.909495 1.28709 0
M  V30 6766 C 646.893 -1.99399 1.13016 0
M  V30 6767 C 647.893 -1.60654 0.068536 0
M  V30 6768 O 649.083 -1.71334 0.314671 0
M  V30 6769 C 646.215 -3.33078 0.726085 0
M  V30 6770 H 647.408 -2.14751 2.09338 0
M  V30 6771 H 644.961 -1.09272 1.11756 0
M  V30 6772 H 645.696 -3.23428 -0.23771 0
M  V30 6773 H 645.481 -3.62562 1.49302 0
M  V30 6774 H 646.971 -4.12681 0.639058 0
M  V30 6775 N 647.408 -1.11026 -1.11852 0
M  V30 6776 C 648.656 -0.854769 -1.83134 0
M  V30 6777 C 648.977 0.621375 -1.84835 0
M  V30 6778 O 648.247 1.45129 -1.31584 0
M  V30 6779 H 646.827 -0.313229 -0.678157 0
M  V30 6780 H 649.489 -1.40178 -1.35411 0
M  V30 6781 H 648.585 -1.22311 -2.87135 0
M  V30 6782 N 648.886 1.2938 -0.899927 0
M  V30 6783 C 650.126 1.97332 -0.532871 0
M  V30 6784 C 650.49 1.69385 0.904029 0
M  V30 6785 O 651.691 2.30793 1.37797 0
M  V30 6786 C 649.962 3.47927 -0.817393 0
M  V30 6787 S 651.521 4.3528 -0.55468 0
M  V30 6788 H 648.339 0.682966 -0.197683 0
M  V30 6789 H 650.941 1.57189 -1.16241 0
M  V30 6790 H 649.645 3.65761 -1.86138 0
M  V30 6791 H 649.176 3.93006 -0.175978 0
M  V30 6792 H 651.191 4.92557 0.600182 0
M  V30 6793 N 650.364 0.662433 1.43002 0
M  V30 6794 C 651.61 0.179857 2.02001 0
M  V30 6795 C 651.943 -1.20625 1.52195 0
M  V30 6796 O 651.218 -1.80726 0.718911 0
M  V30 6797 C 651.501 0.200845 3.59539 0
M  V30 6798 C 651.354 1.62153 4.19555 0
M  V30 6799 C 652.673 -0.457738 4.37713 0
M  V30 6800 H 649.792 0.0668305 0.733964 0
M  V30 6801 H 652.434 0.84487 1.70182 0
M  V30 6802 H 650.584 -0.365411 3.86778 0
M  V30 6803 H 652.256 2.23908 4.03315 0
M  V30 6804 H 650.499 2.16601 3.75854 0
M  V30 6805 H 651.17 1.58799 5.28665 0
M  V30 6806 H 653.646 0.0241495 4.16093 0
M  V30 6807 H 652.522 -0.412363 5.47349 0
M  V30 6808 H 652.783 -1.53336 4.14657 0
M  V30 6809 N 651.842 -1.52309 0.404946 0
M  V30 6810 C 652.805 -2.25491 -0.410651 0
M  V30 6811 C 653.805 -1.27704 -0.977154 0
M  V30 6812 O 654.995 -1.51679 -0.856691 0
M  V30 6813 C 652.127 -3.02197 -1.57765 0
M  V30 6814 H 653.32 -2.99015 0.230277 0
M  V30 6815 H 650.873 -1.55506 0.157377 0
M  V30 6816 H 651.608 -2.33013 -2.25556 0
M  V30 6817 H 651.393 -3.73987 -1.17797 0
M  V30 6818 H 652.883 -3.57719 -2.15469 0
M  V30 6819 N 653.32 -0.135238 -1.57019 0
M  V30 6820 C 654.268 0.826099 -2.17436 0
M  V30 6821 C 655.262 1.26378 -1.12805 0
M  V30 6822 O 656.468 1.23363 -1.31079 0
M  V30 6823 H 652.843 0.284568 -0.696078 0
M  V30 6824 H 654.814 0.292212 -2.96966 0
M  V30 6825 C 653.563 2.05991 -2.80112 0
M  V30 6826 H 652.886 1.73209 -3.60331 0
M  V30 6827 H 654.326 2.71225 -3.25903 0
M  V30 6828 C 652.785 2.86027 -1.78017 0
M  V30 6829 O 653.315 3.81971 -1.24344 0
M  V30 6830 N 651.521 2.50332 -1.47588 0
M  V30 6831 H 651.068 1.72377 -1.91426 0
M  V30 6832 H 651.026 3.04177 -0.795228 0
M  V30 6833 N 654.798 1.5699 0.138552 0
M  V30 6834 C 655.746 1.99858 1.18994 0
M  V30 6835 C 656.74 0.89231 1.43994 0
M  V30 6836 O 657.946 1.0775 1.44187 0
M  V30 6837 H 654.321 0.636325 0.400743 0
M  V30 6838 H 656.292 2.87427 0.801755 0
M  V30 6839 C 655.041 2.40235 2.51361 0
M  V30 6840 H 654.364 3.24917 2.32957 0
M  V30 6841 H 655.804 2.74045 3.23535 0
M  V30 6842 C 654.263 1.25829 3.1252 0
M  V30 6843 O 654.793 0.563604 3.97727 0
M  V30 6844 N 652.999 1.02036 2.72097 0
M  V30 6845 H 652.546 1.58705 2.02905 0
M  V30 6846 H 652.504 0.256796 3.1335 0
M  V30 6847 N 656.276 -0.40816 1.52223 0
M  V30 6848 C 657.239 -1.48 1.7501 0
M  V30 6849 C 658.239 -1.48367 0.619996 0
M  V30 6850 O 659.429 -1.49874 0.887881 0
M  V30 6851 C 656.561 -2.87403 1.83336 0
M  V30 6852 H 657.754 -1.29086 2.70697 0
M  V30 6853 H 655.307 -0.638715 1.42654 0
M  V30 6854 H 656.042 -3.11686 0.895677 0
M  V30 6855 H 655.827 -2.8854 2.65494 0
M  V30 6856 H 657.317 -3.65103 2.02705 0
M  V30 6857 N 657.755 -1.42862 -0.66545 0
M  V30 6858 C 659.001 -1.44043 -1.42757 0
M  V30 6859 C 659.334 -0.0599629 -1.94107 0
M  V30 6860 O 658.609 0.917286 -1.71511 0
M  V30 6861 C 658.892 -2.47266 -2.61786 0
M  V30 6862 C 658.745 -3.94539 -2.16007 0
M  V30 6863 C 660.064 -2.47365 -3.64003 0
M  V30 6864 H 657.183 -0.524506 -0.517748 0
M  V30 6865 H 659.825 -1.74335 -0.755466 0
M  V30 6866 H 657.975 -2.21565 -3.19126 0
M  V30 6867 H 659.647 -4.31254 -1.63762 0
M  V30 6868 H 657.89 -4.07957 -1.47491 0
M  V30 6869 H 658.561 -4.62357 -3.01546 0
M  V30 6870 H 661.037 -2.70243 -3.16399 0
M  V30 6871 H 659.913 -3.21552 -4.44854 0
M  V30 6872 H 660.174 -1.50299 -4.15767 0
M  V30 6873 N 659.233 0.902656 -1.29189 0
M  V30 6874 C 660.482 1.6475 -1.16362 0
M  V30 6875 C 660.795 1.93517 0.284682 0
M  V30 6876 O 662.001 2.66192 0.534229 0
M  V30 6877 C 660.457 2.96848 -2.03493 0
M  V30 6878 C 660.065 2.75687 -3.5313 0
M  V30 6879 C 661.809 3.74762 -1.99383 0
M  V30 6880 C 659.716 4.03492 -4.32375 0
M  V30 6881 H 658.646 0.618041 -0.431904 0
M  V30 6882 H 661.297 1.0008 -1.53806 0
M  V30 6883 H 659.679 3.62715 -1.58916 0
M  V30 6884 H 660.853 2.18431 -4.05739 0
M  V30 6885 H 659.168 2.11171 -3.58881 0
M  V30 6886 H 661.765 4.69515 -2.5585 0
M  V30 6887 H 662.108 4.04767 -0.973123 0
M  V30 6888 H 662.641 3.15732 -2.41988 0
M  V30 6889 H 659.38 3.78656 -5.3507 0
M  V30 6890 H 658.9 4.60318 -3.84535 0
M  V30 6891 H 660.579 4.71662 -4.42881 0
M  V30 6892 N 660.711 1.11618 1.11262 0
M  V30 6893 C 662.127 0.850468 1.35053 0
M  V30 6894 C 662.327 -0.523868 1.94571 0
M  V30 6895 O 661.383 -1.2743 2.17986 0
M  V30 6896 C 662.696 1.96005 2.28041 0
M  V30 6897 C 664.244 1.98993 2.416 0
M  V30 6898 C 664.719 3.0916 3.37911 0
M  V30 6899 N 666.21 3.08547 3.45475 0
M  V30 6900 C 666.945 3.9043 4.19943 0
M  V30 6901 N 666.441 4.8228 4.97371 0
M  V30 6902 N 668.234 3.786 4.15474 0
M  V30 6903 H 660.385 2.00184 0.709932 0
M  V30 6904 H 662.648 0.870635 0.375099 0
M  V30 6905 H 662.354 2.9499 1.91503 0
M  V30 6906 H 662.228 1.85782 3.28275 0
M  V30 6907 H 664.615 1.00633 2.77411 0
M  V30 6908 H 664.696 2.13292 1.4121 0
M  V30 6909 H 664.34 4.07748 3.02827 0
M  V30 6910 H 664.27 2.92102 4.3816 0
M  V30 6911 H 666.761 2.42 2.90249 0
M  V30 6912 H 667.074 5.41289 5.51567 0
M  V30 6913 H 665.419 4.863 4.96525 0
M  V30 6914 H 668.61 3.06185 3.54074 0
M  V30 6915 H 668.783 4.42647 4.73253 0
M  V30 6916 N 662.189 -1.289 0.906776 0
M  V30 6917 C 663.136 -2.2751 0.388313 0
M  V30 6918 C 664.106 -1.57301 -0.533439 0
M  V30 6919 O 665.291 -1.85243 -0.457148 0
M  V30 6920 C 662.431 -3.43091 -0.37181 0
M  V30 6921 C 661.544 -4.28066 0.581647 0
M  V30 6922 C 660.679 -5.30837 -0.19623 0
M  V30 6923 C 659.718 -6.07472 0.751294 0
M  V30 6924 N 658.855 -7.021 0.00737727 0
M  V30 6925 H 663.695 -2.71237 1.23428 0
M  V30 6926 H 661.232 -1.33397 0.619962 0
M  V30 6927 H 663.19 -4.08888 -0.828641 0
M  V30 6928 H 661.82 -3.00374 -1.18218 0
M  V30 6929 H 660.872 -3.62378 1.157 0
M  V30 6930 H 662.184 -4.81382 1.30665 0
M  V30 6931 H 661.338 -6.02485 -0.71394 0
M  V30 6932 H 660.077 -4.78272 -0.954324 0
M  V30 6933 H 659.082 -5.34682 1.28044 0
M  V30 6934 H 660.307 -6.62126 1.50883 0
M  V30 6935 H 658.253 -6.51894 -0.732854 0
M  V30 6936 H 658.17 -7.53004 0.672334 0
M  V30 6937 H 659.438 -7.77956 -0.490365 0
M  V30 6938 N 663.667 -0.670007 -1.42649 0
M  V30 6939 C 664.615 0.0230106 -2.32589 0
M  V30 6940 C 665.609 0.795585 -1.49555 0
M  V30 6941 O 666.815 0.70409 -1.65658 0
M  V30 6942 H 663.19 0.0262342 -0.751542 0
M  V30 6943 H 665.161 -0.753009 -2.88743 0
M  V30 6944 C 663.91 0.963872 -3.34073 0
M  V30 6945 H 663.233 0.378813 -3.98001 0
M  V30 6946 H 664.673 1.41755 -3.99602 0
M  V30 6947 C 663.132 2.06797 -2.65964 0
M  V30 6948 O 663.662 3.15383 -2.48789 0
M  V30 6949 N 661.868 1.83831 -2.25066 0
M  V30 6950 H 661.415 0.955235 -2.39234 0
M  V30 6951 H 661.373 2.57895 -1.79827 0
M  V30 6952 N 665.145 1.52092 -0.413018 0
M  V30 6953 C 666.108 2.25706 0.398687 0
M  V30 6954 C 667.108 1.28221 0.970368 0
M  V30 6955 O 668.298 1.52131 0.848635 0
M  V30 6956 C 665.43 3.03029 1.5616 0
M  V30 6957 H 666.623 2.98888 -0.246131 0
M  V30 6958 H 664.176 1.5542 -0.165622 0
M  V30 6959 H 664.911 2.34205 2.24317 0
M  V30 6960 H 664.696 3.74606 1.15812 0
M  V30 6961 H 666.186 3.58857 2.13569 0
M  V30 6962 N 666.623 0.143563 1.56945 0
M  V30 6963 C 667.869 -0.50916 1.96304 0
M  V30 6964 C 668.202 -1.64741 1.0283 0
M  V30 6965 O 667.477 -1.94374 0.0700361 0
M  V30 6966 C 667.76 -1.0186 3.45393 0
M  V30 6967 C 667.613 0.117923 4.49645 0
M  V30 6968 C 668.932 -1.90151 3.96901 0
M  V30 6969 H 666.051 -0.183608 0.713763 0
M  V30 6970 H 668.693 0.224095 1.88674 0
M  V30 6971 H 666.843 -1.64345 3.52027 0
M  V30 6972 H 668.515 0.754145 4.55094 0
M  V30 6973 H 666.758 0.777568 4.26774 0
M  V30 6974 H 667.429 -0.280187 5.51288 0
M  V30 6975 H 669.905 -1.375 3.92725 0
M  V30 6976 H 668.781 -2.22707 5.0169 0
M  V30 6977 H 669.042 -2.83718 3.39052 0
M  V30 6978 N 668.101 -1.57061 -0.130224 0
M  V30 6979 C 669.034 -1.94698 -1.19029 0
M  V30 6980 C 670.012 -0.815074 -1.40696 0
M  V30 6981 O 671.196 -1.07223 -1.55034 0
M  V30 6982 C 668.323 -2.23352 -2.5462 0
M  V30 6983 C 667.369 -3.45945 -2.49448 0
M  V30 6984 S 668.202 -4.98927 -1.94505 0
M  V30 6985 C 669.358 -5.30721 -3.31792 0
M  V30 6986 H 669.591 -2.84308 -0.869272 0
M  V30 6987 H 667.124 -1.50688 -0.336531 0
M  V30 6988 H 669.082 -2.40539 -3.32643 0
M  V30 6989 H 667.743 -1.34376 -2.83905 0
M  V30 6990 H 666.936 -3.63324 -3.49302 0
M  V30 6991 H 666.538 -3.28086 -1.79543 0
M  V30 6992 H 668.83 -5.25215 -4.27966 0
M  V30 6993 H 669.773 -6.32048 -3.19251 0
M  V30 6994 H 670.181 -4.5821 -3.29703 0
M  V30 6995 N 669.579 0.400081 -1.52437 0
M  V30 6996 C 670.827 1.14392 -1.6661 0
M  V30 6997 C 671.148 1.90792 -0.402927 0
M  V30 6998 O 670.418 1.87042 0.582425 0
M  V30 6999 H 668.998 0.425275 -0.614125 0
M  V30 7000 H 671.66 0.455076 -1.89513 0
M  V30 7001 H 670.756 1.85298 -2.51139 0
M  V30 7002 N 671.057 1.43213 0.657864 0
M  V30 7003 C 671.989 1.43974 1.78337 0
M  V30 7004 C 673.002 0.336482 1.59285 0
M  V30 7005 O 674.191 0.600631 1.68091 0
M  V30 7006 C 671.291 1.23242 3.15697 0
M  V30 7007 C 670.464 2.46319 3.61449 0
M  V30 7008 C 669.523 2.2088 4.77597 0
M  V30 7009 O 668.549 2.942 4.87273 0
M  V30 7010 N 669.751 1.22251 5.67481 0
M  V30 7011 H 672.516 2.40993 1.78164 0
M  V30 7012 H 670.077 1.3831 0.841549 0
M  V30 7013 H 672.069 1.04113 3.91079 0
M  V30 7014 H 670.639 0.346849 3.1067 0
M  V30 7015 H 669.859 2.80904 2.76563 0
M  V30 7016 H 671.147 3.28239 3.88763 0
M  V30 7017 H 670.545 0.616433 5.62331 0
M  V30 7018 H 669.102 1.09107 6.42603 0
M  V30 7019 N 672.536 -0.895792 1.29666 0
M  V30 7020 C 673.947 -1.46195 1.1612 0
M  V30 7021 C 674.298 -1.94699 -0.242195 0
M  V30 7022 O 673.423 -1.8406 -1.13802 0
M  V30 7023 C 674.018 -2.65718 2.10189 0
M  V30 7024 C 672.577 -3.18458 2.00653 0
M  V30 7025 C 671.724 -1.91149 2.00891 0
M  V30 7026 H 674.675 -0.706756 1.42094 0
M  V30 7027 H 674.696 -3.4158 1.6764 0
M  V30 7028 H 674.208 -2.30386 3.12321 0
M  V30 7029 H 672.309 -3.58474 1.01623 0
M  V30 7030 H 672.422 -3.82491 2.88509 0
M  V30 7031 H 670.786 -2.09021 1.45542 0
M  V30 7032 H 671.569 -1.58089 3.04734 0
M  V30 7033 N 674.014 -1.12206 -1.10668 0
M  V30 7034 C 675.242 -0.898635 -1.86366 0
M  V30 7035 C 675.657 0.551991 -1.80551 0
M  V30 7036 O 675.014 1.38152 -1.19249 0
M  V30 7037 C 675.065 -1.36199 -3.34861 0
M  V30 7038 O 674.786 -2.75576 -3.40573 0
M  V30 7039 C 676.287 -1.17515 -4.2744 0
M  V30 7040 H 673.507 -0.321281 -0.589084 0
M  V30 7041 H 676.051 -1.49142 -1.39918 0
M  V30 7042 H 674.206 -0.81249 -3.78784 0
M  V30 7043 H 674.62 -2.95851 -4.33096 0
M  V30 7044 H 676.094 -1.54827 -5.29842 0
M  V30 7045 H 676.571 -0.115486 -4.39048 0
M  V30 7046 H 677.177 -1.71203 -3.89319 0
M  V30 7047 N 675.492 1.28418 -0.913599 0
M  V30 7048 C 676.402 2.31043 -0.406965 0
M  V30 7049 C 677.418 1.66501 0.505298 0
M  V30 7050 O 678.594 1.97558 0.391522 0
M  V30 7051 C 675.659 3.4498 0.344901 0
M  V30 7052 C 674.72 4.25078 -0.600563 0
M  V30 7053 C 673.953 5.33575 0.115516 0
M  V30 7054 O 674.176 5.54503 1.33727 0
M  V30 7055 O 673.11 5.9939 -0.549095 0
M  V30 7056 H 676.936 2.76387 -1.25873 0
M  V30 7057 H 674.521 1.33109 -0.678415 0
M  V30 7058 H 676.403 4.14314 0.769542 0
M  V30 7059 H 675.078 3.01719 1.1725 0
M  V30 7060 H 673.985 3.58334 -1.0746 0
M  V30 7061 H 675.318 4.72018 -1.39497 0
M  V30 7062 N 676.97 0.677563 1.42291 0
M  V30 7063 C 678.218 0.200578 2.01102 0
M  V30 7064 C 678.539 -1.19803 1.53858 0
M  V30 7065 O 677.809 -1.80496 0.761439 0
M  V30 7066 H 676.389 0.0711634 0.743603 0
M  V30 7067 H 679.051 0.874691 1.7417 0
M  V30 7068 H 678.147 0.204 3.11433 0
M  V30 7069 N 678.448 -1.51871 0.421078 0
M  V30 7070 C 679.411 -2.25914 -0.386712 0
M  V30 7071 C 680.411 -1.28733 -0.963555 0
M  V30 7072 O 681.601 -1.52579 -0.840556 0
M  V30 7073 C 678.733 -3.03853 -1.54551 0
M  V30 7074 H 679.926 -2.98754 0.261978 0
M  V30 7075 H 677.479 -1.5533 0.173862 0
M  V30 7076 H 678.214 -2.35392 -2.23072 0
M  V30 7077 H 677.999 -3.75215 -1.13824 0
M  V30 7078 H 679.489 -3.59984 -2.11663 0
M  V30 7079 N 679.926 -0.151884 -1.56866 0
M  V30 7080 C 680.856 0.781943 -2.20018 0
M  V30 7081 C 681.837 1.25347 -1.14987 0
M  V30 7082 O 683.022 1.31015 -1.43348 0
M  V30 7083 C 680.152 2.01928 -2.82564 0
M  V30 7084 C 679.106 1.68434 -3.93464 0
M  V30 7085 C 678.432 2.99472 -4.42968 0
M  V30 7086 C 679.732 0.927244 -5.14003 0
M  V30 7087 H 681.426 0.255607 -2.98307 0
M  V30 7088 H 678.972 0.121502 -1.43486 0
M  V30 7089 H 680.925 2.67741 -3.25411 0
M  V30 7090 H 679.649 2.56943 -2.01614 0
M  V30 7091 H 678.308 1.04998 -3.51242 0
M  V30 7092 H 677.956 3.52488 -3.58834 0
M  V30 7093 H 677.656 2.77823 -5.17772 0
M  V30 7094 H 679.18 3.66348 -4.88489 0
M  V30 7095 H 680.594 1.48756 -5.53665 0
M  V30 7096 H 678.991 0.810513 -5.94601 0
M  V30 7097 H 680.061 -0.0801163 -4.84834 0
M  V30 7098 N 681.404 1.57128 0.121893 0
M  V30 7099 C 682.337 1.95327 1.17995 0
M  V30 7100 C 683.315 0.822524 1.40262 0
M  V30 7101 O 684.499 1.08044 1.54463 0
M  V30 7102 C 681.626 2.24699 2.53432 0
M  V30 7103 C 680.672 3.47263 2.4761 0
M  V30 7104 S 681.505 4.99951 1.91857 0
M  V30 7105 C 682.661 5.32473 3.28973 0
M  V30 7106 H 682.894 2.84765 0.854182 0
M  V30 7107 H 680.427 1.50864 0.328534 0
M  V30 7108 H 682.385 2.423 3.31362 0
M  V30 7109 H 681.046 1.3588 2.83188 0
M  V30 7110 H 680.239 3.65171 3.4737 0
M  V30 7111 H 679.841 3.29034 1.778 0
M  V30 7112 H 682.133 5.27478 4.25175 0
M  V30 7113 H 683.076 6.33732 3.15895 0
M  V30 7114 H 683.484 4.59952 3.27268 0
M  V30 7115 N 682.882 -0.391992 1.52647 0
M  V30 7116 C 683.845 -1.46135 1.7657 0
M  V30 7117 C 684.845 -1.47701 0.635698 0
M  V30 7118 O 686.035 -1.48924 0.903728 0
M  V30 7119 C 683.167 -2.85443 1.86374 0
M  V30 7120 H 684.36 -1.26208 2.72051 0
M  V30 7121 H 681.913 -0.623549 1.43323 0
M  V30 7122 H 682.648 -3.10718 0.928685 0
M  V30 7123 H 682.433 -2.85708 2.68539 0
M  V30 7124 H 683.923 -3.62933 2.06566 0
M  V30 7125 N 684.36 -1.4356 -0.65026 0
M  V30 7126 C 685.29 -1.51758 -1.77459 0
M  V30 7127 C 686.271 -0.372019 -1.65982 0
M  V30 7128 O 687.456 -0.589627 -1.85033 0
M  V30 7129 C 684.586 -1.44302 -3.15902 0
M  V30 7130 C 683.54 -2.57138 -3.42146 0
M  V30 7131 C 682.866 -2.34735 -4.8042 0
M  V30 7132 C 684.166 -3.99373 -3.36598 0
M  V30 7133 H 685.86 -2.45863 -1.70855 0
M  V30 7134 H 683.406 -1.18333 -0.820566 0
M  V30 7135 H 685.359 -1.48641 -3.94314 0
M  V30 7136 H 684.083 -0.467026 -3.23244 0
M  V30 7137 H 682.742 -2.52157 -2.66106 0
M  V30 7138 H 682.39 -1.35372 -4.84441 0
M  V30 7139 H 682.09 -3.10375 -4.9894 0
M  V30 7140 H 683.614 -2.40862 -5.61086 0
M  V30 7141 H 685.028 -4.05826 -4.04942 0
M  V30 7142 H 683.425 -4.75063 -3.66654 0
M  V30 7143 H 684.495 -4.243 -2.34729 0
M  V30 7144 N 685.838 0.888903 -1.30139 0
M  V30 7145 C 686.801 1.97576 -1.16174 0
M  V30 7146 C 687.801 1.60525 -0.094086 0
M  V30 7147 O 688.991 1.70812 -0.341889 0
M  V30 7148 C 686.123 3.3188 -0.778983 0
M  V30 7149 H 687.316 2.11393 -2.12728 0
M  V30 7150 H 684.869 1.0748 -1.1348 0
M  V30 7151 H 685.604 3.23765 0.186225 0
M  V30 7152 H 685.389 3.60141 -1.55051 0
M  V30 7153 H 686.879 4.11612 -0.704631 0
M  V30 7154 N 687.317 1.12792 1.10072 0
M  V30 7155 C 688.25 0.742921 2.15768 0
M  V30 7156 C 689.228 -0.267714 1.60381 0
M  V30 7157 O 690.412 -0.160782 1.87813 0
M  V30 7158 C 687.539 0.100244 3.38552 0
M  V30 7159 C 686.585 1.07831 4.12644 0
M  V30 7160 S 687.418 2.60765 4.6772 0
M  V30 7161 C 688.574 1.97838 5.9381 0
M  V30 7162 H 688.807 1.63822 2.48092 0
M  V30 7163 H 686.34 0.947385 1.21918 0
M  V30 7164 H 688.298 -0.264175 4.09649 0
M  V30 7165 H 686.959 -0.772223 3.04459 0
M  V30 7166 H 686.152 0.576325 5.00694 0
M  V30 7167 H 685.754 1.38586 3.47376 0
M  V30 7168 H 688.046 1.32341 6.64449 0
M  V30 7169 H 688.989 2.83943 6.48677 0
M  V30 7170 H 689.397 1.43267 5.46017 0
M  V30 7171 N 688.795 -1.27931 0.920396 0
M  V30 7172 C 689.742 -2.27085 0.412422 0
M  V30 7173 C 690.712 -1.57858 -0.516725 0
M  V30 7174 O 691.897 -1.85717 -0.437475 0
M  V30 7175 C 689.037 -3.43466 -0.335399 0
M  V30 7176 C 688.15 -4.27425 0.627017 0
M  V30 7177 C 687.285 -5.31016 -0.139916 0
M  V30 7178 C 686.324 -6.06641 0.815683 0
M  V30 7179 N 685.461 -7.02052 0.0818439 0
M  V30 7180 H 690.301 -2.69913 1.26298 0
M  V30 7181 H 687.838 -1.32732 0.634076 0
M  V30 7182 H 689.796 -4.09744 -0.785226 0
M  V30 7183 H 688.426 -3.01611 -1.15025 0
M  V30 7184 H 687.478 -3.6113 1.19537 0
M  V30 7185 H 688.79 -4.79969 1.35763 0
M  V30 7186 H 687.944 -6.03208 -0.649998 0
M  V30 7187 H 686.683 -4.79257 -0.903543 0
M  V30 7188 H 685.688 -5.33294 1.33708 0
M  V30 7189 H 686.913 -6.60489 1.57897 0
M  V30 7190 H 684.859 -6.52634 -0.663671 0
M  V30 7191 H 684.776 -7.52249 0.752163 0
M  V30 7192 H 686.044 -7.78432 -0.407825 0
M  V30 7193 N 690.273 -0.685099 -1.4193 0
M  V30 7194 C 691.206 0.0371639 -2.2817 0
M  V30 7195 C 692.184 0.798436 -1.41647 0
M  V30 7196 O 693.368 0.791428 -1.71081 0
M  V30 7197 C 690.495 1.05993 -3.21688 0
M  V30 7198 C 689.541 0.393043 -4.24685 0
M  V30 7199 S 690.374 -0.856921 -5.28599 0
M  V30 7200 C 691.53 0.164508 -6.25684 0
M  V30 7201 H 691.763 -0.694305 -2.89079 0
M  V30 7202 H 689.296 -0.474999 -1.46912 0
M  V30 7203 H 691.254 1.64489 -3.76103 0
M  V30 7204 H 689.915 1.7639 -2.59895 0
M  V30 7205 H 689.108 1.16513 -4.90348 0
M  V30 7206 H 688.71 -0.118589 -3.73812 0
M  V30 7207 H 691.002 1.02106 -6.69762 0
M  V30 7208 H 691.945 -0.457917 -7.06618 0
M  V30 7209 H 692.353 0.514596 -5.6215 0
M  V30 7210 N 691.751 1.51645 -0.429126 0
M  V30 7211 C 693.028 1.94579 0.199614 0
M  V30 7212 C 693.408 1.3673 1.60836 0
M  V30 7213 O 692.756 0.551062 2.21756 0
M  V30 7214 C 692.966 3.48506 0.185685 0
M  V30 7215 C 694.314 4.22756 0.395282 0
M  V30 7216 O 695.338 3.55219 0.264165 0
M  V30 7217 O 694.197 5.42555 0.655475 0
M  V30 7218 H 691.291 0.816007 0.134393 0
M  V30 7219 H 693.837 1.62577 -0.486513 0
M  V30 7220 H 692.609 3.83045 -0.799508 0
M  V30 7221 H 692.232 3.86927 0.91507 0
M  V30 7222 N 693.229 0.160201 1.56784 0
M  V30 7223 C 694.159 -0.770264 2.2043 0
M  V30 7224 C 695.14 -1.24736 1.15651 0
M  V30 7225 O 696.325 -1.30253 1.44041 0
M  V30 7226 C 693.455 -2.00427 2.83631 0
M  V30 7227 C 692.409 -1.66345 3.94352 0
M  V30 7228 C 691.735 -2.97119 4.4455 0
M  V30 7229 C 693.035 -0.899972 5.14488 0
M  V30 7230 H 694.729 -0.239783 2.98438 0
M  V30 7231 H 692.275 -0.113891 1.43549 0
M  V30 7232 H 694.228 -2.66012 3.26827 0
M  V30 7233 H 692.952 -2.5587 2.02973 0
M  V30 7234 H 691.611 -1.03133 3.51794 0
M  V30 7235 H 691.259 -3.5058 3.60698 0
M  V30 7236 H 690.959 -2.75073 5.19238 0
M  V30 7237 H 692.483 -3.63753 4.90425 0
M  V30 7238 H 693.897 -1.45818 5.54446 0
M  V30 7239 H 692.294 -0.778968 5.95023 0
M  V30 7240 H 693.364 0.105827 4.84785 0
M  V30 7241 N 694.707 -1.5719 -0.113559 0
M  V30 7242 C 695.932 -1.89702 -0.838336 0
M  V30 7243 C 696.357 -0.752679 -1.72384 0
M  V30 7244 O 695.715 0.296575 -1.78858 0
M  V30 7245 C 695.763 -3.20989 -1.64312 0
M  V30 7246 O 694.867 -3.07278 -2.75053 0
M  V30 7247 H 694.208 -0.622339 -0.231496 0
M  V30 7248 H 696.738 -2.04382 -0.0943228 0
M  V30 7249 H 696.748 -3.53843 -2.03123 0
M  V30 7250 H 695.423 -4.03869 -0.993119 0
M  V30 7251 H 694 -2.85901 -2.39406 0
M  V30 7252 N 696.185 0.383891 -1.52853 0
M  V30 7253 C 697.462 1.14296 -1.58732 0
M  V30 7254 C 697.842 2.07585 -0.383611 0
M  V30 7255 O 697.19 2.1971 0.627661 0
M  V30 7256 C 697.4 1.89816 -2.92867 0
M  V30 7257 C 698.748 2.44998 -3.46787 0
M  V30 7258 O 699.772 1.99966 -2.94774 0
M  V30 7259 O 698.631 3.2727 -4.37672 0
M  V30 7260 H 695.725 0.52326 -0.640413 0
M  V30 7261 H 698.271 0.388631 -1.6519 0
M  V30 7262 H 697.043 1.21626 -3.71918 0
M  V30 7263 H 696.666 2.72199 -2.89816 0
M  V30 7264 N 697.663 1.43903 0.642637 0
M  V30 7265 C 698.912 1.45362 1.39831 0
M  V30 7266 C 699.225 0.0856289 1.95412 0
M  V30 7267 O 700.431 -0.0222856 2.71491 0
M  V30 7268 C 698.887 2.55857 2.53111 0
M  V30 7269 C 698.495 3.98811 2.04092 0
M  V30 7270 C 700.239 2.66524 3.30402 0
M  V30 7271 C 698.146 5.00751 3.14647 0
M  V30 7272 H 697.076 0.540777 0.52543 0
M  V30 7273 H 699.727 1.69929 0.692559 0
M  V30 7274 H 698.109 2.2451 3.26207 0
M  V30 7275 H 699.283 4.3967 1.37938 0
M  V30 7276 H 697.598 3.92284 1.39651 0
M  V30 7277 H 700.195 3.39858 4.12796 0
M  V30 7278 H 700.538 1.71949 3.79129 0
M  V30 7279 H 701.071 2.97224 2.64392 0
M  V30 7280 H 697.81 5.96914 2.70876 0
M  V30 7281 H 697.33 4.64495 3.79479 0
M  V30 7282 H 699.009 5.23933 3.79609 0
M  V30 7283 N 699.141 -0.881989 1.30609 0
M  V30 7284 C 700.088 -1.98803 1.17244 0
M  V30 7285 C 701.058 -1.65987 0.0611905 0
M  V30 7286 O 702.243 -1.89385 0.231911 0
M  V30 7287 C 699.383 -3.33867 0.87333 0
M  V30 7288 C 698.496 -3.79354 2.06675 0
M  V30 7289 C 697.631 -5.03078 1.70547 0
M  V30 7290 C 696.67 -5.40981 2.86366 0
M  V30 7291 N 695.807 -6.55886 2.50514 0
M  V30 7292 H 700.647 -2.09566 2.11863 0
M  V30 7293 H 698.184 -1.02607 1.05405 0
M  V30 7294 H 700.142 -4.11612 0.680519 0
M  V30 7295 H 698.772 -3.2278 -0.0359983 0
M  V30 7296 H 697.824 -2.97492 2.37071 0
M  V30 7297 H 699.136 -4.03382 2.93401 0
M  V30 7298 H 698.29 -5.88457 1.47658 0
M  V30 7299 H 697.029 -4.80927 0.809947 0
M  V30 7300 H 696.034 -4.54127 3.09917 0
M  V30 7301 H 697.259 -5.65104 3.76609 0
M  V30 7302 H 695.205 -6.35306 1.63471 0
M  V30 7303 H 695.122 -6.79799 3.30771 0
M  V30 7304 H 696.39 -7.44489 2.30989 0
M  V30 7305 N 700.619 -1.13374 -1.09472 0
M  V30 7306 C 701.567 -0.806105 -2.18185 0
M  V30 7307 C 702.561 0.21136 -1.68076 0
M  V30 7308 O 703.767 0.0685558 -1.79869 0
M  V30 7309 H 700.142 -0.242901 -0.71169 0
M  V30 7310 H 702.113 -1.73115 -2.43051 0
M  V30 7311 C 700.862 -0.287928 -3.46506 0
M  V30 7312 H 700.185 -1.06217 -3.85432 0
M  V30 7313 H 701.625 -0.0971054 -4.23889 0
M  V30 7314 C 700.084 0.986256 -3.22141 0
M  V30 7315 O 700.614 2.06217 -3.44728 0
M  V30 7316 N 698.82 0.917153 -2.75747 0
M  V30 7317 H 698.367 0.0414609 -2.57567 0
M  V30 7318 H 698.325 1.77029 -2.59823 0
M  V30 7319 N 702.098 1.27442 -0.927168 0
M  V30 7320 C 703.323 1.99036 -0.583042 0
M  V30 7321 C 703.748 1.68711 0.83176 0
M  V30 7322 O 703.106 0.927081 1.55804 0
M  V30 7323 C 703.154 3.51271 -0.814925 0
M  V30 7324 O 702.258 4.12226 0.119742 0
M  V30 7325 H 701.599 0.624883 -0.224538 0
M  V30 7326 H 704.129 1.62263 -1.24628 0
M  V30 7327 H 704.139 4.01411 -0.730282 0
M  V30 7328 H 702.814 3.72676 -1.84623 0
M  V30 7329 H 701.391 3.72897 -0.0147688 0
M  V30 7330 N 703.576 0.692616 1.41565 0
M  V30 7331 C 704.806 0.230943 2.05305 0
M  V30 7332 C 705.214 -1.12379 1.52209 0
M  V30 7333 O 704.557 -1.71281 0.663968 0
M  V30 7334 C 704.619 0.107894 3.59338 0
M  V30 7335 C 704.283 1.39419 4.35214 0
M  V30 7336 C 705.28 2.33143 4.64694 0
M  V30 7337 C 702.965 1.64674 4.74539 0
M  V30 7338 C 704.959 3.50385 5.32456 0
M  V30 7339 C 702.646 2.82202 5.42038 0
M  V30 7340 C 703.644 3.74881 5.70923 0
M  V30 7341 O 703.332 4.90351 6.37033 0
M  V30 7342 H 703.064 0.105708 0.667684 0
M  V30 7343 H 705.618 0.94488 1.82376 0
M  V30 7344 H 703.848 -0.661785 3.80995 0
M  V30 7345 H 705.537 -0.316213 4.04666 0
M  V30 7346 H 706.303 2.14887 4.34797 0
M  V30 7347 H 702.182 0.934007 4.51439 0
M  V30 7348 H 705.726 4.22743 5.54918 0
M  V30 7349 H 701.623 3.00376 5.71353 0
M  V30 7350 H 702.391 4.90128 6.55528 0
M  V30 7351 N 705.054 -1.51416 0.437162 0
M  V30 7352 C 706.303 -2.01275 -0.130865 0
M  V30 7353 C 706.616 -1.32593 -1.438 0
M  V30 7354 O 707.822 -1.7342 -2.08897 0
M  V30 7355 C 706.278 -3.5878 -0.283763 0
M  V30 7356 C 705.886 -4.36399 1.01293 0
M  V30 7357 C 707.63 -4.16786 -0.805569 0
M  V30 7358 C 705.537 -5.85608 0.825687 0
M  V30 7359 H 704.467 -0.752157 -0.0526818 0
M  V30 7360 H 707.118 -1.74524 0.566896 0
M  V30 7361 H 705.5 -3.81976 -1.04452 0
M  V30 7362 H 706.674 -4.24948 1.78201 0
M  V30 7363 H 704.989 -3.89843 1.46326 0
M  V30 7364 H 707.586 -5.25972 -0.962146 0
M  V30 7365 H 707.929 -3.75949 -1.78796 0
M  V30 7366 H 708.462 -3.97666 -0.103125 0
M  V30 7367 H 705.201 -6.30857 1.78045 0
M  V30 7368 H 704.721 -5.99723 0.0964029 0
M  V30 7369 H 706.4 -6.45226 0.478815 0
M  V30 7370 N 706.532 -0.168513 -1.56696 0
M  V30 7371 C 707.948 0.187686 -1.58493 0
M  V30 7372 C 708.148 1.63063 -1.18375 0
M  V30 7373 O 707.204 2.36142 -0.894042 0
M  V30 7374 C 708.517 -0.0905858 -3.00564 0
M  V30 7375 C 710.065 -0.028575 -3.12987 0
M  V30 7376 C 710.54 -0.279799 -4.57145 0
M  V30 7377 N 712.031 -0.227476 -4.62641 0
M  V30 7378 C 712.766 -0.396073 -5.7203 0
M  V30 7379 N 712.262 -0.623572 -6.89988 0
M  V30 7380 N 714.055 -0.332173 -5.61118 0
M  V30 7381 H 706.206 -1.11042 -1.81062 0
M  V30 7382 H 708.469 -0.441235 -0.839056 0
M  V30 7383 H 708.175 -1.09006 -3.34381 0
M  V30 7384 H 708.049 0.619078 -3.72085 0
M  V30 7385 H 710.436 0.961471 -2.78998 0
M  V30 7386 H 710.517 -0.770905 -2.43907 0
M  V30 7387 H 710.161 -1.26704 -4.91842 0
M  V30 7388 H 710.091 0.48311 -5.24379 0
M  V30 7389 H 712.582 -0.0571723 -3.77857 0
M  V30 7390 H 712.895 -0.741745 -7.69232 0
M  V30 7391 H 711.24 -0.660153 -6.91858 0
M  V30 7392 H 714.431 -0.155051 -4.67843 0
M  V30 7393 H 714.604 -0.466994 -6.46315 0
M  V30 7394 N 708.01 1.57248 0.105221 0
M  V30 7395 C 708.957 2.01338 1.12835 0
M  V30 7396 C 709.927 0.887897 1.40377 0
M  V30 7397 O 711.112 1.15315 1.5201 0
M  V30 7398 C 708.252 2.43432 2.44611 0
M  V30 7399 C 707.365 3.69457 2.23888 0
M  V30 7400 C 706.5 4.00473 3.48991 0
M  V30 7401 C 705.539 5.19638 3.23485 0
M  V30 7402 N 704.676 5.46457 4.40828 0
M  V30 7403 H 709.516 2.88527 0.745386 0
M  V30 7404 H 707.053 1.42714 0.356535 0
M  V30 7405 H 709.011 2.65879 3.21503 0
M  V30 7406 H 707.641 1.59266 2.80774 0
M  V30 7407 H 706.693 3.54545 1.37847 0
M  V30 7408 H 708.005 4.56497 2.01026 0
M  V30 7409 H 707.159 4.23642 4.34295 0
M  V30 7410 H 705.898 3.11935 3.74897 0
M  V30 7411 H 704.903 4.96299 2.36574 0
M  V30 7412 H 706.128 6.09766 2.98935 0
M  V30 7413 H 704.074 4.60876 4.66829 0
M  V30 7414 H 703.991 6.27849 4.2112 0
M  V30 7415 H 705.259 5.74155 5.27225 0
M  V30 7416 N 709.488 -0.375779 1.53054 0
M  V30 7417 C 710.435 -1.45978 1.78771 0
M  V30 7418 C 711.405 -1.53625 0.631552 0
M  V30 7419 O 712.59 -1.69674 0.872667 0
M  V30 7420 C 709.73 -2.8305 1.97425 0
M  V30 7421 C 708.843 -2.84451 3.25134 0
M  V30 7422 C 707.978 -4.13034 3.34031 0
M  V30 7423 C 707.017 -4.08536 4.55812 0
M  V30 7424 N 706.154 -5.2875 4.61918 0
M  V30 7425 H 710.994 -1.23349 2.71273 0
M  V30 7426 H 708.531 -0.598147 1.3439 0
M  V30 7427 H 710.489 -3.62666 2.06225 0
M  V30 7428 H 709.119 -3.04101 1.0827 0
M  V30 7429 H 708.171 -1.97127 3.25338 0
M  V30 7430 H 709.483 -2.76998 4.14818 0
M  V30 7431 H 708.637 -5.0106 3.42087 0
M  V30 7432 H 707.376 -4.23226 2.42345 0
M  V30 7433 H 706.381 -3.18897 4.47867 0
M  V30 7434 H 707.606 -3.99955 5.48828 0
M  V30 7435 H 705.552 -5.39547 3.73129 0
M  V30 7436 H 705.469 -5.23426 5.45492 0
M  V30 7437 H 706.737 -6.18637 4.74245 0
M  V30 7438 N 710.966 -1.44241 -0.634997 0
M  V30 7439 C 711.876 -1.53293 -1.77591 0
M  V30 7440 C 712.892 -0.418831 -1.68884 0
M  V30 7441 O 714.068 -0.675619 -1.8973 0
M  V30 7442 C 711.133 -1.47075 -3.13958 0
M  V30 7443 C 710.194 -2.69304 -3.34326 0
M  V30 7444 C 709.427 -2.63374 -4.64187 0
M  V30 7445 O 709.65 -1.69161 -5.44739 0
M  V30 7446 O 708.584 -3.54166 -4.86673 0
M  V30 7447 H 712.41 -2.49673 -1.72908 0
M  V30 7448 H 709.995 -1.26445 -0.795745 0
M  V30 7449 H 711.877 -1.46117 -3.95257 0
M  V30 7450 H 710.552 -0.538373 -3.19192 0
M  V30 7451 H 709.459 -2.75831 -2.52721 0
M  V30 7452 H 710.792 -3.61576 -3.33951 0
M  V30 7453 N 712.444 0.87505 -1.31075 0
M  V30 7454 C 713.693 1.62245 -1.19831 0
M  V30 7455 C 714.006 1.94078 0.24357 0
M  V30 7456 O 715.212 2.67265 0.477646 0
M  V30 7457 C 713.668 2.92464 -2.09744 0
M  V30 7458 C 713.276 2.68134 -3.58898 0
M  V30 7459 C 715.02 3.70449 -2.07287 0
M  V30 7460 C 712.927 3.9423 -4.40836 0
M  V30 7461 H 711.857 0.608741 -0.444916 0
M  V30 7462 H 714.508 0.967947 -1.55894 0
M  V30 7463 H 712.89 3.59262 -1.66574 0
M  V30 7464 H 714.064 2.09776 -4.10281 0
M  V30 7465 H 712.379 2.03511 -3.6328 0
M  V30 7466 H 714.976 4.63983 -2.65752 0
M  V30 7467 H 715.319 4.02611 -1.05876 0
M  V30 7468 H 715.852 3.10528 -2.48631 0
M  V30 7469 H 712.591 3.67221 -5.42982 0
M  V30 7470 H 712.111 4.52058 -3.94213 0
M  V30 7471 H 713.79 4.62162 -4.52786 0
M  V30 7472 N 713.922 1.13953 1.08869 0
M  V30 7473 C 715.333 0.916649 1.62648 0
M  V30 7474 C 715.684 -0.545589 1.88462 0
M  V30 7475 O 714.809 -1.41351 1.63856 0
M  V30 7476 C 715.404 1.65751 2.95486 0
M  V30 7477 C 713.963 1.48034 3.46068 0
M  V30 7478 C 713.11 1.68305 2.20383 0
M  V30 7479 H 716.061 1.292 0.921572 0
M  V30 7480 H 716.082 1.11794 3.63707 0
M  V30 7481 H 715.594 2.72171 2.76667 0
M  V30 7482 H 713.695 0.439416 3.7 0
M  V30 7483 H 713.808 2.24719 4.23129 0
M  V30 7484 H 712.172 1.10833 2.29321 0
M  V30 7485 H 712.955 2.76057 2.04077 0
M  V30 7486 N 715.4 -1.26948 0.933913 0
M  V30 7487 C 716.647 -1.94087 0.577625 0
M  V30 7488 C 716.975 -1.73345 -0.88214 0
M  V30 7489 O 716.23 -1.05945 -1.64542 0
M  V30 7490 C 716.529 -3.46963 0.857406 0
M  V30 7491 C 716.195 -3.87834 2.2999 0
M  V30 7492 C 714.857 -3.98704 2.69423 0
M  V30 7493 C 717.209 -4.08442 3.23766 0
M  V30 7494 C 714.537 -4.27573 4.01744 0
M  V30 7495 C 716.889 -4.38798 4.55675 0
M  V30 7496 C 715.553 -4.47881 4.94934 0
M  V30 7497 H 714.823 -0.710215 0.211368 0
M  V30 7498 H 717.47 -1.50899 1.17905 0
M  V30 7499 H 715.775 -3.91416 0.173369 0
M  V30 7500 H 717.472 -3.97062 0.560615 0
M  V30 7501 H 714.062 -3.79916 1.98399 0
M  V30 7502 H 718.246 -3.99479 2.94499 0
M  V30 7503 H 713.502 -4.32815 4.31834 0
M  V30 7504 H 717.676 -4.5369 5.28335 0
M  V30 7505 H 715.303 -4.70005 5.97495 0
M  V30 7506 N 716.879 -0.700114 -1.41195 0
M  V30 7507 C 718.104 -0.240704 -2.05998 0
M  V30 7508 C 718.529 1.10313 -1.52357 0
M  V30 7509 O 717.887 1.69154 -0.652424 0
M  V30 7510 C 717.935 -0.213783 -3.59966 0
M  V30 7511 O 717.039 0.809933 -4.04368 0
M  V30 7512 H 716.38 -0.116471 -0.653705 0
M  V30 7513 H 718.91 -0.956251 -1.80878 0
M  V30 7514 H 718.92 -0.0461852 -4.07974 0
M  V30 7515 H 717.595 -1.19454 -3.98376 0
M  V30 7516 H 716.172 0.611319 -3.67855 0
M  V30 7517 N 718.357 1.51182 -0.445186 0
M  V30 7518 C 719.582 2.07056 0.119445 0
M  V30 7519 C 720.007 1.30966 1.35016 0
M  V30 7520 O 719.365 0.349827 1.77893 0
M  V30 7521 C 719.413 3.58234 0.412428 0
M  V30 7522 O 718.517 3.84249 1.49754 0
M  V30 7523 H 717.858 0.663998 -0.00157797 0
M  V30 7524 H 720.388 1.94699 -0.628779 0
M  V30 7525 H 720.398 4.02617 0.660583 0
M  V30 7526 H 719.073 4.13038 -0.487049 0
M  V30 7527 H 717.65 3.51724 1.23873 0
M  V30 7528 N 719.835 0.176821 1.56605 0
M  V30 7529 C 720.745 -0.763682 2.21822 0
M  V30 7530 C 721.761 -1.24889 1.21156 0
M  V30 7531 O 722.937 -1.29987 1.53836 0
M  V30 7532 C 720.002 -1.97352 2.8505 0
M  V30 7533 C 719.063 -1.53466 4.00932 0
M  V30 7534 C 718.296 -2.68682 4.61135 0
M  V30 7535 O 718.519 -3.85694 4.20234 0
M  V30 7536 O 717.453 -2.42442 5.50913 0
M  V30 7537 H 721.279 -0.238363 3.02763 0
M  V30 7538 H 718.864 -0.0516331 1.49311 0
M  V30 7539 H 720.746 -2.68096 3.25119 0
M  V30 7540 H 719.421 -2.48779 2.07101 0
M  V30 7541 H 718.328 -0.796551 3.65521 0
M  V30 7542 H 719.661 -1.06724 4.8049 0
M  V30 7543 N 721.313 -1.57302 -0.09688 0
M  V30 7544 C 722.245 -1.98618 -1.14384 0
M  V30 7545 C 723.258 -0.888483 -1.36418 0
M  V30 7546 O 724.447 -1.16661 -1.35101 0
M  V30 7547 C 721.547 -2.28838 -2.49973 0
M  V30 7548 C 720.72 -3.60132 -2.48241 0
M  V30 7549 C 719.779 -3.7831 -3.65743 0
M  V30 7550 O 718.805 -4.50183 -3.48316 0
M  V30 7551 N 720.007 -3.18752 -4.85157 0
M  V30 7552 H 722.772 -2.8904 -0.792202 0
M  V30 7553 H 720.333 -1.59356 -0.285883 0
M  V30 7554 H 722.325 -2.38193 -3.27179 0
M  V30 7555 H 720.895 -1.44431 -2.77233 0
M  V30 7556 H 720.115 -3.61763 -1.56593 0
M  V30 7557 H 721.403 -4.46389 -2.4416 0
M  V30 7558 H 720.801 -2.60368 -5.0222 0
M  V30 7559 H 719.358 -3.33595 -5.59962 0
M  V30 7560 N 722.791 0.367657 -1.53252 0
M  V30 7561 C 723.738 1.45028 -1.79543 0
M  V30 7562 C 724.708 1.53288 -0.63969 0
M  V30 7563 O 725.893 1.69209 -0.881653 0
M  V30 7564 C 723.033 2.82 -1.98923 0
M  V30 7565 C 722.146 2.82722 -3.26638 0
M  V30 7566 C 721.281 4.11257 -3.36216 0
M  V30 7567 C 720.32 4.06113 -4.57972 0
M  V30 7568 N 719.457 5.26293 -4.64715 0
M  V30 7569 H 724.297 1.21908 -2.71923 0
M  V30 7570 H 721.834 0.591011 -1.34705 0
M  V30 7571 H 723.792 3.61568 -2.08146 0
M  V30 7572 H 722.422 3.03523 -1.09881 0
M  V30 7573 H 721.474 1.95399 -3.26379 0
M  V30 7574 H 722.786 2.74794 -4.16281 0
M  V30 7575 H 721.94 4.99239 -3.44739 0
M  V30 7576 H 720.679 4.21935 -2.44586 0
M  V30 7577 H 719.684 3.16517 -4.49552 0
M  V30 7578 H 720.909 3.97039 -5.50942 0
M  V30 7579 H 718.855 5.37561 -3.75985 0
M  V30 7580 H 718.772 5.20526 -5.4826 0
M  V30 7581 H 720.04 6.16113 -4.77519 0
M  V30 7582 N 724.269 1.44576 0.627338 0
M  V30 7583 C 725.515 1.4877 1.38705 0
M  V30 7584 C 725.87 0.119976 1.92026 0
M  V30 7585 O 725.163 -0.865341 1.70946 0
M  V30 7586 C 725.357 2.48644 2.56731 0
M  V30 7587 C 725.186 3.94994 2.14965 0
M  V30 7588 C 723.956 4.63139 2.02065 0
M  V30 7589 C 726.154 4.841 1.73643 0
M  V30 7590 N 724.136 5.94296 1.53902 0
M  V30 7591 C 725.507 6.0473 1.36753 0
M  V30 7592 C 727.562 4.71131 1.61058 0
M  V30 7593 C 726.265 7.13831 0.885353 0
M  V30 7594 C 728.291 5.8026 1.14244 0
M  V30 7595 C 727.653 7.00034 0.783067 0
M  V30 7596 H 723.752 0.599415 0.50222 0
M  V30 7597 H 726.336 1.80926 0.719285 0
M  V30 7598 H 724.507 2.18472 3.2113 0
M  V30 7599 H 726.239 2.4311 3.23542 0
M  V30 7600 H 722.994 4.18007 2.22637 0
M  V30 7601 H 723.418 6.63985 1.32108 0
M  V30 7602 H 728.06 3.78964 1.87473 0
M  V30 7603 H 725.778 8.05804 0.608716 0
M  V30 7604 H 729.364 5.72254 1.0496 0
M  V30 7605 H 728.244 7.8304 0.426381 0
M  V30 7606 N 725.747 -0.868086 1.31537 0
M  V30 7607 C 726.68 -1.97871 1.13676 0
M  V30 7608 C 727.658 -1.62551 0.0397589 0
M  V30 7609 O 728.842 -1.87473 0.196539 0
M  V30 7610 C 725.969 -3.30577 0.73734 0
M  V30 7611 C 725.015 -3.8488 1.83765 0
M  V30 7612 S 725.848 -4.10106 3.44345 0
M  V30 7613 C 727.004 -5.45806 3.06344 0
M  V30 7614 H 727.237 -2.12719 2.07697 0
M  V30 7615 H 724.77 -1.01849 1.16044 0
M  V30 7616 H 726.728 -4.07274 0.513641 0
M  V30 7617 H 725.389 -3.13562 -0.183787 0
M  V30 7618 H 724.582 -4.80821 1.51085 0
M  V30 7619 H 724.184 -3.14981 2.01651 0
M  V30 7620 H 726.476 -6.27535 2.55354 0
M  V30 7621 H 727.419 -5.83437 4.01257 0
M  V30 7622 H 727.827 -5.0917 2.43734 0
M  V30 7623 N 727.225 -1.14528 -1.08264 0
M  V30 7624 C 728.188 -0.83632 -2.13397 0
M  V30 7625 C 729.188 0.159715 -1.60005 0
M  V30 7626 O 730.378 -0.0688098 -1.74064 0
M  V30 7627 C 727.51 -0.246973 -3.40004 0
M  V30 7628 H 728.703 -1.76808 -2.42237 0
M  V30 7629 H 726.256 -0.951509 -1.24 0
M  V30 7630 H 726.991 0.693436 -3.168 0
M  V30 7631 H 726.776 -0.964412 -3.80055 0
M  V30 7632 H 728.266 -0.0480679 -4.17572 0
M  V30 7633 N 728.703 1.26451 -0.940633 0
M  V30 7634 C 729.949 1.94065 -0.58878 0
M  V30 7635 C 730.282 1.7363 0.869853 0
M  V30 7636 O 729.557 1.073 1.62225 0
M  V30 7637 C 729.84 3.47852 -0.931199 0
M  V30 7638 C 729.693 3.77575 -2.44453 0
M  V30 7639 C 731.012 4.37832 -0.446229 0
M  V30 7640 H 728.131 0.704827 -0.21538 0
M  V30 7641 H 730.773 1.4933 -1.17475 0
M  V30 7642 H 728.923 3.86085 -0.432539 0
M  V30 7643 H 730.595 3.49059 -3.01588 0
M  V30 7644 H 728.838 3.23671 -2.88825 0
M  V30 7645 H 729.509 4.85068 -2.63464 0
M  V30 7646 H 731.985 4.06822 -0.873778 0
M  V30 7647 H 730.861 5.44228 -0.714648 0
M  V30 7648 H 731.122 4.37239 0.653815 0
M  V30 7649 N 730.181 0.707592 1.40822 0
M  V30 7650 C 731.128 0.0499029 2.30746 0
M  V30 7651 C 732.098 -0.758718 1.47759 0
M  V30 7652 O 733.283 -0.724299 1.76518 0
M  V30 7653 C 730.423 -0.871756 3.33908 0
M  V30 7654 C 729.536 -0.0534655 4.31967 0
M  V30 7655 C 728.671 -0.973869 5.22197 0
M  V30 7656 C 727.71 -0.149194 6.11918 0
M  V30 7657 N 726.847 -1.02404 6.94592 0
M  V30 7658 H 731.687 0.822461 2.86426 0
M  V30 7659 H 729.224 0.417285 1.41057 0
M  V30 7660 H 731.182 -1.42028 3.9228 0
M  V30 7661 H 729.812 -1.61058 2.7975 0
M  V30 7662 H 728.864 0.612142 3.75442 0
M  V30 7663 H 730.176 0.585354 4.95353 0
M  V30 7664 H 729.33 -1.59121 5.85462 0
M  V30 7665 H 728.069 -1.64652 4.59065 0
M  V30 7666 H 727.074 0.481137 5.47691 0
M  V30 7667 H 728.299 0.519841 6.77107 0
M  V30 7668 H 726.245 -1.6825 6.34057 0
M  V30 7669 H 726.162 -0.441076 7.54712 0
M  V30 7670 H 727.43 -1.62782 7.62314 0
M  V30 7671 N 731.66 -1.50943 0.453197 0
M  V30 7672 C 732.9 -2.0412 -0.106894 0
M  V30 7673 C 733.264 -1.32895 -1.38575 0
M  V30 7674 O 734.465 -1.76529 -2.02709 0
M  V30 7675 C 732.736 -3.561 -0.304565 0
M  V30 7676 S 734.295 -4.3096 -0.825784 0
M  V30 7677 H 731.113 -0.710581 -0.0243969 0
M  V30 7678 H 733.715 -1.85534 0.616239 0
M  V30 7679 H 732.419 -4.055 0.632277 0
M  V30 7680 H 731.95 -3.79009 -1.05433 0
M  V30 7681 H 733.965 -4.49503 -2.10147 0
M  V30 7682 N 733.138 -0.185124 -1.56509 0
M  V30 7683 C 734.363 0.465278 -2.02114 0
M  V30 7684 C 734.788 1.55083 -1.06447 0
M  V30 7685 O 734.146 1.81241 -0.0462852 0
M  V30 7686 C 734.194 1.00784 -3.46229 0
M  V30 7687 O 733.298 2.12123 -3.53663 0
M  V30 7688 H 732.639 0.109891 -0.654843 0
M  V30 7689 H 735.169 -0.293072 -2.0249 0
M  V30 7690 H 735.179 1.32697 -3.85818 0
M  V30 7691 H 733.854 0.213113 -4.15354 0
M  V30 7692 H 732.431 1.8115 -3.25943 0
M  V30 7693 N 734.616 1.57351 0.0885366 0
M  V30 7694 C 735.546 2.05561 1.10757 0
M  V30 7695 C 736.527 0.945789 1.41382 0
M  V30 7696 O 737.712 1.21747 1.51299 0
M  V30 7697 C 734.842 2.48554 2.42566 0
M  V30 7698 C 733.796 3.63259 2.26334 0
M  V30 7699 C 733.122 3.9225 3.63378 0
M  V30 7700 C 734.422 4.93913 1.69844 0
M  V30 7701 H 736.116 2.90946 0.706468 0
M  V30 7702 H 733.662 1.39968 0.338385 0
M  V30 7703 H 735.615 2.8089 3.14132 0
M  V30 7704 H 734.339 1.60176 2.84625 0
M  V30 7705 H 732.998 3.31179 1.57213 0
M  V30 7706 H 732.646 3.0103 4.02976 0
M  V30 7707 H 732.346 4.69478 3.53362 0
M  V30 7708 H 733.87 4.27067 4.36401 0
M  V30 7709 H 735.284 5.24588 2.31258 0
M  V30 7710 H 733.681 5.75349 1.70569 0
M  V30 7711 H 734.751 4.80409 0.65843 0
M  V30 7712 N 736.094 -0.359525 1.53444 0
M  V30 7713 C 737.041 -1.44073 1.8031 0
M  V30 7714 C 738.011 -1.52946 0.647811 0
M  V30 7715 O 739.196 -1.68739 0.890614 0
M  V30 7716 C 736.336 -2.80941 2.00416 0
M  V30 7717 C 735.449 -2.80986 3.28132 0
M  V30 7718 C 734.584 -4.09468 3.38393 0
M  V30 7719 C 733.623 -4.03679 4.60119 0
M  V30 7720 N 732.76 -5.23821 4.675 0
M  V30 7721 H 737.6 -1.20464 2.72566 0
M  V30 7722 H 735.137 -0.583859 1.35017 0
M  V30 7723 H 737.095 -3.60459 2.1006 0
M  V30 7724 H 735.725 -3.02936 1.11489 0
M  V30 7725 H 734.777 -1.93666 3.27411 0
M  V30 7726 H 736.089 -2.72583 4.17732 0
M  V30 7727 H 735.243 -4.97404 3.47382 0
M  V30 7728 H 733.982 -4.20632 2.4682 0
M  V30 7729 H 732.987 -3.14129 4.51224 0
M  V30 7730 H 734.212 -3.94112 5.5304 0
M  V30 7731 H 732.158 -5.35559 3.7883 0
M  V30 7732 H 732.075 -5.17611 5.51013 0
M  V30 7733 H 733.343 -6.13572 4.8078 0
M  V30 7734 N 737.572 -1.44907 -0.619662 0
M  V30 7735 C 738.8 -1.51795 -1.40591 0
M  V30 7736 C 739.215 -0.146553 -1.8823 0
M  V30 7737 O 738.572 0.849698 -1.61513 0
M  V30 7738 C 738.623 -2.49229 -2.61853 0
M  V30 7739 O 738.344 -3.81039 -2.16197 0
M  V30 7740 C 739.845 -2.65696 -3.54853 0
M  V30 7741 H 737.065 -0.514463 -0.430777 0
M  V30 7742 H 739.609 -1.8998 -0.756813 0
M  V30 7743 H 737.764 -2.14149 -3.2283 0
M  V30 7744 H 738.178 -4.33747 -2.94896 0
M  V30 7745 H 739.652 -3.37874 -4.36515 0
M  V30 7746 H 740.129 -1.71316 -4.0441 0
M  V30 7747 H 740.735 -3.01724 -2.99737 0
M  V30 7748 N 739.05 0.861098 -1.31996 0
M  V30 7749 C 739.96 2.00154 -1.22374 0
M  V30 7750 C 740.976 1.73447 -0.138631 0
M  V30 7751 O 742.152 1.98191 -0.358104 0
M  V30 7752 C 739.217 3.33696 -0.940645 0
M  V30 7753 C 738.278 3.73668 -2.11355 0
M  V30 7754 C 737.511 5.00837 -1.84386 0
M  V30 7755 O 737.734 5.64996 -0.783287 0
M  V30 7756 O 736.668 5.37787 -2.70313 0
M  V30 7757 H 740.494 2.11207 -2.18233 0
M  V30 7758 H 738.079 0.990768 -1.11822 0
M  V30 7759 H 739.961 4.13756 -0.798987 0
M  V30 7760 H 738.636 3.23698 -0.0121636 0
M  V30 7761 H 737.543 2.94211 -2.31065 0
M  V30 7762 H 738.876 3.88303 -3.02459 0
M  V30 7763 N 740.528 1.15101 1.07655 0
M  V30 7764 C 741.805 0.834578 1.76902 0
M  V30 7765 C 742.185 -0.670431 2.00171 0
M  V30 7766 O 741.533 -1.61378 1.6177 0
M  V30 7767 C 741.743 1.64191 3.07965 0
M  V30 7768 C 743.091 1.84615 3.82364 0
M  V30 7769 O 744.115 1.60941 3.17768 0
M  V30 7770 O 742.974 2.24244 4.98374 0
M  V30 7771 H 740.068 0.306608 0.768063 0
M  V30 7772 H 742.614 1.25663 1.14048 0
M  V30 7773 H 741.386 2.66386 2.86626 0
M  V30 7774 H 741.009 1.216 3.78549 0
M  V30 7775 N 742.006 -1.2595 0.947325 0
M  V30 7776 C 742.938 -2.25336 0.41906 0
M  V30 7777 C 743.951 -1.56135 -0.461051 0
M  V30 7778 O 745.14 -1.76438 -0.270505 0
M  V30 7779 C 742.24 -3.36334 -0.416233 0
M  V30 7780 C 741.413 -4.35088 0.449162 0
M  V30 7781 C 740.472 -5.25185 -0.326716 0
M  V30 7782 O 739.498 -5.68548 0.272374 0
M  V30 7783 N 740.7 -5.57388 -1.6217 0
M  V30 7784 H 743.465 -2.71298 1.27348 0
M  V30 7785 H 741.026 -1.39781 0.81688 0
M  V30 7786 H 743.018 -3.93564 -0.942826 0
M  V30 7787 H 741.588 -2.89819 -1.17148 0
M  V30 7788 H 740.808 -3.76841 1.15692 0
M  V30 7789 H 742.096 -4.98056 1.04008 0
M  V30 7790 H 741.494 -5.2405 -2.13046 0
M  V30 7791 H 740.051 -6.17234 -2.0944 0
M  V30 7792 N 743.484 -0.715051 -1.40445 0
M  V30 7793 C 744.394 -0.0631624 -2.34515 0
M  V30 7794 C 745.41 0.744397 -1.57273 0
M  V30 7795 O 746.586 0.677475 -1.89663 0
M  V30 7796 C 743.651 0.847915 -3.36172 0
M  V30 7797 C 742.712 0.0303655 -4.29289 0
M  V30 7798 C 741.945 0.898051 -5.2609 0
M  V30 7799 O 742.168 2.13729 -5.28844 0
M  V30 7800 O 741.102 0.337328 -6.00954 0
M  V30 7801 H 744.928 -0.839078 -2.91879 0
M  V30 7802 H 742.513 -0.475527 -1.4163 0
M  V30 7803 H 744.395 1.3698 -3.98515 0
M  V30 7804 H 743.07 1.60299 -2.81222 0
M  V30 7805 H 741.977 -0.536573 -3.70232 0
M  V30 7806 H 743.31 -0.686474 -4.87389 0
M  V30 7807 N 744.962 1.50701 -0.461195 0
M  V30 7808 C 746.239 1.94958 0.158296 0
M  V30 7809 C 746.619 1.40111 1.57899 0
M  V30 7810 O 745.967 0.597976 2.20537 0
M  V30 7811 C 746.177 3.48821 0.11172 0
M  V30 7812 C 747.525 4.23499 0.30552 0
M  V30 7813 O 748.549 3.557 0.188758 0
M  V30 7814 O 747.408 5.43823 0.540244 0
M  V30 7815 H 744.502 0.818674 0.117054 0
M  V30 7816 H 747.048 1.61508 -0.520888 0
M  V30 7817 H 745.82 3.81263 -0.880577 0
M  V30 7818 H 745.443 3.88781 0.832791 0
M  V30 7819 N 746.441 0.193421 1.56409 0
M  V30 7820 C 747.69 -0.445995 1.96707 0
M  V30 7821 C 748.003 -1.62876 1.08309 0
M  V30 7822 O 749.209 -2.33586 1.38383 0
M  V30 7823 C 747.665 -0.844863 3.49843 0
M  V30 7824 C 747.273 0.31352 4.46902 0
M  V30 7825 C 749.017 -1.45146 3.98915 0
M  V30 7826 C 746.924 -0.106214 5.91305 0
M  V30 7827 H 745.854 -0.170398 0.734493 0
M  V30 7828 H 748.505 0.285172 1.81271 0
M  V30 7829 H 746.887 -1.63265 3.60778 0
M  V30 7830 H 748.061 1.09103 4.47698 0
M  V30 7831 H 746.376 0.8315 4.08014 0
M  V30 7832 H 748.973 -1.77792 5.04276 0
M  V30 7833 H 749.316 -2.35734 3.43126 0
M  V30 7834 H 749.849 -0.727675 3.91088 0
M  V30 7835 H 746.588 0.765442 6.51016 0
M  V30 7836 H 746.108 -0.848623 5.93766 0
M  V30 7837 H 747.787 -0.542588 6.44721 0
M  V30 7838 N 747.919 -1.57396 -0.0801906 0
M  V30 7839 C 749.149 -1.90778 -0.792924 0
M  V30 7840 C 749.557 -0.786814 -1.72064 0
M  V30 7841 O 748.9 0.249259 -1.82001 0
M  V30 7842 C 748.962 -3.19552 -1.64702 0
M  V30 7843 C 748.626 -4.48259 -0.889567 0
M  V30 7844 C 749.623 -5.19465 -0.212602 0
M  V30 7845 C 747.308 -4.94896 -0.859229 0
M  V30 7846 C 749.302 -6.35555 0.484566 0
M  V30 7847 C 746.989 -6.10895 -0.158284 0
M  V30 7848 C 747.987 -6.81075 0.512421 0
M  V30 7849 O 747.675 -7.94862 1.20209 0
M  V30 7850 H 747.407 -0.63527 -0.231103 0
M  V30 7851 H 749.961 -2.0532 -0.0573081 0
M  V30 7852 H 748.191 -3.01196 -2.42524 0
M  V30 7853 H 749.88 -3.38649 -2.23767 0
M  V30 7854 H 750.646 -4.84467 -0.227403 0
M  V30 7855 H 746.525 -4.4015 -1.37073 0
M  V30 7856 H 750.069 -6.9027 1.00864 0
M  V30 7857 H 745.966 -6.45345 -0.141381 0
M  V30 7858 H 746.734 -8.10932 1.11051 0
M  V30 7859 N 749.397 0.351382 -1.53633 0
M  V30 7860 C 750.644 1.0925 -1.70502 0
M  V30 7861 C 750.972 1.88881 -0.464123 0
M  V30 7862 O 750.227 1.87693 0.554077 0
M  V30 7863 C 750.526 2.06744 -2.91533 0
M  V30 7864 C 750.192 1.43484 -4.27461 0
M  V30 7865 C 748.854 1.2596 -4.64422 0
M  V30 7866 C 751.206 0.978436 -5.11934 0
M  V30 7867 C 748.534 0.614017 -5.83478 0
M  V30 7868 C 750.886 0.346795 -6.31649 0
M  V30 7869 C 749.55 0.15917 -6.6731 0
M  V30 7870 H 748.82 0.399773 -0.623909 0
M  V30 7871 H 751.467 0.372656 -1.87839 0
M  V30 7872 H 749.772 2.85082 -2.68767 0
M  V30 7873 H 751.469 2.64066 -3.01778 0
M  V30 7874 H 748.059 1.5812 -3.98367 0
M  V30 7875 H 752.243 1.1017 -4.83918 0
M  V30 7876 H 747.499 0.457194 -6.09688 0
M  V30 7877 H 751.673 -0.0149864 -6.96398 0
M  V30 7878 H 749.3 -0.343129 -7.59425 0
M  V30 7879 N 750.875 1.45233 0.611969 0
M  V30 7880 C 751.808 1.48056 1.73651 0
M  V30 7881 C 752.786 0.337373 1.59061 0
M  V30 7882 O 753.97 0.537222 1.80683 0
M  V30 7883 C 751.097 1.33144 3.11433 0
M  V30 7884 C 750.143 2.51272 3.44623 0
M  V30 7885 S 750.976 4.13754 3.39953 0
M  V30 7886 C 752.132 4.013 4.80322 0
M  V30 7887 H 752.365 2.43205 1.70993 0
M  V30 7888 H 749.898 1.32763 0.788246 0
M  V30 7889 H 751.856 1.25228 3.90932 0
M  V30 7890 H 750.517 0.394734 3.1161 0
M  V30 7891 H 749.71 2.36753 4.44932 0
M  V30 7892 H 749.312 2.56027 2.72629 0
M  V30 7893 H 751.604 3.66174 5.7002 0
M  V30 7894 H 752.547 5.01506 4.99897 0
M  V30 7895 H 752.955 3.3303 4.55797 0
M  V30 7896 N 752.353 -0.854086 1.3245 0
M  V30 7897 C 753.3 -1.96271 1.21434 0
M  V30 7898 C 754.27 -1.6582 0.0963851 0
M  V30 7899 O 755.455 -1.88851 0.27203 0
M  V30 7900 C 752.595 -3.31939 0.943952 0
M  V30 7901 C 751.708 -3.74885 2.14675 0
M  V30 7902 C 750.843 -4.99347 1.81179 0
M  V30 7903 C 749.882 -5.34785 2.97777 0
M  V30 7904 N 749.019 -6.50425 2.6437 0
M  V30 7905 H 753.859 -2.05025 2.16261 0
M  V30 7906 H 751.396 -1.00348 1.07558 0
M  V30 7907 H 753.354 -4.10076 0.767675 0
M  V30 7908 H 751.984 -3.22784 0.0324763 0
M  V30 7909 H 751.036 -2.92396 2.43328 0
M  V30 7910 H 752.348 -3.97068 3.01891 0
M  V30 7911 H 751.502 -5.85193 1.60107 0
M  V30 7912 H 750.241 -4.79101 0.911777 0
M  V30 7913 H 749.246 -4.47451 3.1948 0
M  V30 7914 H 750.471 -5.56988 3.88511 0
M  V30 7915 H 748.417 -6.31695 1.7691 0
M  V30 7916 H 748.334 -6.7263 3.45116 0
M  V30 7917 H 749.602 -7.39422 2.46729 0
M  V30 7918 N 753.831 -1.1567 -1.07043 0
M  V30 7919 C 755.079 -0.931673 -1.79344 0
M  V30 7920 C 755.4 0.542421 -1.87304 0
M  V30 7921 O 754.67 1.39418 -1.37621 0
M  V30 7922 H 753.25 -0.34171 -0.664262 0
M  V30 7923 H 755.912 -1.45795 -1.29344 0
M  V30 7924 H 755.008 -1.34379 -2.81689 0
M  V30 7925 N 755.309 1.25446 -0.953992 0
M  V30 7926 C 756.272 2.24156 -0.478179 0
M  V30 7927 C 757.272 1.55278 0.417776 0
M  V30 7928 O 758.462 1.72866 0.215155 0
M  V30 7929 C 755.594 3.39495 0.309202 0
M  V30 7930 H 756.787 2.67764 -1.35064 0
M  V30 7931 H 754.34 1.37822 -0.737206 0
M  V30 7932 H 755.075 3.01307 1.19936 0
M  V30 7933 H 754.86 3.90679 -0.333562 0
M  V30 7934 H 756.35 4.12796 0.631594 0
M  V30 7935 N 756.787 0.722489 1.40064 0
M  V30 7936 C 757.717 0.0892452 2.33329 0
M  V30 7937 C 758.698 -0.737992 1.53257 0
M  V30 7938 O 759.883 -0.685516 1.81698 0
M  V30 7939 C 757.013 -0.828139 3.37282 0
M  V30 7940 C 755.967 -0.106005 4.27869 0
M  V30 7941 C 755.293 -1.13957 5.22415 0
M  V30 7942 C 756.593 1.04395 5.11761 0
M  V30 7943 H 758.287 0.868269 2.86534 0
M  V30 7944 H 755.833 0.418982 1.3777 0
M  V30 7945 H 757.786 -1.28058 4.01471 0
M  V30 7946 H 756.51 -1.63914 2.82489 0
M  V30 7947 H 755.169 0.326683 3.65142 0
M  V30 7948 H 754.817 -1.9438 4.63924 0
M  V30 7949 H 754.517 -0.661233 5.83868 0
M  V30 7950 H 756.041 -1.59197 5.89482 0
M  V30 7951 H 757.455 0.670541 5.69365 0
M  V30 7952 H 755.852 1.4511 5.82291 0
M  V30 7953 H 756.922 1.87144 4.47331 0
M  V30 7954 N 758.265 -1.50454 0.469181 0
M  V30 7955 C 759.175 -2.32248 -0.331349 0
M  V30 7956 C 760.191 -1.42548 -0.997807 0
M  V30 7957 O 761.367 -1.75602 -0.9862 0
M  V30 7958 C 758.432 -3.17171 -1.40012 0
M  V30 7959 C 757.493 -4.2269 -0.750463 0
M  V30 7960 C 756.726 -5.03554 -1.76831 0
M  V30 7961 O 756.949 -4.85469 -2.99459 0
M  V30 7962 O 755.883 -5.86767 -1.3412 0
M  V30 7963 H 759.709 -3.01821 0.337279 0
M  V30 7964 H 757.294 -1.47602 0.231066 0
M  V30 7965 H 759.176 -3.69871 -2.01924 0
M  V30 7966 H 757.851 -2.50328 -2.05226 0
M  V30 7967 H 756.758 -3.73986 -0.0924446 0
M  V30 7968 H 758.091 -4.91997 -0.14131 0
M  V30 7969 N 759.743 -0.201713 -1.56304 0
M  V30 7970 C 760.653 0.728296 -2.23009 0
M  V30 7971 C 761.669 1.22945 -1.23128 0
M  V30 7972 O 762.845 1.27523 -1.55884 0
M  V30 7973 C 759.91 1.92792 -2.88153 0
M  V30 7974 C 758.971 1.47068 -4.03323 0
M  V30 7975 C 758.204 2.61312 -4.65351 0
M  V30 7976 O 758.427 3.7896 -4.26317 0
M  V30 7977 O 757.361 2.33646 -5.54701 0
M  V30 7978 H 761.187 0.190166 -3.03104 0
M  V30 7979 H 758.772 0.0278725 -1.49374 0
M  V30 7980 H 760.654 2.6289 -3.29343 0
M  V30 7981 H 759.329 2.45452 -2.11033 0
M  V30 7982 H 758.236 0.738299 -3.66742 0
M  V30 7983 H 759.569 0.990666 -4.82127 0
M  V30 7984 N 761.222 1.57436 0.0718424 0
M  V30 7985 C 762.468 1.87525 0.772149 0
M  V30 7986 C 762.801 0.79399 1.77227 0
M  V30 7987 O 762.076 -0.195733 1.93513 0
M  V30 7988 C 762.359 3.28272 1.48018 0
M  V30 7989 C 762.212 4.47052 0.49647 0
M  V30 7990 C 763.531 3.67256 2.42509 0
M  V30 7991 H 760.65 0.682049 0.279245 0
M  V30 7992 H 763.292 1.89967 0.03534 0
M  V30 7993 H 761.442 3.26321 2.10824 0
M  V30 7994 H 763.114 4.61127 -0.126375 0
M  V30 7995 H 761.357 4.33392 -0.188205 0
M  V30 7996 H 762.028 5.42315 1.02949 0
M  V30 7997 H 764.504 3.70301 1.89781 0
M  V30 7998 H 763.38 4.66626 2.89053 0
M  V30 7999 H 763.641 2.97186 3.27312 0
M  V30 8000 N 762.7 -0.34323 1.53817 0
M  V30 8001 C 763.949 -1.08086 1.70295 0
M  V30 8002 C 764.262 -1.89794 0.47302 0
M  V30 8003 O 765.468 -2.66498 0.518754 0
M  V30 8004 C 763.924 -1.97097 3.01133 0
M  V30 8005 C 763.532 -1.20594 4.31464 0
M  V30 8006 C 765.276 -2.70715 3.26976 0
M  V30 8007 C 763.183 -2.08636 5.53376 0
M  V30 8008 H 762.113 -0.407228 0.634572 0
M  V30 8009 H 764.764 -0.340328 1.80316 0
M  V30 8010 H 763.146 -2.74971 2.84969 0
M  V30 8011 H 764.32 -0.476282 4.58332 0
M  V30 8012 H 762.635 -0.587426 4.12236 0
M  V30 8013 H 765.232 -3.36857 4.15248 0
M  V30 8014 H 765.575 -3.37299 2.43998 0
M  V30 8015 H 766.108 -1.99914 3.43917 0
M  V30 8016 H 762.847 -1.46594 6.38898 0
M  V30 8017 H 762.367 -2.7939 5.30755 0
M  V30 8018 H 764.046 -2.67682 5.89029 0
M  V30 8019 N 764.178 -1.45556 -0.604258 0
M  V30 8020 C 765.594 -1.30035 -0.925368 0
M  V30 8021 C 765.794 -0.255833 -1.99869 0
M  V30 8022 O 764.85 0.349076 -2.50075 0
M  V30 8023 C 766.163 -2.68028 -1.36314 0
M  V30 8024 C 767.711 -2.75951 -1.47717 0
M  V30 8025 C 768.186 -4.14476 -1.94868 0
M  V30 8026 N 769.677 -4.16787 -2.02097 0
M  V30 8027 C 770.412 -5.20845 -2.39809 0
M  V30 8028 N 769.908 -6.35246 -2.76467 0
M  V30 8029 N 771.701 -5.08204 -2.40177 0
M  V30 8030 H 763.852 -2.1214 0.10512 0
M  V30 8031 H 766.115 -0.947871 -0.0156303 0
M  V30 8032 H 765.821 -3.45667 -0.648628 0
M  V30 8033 H 765.695 -2.96711 -2.329 0
M  V30 8034 H 768.082 -1.98613 -2.18258 0
M  V30 8035 H 768.163 -2.50977 -0.494371 0
M  V30 8036 H 767.807 -4.923 -1.24912 0
M  V30 8037 H 767.737 -4.36843 -2.94068 0
M  V30 8038 H 770.228 -3.34233 -1.76343 0
M  V30 8039 H 770.541 -7.10438 -3.04134 0
M  V30 8040 H 768.886 -6.38642 -2.74155 0
M  V30 8041 H 772.077 -4.17874 -2.10947 0
M  V30 8042 H 772.25 -5.89417 -2.69242 0
M  V30 8043 N 765.656 0.84705 -1.32902 0
M  V30 8044 C 766.886 1.63166 -1.26729 0
M  V30 8045 C 767.294 1.88474 0.165595 0
M  V30 8046 O 766.637 1.45947 1.11558 0
M  V30 8047 C 766.699 3.0103 -1.96522 0
M  V30 8048 C 766.363 2.9873 -3.45846 0
M  V30 8049 C 767.36 2.75032 -4.41196 0
M  V30 8050 C 765.045 3.19125 -3.87898 0
M  V30 8051 C 767.039 2.71743 -5.76571 0
M  V30 8052 C 764.726 3.15462 -5.2338 0
M  V30 8053 C 765.724 2.91801 -6.17528 0
M  V30 8054 O 765.412 2.88027 -7.5053 0
M  V30 8055 H 765.144 0.51469 -0.438258 0
M  V30 8056 H 767.698 1.06383 -1.75704 0
M  V30 8057 H 765.928 3.59634 -1.42128 0
M  V30 8058 H 767.617 3.61821 -1.83958 0
M  V30 8059 H 768.383 2.59034 -4.10032 0
M  V30 8060 H 764.262 3.36565 -3.15032 0
M  V30 8061 H 767.806 2.53194 -6.5003 0
M  V30 8062 H 763.703 3.31006 -5.54171 0
M  V30 8063 H 764.471 3.03927 -7.59981 0
M  V30 8064 N 767.134 1.16236 1.06428 0
M  V30 8065 C 768.374 0.95369 1.80787 0
M  V30 8066 C 768.738 -0.509495 1.85117 0
M  V30 8067 O 769.939 -0.836822 2.55442 0
M  V30 8068 C 768.21 1.56235 3.21443 0
M  V30 8069 S 769.769 1.49812 4.12434 0
M  V30 8070 H 766.587 0.343004 0.622792 0
M  V30 8071 H 769.189 1.47957 1.27785 0
M  V30 8072 H 767.893 2.62 3.15886 0
M  V30 8073 H 767.424 1.03574 3.79521 0
M  V30 8074 H 769.439 0.49745 4.937 0
M  V30 8075 N 768.612 -1.24939 0.960631 0
M  V30 8076 C 769.84 -1.96881 0.636045 0
M  V30 8077 C 770.255 -1.71334 -0.793093 0
M  V30 8078 O 769.612 -0.992917 -1.53125 0
M  V30 8079 C 769.663 -3.50309 0.892533 0
M  V30 8080 O 769.384 -3.74977 2.26548 0
M  V30 8081 C 770.885 -4.39474 0.581159 0
M  V30 8082 H 768.105 -0.627399 0.237931 0
M  V30 8083 H 770.649 -1.58952 1.28664 0
M  V30 8084 H 768.804 -3.86326 0.288257 0
M  V30 8085 H 769.218 -4.69401 2.34014 0
M  V30 8086 H 770.692 -5.46008 0.811125 0
M  V30 8087 H 771.169 -4.3652 -0.48443 0
M  V30 8088 H 771.775 -4.09032 1.16502 0
M  V30 8089 N 770.09 -0.729906 -1.39679 0
M  V30 8090 C 771.023 -0.0354454 -2.28172 0
M  V30 8091 C 772.001 0.752968 -1.44115 0
M  V30 8092 O 773.185 0.736599 -1.73512 0
M  V30 8093 C 770.312 0.957047 -3.24897 0
M  V30 8094 C 769.358 0.257734 -4.25721 0
M  V30 8095 S 770.191 -1.02466 -5.25605 0
M  V30 8096 C 771.347 -0.0346322 -6.2589 0
M  V30 8097 H 771.58 -0.785922 -2.86724 0
M  V30 8098 H 769.113 -0.521497 -1.45326 0
M  V30 8099 H 771.071 1.52441 -3.81146 0
M  V30 8100 H 769.732 1.68033 -2.65375 0
M  V30 8101 H 768.925 1.00854 -4.93806 0
M  V30 8102 H 768.527 -0.237454 -3.73245 0
M  V30 8103 H 770.819 0.807464 -6.72671 0
M  V30 8104 H 771.762 -0.682491 -7.04803 0
M  V30 8105 H 772.17 0.335492 -5.63502 0
M  V30 8106 N 771.568 1.50203 -0.477153 0
M  V30 8107 C 772.798 2.0647 0.0731427 0
M  V30 8108 C 773.206 1.3405 1.33518 0
M  V30 8109 O 772.549 0.405164 1.79176 0
M  V30 8110 C 772.611 3.57025 0.421121 0
M  V30 8111 C 772.275 4.50973 -0.739765 0
M  V30 8112 C 773.272 4.939 -1.62353 0
M  V30 8113 C 770.957 4.93581 -0.93181 0
M  V30 8114 C 772.951 5.78149 -2.6837 0
M  V30 8115 C 770.638 5.77612 -1.99519 0
M  V30 8116 C 771.636 6.19798 -2.86949 0
M  V30 8117 O 771.324 7.02152 -3.91456 0
M  V30 8118 H 771.056 0.675969 -0.00648243 0
M  V30 8119 H 773.61 1.94278 -0.66673 0
M  V30 8120 H 771.84 3.67141 1.21426 0
M  V30 8121 H 773.529 3.95632 0.907213 0
M  V30 8122 H 774.295 4.61646 -1.48687 0
M  V30 8123 H 770.174 4.60262 -0.260739 0
M  V30 8124 H 773.718 6.10997 -3.36643 0
M  V30 8125 H 769.615 6.09279 -2.13189 0
M  V30 8126 H 770.383 7.20414 -3.88518 0
M  V30 8127 N 773.046 0.209999 1.56195 0
M  V30 8128 C 773.994 -0.721416 2.2113 0
M  V30 8129 C 774.988 -1.20852 1.18706 0
M  V30 8130 O 776.194 -1.16968 1.36815 0
M  V30 8131 H 772.569 -0.251033 0.708863 0
M  V30 8132 H 774.54 -0.150193 2.98022 0
M  V30 8133 C 773.289 -1.92392 2.89621 0
M  V30 8134 H 772.612 -1.5582 3.68185 0
M  V30 8135 H 774.052 -2.55367 3.38473 0
M  V30 8136 C 772.511 -2.77208 1.91461 0
M  V30 8137 O 773.041 -3.75603 1.42426 0
M  V30 8138 N 771.247 -2.43006 1.59363 0
M  V30 8139 H 770.794 -1.63047 1.99433 0
M  V30 8140 H 770.752 -3.00036 0.939449 0
M  V30 8141 N 774.524 -1.57472 -0.0634922 0
M  V30 8142 C 775.472 -2.05307 -1.09323 0
M  V30 8143 C 776.466 -0.959995 -1.39572 0
M  V30 8144 O 777.672 -1.14507 -1.38882 0
M  V30 8145 H 774.047 -0.65472 -0.369927 0
M  V30 8146 H 776.018 -2.90925 -0.663707 0
M  V30 8147 C 774.767 -2.51954 -2.39613 0
M  V30 8148 H 774.09 -3.35662 -2.1719 0
M  V30 8149 H 775.53 -2.89169 -3.10092 0
M  V30 8150 C 773.989 -1.40596 -3.06161 0
M  V30 8151 O 774.519 -0.752722 -3.94585 0
M  V30 8152 N 772.725 -1.14902 -2.66919 0
M  V30 8153 H 772.272 -1.68205 -1.95102 0
M  V30 8154 H 772.23 -0.406006 -3.11767 0
M  V30 8155 N 776.003 0.335068 -1.53997 0
M  V30 8156 C 777.251 1.07223 -1.71312 0
M  V30 8157 C 777.572 1.88911 -0.483486 0
M  V30 8158 O 776.842 1.89344 0.50257 0
M  V30 8159 H 775.422 0.398846 -0.63161 0
M  V30 8160 H 778.084 0.374288 -1.91272 0
M  V30 8161 H 777.18 1.7448 -2.58772 0
M  V30 8162 N 777.481 1.45874 0.596531 0
M  V30 8163 C 778.729 1.5017 1.35253 0
M  V30 8164 C 779.05 0.149246 1.94428 0
M  V30 8165 O 778.32 -0.82268 1.77789 0
M  V30 8166 H 776.9 0.553052 0.502138 0
M  V30 8167 H 779.562 1.81908 0.699671 0
M  V30 8168 H 778.658 2.24671 2.16632 0
M  V30 8169 N 778.959 -0.83999 1.33349 0
M  V30 8170 C 780.208 -1.59011 1.2409 0
M  V30 8171 C 780.521 -1.94655 -0.192029 0
M  V30 8172 O 781.727 -2.68438 -0.406617 0
M  V30 8173 C 780.183 -2.86801 2.17425 0
M  V30 8174 C 779.791 -2.58525 3.65881 0
M  V30 8175 C 781.535 -3.64823 2.17036 0
M  V30 8176 C 779.442 -3.82404 4.51133 0
M  V30 8177 H 778.372 -0.596731 0.460899 0
M  V30 8178 H 781.023 -0.926274 1.58406 0
M  V30 8179 H 779.405 -3.54719 1.7604 0
M  V30 8180 H 780.579 -1.98824 4.15699 0
M  V30 8181 H 778.894 -1.93808 3.68548 0
M  V30 8182 H 781.491 -4.56774 2.7796 0
M  V30 8183 H 781.834 -3.99663 1.16513 0
M  V30 8184 H 782.367 -3.03826 2.56777 0
M  V30 8185 H 779.106 -3.52696 5.52527 0
M  V30 8186 H 778.626 -4.41447 4.0606 0
M  V30 8187 H 780.305 -4.49995 4.6488 0
M  V30 8188 N 780.437 -1.16799 -1.0581 0
M  V30 8189 C 781.848 -0.95945 -1.60161 0
M  V30 8190 C 782.199 0.49543 -1.89842 0
M  V30 8191 O 781.324 1.36957 -1.67546 0
M  V30 8192 C 781.919 -1.73527 -2.90987 0
M  V30 8193 C 780.478 -1.57158 -3.42021 0
M  V30 8194 C 779.625 -1.74089 -2.15843 0
M  V30 8195 H 782.576 -1.31598 -0.886992 0
M  V30 8196 H 782.597 -1.21397 -3.60615 0
M  V30 8197 H 782.109 -2.79411 -2.69353 0
M  V30 8198 H 780.21 -0.537361 -3.68705 0
M  V30 8199 H 780.323 -2.35858 -4.17022 0
M  V30 8200 H 778.687 -1.16874 -2.26302 0
M  V30 8201 H 779.47 -2.81371 -1.96686 0
M  V30 8202 N 781.915 1.24427 -0.967243 0
M  V30 8203 C 782.845 2.2773 -0.515899 0
M  V30 8204 C 783.826 1.64197 0.444227 0
M  V30 8205 O 785.011 1.91193 0.340451 0
M  V30 8206 C 782.141 3.46751 0.195149 0
M  V30 8207 C 781.095 4.22548 -0.680953 0
M  V30 8208 C 780.421 5.34456 0.161561 0
M  V30 8209 C 781.721 4.83914 -1.96532 0
M  V30 8210 H 783.415 2.65735 -1.37933 0
M  V30 8211 H 780.961 1.27742 -0.664681 0
M  V30 8212 H 782.914 4.18153 0.522117 0
M  V30 8213 H 781.638 3.07771 1.09292 0
M  V30 8214 H 780.297 3.52946 -0.991186 0
M  V30 8215 H 779.945 4.91716 1.05947 0
M  V30 8216 H 779.645 5.86087 -0.421418 0
M  V30 8217 H 781.169 6.08685 0.483211 0
M  V30 8218 H 782.583 5.47392 -1.70396 0
M  V30 8219 H 780.98 5.45775 -2.49499 0
M  V30 8220 H 782.05 4.05393 -2.66053 0
M  V30 8221 N 783.393 0.737304 1.3929 0
M  V30 8222 C 784.804 0.355966 1.83275 0
M  V30 8223 C 785.155 -1.11295 1.6158 0
M  V30 8224 O 784.28 -1.85871 1.10819 0
M  V30 8225 C 784.875 0.63931 3.32713 0
M  V30 8226 C 783.434 0.31144 3.75109 0
M  V30 8227 C 782.581 0.900765 2.62262 0
M  V30 8228 H 785.532 0.934763 1.28249 0
M  V30 8229 H 785.553 -0.0881293 3.80398 0
M  V30 8230 H 785.065 1.70847 3.48472 0
M  V30 8231 H 783.166 -0.751791 3.64937 0
M  V30 8232 H 783.279 0.795611 4.72448 0
M  V30 8233 H 781.643 0.327239 2.52589 0
M  V30 8234 H 782.426 1.97463 2.80826 0
M  V30 8235 N 784.871 -1.49948 0.485112 0
M  V30 8236 C 785.801 -2.31675 -0.291364 0
M  V30 8237 C 786.782 -1.39216 -0.977383 0
M  V30 8238 O 787.967 -1.68133 -0.971855 0
M  V30 8239 C 785.097 -3.19326 -1.36558 0
M  V30 8240 C 784.051 -4.2045 -0.800359 0
M  V30 8241 C 783.377 -4.96931 -1.97391 0
M  V30 8242 C 784.677 -5.21925 0.197867 0
M  V30 8243 H 786.371 -2.96839 0.390775 0
M  V30 8244 H 783.917 -1.42749 0.189375 0
M  V30 8245 H 785.87 -3.75304 -1.91638 0
M  V30 8246 H 784.594 -2.52074 -2.07668 0
M  V30 8247 H 783.253 -3.65594 -0.271428 0
M  V30 8248 H 782.901 -4.26141 -2.67232 0
M  V30 8249 H 782.601 -5.65344 -1.60187 0
M  V30 8250 H 784.125 -5.55749 -2.52935 0
M  V30 8251 H 785.539 -5.72691 -0.264239 0
M  V30 8252 H 783.936 -5.98138 0.484908 0
M  V30 8253 H 785.006 -4.71809 1.11912 0
M  V30 8254 N 786.349 -0.21828 -1.56081 0
M  V30 8255 C 787.577 0.419258 -2.02608 0
M  V30 8256 C 787.992 1.53578 -1.09814 0
M  V30 8257 O 787.349 1.82185 -0.107149 0
M  V30 8258 C 787.4 0.953955 -3.48686 0
M  V30 8259 O 787.121 -0.11805 -4.37941 0
M  V30 8260 C 788.622 1.66506 -4.10841 0
M  V30 8261 H 785.842 0.10296 -0.663054 0
M  V30 8262 H 788.386 -0.333776 -2.01758 0
M  V30 8263 H 786.541 1.65727 -3.50162 0
M  V30 8264 H 786.955 0.283359 -5.23734 0
M  V30 8265 H 788.429 1.99123 -5.14834 0
M  V30 8266 H 788.906 2.57705 -3.55647 0
M  V30 8267 H 789.512 1.00703 -4.13206 0
M  V30 8268 N 787.827 1.57504 0.0551401 0
M  V30 8269 C 789.238 1.76626 0.604979 0
M  V30 8270 C 789.589 0.845978 1.77024 0
M  V30 8271 O 788.714 0.0341936 2.16373 0
M  V30 8272 C 789.309 3.203 1.10425 0
M  V30 8273 C 787.868 3.4071 1.59981 0
M  V30 8274 C 787.015 2.72258 0.526414 0
M  V30 8275 H 789.966 1.57775 -0.171072 0
M  V30 8276 H 789.987 3.25377 1.97256 0
M  V30 8277 H 789.499 3.87255 0.255939 0
M  V30 8278 H 787.6 2.78892 2.47083 0
M  V30 8279 H 787.713 4.49227 1.66528 0
M  V30 8280 H 786.077 2.35283 0.97539 0
M  V30 8281 H 786.86 3.41879 -0.311991 0
M  V30 8282 N 789.305 -0.326896 1.54172 0
M  V30 8283 C 790.237 -1.42319 1.79661 0
M  V30 8284 C 791.25 -1.47989 0.678456 0
M  V30 8285 O 792.439 -1.50773 0.955503 0
M  V30 8286 C 789.539 -2.80876 1.89636 0
M  V30 8287 C 788.712 -2.98449 3.19761 0
M  V30 8288 C 787.771 -4.17347 3.2048 0
M  V30 8289 O 786.797 -4.10667 3.94134 0
M  V30 8290 N 787.999 -5.26717 2.44027 0
M  V30 8291 H 790.764 -1.20819 2.74268 0
M  V30 8292 H 788.325 -0.516866 1.53428 0
M  V30 8293 H 790.317 -3.58619 1.87549 0
M  V30 8294 H 788.887 -2.95442 1.02141 0
M  V30 8295 H 788.107 -2.08035 3.34836 0
M  V30 8296 H 789.395 -3.07083 4.05681 0
M  V30 8297 H 788.793 -5.35019 1.8377 0
M  V30 8298 H 787.35 -6.02891 2.47721 0
M  V30 8299 N 790.784 -1.46188 -0.588786 0
M  V30 8300 C 791.716 -1.52319 -1.71265 0
M  V30 8301 C 792.729 -0.412096 -1.57498 0
M  V30 8302 O 793.918 -0.680146 -1.65034 0
M  V30 8303 C 791.018 -1.38164 -3.09458 0
M  V30 8304 C 790.191 -2.63284 -3.49286 0
M  V30 8305 C 789.25 -2.43415 -4.66514 0
M  V30 8306 O 788.276 -3.17113 -4.72682 0
M  V30 8307 N 789.478 -1.49187 -5.61002 0
M  V30 8308 H 792.243 -2.49219 -1.66463 0
M  V30 8309 H 789.804 -1.42167 -0.774601 0
M  V30 8310 H 791.796 -1.22653 -3.85666 0
M  V30 8311 H 790.366 -0.494678 -3.08661 0
M  V30 8312 H 789.586 -2.93779 -2.62845 0
M  V30 8313 H 790.874 -3.46413 -3.7266 0
M  V30 8314 H 790.272 -0.884027 -5.5875 0
M  V30 8315 H 788.829 -1.39642 -6.36666 0
M  V30 8316 N 792.262 0.832906 -1.33792 0
M  V30 8317 C 793.678 1.1245 -1.13257 0
M  V30 8318 C 793.878 2.01369 0.0725832 0
M  V30 8319 O 792.934 2.41071 0.751082 0
M  V30 8320 C 794.247 1.78084 -2.42294 0
M  V30 8321 C 795.795 1.90624 -2.48257 0
M  V30 8322 C 796.27 2.59673 -3.77271 0
M  V30 8323 N 797.761 2.67181 -3.78376 0
M  V30 8324 C 798.496 3.21313 -4.74916 0
M  V30 8325 N 797.992 3.76086 -5.81835 0
M  V30 8326 N 799.785 3.19621 -4.62384 0
M  V30 8327 H 791.936 0.241244 -2.11026 0
M  V30 8328 H 794.199 0.169557 -0.932713 0
M  V30 8329 H 793.905 1.20209 -3.30519 0
M  V30 8330 H 793.779 2.78049 -2.5489 0
M  V30 8331 H 796.166 2.4765 -1.60478 0
M  V30 8332 H 796.247 0.89591 -2.39598 0
M  V30 8333 H 795.891 2.03304 -4.65435 0
M  V30 8334 H 795.821 3.61189 -3.8321 0
M  V30 8335 H 798.312 2.28346 -3.01108 0
M  V30 8336 H 798.625 4.15612 -6.51526 0
M  V30 8337 H 796.97 3.74357 -5.85561 0
M  V30 8338 H 800.161 2.76091 -3.7801 0
M  V30 8339 H 800.334 3.61504 -5.37791 0
M  V30 8340 N 793.74 1.17359 1.05189 0
M  V30 8341 C 794.965 0.98709 1.82404 0
M  V30 8342 C 795.39 -0.459848 1.82392 0
M  V30 8343 O 794.748 -1.32924 1.23292 0
M  V30 8344 C 794.796 1.53276 3.26403 0
M  V30 8345 O 793.9 0.746541 4.05587 0
M  V30 8346 H 793.241 0.35047 0.563974 0
M  V30 8347 H 795.771 1.55856 1.32552 0
M  V30 8348 H 795.781 1.55504 3.77203 0
M  V30 8349 H 794.456 2.58603 3.25726 0
M  V30 8350 H 793.033 0.795671 3.64312 0
M  V30 8351 N 795.218 -1.23913 0.973828 0
M  V30 8352 C 796.465 -1.92151 0.639079 0
M  V30 8353 C 796.793 -1.76064 -0.826545 0
M  V30 8354 O 796.048 -1.11126 -1.61088 0
M  V30 8355 C 796.347 -3.4406 0.967356 0
M  V30 8356 C 796.013 -3.80321 2.42212 0
M  V30 8357 C 794.675 -3.8993 2.81971 0
M  V30 8358 C 797.027 -3.97935 3.36596 0
M  V30 8359 C 794.355 -4.14575 4.15144 0
M  V30 8360 C 796.707 -4.24079 4.69404 0
M  V30 8361 C 795.371 -4.31908 5.08932 0
M  V30 8362 H 794.641 -0.70313 0.233856 0
M  V30 8363 H 797.288 -1.47072 1.22646 0
M  V30 8364 H 795.593 -3.90667 0.297807 0
M  V30 8365 H 797.29 -3.95077 0.686654 0
M  V30 8366 H 793.88 -3.73411 2.10385 0
M  V30 8367 H 798.064 -3.89908 3.07059 0
M  V30 8368 H 793.32 -4.18858 4.45385 0
M  V30 8369 H 797.494 -4.36652 5.42502 0
M  V30 8370 H 795.121 -4.50758 6.12145 0
M  V30 8371 N 796.696 -0.74468 -1.38897 0
M  V30 8372 C 797.936 -0.301691 -2.02161 0
M  V30 8373 C 798.3 1.09338 -1.57826 0
M  V30 8374 O 799.501 1.63499 -2.13358 0
M  V30 8375 C 797.772 -0.410601 -3.55034 0
M  V30 8376 S 799.331 -0.0488802 -4.38773 0
M  V30 8377 H 796.149 -0.117583 -0.70121 0
M  V30 8378 H 798.751 -0.973334 -1.69548 0
M  V30 8379 H 797.455 -1.42705 -3.8479 0
M  V30 8380 H 796.986 0.278531 -3.92413 0
M  V30 8381 H 799.001 1.16434 -4.82346 0
M  V30 8382 N 798.174 1.49689 -0.493057 0
M  V30 8383 C 799.104 2.31826 0.279073 0
M  V30 8384 C 800.085 1.39733 0.969987 0
M  V30 8385 O 801.27 1.68646 0.962925 0
M  V30 8386 C 798.4 3.20046 1.34862 0
M  V30 8387 C 797.354 4.20869 0.77805 0
M  V30 8388 C 796.68 4.97971 1.94753 0
M  V30 8389 C 797.98 5.21813 -0.225543 0
M  V30 8390 H 799.674 2.96627 -0.406512 0
M  V30 8391 H 797.22 1.42647 -0.196943 0
M  V30 8392 H 799.173 3.76315 1.89645 0
M  V30 8393 H 797.897 2.53172 2.06328 0
M  V30 8394 H 796.556 3.65733 0.252036 0
M  V30 8395 H 796.204 4.27552 2.64969 0
M  V30 8396 H 795.904 5.66186 1.57187 0
M  V30 8397 H 797.428 5.57082 2.49984 0
M  V30 8398 H 798.842 5.72823 0.233864 0
M  V30 8399 H 797.239 5.97872 -0.516622 0
M  V30 8400 H 798.309 4.71209 -1.14412 0
M  V30 8401 N 799.652 0.226554 1.55963 0
M  V30 8402 C 800.584 -0.713907 2.17798 0
M  V30 8403 C 801.597 -1.15387 1.14846 0
M  V30 8404 O 802.786 -1.08416 1.41804 0
M  V30 8405 C 799.886 -1.97945 2.75084 0
M  V30 8406 C 799.059 -1.69424 4.03255 0
M  V30 8407 C 798.118 -2.80734 4.45056 0
M  V30 8408 O 797.144 -2.4899 5.11852 0
M  V30 8409 N 798.346 -4.09797 4.11152 0
M  V30 8410 H 801.111 -0.18494 2.99129 0
M  V30 8411 H 798.672 0.0457346 1.61835 0
M  V30 8412 H 800.664 -2.71611 3.00016 0
M  V30 8413 H 799.234 -2.41876 1.98027 0
M  V30 8414 H 798.454 -0.793767 3.86126 0
M  V30 8415 H 799.742 -1.47806 4.86858 0
M  V30 8416 H 799.14 -4.38429 3.57486 0
M  V30 8417 H 797.697 -4.79992 4.40966 0
M  V30 8418 N 801.13 -1.57531 -0.0467866 0
M  V30 8419 C 802.04 -2.08768 -1.07018 0
M  V30 8420 C 803.056 -1.02245 -1.40791 0
M  V30 8421 O 804.232 -1.33873 -1.50466 0
M  V30 8422 C 801.297 -2.54221 -2.35738 0
M  V30 8423 C 800.358 -3.75152 -2.08709 0
M  V30 8424 C 799.591 -4.18428 -3.31291 0
M  V30 8425 O 799.814 -3.61365 -4.4133 0
M  V30 8426 O 798.748 -5.11018 -3.18032 0
M  V30 8427 H 802.574 -2.96334 -0.664812 0
M  V30 8428 H 800.159 -1.47074 -0.262605 0
M  V30 8429 H 802.041 -2.83866 -3.11445 0
M  V30 8430 H 800.716 -1.69774 -2.75605 0
M  V30 8431 H 799.623 -3.50553 -1.30627 0
M  V30 8432 H 800.956 -4.60528 -1.73708 0
M  V30 8433 N 802.608 0.318715 -1.54344 0
M  V30 8434 C 803.518 1.41535 -1.87097 0
M  V30 8435 C 804.534 1.56361 -0.763353 0
M  V30 8436 O 805.71 1.71365 -1.05811 0
M  V30 8437 C 802.775 2.76178 -2.09587 0
M  V30 8438 C 801.836 2.70486 -3.3337 0
M  V30 8439 C 801.069 3.98708 -3.54778 0
M  V30 8440 O 801.292 4.9721 -2.79532 0
M  V30 8441 O 800.226 4.01674 -4.48266 0
M  V30 8442 H 804.052 1.16764 -2.80357 0
M  V30 8443 H 801.637 0.51318 -1.4031 0
M  V30 8444 H 803.519 3.55873 -2.25682 0
M  V30 8445 H 802.194 3.00829 -1.19514 0
M  V30 8446 H 801.101 1.89325 -3.22656 0
M  V30 8447 H 802.434 2.50789 -4.23516 0
M  V30 8448 N 804.086 1.46499 0.581025 0
M  V30 8449 C 805.033 1.5719 1.68997 0
M  V30 8450 C 806.003 0.416114 1.60803 0
M  V30 8451 O 807.188 0.633086 1.79991 0
M  V30 8452 C 804.328 1.56973 3.07333 0
M  V30 8453 C 803.441 2.83298 3.26139 0
M  V30 8454 C 802.576 2.74574 4.54734 0
M  V30 8455 C 801.615 3.9583 4.66889 0
M  V30 8456 N 800.752 3.85482 5.86811 0
M  V30 8457 H 805.592 2.51914 1.59196 0
M  V30 8458 H 803.129 1.24975 0.775857 0
M  V30 8459 H 805.087 1.54832 3.87405 0
M  V30 8460 H 803.717 0.657803 3.16027 0
M  V30 8461 H 802.769 2.95411 2.3966 0
M  V30 8462 H 804.081 3.7316 3.30988 0
M  V30 8463 H 803.235 2.70548 5.43036 0
M  V30 8464 H 801.974 1.82354 4.52325 0
M  V30 8465 H 800.979 4.00186 3.77003 0
M  V30 8466 H 802.204 4.89148 4.71075 0
M  V30 8467 H 800.15 2.96051 5.85397 0
M  V30 8468 H 800.067 4.69002 5.92936 0
M  V30 8469 H 801.335 3.85434 6.7754 0
M  V30 8470 N 805.565 -0.825799 1.34232 0
M  V30 8471 C 806.981 -1.11848 1.13851 0
M  V30 8472 C 807.181 -2.01405 -0.0619031 0
M  V30 8473 O 806.237 -2.41465 -0.738287 0
M  V30 8474 C 807.55 -1.76797 2.43235 0
M  V30 8475 C 809.098 -1.89304 2.49265 0
M  V30 8476 C 809.573 -2.57669 3.78643 0
M  V30 8477 N 811.064 -2.65171 3.79788 0
M  V30 8478 C 811.799 -3.1879 4.76614 0
M  V30 8479 N 811.295 -3.72995 5.83821 0
M  V30 8480 N 813.088 -3.17164 4.64073 0
M  V30 8481 H 805.239 -0.230049 2.11151 0
M  V30 8482 H 807.502 -0.164609 0.9336 0
M  V30 8483 H 807.208 -1.18455 3.31152 0
M  V30 8484 H 807.082 -2.76693 2.56361 0
M  V30 8485 H 809.469 -2.46796 1.6179 0
M  V30 8486 H 809.55 -0.883191 2.4007 0
M  V30 8487 H 809.194 -2.00833 4.66507 0
M  V30 8488 H 809.124 -3.59152 3.8512 0
M  V30 8489 H 811.615 -2.26746 3.02315 0
M  V30 8490 H 811.928 -4.12151 6.53721 0
M  V30 8491 H 810.273 -3.71246 5.87538 0
M  V30 8492 H 813.464 -2.74082 3.79469 0
M  V30 8493 H 813.637 -3.58647 5.397 0
M  V30 8494 N 807.043 -1.17915 -1.04565 0
M  V30 8495 C 807.976 -0.845021 -2.11978 0
M  V30 8496 C 808.954 0.19089 -1.61476 0
M  V30 8497 O 810.138 0.0709905 -1.88366 0
M  V30 8498 C 807.265 -0.261657 -3.37688 0
M  V30 8499 C 806.311 -1.27396 -4.07029 0
M  V30 8500 S 807.144 -2.82783 -4.54746 0
M  V30 8501 C 808.3 -2.25944 -5.83695 0
M  V30 8502 H 808.533 -1.75472 -2.39993 0
M  V30 8503 H 806.066 -1.00447 -1.17259 0
M  V30 8504 H 808.024 0.0684257 -4.10443 0
M  V30 8505 H 806.685 0.626082 -3.07797 0
M  V30 8506 H 805.878 -0.814557 -4.97374 0
M  V30 8507 H 805.48 -1.55002 -3.40368 0
M  V30 8508 H 807.772 -1.63892 -6.57378 0
M  V30 8509 H 808.715 -3.14569 -6.34391 0
M  V30 8510 H 809.123 -1.69155 -5.3856 0
M  V30 8511 N 808.521 1.23394 -0.980386 0
M  V30 8512 C 809.769 1.91431 -0.647978 0
M  V30 8513 C 810.09 1.76871 0.821066 0
M  V30 8514 O 809.36 1.14808 1.58732 0
M  V30 8515 H 807.94 0.708516 -0.236673 0
M  V30 8516 H 810.602 1.50019 -1.2442 0
M  V30 8517 H 809.698 2.98854 -0.899592 0
M  V30 8518 N 809.999 0.752036 1.385 0
M  V30 8519 C 811.224 0.316993 2.04963 0
M  V30 8520 C 811.649 -1.04582 1.56346 0
M  V30 8521 O 811.007 -1.66616 0.714755 0
M  V30 8522 C 811.055 0.347235 3.58924 0
M  V30 8523 O 810.159 -0.659296 4.07096 0
M  V30 8524 H 809.5 0.140652 0.648932 0
M  V30 8525 H 812.03 1.02272 1.77205 0
M  V30 8526 H 812.04 0.19757 4.07521 0
M  V30 8527 H 810.715 1.34157 3.93668 0
M  V30 8528 H 809.292 -0.474371 3.6987 0
M  V30 8529 N 811.477 -1.49425 0.500989 0
M  V30 8530 C 812.407 -2.31971 -0.266775 0
M  V30 8531 C 813.388 -1.40245 -0.962563 0
M  V30 8532 O 814.573 -1.69154 -0.953968 0
M  V30 8533 C 811.703 -3.20757 -1.33163 0
M  V30 8534 C 810.657 -4.21275 -0.75572 0
M  V30 8535 C 809.983 -4.98997 -1.92109 0
M  V30 8536 C 811.283 -5.21686 0.253213 0
M  V30 8537 H 812.977 -2.96408 0.422237 0
M  V30 8538 H 810.523 -1.4254 0.204505 0
M  V30 8539 H 812.476 -3.77315 -1.87646 0
M  V30 8540 H 811.2 -2.54263 -2.04983 0
M  V30 8541 H 809.859 -3.65861 -0.232637 0
M  V30 8542 H 809.507 -4.28951 -2.62698 0
M  V30 8543 H 809.207 -5.67011 -1.54182 0
M  V30 8544 H 810.731 -5.584 -2.47026 0
M  V30 8545 H 812.145 -5.72939 -0.203483 0
M  V30 8546 H 810.542 -5.9759 0.548322 0
M  V30 8547 H 811.612 -4.70596 1.16909 0
M  V30 8548 N 812.955 -0.234822 -1.55841 0
M  V30 8549 C 814.203 0.392483 -1.98252 0
M  V30 8550 C 814.524 1.59344 -1.12404 0
M  V30 8551 O 813.794 1.94834 -0.204055 0
M  V30 8552 H 812.374 0.147999 -0.732192 0
M  V30 8553 H 815.036 -0.330804 -1.92072 0
M  V30 8554 H 814.132 0.709829 -3.03921 0
M  V30 8555 N 814.433 1.57553 0.0384317 0
M  V30 8556 C 815.363 2.0898 1.04161 0
M  V30 8557 C 816.344 0.99029 1.38301 0
M  V30 8558 O 817.529 1.26499 1.47349 0
M  V30 8559 C 814.659 2.56145 2.34536 0
M  V30 8560 C 813.613 3.70275 2.14663 0
M  V30 8561 C 812.939 4.03612 3.50715 0
M  V30 8562 C 814.239 4.99067 1.54045 0
M  V30 8563 H 815.933 2.93046 0.613548 0
M  V30 8564 H 813.479 1.40973 0.293684 0
M  V30 8565 H 815.432 2.90741 3.05037 0
M  V30 8566 H 814.156 1.6915 2.79385 0
M  V30 8567 H 812.815 3.36013 1.46597 0
M  V30 8568 H 812.463 3.13698 3.93195 0
M  V30 8569 H 812.163 4.80482 3.38247 0
M  V30 8570 H 813.687 4.40735 4.22593 0
M  V30 8571 H 815.101 5.3168 2.14451 0
M  V30 8572 H 813.498 5.80484 1.52178 0
M  V30 8573 H 814.568 4.8226 0.505259 0
M  V30 8574 N 815.911 -0.310526 1.54511 0
M  V30 8575 C 817.327 -0.655637 1.45511 0
M  V30 8576 C 817.527 -1.91114 0.638564 0
M  V30 8577 O 816.583 -2.52098 0.142497 0
M  V30 8578 C 817.896 -0.817501 2.89374 0
M  V30 8579 C 819.444 -0.914003 2.99358 0
M  V30 8580 C 819.919 -1.10794 4.44397 0
M  V30 8581 N 821.41 -1.17437 4.48066 0
M  V30 8582 C 822.145 -1.34255 5.57461 0
M  V30 8583 N 821.641 -1.48032 6.768 0
M  V30 8584 N 823.434 -1.37067 5.45132 0
M  V30 8585 H 815.585 0.514506 2.06074 0
M  V30 8586 H 817.848 0.168478 0.932909 0
M  V30 8587 H 817.554 0.034003 3.51684 0
M  V30 8588 H 817.428 -1.7094 3.36243 0
M  V30 8589 H 819.815 -1.756 2.37168 0
M  V30 8590 H 819.896 0.00170958 2.558 0
M  V30 8591 H 819.54 -0.270743 5.07178 0
M  V30 8592 H 819.47 -2.03773 4.85576 0
M  V30 8593 H 821.961 -1.08181 3.62084 0
M  V30 8594 H 822.274 -1.60593 7.5593 0
M  V30 8595 H 820.619 -1.45105 6.79683 0
M  V30 8596 H 823.81 -1.25909 4.50849 0
M  V30 8597 H 823.983 -1.49831 6.3044 0
M  V30 8598 N 817.389 -1.46805 -0.573248 0
M  V30 8599 C 818.635 -1.5283 -1.33307 0
M  V30 8600 C 818.968 -0.183287 -1.93333 0
M  V30 8601 O 818.243 0.806354 -1.76998 0
M  V30 8602 C 818.526 -2.63414 -2.45531 0
M  V30 8603 C 818.379 -4.07478 -1.90478 0
M  V30 8604 C 819.698 -2.70014 -3.47535 0
M  V30 8605 H 816.817 -0.556371 -0.483343 0
M  V30 8606 H 819.459 -1.78787 -0.643066 0
M  V30 8607 H 817.609 -2.41412 -3.04389 0
M  V30 8608 H 819.281 -4.40795 -1.36004 0
M  V30 8609 H 817.524 -4.16511 -1.21248 0
M  V30 8610 H 818.195 -4.80598 -2.71531 0
M  V30 8611 H 820.671 -2.89817 -2.98572 0
M  V30 8612 H 819.547 -3.49192 -4.23504 0
M  V30 8613 H 819.808 -1.76436 -4.05367 0
M  V30 8614 N 818.867 0.818669 -1.34668 0
M  V30 8615 C 819.797 1.94468 -1.29245 0
M  V30 8616 C 820.778 1.69257 -0.169101 0
M  V30 8617 O 821.963 1.90794 -0.362143 0
M  V30 8618 C 819.093 3.31001 -1.05145 0
M  V30 8619 C 818.047 3.70663 -2.13992 0
M  V30 8620 C 817.373 5.05226 -1.75074 0
M  V30 8621 C 818.673 3.82312 -3.55858 0
M  V30 8622 H 820.367 1.99263 -2.2346 0
M  V30 8623 H 817.913 0.957304 -1.07572 0
M  V30 8624 H 819.866 4.09364 -0.999949 0
M  V30 8625 H 818.59 3.26517 -0.0737312 0
M  V30 8626 H 817.249 2.94578 -2.18219 0
M  V30 8627 H 816.897 4.97233 -0.759518 0
M  V30 8628 H 816.597 5.32734 -2.47928 0
M  V30 8629 H 818.121 5.86042 -1.71427 0
M  V30 8630 H 819.535 4.50935 -3.5402 0
M  V30 8631 H 817.932 4.21278 -4.2737 0
M  V30 8632 H 819.002 2.84193 -3.9289 0
M  V30 8633 N 820.346 1.18468 1.03938 0
M  V30 8634 C 821.309 0.914944 2.10146 0
M  V30 8635 C 822.309 -0.10022 1.60487 0
M  V30 8636 O 823.499 0.133365 1.73689 0
M  V30 8637 C 820.631 0.372993 3.38853 0
M  V30 8638 H 821.824 1.85677 2.35508 0
M  V30 8639 H 819.377 0.996876 1.20383 0
M  V30 8640 H 820.112 -0.57538 3.19155 0
M  V30 8641 H 819.897 1.1048 3.76213 0
M  V30 8642 H 821.387 0.203014 4.17106 0
M  V30 8643 N 821.824 -1.22873 0.986916 0
M  V30 8644 C 822.754 -2.2688 0.552064 0
M  V30 8645 C 823.735 -1.64883 -0.418048 0
M  V30 8646 O 824.92 -1.9171 -0.30999 0
M  V30 8647 C 822.05 -3.47018 -0.139959 0
M  V30 8648 C 821.004 -4.21411 0.748091 0
M  V30 8649 C 820.33 -5.34645 -0.0765132 0
M  V30 8650 C 821.63 -4.80726 2.04206 0
M  V30 8651 H 823.324 -2.63507 1.42143 0
M  V30 8652 H 820.87 -1.26668 0.68492 0
M  V30 8653 H 822.823 -4.18931 -0.455527 0
M  V30 8654 H 821.547 -3.0947 -1.04382 0
M  V30 8655 H 820.206 -3.51325 1.04721 0
M  V30 8656 H 819.854 -4.93339 -0.981109 0
M  V30 8657 H 819.554 -5.85342 0.514606 0
M  V30 8658 H 821.078 -6.09377 -0.386313 0
M  V30 8659 H 822.492 -5.44612 1.79083 0
M  V30 8660 H 820.889 -5.41737 2.5815 0
M  V30 8661 H 821.959 -4.01109 2.72469 0
M  V30 8662 N 823.302 -0.75937 -1.38099 0
M  V30 8663 C 824.265 -0.14372 -2.28749 0
M  V30 8664 C 825.265 0.641338 -1.47457 0
M  V30 8665 O 826.455 0.466751 -1.67831 0
M  V30 8666 C 823.587 0.804545 -3.3127 0
M  V30 8667 H 824.78 -0.942663 -2.847 0
M  V30 8668 H 822.333 -0.526757 -1.47156 0
M  V30 8669 H 823.068 1.62895 -2.80421 0
M  V30 8670 H 822.853 0.243939 -3.9134 0
M  V30 8671 H 824.343 1.23111 -3.99041 0
M  V30 8672 N 824.78 1.49157 -0.508906 0
M  V30 8673 C 826.005 2.07376 0.0315182 0
M  V30 8674 C 826.43 1.36575 1.2934 0
M  V30 8675 O 825.788 0.424963 1.76249 0
M  V30 8676 C 825.836 3.59661 0.260118 0
M  V30 8677 O 824.94 3.90255 1.33322 0
M  V30 8678 H 824.281 0.663334 -0.029739 0
M  V30 8679 H 826.811 1.91857 -0.710791 0
M  V30 8680 H 826.821 4.05056 0.489225 0
M  V30 8681 H 825.496 4.10601 -0.661794 0
M  V30 8682 H 824.073 3.56661 1.08844 0
M  V30 8683 N 826.258 0.243083 1.55714 0
M  V30 8684 C 827.506 -0.381964 1.98458 0
M  V30 8685 C 827.827 -1.58745 1.13247 0
M  V30 8686 O 827.097 -1.94723 0.214384 0
M  V30 8687 H 825.677 -0.144114 0.732967 0
M  V30 8688 H 828.339 0.340985 1.91894 0
M  V30 8689 H 827.435 -0.693702 3.04293 0
M  V30 8690 N 827.736 -1.57571 -0.0300757 0
M  V30 8691 C 829.147 -1.77567 -0.576802 0
M  V30 8692 C 829.498 -0.874034 -1.75656 0
M  V30 8693 O 828.623 -0.0686124 -2.16291 0
M  V30 8694 C 829.218 -3.22016 -1.05315 0
M  V30 8695 C 827.777 -3.43212 -1.5454 0
M  V30 8696 C 826.924 -2.73061 -0.483033 0
M  V30 8697 H 829.875 -1.57483 0.196151 0
M  V30 8698 H 829.896 -3.28474 -1.92055 0
M  V30 8699 H 829.408 -3.87613 -0.194298 0
M  V30 8700 H 827.509 -2.82788 -2.42615 0
M  V30 8701 H 827.622 -4.5182 -1.5936 0
M  V30 8702 H 825.986 -2.36805 -0.937835 0
M  V30 8703 H 826.769 -3.4134 0.366341 0
M  V30 8704 N 829.214 0.302327 -1.54673 0
M  V30 8705 C 830.124 1.39542 -1.88587 0
M  V30 8706 C 831.14 1.55543 -0.779895 0
M  V30 8707 O 832.316 1.70233 -1.07623 0
M  V30 8708 C 829.381 2.7394 -2.12504 0
M  V30 8709 C 828.442 2.66935 -3.3622 0
M  V30 8710 C 827.675 3.94923 -3.58987 0
M  V30 8711 O 827.898 4.94218 -2.84789 0
M  V30 8712 O 826.832 3.96896 -4.52501 0
M  V30 8713 H 830.658 1.13784 -2.81579 0
M  V30 8714 H 828.243 0.49827 -1.40846 0
M  V30 8715 H 830.125 3.5346 -2.29443 0
M  V30 8716 H 828.8 2.99544 -1.22698 0
M  V30 8717 H 827.707 1.85892 -3.24646 0
M  V30 8718 H 829.04 2.46283 -4.26152 0
M  V30 8719 N 830.692 1.47107 0.565454 0
M  V30 8720 C 831.622 1.61846 1.68309 0
M  V30 8721 C 832.603 0.468159 1.63531 0
M  V30 8722 O 833.788 0.696504 1.8128 0
M  V30 8723 C 830.918 1.62474 3.06952 0
M  V30 8724 C 829.872 2.76649 3.26572 0
M  V30 8725 C 829.198 2.62345 4.65917 0
M  V30 8726 C 830.498 4.18319 3.12741 0
M  V30 8727 H 832.192 2.55407 1.5623 0
M  V30 8728 H 829.738 1.22916 0.750179 0
M  V30 8729 H 831.691 1.71378 3.84977 0
M  V30 8730 H 830.415 0.654692 3.19971 0
M  V30 8731 H 829.074 2.67242 2.50952 0
M  V30 8732 H 828.722 1.63386 4.75725 0
M  V30 8733 H 828.422 3.38936 4.79996 0
M  V30 8734 H 829.946 2.73165 5.46089 0
M  V30 8735 H 831.36 4.28745 3.80593 0
M  V30 8736 H 829.757 4.95632 3.38333 0
M  V30 8737 H 830.827 4.37263 2.09592 0
M  V30 8738 N 832.17 -0.811516 1.35101 0
M  V30 8739 C 833.418 -1.56525 1.27845 0
M  V30 8740 C 833.739 -1.94435 -0.14829 0
M  V30 8741 O 833.009 -1.63203 -1.08359 0
M  V30 8742 H 831.589 -0.580433 0.47022 0
M  V30 8743 H 834.251 -0.968277 1.69146 0
M  V30 8744 H 833.347 -2.48291 1.89097 0
M  V30 8745 N 833.648 -1.19017 -1.03309 0
M  V30 8746 C 835.064 -0.941483 -1.28873 0
M  V30 8747 C 835.264 0.388587 -1.97718 0
M  V30 8748 O 834.32 1.12111 -2.26246 0
M  V30 8749 C 835.633 -2.11249 -2.13996 0
M  V30 8750 C 837.181 -2.15164 -2.27318 0
M  V30 8751 C 837.656 -3.31704 -3.15811 0
M  V30 8752 N 839.147 -3.31613 -3.23399 0
M  V30 8753 C 839.882 -4.18431 -3.9205 0
M  V30 8754 N 839.378 -5.15397 -4.62966 0
M  V30 8755 N 841.171 -4.06321 -3.88406 0
M  V30 8756 H 833.322 -2.04599 -0.570343 0
M  V30 8757 H 835.585 -0.894406 -0.314232 0
M  V30 8758 H 835.291 -3.07482 -1.70727 0
M  V30 8759 H 835.165 -2.07955 -3.14697 0
M  V30 8760 H 837.552 -1.19504 -2.6982 0
M  V30 8761 H 837.633 -2.22513 -1.26182 0
M  V30 8762 H 837.277 -4.2764 -2.74019 0
M  V30 8763 H 837.207 -3.21592 -4.16997 0
M  V30 8764 H 839.698 -2.6142 -2.72888 0
M  V30 8765 H 840.011 -5.78 -5.12968 0
M  V30 8766 H 838.356 -5.19349 -4.61846 0
M  V30 8767 H 841.547 -3.29849 -3.3214 0
M  V30 8768 H 841.72 -4.74196 -4.41635 0
M  V30 8769 N 835.127 1.22348 -0.993418 0
M  V30 8770 C 836.057 2.26584 -0.564088 0
M  V30 8771 C 837.038 1.65102 0.409298 0
M  V30 8772 O 838.223 1.91872 0.299819 0
M  V30 8773 C 835.353 3.47087 0.121554 0
M  V30 8774 C 834.307 4.21009 -0.770429 0
M  V30 8775 C 833.633 5.34678 0.0481586 0
M  V30 8776 C 834.933 4.79636 -2.06752 0
M  V30 8777 H 836.627 2.62749 -1.43538 0
M  V30 8778 H 834.173 1.26303 -0.691628 0
M  V30 8779 H 836.126 4.19166 0.433303 0
M  V30 8780 H 834.85 3.1002 1.0274 0
M  V30 8781 H 833.509 3.50764 -1.06583 0
M  V30 8782 H 833.157 4.93852 0.954933 0
M  V30 8783 H 832.857 5.85061 -0.545641 0
M  V30 8784 H 834.381 6.09573 0.353991 0
M  V30 8785 H 835.795 5.43654 -1.81969 0
M  V30 8786 H 834.192 5.4036 -2.61019 0
M  V30 8787 H 835.262 3.99659 -2.74592 0
M  V30 8788 N 836.605 0.766683 1.37694 0
M  V30 8789 C 837.833 0.339939 2.04088 0
M  V30 8790 C 838.248 -1.03617 1.57826 0
M  V30 8791 O 837.605 -1.6605 0.757214 0
M  V30 8792 C 837.656 0.368269 3.59619 0
M  V30 8793 O 837.377 1.69009 4.04188 0
M  V30 8794 C 838.878 -0.0707053 4.43244 0
M  V30 8795 H 836.098 0.143189 0.655544 0
M  V30 8796 H 838.642 1.03919 1.76128 0
M  V30 8797 H 836.797 -0.282359 3.8637 0
M  V30 8798 H 837.211 1.62523 4.98685 0
M  V30 8799 H 838.685 0.000273538 5.52 0
M  V30 8800 H 839.162 -1.1204 4.24669 0
M  V30 8801 H 839.768 0.551543 4.21709 0
M  V30 8802 N 838.083 -1.48885 0.516809 0
M  V30 8803 C 839.33 -2.02488 -0.0220602 0
M  V30 8804 C 839.658 -1.39513 -1.35523 0
M  V30 8805 O 838.913 -0.52558 -1.8851 0
M  V30 8806 C 839.212 -3.56801 -0.206798 0
M  V30 8807 C 838.878 -4.38496 1.05035 0
M  V30 8808 C 837.54 -4.60538 1.39492 0
M  V30 8809 C 839.892 -4.85909 1.88525 0
M  V30 8810 C 837.22 -5.2724 2.57361 0
M  V30 8811 C 839.572 -5.53909 3.05561 0
M  V30 8812 C 838.236 -5.74193 3.4038 0
M  V30 8813 H 837.506 -0.740956 -0.00807238 0
M  V30 8814 H 840.153 -1.79014 0.680168 0
M  V30 8815 H 838.458 -3.79042 -0.991687 0
M  V30 8816 H 840.155 -3.95885 -0.638447 0
M  V30 8817 H 836.745 -4.2159 0.771984 0
M  V30 8818 H 840.929 -4.68694 1.63218 0
M  V30 8819 H 836.185 -5.41145 2.84556 0
M  V30 8820 H 840.359 -5.89619 3.7057 0
M  V30 8821 H 837.986 -6.25652 4.31814 0
M  V30 8822 N 839.561 -0.251338 -1.55583 0
M  V30 8823 C 840.491 0.640437 -2.24545 0
M  V30 8824 C 841.472 1.17781 -1.22726 0
M  V30 8825 O 842.657 1.21633 -1.5139 0
M  V30 8826 C 839.787 1.8355 -2.94834 0
M  V30 8827 C 838.741 1.4307 -4.03379 0
M  V30 8828 C 838.067 2.70695 -4.61116 0
M  V30 8829 C 839.367 0.59848 -5.1886 0
M  V30 8830 H 841.061 0.0653772 -2.99329 0
M  V30 8831 H 838.607 0.0300042 -1.43969 0
M  V30 8832 H 840.56 2.46505 -3.4178 0
M  V30 8833 H 839.284 2.43601 -2.17546 0
M  V30 8834 H 837.943 0.824474 -3.57209 0
M  V30 8835 H 837.591 3.28954 -3.80524 0
M  V30 8836 H 837.291 2.44332 -5.34393 0
M  V30 8837 H 838.815 3.34541 -5.10798 0
M  V30 8838 H 840.229 1.13244 -5.62004 0
M  V30 8839 H 838.626 0.430728 -5.98552 0
M  V30 8840 H 839.696 -0.38829 -4.83343 0
M  V30 8841 N 841.039 1.57585 0.0217189 0
M  V30 8842 C 842.287 1.89231 0.709641 0
M  V30 8843 C 842.608 0.849964 1.75501 0
M  V30 8844 O 841.878 -0.115485 1.95559 0
M  V30 8845 H 840.458 0.69838 0.265092 0
M  V30 8846 H 843.12 1.94895 -0.0140688 0
M  V30 8847 H 842.216 2.88333 1.19459 0
M  V30 8848 N 842.517 -0.29412 1.54831 0
M  V30 8849 C 843.447 -1.36757 1.89261 0
M  V30 8850 C 844.428 -1.52564 0.752214 0
M  V30 8851 O 845.613 -1.65958 1.00855 0
M  V30 8852 C 842.743 -2.73066 2.14597 0
M  V30 8853 C 841.697 -2.72017 3.3044 0
M  V30 8854 C 841.023 -4.11679 3.4121 0
M  V30 8855 C 842.323 -2.33149 4.67375 0
M  V30 8856 H 844.017 -1.08191 2.79169 0
M  V30 8857 H 841.563 -0.519014 1.34321 0
M  V30 8858 H 843.516 -3.48255 2.37269 0
M  V30 8859 H 842.24 -3.03172 1.21467 0
M  V30 8860 H 840.899 -1.99285 3.07703 0
M  V30 8861 H 840.547 -4.38973 2.45584 0
M  V30 8862 H 840.247 -4.11877 4.19084 0
M  V30 8863 H 841.771 -4.88637 3.6615 0
M  V30 8864 H 843.185 -2.98054 4.89731 0
M  V30 8865 H 841.582 -2.44546 5.48012 0
M  V30 8866 H 842.652 -1.28275 4.67626 0
M  V30 8867 N 843.995 -1.47404 -0.557645 0
M  V30 8868 C 845.241 -1.54235 -1.31679 0
M  V30 8869 C 845.574 -0.203782 -1.93128 0
M  V30 8870 O 844.849 0.787536 -1.77843 0
M  V30 8871 C 845.132 -2.66003 -2.42723 0
M  V30 8872 C 844.985 -4.09475 -1.86145 0
M  V30 8873 C 846.304 -2.73685 -3.44652 0
M  V30 8874 H 843.423 -0.561466 -0.477415 0
M  V30 8875 H 846.065 -1.79459 -0.624067 0
M  V30 8876 H 844.215 -2.44627 -3.01811 0
M  V30 8877 H 845.887 -4.42213 -1.31321 0
M  V30 8878 H 844.13 -4.17774 -1.16823 0
M  V30 8879 H 844.801 -4.83451 -2.66418 0
M  V30 8880 H 847.277 -2.92968 -2.95481 0
M  V30 8881 H 846.153 -3.53665 -4.19777 0
M  V30 8882 H 846.414 -1.80726 -4.03473 0
M  V30 8883 N 845.473 0.80434 -1.35529 0
M  V30 8884 C 846.721 1.55845 -1.28673 0
M  V30 8885 C 847.042 1.94511 0.137976 0
M  V30 8886 O 846.312 1.63775 1.07492 0
M  V30 8887 H 844.892 0.577931 -0.473291 0
M  V30 8888 H 847.554 0.959293 -1.69657 0
M  V30 8889 H 846.65 2.47285 -1.90411 0
M  V30 8890 N 846.951 1.19563 1.02676 0
M  V30 8891 C 848.2 0.993864 1.75514 0
M  V30 8892 C 848.513 -0.475882 1.89723 0
M  V30 8893 O 849.719 -0.796525 2.59553 0
M  V30 8894 C 848.175 1.72937 3.15628 0
M  V30 8895 C 847.783 3.23937 3.09466 0
M  V30 8896 C 849.527 1.61092 3.92746 0
M  V30 8897 C 847.434 3.90067 4.44524 0
M  V30 8898 H 846.364 0.368244 0.657961 0
M  V30 8899 H 849.015 1.43081 1.14891 0
M  V30 8900 H 847.397 1.22025 3.76731 0
M  V30 8901 H 848.571 3.81983 2.57731 0
M  V30 8902 H 846.886 3.3608 2.45843 0
M  V30 8903 H 849.483 2.07848 4.92649 0
M  V30 8904 H 849.826 0.565415 4.12442 0
M  V30 8905 H 850.359 2.09361 3.3825 0
M  V30 8906 H 847.098 4.94725 4.30032 0
M  V30 8907 H 846.618 3.36809 4.96306 0
M  V30 8908 H 848.297 3.93736 5.13401 0
M  V30 8909 N 848.429 -1.21819 0.999893 0
M  V30 8910 C 849.678 -1.90066 0.675108 0
M  V30 8911 C 849.991 -1.78624 -0.79705 0
M  V30 8912 O 851.197 -2.41851 -1.23371 0
M  V30 8913 C 849.653 -3.40795 1.15702 0
M  V30 8914 C 849.261 -3.60859 2.6549 0
M  V30 8915 C 851.005 -4.147 0.906889 0
M  V30 8916 C 848.912 -5.05324 3.07248 0
M  V30 8917 H 847.842 -0.711763 0.248815 0
M  V30 8918 H 850.493 -1.3792 1.21038 0
M  V30 8919 H 848.875 -3.92164 0.549832 0
M  V30 8920 H 850.049 -3.19951 3.31614 0
M  V30 8921 H 848.364 -3.00298 2.88461 0
M  V30 8922 H 850.961 -5.21187 1.1945 0
M  V30 8923 H 851.304 -4.16004 -0.156923 0
M  V30 8924 H 851.837 -3.69379 1.47662 0
M  V30 8925 H 848.576 -5.09164 4.12834 0
M  V30 8926 H 848.096 -5.47108 2.45832 0
M  V30 8927 H 849.775 -5.73797 2.98941 0
M  V30 8928 N 849.908 -0.773975 -1.37286 0
M  V30 8929 C 851.185 -0.263942 -1.93811 0
M  V30 8930 C 851.565 1.24138 -1.70743 0
M  V30 8931 O 850.913 2.02557 -1.05749 0
M  V30 8932 C 851.123 -0.639753 -3.43086 0
M  V30 8933 C 852.471 -0.610796 -4.20184 0
M  V30 8934 O 853.495 -0.579278 -3.51458 0
M  V30 8935 O 852.354 -0.639862 -5.42741 0
M  V30 8936 H 849.448 -0.0614331 -0.824715 0
M  V30 8937 H 851.994 -0.855477 -1.46559 0
M  V30 8938 H 850.766 -1.67856 -3.53469 0
M  V30 8939 H 850.389 -0.0212827 -3.97594 0
M  V30 8940 N 851.386 1.48609 -0.524698 0
M  V30 8941 C 852.797 1.86516 -0.0828846 0
M  V30 8942 C 853.148 1.43478 1.33822 0
M  V30 8943 O 852.273 0.823139 2.00133 0
M  V30 8944 C 852.868 3.38495 -0.143639 0
M  V30 8945 C 851.427 3.75615 0.242951 0
M  V30 8946 C 850.574 2.72649 -0.505747 0
M  V30 8947 H 853.525 1.40589 -0.736233 0
M  V30 8948 H 853.546 3.74977 0.645955 0
M  V30 8949 H 853.058 3.69789 -1.17805 0
M  V30 8950 H 851.159 3.49935 1.27971 0
M  V30 8951 H 851.272 4.7901 -0.0929834 0
M  V30 8952 H 849.636 2.54656 0.0473482 0
M  V30 8953 H 850.419 3.06786 -1.54069 0
M  V30 8954 N 852.864 0.259585 1.55447 0
M  V30 8955 C 854.275 -0.241165 1.85136 0
M  V30 8956 C 854.626 -1.56634 1.18153 0
M  V30 8957 O 853.751 -2.11359 0.464351 0
M  V30 8958 C 854.346 -0.444355 3.35873 0
M  V30 8959 C 852.905 -0.889354 3.65742 0
M  V30 8960 C 852.052 0.0262474 2.77288 0
M  V30 8961 H 855.003 0.481808 1.51209 0
M  V30 8962 H 855.024 -1.28517 3.58139 0
M  V30 8963 H 854.536 0.520289 3.84597 0
M  V30 8964 H 852.637 -1.86602 3.22507 0
M  V30 8965 H 852.75 -0.737432 4.73391 0
M  V30 8966 H 851.114 -0.487361 2.49994 0
M  V30 8967 H 851.897 0.986494 3.28821 0
M  V30 8968 N 854.342 -1.57594 -0.0133615 0
M  V30 8969 C 855.758 -1.5527 -0.369255 0
M  V30 8970 C 855.958 -0.987751 -1.7563 0
M  V30 8971 O 855.014 -0.615683 -2.44879 0
M  V30 8972 C 856.327 -2.99602 -0.25672 0
M  V30 8973 C 857.875 -3.11227 -0.332647 0
M  V30 8974 C 858.35 -4.57321 -0.249387 0
M  V30 8975 N 859.841 -4.62177 -0.3077 0
M  V30 8976 C 860.576 -5.72781 -0.26641 0
M  V30 8977 N 860.072 -6.92575 -0.176494 0
M  V30 8978 N 861.865 -5.61204 -0.317295 0
M  V30 8979 H 854.016 -1.92662 0.894154 0
M  V30 8980 H 856.279 -0.884352 0.341505 0
M  V30 8981 H 855.985 -3.44723 0.697072 0
M  V30 8982 H 855.859 -3.6246 -1.04415 0
M  V30 8983 H 858.246 -2.66045 -1.27688 0
M  V30 8984 H 858.327 -2.51171 0.484412 0
M  V30 8985 H 857.971 -5.03174 0.691242 0
M  V30 8986 H 857.901 -5.15306 -1.08476 0
M  V30 8987 H 860.392 -3.75994 -0.379069 0
M  V30 8988 H 860.705 -7.72653 -0.150518 0
M  V30 8989 H 859.05 -6.94854 -0.142314 0
M  V30 8990 H 862.241 -4.66509 -0.385643 0
M  V30 8991 H 862.414 -6.47388 -0.28165 0
M  V30 8992 N 855.82 0.285905 -1.54985 0
M  V30 8993 C 857.066 1.02071 -1.75241 0
M  V30 8994 C 857.399 1.864 -0.544842 0
M  V30 8995 O 856.674 1.89034 0.457844 0
M  V30 8996 C 856.957 1.91409 -3.05016 0
M  V30 8997 C 856.81 1.10158 -4.36102 0
M  V30 8998 C 858.129 2.90335 -3.30747 0
M  V30 8999 H 855.248 0.369663 -0.637588 0
M  V30 9000 H 857.89 0.294114 -1.8771 0
M  V30 9001 H 856.04 2.53362 -2.94517 0
M  V30 9002 H 857.712 0.503756 -4.58541 0
M  V30 9003 H 855.955 0.404675 -4.31908 0
M  V30 9004 H 856.626 1.75956 -5.23205 0
M  V30 9005 H 859.102 2.38514 -3.40955 0
M  V30 9006 H 857.978 3.49997 -4.2284 0
M  V30 9007 H 858.239 3.64787 -2.49765 0
M  V30 9008 N 857.298 1.47698 0.54982 0
M  V30 9009 C 858.546 1.54397 1.30407 0
M  V30 9010 C 858.867 0.211026 1.93855 0
M  V30 9011 O 858.137 -0.765701 1.80316 0
M  V30 9012 H 856.717 0.568747 0.484289 0
M  V30 9013 H 859.379 1.84042 0.641444 0
M  V30 9014 H 858.475 2.31449 2.09375 0
M  V30 9015 N 858.776 -0.797141 1.35954 0
M  V30 9016 C 860.022 -1.55698 1.29946 0
M  V30 9017 C 860.355 -1.93808 -0.123259 0
M  V30 9018 O 859.63 -1.62102 -1.07486 0
M  V30 9019 C 859.913 -2.83926 2.2149 0
M  V30 9020 C 859.766 -2.52232 3.72423 0
M  V30 9021 C 861.085 -3.85698 2.11955 0
M  V30 9022 H 858.204 -0.56488 0.47337 0
M  V30 9023 H 860.846 -0.916421 1.66438 0
M  V30 9024 H 858.996 -3.38588 1.905 0
M  V30 9025 H 860.668 -2.0368 4.13899 0
M  V30 9026 H 858.911 -1.85286 3.92239 0
M  V30 9027 H 859.582 -3.43782 4.31877 0
M  V30 9028 H 862.058 -3.40462 2.39218 0
M  V30 9029 H 860.934 -4.73182 2.78191 0
M  V30 9030 H 861.195 -4.28083 1.10442 0
M  V30 9031 N 860.254 -1.20106 -1.0204 0
M  V30 9032 C 861.201 -0.946468 -2.10501 0
M  V30 9033 C 862.171 0.121902 -1.65652 0
M  V30 9034 O 863.356 -0.0220244 -1.90787 0
M  V30 9035 C 860.496 -0.500499 -3.41451 0
M  V30 9036 C 859.609 -1.63659 -3.998 0
M  V30 9037 C 858.744 -1.14131 -5.18794 0
M  V30 9038 C 857.783 -2.25074 -5.69217 0
M  V30 9039 N 856.92 -1.76791 -6.79477 0
M  V30 9040 H 861.76 -1.87506 -2.31615 0
M  V30 9041 H 859.297 -0.934693 -1.13587 0
M  V30 9042 H 861.255 -0.223276 -4.16602 0
M  V30 9043 H 859.885 0.391099 -3.20422 0
M  V30 9044 H 858.937 -2.02882 -3.21781 0
M  V30 9045 H 860.249 -2.47213 -4.33229 0
M  V30 9046 H 859.403 -0.819826 -6.01135 0
M  V30 9047 H 858.142 -0.275615 -4.86921 0
M  V30 9048 H 857.147 -2.58043 -4.85483 0
M  V30 9049 H 858.372 -3.12114 -6.03127 0
M  V30 9050 H 856.318 -0.925428 -6.4944 0
M  V30 9051 H 856.235 -2.53928 -7.12079 0
M  V30 9052 H 857.503 -1.47631 -7.65392 0
M  V30 9053 N 861.732 1.21287 -1.00634 0
M  V30 9054 C 862.642 2.27388 -0.577226 0
M  V30 9055 C 863.658 1.69791 0.380399 0
M  V30 9056 O 864.834 1.99918 0.2439 0
M  V30 9057 C 861.899 3.46588 0.0880532 0
M  V30 9058 C 860.96 4.19453 -0.914222 0
M  V30 9059 C 860.193 5.32962 -0.280596 0
M  V30 9060 O 860.416 5.62895 0.922265 0
M  V30 9061 O 859.35 5.93666 -0.992196 0
M  V30 9062 H 863.176 2.66289 -1.46028 0
M  V30 9063 H 860.761 1.2771 -0.775283 0
M  V30 9064 H 862.643 4.18881 0.460094 0
M  V30 9065 H 861.318 3.09585 0.945461 0
M  V30 9066 H 860.225 3.49376 -1.33744 0
M  V30 9067 H 861.558 4.6037 -1.74126 0
M  V30 9068 N 863.21 0.781244 1.36873 0
M  V30 9069 C 864.173 0.180094 2.28491 0
M  V30 9070 C 865.173 -0.617798 1.48458 0
M  V30 9071 O 866.363 -0.439991 1.68552 0
M  V30 9072 C 863.495 -0.751741 3.32508 0
M  V30 9073 H 864.688 0.987837 2.83164 0
M  V30 9074 H 862.241 0.550102 1.463 0
M  V30 9075 H 862.976 -1.58413 2.82977 0
M  V30 9076 H 862.761 -0.181649 3.91679 0
M  V30 9077 H 864.251 -1.16748 4.00949 0
M  V30 9078 N 864.689 -1.48329 0.532571 0
M  V30 9079 C 865.935 -2.028 -0.000583219 0
M  V30 9080 C 866.268 -1.40858 -1.33688 0
M  V30 9081 O 865.543 -0.555261 -1.86406 0
M  V30 9082 C 865.826 -3.59901 -0.119846 0
M  V30 9083 C 865.679 -4.32318 1.2418 0
M  V30 9084 C 866.998 -4.31904 -0.845372 0
M  V30 9085 H 864.117 -0.736999 0.00126205 0
M  V30 9086 H 866.759 -1.77024 0.690102 0
M  V30 9087 H 864.909 -3.81993 -0.708092 0
M  V30 9088 H 866.581 -4.21637 1.87136 0
M  V30 9089 H 864.824 -3.93635 1.82301 0
M  V30 9090 H 865.495 -5.40697 1.11132 0
M  V30 9091 H 867.971 -4.14658 -0.346159 0
M  V30 9092 H 866.847 -5.41509 -0.897723 0
M  V30 9093 H 867.108 -3.99369 -1.89622 0
M  V30 9094 N 866.167 -0.267825 -1.55308 0
M  V30 9095 C 867.099 0.65591 -2.19614 0
M  V30 9096 C 868.112 1.12302 -1.17865 0
M  V30 9097 O 869.301 1.04618 -1.44628 0
M  V30 9098 C 866.401 1.90582 -2.80235 0
M  V30 9099 C 865.574 1.58673 -4.07605 0
M  V30 9100 C 864.633 2.68836 -4.52343 0
M  V30 9101 O 863.659 2.35331 -5.18274 0
M  V30 9102 N 864.861 3.98752 -4.21873 0
M  V30 9103 H 867.626 0.105566 -2.99514 0
M  V30 9104 H 865.187 -0.0886263 -1.61657 0
M  V30 9105 H 867.179 2.63561 -3.07112 0
M  V30 9106 H 865.749 2.3654 -2.04371 0
M  V30 9107 H 864.969 0.691113 -3.88094 0
M  V30 9108 H 866.257 1.34845 -4.90606 0
M  V30 9109 H 865.655 4.28797 -3.68985 0
M  V30 9110 H 864.212 4.68131 -4.53537 0
M  V30 9111 N 867.645 1.57599 0.00500368 0
M  V30 9112 C 868.891 1.90631 0.691919 0
M  V30 9113 C 869.224 0.868443 1.737 0
M  V30 9114 O 868.499 -0.113482 1.94169 0
M  V30 9115 C 868.782 3.34255 1.33961 0
M  V30 9116 C 868.635 4.48755 0.306413 0
M  V30 9117 C 869.954 3.77211 2.26715 0
M  V30 9118 H 867.073 0.693279 0.250066 0
M  V30 9119 H 869.715 1.89946 -0.0452634 0
M  V30 9120 H 867.865 3.3497 1.96793 0
M  V30 9121 H 869.537 4.60176 -0.321841 0
M  V30 9122 H 867.78 4.32203 -0.371852 0
M  V30 9123 H 868.451 5.46193 0.798554 0
M  V30 9124 H 870.927 3.78017 1.73904 0
M  V30 9125 H 869.803 4.78466 2.69002 0
M  V30 9126 H 870.064 3.10801 3.14413 0
M  V30 9127 N 869.123 -0.277682 1.55134 0
M  V30 9128 C 870.053 -1.34742 1.90701 0
M  V30 9129 C 871.034 -1.51757 0.768354 0
M  V30 9130 O 872.219 -1.64879 1.02609 0
M  V30 9131 C 869.349 -2.70775 2.17481 0
M  V30 9132 C 868.303 -2.68497 3.33307 0
M  V30 9133 C 867.629 -4.08037 3.45557 0
M  V30 9134 C 868.929 -2.28178 4.69821 0
M  V30 9135 H 870.623 -1.05224 2.803 0
M  V30 9136 H 868.169 -0.504738 1.34864 0
M  V30 9137 H 870.122 -3.45719 2.40949 0
M  V30 9138 H 868.846 -3.01867 1.24676 0
M  V30 9139 H 867.505 -1.9601 3.09799 0
M  V30 9140 H 867.153 -4.36344 2.50226 0
M  V30 9141 H 866.853 -4.07409 4.23429 0
M  V30 9142 H 868.377 -4.84726 3.71312 0
M  V30 9143 H 869.791 -2.92843 4.92865 0
M  V30 9144 H 868.188 -2.3872 5.50575 0
M  V30 9145 H 869.258 -1.23308 4.6896 0
M  V30 9146 N 870.601 -1.47988 -0.541979 0
M  V30 9147 C 871.826 -1.59286 -1.32826 0
M  V30 9148 C 872.251 -0.24894 -1.86445 0
M  V30 9149 O 871.609 0.777581 -1.63778 0
M  V30 9150 C 871.657 -2.6334 -2.46343 0
M  V30 9151 O 870.761 -2.19667 -3.49028 0
M  V30 9152 H 870.102 -0.534543 -0.393903 0
M  V30 9153 H 872.632 -1.93885 -0.653427 0
M  V30 9154 H 872.642 -2.84238 -2.92699 0
M  V30 9155 H 871.317 -3.60913 -2.06675 0
M  V30 9156 H 869.894 -2.08932 -3.08872 0
M  V30 9157 N 872.079 0.78992 -1.36375 0
M  V30 9158 C 872.989 1.93386 -1.32812 0
M  V30 9159 C 874.005 1.72468 -0.230377 0
M  V30 9160 O 875.181 1.96014 -0.462657 0
M  V30 9161 C 872.246 3.2824 -1.11621 0
M  V30 9162 C 871.307 3.61939 -2.30865 0
M  V30 9163 C 870.54 4.90359 -2.10675 0
M  V30 9164 O 870.763 5.6005 -1.08168 0
M  V30 9165 O 869.697 5.22702 -2.9844 0
M  V30 9166 H 873.523 1.99342 -2.29121 0
M  V30 9167 H 871.108 0.9301 -1.16917 0
M  V30 9168 H 872.99 4.08939 -1.01719 0
M  V30 9169 H 871.665 3.23178 -0.183732 0
M  V30 9170 H 870.572 2.81549 -2.46335 0
M  V30 9171 H 871.905 3.71725 -3.22617 0
M  V30 9172 N 873.557 1.20646 1.01402 0
M  V30 9173 C 874.782 1.04462 1.79172 0
M  V30 9174 C 875.207 -0.401588 1.83763 0
M  V30 9175 O 874.565 -1.28934 1.27459 0
M  V30 9176 C 874.613 1.63583 3.21361 0
M  V30 9177 O 873.717 0.875198 4.03006 0
M  V30 9178 H 873.058 0.368235 0.552539 0
M  V30 9179 H 875.588 1.59994 1.27526 0
M  V30 9180 H 875.598 1.67426 3.72065 0
M  V30 9181 H 874.273 2.68835 3.17334 0
M  V30 9182 H 872.85 0.911172 3.61597 0
M  V30 9183 N 875.035 -1.20752 1.01276 0
M  V30 9184 C 876.283 -1.89645 0.698505 0
M  V30 9185 C 876.604 -1.78986 -0.773883 0
M  V30 9186 O 875.874 -1.18977 -1.55632 0
M  V30 9187 H 874.454 -0.701992 0.255375 0
M  V30 9188 H 877.116 -1.46668 1.28353 0
M  V30 9189 H 876.212 -2.96364 0.978512 0
M  V30 9190 N 876.513 -0.788492 -1.36457 0
M  V30 9191 C 877.759 -0.360995 -1.99561 0
M  V30 9192 C 878.092 1.06433 -1.62437 0
M  V30 9193 O 877.367 1.7352 -0.878705 0
M  V30 9194 C 877.65 -0.523735 -3.56271 0
M  V30 9195 C 877.503 -1.99268 -4.03252 0
M  V30 9196 C 878.822 0.0617908 -4.40057 0
M  V30 9197 H 875.941 -0.13264 -0.724966 0
M  V30 9198 H 878.583 -0.994659 -1.61884 0
M  V30 9199 H 876.733 0.0156979 -3.88497 0
M  V30 9200 H 878.405 -2.59311 -3.81518 0
M  V30 9201 H 876.648 -2.49561 -3.54826 0
M  V30 9202 H 877.319 -2.05752 -5.12221 0
M  V30 9203 H 879.795 -0.398674 -4.14186 0
M  V30 9204 H 878.671 -0.0821089 -5.48839 0
M  V30 9205 H 878.932 1.15381 -4.26778 0
M  V30 9206 N 877.991 1.48044 -0.54043 0
M  V30 9207 C 879.216 2.07396 -0.0124765 0
M  V30 9208 C 879.641 1.39288 1.26414 0
M  V30 9209 O 878.999 0.462252 1.75308 0
M  V30 9210 C 879.047 3.60131 0.18377 0
M  V30 9211 O 878.151 3.92995 1.25014 0
M  V30 9212 H 877.492 0.662554 -0.0438026 0
M  V30 9213 H 880.022 1.90306 -0.751327 0
M  V30 9214 H 880.032 4.06003 0.403197 0
M  V30 9215 H 878.707 4.09105 -0.74874 0
M  V30 9216 H 877.284 3.5889 1.01254 0
M  V30 9217 N 879.47 0.276058 1.55163 0
M  V30 9218 C 880.716 -0.340959 1.99913 0
M  V30 9219 C 881.049 -1.55434 1.16422 0
M  V30 9220 O 880.324 -1.93081 0.234517 0
M  V30 9221 C 880.607 -0.722211 3.52783 0
M  V30 9222 C 880.46 0.498575 4.47028 0
M  V30 9223 C 881.779 -1.5583 4.11589 0
M  V30 9224 H 878.898 -0.122455 0.726756 0
M  V30 9225 H 881.54 0.38319 1.86096 0
M  V30 9226 H 879.69 -1.33919 3.64689 0
M  V30 9227 H 881.362 1.13713 4.47065 0
M  V30 9228 H 879.605 1.13646 4.18649 0
M  V30 9229 H 880.276 0.188041 5.5168 0
M  V30 9230 H 882.752 -1.03722 4.02965 0
M  V30 9231 H 881.628 -1.79387 5.1876 0
M  V30 9232 H 881.889 -2.53963 3.61877 0
M  V30 9233 N 880.948 -1.576 0.00335426 0
M  V30 9234 C 881.895 -2.08632 -0.986975 0
M  V30 9235 C 882.865 -0.982491 -1.33927 0
M  V30 9236 O 884.05 -1.25513 -1.43705 0
M  V30 9237 C 881.19 -2.59705 -2.27261 0
M  V30 9238 C 880.303 -3.84002 -1.97905 0
M  V30 9239 C 879.438 -4.23563 -3.20574 0
M  V30 9240 C 878.477 -5.40688 -2.8692 0
M  V30 9241 N 877.614 -5.75526 -4.02136 0
M  V30 9242 H 882.454 -2.92977 -0.544855 0
M  V30 9243 H 879.991 -1.44831 -0.257376 0
M  V30 9244 H 881.949 -2.87395 -3.02423 0
M  V30 9245 H 880.579 -1.7823 -2.69136 0
M  V30 9246 H 879.631 -3.63199 -1.13096 0
M  V30 9247 H 880.943 -4.69261 -1.69102 0
M  V30 9248 H 880.097 -4.52554 -4.04079 0
M  V30 9249 H 878.836 -3.37019 -3.52518 0
M  V30 9250 H 877.841 -5.11417 -2.01822 0
M  V30 9251 H 879.066 -6.2891 -2.5622 0
M  V30 9252 H 877.012 -4.9194 -4.33971 0
M  V30 9253 H 876.929 -6.55367 -3.76869 0
M  V30 9254 H 878.197 -6.0911 -4.8642 0
M  V30 9255 N 882.426 0.269451 -1.5528 0
M  V30 9256 C 883.359 1.3588 -1.83336 0
M  V30 9257 C 884.337 1.4739 -0.68666 0
M  V30 9258 O 885.521 1.63959 -0.930037 0
M  V30 9259 C 882.648 2.73483 -1.99812 0
M  V30 9260 C 881.694 2.79239 -3.22378 0
M  V30 9261 S 882.527 2.38125 -4.79642 0
M  V30 9262 C 883.683 3.77697 -4.99095 0
M  V30 9263 H 883.916 1.11878 -2.75446 0
M  V30 9264 H 881.449 0.469268 -1.47096 0
M  V30 9265 H 883.407 3.52725 -2.09989 0
M  V30 9266 H 882.068 2.94735 -1.08583 0
M  V30 9267 H 881.261 3.80243 -3.30804 0
M  V30 9268 H 880.863 2.08022 -3.1081 0
M  V30 9269 H 883.155 4.72999 -4.85055 0
M  V30 9270 H 884.098 3.7422 -6.01136 0
M  V30 9271 H 884.506 3.69164 -4.27058 0
M  V30 9272 N 883.904 1.48273 0.534124 0
M  V30 9273 C 885.153 1.55334 1.28663 0
M  V30 9274 C 885.466 0.230345 1.94239 0
M  V30 9275 O 886.672 0.179161 2.70908 0
M  V30 9276 C 885.128 2.73927 2.33435 0
M  V30 9277 C 884.736 4.12852 1.73947 0
M  V30 9278 C 886.48 2.90298 3.09722 0
M  V30 9279 C 884.387 5.22711 2.76636 0
M  V30 9280 H 883.317 0.578262 0.483869 0
M  V30 9281 H 885.968 1.74598 0.564602 0
M  V30 9282 H 884.35 2.48089 3.08655 0
M  V30 9283 H 885.524 4.48691 1.04944 0
M  V30 9284 H 883.839 4.01562 1.10167 0
M  V30 9285 H 886.436 3.69542 3.86449 0
M  V30 9286 H 886.779 1.99598 3.6533 0
M  V30 9287 H 887.312 3.16017 2.41616 0
M  V30 9288 H 884.051 6.15362 2.25852 0
M  V30 9289 H 883.571 4.91364 3.43979 0
M  V30 9290 H 885.25 5.50648 3.39699 0
M  V30 9291 N 885.382 -0.782676 1.36792 0
M  V30 9292 C 886.61 -1.57162 1.34565 0
M  V30 9293 C 887.025 -1.88664 -0.0715501 0
M  V30 9294 O 886.382 -1.50633 -1.03033 0
M  V30 9295 C 886.433 -2.88854 2.1736 0
M  V30 9296 O 886.154 -2.58707 3.53557 0
M  V30 9297 C 887.655 -3.83132 2.2299 0
M  V30 9298 H 884.875 -0.487245 0.461338 0
M  V30 9299 H 887.419 -0.970905 1.79982 0
M  V30 9300 H 885.574 -3.45377 1.7548 0
M  V30 9301 H 885.988 -3.42961 3.96835 0
M  V30 9302 H 887.462 -4.72575 2.85266 0
M  V30 9303 H 887.939 -4.21472 1.23524 0
M  V30 9304 H 888.545 -3.32541 2.65135 0
M  V30 9305 N 886.86 -1.21182 -1.00761 0
M  V30 9306 C 888.108 -1.02543 -1.74153 0
M  V30 9307 C 888.429 0.442372 -1.89916 0
M  V30 9308 O 887.699 1.31927 -1.44818 0
M  V30 9309 H 886.279 -0.37644 -0.645214 0
M  V30 9310 H 888.941 -1.52446 -1.21434 0
M  V30 9311 H 888.037 -1.49122 -2.7417 0
M  V30 9312 N 888.338 1.20213 -1.01915 0
M  V30 9313 C 889.615 1.85348 -0.62495 0
M  V30 9314 C 889.995 1.91101 0.896854 0
M  V30 9315 O 889.343 1.42075 1.78961 0
M  V30 9316 C 889.553 3.24849 -1.27571 0
M  V30 9317 C 890.901 4.01107 -1.39277 0
M  V30 9318 O 891.925 3.34211 -1.23212 0
M  V30 9319 O 890.784 5.20914 -1.6526 0
M  V30 9320 H 887.878 0.798303 -0.215965 0
M  V30 9321 H 890.424 1.27782 -1.11669 0
M  V30 9322 H 889.196 3.1544 -2.31545 0
M  V30 9323 H 888.819 3.90049 -0.77122 0
M  V30 9324 N 889.816 0.795718 1.36037 0
M  V30 9325 C 890.779 0.204318 2.28287 0
M  V30 9326 C 891.779 -0.602017 1.49105 0
M  V30 9327 O 892.969 -0.422089 1.69009 0
M  V30 9328 C 890.101 -0.716431 3.33287 0
M  V30 9329 H 891.294 1.01781 2.821 0
M  V30 9330 H 888.847 0.565588 1.45708 0
M  V30 9331 H 889.582 -1.55403 2.84641 0
M  V30 9332 H 889.367 -0.140096 3.9185 0
M  V30 9333 H 890.857 -1.12488 4.02164 0
M  V30 9334 N 891.294 -1.47756 0.548274 0
M  V30 9335 C 892.224 -2.32702 -0.19284 0
M  V30 9336 C 893.205 -1.43237 -0.917457 0
M  V30 9337 O 894.39 -1.72103 -0.89967 0
M  V30 9338 C 891.52 -3.24831 -1.22891 0
M  V30 9339 C 890.474 -4.23466 -0.621312 0
M  V30 9340 C 889.8 -5.04856 -1.76137 0
M  V30 9341 C 891.1 -5.20616 0.419055 0
M  V30 9342 H 892.794 -2.94914 0.516323 0
M  V30 9343 H 890.34 -1.41818 0.24975 0
M  V30 9344 H 892.293 -3.83094 -1.75547 0
M  V30 9345 H 891.017 -2.60656 -1.9679 0
M  V30 9346 H 889.676 -3.66416 -0.116123 0
M  V30 9347 H 889.324 -4.37091 -2.48918 0
M  V30 9348 H 889.024 -5.71629 -1.36065 0
M  V30 9349 H 890.548 -5.65976 -2.29136 0
M  V30 9350 H 891.962 -5.73296 -0.0211034 0
M  V30 9351 H 890.359 -5.95543 0.738163 0
M  V30 9352 H 891.429 -4.66638 1.31822 0
M  V30 9353 N 892.772 -0.284283 -1.55015 0
M  V30 9354 C 893.682 0.60906 -2.26556 0
M  V30 9355 C 894.698 1.16246 -1.29472 0
M  V30 9356 O 895.874 1.1908 -1.62425 0
M  V30 9357 C 892.939 1.77246 -2.97968 0
M  V30 9358 C 892 1.25482 -4.10552 0
M  V30 9359 C 891.233 2.36277 -4.78549 0
M  V30 9360 O 891.456 3.55829 -4.45805 0
M  V30 9361 O 890.39 2.03914 -5.66306 0
M  V30 9362 H 894.216 0.0292298 -3.03686 0
M  V30 9363 H 891.801 -0.0513466 -1.49312 0
M  V30 9364 H 893.683 2.45062 -3.42815 0
M  V30 9365 H 892.358 2.33921 -2.23747 0
M  V30 9366 H 891.265 0.542859 -3.7014 0
M  V30 9367 H 892.598 0.733708 -4.86701 0
M  V30 9368 N 894.251 1.57596 -0.0117121 0
M  V30 9369 C 895.479 1.9536 0.681334 0
M  V30 9370 C 895.894 0.887255 1.66653 0
M  V30 9371 O 895.251 -0.132692 1.82017 0
M  V30 9372 C 895.302 3.33165 1.40298 0
M  V30 9373 O 895.023 4.35707 0.45728 0
M  V30 9374 C 896.524 3.85458 2.18946 0
M  V30 9375 H 893.744 0.643826 0.189023 0
M  V30 9376 H 896.288 2.04392 -0.066311 0
M  V30 9377 H 894.443 3.25404 2.10216 0
M  V30 9378 H 894.857 5.15495 0.96773 0
M  V30 9379 H 896.331 4.84275 2.64918 0
M  V30 9380 H 896.808 3.18781 3.02118 0
M  V30 9381 H 897.414 3.96431 1.5402 0
M  V30 9382 N 895.729 -0.261212 1.5542 0
M  V30 9383 C 896.692 -1.30645 1.8832 0
M  V30 9384 C 897.692 -1.41782 0.758588 0
M  V30 9385 O 898.882 -1.40729 1.02669 0
M  V30 9386 C 896.014 -2.6862 2.09895 0
M  V30 9387 H 897.207 -1.02698 2.81768 0
M  V30 9388 H 894.76 -0.499838 1.48092 0
M  V30 9389 H 895.495 -3.0173 1.18868 0
M  V30 9390 H 895.28 -2.61921 2.91787 0
M  V30 9391 H 896.77 -3.44121 2.36581 0
M  V30 9392 N 897.207 -1.48554 -0.526253 0
M  V30 9393 C 898.137 -1.66252 -1.63959 0
M  V30 9394 C 899.118 -0.511351 -1.62232 0
M  V30 9395 O 900.303 -0.744322 -1.7937 0
M  V30 9396 C 897.433 -1.70556 -3.02536 0
M  V30 9397 C 896.387 -2.8521 -3.19123 0
M  V30 9398 C 895.713 -2.74606 -4.58798 0
M  V30 9399 C 897.013 -4.26463 -3.0154 0
M  V30 9400 H 898.707 -2.59459 -1.49404 0
M  V30 9401 H 896.253 -1.24862 -0.717326 0
M  V30 9402 H 898.206 -1.81524 -3.80298 0
M  V30 9403 H 896.93 -0.739297 -3.18123 0
M  V30 9404 H 895.589 -2.73802 -2.43779 0
M  V30 9405 H 895.237 -1.75941 -4.71226 0
M  V30 9406 H 894.937 -3.51544 -4.70841 0
M  V30 9407 H 896.461 -2.87548 -5.38655 0
M  V30 9408 H 897.875 -4.38685 -3.69091 0
M  V30 9409 H 896.272 -5.04428 -3.25073 0
M  V30 9410 H 897.342 -4.42667 -1.97925 0
M  V30 9411 N 898.685 0.775411 -1.37205 0
M  V30 9412 C 899.648 1.8702 -1.325 0
M  V30 9413 C 900.648 1.5915 -0.229793 0
M  V30 9414 O 901.838 1.673 -0.485423 0
M  V30 9415 C 898.97 3.24085 -1.05745 0
M  V30 9416 H 900.163 1.92604 -2.29878 0
M  V30 9417 H 897.716 0.97476 -1.22181 0
M  V30 9418 H 898.451 3.24178 -0.0888371 0
M  V30 9419 H 898.236 3.45705 -1.85016 0
M  V30 9420 H 899.726 4.0416 -1.05094 0
M  V30 9421 N 900.163 1.21714 1.00117 0
M  V30 9422 C 901.412 1.03087 1.73367 0
M  V30 9423 C 901.725 -0.435532 1.90689 0
M  V30 9424 O 902.931 -0.741291 2.61184 0
M  V30 9425 C 901.387 1.79593 3.11888 0
M  V30 9426 C 900.995 3.30428 3.02525 0
M  V30 9427 C 902.739 1.69386 3.89241 0
M  V30 9428 C 900.646 3.99408 4.3615 0
M  V30 9429 H 899.576 0.382117 0.650002 0
M  V30 9430 H 902.227 1.45486 1.11831 0
M  V30 9431 H 900.609 1.29988 3.74058 0
M  V30 9432 H 901.783 3.87364 2.49571 0
M  V30 9433 H 900.098 3.4122 2.38659 0
M  V30 9434 H 902.695 2.18251 4.8813 0
M  V30 9435 H 903.038 0.652773 4.1115 0
M  V30 9436 H 903.571 2.16489 3.33733 0
M  V30 9437 H 900.31 5.03735 4.19442 0
M  V30 9438 H 899.83 3.47261 4.8905 0
M  V30 9439 H 901.509 4.04537 5.04934 0
M  V30 9440 N 901.641 -1.19671 1.02551 0
M  V30 9441 C 902.889 -1.88894 0.71858 0
M  V30 9442 C 903.21 -1.79797 -0.754856 0
M  V30 9443 O 902.48 -1.20621 -1.54362 0
M  V30 9444 H 901.06 -0.699244 0.262806 0
M  V30 9445 H 903.722 -1.45298 1.29902 0
M  V30 9446 H 902.818 -2.95309 1.00989 0
M  V30 9447 N 903.119 -0.802921 -1.35613 0
M  V30 9448 C 904.535 -0.486214 -1.52014 0
M  V30 9449 C 904.735 0.993219 -1.75321 0
M  V30 9450 O 903.791 1.77835 -1.79251 0
M  V30 9451 C 905.104 -1.32839 -2.69767 0
M  V30 9452 C 906.652 -1.32346 -2.83643 0
M  V30 9453 C 907.127 -2.14967 -4.04417 0
M  V30 9454 N 908.618 -2.12484 -4.11588 0
M  V30 9455 C 909.353 -2.73173 -5.04147 0
M  V30 9456 N 908.849 -3.42774 -6.02061 0
M  V30 9457 N 910.642 -2.62834 -4.96865 0
M  V30 9458 H 902.793 -1.76109 -1.18741 0
M  V30 9459 H 905.056 -0.74936 -0.580658 0
M  V30 9460 H 904.762 -2.37813 -2.5911 0
M  V30 9461 H 904.636 -0.979058 -3.64272 0
M  V30 9462 H 907.023 -0.281586 -2.93753 0
M  V30 9463 H 907.104 -1.71264 -1.90006 0
M  V30 9464 H 906.748 -3.19193 -3.95068 0
M  V30 9465 H 906.678 -1.73411 -4.97228 0
M  V30 9466 H 909.169 -1.61839 -3.41492 0
M  V30 9467 H 909.482 -3.86378 -6.69277 0
M  V30 9468 H 907.827 -3.46878 -6.02246 0
M  V30 9469 H 911.018 -2.08049 -4.19325 0
M  V30 9470 H 911.191 -3.10421 -5.68808 0
M  V30 9471 N 904.597 1.47463 -0.556102 0
M  V30 9472 C 905.545 2.31692 0.205299 0
M  V30 9473 C 906.539 1.42857 0.910394 0
M  V30 9474 O 907.745 1.59628 0.831806 0
M  V30 9475 H 904.12 0.747172 0.0850775 0
M  V30 9476 H 906.091 2.93758 -0.524305 0
M  V30 9477 C 904.84 3.25487 1.22283 0
M  V30 9478 H 904.163 3.93806 0.689697 0
M  V30 9479 H 905.603 3.87257 1.7265 0
M  V30 9480 C 904.062 2.48931 2.27013 0
M  V30 9481 O 904.592 2.23296 3.33919 0
M  V30 9482 N 902.798 2.0996 2.00911 0
M  V30 9483 H 902.345 2.31008 1.13986 0
M  V30 9484 H 902.303 1.59053 2.712 0
M  V30 9485 N 906.075 0.2925 1.54862 0
M  V30 9486 C 907.324 -0.319994 1.99146 0
M  V30 9487 C 907.637 -1.55658 1.18448 0
M  V30 9488 O 908.843 -2.24312 1.52959 0
M  V30 9489 C 907.299 -0.620665 3.54508 0
M  V30 9490 C 906.907 0.597098 4.44003 0
M  V30 9491 C 908.651 -1.19482 4.07338 0
M  V30 9492 C 906.558 0.270049 5.90783 0
M  V30 9493 H 905.488 -0.123342 0.743843 0
M  V30 9494 H 908.139 0.399876 1.7909 0
M  V30 9495 H 906.521 -1.3999 3.7043 0
M  V30 9496 H 907.695 1.37354 4.39853 0
M  V30 9497 H 906.01 1.0893 4.019 0
M  V30 9498 H 908.607 -1.45362 5.14562 0
M  V30 9499 H 908.95 -2.13435 3.57423 0
M  V30 9500 H 909.483 -0.477485 3.94924 0
M  V30 9501 H 906.222 1.17791 6.4483 0
M  V30 9502 H 905.742 -0.469292 5.97961 0
M  V30 9503 H 907.421 -0.131471 6.46866 0
M  V30 9504 N 907.553 -1.57587 0.0200696 0
M  V30 9505 C 908.801 -1.91046 -0.65922 0
M  V30 9506 C 909.122 -0.896197 -1.73186 0
M  V30 9507 O 908.392 0.0635952 -1.95797 0
M  V30 9508 H 906.972 -0.705163 -0.246483 0
M  V30 9509 H 909.634 -1.94789 0.0657368 0
M  V30 9510 H 908.73 -2.91399 -1.11773 0
M  V30 9511 N 909.032 0.252966 -1.55557 0
M  V30 9512 C 909.962 1.31691 -1.9282 0
M  V30 9513 C 910.943 1.50516 -0.7924 0
M  V30 9514 O 912.128 1.63225 -1.05219 0
M  V30 9515 C 909.258 2.67281 -2.21762 0
M  V30 9516 C 908.212 2.6316 -3.37536 0
M  V30 9517 C 907.538 4.02488 -3.52005 0
M  V30 9518 C 908.838 2.20675 -4.73392 0
M  V30 9519 H 910.532 1.00751 -2.81939 0
M  V30 9520 H 908.078 0.483219 -1.3565 0
M  V30 9521 H 910.031 3.41842 -2.46419 0
M  V30 9522 H 908.755 2.99845 -1.29463 0
M  V30 9523 H 907.414 1.91057 -3.12878 0
M  V30 9524 H 907.062 4.32307 -2.57137 0
M  V30 9525 H 906.762 4.00621 -4.29857 0
M  V30 9526 H 908.286 4.78758 -3.78977 0
M  V30 9527 H 909.7 2.84965 -4.97461 0
M  V30 9528 H 908.097 2.29931 -5.54303 0
M  V30 9529 H 909.167 1.15831 -4.70862 0
M  V30 9530 N 910.51 1.48831 0.518367 0
M  V30 9531 C 911.75 1.59045 1.28391 0
M  V30 9532 C 912.114 0.263443 1.90184 0
M  V30 9533 O 913.315 0.24064 2.67721 0
M  V30 9534 C 911.586 2.70536 2.33548 0
M  V30 9535 S 913.145 3.00591 3.19673 0
M  V30 9536 H 909.963 0.561182 0.436573 0
M  V30 9537 H 912.565 1.86409 0.589222 0
M  V30 9538 H 911.269 3.65499 1.86652 0
M  V30 9539 H 910.8 2.4511 3.07708 0
M  V30 9540 H 912.815 2.40779 4.33866 0
M  V30 9541 N 911.988 -0.768124 1.37614 0
M  V30 9542 C 912.936 -1.9029 1.33763 0
M  V30 9543 C 913.93 -1.67888 0.225814 0
M  V30 9544 O 915.136 -1.75634 0.394043 0
M  V30 9545 H 911.511 -0.625828 0.416945 0
M  V30 9546 H 913.482 -1.90654 2.29551 0
M  V30 9547 C 912.231 -3.27598 1.16511 0
M  V30 9548 H 911.554 -3.45414 2.01318 0
M  V30 9549 H 912.994 -4.07288 1.17867 0
M  V30 9550 C 911.453 -3.36653 -0.129001 0
M  V30 9551 O 911.983 -3.86023 -1.11128 0
M  V30 9552 N 910.189 -2.90036 -0.180926 0
M  V30 9553 H 909.736 -2.5005 0.619076 0
M  V30 9554 H 909.694 -2.96475 -1.04641 0
M  V30 9555 N 913.466 -1.22244 -0.994698 0
M  V30 9556 C 914.714 -1.04384 -1.73056 0
M  V30 9557 C 915.035 0.422204 -1.90374 0
M  V30 9558 O 914.305 1.30383 -1.46209 0
M  V30 9559 H 912.885 -0.383263 -0.641185 0
M  V30 9560 H 915.547 -1.53725 -1.1981 0
M  V30 9561 H 914.643 -1.52021 -2.72573 0
M  V30 9562 N 914.944 1.19125 -1.03184 0
M  V30 9563 C 915.891 2.2245 -0.6152 0
M  V30 9564 C 916.861 1.61869 0.372502 0
M  V30 9565 O 918.046 1.88901 0.268491 0
M  V30 9566 C 915.186 3.45091 0.0248027 0
M  V30 9567 C 914.299 4.20044 -1.0093 0
M  V30 9568 C 913.434 5.30119 -0.338744 0
M  V30 9569 C 912.473 5.96833 -1.35855 0
M  V30 9570 N 911.61 6.98464 -0.713594 0
M  V30 9571 H 916.45 2.57445 -1.50086 0
M  V30 9572 H 913.987 1.26485 -0.751005 0
M  V30 9573 H 915.945 4.15149 0.413131 0
M  V30 9574 H 914.575 3.10742 0.874028 0
M  V30 9575 H 913.627 3.48901 -1.51566 0
M  V30 9576 H 914.939 4.65796 -1.78425 0
M  V30 9577 H 914.093 6.0661 0.104269 0
M  V30 9578 H 912.832 4.85446 0.468382 0
M  V30 9579 H 911.837 5.1909 -1.81179 0
M  V30 9580 H 913.062 6.4359 -2.16722 0
M  V30 9581 H 911.008 6.55959 0.0733863 0
M  V30 9582 H 910.925 7.42422 -1.42638 0
M  V30 9583 H 912.193 7.78943 -0.294681 0
M  V30 9584 N 916.422 0.810101 1.35185 0
M  V30 9585 C 917.352 0.237453 2.32289 0
M  V30 9586 C 918.333 -0.639032 1.5764 0
M  V30 9587 O 919.518 -0.568575 1.8569 0
M  V30 9588 C 916.648 -0.611964 3.41866 0
M  V30 9589 C 915.602 0.166318 4.27677 0
M  V30 9590 C 914.928 -0.805024 5.28605 0
M  V30 9591 C 916.228 1.36729 5.04086 0
M  V30 9592 H 917.922 1.04874 2.80432 0
M  V30 9593 H 915.468 0.505751 1.34826 0
M  V30 9594 H 917.421 -1.02267 4.08802 0
M  V30 9595 H 916.145 -1.45617 2.92341 0
M  V30 9596 H 914.804 0.558238 3.62325 0
M  V30 9597 H 914.452 -1.64483 4.75347 0
M  V30 9598 H 914.152 -0.288577 5.86891 0
M  V30 9599 H 915.676 -1.21386 5.98413 0
M  V30 9600 H 917.09 1.03128 5.63948 0
M  V30 9601 H 915.487 1.81848 5.71884 0
M  V30 9602 H 916.557 2.15214 4.34524 0
M  V30 9603 N 917.9 -1.47166 0.563914 0
M  V30 9604 C 918.832 -2.28165 -0.217583 0
M  V30 9605 C 919.845 -1.37405 -0.873134 0
M  V30 9606 O 921.034 -1.6217 -0.745857 0
M  V30 9607 C 918.134 -3.11873 -1.32621 0
M  V30 9608 C 917.307 -4.30637 -0.766177 0
M  V30 9609 C 916.366 -4.95889 -1.76014 0
M  V30 9610 O 915.392 -5.54071 -1.3036 0
M  V30 9611 N 916.594 -4.91191 -3.09373 0
M  V30 9612 H 919.359 -2.95876 0.477256 0
M  V30 9613 H 916.92 -1.5687 0.40043 0
M  V30 9614 H 918.912 -3.52392 -1.99003 0
M  V30 9615 H 917.482 -2.46361 -1.92419 0
M  V30 9616 H 916.702 -3.94129 0.0745998 0
M  V30 9617 H 917.99 -5.07442 -0.371472 0
M  V30 9618 H 917.388 -4.45133 -3.49104 0
M  V30 9619 H 915.945 -5.35708 -3.71295 0
M  V30 9620 N 919.378 -0.300708 -1.54705 0
M  V30 9621 C 920.341 0.562648 -2.22187 0
M  V30 9622 C 921.341 1.06152 -1.20782 0
M  V30 9623 O 922.531 0.957596 -1.45519 0
M  V30 9624 C 919.663 1.77899 -2.908 0
M  V30 9625 H 920.856 -0.0269361 -2.99888 0
M  V30 9626 H 918.409 -0.0515412 -1.56215 0
M  V30 9627 H 919.144 2.40841 -2.17177 0
M  V30 9628 H 918.929 1.42892 -3.65136 0
M  V30 9629 H 920.419 2.39236 -3.42281 0
M  V30 9630 N 920.856 1.57574 -0.0284266 0
M  V30 9631 C 921.789 2.05684 0.988401 0
M  V30 9632 C 922.767 0.952468 1.31783 0
M  V30 9633 O 923.951 1.22274 1.43462 0
M  V30 9634 C 921.078 2.47832 2.30862 0
M  V30 9635 C 920.124 3.69282 2.13384 0
M  V30 9636 S 920.957 5.15962 1.43331 0
M  V30 9637 C 922.113 5.61404 2.76723 0
M  V30 9638 H 922.346 2.9161 0.578873 0
M  V30 9639 H 919.879 1.53309 0.183244 0
M  V30 9640 H 921.837 2.7278 3.06759 0
M  V30 9641 H 920.498 1.62253 2.68947 0
M  V30 9642 H 919.691 3.96618 3.10983 0
M  V30 9643 H 919.293 3.44482 1.45629 0
M  V30 9644 H 921.585 5.65601 3.72963 0
M  V30 9645 H 922.528 6.60956 2.54053 0
M  V30 9646 H 922.936 4.89051 2.81939 0
M  V30 9647 N 922.334 -0.244713 1.55689 0
M  V30 9648 C 923.559 -0.994157 1.8202 0
M  V30 9649 C 923.984 -1.78079 0.60577 0
M  V30 9650 O 923.342 -1.75748 -0.445221 0
M  V30 9651 C 923.39 -1.90599 3.06111 0
M  V30 9652 O 922.494 -2.99804 2.8318 0
M  V30 9653 H 921.835 -0.282767 0.600782 0
M  V30 9654 H 924.365 -0.26504 2.02876 0
M  V30 9655 H 924.375 -2.32023 3.35603 0
M  V30 9656 H 923.05 -1.32763 3.9414 0
M  V30 9657 H 921.627 -2.62493 2.64862 0
M  V30 9658 N 923.813 -1.49104 -0.510467 0
M  V30 9659 C 925.061 -1.578 -1.26268 0
M  V30 9660 C 925.382 -0.262349 -1.93227 0
M  V30 9661 O 924.652 0.717624 -1.82283 0
M  V30 9662 H 923.232 -0.581387 -0.46904 0
M  V30 9663 H 925.894 -1.85678 -0.592423 0
M  V30 9664 H 924.99 -2.36919 -2.03165 0
M  V30 9665 N 925.291 0.760815 -1.38019 0
M  V30 9666 C 926.201 1.90526 -1.36884 0
M  V30 9667 C 927.217 1.71941 -0.266908 0
M  V30 9668 O 928.393 1.94988 -0.50413 0
M  V30 9669 C 925.458 3.25799 -1.18558 0
M  V30 9670 C 924.519 3.56961 -2.3849 0
M  V30 9671 C 923.752 4.8578 -2.21029 0
M  V30 9672 O 923.975 5.57629 -1.20023 0
M  V30 9673 O 922.909 5.16254 -3.0946 0
M  V30 9674 H 926.735 1.94437 -2.33298 0
M  V30 9675 H 924.32 0.905091 -1.18863 0
M  V30 9676 H 926.202 4.0669 -1.1037 0
M  V30 9677 H 924.877 3.22716 -0.252241 0
M  V30 9678 H 923.784 2.7626 -2.52252 0
M  V30 9679 H 925.117 3.64798 -3.30429 0
M  V30 9680 N 926.769 1.22769 0.988202 0
M  V30 9681 C 927.679 1.01844 2.11341 0
M  V30 9682 C 928.695 -0.0346937 1.73965 0
M  V30 9683 O 929.871 0.159061 2.00771 0
M  V30 9684 C 926.936 0.603837 3.41401 0
M  V30 9685 C 925.997 1.73113 3.92849 0
M  V30 9686 C 925.23 1.33621 5.16702 0
M  V30 9687 O 925.453 0.217041 5.69987 0
M  V30 9688 O 924.387 2.15444 5.62021 0
M  V30 9689 H 928.213 1.96127 2.31879 0
M  V30 9690 H 925.798 1.01405 1.09715 0
M  V30 9691 H 927.68 0.383196 4.19654 0
M  V30 9692 H 926.355 -0.310082 3.22211 0
M  V30 9693 H 925.262 2.00634 3.15748 0
M  V30 9694 H 926.595 2.62308 4.1648 0
M  V30 9695 N 928.247 -1.18576 1.03814 0
M  V30 9696 C 929.493 -1.88773 0.741132 0
M  V30 9697 C 929.826 -1.79993 -0.729127 0
M  V30 9698 O 929.101 -1.19851 -1.53186 0
M  V30 9699 C 929.384 -3.39352 1.20468 0
M  V30 9700 C 929.237 -3.56955 2.73684 0
M  V30 9701 C 930.556 -4.32901 0.792741 0
M  V30 9702 H 927.675 -0.685482 0.270708 0
M  V30 9703 H 930.317 -1.39523 1.2897 0
M  V30 9704 H 928.467 -3.81427 0.737974 0
M  V30 9705 H 930.139 -3.2399 3.28372 0
M  V30 9706 H 928.382 -2.99696 3.13632 0
M  V30 9707 H 929.053 -4.62598 3.01176 0
M  V30 9708 H 931.529 -3.98592 1.1943 0
M  V30 9709 H 930.405 -5.36828 1.14486 0
M  V30 9710 H 930.666 -4.41052 -0.304295 0
M  V30 9711 N 929.725 -0.817259 -1.34754 0
M  V30 9712 C 931.002 -0.325468 -1.92873 0
M  V30 9713 C 931.382 1.18643 -1.74606 0
M  V30 9714 O 930.73 1.9909 -1.1214 0
M  V30 9715 C 930.94 -0.74858 -3.40877 0
M  V30 9716 C 932.288 -0.744165 -4.18028 0
M  V30 9717 O 933.312 -0.690799 -3.49437 0
M  V30 9718 O 932.171 -0.812207 -5.40431 0
M  V30 9719 H 929.265 -0.0876397 -0.822343 0
M  V30 9720 H 931.811 -0.901671 -1.43764 0
M  V30 9721 H 930.583 -1.79017 -3.47949 0
M  V30 9722 H 930.206 -0.147764 -3.97325 0
M  V30 9723 N 931.203 1.46865 -0.571711 0
M  V30 9724 C 932.428 2.07323 -0.0564655 0
M  V30 9725 C 932.853 1.41938 1.23431 0
M  V30 9726 O 932.211 0.499334 1.74288 0
M  V30 9727 C 932.259 3.6044 0.107339 0
M  V30 9728 O 931.363 3.95558 1.1665 0
M  V30 9729 H 930.704 0.661475 -0.0578465 0
M  V30 9730 H 933.234 1.88669 -0.791524 0
M  V30 9731 H 933.244 4.06767 0.316987 0
M  V30 9732 H 931.919 4.07425 -0.835348 0
M  V30 9733 H 930.496 3.60957 0.936189 0
M  V30 9734 N 932.681 0.308908 1.54543 0
M  V30 9735 C 933.927 -0.298478 2.00592 0
M  V30 9736 C 934.26 -1.52929 1.19692 0
M  V30 9737 O 933.535 -1.9254 0.27542 0
M  V30 9738 C 933.818 -0.647218 3.54236 0
M  V30 9739 C 933.671 0.593284 4.4587 0
M  V30 9740 C 934.99 -1.47064 4.14801 0
M  V30 9741 H 932.109 -0.107012 0.72919 0
M  V30 9742 H 934.751 0.422578 1.85241 0
M  V30 9743 H 932.901 -1.26153 3.67447 0
M  V30 9744 H 934.573 1.2317 4.44552 0
M  V30 9745 H 932.816 1.22501 4.16144 0
M  V30 9746 H 933.487 0.305018 5.51157 0
M  V30 9747 H 935.963 -0.951511 4.05075 0
M  V30 9748 H 934.839 -1.68343 5.22448 0
M  V30 9749 H 935.1 -2.4623 3.67183 0
M  V30 9750 N 934.159 -1.57557 0.0367827 0
M  V30 9751 C 935.069 -2.14148 -0.958017 0
M  V30 9752 C 936.085 -1.09564 -1.35173 0
M  V30 9753 O 937.261 -1.4166 -1.43158 0
M  V30 9754 C 934.326 -2.6636 -2.21931 0
M  V30 9755 C 933.387 -3.85688 -1.8853 0
M  V30 9756 C 932.62 -4.35401 -3.08645 0
M  V30 9757 O 932.843 -3.8425 -4.21554 0
M  V30 9758 O 931.777 -5.27158 -2.90497 0
M  V30 9759 H 935.603 -2.99442 -0.506797 0
M  V30 9760 H 933.188 -1.48259 -0.184275 0
M  V30 9761 H 935.07 -2.99976 -2.9596 0
M  V30 9762 H 933.745 -1.84145 -2.66219 0
M  V30 9763 H 932.652 -3.56985 -1.11861 0
M  V30 9764 H 933.985 -4.69089 -1.49052 0
M  V30 9765 N 935.637 0.236453 -1.55816 0
M  V30 9766 C 936.584 1.29289 -1.91188 0
M  V30 9767 C 937.554 1.47315 -0.767301 0
M  V30 9768 O 938.739 1.61128 -1.02189 0
M  V30 9769 C 935.879 2.64126 -2.22107 0
M  V30 9770 C 934.992 2.54022 -3.49423 0
M  V30 9771 C 934.127 3.81282 -3.69861 0
M  V30 9772 C 933.166 3.65839 -4.90743 0
M  V30 9773 N 932.303 4.85014 -5.07647 0
M  V30 9774 H 937.143 0.98424 -2.81277 0
M  V30 9775 H 934.68 0.474722 -1.39229 0
M  V30 9776 H 936.638 3.42626 -2.3804 0
M  V30 9777 H 935.268 2.93118 -1.35209 0
M  V30 9778 H 934.32 1.67036 -3.41765 0
M  V30 9779 H 935.632 2.38525 -4.38072 0
M  V30 9780 H 934.786 4.68226 -3.8581 0
M  V30 9781 H 933.525 3.99688 -2.79465 0
M  V30 9782 H 932.53 2.77279 -4.74759 0
M  V30 9783 H 933.755 3.48918 -5.82609 0
M  V30 9784 H 931.701 5.03762 -4.20191 0
M  V30 9785 H 931.618 4.72188 -5.90402 0
M  V30 9786 H 932.886 5.73427 -5.28017 0
M  V30 9787 N 937.115 1.49373 0.502552 0
M  V30 9788 C 938.363 1.58467 1.25429 0
M  V30 9789 C 938.684 0.272593 1.93085 0
M  V30 9790 O 937.954 -0.707947 1.82661 0
M  V30 9791 H 936.534 0.583866 0.46595 0
M  V30 9792 H 939.196 1.8599 0.582568 0
M  V30 9793 H 938.292 2.37993 2.01906 0
M  V30 9794 N 938.594 -0.753485 1.38421 0
M  V30 9795 C 939.504 -1.89797 1.37892 0
M  V30 9796 C 940.52 -1.71797 0.276023 0
M  V30 9797 O 941.696 -1.94718 0.514464 0
M  V30 9798 C 938.761 -3.25166 1.20284 0
M  V30 9799 C 937.822 -3.55691 2.4038 0
M  V30 9800 C 937.055 -4.84601 2.23602 0
M  V30 9801 O 937.278 -5.56985 1.22979 0
M  V30 9802 O 936.212 -5.14605 3.12194 0
M  V30 9803 H 940.038 -1.93197 2.34326 0
M  V30 9804 H 937.623 -0.898775 1.19342 0
M  V30 9805 H 939.505 -4.06099 1.12525 0
M  V30 9806 H 938.18 -3.22577 0.269352 0
M  V30 9807 H 937.087 -2.74919 2.53714 0
M  V30 9808 H 938.42 -3.6304 3.32359 0
M  V30 9809 N 940.072 -1.23292 -0.981677 0
M  V30 9810 C 941.002 -1.03738 -2.09191 0
M  V30 9811 C 941.983 0.0453041 -1.7004 0
M  V30 9812 O 943.168 -0.119092 -1.93834 0
M  V30 9813 C 940.298 -0.626426 -3.41604 0
M  V30 9814 C 939.252 -1.65631 -3.94652 0
M  V30 9815 C 938.578 -1.10084 -5.23245 0
M  V30 9816 C 939.878 -3.04903 -4.24066 0
M  V30 9817 H 941.572 -1.966 -2.25807 0
M  V30 9818 H 939.118 -0.946656 -1.0851 0
M  V30 9819 H 941.071 -0.476689 -4.18695 0
M  V30 9820 H 939.795 0.337873 -3.24848 0
M  V30 9821 H 938.454 -1.79402 -3.19704 0
M  V30 9822 H 938.102 -0.127562 -5.02838 0
M  V30 9823 H 937.802 -1.78896 -5.59705 0
M  V30 9824 H 939.326 -0.962928 -6.02959 0
M  V30 9825 H 940.74 -2.94441 -4.91912 0
M  V30 9826 H 939.137 -3.70941 -4.71724 0
M  V30 9827 H 940.207 -3.53991 -3.31389 0
M  V30 9828 N 941.55 1.18024 -1.04442 0
M  V30 9829 C 942.513 2.19992 -0.643136 0
M  V30 9830 C 943.513 1.57949 0.301444 0
M  V30 9831 O 944.703 1.73986 0.0863341 0
M  V30 9832 C 941.835 3.40853 0.0565208 0
M  V30 9833 H 943.028 2.57008 -1.54554 0
M  V30 9834 H 940.581 1.31974 -0.837408 0
M  V30 9835 H 941.316 3.09373 0.972553 0
M  V30 9836 H 941.101 3.87128 -0.622439 0
M  V30 9837 H 942.591 4.16344 0.323652 0
M  V30 9838 N 943.028 0.824394 1.34319 0
M  V30 9839 C 944.305 0.335692 1.92698 0
M  V30 9840 C 944.685 -1.17715 1.75232 0
M  V30 9841 O 944.033 -1.98493 1.13194 0
M  V30 9842 C 944.243 0.766647 3.40475 0
M  V30 9843 C 945.591 0.766323 4.17627 0
M  V30 9844 O 946.615 0.709321 3.49066 0
M  V30 9845 O 945.474 0.840856 5.39992 0
M  V30 9846 H 942.568 0.0919996 0.821867 0
M  V30 9847 H 945.114 0.909282 1.43283 0
M  V30 9848 H 943.886 1.80859 3.46995 0
M  V30 9849 H 943.509 0.168833 3.97241 0
M  V30 9850 N 944.506 -1.46559 0.579492 0
M  V30 9851 C 945.922 -1.57771 0.240921 0
M  V30 9852 C 946.122 -1.57505 -1.25676 0
M  V30 9853 O 945.178 -1.4903 -2.03829 0
M  V30 9854 C 946.491 -2.87311 0.887285 0
M  V30 9855 C 948.039 -3.00937 0.860576 0
M  V30 9856 C 948.514 -4.33208 1.48642 0
M  V30 9857 N 950.005 -4.39899 1.45062 0
M  V30 9858 C 950.74 -5.40856 1.90428 0
M  V30 9859 N 950.236 -6.48503 2.43752 0
M  V30 9860 N 952.029 -5.32037 1.81364 0
M  V30 9861 H 944.18 -1.44976 1.55228 0
M  V30 9862 H 946.443 -0.691354 0.648639 0
M  V30 9863 H 946.149 -2.93307 1.94071 0
M  V30 9864 H 946.023 -3.75141 0.393577 0
M  V30 9865 H 948.41 -2.94524 -0.184223 0
M  V30 9866 H 948.491 -2.14591 1.39227 0
M  V30 9867 H 948.135 -4.40378 2.5304 0
M  V30 9868 H 948.065 -5.18323 0.92998 0
M  V30 9869 H 950.556 -3.62706 1.0608 0
M  V30 9870 H 950.869 -7.21744 2.76234 0
M  V30 9871 H 949.214 -6.49332 2.47776 0
M  V30 9872 H 952.405 -4.46841 1.39465 0
M  V30 9873 H 952.578 -6.10573 2.17035 0
M  V30 9874 N 945.984 -0.3171 -1.54377 0
M  V30 9875 C 947.23 0.287836 -2.00747 0
M  V30 9876 C 947.563 1.52292 -1.20502 0
M  V30 9877 O 946.838 1.92391 -0.285626 0
M  V30 9878 C 947.121 0.628423 -3.54574 0
M  V30 9879 C 946.974 -0.616922 -4.45549 0
M  V30 9880 C 948.293 1.44862 -4.15575 0
M  V30 9881 H 945.412 0.103144 -0.729747 0
M  V30 9882 H 948.054 -0.432396 -1.85014 0
M  V30 9883 H 946.204 1.24203 -3.68111 0
M  V30 9884 H 947.876 -1.25526 -4.43893 0
M  V30 9885 H 946.119 -1.24706 -4.15489 0
M  V30 9886 H 946.79 -0.334243 -5.50987 0
M  V30 9887 H 949.266 0.930015 -4.05574 0
M  V30 9888 H 948.142 1.6557 -5.23333 0
M  V30 9889 H 948.403 2.44279 -3.68484 0
M  V30 9890 N 947.462 1.57535 -0.0451378 0
M  V30 9891 C 948.71 1.92071 0.628743 0
M  V30 9892 C 949.031 0.923635 1.71738 0
M  V30 9893 O 948.301 -0.0324376 1.95873 0
M  V30 9894 H 946.881 0.708995 0.235233 0
M  V30 9895 H 949.543 1.9466 -0.0967177 0
M  V30 9896 H 948.639 2.9314 1.07123 0
M  V30 9897 N 948.94 -0.228186 1.55939 0
M  V30 9898 C 949.887 -1.28274 1.91871 0
M  V30 9899 C 950.857 -1.46906 0.775103 0
M  V30 9900 O 952.042 -1.60583 1.03042 0
M  V30 9901 C 949.182 -2.62945 2.23504 0
M  V30 9902 C 948.295 -2.52166 3.50766 0
M  V30 9903 C 947.43 -3.79316 3.71878 0
M  V30 9904 C 946.469 -3.63231 4.92676 0
M  V30 9905 N 945.606 -4.82315 5.10212 0
M  V30 9906 H 950.446 -0.96931 2.81795 0
M  V30 9907 H 947.983 -0.467331 1.39479 0
M  V30 9908 H 949.941 -3.41359 2.39854 0
M  V30 9909 H 948.571 -2.92397 1.36762 0
M  V30 9910 H 947.623 -1.65221 3.42646 0
M  V30 9911 H 948.935 -2.36199 4.39331 0
M  V30 9912 H 948.089 -4.66173 3.88288 0
M  V30 9913 H 946.828 -3.982 2.81581 0
M  V30 9914 H 945.833 -2.74757 4.76223 0
M  V30 9915 H 947.058 -3.45823 5.84451 0
M  V30 9916 H 945.004 -5.01526 4.22856 0
M  V30 9917 H 944.921 -4.6905 5.92898 0
M  V30 9918 H 946.189 -5.70618 5.31051 0
M  V30 9919 N 950.418 -1.49637 -0.494624 0
M  V30 9920 C 951.664 -1.59681 -1.25019 0
M  V30 9921 C 951.997 -0.285511 -1.9209 0
M  V30 9922 O 951.272 0.711398 -1.81023 0
M  V30 9923 C 951.555 -2.76058 -2.31222 0
M  V30 9924 C 951.408 -4.17002 -1.68611 0
M  V30 9925 C 952.727 -2.88056 -3.32734 0
M  V30 9926 H 949.846 -0.581209 -0.453172 0
M  V30 9927 H 952.488 -1.81944 -0.547391 0
M  V30 9928 H 950.638 -2.57207 -2.91164 0
M  V30 9929 H 952.31 -4.47385 -1.12447 0
M  V30 9930 H 950.553 -4.22352 -0.989991 0
M  V30 9931 H 951.224 -4.94316 -2.45674 0
M  V30 9932 H 953.7 -3.05237 -2.82789 0
M  V30 9933 H 952.576 -3.71151 -4.04399 0
M  V30 9934 H 952.837 -1.97676 -3.95445 0
M  V30 9935 N 951.896 0.746133 -1.38819 0
M  V30 9936 C 953.121 1.54049 -1.38866 0
M  V30 9937 C 953.546 1.88092 0.0176624 0
M  V30 9938 O 952.904 1.51113 1.00173 0
M  V30 9939 C 952.952 2.8116 -2.25791 0
M  V30 9940 O 952.056 3.76623 -1.68014 0
M  V30 9941 H 951.397 0.465648 -0.473359 0
M  V30 9942 H 953.927 0.921469 -1.82675 0
M  V30 9943 H 953.937 3.30009 -2.39913 0
M  V30 9944 H 952.612 2.55713 -3.27999 0
M  V30 9945 H 951.189 3.35352 -1.63074 0
M  V30 9946 N 953.375 1.23811 0.975125 0
M  V30 9947 C 954.621 1.07495 1.71967 0
M  V30 9948 C 954.954 -0.386451 1.90316 0
M  V30 9949 O 954.229 -1.28591 1.45927 0
M  V30 9950 C 954.512 1.80694 3.11483 0
M  V30 9951 C 954.365 3.3454 3.00671 0
M  V30 9952 C 955.684 1.57367 4.11003 0
M  V30 9953 H 952.803 0.3919 0.624166 0
M  V30 9954 H 955.445 1.52383 1.13487 0
M  V30 9955 H 953.595 1.42538 3.61407 0
M  V30 9956 H 955.267 3.8225 2.5823 0
M  V30 9957 H 953.51 3.63301 2.37054 0
M  V30 9958 H 954.181 3.80951 3.99475 0
M  V30 9959 H 956.657 1.90545 3.69908 0
M  V30 9960 H 955.533 2.11052 5.06703 0
M  V30 9961 H 955.794 0.510221 4.39146 0
M  V30 9962 N 954.853 -1.17469 1.05066 0
M  V30 9963 C 956.1 -1.87698 0.759987 0
M  V30 9964 C 956.428 -1.80964 -0.712902 0
M  V30 9965 O 955.683 -1.21146 -1.53695 0
M  V30 9966 C 955.982 -3.37211 1.18421 0
M  V30 9967 C 955.648 -3.64148 2.65909 0
M  V30 9968 C 954.31 -3.71209 3.06199 0
M  V30 9969 C 956.662 -3.75724 3.61222 0
M  V30 9970 C 953.99 -3.87334 4.40669 0
M  V30 9971 C 956.342 -3.93368 4.95424 0
M  V30 9972 C 955.006 -3.98667 5.3537 0
M  V30 9973 H 954.276 -0.686835 0.278099 0
M  V30 9974 H 956.923 -1.38975 1.31751 0
M  V30 9975 H 955.228 -3.87982 0.545654 0
M  V30 9976 H 956.925 -3.89911 0.936518 0
M  V30 9977 H 953.515 -3.59276 2.33707 0
M  V30 9978 H 957.699 -3.69591 3.31235 0
M  V30 9979 H 952.955 -3.89685 4.71122 0
M  V30 9980 H 957.129 -4.01267 5.69173 0
M  V30 9981 H 954.756 -4.10915 6.39572 0
M  V30 9982 N 956.331 -0.831506 -1.3388 0
M  V30 9983 C 957.578 -0.423674 -1.98018 0
M  V30 9984 C 957.906 1.01533 -1.65895 0
M  V30 9985 O 957.161 1.72342 -0.927183 0
M  V30 9986 C 957.46 -0.582733 -3.52617 0
M  V30 9987 C 957.126 -1.98874 -4.04673 0
M  V30 9988 C 955.788 -2.37334 -4.186 0
M  V30 9989 C 958.14 -2.90745 -4.3257 0
M  V30 9990 C 955.468 -3.66984 -4.57755 0
M  V30 9991 C 957.82 -4.19868 -4.73174 0
M  V30 9992 C 956.484 -4.58294 -4.85307 0
M  V30 9993 H 955.754 -0.155033 -0.7246 0
M  V30 9994 H 958.401 -1.05711 -1.59679 0
M  V30 9995 H 956.706 0.134052 -3.91571 0
M  V30 9996 H 958.403 -0.247576 -4.00235 0
M  V30 9997 H 954.993 -1.68001 -3.94301 0
M  V30 9998 H 959.177 -2.62272 -4.2134 0
M  V30 9999 H 954.433 -3.9657 -4.65341 0
M  V30 10000 H 958.607 -4.91138 -4.93717 0
M  V30 10001 H 956.234 -5.58805 -5.15404 0
M  V30 10002 N 957.809 1.4625 -0.587256 0
M  V30 10003 C 959.225 1.57641 -0.249284 0
M  V30 10004 C 959.425 1.58169 1.24839 0
M  V30 10005 O 958.481 1.50109 2.03036 0
M  V30 10006 C 959.794 2.86837 -0.902509 0
M  V30 10007 C 961.342 3.00476 -0.876524 0
M  V30 10008 C 961.817 4.32414 -1.50938 0
M  V30 10009 N 963.308 4.39124 -1.47392 0
M  V30 10010 C 964.043 5.39838 -1.93293 0
M  V30 10011 N 963.539 6.47202 -2.47188 0
M  V30 10012 N 965.332 5.31068 -1.84183 0
M  V30 10013 H 957.483 1.44151 -1.55994 0
M  V30 10014 H 959.746 0.687905 -0.652297 0
M  V30 10015 H 959.452 2.92274 -1.95624 0
M  V30 10016 H 959.326 3.74927 -0.413466 0
M  V30 10017 H 961.713 2.94618 0.168601 0
M  V30 10018 H 961.794 2.1385 -1.40363 0
M  V30 10019 H 961.438 4.3903 -2.55372 0
M  V30 10020 H 961.368 5.17823 -0.957455 0
M  V30 10021 H 963.859 3.62138 -1.08002 0
M  V30 10022 H 964.172 7.20269 -2.80058 0
M  V30 10023 H 962.517 6.48009 -2.51216 0
M  V30 10024 H 965.708 4.46095 -1.41833 0
M  V30 10025 H 965.881 6.09414 -2.2027 0
M  V30 10026 N 959.287 0.325282 1.54207 0
M  V30 10027 C 960.515 -0.27869 2.05014 0
M  V30 10028 C 960.93 -1.45649 1.20133 0
M  V30 10029 O 960.287 -1.81014 0.232398 0
M  V30 10030 C 960.338 -0.711486 3.54429 0
M  V30 10031 O 960.059 0.419458 4.36087 0
M  V30 10032 C 961.56 -1.37809 4.21336 0
M  V30 10033 H 958.78 -0.0570388 0.668571 0
M  V30 10034 H 961.324 0.47197 1.98979 0
M  V30 10035 H 959.479 -1.41212 3.60746 0
M  V30 10036 H 959.893 0.0781037 5.24442 0
M  V30 10037 H 961.367 -1.63184 5.27328 0
M  V30 10038 H 961.844 -2.32593 3.72555 0
M  V30 10039 H 962.45 -0.719987 4.19161 0
M  V30 10040 N 960.765 -1.57509 0.0534917 0
M  V30 10041 C 961.99 -1.97511 -0.632794 0
M  V30 10042 C 962.415 -0.930947 -1.63447 0
M  V30 10043 O 961.773 0.105558 -1.80992 0
M  V30 10044 C 961.821 -3.3658 -1.29407 0
M  V30 10045 O 960.925 -3.3467 -2.40977 0
M  V30 10046 H 960.266 -0.643349 -0.16431 0
M  V30 10047 H 962.796 -2.04232 0.12258 0
M  V30 10048 H 962.806 -3.73359 -1.64521 0
M  V30 10049 H 961.481 -4.12113 -0.559976 0
M  V30 10050 H 960.058 -3.09639 -2.07793 0
M  V30 10051 N 962.243 0.219913 -1.56058 0
M  V30 10052 C 963.654 0.786766 -1.69313 0
M  V30 10053 C 964.005 1.84916 -0.655782 0
M  V30 10054 O 963.13 2.1554 0.192772 0
M  V30 10055 C 963.725 1.43387 -3.06962 0
M  V30 10056 C 962.284 1.94809 -3.22066 0
M  V30 10057 C 961.431 0.808863 -2.65241 0
M  V30 10058 H 964.382 -0.00476777 -1.58699 0
M  V30 10059 H 964.403 2.30272 -3.02911 0
M  V30 10060 H 963.915 0.660405 -3.8244 0
M  V30 10061 H 962.016 2.74952 -2.5146 0
M  V30 10062 H 962.129 2.12694 -4.293 0
M  V30 10063 H 960.493 1.21661 -2.23765 0
M  V30 10064 H 961.276 0.0480458 -3.43266 0
M  V30 10065 N 963.721 1.49897 0.486681 0
M  V30 10066 C 964.668 1.67619 1.58658 0
M  V30 10067 C 965.638 0.517537 1.57831 0
M  V30 10068 O 966.823 0.746272 1.756 0
M  V30 10069 C 963.963 1.762 2.96728 0
M  V30 10070 C 963.076 3.03465 3.07462 0
M  V30 10071 C 962.211 3.02937 4.36351 0
M  V30 10072 C 961.25 4.24721 4.4077 0
M  V30 10073 N 960.387 4.22021 5.61108 0
M  V30 10074 H 965.227 2.61528 1.42853 0
M  V30 10075 H 962.764 1.29657 0.694807 0
M  V30 10076 H 964.722 1.79156 3.76774 0
M  V30 10077 H 963.352 0.857452 3.11203 0
M  V30 10078 H 962.404 3.10054 2.20387 0
M  V30 10079 H 963.716 3.93454 3.06586 0
M  V30 10080 H 962.87 3.04536 5.24731 0
M  V30 10081 H 961.609 2.10751 4.39813 0
M  V30 10082 H 960.614 4.23352 3.5079 0
M  V30 10083 H 961.839 5.18116 4.39013 0
M  V30 10084 H 959.785 3.3268 5.65385 0
M  V30 10085 H 959.702 5.05761 5.61909 0
M  V30 10086 H 960.97 4.27743 6.51656 0
M  V30 10087 N 965.199 -0.738761 1.39212 0
M  V30 10088 C 966.149 -1.84376 1.34125 0
M  V30 10089 C 967.133 -1.5935 0.222793 0
M  V30 10090 O 968.325 -1.70918 0.460014 0
M  V30 10091 C 965.454 -3.22261 1.18334 0
M  V30 10092 C 964.54 -3.53129 2.34864 0
M  V30 10093 N 964.931 -3.54957 3.60332 0
M  V30 10094 C 963.229 -3.83472 2.27739 0
M  V30 10095 C 963.93 -3.83513 4.3737 0
M  V30 10096 N 962.906 -4.01097 3.66909 0
M  V30 10097 H 966.708 -1.84089 2.29104 0
M  V30 10098 H 964.222 -0.936826 1.32655 0
M  V30 10099 H 966.219 -4.01358 1.12772 0
M  V30 10100 H 964.879 -3.23789 0.243016 0
M  V30 10101 H 965.89 -3.36359 3.93806 0
M  V30 10102 H 962.567 -3.92628 1.41949 0
M  V30 10103 H 963.957 -3.91427 5.46109 0
M  V30 10104 N 966.677 -1.24326 -0.968545 0
M  V30 10105 C 967.624 -1.0349 -2.06297 0
M  V30 10106 C 968.594 0.0515333 -1.6602 0
M  V30 10107 O 969.779 -0.102924 -1.90522 0
M  V30 10108 C 966.919 -0.64487 -3.39021 0
M  V30 10109 C 966.032 -1.80469 -3.92498 0
M  V30 10110 C 965.167 -1.36032 -5.13487 0
M  V30 10111 C 964.206 -2.49014 -5.59159 0
M  V30 10112 N 963.343 -2.05451 -6.71367 0
M  V30 10113 H 968.183 -1.97161 -2.23454 0
M  V30 10114 H 965.72 -0.982028 -1.0952 0
M  V30 10115 H 967.678 -0.399771 -4.1528 0
M  V30 10116 H 966.308 0.254845 -3.21792 0
M  V30 10117 H 965.36 -2.16348 -3.12886 0
M  V30 10118 H 966.672 -2.65365 -4.22354 0
M  V30 10119 H 965.826 -1.07405 -5.97117 0
M  V30 10120 H 964.565 -0.481887 -4.85313 0
M  V30 10121 H 963.57 -2.78402 -4.74102 0
M  V30 10122 H 964.795 -3.37413 -5.89346 0
M  V30 10123 H 962.741 -1.20004 -6.4493 0
M  V30 10124 H 962.658 -2.83901 -7.00668 0
M  V30 10125 H 963.926 -1.79962 -7.58442 0
M  V30 10126 N 968.156 1.1691 -1.05688 0
M  V30 10127 C 969.086 2.23275 -0.683402 0
M  V30 10128 C 970.067 1.6704 0.321206 0
M  V30 10129 O 971.252 1.93191 0.197691 0
M  V30 10130 C 968.382 3.47244 -0.0626006 0
M  V30 10131 C 967.336 4.16333 -0.992513 0
M  V30 10132 C 966.662 5.34182 -0.23533 0
M  V30 10133 C 967.962 4.68002 -2.31886 0
M  V30 10134 H 969.656 2.54771 -1.57264 0
M  V30 10135 H 967.202 1.2246 -0.757606 0
M  V30 10136 H 969.155 4.20874 0.210503 0
M  V30 10137 H 967.879 3.1503 0.861616 0
M  V30 10138 H 966.538 3.44622 -1.25026 0
M  V30 10139 H 966.186 4.9822 0.69181 0
M  V30 10140 H 965.886 5.81346 -0.855002 0
M  V30 10141 H 967.41 6.10592 0.0303717 0
M  V30 10142 H 968.824 5.33244 -2.10531 0
M  V30 10143 H 967.221 5.25764 -2.89296 0
M  V30 10144 H 968.291 3.84541 -2.95391 0
M  V30 10145 N 969.634 0.838594 1.33437 0
M  V30 10146 C 970.581 0.269609 2.2922 0
M  V30 10147 C 971.551 -0.614429 1.54318 0
M  V30 10148 O 972.736 -0.552756 1.82618 0
M  V30 10149 C 969.876 -0.549527 3.40697 0
M  V30 10150 C 968.989 0.358502 4.3051 0
M  V30 10151 C 968.124 -0.471709 5.29101 0
M  V30 10152 C 967.163 0.434728 6.10554 0
M  V30 10153 N 966.3 -0.357339 7.0119 0
M  V30 10154 H 971.14 1.09172 2.77282 0
M  V30 10155 H 968.677 0.549832 1.36438 0
M  V30 10156 H 970.635 -1.03992 4.04032 0
M  V30 10157 H 969.265 -1.33661 2.93828 0
M  V30 10158 H 968.317 0.967204 3.67899 0
M  V30 10159 H 969.629 1.05483 4.87519 0
M  V30 10160 H 968.783 -1.02594 5.97963 0
M  V30 10161 H 967.522 -1.20147 4.72669 0
M  V30 10162 H 966.527 1.00097 5.40611 0
M  V30 10163 H 967.752 1.16285 6.6907 0
M  V30 10164 H 965.698 -1.07049 6.47207 0
M  V30 10165 H 965.615 0.280277 7.5548 0
M  V30 10166 H 966.883 -0.893814 7.74359 0
M  V30 10167 N 971.112 -1.45937 0.595003 0
M  V30 10168 C 972.361 -2.01529 0.0829531 0
M  V30 10169 C 972.674 -1.47071 -1.28955 0
M  V30 10170 O 973.88 -1.94561 -1.89363 0
M  V30 10171 C 972.336 -3.59767 0.0976597 0
M  V30 10172 C 971.944 -4.23223 1.46924 0
M  V30 10173 C 973.688 -4.22972 -0.359805 0
M  V30 10174 C 971.595 -5.73576 1.44101 0
M  V30 10175 H 970.525 -0.753508 0.0272425 0
M  V30 10176 H 973.176 -1.67541 0.748473 0
M  V30 10177 H 971.558 -3.90888 -0.634268 0
M  V30 10178 H 972.732 -4.03695 2.22187 0
M  V30 10179 H 971.047 -3.72161 1.86775 0
M  V30 10180 H 973.644 -5.33202 -0.39991 0
M  V30 10181 H 973.987 -3.92765 -1.37991 0
M  V30 10182 H 974.52 -3.96523 0.31845 0
M  V30 10183 H 971.259 -6.08462 2.43831 0
M  V30 10184 H 970.779 -5.95332 0.730767 0
M  V30 10185 H 972.458 -6.36531 1.1592 0
M  V30 10186 N 972.59 -0.333456 -1.54032 0
M  V30 10187 C 973.839 0.267081 -1.99924 0
M  V30 10188 C 974.152 1.52463 -1.22534 0
M  V30 10189 O 975.358 2.20178 -1.58852 0
M  V30 10190 C 973.814 0.526456 -3.56029 0
M  V30 10191 C 973.422 -0.714607 -4.42264 0
M  V30 10192 C 975.166 1.0864 -4.10363 0
M  V30 10193 C 973.073 -0.42659 -5.89859 0
M  V30 10194 H 972.003 0.103577 -0.746852 0
M  V30 10195 H 974.654 -0.447218 -1.77967 0
M  V30 10196 H 973.036 1.3012 -3.74012 0
M  V30 10197 H 974.21 -1.48968 -4.36056 0
M  V30 10198 H 972.525 -1.19547 -3.9887 0
M  V30 10199 H 975.122 1.31668 -5.18235 0
M  V30 10200 H 975.465 2.03884 -3.62956 0
M  V30 10201 H 975.998 0.37261 -3.96051 0
M  V30 10202 H 972.737 -1.34847 -6.4148 0
M  V30 10203 H 972.257 0.310588 -5.98995 0
M  V30 10204 H 973.936 -0.0400807 -6.46988 0
M  V30 10205 N 974.068 1.57479 -0.061844 0
M  V30 10206 C 975.015 2.12152 0.908862 0
M  V30 10207 C 975.985 1.03152 1.30188 0
M  V30 10208 O 977.17 1.3076 1.38948 0
M  V30 10209 C 974.31 2.6796 2.17465 0
M  V30 10210 C 973.423 3.91083 1.83517 0
M  V30 10211 C 972.558 4.35169 3.04633 0
M  V30 10212 C 971.597 5.50964 2.66655 0
M  V30 10213 N 970.734 5.90055 3.80499 0
M  V30 10214 H 975.574 2.94797 0.435743 0
M  V30 10215 H 973.111 1.45686 0.203445 0
M  V30 10216 H 975.069 2.98421 2.91548 0
M  V30 10217 H 973.699 1.88096 2.62335 0
M  V30 10218 H 972.751 3.67146 0.995381 0
M  V30 10219 H 974.063 4.75214 1.51569 0
M  V30 10220 H 973.217 4.67239 3.87005 0
M  V30 10221 H 971.956 3.49871 3.39767 0
M  V30 10222 H 970.961 5.18556 1.82703 0
M  V30 10223 H 972.186 6.37986 2.32702 0
M  V30 10224 H 970.132 5.07708 4.15414 0
M  V30 10225 H 970.049 6.68903 3.52285 0
M  V30 10226 H 971.317 6.26744 4.63479 0
M  V30 10227 N 975.546 -0.211634 1.56173 0
M  V30 10228 C 976.509 -1.24588 1.92381 0
M  V30 10229 C 977.509 -1.39297 0.803311 0
M  V30 10230 O 978.699 -1.37392 1.07094 0
M  V30 10231 C 975.831 -2.61807 2.18335 0
M  V30 10232 H 977.024 -0.936814 2.84893 0
M  V30 10233 H 974.577 -0.452471 1.49607 0
M  V30 10234 H 975.312 -2.97795 1.28407 0
M  V30 10235 H 975.097 -2.52506 2.99972 0
M  V30 10236 H 976.587 -3.3642 2.4741 0
M  V30 10237 N 977.024 -1.50153 -0.478725 0
M  V30 10238 C 977.954 -1.71384 -1.58587 0
M  V30 10239 C 978.935 -0.562705 -1.60523 0
M  V30 10240 O 980.12 -0.80101 -1.76911 0
M  V30 10241 C 977.25 -1.80094 -2.96957 0
M  V30 10242 C 976.204 -2.95218 -3.09888 0
M  V30 10243 C 975.53 -2.89063 -4.49829 0
M  V30 10244 C 976.83 -4.35841 -2.8782 0
M  V30 10245 H 978.524 -2.64081 -1.41073 0
M  V30 10246 H 976.07 -1.27081 -0.677239 0
M  V30 10247 H 978.023 -1.93531 -3.74331 0
M  V30 10248 H 976.747 -0.840131 -3.1561 0
M  V30 10249 H 975.406 -2.81419 -2.34944 0
M  V30 10250 H 975.054 -1.90844 -4.6539 0
M  V30 10251 H 974.754 -3.66345 -4.59418 0
M  V30 10252 H 976.278 -3.04539 -5.29234 0
M  V30 10253 H 977.692 -4.50205 -3.54948 0
M  V30 10254 H 976.089 -5.14515 -3.0886 0
M  V30 10255 H 977.159 -4.48739 -1.83742 0
M  V30 10256 N 978.502 0.731368 -1.39602 0
M  V30 10257 C 979.434 1.85575 -1.34516 0
M  V30 10258 C 980.447 1.60818 -0.253287 0
M  V30 10259 O 981.636 1.70984 -0.512505 0
M  V30 10260 C 978.736 3.21673 -1.06676 0
M  V30 10261 C 977.909 3.73757 -2.27211 0
M  V30 10262 C 976.968 4.88426 -1.95773 0
M  V30 10263 O 975.994 5.01898 -2.68491 0
M  V30 10264 N 977.196 5.73065 -0.926083 0
M  V30 10265 H 979.961 1.90442 -2.31413 0
M  V30 10266 H 977.522 0.912258 -1.33752 0
M  V30 10267 H 979.514 3.95959 -0.836577 0
M  V30 10268 H 978.084 3.12052 -0.185003 0
M  V30 10269 H 977.304 2.90781 -2.66158 0
M  V30 10270 H 978.592 4.05289 -3.07601 0
M  V30 10271 H 977.99 5.64774 -0.323497 0
M  V30 10272 H 976.547 6.47403 -0.755795 0
M  V30 10273 N 979.98 1.24838 0.961938 0
M  V30 10274 C 980.89 1.06304 2.09133 0
M  V30 10275 C 981.906 0.00221475 1.74 0
M  V30 10276 O 983.082 0.201611 2.00388 0
M  V30 10277 C 980.147 0.676117 3.40043 0
M  V30 10278 C 979.208 1.81407 3.89089 0
M  V30 10279 C 978.441 1.44551 5.13752 0
M  V30 10280 O 978.664 0.337894 5.69398 0
M  V30 10281 O 977.598 2.27316 5.57325 0
M  V30 10282 H 981.424 2.01001 2.27667 0
M  V30 10283 H 979.009 1.0371 1.07539 0
M  V30 10284 H 980.891 0.472124 4.18747 0
M  V30 10285 H 979.566 -0.241667 3.22797 0
M  V30 10286 H 978.473 2.07286 3.11421 0
M  V30 10287 H 979.806 2.71083 4.10822 0
M  V30 10288 N 981.458 -1.16348 1.06306 0
M  V30 10289 C 982.683 -1.91323 0.800636 0
M  V30 10290 C 983.108 -1.7691 -0.639105 0
M  V30 10291 O 982.466 -1.0945 -1.44535 0
M  V30 10292 C 982.514 -3.40038 1.20027 0
M  V30 10293 O 981.618 -4.11003 0.339142 0
M  V30 10294 H 980.959 -0.596057 0.292595 0
M  V30 10295 H 983.489 -1.47406 1.41889 0
M  V30 10296 H 983.499 -3.90808 1.17188 0
M  V30 10297 H 982.174 -3.49848 2.24898 0
M  V30 10298 H 980.751 -3.70423 0.42911 0
M  V30 10299 N 982.937 -0.845659 -1.3299 0
M  V30 10300 C 984.185 -0.443774 -1.97168 0
M  V30 10301 C 984.506 1.00192 -1.67292 0
M  V30 10302 O 983.776 1.69891 -0.975397 0
M  V30 10303 H 982.356 -0.161111 -0.729419 0
M  V30 10304 H 985.018 -1.08011 -1.62233 0
M  V30 10305 H 984.114 -0.581414 -3.06637 0
M  V30 10306 N 984.415 1.45619 -0.602734 0
M  V30 10307 C 985.378 2.28941 0.108962 0
M  V30 10308 C 986.378 1.39501 0.799762 0
M  V30 10309 O 987.568 1.61673 0.648663 0
M  V30 10310 C 984.7 3.204 1.16432 0
M  V30 10311 H 985.893 2.93346 -0.623534 0
M  V30 10312 H 983.446 1.52061 -0.361565 0
M  V30 10313 H 984.181 2.60785 1.92774 0
M  V30 10314 H 983.966 3.86277 0.673248 0
M  V30 10315 H 985.456 3.83063 1.6629 0
M  V30 10316 N 985.893 0.34162 1.53853 0
M  V30 10317 C 987.142 -0.256475 2.00063 0
M  V30 10318 C 987.455 -1.51811 1.23341 0
M  V30 10319 O 988.661 -2.19332 1.60017 0
M  V30 10320 C 987.117 -0.507567 3.56303 0
M  V30 10321 C 986.725 0.738052 4.41879 0
M  V30 10322 C 988.469 -1.06463 4.10933 0
M  V30 10323 C 986.376 0.457865 5.89625 0
M  V30 10324 H 985.306 -0.0996143 0.747391 0
M  V30 10325 H 987.957 0.456649 1.77727 0
M  V30 10326 H 986.339 -1.28134 3.74697 0
M  V30 10327 H 987.513 1.51278 4.3526 0
M  V30 10328 H 985.828 1.21661 3.98231 0
M  V30 10329 H 988.425 -1.28918 5.18926 0
M  V30 10330 H 988.768 -2.01956 3.64032 0
M  V30 10331 H 989.301 -0.351601 3.96243 0
M  V30 10332 H 986.04 1.38247 6.40756 0
M  V30 10333 H 985.56 -0.278818 5.99152 0
M  V30 10334 H 987.239 0.0743914 6.46957 0
M  V30 10335 N 987.371 -1.57444 0.0701946 0
M  V30 10336 C 988.617 -1.93716 -0.600178 0
M  V30 10337 C 988.95 -0.950329 -1.69359 0
M  V30 10338 O 988.225 0.0207123 -1.94489 0
M  V30 10339 C 988.508 -3.40266 -1.17861 0
M  V30 10340 C 988.361 -4.49706 -0.0919575 0
M  V30 10341 C 989.68 -3.87599 -2.08459 0
M  V30 10342 H 986.799 -0.704421 -0.216704 0
M  V30 10343 H 989.441 -1.89514 0.135838 0
M  V30 10344 H 987.591 -3.43977 -1.80587 0
M  V30 10345 H 989.263 -4.58116 0.541031 0
M  V30 10346 H 987.506 -4.29937 0.577639 0
M  V30 10347 H 988.177 -5.49381 -0.537048 0
M  V30 10348 H 990.653 -3.85883 -1.5567 0
M  V30 10349 H 989.529 -4.90755 -2.45867 0
M  V30 10350 H 989.79 -3.25448 -2.99226 0
M  V30 10351 N 988.849 0.203349 -1.56283 0
M  V30 10352 C 989.812 1.23566 -1.93039 0
M  V30 10353 C 990.812 1.38869 -0.810687 0
M  V30 10354 O 992.002 1.36822 -1.07821 0
M  V30 10355 C 989.134 2.60645 -2.1972 0
M  V30 10356 H 990.327 0.921692 -2.85385 0
M  V30 10357 H 987.88 0.44453 -1.49845 0
M  V30 10358 H 988.615 2.9711 -1.29985 0
M  V30 10359 H 988.4 2.50911 -3.01307 0
M  V30 10360 H 989.89 3.35103 -2.4919 0
M  V30 10361 N 990.327 1.50405 0.470755 0
M  V30 10362 C 991.26 1.63933 1.58749 0
M  V30 10363 C 992.238 0.487444 1.55122 0
M  V30 10364 O 993.422 0.706992 1.74739 0
M  V30 10365 C 990.549 1.62222 2.97324 0
M  V30 10366 C 989.595 2.82975 3.19104 0
M  V30 10367 S 990.428 4.44272 2.98969 0
M  V30 10368 C 991.584 4.45254 4.39886 0
M  V30 10369 H 991.817 2.58396 1.47034 0
M  V30 10370 H 989.35 1.39672 0.658115 0
M  V30 10371 H 991.308 1.6192 3.77217 0
M  V30 10372 H 989.969 0.689944 3.06429 0
M  V30 10373 H 989.162 2.78083 4.2034 0
M  V30 10374 H 988.764 2.80846 2.46984 0
M  V30 10375 H 991.056 4.18837 5.32524 0
M  V30 10376 H 991.999 5.4687 4.49821 0
M  V30 10377 H 992.407 3.74958 4.2198 0
M  V30 10378 N 991.805 -0.723954 1.39988 0
M  V30 10379 C 993.033 -1.51313 1.4111 0
M  V30 10380 C 993.448 -1.88798 0.00853333 0
M  V30 10381 O 992.805 -1.54868 -0.965516 0
M  V30 10382 C 992.856 -2.79375 2.29416 0
M  V30 10383 O 992.577 -2.43478 3.64211 0
M  V30 10384 C 994.078 -3.7333 2.3904 0
M  V30 10385 H 991.298 -0.46724 0.481589 0
M  V30 10386 H 993.842 -0.893694 1.83938 0
M  V30 10387 H 991.997 -3.37624 1.89971 0
M  V30 10388 H 992.411 -3.25821 4.11024 0
M  V30 10389 H 993.885 -4.60051 3.05053 0
M  V30 10390 H 994.362 -4.15854 1.41289 0
M  V30 10391 H 994.968 -3.20996 2.79001 0
M  V30 10392 N 993.283 -1.25346 -0.955304 0
M  V30 10393 C 994.531 -1.09837 -1.69647 0
M  V30 10394 C 994.852 0.361425 -1.91621 0
M  V30 10395 O 994.122 1.25666 -1.50283 0
M  V30 10396 H 992.702 -0.403467 -0.628668 0
M  V30 10397 H 995.364 -1.57459 -1.14859 0
M  V30 10398 H 994.46 -1.60616 -2.67598 0
M  V30 10399 N 994.761 1.15782 -1.06922 0
M  V30 10400 C 996.038 1.8253 -0.703 0
M  V30 10401 C 996.418 1.94733 0.814994 0
M  V30 10402 O 995.766 1.49537 1.72774 0
M  V30 10403 C 995.976 3.19145 -1.41234 0
M  V30 10404 C 997.324 3.94839 -1.56164 0
M  V30 10405 O 998.348 3.28685 -1.37277 0
M  V30 10406 O 997.207 5.13436 -1.87205 0
M  V30 10407 H 994.301 0.788425 -0.24963 0
M  V30 10408 H 996.847 1.22931 -1.16988 0
M  V30 10409 H 995.619 3.05336 -2.44715 0
M  V30 10410 H 995.242 3.86427 -0.935959 0
M  V30 10411 N 996.239 0.8527 1.3254 0
M  V30 10412 C 997.487 0.454224 1.96929 0
M  V30 10413 C 997.808 -0.993034 1.67821 0
M  V30 10414 O 997.078 -1.69371 0.984393 0
M  V30 10415 H 995.658 0.164977 0.728554 0
M  V30 10416 H 998.32 1.0887 1.61658 0
M  V30 10417 H 997.416 0.597667 3.06324 0
M  V30 10418 N 997.718 -1.45297 0.610449 0
M  V30 10419 C 998.964 -2.02518 0.106917 0
M  V30 10420 C 999.297 -1.47747 -1.26034 0
M  V30 10421 O 998.572 -0.65329 -1.832 0
M  V30 10422 C 998.855 -3.6003 0.0710975 0
M  V30 10423 C 998.708 -4.25128 1.46922 0
M  V30 10424 C 1000.03 -4.35778 -0.61524 0
M  V30 10425 H 997.146 -0.735896 0.040327 0
M  V30 10426 H 999.788 -1.73117 0.782968 0
M  V30 10427 H 997.938 -3.85209 -0.504611 0
M  V30 10428 H 999.61 -4.11125 2.09223 0
M  V30 10429 H 997.853 -3.83418 2.02911 0
M  V30 10430 H 998.524 -5.34046 1.39637 0
M  V30 10431 H 1001 -4.1591 -0.125871 0
M  V30 10432 H 999.876 -5.45506 -0.609419 0
M  V30 10433 H 1000.14 -4.08859 -1.68186 0
M  V30 10434 N 999.196 -0.349774 -1.5367 0
M  V30 10435 C 1000.14 0.519396 -2.26727 0
M  V30 10436 C 1001.14 1.09673 -1.29105 0
M  V30 10437 O 1002.34 1.04176 -1.46791 0
M  V30 10438 H 998.719 0.186192 -0.728585 0
M  V30 10439 H 1000.69 -0.118736 -2.98164 0
M  V30 10440 C 999.439 1.65535 -3.05767 0
M  V30 10441 H 998.762 1.22038 -3.80719 0
M  V30 10442 H 1000.2 2.23856 -3.6009 0
M  V30 10443 C 998.661 2.58844 -2.15642 0
M  V30 10444 O 999.191 3.61254 -1.75665 0
M  V30 10445 N 997.397 2.27671 -1.80595 0
M  V30 10446 H 996.944 1.44429 -2.13302 0
M  V30 10447 H 996.902 2.90359 -1.20577 0
M  V30 10448 N 1000.67 1.57404 -0.0785433 0
M  V30 10449 C 1001.95 1.85163 0.630389 0
M  V30 10450 C 1002.33 0.972295 1.87376 0
M  V30 10451 O 1001.68 0.0403375 2.28464 0
M  V30 10452 C 1001.89 3.35491 0.961604 0
M  V30 10453 C 1003.24 4.0316 1.33219 0
M  V30 10454 O 1004.26 3.40276 1.05313 0
M  V30 10455 O 1003.12 5.14086 1.85412 0
M  V30 10456 H 1000.21 0.765169 0.31376 0
M  V30 10457 H 1002.76 1.69343 -0.109986 0
M  V30 10458 H 1001.53 3.91221 0.0788113 0
M  V30 10459 H 1001.15 3.56598 1.75852 0
M  V30 10460 N 1002.15 -0.195058 1.56388 0
M  V30 10461 C 1003.11 -1.2254 1.93692 0
M  V30 10462 C 1004.11 -1.38437 0.81804 0
M  V30 10463 O 1005.3 -1.36248 1.08545 0
M  V30 10464 C 1002.44 -2.59476 2.21099 0
M  V30 10465 H 1003.63 -0.906544 2.8587 0
M  V30 10466 H 1001.18 -0.436577 1.50079 0
M  V30 10467 H 1001.92 -2.96417 1.31558 0
M  V30 10468 H 1001.7 -2.4931 3.02634 0
M  V30 10469 H 1003.19 -3.33777 2.50964 0
M  V30 10470 N 1003.63 -1.50653 -0.462772 0
M  V30 10471 C 1004.88 -1.62297 -1.21603 0
M  V30 10472 C 1005.21 -0.326191 -1.91441 0
M  V30 10473 O 1004.48 0.67284 -1.82491 0
M  V30 10474 C 1004.77 -2.80901 -2.25315 0
M  V30 10475 C 1004.62 -4.20484 -1.59728 0
M  V30 10476 C 1005.94 -2.95049 -3.26549 0
M  V30 10477 H 1003.06 -0.590691 -0.440741 0
M  V30 10478 H 1005.7 -1.83064 -0.508675 0
M  V30 10479 H 1003.85 -2.63325 -2.85643 0
M  V30 10480 H 1005.52 -4.49669 -1.02932 0
M  V30 10481 H 1003.76 -4.24357 -0.900181 0
M  V30 10482 H 1004.44 -4.99416 -2.35133 0
M  V30 10483 H 1006.91 -3.11166 -2.76251 0
M  V30 10484 H 1005.79 -3.79645 -3.96435 0
M  V30 10485 H 1006.05 -2.06019 -3.91163 0
M  V30 10486 N 1005.11 0.71652 -1.4037 0
M  V30 10487 C 1006.07 1.81231 -1.40313 0
M  V30 10488 C 1007.07 1.58032 -0.297087 0
M  V30 10489 O 1008.26 1.65091 -0.555944 0
M  V30 10490 C 1005.39 3.19308 -1.19395 0
M  V30 10491 H 1006.59 1.8268 -2.3784 0
M  V30 10492 H 1004.14 0.922062 -1.26205 0
M  V30 10493 H 1004.87 3.2351 -0.226252 0
M  V30 10494 H 1004.66 3.37546 -1.99512 0
M  V30 10495 H 1006.15 3.99339 -1.22141 0
M  V30 10496 N 1006.59 1.25851 0.948643 0
M  V30 10497 C 1007.52 1.09248 2.06367 0
M  V30 10498 C 1008.5 -0.000205168 1.701 0
M  V30 10499 O 1009.68 0.170442 1.93451 0
M  V30 10500 C 1006.81 0.716777 3.39823 0
M  V30 10501 C 1005.77 1.76036 3.90122 0
M  V30 10502 C 1005.09 1.23918 5.20143 0
M  V30 10503 C 1006.39 3.16039 4.15833 0
M  V30 10504 H 1008.09 2.02518 2.20515 0
M  V30 10505 H 1005.63 0.975093 1.05962 0
M  V30 10506 H 1007.59 0.587531 4.17284 0
M  V30 10507 H 1006.31 -0.251626 3.25629 0
M  V30 10508 H 1004.97 1.87815 3.14835 0
M  V30 10509 H 1004.62 0.260836 5.02323 0
M  V30 10510 H 1004.32 1.93673 5.54765 0
M  V30 10511 H 1005.84 1.12245 6.00194 0
M  V30 10512 H 1007.25 3.0738 4.83933 0
M  V30 10513 H 1005.65 3.83317 4.61723 0
M  V30 10514 H 1006.72 3.62652 3.21887 0
M  V30 10515 N 1008.06 -1.15214 1.07534 0
M  V30 10516 C 1009.01 -2.20013 0.697337 0
M  V30 10517 C 1009.98 -1.6314 -0.312168 0
M  V30 10518 O 1011.17 -1.89768 -0.198196 0
M  V30 10519 C 1008.31 -3.44945 0.103293 0
M  V30 10520 C 1007.42 -4.16009 1.1645 0
M  V30 10521 C 1006.55 -5.28496 0.535261 0
M  V30 10522 C 1005.59 -5.9138 1.57912 0
M  V30 10523 N 1004.73 -6.95335 0.972332 0
M  V30 10524 H 1009.57 -2.51698 1.59538 0
M  V30 10525 H 1007.11 -1.2361 0.797431 0
M  V30 10526 H 1009.07 -4.16397 -0.258766 0
M  V30 10527 H 1007.7 -3.13772 -0.758096 0
M  V30 10528 H 1006.75 -3.43035 1.64411 0
M  V30 10529 H 1008.06 -4.58853 1.9559 0
M  V30 10530 H 1007.21 -6.06579 0.120942 0
M  V30 10531 H 1005.95 -4.8685 -0.287889 0
M  V30 10532 H 1004.96 -5.12008 2.0032 0
M  V30 10533 H 1006.18 -6.35103 2.40459 0
M  V30 10534 H 1004.13 -6.55779 0.170119 0
M  V30 10535 H 1004.05 -7.36616 1.70095 0
M  V30 10536 H 1005.31 -7.77312 0.583577 0
M  V30 10537 N 1009.54 -0.859717 -1.32086 0
M  V30 10538 C 1010.77 -0.478865 -2.01796 0
M  V30 10539 C 1011.19 0.918274 -1.64163 0
M  V30 10540 O 1010.55 1.60409 -0.844896 0
M  V30 10541 C 1010.6 -0.631356 -3.5503 0
M  V30 10542 O 1009.7 0.333712 -4.11048 0
M  V30 10543 H 1009.04 -0.191775 -0.635703 0
M  V30 10544 H 1011.57 -1.16031 -1.68517 0
M  V30 10545 H 1011.58 -0.520783 -4.04663 0
M  V30 10546 H 1010.26 -1.65015 -3.81763 0
M  V30 10547 H 1008.84 0.178953 -3.7247 0
M  V30 10548 N 1011.02 1.44971 -0.618145 0
M  V30 10549 C 1011.98 2.29044 0.0846739 0
M  V30 10550 C 1012.98 1.40341 0.784921 0
M  V30 10551 O 1014.17 1.62351 0.631479 0
M  V30 10552 C 1011.31 3.21617 1.13027 0
M  V30 10553 H 1012.5 2.92668 -0.654612 0
M  V30 10554 H 1010.05 1.51668 -0.377672 0
M  V30 10555 H 1010.79 2.62815 1.89997 0
M  V30 10556 H 1010.57 3.86969 0.63224 0
M  V30 10557 H 1012.06 3.84805 1.62218 0
M  V30 10558 N 1012.5 0.357919 1.53482 0
M  V30 10559 C 1013.78 -0.290164 1.93436 0
M  V30 10560 C 1014.16 -1.67039 1.29079 0
M  V30 10561 O 1013.5 -2.24085 0.447017 0
M  V30 10562 C 1013.71 -0.348055 3.4726 0
M  V30 10563 C 1015.06 -0.59206 4.20452 0
M  V30 10564 O 1016.09 -0.429581 3.536 0
M  V30 10565 O 1014.94 -0.907855 5.38907 0
M  V30 10566 H 1012.04 -0.172312 0.80885 0
M  V30 10567 H 1014.58 0.410144 1.64669 0
M  V30 10568 H 1013.36 0.619953 3.86358 0
M  V30 10569 H 1012.98 -1.09457 3.82237 0
M  V30 10570 N 1013.98 -1.5736 0.0868897 0
M  V30 10571 C 1015.23 -1.93229 -0.578387 0
M  V30 10572 C 1015.54 -0.970127 -1.69847 0
M  V30 10573 O 1016.74 -1.22222 -2.42434 0
M  V30 10574 C 1015.2 -3.43307 -1.0802 0
M  V30 10575 C 1014.81 -4.47999 0.00968135 0
M  V30 10576 C 1016.55 -3.88151 -1.71868 0
M  V30 10577 C 1014.46 -5.89223 -0.507029 0
M  V30 10578 H 1013.39 -0.721245 -0.219823 0
M  V30 10579 H 1016.04 -1.82787 0.161566 0
M  V30 10580 H 1014.42 -3.48873 -1.87359 0
M  V30 10581 H 1015.6 -4.54067 0.784865 0
M  V30 10582 H 1013.91 -4.12714 0.552845 0
M  V30 10583 H 1016.51 -4.91056 -2.11585 0
M  V30 10584 H 1016.85 -3.26347 -2.58464 0
M  V30 10585 H 1017.38 -3.85252 -0.991259 0
M  V30 10586 H 1014.12 -6.54708 0.322121 0
M  V30 10587 H 1013.64 -5.86643 -1.2494 0
M  V30 10588 H 1015.32 -6.39556 -0.978628 0
M  V30 10589 N 1015.45 0.186762 -1.56489 0
M  V30 10590 C 1016.7 0.904063 -1.80752 0
M  V30 10591 C 1017.02 1.83443 -0.661343 0
M  V30 10592 O 1016.29 1.93272 0.319811 0
M  V30 10593 H 1014.87 0.336828 -0.66675 0
M  V30 10594 H 1017.54 0.190275 -1.93969 0
M  V30 10595 H 1016.63 1.49021 -2.74225 0
M  V30 10596 N 1016.93 1.50896 0.454776 0
M  V30 10597 C 1018.18 1.61936 1.20248 0
M  V30 10598 C 1018.49 0.332983 1.92745 0
M  V30 10599 O 1019.7 0.322512 2.69578 0
M  V30 10600 C 1018.16 2.85916 2.18587 0
M  V30 10601 C 1017.76 4.21492 1.51818 0
M  V30 10602 C 1019.51 3.06307 2.93898 0
M  V30 10603 C 1017.42 5.3664 2.48539 0
M  V30 10604 H 1016.35 0.603098 0.452536 0
M  V30 10605 H 1019 1.77345 0.471257 0
M  V30 10606 H 1017.38 2.64101 2.95071 0
M  V30 10607 H 1018.55 4.53623 0.810123 0
M  V30 10608 H 1016.87 4.06837 0.887265 0
M  V30 10609 H 1019.46 3.89507 3.66317 0
M  V30 10610 H 1019.81 2.18683 3.54236 0
M  V30 10611 H 1020.34 3.2838 2.24525 0
M  V30 10612 H 1017.08 6.26469 1.92916 0
M  V30 10613 H 1016.6 5.08907 3.17449 0
M  V30 10614 H 1018.28 5.67881 3.10033 0
M  V30 10615 N 1018.41 -0.709066 1.40748 0
M  V30 10616 C 1019.37 -1.80485 1.41272 0
M  V30 10617 C 1020.37 -1.57872 0.305463 0
M  V30 10618 O 1021.56 -1.64793 0.564691 0
M  V30 10619 C 1018.7 -3.1867 1.21087 0
M  V30 10620 H 1019.89 -1.81417 2.38805 0
M  V30 10621 H 1017.44 -0.915356 1.26692 0
M  V30 10622 H 1018.18 -3.23385 0.243406 0
M  V30 10623 H 1017.96 -3.36484 2.01299 0
M  V30 10624 H 1019.45 -3.98685 1.24257 0
M  V30 10625 N 1019.89 -1.26353 -0.941956 0
M  V30 10626 C 1020.82 -1.02163 -2.04054 0
M  V30 10627 C 1021.8 0.0533514 -1.62512 0
M  V30 10628 O 1022.98 -0.0889063 -1.8829 0
M  V30 10629 C 1020.11 -0.546908 -3.34255 0
M  V30 10630 C 1019.16 -1.61433 -3.94768 0
M  V30 10631 S 1019.99 -3.20306 -4.29144 0
M  V30 10632 C 1021.15 -2.746 -5.62446 0
M  V30 10633 H 1021.38 -1.9518 -2.24259 0
M  V30 10634 H 1018.91 -1.10024 -1.08324 0
M  V30 10635 H 1020.87 -0.279673 -4.09546 0
M  V30 10636 H 1019.53 0.36297 -3.11996 0
M  V30 10637 H 1018.72 -1.23315 -4.88681 0
M  V30 10638 H 1018.33 -1.8329 -3.26007 0
M  V30 10639 H 1020.62 -2.19015 -6.41123 0
M  V30 10640 H 1021.56 -3.67202 -6.05449 0
M  V30 10641 H 1021.97 -2.1419 -5.22286 0
M  V30 10642 N 1021.37 1.14642 -1.08144 0
M  V30 10643 C 1022.62 1.8525 -0.807885 0
M  V30 10644 C 1022.94 1.83194 0.668213 0
M  V30 10645 O 1022.21 1.27848 1.48431 0
M  V30 10646 H 1020.79 0.685909 -0.295868 0
M  V30 10647 H 1023.45 1.38935 -1.36686 0
M  V30 10648 H 1022.54 2.90155 -1.14964 0
M  V30 10649 N 1022.85 0.866709 1.31628 0
M  V30 10650 C 1023.78 0.277328 2.27516 0
M  V30 10651 C 1024.79 -0.557786 1.52946 0
M  V30 10652 O 1025.98 -0.38031 1.74402 0
M  V30 10653 C 1023.08 -0.625742 3.33073 0
M  V30 10654 C 1022.25 0.176204 4.37045 0
M  V30 10655 C 1021.31 -0.654497 5.22114 0
M  V30 10656 O 1020.34 -0.0836961 5.69138 0
M  V30 10657 N 1021.54 -1.96708 5.46156 0
M  V30 10658 H 1024.3 1.10133 2.78731 0
M  V30 10659 H 1021.87 0.72787 1.44616 0
M  V30 10660 H 1023.86 -1.18709 3.86898 0
M  V30 10661 H 1022.43 -1.35042 2.81926 0
M  V30 10662 H 1021.65 0.918999 3.83338 0
M  V30 10663 H 1022.94 0.726594 5.03585 0
M  V30 10664 H 1022.33 -2.454 5.09701 0
M  V30 10665 H 1020.89 -2.47629 6.02929 0
M  V30 10666 N 1024.32 -1.44642 0.625825 0
M  V30 10667 C 1025.55 -2.06458 0.135116 0
M  V30 10668 C 1025.97 -1.46729 -1.18811 0
M  V30 10669 O 1025.32 -0.58818 -1.72762 0
M  V30 10670 C 1025.37 -3.61499 0.00850114 0
M  V30 10671 O 1025.1 -4.19002 1.2794 0
M  V30 10672 C 1026.6 -4.40339 -0.511527 0
M  V30 10673 H 1023.82 -0.666541 0.0772294 0
M  V30 10674 H 1026.36 -1.85597 0.858726 0
M  V30 10675 H 1024.52 -3.81641 -0.665522 0
M  V30 10676 H 1024.93 -5.12385 1.12081 0
M  V30 10677 H 1026.4 -5.49262 -0.549149 0
M  V30 10678 H 1026.88 -4.11409 -1.53752 0
M  V30 10679 H 1027.49 -4.25104 0.129066 0
M  V30 10680 N 1025.8 -0.366053 -1.5329 0
M  V30 10681 C 1027.05 0.223051 -2.00865 0
M  V30 10682 C 1027.37 1.49244 -1.25504 0
M  V30 10683 O 1026.64 1.92404 -0.368444 0
M  V30 10684 H 1025.22 0.085413 -0.742101 0
M  V30 10685 H 1027.88 -0.492396 -1.88578 0
M  V30 10686 H 1026.98 0.449701 -3.08843 0
M  V30 10687 N 1027.28 1.57312 -0.0952337 0
M  V30 10688 C 1028.51 1.98697 0.57682 0
M  V30 10689 C 1028.92 0.974347 1.61716 0
M  V30 10690 O 1028.28 -0.036022 1.82464 0
M  V30 10691 C 1028.33 3.40133 1.2244 0
M  V30 10692 O 1028.05 4.37518 0.225678 0
M  V30 10693 C 1029.55 3.96522 1.98205 0
M  V30 10694 H 1026.77 0.65294 0.154629 0
M  V30 10695 H 1029.32 2.03754 -0.174562 0
M  V30 10696 H 1027.47 3.3609 1.92671 0
M  V30 10697 H 1027.89 5.199 0.693116 0
M  V30 10698 H 1029.36 4.97637 2.38875 0
M  V30 10699 H 1029.84 3.34347 2.84796 0
M  V30 10700 H 1030.44 4.04038 1.3279 0
M  V30 10701 N 1028.76 -0.17846 1.56586 0
M  V30 10702 C 1030.03 -0.923096 1.72448 0
M  V30 10703 C 1030.41 -2.00692 0.654659 0
M  V30 10704 O 1029.76 -2.26079 -0.33171 0
M  V30 10705 C 1029.97 -1.49435 3.15389 0
M  V30 10706 C 1031.32 -1.97005 3.76131 0
M  V30 10707 O 1032.34 -1.59244 3.18622 0
M  V30 10708 O 1031.2 -2.66541 4.77094 0
M  V30 10709 H 1028.3 -0.434009 0.703964 0
M  V30 10710 H 1030.84 -0.16685 1.68878 0
M  V30 10711 H 1029.62 -0.713933 3.84732 0
M  V30 10712 H 1029.24 -2.31498 3.23256 0
M  V30 10713 N 1030.24 -1.51135 -0.446768 0
M  V30 10714 C 1031.48 -1.63578 -1.19875 0
M  V30 10715 C 1031.81 -0.346478 -1.91084 0
M  V30 10716 O 1031.09 0.653447 -1.83195 0
M  V30 10717 C 1031.37 -2.83275 -2.22323 0
M  V30 10718 C 1031.23 -4.22155 -1.55259 0
M  V30 10719 C 1032.54 -2.98496 -3.23401 0
M  V30 10720 H 1029.66 -0.595333 -0.434452 0
M  V30 10721 H 1032.31 -1.83593 -0.48923 0
M  V30 10722 H 1030.46 -2.6634 -2.82834 0
M  V30 10723 H 1032.13 -4.50736 -0.981571 0
M  V30 10724 H 1030.37 -4.25288 -0.855122 0
M  V30 10725 H 1031.04 -5.01882 -2.29823 0
M  V30 10726 H 1033.52 -3.14079 -2.72935 0
M  V30 10727 H 1032.39 -3.83828 -3.92386 0
M  V30 10728 H 1032.65 -2.10157 -3.88956 0
M  V30 10729 N 1031.71 0.701592 -1.41122 0
M  V30 10730 C 1032.94 1.49553 -1.43696 0
M  V30 10731 C 1033.36 1.88053 -0.0421865 0
M  V30 10732 O 1032.72 1.54223 0.953144 0
M  V30 10733 C 1032.77 2.73834 -2.34622 0
M  V30 10734 O 1031.87 3.71088 -1.7991 0
M  V30 10735 H 1031.21 0.450352 -0.487933 0
M  V30 10736 H 1033.74 0.862886 -1.85514 0
M  V30 10737 H 1033.75 3.22209 -2.5029 0
M  V30 10738 H 1032.43 2.45149 -3.35969 0
M  V30 10739 H 1031.01 3.29994 -1.73661 0
M  V30 10740 N 1033.19 1.2685 0.935242 0
M  V30 10741 C 1034.14 1.08923 2.03481 0
M  V30 10742 C 1035.11 -0.00749786 1.66098 0
M  V30 10743 O 1036.29 0.153401 1.90182 0
M  V30 10744 C 1033.43 0.734529 3.37192 0
M  V30 10745 C 1032.55 1.90812 3.87576 0
M  V30 10746 C 1031.68 1.49599 5.097 0
M  V30 10747 C 1030.72 2.63752 5.5236 0
M  V30 10748 N 1029.86 2.23179 6.65684 0
M  V30 10749 H 1034.7 2.03016 2.18148 0
M  V30 10750 H 1032.23 1.01072 1.06878 0
M  V30 10751 H 1034.19 0.509734 4.14074 0
M  V30 10752 H 1032.82 -0.169438 3.22355 0
M  V30 10753 H 1031.87 2.24567 3.0704 0
M  V30 10754 H 1033.19 2.7647 4.1517 0
M  V30 10755 H 1032.34 1.23199 5.9406 0
M  V30 10756 H 1031.08 0.61039 4.83865 0
M  V30 10757 H 1030.08 2.90874 4.66554 0
M  V30 10758 H 1031.31 3.5292 5.80193 0
M  V30 10759 H 1029.26 1.37061 6.41522 0
M  V30 10760 H 1029.17 3.02379 6.92895 0
M  V30 10761 H 1030.44 2.00007 7.53404 0
M  V30 10762 N 1034.67 -1.14067 1.0875 0
M  V30 10763 C 1035.58 -2.22871 0.732498 0
M  V30 10764 C 1036.6 -1.72008 -0.26253 0
M  V30 10765 O 1037.77 -2.01123 -0.105601 0
M  V30 10766 C 1034.84 -3.46371 0.150913 0
M  V30 10767 C 1033.9 -4.12158 1.201 0
M  V30 10768 C 1033.13 -5.29763 0.647075 0
M  V30 10769 O 1033.35 -5.67911 -0.532307 0
M  V30 10770 O 1032.29 -5.8542 1.3988 0
M  V30 10771 H 1036.11 -2.55596 1.64025 0
M  V30 10772 H 1033.7 -1.22065 0.861417 0
M  V30 10773 H 1035.58 -4.21055 -0.170442 0
M  V30 10774 H 1034.26 -3.15362 -0.729948 0
M  V30 10775 H 1033.16 -3.39332 1.57494 0
M  V30 10776 H 1034.5 -4.47282 2.05426 0
M  V30 10777 N 1036.15 -0.873678 -1.31166 0
M  V30 10778 C 1037.11 -0.337069 -2.26708 0
M  V30 10779 C 1038.11 0.51406 -1.52362 0
M  V30 10780 O 1039.3 0.322834 -1.71182 0
M  V30 10781 C 1036.43 0.520897 -3.36897 0
M  V30 10782 H 1037.63 -1.18056 -2.75686 0
M  V30 10783 H 1035.18 -0.649577 -1.42163 0
M  V30 10784 H 1035.91 1.38543 -2.93217 0
M  V30 10785 H 1035.7 -0.0886015 -3.92 0
M  V30 10786 H 1037.19 0.888497 -4.08039 0
M  V30 10787 N 1037.63 1.44308 -0.633487 0
M  V30 10788 C 1038.59 2.2912 0.060376 0
M  V30 10789 C 1039.59 1.41166 0.769992 0
M  V30 10790 O 1040.78 1.63012 0.614224 0
M  V30 10791 C 1037.91 3.22798 1.0961 0
M  V30 10792 H 1039.1 2.91958 -0.685617 0
M  V30 10793 H 1036.66 1.51259 -0.393738 0
M  V30 10794 H 1037.39 2.64815 1.87199 0
M  V30 10795 H 1037.18 3.87618 0.591161 0
M  V30 10796 H 1038.67 3.86504 1.58127 0
M  V30 10797 N 1039.1 0.374177 1.53094 0
M  V30 10798 C 1040.05 -0.48326 2.27524 0
M  V30 10799 C 1041.05 -1.07606 1.30833 0
M  V30 10800 O 1042.25 -1.01827 1.48429 0
M  V30 10801 H 1038.63 -0.174578 0.731455 0
M  V30 10802 H 1040.6 0.166156 2.97937 0
M  V30 10803 C 1039.35 -1.6065 3.08362 0
M  V30 10804 H 1038.67 -1.15966 3.82612 0
M  V30 10805 H 1040.11 -2.18099 3.63606 0
M  V30 10806 C 1038.57 -2.55381 2.19732 0
M  V30 10807 O 1039.1 -3.58414 1.8139 0
M  V30 10808 N 1037.31 -2.24769 1.84194 0
M  V30 10809 H 1036.85 -1.41018 2.15573 0
M  V30 10810 H 1036.81 -2.88404 1.25181 0
M  V30 10811 N 1040.58 -1.57259 0.103575 0
M  V30 10812 C 1041.52 -2.10165 -0.889141 0
M  V30 10813 C 1042.49 -1.01426 -1.27089 0
M  V30 10814 O 1043.68 -1.2898 -1.37465 0
M  V30 10815 C 1040.8 -2.58564 -2.18774 0
M  V30 10816 C 1039.85 -3.79043 -1.95522 0
M  V30 10817 S 1040.68 -5.22213 -1.18551 0
M  V30 10818 C 1041.84 -5.73968 -2.49623 0
M  V30 10819 H 1042.07 -2.9404 -0.439083 0
M  V30 10820 H 1039.61 -1.54008 -0.10989 0
M  V30 10821 H 1041.56 -2.87106 -2.93395 0
M  V30 10822 H 1040.22 -1.749 -2.609 0
M  V30 10823 H 1039.42 -4.11004 -2.91705 0
M  V30 10824 H 1039.02 -3.51038 -1.29028 0
M  V30 10825 H 1041.31 -5.82752 -3.45553 0
M  V30 10826 H 1042.25 -6.72324 -2.22229 0
M  V30 10827 H 1042.66 -5.01946 -2.58284 0
M  V30 10828 N 1042.06 0.170153 -1.56679 0
M  V30 10829 C 1043.31 0.884902 -1.81252 0
M  V30 10830 C 1043.62 1.83361 -0.681024 0
M  V30 10831 O 1044.83 2.59082 -0.811722 0
M  V30 10832 C 1043.28 1.62408 -3.21172 0
M  V30 10833 C 1042.89 0.718947 -4.42194 0
M  V30 10834 C 1044.64 2.32699 -3.55037 0
M  V30 10835 C 1042.54 1.45843 -5.73135 0
M  V30 10836 H 1041.47 0.33418 -0.675899 0
M  V30 10837 H 1044.12 0.137818 -1.82982 0
M  V30 10838 H 1042.51 2.41596 -3.13763 0
M  V30 10839 H 1043.68 -0.0360521 -4.60786 0
M  V30 10840 H 1042 0.125634 -4.1621 0
M  V30 10841 H 1044.59 2.88621 -4.50114 0
M  V30 10842 H 1044.94 3.08092 -2.79974 0
M  V30 10843 H 1045.47 1.60453 -3.64005 0
M  V30 10844 H 1042.21 0.746799 -6.51232 0
M  V30 10845 H 1041.73 2.18672 -5.58518 0
M  V30 10846 H 1043.41 2.0056 -6.1513 0
M  V30 10847 N 1043.54 1.5137 0.438746 0
M  V30 10848 C 1044.47 1.75528 1.53987 0
M  V30 10849 C 1045.45 0.605067 1.58975 0
M  V30 10850 O 1046.63 0.847634 1.74725 0
M  V30 10851 C 1043.76 1.87904 2.92078 0
M  V30 10852 C 1042.72 3.0333 3.01951 0
M  V30 10853 C 1042.04 3.00888 4.42007 0
M  V30 10854 C 1043.34 4.43319 2.76163 0
M  V30 10855 H 1045.04 2.67728 1.34022 0
M  V30 10856 H 1042.58 1.28831 0.643308 0
M  V30 10857 H 1044.54 2.03388 3.69068 0
M  V30 10858 H 1043.26 0.923514 3.13271 0
M  V30 10859 H 1041.92 2.87549 2.274 0
M  V30 10860 H 1041.57 2.03116 4.60166 0
M  V30 10861 H 1041.27 3.78397 4.49544 0
M  V30 10862 H 1042.79 3.18464 5.20973 0
M  V30 10863 H 1044.21 4.59458 3.42887 0
M  V30 10864 H 1042.6 5.22523 2.9511 0
M  V30 10865 H 1043.67 4.53453 1.71779 0
M  V30 10866 N 1045.02 -0.694098 1.41492 0
M  V30 10867 C 1046.26 -1.4563 1.41137 0
M  V30 10868 C 1046.6 -1.94189 0.0208428 0
M  V30 10869 O 1045.87 -1.69628 -0.951655 0
M  V30 10870 C 1046.15 -2.66714 2.41941 0
M  V30 10871 C 1046.01 -2.23912 3.90107 0
M  V30 10872 C 1047.33 -3.68913 2.39981 0
M  V30 10873 H 1044.44 -0.52821 0.513968 0
M  V30 10874 H 1047.09 -0.790437 1.72778 0
M  V30 10875 H 1045.24 -3.23525 2.1509 0
M  V30 10876 H 1046.91 -1.72417 4.27867 0
M  V30 10877 H 1045.15 -1.5568 4.04903 0
M  V30 10878 H 1045.82 -3.108 4.56188 0
M  V30 10879 H 1048.3 -3.21779 2.63813 0
M  V30 10880 H 1047.17 -4.51242 3.12524 0
M  V30 10881 H 1047.44 -4.18711 1.41892 0
M  V30 10882 N 1046.49 -1.27344 -0.928501 0
M  V30 10883 C 1047.77 -1.04362 -1.65433 0
M  V30 10884 C 1048.15 0.421896 -2.06841 0
M  V30 10885 O 1047.5 1.40496 -1.80203 0
M  V30 10886 C 1047.71 -2.00442 -2.85699 0
M  V30 10887 C 1049.06 -2.29767 -3.57061 0
M  V30 10888 O 1050.08 -1.98409 -2.95825 0
M  V30 10889 O 1048.94 -2.83217 -4.67387 0
M  V30 10890 H 1046.03 -0.397783 -0.72505 0
M  V30 10891 H 1048.58 -1.38606 -0.979109 0
M  V30 10892 H 1047.35 -2.99281 -2.52085 0
M  V30 10893 H 1046.98 -1.66755 -3.60941 0
M  V30 10894 N 1047.97 1.13488 -1.09353 0
M  V30 10895 C 1049.25 1.80998 -0.741559 0
M  V30 10896 C 1049.63 1.96418 0.773505 0
M  V30 10897 O 1048.98 1.53168 1.69563 0
M  V30 10898 C 1049.19 3.16078 -1.47972 0
M  V30 10899 C 1050.54 3.91438 -1.64504 0
M  V30 10900 O 1051.56 3.25699 -1.44218 0
M  V30 10901 O 1050.42 5.0935 -1.98054 0
M  V30 10902 H 1047.51 0.782953 -0.266297 0
M  V30 10903 H 1050.06 1.20422 -1.19569 0
M  V30 10904 H 1048.83 3.00076 -2.51137 0
M  V30 10905 H 1048.45 3.84354 -1.01772 0
M  V30 10906 N 1049.45 0.880621 1.30701 0
M  V30 10907 C 1050.73 0.41712 1.91101 0
M  V30 10908 C 1051.11 -1.10177 1.80067 0
M  V30 10909 O 1050.46 -1.93513 1.21511 0
M  V30 10910 C 1050.67 0.910364 3.36917 0
M  V30 10911 C 1052.01 0.942764 4.14001 0
M  V30 10912 O 1053.04 0.856733 3.45743 0
M  V30 10913 O 1051.9 1.06913 5.3594 0
M  V30 10914 H 1048.99 0.126775 0.817225 0
M  V30 10915 H 1051.54 0.969236 1.39298 0
M  V30 10916 H 1050.31 1.95414 3.39012 0
M  V30 10917 H 1049.93 0.337164 3.96168 0
M  V30 10918 N 1050.93 -1.4397 0.641131 0
M  V30 10919 C 1052.18 -2.01946 0.149629 0
M  V30 10920 C 1052.5 -1.50496 -1.23212 0
M  V30 10921 O 1051.76 -0.683453 -1.83378 0
M  V30 10922 C 1052.06 -3.5727 0.0963368 0
M  V30 10923 C 1051.72 -4.28016 1.4182 0
M  V30 10924 C 1050.39 -4.47059 1.78021 0
M  V30 10925 C 1052.74 -4.68183 2.29028 0
M  V30 10926 C 1050.07 -5.03532 3.01119 0
M  V30 10927 C 1052.42 -5.26019 3.51406 0
M  V30 10928 C 1051.08 -5.4328 3.87818 0
M  V30 10929 H 1050.35 -0.738974 0.0547531 0
M  V30 10930 H 1053 -1.72605 0.829436 0
M  V30 10931 H 1051.3 -3.86083 -0.666879 0
M  V30 10932 H 1053 -3.99871 -0.300635 0
M  V30 10933 H 1049.59 -4.13531 1.12651 0
M  V30 10934 H 1053.78 -4.53175 2.02353 0
M  V30 10935 H 1049.03 -5.15082 3.29395 0
M  V30 10936 H 1053.21 -5.56092 4.19208 0
M  V30 10937 H 1050.83 -5.86805 4.83284 0
M  V30 10938 N 1052.41 -0.382291 -1.52893 0
M  V30 10939 C 1053.63 0.204961 -2.06385 0
M  V30 10940 C 1054.06 1.40316 -1.25271 0
M  V30 10941 O 1053.42 1.79187 -0.275969 0
M  V30 10942 C 1053.46 0.560205 -3.56222 0
M  V30 10943 O 1052.57 1.65515 -3.77728 0
M  V30 10944 H 1051.91 0.0258798 -0.663495 0
M  V30 10945 H 1054.44 -0.547733 -1.97132 0
M  V30 10946 H 1054.45 0.826501 -3.99541 0
M  V30 10947 H 1053.12 -0.31584 -4.14699 0
M  V30 10948 H 1051.7 1.38311 -3.46301 0
M  V30 10949 N 1053.89 1.57202 -0.111913 0
M  V30 10950 C 1054.85 2.13778 0.826534 0
M  V30 10951 C 1055.85 1.07097 1.19945 0
M  V30 10952 O 1057.04 1.32906 1.12613 0
M  V30 10953 C 1054.17 2.6722 2.11675 0
M  V30 10954 H 1055.36 2.98023 0.334975 0
M  V30 10955 H 1052.92 1.55696 0.137256 0
M  V30 10956 H 1053.65 1.86542 2.65278 0
M  V30 10957 H 1053.44 3.45235 1.8589 0
M  V30 10958 H 1054.93 3.10926 2.78774 0
M  V30 10959 N 1055.36 -0.161842 1.56767 0
M  V30 10960 C 1056.61 -0.875278 1.81719 0
M  V30 10961 C 1056.93 -1.82998 0.690739 0
M  V30 10962 O 1058.13 -2.58648 0.82545 0
M  V30 10963 C 1056.59 -1.60703 3.22029 0
M  V30 10964 C 1056.2 -0.695486 4.42569 0
M  V30 10965 C 1057.94 -2.30813 3.56266 0
M  V30 10966 C 1055.85 -1.42801 5.73901 0
M  V30 10967 H 1054.78 -0.330591 0.677662 0
M  V30 10968 H 1057.43 -0.128112 1.83052 0
M  V30 10969 H 1055.81 -2.39929 3.1504 0
M  V30 10970 H 1056.98 0.0604882 4.6076 0
M  V30 10971 H 1055.3 -0.10356 4.16271 0
M  V30 10972 H 1057.9 -2.86229 4.51638 0
M  V30 10973 H 1058.24 -3.06603 2.81604 0
M  V30 10974 H 1058.77 -1.5852 3.64851 0
M  V30 10975 H 1055.51 -0.712253 6.51619 0
M  V30 10976 H 1055.03 -2.15707 5.5967 0
M  V30 10977 H 1056.71 -1.97295 6.16185 0
M  V30 10978 N 1056.84 -1.516 -0.430713 0
M  V30 10979 C 1057.77 -1.68084 -1.54347 0
M  V30 10980 C 1058.75 -0.528401 -1.53775 0
M  V30 10981 O 1059.94 -0.753072 -1.72804 0
M  V30 10982 C 1057.06 -1.70048 -2.92919 0
M  V30 10983 C 1056.11 -2.91336 -3.11489 0
M  V30 10984 S 1056.94 -4.52043 -2.87084 0
M  V30 10985 C 1058.1 -4.56761 -4.27926 0
M  V30 10986 H 1058.33 -2.62203 -1.40131 0
M  V30 10987 H 1055.86 -1.41368 -0.620853 0
M  V30 10988 H 1057.82 -1.71864 -3.72791 0
M  V30 10989 H 1056.48 -0.770946 -3.04492 0
M  V30 10990 H 1055.68 -2.8913 -4.1282 0
M  V30 10991 H 1055.28 -2.87296 -2.39451 0
M  V30 10992 H 1057.57 -4.32809 -5.21232 0
M  V30 10993 H 1058.51 -5.58604 -4.35163 0
M  V30 10994 H 1058.92 -3.86014 -4.1189 0
M  V30 10995 N 1058.32 0.686584 -1.41858 0
M  V30 10996 C 1059.27 1.82167 -1.4463 0
M  V30 10997 C 1060.26 1.66286 -0.323313 0
M  V30 10998 O 1061.47 1.73038 -0.495773 0
M  V30 10999 H 1057.84 0.600454 -0.452724 0
M  V30 11000 H 1059.81 1.76947 -2.40276 0
M  V30 11001 C 1058.56 3.20248 -1.35412 0
M  V30 11002 H 1057.89 3.33089 -2.21115 0
M  V30 11003 H 1059.33 3.99723 -1.41413 0
M  V30 11004 C 1057.78 3.36832 -0.0674972 0
M  V30 11005 O 1058.31 3.91845 0.884325 0
M  V30 11006 N 1056.52 2.90598 0.011519 0
M  V30 11007 H 1056.07 2.46016 -0.76381 0
M  V30 11008 H 1056.03 3.02072 0.871774 0
M  V30 11009 N 1059.8 1.27835 0.921735 0
M  V30 11010 C 1060.76 1.11108 2.00469 0
M  V30 11011 C 1061.76 0.053203 1.60712 0
M  V30 11012 O 1062.95 0.298308 1.71627 0
M  V30 11013 C 1060.08 0.694269 3.33755 0
M  V30 11014 H 1061.28 2.07279 2.16738 0
M  V30 11015 H 1058.83 1.10708 1.10333 0
M  V30 11016 H 1059.56 -0.268561 3.23186 0
M  V30 11017 H 1059.35 1.45836 3.6397 0
M  V30 11018 H 1060.84 0.59965 4.13272 0
M  V30 11019 N 1061.28 -1.12907 1.09954 0
M  V30 11020 C 1062.52 -1.84579 0.840155 0
M  V30 11021 C 1062.85 -1.83605 -0.632692 0
M  V30 11022 O 1062.13 -1.27803 -1.46617 0
M  V30 11023 C 1062.41 -3.32489 1.38286 0
M  V30 11024 C 1062.27 -3.41946 2.92221 0
M  V30 11025 C 1063.58 -4.28091 1.0211 0
M  V30 11026 H 1060.7 -0.670169 0.306663 0
M  V30 11027 H 1063.35 -1.3249 1.36185 0
M  V30 11028 H 1061.5 -3.76978 0.939123 0
M  V30 11029 H 1063.17 -3.06128 3.45085 0
M  V30 11030 H 1061.41 -2.8265 3.29077 0
M  V30 11031 H 1062.08 -4.45983 3.25274 0
M  V30 11032 H 1064.56 -3.91701 1.4039 0
M  V30 11033 H 1063.43 -5.30005 1.42781 0
M  V30 11034 H 1063.69 -4.42044 -0.0700753 0
M  V30 11035 N 1062.75 -0.88754 -1.30232 0
M  V30 11036 C 1063.66 -0.360333 -2.31816 0
M  V30 11037 C 1064.68 0.538741 -1.6545 0
M  V30 11038 O 1065.86 0.431246 -1.96729 0
M  V30 11039 C 1062.92 0.414336 -3.44215 0
M  V30 11040 C 1061.98 -0.514799 -4.26202 0
M  V30 11041 C 1061.21 0.222994 -5.33234 0
M  V30 11042 O 1061.44 1.44871 -5.51696 0
M  V30 11043 O 1060.37 -0.428221 -6.00375 0
M  V30 11044 H 1064.2 -1.20279 -2.78867 0
M  V30 11045 H 1061.78 -0.651459 -1.34448 0
M  V30 11046 H 1063.66 0.852859 -4.12679 0
M  V30 11047 H 1062.34 1.23305 -2.99295 0
M  V30 11048 H 1061.25 -1.00219 -3.60426 0
M  V30 11049 H 1062.58 -1.29959 -4.74733 0
M  V30 11050 N 1064.23 1.43628 -0.648757 0
M  V30 11051 C 1065.14 2.34554 0.0463037 0
M  V30 11052 C 1066.16 1.53629 0.816952 0
M  V30 11053 O 1067.33 1.86297 0.765212 0
M  V30 11054 C 1064.4 3.3185 1.00381 0
M  V30 11055 C 1063.46 4.2868 0.230589 0
M  V30 11056 C 1062.69 5.21328 1.14249 0
M  V30 11057 O 1062.92 5.18298 2.38166 0
M  V30 11058 O 1061.85 5.98726 0.617296 0
M  V30 11059 H 1065.68 2.95475 -0.702008 0
M  V30 11060 H 1063.26 1.43694 -0.408942 0
M  V30 11061 H 1065.14 3.91692 1.5542 0
M  V30 11062 H 1063.82 2.73439 1.73243 0
M  V30 11063 H 1062.73 3.72332 -0.363282 0
M  V30 11064 H 1064.06 4.90061 -0.458368 0
M  V30 11065 N 1065.71 0.390394 1.52688 0
M  V30 11066 C 1066.96 -0.191067 2.01195 0
M  V30 11067 C 1067.28 -1.47229 1.27862 0
M  V30 11068 O 1066.55 -1.91793 0.399007 0
M  V30 11069 H 1065.13 -0.073596 0.743366 0
M  V30 11070 H 1067.79 0.522334 1.8777 0
M  V30 11071 H 1066.89 -0.40051 3.0952 0
M  V30 11072 N 1067.19 -1.57141 0.120249 0
M  V30 11073 C 1068.14 -2.15379 -0.829497 0
M  V30 11074 C 1069.11 -1.07913 -1.2627 0
M  V30 11075 O 1070.29 -1.35827 -1.33999 0
M  V30 11076 C 1067.43 -2.75847 -2.0737 0
M  V30 11077 C 1066.54 -3.97624 -1.68875 0
M  V30 11078 C 1065.68 -4.46175 -2.88272 0
M  V30 11079 C 1064.72 -5.60481 -2.46023 0
M  V30 11080 N 1063.85 -6.0377 -3.58337 0
M  V30 11081 H 1068.69 -2.96211 -0.326031 0
M  V30 11082 H 1066.23 -1.46341 -0.149235 0
M  V30 11083 H 1068.19 -3.09037 -2.80272 0
M  V30 11084 H 1066.82 -1.97703 -2.55174 0
M  V30 11085 H 1065.87 -3.70588 -0.858431 0
M  V30 11086 H 1067.18 -4.80512 -1.33827 0
M  V30 11087 H 1066.34 -4.8128 -3.69397 0
M  V30 11088 H 1065.08 -3.6224 -3.26548 0
M  V30 11089 H 1064.08 -5.24979 -1.63331 0
M  V30 11090 H 1065.31 -6.46184 -2.08863 0
M  V30 11091 H 1063.25 -5.22776 -3.96284 0
M  V30 11092 H 1063.17 -6.81517 -3.27217 0
M  V30 11093 H 1064.44 -6.43514 -4.39898 0
M  V30 11094 N 1068.67 0.153526 -1.5685 0
M  V30 11095 C 1069.91 0.865519 -1.82629 0
M  V30 11096 C 1070.24 1.81999 -0.700105 0
M  V30 11097 O 1069.51 1.93907 0.278744 0
M  V30 11098 H 1068.09 0.32261 -0.673745 0
M  V30 11099 H 1070.75 0.149088 -1.94329 0
M  V30 11100 H 1069.84 1.43171 -2.77324 0
M  V30 11101 N 1070.14 1.51827 0.422667 0
M  V30 11102 C 1071.39 1.6445 1.16786 0
M  V30 11103 C 1071.71 0.373792 1.91995 0
M  V30 11104 O 1072.91 0.379621 2.68833 0
M  V30 11105 C 1071.37 2.90488 2.12473 0
M  V30 11106 C 1070.98 4.24617 1.42844 0
M  V30 11107 C 1072.72 3.12472 2.87335 0
M  V30 11108 C 1070.63 5.41791 2.371 0
M  V30 11109 H 1069.56 0.612561 0.439641 0
M  V30 11110 H 1072.21 1.78305 0.433534 0
M  V30 11111 H 1070.59 2.703 2.89402 0
M  V30 11112 H 1071.76 4.55239 0.71372 0
M  V30 11113 H 1070.08 4.08628 0.800769 0
M  V30 11114 H 1072.68 3.9719 3.57973 0
M  V30 11115 H 1073.02 2.26148 3.49518 0
M  V30 11116 H 1073.55 3.33069 2.17509 0
M  V30 11117 H 1070.29 6.3042 1.79584 0
M  V30 11118 H 1069.81 5.15526 3.06583 0
M  V30 11119 H 1071.49 5.74329 2.97918 0
M  V30 11120 N 1071.62 -0.679052 1.4222 0
M  V30 11121 C 1072.87 -1.43912 1.42463 0
M  V30 11122 C 1073.2 -1.9446 0.0395574 0
M  V30 11123 O 1072.45 -1.71019 -0.951365 0
M  V30 11124 C 1072.75 -2.65528 2.39227 0
M  V30 11125 C 1072.42 -2.33545 3.85704 0
M  V30 11126 C 1071.08 -2.24534 4.25603 0
M  V30 11127 C 1073.43 -2.07496 4.78116 0
M  V30 11128 C 1070.76 -1.87592 5.55901 0
M  V30 11129 C 1073.11 -1.72059 6.08752 0
M  V30 11130 C 1071.78 -1.61555 6.47654 0
M  V30 11131 H 1071.05 -0.52661 0.521309 0
M  V30 11132 H 1073.69 -0.774661 1.75132 0
M  V30 11133 H 1072 -3.36985 1.9987 0
M  V30 11134 H 1073.69 -3.23702 2.36681 0
M  V30 11135 H 1070.28 -2.4146 3.54112 0
M  V30 11136 H 1074.47 -2.13393 4.48082 0
M  V30 11137 H 1069.72 -1.78026 5.84908 0
M  V30 11138 H 1073.9 -1.50926 6.79849 0
M  V30 11139 H 1071.53 -1.32699 7.48529 0
M  V30 11140 N 1073.1 -1.28322 -0.914942 0
M  V30 11141 C 1074.33 -1.18083 -1.69529 0
M  V30 11142 C 1074.74 0.263274 -1.87359 0
M  V30 11143 O 1074.08 1.18988 -1.39955 0
M  V30 11144 C 1074.14 -1.8062 -3.10832 0
M  V30 11145 C 1073.81 -3.29861 -3.16292 0
M  V30 11146 C 1074.8 -4.26313 -2.97578 0
M  V30 11147 C 1072.49 -3.70797 -3.38843 0
M  V30 11148 C 1074.48 -5.61677 -3.01326 0
M  V30 11149 C 1072.17 -5.06287 -3.42223 0
M  V30 11150 C 1073.17 -6.01537 -3.23485 0
M  V30 11151 O 1072.86 -7.34556 -3.26624 0
M  V30 11152 H 1072.59 -0.410931 -0.53676 0
M  V30 11153 H 1075.14 -1.6994 -1.15367 0
M  V30 11154 H 1073.37 -1.23255 -3.66531 0
M  V30 11155 H 1075.06 -1.64915 -3.70888 0
M  V30 11156 H 1075.83 -3.96023 -2.79984 0
M  V30 11157 H 1071.71 -2.97124 -3.52475 0
M  V30 11158 H 1075.25 -6.36 -2.86618 0
M  V30 11159 H 1071.15 -5.36228 -3.59346 0
M  V30 11160 H 1071.92 -7.43167 -3.42994 0
M  V30 11161 N 1074.58 1.12322 -1.10551 0
M  V30 11162 C 1075.53 2.20166 -0.750317 0
M  V30 11163 C 1076.52 1.67484 0.254066 0
M  V30 11164 O 1077.73 1.79637 0.114309 0
M  V30 11165 H 1074.1 0.717642 -0.22471 0
M  V30 11166 H 1076.07 2.47378 -1.66873 0
M  V30 11167 C 1074.82 3.47126 -0.199651 0
M  V30 11168 H 1074.14 3.88011 -0.963735 0
M  V30 11169 H 1075.58 4.23999 0.0108033 0
M  V30 11170 C 1074.04 3.19526 1.06792 0
M  V30 11171 O 1074.57 3.39368 2.14923 0
M  V30 11172 N 1072.78 2.73324 0.987032 0
M  V30 11173 H 1072.33 2.57378 0.106997 0
M  V30 11174 H 1072.28 2.55234 1.83584 0
M  V30 11175 N 1076.06 0.894434 1.2976 0
M  V30 11176 C 1077.31 0.513673 1.95049 0
M  V30 11177 C 1077.62 -0.943744 1.71327 0
M  V30 11178 O 1078.82 -1.43179 2.30678 0
M  V30 11179 C 1077.28 0.867751 3.49282 0
M  V30 11180 C 1076.89 2.34358 3.81812 0
M  V30 11181 C 1078.63 0.556645 4.20835 0
M  V30 11182 C 1076.54 2.63879 5.29265 0
M  V30 11183 H 1075.47 0.188375 0.73009 0
M  V30 11184 H 1078.12 1.09071 1.47566 0
M  V30 11185 H 1076.5 0.2197 3.9539 0
M  V30 11186 H 1077.68 3.03674 3.46581 0
M  V30 11187 H 1075.99 2.62318 3.23386 0
M  V30 11188 H 1078.59 0.754123 5.29355 0
M  V30 11189 H 1078.93 -0.504526 4.13231 0
M  V30 11190 H 1079.46 1.1623 3.80441 0
M  V30 11191 H 1076.2 3.68774 5.41928 0
M  V30 11192 H 1075.72 1.99182 5.65762 0
M  V30 11193 H 1077.4 2.49871 5.96803 0
M  V30 11194 N 1077.53 -1.43282 0.656365 0
M  V30 11195 C 1078.48 -2.30776 -0.0333155 0
M  V30 11196 C 1079.45 -1.44928 -0.811493 0
M  V30 11197 O 1080.64 -1.73792 -0.787465 0
M  V30 11198 C 1077.78 -3.30548 -0.991566 0
M  V30 11199 C 1076.89 -4.31493 -0.209159 0
M  V30 11200 C 1076.02 -5.18346 -1.16149 0
M  V30 11201 C 1075.06 -6.10983 -0.369699 0
M  V30 11202 N 1074.2 -6.90449 -1.27378 0
M  V30 11203 H 1079.04 -2.89204 0.718668 0
M  V30 11204 H 1076.58 -1.4247 0.366161 0
M  V30 11205 H 1078.54 -3.86905 -1.56078 0
M  V30 11206 H 1077.17 -2.73762 -1.71039 0
M  V30 11207 H 1076.22 -3.77405 0.476394 0
M  V30 11208 H 1077.53 -4.97142 0.406394 0
M  V30 11209 H 1076.68 -5.79345 -1.80124 0
M  V30 11210 H 1075.42 -4.52831 -1.81095 0
M  V30 11211 H 1074.43 -5.49069 0.283377 0
M  V30 11212 H 1075.65 -6.78541 0.275399 0
M  V30 11213 H 1073.6 -6.27579 -1.90999 0
M  V30 11214 H 1073.52 -7.52631 -0.71287 0
M  V30 11215 H 1074.78 -7.5595 -1.90158 0
M  V30 11216 N 1079.01 -0.398486 -1.52479 0
M  V30 11217 C 1079.96 0.447001 -2.28264 0
M  V30 11218 C 1080.96 1.05511 -1.32529 0
M  V30 11219 O 1082.16 0.994528 -1.5003 0
M  V30 11220 H 1078.54 0.162919 -0.73414 0
M  V30 11221 H 1080.51 -0.213534 -2.97635 0
M  V30 11222 C 1079.26 1.55724 -3.10879 0
M  V30 11223 H 1078.58 1.09864 -3.84409 0
M  V30 11224 H 1080.02 2.12286 -3.67029 0
M  V30 11225 C 1078.48 2.51853 -2.23768 0
M  V30 11226 O 1079.01 3.55483 -1.87069 0
M  V30 11227 N 1077.21 2.2181 -1.87746 0
M  V30 11228 H 1076.76 1.3757 -2.17789 0
M  V30 11229 H 1076.72 2.86376 -1.29753 0
M  V30 11230 N 1080.49 1.57075 -0.12858 0
M  V30 11231 C 1081.74 1.9552 0.527087 0
M  V30 11232 C 1082.07 1.01243 1.66072 0
M  V30 11233 O 1081.32 0.0381076 1.95663 0
M  V30 11234 C 1081.62 3.40329 1.09138 0
M  V30 11235 C 1081.29 4.50832 0.0781039 0
M  V30 11236 C 1079.95 4.80782 -0.200493 0
M  V30 11237 C 1082.3 5.17595 -0.61192 0
M  V30 11238 C 1079.63 5.74809 -1.17524 0
M  V30 11239 C 1081.98 6.12671 -1.57536 0
M  V30 11240 C 1080.64 6.41008 -1.86184 0
M  V30 11241 H 1079.91 0.715458 0.192875 0
M  V30 11242 H 1082.56 1.90328 -0.211515 0
M  V30 11243 H 1080.87 3.42262 1.90694 0
M  V30 11244 H 1082.56 3.67393 1.60696 0
M  V30 11245 H 1079.15 4.2751 0.30543 0
M  V30 11246 H 1083.34 4.94605 -0.40986 0
M  V30 11247 H 1078.59 5.95065 -1.40384 0
M  V30 11248 H 1082.77 6.63486 -2.11565 0
M  V30 11249 H 1080.39 7.13673 -2.61868 0
M  V30 11250 N 1081.97 -0.145205 1.5693 0
M  V30 11251 C 1083.22 -0.858786 1.83719 0
M  V30 11252 C 1083.55 -1.80738 0.710452 0
M  V30 11253 O 1082.82 -1.92389 -0.285791 0
M  V30 11254 C 1083.11 -1.6317 3.2101 0
M  V30 11255 C 1082.96 -0.704472 4.44249 0
M  V30 11256 C 1084.28 -2.59377 3.55544 0
M  V30 11257 H 1081.4 -0.310757 0.66828 0
M  V30 11258 H 1084.04 -0.123918 1.89595 0
M  V30 11259 H 1082.19 -2.25816 3.16132 0
M  V30 11260 H 1083.86 -0.08887 4.61214 0
M  V30 11261 H 1082.1 -0.0141693 4.33798 0
M  V30 11262 H 1082.78 -1.28135 5.36922 0
M  V30 11263 H 1085.25 -2.06848 3.61044 0
M  V30 11264 H 1084.13 -3.10506 4.52634 0
M  V30 11265 H 1084.39 -3.40819 2.81594 0
M  V30 11266 N 1083.45 -1.52049 -0.414609 0
M  V30 11267 C 1084.86 -1.40729 -0.752822 0
M  V30 11268 C 1085.06 -0.507468 -1.95005 0
M  V30 11269 O 1084.12 0.0288189 -2.52484 0
M  V30 11270 C 1085.43 -2.83163 -1.01189 0
M  V30 11271 C 1086.98 -2.92469 -1.11494 0
M  V30 11272 C 1087.46 -4.35859 -1.4068 0
M  V30 11273 N 1088.95 -4.39069 -1.47557 0
M  V30 11274 C 1089.68 -5.47072 -1.71756 0
M  V30 11275 N 1089.18 -6.65201 -1.93595 0
M  V30 11276 N 1090.97 -5.3458 -1.73726 0
M  V30 11277 H 1083.12 -2.09089 0.373549 0
M  V30 11278 H 1085.38 -0.942188 0.104814 0
M  V30 11279 H 1085.09 -3.51104 -0.204609 0
M  V30 11280 H 1084.96 -3.23874 -1.93353 0
M  V30 11281 H 1087.35 -2.24711 -1.91282 0
M  V30 11282 H 1087.43 -2.55222 -0.171794 0
M  V30 11283 H 1087.08 -5.04174 -0.614119 0
M  V30 11284 H 1087.01 -4.70637 -2.36238 0
M  V30 11285 H 1089.5 -3.53913 -1.32491 0
M  V30 11286 H 1089.81 -7.43297 -2.11495 0
M  V30 11287 H 1088.16 -6.68276 -1.90871 0
M  V30 11288 H 1091.35 -4.41271 -1.56198 0
M  V30 11289 H 1091.52 -6.18826 -1.92246 0
M  V30 11290 N 1084.93 0.6715 -1.42579 0
M  V30 11291 C 1086.17 1.43154 -1.43224 0
M  V30 11292 C 1086.5 1.94436 -0.0498695 0
M  V30 11293 O 1085.76 1.71521 0.942282 0
M  V30 11294 C 1086.05 2.64256 -2.40632 0
M  V30 11295 C 1085.72 2.31497 -3.86937 0
M  V30 11296 C 1084.38 2.22274 -4.26788 0
M  V30 11297 C 1086.73 2.04957 -4.7921 0
M  V30 11298 C 1084.06 1.84642 -5.56888 0
M  V30 11299 C 1086.41 1.68828 -6.09656 0
M  V30 11300 C 1085.08 1.58118 -6.48502 0
M  V30 11301 H 1084.35 0.523838 -0.524094 0
M  V30 11302 H 1087 0.765363 -1.7554 0
M  V30 11303 H 1085.3 3.35921 -2.01654 0
M  V30 11304 H 1087 3.22443 -2.38394 0
M  V30 11305 H 1083.59 2.39578 -3.55387 0
M  V30 11306 H 1087.77 2.11014 -4.49207 0
M  V30 11307 H 1083.03 1.74921 -5.85843 0
M  V30 11308 H 1087.2 1.47319 -6.8064 0
M  V30 11309 H 1084.83 1.28728 -7.49222 0
M  V30 11310 N 1086.4 1.28806 0.908124 0
M  V30 11311 C 1087.34 1.09018 2.01613 0
M  V30 11312 C 1088.35 0.0402059 1.6275 0
M  V30 11313 O 1089.54 0.283853 1.76229 0
M  V30 11314 C 1086.64 0.635712 3.32884 0
M  V30 11315 C 1085.81 1.76235 4.00325 0
M  V30 11316 C 1084.87 1.3003 5.09881 0
M  V30 11317 O 1083.9 2.00354 5.32773 0
M  V30 11318 N 1085.1 0.166575 5.80261 0
M  V30 11319 H 1087.86 2.0444 2.19144 0
M  V30 11320 H 1085.42 1.20633 1.07978 0
M  V30 11321 H 1087.42 0.310097 4.0351 0
M  V30 11322 H 1085.99 -0.225816 3.11783 0
M  V30 11323 H 1085.21 2.25727 3.23173 0
M  V30 11324 H 1086.49 2.51796 4.42127 0
M  V30 11325 H 1085.89 -0.419934 5.64139 0
M  V30 11326 H 1084.45 -0.0997281 6.51724 0
M  V30 11327 N 1087.88 -1.11734 1.11145 0
M  V30 11328 C 1088.81 -2.1976 0.789152 0
M  V30 11329 C 1089.79 -1.68382 -0.241143 0
M  V30 11330 O 1090.98 -1.93914 -0.105292 0
M  V30 11331 C 1088.11 -3.46549 0.228204 0
M  V30 11332 C 1087.06 -4.11123 1.19002 0
M  V30 11333 C 1086.39 -5.32451 0.489928 0
M  V30 11334 C 1087.69 -4.56406 2.53951 0
M  V30 11335 H 1089.38 -2.46978 1.69241 0
M  V30 11336 H 1086.93 -1.18705 0.81517 0
M  V30 11337 H 1088.88 -4.21399 -0.00945908 0
M  V30 11338 H 1087.6 -3.18782 -0.71033 0
M  V30 11339 H 1086.26 -3.38264 1.41326 0
M  V30 11340 H 1085.91 -5.00953 -0.453315 0
M  V30 11341 H 1085.61 -5.76605 1.1314 0
M  V30 11342 H 1087.14 -6.10042 0.260984 0
M  V30 11343 H 1088.55 -5.22592 2.35733 0
M  V30 11344 H 1086.95 -5.11363 3.14051 0
M  V30 11345 H 1088.02 -3.7001 3.13402 0
M  V30 11346 N 1089.36 -0.901303 -1.29284 0
M  V30 11347 C 1090.58 -0.542823 -2.0017 0
M  V30 11348 C 1091.01 0.865583 -1.67001 0
M  V30 11349 O 1090.37 1.5764 -0.895502 0
M  V30 11350 C 1090.42 -0.743987 -3.52842 0
M  V30 11351 O 1089.52 0.202771 -4.11901 0
M  V30 11352 H 1088.86 -0.211903 -0.62928 0
M  V30 11353 H 1091.39 -1.21333 -1.64741 0
M  V30 11354 H 1091.4 -0.64926 -4.02801 0
M  V30 11355 H 1090.08 -1.77077 -3.7632 0
M  V30 11356 H 1088.65 0.0603637 -3.72851 0
M  V30 11357 N 1090.84 1.42931 -0.663954 0
M  V30 11358 C 1092.07 2.06028 -0.189808 0
M  V30 11359 C 1092.48 1.49827 1.14879 0
M  V30 11360 O 1091.84 0.633778 1.71142 0
M  V30 11361 C 1091.89 3.61349 -0.104343 0
M  V30 11362 O 1091.61 4.15463 -1.39004 0
M  V30 11363 C 1093.11 4.4154 0.394599 0
M  V30 11364 H 1090.33 0.664259 -0.0948744 0
M  V30 11365 H 1092.87 1.83255 -0.907632 0
M  V30 11366 H 1091.03 3.83271 0.564103 0
M  V30 11367 H 1091.44 5.09233 -1.25626 0
M  V30 11368 H 1092.92 5.50525 0.403329 0
M  V30 11369 H 1093.39 4.1534 1.4279 0
M  V30 11370 H 1094 4.24612 -0.241729 0
M  V30 11371 N 1092.32 0.406567 1.52266 0
M  V30 11372 C 1093.54 -0.172101 2.06685 0
M  V30 11373 C 1093.97 -1.38306 1.27488 0
M  V30 11374 O 1093.32 -1.78726 0.304441 0
M  V30 11375 C 1093.37 -0.503463 3.57068 0
M  V30 11376 O 1092.48 -1.59485 3.80314 0
M  V30 11377 H 1091.82 -0.0153209 0.663823 0
M  V30 11378 H 1094.35 0.579025 1.96236 0
M  V30 11379 H 1094.36 -0.762833 4.00805 0
M  V30 11380 H 1093.03 0.381775 4.14144 0
M  V30 11381 H 1091.61 -1.32784 3.48458 0
M  V30 11382 N 1093.79 -1.57004 0.136909 0
M  V30 11383 C 1095.04 -1.94972 -0.51662 0
M  V30 11384 C 1095.36 -1.02367 -1.66674 0
M  V30 11385 O 1096.56 -1.29873 -2.38423 0
M  V30 11386 C 1095.02 -3.4657 -0.970435 0
M  V30 11387 C 1094.63 -4.47741 0.152204 0
M  V30 11388 C 1096.37 -3.93423 -1.59432 0
M  V30 11389 C 1094.28 -5.90537 -0.319315 0
M  V30 11390 H 1093.21 -0.727873 -0.196766 0
M  V30 11391 H 1095.86 -1.82181 0.219637 0
M  V30 11392 H 1094.24 -3.54657 -1.76165 0
M  V30 11393 H 1095.41 -4.5134 0.928925 0
M  V30 11394 H 1093.73 -4.10746 0.683867 0
M  V30 11395 H 1096.33 -4.97539 -1.95856 0
M  V30 11396 H 1096.67 -3.34404 -2.47951 0
M  V30 11397 H 1097.2 -3.8821 -0.868193 0
M  V30 11398 H 1093.94 -6.53352 0.530248 0
M  V30 11399 H 1093.46 -5.90321 -1.06213 0
M  V30 11400 H 1095.14 -6.42346 -0.774662 0
M  V30 11401 N 1095.27 0.136881 -1.57004 0
M  V30 11402 C 1096.5 0.866405 -1.88436 0
M  V30 11403 C 1096.92 1.73483 -0.727006 0
M  V30 11404 O 1096.28 1.78398 0.323094 0
M  V30 11405 C 1096.33 1.69059 -3.18514 0
M  V30 11406 O 1095.43 2.79584 -3.03161 0
M  V30 11407 H 1094.77 0.240709 -0.618834 0
M  V30 11408 H 1097.3 0.124653 -2.0422 0
M  V30 11409 H 1097.31 2.08353 -3.50789 0
M  V30 11410 H 1095.99 1.05296 -4.0235 0
M  V30 11411 H 1094.57 2.43623 -2.82315 0
M  V30 11412 N 1096.75 1.52266 0.40654 0
M  V30 11413 C 1097.71 1.75168 1.47814 0
M  V30 11414 C 1098.71 0.621575 1.48301 0
M  V30 11415 O 1099.9 0.889476 1.4978 0
M  V30 11416 C 1097.04 1.83642 2.87208 0
M  V30 11417 H 1098.23 2.70834 1.28798 0
M  V30 11418 H 1095.78 1.42722 0.637196 0
M  V30 11419 H 1096.52 0.898994 3.1159 0
M  V30 11420 H 1096.3 2.65801 2.88257 0
M  V30 11421 H 1097.79 2.03093 3.64888 0
M  V30 11422 N 1098.23 -0.663929 1.42933 0
M  V30 11423 C 1099.16 -1.78899 1.50058 0
M  V30 11424 C 1100.14 -1.66329 0.356164 0
M  V30 11425 O 1101.32 -1.85587 0.571944 0
M  V30 11426 C 1098.45 -3.17265 1.41281 0
M  V30 11427 C 1097.41 -3.44584 2.53861 0
M  V30 11428 C 1096.73 -4.82638 2.3014 0
M  V30 11429 C 1098.03 -3.40394 3.96143 0
M  V30 11430 H 1099.73 -1.73194 2.44222 0
M  V30 11431 H 1097.27 -0.83182 1.17545 0
M  V30 11432 H 1099.23 -3.95715 1.44872 0
M  V30 11433 H 1097.95 -3.23675 0.43616 0
M  V30 11434 H 1096.61 -2.685 2.49606 0
M  V30 11435 H 1096.26 -4.85711 1.30743 0
M  V30 11436 H 1095.96 -5.01879 3.056 0
M  V30 11437 H 1097.48 -5.63359 2.35497 0
M  V30 11438 H 1098.9 -4.08796 4.01943 0
M  V30 11439 H 1097.29 -3.7117 4.71543 0
M  V30 11440 H 1098.36 -2.38767 4.22041 0
M  V30 11441 N 1099.71 -1.29285 -0.901281 0
M  V30 11442 C 1100.93 -1.20169 -1.69039 0
M  V30 11443 C 1101.36 0.234509 -1.86632 0
M  V30 11444 O 1100.71 1.16935 -1.38549 0
M  V30 11445 C 1100.76 -1.91852 -3.05328 0
M  V30 11446 O 1099.87 -1.23448 -3.9349 0
M  V30 11447 H 1099.21 -0.416486 -0.517141 0
M  V30 11448 H 1101.74 -1.70826 -1.12603 0
M  V30 11449 H 1101.75 -2.00244 -3.5548 0
M  V30 11450 H 1100.42 -2.96313 -2.91841 0
M  V30 11451 H 1099 -1.23303 -3.51924 0
M  V30 11452 N 1101.18 1.11143 -1.11736 0
M  V30 11453 C 1102.11 2.19339 -0.800795 0
M  V30 11454 C 1103.1 1.68508 0.23221 0
M  V30 11455 O 1104.28 1.93967 0.0950063 0
M  V30 11456 C 1101.41 3.46424 -0.246579 0
M  V30 11457 C 1100.36 4.10487 -1.21181 0
M  V30 11458 C 1099.69 5.32183 -0.518158 0
M  V30 11459 C 1100.99 4.55052 -2.56368 0
M  V30 11460 H 1102.68 2.46077 -1.70548 0
M  V30 11461 H 1100.23 1.18271 -0.821454 0
M  V30 11462 H 1102.18 4.21398 -0.0128889 0
M  V30 11463 H 1100.91 3.19154 0.693415 0
M  V30 11464 H 1099.57 3.3751 -1.43118 0
M  V30 11465 H 1099.21 5.01187 0.426742 0
M  V30 11466 H 1098.91 5.75997 -1.16196 0
M  V30 11467 H 1100.44 6.09895 -0.293333 0
M  V30 11468 H 1101.85 5.21335 -2.38501 0
M  V30 11469 H 1100.25 5.0969 -3.16758 0
M  V30 11470 H 1101.32 3.68343 -3.1536 0
M  V30 11471 N 1102.66 0.908147 1.28804 0
M  V30 11472 C 1103.91 0.534332 1.94494 0
M  V30 11473 C 1104.22 -0.92552 1.72318 0
M  V30 11474 O 1105.43 -1.40724 2.32183 0
M  V30 11475 C 1103.89 0.904748 3.48342 0
M  V30 11476 C 1103.49 2.38394 3.79305 0
M  V30 11477 C 1105.24 0.601249 4.2022 0
M  V30 11478 C 1103.15 2.69478 5.26437 0
M  V30 11479 H 1102.08 0.196107 0.728051 0
M  V30 11480 H 1104.73 1.1063 1.46401 0
M  V30 11481 H 1103.11 0.261624 3.95135 0
M  V30 11482 H 1104.28 3.07333 3.43341 0
M  V30 11483 H 1102.6 2.65733 3.20586 0
M  V30 11484 H 1105.19 0.810225 5.28526 0
M  V30 11485 H 1105.54 -0.460669 4.13743 0
M  V30 11486 H 1106.07 1.20259 3.79187 0
M  V30 11487 H 1102.81 3.74501 5.37986 0
M  V30 11488 H 1102.33 2.05171 5.63618 0
M  V30 11489 H 1104.01 2.56187 5.94119 0
M  V30 11490 N 1104.14 -1.42577 0.671525 0
M  V30 11491 C 1105.37 -2.05924 0.200731 0
M  V30 11492 C 1105.78 -1.50434 -1.14083 0
M  V30 11493 O 1105.14 -0.642845 -1.70803 0
M  V30 11494 C 1105.19 -3.61289 0.123505 0
M  V30 11495 O 1104.91 -4.1472 1.41205 0
M  V30 11496 C 1106.41 -4.41743 -0.371178 0
M  V30 11497 H 1103.63 -0.663746 0.0983958 0
M  V30 11498 H 1106.18 -1.82771 0.917338 0
M  V30 11499 H 1104.33 -3.83565 -0.543769 0
M  V30 11500 H 1104.75 -5.0856 1.28325 0
M  V30 11501 H 1106.22 -5.50731 -0.374128 0
M  V30 11502 H 1106.7 -4.16092 -1.40585 0
M  V30 11503 H 1107.3 -4.24478 0.264244 0
M  V30 11504 N 1105.62 -0.414636 -1.52048 0
M  V30 11505 C 1106.55 0.399119 -2.30064 0
M  V30 11506 C 1107.53 1.04126 -1.34506 0
M  V30 11507 O 1108.71 1.04923 -1.63416 0
M  V30 11508 C 1105.84 1.51305 -3.12608 0
M  V30 11509 C 1104.8 0.995621 -4.16259 0
M  V30 11510 C 1104.12 2.20357 -4.87183 0
M  V30 11511 C 1105.42 0.0458178 -5.2228 0
M  V30 11512 H 1107.12 -0.251879 -2.98339 0
M  V30 11513 H 1104.66 -0.122579 -1.43477 0
M  V30 11514 H 1106.62 2.08936 -3.65956 0
M  V30 11515 H 1105.34 2.19201 -2.42113 0
M  V30 11516 H 1104 0.441676 -3.6393 0
M  V30 11517 H 1103.65 2.8682 -4.13211 0
M  V30 11518 H 1103.35 1.86385 -5.57256 0
M  V30 11519 H 1104.87 2.78584 -5.43345 0
M  V30 11520 H 1106.29 0.531102 -5.70835 0
M  V30 11521 H 1104.68 -0.20536 -5.99749 0
M  V30 11522 H 1105.75 -0.897807 -4.76516 0
M  V30 11523 N 1107.1 1.56929 -0.145233 0
M  V30 11524 C 1108.32 2.00864 0.516564 0
M  V30 11525 C 1108.75 1.02466 1.57741 0
M  V30 11526 O 1108.1 0.000145439 1.813 0
M  V30 11527 C 1108.15 3.43552 1.09563 0
M  V30 11528 O 1107.26 3.4815 2.21055 0
M  V30 11529 H 1106.6 0.651835 0.126521 0
M  V30 11530 H 1109.13 2.0317 -0.241445 0
M  V30 11531 H 1109.14 3.82316 1.42473 0
M  V30 11532 H 1107.81 4.14677 0.318749 0
M  V30 11533 H 1106.39 3.21228 1.89387 0
M  V30 11534 N 1108.58 -0.128553 1.57075 0
M  V30 11535 C 1109.8 -0.85245 1.88523 0
M  V30 11536 C 1110.22 -1.73886 0.735459 0
M  V30 11537 O 1109.58 -1.80114 -0.294113 0
M  V30 11538 C 1109.63 -1.69384 3.19361 0
M  V30 11539 O 1109.35 -0.84313 4.2991 0
M  V30 11540 C 1110.85 -2.52373 3.64449 0
M  V30 11541 H 1108.07 -0.245556 0.624454 0
M  V30 11542 H 1110.61 -0.115807 2.04172 0
M  V30 11543 H 1108.77 -2.38335 3.0541 0
M  V30 11544 H 1109.18 -1.42255 5.0484 0
M  V30 11545 H 1110.66 -3.06955 4.58784 0
M  V30 11546 H 1111.13 -3.29283 2.90636 0
M  V30 11547 H 1111.74 -1.88681 3.81155 0
M  V30 11548 N 1110.05 -1.5248 -0.398459 0
M  V30 11549 C 1111.3 -1.67309 -1.1461 0
M  V30 11550 C 1111.63 -0.407095 -1.89885 0
M  V30 11551 O 1110.91 0.594834 -1.85181 0
M  V30 11552 C 1111.19 -2.90204 -2.13198 0
M  V30 11553 C 1111.04 -4.26881 -1.4175 0
M  V30 11554 C 1112.36 -3.08634 -3.13741 0
M  V30 11555 H 1109.48 -0.608853 -0.415292 0
M  V30 11556 H 1112.12 -1.85057 -0.430573 0
M  V30 11557 H 1110.27 -2.75204 -2.74218 0
M  V30 11558 H 1111.95 -4.53631 -0.837676 0
M  V30 11559 H 1110.19 -4.27793 -0.719387 0
M  V30 11560 H 1110.86 -5.08939 -2.1374 0
M  V30 11561 H 1113.34 -3.22603 -2.62805 0
M  V30 11562 H 1112.21 -3.96117 -3.79977 0
M  V30 11563 H 1112.47 -2.22425 -3.82073 0
M  V30 11564 N 1111.53 0.65634 -1.43283 0
M  V30 11565 C 1112.78 1.41627 -1.44734 0
M  V30 11566 C 1113.11 1.94372 -0.0704893 0
M  V30 11567 O 1112.36 1.72511 0.924037 0
M  V30 11568 C 1112.66 2.61688 -2.43421 0
M  V30 11569 C 1112.33 2.2738 -3.8937 0
M  V30 11570 C 1110.99 2.17735 -4.29121 0
M  V30 11571 C 1113.34 1.99863 -4.81357 0
M  V30 11572 C 1110.67 1.78725 -5.58815 0
M  V30 11573 C 1113.02 1.62352 -6.11412 0
M  V30 11574 C 1111.68 1.51231 -6.50143 0
M  V30 11575 H 1110.95 0.51825 -0.529621 0
M  V30 11576 H 1113.6 0.746701 -1.76342 0
M  V30 11577 H 1111.91 3.33763 -2.05206 0
M  V30 11578 H 1113.6 3.19896 -2.41801 0
M  V30 11579 H 1110.19 2.35795 -3.57908 0
M  V30 11580 H 1114.38 2.06237 -4.5142 0
M  V30 11581 H 1109.63 1.68698 -5.87666 0
M  V30 11582 H 1113.81 1.40091 -6.82164 0
M  V30 11583 H 1111.43 1.20774 -7.50545 0
M  V30 11584 N 1113.01 1.29761 0.894412 0
M  V30 11585 C 1113.96 1.15232 2.0205 0
M  V30 11586 C 1114.95 0.0665664 1.69269 0
M  V30 11587 O 1116.16 0.226746 1.78566 0
M  V30 11588 H 1112.53 0.356102 0.662341 0
M  V30 11589 H 1114.5 2.10559 2.11442 0
M  V30 11590 C 1113.25 0.851143 3.37121 0
M  V30 11591 H 1112.58 1.67865 3.62852 0
M  V30 11592 H 1114.02 0.78954 4.16584 0
M  V30 11593 C 1112.47 -0.445737 3.33938 0
M  V30 11594 O 1113 -1.47017 3.7383 0
M  V30 11595 N 1111.21 -0.453493 2.8704 0
M  V30 11596 H 1110.76 0.380636 2.54772 0
M  V30 11597 H 1110.72 -1.32119 2.85293 0
M  V30 11598 N 1114.49 -1.10549 1.12324 0
M  V30 11599 C 1115.42 -2.18911 0.812416 0
M  V30 11600 C 1116.4 -1.68628 -0.22327 0
M  V30 11601 O 1117.58 -1.94015 -0.0847184 0
M  V30 11602 C 1114.71 -3.46288 0.264947 0
M  V30 11603 C 1113.67 -4.09838 1.23356 0
M  V30 11604 C 1112.99 -5.31901 0.546374 0
M  V30 11605 C 1114.29 -4.53686 2.58778 0
M  V30 11606 H 1115.99 -2.45169 1.71851 0
M  V30 11607 H 1113.53 -1.17834 0.827715 0
M  V30 11608 H 1115.49 -4.21385 0.0352364 0
M  V30 11609 H 1114.21 -3.19517 -0.676479 0
M  V30 11610 H 1112.87 -3.36746 1.44906 0
M  V30 11611 H 1112.52 -5.01406 -0.400157 0
M  V30 11612 H 1112.22 -5.75372 1.19249 0
M  V30 11613 H 1113.74 -6.09731 0.325673 0
M  V30 11614 H 1115.16 -5.20063 2.41263 0
M  V30 11615 H 1113.55 -5.08003 3.19457 0
M  V30 11616 H 1114.62 -3.66665 3.17309 0
M  V30 11617 N 1115.97 -0.914965 -1.28321 0
M  V30 11618 C 1117.38 -0.59512 -1.76961 0
M  V30 11619 C 1117.73 0.88958 -1.74874 0
M  V30 11620 O 1116.85 1.6959 -1.34418 0
M  V30 11621 C 1117.45 -1.07353 -3.21342 0
M  V30 11622 C 1116.01 -0.804577 -3.677 0
M  V30 11623 C 1115.15 -1.23955 -2.48053 0
M  V30 11624 H 1118.1 -1.0961 -1.14767 0
M  V30 11625 H 1118.13 -0.415506 -3.78225 0
M  V30 11626 H 1117.64 -2.15413 -3.22829 0
M  V30 11627 H 1115.74 0.26277 -3.71672 0
M  V30 11628 H 1115.85 -1.41317 -4.57784 0
M  V30 11629 H 1114.22 -0.658274 -2.46046 0
M  V30 11630 H 1115 -2.32853 -2.52258 0
M  V30 11631 N 1117.44 1.42219 -0.679077 0
M  V30 11632 C 1118.67 2.06333 -0.210097 0
M  V30 11633 C 1119.09 1.50703 1.12562 0
M  V30 11634 O 1118.45 0.627241 1.70104 0
M  V30 11635 C 1118.5 3.60243 -0.160322 0
M  V30 11636 O 1117.6 4.03122 0.869872 0
M  V30 11637 H 1116.94 0.655362 -0.106754 0
M  V30 11638 H 1119.47 1.82278 -0.929294 0
M  V30 11639 H 1119.48 4.07997 0.014384 0
M  V30 11640 H 1118.16 4.00106 -1.13526 0
M  V30 11641 H 1116.74 3.66907 0.66586 0
M  V30 11642 N 1118.92 0.422693 1.51826 0
M  V30 11643 C 1120.33 -0.0438129 1.86649 0
M  V30 11644 C 1120.68 -1.43246 1.34071 0
M  V30 11645 O 1119.81 -2.05256 0.685501 0
M  V30 11646 C 1120.4 -0.0862802 3.3869 0
M  V30 11647 C 1118.96 -0.497157 3.73102 0
M  V30 11648 C 1118.11 0.319655 2.75451 0
M  V30 11649 H 1121.06 0.639181 1.45259 0
M  V30 11650 H 1121.08 -0.8988 3.69732 0
M  V30 11651 H 1120.59 0.924525 3.76927 0
M  V30 11652 H 1118.69 -1.51411 3.40449 0
M  V30 11653 H 1118.81 -0.232125 4.78537 0
M  V30 11654 H 1117.17 -0.219963 2.53748 0
M  V30 11655 H 1117.95 1.32906 3.16529 0
M  V30 11656 N 1120.4 -1.5685 0.153553 0
M  V30 11657 C 1121.33 -2.20101 -0.779601 0
M  V30 11658 C 1122.31 -1.15121 -1.25225 0
M  V30 11659 O 1123.5 -1.43487 -1.30862 0
M  V30 11660 C 1120.63 -2.82778 -2.01628 0
M  V30 11661 C 1119.58 -3.93643 -1.68015 0
M  V30 11662 C 1118.91 -4.43286 -2.99001 0
M  V30 11663 C 1120.21 -5.14102 -0.921774 0
M  V30 11664 H 1121.9 -2.98334 -0.252432 0
M  V30 11665 H 1119.45 -1.43499 -0.119975 0
M  V30 11666 H 1121.4 -3.25696 -2.67395 0
M  V30 11667 H 1120.12 -2.01887 -2.56728 0
M  V30 11668 H 1118.78 -3.51354 -1.04624 0
M  V30 11669 H 1118.43 -3.59208 -3.52106 0
M  V30 11670 H 1118.13 -5.18068 -2.77272 0
M  V30 11671 H 1119.65 -4.88878 -3.65828 0
M  V30 11672 H 1121.07 -5.53823 -1.48167 0
M  V30 11673 H 1119.46 -5.94687 -0.804185 0
M  V30 11674 H 1120.53 -4.84825 0.0852757 0
M  V30 11675 N 1121.88 0.120221 -1.57141 0
M  V30 11676 C 1122.83 1.16654 -2.01233 0
M  V30 11677 C 1123.82 1.42943 -0.909053 0
M  V30 11678 O 1125.03 1.4292 -1.09426 0
M  V30 11679 H 1121.4 0.393289 -0.640958 0
M  V30 11680 H 1123.37 0.768156 -2.88343 0
M  V30 11681 C 1122.12 2.4854 -2.43152 0
M  V30 11682 H 1121.44 2.29149 -3.27614 0
M  V30 11683 H 1122.88 3.20315 -2.77802 0
M  V30 11684 C 1121.34 3.1103 -1.29468 0
M  V30 11685 O 1121.87 3.97042 -0.609982 0
M  V30 11686 N 1120.08 2.70888 -1.05205 0
M  V30 11687 H 1119.63 2.01039 -1.61062 0
M  V30 11688 H 1119.58 3.13028 -0.293347 0
M  V30 11689 N 1123.36 1.52689 0.390367 0
M  V30 11690 C 1124.32 1.76726 1.45947 0
M  V30 11691 C 1125.32 0.637269 1.47633 0
M  V30 11692 O 1126.51 0.905312 1.48828 0
M  V30 11693 C 1123.64 1.86678 2.85244 0
M  V30 11694 H 1124.83 2.72185 1.25918 0
M  V30 11695 H 1122.39 1.4339 0.622023 0
M  V30 11696 H 1123.12 0.931991 3.10619 0
M  V30 11697 H 1122.91 2.68843 2.85422 0
M  V30 11698 H 1124.4 2.06952 3.62713 0
M  V30 11699 N 1124.83 -0.648732 1.43629 0
M  V30 11700 C 1125.77 -1.77363 1.43589 0
M  V30 11701 C 1126.75 -1.59869 0.296783 0
M  V30 11702 O 1127.93 -1.81991 0.491065 0
M  V30 11703 C 1125.06 -3.1472 1.25175 0
M  V30 11704 C 1124.1 -3.50906 2.4242 0
M  V30 11705 S 1124.94 -3.50372 4.04968 0
M  V30 11706 C 1126.09 -4.90379 3.88946 0
M  V30 11707 H 1126.32 -1.77127 2.38774 0
M  V30 11708 H 1123.86 -0.821778 1.30714 0
M  V30 11709 H 1125.82 -3.93993 1.15239 0
M  V30 11710 H 1124.48 -3.12513 0.315303 0
M  V30 11711 H 1123.67 -4.50813 2.25353 0
M  V30 11712 H 1123.27 -2.79056 2.49006 0
M  V30 11713 H 1125.56 -5.79155 3.51548 0
M  V30 11714 H 1126.51 -5.12498 4.88622 0
M  V30 11715 H 1126.91 -4.64125 3.21323 0
M  V30 11716 N 1126.31 -1.30234 -0.887518 0
M  V30 11717 C 1127.24 -1.12212 -1.99853 0
M  V30 11718 C 1128.26 -0.0660929 -1.62666 0
M  V30 11719 O 1129.45 -0.311853 -1.75755 0
M  V30 11720 C 1126.55 -0.688591 -3.31831 0
M  V30 11721 C 1125.72 -1.82581 -3.97471 0
M  V30 11722 C 1124.78 -1.38126 -5.07748 0
M  V30 11723 O 1123.8 -2.08805 -5.29518 0
M  V30 11724 N 1125.01 -0.258868 -5.79923 0
M  V30 11725 H 1127.77 -2.07901 -2.15864 0
M  V30 11726 H 1125.33 -1.22336 -1.06045 0
M  V30 11727 H 1127.32 -0.374252 -4.02966 0
M  V30 11728 H 1125.89 0.176185 -3.12103 0
M  V30 11729 H 1125.11 -2.3084 -3.19541 0
M  V30 11730 H 1126.4 -2.58798 -4.38065 0
M  V30 11731 H 1125.8 0.330131 -5.64736 0
M  V30 11732 H 1124.36 -0.00396813 -6.518 0
M  V30 11733 N 1127.79 1.09952 -1.12909 0
M  V30 11734 C 1129.04 1.81386 -0.882163 0
M  V30 11735 C 1129.35 1.86376 0.593592 0
M  V30 11736 O 1130.56 2.54064 0.957275 0
M  V30 11737 C 1129.01 3.25824 -1.52861 0
M  V30 11738 C 1128.62 3.29117 -3.0395 0
M  V30 11739 C 1130.37 4.02051 -1.36216 0
M  V30 11740 C 1128.27 4.68047 -3.61505 0
M  V30 11741 H 1127.2 0.679701 -0.326378 0
M  V30 11742 H 1129.85 1.23614 -1.35616 0
M  V30 11743 H 1128.24 3.83624 -0.982271 0
M  V30 11744 H 1129.41 2.81114 -3.65119 0
M  V30 11745 H 1127.73 2.66379 -3.20049 0
M  V30 11746 H 1130.32 5.04683 -1.76633 0
M  V30 11747 H 1130.67 4.15171 -0.306391 0
M  V30 11748 H 1131.2 3.5068 -1.87799 0
M  V30 11749 H 1127.94 4.60128 -4.66865 0
M  V30 11750 H 1127.46 5.16397 -3.05114 0
M  V30 11751 H 1129.14 5.37018 -3.6086 0
M  V30 11752 N 1129.27 0.921757 1.27833 0
M  V30 11753 C 1130.2 0.433466 2.29441 0
M  V30 11754 C 1131.18 -0.503133 1.62489 0
M  V30 11755 O 1132.36 -0.409156 1.89841 0
M  V30 11756 C 1129.49 -0.320029 3.45822 0
M  V30 11757 C 1128.45 0.528178 4.24728 0
M  V30 11758 C 1127.77 -0.354132 5.33526 0
M  V30 11759 C 1129.07 1.78959 4.90684 0
M  V30 11760 H 1130.77 1.28263 2.70535 0
M  V30 11761 H 1128.31 0.618197 1.30055 0
M  V30 11762 H 1130.27 -0.672526 4.15999 0
M  V30 11763 H 1128.99 -1.20317 3.0363 0
M  V30 11764 H 1127.65 0.863302 3.5629 0
M  V30 11765 H 1127.3 -1.23605 4.87576 0
M  V30 11766 H 1127 0.209855 5.87225 0
M  V30 11767 H 1128.52 -0.702333 6.06547 0
M  V30 11768 H 1129.94 1.50552 5.53179 0
M  V30 11769 H 1128.33 2.29661 5.54415 0
M  V30 11770 H 1129.4 2.51265 4.14721 0
M  V30 11771 N 1130.75 -1.41857 0.686609 0
M  V30 11772 C 1131.99 -2.02176 0.22284 0
M  V30 11773 C 1132.35 -1.53373 -1.16165 0
M  V30 11774 O 1131.64 -0.73123 -1.77098 0
M  V30 11775 C 1131.83 -3.56783 0.209951 0
M  V30 11776 C 1131.66 -4.20591 1.59166 0
M  V30 11777 C 1130.43 -4.55264 2.19232 0
M  V30 11778 C 1132.63 -4.47394 2.53659 0
M  V30 11779 N 1130.61 -5.04313 3.5006 0
M  V30 11780 C 1131.98 -4.98121 3.69155 0
M  V30 11781 C 1134.04 -4.29396 2.52039 0
M  V30 11782 C 1132.74 -5.32741 4.83301 0
M  V30 11783 C 1134.77 -4.65099 3.65291 0
M  V30 11784 C 1134.13 -5.15988 4.79516 0
M  V30 11785 H 1130.23 -0.771663 0.126731 0
M  V30 11786 H 1132.81 -1.72538 0.902153 0
M  V30 11787 H 1130.98 -3.85913 -0.438816 0
M  V30 11788 H 1132.72 -4.03813 -0.267806 0
M  V30 11789 H 1129.47 -4.41417 1.71604 0
M  V30 11790 H 1129.9 -5.33253 4.17098 0
M  V30 11791 H 1134.54 -3.89296 1.64949 0
M  V30 11792 H 1132.26 -5.71767 5.71058 0
M  V30 11793 H 1135.84 -4.52839 3.65279 0
M  V30 11794 H 1134.72 -5.43098 5.65698 0
M  V30 11795 N 1132.22 -0.430739 -1.51599 0
M  V30 11796 C 1133.47 0.139396 -2.01218 0
M  V30 11797 C 1133.79 1.44361 -1.31982 0
M  V30 11798 O 1134.99 2.0963 -1.72533 0
M  V30 11799 C 1133.45 0.298969 -3.58656 0
M  V30 11800 C 1133.06 -0.994424 -4.36824 0
M  V30 11801 C 1134.8 0.82323 -4.16441 0
M  V30 11802 C 1132.71 -0.800855 -5.85952 0
M  V30 11803 H 1131.64 0.0558698 -0.751927 0
M  V30 11804 H 1134.29 -0.559493 -1.74762 0
M  V30 11805 H 1132.67 1.06071 -3.8153 0
M  V30 11806 H 1133.84 -1.76398 -4.257 0
M  V30 11807 H 1132.16 -1.44672 -3.9046 0
M  V30 11808 H 1134.76 0.984434 -5.2556 0
M  V30 11809 H 1135.1 1.80388 -3.75188 0
M  V30 11810 H 1135.63 0.119982 -3.97619 0
M  V30 11811 H 1132.37 -1.75369 -6.31606 0
M  V30 11812 H 1131.89 -0.0709793 -5.99758 0
M  V30 11813 H 1133.57 -0.451459 -6.45423 0
M  V30 11814 N 1133.7 1.56767 -0.161869 0
M  V30 11815 C 1134.65 2.18807 0.789074 0
M  V30 11816 C 1135.64 1.14934 1.24445 0
M  V30 11817 O 1136.85 1.33154 1.2112 0
M  V30 11818 H 1133.23 0.700808 0.272713 0
M  V30 11819 H 1135.2 2.97419 0.241766 0
M  V30 11820 C 1133.95 2.83568 2.01207 0
M  V30 11821 H 1133.27 3.63219 1.67068 0
M  V30 11822 H 1134.71 3.3046 2.65654 0
M  V30 11823 C 1133.17 1.82846 2.82964 0
M  V30 11824 O 1133.7 1.30809 3.79805 0
M  V30 11825 N 1131.9 1.51815 2.47791 0
M  V30 11826 H 1131.45 1.94325 1.69103 0
M  V30 11827 H 1131.41 0.846742 3.02783 0
M  V30 11828 N 1135.18 -0.111886 1.57202 0
M  V30 11829 C 1136.43 -0.817022 1.84412 0
M  V30 11830 C 1136.74 -1.80708 0.748608 0
M  V30 11831 O 1137.95 -2.55891 0.907319 0
M  V30 11832 C 1136.4 -1.50376 3.26979 0
M  V30 11833 C 1136.01 -0.554334 4.44557 0
M  V30 11834 C 1137.76 -2.19361 3.63429 0
M  V30 11835 C 1135.66 -1.24471 5.78153 0
M  V30 11836 H 1134.59 -0.308864 0.687836 0
M  V30 11837 H 1137.24 -0.0698109 1.83367 0
M  V30 11838 H 1135.63 -2.29785 3.22514 0
M  V30 11839 H 1136.8 0.207045 4.60335 0
M  V30 11840 H 1135.12 0.0289261 4.1639 0
M  V30 11841 H 1137.71 -2.71716 4.60515 0
M  V30 11842 H 1138.06 -2.97488 2.91215 0
M  V30 11843 H 1138.59 -1.46833 3.69709 0
M  V30 11844 H 1135.33 -0.504584 6.53555 0
M  V30 11845 H 1134.85 -1.97792 5.66249 0
M  V30 11846 H 1136.53 -1.77591 6.2215 0
M  V30 11847 N 1136.66 -1.52894 -0.382264 0
M  V30 11848 C 1137.91 -1.67489 -1.12385 0
M  V30 11849 C 1138.22 -0.424565 -1.90937 0
M  V30 11850 O 1139.43 -0.450763 -2.67732 0
M  V30 11851 C 1137.88 -2.96019 -2.04697 0
M  V30 11852 C 1137.49 -4.28255 -1.31535 0
M  V30 11853 C 1139.23 -3.19981 -2.78949 0
M  V30 11854 C 1137.14 -5.47887 -2.22652 0
M  V30 11855 H 1136.07 -0.624002 -0.423246 0
M  V30 11856 H 1138.72 -1.79392 -0.386107 0
M  V30 11857 H 1137.1 -2.77878 -2.82134 0
M  V30 11858 H 1138.28 -4.56971 -0.592771 0
M  V30 11859 H 1136.59 -4.10607 -0.692148 0
M  V30 11860 H 1139.19 -4.06541 -3.47316 0
M  V30 11861 H 1139.53 -2.35335 -3.43399 0
M  V30 11862 H 1140.07 -3.38718 -2.08602 0
M  V30 11863 H 1136.81 -6.3496 -1.62806 0
M  V30 11864 H 1136.33 -5.23473 -2.92807 0
M  V30 11865 H 1138 -5.82026 -2.82586 0
M  V30 11866 N 1138.14 0.641106 -1.43971 0
M  V30 11867 C 1139.07 1.76599 -1.44527 0
M  V30 11868 C 1140.05 1.59709 -0.305257 0
M  V30 11869 O 1141.23 1.81728 -0.50071 0
M  V30 11870 C 1138.36 3.14052 -1.26843 0
M  V30 11871 C 1137.41 3.49615 -2.44278 0
M  V30 11872 S 1138.24 3.4822 -4.06821 0
M  V30 11873 C 1139.39 4.8831 -3.91541 0
M  V30 11874 H 1139.63 1.75858 -2.3971 0
M  V30 11875 H 1137.16 0.814834 -1.31148 0
M  V30 11876 H 1139.12 3.93376 -1.17327 0
M  V30 11877 H 1137.78 3.12342 -0.331872 0
M  V30 11878 H 1136.97 4.49611 -2.2774 0
M  V30 11879 H 1136.57 2.77732 -2.50482 0
M  V30 11880 H 1138.87 5.77282 -3.54615 0
M  V30 11881 H 1139.81 5.099 -4.91333 0
M  V30 11882 H 1140.22 4.62414 -3.2378 0
M  V30 11883 N 1139.62 1.30703 0.880598 0
M  V30 11884 C 1140.89 1.1043 1.61445 0
M  V30 11885 C 1141.27 -0.344837 2.08264 0
M  V30 11886 O 1140.62 -1.33711 1.85293 0
M  V30 11887 C 1140.83 2.10908 2.78063 0
M  V30 11888 C 1142.18 2.42861 3.48287 0
M  V30 11889 O 1143.2 2.09252 2.88257 0
M  V30 11890 O 1142.06 3.00369 4.56553 0
M  V30 11891 H 1139.16 0.424419 0.709787 0
M  V30 11892 H 1141.7 1.42144 0.926991 0
M  V30 11893 H 1140.47 3.08431 2.40803 0
M  V30 11894 H 1140.1 1.80036 3.54503 0
M  V30 11895 N 1141.09 -1.09351 1.1349 0
M  V30 11896 C 1142.34 -1.81185 0.89535 0
M  V30 11897 C 1142.66 -1.86173 -0.580048 0
M  V30 11898 O 1141.93 -1.34784 -1.42162 0
M  V30 11899 H 1140.51 -0.671011 0.328257 0
M  V30 11900 H 1143.17 -1.32255 1.43159 0
M  V30 11901 H 1142.27 -2.84339 1.28676 0
M  V30 11902 N 1142.57 -0.928524 -1.27343 0
M  V30 11903 C 1143.98 -0.613856 -1.7632 0
M  V30 11904 C 1144.33 0.870983 -1.75808 0
M  V30 11905 O 1143.46 1.68155 -1.36209 0
M  V30 11906 C 1144.05 -1.10755 -3.20186 0
M  V30 11907 C 1142.61 -0.843532 -3.66826 0
M  V30 11908 C 1141.76 -1.26579 -2.46724 0
M  V30 11909 H 1144.71 -1.10821 -1.13598 0
M  V30 11910 H 1144.73 -0.455598 -3.77763 0
M  V30 11911 H 1144.24 -2.18825 -3.20526 0
M  V30 11912 H 1142.34 0.223334 -3.7193 0
M  V30 11913 H 1142.46 -1.46165 -4.56259 0
M  V30 11914 H 1140.82 -0.684334 -2.45334 0
M  V30 11915 H 1141.6 -2.35516 -2.49774 0
M  V30 11916 N 1144.05 1.41491 -0.694123 0
M  V30 11917 C 1145.46 1.84283 -0.299439 0
M  V30 11918 C 1145.81 1.58081 1.16211 0
M  V30 11919 O 1144.94 1.05051 1.89191 0
M  V30 11920 C 1145.53 3.34522 -0.536696 0
M  V30 11921 C 1144.09 3.7589 -0.195944 0
M  V30 11922 C 1143.24 2.64908 -0.819692 0
M  V30 11923 H 1146.19 1.31063 -0.894884 0
M  V30 11924 H 1146.21 3.79947 0.205062 0
M  V30 11925 H 1145.72 3.53561 -1.6005 0
M  V30 11926 H 1143.82 3.62452 0.863655 0
M  V30 11927 H 1143.94 4.74671 -0.649954 0
M  V30 11928 H 1142.3 2.53476 -0.249412 0
M  V30 11929 H 1143.08 2.86765 -1.88734 0
M  V30 11930 N 1145.53 0.438773 1.51369 0
M  V30 11931 C 1146.49 -0.36032 2.2635 0
M  V30 11932 C 1147.49 -0.948465 1.29849 0
M  V30 11933 O 1148.68 -0.822692 1.53549 0
M  V30 11934 C 1145.81 -1.50994 3.05636 0
M  V30 11935 H 1147.01 0.296826 2.98427 0
M  V30 11936 H 1144.56 0.191978 1.55117 0
M  V30 11937 H 1145.29 -2.2031 2.37979 0
M  V30 11938 H 1145.08 -1.09437 3.76518 0
M  V30 11939 H 1146.57 -2.07447 3.6243 0
M  V30 11940 N 1147.01 -1.56678 0.170181 0
M  V30 11941 C 1147.94 -2.15083 -0.791961 0
M  V30 11942 C 1148.95 -1.10612 -1.19452 0
M  V30 11943 O 1150.14 -1.37803 -1.13457 0
M  V30 11944 C 1147.24 -2.67769 -2.07733 0
M  V30 11945 C 1146.41 -3.96885 -1.83851 0
M  V30 11946 C 1145.47 -4.34646 -2.96596 0
M  V30 11947 O 1144.5 -5.02543 -2.67281 0
M  V30 11948 N 1145.7 -3.96112 -4.24353 0
M  V30 11949 H 1148.46 -2.98268 -0.292658 0
M  V30 11950 H 1146.03 -1.61895 -0.0126383 0
M  V30 11951 H 1148.02 -2.90029 -2.8225 0
M  V30 11952 H 1146.59 -1.89179 -2.48858 0
M  V30 11953 H 1145.81 -3.83013 -0.932452 0
M  V30 11954 H 1147.1 -4.81213 -1.65261 0
M  V30 11955 H 1146.49 -3.41448 -4.51032 0
M  V30 11956 H 1145.05 -4.23375 -4.95577 0
M  V30 11957 N 1148.48 0.103547 -1.57259 0
M  V30 11958 C 1149.71 0.82624 -1.90232 0
M  V30 11959 C 1150.13 1.71902 -0.763641 0
M  V30 11960 O 1149.49 1.79043 0.285181 0
M  V30 11961 C 1149.54 1.62265 -3.22029 0
M  V30 11962 O 1148.64 2.73091 -3.09023 0
M  V30 11963 H 1147.98 0.227528 -0.6238 0
M  V30 11964 H 1150.51 0.081307 -2.04438 0
M  V30 11965 H 1150.52 2.00865 -3.5513 0
M  V30 11966 H 1149.2 0.967383 -4.04493 0
M  V30 11967 H 1147.78 2.3758 -2.8742 0
M  V30 11968 N 1149.96 1.53094 0.37415 0
M  V30 11969 C 1150.89 1.81901 1.46404 0
M  V30 11970 C 1151.87 0.671949 1.56265 0
M  V30 11971 O 1153.06 0.920978 1.70973 0
M  V30 11972 C 1150.19 2.00123 2.83845 0
M  V30 11973 C 1149.14 3.15864 2.88814 0
M  V30 11974 C 1148.47 3.19364 4.28848 0
M  V30 11975 C 1149.77 4.54633 2.57112 0
M  V30 11976 H 1151.46 2.73172 1.22546 0
M  V30 11977 H 1149.01 1.31444 0.588087 0
M  V30 11978 H 1150.96 2.18859 3.6011 0
M  V30 11979 H 1149.68 1.05555 3.09072 0
M  V30 11980 H 1148.34 2.96935 2.15 0
M  V30 11981 H 1147.99 2.2245 4.51137 0
M  V30 11982 H 1147.69 3.97123 4.3309 0
M  V30 11983 H 1149.22 3.40273 5.06997 0
M  V30 11984 H 1150.63 4.73587 3.23091 0
M  V30 11985 H 1149.03 5.34569 2.72683 0
M  V30 11986 H 1150.1 4.60331 1.52392 0
M  V30 11987 N 1151.44 -0.633461 1.44309 0
M  V30 11988 C 1152.69 -1.39031 1.46679 0
M  V30 11989 C 1153.01 -1.94745 0.0997165 0
M  V30 11990 O 1152.28 -1.75637 -0.867659 0
M  V30 11991 H 1150.86 -0.516051 0.540093 0
M  V30 11992 H 1153.52 -0.745739 1.80069 0
M  V30 11993 H 1152.62 -2.2228 2.19085 0
M  V30 11994 N 1152.92 -1.31168 -0.873655 0
M  V30 11995 C 1154.16 -1.20821 -1.62881 0
M  V30 11996 C 1154.5 0.233994 -1.92785 0
M  V30 11997 O 1153.77 1.16588 -1.55684 0
M  V30 11998 C 1154.06 -2.04875 -2.96139 0
M  V30 11999 C 1153.91 -3.57375 -2.73136 0
M  V30 12000 C 1155.23 -1.8953 -3.97198 0
M  V30 12001 H 1152.35 -0.44026 -0.59105 0
M  V30 12002 H 1154.99 -1.6092 -1.01019 0
M  V30 12003 H 1153.14 -1.70806 -3.48938 0
M  V30 12004 H 1154.81 -4.01561 -2.27038 0
M  V30 12005 H 1153.05 -3.8099 -2.07434 0
M  V30 12006 H 1153.72 -4.1149 -3.6794 0
M  V30 12007 H 1156.2 -2.19337 -3.53596 0
M  V30 12008 H 1155.08 -2.5065 -4.8833 0
M  V30 12009 H 1155.34 -0.857576 -4.33703 0
M  V30 12010 N 1154.4 1.08748 -1.14068 0
M  V30 12011 C 1155.31 2.19123 -0.837998 0
M  V30 12012 C 1156.32 1.73065 0.180164 0
M  V30 12013 O 1157.5 2.01398 0.00952285 0
M  V30 12014 C 1154.56 3.45257 -0.316 0
M  V30 12015 C 1153.62 4.05959 -1.39628 0
M  V30 12016 C 1152.86 5.26072 -0.899095 0
M  V30 12017 O 1153.08 5.69804 0.260744 0
M  V30 12018 O 1152.01 5.7808 -1.67652 0
M  V30 12019 H 1155.84 2.4748 -1.76033 0
M  V30 12020 H 1153.43 1.17816 -0.918675 0
M  V30 12021 H 1155.31 4.21389 -0.0306425 0
M  V30 12022 H 1153.98 3.18486 0.578654 0
M  V30 12023 H 1152.89 3.31432 -1.73505 0
M  V30 12024 H 1154.22 4.36971 -2.26533 0
M  V30 12025 N 1155.87 0.935264 1.26849 0
M  V30 12026 C 1157.29 0.623198 1.75992 0
M  V30 12027 C 1157.64 -0.861647 1.76267 0
M  V30 12028 O 1156.76 -1.6743 1.37099 0
M  V30 12029 C 1157.36 1.12451 3.19594 0
M  V30 12030 C 1155.92 0.862974 3.66374 0
M  V30 12031 C 1155.06 1.27886 2.4605 0
M  V30 12032 H 1158.01 1.11422 1.13008 0
M  V30 12033 H 1158.03 0.475626 3.77516 0
M  V30 12034 H 1157.55 2.20522 3.19361 0
M  V30 12035 H 1155.65 -0.203606 3.72043 0
M  V30 12036 H 1155.76 1.48582 4.55478 0
M  V30 12037 H 1154.12 0.697335 2.44968 0
M  V30 12038 H 1154.91 2.36837 2.48522 0
M  V30 12039 N 1157.35 -1.41121 0.701616 0
M  V30 12040 C 1158.6 -2.01428 0.235495 0
M  V30 12041 C 1158.93 -1.55463 -1.16382 0
M  V30 12042 O 1158.21 -0.768477 -1.78675 0
M  V30 12043 C 1158.49 -3.58849 0.299919 0
M  V30 12044 C 1158.34 -4.14924 1.73661 0
M  V30 12045 C 1159.66 -4.38809 -0.336856 0
M  V30 12046 H 1156.78 -0.731842 0.0870456 0
M  V30 12047 H 1159.42 -1.67787 0.891479 0
M  V30 12048 H 1157.57 -3.87638 -0.258611 0
M  V30 12049 H 1159.24 -3.96987 2.34945 0
M  V30 12050 H 1157.49 -3.69738 2.26884 0
M  V30 12051 H 1158.16 -5.24085 1.73318 0
M  V30 12052 H 1160.63 -4.15868 0.138886 0
M  V30 12053 H 1159.51 -5.48278 -0.261264 0
M  V30 12054 H 1159.77 -4.18728 -1.41843 0
M  V30 12055 N 1158.83 -0.446794 -1.51134 0
M  V30 12056 C 1160.11 0.176892 -1.94798 0
M  V30 12057 C 1160.49 1.59229 -1.38598 0
M  V30 12058 O 1159.84 2.21097 -0.576905 0
M  V30 12059 C 1160.05 0.145 -3.48699 0
M  V30 12060 C 1161.39 0.345917 -4.23189 0
M  V30 12061 O 1162.42 0.222691 -3.55503 0
M  V30 12062 O 1161.28 0.592112 -5.43283 0
M  V30 12063 H 1158.37 0.12486 -0.81752 0
M  V30 12064 H 1160.92 -0.505453 -1.61998 0
M  V30 12065 H 1159.69 -0.844156 -3.82086 0
M  V30 12066 H 1159.31 0.869851 -3.87968 0
M  V30 12067 N 1160.31 1.56586 -0.178487 0
M  V30 12068 C 1161.26 2.18309 0.74899 0
M  V30 12069 C 1162.23 1.12525 1.22178 0
M  V30 12070 O 1163.41 1.40706 1.28866 0
M  V30 12071 C 1160.55 2.83353 1.9699 0
M  V30 12072 C 1159.66 4.03618 1.54002 0
M  V30 12073 C 1158.8 4.56567 2.71514 0
M  V30 12074 C 1157.84 5.69226 2.25051 0
M  V30 12075 N 1156.97 6.16654 3.35682 0
M  V30 12076 H 1161.81 2.97217 0.21587 0
M  V30 12077 H 1159.35 1.46794 0.0948182 0
M  V30 12078 H 1161.31 3.19226 2.68609 0
M  V30 12079 H 1159.94 2.07037 2.4766 0
M  V30 12080 H 1158.99 3.73518 0.720298 0
M  V30 12081 H 1160.3 4.85148 1.15901 0
M  V30 12082 H 1159.46 4.94659 3.5128 0
M  V30 12083 H 1158.2 3.7411 3.12879 0
M  V30 12084 H 1157.2 5.30679 1.43734 0
M  V30 12085 H 1158.43 6.5349 1.84736 0
M  V30 12086 H 1156.37 5.37124 3.76609 0
M  V30 12087 H 1156.29 6.93192 3.01697 0
M  V30 12088 H 1157.56 6.59397 4.15711 0
M  V30 12089 N 1161.79 -0.095206 1.57312 0
M  V30 12090 C 1163.06 -0.830388 1.77099 0
M  V30 12091 C 1163.44 -1.9694 0.760121 0
M  V30 12092 O 1162.79 -2.2752 -0.211403 0
M  V30 12093 C 1163 -1.32507 3.22867 0
M  V30 12094 C 1164.35 -1.7679 3.86045 0
M  V30 12095 O 1165.37 -1.42131 3.26615 0
M  V30 12096 O 1164.23 -2.40876 4.90552 0
M  V30 12097 H 1161.33 -0.396083 0.72598 0
M  V30 12098 H 1163.87 -0.0770965 1.69525 0
M  V30 12099 H 1162.64 -0.508992 3.87975 0
M  V30 12100 H 1162.27 -2.14037 3.35073 0
M  V30 12101 N 1163.26 -1.53291 -0.366026 0
M  V30 12102 C 1164.23 -1.79025 -1.43117 0
M  V30 12103 C 1165.23 -0.660676 -1.46601 0
M  V30 12104 O 1166.42 -0.928875 -1.47369 0
M  V30 12105 C 1163.55 -1.91192 -2.82238 0
M  V30 12106 H 1164.74 -2.74154 -1.21572 0
M  V30 12107 H 1162.3 -1.44361 -0.599132 0
M  V30 12108 H 1163.03 -0.98129 -3.09097 0
M  V30 12109 H 1162.82 -2.7335 -2.81109 0
M  V30 12110 H 1164.31 -2.12696 -3.59375 0
M  V30 12111 N 1164.74 0.6258 -1.44643 0
M  V30 12112 C 1165.99 1.38525 -1.47706 0
M  V30 12113 C 1166.32 1.94179 -0.111703 0
M  V30 12114 O 1165.57 1.74432 0.887237 0
M  V30 12115 C 1165.87 2.56466 -2.48917 0
M  V30 12116 C 1165.54 2.19069 -3.94106 0
M  V30 12117 C 1164.2 2.08583 -4.33643 0
M  V30 12118 C 1166.55 1.89608 -4.85488 0
M  V30 12119 C 1163.88 1.66831 -5.6248 0
M  V30 12120 C 1166.23 1.49347 -6.14718 0
M  V30 12121 C 1164.9 1.37406 -6.53204 0
M  V30 12122 H 1164.17 0.506899 -0.540494 0
M  V30 12123 H 1166.81 0.709128 -1.77887 0
M  V30 12124 H 1165.12 3.29335 -2.12239 0
M  V30 12125 H 1166.81 3.14695 -2.48532 0
M  V30 12126 H 1163.4 2.28151 -3.62829 0
M  V30 12127 H 1167.59 1.96616 -4.55693 0
M  V30 12128 H 1162.84 1.56195 -5.91112 0
M  V30 12129 H 1167.02 1.2559 -6.84982 0
M  V30 12130 H 1164.65 1.04826 -7.52938 0
M  V30 12131 N 1166.22 1.31629 0.866686 0
M  V30 12132 C 1167.64 1.10358 1.15296 0
M  V30 12133 C 1167.84 -0.123807 2.01119 0
M  V30 12134 O 1166.89 -0.81219 2.39081 0
M  V30 12135 C 1168.21 2.37684 1.84193 0
M  V30 12136 C 1169.75 2.43326 1.9688 0
M  V30 12137 C 1170.23 3.70541 2.69191 0
M  V30 12138 N 1171.72 3.71454 2.76724 0
M  V30 12139 C 1172.45 4.66585 3.33295 0
M  V30 12140 N 1171.95 5.72075 3.90771 0
M  V30 12141 N 1173.74 4.541 3.31284 0
M  V30 12142 H 1165.89 2.10343 0.29487 0
M  V30 12143 H 1168.16 0.928096 0.193239 0
M  V30 12144 H 1167.86 3.27352 1.28582 0
M  V30 12145 H 1167.74 2.47731 2.84445 0
M  V30 12146 H 1170.12 1.54124 2.51654 0
M  V30 12147 H 1170.21 2.3724 0.956596 0
M  V30 12148 H 1169.85 4.60111 2.15083 0
M  V30 12149 H 1169.78 3.73894 3.70825 0
M  V30 12150 H 1172.27 2.952 2.35936 0
M  V30 12151 H 1172.58 6.40738 4.32058 0
M  V30 12152 H 1170.93 5.75844 3.89138 0
M  V30 12153 H 1174.12 3.70861 2.85622 0
M  V30 12154 H 1174.29 5.28416 3.75074 0
M  V30 12155 N 1167.7 -1.08142 1.14644 0
M  V30 12156 C 1168.63 -2.15022 0.793614 0
M  V30 12157 C 1169.64 -1.61679 -0.190729 0
M  V30 12158 O 1170.83 -1.78472 0.0313696 0
M  V30 12159 C 1167.93 -3.38532 0.157785 0
M  V30 12160 C 1167.11 -4.21252 1.17753 0
M  V30 12161 C 1166.17 -5.23158 0.564968 0
M  V30 12162 O 1165.19 -5.5578 1.22869 0
M  V30 12163 N 1166.39 -5.7677 -0.657022 0
M  V30 12164 H 1169.16 -2.45893 1.71338 0
M  V30 12165 H 1166.72 -1.23976 1.04122 0
M  V30 12166 H 1168.71 -4.03834 -0.264586 0
M  V30 12167 H 1167.28 -3.05441 -0.665168 0
M  V30 12168 H 1166.5 -3.51888 1.77675 0
M  V30 12169 H 1167.79 -4.73335 1.86632 0
M  V30 12170 H 1167.19 -5.52503 -1.21478 0
M  V30 12171 H 1165.74 -6.4374 -1.02186 0
M  V30 12172 N 1169.18 -0.941978 -1.26351 0
M  V30 12173 C 1170.59 -0.632522 -1.75659 0
M  V30 12174 C 1170.94 0.852287 -1.76722 0
M  V30 12175 O 1170.06 1.66701 -1.37985 0
M  V30 12176 C 1170.66 -1.14145 -3.18993 0
M  V30 12177 C 1169.22 -0.882391 -3.65911 0
M  V30 12178 C 1168.37 -1.29189 -2.45368 0
M  V30 12179 H 1171.32 -1.12019 -1.12416 0
M  V30 12180 H 1171.34 -0.495639 -3.77258 0
M  V30 12181 H 1170.85 -2.22213 -3.18187 0
M  V30 12182 H 1168.95 0.183873 -3.72146 0
M  V30 12183 H 1169.06 -1.50996 -4.54683 0
M  V30 12184 H 1167.43 -0.710316 -2.44595 0
M  V30 12185 H 1168.21 -2.38152 -2.47262 0
M  V30 12186 N 1170.66 1.40747 -0.709091 0
M  V30 12187 C 1172.07 1.83955 -0.318968 0
M  V30 12188 C 1172.42 1.59304 1.14527 0
M  V30 12189 O 1171.54 1.07052 1.88066 0
M  V30 12190 C 1172.14 3.33934 -0.572147 0
M  V30 12191 C 1170.7 3.75661 -0.235802 0
M  V30 12192 C 1169.84 2.64024 -0.847743 0
M  V30 12193 H 1172.79 1.30107 -0.908734 0
M  V30 12194 H 1172.82 3.80143 0.164752 0
M  V30 12195 H 1172.33 3.51844 -1.63791 0
M  V30 12196 H 1170.43 3.63348 0.825164 0
M  V30 12197 H 1170.54 4.73955 -0.700263 0
M  V30 12198 H 1168.91 2.53197 -0.276283 0
M  V30 12199 H 1169.69 2.84748 -1.91765 0
M  V30 12200 N 1172.13 0.454803 1.50895 0
M  V30 12201 C 1173.55 0.108037 1.59234 0
M  V30 12202 C 1173.75 -1.38416 1.46435 0
M  V30 12203 O 1172.81 -2.15586 1.31449 0
M  V30 12204 C 1174.12 0.643721 2.93729 0
M  V30 12205 C 1175.67 0.605703 3.07083 0
M  V30 12206 C 1176.14 1.11865 4.44128 0
M  V30 12207 N 1177.63 1.07738 4.50496 0
M  V30 12208 C 1178.37 1.44495 5.54895 0
M  V30 12209 N 1177.86 1.88624 6.66628 0
M  V30 12210 N 1179.66 1.36201 5.45349 0
M  V30 12211 H 1171.81 1.4255 1.57459 0
M  V30 12212 H 1174.07 0.588504 0.743214 0
M  V30 12213 H 1173.78 1.68844 3.0852 0
M  V30 12214 H 1173.65 0.0782404 3.77119 0
M  V30 12215 H 1176.04 -0.430065 2.91949 0
M  V30 12216 H 1176.12 1.2078 2.2549 0
M  V30 12217 H 1175.76 2.15297 4.6001 0
M  V30 12218 H 1175.69 0.492933 5.24288 0
M  V30 12219 H 1178.18 0.753526 3.70311 0
M  V30 12220 H 1178.5 2.14863 7.4233 0
M  V30 12221 H 1176.84 1.92564 6.6779 0
M  V30 12222 H 1180.03 1.01579 4.56946 0
M  V30 12223 H 1180.21 1.65175 6.26595 0
M  V30 12224 N 1173.61 -1.56489 0.186789 0
M  V30 12225 C 1174.84 -2.02163 -0.463126 0
M  V30 12226 C 1175.26 -1.06612 -1.54969 0
M  V30 12227 O 1174.62 -0.0482139 -1.81236 0
M  V30 12228 C 1174.67 -3.46337 -1.00416 0
M  V30 12229 O 1173.77 -3.53889 -2.11747 0
M  V30 12230 H 1173.11 -0.65496 -0.109194 0
M  V30 12231 H 1175.64 -2.02459 0.295227 0
M  V30 12232 H 1175.65 -3.85959 -1.32287 0
M  V30 12233 H 1174.33 -4.15376 -0.208693 0
M  V30 12234 H 1172.9 -3.26136 -1.80803 0
M  V30 12235 N 1175.09 0.086862 -1.5736 0
M  V30 12236 C 1176.34 0.790008 -1.8678 0
M  V30 12237 C 1176.67 1.77977 -0.777042 0
M  V30 12238 O 1175.94 1.93317 0.21419 0
M  V30 12239 C 1176.23 1.51143 -3.26845 0
M  V30 12240 C 1176.08 0.539106 -4.46558 0
M  V30 12241 C 1177.4 2.46003 -3.64926 0
M  V30 12242 H 1174.52 0.285741 -0.679354 0
M  V30 12243 H 1177.16 0.0534655 -1.89925 0
M  V30 12244 H 1175.31 2.13928 -3.24295 0
M  V30 12245 H 1176.98 -0.0823679 -4.61226 0
M  V30 12246 H 1175.22 -0.146842 -4.33551 0
M  V30 12247 H 1175.9 1.0812 -5.41308 0
M  V30 12248 H 1178.37 1.93306 -3.68473 0
M  V30 12249 H 1177.25 2.93493 -4.63846 0
M  V30 12250 H 1177.51 3.30133 -2.94049 0
M  V30 12251 N 1176.57 1.53483 0.357892 0
M  V30 12252 C 1177.98 1.43426 0.700073 0
M  V30 12253 C 1178.18 0.579493 1.92987 0
M  V30 12254 O 1177.24 0.0649086 2.52417 0
M  V30 12255 C 1178.55 2.86723 0.906099 0
M  V30 12256 C 1180.1 2.96405 1.00563 0
M  V30 12257 C 1180.58 4.4078 1.24407 0
M  V30 12258 N 1182.07 4.44243 1.3116 0
M  V30 12259 C 1182.8 5.53069 1.51333 0
M  V30 12260 N 1182.3 6.71928 1.68774 0
M  V30 12261 N 1184.09 5.40659 1.53765 0
M  V30 12262 H 1176.24 2.07559 -0.450894 0
M  V30 12263 H 1178.5 0.937649 -0.139711 0
M  V30 12264 H 1178.21 3.51622 0.0741579 0
M  V30 12265 H 1178.08 3.30827 1.81199 0
M  V30 12266 H 1180.47 2.31656 1.8281 0
M  V30 12267 H 1180.55 2.55684 0.0769512 0
M  V30 12268 H 1180.2 5.06105 0.426575 0
M  V30 12269 H 1180.13 4.7908 2.18608 0
M  V30 12270 H 1182.62 3.58587 1.19265 0
M  V30 12271 H 1182.93 7.50634 1.83762 0
M  V30 12272 H 1181.28 6.749 1.65937 0
M  V30 12273 H 1184.47 4.46764 1.39713 0
M  V30 12274 H 1184.64 6.25535 1.69146 0
M  V30 12275 N 1178.05 -0.61812 1.44973 0
M  V30 12276 C 1179.32 -1.37705 1.38913 0
M  V30 12277 C 1179.7 -2.1103 0.054385 0
M  V30 12278 O 1179.05 -2.07197 -0.963409 0
M  V30 12279 C 1179.26 -2.33265 2.59593 0
M  V30 12280 C 1180.61 -2.96197 3.04224 0
M  V30 12281 O 1181.63 -2.43589 2.59891 0
M  V30 12282 O 1180.49 -3.91666 3.8113 0
M  V30 12283 H 1177.59 -0.61694 0.55074 0
M  V30 12284 H 1180.13 -0.642088 1.57084 0
M  V30 12285 H 1178.9 -1.78271 3.48332 0
M  V30 12286 H 1178.53 -3.14158 2.43702 0
M  V30 12287 N 1179.52 -1.32087 -0.859693 0
M  V30 12288 C 1180.75 -1.25348 -1.64607 0
M  V30 12289 C 1181.17 0.179425 -1.87945 0
M  V30 12290 O 1180.52 1.11487 -1.44489 0
M  V30 12291 C 1180.57 -2.0047 -3.00822 0
M  V30 12292 O 1180.3 -3.38169 -2.7852 0
M  V30 12293 C 1181.8 -2.00694 -3.95268 0
M  V30 12294 H 1179.02 -0.432692 -0.512854 0
M  V30 12295 H 1181.56 -1.7413 -1.07234 0
M  V30 12296 H 1179.72 -1.55423 -3.54855 0
M  V30 12297 H 1180.13 -3.76553 -3.65113 0
M  V30 12298 H 1181.6 -2.57748 -4.88129 0
M  V30 12299 H 1182.08 -0.99196 -4.27851 0
M  V30 12300 H 1182.69 -2.45666 -3.47172 0
M  V30 12301 N 1181 1.07532 -1.15215 0
M  V30 12302 C 1182.25 1.79474 -0.920439 0
M  V30 12303 C 1182.56 1.87593 0.553926 0
M  V30 12304 O 1183.77 2.56037 0.903169 0
M  V30 12305 C 1182.23 3.22509 -1.59738 0
M  V30 12306 C 1181.83 3.22596 -3.10863 0
M  V30 12307 C 1183.58 3.99072 -1.44714 0
M  V30 12308 C 1181.48 4.60273 -3.71352 0
M  V30 12309 H 1180.41 0.672625 -0.340722 0
M  V30 12310 H 1183.07 1.2071 -1.38208 0
M  V30 12311 H 1181.45 3.81454 -1.06342 0
M  V30 12312 H 1182.62 2.73306 -3.70999 0
M  V30 12313 H 1180.94 2.5953 -3.25627 0
M  V30 12314 H 1183.53 5.00823 -1.87299 0
M  V30 12315 H 1183.88 4.14428 -0.394386 0
M  V30 12316 H 1184.41 3.46617 -1.95195 0
M  V30 12317 H 1181.15 4.50122 -4.76519 0
M  V30 12318 H 1180.67 5.09809 -3.15998 0
M  V30 12319 H 1182.35 5.29243 -3.7217 0
M  V30 12320 N 1182.48 0.948665 1.2585 0
M  V30 12321 C 1183.41 0.482036 2.2847 0
M  V30 12322 C 1184.39 -0.468553 1.63519 0
M  V30 12323 O 1185.58 -0.368796 1.90666 0
M  V30 12324 C 1182.71 -0.246603 3.46423 0
M  V30 12325 C 1181.66 0.61815 4.23513 0
M  V30 12326 C 1180.99 -0.240884 5.34157 0
M  V30 12327 C 1182.29 1.89327 4.86778 0
M  V30 12328 H 1183.98 1.33973 2.67753 0
M  V30 12329 H 1181.53 0.645645 1.28715 0
M  V30 12330 H 1183.48 -0.584135 4.17332 0
M  V30 12331 H 1182.2 -1.13849 3.06114 0
M  V30 12332 H 1180.86 0.938682 3.54379 0
M  V30 12333 H 1180.51 -1.13235 4.90089 0
M  V30 12334 H 1180.21 0.334367 5.86648 0
M  V30 12335 H 1181.73 -0.573517 6.07901 0
M  V30 12336 H 1183.15 1.62252 5.49861 0
M  V30 12337 H 1181.55 2.41369 5.49419 0
M  V30 12338 H 1182.62 2.60006 4.09298 0
M  V30 12339 N 1183.96 -1.40369 0.716545 0
M  V30 12340 C 1185.18 -2.05704 0.264729 0
M  V30 12341 C 1185.61 -1.53634 -1.08527 0
M  V30 12342 O 1184.97 -0.67212 -1.68381 0
M  V30 12343 C 1185.01 -3.59692 0.255778 0
M  V30 12344 O 1184.12 -4.05286 -0.762686 0
M  V30 12345 H 1183.46 -0.652301 0.124092 0
M  V30 12346 H 1185.99 -1.7975 0.977295 0
M  V30 12347 H 1186 -4.07892 0.0937944 0
M  V30 12348 H 1184.67 -3.96955 1.24095 0
M  V30 12349 H 1183.25 -3.68543 -0.568347 0
M  V30 12350 N 1185.44 -0.462799 -1.50652 0
M  V30 12351 C 1186.85 -0.11648 -1.59174 0
M  V30 12352 C 1187.05 1.37638 -1.47167 0
M  V30 12353 O 1186.11 2.14886 -1.3259 0
M  V30 12354 C 1187.42 -0.659289 -2.93383 0
M  V30 12355 C 1188.97 -0.62198 -3.06758 0
M  V30 12356 C 1189.44 -1.14219 -4.43529 0
M  V30 12357 N 1190.94 -1.10125 -4.49919 0
M  V30 12358 C 1191.67 -1.47436 -5.54121 0
M  V30 12359 N 1191.17 -1.92156 -6.65618 0
M  V30 12360 N 1192.96 -1.39091 -5.44619 0
M  V30 12361 H 1185.11 -1.43383 -1.56701 0
M  V30 12362 H 1187.37 -0.592438 -0.740082 0
M  V30 12363 H 1187.08 -1.70477 -3.07621 0
M  V30 12364 H 1186.95 -0.0982388 -3.77072 0
M  V30 12365 H 1189.34 0.414576 -2.92173 0
M  V30 12366 H 1189.42 -1.21974 -2.24847 0
M  V30 12367 H 1189.07 -2.17734 -4.58862 0
M  V30 12368 H 1189 -0.52073 -5.24019 0
M  V30 12369 H 1191.49 -0.773154 -3.69906 0
M  V30 12370 H 1191.8 -2.18796 -7.4118 0
M  V30 12371 H 1190.14 -1.96103 -6.6676 0
M  V30 12372 H 1193.34 -1.04001 -4.564 0
M  V30 12373 H 1193.51 -1.68496 -6.2571 0
M  V30 12374 N 1186.91 1.56388 -0.195085 0
M  V30 12375 C 1187.88 2.17859 0.712053 0
M  V30 12376 C 1188.88 1.13304 1.141 0
M  V30 12377 O 1190.07 1.38689 1.05409 0
M  V30 12378 C 1187.2 2.78065 1.97213 0
M  V30 12379 H 1188.39 2.9938 0.176529 0
M  V30 12380 H 1185.95 1.56205 0.0545322 0
M  V30 12381 H 1186.68 2.00342 2.55017 0
M  V30 12382 H 1186.47 3.54603 1.67329 0
M  V30 12383 H 1187.96 3.25266 2.619 0
M  V30 12384 N 1188.39 -0.0785156 1.57404 0
M  V30 12385 C 1189.32 -1.09446 2.06262 0
M  V30 12386 C 1190.3 -1.40777 0.954772 0
M  V30 12387 O 1191.49 -1.5052 1.22708 0
M  V30 12388 C 1188.62 -2.40979 2.50093 0
M  V30 12389 C 1187.57 -2.24017 3.64692 0
M  V30 12390 C 1186.9 -3.60873 3.94556 0
M  V30 12391 C 1188.2 -1.66696 4.94985 0
M  V30 12392 H 1189.89 -0.687928 2.9139 0
M  V30 12393 H 1187.44 -0.329466 1.4018 0
M  V30 12394 H 1189.39 -3.12337 2.82884 0
M  V30 12395 H 1188.12 -2.83599 1.61985 0
M  V30 12396 H 1186.77 -1.55101 3.32174 0
M  V30 12397 H 1186.42 -4.01051 3.0359 0
M  V30 12398 H 1186.12 -3.50365 4.71718 0
M  V30 12399 H 1187.65 -4.33673 4.29837 0
M  V30 12400 H 1189.06 -2.27913 5.2605 0
M  V30 12401 H 1187.46 -1.66902 5.76423 0
M  V30 12402 H 1188.53 -0.627827 4.80818 0
M  V30 12403 N 1189.87 -1.5367 -0.349747 0
M  V30 12404 C 1191.12 -1.69835 -1.08807 0
M  V30 12405 C 1191.43 -0.46497 -1.89993 0
M  V30 12406 O 1192.64 -0.507452 -2.66716 0
M  V30 12407 C 1191.09 -3.00294 -1.98372 0
M  V30 12408 C 1190.7 -4.30949 -1.22422 0
M  V30 12409 C 1192.45 -3.25826 -2.72099 0
M  V30 12410 C 1190.35 -5.52486 -2.1098 0
M  V30 12411 H 1189.28 -0.63284 -0.409915 0
M  V30 12412 H 1191.93 -1.80171 -0.347968 0
M  V30 12413 H 1190.32 -2.838 -2.76176 0
M  V30 12414 H 1191.49 -4.58126 -0.495707 0
M  V30 12415 H 1189.81 -4.11983 -0.604896 0
M  V30 12416 H 1192.4 -4.13817 -3.38615 0
M  V30 12417 H 1192.75 -2.42566 -3.3833 0
M  V30 12418 H 1193.28 -3.43067 -2.0137 0
M  V30 12419 H 1190.02 -6.38271 -1.49301 0
M  V30 12420 H 1189.54 -5.29566 -2.81638 0
M  V30 12421 H 1191.22 -5.87889 -2.70176 0
M  V30 12422 N 1191.35 0.610423 -1.45298 0
M  V30 12423 C 1192.28 1.73207 -1.56594 0
M  V30 12424 C 1193.26 1.64893 -0.417651 0
M  V30 12425 O 1194.44 1.83336 -0.64043 0
M  V30 12426 C 1191.57 3.11803 -1.52959 0
M  V30 12427 C 1190.53 3.34925 -2.66475 0
M  V30 12428 C 1189.85 4.73764 -2.47894 0
M  V30 12429 C 1191.15 3.25456 -4.08504 0
M  V30 12430 H 1192.85 1.6401 -2.50482 0
M  V30 12431 H 1190.39 0.787621 -1.20551 0
M  V30 12432 H 1192.35 3.90065 -1.59458 0
M  V30 12433 H 1191.07 3.21833 -0.55599 0
M  V30 12434 H 1189.73 2.59051 -2.59399 0
M  V30 12435 H 1189.38 4.80524 -1.4868 0
M  V30 12436 H 1189.08 4.90191 -3.24016 0
M  V30 12437 H 1190.6 5.54231 -2.56243 0
M  V30 12438 H 1192.02 3.93597 -4.16839 0
M  V30 12439 H 1190.41 3.53414 -4.84994 0
M  V30 12440 H 1191.48 2.22939 -4.30612 0
M  V30 12441 N 1192.83 1.32541 0.852676 0
M  V30 12442 C 1193.77 1.21643 1.96142 0
M  V30 12443 C 1194.74 0.0981496 1.6581 0
M  V30 12444 O 1195.93 0.27404 1.88822 0
M  V30 12445 C 1193.07 0.947483 3.31838 0
M  V30 12446 C 1192.18 2.15074 3.74656 0
M  V30 12447 C 1191.32 1.81711 4.99154 0
M  V30 12448 C 1190.36 2.98346 5.34468 0
M  V30 12449 N 1189.49 2.65062 6.50143 0
M  V30 12450 H 1194.33 2.16479 2.04795 0
M  V30 12451 H 1191.87 1.07664 1.00234 0
M  V30 12452 H 1193.83 0.772038 4.09994 0
M  V30 12453 H 1192.46 0.0359112 3.2278 0
M  V30 12454 H 1191.51 2.43639 2.92137 0
M  V30 12455 H 1192.82 3.02314 3.96747 0
M  V30 12456 H 1191.98 1.60729 5.85022 0
M  V30 12457 H 1190.71 0.916875 4.79004 0
M  V30 12458 H 1189.72 3.19956 4.47111 0
M  V30 12459 H 1190.94 3.89104 5.56574 0
M  V30 12460 H 1188.89 1.77582 6.31507 0
M  V30 12461 H 1188.81 3.45832 6.72262 0
M  V30 12462 H 1190.08 2.47516 7.39159 0
M  V30 12463 N 1194.3 -1.0692 1.15784 0
M  V30 12464 C 1195.55 -1.78983 0.929944 0
M  V30 12465 C 1195.87 -1.87884 -0.543969 0
M  V30 12466 O 1197.07 -2.56513 -0.889578 0
M  V30 12467 C 1195.53 -3.21657 1.61446 0
M  V30 12468 C 1195.14 -3.20943 3.12569 0
M  V30 12469 C 1196.88 -3.98299 1.46828 0
M  V30 12470 C 1194.79 -4.58298 3.73788 0
M  V30 12471 H 1193.72 -0.670809 0.344284 0
M  V30 12472 H 1196.37 -1.19975 1.38846 0
M  V30 12473 H 1194.75 -3.80885 1.08364 0
M  V30 12474 H 1195.92 -2.71334 3.72444 0
M  V30 12475 H 1194.24 -2.57799 3.26999 0
M  V30 12476 H 1196.84 -4.99822 1.89952 0
M  V30 12477 H 1197.18 -4.14213 0.416358 0
M  V30 12478 H 1197.71 -3.45577 1.97031 0
M  V30 12479 H 1194.45 -4.47588 4.789 0
M  V30 12480 H 1193.97 -5.08126 3.18698 0
M  V30 12481 H 1195.65 -5.27262 3.74972 0
M  V30 12482 N 1195.78 -0.955326 -1.25345 0
M  V30 12483 C 1196.71 -0.494145 -2.28211 0
M  V30 12484 C 1197.69 0.459875 -1.63766 0
M  V30 12485 O 1198.88 0.358679 -1.90859 0
M  V30 12486 C 1196.01 0.228228 -3.46549 0
M  V30 12487 C 1194.96 -0.640601 -4.23179 0
M  V30 12488 C 1194.29 0.212553 -5.34277 0
M  V30 12489 C 1195.59 -1.91906 -4.85767 0
M  V30 12490 H 1197.28 -1.35391 -2.67039 0
M  V30 12491 H 1194.83 -0.652462 -1.2837 0
M  V30 12492 H 1196.78 0.561995 -4.17636 0
M  V30 12493 H 1195.51 1.12224 -3.06714 0
M  V30 12494 H 1194.16 -0.957462 -3.53876 0
M  V30 12495 H 1193.81 1.10634 -4.90682 0
M  V30 12496 H 1193.51 -0.365473 -5.86462 0
M  V30 12497 H 1195.04 0.541271 -6.08196 0
M  V30 12498 H 1196.45 -1.65165 -5.48993 0
M  V30 12499 H 1194.85 -2.44279 -5.48131 0
M  V30 12500 H 1195.92 -2.62173 -4.07914 0
M  V30 12501 N 1197.26 1.39987 -0.723979 0
M  V30 12502 C 1198.19 2.28185 -0.0257726 0
M  V30 12503 C 1199.17 1.43795 0.75907 0
M  V30 12504 O 1200.36 1.73198 0.743948 0
M  V30 12505 C 1197.48 3.24489 0.970811 0
M  V30 12506 C 1196.53 4.25607 0.275778 0
M  V30 12507 S 1197.36 5.26035 -1.00237 0
M  V30 12508 C 1198.52 6.25899 -0.00809987 0
M  V30 12509 H 1198.75 2.87054 -0.773761 0
M  V30 12510 H 1196.28 1.45546 -0.515332 0
M  V30 12511 H 1198.24 3.80496 1.54055 0
M  V30 12512 H 1196.9 2.6466 1.69156 0
M  V30 12513 H 1196.1 4.93374 1.02946 0
M  V30 12514 H 1195.7 3.73343 -0.22163 0
M  V30 12515 H 1197.99 6.72323 0.835971 0
M  V30 12516 H 1198.93 7.05086 -0.652607 0
M  V30 12517 H 1199.34 5.63355 0.359377 0
M  V30 12518 N 1198.74 0.470782 1.50404 0
M  V30 12519 C 1199.96 -0.084284 2.07229 0
M  V30 12520 C 1200.39 -1.32774 1.33239 0
M  V30 12521 O 1199.75 -1.77274 0.379971 0
M  V30 12522 C 1199.8 -0.351565 3.58882 0
M  V30 12523 O 1198.9 -1.43211 3.86736 0
M  V30 12524 H 1198.24 0.0128479 0.663876 0
M  V30 12525 H 1200.77 0.661735 1.93603 0
M  V30 12526 H 1200.78 -0.592151 4.0368 0
M  V30 12527 H 1199.46 0.557084 4.12152 0
M  V30 12528 H 1198.03 -1.17886 3.53776 0
M  V30 12529 N 1200.22 -1.56282 0.203376 0
M  V30 12530 C 1201.18 -2.18233 -0.700489 0
M  V30 12531 C 1202.18 -1.13908 -1.13497 0
M  V30 12532 O 1203.37 -1.39246 -1.04672 0
M  V30 12533 C 1200.5 -2.79107 -1.95735 0
M  V30 12534 H 1201.7 -2.99469 -0.160649 0
M  V30 12535 H 1199.25 -1.56232 -0.0462475 0
M  V30 12536 H 1199.98 -2.01691 -2.53951 0
M  V30 12537 H 1199.77 -3.55486 -1.65446 0
M  V30 12538 H 1201.26 -3.2665 -2.60172 0
M  V30 12539 N 1201.7 0.070167 -1.57444 0
M  V30 12540 C 1202.66 1.06761 -2.02817 0
M  V30 12541 C 1203.66 1.31498 -0.925462 0
M  V30 12542 O 1204.85 1.27192 -1.19029 0
M  V30 12543 C 1201.98 2.41086 -2.41019 0
M  V30 12544 H 1203.17 0.67651 -2.9217 0
M  V30 12545 H 1200.73 0.315936 -1.53074 0
M  V30 12546 H 1201.46 2.85025 -1.54697 0
M  V30 12547 H 1201.25 2.24472 -3.21488 0
M  V30 12548 H 1202.74 3.12778 -2.76694 0
M  V30 12549 N 1203.17 1.53854 0.341593 0
M  V30 12550 C 1204.42 1.7041 1.07905 0
M  V30 12551 C 1204.74 0.475039 1.89744 0
M  V30 12552 O 1205.94 0.521589 2.66443 0
M  V30 12553 C 1204.4 3.01342 1.96776 0
M  V30 12554 C 1204.01 4.31592 1.20135 0
M  V30 12555 C 1205.75 3.27264 2.70367 0
M  V30 12556 C 1203.66 5.53598 2.08047 0
M  V30 12557 H 1202.59 0.635005 0.406553 0
M  V30 12558 H 1205.24 1.80353 0.338409 0
M  V30 12559 H 1203.62 2.85261 2.74667 0
M  V30 12560 H 1204.79 4.58382 0.471404 0
M  V30 12561 H 1203.11 4.12298 0.583039 0
M  V30 12562 H 1205.71 4.15607 3.36415 0
M  V30 12563 H 1206.05 2.44357 3.37039 0
M  V30 12564 H 1206.58 3.4413 1.99548 0
M  V30 12565 H 1203.32 6.39053 1.45914 0
M  V30 12566 H 1202.84 5.31052 2.78825 0
M  V30 12567 H 1204.52 5.89314 2.67055 0
M  V30 12568 N 1204.65 -0.602709 1.4562 0
M  V30 12569 C 1205.9 -1.35769 1.49163 0
M  V30 12570 C 1206.21 -1.95102 0.139485 0
M  V30 12571 O 1207.42 -2.71449 0.0525919 0
M  V30 12572 C 1205.88 -2.45959 2.62739 0
M  V30 12573 C 1205.48 -1.93017 4.04288 0
M  V30 12574 C 1207.23 -3.22926 2.75534 0
M  V30 12575 C 1205.13 -3.00718 5.09237 0
M  V30 12576 H 1204.06 -0.510317 0.555061 0
M  V30 12577 H 1206.72 -0.645434 1.71774 0
M  V30 12578 H 1205.1 -3.19892 2.3342 0
M  V30 12579 H 1206.27 -1.2576 4.43307 0
M  V30 12580 H 1204.59 -1.2878 3.95986 0
M  V30 12581 H 1207.18 -4.03267 3.51112 0
M  V30 12582 H 1207.53 -3.74243 1.82339 0
M  V30 12583 H 1208.06 -2.56095 3.04402 0
M  V30 12584 H 1204.8 -2.54312 6.04157 0
M  V30 12585 H 1204.32 -3.66526 4.74783 0
M  V30 12586 H 1206 -3.65016 5.34202 0
M  V30 12587 N 1206.13 -1.32992 -0.845635 0
M  V30 12588 C 1207.38 -1.23415 -1.59536 0
M  V30 12589 C 1207.69 0.200278 -1.94572 0
M  V30 12590 O 1208.9 0.417993 -2.68263 0
M  V30 12591 C 1207.35 -2.16207 -2.8772 0
M  V30 12592 C 1206.96 -3.64782 -2.60073 0
M  V30 12593 C 1208.71 -2.15488 -3.65739 0
M  V30 12594 C 1206.61 -4.49508 -3.84313 0
M  V30 12595 H 1205.54 -0.458366 -0.598679 0
M  V30 12596 H 1208.19 -1.58012 -0.932981 0
M  V30 12597 H 1206.58 -1.74535 -3.55462 0
M  V30 12598 H 1207.75 -4.14852 -2.00585 0
M  V30 12599 H 1206.06 -3.67723 -1.95369 0
M  V30 12600 H 1208.66 -2.76021 -4.57948 0
M  V30 12601 H 1209 -1.14818 -4.00153 0
M  V30 12602 H 1209.54 -2.55487 -3.04912 0
M  V30 12603 H 1206.28 -5.51027 -3.55035 0
M  V30 12604 H 1205.8 -4.04185 -4.43165 0
M  V30 12605 H 1207.48 -4.62969 -4.51961 0
M  V30 12606 N 1207.61 1.06304 -1.1635 0
M  V30 12607 C 1208.83 1.83338 -0.969639 0
M  V30 12608 C 1209.26 1.81945 0.477231 0
M  V30 12609 O 1208.62 1.22018 1.34094 0
M  V30 12610 C 1208.66 3.2785 -1.50155 0
M  V30 12611 O 1207.77 4.06281 -0.707805 0
M  V30 12612 H 1207.11 0.567293 -0.345072 0
M  V30 12613 H 1209.64 1.34033 -1.54584 0
M  V30 12614 H 1209.65 3.7867 -1.51898 0
M  V30 12615 H 1208.32 3.28179 -2.55483 0
M  V30 12616 H 1206.9 3.65055 -0.760872 0
M  V30 12617 N 1209.09 0.96196 1.24836 0
M  V30 12618 C 1210.33 0.619489 1.92371 0
M  V30 12619 C 1210.65 -0.847233 1.75633 0
M  V30 12620 O 1209.92 -1.60419 1.12439 0
M  V30 12621 H 1208.5 0.226129 0.711951 0
M  V30 12622 H 1211.17 1.22179 1.5185 0
M  V30 12623 H 1210.26 0.855128 3.00157 0
M  V30 12624 N 1210.56 -1.39601 0.731392 0
M  V30 12625 C 1211.79 -2.04887 0.28789 0
M  V30 12626 C 1212.21 -1.55138 -1.076 0
M  V30 12627 O 1211.56 -0.71471 -1.67923 0
M  V30 12628 C 1211.61 -3.6044 0.276629 0
M  V30 12629 O 1211.34 -4.08358 1.58668 0
M  V30 12630 C 1212.84 -4.4292 -0.183485 0
M  V30 12631 H 1210.06 -0.658976 0.126459 0
M  V30 12632 H 1212.6 -1.78716 0.994031 0
M  V30 12633 H 1210.76 -3.85526 -0.380597 0
M  V30 12634 H 1211.17 -5.02659 1.4978 0
M  V30 12635 H 1212.64 -5.51822 -0.140207 0
M  V30 12636 H 1213.12 -4.2168 -1.22811 0
M  V30 12637 H 1213.73 -4.22976 0.444042 0
M  V30 12638 N 1212.04 -0.478751 -1.50152 0
M  V30 12639 C 1212.97 0.301182 -2.31549 0
M  V30 12640 C 1213.95 0.983276 -1.38801 0
M  V30 12641 O 1215.14 0.978973 -1.67719 0
M  V30 12642 C 1212.27 1.3791 -3.18745 0
M  V30 12643 C 1211.22 0.818175 -4.20107 0
M  V30 12644 C 1210.55 1.99496 -4.9609 0
M  V30 12645 C 1211.85 -0.17574 -5.22004 0
M  V30 12646 H 1213.54 -0.378188 -2.97002 0
M  V30 12647 H 1211.09 -0.183323 -1.42828 0
M  V30 12648 H 1213.04 1.93227 -3.74488 0
M  V30 12649 H 1211.77 2.08735 -2.51192 0
M  V30 12650 H 1210.42 0.286924 -3.65475 0
M  V30 12651 H 1210.07 2.69036 -4.25004 0
M  V30 12652 H 1209.77 1.62582 -5.6466 0
M  V30 12653 H 1211.3 2.55288 -5.54671 0
M  V30 12654 H 1212.71 0.288513 -5.72574 0
M  V30 12655 H 1211.11 -0.459549 -5.98338 0
M  V30 12656 H 1212.18 -1.09911 -4.72279 0
M  V30 12657 N 1213.52 1.56172 -0.211661 0
M  V30 12658 C 1214.77 1.98039 0.422706 0
M  V30 12659 C 1215.1 1.09904 1.60472 0
M  V30 12660 O 1214.35 0.141771 1.95186 0
M  V30 12661 C 1214.65 3.45636 0.909442 0
M  V30 12662 C 1214.32 4.50613 -0.160982 0
M  V30 12663 C 1212.98 4.79043 -0.455064 0
M  V30 12664 C 1215.33 5.13624 -0.885426 0
M  V30 12665 C 1212.66 5.67771 -1.47828 0
M  V30 12666 C 1215.01 6.03459 -1.8979 0
M  V30 12667 C 1213.67 6.30238 -2.19901 0
M  V30 12668 H 1212.94 0.724676 0.154679 0
M  V30 12669 H 1215.59 1.8894 -0.312106 0
M  V30 12670 H 1213.9 3.51889 1.72283 0
M  V30 12671 H 1215.59 3.75395 1.40995 0
M  V30 12672 H 1212.18 4.28528 0.0783864 0
M  V30 12673 H 1216.37 4.91737 -0.671463 0
M  V30 12674 H 1211.62 5.86787 -1.7173 0
M  V30 12675 H 1215.8 6.51338 -2.46438 0
M  V30 12676 H 1213.42 6.98788 -2.9933 0
M  V30 12677 N 1215 -0.0618163 1.57479 0
M  V30 12678 C 1216.25 -0.75794 1.86918 0
M  V30 12679 C 1216.56 -1.78234 0.80572 0
M  V30 12680 O 1217.77 -2.52874 0.98827 0
M  V30 12681 C 1216.22 -1.39898 3.31597 0
M  V30 12682 C 1215.83 -0.412621 4.46096 0
M  V30 12683 C 1217.57 -2.07688 3.70224 0
M  V30 12684 C 1215.48 -1.06014 5.8182 0
M  V30 12685 H 1214.41 -0.286825 0.697314 0
M  V30 12686 H 1217.06 -0.0114386 1.83496 0
M  V30 12687 H 1215.44 -2.19408 3.29661 0
M  V30 12688 H 1216.62 0.353392 4.59443 0
M  V30 12689 H 1214.93 0.161383 4.16087 0
M  V30 12690 H 1217.53 -2.56928 4.68927 0
M  V30 12691 H 1217.87 -2.88073 3.00532 0
M  V30 12692 H 1218.41 -1.34996 3.74194 0
M  V30 12693 H 1215.15 -0.296405 6.5483 0
M  V30 12694 H 1214.67 -1.79677 5.72255 0
M  V30 12695 H 1216.34 -1.57708 6.27485 0
M  V30 12696 N 1216.48 -1.54033 -0.333429 0
M  V30 12697 C 1217.72 -1.71765 -1.07252 0
M  V30 12698 C 1218.05 -0.486135 -1.88327 0
M  V30 12699 O 1217.31 0.532135 -1.88326 0
M  V30 12700 C 1217.61 -2.93926 -2.03328 0
M  V30 12701 C 1217.27 -4.29107 -1.38486 0
M  V30 12702 C 1215.93 -4.6586 -1.20532 0
M  V30 12703 C 1218.29 -5.13041 -0.918624 0
M  V30 12704 C 1215.61 -5.84155 -0.545881 0
M  V30 12705 C 1217.97 -6.3201 -0.273055 0
M  V30 12706 C 1216.63 -6.67451 -0.0812815 0
M  V30 12707 H 1215.9 -0.628532 -0.392464 0
M  V30 12708 H 1218.55 -1.88261 -0.350709 0
M  V30 12709 H 1216.85 -2.72075 -2.81926 0
M  V30 12710 H 1218.55 -3.0484 -2.60526 0
M  V30 12711 H 1215.14 -4.00185 -1.5346 0
M  V30 12712 H 1219.32 -4.8517 -1.04515 0
M  V30 12713 H 1214.58 -6.1018 -0.386009 0
M  V30 12714 H 1218.75 -6.96333 0.0962582 0
M  V30 12715 H 1216.38 -7.58973 0.431734 0
M  V30 12716 N 1217.95 0.594978 -1.45938 0
M  V30 12717 C 1219.2 1.35356 -1.51823 0
M  V30 12718 C 1219.56 1.91711 -0.162721 0
M  V30 12719 O 1218.85 1.72831 0.827047 0
M  V30 12720 C 1219.04 2.51129 -2.54301 0
M  V30 12721 C 1218.87 2.06113 -3.99684 0
M  V30 12722 C 1217.64 1.91698 -4.67525 0
M  V30 12723 C 1219.84 1.62817 -4.87848 0
M  V30 12724 N 1217.82 1.40625 -5.97577 0
M  V30 12725 C 1219.19 1.23248 -6.07626 0
M  V30 12726 C 1221.25 1.50523 -4.74602 0
M  V30 12727 C 1219.95 0.726124 -7.15626 0
M  V30 12728 C 1221.98 1.0129 -5.82661 0
M  V30 12729 C 1221.34 0.626938 -7.01604 0
M  V30 12730 H 1217.44 0.488744 -0.610454 0
M  V30 12731 H 1220.02 0.678804 -1.82484 0
M  V30 12732 H 1218.19 3.16184 -2.25571 0
M  V30 12733 H 1219.92 3.18046 -2.50257 0
M  V30 12734 H 1216.68 2.1327 -4.22863 0
M  V30 12735 H 1217.1 1.17285 -6.66763 0
M  V30 12736 H 1221.75 1.78985 -3.83046 0
M  V30 12737 H 1219.46 0.429069 -8.0696 0
M  V30 12738 H 1223.05 0.921864 -5.7445 0
M  V30 12739 H 1221.93 0.251849 -7.83795 0
M  V30 12740 N 1219.43 1.33438 0.838571 0
M  V30 12741 C 1220.38 1.23717 1.94841 0
M  V30 12742 C 1221.35 0.11573 1.65696 0
M  V30 12743 O 1222.53 0.294051 1.8852 0
M  V30 12744 C 1219.67 0.982626 3.30815 0
M  V30 12745 C 1218.79 2.19036 3.72354 0
M  V30 12746 C 1217.92 1.86995 4.97199 0
M  V30 12747 C 1216.96 3.03998 5.31274 0
M  V30 12748 N 1216.1 2.71943 6.47295 0
M  V30 12749 H 1220.94 2.18639 2.02487 0
M  V30 12750 H 1218.48 1.08721 0.990861 0
M  V30 12751 H 1220.43 0.81548 4.09152 0
M  V30 12752 H 1219.06 0.0701443 3.22724 0
M  V30 12753 H 1218.12 2.46724 2.89537 0
M  V30 12754 H 1219.43 3.06505 3.93518 0
M  V30 12755 H 1218.58 1.66925 5.83285 0
M  V30 12756 H 1217.32 0.967628 4.78004 0
M  V30 12757 H 1216.33 3.24681 4.43692 0
M  V30 12758 H 1217.55 3.94985 5.52416 0
M  V30 12759 H 1215.5 1.8427 6.29588 0
M  V30 12760 H 1215.41 3.52943 6.68556 0
M  V30 12761 H 1216.68 2.55342 7.36492 0
M  V30 12762 N 1220.91 -1.05686 1.16912 0
M  V30 12763 C 1221.82 -2.16824 0.8958 0
M  V30 12764 C 1222.84 -1.73482 -0.134215 0
M  V30 12765 O 1224.01 -2.01352 0.0438776 0
M  V30 12766 C 1221.08 -3.44298 0.407427 0
M  V30 12767 C 1220.14 -4.02114 1.50342 0
M  V30 12768 C 1219.37 -5.23503 1.03826 0
M  V30 12769 O 1219.59 -5.70295 -0.109579 0
M  V30 12770 O 1218.53 -5.73432 1.8292 0
M  V30 12771 H 1222.35 -2.42725 1.82533 0
M  V30 12772 H 1219.94 -1.15339 0.949589 0
M  V30 12773 H 1221.82 -4.21159 0.142356 0
M  V30 12774 H 1220.5 -3.19908 -0.494009 0
M  V30 12775 H 1219.4 -3.26715 1.82231 0
M  V30 12776 H 1220.74 -4.30811 2.38039 0
M  V30 12777 N 1222.39 -0.968567 -1.24324 0
M  V30 12778 C 1223.32 -0.444065 -2.23838 0
M  V30 12779 C 1224.3 0.482311 -1.55282 0
M  V30 12780 O 1225.48 0.413489 -1.83909 0
M  V30 12781 C 1222.61 0.358874 -3.36793 0
M  V30 12782 C 1221.66 -0.509913 -4.23441 0
M  V30 12783 S 1222.49 -1.95064 -4.98708 0
M  V30 12784 C 1223.65 -1.15652 -6.15122 0
M  V30 12785 H 1223.88 -1.28738 -2.67981 0
M  V30 12786 H 1221.41 -0.773665 -1.33618 0
M  V30 12787 H 1223.37 0.816164 -4.02305 0
M  V30 12788 H 1222.03 1.17717 -2.91207 0
M  V30 12789 H 1221.22 0.106617 -5.03887 0
M  V30 12790 H 1220.83 -0.902967 -3.62936 0
M  V30 12791 H 1223.12 -0.411966 -6.76246 0
M  V30 12792 H 1224.06 -1.93539 -6.81137 0
M  V30 12793 H 1224.47 -0.680507 -5.60383 0
M  V30 12794 N 1223.87 1.39211 -0.738786 0
M  V30 12795 C 1225.28 1.83237 -0.357916 0
M  V30 12796 C 1225.63 1.61698 1.11123 0
M  V30 12797 O 1224.75 1.11017 1.85753 0
M  V30 12798 C 1225.35 3.32645 -0.64285 0
M  V30 12799 C 1223.91 3.75076 -0.315432 0
M  V30 12800 C 1223.05 2.62166 -0.903556 0
M  V30 12801 H 1226.01 1.2815 -0.936127 0
M  V30 12802 H 1226.03 3.80407 0.0840812 0
M  V30 12803 H 1225.54 3.4829 -1.71218 0
M  V30 12804 H 1223.64 3.65017 0.747907 0
M  V30 12805 H 1223.75 4.72363 -0.800638 0
M  V30 12806 H 1222.12 2.52554 -0.329927 0
M  V30 12807 H 1222.9 2.80616 -1.97761 0
M  V30 12808 N 1225.34 0.486708 1.49896 0
M  V30 12809 C 1226.25 -0.304222 2.32619 0
M  V30 12810 C 1227.27 -0.981103 1.43702 0
M  V30 12811 O 1228.45 -0.965639 1.76741 0
M  V30 12812 C 1225.51 -1.36301 3.18783 0
M  V30 12813 C 1224.57 -0.701082 4.23537 0
M  V30 12814 C 1223.81 -1.70943 5.05583 0
M  V30 12815 O 1224.03 -2.93773 4.88931 0
M  V30 12816 O 1222.96 -1.27263 5.88292 0
M  V30 12817 H 1226.79 0.37248 3.01407 0
M  V30 12818 H 1224.37 0.248277 1.47323 0
M  V30 12819 H 1226.26 -1.97594 3.72202 0
M  V30 12820 H 1224.93 -2.0229 2.52706 0
M  V30 12821 H 1223.84 -0.0487926 3.74068 0
M  V30 12822 H 1225.17 -0.0838817 4.92129 0
M  V30 12823 N 1226.82 -1.56058 0.219941 0
M  V30 12824 C 1228.1 -1.90087 -0.46112 0
M  V30 12825 C 1228.48 -1.13705 -1.77861 0
M  V30 12826 O 1227.83 -0.245868 -2.27173 0
M  V30 12827 C 1228.04 -3.42786 -0.655644 0
M  V30 12828 C 1229.39 -4.13517 -0.963803 0
M  V30 12829 O 1230.41 -3.48376 -0.742488 0
M  V30 12830 O 1229.27 -5.28692 -1.38374 0
M  V30 12831 H 1226.36 -0.790311 -0.243595 0
M  V30 12832 H 1228.91 -1.67665 0.262005 0
M  V30 12833 H 1227.68 -3.90341 0.273738 0
M  V30 12834 H 1227.3 -3.70982 -1.43032 0
M  V30 12835 N 1228.3 0.053464 -1.57509 0
M  V30 12836 C 1229.72 0.408651 -1.5428 0
M  V30 12837 C 1229.92 1.78086 -0.942735 0
M  V30 12838 O 1228.97 2.46366 -0.553163 0
M  V30 12839 C 1230.29 0.332884 -2.98852 0
M  V30 12840 C 1231.83 0.411745 -3.1028 0
M  V30 12841 C 1232.31 0.365691 -4.56538 0
M  V30 12842 N 1233.8 0.425222 -4.61244 0
M  V30 12843 C 1234.54 0.412093 -5.71917 0
M  V30 12844 N 1234.03 0.352693 -6.91902 0
M  V30 12845 N 1235.82 0.460016 -5.60214 0
M  V30 12846 H 1227.98 -0.844834 -1.94875 0
M  V30 12847 H 1230.24 -0.318888 -0.892757 0
M  V30 12848 H 1229.94 -0.609116 -3.46385 0
M  V30 12849 H 1229.82 1.13605 -3.59686 0
M  V30 12850 H 1232.21 1.34417 -2.62709 0
M  V30 12851 H 1232.29 -0.420333 -2.52323 0
M  V30 12852 H 1231.93 -0.562963 -5.0477 0
M  V30 12853 H 1231.86 1.21555 -5.12379 0
M  V30 12854 H 1234.35 0.474634 -3.74908 0
M  V30 12855 H 1234.66 0.347105 -7.7202 0
M  V30 12856 H 1233.01 0.319104 -6.94267 0
M  V30 12857 H 1236.2 0.504242 -4.65376 0
M  V30 12858 H 1236.37 0.446315 -6.46461 0
M  V30 12859 N 1229.78 1.54207 0.325255 0
M  V30 12860 C 1230.74 1.82757 1.38321 0
M  V30 12861 C 1231.74 0.699312 1.44797 0
M  V30 12862 O 1232.93 0.96762 1.44854 0
M  V30 12863 C 1230.06 1.98608 2.7707 0
M  V30 12864 H 1231.26 2.7728 1.14261 0
M  V30 12865 H 1228.81 1.45899 0.560647 0
M  V30 12866 H 1229.55 1.0629 3.06387 0
M  V30 12867 H 1229.33 2.80707 2.73763 0
M  V30 12868 H 1230.82 2.2215 3.53609 0
M  V30 12869 N 1231.26 -0.58723 1.46251 0
M  V30 12870 C 1232.48 -1.37661 1.55126 0
M  V30 12871 C 1232.91 -1.87123 0.191489 0
M  V30 12872 O 1232.27 -1.6131 -0.827576 0
M  V30 12873 C 1232.31 -2.54324 2.5564 0
M  V30 12874 O 1231.42 -3.55617 2.0883 0
M  V30 12875 H 1230.76 -0.410154 0.522178 0
M  V30 12876 H 1233.29 -0.712738 1.91784 0
M  V30 12877 H 1233.3 -3.01301 2.75103 0
M  V30 12878 H 1231.97 -2.17675 3.54387 0
M  V30 12879 H 1230.55 -3.15151 1.99335 0
M  V30 12880 N 1232.74 -1.33881 -0.831482 0
M  V30 12881 C 1233.96 -1.28812 -1.61911 0
M  V30 12882 C 1234.38 0.139519 -1.88284 0
M  V30 12883 O 1233.74 1.08397 -1.46821 0
M  V30 12884 C 1233.79 -2.06806 -2.96502 0
M  V30 12885 O 1233.51 -3.44 -2.71285 0
M  V30 12886 C 1235.01 -2.09033 -3.90922 0
M  V30 12887 H 1232.23 -0.443473 -0.50356 0
M  V30 12888 H 1234.77 -1.76365 -1.03516 0
M  V30 12889 H 1232.93 -1.62915 -3.51479 0
M  V30 12890 H 1233.34 -3.84213 -3.57044 0
M  V30 12891 H 1234.82 -2.68044 -4.82552 0
M  V30 12892 H 1235.29 -1.08249 -4.25651 0
M  V30 12893 H 1235.9 -2.52975 -3.41883 0
M  V30 12894 N 1234.21 1.05064 -1.1747 0
M  V30 12895 C 1235.62 1.59547 -0.969628 0
M  V30 12896 C 1235.98 1.90153 0.483332 0
M  V30 12897 O 1235.1 1.68415 1.35887 0
M  V30 12898 C 1235.7 2.89877 -1.75377 0
M  V30 12899 C 1234.25 3.41013 -1.59332 0
M  V30 12900 C 1233.4 2.1473 -1.7546 0
M  V30 12901 H 1236.35 0.878595 -1.3216 0
M  V30 12902 H 1236.37 3.59834 -1.23691 0
M  V30 12903 H 1235.89 2.67569 -2.8112 0
M  V30 12904 H 1233.99 3.68355 -0.560827 0
M  V30 12905 H 1234.1 4.15512 -2.38509 0
M  V30 12906 H 1232.46 2.25553 -1.18313 0
M  V30 12907 H 1233.25 1.9489 -2.82618 0
M  V30 12908 N 1235.69 0.975146 1.23809 0
M  V30 12909 C 1237.11 0.682899 1.44252 0
M  V30 12910 C 1237.31 -0.752739 1.86912 0
M  V30 12911 O 1236.36 -1.52579 2.01186 0
M  V30 12912 C 1237.68 1.67335 2.49839 0
M  V30 12913 C 1239.22 1.6868 2.63659 0
M  V30 12914 C 1239.7 2.66542 3.72451 0
M  V30 12915 N 1241.19 2.65028 3.79887 0
M  V30 12916 C 1241.93 3.37421 4.63611 0
M  V30 12917 N 1241.42 4.19355 5.51465 0
M  V30 12918 N 1243.21 3.2621 4.57759 0
M  V30 12919 H 1235.37 1.9026 0.94418 0
M  V30 12920 H 1237.63 0.819543 0.476502 0
M  V30 12921 H 1237.33 2.69978 2.25399 0
M  V30 12922 H 1237.21 1.45201 3.48133 0
M  V30 12923 H 1239.6 0.667438 2.87453 0
M  V30 12924 H 1239.68 1.94878 1.65699 0
M  V30 12925 H 1239.32 3.68617 3.49405 0
M  V30 12926 H 1239.25 2.3762 4.69941 0
M  V30 12927 H 1241.74 2.05562 3.171 0
M  V30 12928 H 1242.05 4.71461 6.12327 0
M  V30 12929 H 1240.4 4.23447 5.51106 0
M  V30 12930 H 1243.59 2.61656 3.88142 0
M  V30 12931 H 1243.76 3.82889 5.22781 0
M  V30 12932 N 1237.17 -1.38817 0.746158 0
M  V30 12933 C 1238.4 -2.0457 0.309605 0
M  V30 12934 C 1238.81 -1.5627 -1.05948 0
M  V30 12935 O 1238.17 -0.73248 -1.67156 0
M  V30 12936 C 1238.22 -3.60126 0.314843 0
M  V30 12937 O 1237.94 -4.06652 1.6299 0
M  V30 12938 C 1239.44 -4.4309 -0.136497 0
M  V30 12939 H 1236.66 -0.657597 0.133441 0
M  V30 12940 H 1239.21 -1.77651 1.01293 0
M  V30 12941 H 1237.36 -3.85908 -0.339685 0
M  V30 12942 H 1237.78 -5.01042 1.55103 0
M  V30 12943 H 1239.25 -5.5194 -0.0816714 0
M  V30 12944 H 1239.73 -4.22959 -1.18332 0
M  V30 12945 H 1240.33 -4.22481 0.488879 0
M  V30 12946 N 1238.65 -0.49465 -1.49636 0
M  V30 12947 C 1239.88 0.0491129 -2.06842 0
M  V30 12948 C 1240.29 1.31395 -1.35576 0
M  V30 12949 O 1239.65 1.7731 -0.432135 0
M  V30 12950 C 1239.7 0.313171 -3.60141 0
M  V30 12951 O 1239.42 -0.90152 -4.28724 0
M  V30 12952 C 1240.92 0.901284 -4.34041 0
M  V30 12953 H 1238.14 -0.0176186 -0.670769 0
M  V30 12954 H 1240.68 -0.690188 -1.92501 0
M  V30 12955 H 1238.84 1.00244 -3.74206 0
M  V30 12956 H 1239.25 -0.660477 -5.20325 0
M  V30 12957 H 1240.73 1.03567 -5.42197 0
M  V30 12958 H 1241.2 1.89746 -3.96097 0
M  V30 12959 H 1241.81 0.249677 -4.24566 0
M  V30 12960 N 1240.13 1.55939 -0.228214 0
M  V30 12961 C 1241.35 2.0287 0.406348 0
M  V30 12962 C 1241.77 1.1079 1.52876 0
M  V30 12963 O 1241.13 0.118747 1.82113 0
M  V30 12964 C 1241.18 3.49286 0.931734 0
M  V30 12965 O 1240.9 4.37857 -0.145933 0
M  V30 12966 C 1242.4 4.11893 1.63887 0
M  V30 12967 H 1239.62 0.663696 0.0987358 0
M  V30 12968 H 1242.16 2.01541 -0.346616 0
M  V30 12969 H 1240.32 3.5121 1.63494 0
M  V30 12970 H 1240.73 5.23904 0.250005 0
M  V30 12971 H 1242.21 5.16091 1.95841 0
M  V30 12972 H 1242.68 3.57281 2.55435 0
M  V30 12973 H 1243.29 4.13839 0.980697 0
M  V30 12974 N 1241.6 -0.0451101 1.57535 0
M  V30 12975 C 1242.54 -1.08327 2.00849 0
M  V30 12976 C 1243.52 -1.36083 0.889957 0
M  V30 12977 O 1244.7 -1.49009 1.15449 0
M  V30 12978 C 1241.83 -2.42171 2.36793 0
M  V30 12979 C 1240.87 -2.30378 3.58926 0
M  V30 12980 S 1241.71 -1.67244 5.08714 0
M  V30 12981 C 1242.86 -3.02611 5.47885 0
M  V30 12982 H 1243.09 -0.714274 2.88592 0
M  V30 12983 H 1240.63 -0.254561 1.52287 0
M  V30 12984 H 1242.59 -3.1915 2.58174 0
M  V30 12985 H 1241.25 -2.76224 1.49531 0
M  V30 12986 H 1240.44 -3.29146 3.81679 0
M  V30 12987 H 1240.04 -1.6154 3.37314 0
M  V30 12988 H 1242.33 -3.98941 5.47587 0
M  V30 12989 H 1243.28 -2.84609 6.48385 0
M  V30 12990 H 1243.68 -3.04445 4.75367 0
M  V30 12991 N 1243.08 -1.54377 -0.317073 0
M  V30 12992 C 1244.31 -1.76865 -1.07362 0
M  V30 12993 C 1244.73 -0.520354 -1.81488 0
M  V30 12994 O 1244.08 0.509213 -1.75252 0
M  V30 12995 C 1244.13 -2.96598 -2.06668 0
M  V30 12996 O 1243.85 -4.16602 -1.35552 0
M  V30 12997 C 1245.36 -3.31348 -2.94489 0
M  V30 12998 H 1242.58 -0.590277 -0.319083 0
M  V30 12999 H 1245.12 -2.01284 -0.361227 0
M  V30 13000 H 1243.27 -2.74433 -2.73432 0
M  V30 13001 H 1243.69 -4.83996 -2.02108 0
M  V30 13002 H 1245.16 -4.1841 -3.60051 0
M  V30 13003 H 1245.64 -2.48797 -3.61935 0
M  V30 13004 H 1246.25 -3.55614 -2.33278 0
M  V30 13005 N 1244.56 0.579466 -1.4656 0
M  V30 13006 C 1245.81 1.33756 -1.52038 0
M  V30 13007 C 1246.14 1.93725 -0.173423 0
M  V30 13008 O 1245.39 1.77167 0.831293 0
M  V30 13009 C 1245.69 2.48417 -2.56951 0
M  V30 13010 C 1245.36 2.0642 -4.00876 0
M  V30 13011 C 1244.02 1.94682 -4.4006 0
M  V30 13012 C 1246.37 1.74066 -4.91274 0
M  V30 13013 C 1243.7 1.48852 -5.67503 0
M  V30 13014 C 1246.05 1.29714 -6.19158 0
M  V30 13015 C 1244.71 1.16555 -6.57245 0
M  V30 13016 H 1243.98 0.489447 -0.556347 0
M  V30 13017 H 1246.63 0.652176 -1.80053 0
M  V30 13018 H 1244.94 3.22416 -2.2261 0
M  V30 13019 H 1246.63 3.06629 -2.58418 0
M  V30 13020 H 1243.22 2.16492 -3.69904 0
M  V30 13021 H 1247.41 1.82019 -4.61717 0
M  V30 13022 H 1242.66 1.3731 -5.95782 0
M  V30 13023 H 1246.84 1.03734 -6.88631 0
M  V30 13024 H 1244.46 0.808193 -7.55892 0
M  V30 13025 N 1246.04 1.3432 0.824371 0
M  V30 13026 C 1247.27 1.29669 1.61226 0
M  V30 13027 C 1247.68 -0.129532 1.88355 0
M  V30 13028 O 1247.04 -1.07616 1.47394 0
M  V30 13029 C 1247.09 2.08375 2.95402 0
M  V30 13030 O 1246.81 3.45434 2.69456 0
M  V30 13031 C 1248.31 2.11103 3.89808 0
M  V30 13032 H 1245.53 0.446137 0.501201 0
M  V30 13033 H 1248.08 1.76912 1.02579 0
M  V30 13034 H 1246.23 1.64777 3.5061 0
M  V30 13035 H 1246.64 3.86101 3.55001 0
M  V30 13036 H 1248.12 2.706 4.81124 0
M  V30 13037 H 1248.6 1.10505 4.25071 0
M  V30 13038 H 1249.2 2.54784 3.40537 0
M  V30 13039 N 1247.52 -1.0444 1.18026 0
M  V30 13040 C 1248.76 -1.79143 0.984238 0
M  V30 13041 C 1249.12 -1.85955 -0.478002 0
M  V30 13042 O 1250.32 -2.56826 -0.793345 0
M  V30 13043 C 1248.59 -3.18744 1.61669 0
M  V30 13044 S 1250.15 -4.09832 1.56791 0
M  V30 13045 H 1246.97 -0.61688 0.353525 0
M  V30 13046 H 1249.57 -1.25256 1.50104 0
M  V30 13047 H 1248.28 -3.11394 2.67324 0
M  V30 13048 H 1247.81 -3.77708 1.10001 0
M  V30 13049 H 1249.82 -4.92785 0.581175 0
M  V30 13050 N 1248.99 -0.981699 -1.2329 0
M  V30 13051 C 1250.24 -0.651302 -1.9174 0
M  V30 13052 C 1250.57 0.815318 -1.76587 0
M  V30 13053 O 1249.82 1.60377 -1.1215 0
M  V30 13054 C 1250.12 -0.989244 -3.43437 0
M  V30 13055 C 1249.79 -2.44629 -3.78771 0
M  V30 13056 C 1248.45 -2.84449 -3.88127 0
M  V30 13057 C 1250.8 -3.39123 -3.95784 0
M  V30 13058 C 1248.13 -4.17775 -4.11923 0
M  V30 13059 C 1250.48 -4.72095 -4.21081 0
M  V30 13060 C 1249.15 -5.11672 -4.28659 0
M  V30 13061 H 1248.42 -0.238328 -0.701627 0
M  V30 13062 H 1251.06 -1.2358 -1.46288 0
M  V30 13063 H 1249.37 -0.322677 -3.90469 0
M  V30 13064 H 1251.07 -0.711796 -3.94632 0
M  V30 13065 H 1247.66 -2.12759 -3.72064 0
M  V30 13066 H 1251.84 -3.09536 -3.87945 0
M  V30 13067 H 1247.1 -4.48043 -4.16013 0
M  V30 13068 H 1251.27 -5.45271 -4.33189 0
M  V30 13069 H 1248.9 -6.15003 -4.46851 0
M  V30 13070 N 1250.47 1.3842 -0.753509 0
M  V30 13071 C 1251.72 2.00415 -0.310091 0
M  V30 13072 C 1252.05 1.59675 1.10532 0
M  V30 13073 O 1251.33 0.834261 1.757 0
M  V30 13074 C 1251.61 3.57488 -0.432897 0
M  V30 13075 C 1251.46 4.08193 -1.88941 0
M  V30 13076 C 1252.78 4.39757 0.173763 0
M  V30 13077 H 1249.9 0.728107 -0.114147 0
M  V30 13078 H 1252.54 1.64363 -0.953138 0
M  V30 13079 H 1250.69 3.88331 0.114563 0
M  V30 13080 H 1252.36 3.87993 -2.49517 0
M  V30 13081 H 1250.61 3.61063 -2.4045 0
M  V30 13082 H 1251.28 5.17291 -1.9265 0
M  V30 13083 H 1253.75 4.15066 -0.293137 0
M  V30 13084 H 1252.63 5.4887 0.057594 0
M  V30 13085 H 1252.89 4.23704 1.26205 0
M  V30 13086 N 1251.95 0.502579 1.49372 0
M  V30 13087 C 1253.2 -0.041381 2.02458 0
M  V30 13088 C 1253.53 -1.36848 1.38213 0
M  V30 13089 O 1252.78 -1.89003 0.507568 0
M  V30 13090 C 1253.08 -0.240835 3.56588 0
M  V30 13091 C 1252.75 1.00846 4.39478 0
M  V30 13092 C 1251.41 1.35091 4.61848 0
M  V30 13093 C 1253.76 1.8388 4.87686 0
M  V30 13094 C 1251.09 2.52318 5.29672 0
M  V30 13095 C 1253.44 3.00262 5.56799 0
M  V30 13096 C 1252.1 3.34885 5.77415 0
M  V30 13097 H 1251.37 -0.0151424 0.740845 0
M  V30 13098 H 1254.02 0.663056 1.79655 0
M  V30 13099 H 1252.33 -1.02781 3.78078 0
M  V30 13100 H 1254.02 -0.676194 3.95258 0
M  V30 13101 H 1250.61 0.731719 4.22308 0
M  V30 13102 H 1254.8 1.58738 4.7023 0
M  V30 13103 H 1250.05 2.79379 5.43836 0
M  V30 13104 H 1254.23 3.64927 5.93128 0
M  V30 13105 H 1251.85 4.25824 6.29744 0
M  V30 13106 N 1253.43 -1.55816 0.23648 0
M  V30 13107 C 1254.68 -1.98686 -0.391146 0
M  V30 13108 C 1255 -1.12443 -1.58703 0
M  V30 13109 O 1254.26 -0.172805 -1.94936 0
M  V30 13110 C 1254.56 -3.47039 -0.85434 0
M  V30 13111 C 1254.22 -4.50299 0.232651 0
M  V30 13112 C 1252.89 -4.78259 0.531218 0
M  V30 13113 C 1255.24 -5.1215 0.967027 0
M  V30 13114 C 1252.57 -5.65347 1.56842 0
M  V30 13115 C 1254.92 -6.00363 1.99367 0
M  V30 13116 C 1253.58 -6.2666 2.299 0
M  V30 13117 H 1252.85 -0.727045 -0.14313 0
M  V30 13118 H 1255.5 -1.88419 0.342125 0
M  V30 13119 H 1253.8 -3.54585 -1.66663 0
M  V30 13120 H 1255.5 -3.7759 -1.35005 0
M  V30 13121 H 1252.09 -4.28599 -0.0102014 0
M  V30 13122 H 1256.27 -4.90606 0.749609 0
M  V30 13123 H 1251.53 -5.83981 1.81043 0
M  V30 13124 H 1255.7 -6.47335 2.56769 0
M  V30 13125 H 1253.33 -6.93938 3.1041 0
M  V30 13126 N 1254.91 0.036755 -1.57557 0
M  V30 13127 C 1256.18 0.764087 -1.80059 0
M  V30 13128 C 1256.56 1.93983 -0.83269 0
M  V30 13129 O 1255.91 2.28148 0.126815 0
M  V30 13130 C 1256.12 1.20433 -3.27562 0
M  V30 13131 C 1257.47 1.6234 -3.9234 0
M  V30 13132 O 1258.49 1.29911 -3.31665 0
M  V30 13133 O 1257.35 2.22504 -4.99154 0
M  V30 13134 H 1254.45 0.368866 -0.74018 0
M  V30 13135 H 1256.99 0.0141254 -1.69694 0
M  V30 13136 H 1255.76 0.364646 -3.89597 0
M  V30 13137 H 1255.39 2.01454 -3.42786 0
M  V30 13138 N 1256.39 1.54543 0.308881 0
M  V30 13139 C 1257.32 1.87947 1.38557 0
M  V30 13140 C 1258.3 0.737622 1.53275 0
M  V30 13141 O 1259.48 0.992664 1.66913 0
M  V30 13142 C 1256.61 2.11982 2.75102 0
M  V30 13143 C 1255.57 3.2783 2.75158 0
M  V30 13144 C 1254.89 3.37266 4.14917 0
M  V30 13145 C 1256.19 4.65129 2.37598 0
M  V30 13146 H 1257.89 2.78123 1.1085 0
M  V30 13147 H 1255.43 1.3382 0.531808 0
M  V30 13148 H 1257.38 2.33935 3.50503 0
M  V30 13149 H 1256.11 1.18569 3.04317 0
M  V30 13150 H 1254.77 3.05787 2.02212 0
M  V30 13151 H 1254.42 2.41384 4.41296 0
M  V30 13152 H 1254.12 4.15135 4.15857 0
M  V30 13153 H 1255.64 3.61471 4.92109 0
M  V30 13154 H 1257.05 4.86865 3.02714 0
M  V30 13155 H 1255.45 5.45653 2.49765 0
M  V30 13156 H 1256.52 4.6638 1.32731 0
M  V30 13157 N 1257.86 -0.571685 1.46866 0
M  V30 13158 C 1259.11 -1.32948 1.52745 0
M  V30 13159 C 1259.44 -1.93631 0.183694 0
M  V30 13160 O 1258.69 -1.77605 -0.821886 0
M  V30 13161 C 1258.99 -2.47051 2.58264 0
M  V30 13162 C 1258.66 -2.04291 4.01965 0
M  V30 13163 C 1257.32 -1.92345 4.41086 0
M  V30 13164 C 1259.67 -1.71458 4.9219 0
M  V30 13165 C 1257 -1.4584 5.68285 0
M  V30 13166 C 1259.35 -1.26429 6.19837 0
M  V30 13167 C 1258.02 -1.13068 6.57854 0
M  V30 13168 H 1257.29 -0.48649 0.558935 0
M  V30 13169 H 1259.93 -0.642618 1.80396 0
M  V30 13170 H 1258.24 -3.21231 2.24316 0
M  V30 13171 H 1259.94 -3.05254 2.6004 0
M  V30 13172 H 1256.53 -2.14527 3.71047 0
M  V30 13173 H 1260.71 -1.79567 4.62676 0
M  V30 13174 H 1255.97 -1.34148 5.96502 0
M  V30 13175 H 1260.14 -1.00081 6.89171 0
M  V30 13176 H 1257.77 -0.768094 7.5631 0
M  V30 13177 N 1259.34 -1.34755 -0.817236 0
M  V30 13178 C 1260.29 -1.26816 -1.94988 0
M  V30 13179 C 1261.28 -0.165142 -1.68593 0
M  V30 13180 O 1262.49 -0.330469 -1.7694 0
M  V30 13181 H 1258.86 -0.394113 -0.640452 0
M  V30 13182 H 1260.84 -2.22528 -1.98806 0
M  V30 13183 C 1259.58 -1.04625 -3.31586 0
M  V30 13184 H 1258.91 -1.88735 -3.52447 0
M  V30 13185 H 1260.35 -1.03108 -4.11272 0
M  V30 13186 C 1258.81 0.250283 -3.35969 0
M  V30 13187 O 1259.34 1.24972 -3.81765 0
M  V30 13188 N 1257.54 0.285369 -2.89195 0
M  V30 13189 H 1257.09 -0.528528 -2.5212 0
M  V30 13190 H 1257.05 1.15261 -2.9251 0
M  V30 13191 N 1260.82 1.03812 -1.18578 0
M  V30 13192 C 1261.78 2.10049 -0.91718 0
M  V30 13193 C 1262.78 1.60498 0.0985122 0
M  V30 13194 O 1263.97 1.73674 -0.135213 0
M  V30 13195 C 1261.1 3.38813 -0.376599 0
M  V30 13196 H 1262.3 2.3531 -1.85927 0
M  V30 13197 H 1259.85 1.20277 -0.998156 0
M  V30 13198 H 1260.59 3.19216 0.571983 0
M  V30 13199 H 1260.37 3.76096 -1.10881 0
M  V30 13200 H 1261.86 4.17084 -0.207453 0
M  V30 13201 N 1262.3 0.988223 1.22768 0
M  V30 13202 C 1263.23 0.554478 2.26821 0
M  V30 13203 C 1264.21 -0.416293 1.64927 0
M  V30 13204 O 1265.39 -0.30795 1.91743 0
M  V30 13205 C 1262.52 -0.136266 3.47033 0
M  V30 13206 C 1261.48 0.752575 4.21332 0
M  V30 13207 C 1260.8 -0.0708236 5.34653 0
M  V30 13208 C 1262.1 2.04717 4.80508 0
M  V30 13209 H 1263.8 1.42423 2.63355 0
M  V30 13210 H 1261.34 0.686267 1.26595 0
M  V30 13211 H 1263.3 -0.451068 4.18979 0
M  V30 13212 H 1262.02 -1.04053 3.09581 0
M  V30 13213 H 1260.68 1.05095 3.51213 0
M  V30 13214 H 1260.33 -0.975859 4.93443 0
M  V30 13215 H 1260.03 0.520835 5.85287 0
M  V30 13216 H 1261.55 -0.379828 6.09417 0
M  V30 13217 H 1262.97 1.79663 5.44421 0
M  V30 13218 H 1261.36 2.58726 5.41462 0
M  V30 13219 H 1262.43 2.72896 4.00819 0
M  V30 13220 N 1263.78 -1.38018 0.760839 0
M  V30 13221 C 1265 -2.04231 0.331285 0
M  V30 13222 C 1265.42 -1.57385 -1.04285 0
M  V30 13223 O 1264.78 -0.750168 -1.66369 0
M  V30 13224 C 1264.83 -3.59772 0.353021 0
M  V30 13225 O 1264.55 -4.049 1.67294 0
M  V30 13226 C 1266.05 -4.4321 -0.0894942 0
M  V30 13227 H 1263.27 -0.656145 0.140408 0
M  V30 13228 H 1265.81 -1.76567 1.03172 0
M  V30 13229 H 1263.97 -3.86246 -0.298735 0
M  V30 13230 H 1264.38 -4.99369 1.60408 0
M  V30 13231 H 1265.86 -5.51995 -0.0231262 0
M  V30 13232 H 1266.33 -4.2419 -1.13839 0
M  V30 13233 H 1266.94 -4.21939 0.533661 0
M  V30 13234 N 1265.25 -0.510493 -1.49103 0
M  V30 13235 C 1266.49 0.0288873 -2.0438 0
M  V30 13236 C 1266.86 1.334 -1.38088 0
M  V30 13237 O 1268.06 1.95821 -1.8414 0
M  V30 13238 C 1266.33 0.168392 -3.57003 0
M  V30 13239 S 1267.89 0.660651 -4.33798 0
M  V30 13240 H 1264.71 -0.00274928 -0.710995 0
M  V30 13241 H 1267.31 -0.686622 -1.83046 0
M  V30 13242 H 1266.01 -0.786627 -4.02791 0
M  V30 13243 H 1265.54 0.908861 -3.82757 0
M  V30 13244 H 1267.56 1.92833 -4.57198 0
M  V30 13245 N 1266.73 1.55688 -0.24474 0
M  V30 13246 C 1268.15 1.59219 0.110159 0
M  V30 13247 C 1268.35 1.26187 1.57096 0
M  V30 13248 O 1267.4 1.00815 2.31501 0
M  V30 13249 C 1268.72 2.99764 -0.237075 0
M  V30 13250 C 1270.26 3.12475 -0.181198 0
M  V30 13251 C 1270.74 4.55236 -0.502435 0
M  V30 13252 N 1272.23 4.60981 -0.452855 0
M  V30 13253 C 1272.97 5.69418 -0.674605 0
M  V30 13254 N 1272.46 6.86125 -0.959366 0
M  V30 13255 N 1274.25 5.5883 -0.605459 0
M  V30 13256 H 1266.41 1.7543 -1.19741 0
M  V30 13257 H 1268.67 0.816537 -0.481634 0
M  V30 13258 H 1268.37 3.28666 -1.25185 0
M  V30 13259 H 1268.25 3.74662 0.436859 0
M  V30 13260 H 1270.64 2.83355 0.824248 0
M  V30 13261 H 1270.72 2.39857 -0.888952 0
M  V30 13262 H 1270.36 4.85077 -1.50543 0
M  V30 13263 H 1270.29 5.26111 0.226773 0
M  V30 13264 H 1272.78 3.77128 -0.241401 0
M  V30 13265 H 1273.09 7.64699 -1.11605 0
M  V30 13266 H 1271.44 6.87814 -0.996816 0
M  V30 13267 H 1274.63 4.6653 -0.383053 0
M  V30 13268 H 1274.8 6.43268 -0.781673 0
M  V30 13269 N 1268.21 -0.0283989 1.57574 0
M  V30 13270 C 1269.43 -0.734537 1.93957 0
M  V30 13271 C 1269.86 -1.68062 0.844787 0
M  V30 13272 O 1269.22 -1.802 -0.199432 0
M  V30 13273 C 1269.27 -1.46716 3.29404 0
M  V30 13274 O 1268.37 -2.58036 3.217 0
M  V30 13275 H 1267.71 -0.197507 0.633946 0
M  V30 13276 H 1270.24 0.0163258 2.04593 0
M  V30 13277 H 1270.25 -1.83693 3.64309 0
M  V30 13278 H 1268.93 -0.773292 4.08648 0
M  V30 13279 H 1267.5 -2.23597 2.98427 0
M  V30 13280 N 1269.69 -1.54705 -0.300681 0
M  V30 13281 C 1270.62 -1.8205 -1.39249 0
M  V30 13282 C 1271.63 -0.703476 -1.46816 0
M  V30 13283 O 1272.82 -0.980957 -1.49129 0
M  V30 13284 C 1269.92 -1.94376 -2.77617 0
M  V30 13285 C 1269.09 -3.2478 -2.92979 0
M  V30 13286 C 1268.15 -3.27518 -4.11848 0
M  V30 13287 O 1267.18 -4.01047 -4.03918 0
M  V30 13288 N 1268.38 -2.52932 -5.22499 0
M  V30 13289 H 1271.15 -2.76279 -1.16146 0
M  V30 13290 H 1268.71 -1.54283 -0.49075 0
M  V30 13291 H 1270.7 -1.93609 -3.55384 0
M  V30 13292 H 1269.27 -1.07141 -2.93666 0
M  V30 13293 H 1268.49 -3.38319 -2.02322 0
M  V30 13294 H 1269.78 -4.10835 -3.00153 0
M  V30 13295 H 1269.18 -1.92825 -5.31822 0
M  V30 13296 H 1267.73 -2.57919 -5.98599 0
M  V30 13297 N 1271.17 0.563888 -1.47167 0
M  V30 13298 C 1272.39 1.34693 -1.57052 0
M  V30 13299 C 1272.81 1.87534 -0.218308 0
M  V30 13300 O 1272.17 1.64639 0.787416 0
M  V30 13301 C 1272.22 2.52148 -2.59044 0
M  V30 13302 O 1271.94 2.01492 -3.89015 0
M  V30 13303 C 1273.44 3.4445 -2.7905 0
M  V30 13304 H 1270.66 0.410822 -0.530534 0
M  V30 13305 H 1273.2 0.683731 -1.92731 0
M  V30 13306 H 1271.36 3.14419 -2.26317 0
M  V30 13307 H 1271.77 2.78122 -4.44689 0
M  V30 13308 H 1273.25 4.23297 -3.54293 0
M  V30 13309 H 1273.72 3.97575 -1.86631 0
M  V30 13310 H 1274.33 2.88 -3.12948 0
M  V30 13311 N 1272.64 1.35187 0.810078 0
M  V30 13312 C 1273.59 1.27822 1.92173 0
M  V30 13313 C 1274.56 0.150851 1.65414 0
M  V30 13314 O 1275.75 0.333973 1.87854 0
M  V30 13315 C 1272.89 1.05258 3.28656 0
M  V30 13316 C 1272 2.26884 3.67624 0
M  V30 13317 C 1271.13 1.97499 4.9312 0
M  V30 13318 C 1270.17 3.15198 5.24706 0
M  V30 13319 N 1269.31 2.85612 6.41381 0
M  V30 13320 H 1274.15 2.22884 1.97804 0
M  V30 13321 H 1271.69 1.10799 0.967577 0
M  V30 13322 H 1273.65 0.902084 4.07331 0
M  V30 13323 H 1272.28 0.138583 3.22502 0
M  V30 13324 H 1271.33 2.5281 2.84238 0
M  V30 13325 H 1272.64 3.14783 3.86928 0
M  V30 13326 H 1271.79 1.7926 5.79613 0
M  V30 13327 H 1270.53 1.0688 4.75844 0
M  V30 13328 H 1269.54 3.34019 4.36705 0
M  V30 13329 H 1270.76 4.06614 5.43913 0
M  V30 13330 H 1268.71 1.97583 6.25537 0
M  V30 13331 H 1268.63 3.67044 6.60919 0
M  V30 13332 H 1269.89 2.70906 7.3091 0
M  V30 13333 N 1274.12 -1.03182 1.19127 0
M  V30 13334 C 1275.05 -2.13301 0.94999 0
M  V30 13335 C 1276.03 -1.69707 -0.115577 0
M  V30 13336 O 1277.22 -1.94161 0.0388395 0
M  V30 13337 C 1274.35 -3.43902 0.484637 0
M  V30 13338 C 1273.3 -4.01164 1.4917 0
M  V30 13339 C 1272.63 -5.2735 0.883537 0
M  V30 13340 C 1273.93 -4.36311 2.87107 0
M  V30 13341 H 1275.62 -2.33743 1.87095 0
M  V30 13342 H 1273.17 -1.12332 0.900977 0
M  V30 13343 H 1275.12 -4.20308 0.30315 0
M  V30 13344 H 1273.85 -3.23173 -0.471909 0
M  V30 13345 H 1272.5 -3.26849 1.66028 0
M  V30 13346 H 1272.15 -5.02936 -0.0804712 0
M  V30 13347 H 1271.85 -5.66624 1.55599 0
M  V30 13348 H 1273.38 -6.06425 0.71278 0
M  V30 13349 H 1274.79 -5.03666 2.73848 0
M  V30 13350 H 1273.19 -4.86659 3.51117 0
M  V30 13351 H 1274.26 -3.45743 3.39985 0
M  V30 13352 N 1275.6 -0.99472 -1.22242 0
M  V30 13353 C 1276.85 -0.667045 -1.90351 0
M  V30 13354 C 1277.16 0.804615 -1.78284 0
M  V30 13355 O 1278.37 1.24395 -2.41326 0
M  V30 13356 C 1276.82 -1.14256 -3.41282 0
M  V30 13357 C 1276.43 -2.63958 -3.61981 0
M  V30 13358 C 1278.18 -0.889302 -4.1508 0
M  V30 13359 C 1276.08 -3.05103 -5.06622 0
M  V30 13360 H 1275.01 -0.245795 -0.712812 0
M  V30 13361 H 1277.66 -1.20452 -1.38432 0
M  V30 13362 H 1276.05 -0.533203 -3.92394 0
M  V30 13363 H 1277.22 -3.30255 -3.21354 0
M  V30 13364 H 1275.54 -2.87186 -3.01518 0
M  V30 13365 H 1278.13 -1.17239 -5.21689 0
M  V30 13366 H 1278.48 0.174556 -4.15934 0
M  V30 13367 H 1279.01 -1.46095 -3.70002 0
M  V30 13368 H 1275.75 -4.10672 -5.1091 0
M  V30 13369 H 1275.27 -2.4351 -5.48145 0
M  V30 13370 H 1276.95 -2.96506 -5.75059 0
M  V30 13371 N 1277.08 1.37613 -0.768148 0
M  V30 13372 C 1278.33 1.99779 -0.330841 0
M  V30 13373 C 1278.65 1.60978 1.09162 0
M  V30 13374 O 1277.91 0.845778 1.7648 0
M  V30 13375 C 1278.21 3.54952 -0.417608 0
M  V30 13376 C 1277.87 4.13509 -1.7978 0
M  V30 13377 C 1276.54 4.29216 -2.17549 0
M  V30 13378 C 1278.89 4.45662 -2.7025 0
M  V30 13379 C 1276.22 4.74376 -3.45231 0
M  V30 13380 C 1278.57 4.92245 -3.97338 0
M  V30 13381 C 1277.23 5.06157 -4.35157 0
M  V30 13382 H 1276.5 0.731044 -0.121063 0
M  V30 13383 H 1279.15 1.64437 -0.98147 0
M  V30 13384 H 1277.45 3.90519 0.316567 0
M  V30 13385 H 1279.15 4.00954 -0.0606037 0
M  V30 13386 H 1275.74 4.01709 -1.49425 0
M  V30 13387 H 1279.92 4.33116 -2.42332 0
M  V30 13388 H 1275.18 4.83333 -3.74431 0
M  V30 13389 H 1279.35 5.16091 -4.67572 0
M  V30 13390 H 1276.98 5.4091 -5.34154 0
M  V30 13391 N 1278.56 0.518393 1.4883 0
M  V30 13392 C 1279.47 -0.254811 2.33212 0
M  V30 13393 C 1280.48 -0.950401 1.45751 0
M  V30 13394 O 1281.66 -0.927932 1.78749 0
M  V30 13395 C 1278.72 -1.29509 3.21603 0
M  V30 13396 C 1277.78 -0.611086 4.24928 0
M  V30 13397 C 1277.02 -1.6018 5.09095 0
M  V30 13398 O 1277.24 -2.83336 4.95052 0
M  V30 13399 O 1276.17 -1.14756 5.90859 0
M  V30 13400 H 1280 0.436329 3.00549 0
M  V30 13401 H 1277.59 0.27947 1.46763 0
M  V30 13402 H 1279.47 -1.89654 3.7631 0
M  V30 13403 H 1278.14 -1.96884 2.5694 0
M  V30 13404 H 1277.05 0.0305638 3.74088 0
M  V30 13405 H 1278.38 0.0205249 4.92196 0
M  V30 13406 N 1280.03 -1.55556 0.252993 0
M  V30 13407 C 1281.28 -1.98267 -0.370571 0
M  V30 13408 C 1281.6 -1.14449 -1.58622 0
M  V30 13409 O 1282.8 -1.472 -2.28132 0
M  V30 13410 C 1281.26 -3.52813 -0.710685 0
M  V30 13411 C 1280.87 -4.45379 0.483908 0
M  V30 13412 C 1282.61 -4.04165 -1.2981 0
M  V30 13413 C 1280.52 -5.91279 0.119611 0
M  V30 13414 H 1279.45 -0.740463 -0.142232 0
M  V30 13415 H 1282.1 -1.8005 0.354169 0
M  V30 13416 H 1280.48 -3.66748 -1.49372 0
M  V30 13417 H 1281.65 -4.43206 1.26116 0
M  V30 13418 H 1279.97 -4.04542 0.986664 0
M  V30 13419 H 1282.57 -5.10696 -1.5841 0
M  V30 13420 H 1282.91 -3.51875 -2.22462 0
M  V30 13421 H 1283.44 -3.93581 -0.577836 0
M  V30 13422 H 1280.18 -6.47619 1.01343 0
M  V30 13423 H 1279.7 -5.96573 -0.621318 0
M  V30 13424 H 1281.38 -6.46322 -0.296052 0
M  V30 13425 N 1281.51 0.0200419 -1.57587 0
M  V30 13426 C 1282.76 0.707627 -1.89307 0
M  V30 13427 C 1283.08 1.7541 -0.851831 0
M  V30 13428 O 1282.35 1.95571 0.113404 0
M  V30 13429 H 1280.93 0.264349 -0.698662 0
M  V30 13430 H 1283.59 -0.0161428 -1.94893 0
M  V30 13431 H 1282.69 1.19152 -2.8846 0
M  V30 13432 N 1282.99 1.54862 0.292472 0
M  V30 13433 C 1284.24 1.74548 1.02661 0
M  V30 13434 C 1284.57 0.535895 1.86972 0
M  V30 13435 O 1283.82 -0.482016 1.89671 0
M  V30 13436 C 1284.12 2.99214 1.95463 0
M  V30 13437 C 1283.79 4.32628 1.2706 0
M  V30 13438 C 1282.45 4.68892 1.08138 0
M  V30 13439 C 1284.8 5.15296 0.782278 0
M  V30 13440 C 1282.13 5.85397 0.39081 0
M  V30 13441 C 1284.48 6.32512 0.105392 0
M  V30 13442 C 1283.14 6.67431 -0.0957097 0
M  V30 13443 H 1282.41 0.638717 0.375662 0
M  V30 13444 H 1285.06 1.89125 0.300672 0
M  V30 13445 H 1283.37 2.79454 2.74613 0
M  V30 13446 H 1285.06 3.1164 2.52352 0
M  V30 13447 H 1281.65 4.04113 1.42796 0
M  V30 13448 H 1285.84 4.87771 0.916151 0
M  V30 13449 H 1281.09 6.10989 0.224095 0
M  V30 13450 H 1285.27 6.95833 -0.280845 0
M  V30 13451 H 1282.89 7.57562 -0.63281 0
M  V30 13452 N 1284.47 -0.556076 1.47464 0
M  V30 13453 C 1285.4 -1.67275 1.62915 0
M  V30 13454 C 1286.38 -1.63229 0.478562 0
M  V30 13455 O 1287.56 -1.80833 0.708032 0
M  V30 13456 C 1284.69 -3.05911 1.64426 0
M  V30 13457 C 1283.65 -3.24804 2.78722 0
M  V30 13458 C 1282.97 -4.64238 2.65307 0
M  V30 13459 C 1284.27 -3.10071 4.20302 0
M  V30 13460 H 1285.97 -1.54601 2.56396 0
M  V30 13461 H 1283.51 -0.742337 1.23391 0
M  V30 13462 H 1285.47 -3.83878 1.73826 0
M  V30 13463 H 1284.19 -3.19547 0.675053 0
M  V30 13464 H 1282.85 -2.49246 2.68835 0
M  V30 13465 H 1282.5 -4.74675 1.66412 0
M  V30 13466 H 1282.2 -4.77828 3.41986 0
M  V30 13467 H 1283.72 -5.44339 2.76637 0
M  V30 13468 H 1285.14 -3.77855 4.3116 0
M  V30 13469 H 1283.53 -3.3517 4.97776 0
M  V30 13470 H 1284.6 -2.06803 4.38589 0
M  V30 13471 N 1285.95 -1.35615 -0.802897 0
M  V30 13472 C 1287.36 -1.15733 -1.099 0
M  V30 13473 C 1287.56 0.0277094 -2.01481 0
M  V30 13474 O 1286.62 0.697196 -2.42684 0
M  V30 13475 C 1287.93 -2.46201 -1.72643 0
M  V30 13476 C 1289.48 -2.52442 -1.85046 0
M  V30 13477 C 1289.96 -3.82962 -2.51205 0
M  V30 13478 N 1291.45 -3.84234 -2.58686 0
M  V30 13479 C 1292.18 -4.81956 -3.10654 0
M  V30 13480 N 1291.68 -5.90068 -3.63032 0
M  V30 13481 N 1293.47 -4.69389 -3.09241 0
M  V30 13482 H 1285.62 -2.11511 -0.194177 0
M  V30 13483 H 1287.88 -0.936259 -0.148739 0
M  V30 13484 H 1287.59 -3.33114 -1.12817 0
M  V30 13485 H 1287.46 -2.6102 -2.72302 0
M  V30 13486 H 1289.85 -1.65955 -2.44014 0
M  V30 13487 H 1289.93 -2.41534 -0.842316 0
M  V30 13488 H 1289.58 -4.69848 -1.92885 0
M  V30 13489 H 1289.51 -3.9116 -3.52564 0
M  V30 13490 H 1292 -3.0612 -2.21582 0
M  V30 13491 H 1292.31 -6.60623 -4.00996 0
M  V30 13492 H 1290.66 -5.93755 -3.6122 0
M  V30 13493 H 1293.85 -3.84066 -2.67602 0
M  V30 13494 H 1294.02 -5.4571 -3.49435 0
M  V30 13495 N 1287.43 1.02549 -1.19673 0
M  V30 13496 C 1288.37 2.13015 -0.934209 0
M  V30 13497 C 1289.37 1.69035 0.111208 0
M  V30 13498 O 1290.57 1.79959 -0.0383449 0
M  V30 13499 H 1286.95 0.696015 -0.284722 0
M  V30 13500 H 1288.92 2.32346 -1.87238 0
M  V30 13501 C 1287.67 3.44185 -0.493124 0
M  V30 13502 H 1286.99 3.78447 -1.28911 0
M  V30 13503 H 1288.43 4.22565 -0.348577 0
M  V30 13504 C 1286.89 3.27427 0.793277 0
M  V30 13505 O 1287.42 3.56362 1.85388 0
M  V30 13506 N 1285.63 2.80706 0.751837 0
M  V30 13507 H 1285.17 2.57359 -0.111517 0
M  V30 13508 H 1285.13 2.69874 1.61292 0
M  V30 13509 N 1288.9 1.00119 1.21713 0
M  V30 13510 C 1289.85 0.529464 2.21767 0
M  V30 13511 C 1290.84 -0.406858 1.55671 0
M  V30 13512 O 1292.03 -0.232329 1.75469 0
M  V30 13513 C 1289.16 -0.146336 3.42988 0
M  V30 13514 C 1288.24 0.81078 4.16278 0
M  V30 13515 N 1288.64 1.96204 4.66195 0
M  V30 13516 C 1286.93 0.628371 4.41551 0
M  V30 13517 C 1287.63 2.56346 5.2217 0
M  V30 13518 N 1286.61 1.8454 5.11318 0
M  V30 13519 H 1290.41 1.40738 2.58012 0
M  V30 13520 H 1287.93 0.864518 1.37477 0
M  V30 13521 H 1289.92 -0.501726 4.1387 0
M  V30 13522 H 1288.58 -1.02029 3.08254 0
M  V30 13523 H 1289.59 2.34255 4.61893 0
M  V30 13524 H 1286.27 -0.198819 4.17026 0
M  V30 13525 H 1287.66 3.53688 5.71274 0
M  V30 13526 N 1290.38 -1.37203 0.775435 0
M  V30 13527 C 1291.31 -2.27933 0.110444 0
M  V30 13528 C 1292.29 -1.46513 -0.705179 0
M  V30 13529 O 1293.48 -1.7584 -0.679154 0
M  V30 13530 C 1290.6 -3.27868 -0.84971 0
M  V30 13531 C 1289.65 -4.26338 -0.117627 0
M  V30 13532 S 1290.48 -5.21952 1.19691 0
M  V30 13533 C 1291.64 -6.25438 0.240393 0
M  V30 13534 H 1291.87 -2.83985 0.879766 0
M  V30 13535 H 1289.4 -1.43533 0.568996 0
M  V30 13536 H 1291.36 -3.85952 -1.39827 0
M  V30 13537 H 1290.02 -2.70756 -1.59217 0
M  V30 13538 H 1289.22 -4.96855 -0.845639 0
M  V30 13539 H 1288.82 -3.72263 0.360041 0
M  V30 13540 H 1291.11 -6.74962 -0.585867 0
M  V30 13541 H 1292.05 -7.02178 0.913846 0
M  V30 13542 H 1292.46 -5.64301 -0.150043 0
M  V30 13543 N 1291.86 -0.526279 -1.48553 0
M  V30 13544 C 1293.11 0.0091665 -2.02498 0
M  V30 13545 C 1293.43 1.34632 -1.40373 0
M  V30 13546 O 1292.69 1.88172 -0.537573 0
M  V30 13547 C 1292.99 0.184075 -3.56926 0
M  V30 13548 C 1292.65 -1.07825 -4.37818 0
M  V30 13549 C 1291.32 -1.42422 -4.59641 0
M  V30 13550 C 1293.67 -1.91616 -4.84699 0
M  V30 13551 C 1291 -2.60713 -5.25591 0
M  V30 13552 C 1293.35 -3.09082 -5.51952 0
M  V30 13553 C 1292.01 -3.44029 -5.72014 0
M  V30 13554 H 1291.28 0.00335426 -0.740992 0
M  V30 13555 H 1293.93 -0.691553 -1.78577 0
M  V30 13556 H 1292.23 0.967532 -3.79666 0
M  V30 13557 H 1293.93 0.613226 -3.96283 0
M  V30 13558 H 1290.52 -0.798812 -4.2109 0
M  V30 13559 H 1294.71 -1.66199 -4.67645 0
M  V30 13560 H 1289.96 -2.87996 -5.39322 0
M  V30 13561 H 1294.14 -3.74317 -5.87247 0
M  V30 13562 H 1291.76 -4.35789 -6.2289 0
M  V30 13563 N 1293.34 1.5542 -0.261239 0
M  V30 13564 C 1294.27 2.24949 0.626126 0
M  V30 13565 C 1295.25 1.23474 1.16997 0
M  V30 13566 O 1296.43 1.52161 1.20667 0
M  V30 13567 C 1293.56 2.95996 1.81669 0
M  V30 13568 C 1292.52 4.04282 1.40499 0
M  V30 13569 C 1291.84 4.62831 2.67753 0
M  V30 13570 C 1293.14 5.1923 0.56543 0
M  V30 13571 H 1294.84 2.99364 0.0463164 0
M  V30 13572 H 1292.38 1.43985 0.0208366 0
M  V30 13573 H 1294.34 3.43343 2.44323 0
M  V30 13574 H 1293.06 2.19093 2.42211 0
M  V30 13575 H 1291.72 3.57726 0.801712 0
M  V30 13576 H 1291.37 3.82611 3.26524 0
M  V30 13577 H 1291.07 5.35938 2.40925 0
M  V30 13578 H 1292.59 5.12918 3.31281 0
M  V30 13579 H 1294.01 5.62714 1.09663 0
M  V30 13580 H 1292.4 5.98814 0.392607 0
M  V30 13581 H 1293.47 4.83086 -0.419059 0
M  V30 13582 N 1294.82 -0.0116844 1.57596 0
M  V30 13583 C 1296.05 -0.70923 1.94045 0
M  V30 13584 C 1296.45 -1.6848 0.860877 0
M  V30 13585 O 1295.8 -1.82913 -0.169896 0
M  V30 13586 C 1295.86 -1.50653 3.2641 0
M  V30 13587 C 1295.52 -0.693838 4.51702 0
M  V30 13588 C 1296.52 0.0134445 5.19898 0
M  V30 13589 C 1294.2 -0.643252 4.98164 0
M  V30 13590 C 1296.2 0.760426 6.32848 0
M  V30 13591 C 1293.89 0.107462 6.11006 0
M  V30 13592 C 1294.88 0.808045 6.78203 0
M  V30 13593 O 1294.57 1.54654 7.88884 0
M  V30 13594 H 1294.3 -0.203265 0.644716 0
M  V30 13595 H 1296.86 0.0320123 2.05375 0
M  V30 13596 H 1295.09 -2.29199 3.11456 0
M  V30 13597 H 1296.78 -2.08832 3.48058 0
M  V30 13598 H 1297.54 -0.016558 4.84997 0
M  V30 13599 H 1293.42 -1.17807 4.45693 0
M  V30 13600 H 1296.97 1.30779 6.85232 0
M  V30 13601 H 1292.86 0.139327 6.4535 0
M  V30 13602 H 1293.63 1.46202 8.05337 0
M  V30 13603 N 1296.29 -1.55015 -0.284256 0
M  V30 13604 C 1297.52 -1.79431 -1.04016 0
M  V30 13605 C 1297.94 -0.560254 -1.79563 0
M  V30 13606 O 1297.3 0.489804 -1.74558 0
M  V30 13607 C 1297.35 -3.01162 -1.98328 0
M  V30 13608 O 1296.45 -2.75459 -3.06914 0
M  V30 13609 H 1295.79 -0.593391 -0.297965 0
M  V30 13610 H 1298.32 -2.02136 -0.316585 0
M  V30 13611 H 1298.33 -3.29589 -2.40489 0
M  V30 13612 H 1297.01 -3.90634 -1.42751 0
M  V30 13613 H 1295.59 -2.58096 -2.69148 0
M  V30 13614 N 1297.77 0.548248 -1.47757 0
M  V30 13615 C 1299.02 1.30694 -1.55071 0
M  V30 13616 C 1299.35 1.92994 -0.216075 0
M  V30 13617 O 1298.63 1.78341 0.776196 0
M  V30 13618 C 1298.91 2.41024 -2.67543 0
M  V30 13619 C 1298.76 1.83534 -4.10652 0
M  V30 13620 C 1300.08 3.42902 -2.75874 0
M  V30 13621 H 1297.2 0.47383 -0.564494 0
M  V30 13622 H 1299.84 0.612628 -1.79852 0
M  V30 13623 H 1297.99 3.00248 -2.46543 0
M  V30 13624 H 1299.66 1.28503 -4.4304 0
M  V30 13625 H 1297.91 1.14161 -4.18509 0
M  V30 13626 H 1298.58 2.63335 -4.85138 0
M  V30 13627 H 1301.05 2.9361 -2.94843 0
M  V30 13628 H 1299.93 4.17516 -3.5633 0
M  V30 13629 H 1300.19 4.02314 -1.83291 0
M  V30 13630 N 1299.25 1.36039 0.795694 0
M  V30 13631 C 1300.18 1.32528 1.92246 0
M  V30 13632 C 1301.16 0.197805 1.68946 0
M  V30 13633 O 1302.35 0.394474 1.90151 0
M  V30 13634 C 1299.48 1.10748 3.29169 0
M  V30 13635 C 1298.43 2.20253 3.66978 0
M  V30 13636 C 1297.76 1.83624 5.02181 0
M  V30 13637 C 1299.06 3.62296 3.76216 0
M  V30 13638 H 1300.75 2.2681 1.95442 0
M  V30 13639 H 1298.3 1.09181 0.938908 0
M  V30 13640 H 1300.25 1.06929 4.07608 0
M  V30 13641 H 1298.97 0.129141 3.26345 0
M  V30 13642 H 1297.63 2.23187 2.90832 0
M  V30 13643 H 1297.28 0.843804 4.95872 0
M  V30 13644 H 1296.98 2.56935 5.28449 0
M  V30 13645 H 1298.5 1.81349 5.83048 0
M  V30 13646 H 1299.92 3.61623 4.44861 0
M  V30 13647 H 1298.31 4.34459 4.13963 0
M  V30 13648 H 1299.38 3.97657 2.77483 0
M  V30 13649 N 1300.73 -1.01913 1.20215 0
M  V30 13650 C 1301.98 -1.75124 1.00876 0
M  V30 13651 C 1302.3 -1.89485 -0.460475 0
M  V30 13652 O 1301.57 -1.43552 -1.33302 0
M  V30 13653 H 1300.15 -0.648777 0.370266 0
M  V30 13654 H 1302.81 -1.22883 1.5128 0
M  V30 13655 H 1301.91 -2.7558 1.46499 0
M  V30 13656 N 1302.21 -1.00763 -1.2118 0
M  V30 13657 C 1303.43 -0.710515 -1.9485 0
M  V30 13658 C 1303.86 0.720934 -1.73736 0
M  V30 13659 O 1303.21 1.49484 -1.02588 0
M  V30 13660 C 1303.26 -1.04035 -3.45267 0
M  V30 13661 O 1302.37 -0.147047 -4.12138 0
M  V30 13662 H 1301.71 -0.264472 -0.609057 0
M  V30 13663 H 1304.24 -1.34858 -1.53865 0
M  V30 13664 H 1304.25 -0.9883 -3.95849 0
M  V30 13665 H 1302.92 -2.08334 -3.59958 0
M  V30 13666 H 1301.5 -0.255847 -3.72021 0
M  V30 13667 N 1303.68 1.3679 -0.7827 0
M  V30 13668 C 1304.93 1.98664 -0.348634 0
M  V30 13669 C 1305.25 1.62827 1.08382 0
M  V30 13670 O 1306.45 2.17886 1.61982 0
M  V30 13671 C 1304.91 3.55319 -0.572392 0
M  V30 13672 C 1304.52 4.00086 -2.01582 0
M  V30 13673 C 1306.26 4.24017 -0.202496 0
M  V30 13674 C 1304.17 5.49493 -2.18659 0
M  V30 13675 H 1303.1 0.743294 -0.126612 0
M  V30 13676 H 1305.75 1.56177 -0.963383 0
M  V30 13677 H 1304.13 3.95842 0.111973 0
M  V30 13678 H 1305.3 3.7078 -2.73603 0
M  V30 13679 H 1303.62 3.44205 -2.34333 0
M  V30 13680 H 1306.22 5.3381 -0.308459 0
M  V30 13681 H 1306.56 4.07559 0.84859 0
M  V30 13682 H 1307.09 3.88834 -0.839834 0
M  V30 13683 H 1303.83 5.7089 -3.22126 0
M  V30 13684 H 1303.35 5.80447 -1.51134 0
M  V30 13685 H 1305.03 6.15621 -1.99048 0
M  V30 13686 N 1305.16 0.53415 1.48272 0
M  V30 13687 C 1306.09 -0.215037 2.32508 0
M  V30 13688 C 1307.07 -0.931083 1.42355 0
M  V30 13689 O 1308.26 -0.916051 1.71237 0
M  V30 13690 C 1305.39 -1.25985 3.23643 0
M  V30 13691 C 1304.34 -0.661692 4.22854 0
M  V30 13692 C 1303.67 -1.80946 5.03153 0
M  V30 13693 C 1304.97 0.369358 5.20992 0
M  V30 13694 H 1306.66 0.488158 2.95394 0
M  V30 13695 H 1304.21 0.236206 1.4205 0
M  V30 13696 H 1306.16 -1.79195 3.81402 0
M  V30 13697 H 1304.89 -1.99268 2.58766 0
M  V30 13698 H 1303.54 -0.151082 3.66289 0
M  V30 13699 H 1303.19 -2.53077 4.34696 0
M  V30 13700 H 1302.89 -1.41513 5.70305 0
M  V30 13701 H 1304.42 -2.34526 5.63764 0
M  V30 13702 H 1305.83 -0.0758076 5.7325 0
M  V30 13703 H 1304.23 0.681301 5.9622 0
M  V30 13704 H 1305.3 1.27363 4.67875 0
M  V30 13705 N 1306.64 -1.55279 0.269478 0
M  V30 13706 C 1307.89 -1.99077 -0.348224 0
M  V30 13707 C 1308.21 -1.15925 -1.568 0
M  V30 13708 O 1307.48 -0.247404 -1.94331 0
M  V30 13709 H 1306.06 -0.735307 -0.131653 0
M  V30 13710 H 1308.72 -1.91288 0.373506 0
M  V30 13711 H 1307.82 -3.05427 -0.641953 0
M  V30 13712 N 1308.12 0.00332656 -1.576 0
M  V30 13713 C 1309.05 1.02391 -2.05058 0
M  V30 13714 C 1310.06 1.30903 -0.967901 0
M  V30 13715 O 1311.25 1.27937 -1.24476 0
M  V30 13716 C 1308.35 2.35947 -2.43274 0
M  V30 13717 C 1307.53 2.26423 -3.74234 0
M  V30 13718 C 1306.58 3.4264 -3.99355 0
M  V30 13719 O 1305.61 3.20977 -4.70067 0
M  V30 13720 N 1306.81 4.65379 -3.46991 0
M  V30 13721 H 1309.58 0.619216 -2.93233 0
M  V30 13722 H 1307.14 0.190777 -1.60772 0
M  V30 13723 H 1309.13 3.12462 -2.57196 0
M  V30 13724 H 1307.7 2.6817 -1.60635 0
M  V30 13725 H 1306.92 1.34841 -3.70421 0
M  V30 13726 H 1308.21 2.17229 -4.60097 0
M  V30 13727 H 1307.61 4.85878 -2.89723 0
M  V30 13728 H 1306.16 5.39171 -3.66249 0
M  V30 13729 N 1309.6 1.55164 0.276031 0
M  V30 13730 C 1310.53 1.90844 1.34539 0
M  V30 13731 C 1311.51 0.769968 1.51676 0
M  V30 13732 O 1312.69 1.02785 1.64769 0
M  V30 13733 C 1309.82 2.17769 2.70543 0
M  V30 13734 C 1308.78 3.33592 2.68142 0
M  V30 13735 C 1308.1 3.45991 4.07669 0
M  V30 13736 C 1309.4 4.70064 2.27678 0
M  V30 13737 H 1311.1 2.80412 1.04926 0
M  V30 13738 H 1308.64 1.34918 0.503303 0
M  V30 13739 H 1310.6 2.41317 3.45462 0
M  V30 13740 H 1309.32 1.24997 3.01734 0
M  V30 13741 H 1307.98 3.10007 1.95681 0
M  V30 13742 H 1307.63 2.50691 4.36077 0
M  V30 13743 H 1307.33 4.23862 4.06958 0
M  V30 13744 H 1308.85 3.71828 4.84331 0
M  V30 13745 H 1310.26 4.93176 2.92319 0
M  V30 13746 H 1308.66 5.50829 2.38134 0
M  V30 13747 H 1309.73 4.69091 1.22808 0
M  V30 13748 N 1311.07 -0.540404 1.48045 0
M  V30 13749 C 1312.04 -1.62813 1.61322 0
M  V30 13750 C 1313.04 -1.53243 0.487161 0
M  V30 13751 O 1314.23 -1.571 0.752684 0
M  V30 13752 C 1311.36 -3.02408 1.5736 0
M  V30 13753 H 1312.55 -1.52385 2.583 0
M  V30 13754 H 1310.11 -0.761654 1.36486 0
M  V30 13755 H 1310.84 -3.18353 0.618195 0
M  V30 13756 H 1310.63 -3.10763 2.39099 0
M  V30 13757 H 1312.12 -3.8151 1.69822 0
M  V30 13758 N 1312.55 -1.36459 -0.788468 0
M  V30 13759 C 1313.8 -1.30935 -1.54867 0
M  V30 13760 C 1314.13 0.110916 -1.93883 0
M  V30 13761 O 1313.41 1.06452 -1.62783 0
M  V30 13762 C 1313.69 -2.23294 -2.8251 0
M  V30 13763 C 1313.54 -3.74022 -2.49856 0
M  V30 13764 C 1314.86 -2.14407 -3.84341 0
M  V30 13765 H 1311.98 -0.476958 -0.561854 0
M  V30 13766 H 1314.62 -1.67018 -0.905805 0
M  V30 13767 H 1312.77 -1.92652 -3.37369 0
M  V30 13768 H 1314.44 -4.15187 -2.01041 0
M  V30 13769 H 1312.69 -3.93411 -1.82785 0
M  V30 13770 H 1313.36 -4.34057 -3.41026 0
M  V30 13771 H 1315.83 -2.41381 -3.38932 0
M  V30 13772 H 1314.71 -2.81199 -4.71401 0
M  V30 13773 H 1314.97 -1.13166 -4.27371 0
M  V30 13774 N 1314.03 1.01274 -1.20754 0
M  V30 13775 C 1315.28 1.74342 -1.01428 0
M  V30 13776 C 1315.59 1.90265 0.453708 0
M  V30 13777 O 1316.8 2.60465 0.76618 0
M  V30 13778 C 1315.25 3.13588 -1.76609 0
M  V30 13779 C 1314.86 3.05664 -3.27526 0
M  V30 13780 C 1316.61 3.9084 -1.65664 0
M  V30 13781 C 1314.51 4.39942 -3.95228 0
M  V30 13782 H 1313.44 0.653619 -0.375897 0
M  V30 13783 H 1316.09 1.13214 -1.44412 0
M  V30 13784 H 1314.48 3.75281 -1.26413 0
M  V30 13785 H 1315.65 2.53256 -3.84965 0
M  V30 13786 H 1313.97 2.41904 -3.38927 0
M  V30 13787 H 1316.56 4.9019 -2.13583 0
M  V30 13788 H 1316.91 4.11754 -0.61351 0
M  V30 13789 H 1317.44 3.35783 -2.13294 0
M  V30 13790 H 1314.18 4.24229 -4.9971 0
M  V30 13791 H 1313.7 4.92342 -3.42578 0
M  V30 13792 H 1315.38 5.08771 -3.99701 0
M  V30 13793 N 1315.51 1.01404 1.20644 0
M  V30 13794 C 1316.74 0.719995 1.93648 0
M  V30 13795 C 1317.15 -0.722872 1.74846 0
M  V30 13796 O 1316.49 -1.50172 1.05802 0
M  V30 13797 C 1316.55 0.972637 3.46092 0
M  V30 13798 C 1316.22 2.40412 3.88653 0
M  V30 13799 C 1317.21 3.38481 3.94622 0
M  V30 13800 C 1314.9 2.74418 4.20714 0
M  V30 13801 C 1316.89 4.68619 4.32059 0
M  V30 13802 C 1314.58 4.04769 4.57826 0
M  V30 13803 C 1315.58 5.01681 4.63471 0
M  V30 13804 O 1315.27 6.297 4.99733 0
M  V30 13805 H 1315 0.263849 0.622382 0
M  V30 13806 H 1317.55 1.35741 1.54154 0
M  V30 13807 H 1315.78 0.278057 3.85699 0
M  V30 13808 H 1317.47 0.670572 4.00323 0
M  V30 13809 H 1318.24 3.13545 3.7002 0
M  V30 13810 H 1314.12 1.99675 4.15513 0
M  V30 13811 H 1317.66 5.4426 4.3638 0
M  V30 13812 H 1313.56 4.29486 4.81884 0
M  V30 13813 H 1314.32 6.3395 5.17735 0
M  V30 13814 N 1316.99 -1.36373 0.789944 0
M  V30 13815 C 1318.24 -1.98476 0.359165 0
M  V30 13816 C 1318.55 -1.634 -1.07517 0
M  V30 13817 O 1319.76 -2.18742 -1.60824 0
M  V30 13818 C 1318.21 -3.55011 0.591228 0
M  V30 13819 C 1317.82 -3.99011 2.03701 0
M  V30 13820 C 1319.56 -4.23903 0.224979 0
M  V30 13821 C 1317.47 -5.48325 2.2157 0
M  V30 13822 H 1316.4 -0.742612 0.130552 0
M  V30 13823 H 1319.05 -1.55664 0.971652 0
M  V30 13824 H 1317.43 -3.95895 -0.0909788 0
M  V30 13825 H 1318.61 -3.69324 2.75566 0
M  V30 13826 H 1316.92 -3.42957 2.36155 0
M  V30 13827 H 1319.52 -5.33638 0.336764 0
M  V30 13828 H 1319.86 -4.08004 -0.826964 0
M  V30 13829 H 1320.4 -3.88383 0.860443 0
M  V30 13830 H 1317.13 -5.69173 3.25149 0
M  V30 13831 H 1316.65 -5.79637 1.54211 0
M  V30 13832 H 1318.33 -6.14556 2.0231 0
M  V30 13833 N 1318.47 -0.542005 -1.47987 0
M  V30 13834 C 1319.88 -0.104646 -1.86406 0
M  V30 13835 C 1320.23 1.32139 -1.4503 0
M  V30 13836 O 1319.35 1.99159 -0.846439 0
M  V30 13837 C 1319.95 -0.183133 -3.38305 0
M  V30 13838 C 1318.51 0.199098 -3.75873 0
M  V30 13839 C 1317.65 -0.537532 -2.7204 0
M  V30 13840 H 1320.6 -0.75259 -1.3972 0
M  V30 13841 H 1320.63 0.602149 -3.75705 0
M  V30 13842 H 1320.14 -1.22113 -3.68389 0
M  V30 13843 H 1318.24 1.23878 -3.51404 0
M  V30 13844 H 1318.35 -0.14888 -4.78869 0
M  V30 13845 H 1316.72 0.0176255 -2.54694 0
M  V30 13846 H 1317.5 -1.57639 -3.04967 0
M  V30 13847 N 1319.94 1.55134 -0.277709 0
M  V30 13848 C 1321.35 1.85405 0.219543 0
M  V30 13849 C 1321.71 1.19973 1.55245 0
M  V30 13850 O 1320.83 0.488986 2.10803 0
M  V30 13851 C 1321.43 3.36369 0.405127 0
M  V30 13852 C 1319.98 3.66755 0.846609 0
M  V30 13853 C 1319.13 2.77238 -0.0586063 0
M  V30 13854 H 1322.08 1.50637 -0.499422 0
M  V30 13855 H 1322.1 3.59615 1.24329 0
M  V30 13856 H 1321.62 3.83963 -0.565138 0
M  V30 13857 H 1319.72 3.24662 1.82825 0
M  V30 13858 H 1319.83 4.74219 0.682135 0
M  V30 13859 H 1318.19 2.50546 0.458153 0
M  V30 13860 H 1318.98 3.27647 -1.0248 0
M  V30 13861 N 1321.42 0.00503138 1.57599 0
M  V30 13862 C 1322.35 -0.983586 2.11773 0
M  V30 13863 C 1323.33 -1.35518 1.02805 0
M  V30 13864 O 1324.52 -1.43804 1.30514 0
M  V30 13865 C 1321.65 -2.27383 2.62515 0
M  V30 13866 C 1320.6 -2.0437 3.76054 0
M  V30 13867 C 1319.93 -3.39451 4.1313 0
M  V30 13868 C 1321.23 -1.40223 5.03125 0
M  V30 13869 H 1322.92 -0.532501 2.94627 0
M  V30 13870 H 1320.47 -0.254696 1.4173 0
M  V30 13871 H 1322.42 -2.96903 2.99043 0
M  V30 13872 H 1321.14 -2.74614 1.7679 0
M  V30 13873 H 1319.8 -1.37275 3.39928 0
M  V30 13874 H 1319.45 -3.84395 3.24422 0
M  V30 13875 H 1319.15 -3.24868 4.89627 0
M  V30 13876 H 1320.68 -4.10279 4.52221 0
M  V30 13877 H 1322.09 -1.99708 5.37392 0
M  V30 13878 H 1320.49 -1.36112 5.8446 0
M  V30 13879 H 1321.56 -0.372073 4.8347 0
M  V30 13880 N 1322.9 -1.55308 -0.267798 0
M  V30 13881 C 1323.83 -1.84963 -1.35356 0
M  V30 13882 C 1324.84 -0.73446 -1.45291 0
M  V30 13883 O 1326.03 -1.01237 -1.47015 0
M  V30 13884 C 1323.13 -2.00221 -2.73432 0
M  V30 13885 C 1322.31 -3.30922 -2.86024 0
M  V30 13886 C 1321.37 -3.3618 -4.04808 0
M  V30 13887 O 1320.39 -4.09525 -3.9532 0
M  V30 13888 N 1321.59 -2.63958 -5.17017 0
M  V30 13889 H 1324.36 -2.7868 -1.1026 0
M  V30 13890 H 1321.92 -1.55289 -0.457914 0
M  V30 13891 H 1323.91 -2.01103 -3.51197 0
M  V30 13892 H 1322.48 -1.13346 -2.91327 0
M  V30 13893 H 1321.7 -3.42534 -1.951 0
M  V30 13894 H 1322.99 -4.17109 -2.91371 0
M  V30 13895 H 1322.39 -2.04062 -5.27613 0
M  V30 13896 H 1320.94 -2.70558 -5.92994 0
M  V30 13897 N 1324.38 0.532545 -1.4833 0
M  V30 13898 C 1325.79 0.860843 -1.34394 0
M  V30 13899 C 1325.99 1.98384 -0.353013 0
M  V30 13900 O 1325.05 2.5148 0.226688 0
M  V30 13901 C 1326.36 1.23079 -2.74358 0
M  V30 13902 C 1327.91 1.34082 -2.82827 0
M  V30 13903 C 1328.39 1.74421 -4.23487 0
M  V30 13904 N 1329.88 1.81528 -4.26148 0
M  V30 13905 C 1330.61 2.1412 -5.31921 0
M  V30 13906 N 1330.11 2.45154 -6.47975 0
M  V30 13907 N 1331.9 2.15104 -5.19314 0
M  V30 13908 H 1324.05 -0.208464 -2.11375 0
M  V30 13909 H 1326.31 -0.03062 -0.947505 0
M  V30 13910 H 1326.02 0.47926 -3.48419 0
M  V30 13911 H 1325.89 2.18151 -3.07718 0
M  V30 13912 H 1328.28 2.08311 -2.09022 0
M  V30 13913 H 1328.36 0.37137 -2.5309 0
M  V30 13914 H 1328.01 1.00752 -4.97807 0
M  V30 13915 H 1327.94 2.72411 -4.50666 0
M  V30 13916 H 1330.43 1.59832 -3.42436 0
M  V30 13917 H 1330.74 2.69121 -7.24426 0
M  V30 13918 H 1329.09 2.42679 -6.51254 0
M  V30 13919 H 1332.28 1.90315 -4.27666 0
M  V30 13920 H 1332.45 2.40173 -6.01848 0
M  V30 13921 N 1325.86 1.36875 0.78122 0
M  V30 13922 C 1327.1 1.31754 1.54171 0
M  V30 13923 C 1327.43 -0.100632 1.93939 0
M  V30 13924 O 1326.71 -1.05587 1.63345 0
M  V30 13925 C 1326.99 2.24789 2.81322 0
M  V30 13926 C 1326.85 3.75342 2.47868 0
M  V30 13927 C 1328.16 2.16442 3.83198 0
M  V30 13928 H 1325.28 0.479931 0.559317 0
M  V30 13929 H 1327.93 1.67497 0.896935 0
M  V30 13930 H 1326.08 1.94438 3.36342 0
M  V30 13931 H 1327.75 4.16247 1.98836 0
M  V30 13932 H 1325.99 3.94375 1.80696 0
M  V30 13933 H 1326.66 4.3586 3.38719 0
M  V30 13934 H 1329.14 2.43175 3.37647 0
M  V30 13935 H 1328.01 2.83695 4.69903 0
M  V30 13936 H 1328.27 1.15431 4.26765 0
M  V30 13937 N 1327.33 -1.00632 1.21289 0
M  V30 13938 C 1328.58 -1.74388 1.02932 0
M  V30 13939 C 1328.91 -1.8952 -0.437327 0
M  V30 13940 O 1328.16 -1.42551 -1.3408 0
M  V30 13941 C 1328.46 -3.1598 1.67007 0
M  V30 13942 C 1328.13 -3.208 3.16857 0
M  V30 13943 C 1326.79 -3.21823 3.57748 0
M  V30 13944 C 1329.14 -3.18147 4.12834 0
M  V30 13945 C 1326.47 -3.17877 4.93124 0
M  V30 13946 C 1328.82 -3.15743 5.48169 0
M  V30 13947 C 1327.49 -3.15074 5.88459 0
M  V30 13948 H 1326.76 -0.638133 0.376653 0
M  V30 13949 H 1329.4 -1.17953 1.50862 0
M  V30 13950 H 1327.71 -3.75639 1.11365 0
M  V30 13951 H 1329.41 -3.71764 1.50307 0
M  V30 13952 H 1326 -3.20746 2.84289 0
M  V30 13953 H 1330.18 -3.16519 3.82269 0
M  V30 13954 H 1325.44 -3.15696 5.2359 0
M  V30 13955 H 1329.61 -3.12644 6.22275 0
M  V30 13956 H 1327.24 -3.11771 6.93327 0
M  V30 13957 N 1328.81 -1.02043 -1.20104 0
M  V30 13958 C 1329.74 -0.552093 -2.22451 0
M  V30 13959 C 1330.76 0.367547 -1.58597 0
M  V30 13960 O 1331.95 0.165285 -1.77733 0
M  V30 13961 C 1329.05 0.215833 -3.38212 0
M  V30 13962 C 1328.22 -0.70666 -4.31654 0
M  V30 13963 C 1327.28 0.0143628 -5.26198 0
M  V30 13964 O 1326.3 -0.609413 -5.65928 0
M  V30 13965 N 1327.51 1.28794 -5.66032 0
M  V30 13966 H 1330.27 -1.43229 -2.6326 0
M  V30 13967 H 1327.83 -0.89842 -1.34685 0
M  V30 13968 H 1329.82 0.707523 -3.98467 0
M  V30 13969 H 1328.39 0.997358 -2.96263 0
M  V30 13970 H 1327.61 -1.37859 -3.69308 0
M  V30 13971 H 1328.9 -1.33392 -4.91003 0
M  V30 13972 H 1328.3 1.8156 -5.35773 0
M  V30 13973 H 1326.86 1.72429 -6.28579 0
M  V30 13974 N 1330.29 1.35952 -0.797165 0
M  V30 13975 C 1331.52 2.0328 -0.385316 0
M  V30 13976 C 1331.93 1.60095 1.00076 0
M  V30 13977 O 1331.29 0.794014 1.64322 0
M  V30 13978 C 1331.34 3.5871 -0.448284 0
M  V30 13979 O 1331.06 4.00323 -1.7797 0
M  V30 13980 C 1332.56 4.43291 -0.0280465 0
M  V30 13981 H 1329.78 0.652192 -0.157756 0
M  V30 13982 H 1332.33 1.73769 -1.07817 0
M  V30 13983 H 1330.48 3.86903 0.196224 0
M  V30 13984 H 1330.9 4.94941 -1.73592 0
M  V30 13985 H 1332.37 5.51862 -0.123234 0
M  V30 13986 H 1332.85 4.27059 1.02552 0
M  V30 13987 H 1333.45 4.20375 -0.645343 0
M  V30 13988 N 1331.77 0.549846 1.47697 0
M  V30 13989 C 1332.68 -0.205286 2.337 0
M  V30 13990 C 1333.69 -0.919271 1.47734 0
M  V30 13991 O 1334.87 -0.889808 1.80678 0
M  V30 13992 C 1331.94 -1.22658 3.24278 0
M  V30 13993 C 1331 -0.520815 4.26129 0
M  V30 13994 C 1330.23 -1.49345 5.12378 0
M  V30 13995 O 1330.45 -2.72772 5.00951 0
M  V30 13996 O 1329.39 -1.02197 5.93161 0
M  V30 13997 H 1333.21 0.499982 2.99556 0
M  V30 13998 H 1330.8 0.310538 1.46137 0
M  V30 13999 H 1332.68 -1.8163 3.80248 0
M  V30 14000 H 1331.35 -1.9139 2.61059 0
M  V30 14001 H 1330.26 0.109906 3.73939 0
M  V30 14002 H 1331.59 0.124922 4.92041 0
M  V30 14003 N 1333.25 -1.54984 0.285932 0
M  V30 14004 C 1334.19 -2.24385 -0.612703 0
M  V30 14005 C 1335.19 -1.24459 -1.14918 0
M  V30 14006 O 1336.39 -1.42357 -1.10156 0
M  V30 14007 H 1332.77 -0.720263 -0.21616 0
M  V30 14008 H 1334.74 -2.984 -0.00465668 0
M  V30 14009 C 1333.49 -2.98661 -1.78037 0
M  V30 14010 H 1332.81 -3.75347 -1.37676 0
M  V30 14011 H 1334.25 -3.50525 -2.38554 0
M  V30 14012 C 1332.71 -2.04754 -2.67539 0
M  V30 14013 O 1333.24 -1.60577 -3.68209 0
M  V30 14014 N 1331.45 -1.71026 -2.34944 0
M  V30 14015 H 1330.99 -2.07148 -1.53126 0
M  V30 14016 H 1330.95 -1.08467 -2.95097 0
M  V30 14017 N 1334.72 -0.0133892 -1.57594 0
M  V30 14018 C 1335.65 0.972341 -2.12292 0
M  V30 14019 C 1336.64 1.34971 -1.03522 0
M  V30 14020 O 1337.82 1.4311 -1.31275 0
M  V30 14021 C 1334.95 2.25988 -2.63717 0
M  V30 14022 C 1333.9 2.02373 -3.77133 0
M  V30 14023 C 1333.23 3.37256 -4.14925 0
M  V30 14024 C 1334.53 1.37553 -5.03861 0
M  V30 14025 H 1336.22 0.516869 -2.94905 0
M  V30 14026 H 1333.77 0.247176 -1.41863 0
M  V30 14027 H 1335.72 2.95313 -3.00613 0
M  V30 14028 H 1334.45 2.73672 -1.78244 0
M  V30 14029 H 1333.11 1.3547 -3.40651 0
M  V30 14030 H 1332.75 3.82669 -3.26456 0
M  V30 14031 H 1332.45 3.22267 -4.91343 0
M  V30 14032 H 1333.98 4.07875 -4.5439 0
M  V30 14033 H 1335.39 1.96855 -5.38443 0
M  V30 14034 H 1333.79 1.33011 -5.85174 0
M  V30 14035 H 1334.86 0.346429 -4.83661 0
M  V30 14036 N 1336.2 1.55448 0.259558 0
M  V30 14037 C 1337.45 1.76337 0.987396 0
M  V30 14038 C 1337.77 0.57505 1.86328 0
M  V30 14039 O 1337.04 -0.409621 1.9157 0
M  V30 14040 H 1335.62 0.650312 0.367565 0
M  V30 14041 H 1338.28 1.9287 0.280551 0
M  V30 14042 H 1337.38 2.66975 1.61651 0
M  V30 14043 N 1337.68 -0.524672 1.4861 0
M  V30 14044 C 1338.64 -1.61092 1.63039 0
M  V30 14045 C 1339.64 -1.52718 0.503387 0
M  V30 14046 O 1340.83 -1.56293 0.769304 0
M  V30 14047 C 1337.97 -3.00722 1.60558 0
M  V30 14048 H 1339.16 -1.49636 2.59902 0
M  V30 14049 H 1336.71 -0.747135 1.37287 0
M  V30 14050 H 1337.45 -3.1768 0.651926 0
M  V30 14051 H 1337.23 -3.0821 2.42382 0
M  V30 14052 H 1338.72 -3.79688 1.73859 0
M  V30 14053 N 1339.16 -1.37287 -0.77395 0
M  V30 14054 C 1340.09 -1.35569 -1.90114 0
M  V30 14055 C 1341.07 -0.224658 -1.6861 0
M  V30 14056 O 1342.25 -0.424676 -1.895 0
M  V30 14057 C 1339.38 -1.15971 -3.27365 0
M  V30 14058 C 1338.34 -2.26063 -3.63427 0
M  V30 14059 C 1337.66 -1.9159 -4.99197 0
M  V30 14060 C 1338.96 -3.68236 -3.70405 0
M  V30 14061 H 1340.66 -2.29891 -1.91808 0
M  V30 14062 H 1338.2 -1.10661 -0.92142 0
M  V30 14063 H 1340.16 -1.134 -4.05855 0
M  V30 14064 H 1338.88 -0.181043 -3.26098 0
M  V30 14065 H 1337.54 -2.27786 -2.87244 0
M  V30 14066 H 1337.19 -0.922586 -4.94467 0
M  V30 14067 H 1336.89 -2.65309 -5.24294 0
M  V30 14068 H 1338.41 -1.90602 -5.80089 0
M  V30 14069 H 1339.83 -3.68655 -4.39052 0
M  V30 14070 H 1338.22 -4.4099 -4.06999 0
M  V30 14071 H 1339.29 -4.02021 -2.71122 0
M  V30 14072 N 1340.64 0.999871 -1.21821 0
M  V30 14073 C 1341.91 1.71135 -0.947213 0
M  V30 14074 C 1342.29 2.04087 0.539601 0
M  V30 14075 O 1341.64 1.71866 1.5058 0
M  V30 14076 C 1341.85 2.96704 -1.8376 0
M  V30 14077 C 1343.2 3.69627 -2.08952 0
M  V30 14078 O 1344.22 3.06697 -1.81151 0
M  V30 14079 O 1343.08 4.82832 -2.55999 0
M  V30 14080 H 1340.18 0.746631 -0.355628 0
M  V30 14081 H 1342.72 1.05684 -1.32774 0
M  V30 14082 H 1341.49 2.68802 -2.84361 0
M  V30 14083 H 1341.12 3.69894 -1.45821 0
M  V30 14084 N 1342.11 1.02678 1.19562 0
M  V30 14085 C 1343.04 0.626359 2.24942 0
M  V30 14086 C 1344.03 -0.363612 1.66168 0
M  V30 14087 O 1345.21 -0.246793 1.92625 0
M  V30 14088 C 1342.34 -0.0257912 3.4729 0
M  V30 14089 C 1341.29 0.886237 4.18724 0
M  V30 14090 C 1340.62 0.0993081 5.34608 0
M  V30 14091 C 1341.92 2.19901 4.73752 0
M  V30 14092 H 1343.61 1.50729 2.58691 0
M  V30 14093 H 1341.16 0.726195 1.24348 0
M  V30 14094 H 1343.11 -0.317545 4.20202 0
M  V30 14095 H 1341.84 -0.941511 3.12735 0
M  V30 14096 H 1340.5 1.16215 3.47692 0
M  V30 14097 H 1340.14 -0.81838 4.96298 0
M  V30 14098 H 1339.84 0.706776 5.83334 0
M  V30 14099 H 1341.37 -0.185754 6.10317 0
M  V30 14100 H 1342.78 1.96892 5.3843 0
M  V30 14101 H 1341.18 2.75821 5.32956 0
M  V30 14102 H 1342.25 2.85509 3.91934 0
M  V30 14103 N 1343.59 -1.35528 0.804364 0
M  V30 14104 C 1344.52 -2.32388 0.227604 0
M  V30 14105 C 1345.5 -1.57368 -0.645709 0
M  V30 14106 O 1346.69 -1.85448 -0.576441 0
M  V30 14107 C 1343.82 -3.41603 -0.62645 0
M  V30 14108 C 1342.77 -4.27743 0.148187 0
M  V30 14109 C 1342.1 -5.28259 -0.827425 0
M  V30 14110 C 1343.4 -5.04661 1.34591 0
M  V30 14111 H 1345.09 -2.80874 1.03684 0
M  V30 14112 H 1342.64 -1.3504 0.500031 0
M  V30 14113 H 1344.59 -4.08365 -1.03999 0
M  V30 14114 H 1343.32 -2.91721 -1.46855 0
M  V30 14115 H 1341.97 -3.62558 0.542874 0
M  V30 14116 H 1341.62 -4.74645 -1.66496 0
M  V30 14117 H 1341.32 -5.86763 -0.313453 0
M  V30 14118 H 1342.85 -5.97893 -1.23921 0
M  V30 14119 H 1344.26 -5.6438 1.00736 0
M  V30 14120 H 1342.66 -5.7265 1.79422 0
M  V30 14121 H 1343.73 -4.35432 2.1337 0
M  V30 14122 N 1345.07 -0.557671 -1.47404 0
M  V30 14123 C 1346.32 -0.0337884 -2.02472 0
M  V30 14124 C 1346.65 1.31624 -1.43197 0
M  V30 14125 O 1345.9 1.86989 -0.577366 0
M  V30 14126 C 1346.2 0.108324 -3.57236 0
M  V30 14127 C 1345.87 -1.17088 -4.35432 0
M  V30 14128 C 1344.53 -1.5214 -4.56516 0
M  V30 14129 C 1346.88 -2.01854 -4.80525 0
M  V30 14130 C 1344.21 -2.71803 -5.19942 0
M  V30 14131 C 1346.56 -3.2072 -5.45272 0
M  V30 14132 C 1345.22 -3.56085 -5.64588 0
M  V30 14133 H 1344.49 -0.012364 -0.740897 0
M  V30 14134 H 1347.14 -0.729276 -1.7707 0
M  V30 14135 H 1345.45 0.886781 -3.81633 0
M  V30 14136 H 1347.14 0.529031 -3.97495 0
M  V30 14137 H 1343.73 -0.887952 -4.19301 0
M  V30 14138 H 1347.92 -1.76081 -4.64014 0
M  V30 14139 H 1343.17 -2.99371 -5.33092 0
M  V30 14140 H 1347.35 -3.86689 -5.79176 0
M  V30 14141 H 1344.97 -4.48903 -6.13506 0
M  V30 14142 N 1346.55 1.54831 -0.294147 0
M  V30 14143 C 1347.48 2.26226 0.57827 0
M  V30 14144 C 1348.46 1.25928 1.14351 0
M  V30 14145 O 1349.65 1.54687 1.17412 0
M  V30 14146 C 1346.78 2.99783 1.75349 0
M  V30 14147 C 1345.73 4.07171 1.31892 0
M  V30 14148 C 1345.06 4.68406 2.57876 0
M  V30 14149 C 1346.36 5.20313 0.455167 0
M  V30 14150 H 1348.05 2.99395 -0.0171936 0
M  V30 14151 H 1345.6 1.43997 -0.00970944 0
M  V30 14152 H 1347.55 3.48448 2.36986 0
M  V30 14153 H 1346.27 2.24181 2.37509 0
M  V30 14154 H 1344.93 3.59346 0.725653 0
M  V30 14155 H 1344.58 3.89451 3.18335 0
M  V30 14156 H 1344.28 5.40927 2.29502 0
M  V30 14157 H 1345.8 5.1983 3.20327 0
M  V30 14158 H 1347.22 5.64913 0.977026 0
M  V30 14159 H 1345.61 5.99512 0.265501 0
M  V30 14160 H 1346.68 4.82088 -0.521434 0
M  V30 14161 N 1348.03 0.0217466 1.57585 0
M  V30 14162 C 1349.26 -0.668881 1.9579 0
M  V30 14163 C 1349.67 -1.66085 0.897849 0
M  V30 14164 O 1349.03 -1.82098 -0.121099 0
M  V30 14165 C 1349.08 -1.38174 3.34051 0
M  V30 14166 O 1348.8 -0.429527 4.35989 0
M  V30 14167 C 1350.3 -2.16487 3.86844 0
M  V30 14168 H 1347.52 -0.184919 0.645016 0
M  V30 14169 H 1350.06 0.0793241 2.04346 0
M  V30 14170 H 1348.22 -2.0814 3.26736 0
M  V30 14171 H 1348.63 -0.934887 5.16101 0
M  V30 14172 H 1350.11 -2.61829 4.85952 0
M  V30 14173 H 1350.58 -3.00082 3.20698 0
M  V30 14174 H 1351.19 -1.51493 3.97404 0
M  V30 14175 N 1349.51 -1.55583 -0.251311 0
M  V30 14176 C 1350.75 -1.76859 -0.978031 0
M  V30 14177 C 1351.07 -0.584924 -1.86021 0
M  V30 14178 O 1350.34 0.399456 -1.91784 0
M  V30 14179 H 1348.92 -0.652252 -0.364111 0
M  V30 14180 H 1351.59 -1.93016 -0.270319 0
M  V30 14181 H 1350.68 -2.67828 -1.60233 0
M  V30 14182 N 1350.98 0.516783 -1.48886 0
M  V30 14183 C 1351.91 1.62897 -1.67292 0
M  V30 14184 C 1352.89 1.61903 -0.521671 0
M  V30 14185 O 1354.08 1.78892 -0.755728 0
M  V30 14186 C 1351.21 3.01444 -1.72478 0
M  V30 14187 C 1350.16 3.173 -2.87236 0
M  V30 14188 C 1349.49 4.5704 -2.77522 0
M  V30 14189 C 1350.79 2.98818 -4.28375 0
M  V30 14190 H 1352.48 1.47748 -2.60405 0
M  V30 14191 H 1350.03 0.709361 -1.25316 0
M  V30 14192 H 1351.98 3.79135 -1.83942 0
M  V30 14193 H 1350.71 3.17645 -0.759538 0
M  V30 14194 H 1349.37 2.4203 -2.75349 0
M  V30 14195 H 1349.01 4.70096 -1.78938 0
M  V30 14196 H 1348.71 4.68593 -3.54534 0
M  V30 14197 H 1350.24 5.36813 -2.90972 0
M  V30 14198 H 1351.65 3.66291 -4.41026 0
M  V30 14199 H 1350.05 3.21854 -5.06488 0
M  V30 14200 H 1351.12 1.95102 -4.43918 0
M  V30 14201 N 1352.46 1.37696 0.766659 0
M  V30 14202 C 1353.42 1.33688 1.86172 0
M  V30 14203 C 1354.42 0.239922 1.59 0
M  V30 14204 O 1355.61 0.496066 1.66988 0
M  V30 14205 C 1352.75 1.07807 3.23405 0
M  V30 14206 H 1353.94 2.311 1.91136 0
M  V30 14207 H 1351.49 1.22799 0.966961 0
M  V30 14208 H 1352.23 0.109477 3.24115 0
M  V30 14209 H 1352.01 1.87213 3.4452 0
M  V30 14210 H 1353.5 1.07665 4.03482 0
M  V30 14211 N 1353.94 -0.993397 1.22349 0
M  V30 14212 C 1355.16 -1.77373 1.07488 0
M  V30 14213 C 1355.59 -1.84418 -0.37034 0
M  V30 14214 O 1354.95 -1.29629 -1.26752 0
M  V30 14215 C 1355 -3.18538 1.69014 0
M  V30 14216 O 1354.1 -4.01463 0.943474 0
M  V30 14217 H 1353.44 -0.546209 0.37756 0
M  V30 14218 H 1355.97 -1.24792 1.62136 0
M  V30 14219 H 1355.98 -3.6917 1.73717 0
M  V30 14220 H 1354.66 -3.12725 2.74182 0
M  V30 14221 H 1353.23 -3.59998 0.972415 0
M  V30 14222 N 1355.42 -1.03311 -1.19015 0
M  V30 14223 C 1356.64 -0.751686 -1.93299 0
M  V30 14224 C 1357.07 0.68392 -1.75226 0
M  V30 14225 O 1356.43 1.47274 -1.05736 0
M  V30 14226 C 1356.47 -1.11335 -3.42982 0
M  V30 14227 O 1355.58 -0.234434 -4.11733 0
M  V30 14228 H 1354.92 -0.277331 -0.60331 0
M  V30 14229 H 1357.45 -1.38092 -1.5097 0
M  V30 14230 H 1357.46 -1.07204 -3.93664 0
M  V30 14231 H 1356.13 -2.15922 -3.55458 0
M  V30 14232 H 1354.71 -0.3347 -3.71395 0
M  V30 14233 N 1356.9 1.35099 -0.81154 0
M  V30 14234 C 1358.14 1.9892 -0.394815 0
M  V30 14235 C 1358.47 1.6422 1.0366 0
M  V30 14236 O 1357.75 0.908031 1.72003 0
M  V30 14237 C 1358.03 3.55331 -0.58413 0
M  V30 14238 C 1357.89 3.99812 -2.06084 0
M  V30 14239 C 1359.2 4.40098 -0.0129096 0
M  V30 14240 H 1356.32 0.72261 -0.144926 0
M  V30 14241 H 1358.97 1.60173 -1.02199 0
M  V30 14242 H 1357.12 3.88468 -0.0502446 0
M  V30 14243 H 1358.79 3.77061 -2.65749 0
M  V30 14244 H 1357.03 3.50539 -2.55548 0
M  V30 14245 H 1357.7 5.08655 -2.14416 0
M  V30 14246 H 1360.18 4.13449 -0.468917 0
M  V30 14247 H 1359.05 5.4862 -0.175252 0
M  V30 14248 H 1359.31 4.28675 1.0812 0
M  V30 14249 N 1358.37 0.56548 1.47106 0
M  V30 14250 C 1359.62 0.0445255 2.02451 0
M  V30 14251 C 1359.95 -1.30863 1.43893 0
M  V30 14252 O 1359.2 -1.8668 0.587274 0
M  V30 14253 C 1359.5 -0.0893776 3.57288 0
M  V30 14254 C 1359.17 1.19395 4.34805 0
M  V30 14255 C 1357.83 1.54558 4.55703 0
M  V30 14256 C 1360.18 2.04399 4.79448 0
M  V30 14257 C 1357.51 2.74557 5.18494 0
M  V30 14258 C 1359.86 3.23608 5.43563 0
M  V30 14259 C 1358.53 3.59074 5.62692 0
M  V30 14260 H 1357.8 0.016293 0.740821 0
M  V30 14261 H 1360.44 0.738657 1.76681 0
M  V30 14262 H 1358.75 -0.86653 3.82097 0
M  V30 14263 H 1360.45 -0.507943 3.9777 0
M  V30 14264 H 1357.04 0.910176 4.18824 0
M  V30 14265 H 1361.22 1.78539 4.63074 0
M  V30 14266 H 1356.48 3.02194 5.31497 0
M  V30 14267 H 1360.65 3.89755 5.77117 0
M  V30 14268 H 1358.28 4.5215 6.11117 0
M  V30 14269 N 1359.85 -1.54672 0.302354 0
M  V30 14270 C 1361.1 -1.99345 -0.307307 0
M  V30 14271 C 1361.41 -1.19437 -1.549 0
M  V30 14272 O 1362.62 -1.54384 -2.23334 0
M  V30 14273 C 1361.08 -3.54896 -0.59808 0
M  V30 14274 C 1360.68 -4.43614 0.625357 0
M  V30 14275 C 1362.43 -4.08091 -1.16886 0
M  V30 14276 C 1360.34 -5.90599 0.307661 0
M  V30 14277 H 1359.27 -0.744614 -0.118603 0
M  V30 14278 H 1361.92 -1.78832 0.411271 0
M  V30 14279 H 1360.3 -3.71314 -1.37629 0
M  V30 14280 H 1361.47 -4.38969 1.40152 0
M  V30 14281 H 1359.79 -4.01198 1.11487 0
M  V30 14282 H 1362.38 -5.15477 -1.42082 0
M  V30 14283 H 1362.73 -3.58775 -2.11155 0
M  V30 14284 H 1363.26 -3.9522 -0.452329 0
M  V30 14285 H 1360 -6.44067 1.21895 0
M  V30 14286 H 1359.52 -5.98248 -0.431208 0
M  V30 14287 H 1361.2 -6.46937 -0.0902796 0
M  V30 14288 N 1361.33 -0.0301034 -1.57571 0
M  V30 14289 C 1362.26 0.94977 -2.13311 0
M  V30 14290 C 1363.24 1.33865 -1.04948 0
M  V30 14291 O 1364.43 1.4171 -1.32786 0
M  V30 14292 C 1361.56 2.23178 -2.66099 0
M  V30 14293 C 1360.51 1.98362 -3.79258 0
M  V30 14294 C 1359.84 3.32836 -4.18479 0
M  V30 14295 C 1361.14 1.32201 -5.05292 0
M  V30 14296 H 1362.83 0.485562 -2.95436 0
M  V30 14297 H 1360.38 0.232116 -1.42117 0
M  V30 14298 H 1362.33 2.92108 -3.03728 0
M  V30 14299 H 1361.05 2.71766 -1.81137 0
M  V30 14300 H 1359.71 1.31849 -3.42069 0
M  V30 14301 H 1359.36 3.79185 -3.30496 0
M  V30 14302 H 1359.06 3.17037 -4.94733 0
M  V30 14303 H 1360.58 4.03032 -4.58691 0
M  V30 14304 H 1362 1.91133 -5.40501 0
M  V30 14305 H 1360.4 1.26797 -5.86551 0
M  V30 14306 H 1361.47 0.29511 -4.84001 0
M  V30 14307 N 1362.81 1.55714 0.243056 0
M  V30 14308 C 1364.03 1.82126 0.992219 0
M  V30 14309 C 1364.46 0.607665 1.78014 0
M  V30 14310 O 1363.82 -0.443351 1.75796 0
M  V30 14311 C 1363.86 3.06314 1.90274 0
M  V30 14312 O 1362.97 2.83499 2.99503 0
M  V30 14313 H 1362.31 0.601082 0.282128 0
M  V30 14314 H 1364.84 2.02904 0.262881 0
M  V30 14315 H 1364.85 3.35849 2.31666 0
M  V30 14316 H 1363.52 3.94282 1.32344 0
M  V30 14317 H 1362.1 2.65141 2.62211 0
M  V30 14318 N 1364.29 -0.50888 1.49158 0
M  V30 14319 C 1365.2 -1.63782 1.67966 0
M  V30 14320 C 1366.21 -1.64667 0.562207 0
M  V30 14321 O 1367.39 -1.83232 0.835935 0
M  V30 14322 C 1364.45 -3.00179 1.73474 0
M  V30 14323 C 1363.51 -3.09983 2.97 0
M  V30 14324 C 1362.75 -4.39875 3.02235 0
M  V30 14325 O 1362.97 -5.28214 2.15282 0
M  V30 14326 O 1361.9 -4.54486 3.94621 0
M  V30 14327 H 1365.73 -1.50846 2.63589 0
M  V30 14328 H 1363.32 -0.684306 1.32807 0
M  V30 14329 H 1365.2 -3.8126 1.79495 0
M  V30 14330 H 1363.87 -3.13394 0.810287 0
M  V30 14331 H 1362.78 -2.28119 2.965 0
M  V30 14332 H 1364.11 -3.01693 3.88899 0
M  V30 14333 N 1365.76 -1.381 -0.759346 0
M  V30 14334 C 1366.69 -1.37578 -1.88665 0
M  V30 14335 C 1367.68 -0.242529 -1.68362 0
M  V30 14336 O 1368.86 -0.444751 -1.89039 0
M  V30 14337 C 1365.99 -1.19437 -3.26117 0
M  V30 14338 C 1364.94 -2.29905 -3.61009 0
M  V30 14339 C 1364.27 -1.96874 -4.97136 0
M  V30 14340 C 1365.57 -3.72143 -3.66479 0
M  V30 14341 H 1367.26 -2.31912 -1.89359 0
M  V30 14342 H 1364.81 -1.11632 -0.909631 0
M  V30 14343 H 1366.76 -1.17698 -4.0463 0
M  V30 14344 H 1365.49 -0.21562 -3.25887 0
M  V30 14345 H 1364.15 -2.3082 -2.84812 0
M  V30 14346 H 1363.79 -0.974979 -4.9346 0
M  V30 14347 H 1363.49 -2.70855 -5.21451 0
M  V30 14348 H 1365.02 -1.96744 -5.78035 0
M  V30 14349 H 1366.43 -3.73291 -4.35117 0
M  V30 14350 H 1364.83 -4.45282 -4.02299 0
M  V30 14351 H 1365.9 -4.04874 -2.66843 0
M  V30 14352 N 1367.24 0.986894 -1.22875 0
M  V30 14353 C 1368.17 2.09628 -1.0285 0
M  V30 14354 C 1369.15 1.70019 0.0525118 0
M  V30 14355 O 1370.34 1.93883 -0.110874 0
M  V30 14356 C 1367.47 3.41866 -0.61194 0
M  V30 14357 C 1366.42 3.95351 -1.63956 0
M  V30 14358 C 1365.75 5.23707 -1.07865 0
M  V30 14359 C 1367.05 4.25354 -3.03102 0
M  V30 14360 H 1368.74 2.26639 -1.95641 0
M  V30 14361 H 1366.29 1.0891 -0.942048 0
M  V30 14362 H 1368.24 4.18893 -0.458936 0
M  V30 14363 H 1366.97 3.24701 0.35164 0
M  V30 14364 H 1365.62 3.20462 -1.78045 0
M  V30 14365 H 1365.27 5.02888 -0.106246 0
M  V30 14366 H 1364.97 5.60459 -1.76522 0
M  V30 14367 H 1366.5 6.03362 -0.937359 0
M  V30 14368 H 1367.91 4.93156 -2.92353 0
M  V30 14369 H 1366.31 4.73292 -3.68938 0
M  V30 14370 H 1367.38 3.32887 -3.52583 0
M  V30 14371 N 1368.72 1.0394 1.18466 0
M  V30 14372 C 1369.67 0.629352 2.22054 0
M  V30 14373 C 1370.64 -0.362187 1.62103 0
M  V30 14374 O 1371.82 -0.256457 1.89069 0
M  V30 14375 C 1368.96 -0.00282888 3.451 0
M  V30 14376 C 1368.08 1.03602 4.19393 0
M  V30 14377 C 1367.21 0.372492 5.29892 0
M  V30 14378 C 1366.25 1.39652 5.95956 0
M  V30 14379 N 1365.39 0.758053 6.97996 0
M  V30 14380 H 1370.23 1.51722 2.56485 0
M  V30 14381 H 1367.76 0.759043 1.26004 0
M  V30 14382 H 1369.72 -0.386688 4.15404 0
M  V30 14383 H 1368.35 -0.854224 3.11292 0
M  V30 14384 H 1367.4 1.53784 3.47929 0
M  V30 14385 H 1368.72 1.81387 4.64651 0
M  V30 14386 H 1367.87 -0.065642 6.06664 0
M  V30 14387 H 1366.61 -0.437462 4.85734 0
M  V30 14388 H 1365.61 1.84481 5.17926 0
M  V30 14389 H 1366.84 2.20816 6.42197 0
M  V30 14390 H 1364.78 -0.0316173 6.55992 0
M  V30 14391 H 1364.7 1.47363 7.41499 0
M  V30 14392 H 1365.97 0.344273 7.78739 0
M  V30 14393 N 1370.2 -1.34667 0.818693 0
M  V30 14394 C 1371.13 -2.32134 0.252239 0
M  V30 14395 C 1372.11 -1.58044 -0.628982 0
M  V30 14396 O 1373.29 -1.86049 -0.55674 0
M  V30 14397 C 1370.42 -3.42249 -0.590183 0
M  V30 14398 C 1369.38 -4.27562 0.193547 0
M  V30 14399 C 1368.7 -5.29107 -0.771349 0
M  V30 14400 C 1370 -5.03205 1.39936 0
M  V30 14401 H 1371.7 -2.79758 1.06657 0
M  V30 14402 H 1369.24 -1.34502 0.514325 0
M  V30 14403 H 1371.2 -4.09445 -0.996616 0
M  V30 14404 H 1369.92 -2.93262 -1.43752 0
M  V30 14405 H 1368.58 -3.61962 0.581297 0
M  V30 14406 H 1368.23 -4.76384 -1.61453 0
M  V30 14407 H 1367.93 -5.87063 -0.251201 0
M  V30 14408 H 1369.45 -5.99174 -1.17573 0
M  V30 14409 H 1370.87 -5.6328 1.06717 0
M  V30 14410 H 1369.26 -5.70715 1.85485 0
M  V30 14411 H 1370.33 -4.33145 2.17976 0
M  V30 14412 N 1371.68 -0.573274 -1.46804 0
M  V30 14413 C 1372.92 -0.057823 -2.04318 0
M  V30 14414 C 1373.28 1.27424 -1.43622 0
M  V30 14415 O 1374.48 1.87835 -1.92279 0
M  V30 14416 C 1372.75 0.016823 -3.57396 0
M  V30 14417 S 1374.31 0.476068 -4.3621 0
M  V30 14418 H 1371.13 -0.0329025 -0.710238 0
M  V30 14419 H 1373.73 -0.76364 -1.79969 0
M  V30 14420 H 1372.44 -0.956757 -3.99092 0
M  V30 14421 H 1371.97 0.745702 -3.86268 0
M  V30 14422 H 1373.98 1.73268 -4.64965 0
M  V30 14423 N 1373.15 1.5451 -0.310553 0
M  V30 14424 C 1374.06 2.27557 0.570518 0
M  V30 14425 C 1375.08 1.31426 1.14032 0
M  V30 14426 O 1376.26 1.64423 1.16306 0
M  V30 14427 C 1373.32 3.00933 1.72163 0
M  V30 14428 C 1372.38 4.12623 1.18495 0
M  V30 14429 C 1371.62 4.8249 2.28121 0
M  V30 14430 O 1371.84 4.5178 3.48211 0
M  V30 14431 O 1370.77 5.69686 1.94273 0
M  V30 14432 H 1374.6 3.03692 -0.0223195 0
M  V30 14433 H 1372.18 1.49203 -0.0766821 0
M  V30 14434 H 1374.07 3.46925 2.39208 0
M  V30 14435 H 1372.74 2.27685 2.3009 0
M  V30 14436 H 1371.65 3.71008 0.479956 0
M  V30 14437 H 1372.98 4.87876 0.650994 0
M  V30 14438 N 1374.63 0.0384594 1.57553 0
M  V30 14439 C 1375.58 -0.940256 2.10779 0
M  V30 14440 C 1376.55 -1.31705 1.01208 0
M  V30 14441 O 1377.74 -1.40874 1.28683 0
M  V30 14442 C 1374.88 -2.21419 2.64703 0
M  V30 14443 C 1373.99 -1.89302 3.88315 0
M  V30 14444 C 1373.12 -3.1106 4.30599 0
M  V30 14445 C 1372.16 -2.74805 5.46945 0
M  V30 14446 N 1371.3 -3.89217 5.84341 0
M  V30 14447 H 1376.14 -0.479458 2.94118 0
M  V30 14448 H 1373.68 -0.22505 1.45368 0
M  V30 14449 H 1375.63 -2.95946 2.94061 0
M  V30 14450 H 1374.26 -2.65099 1.84181 0
M  V30 14451 H 1373.32 -1.04977 3.65628 0
M  V30 14452 H 1374.63 -1.58607 4.72912 0
M  V30 14453 H 1373.78 -3.93898 4.61442 0
M  V30 14454 H 1372.52 -3.44924 3.44788 0
M  V30 14455 H 1371.53 -1.9038 5.15786 0
M  V30 14456 H 1372.75 -2.42147 6.34462 0
M  V30 14457 H 1370.7 -4.22905 5.01485 0
M  V30 14458 H 1370.61 -3.62177 6.63599 0
M  V30 14459 H 1371.88 -4.72732 6.19794 0
M  V30 14460 N 1376.11 -1.55841 -0.234795 0
M  V30 14461 C 1377.34 -1.82043 -0.976937 0
M  V30 14462 C 1377.75 -0.613552 -1.78975 0
M  V30 14463 O 1377.09 0.427271 -1.78662 0
M  V30 14464 C 1377.15 -3.0178 -1.95369 0
M  V30 14465 C 1376.82 -4.3732 -1.32666 0
M  V30 14466 C 1377.82 -5.14847 -0.723107 0
M  V30 14467 C 1375.5 -4.8403 -1.3424 0
M  V30 14468 C 1377.49 -6.37238 -0.143646 0
M  V30 14469 C 1375.18 -6.06367 -0.759087 0
M  V30 14470 C 1376.18 -6.82811 -0.16075 0
M  V30 14471 O 1375.87 -8.02836 0.41352 0
M  V30 14472 H 1375.6 -0.609424 -0.292537 0
M  V30 14473 H 1378.15 -2.03758 -0.259216 0
M  V30 14474 H 1376.38 -2.7585 -2.71005 0
M  V30 14475 H 1378.07 -3.14968 -2.56027 0
M  V30 14476 H 1378.84 -4.79873 -0.703371 0
M  V30 14477 H 1374.72 -4.24512 -1.7975 0
M  V30 14478 H 1378.26 -6.96847 0.324002 0
M  V30 14479 H 1374.16 -6.40816 -0.776191 0
M  V30 14480 H 1374.93 -8.17926 0.306554 0
M  V30 14481 N 1377.59 0.500963 -1.49426 0
M  V30 14482 C 1378.83 1.26526 -1.60532 0
M  V30 14483 C 1379.19 1.89864 -0.28562 0
M  V30 14484 O 1380.39 2.67422 -0.271868 0
M  V30 14485 C 1378.67 2.30375 -2.73244 0
M  V30 14486 S 1380.22 3.16143 -3.04301 0
M  V30 14487 H 1377.04 0.429994 -0.566238 0
M  V30 14488 H 1379.64 0.567427 -1.87084 0
M  V30 14489 H 1378.35 1.82373 -3.67652 0
M  V30 14490 H 1377.88 3.04827 -2.48685 0
M  V30 14491 H 1379.89 4.31027 -2.45826 0
M  V30 14492 N 1379.07 1.38501 0.752011 0
M  V30 14493 C 1380.31 1.36212 1.52399 0
M  V30 14494 C 1380.67 -0.0472831 1.91942 0
M  V30 14495 O 1381.87 -0.195055 2.68091 0
M  V30 14496 C 1380.14 2.2925 2.74188 0
M  V30 14497 S 1381.7 2.44995 3.64037 0
M  V30 14498 H 1378.52 0.483276 0.521503 0
M  V30 14499 H 1381.12 1.74441 0.882647 0
M  V30 14500 H 1379.83 3.30541 2.4325 0
M  V30 14501 H 1379.36 1.92176 3.43266 0
M  V30 14502 H 1381.37 1.67519 4.67067 0
M  V30 14503 N 1380.55 -0.980364 1.23396 0
M  V30 14504 C 1381.77 -1.76223 1.09363 0
M  V30 14505 C 1382.2 -1.84801 -0.350759 0
M  V30 14506 O 1381.55 -1.30966 -1.2537 0
M  V30 14507 C 1381.6 -3.16728 1.72383 0
M  V30 14508 O 1380.71 -4.00439 0.986002 0
M  V30 14509 H 1380.05 -0.542174 0.383332 0
M  V30 14510 H 1382.58 -1.23066 1.6345 0
M  V30 14511 H 1382.59 -3.67307 1.77623 0
M  V30 14512 H 1381.26 -3.098 2.77483 0
M  V30 14513 H 1379.84 -3.58946 1.01054 0
M  V30 14514 N 1382.02 -1.04567 -1.17913 0
M  V30 14515 C 1383.43 -0.779118 -1.69666 0
M  V30 14516 C 1383.79 0.699448 -1.83309 0
M  V30 14517 O 1382.91 1.54407 -1.51616 0
M  V30 14518 C 1383.51 -1.40769 -3.08171 0
M  V30 14519 C 1382.06 -1.18933 -3.57116 0
M  V30 14520 C 1381.21 -1.49519 -2.33536 0
M  V30 14521 H 1384.16 -1.21144 -1.02518 0
M  V30 14522 H 1384.18 -0.813584 -3.717 0
M  V30 14523 H 1383.7 -2.4838 -2.9821 0
M  V30 14524 H 1381.8 -0.132184 -3.72365 0
M  V30 14525 H 1381.91 -1.88987 -4.40251 0
M  V30 14526 H 1380.27 -0.915056 -2.37695 0
M  V30 14527 H 1381.06 -2.5825 -2.26189 0
M  V30 14528 N 1383.5 1.34231 -0.825823 0
M  V30 14529 C 1384.45 2.29467 -0.247724 0
M  V30 14530 C 1385.42 1.53724 0.629127 0
M  V30 14531 O 1386.6 1.82082 0.570156 0
M  V30 14532 C 1383.74 3.40157 0.582012 0
M  V30 14533 C 1382.86 4.30832 -0.317406 0
M  V30 14534 C 1381.99 5.28627 0.522176 0
M  V30 14535 C 1381.03 6.10941 -0.376448 0
M  V30 14536 N 1380.17 7.00817 0.424232 0
M  V30 14537 H 1385.01 2.78311 -1.06521 0
M  V30 14538 H 1382.54 1.36956 -0.536788 0
M  V30 14539 H 1384.5 4.03021 1.07843 0
M  V30 14540 H 1383.13 2.92539 1.36459 0
M  V30 14541 H 1382.18 3.68805 -0.932054 0
M  V30 14542 H 1383.5 4.88503 -1.00826 0
M  V30 14543 H 1382.65 5.96957 1.08295 0
M  V30 14544 H 1381.39 4.71501 1.24652 0
M  V30 14545 H 1380.39 5.41542 -0.94934 0
M  V30 14546 H 1381.62 6.70149 -1.09895 0
M  V30 14547 H 1379.57 6.46156 1.1322 0
M  V30 14548 H 1379.48 7.55713 -0.208175 0
M  V30 14549 H 1380.75 7.7347 0.967664 0
M  V30 14550 N 1384.98 0.581051 1.46498 0
M  V30 14551 C 1386.4 0.242599 1.57745 0
M  V30 14552 C 1386.6 -1.25508 1.57639 0
M  V30 14553 O 1385.65 -2.0367 1.49247 0
M  V30 14554 C 1386.96 0.890342 2.87217 0
M  V30 14555 C 1388.51 0.863778 3.00845 0
M  V30 14556 C 1388.99 1.49103 4.3305 0
M  V30 14557 N 1390.48 1.4553 4.39745 0
M  V30 14558 C 1391.21 1.91003 5.40653 0
M  V30 14559 N 1390.71 2.44442 6.48244 0
M  V30 14560 N 1392.5 1.8193 5.31844 0
M  V30 14561 H 1384.65 1.55382 1.44811 0
M  V30 14562 H 1386.92 0.649375 0.690664 0
M  V30 14563 H 1386.62 1.94383 2.93101 0
M  V30 14564 H 1386.5 0.397569 3.75099 0
M  V30 14565 H 1388.88 -0.181089 2.94544 0
M  V30 14566 H 1388.96 1.39455 2.14443 0
M  V30 14567 H 1388.61 2.53509 4.40109 0
M  V30 14568 H 1388.54 0.935496 5.18224 0
M  V30 14569 H 1391.03 1.06466 3.62593 0
M  V30 14570 H 1391.34 2.77002 7.2145 0
M  V30 14571 H 1389.69 2.48467 6.49068 0
M  V30 14572 H 1392.88 1.3994 4.46693 0
M  V30 14573 H 1393.05 2.17685 6.10342 0
M  V30 14574 N 1386.46 -1.54343 0.318742 0
M  V30 14575 C 1387.7 -2.00777 -0.285699 0
M  V30 14576 C 1388.04 -1.20664 -1.52164 0
M  V30 14577 O 1387.31 -0.287674 -1.92361 0
M  V30 14578 C 1387.59 -3.54641 -0.624649 0
M  V30 14579 C 1387.45 -4.45483 0.621663 0
M  V30 14580 C 1388.77 -4.15729 -1.4442 0
M  V30 14581 H 1385.89 -0.729856 -0.102367 0
M  V30 14582 H 1388.53 -1.84968 0.434364 0
M  V30 14583 H 1386.68 -3.68243 -1.23811 0
M  V30 14584 H 1388.35 -4.43759 1.25998 0
M  V30 14585 H 1386.59 -4.15356 1.25148 0
M  V30 14586 H 1387.26 -5.50951 0.340106 0
M  V30 14587 H 1389.74 -4.05672 -0.925699 0
M  V30 14588 H 1388.62 -5.23509 -1.65013 0
M  V30 14589 H 1388.88 -3.68743 -2.43887 0
M  V30 14590 N 1387.94 -0.0468143 -1.5753 0
M  V30 14591 C 1388.87 0.958157 -2.08211 0
M  V30 14592 C 1389.88 1.27757 -1.00906 0
M  V30 14593 O 1391.07 1.23913 -1.28483 0
M  V30 14594 C 1388.17 2.28088 -2.50657 0
M  V30 14595 C 1387.34 2.14403 -3.81248 0
M  V30 14596 C 1386.4 3.29761 -4.10054 0
M  V30 14597 O 1385.43 3.05859 -4.8004 0
M  V30 14598 N 1386.63 4.54104 -3.61621 0
M  V30 14599 H 1389.39 0.525612 -2.95055 0
M  V30 14600 H 1386.96 0.139532 -1.61298 0
M  V30 14601 H 1388.95 3.04121 -2.67007 0
M  V30 14602 H 1387.52 2.62924 -1.69085 0
M  V30 14603 H 1386.74 1.22988 -3.74523 0
M  V30 14604 H 1388.03 2.02482 -4.66775 0
M  V30 14605 H 1387.42 4.76414 -3.05034 0
M  V30 14606 H 1385.98 5.27246 -3.83217 0
M  V30 14607 N 1389.41 1.55964 0.226527 0
M  V30 14608 C 1390.35 1.87013 1.30772 0
M  V30 14609 C 1391.33 0.727044 1.4544 0
M  V30 14610 O 1392.51 0.974898 1.61332 0
M  V30 14611 C 1389.64 2.07278 2.67869 0
M  V30 14612 C 1388.68 3.29956 2.70243 0
M  V30 14613 S 1389.52 4.86026 2.24808 0
M  V30 14614 C 1390.67 5.09321 3.6379 0
M  V30 14615 H 1390.9 2.78427 1.0424 0
M  V30 14616 H 1388.44 1.48334 0.428525 0
M  V30 14617 H 1390.4 2.19636 3.468 0
M  V30 14618 H 1389.06 1.1667 2.91628 0
M  V30 14619 H 1388.25 3.41164 3.70975 0
M  V30 14620 H 1387.85 3.16429 1.99371 0
M  V30 14621 H 1390.14 4.97914 4.59443 0
M  V30 14622 H 1391.09 6.11227 3.57501 0
M  V30 14623 H 1391.49 4.37076 3.57247 0
M  V30 14624 N 1390.89 -0.493031 1.4969 0
M  V30 14625 C 1391.84 -1.59075 1.63337 0
M  V30 14626 C 1392.83 -1.53298 0.488721 0
M  V30 14627 O 1394.02 -1.60693 0.742071 0
M  V30 14628 C 1391.15 -2.97646 1.71061 0
M  V30 14629 C 1390.23 -3.08389 2.9113 0
M  V30 14630 N 1390.62 -2.89001 4.15105 0
M  V30 14631 C 1388.92 -3.395 2.89233 0
M  V30 14632 C 1389.62 -3.04136 4.95859 0
M  V30 14633 N 1388.6 -3.33367 4.2938 0
M  V30 14634 H 1392.4 -1.42751 2.56903 0
M  V30 14635 H 1389.92 -0.699325 1.46571 0
M  V30 14636 H 1391.91 -3.76546 1.78938 0
M  V30 14637 H 1390.57 -3.15034 0.786376 0
M  V30 14638 H 1391.58 -2.65017 4.44957 0
M  V30 14639 H 1388.26 -3.63014 2.06221 0
M  V30 14640 H 1389.65 -2.93571 6.04372 0
M  V30 14641 N 1392.37 -1.38898 -0.744656 0
M  V30 14642 C 1393.78 -1.31789 -1.32244 0
M  V30 14643 C 1394.13 0.0222208 -1.96187 0
M  V30 14644 O 1393.26 0.924328 -1.95666 0
M  V30 14645 C 1393.85 -2.38674 -2.40458 0
M  V30 14646 C 1392.41 -2.35116 -2.93935 0
M  V30 14647 C 1391.56 -2.21069 -1.67403 0
M  V30 14648 H 1394.51 -1.49126 -0.54287 0
M  V30 14649 H 1394.53 -2.04905 -3.20615 0
M  V30 14650 H 1394.04 -3.36197 -1.9389 0
M  V30 14651 H 1392.14 -1.41201 -3.44809 0
M  V30 14652 H 1392.26 -3.29602 -3.47706 0
M  V30 14653 H 1390.62 -1.68074 -1.91372 0
M  V30 14654 H 1391.4 -3.20547 -1.229 0
M  V30 14655 N 1393.85 0.973806 -1.23914 0
M  V30 14656 C 1394.76 2.10138 -1.04304 0
M  V30 14657 C 1395.77 1.73994 0.0143888 0
M  V30 14658 O 1396.95 2.00572 -0.182481 0
M  V30 14659 C 1394.02 3.40673 -0.643639 0
M  V30 14660 C 1393.08 3.90802 -1.77686 0
M  V30 14661 C 1392.31 5.15108 -1.39642 0
M  V30 14662 O 1392.53 5.69695 -0.283546 0
M  V30 14663 O 1391.47 5.59468 -2.21988 0
M  V30 14664 H 1395.29 2.29574 -1.9882 0
M  V30 14665 H 1392.88 1.08524 -1.02679 0
M  V30 14666 H 1394.76 4.19178 -0.432145 0
M  V30 14667 H 1393.43 3.22551 0.272458 0
M  V30 14668 H 1392.34 3.13385 -2.04305 0
M  V30 14669 H 1393.67 4.1339 -2.67151 0
M  V30 14670 N 1395.33 1.05191 1.17357 0
M  V30 14671 C 1396.6 0.675826 1.83554 0
M  V30 14672 C 1396.98 -0.843812 1.93502 0
M  V30 14673 O 1396.33 -1.74975 1.46956 0
M  V30 14674 C 1396.54 1.36481 3.21207 0
M  V30 14675 C 1397.89 1.50285 3.97114 0
M  V30 14676 O 1398.91 1.32382 3.30686 0
M  V30 14677 O 1397.77 1.79562 5.16159 0
M  V30 14678 H 1394.87 0.237898 0.792044 0
M  V30 14679 H 1397.41 1.1515 1.24654 0
M  V30 14680 H 1396.18 2.40156 3.08935 0
M  V30 14681 H 1395.81 0.878491 3.87774 0
M  V30 14682 N 1396.8 -1.33791 0.83293 0
M  V30 14683 C 1398.05 -1.98266 0.426412 0
M  V30 14684 C 1398.38 -1.65848 -1.01035 0
M  V30 14685 O 1397.66 -0.93528 -1.70537 0
M  V30 14686 C 1397.94 -3.54356 0.640586 0
M  V30 14687 C 1397.79 -3.96482 2.12419 0
M  V30 14688 C 1399.11 -4.40022 0.0829237 0
M  V30 14689 H 1396.23 -0.720213 0.156404 0
M  V30 14690 H 1398.87 -1.58527 1.04735 0
M  V30 14691 H 1397.02 -3.88338 0.11204 0
M  V30 14692 H 1398.7 -3.72786 2.71714 0
M  V30 14693 H 1396.94 -3.46429 2.61092 0
M  V30 14694 H 1397.61 -5.05179 2.22482 0
M  V30 14695 H 1400.09 -4.12651 0.534634 0
M  V30 14696 H 1398.96 -5.48272 0.262511 0
M  V30 14697 H 1399.22 -4.30341 -1.01287 0
M  V30 14698 O 1398.32 -0.729452 -1.44088 0
M  V30 14699 H 1399.01 -0.279191 -1.91677 0
M  V30 END ATOM
M  V30 BEGIN BOND
M  V30 END BOND
M  V30 END CTAB
M  END
$$$$
