drugbank_target|P02689 Myelin P2 protein (DB01915; DB03796; DB04147; DB04224)
 OpenBabel12092120483D

  0  0  0     0  0            999 V3000
M  V30 BEGIN CTAB
M  V30 COUNTS 2147 2158 0 0 0
M  V30 BEGIN ATOM
M  V30 1 H -0.908 1.98254 -0.117106 0
M  V30 2 N 0 1.576 0 0
M  V30 3 C 0.933 2.03868 1.02534 0
M  V30 4 C 1.911 0.928543 1.3348 0
M  V30 5 O 3.095 1.19667 1.45644 0
M  V30 6 C 0.222 2.43627 2.35294 0
M  V30 7 C -0.732 3.65373 2.2001 0
M  V30 8 S 0.101 5.13292 1.52614 0
M  V30 9 C 1.257 5.56322 2.86805 0
M  V30 10 H 1.49 2.90518 0.631377 0
M  V30 11 H -0.977 1.52953 0.210867 0
M  V30 12 H 0.981 2.67203 3.11629 0
M  V30 13 H -0.358 1.57376 2.7183 0
M  V30 14 H -1.165 3.90944 3.18086 0
M  V30 15 H -1.563 3.418 1.51819 0
M  V30 16 H 0.729 5.58782 3.83104 0
M  V30 17 H 1.672 6.56266 2.65933 0
M  V30 18 H 2.08 4.83886 2.90714 0
M  V30 19 N 1.4781 -0.272755 1.55222 0
M  V30 20 C 2.7031 -1.02683 1.80197 0
M  V30 21 C 3.1281 -1.79142 0.573551 0
M  V30 22 O 2.4861 -1.74917 -0.476849 0
M  V30 23 C 2.5341 -1.9609 3.02624 0
M  V30 24 O 1.6381 -3.04863 2.77727 0
M  V30 25 H 0.9791 -0.293557 0.595584 0
M  V30 26 H 3.5091 -0.30159 2.02365 0
M  V30 27 H 3.5191 -2.38039 3.31363 0
M  V30 28 H 2.1941 -1.39851 3.91682 0
M  V30 29 H 0.7711 -2.67228 2.60084 0
M  V30 30 N 2.9562 -1.48159 -0.537278 0
M  V30 31 C 3.9042 -1.62573 -1.66352 0
M  V30 32 C 4.8982 -0.492366 -1.62087 0
M  V30 33 O 6.1042 -0.670847 -1.67032 0
M  V30 34 H 2.4792 -0.511992 -0.550789 0
M  V30 35 H 4.4502 -2.57176 -1.51337 0
M  V30 36 C 3.1992 -1.67583 -3.04649 0
M  V30 37 H 2.5222 -2.54151 -3.08622 0
M  V30 38 H 3.9622 -1.81713 -3.83088 0
M  V30 39 C 2.4212 -0.413039 -3.34358 0
M  V30 40 O 2.9512 0.477259 -3.98855 0
M  V30 41 N 1.1572 -0.286961 -2.8918 0
M  V30 42 H 0.7042 -1.01241 -2.36871 0
M  V30 43 H 0.6622 0.556963 -3.09427 0
M  V30 44 N 4.4343 0.785586 -1.36625 0
M  V30 45 C 5.3813 1.89838 -1.31264 0
M  V30 46 C 6.3513 1.65115 -0.180633 0
M  V30 47 O 7.5363 1.87222 -0.36777 0
M  V30 48 C 4.6763 3.26706 -1.11163 0
M  V30 49 C 3.7893 3.63476 -2.33472 0
M  V30 50 C 2.9243 4.89481 -2.06353 0
M  V30 51 C 1.9633 5.18941 -3.24602 0
M  V30 52 N 1.1003 6.36131 -2.97123 0
M  V30 53 H 5.9403 1.93756 -2.26413 0
M  V30 54 H 3.4773 0.947454 -1.12524 0
M  V30 55 H 5.4353 4.05639 -0.975337 0
M  V30 56 H 4.0653 3.222 -0.196674 0
M  V30 57 H 3.1173 2.79636 -2.57891 0
M  V30 58 H 4.4293 3.81193 -3.21704 0
M  V30 59 H 3.5833 5.76288 -1.89675 0
M  V30 60 H 2.3223 4.73841 -1.15437 0
M  V30 61 H 1.3273 4.30615 -3.41834 0
M  V30 62 H 2.5523 5.36498 -4.16349 0
M  V30 63 H 0.4983 6.21875 -2.08823 0
M  V30 64 H 0.4153 6.54198 -3.78894 0
M  V30 65 H 1.6833 7.2591 -2.84033 0
M  V30 66 N 5.9124 1.20967 1.01018 0
M  V30 67 C 7.1594 1.02374 1.74716 0
M  V30 68 C 7.4874 -0.443375 1.89379 0
M  V30 69 O 6.7424 -1.34535 1.42123 0
M  V30 70 C 7.0414 1.65997 3.16512 0
M  V30 71 C 6.7074 3.15831 3.2181 0
M  V30 72 C 5.3694 3.56719 3.22963 0
M  V30 73 C 7.7214 4.11816 3.19464 0
M  V30 74 C 5.0494 4.92107 3.19449 0
M  V30 75 C 7.4014 5.47158 3.17491 0
M  V30 76 C 6.0654 5.87451 3.16951 0
M  V30 77 H 5.3354 0.374614 0.639332 0
M  V30 78 H 7.9824 1.50485 1.18434 0
M  V30 79 H 6.2874 1.10166 3.75993 0
M  V30 80 H 7.9844 1.49119 3.72242 0
M  V30 81 H 4.5744 2.83263 3.21652 0
M  V30 82 H 8.7584 3.81257 3.17737 0
M  V30 83 H 4.0144 5.22579 3.17366 0
M  V30 84 H 8.1884 6.21274 3.14629 0
M  V30 85 H 5.8154 6.92329 3.13983 0
M  V30 86 N 7.3905 -1.2043 1.01659 0
M  V30 87 C 8.3205 -2.25466 0.607226 0
M  V30 88 C 9.3015 -1.65853 -0.377716 0
M  V30 89 O 10.4865 -1.92409 -0.263149 0
M  V30 90 C 7.6165 -3.47256 -0.0552949 0
M  V30 91 C 6.5705 -4.19462 0.850632 0
M  V30 92 C 5.8965 -5.34673 0.0538859 0
M  V30 93 C 7.1965 -4.75603 2.15868 0
M  V30 94 H 8.8905 -2.59962 1.48526 0
M  V30 95 H 6.4365 -1.2496 0.715605 0
M  V30 96 H 8.3895 -4.19917 -0.353233 0
M  V30 97 H 7.1135 -3.11924 -0.968045 0
M  V30 98 H 5.7725 -3.48667 1.13257 0
M  V30 99 H 5.4205 -4.95585 -0.860514 0
M  V30 100 H 5.1205 -5.83913 0.657192 0
M  V30 101 H 6.6445 -6.10138 -0.237598 0
M  V30 102 H 8.0585 -5.40083 1.92311 0
M  V30 103 H 6.4555 -5.3528 2.71284 0
M  V30 104 H 7.5255 -3.94346 2.82169 0
M  V30 105 N 8.8686 -0.792821 -1.36206 0
M  V30 106 C 10.1166 -0.366062 -1.98757 0
M  V30 107 C 10.4376 1.0668 -1.63231 0
M  V30 108 O 9.7076 1.73587 -0.907978 0
M  V30 109 H 8.2876 -0.132364 -0.735179 0
M  V30 110 H 10.9496 -1.01562 -1.66347 0
M  V30 111 H 10.0456 -0.460638 -3.08682 0
M  V30 112 N 10.3467 1.47872 -0.545128 0
M  V30 113 C 11.5747 2.06889 -0.021084 0
M  V30 114 C 11.9897 1.39955 1.2672 0
M  V30 115 O 11.3467 0.492036 1.75742 0
M  V30 116 C 11.3977 3.60996 0.190817 0
M  V30 117 O 11.1187 4.25419 -1.04644 0
M  V30 118 C 12.6197 4.36849 0.753521 0
M  V30 119 H 9.8397 0.669785 -0.0403635 0
M  V30 120 H 12.3837 1.90049 -0.755095 0
M  V30 121 H 10.5387 3.77391 0.87492 0
M  V30 122 H 10.9527 5.17785 -0.836611 0
M  V30 123 H 12.4267 5.45399 0.851139 0
M  V30 124 H 12.9037 4.02306 1.762 0
M  V30 125 H 13.5097 4.25169 0.105503 0
M  V30 126 N 11.8248 0.280983 1.55075 0
M  V30 127 C 13.0708 -0.327573 2.00745 0
M  V30 128 C 13.4258 -1.53045 1.16598 0
M  V30 129 O 12.7188 -1.90221 0.229451 0
M  V30 130 C 12.9128 -0.754656 3.49342 0
M  V30 131 C 12.7418 0.40529 4.4787 0
M  V30 132 C 11.5118 0.890947 4.97383 0
M  V30 133 C 13.7098 1.24371 4.99035 0
M  V30 134 N 11.6918 2.01975 5.79724 0
M  V30 135 C 13.0628 2.22031 5.7888 0
M  V30 136 C 15.1178 1.27638 4.81262 0
M  V30 137 C 13.8208 3.22709 6.42846 0
M  V30 138 C 15.8468 2.27164 5.46031 0
M  V30 139 C 15.2088 3.23556 6.25692 0
M  V30 140 H 11.3078 -0.0848774 0.77738 0
M  V30 141 H 13.8918 0.406342 1.90413 0
M  V30 142 H 12.0628 -1.45778 3.60005 0
M  V30 143 H 13.7948 -1.34105 3.81835 0
M  V30 144 H 10.5498 0.469262 4.71269 0
M  V30 145 H 10.9738 2.58794 6.25584 0
M  V30 146 H 15.6158 0.544936 4.19274 0
M  V30 147 H 13.3338 3.96784 7.0398 0
M  V30 148 H 16.9198 2.30441 5.34217 0
M  V30 149 H 15.7998 3.99309 6.74924 0
M  V30 150 N 13.3029 -1.57598 0.00835791 0
M  V30 151 C 14.2499 -2.08945 -0.980346 0
M  V30 152 C 15.2199 -0.986738 -1.33614 0
M  V30 153 O 16.4049 -1.25968 -1.43306 0
M  V30 154 C 13.5449 -2.60425 -2.26435 0
M  V30 155 C 12.6579 -3.84628 -1.96685 0
M  V30 156 C 11.7929 -4.24579 -3.19228 0
M  V30 157 C 10.8319 -5.41596 -2.85202 0
M  V30 158 N 9.9689 -5.768 -4.00307 0
M  V30 159 H 14.8089 -2.93148 -0.535551 0
M  V30 160 H 12.3459 -1.44912 -0.252776 0
M  V30 161 H 14.3039 -2.88354 -3.01509 0
M  V30 162 H 12.9339 -1.79083 -2.68568 0
M  V30 163 H 11.9859 -3.63556 -1.11942 0
M  V30 164 H 13.2979 -4.69796 -1.67611 0
M  V30 165 H 12.4519 -4.53834 -4.02641 0
M  V30 166 H 11.1909 -3.38137 -3.51447 0
M  V30 167 H 10.1959 -5.12056 -2.00198 0
M  V30 168 H 11.4209 -6.29721 -2.54222 0
M  V30 169 H 9.3669 -4.93316 -4.32407 0
M  V30 170 H 9.2839 -6.5656 -3.74786 0
M  V30 171 H 10.5519 -6.10652 -4.84484 0
M  V30 172 N 14.781 0.264519 -1.55364 0
M  V30 173 C 15.711 1.33121 -1.91836 0
M  V30 174 C 16.692 1.51101 -0.781192 0
M  V30 175 O 17.877 1.64003 -1.04003 0
M  V30 176 C 15.007 2.68921 -2.19769 0
M  V30 177 C 13.961 2.65661 -3.35571 0
M  V30 178 C 13.287 4.05093 -3.49004 0
M  V30 179 C 14.587 2.24187 -4.71739 0
M  V30 180 H 16.281 1.02844 -2.81182 0
M  V30 181 H 13.827 0.493286 -1.35287 0
M  V30 182 H 15.78 3.43663 -2.43872 0
M  V30 183 H 14.504 3.00799 -1.27231 0
M  V30 184 H 13.163 1.93377 -3.1145 0
M  V30 185 H 12.811 4.34206 -2.53917 0
M  V30 186 H 12.511 4.03804 -4.26868 0
M  V30 187 H 14.035 4.81561 -3.75408 0
M  V30 188 H 15.449 2.88654 -4.9533 0
M  V30 189 H 13.846 2.34044 -5.52579 0
M  V30 190 H 14.916 1.19327 -4.69988 0
M  V30 191 N 16.2591 1.48442 0.529413 0
M  V30 192 C 17.5051 1.5672 1.28711 0
M  V30 193 C 17.8381 0.2406 1.92704 0
M  V30 194 O 17.1131 -0.753454 1.79313 0
M  V30 195 C 17.3961 2.70587 2.37603 0
M  V30 196 C 17.2491 4.12953 1.78297 0
M  V30 197 C 18.5681 2.80212 3.39366 0
M  V30 198 H 15.6871 0.570474 0.466613 0
M  V30 199 H 18.3291 1.80617 0.589706 0
M  V30 200 H 16.4791 2.50342 2.97088 0
M  V30 201 H 18.1511 4.44639 1.22858 0
M  V30 202 H 16.3941 4.19927 1.0883 0
M  V30 203 H 17.0651 4.88448 2.57144 0
M  V30 204 H 19.5411 2.98553 2.89836 0
M  V30 205 H 18.4171 3.61611 4.12951 0
M  V30 206 H 18.6781 1.88393 3.99951 0
M  V30 207 N 17.7372 -0.778329 1.37039 0
M  V30 208 C 18.9622 -1.57248 1.35233 0
M  V30 209 C 19.3872 -1.87999 -0.0615568 0
M  V30 210 O 18.7452 -1.48734 -1.03672 0
M  V30 211 C 18.7932 -2.86353 2.19167 0
M  V30 212 O 17.8972 -3.80442 1.59178 0
M  V30 213 H 17.2382 -0.476569 0.462362 0
M  V30 214 H 19.7682 -0.963853 1.80474 0
M  V30 215 H 19.7782 -3.35519 2.32145 0
M  V30 216 H 18.4532 -2.63299 3.21942 0
M  V30 217 H 17.0302 -3.39067 1.55203 0
M  V30 218 N 19.2153 -1.21501 -1.00376 0
M  V30 219 C 20.4403 -1.05977 -1.78279 0
M  V30 220 C 20.8653 0.385994 -1.84097 0
M  V30 221 O 20.2233 1.27849 -1.28547 0
M  V30 222 C 20.2713 -1.66302 -3.19963 0
M  V30 223 O 19.3753 -0.909333 -4.0225 0
M  V30 224 H 18.7163 -0.372906 -0.549397 0
M  V30 225 H 21.2463 -1.6107 -1.26165 0
M  V30 226 H 21.2563 -1.70574 -3.70632 0
M  V30 227 H 19.9313 -2.71515 -3.15043 0
M  V30 228 H 18.5083 -0.941795 -3.60811 0
M  V30 229 N 20.6934 1.19889 -1.02296 0
M  V30 230 C 21.6034 2.26571 -0.608508 0
M  V30 231 C 22.6194 1.70299 0.356964 0
M  V30 232 O 23.7954 2.00235 0.216326 0
M  V30 233 C 20.8604 3.46677 0.0402814 0
M  V30 234 C 19.9214 4.18153 -0.97194 0
M  V30 235 C 19.1544 5.32525 -0.354016 0
M  V30 236 O 19.3774 5.64112 0.844604 0
M  V30 237 O 18.3114 5.92242 -1.07391 0
M  V30 238 H 22.1374 2.64251 -1.49684 0
M  V30 239 H 19.7224 1.26629 -0.792809 0
M  V30 240 H 21.6044 4.19475 0.402324 0
M  V30 241 H 20.2794 3.10858 0.902707 0
M  V30 242 H 19.1864 3.47499 -1.38546 0
M  V30 243 H 20.5194 4.57927 -1.80454 0
M  V30 244 N 22.1715 0.800033 1.35784 0
M  V30 245 C 23.1195 0.193851 2.31791 0
M  V30 246 C 24.1135 -0.652744 1.56319 0
M  V30 247 O 25.3195 -0.546641 1.71499 0
M  V30 248 H 21.6945 0.04392 0.750716 0
M  V30 249 H 23.6655 1.01883 2.80468 0
M  V30 250 C 22.4145 -0.648338 3.41602 0
M  V30 251 H 21.7375 -0.00624665 3.998 0
M  V30 252 H 23.1775 -1.03898 4.11073 0
M  V30 253 C 21.6365 -1.8111 2.84079 0
M  V30 254 O 22.1665 -2.90825 2.77099 0
M  V30 255 N 20.3725 -1.62056 2.41218 0
M  V30 256 H 19.9195 -0.728123 2.47095 0
M  V30 257 H 19.8775 -2.40013 2.03079 0
M  V30 258 N 23.6496 -1.47581 0.552962 0
M  V30 259 C 24.8966 -2.02482 0.0273243 0
M  V30 260 C 25.2246 -1.42776 -1.32081 0
M  V30 261 O 24.4796 -0.571393 -1.87173 0
M  V30 262 C 24.7786 -3.57199 -0.119728 0
M  V30 263 C 24.4446 -4.35804 1.15697 0
M  V30 264 C 23.1066 -4.57 1.50681 0
M  V30 265 C 25.4586 -4.81167 2.00319 0
M  V30 266 C 22.7866 -5.20807 2.70142 0
M  V30 267 C 25.1386 -5.46293 3.18978 0
M  V30 268 C 23.8026 -5.65722 3.54281 0
M  V30 269 H 23.0726 -0.740933 0.00999866 0
M  V30 270 H 25.7196 -1.77302 0.72362 0
M  V30 271 H 24.0246 -3.81348 -0.89896 0
M  V30 272 H 25.7216 -3.97324 -0.541718 0
M  V30 273 H 22.3116 -4.19582 0.874561 0
M  V30 274 H 26.4956 -4.64574 1.74599 0
M  V30 275 H 21.7516 -5.34045 2.97668 0
M  V30 276 H 25.9256 -5.80407 3.84838 0
M  V30 277 H 23.5526 -6.14936 4.46942 0
M  V30 278 N 25.1277 -0.289203 -1.54924 0
M  V30 279 C 26.4047 0.376032 -1.91951 0
M  V30 280 C 26.7847 1.72622 -1.21511 0
M  V30 281 O 26.1327 2.25853 -0.346767 0
M  V30 282 C 26.3427 0.502378 -3.45365 0
M  V30 283 C 27.6907 0.778741 -4.17398 0
M  V30 284 O 28.7147 0.586647 -3.51336 0
M  V30 285 O 27.5737 1.14698 -5.34328 0
M  V30 286 H 24.6677 0.208167 -0.800372 0
M  V30 287 H 27.2137 -0.336394 -1.66332 0
M  V30 288 H 25.9857 -0.447255 -3.88736 0
M  V30 289 H 25.6087 1.26373 -3.76982 0
M  V30 290 N 26.6058 1.57591 -0.0167156 0
M  V30 291 C 27.8828 1.82547 0.702564 0
M  V30 292 C 28.2628 0.898018 1.91047 0
M  V30 293 O 27.6108 -0.0493456 2.28447 0
M  V30 294 C 27.8208 3.31459 1.09251 0
M  V30 295 C 29.1688 3.97622 1.48937 0
M  V30 296 O 30.1928 3.35881 1.18584 0
M  V30 297 O 29.0518 5.06415 2.05442 0
M  V30 298 H 26.1458 0.752268 0.343544 0
M  V30 299 H 28.6918 1.69644 -0.0434495 0
M  V30 300 H 27.4638 3.9061 0.23227 0
M  V30 301 H 27.0868 3.49422 1.89709 0
M  V30 302 N 28.0839 -0.256276 1.55502 0
M  V30 303 C 29.3139 -1.00196 1.80677 0
M  V30 304 C 29.7219 -1.79805 0.588797 0
M  V30 305 O 29.0649 -1.78055 -0.451883 0
M  V30 306 C 29.1269 -1.99515 2.99055 0
M  V30 307 C 28.7909 -1.38688 4.35448 0
M  V30 308 C 29.7879 -0.794079 5.138 0
M  V30 309 C 27.4729 -1.40906 4.82132 0
M  V30 310 C 29.4669 -0.231562 6.36979 0
M  V30 311 C 27.1539 -0.842684 6.05262 0
M  V30 312 C 28.1519 -0.254953 6.82524 0
M  V30 313 O 27.8399 0.3027 8.0333 0
M  V30 314 H 27.5719 -0.300919 0.60533 0
M  V30 315 H 30.1259 -0.287307 2.03381 0
M  V30 316 H 28.3559 -2.74785 2.72084 0
M  V30 317 H 30.0449 -2.60349 3.11405 0
M  V30 318 H 30.8109 -0.769519 4.78856 0
M  V30 319 H 26.6899 -1.85591 4.21992 0
M  V30 320 H 30.2339 0.227816 6.97228 0
M  V30 321 H 26.1309 -0.86454 6.39684 0
M  V30 322 H 26.8989 0.193662 8.18271 0
M  V30 323 N 29.562 -1.4872 -0.521534 0
M  V30 324 C 30.495 -1.58451 -1.64221 0
M  V30 325 C 31.473 -0.434513 -1.56687 0
M  V30 326 O 32.657 -0.647275 -1.77038 0
M  V30 327 C 29.784 -1.52037 -3.02659 0
M  V30 328 C 28.83 -2.71981 -3.28525 0
M  V30 329 S 29.663 -4.33869 -3.13876 0
M  V30 330 C 30.819 -4.30067 -4.54745 0
M  V30 331 H 31.052 -2.53256 -1.55719 0
M  V30 332 H 28.585 -1.37358 -0.705143 0
M  V30 333 H 30.543 -1.49023 -3.82495 0
M  V30 334 H 29.204 -0.585541 -3.08594 0
M  V30 335 H 28.397 -2.63656 -4.29536 0
M  V30 336 H 27.999 -2.72302 -2.56374 0
M  V30 337 H 30.291 -4.00521 -5.46433 0
M  V30 338 H 31.234 -5.31287 -4.68123 0
M  V30 339 H 31.642 -3.60419 -4.34463 0
M  V30 340 N 31.0401 0.771051 -1.3745 0
M  V30 341 C 31.9871 1.88435 -1.3327 0
M  V30 342 C 32.9571 1.64914 -0.198136 0
M  V30 343 O 34.1421 1.86821 -0.387606 0
M  V30 344 C 31.2821 3.25509 -1.14622 0
M  V30 345 C 30.3951 3.60979 -2.37314 0
M  V30 346 C 29.5301 4.87265 -2.11533 0
M  V30 347 C 28.5691 5.15469 -3.30088 0
M  V30 348 N 27.7061 6.32944 -3.03853 0
M  V30 349 H 32.5461 1.91344 -2.28455 0
M  V30 350 H 30.0831 0.935466 -1.13523 0
M  V30 351 H 32.0411 4.04582 -1.01831 0
M  V30 352 H 30.6711 3.21974 -0.230837 0
M  V30 353 H 29.7231 2.76885 -2.60842 0
M  V30 354 H 31.0351 3.77759 -3.25729 0
M  V30 355 H 30.1891 5.74244 -1.95777 0
M  V30 356 H 28.9281 4.7259 -1.20457 0
M  V30 357 H 27.9331 4.26966 -3.46382 0
M  V30 358 H 29.1581 5.32052 -4.22016 0
M  V30 359 H 27.1041 6.19625 -2.15407 0
M  V30 360 H 27.0211 6.50143 -3.85812 0
M  V30 361 H 28.2891 7.22857 -2.91716 0
M  V30 362 N 32.5182 1.22032 0.997298 0
M  V30 363 C 33.4812 0.987909 2.06816 0
M  V30 364 C 34.4812 -0.0440084 1.6074 0
M  V30 365 O 35.6712 0.194053 1.73116 0
M  V30 366 C 32.8032 0.49132 3.37341 0
M  V30 367 H 33.9962 1.93803 2.28868 0
M  V30 368 H 31.5492 1.03838 1.16822 0
M  V30 369 H 32.2842 -0.463364 3.20973 0
M  V30 370 H 32.0692 1.23575 3.72118 0
M  V30 371 H 33.5592 0.348824 4.16141 0
M  V30 372 N 33.9963 -1.19345 1.0293 0
M  V30 373 C 34.9263 -2.2481 0.631105 0
M  V30 374 C 35.9073 -1.66245 -0.360104 0
M  V30 375 O 37.0923 -1.92677 -0.242726 0
M  V30 376 C 34.2223 -3.47295 -0.0184607 0
M  V30 377 C 33.1763 -4.18536 0.895073 0
M  V30 378 C 32.5023 -5.34586 0.110592 0
M  V30 379 C 33.8023 -4.73287 2.209 0
M  V30 380 H 35.4963 -2.58372 1.51275 0
M  V30 381 H 33.0423 -1.24194 0.728818 0
M  V30 382 H 34.9953 -4.20268 -0.308675 0
M  V30 383 H 33.7193 -3.12933 -0.934907 0
M  V30 384 H 32.3783 -3.47446 1.16949 0
M  V30 385 H 32.0263 -4.96469 -0.807902 0
M  V30 386 H 31.7263 -5.83183 0.719087 0
M  V30 387 H 33.2503 -6.10355 -0.172871 0
M  V30 388 H 34.6643 -5.38013 1.98028 0
M  V30 389 H 33.0613 -5.32373 2.76946 0
M  V30 390 H 34.1313 -3.91331 2.86336 0
M  V30 391 N 35.4744 -0.807222 -1.35358 0
M  V30 392 C 36.7224 -0.387122 -1.98358 0
M  V30 393 C 37.0434 1.04942 -1.64354 0
M  V30 394 O 36.3134 1.72615 -0.926339 0
M  V30 395 H 34.8934 -0.140154 -0.733734 0
M  V30 396 H 37.5554 -1.0332 -1.6526 0
M  V30 397 H 36.6514 -0.493352 -3.08176 0
M  V30 398 N 36.9525 1.47285 -0.560781 0
M  V30 399 C 38.1985 2.02764 -0.0381184 0
M  V30 400 C 38.5315 1.43384 1.30976 0
M  V30 401 O 37.8065 0.590733 1.85312 0
M  V30 402 C 38.0895 3.60064 0.0511427 0
M  V30 403 C 37.9425 4.2987 -1.32408 0
M  V30 404 C 39.2615 4.33439 0.762795 0
M  V30 405 H 36.3805 0.736841 -0.0153264 0
M  V30 406 H 39.0225 1.75675 -0.723759 0
M  V30 407 H 37.1725 3.83274 0.635065 0
M  V30 408 H 38.8445 4.17989 -1.95148 0
M  V30 409 H 37.0875 3.90085 -1.8978 0
M  V30 410 H 37.7585 5.38478 -1.21431 0
M  V30 411 H 40.2345 4.15243 0.266965 0
M  V30 412 H 39.1105 5.43124 0.794221 0
M  V30 413 H 39.3715 4.02915 1.81966 0
M  V30 414 N 38.4306 0.297415 1.54768 0
M  V30 415 C 39.6786 -0.312295 1.99673 0
M  V30 416 C 39.9996 -1.54686 1.18732 0
M  V30 417 O 39.2696 -1.93854 0.282382 0
M  V30 418 H 37.8496 -0.118381 0.73756 0
M  V30 419 H 40.5116 0.407915 1.90583 0
M  V30 420 H 39.6076 -0.586813 3.06534 0
M  V30 421 N 39.9087 -1.5758 0.0250728 0
M  V30 422 C 40.8387 -2.13007 -0.956575 0
M  V30 423 C 41.8197 -1.0452 -1.342 0
M  V30 424 O 43.0047 -1.32332 -1.42133 0
M  V30 425 C 40.1347 -2.65386 -2.24026 0
M  V30 426 C 39.0887 -3.78623 -1.99571 0
M  V30 427 C 38.4147 -4.17414 -3.3417 0
M  V30 428 C 39.7147 -5.04867 -1.33814 0
M  V30 429 H 41.4087 -2.9528 -0.494991 0
M  V30 430 H 38.9547 -1.42042 -0.236651 0
M  V30 431 H 40.9077 -3.02794 -2.93076 0
M  V30 432 H 39.6317 -1.80268 -2.72343 0
M  V30 433 H 38.2907 -3.41646 -1.32941 0
M  V30 434 H 37.9387 -3.29284 -3.80238 0
M  V30 435 H 37.6387 -4.93719 -3.18615 0
M  V30 436 H 39.1627 -4.57402 -4.04495 0
M  V30 437 H 40.5767 -5.39888 -1.92857 0
M  V30 438 H 38.9737 -5.86144 -1.28669 0
M  V30 439 H 40.0437 -4.83904 -0.310561 0
M  V30 440 N 41.3868 0.248026 -1.55636 0
M  V30 441 C 42.3498 1.29044 -1.89421 0
M  V30 442 C 43.3498 1.41134 -0.770581 0
M  V30 443 O 44.5398 1.39854 -1.03858 0
M  V30 444 C 41.6718 2.66831 -2.12165 0
M  V30 445 H 42.8648 1.00305 -2.82629 0
M  V30 446 H 40.4178 0.487265 -1.48511 0
M  V30 447 H 41.1528 3.00711 -1.21422 0
M  V30 448 H 40.9378 2.59438 -2.93997 0
M  V30 449 H 42.4278 3.42103 -2.3949 0
M  V30 450 N 42.8649 1.48995 0.513639 0
M  V30 451 C 44.0929 1.61531 1.29288 0
M  V30 452 C 44.5079 0.281801 1.86685 0
M  V30 453 O 43.8649 -0.731111 1.67215 0
M  V30 454 C 43.9159 2.67449 2.43215 0
M  V30 455 O 43.6369 3.95626 1.88179 0
M  V30 456 C 45.1379 2.90575 3.34785 0
M  V30 457 H 42.3579 0.544165 0.392588 0
M  V30 458 H 44.9019 1.9494 0.617956 0
M  V30 459 H 43.0569 2.36853 3.0656 0
M  V30 460 H 43.4709 4.53868 2.62876 0
M  V30 461 H 44.9449 3.68449 4.11035 0
M  V30 462 H 45.4219 2.00011 3.91015 0
M  V30 463 H 46.0279 3.22538 2.77218 0
M  V30 464 N 44.343 -0.763751 1.37857 0
M  V30 465 C 45.759 -1.06542 1.18832 0
M  V30 466 C 45.959 -2.01478 0.0299722 0
M  V30 467 O 45.015 -2.4458 -0.627447 0
M  V30 468 C 46.328 -1.65525 2.51042 0
M  V30 469 C 47.876 -1.77745 2.57635 0
M  V30 470 C 48.351 -2.4014 3.89996 0
M  V30 471 N 49.842 -2.47582 3.91481 0
M  V30 472 C 50.577 -2.96732 4.9065 0
M  V30 473 N 50.073 -3.45993 6.00217 0
M  V30 474 N 51.866 -2.95679 4.78048 0
M  V30 475 H 44.017 -0.133556 2.1198 0
M  V30 476 H 46.28 -0.121879 0.940133 0
M  V30 477 H 45.986 -1.03236 3.36207 0
M  V30 478 H 45.86 -2.64719 2.68707 0
M  V30 479 H 48.247 -2.39164 1.72872 0
M  V30 480 H 48.328 -0.772836 2.43846 0
M  V30 481 H 47.972 -1.79358 4.75177 0
M  V30 482 H 47.902 -3.41223 4.01092 0
M  V30 483 H 50.393 -2.1273 3.12337 0
M  V30 484 H 50.706 -3.81922 6.7183 0
M  V30 485 H 49.051 -3.44077 6.03851 0
M  V30 486 H 52.242 -2.56499 3.91568 0
M  V30 487 H 52.415 -3.33672 5.55488 0
M  V30 488 N 45.8211 -1.22559 -0.990812 0
M  V30 489 C 46.7681 -0.997519 -2.0813 0
M  V30 490 C 47.7381 0.0814702 -1.659 0
M  V30 491 O 48.9231 -0.0685424 -1.90677 0
M  V30 492 C 46.0631 -0.583615 -3.40129 0
M  V30 493 C 45.1761 -1.7336 -3.9569 0
M  V30 494 C 44.3111 -1.26748 -5.15857 0
M  V30 495 C 43.3501 -2.38888 -5.63559 0
M  V30 496 N 42.4871 -1.93308 -6.74964 0
M  V30 497 H 47.3271 -1.93099 -2.26973 0
M  V30 498 H 44.8641 -0.962114 -1.11273 0
M  V30 499 H 46.8221 -0.324801 -4.15934 0
M  V30 500 H 45.4521 0.312845 -3.2128 0
M  V30 501 H 44.5041 -2.10669 -3.16738 0
M  V30 502 H 45.8161 -2.57704 -4.27071 0
M  V30 503 H 44.9701 -0.966173 -5.98957 0
M  V30 504 H 43.7091 -0.394272 -4.86104 0
M  V30 505 H 42.7141 -2.69805 -4.79046 0
M  V30 506 H 43.9391 -3.26728 -5.95336 0
M  V30 507 H 41.8851 -1.08352 -6.4699 0
M  V30 508 H 41.8021 -2.71217 -7.05675 0
M  V30 509 H 43.0701 -1.66252 -7.61564 0
M  V30 510 N 47.2992 1.18797 -1.03562 0
M  V30 511 C 48.2292 2.24472 -0.643019 0
M  V30 512 C 49.2102 1.66433 0.351283 0
M  V30 513 O 50.3952 1.92803 0.232505 0
M  V30 514 C 47.5252 3.473 4.24935e-05 0
M  V30 515 C 46.4792 4.18055 -0.917257 0
M  V30 516 C 45.8052 5.34519 -0.138941 0
M  V30 517 C 47.1052 4.72109 -2.23407 0
M  V30 518 H 48.7992 2.57566 -1.52643 0
M  V30 519 H 46.3452 1.23806 -0.735394 0
M  V30 520 H 48.2982 4.20426 0.286383 0
M  V30 521 H 47.0222 3.13424 0.918299 0
M  V30 522 H 45.6812 3.46821 -1.1879 0
M  V30 523 H 45.3292 4.96891 0.781562 0
M  V30 524 H 45.0292 5.82794 -0.750005 0
M  V30 525 H 46.5532 6.10438 0.1405 0
M  V30 526 H 47.9672 5.36955 -2.00879 0
M  V30 527 H 46.3642 5.30897 -2.79765 0
M  V30 528 H 47.4342 3.89807 -2.88407 0
M  V30 529 N 48.7773 0.814389 1.34928 0
M  V30 530 C 50.0253 0.397636 1.9815 0
M  V30 531 C 50.3463 -1.04069 1.64908 0
M  V30 532 O 49.6163 -1.72121 0.93548 0
M  V30 533 H 48.1963 0.144043 0.732981 0
M  V30 534 H 50.8583 1.04195 1.6471 0
M  V30 535 H 49.9543 0.509688 3.0791 0
M  V30 536 N 50.2554 -1.46986 0.568584 0
M  V30 537 C 51.2034 -2.31858 -0.185649 0
M  V30 538 C 52.1974 -1.43624 -0.898249 0
M  V30 539 O 53.4034 -1.60327 -0.818242 0
M  V30 540 H 49.7784 -0.747866 -0.0787399 0
M  V30 541 H 51.7494 -2.93303 0.549191 0
M  V30 542 C 50.4984 -3.26513 -1.19519 0
M  V30 543 H 49.8214 -3.94377 -0.656285 0
M  V30 544 H 51.2614 -3.88707 -1.6936 0
M  V30 545 C 49.7204 -2.50847 -2.24894 0
M  V30 546 O 50.2504 -2.26119 -3.32014 0
M  V30 547 N 48.4564 -2.11656 -1.99124 0
M  V30 548 H 48.0034 -2.31966 -1.12024 0
M  V30 549 H 47.9614 -1.61347 -2.69842 0
M  V30 550 N 51.7335 -0.305618 -1.54608 0
M  V30 551 C 52.6635 0.561482 -2.26649 0
M  V30 552 C 53.6445 1.13415 -1.26772 0
M  V30 553 O 54.8295 1.16262 -1.55553 0
M  V30 554 C 51.9595 1.73122 -3.01075 0
M  V30 555 C 50.9135 1.2887 -4.08138 0
M  V30 556 C 50.2395 2.54396 -4.70305 0
M  V30 557 C 51.5395 0.416578 -5.20636 0
M  V30 558 H 53.2335 -0.0393902 -2.99374 0
M  V30 559 H 50.7795 -0.020385 -1.43986 0
M  V30 560 H 52.7325 2.34396 -3.50195 0
M  V30 561 H 51.4565 2.3584 -2.25936 0
M  V30 562 H 50.1155 0.698991 -3.59875 0
M  V30 563 H 49.7635 3.15439 -3.918 0
M  V30 564 H 49.4635 2.25486 -5.42614 0
M  V30 565 H 50.9875 3.16464 -5.2219 0
M  V30 566 H 52.4015 0.935116 -5.65622 0
M  V30 567 H 50.7985 0.221046 -5.99693 0
M  V30 568 H 51.8685 -0.557162 -4.81688 0
M  V30 569 N 53.2116 1.57565 -0.0334293 0
M  V30 570 C 54.1746 2.09393 0.932048 0
M  V30 571 C 55.1746 1.00986 1.25134 0
M  V30 572 O 56.3646 1.27129 1.19096 0
M  V30 573 C 53.4966 2.56338 2.2473 0
M  V30 574 H 54.6896 2.95984 0.483085 0
M  V30 575 H 52.2426 1.54819 0.21468 0
M  V30 576 H 52.9776 1.7309 2.74245 0
M  V30 577 H 52.7626 3.35542 2.02865 0
M  V30 578 H 54.2526 2.96646 2.93923 0
M  V30 579 N 54.6897 -0.239769 1.55765 0
M  V30 580 C 55.6367 -1.29696 1.90913 0
M  V30 581 C 56.6067 -1.47478 0.764164 0
M  V30 582 O 57.7917 -1.61345 1.01845 0
M  V30 583 C 54.9317 -2.64598 2.21544 0
M  V30 584 C 54.0447 -2.54765 3.48882 0
M  V30 585 C 53.1797 -3.82069 3.69049 0
M  V30 586 C 52.2187 -3.66883 4.89963 0
M  V30 587 N 51.3557 -4.86094 5.06614 0
M  V30 588 H 56.1957 -0.990224 2.81067 0
M  V30 589 H 53.7327 -0.477684 1.39128 0
M  V30 590 H 55.6907 -3.43132 2.3731 0
M  V30 591 H 54.3207 -2.93405 1.34585 0
M  V30 592 H 53.3727 -1.67763 3.41409 0
M  V30 593 H 54.6847 -2.39457 4.37563 0
M  V30 594 H 53.8387 -4.69046 3.84812 0
M  V30 595 H 52.5777 -4.00282 2.78614 0
M  V30 596 H 51.5827 -2.78289 4.74168 0
M  V30 597 H 52.8077 -3.50157 5.81865 0
M  V30 598 H 50.7537 -5.04655 4.19117 0
M  V30 599 H 50.6707 -4.73443 5.89396 0
M  V30 600 H 51.9387 -5.74549 5.26795 0
M  V30 601 N 56.1678 -1.49265 -0.50573 0
M  V30 602 C 57.5788 -1.51769 -1.08734 0
M  V30 603 C 57.9298 -0.301192 -1.93874 0
M  V30 604 O 57.0548 0.589456 -2.08217 0
M  V30 605 C 57.6498 -2.75017 -1.97867 0
M  V30 606 C 56.2088 -2.80314 -2.51199 0
M  V30 607 C 55.3558 -2.4562 -1.28709 0
M  V30 608 H 58.3068 -1.56031 -0.289855 0
M  V30 609 H 58.3278 -2.5491 -2.82491 0
M  V30 610 H 57.8398 -3.63539 -1.35873 0
M  V30 611 H 55.9408 -1.96061 -3.16845 0
M  V30 612 H 56.0538 -3.82366 -2.88675 0
M  V30 613 H 54.4178 -1.97297 -1.61078 0
M  V30 614 H 55.2008 -3.36411 -0.6843 0
M  V30 615 N 57.6459 0.756429 -1.3826 0
M  V30 616 C 58.8739 1.54565 -1.3754 0
M  V30 617 C 59.2889 1.88767 0.0355331 0
M  V30 618 O 58.6459 1.52572 1.0014 0
M  V30 619 C 58.6969 2.84654 -2.22833 0
M  V30 620 O 58.4179 2.51912 -3.5843 0
M  V30 621 C 59.9189 3.78807 -2.30261 0
M  V30 622 H 57.1389 0.478353 -0.470553 0
M  V30 623 H 59.6829 0.936381 -1.81803 0
M  V30 624 H 57.8379 3.41965 -1.8204 0
M  V30 625 H 58.2519 3.35325 -4.03308 0
M  V30 626 H 59.7259 4.67045 -2.94233 0
M  V30 627 H 60.2029 4.19038 -1.31545 0
M  V30 628 H 60.8089 3.2742 -2.71433 0
M  V30 629 N 59.124 1.23083 0.984299 0
M  V30 630 C 60.37 1.06214 1.72761 0
M  V30 631 C 60.703 -0.400584 1.90024 0
M  V30 632 O 59.978 -1.29672 1.44967 0
M  V30 633 C 60.261 1.78375 3.12817 0
M  V30 634 C 60.114 3.32296 3.03149 0
M  V30 635 C 61.433 1.54309 4.12161 0
M  V30 636 H 58.552 0.387251 0.627061 0
M  V30 637 H 61.194 1.51536 1.14616 0
M  V30 638 H 59.344 1.39848 3.62457 0
M  V30 639 H 61.016 3.8032 2.61064 0
M  V30 640 H 59.259 3.6153 2.39747 0
M  V30 641 H 59.93 3.77972 4.02295 0
M  V30 642 H 62.406 1.87791 3.71314 0
M  V30 643 H 61.282 2.07281 5.08258 0
M  V30 644 H 61.543 0.477572 4.39513 0
M  V30 645 N 60.6021 -1.18246 1.0419 0
M  V30 646 C 61.8511 -1.87588 0.741194 0
M  V30 647 C 62.1641 -1.81303 -0.734066 0
M  V30 648 O 63.3701 -2.46019 -1.14834 0
M  V30 649 C 61.8261 -3.36538 1.27555 0
M  V30 650 C 61.4341 -3.51349 2.77953 0
M  V30 651 C 63.1781 -4.11273 1.05143 0
M  V30 652 C 61.0851 -4.94265 3.2474 0
M  V30 653 H 60.0151 -0.702622 0.273565 0
M  V30 654 H 62.6661 -1.33601 1.25789 0
M  V30 655 H 61.0481 -3.9 0.686703 0
M  V30 656 H 62.2221 -3.08153 3.42605 0
M  V30 657 H 60.5371 -2.90022 2.98791 0
M  V30 658 H 63.1341 -5.16689 1.37611 0
M  V30 659 H 63.4771 -4.16298 -0.0112774 0
M  V30 660 H 64.0101 -3.63987 1.60495 0
M  V30 661 H 60.7491 -4.94408 4.30396 0
M  V30 662 H 60.2691 -5.38172 2.64823 0
M  V30 663 H 61.9481 -5.62987 3.18834 0
M  V30 664 N 62.0802 -0.821533 -1.34494 0
M  V30 665 C 63.3292 -0.405355 -1.97585 0
M  V30 666 C 63.6422 1.03677 -1.65863 0
M  V30 667 O 64.8482 1.55679 -2.22433 0
M  V30 668 C 63.3042 -0.673861 -3.53535 0
M  V30 669 C 62.9122 -2.12951 -3.94152 0
M  V30 670 C 64.6562 -0.32378 -4.23263 0
M  V30 671 C 62.5632 -2.34298 -5.43009 0
M  V30 672 H 61.4932 -0.147836 -0.739365 0
M  V30 673 H 64.1442 -1.00769 -1.53355 0
M  V30 674 H 62.5262 -0.00137554 -3.96 0
M  V30 675 H 63.7002 -2.84104 -3.62797 0
M  V30 676 H 62.0152 -2.44089 -3.37356 0
M  V30 677 H 64.6122 -0.461126 -5.32708 0
M  V30 678 H 64.9552 0.731586 -4.09821 0
M  V30 679 H 65.4882 -0.950786 -3.8627 0
M  V30 680 H 62.2272 -3.38335 -5.61435 0
M  V30 681 H 61.7472 -1.67687 -5.75883 0
M  V30 682 H 63.4262 -2.16588 -6.09671 0
M  V30 683 N 63.5583 1.46682 -0.576371 0
M  V30 684 C 64.7833 2.07304 -0.0630475 0
M  V30 685 C 65.2083 1.42329 1.2298 0
M  V30 686 O 64.5663 0.504865 1.74129 0
M  V30 687 C 64.6143 3.60472 0.095895 0
M  V30 688 O 63.7183 3.95927 1.15394 0
M  V30 689 H 63.0593 0.661288 -0.0599463 0
M  V30 690 H 65.5893 1.88417 -0.797511 0
M  V30 691 H 65.5993 4.06865 0.304071 0
M  V30 692 H 64.2743 4.07157 -0.84828 0
M  V30 693 H 62.8513 3.61252 0.924724 0
M  V30 694 N 65.0364 0.313813 1.54444 0
M  V30 695 C 65.9834 -0.55655 2.23989 0
M  V30 696 C 66.9534 -1.11943 1.22711 0
M  V30 697 O 68.1384 -1.16158 1.51367 0
M  V30 698 C 65.2784 -1.71635 2.99392 0
M  V30 699 C 64.3914 -1.18364 4.15468 0
M  V30 700 C 63.5264 -2.30834 4.78424 0
M  V30 701 C 62.5654 -1.74762 5.86622 0
M  V30 702 N 61.7024 -2.80855 6.43479 0
M  V30 703 H 66.5424 0.0430893 2.97969 0
M  V30 704 H 64.0794 0.0330359 1.47063 0
M  V30 705 H 66.0374 -2.39868 3.41349 0
M  V30 706 H 64.6674 -2.28742 2.27765 0
M  V30 707 H 63.7194 -0.393163 3.78363 0
M  V30 708 H 65.0314 -0.733262 4.93381 0
M  V30 709 H 64.1854 -3.0699 5.23299 0
M  V30 710 H 62.9244 -2.79204 3.99871 0
M  V30 711 H 61.9294 -0.970995 5.41158 0
M  V30 712 H 63.1544 -1.2728 6.67066 0
M  V30 713 H 61.1004 -3.28535 5.67804 0
M  V30 714 H 61.0174 -2.40351 7.16776 0
M  V30 715 H 62.2854 -3.5687 6.93011 0
M  V30 716 N 66.5145 -1.57545 0.0417849 0
M  V30 717 C 67.4615 -2.10977 -0.935805 0
M  V30 718 C 68.4315 -1.01486 -1.31491 0
M  V30 719 O 69.6165 -1.2898 -1.40602 0
M  V30 720 C 66.7565 -2.65169 -2.2086 0
M  V30 721 C 65.8695 -3.88714 -1.88482 0
M  V30 722 C 65.0045 -4.31254 -3.1015 0
M  V30 723 C 64.0435 -5.47524 -2.7365 0
M  V30 724 N 63.1805 -5.85162 -3.87982 0
M  V30 725 H 68.0205 -2.94218 -0.473249 0
M  V30 726 H 65.5575 -1.45415 -0.221981 0
M  V30 727 H 67.5155 -2.94685 -2.95325 0
M  V30 728 H 66.1455 -1.8474 -2.64709 0
M  V30 729 H 65.1975 -3.65849 -1.04205 0
M  V30 730 H 66.5095 -4.73245 -1.57608 0
M  V30 731 H 65.6635 -4.62273 -3.92923 0
M  V30 732 H 64.4025 -3.45516 -3.44195 0
M  V30 733 H 63.4075 -5.16187 -1.89291 0
M  V30 734 H 64.6325 -6.34971 -2.40807 0
M  V30 735 H 62.5785 -5.02377 -4.21846 0
M  V30 736 H 62.4955 -6.64362 -3.60775 0
M  V30 737 H 63.7635 -6.20791 -4.71422 0
M  V30 738 N 67.9926 0.231505 -1.5589 0
M  V30 739 C 69.2406 0.955461 -1.78088 0
M  V30 740 C 69.5616 1.85262 -0.608533 0
M  V30 741 O 68.8316 1.92277 0.375035 0
M  V30 742 H 67.4116 0.355787 -0.656829 0
M  V30 743 H 70.0736 0.245751 -1.93344 0
M  V30 744 H 69.1696 1.56814 -2.69844 0
M  V30 745 N 69.4707 1.49531 0.497807 0
M  V30 746 C 70.7477 1.49682 1.25915 0
M  V30 747 C 71.1277 0.226339 2.09883 0
M  V30 748 O 70.4757 -0.791189 2.14365 0
M  V30 749 C 70.6857 2.77755 2.11313 0
M  V30 750 C 72.0337 3.27371 2.70395 0
M  V30 751 O 73.0577 2.78894 2.21578 0
M  V30 752 O 71.9167 4.11808 3.59272 0
M  V30 753 H 69.0107 0.599228 0.56996 0
M  V30 754 H 71.5567 1.61798 0.511816 0
M  V30 755 H 70.3287 3.61713 1.49264 0
M  V30 756 H 69.9517 2.68515 2.93233 0
M  V30 757 N 70.9488 -0.749086 1.3866 0
M  V30 758 C 72.1978 -1.50371 1.3443 0
M  V30 759 C 72.5108 -1.95503 -0.0616397 0
M  V30 760 O 73.7168 -2.70554 -0.226489 0
M  V30 761 C 72.1728 -2.71644 2.36088 0
M  V30 762 C 71.7808 -2.3352 3.82325 0
M  V30 763 C 73.5248 -3.49518 2.40909 0
M  V30 764 C 71.4318 -3.51431 4.75658 0
M  V30 765 H 70.3618 -0.564628 0.499712 0
M  V30 766 H 73.0128 -0.818449 1.64237 0
M  V30 767 H 71.3948 -3.42175 1.9933 0
M  V30 768 H 72.5688 -1.70627 4.28046 0
M  V30 769 H 70.8838 -1.6877 3.80665 0
M  V30 770 H 73.4808 -4.37197 3.07836 0
M  V30 771 H 73.8238 -3.90992 1.42937 0
M  V30 772 H 74.3568 -2.86005 2.76489 0
M  V30 773 H 71.0958 -3.15019 5.74842 0
M  V30 774 H 70.6158 -4.13352 4.34627 0
M  V30 775 H 72.2948 -4.17953 4.93887 0
M  V30 776 N 72.4269 -1.23603 -0.977757 0
M  V30 777 C 73.6759 -1.06377 -1.71368 0
M  V30 778 C 73.9889 0.399062 -1.91486 0
M  V30 779 O 75.1949 0.691312 -2.62551 0
M  V30 780 C 73.6509 -1.85512 -3.08404 0
M  V30 781 C 73.2589 -3.36141 -2.96164 0
M  V30 782 C 75.0029 -1.76783 -3.85938 0
M  V30 783 C 72.9099 -4.07659 -4.28449 0
M  V30 784 H 71.8399 -0.394452 -0.642591 0
M  V30 785 H 74.4909 -1.47594 -1.09034 0
M  V30 786 H 72.8729 -1.37103 -3.71509 0
M  V30 787 H 74.0469 -3.92056 -2.42133 0
M  V30 788 H 72.3619 -3.45712 -2.32104 0
M  V30 789 H 74.9589 -2.27526 -4.83876 0
M  V30 790 H 75.3019 -0.731116 -4.0983 0
M  V30 791 H 75.8349 -2.22818 -3.2954 0
M  V30 792 H 72.5739 -5.11648 -4.09752 0
M  V30 793 H 72.0939 -3.5653 -4.82334 0
M  V30 794 H 73.7729 -4.141 -4.97122 0
M  V30 795 N 73.905 1.17692 -1.04816 0
M  V30 796 C 75.133 1.91786 -0.776254 0
M  V30 797 C 75.548 1.76604 0.667577 0
M  V30 798 O 74.905 1.10067 1.45573 0
M  V30 799 C 74.956 3.42967 -1.14263 0
M  V30 800 O 74.677 3.57678 -2.52978 0
M  V30 801 C 76.178 4.34144 -0.896311 0
M  V30 802 H 73.398 0.608624 -0.282519 0
M  V30 803 H 75.942 1.49268 -1.39783 0
M  V30 804 H 74.097 3.83245 -0.565874 0
M  V30 805 H 74.511 4.51319 -2.67229 0
M  V30 806 H 75.985 5.38744 -1.20244 0
M  V30 807 H 76.462 4.38876 0.168636 0
M  V30 808 H 77.068 3.99574 -1.45672 0
M  V30 809 N 75.3831 0.828654 1.34056 0
M  V30 810 C 76.6321 0.415828 1.97367 0
M  V30 811 C 76.9451 -1.02796 1.6641 0
M  V30 812 O 78.1511 -1.54497 2.23255 0
M  V30 813 C 76.6071 0.692601 3.53173 0
M  V30 814 C 76.2151 2.15038 3.93017 0
M  V30 815 C 77.9591 0.346222 4.23086 0
M  V30 816 C 75.8661 2.37174 5.41758 0
M  V30 817 H 74.7961 0.151755 0.738571 0
M  V30 818 H 77.4471 1.01581 1.52819 0
M  V30 819 H 75.8291 0.0223764 3.95994 0
M  V30 820 H 77.0031 2.86024 3.61285 0
M  V30 821 H 75.3181 2.45875 3.36057 0
M  V30 822 H 77.9151 0.48937 5.32456 0
M  V30 823 H 78.2581 -0.709842 4.10204 0
M  V30 824 H 78.7911 0.971258 3.85761 0
M  V30 825 H 75.5301 3.41308 5.59633 0
M  V30 826 H 75.0501 1.70738 5.74986 0
M  V30 827 H 76.7291 2.19818 6.08514 0
M  V30 828 N 76.8612 -1.46375 0.584142 0
M  V30 829 C 78.2772 -1.57694 0.245929 0
M  V30 830 C 78.4772 -1.57903 -1.25175 0
M  V30 831 O 77.5332 -1.49676 -2.03355 0
M  V30 832 C 78.8462 -2.87028 0.896402 0
M  V30 833 C 80.3942 -3.00662 0.870127 0
M  V30 834 C 80.8692 -4.32734 1.50017 0
M  V30 835 N 82.3602 -4.39436 1.46458 0
M  V30 836 C 83.0952 -5.40248 1.92144 0
M  V30 837 N 82.5912 -6.47726 2.4581 0
M  V30 838 N 84.3842 -5.31459 1.83052 0
M  V30 839 H 76.5352 -1.44483 1.55687 0
M  V30 840 H 78.7982 -0.689291 0.650831 0
M  V30 841 H 78.5042 -2.9269 1.95002 0
M  V30 842 H 78.3782 -3.75014 0.405486 0
M  V30 843 H 80.7652 -2.94581 -0.174871 0
M  V30 844 H 80.8462 -2.14148 1.39908 0
M  V30 845 H 80.4902 -4.39573 2.54437 0
M  V30 846 H 80.4202 -5.18025 0.946432 0
M  V30 847 H 82.9112 -3.62367 1.07231 0
M  V30 848 H 83.2242 -7.20863 2.78525 0
M  V30 849 H 81.5692 -6.48542 2.49836 0
M  V30 850 H 84.7602 -4.46396 1.40883 0
M  V30 851 H 84.9332 -6.09881 2.18973 0
M  V30 852 N 78.3393 -0.321999 -1.54275 0
M  V30 853 C 79.5673 0.283052 -2.04955 0
M  V30 854 C 79.9823 1.45904 -1.19823 0
M  V30 855 O 79.3393 1.81063 -0.228545 0
M  V30 856 C 79.3903 0.719028 -3.54277 0
M  V30 857 O 79.1113 -0.410175 -4.36176 0
M  V30 858 C 80.6123 1.38705 -4.21041 0
M  V30 859 H 77.8323 0.0584616 -0.668448 0
M  V30 860 H 80.3763 -0.467734 -1.99079 0
M  V30 861 H 78.5313 1.41979 -3.60445 0
M  V30 862 H 78.9453 -0.0669416 -5.24457 0
M  V30 863 H 80.4193 1.64306 -5.2698 0
M  V30 864 H 80.8963 2.33385 -3.72059 0
M  V30 865 H 81.5023 0.728906 -4.19007 0
M  V30 866 N 79.8174 1.5752 -0.0501392 0
M  V30 867 C 80.7274 2.14952 0.939827 0
M  V30 868 C 81.7434 1.10706 1.34239 0
M  V30 869 O 82.9194 1.42869 1.41952 0
M  V30 870 C 79.9844 2.68232 2.19665 0
M  V30 871 C 79.0454 3.87272 1.85253 0
M  V30 872 C 78.2784 4.38002 3.04943 0
M  V30 873 O 78.5014 3.87811 4.18281 0
M  V30 874 O 77.4354 5.29602 2.86017 0
M  V30 875 H 81.2614 2.9986 0.481392 0
M  V30 876 H 78.8464 1.4841 0.171699 0
M  V30 877 H 80.7284 3.02475 2.93406 0
M  V30 878 H 79.4034 1.86395 2.64648 0
M  V30 879 H 78.3104 3.5792 1.0883 0
M  V30 880 H 79.6434 4.70336 1.4507 0
M  V30 881 N 81.2955 -0.223234 1.56011 0
M  V30 882 C 82.5205 -0.968978 1.83373 0
M  V30 883 C 82.9455 -1.77227 0.630254 0
M  V30 884 O 82.3035 -1.76345 -0.420959 0
M  V30 885 C 82.3515 -1.86363 3.08709 0
M  V30 886 O 81.4555 -2.95873 2.87285 0
M  V30 887 H 80.7965 -0.274461 0.604622 0
M  V30 888 H 83.3265 -0.237056 2.03222 0
M  V30 889 H 83.3365 -2.27376 3.38768 0
M  V30 890 H 82.0115 -1.27319 3.95933 0
M  V30 891 H 80.5885 -2.58818 2.68454 0
M  V30 892 N 82.7736 -1.49793 -0.48987 0
M  V30 893 C 84.0016 -1.63568 -1.26701 0
M  V30 894 C 84.4166 -0.311465 -1.86213 0
M  V30 895 O 83.7736 0.704416 -1.68357 0
M  V30 896 C 83.8246 -2.71284 -2.38929 0
M  V30 897 O 83.5456 -3.9857 -1.81861 0
M  V30 898 C 85.0466 -2.95864 -3.3012 0
M  V30 899 H 82.2666 -0.550342 -0.383881 0
M  V30 900 H 84.8106 -1.95898 -0.586864 0
M  V30 901 H 82.9656 -2.417 -3.02753 0
M  V30 902 H 83.3796 -4.57993 -2.55622 0
M  V30 903 H 84.8536 -3.74941 -4.05121 0
M  V30 904 H 85.3306 -2.06206 -3.87783 0
M  V30 905 H 85.9366 -3.26907 -2.72051 0
M  V30 906 N 84.2517 0.741722 -1.39055 0
M  V30 907 C 85.4987 1.50114 -1.35912 0
M  V30 908 C 85.8267 1.94443 0.0470937 0
M  V30 909 O 85.0817 1.66612 1.02659 0
M  V30 910 C 85.3807 2.7592 -2.27163 0
M  V30 911 C 85.0467 2.50493 -3.74919 0
M  V30 912 C 83.7087 2.43267 -4.1518 0
M  V30 913 C 86.0607 2.28585 -4.684 0
M  V30 914 C 83.3887 2.12166 -5.46994 0
M  V30 915 C 85.7407 1.99002 -6.00484 0
M  V30 916 C 84.4047 1.90241 -6.39816 0
M  V30 917 H 83.6747 0.549306 -0.497336 0
M  V30 918 H 86.3217 0.851896 -1.71508 0
M  V30 919 H 84.6267 3.45553 -1.84663 0
M  V30 920 H 86.3237 3.33923 -2.22028 0
M  V30 921 H 82.9137 2.56992 -3.43006 0
M  V30 922 H 87.0977 2.33139 -4.38132 0
M  V30 923 H 82.3537 2.03901 -5.76398 0
M  V30 924 H 86.5277 1.81057 -6.72452 0
M  V30 925 H 84.1547 1.65907 -7.41875 0
M  V30 926 N 85.7298 1.2412 0.971189 0
M  V30 927 C 86.6768 1.0305 2.06517 0
M  V30 928 C 87.6468 -0.0550666 1.66009 0
M  V30 929 O 88.8318 0.0988688 1.90544 0
M  V30 930 C 85.9718 0.637653 3.39158 0
M  V30 931 C 85.0848 1.79633 3.92882 0
M  V30 932 C 84.2198 1.34939 5.13775 0
M  V30 933 C 83.2588 2.47823 5.59687 0
M  V30 934 N 82.3958 2.04022 6.71803 0
M  V30 935 H 87.2358 1.96685 2.23873 0
M  V30 936 H 84.7728 0.979694 1.09729 0
M  V30 937 H 86.7308 0.390931 4.15364 0
M  V30 938 H 85.3608 -0.261693 3.21737 0
M  V30 939 H 84.4128 2.15681 3.13346 0
M  V30 940 H 85.7248 2.64466 4.22918 0
M  V30 941 H 84.8788 1.06134 5.97345 0
M  V30 942 H 83.6178 0.471557 4.85415 0
M  V30 943 H 82.6228 2.77392 4.74693 0
M  V30 944 H 83.8478 3.36158 5.90063 0
M  V30 945 H 81.7938 1.18632 6.45184 0
M  V30 946 H 81.7108 2.82409 7.01271 0
M  V30 947 H 82.9788 1.78347 7.58823 0
M  V30 948 N 87.2079 -1.17134 1.05439 0
M  V30 949 C 88.1559 -2.23289 0.651511 0
M  V30 950 C 89.1499 -1.66186 -0.328411 0
M  V30 951 O 90.3559 -1.78949 -0.194206 0
M  V30 952 H 86.7309 -0.726938 0.192523 0
M  V30 953 H 88.7019 -2.54565 1.55689 0
M  V30 954 C 87.4509 -3.47671 0.0448436 0
M  V30 955 H 86.7739 -3.91918 0.78996 0
M  V30 956 H 88.2139 -4.2353 -0.19964 0
M  V30 957 C 86.6729 -3.14453 -1.20918 0
M  V30 958 O 87.2029 -3.29459 -2.29825 0
M  V30 959 N 85.4089 -2.68657 -1.10779 0
M  V30 960 H 84.9559 -2.56646 -0.221526 0
M  V30 961 H 84.9139 -2.46804 -1.9477 0
M  V30 962 N 88.686 -0.835752 -1.33615 0
M  V30 963 C 89.914 -0.443344 -2.02094 0
M  V30 964 C 90.329 0.954522 -1.62894 0
M  V30 965 O 89.686 1.61982 -0.840723 0
M  V30 966 C 89.737 -0.550775 -3.5728 0
M  V30 967 O 89.458 -1.89356 -3.95065 0
M  V30 968 C 90.959 -0.154919 -4.43029 0
M  V30 969 H 88.179 -0.176359 -0.647409 0
M  V30 970 H 90.723 -1.12746 -1.70612 0
M  V30 971 H 88.878 0.0853997 -3.87306 0
M  V30 972 H 89.292 -1.87687 -4.89769 0
M  V30 973 H 90.766 -0.281144 -5.51284 0
M  V30 974 H 91.243 0.902863 -4.2982 0
M  V30 975 H 91.849 -0.765404 -4.18356 0
M  V30 976 N 90.1641 1.46063 -0.591896 0
M  V30 977 C 91.0741 2.34192 0.13831 0
M  V30 978 C 92.0901 1.50305 0.876608 0
M  V30 979 O 93.2661 1.8315 0.837728 0
M  V30 980 C 90.3311 3.27656 1.13326 0
M  V30 981 C 89.3921 4.27445 0.39863 0
M  V30 982 C 88.6251 5.16443 1.34618 0
M  V30 983 O 88.8481 5.08553 2.58321 0
M  V30 984 O 87.7821 5.95843 0.851768 0
M  V30 985 H 91.6081 2.98002 -0.58552 0
M  V30 986 H 89.1931 1.45188 -0.352239 0
M  V30 987 H 91.0751 3.85291 1.70671 0
M  V30 988 H 89.7501 2.6643 1.83839 0
M  V30 989 H 88.6571 3.73471 -0.216895 0
M  V30 990 H 89.9901 4.91482 -0.265709 0
M  V30 991 N 91.6422 0.330177 1.54103 0
M  V30 992 C 92.8912 -0.271336 1.99867 0
M  V30 993 C 93.2042 -1.52723 1.22209 0
M  V30 994 O 94.4102 -2.20515 1.58383 0
M  V30 995 C 92.8662 -0.534032 3.55916 0
M  V30 996 C 92.4742 0.705193 4.42415 0
M  V30 997 C 94.2182 -1.09514 4.1013 0
M  V30 998 C 92.1252 0.414035 5.89949 0
M  V30 999 H 91.0552 -0.105166 0.74663 0
M  V30 1000 H 93.7062 0.443429 1.78062 0
M  V30 1001 H 92.0882 -1.30915 3.73734 0
M  V30 1002 H 93.2622 1.4804 4.36372 0
M  V30 1003 H 91.5772 1.18698 3.99124 0
M  V30 1004 H 94.1742 -1.3277 5.17954 0
M  V30 1005 H 94.5172 -2.04656 3.62521 0
M  V30 1006 H 95.0502 -0.381038 3.95971 0
M  V30 1007 H 91.7892 1.33481 6.41766 0
M  V30 1008 H 91.3092 -0.323336 5.98928 0
M  V30 1009 H 92.9882 0.0263105 6.46995 0
M  V30 1010 N 93.1203 -1.57491 0.0584922 0
M  V30 1011 C 94.3453 -1.97711 -0.62652 0
M  V30 1012 C 94.7703 -0.936132 -1.63151 0
M  V30 1013 O 94.1283 0.099811 -1.81025 0
M  V30 1014 C 94.1763 -3.36989 -1.28338 0
M  V30 1015 O 93.2803 -3.35433 -2.39913 0
M  V30 1016 H 92.6213 -0.643868 -0.162266 0
M  V30 1017 H 95.1513 -2.04193 0.129064 0
M  V30 1018 H 95.1613 -3.73879 -1.63335 0
M  V30 1019 H 93.8363 -4.12289 -0.546889 0
M  V30 1020 H 92.4133 -3.10298 -2.06809 0
M  V30 1021 N 94.5984 0.214957 -1.56127 0
M  V30 1022 C 95.8454 0.938372 -1.79446 0
M  V30 1023 C 96.1734 1.8407 -0.628378 0
M  V30 1024 O 95.4284 1.91837 0.386925 0
M  V30 1025 C 95.7274 1.80314 -3.0858 0
M  V30 1026 C 95.3934 1.05349 -4.3842 0
M  V30 1027 C 94.0554 0.846435 -4.73697 0
M  V30 1028 C 96.4074 0.524588 -5.18553 0
M  V30 1029 C 93.7354 0.098683 -5.86617 0
M  V30 1030 C 96.0874 -0.209853 -6.32252 0
M  V30 1031 C 94.7514 -0.428102 -6.66126 0
M  V30 1032 H 94.0214 0.343375 -0.656639 0
M  V30 1033 H 96.6684 0.206077 -1.90388 0
M  V30 1034 H 94.9734 2.6035 -2.92789 0
M  V30 1035 H 96.6704 2.36513 -3.23825 0
M  V30 1036 H 93.2604 1.22486 -4.10725 0
M  V30 1037 H 97.4444 0.672008 -4.91729 0
M  V30 1038 H 92.7004 -0.0805753 -6.11347 0
M  V30 1039 H 96.8744 -0.627157 -6.9357 0
M  V30 1040 H 94.5014 -1.00944 -7.53468 0
M  V30 1041 N 96.0765 1.50051 0.48192 0
M  V30 1042 C 97.0235 1.68122 1.58125 0
M  V30 1043 C 97.9935 0.522545 1.57666 0
M  V30 1044 O 99.1785 0.751844 1.75362 0
M  V30 1045 C 96.3185 1.77142 2.96167 0
M  V30 1046 C 95.4315 3.0444 3.06497 0
M  V30 1047 C 94.5665 3.04321 4.35387 0
M  V30 1048 C 93.6055 4.26118 4.3942 0
M  V30 1049 N 92.7425 4.238 5.59766 0
M  V30 1050 H 97.5825 2.6198 1.42022 0
M  V30 1051 H 95.1195 1.29877 0.690687 0
M  V30 1052 H 97.0775 1.80352 3.76203 0
M  V30 1053 H 95.7075 0.867329 3.1093 0
M  V30 1054 H 94.7595 3.10752 2.19402 0
M  V30 1055 H 96.0715 3.94426 3.05336 0
M  V30 1056 H 95.2255 3.062 5.23762 0
M  V30 1057 H 93.9645 2.12147 4.39141 0
M  V30 1058 H 92.9695 4.24463 3.49444 0
M  V30 1059 H 94.1945 5.19507 4.37366 0
M  V30 1060 H 92.1405 3.34474 5.64326 0
M  V30 1061 H 92.0575 5.07542 5.60301 0
M  V30 1062 H 93.3255 4.2981 6.50295 0
M  V30 1063 N 97.5546 -0.734337 1.39446 0
M  V30 1064 C 98.4846 -1.86155 1.40955 0
M  V30 1065 C 99.4656 -1.67898 0.272827 0
M  V30 1066 O 100.651 -1.88207 0.478743 0
M  V30 1067 C 97.7806 -3.23912 1.25294 0
M  V30 1068 C 96.7346 -3.56808 2.36373 0
M  V30 1069 C 96.0606 -4.93508 2.058 0
M  V30 1070 C 97.3606 -3.59713 3.78687 0
M  V30 1071 H 99.0546 -1.8515 2.35287 0
M  V30 1072 H 96.6006 -0.889367 1.13253 0
M  V30 1073 H 98.5536 -4.02443 1.2497 0
M  V30 1074 H 97.2776 -3.25446 0.274308 0
M  V30 1075 H 95.9366 -2.80606 2.35914 0
M  V30 1076 H 95.5846 -4.91623 1.06374 0
M  V30 1077 H 95.2846 -5.16486 2.80208 0
M  V30 1078 H 96.8086 -5.74396 2.07128 0
M  V30 1079 H 98.2226 -4.2832 3.81071 0
M  V30 1080 H 96.6196 -3.94209 4.52459 0
M  V30 1081 H 97.6896 -2.59504 4.09617 0
M  V30 1082 N 99.0327 -1.24633 -0.964593 0
M  V30 1083 C 100.281 -1.08573 -1.70459 0
M  V30 1084 C 100.602 0.375655 -1.91347 0
M  V30 1085 O 99.8717 1.26779 -1.49345 0
M  V30 1086 H 98.4517 -0.398784 -0.631649 0
M  V30 1087 H 101.114 -1.56601 -1.16026 0
M  V30 1088 H 100.21 -1.58623 -2.68785 0
M  V30 1089 N 100.511 1.16574 -1.06058 0
M  V30 1090 C 101.443 2.2045 -0.627239 0
M  V30 1091 C 102.456 1.59752 0.313534 0
M  V30 1092 O 103.645 1.78192 0.104896 0
M  V30 1093 C 100.745 3.3875 0.100974 0
M  V30 1094 C 99.9178 4.29008 -0.852687 0
M  V30 1095 C 98.9768 5.25944 -0.164152 0
M  V30 1096 O 98.0028 5.63535 -0.801047 0
M  V30 1097 N 99.2048 5.70075 1.09518 0
M  V30 1098 H 101.97 2.58249 -1.52077 0
M  V30 1099 H 99.5308 1.3156 -0.943594 0
M  V30 1100 H 101.523 4.00638 0.57194 0
M  V30 1101 H 100.093 2.99476 0.89628 0
M  V30 1102 H 99.3128 3.64419 -1.50308 0
M  V30 1103 H 100.601 4.86195 -1.49972 0
M  V30 1104 H 99.9988 5.41624 1.6328 0
M  V30 1105 H 98.5558 6.34067 1.51006 0
M  V30 1106 N 101.989 0.842826 1.3317 0
M  V30 1107 C 102.899 0.281444 2.32906 0
M  V30 1108 C 103.915 -0.594587 1.63526 0
M  V30 1109 O 105.091 -0.49777 1.95152 0
M  V30 1110 C 102.156 -0.530929 3.42611 0
M  V30 1111 C 101.217 0.369843 4.27704 0
M  V30 1112 C 100.45 -0.403853 5.3217 0
M  V30 1113 O 100.673 -1.63513 5.46461 0
M  V30 1114 O 99.6069 0.224199 6.01482 0
M  V30 1115 H 103.433 1.10744 2.82789 0
M  V30 1116 H 101.018 0.60545 1.36582 0
M  V30 1117 H 102.9 -0.992437 4.09547 0
M  V30 1118 H 101.575 -1.33392 2.94938 0
M  V30 1119 H 100.482 0.879275 3.6362 0
M  V30 1120 H 101.815 1.13771 4.78871 0
M  V30 1121 N 103.467 -1.45747 0.599634 0
M  V30 1122 C 104.714 -2.02292 0.0917284 0
M  V30 1123 C 105.042 -1.46906 -1.27472 0
M  V30 1124 O 104.297 -0.630652 -1.8526 0
M  V30 1125 C 104.596 -3.57399 -0.00602758 0
M  V30 1126 C 104.262 -4.31902 1.29503 0
M  V30 1127 C 102.924 -4.51974 1.65144 0
M  V30 1128 C 105.276 -4.74551 2.15525 0
M  V30 1129 C 102.604 -5.11949 2.86574 0
M  V30 1130 C 104.956 -5.35868 3.36196 0
M  V30 1131 C 103.62 -5.54165 3.72099 0
M  V30 1132 H 102.89 -0.740239 0.0335658 0
M  V30 1133 H 105.537 -1.7491 0.779661 0
M  V30 1134 H 103.842 -3.84014 -0.777183 0
M  V30 1135 H 105.539 -3.98846 -0.415038 0
M  V30 1136 H 102.129 -4.16588 1.00761 0
M  V30 1137 H 106.313 -4.58784 1.8929 0
M  V30 1138 H 101.569 -5.24305 3.14507 0
M  V30 1139 H 105.743 -5.6787 4.03109 0
M  V30 1140 H 103.37 -6.00406 4.6628 0
M  V30 1141 N 104.945 -0.338344 -1.53925 0
M  V30 1142 C 105.855 0.529421 -2.28548 0
M  V30 1143 C 106.871 1.11645 -1.3346 0
M  V30 1144 O 108.047 1.13325 -1.66492 0
M  V30 1145 C 105.112 1.66713 -3.03987 0
M  V30 1146 C 104.173 1.11041 -4.14691 0
M  V30 1147 C 103.406 2.19389 -4.86522 0
M  V30 1148 O 103.629 3.40013 -4.57982 0
M  V30 1149 O 102.563 1.83976 -5.73094 0
M  V30 1150 H 106.389 -0.0770399 -3.03602 0
M  V30 1151 H 103.974 -0.103555 -1.49041 0
M  V30 1152 H 105.856 2.32918 -3.5118 0
M  V30 1153 H 104.531 2.25949 -2.31794 0
M  V30 1154 H 103.438 0.413024 -3.71813 0
M  V30 1155 H 104.771 0.562975 -4.8897 0
M  V30 1156 N 106.423 1.57458 -0.0668435 0
M  V30 1157 C 107.333 2.15937 0.916975 0
M  V30 1158 C 108.349 1.12123 1.33058 0
M  V30 1159 O 109.525 1.44366 1.40429 0
M  V30 1160 C 106.59 2.70547 2.16807 0
M  V30 1161 C 105.651 3.89215 1.81135 0
M  V30 1162 C 104.884 4.41211 3.0028 0
M  V30 1163 O 105.107 3.92225 4.14144 0
M  V30 1164 O 104.041 5.32605 2.80384 0
M  V30 1165 H 107.867 3.00354 0.449561 0
M  V30 1166 H 105.452 1.48584 0.155949 0
M  V30 1167 H 107.334 3.0557 2.90181 0
M  V30 1168 H 106.009 1.89192 2.62656 0
M  V30 1169 H 104.916 3.59054 1.05028 0
M  V30 1170 H 106.249 4.71848 1.40073 0
M  V30 1171 N 107.901 -0.206675 1.56239 0
M  V30 1172 C 109.129 -0.945345 1.8404 0
M  V30 1173 C 109.544 -1.77336 0.647885 0
M  V30 1174 O 108.901 -1.78425 -0.383511 0
M  V30 1175 C 108.952 -1.8509 3.10522 0
M  V30 1176 O 108.673 -1.05634 4.25174 0
M  V30 1177 C 110.174 -2.70222 3.51418 0
M  V30 1178 H 107.394 -0.276372 0.61144 0
M  V30 1179 H 109.938 -0.217417 2.03341 0
M  V30 1180 H 108.093 -2.53259 2.93153 0
M  V30 1181 H 108.507 -1.67238 4.97124 0
M  V30 1182 H 109.981 -3.29438 4.42916 0
M  V30 1183 H 110.458 -3.43358 2.73864 0
M  V30 1184 H 111.064 -2.07443 3.71278 0
M  V30 1185 N 109.379 -1.50304 -0.473955 0
M  V30 1186 C 110.607 -1.64902 -1.24959 0
M  V30 1187 C 111.022 -0.331198 -1.85872 0
M  V30 1188 O 110.379 0.68652 -1.69095 0
M  V30 1189 C 110.43 -2.73803 -2.36038 0
M  V30 1190 O 110.151 -4.00477 -1.77624 0
M  V30 1191 C 111.652 -2.99349 -3.26964 0
M  V30 1192 H 108.872 -0.554383 -0.378022 0
M  V30 1193 H 111.416 -1.9651 -0.566054 0
M  V30 1194 H 109.571 -2.44898 -3.00173 0
M  V30 1195 H 109.985 -4.60678 -2.5075 0
M  V30 1196 H 111.459 -3.79217 -4.01121 0
M  V30 1197 H 111.936 -2.10307 -3.85574 0
M  V30 1198 H 112.542 -3.29774 -2.68569 0
M  V30 1199 N 110.857 0.726932 -1.39834 0
M  V30 1200 C 111.82 1.82269 -1.38962 0
M  V30 1201 C 112.82 1.58248 -0.285334 0
M  V30 1202 O 114.01 1.65499 -0.54366 0
M  V30 1203 C 111.142 3.20186 -1.17019 0
M  V30 1204 H 112.335 1.84443 -2.36476 0
M  V30 1205 H 109.888 0.931416 -1.25516 0
M  V30 1206 H 110.623 3.23669 -0.202204 0
M  V30 1207 H 110.408 3.3902 -1.96998 0
M  V30 1208 H 111.898 4.00235 -1.1917 0
M  V30 1209 N 112.336 1.25143 0.95797 0
M  V30 1210 C 113.613 1.00472 1.67823 0
M  V30 1211 C 113.993 -0.470056 2.058 0
M  V30 1212 O 113.341 -1.44663 1.76875 0
M  V30 1213 C 113.551 1.9372 2.90299 0
M  V30 1214 C 114.899 2.21371 3.62326 0
M  V30 1215 O 115.923 1.91451 3.00375 0
M  V30 1216 O 114.782 2.72231 4.7387 0
M  V30 1217 H 111.876 0.380752 0.734137 0
M  V30 1218 H 114.422 1.36283 1.01119 0
M  V30 1219 H 113.194 2.93316 2.59001 0
M  V30 1220 H 112.817 1.58286 3.64735 0
M  V30 1221 N 113.814 -1.1601 1.06675 0
M  V30 1222 C 114.762 -2.22586 0.675157 0
M  V30 1223 C 115.756 -1.66525 -0.310766 0
M  V30 1224 O 116.962 -1.79145 -0.175215 0
M  V30 1225 H 113.337 -0.724855 0.200223 0
M  V30 1226 H 115.308 -2.52899 1.58381 0
M  V30 1227 C 114.057 -3.47604 0.0817162 0
M  V30 1228 H 113.38 -3.91058 0.831484 0
M  V30 1229 H 114.82 -4.23718 -0.154708 0
M  V30 1230 C 113.279 -3.15718 -1.17576 0
M  V30 1231 O 113.809 -3.31878 -2.26318 0
M  V30 1232 N 112.015 -2.69816 -1.07923 0
M  V30 1233 H 111.562 -2.56866 -0.194293 0
M  V30 1234 H 111.52 -2.48855 -1.92141 0
M  V30 1235 N 115.292 -0.849877 -1.32721 0
M  V30 1236 C 116.708 -0.539102 -1.50219 0
M  V30 1237 C 116.908 0.931271 -1.78689 0
M  V30 1238 O 115.964 1.71455 -1.85363 0
M  V30 1239 C 117.277 -1.42196 -2.64954 0
M  V30 1240 C 118.825 -1.42189 -2.78839 0
M  V30 1241 C 119.3 -2.28985 -3.96648 0
M  V30 1242 N 120.791 -2.26754 -4.03902 0
M  V30 1243 C 121.526 -2.90644 -4.94281 0
M  V30 1244 N 121.022 -3.63629 -5.897 0
M  V30 1245 N 122.815 -2.80057 -4.87365 0
M  V30 1246 H 114.966 -1.80156 -1.12506 0
M  V30 1247 H 117.229 -0.769217 -0.554085 0
M  V30 1248 H 116.935 -2.46733 -2.50631 0
M  V30 1249 H 116.809 -1.10591 -3.60624 0
M  V30 1250 H 119.196 -0.38419 -2.92588 0
M  V30 1251 H 119.277 -1.77807 -1.83898 0
M  V30 1252 H 118.921 -3.32819 -3.83658 0
M  V30 1253 H 118.851 -1.90702 -4.90857 0
M  V30 1254 H 121.342 -1.73688 -3.3562 0
M  V30 1255 H 121.655 -4.09558 -6.55349 0
M  V30 1256 H 120 -3.67737 -5.89741 0
M  V30 1257 H 123.191 -2.22593 -4.11789 0
M  V30 1258 H 123.364 -3.30132 -5.57599 0
M  V30 1259 N 116.77 1.45427 -0.607355 0
M  V30 1260 C 117.717 2.3053 0.111625 0
M  V30 1261 C 118.687 1.4209 0.860216 0
M  V30 1262 O 119.872 1.71019 0.845998 0
M  V30 1263 C 117.012 3.26992 1.10319 0
M  V30 1264 C 116.125 4.30535 0.355493 0
M  V30 1265 C 115.26 5.14105 1.33676 0
M  V30 1266 C 114.299 6.09376 0.576862 0
M  V30 1267 N 113.436 6.85727 1.5074 0
M  V30 1268 H 118.276 2.91477 -0.620093 0
M  V30 1269 H 115.813 1.43631 -0.317594 0
M  V30 1270 H 117.771 3.81385 1.6912 0
M  V30 1271 H 116.401 2.67799 1.80232 0
M  V30 1272 H 115.453 3.78805 -0.348023 0
M  V30 1273 H 116.765 4.98235 -0.237423 0
M  V30 1274 H 115.919 5.72897 1.99684 0
M  V30 1275 H 114.658 4.46423 1.9636 0
M  V30 1276 H 113.663 5.49715 -0.0968519 0
M  V30 1277 H 114.888 6.79085 -0.0449341 0
M  V30 1278 H 112.834 6.20735 2.12189 0
M  V30 1279 H 112.751 7.49778 0.967913 0
M  V30 1280 H 114.019 7.4906 2.15706 0
M  V30 1281 N 118.248 0.346503 1.53744 0
M  V30 1282 C 119.476 -0.25041 2.05379 0
M  V30 1283 C 119.891 -1.43979 1.22129 0
M  V30 1284 O 119.248 -1.80677 0.257321 0
M  V30 1285 C 119.299 -0.662575 3.55376 0
M  V30 1286 O 119.02 0.479515 4.35468 0
M  V30 1287 C 120.521 -1.31989 4.23195 0
M  V30 1288 H 117.741 -0.0478198 0.669294 0
M  V30 1289 H 120.285 0.499346 1.9831 0
M  V30 1290 H 118.44 -1.36227 3.62658 0
M  V30 1291 H 118.854 0.15037 5.24284 0
M  V30 1292 H 120.328 -1.55902 5.29527 0
M  V30 1293 H 120.805 -2.27436 3.75725 0
M  V30 1294 H 121.411 -0.662154 4.20114 0
M  V30 1295 N 119.726 -1.57421 0.075193 0
M  V30 1296 C 120.673 -2.12915 -0.890843 0
M  V30 1297 C 121.643 -1.04252 -1.29309 0
M  V30 1298 O 122.828 -1.31933 -1.37834 0
M  V30 1299 C 119.968 -2.69795 -2.15186 0
M  V30 1300 C 119.081 -3.92624 -1.80194 0
M  V30 1301 C 118.216 -4.37736 -3.00933 0
M  V30 1302 C 117.255 -5.53205 -2.61974 0
M  V30 1303 N 116.392 -5.9326 -3.75483 0
M  V30 1304 H 121.232 -2.95156 -0.410735 0
M  V30 1305 H 118.769 -1.45854 -0.191086 0
M  V30 1306 H 120.727 -3.00883 -2.89008 0
M  V30 1307 H 119.357 -1.90313 -2.60731 0
M  V30 1308 H 118.409 -3.67977 -0.964218 0
M  V30 1309 H 119.721 -4.76482 -1.47534 0
M  V30 1310 H 118.875 -4.70503 -3.8303 0
M  V30 1311 H 117.614 -3.52739 -3.36789 0
M  V30 1312 H 116.619 -5.20086 -1.783 0
M  V30 1313 H 117.844 -6.39936 -2.27284 0
M  V30 1314 H 115.79 -5.11212 -4.11094 0
M  V30 1315 H 115.707 -6.71865 -3.46602 0
M  V30 1316 H 116.975 -6.30651 -4.58148 0
M  V30 1317 N 121.204 0.198386 -1.56346 0
M  V30 1318 C 122.429 0.939682 -1.84891 0
M  V30 1319 C 122.854 1.76202 -0.658369 0
M  V30 1320 O 122.212 1.76993 0.392851 0
M  V30 1321 C 122.26 1.81428 -3.11635 0
M  V30 1322 O 121.364 2.91265 -2.91956 0
M  V30 1323 H 120.705 0.264807 -0.608912 0
M  V30 1324 H 123.235 0.204695 -2.03573 0
M  V30 1325 H 123.245 2.21958 -3.42343 0
M  V30 1326 H 121.92 1.21004 -3.97908 0
M  V30 1327 H 120.497 2.54514 -2.72538 0
M  V30 1328 N 122.682 1.50554 0.465978 0
M  V30 1329 C 123.931 1.61038 1.21448 0
M  V30 1330 C 124.244 0.31865 1.92987 0
M  V30 1331 O 125.45 0.302469 2.6981 0
M  V30 1332 C 123.906 2.84283 2.20706 0
M  V30 1333 C 123.514 4.20352 1.54946 0
M  V30 1334 C 125.258 3.04115 2.96166 0
M  V30 1335 C 123.165 5.34778 2.5252 0
M  V30 1336 H 122.095 0.599718 0.457005 0
M  V30 1337 H 124.746 1.7699 0.484424 0
M  V30 1338 H 123.128 2.61901 2.97025 0
M  V30 1339 H 124.302 4.53008 0.843811 0
M  V30 1340 H 122.617 4.06167 0.917475 0
M  V30 1341 H 125.214 3.86774 3.69202 0
M  V30 1342 H 125.557 2.16045 3.55852 0
M  V30 1343 H 126.09 3.26702 2.26959 0
M  V30 1344 H 122.829 6.25018 1.97566 0
M  V30 1345 H 122.349 5.06534 3.21222 0
M  V30 1346 H 124.028 5.65561 3.14245 0
M  V30 1347 N 124.16 -0.719506 1.40217 0
M  V30 1348 C 125.406 -1.48152 1.38488 0
M  V30 1349 C 125.739 -1.94195 -0.0141867 0
M  V30 1350 O 125.014 -1.67884 -0.982096 0
M  V30 1351 C 125.297 -2.71035 2.37091 0
M  V30 1352 C 125.15 -2.30912 3.86005 0
M  V30 1353 C 126.469 -3.73182 2.33288 0
M  V30 1354 H 123.588 -0.537395 0.504357 0
M  V30 1355 H 126.23 -0.821472 1.71324 0
M  V30 1356 H 124.38 -3.27352 2.0922 0
M  V30 1357 H 126.052 -1.80107 4.24687 0
M  V30 1358 H 124.295 -1.62958 4.02029 0
M  V30 1359 H 124.966 -3.18978 4.50508 0
M  V30 1360 H 127.442 -3.26485 2.57966 0
M  V30 1361 H 126.318 -4.56806 3.04334 0
M  V30 1362 H 126.579 -4.21202 1.34317 0
M  V30 1363 N 125.638 -1.25649 -0.95132 0
M  V30 1364 C 126.866 -1.13343 -1.73092 0
M  V30 1365 C 127.281 0.312434 -1.86197 0
M  V30 1366 O 126.638 1.21465 -1.36207 0
M  V30 1367 C 126.689 -1.78602 -3.14299 0
M  V30 1368 O 126.41 -3.17537 -3.01831 0
M  V30 1369 C 127.911 -1.72119 -4.08522 0
M  V30 1370 H 125.131 -0.395181 -0.542285 0
M  V30 1371 H 127.675 -1.66076 -1.19328 0
M  V30 1372 H 125.83 -1.29832 -3.64996 0
M  V30 1373 H 126.244 -3.49676 -3.90931 0
M  V30 1374 H 127.718 -2.22435 -5.052 0
M  V30 1375 H 128.195 -0.685635 -4.33815 0
M  V30 1376 H 128.801 -2.20393 -3.63741 0
M  V30 1377 N 127.117 1.15442 -1.07289 0
M  V30 1378 C 128.047 2.22312 -0.714107 0
M  V30 1379 C 129.028 1.67467 0.298155 0
M  V30 1380 O 130.213 1.93445 0.171048 0
M  V30 1381 C 127.343 3.47124 -0.110448 0
M  V30 1382 C 126.297 4.14926 -1.04979 0
M  V30 1383 C 125.623 5.33807 -0.308924 0
M  V30 1384 C 126.923 4.64762 -2.38314 0
M  V30 1385 H 128.617 2.5258 -1.6076 0
M  V30 1386 H 126.163 1.21404 -0.77441 0
M  V30 1387 H 128.116 4.21124 0.152482 0
M  V30 1388 H 126.84 3.16187 0.81812 0
M  V30 1389 H 125.499 3.42866 -1.29764 0
M  V30 1390 H 125.147 4.99126 0.623084 0
M  V30 1391 H 124.847 5.80113 -0.935036 0
M  V30 1392 H 126.371 6.10576 -0.0537771 0
M  V30 1393 H 127.785 5.30292 -2.1786 0
M  V30 1394 H 126.182 5.21728 -2.96514 0
M  V30 1395 H 127.252 3.80434 -3.00663 0
M  V30 1396 N 128.595 0.856903 1.32268 0
M  V30 1397 C 129.527 0.260412 2.27716 0
M  V30 1398 C 130.54 -0.569137 1.52528 0
M  V30 1399 O 131.729 -0.39326 1.74114 0
M  V30 1400 C 128.829 -0.650477 3.32599 0
M  V30 1401 C 128.002 0.14372 4.37164 0
M  V30 1402 C 127.061 -0.69328 5.21613 0
M  V30 1403 O 126.087 -0.12599 5.69061 0
M  V30 1404 N 127.289 -2.00761 5.44679 0
M  V30 1405 H 130.054 1.08059 2.79541 0
M  V30 1406 H 127.615 0.717103 1.45152 0
M  V30 1407 H 129.607 -1.21581 3.86005 0
M  V30 1408 H 128.177 -1.37133 2.80915 0
M  V30 1409 H 127.397 0.890486 3.8401 0
M  V30 1410 H 128.685 0.68915 5.04111 0
M  V30 1411 H 128.083 -2.49181 5.07863 0
M  V30 1412 H 126.64 -2.52103 6.01072 0
M  V30 1413 N 130.073 -1.45103 0.615059 0
M  V30 1414 C 131.489 -1.57137 0.279322 0
M  V30 1415 C 131.689 -1.60523 -1.21797 0
M  V30 1416 O 130.745 -1.53956 -2.00134 0
M  V30 1417 C 132.058 -2.85062 0.957083 0
M  V30 1418 C 133.606 -2.98749 0.933706 0
M  V30 1419 C 134.081 -4.29455 1.59162 0
M  V30 1420 N 135.572 -4.36231 1.55746 0
M  V30 1421 C 136.307 -5.36051 2.0356 0
M  V30 1422 N 135.803 -6.42367 2.59494 0
M  V30 1423 N 137.596 -5.27456 1.94284 0
M  V30 1424 H 129.747 -1.41148 1.58717 0
M  V30 1425 H 132.01 -0.675331 0.665306 0
M  V30 1426 H 131.716 -2.88488 2.01166 0
M  V30 1427 H 131.59 -3.7407 0.48494 0
M  V30 1428 H 133.977 -2.94886 -0.112347 0
M  V30 1429 H 134.058 -2.11132 1.44419 0
M  V30 1430 H 133.702 -4.34077 2.63704 0
M  V30 1431 H 133.632 -5.15901 1.0561 0
M  V30 1432 H 136.123 -3.60011 1.14893 0
M  V30 1433 H 136.436 -7.14793 2.93752 0
M  V30 1434 H 134.781 -6.43097 2.63537 0
M  V30 1435 H 137.972 -4.43308 1.5032 0
M  V30 1436 H 138.145 -6.05099 2.3186 0
M  V30 1437 N 131.551 -0.354651 -1.53558 0
M  V30 1438 C 132.799 0.237972 -2.00694 0
M  V30 1439 C 133.12 1.50173 -1.24391 0
M  V30 1440 O 132.39 1.92673 -0.354135 0
M  V30 1441 H 130.97 0.0909256 -0.741446 0
M  V30 1442 H 133.632 -0.478368 -1.88938 0
M  V30 1443 H 132.728 0.47264 -3.085 0
M  V30 1444 N 133.029 1.57378 -0.0835403 0
M  V30 1445 C 134.254 1.98682 0.594987 0
M  V30 1446 C 134.679 0.961969 1.61641 0
M  V30 1447 O 134.037 -0.0709989 1.81161 0
M  V30 1448 C 134.085 3.38988 1.2296 0
M  V30 1449 O 133.189 3.39208 2.34546 0
M  V30 1450 H 132.53 0.646368 0.152002 0
M  V30 1451 H 135.06 2.03961 -0.161533 0
M  V30 1452 H 135.07 3.76431 1.57366 0
M  V30 1453 H 133.745 4.13107 0.481228 0
M  V30 1454 H 132.322 3.13548 2.01846 0
M  V30 1455 N 134.507 -0.190092 1.56449 0
M  V30 1456 C 135.437 -1.23816 1.97969 0
M  V30 1457 C 136.418 -1.47201 0.852395 0
M  V30 1458 O 137.603 -1.58854 1.1171 0
M  V30 1459 C 134.733 -2.5813 2.3235 0
M  V30 1460 C 133.687 -2.49348 3.47864 0
M  V30 1461 C 133.013 -3.8798 3.67934 0
M  V30 1462 C 134.313 -2.01424 4.81898 0
M  V30 1463 H 136.007 -0.89311 2.85769 0
M  V30 1464 H 133.553 -0.428177 1.37487 0
M  V30 1465 H 135.506 -3.31637 2.59991 0
M  V30 1466 H 134.23 -2.94386 1.41438 0
M  V30 1467 H 132.889 -1.78297 3.20321 0
M  V30 1468 H 132.537 -4.21597 2.74344 0
M  V30 1469 H 132.237 -3.82978 4.45648 0
M  V30 1470 H 133.761 -4.63101 3.97957 0
M  V30 1471 H 135.175 -2.64693 5.08538 0
M  V30 1472 H 133.572 -2.07413 5.63116 0
M  V30 1473 H 134.642 -0.967677 4.75146 0
M  V30 1474 N 135.985 -1.50799 -0.457987 0
M  V30 1475 C 136.933 -1.71162 -1.575 0
M  V30 1476 C 137.927 -0.577592 -1.59249 0
M  V30 1477 O 139.133 -0.758443 -1.63241 0
M  V30 1478 H 135.508 -0.540468 -0.522875 0
M  V30 1479 H 137.479 -2.64837 -1.37492 0
M  V30 1480 C 136.228 -1.83496 -2.95338 0
M  V30 1481 H 135.551 -2.70153 -2.94716 0
M  V30 1482 H 136.991 -2.01765 -3.72917 0
M  V30 1483 C 135.45 -0.589694 -3.31699 0
M  V30 1484 O 135.98 0.265163 -4.00824 0
M  V30 1485 N 134.186 -0.439845 -2.87252 0
M  V30 1486 H 133.733 -1.13655 -2.31172 0
M  V30 1487 H 133.691 0.392159 -3.11945 0
M  V30 1488 N 137.463 0.71206 -1.40597 0
M  V30 1489 C 138.395 1.83704 -1.37061 0
M  V30 1490 C 139.408 1.60453 -0.275426 0
M  V30 1491 O 140.597 1.70262 -0.53602 0
M  V30 1492 C 137.697 3.20172 -1.11099 0
M  V30 1493 C 136.87 3.7059 -2.3234 0
M  V30 1494 C 135.929 4.85681 -2.02485 0
M  V30 1495 O 134.955 4.9815 -2.75382 0
M  V30 1496 N 136.157 5.71735 -1.00497 0
M  V30 1497 H 138.922 1.87235 -2.34016 0
M  V30 1498 H 136.483 0.893739 -1.34996 0
M  V30 1499 H 138.475 3.94768 -0.891064 0
M  V30 1500 H 137.045 3.11767 -0.227989 0
M  V30 1501 H 136.265 2.87085 -2.7014 0
M  V30 1502 H 137.553 4.01011 -3.13157 0
M  V30 1503 H 136.951 5.64275 -0.401298 0
M  V30 1504 H 135.508 6.463 -0.844942 0
M  V30 1505 N 138.941 1.26152 0.944643 0
M  V30 1506 C 140.187 1.11657 1.69294 0
M  V30 1507 C 140.52 -0.339926 1.91202 0
M  V30 1508 O 139.795 -1.24994 1.49019 0
M  V30 1509 C 140.078 1.88236 3.06984 0
M  V30 1510 C 139.931 3.41772 2.92424 0
M  V30 1511 C 141.25 1.67343 4.07043 0
M  V30 1512 H 138.369 0.407004 0.614424 0
M  V30 1513 H 141.011 1.55106 1.09737 0
M  V30 1514 H 139.161 1.51308 3.57824 0
M  V30 1515 H 140.833 3.88433 2.48832 0
M  V30 1516 H 139.076 3.68974 2.28124 0
M  V30 1517 H 139.747 3.90579 3.90067 0
M  V30 1518 H 142.223 1.99509 3.65151 0
M  V30 1519 H 141.099 2.23346 5.01406 0
M  V30 1520 H 141.36 0.617158 4.37771 0
M  V30 1521 N 140.419 -1.14872 1.07899 0
M  V30 1522 C 141.351 -2.19425 0.662231 0
M  V30 1523 C 142.364 -1.60231 -0.288079 0
M  V30 1524 O 143.553 -1.78336 -0.076534 0
M  V30 1525 C 140.653 -3.38867 -0.0470695 0
M  V30 1526 C 139.826 -4.27597 0.920831 0
M  V30 1527 C 138.885 -5.25616 0.247805 0
M  V30 1528 O 137.911 -5.62189 0.890599 0
M  V30 1529 N 139.113 -5.71746 -1.00435 0
M  V30 1530 H 141.878 -2.55797 1.56166 0
M  V30 1531 H 139.439 -1.30042 0.964404 0
M  V30 1532 H 141.431 -4.01497 -0.50813 0
M  V30 1533 H 140.001 -3.00864 -0.848523 0
M  V30 1534 H 139.221 -3.61982 1.56087 0
M  V30 1535 H 140.509 -4.83748 1.57688 0
M  V30 1536 H 139.907 -5.44153 -1.54642 0
M  V30 1537 H 138.464 -6.36389 -1.40899 0
M  V30 1538 N 141.898 -0.863906 -1.31812 0
M  V30 1539 C 143.314 -0.555004 -1.49639 0
M  V30 1540 C 143.514 0.912266 -1.79666 0
M  V30 1541 O 142.57 1.69479 -1.87171 0
M  V30 1542 C 143.883 -1.44998 -2.63431 0
M  V30 1543 C 145.431 -1.45138 -2.77316 0
M  V30 1544 C 145.906 -2.33179 -3.94197 0
M  V30 1545 N 147.397 -2.31025 -4.01474 0
M  V30 1546 C 148.132 -2.95871 -4.9117 0
M  V30 1547 N 147.628 -3.69863 -5.8581 0
M  V30 1548 N 149.421 -2.85211 -4.84367 0
M  V30 1549 H 141.572 -1.81339 -1.10589 0
M  V30 1550 H 143.835 -0.77505 -0.545895 0
M  V30 1551 H 143.541 -2.49377 -2.48 0
M  V30 1552 H 143.415 -1.14409 -3.59431 0
M  V30 1553 H 145.802 -0.415201 -2.92164 0
M  V30 1554 H 145.883 -1.79747 -1.82001 0
M  V30 1555 H 145.527 -3.3687 -3.80107 0
M  V30 1556 H 145.457 -1.95897 -4.88807 0
M  V30 1557 H 147.948 -1.77238 -3.33759 0
M  V30 1558 H 148.261 -4.16486 -6.50968 0
M  V30 1559 H 146.606 -3.73971 -5.85808 0
M  V30 1560 H 149.797 -2.26948 -4.09405 0
M  V30 1561 H 149.97 -3.36027 -5.54066 0
M  V30 1562 N 143.376 1.44774 -0.622745 0
M  V30 1563 C 144.622 2.02968 -0.13257 0
M  V30 1564 C 144.977 1.48047 1.22881 0
M  V30 1565 O 144.27 0.651625 1.80179 0
M  V30 1566 C 144.464 3.57364 -0.0508323 0
M  V30 1567 C 144.293 4.27262 -1.40275 0
M  V30 1568 C 143.063 4.64577 -1.98737 0
M  V30 1569 C 145.261 4.58248 -2.3348 0
M  V30 1570 N 143.243 5.19404 -3.27251 0
M  V30 1571 C 144.614 5.14069 -3.46603 0
M  V30 1572 C 146.669 4.40195 -2.32664 0
M  V30 1573 C 145.372 5.53738 -4.59093 0
M  V30 1574 C 147.398 4.80907 -3.44213 0
M  V30 1575 C 146.76 5.36834 -4.56058 0
M  V30 1576 H 142.859 0.776541 -0.0922354 0
M  V30 1577 H 145.443 1.76385 -0.82441 0
M  V30 1578 H 143.614 3.83576 0.610265 0
M  V30 1579 H 145.346 4.02219 0.447397 0
M  V30 1580 H 142.101 4.48622 -1.51774 0
M  V30 1581 H 142.525 5.51301 -3.92933 0
M  V30 1582 H 147.167 3.96257 -1.47446 0
M  V30 1583 H 144.885 5.96635 -5.45025 0
M  V30 1584 H 148.471 4.68659 -3.44747 0
M  V30 1585 H 147.351 5.67755 -5.40947 0
M  V30 1586 N 144.854 0.36279 1.53368 0
M  V30 1587 C 146.131 -0.284021 1.93527 0
M  V30 1588 C 146.511 -1.66628 1.29608 0
M  V30 1589 O 145.859 -2.23942 0.45413 0
M  V30 1590 C 146.069 -0.337028 3.47369 0
M  V30 1591 C 147.417 -0.578708 4.20638 0
M  V30 1592 O 148.441 -0.418352 3.53735 0
M  V30 1593 O 147.3 -0.89074 5.39192 0
M  V30 1594 H 144.394 -0.169743 0.809393 0
M  V30 1595 H 146.94 0.41537 1.64538 0
M  V30 1596 H 145.712 0.632217 3.86159 0
M  V30 1597 H 145.335 -1.08243 3.82582 0
M  V30 1598 N 146.332 -1.57332 0.0918853 0
M  V30 1599 C 147.58 -1.93853 -0.571446 0
M  V30 1600 C 147.901 -0.974212 -1.6892 0
M  V30 1601 O 147.171 -0.0257254 -1.95883 0
M  V30 1602 H 145.751 -0.715666 -0.214082 0
M  V30 1603 H 148.413 -1.94287 0.154464 0
M  V30 1604 H 147.509 -2.96191 -0.983729 0
M  V30 1605 N 147.81 0.181792 -1.56548 0
M  V30 1606 C 148.757 1.22521 -1.95595 0
M  V30 1607 C 149.727 1.4454 -0.818373 0
M  V30 1608 O 150.912 1.57454 -1.07763 0
M  V30 1609 C 148.052 2.56193 -2.31212 0
M  V30 1610 C 147.165 2.41641 -3.58097 0
M  V30 1611 C 146.3 3.68108 -3.82975 0
M  V30 1612 C 145.339 3.48445 -5.03242 0
M  V30 1613 N 144.476 4.66956 -5.24306 0
M  V30 1614 H 149.316 0.885226 -2.84548 0
M  V30 1615 H 146.853 0.425718 -1.40805 0
M  V30 1616 H 148.811 3.34088 -2.49882 0
M  V30 1617 H 147.441 2.88208 -1.45382 0
M  V30 1618 H 146.493 1.54976 -3.474 0
M  V30 1619 H 147.805 2.23052 -4.46149 0
M  V30 1620 H 146.959 4.54441 -4.01956 0
M  V30 1621 H 145.698 3.89666 -2.93278 0
M  V30 1622 H 144.703 2.60499 -4.8417 0
M  V30 1623 H 145.928 3.2832 -5.9446 0
M  V30 1624 H 143.874 4.88752 -4.37559 0
M  V30 1625 H 143.791 4.51242 -6.06561 0
M  V30 1626 H 145.059 5.54602 -5.47756 0
M  V30 1627 N 149.288 1.51039 0.449983 0
M  V30 1628 C 150.198 1.74261 1.57067 0
M  V30 1629 C 151.214 0.626363 1.62335 0
M  V30 1630 O 152.39 0.907162 1.79812 0
M  V30 1631 C 149.455 1.85114 2.93144 0
M  V30 1632 C 148.516 3.0893 2.98095 0
M  V30 1633 C 147.749 3.19256 4.27681 0
M  V30 1634 O 147.972 2.35835 5.19363 0
M  V30 1635 O 146.906 4.12144 4.38658 0
M  V30 1636 H 150.732 2.69303 1.40391 0
M  V30 1637 H 148.317 1.35389 0.631688 0
M  V30 1638 H 150.199 1.94311 3.73926 0
M  V30 1639 H 148.874 0.932588 3.09975 0
M  V30 1640 H 147.781 3.0522 2.16314 0
M  V30 1641 H 149.114 4.00433 2.86206 0
M  V30 1642 N 150.766 -0.704594 1.40972 0
M  V30 1643 C 151.994 -1.49354 1.43182 0
M  V30 1644 C 152.409 -1.88768 0.0345508 0
M  V30 1645 O 151.766 -1.56184 -0.944081 0
M  V30 1646 C 151.817 -2.76187 2.33244 0
M  V30 1647 O 151.538 -2.38436 3.67532 0
M  V30 1648 C 153.039 -3.7 2.44162 0
M  V30 1649 H 150.259 -0.460559 0.487982 0
M  V30 1650 H 152.803 -0.868261 1.85153 0
M  V30 1651 H 150.958 -3.34974 1.94606 0
M  V30 1652 H 151.372 -3.20126 4.15475 0
M  V30 1653 H 152.846 -4.55803 3.11364 0
M  V30 1654 H 153.323 -4.13867 1.47006 0
M  V30 1655 H 153.929 -3.17121 2.83398 0
M  V30 1656 N 152.244 -1.26651 -0.937939 0
M  V30 1657 C 153.472 -1.15173 -1.7188 0
M  V30 1658 C 153.887 0.292668 -1.86518 0
M  V30 1659 O 153.244 1.20014 -1.37488 0
M  V30 1660 C 153.295 -1.81925 -3.12387 0
M  V30 1661 O 153.016 -3.2072 -2.98446 0
M  V30 1662 C 154.517 -1.76442 -4.06673 0
M  V30 1663 H 151.737 -0.400911 -0.538063 0
M  V30 1664 H 154.281 -1.67332 -1.1756 0
M  V30 1665 H 152.436 -1.33696 -3.63599 0
M  V30 1666 H 152.85 -3.53802 -3.872 0
M  V30 1667 H 154.324 -2.27781 -5.02812 0
M  V30 1668 H 154.801 -0.731608 -4.33064 0
M  V30 1669 H 155.407 -2.24238 -3.61382 0
M  V30 1670 N 153.722 1.14298 -1.08507 0
M  V30 1671 C 154.971 1.84708 -0.810305 0
M  V30 1672 C 155.284 1.83903 0.666271 0
M  V30 1673 O 156.49 2.50112 1.05624 0
M  V30 1674 C 154.946 3.31572 -1.39957 0
M  V30 1675 C 154.554 3.40791 -2.90801 0
M  V30 1676 C 156.298 4.07087 -1.20334 0
M  V30 1677 C 154.205 4.81872 -3.4286 0
M  V30 1678 H 153.135 0.691985 -0.299454 0
M  V30 1679 H 155.786 1.28841 -1.30661 0
M  V30 1680 H 154.168 3.87183 -0.830976 0
M  V30 1681 H 155.342 2.95225 -3.53806 0
M  V30 1682 H 153.657 2.78732 -3.0935 0
M  V30 1683 H 156.254 5.11225 -1.56693 0
M  V30 1684 H 156.597 4.16054 -0.143237 0
M  V30 1685 H 157.13 3.57779 -1.73893 0
M  V30 1686 H 153.869 4.78094 -4.48449 0
M  V30 1687 H 153.389 5.27972 -2.84615 0
M  V30 1688 H 155.068 5.50765 -3.39509 0
M  V30 1689 N 155.201 0.870884 1.31352 0
M  V30 1690 C 156.148 0.325425 2.28494 0
M  V30 1691 C 157.118 -0.576615 1.5577 0
M  V30 1692 O 158.303 -0.508059 1.83911 0
M  V30 1693 C 155.443 -0.466283 3.41935 0
M  V30 1694 C 154.556 0.463378 4.29508 0
M  V30 1695 C 153.691 -0.342544 5.30094 0
M  V30 1696 C 152.73 0.583486 6.09313 0
M  V30 1697 N 151.867 -0.186244 7.01853 0
M  V30 1698 H 156.707 1.15901 2.74538 0
M  V30 1699 H 154.244 0.58294 1.35056 0
M  V30 1700 H 156.202 -0.941085 4.06447 0
M  V30 1701 H 154.832 -1.26456 2.97 0
M  V30 1702 H 153.884 1.05663 3.65431 0
M  V30 1703 H 155.196 1.1734 4.84802 0
M  V30 1704 H 154.35 -0.879816 6.00287 0
M  V30 1705 H 153.089 -1.08585 4.75458 0
M  V30 1706 H 152.094 1.13251 5.3801 0
M  V30 1707 H 153.319 1.32566 6.66035 0
M  V30 1708 H 151.265 -0.912348 6.49625 0
M  V30 1709 H 151.182 0.464422 7.54572 0
M  V30 1710 H 152.45 -0.704716 7.76308 0
M  V30 1711 N 156.679 -1.44442 0.630414 0
M  V30 1712 C 158.095 -1.56832 0.295973 0
M  V30 1713 C 158.295 -1.61806 -1.20088 0
M  V30 1714 O 157.351 -1.5607 -1.9849 0
M  V30 1715 C 158.664 -2.84031 0.987264 0
M  V30 1716 C 160.212 -2.97742 0.96534 0
M  V30 1717 C 160.687 -4.27743 1.63708 0
M  V30 1718 N 162.178 -4.34555 1.60364 0
M  V30 1719 C 162.913 -5.33862 2.09234 0
M  V30 1720 N 162.409 -6.39578 2.66292 0
M  V30 1721 N 164.202 -5.25366 1.99867 0
M  V30 1722 H 156.353 -1.39457 1.60205 0
M  V30 1723 H 158.616 -0.668237 0.672431 0
M  V30 1724 H 158.322 -2.86338 2.04215 0
M  V30 1725 H 158.196 -3.73534 0.524588 0
M  V30 1726 H 160.583 -2.94989 -0.0810639 0
M  V30 1727 H 160.664 -2.09589 1.4665 0
M  V30 1728 H 160.308 -4.31255 2.68293 0
M  V30 1729 H 160.238 -5.14752 1.11076 0
M  V30 1730 H 162.729 -3.58772 1.18705 0
M  V30 1731 H 163.042 -7.11637 3.01317 0
M  V30 1732 H 161.387 -6.40265 2.70343 0
M  V30 1733 H 164.578 -4.41688 1.55013 0
M  V30 1734 H 164.751 -6.02606 2.38265 0
M  V30 1735 N 158.157 -0.370918 -1.53173 0
M  V30 1736 C 159.104 0.473035 -2.259 0
M  V30 1737 C 160.074 1.07311 -1.26781 0
M  V30 1738 O 161.259 1.1046 -1.55574 0
M  V30 1739 C 158.399 1.60405 -3.05556 0
M  V30 1740 C 157.512 1.02863 -4.19575 0
M  V30 1741 C 156.647 2.12918 -4.86661 0
M  V30 1742 C 155.686 1.52869 -5.92704 0
M  V30 1743 N 154.823 2.56779 -6.53459 0
M  V30 1744 H 159.663 -0.153649 -2.97604 0
M  V30 1745 H 157.2 -0.0875946 -1.46839 0
M  V30 1746 H 159.158 2.27034 -3.50016 0
M  V30 1747 H 157.788 2.20131 -2.36097 0
M  V30 1748 H 156.84 0.252465 -3.79561 0
M  V30 1749 H 158.152 0.549642 -4.95762 0
M  V30 1750 H 157.306 2.87356 -5.34333 0
M  V30 1751 H 156.045 2.6417 -4.09958 0
M  V30 1752 H 155.05 0.769479 -5.44389 0
M  V30 1753 H 156.275 1.02435 -6.7133 0
M  V30 1754 H 154.221 3.07235 -5.79606 0
M  V30 1755 H 154.138 2.13583 -7.25202 0
M  V30 1756 H 155.406 3.30903 -7.05779 0
M  V30 1757 N 159.635 1.57281 -0.100228 0
M  V30 1758 C 160.565 2.17328 0.853857 0
M  V30 1759 C 161.546 1.10804 1.2906 0
M  V30 1760 O 162.731 1.38963 1.35657 0
M  V30 1761 C 159.861 2.75772 2.11109 0
M  V30 1762 C 158.815 3.87713 1.81279 0
M  V30 1763 C 158.141 4.32882 3.13874 0
M  V30 1764 C 159.441 5.10677 1.09574 0
M  V30 1765 H 161.135 2.97305 0.353545 0
M  V30 1766 H 158.681 1.43009 0.168612 0
M  V30 1767 H 160.634 3.16433 2.78296 0
M  V30 1768 H 159.358 1.93057 2.63432 0
M  V30 1769 H 158.017 3.476 1.16489 0
M  V30 1770 H 157.665 3.47051 3.64095 0
M  V30 1771 H 157.365 5.08358 2.94696 0
M  V30 1772 H 158.889 4.7618 3.82211 0
M  V30 1773 H 160.303 5.48474 1.66879 0
M  V30 1774 H 158.7 5.91615 1.00557 0
M  V30 1775 H 159.77 4.84835 0.0793299 0
M  V30 1776 N 161.113 -0.173488 1.56642 0
M  V30 1777 C 162.359 -0.891784 1.8214 0
M  V30 1778 C 162.692 -1.8199 0.677736 0
M  V30 1779 O 161.967 -1.91842 -0.320446 0
M  V30 1780 C 162.25 -1.68933 3.18015 0
M  V30 1781 C 162.103 -0.784487 4.42906 0
M  V30 1782 C 163.422 -2.65748 3.50808 0
M  V30 1783 H 160.541 -0.322761 0.662567 0
M  V30 1784 H 163.183 -0.158095 1.89341 0
M  V30 1785 H 161.333 -2.31482 3.12007 0
M  V30 1786 H 163.005 -0.172046 4.60979 0
M  V30 1787 H 161.248 -0.0924117 4.33702 0
M  V30 1788 H 161.919 -1.37799 5.34524 0
M  V30 1789 H 164.395 -2.13327 3.57255 0
M  V30 1790 H 163.271 -3.18619 4.4696 0
M  V30 1791 H 163.532 -3.45842 2.75401 0
M  V30 1792 N 162.591 -1.51276 -0.441967 0
M  V30 1793 C 163.539 -1.72823 -1.55676 0
M  V30 1794 C 164.533 -0.59445 -1.58627 0
M  V30 1795 O 165.739 -0.775715 -1.62427 0
M  V30 1796 H 162.114 -0.545983 -0.517113 0
M  V30 1797 H 164.085 -2.6628 -1.34675 0
M  V30 1798 C 162.834 -1.86619 -2.93375 0
M  V30 1799 H 162.157 -2.73264 -2.91834 0
M  V30 1800 H 163.597 -2.05709 -3.70756 0
M  V30 1801 C 162.056 -0.624842 -3.31055 0
M  V30 1802 O 162.586 0.222636 -4.01083 0
M  V30 1803 N 160.792 -0.470288 -2.86769 0
M  V30 1804 H 160.339 -1.161 -2.29953 0
M  V30 1805 H 160.297 0.359051 -3.12343 0
M  V30 1806 N 164.069 0.697108 -1.41344 0
M  V30 1807 C 165.317 1.45426 -1.40341 0
M  V30 1808 C 165.638 1.94996 -0.0128787 0
M  V30 1809 O 164.908 1.71599 0.945027 0
M  V30 1810 H 163.488 0.539594 -0.516573 0
M  V30 1811 H 166.15 0.825201 -1.76569 0
M  V30 1812 H 165.246 2.31817 -2.08967 0
M  V30 1813 N 165.547 1.27147 0.931209 0
M  V30 1814 C 166.494 1.09568 2.03134 0
M  V30 1815 C 167.464 -0.00222433 1.661 0
M  V30 1816 O 168.649 0.159439 1.90133 0
M  V30 1817 C 165.789 0.745231 3.36957 0
M  V30 1818 C 164.902 1.92041 3.86968 0
M  V30 1819 C 164.037 1.51216 5.09222 0
M  V30 1820 C 163.076 2.65504 5.5152 0
M  V30 1821 N 162.213 2.25291 6.64972 0
M  V30 1822 H 167.053 2.03708 2.17502 0
M  V30 1823 H 164.59 1.01411 1.06556 0
M  V30 1824 H 166.548 0.522878 4.1391 0
M  V30 1825 H 165.178 -0.159202 3.22407 0
M  V30 1826 H 164.23 2.25541 3.06326 0
M  V30 1827 H 165.542 2.77787 4.1429 0
M  V30 1828 H 164.696 1.25084 5.93666 0
M  V30 1829 H 163.435 0.625749 4.83669 0
M  V30 1830 H 162.44 2.92354 4.65628 0
M  V30 1831 H 163.665 3.54761 5.7907 0
M  V30 1832 H 161.611 1.39098 6.41083 0
M  V30 1833 H 161.528 3.04577 6.91931 0
M  V30 1834 H 162.796 2.02398 7.52765 0
M  V30 1835 N 167.025 -1.13721 1.09112 0
M  V30 1836 C 167.958 -2.18094 0.67158 0
M  V30 1837 C 168.936 -1.59414 -0.320299 0
M  V30 1838 O 170.12 -1.87183 -0.222444 0
M  V30 1839 C 167.247 -3.38698 -0.0111189 0
M  V30 1840 C 166.293 -4.15966 0.942055 0
M  V30 1841 S 167.126 -4.7604 2.45246 0
M  V30 1842 C 168.282 -5.99994 1.78208 0
M  V30 1843 H 168.515 -2.53344 1.55577 0
M  V30 1844 H 166.048 -1.24967 0.906789 0
M  V30 1845 H 168.006 -4.08559 -0.398716 0
M  V30 1846 H 166.667 -3.01756 -0.871905 0
M  V30 1847 H 165.86 -5.02318 0.411396 0
M  V30 1848 H 165.462 -3.51745 1.2709 0
M  V30 1849 H 167.754 -6.68441 1.10424 0
M  V30 1850 H 168.697 -6.57662 2.62463 0
M  V30 1851 H 169.105 -5.50432 1.25238 0
M  V30 1852 N 168.503 -0.877838 -1.30888 0
M  V30 1853 C 169.749 -0.493426 -1.96706 0
M  V30 1854 C 170.082 0.953504 -1.6918 0
M  V30 1855 O 169.357 1.67266 -0.992594 0
M  V30 1856 C 169.64 -0.760429 -3.51979 0
M  V30 1857 C 169.493 -2.25747 -3.89048 0
M  V30 1858 C 170.812 -0.232148 -4.39487 0
M  V30 1859 H 167.931 -0.180746 -0.714493 0
M  V30 1860 H 170.573 -1.10052 -1.54882 0
M  V30 1861 H 168.723 -0.243715 -3.87735 0
M  V30 1862 H 170.395 -2.84204 -3.63354 0
M  V30 1863 H 168.638 -2.72694 -3.37373 0
M  V30 1864 H 169.309 -2.39491 -4.97341 0
M  V30 1865 H 171.785 -0.674314 -4.106 0
M  V30 1866 H 170.661 -0.448355 -5.47066 0
M  V30 1867 H 170.922 0.866297 -4.33529 0
M  V30 1868 N 169.982 1.44106 -0.638065 0
M  V30 1869 C 170.945 2.29138 0.0531013 0
M  V30 1870 C 171.945 1.41409 0.765506 0
M  V30 1871 O 173.135 1.63206 0.609046 0
M  V30 1872 C 170.267 3.23144 1.08584 0
M  V30 1873 H 171.46 2.91739 -0.694883 0
M  V30 1874 H 169.013 1.51134 -0.398538 0
M  V30 1875 H 169.748 2.65408 1.86357 0
M  V30 1876 H 169.533 3.87804 0.578852 0
M  V30 1877 H 171.023 3.87004 1.56899 0
M  V30 1878 N 171.46 0.379036 1.52974 0
M  V30 1879 C 172.37 -0.468639 2.29872 0
M  V30 1880 C 173.386 -1.08067 1.36373 0
M  V30 1881 O 174.562 -1.08871 1.69438 0
M  V30 1882 C 171.627 -1.58594 3.083 0
M  V30 1883 C 170.688 -1.00007 4.17489 0
M  V30 1884 C 169.921 -2.06413 4.92168 0
M  V30 1885 O 170.144 -3.27751 4.66835 0
M  V30 1886 O 169.078 -1.68717 5.7777 0
M  V30 1887 H 172.904 0.157508 3.03291 0
M  V30 1888 H 170.489 0.143035 1.48714 0
M  V30 1889 H 172.371 -2.23525 3.57232 0
M  V30 1890 H 171.046 -2.19724 2.37703 0
M  V30 1891 H 169.953 -0.314299 3.72777 0
M  V30 1892 H 171.286 -0.433135 4.90291 0
M  V30 1893 N 172.938 -1.57226 0.108567 0
M  V30 1894 C 174.178 -1.96717 -0.555155 0
M  V30 1895 C 174.542 -0.990003 -1.64508 0
M  V30 1896 O 175.743 -1.2739 -2.36696 0
M  V30 1897 C 174.014 -3.40575 -1.08367 0
M  V30 1898 S 175.573 -4.02072 -1.75737 0
M  V30 1899 H 172.391 -0.687638 -0.180762 0
M  V30 1900 H 174.993 -1.94563 0.191172 0
M  V30 1901 H 173.697 -4.0945 -0.279092 0
M  V30 1902 H 173.228 -3.46356 -1.86551 0
M  V30 1903 H 175.243 -3.91977 -3.04251 0
M  V30 1904 N 174.416 0.165178 -1.56732 0
M  V30 1905 C 175.363 1.2044 -1.96883 0
M  V30 1906 C 176.333 1.43664 -0.833657 0
M  V30 1907 O 177.518 1.56302 -1.09427 0
M  V30 1908 C 174.658 2.53727 -2.33916 0
M  V30 1909 C 173.771 2.3783 -3.6064 0
M  V30 1910 C 172.906 3.64026 -3.86857 0
M  V30 1911 C 171.945 3.43088 -5.06909 0
M  V30 1912 N 171.082 4.61369 -5.29229 0
M  V30 1913 H 175.922 0.854996 -2.85471 0
M  V30 1914 H 173.459 0.41076 -1.41249 0
M  V30 1915 H 175.417 3.31419 -2.53411 0
M  V30 1916 H 174.047 2.8665 -1.48431 0
M  V30 1917 H 173.099 1.51282 -3.49024 0
M  V30 1918 H 174.411 2.18308 -4.4849 0
M  V30 1919 H 173.565 4.50152 -4.06753 0
M  V30 1920 H 172.304 3.86533 -2.97394 0
M  V30 1921 H 171.309 2.55349 -4.86906 0
M  V30 1922 H 172.534 3.21997 -5.97909 0
M  V30 1923 H 170.48 4.84084 -4.42718 0
M  V30 1924 H 170.397 4.44783 -6.11313 0
M  V30 1925 H 171.665 5.48761 -5.53608 0
M  V30 1926 N 175.894 1.51508 0.433938 0
M  V30 1927 C 176.827 1.67756 1.54704 0
M  V30 1928 C 177.805 0.525127 1.53887 0
M  V30 1929 O 178.989 0.749393 1.72963 0
M  V30 1930 C 176.116 1.69424 2.9328 0
M  V30 1931 C 175.162 2.90673 3.12108 0
M  V30 1932 S 175.995 4.51431 2.88046 0
M  V30 1933 C 177.151 4.55849 4.28897 0
M  V30 1934 H 177.384 2.61904 1.40689 0
M  V30 1935 H 174.917 1.41235 0.62386 0
M  V30 1936 H 176.875 1.7107 3.73156 0
M  V30 1937 H 175.536 0.764464 3.04655 0
M  V30 1938 H 174.729 2.88251 4.13434 0
M  V30 1939 H 174.331 2.86786 2.40062 0
M  V30 1940 H 176.623 4.31699 5.22152 0
M  V30 1941 H 177.566 5.57676 4.36351 0
M  V30 1942 H 177.974 3.85137 4.12711 0
M  V30 1943 N 177.372 -0.689602 1.41712 0
M  V30 1944 C 178.319 -1.80345 1.44029 0
M  V30 1945 C 179.289 -1.63478 0.293948 0
M  V30 1946 O 180.474 -1.84244 0.495869 0
M  V30 1947 C 177.614 -3.18272 1.33405 0
M  V30 1948 C 176.727 -3.46529 2.57956 0
M  V30 1949 C 175.862 -4.74103 2.39582 0
M  V30 1950 C 174.901 -4.95347 3.5958 0
M  V30 1951 N 174.038 -6.14151 3.40239 0
M  V30 1952 H 178.878 -1.77698 2.39222 0
M  V30 1953 H 176.415 -0.867688 1.18784 0
M  V30 1954 H 178.373 -3.97956 1.25246 0
M  V30 1955 H 177.003 -3.2008 0.418164 0
M  V30 1956 H 176.055 -2.61207 2.76542 0
M  V30 1957 H 177.367 -3.58126 3.47199 0
M  V30 1958 H 176.521 -5.61853 2.28924 0
M  V30 1959 H 175.26 -4.64763 1.47805 0
M  V30 1960 H 174.265 -4.06044 3.70686 0
M  V30 1961 H 175.49 -5.06542 4.52318 0
M  V30 1962 H 173.436 -6.06013 2.51167 0
M  V30 1963 H 173.353 -6.26543 4.23061 0
M  V30 1964 H 174.621 -7.04619 3.33365 0
M  V30 1965 N 178.85 -1.27639 -0.924453 0
M  V30 1966 C 180.098 -1.13941 -1.66918 0
M  V30 1967 C 180.419 0.314589 -1.92446 0
M  V30 1968 O 179.689 1.21964 -1.53303 0
M  V30 1969 H 178.269 -0.418678 -0.618642 0
M  V30 1970 H 180.931 -1.60213 -1.10985 0
M  V30 1971 H 180.027 -1.67094 -2.63602 0
M  V30 1972 N 180.328 1.1314 -1.09713 0
M  V30 1973 C 181.574 1.84757 -0.836224 0
M  V30 1974 C 181.907 1.8347 0.636598 0
M  V30 1975 O 181.182 1.27491 1.46889 0
M  V30 1976 C 181.465 3.32782 -1.37578 0
M  V30 1977 C 181.318 3.42567 -2.91493 0
M  V30 1978 C 182.637 4.28307 -1.01198 0
M  V30 1979 H 179.756 0.67082 -0.305236 0
M  V30 1980 H 182.398 1.3278 -1.35903 0
M  V30 1981 H 180.548 3.77177 -0.931097 0
M  V30 1982 H 182.22 3.06862 -3.44432 0
M  V30 1983 H 180.463 2.83349 -3.28475 0
M  V30 1984 H 181.134 4.46674 -3.24324 0
M  V30 1985 H 183.61 3.91999 -1.39556 0
M  V30 1986 H 182.486 5.30307 -1.41653 0
M  V30 1987 H 182.747 4.42029 0.0794833 0
M  V30 1988 N 181.806 0.884767 1.30421 0
M  V30 1989 C 183.052 0.503851 1.96441 0
M  V30 1990 C 183.385 -0.944518 1.69684 0
M  V30 1991 O 182.66 -1.66737 1.00145 0
M  V30 1992 C 182.943 0.779085 3.51571 0
M  V30 1993 C 182.796 2.27807 3.87846 0
M  V30 1994 C 184.115 0.255452 4.39358 0
M  V30 1995 H 181.234 0.184533 0.713524 0
M  V30 1996 H 183.876 1.10872 1.54297 0
M  V30 1997 H 182.026 0.264274 3.876 0
M  V30 1998 H 183.698 2.86127 3.61841 0
M  V30 1999 H 181.941 2.74479 3.35922 0
M  V30 2000 H 182.612 2.42125 4.96064 0
M  V30 2001 H 185.088 0.696079 4.10236 0
M  V30 2002 H 183.964 0.477361 5.4682 0
M  V30 2003 H 184.225 -0.843293 4.33983 0
M  V30 2004 N 183.284 -1.43765 0.645699 0
M  V30 2005 C 184.524 -2.03776 0.159542 0
M  V30 2006 C 184.888 -1.49792 -1.2011 0
M  V30 2007 O 186.089 -2.01398 -1.78023 0
M  V30 2008 C 184.36 -3.57036 0.161251 0
M  V30 2009 S 185.919 -4.3804 -0.258159 0
M  V30 2010 H 182.737 -0.707717 0.0682454 0
M  V30 2011 H 185.339 -1.75941 0.852352 0
M  V30 2012 H 184.043 -3.9383 1.15439 0
M  V30 2013 H 183.574 -3.89503 -0.552339 0
M  V30 2014 H 185.589 -4.7302 -1.49889 0
M  V30 2015 N 184.763 -0.387143 -1.52771 0
M  V30 2016 C 185.991 0.195869 -2.05971 0
M  V30 2017 C 186.406 1.40691 -1.25903 0
M  V30 2018 O 185.763 1.79931 -0.305134 0
M  V30 2019 C 185.814 0.56812 -3.57008 0
M  V30 2020 O 185.535 -0.594803 -4.34043 0
M  V30 2021 C 187.036 1.20723 -4.26545 0
M  V30 2022 H 184.256 0.0300578 -0.670326 0
M  V30 2023 H 186.8 -0.551749 -1.96916 0
M  V30 2024 H 184.955 1.26564 -3.66143 0
M  V30 2025 H 185.369 -0.289322 -5.23701 0
M  V30 2026 H 186.843 1.41807 -5.33474 0
M  V30 2027 H 187.32 2.17395 -3.81623 0
M  V30 2028 H 187.926 0.550535 -4.21722 0
M  V30 2029 N 186.241 1.57166 -0.116904 0
M  V30 2030 C 187.657 1.5779 0.239693 0
M  V30 2031 C 187.857 1.1295 1.66867 0
M  V30 2032 O 186.913 0.81592 2.38954 0
M  V30 2033 C 188.226 3.00699 0.00828202 0
M  V30 2034 C 189.774 3.12912 0.0743438 0
M  V30 2035 C 190.249 4.57817 -0.129348 0
M  V30 2036 N 191.74 4.63139 -0.075247 0
M  V30 2037 C 192.475 5.73023 -0.207788 0
M  V30 2038 N 191.971 6.91665 -0.396382 0
M  V30 2039 N 193.764 5.61906 -0.14751 0
M  V30 2040 H 185.915 1.84615 -1.05029 0
M  V30 2041 H 188.178 0.85311 -0.41341 0
M  V30 2042 H 187.884 3.37784 -0.979531 0
M  V30 2043 H 187.758 3.69848 0.741077 0
M  V30 2044 H 190.145 2.75686 1.05268 0
M  V30 2045 H 190.226 2.4631 -0.690297 0
M  V30 2046 H 189.87 4.95742 -1.10465 0
M  V30 2047 H 189.8 5.22507 0.655253 0
M  V30 2048 H 192.291 3.7784 0.0670898 0
M  V30 2049 H 192.604 7.71255 -0.488437 0
M  V30 2050 H 190.949 6.93654 -0.432329 0
M  V30 2051 H 194.14 4.681 -0.00115036 0
M  V30 2052 H 194.313 6.47501 -0.254247 0
M  V30 2053 N 187.719 -0.156864 1.56817 0
M  V30 2054 C 188.968 -0.869504 1.81996 0
M  V30 2055 C 189.281 -1.82777 0.696545 0
M  V30 2056 O 190.487 -2.58384 0.833658 0
M  V30 2057 C 188.943 -1.59679 3.22538 0
M  V30 2058 C 188.551 -0.681431 4.42787 0
M  V30 2059 C 190.295 -2.2968 3.56997 0
M  V30 2060 C 188.202 -1.40978 5.74351 0
M  V30 2061 H 187.132 -0.328438 0.678708 0
M  V30 2062 H 189.783 -0.1223 1.83092 0
M  V30 2063 H 188.165 -2.38927 3.158 0
M  V30 2064 H 189.339 0.0751166 4.60739 0
M  V30 2065 H 187.654 -0.0903431 4.16302 0
M  V30 2066 H 190.251 -2.84794 4.52544 0
M  V30 2067 H 190.594 -3.05707 2.82576 0
M  V30 2068 H 191.127 -1.57361 3.65352 0
M  V30 2069 H 187.866 -0.691561 6.51842 0
M  V30 2070 H 187.386 -2.13929 5.60352 0
M  V30 2071 H 189.065 -1.95337 6.16808 0
M  V30 2072 N 189.197 -1.51736 -0.425897 0
M  V30 2073 C 190.427 -1.68549 -1.19476 0
M  V30 2074 C 190.835 -0.387288 -1.85194 0
M  V30 2075 O 190.178 0.645142 -1.71999 0
M  V30 2076 C 190.24 -2.75275 -2.31223 0
M  V30 2077 C 189.904 -4.17534 -1.8578 0
M  V30 2078 C 190.901 -5.01936 -1.35485 0
M  V30 2079 C 188.586 -4.6369 -1.93123 0
M  V30 2080 C 190.58 -6.30559 -0.931347 0
M  V30 2081 C 188.267 -5.92307 -1.50384 0
M  V30 2082 C 189.265 -6.75569 -1.00473 0
M  V30 2083 O 188.953 -8.0178 -0.583452 0
M  V30 2084 H 188.685 -0.568525 -0.365725 0
M  V30 2085 H 191.239 -1.98982 -0.509444 0
M  V30 2086 H 189.469 -2.40182 -3.03067 0
M  V30 2087 H 191.158 -2.80853 -2.93047 0
M  V30 2088 H 191.924 -4.67475 -1.29197 0
M  V30 2089 H 187.803 -3.98997 -2.30916 0
M  V30 2090 H 191.347 -6.95498 -0.541084 0
M  V30 2091 H 187.244 -6.2628 -1.56346 0
M  V30 2092 H 188.012 -8.1543 -0.708275 0
M  V30 2093 N 190.675 0.682077 -1.42076 0
M  V30 2094 C 191.585 1.82535 -1.47371 0
M  V30 2095 C 192.601 1.7017 -0.363079 0
M  V30 2096 O 193.777 1.91848 -0.612875 0
M  V30 2097 C 190.842 3.18624 -1.36674 0
M  V30 2098 C 189.903 3.42999 -2.58167 0
M  V30 2099 C 189.136 4.72595 -2.4797 0
M  V30 2100 O 189.359 5.50006 -1.5116 0
M  V30 2101 O 188.293 4.98054 -3.37974 0
M  V30 2102 H 192.119 1.81023 -2.43853 0
M  V30 2103 H 189.704 0.836887 -1.2376 0
M  V30 2104 H 191.586 3.99847 -1.33043 0
M  V30 2105 H 190.261 3.20789 -0.433138 0
M  V30 2106 H 189.168 2.61653 -2.67373 0
M  V30 2107 H 190.501 3.45659 -3.50401 0
M  V30 2108 N 192.153 1.28127 0.917671 0
M  V30 2109 C 193.1 1.11717 2.0196 0
M  V30 2110 C 194.07 0.0153929 1.66093 0
M  V30 2111 O 195.255 0.179596 1.89953 0
M  V30 2112 C 192.395 0.780927 3.36148 0
M  V30 2113 C 191.508 1.96135 3.84909 0
M  V30 2114 C 190.643 1.56609 5.0759 0
M  V30 2115 C 189.682 2.71339 5.48673 0
M  V30 2116 N 188.819 2.32332 6.62545 0
M  V30 2117 H 193.659 2.06003 2.15329 0
M  V30 2118 H 191.196 1.02535 1.05475 0
M  V30 2119 H 193.154 0.56675 4.13333 0
M  V30 2120 H 191.784 -0.124998 3.22558 0
M  V30 2121 H 190.836 2.28777 3.03916 0
M  V30 2122 H 192.148 2.82165 4.1132 0
M  V30 2123 H 191.302 1.31374 5.92305 0
M  V30 2124 H 190.041 0.677014 4.82978 0
M  V30 2125 H 189.046 2.97276 4.62501 0
M  V30 2126 H 190.271 3.60882 5.75274 0
M  V30 2127 H 188.217 1.45889 6.39572 0
M  V30 2128 H 188.134 3.11899 6.88662 0
M  V30 2129 H 189.402 2.10371 7.50576 0
M  V30 2130 N 193.631 -1.12557 1.10312 0
M  V30 2131 C 194.877 -1.84311 0.846011 0
M  V30 2132 C 195.21 -1.83805 -0.626859 0
M  V30 2133 O 194.485 -1.28268 -1.46211 0
M  V30 2134 C 194.768 -3.32048 1.39341 0
M  V30 2135 C 194.621 -3.41016 2.93305 0
M  V30 2136 C 195.94 -4.27764 1.03468 0
M  V30 2137 H 193.059 -0.669192 0.30879 0
M  V30 2138 H 195.701 -1.32057 1.36605 0
M  V30 2139 H 193.851 -3.76678 0.951087 0
M  V30 2140 H 195.523 -3.05031 3.46055 0
M  V30 2141 H 193.766 -2.81603 3.29973 0
M  V30 2142 H 194.437 -4.44948 3.26689 0
M  V30 2143 H 196.913 -3.91253 1.41633 0
M  V30 2144 H 195.789 -5.29549 1.44463 0
M  V30 2145 H 196.05 -4.42064 -0.0560404 0
M  V30 2146 O 195.148 -1.02442 -1.24852 0
M  V30 2147 H 195.839 -0.688008 -1.81069 0
M  V30 END ATOM
M  V30 BEGIN BOND
M  V30 END BOND
M  V30 END CTAB
M  END
$$$$
