drugbank_target|O60391 Glutamate receptor ionotropic, NMDA 3B (DB00193; DB00289; DB00312; DB00333; DB00418; DB00843; DB00874; DB01174; DB01708; DB04896; DB06738; DB11823)
 OpenBabel12092119343D

  0  0  0     0  0            999 V3000
M  V30 BEGIN CTAB
M  V30 COUNTS 16016 16235 0 0 0
M  V30 BEGIN ATOM
M  V30 1 H -0.908 1.98254 -0.117106 0
M  V30 2 N 0 1.576 0 0
M  V30 3 C 0.933 2.03868 1.02534 0
M  V30 4 C 1.911 0.928543 1.3348 0
M  V30 5 O 3.095 1.19667 1.45644 0
M  V30 6 C 0.222 2.43627 2.35294 0
M  V30 7 C -0.732 3.65373 2.2001 0
M  V30 8 S 0.101 5.13292 1.52614 0
M  V30 9 C 1.257 5.56322 2.86805 0
M  V30 10 H 1.49 2.90518 0.631377 0
M  V30 11 H -0.977 1.52953 0.210867 0
M  V30 12 H 0.981 2.67203 3.11629 0
M  V30 13 H -0.358 1.57376 2.7183 0
M  V30 14 H -1.165 3.90944 3.18086 0
M  V30 15 H -1.563 3.418 1.51819 0
M  V30 16 H 0.729 5.58782 3.83104 0
M  V30 17 H 1.672 6.56266 2.65933 0
M  V30 18 H 2.08 4.83886 2.90714 0
M  V30 19 N 1.4781 -0.272755 1.55222 0
M  V30 20 C 2.3881 -1.35918 1.91216 0
M  V30 21 C 3.4041 -1.54026 0.809436 0
M  V30 22 O 4.5801 -1.68148 1.10852 0
M  V30 23 C 1.6451 -2.69834 2.17693 0
M  V30 24 C 0.7061 -2.6047 3.41253 0
M  V30 25 C -0.0609 -3.88 3.66458 0
M  V30 26 O 0.1621 -4.88693 2.94169 0
M  V30 27 O -0.9039 -3.88189 4.59992 0
M  V30 28 H 2.9221 -1.0839 2.83699 0
M  V30 29 H 0.5071 -0.471301 1.41771 0
M  V30 30 H 2.3891 -3.49017 2.36147 0
M  V30 31 H 1.0641 -2.97148 1.28392 0
M  V30 32 H -0.0289 -1.79663 3.28134 0
M  V30 33 H 1.3041 -2.38106 4.30774 0
M  V30 34 N 2.9562 -1.48159 -0.537278 0
M  V30 35 C 4.2032 -1.55804 -1.29349 0
M  V30 36 C 4.5312 -0.228802 -1.9315 0
M  V30 37 O 3.7862 0.780242 -1.79473 0
M  V30 38 C 4.0852 -2.63956 -2.40961 0
M  V30 39 C 3.7512 -4.0662 -1.94861 0
M  V30 40 C 2.4132 -4.45452 -1.82006 0
M  V30 41 C 4.7652 -4.96055 -1.59933 0
M  V30 42 C 2.0932 -5.71531 -1.32547 0
M  V30 43 C 4.4452 -6.22617 -1.11939 0
M  V30 44 C 3.1092 -6.60312 -0.976951 0
M  V30 45 H 2.3792 -0.570129 -0.473322 0
M  V30 46 H 5.0262 -1.81845 -0.600372 0
M  V30 47 H 3.3312 -2.31747 -3.15912 0
M  V30 48 H 5.0282 -2.67089 -2.99107 0
M  V30 49 H 1.6182 -3.75949 -2.05815 0
M  V30 50 H 5.8022 -4.66738 -1.68728 0
M  V30 51 H 1.0582 -5.99468 -1.202 0
M  V30 52 H 5.2322 -6.91318 -0.839811 0
M  V30 53 H 2.8592 -7.57895 -0.591501 0
M  V30 54 N 4.4343 0.785586 -1.36625 0
M  V30 55 C 5.6803 1.54591 -1.31261 0
M  V30 56 C 6.0133 1.93906 0.106823 0
M  V30 57 O 5.2883 1.63007 1.06108 0
M  V30 58 C 5.5713 2.82038 -2.23889 0
M  V30 59 C 5.4243 2.49066 -3.74548 0
M  V30 60 C 6.7433 3.83887 -2.15217 0
M  V30 61 H 3.8623 0.560846 -0.478143 0
M  V30 62 H 6.5043 0.902278 -1.67209 0
M  V30 63 H 4.6543 3.36961 -1.93363 0
M  V30 64 H 6.3263 2.00164 -4.15611 0
M  V30 65 H 4.5693 1.81954 -3.93796 0
M  V30 66 H 5.2403 3.40109 -4.34776 0
M  V30 67 H 7.7163 3.38421 -2.42096 0
M  V30 68 H 6.5923 4.70806 -2.82193 0
M  V30 69 H 6.8533 4.27131 -1.14068 0
M  V30 70 N 5.9124 1.20967 1.01018 0
M  V30 71 C 7.3284 0.965905 1.27053 0
M  V30 72 C 7.5284 -0.350785 1.98423 0
M  V30 73 O 6.5844 -1.07773 2.28344 0
M  V30 74 C 7.8974 2.15294 2.09926 0
M  V30 75 C 9.4454 2.19463 2.23171 0
M  V30 76 C 9.9204 3.3767 3.09424 0
M  V30 77 N 11.4114 3.37724 3.17012 0
M  V30 78 C 12.1464 4.25837 3.83993 0
M  V30 79 N 11.6424 5.24138 4.53047 0
M  V30 80 N 13.4354 4.1366 3.80581 0
M  V30 81 H 5.5864 2.0565 0.531194 0
M  V30 82 H 7.8494 0.90024 0.297106 0
M  V30 83 H 7.5554 3.10684 1.64828 0
M  V30 84 H 7.4294 2.13923 3.10672 0
M  V30 85 H 9.8164 1.24632 2.6749 0
M  V30 86 H 9.8974 2.2488 1.21912 0
M  V30 87 H 9.5414 4.32791 2.65808 0
M  V30 88 H 9.4714 3.29491 4.10784 0
M  V30 89 H 11.9624 2.6658 2.6785 0
M  V30 90 H 12.2754 5.87684 5.01844 0
M  V30 91 H 10.6204 5.28068 4.5185 0
M  V30 92 H 13.8114 3.36127 3.25785 0
M  V30 93 H 13.9844 4.82538 4.32505 0
M  V30 94 N 7.3905 -1.2043 1.01659 0
M  V30 95 C 8.3535 -2.21433 0.591616 0
M  V30 96 C 9.3535 -1.57203 -0.338226 0
M  V30 97 O 10.5435 -1.73737 -0.126918 0
M  V30 98 C 7.6755 -3.40628 -0.136058 0
M  V30 99 H 8.8685 -2.60545 1.48514 0
M  V30 100 H 6.4215 -1.33893 0.806379 0
M  V30 101 H 7.1565 -3.07019 -1.04449 0
M  V30 102 H 6.9415 -3.88475 0.531917 0
M  V30 103 H 8.4315 -4.15475 -0.420735 0
M  V30 104 N 8.8686 -0.792821 -1.36206 0
M  V30 105 C 9.7986 -0.207853 -2.32573 0
M  V30 106 C 10.7796 0.659055 -1.56813 0
M  V30 107 O 11.9646 0.592176 -1.84951 0
M  V30 108 C 9.0946 0.655449 -3.41059 0
M  V30 109 C 8.0486 -0.111842 -4.27854 0
M  V30 110 C 7.3746 0.872274 -5.27537 0
M  V30 111 C 8.6746 -1.30299 -5.05786 0
M  V30 112 H 10.3686 -1.01294 -2.81744 0
M  V30 113 H 7.9146 -0.48854 -1.3546 0
M  V30 114 H 9.8676 1.07464 -4.07467 0
M  V30 115 H 8.5916 1.49328 -2.90463 0
M  V30 116 H 7.2506 -0.512053 -3.63006 0
M  V30 117 H 6.8986 1.70523 -4.73214 0
M  V30 118 H 6.5986 0.363291 -5.86476 0
M  V30 119 H 8.1226 1.28996 -5.96818 0
M  V30 120 H 9.5366 -0.959379 -5.65216 0
M  V30 121 H 7.9336 -1.7455 -5.74154 0
M  V30 122 H 9.0036 -2.09663 -4.37229 0
M  V30 123 N 10.3467 1.47872 -0.545128 0
M  V30 124 C 11.5927 2.03385 -0.0247951 0
M  V30 125 C 11.9477 1.41325 1.30556 0
M  V30 126 O 11.2407 0.5552 1.8338 0
M  V30 127 C 11.4347 3.57131 0.13867 0
M  V30 128 C 11.2637 4.34097 -1.17429 0
M  V30 129 C 10.0337 4.74458 -1.73831 0
M  V30 130 C 12.2317 4.6998 -2.08861 0
M  V30 131 N 10.2137 5.3602 -2.99258 0
M  V30 132 C 11.5847 5.31719 -3.18866 0
M  V30 133 C 13.6397 4.5191 -2.09003 0
M  V30 134 C 12.3427 5.77295 -4.29096 0
M  V30 135 C 14.3687 4.98477 -3.18237 0
M  V30 136 C 13.7307 5.60253 -4.26961 0
M  V30 137 H 9.8297 0.780339 -0.050943 0
M  V30 138 H 12.4137 1.80507 -0.729753 0
M  V30 139 H 10.5847 3.79802 0.812733 0
M  V30 140 H 12.3167 3.99282 0.659976 0
M  V30 141 H 9.0717 4.56037 -1.2778 0
M  V30 142 H 9.4957 5.71355 -3.63157 0
M  V30 143 H 14.1377 4.03516 -1.26234 0
M  V30 144 H 11.8557 6.24687 -5.12633 0
M  V30 145 H 15.4417 4.86274 -3.1942 0
M  V30 146 H 14.3217 5.95631 -5.10091 0
M  V30 147 N 11.8248 0.280983 1.55075 0
M  V30 148 C 12.7548 -0.597469 2.25727 0
M  V30 149 C 13.7358 -1.15417 1.24952 0
M  V30 150 O 14.9208 -1.18722 1.53684 0
M  V30 151 C 12.0508 -1.7789 2.98283 0
M  V30 152 C 11.0048 -1.35347 4.06036 0
M  V30 153 C 10.3308 -2.61846 4.66198 0
M  V30 154 C 11.6308 -0.499354 5.19907 0
M  V30 155 H 13.3248 -0.00824265 2.99399 0
M  V30 156 H 10.8708 -0.0025244 1.44 0
M  V30 157 H 12.8238 -2.39937 3.46422 0
M  V30 158 H 11.5478 -2.39405 2.22155 0
M  V30 159 H 10.2068 -0.756156 3.58717 0
M  V30 160 H 9.8548 -3.21632 3.86732 0
M  V30 161 H 9.5548 -2.3409 5.38958 0
M  V30 162 H 11.0788 -3.24732 5.1709 0
M  V30 163 H 12.4928 -1.02498 5.64063 0
M  V30 164 H 10.8898 -0.316424 5.99265 0
M  V30 165 H 11.9598 0.480459 4.82514 0
M  V30 166 N 13.3029 -1.57598 0.00835791 0
M  V30 167 C 14.5509 -1.90551 -0.6734 0
M  V30 168 C 14.8719 -0.883301 -1.73847 0
M  V30 169 O 14.1419 0.0781442 -1.95744 0
M  V30 170 H 12.7219 -0.703312 -0.251717 0
M  V30 171 H 15.3839 -1.94833 0.0512592 0
M  V30 172 H 14.4799 -2.9056 -1.13935 0
M  V30 173 N 14.781 0.264519 -1.55364 0
M  V30 174 C 15.711 1.33121 -1.91836 0
M  V30 175 C 16.692 1.51101 -0.781192 0
M  V30 176 O 17.877 1.64003 -1.04003 0
M  V30 177 C 15.007 2.68921 -2.19769 0
M  V30 178 C 13.961 2.65661 -3.35571 0
M  V30 179 C 13.287 4.05093 -3.49004 0
M  V30 180 C 14.587 2.24187 -4.71739 0
M  V30 181 H 16.281 1.02844 -2.81182 0
M  V30 182 H 13.827 0.493286 -1.35287 0
M  V30 183 H 15.78 3.43663 -2.43872 0
M  V30 184 H 14.504 3.00799 -1.27231 0
M  V30 185 H 13.163 1.93377 -3.1145 0
M  V30 186 H 12.811 4.34206 -2.53917 0
M  V30 187 H 12.511 4.03804 -4.26868 0
M  V30 188 H 14.035 4.81561 -3.75408 0
M  V30 189 H 15.449 2.88654 -4.9533 0
M  V30 190 H 13.846 2.34044 -5.52579 0
M  V30 191 H 14.916 1.19327 -4.69988 0
M  V30 192 N 16.2591 1.48442 0.529413 0
M  V30 193 C 17.2221 1.62524 1.61612 0
M  V30 194 C 18.2221 0.498509 1.52877 0
M  V30 195 O 19.4121 0.76431 1.56537 0
M  V30 196 C 16.5441 1.59597 3.01233 0
M  V30 197 H 17.7371 2.59423 1.50465 0
M  V30 198 H 15.2901 1.37047 0.751514 0
M  V30 199 H 16.0251 0.641781 3.17886 0
M  V30 200 H 15.8101 2.41397 3.08982 0
M  V30 201 H 17.3001 1.72646 3.80241 0
M  V30 202 N 17.7372 -0.778329 1.37039 0
M  V30 203 C 18.6672 -1.90546 1.34962 0
M  V30 204 C 19.6482 -1.68681 0.219274 0
M  V30 205 O 20.8332 -1.89634 0.418624 0
M  V30 206 C 17.9632 -3.27734 1.14925 0
M  V30 207 C 16.9172 -3.64147 2.24902 0
M  V30 208 C 16.2432 -4.99806 1.89996 0
M  V30 209 C 17.5432 -3.71579 3.67051 0
M  V30 210 H 19.2372 -1.92541 2.29277 0
M  V30 211 H 16.7832 -0.924948 1.10366 0
M  V30 212 H 18.7362 -4.06215 1.12104 0
M  V30 213 H 17.4602 -3.26154 0.170631 0
M  V30 214 H 16.1192 -2.8797 2.26868 0
M  V30 215 H 15.7672 -4.94759 0.906796 0
M  V30 216 H 15.4672 -5.25139 2.63634 0
M  V30 217 H 16.9912 -5.80694 1.88749 0
M  V30 218 H 18.4052 -4.40227 3.67251 0
M  V30 219 H 16.8022 -4.08405 4.39688 0
M  V30 220 H 17.8722 -2.72404 4.01154 0
M  V30 221 N 19.2153 -1.21501 -1.00376 0
M  V30 222 C 20.1783 -0.976927 -2.07337 0
M  V30 223 C 21.1783 0.0525322 -1.60714 0
M  V30 224 O 22.3683 -0.184869 -1.73216 0
M  V30 225 C 19.5003 -0.473423 -3.37597 0
M  V30 226 H 20.6933 -1.92587 -2.29892 0
M  V30 227 H 18.2463 -1.03217 -1.17371 0
M  V30 228 H 18.9813 0.480379 -3.20722 0
M  V30 229 H 18.7663 -1.216 -3.72768 0
M  V30 230 H 20.2563 -0.32675 -4.1632 0
M  V30 231 N 20.6934 1.19889 -1.02296 0
M  V30 232 C 21.6234 2.25141 -0.619174 0
M  V30 233 C 22.6044 1.66051 0.368915 0
M  V30 234 O 23.7894 1.92546 0.252941 0
M  V30 235 C 20.9194 3.4728 0.0368783 0
M  V30 236 C 19.8734 4.19005 -0.872865 0
M  V30 237 C 19.1994 5.34637 -0.0822402 0
M  V30 238 C 20.4994 4.74452 -2.18387 0
M  V30 239 H 22.1934 2.59171 -1.49903 0
M  V30 240 H 19.7394 1.24579 -0.722222 0
M  V30 241 H 21.6924 4.20098 0.330958 0
M  V30 242 H 20.4164 3.12433 0.95149 0
M  V30 243 H 19.0754 3.48061 -1.15105 0
M  V30 244 H 18.7234 4.96034 0.83422 0
M  V30 245 H 18.4234 5.83557 -0.688149 0
M  V30 246 H 19.9474 6.10255 0.205238 0
M  V30 247 H 21.3614 5.39055 -1.95172 0
M  V30 248 H 19.7584 5.33834 -2.74119 0
M  V30 249 H 20.8284 3.92844 -2.84257 0
M  V30 250 N 22.1715 0.800033 1.35784 0
M  V30 251 C 23.4195 0.376597 1.9856 0
M  V30 252 C 23.7405 -1.05812 1.63795 0
M  V30 253 O 23.0105 -1.73103 0.917171 0
M  V30 254 H 21.5905 0.136261 0.734467 0
M  V30 255 H 24.2525 1.02442 1.65806 0
M  V30 256 H 23.3485 0.477002 3.08433 0
M  V30 257 N 23.6496 -1.47581 0.552962 0
M  V30 258 C 25.0606 -1.86324 0.118463 0
M  V30 259 C 25.4116 -1.46006 -1.3106 0
M  V30 260 O 24.5366 -0.861182 -1.98526 0
M  V30 261 C 25.1316 -3.3816 0.20821 0
M  V30 262 C 23.6906 -3.7601 -0.171226 0
M  V30 263 C 22.8376 -2.71634 0.557686 0
M  V30 264 H 25.7886 -1.39159 0.762928 0
M  V30 265 H 25.8096 -3.76141 -0.574278 0
M  V30 266 H 25.3216 -3.67473 1.24841 0
M  V30 267 H 23.4226 -3.52313 -1.21269 0
M  V30 268 H 23.5356 -4.78745 0.184379 0
M  V30 269 H 21.8996 -2.547 0.00125792 0
M  V30 270 H 22.6826 -3.0379 1.59896 0
M  V30 271 N 25.1277 -0.289203 -1.54924 0
M  V30 272 C 26.3757 0.322879 -1.99504 0
M  V30 273 C 26.6967 1.55313 -1.1791 0
M  V30 274 O 25.9667 1.94001 -0.272097 0
M  V30 275 H 24.5467 0.122291 -0.736922 0
M  V30 276 H 27.2087 -0.397802 -1.90797 0
M  V30 277 H 26.3047 0.603061 -3.06218 0
M  V30 278 N 26.6058 1.57591 -0.0167156 0
M  V30 279 C 27.8308 1.9598 0.67872 0
M  V30 280 C 28.2558 0.892546 1.65575 0
M  V30 281 O 27.6138 -0.147772 1.80697 0
M  V30 282 C 27.6618 3.33468 1.37227 0
M  V30 283 O 26.7658 3.28954 2.48722 0
M  V30 284 H 26.1068 0.639339 0.17928 0
M  V30 285 H 28.6368 2.04463 -0.0748802 0
M  V30 286 H 28.6468 3.69417 1.7319 0
M  V30 287 H 27.3218 4.10694 0.656007 0
M  V30 288 H 25.8988 3.04705 2.14963 0
M  V30 289 N 28.0839 -0.256276 1.55502 0
M  V30 290 C 29.0469 -1.30047 1.88734 0
M  V30 291 C 30.0469 -1.4154 0.763086 0
M  V30 292 O 31.2369 -1.40403 1.03115 0
M  V30 293 C 28.3689 -2.67953 2.10747 0
M  V30 294 H 29.5619 -1.01802 2.82093 0
M  V30 295 H 27.1149 -0.495134 1.4825 0
M  V30 296 H 27.8499 -3.01351 1.19825 0
M  V30 297 H 27.6349 -2.60993 2.92617 0
M  V30 298 H 29.1249 -3.43368 2.37673 0
M  V30 299 N 29.562 -1.4872 -0.521534 0
M  V30 300 C 30.81 -1.56857 -1.27437 0
M  V30 301 C 31.131 -0.247982 -1.93417 0
M  V30 302 O 30.401 0.731151 -1.81744 0
M  V30 303 H 28.981 -0.577885 -0.473347 0
M  V30 304 H 31.643 -1.85233 -0.606205 0
M  V30 305 H 30.739 -2.35402 -2.0492 0
M  V30 306 N 31.0401 0.771051 -1.3745 0
M  V30 307 C 32.2881 1.52661 -1.32435 0
M  V30 308 C 32.6091 1.9479 0.0905024 0
M  V30 309 O 31.8791 1.66348 1.03466 0
M  V30 310 H 30.4591 0.566218 -0.487244 0
M  V30 311 H 33.1211 0.917636 -1.71946 0
M  V30 312 H 32.2171 2.42568 -1.96385 0
M  V30 313 N 32.5182 1.22032 0.997298 0
M  V30 314 C 33.4682 0.953838 2.07089 0
M  V30 315 C 34.4522 -0.0938669 1.60626 0
M  V30 316 O 35.6442 0.116078 1.76619 0
M  V30 317 C 32.7732 0.528726 3.39204 0
M  V30 318 C 31.8592 1.61092 3.92314 0
M  V30 319 N 32.2502 2.83768 4.18699 0
M  V30 320 C 30.5482 1.48158 4.20672 0
M  V30 321 C 31.2492 3.53715 4.61802 0
M  V30 322 N 30.2252 2.81174 4.65233 0
M  V30 323 H 34.0272 1.88577 2.25424 0
M  V30 324 H 31.5412 1.11719 1.17867 0
M  V30 325 H 33.5382 0.31915 4.15677 0
M  V30 326 H 32.1982 -0.39635 3.22272 0
M  V30 327 H 33.2092 3.20238 4.07023 0
M  V30 328 H 29.8862 0.622369 4.12835 0
M  V30 329 H 31.2762 4.58793 4.90875 0
M  V30 330 N 33.9963 -1.19345 1.0293 0
M  V30 331 C 35.4073 -1.70725 0.755633 0
M  V30 332 C 35.7583 -1.82326 -0.724676 0
M  V30 333 O 34.8833 -1.49471 -1.56484 0
M  V30 334 C 35.4783 -3.10084 1.36503 0
M  V30 335 C 34.0373 -3.58723 1.13994 0
M  V30 336 C 33.1843 -2.35577 1.46283 0
M  V30 337 H 36.1353 -1.0418 1.19718 0
M  V30 338 H 36.1563 -3.72787 0.762217 0
M  V30 339 H 35.6683 -3.01609 2.44241 0
M  V30 340 H 33.7693 -3.72512 0.0807901 0
M  V30 341 H 33.8823 -4.42816 1.82894 0
M  V30 342 H 32.2463 -2.38935 0.88217 0
M  V30 343 H 33.0293 -2.29731 2.55105 0
M  V30 344 N 35.4744 -0.807222 -1.35358 0
M  V30 345 C 36.4064 -0.175717 -2.28525 0
M  V30 346 C 37.4194 0.625354 -1.5031 0
M  V30 347 O 38.6084 0.457611 -1.72535 0
M  V30 348 C 35.7084 0.773471 -3.29956 0
M  V30 349 C 34.8814 0.0186296 -4.37396 0
M  V30 350 C 33.9404 0.886395 -5.18681 0
M  V30 351 O 32.9664 0.337106 -5.68201 0
M  V30 352 N 34.1684 2.20839 -5.36852 0
M  V30 353 H 36.9334 -0.976091 -2.83359 0
M  V30 354 H 34.4944 -0.662737 -1.47714 0
M  V30 355 H 36.4864 1.35824 -3.81227 0
M  V30 356 H 35.0564 1.47465 -2.75632 0
M  V30 357 H 34.2764 -0.747349 -3.87051 0
M  V30 358 H 35.5644 -0.501577 -5.06322 0
M  V30 359 H 34.9624 2.67858 -4.98265 0
M  V30 360 H 33.5194 2.74237 -5.91301 0
M  V30 361 N 36.9525 1.47285 -0.560781 0
M  V30 362 C 38.3635 1.86258 -0.128343 0
M  V30 363 C 38.7145 1.46699 1.30284 0
M  V30 364 O 37.8395 0.871698 1.98067 0
M  V30 365 C 38.4345 3.38044 -0.22614 0
M  V30 366 C 36.9935 3.76096 0.151283 0
M  V30 367 C 36.1405 2.71335 -0.572084 0
M  V30 368 H 39.0915 1.38752 -0.770297 0
M  V30 369 H 39.1125 3.76441 0.554322 0
M  V30 370 H 38.6245 3.66806 -1.26788 0
M  V30 371 H 36.7255 3.52951 1.19399 0
M  V30 372 H 36.8385 4.78641 -0.209765 0
M  V30 373 H 35.2025 2.54696 -0.0147653 0
M  V30 374 H 35.9855 3.02938 -1.61504 0
M  V30 375 N 38.4306 0.297415 1.54768 0
M  V30 376 C 39.6706 -0.313829 2.01976 0
M  V30 377 C 40.0346 -1.51366 1.1812 0
M  V30 378 O 41.2356 -2.19603 1.5501 0
M  V30 379 C 39.5066 -0.664964 3.51159 0
M  V30 380 S 41.0656 -1.25958 4.20333 0
M  V30 381 H 37.8836 -0.0965014 0.704421 0
M  V30 382 H 40.4856 0.424451 1.90837 0
M  V30 383 H 39.1896 0.21681 4.09827 0
M  V30 384 H 38.7206 -1.43413 3.66328 0
M  V30 385 H 40.7356 -2.54751 4.25813 0
M  V30 386 N 39.9087 -1.5758 0.0250728 0
M  V30 387 C 41.1567 -1.91255 -0.653151 0
M  V30 388 C 41.4777 -0.901691 -1.729 0
M  V30 389 O 40.7477 0.0573785 -1.95816 0
M  V30 390 H 39.3277 -0.705942 -0.244243 0
M  V30 391 H 41.9897 -1.94767 0.0719209 0
M  V30 392 H 41.0857 -2.91752 -1.10847 0
M  V30 393 N 41.3868 0.248026 -1.55636 0
M  V30 394 C 42.6328 0.97767 -1.77678 0
M  V30 395 C 42.9658 1.85016 -0.590135 0
M  V30 396 O 42.2408 1.90095 0.411611 0
M  V30 397 C 42.5238 1.83914 -3.09593 0
M  V30 398 C 42.3768 0.99491 -4.38659 0
M  V30 399 C 43.6958 2.82183 -3.37729 0
M  V30 400 H 40.8148 0.354005 -0.646413 0
M  V30 401 H 43.4568 0.248253 -1.88371 0
M  V30 402 H 41.6068 2.46104 -3.00608 0
M  V30 403 H 43.2788 0.391789 -4.59633 0
M  V30 404 H 41.5218 0.299231 -4.32767 0
M  V30 405 H 42.1928 1.63145 -5.2734 0
M  V30 406 H 44.6688 2.30129 -3.4667 0
M  V30 407 H 43.5448 3.39582 -4.31249 0
M  V30 408 H 43.8058 3.58588 -2.58586 0
M  V30 409 N 42.8649 1.48995 0.513639 0
M  V30 410 C 43.7949 1.67636 1.62544 0
M  V30 411 C 44.7759 0.525087 1.61793 0
M  V30 412 O 45.9609 0.759502 1.78732 0
M  V30 413 C 43.0909 1.73114 3.01079 0
M  V30 414 C 42.0449 2.87905 3.16693 0
M  V30 415 C 41.3709 2.78486 4.56453 0
M  V30 416 C 42.6709 4.29005 2.97913 0
M  V30 417 H 44.3649 2.60716 1.47198 0
M  V30 418 H 41.9109 1.25465 0.706714 0
M  V30 419 H 43.8639 1.84742 3.78746 0
M  V30 420 H 42.5879 0.766241 3.17484 0
M  V30 421 H 41.2469 2.75859 2.41448 0
M  V30 422 H 40.8949 1.7993 4.69717 0
M  V30 423 H 40.5949 3.55523 4.67843 0
M  V30 424 H 42.1189 2.92104 5.36197 0
M  V30 425 H 43.5329 4.41798 3.65359 0
M  V30 426 H 41.9299 5.07166 3.20785 0
M  V30 427 H 42.9999 4.44329 1.94165 0
M  V30 428 N 44.343 -0.763751 1.37857 0
M  V30 429 C 45.306 -1.85889 1.34081 0
M  V30 430 C 46.306 -1.58949 0.243277 0
M  V30 431 O 47.496 -1.66882 0.499589 0
M  V30 432 C 44.628 -3.23176 1.08489 0
M  V30 433 H 45.821 -1.90648 2.31502 0
M  V30 434 H 43.374 -0.964367 1.23003 0
M  V30 435 H 44.109 -3.24091 0.116318 0
M  V30 436 H 43.894 -3.44124 1.8794 0
M  V30 437 H 45.384 -4.03254 1.08517 0
M  V30 438 N 45.8211 -1.22559 -0.990812 0
M  V30 439 C 47.2371 -0.985996 -1.255 0
M  V30 440 C 47.4371 0.319173 -1.98956 0
M  V30 441 O 46.4931 1.04127 -2.3003 0
M  V30 442 C 47.8061 -2.18607 -2.06474 0
M  V30 443 C 49.3541 -2.22985 -2.19651 0
M  V30 444 C 49.8291 -3.4255 -3.04012 0
M  V30 445 N 51.3201 -3.42725 -3.11599 0
M  V30 446 C 52.0551 -4.31892 -3.7717 0
M  V30 447 N 51.5511 -5.31279 -4.44651 0
M  V30 448 N 53.3441 -4.19662 -3.73952 0
M  V30 449 H 45.4951 -2.06469 -0.49841 0
M  V30 450 H 47.7581 -0.904853 -0.282747 0
M  V30 451 H 47.4641 -3.13267 -1.59865 0
M  V30 452 H 47.3381 -2.18838 -3.07229 0
M  V30 453 H 49.7251 -1.28871 -2.65474 0
M  V30 454 H 49.8061 -2.26791 -1.18319 0
M  V30 455 H 49.4501 -4.36965 -2.58889 0
M  V30 456 H 49.3801 -3.35984 -4.0549 0
M  V30 457 H 51.8711 -2.70807 -2.63575 0
M  V30 458 H 52.1841 -5.95593 -4.92431 0
M  V30 459 H 50.5291 -5.3519 -4.43392 0
M  V30 460 H 53.7201 -3.41268 -3.20396 0
M  V30 461 H 53.8931 -4.89358 -4.24774 0
M  V30 462 N 47.2992 1.18797 -1.03562 0
M  V30 463 C 48.2292 2.24472 -0.643019 0
M  V30 464 C 49.2102 1.66433 0.351283 0
M  V30 465 O 50.3952 1.92803 0.232505 0
M  V30 466 C 47.5252 3.473 4.24935e-05 0
M  V30 467 C 46.4792 4.18055 -0.917257 0
M  V30 468 C 45.8052 5.34519 -0.138941 0
M  V30 469 C 47.1052 4.72109 -2.23407 0
M  V30 470 H 48.7992 2.57566 -1.52643 0
M  V30 471 H 46.3452 1.23806 -0.735394 0
M  V30 472 H 48.2982 4.20426 0.286383 0
M  V30 473 H 47.0222 3.13424 0.918299 0
M  V30 474 H 45.6812 3.46821 -1.1879 0
M  V30 475 H 45.3292 4.96891 0.781562 0
M  V30 476 H 45.0292 5.82794 -0.750005 0
M  V30 477 H 46.5532 6.10438 0.1405 0
M  V30 478 H 47.9672 5.36955 -2.00879 0
M  V30 479 H 46.3642 5.30897 -2.79765 0
M  V30 480 H 47.4342 3.89807 -2.88407 0
M  V30 481 N 48.7773 0.814389 1.34928 0
M  V30 482 C 50.0253 0.397636 1.9815 0
M  V30 483 C 50.3463 -1.04069 1.64908 0
M  V30 484 O 49.6163 -1.72121 0.93548 0
M  V30 485 H 48.1963 0.144043 0.732981 0
M  V30 486 H 50.8583 1.04195 1.6471 0
M  V30 487 H 49.9543 0.509688 3.0791 0
M  V30 488 N 50.2554 -1.46986 0.568584 0
M  V30 489 C 51.5034 -2.02041 0.0487022 0
M  V30 490 C 51.8244 -1.44408 -1.31039 0
M  V30 491 O 51.0944 -0.623477 -1.85714 0
M  V30 492 H 49.6744 -0.746849 0.015014 0
M  V30 493 H 52.3364 -1.80257 0.741168 0
M  V30 494 H 51.4324 -3.12085 -0.0308961 0
M  V30 495 N 51.7335 -0.305618 -1.54608 0
M  V30 496 C 52.9585 0.307562 -2.05107 0
M  V30 497 C 53.3835 1.46385 -1.18123 0
M  V30 498 O 52.7415 1.8034 -0.186324 0
M  V30 499 C 52.7895 0.73704 -3.52987 0
M  V30 500 O 51.8935 1.84134 -3.6901 0
M  V30 501 H 51.2345 0.0589143 -0.661381 0
M  V30 502 H 53.7645 -0.448807 -1.99617 0
M  V30 503 H 53.7745 1.02459 -3.94925 0
M  V30 504 H 52.4495 -0.108773 -4.15758 0
M  V30 505 H 51.0265 1.55398 -3.38978 0
M  V30 506 N 53.2116 1.57565 -0.0334293 0
M  V30 507 C 54.4576 1.92262 0.645226 0
M  V30 508 C 54.7906 0.910543 1.71531 0
M  V30 509 O 54.0656 -0.066099 1.94388 0
M  V30 510 C 54.3486 3.37422 1.2577 0
M  V30 511 C 54.2016 4.49369 0.196891 0
M  V30 512 C 55.5206 3.82628 2.17449 0
M  V30 513 H 52.6396 0.699171 0.233085 0
M  V30 514 H 55.2816 1.89779 -0.0915694 0
M  V30 515 H 53.4316 3.39669 1.88566 0
M  V30 516 H 55.1036 4.59254 -0.433962 0
M  V30 517 H 53.3466 4.31168 -0.477137 0
M  V30 518 H 54.0176 5.47978 0.665124 0
M  V30 519 H 56.4936 3.82145 1.64634 0
M  V30 520 H 55.3696 4.84883 2.57254 0
M  V30 521 H 55.6306 3.18376 3.0674 0
M  V30 522 N 54.6897 -0.239769 1.55765 0
M  V30 523 C 56.1057 -0.588624 1.48349 0
M  V30 524 C 56.3057 -1.88005 0.72502 0
M  V30 525 O 55.3617 -2.51186 0.257269 0
M  V30 526 C 56.6747 -0.68474 2.928 0
M  V30 527 C 58.2227 -0.77659 3.03213 0
M  V30 528 C 58.6977 -0.904207 4.48986 0
M  V30 529 N 60.1887 -0.968896 4.52953 0
M  V30 530 C 60.9237 -1.08703 5.63002 0
M  V30 531 N 60.4197 -1.17026 6.82845 0
M  V30 532 N 62.2127 -1.12074 5.50814 0
M  V30 533 H 54.3637 0.607911 2.03515 0
M  V30 534 H 56.6267 0.21083 0.924259 0
M  V30 535 H 56.3327 0.194284 3.51163 0
M  V30 536 H 56.2067 -1.55435 3.43686 0
M  V30 537 H 58.5937 -1.64606 2.44926 0
M  V30 538 H 58.6747 0.118315 2.55526 0
M  V30 539 H 58.3187 -0.0392633 5.07885 0
M  V30 540 H 58.2487 -1.81426 4.9436 0
M  V30 541 H 60.7397 -0.915633 3.6664 0
M  V30 542 H 61.0527 -1.25966 7.62465 0
M  V30 543 H 59.3977 -1.13971 6.85591 0
M  V30 544 H 62.5887 -1.05226 4.5612 0
M  V30 545 H 62.7617 -1.20936 6.36615 0
M  V30 546 N 56.1678 -1.49265 -0.50573 0
M  V30 547 C 57.0978 -1.68495 -1.61653 0
M  V30 548 C 58.0788 -0.53366 -1.61512 0
M  V30 549 O 59.2638 -0.76897 -1.78327 0
M  V30 550 C 56.3938 -1.74709 -3.00157 0
M  V30 551 C 55.3478 -2.89581 -3.15162 0
M  V30 552 C 54.6738 -2.80903 -4.5497 0
M  V30 553 C 55.9738 -4.30578 -2.95634 0
M  V30 554 H 57.6678 -2.61493 -1.45814 0
M  V30 555 H 55.2138 -1.25838 -0.70005 0
M  V30 556 H 57.1668 -1.86748 -3.77761 0
M  V30 557 H 55.8908 -0.783067 -3.17074 0
M  V30 558 H 54.5498 -2.77136 -2.39982 0
M  V30 559 H 54.1978 -1.82419 -4.68756 0
M  V30 560 H 53.8978 -3.57999 -4.65951 0
M  V30 561 H 55.4218 -2.94944 -5.34641 0
M  V30 562 H 56.8358 -4.4373 -3.63011 0
M  V30 563 H 55.2328 -5.0886 -3.18091 0
M  V30 564 H 56.3028 -4.45352 -1.91806 0
M  V30 565 N 57.6459 0.756429 -1.3826 0
M  V30 566 C 58.8939 1.51248 -1.34047 0
M  V30 567 C 59.2149 1.94875 0.0698372 0
M  V30 568 O 58.4849 1.67436 1.01696 0
M  V30 569 H 57.0649 0.561018 -0.493222 0
M  V30 570 H 59.7269 0.899347 -1.7291 0
M  V30 571 H 58.8229 2.40472 -1.98947 0
M  V30 572 N 59.124 1.23083 0.984299 0
M  V30 573 C 60.087 1.00979 2.05757 0
M  V30 574 C 61.087 -0.0269573 1.60777 0
M  V30 575 O 62.277 0.212403 1.729 0
M  V30 576 C 59.409 0.527072 3.36801 0
M  V30 577 H 60.602 1.9622 2.26799 0
M  V30 578 H 58.155 1.05072 1.15714 0
M  V30 579 H 58.89 -0.429294 3.21446 0
M  V30 580 H 58.675 1.27515 3.70786 0
M  V30 581 H 60.165 0.392942 4.15747 0
M  V30 582 N 60.6021 -1.18246 1.0419 0
M  V30 583 C 61.5321 -2.24127 0.654914 0
M  V30 584 C 62.5131 -1.66617 -0.342451 0
M  V30 585 O 63.6981 -1.92924 -0.222277 0
M  V30 586 C 60.8281 -3.47295 0.0183757 0
M  V30 587 C 59.7821 -4.17563 0.939414 0
M  V30 588 C 59.1081 -5.34438 0.167286 0
M  V30 589 C 60.4081 -4.70917 2.25908 0
M  V30 590 H 62.1021 -2.56753 1.54007 0
M  V30 591 H 59.6481 -1.23414 0.74195 0
M  V30 592 H 61.6011 -4.20572 -0.264082 0
M  V30 593 H 60.3251 -3.13907 -0.901664 0
M  V30 594 H 58.9841 -3.46186 1.20628 0
M  V30 595 H 58.6321 -4.97298 -0.7552 0
M  V30 596 H 58.3321 -5.82388 0.780901 0
M  V30 597 H 59.8561 -6.10504 -0.108125 0
M  V30 598 H 61.2701 -5.35882 2.03724 0
M  V30 599 H 59.6671 -5.29406 2.82577 0
M  V30 600 H 60.7371 -3.88272 2.9047 0
M  V30 601 N 62.0802 -0.821533 -1.34494 0
M  V30 602 C 63.0102 -0.257138 -2.3208 0
M  V30 603 C 63.9912 0.625645 -1.58176 0
M  V30 604 O 65.1762 0.552811 -1.86166 0
M  V30 605 C 62.3062 0.582958 -3.42372 0
M  V30 606 C 61.2602 -0.202571 -4.2752 0
M  V30 607 C 60.5862 0.760179 -5.29269 0
M  V30 608 C 61.8862 -1.40998 -5.02908 0
M  V30 609 H 63.5802 -1.07247 -2.79532 0
M  V30 610 H 61.1262 -0.517163 -1.34393 0
M  V30 611 H 63.0792 0.987972 -4.09655 0
M  V30 612 H 61.8032 1.43133 -2.93565 0
M  V30 613 H 60.4622 -0.588936 -3.61838 0
M  V30 614 H 60.1102 1.60447 -4.76724 0
M  V30 615 H 59.8102 0.238809 -5.87115 0
M  V30 616 H 61.3342 1.16308 -5.9942 0
M  V30 617 H 62.7482 -1.07905 -5.63054 0
M  V30 618 H 61.1452 -1.86689 -5.70322 0
M  V30 619 H 62.2152 -2.1889 -4.32684 0
M  V30 620 N 63.5583 1.46682 -0.576371 0
M  V30 621 C 64.9693 1.86112 -0.148091 0
M  V30 622 C 65.3203 1.48073 1.2872 0
M  V30 623 O 64.4453 0.892656 1.97131 0
M  V30 624 C 65.0403 3.37786 -0.261982 0
M  V30 625 C 63.5993 3.76235 0.111384 0
M  V30 626 C 62.7463 2.70713 -0.60083 0
M  V30 627 H 65.6973 1.37927 -0.78497 0
M  V30 628 H 65.7183 3.77007 0.514364 0
M  V30 629 H 65.2303 3.6544 -1.30671 0
M  V30 630 H 63.3313 3.54198 1.15649 0
M  V30 631 H 63.4443 4.78391 -0.26052 0
M  V30 632 H 61.8083 2.54666 -0.0417783 0
M  V30 633 H 62.5913 3.01208 -1.64708 0
M  V30 634 N 65.0364 0.313813 1.54444 0
M  V30 635 C 66.4524 -0.0391619 1.59552 0
M  V30 636 C 66.6524 -1.51322 1.33056 0
M  V30 637 O 65.7084 -2.26782 1.11022 0
M  V30 638 C 67.0214 0.370302 2.98411 0
M  V30 639 C 68.5694 0.320139 3.11358 0
M  V30 640 C 69.0444 0.704617 4.52547 0
M  V30 641 N 70.5354 0.657645 4.58508 0
M  V30 642 C 71.2704 0.927453 5.6585 0
M  V30 643 N 70.7664 1.26389 6.81174 0
M  V30 644 N 72.5594 0.853662 5.5558 0
M  V30 645 H 64.7104 1.27433 1.69925 0
M  V30 646 H 66.9734 0.517511 0.794284 0
M  V30 647 H 66.6794 1.39694 3.22767 0
M  V30 648 H 66.5534 -0.269619 3.76235 0
M  V30 649 H 68.9404 -0.697275 2.86744 0
M  V30 650 H 69.0214 0.99486 2.35661 0
M  V30 651 H 68.6654 1.7199 4.77893 0
M  V30 652 H 68.5954 0.00768843 5.26599 0
M  V30 653 H 71.0864 0.409067 3.75679 0
M  V30 654 H 71.3994 1.4554 7.58972 0
M  V30 655 H 69.7444 1.30206 6.82694 0
M  V30 656 H 72.9354 0.590383 4.64362 0
M  V30 657 H 73.1084 1.0673 6.3915 0
M  V30 658 N 66.5145 -1.57545 0.0417849 0
M  V30 659 C 67.4775 -2.09885 -0.92093 0
M  V30 660 C 68.4775 -1.01648 -1.24596 0
M  V30 661 O 69.6675 -1.27759 -1.1842 0
M  V30 662 C 66.7995 -2.57527 -2.23367 0
M  V30 663 H 67.9925 -2.96236 -0.467382 0
M  V30 664 H 65.5455 -1.5493 -0.206467 0
M  V30 665 H 66.2805 -1.74542 -2.73323 0
M  V30 666 H 66.0655 -3.36613 -2.01083 0
M  V30 667 H 67.5555 -2.98201 -2.92346 0
M  V30 668 N 67.9926 0.231505 -1.5589 0
M  V30 669 C 69.4036 0.799327 -1.68724 0
M  V30 670 C 69.7546 1.85398 -0.642022 0
M  V30 671 O 68.8796 2.1539 0.208784 0
M  V30 672 C 69.4746 1.45664 -3.05888 0
M  V30 673 C 68.0336 1.97197 -3.20609 0
M  V30 674 C 67.1806 0.828552 -2.64632 0
M  V30 675 H 70.1316 0.00702616 -1.58698 0
M  V30 676 H 70.1526 2.32517 -3.01191 0
M  V30 677 H 69.6646 0.688808 -3.81939 0
M  V30 678 H 67.7656 2.76813 -2.4941 0
M  V30 679 H 67.8786 2.15878 -4.27707 0
M  V30 680 H 66.2426 1.23321 -2.22854 0
M  V30 681 H 67.0256 0.0735544 -3.43221 0
M  V30 682 N 69.4707 1.49531 0.497807 0
M  V30 683 C 70.4007 1.6935 1.60757 0
M  V30 684 C 71.3817 0.542218 1.61227 0
M  V30 685 O 72.5667 0.778417 1.77917 0
M  V30 686 C 69.6967 1.76298 2.99226 0
M  V30 687 C 68.6507 2.91248 3.13622 0
M  V30 688 C 67.9767 2.83312 4.53474 0
M  V30 689 C 69.2767 4.3214 2.93346 0
M  V30 690 H 70.9707 2.62263 1.44425 0
M  V30 691 H 68.5167 1.26208 0.693367 0
M  V30 692 H 70.4697 1.88749 3.76765 0
M  V30 693 H 69.1937 0.799871 3.16654 0
M  V30 694 H 67.8527 2.78404 2.38509 0
M  V30 695 H 67.5007 1.84902 4.67782 0
M  V30 696 H 67.2007 3.60465 4.64046 0
M  V30 697 H 68.7247 2.97775 5.33069 0
M  V30 698 H 70.1387 4.45649 3.60652 0
M  V30 699 H 68.5357 5.1054 3.15387 0
M  V30 700 H 69.6057 4.46363 1.89441 0
M  V30 701 N 70.9488 -0.749086 1.3866 0
M  V30 702 C 71.9118 -1.84457 1.36045 0
M  V30 703 C 72.9118 -1.58682 0.260122 0
M  V30 704 O 74.1018 -1.66343 0.517261 0
M  V30 705 C 71.2338 -3.22008 1.11911 0
M  V30 706 H 72.4268 -1.88182 2.33512 0
M  V30 707 H 69.9798 -0.951266 1.24019 0
M  V30 708 H 70.7148 -3.2395 0.150686 0
M  V30 709 H 70.4998 -3.42111 1.91579 0
M  V30 710 H 71.9898 -4.0208 1.12788 0
M  V30 711 N 72.4269 -1.23603 -0.977757 0
M  V30 712 C 73.8429 -0.999251 -1.24447 0
M  V30 713 C 74.0429 0.298053 -1.99283 0
M  V30 714 O 73.0989 1.01681 -2.31122 0
M  V30 715 C 74.4119 -2.20784 -2.04144 0
M  V30 716 C 75.9599 -2.25303 -2.17273 0
M  V30 717 C 76.4349 -3.45755 -3.00362 0
M  V30 718 N 77.9259 -3.4601 -3.07947 0
M  V30 719 C 78.6609 -4.35868 -3.72568 0
M  V30 720 N 78.1569 -5.35966 -4.38991 0
M  V30 721 N 79.9499 -4.23605 -3.6948 0
M  V30 722 H 72.1009 -2.06986 -0.476483 0
M  V30 723 H 74.3639 -0.907801 -0.273134 0
M  V30 724 H 74.0699 -3.14945 -1.56533 0
M  V30 725 H 73.9439 -2.22085 -3.04891 0
M  V30 726 H 76.3309 -1.3168 -2.64092 0
M  V30 727 H 76.4119 -2.28033 -1.15907 0
M  V30 728 H 76.0559 -4.39687 -2.5424 0
M  V30 729 H 75.9859 -3.40266 -4.01904 0
M  V30 730 H 78.4769 -2.73588 -2.60688 0
M  V30 731 H 78.7899 -6.00783 -4.86086 0
M  V30 732 H 77.1349 -5.39863 -4.37691 0
M  V30 733 H 80.3259 -3.44647 -3.16759 0
M  V30 734 H 80.4989 -4.93836 -4.1956 0
M  V30 735 N 73.905 1.17692 -1.04816 0
M  V30 736 C 74.868 2.19787 -0.650117 0
M  V30 737 C 75.868 1.58044 0.296427 0
M  V30 738 O 77.058 1.74012 0.0808097 0
M  V30 739 C 74.19 3.40869 0.0456987 0
M  V30 740 H 75.383 2.56516 -1.5537 0
M  V30 741 H 72.936 1.31708 -0.841594 0
M  V30 742 H 73.671 3.09681 0.962726 0
M  V30 743 H 73.456 3.86928 -0.634727 0
M  V30 744 H 74.946 4.16445 0.310432 0
M  V30 745 N 75.3831 0.828654 1.34056 0
M  V30 746 C 76.7991 0.515135 1.51058 0
M  V30 747 C 76.9991 -0.959581 1.77184 0
M  V30 748 O 76.0551 -1.74382 1.82612 0
M  V30 749 C 77.3681 1.37963 2.67183 0
M  V30 750 C 78.9161 1.37735 2.81066 0
M  V30 751 C 79.3911 2.22645 4.00241 0
M  V30 752 N 80.8821 2.203 4.07458 0
M  V30 753 C 81.6171 2.82744 4.98842 0
M  V30 754 N 81.1131 3.54201 5.9541 0
M  V30 755 N 82.9061 2.72268 4.91759 0
M  V30 756 H 75.0571 1.78343 1.15358 0
M  V30 757 H 77.3201 0.760304 0.566252 0
M  V30 758 H 77.0261 2.42714 2.54525 0
M  V30 759 H 76.9001 1.0484 3.62338 0
M  V30 760 H 79.2871 0.337593 2.93163 0
M  V30 761 H 79.3681 1.74859 1.86703 0
M  V30 762 H 79.0121 3.26674 3.88905 0
M  V30 763 H 78.9421 1.82869 4.93829 0
M  V30 764 H 81.4331 1.68327 3.38341 0
M  V30 765 H 81.7461 3.9908 6.61782 0
M  V30 766 H 80.0911 3.58308 5.95517 0
M  V30 767 H 83.2821 2.16014 4.15278 0
M  V30 768 H 83.4551 3.21219 5.62781 0
M  V30 769 N 76.8612 -1.46375 0.584142 0
M  V30 770 C 77.8242 -2.28784 -0.138108 0
M  V30 771 C 78.8242 -1.38471 -0.817462 0
M  V30 772 O 80.0142 -1.60833 -0.669199 0
M  V30 773 C 77.1462 -3.18892 -1.20503 0
M  V30 774 H 78.3392 -2.94117 0.586127 0
M  V30 775 H 75.8922 -1.52509 0.342171 0
M  V30 776 H 76.6272 -2.58309 -1.96079 0
M  V30 777 H 76.4122 -3.85388 -0.722384 0
M  V30 778 H 77.9022 -3.80914 -1.71155 0
M  V30 779 N 78.3393 -0.321999 -1.54275 0
M  V30 780 C 79.7553 0.0306999 -1.5957 0
M  V30 781 C 79.9553 1.50614 -1.33857 0
M  V30 782 O 79.0113 2.2619 -1.12223 0
M  V30 783 C 80.3243 -0.386122 -2.98211 0
M  V30 784 C 81.8723 -0.336647 -3.11184 0
M  V30 785 C 82.3473 -0.728607 -4.52167 0
M  V30 786 N 83.8383 -0.681952 -4.58152 0
M  V30 787 C 84.5733 -0.957449 -5.6535 0
M  V30 788 N 84.0693 -1.3 -6.80494 0
M  V30 789 N 85.8623 -0.883113 -5.55119 0
M  V30 790 H 78.0133 -1.28332 -1.69247 0
M  V30 791 H 80.2763 -0.521716 -0.791528 0
M  V30 792 H 79.9823 -1.41404 -3.22022 0
M  V30 793 H 79.8563 0.249662 -3.76373 0
M  V30 794 H 82.2433 0.682058 -2.8711 0
M  V30 795 H 82.3243 -1.00734 -2.3513 0
M  V30 796 H 81.9683 -1.74522 -4.76974 0
M  V30 797 H 81.8983 -0.0356152 -5.26588 0
M  V30 798 H 84.3893 -0.428985 -3.75457 0
M  V30 799 H 84.7023 -1.49563 -7.58189 0
M  V30 800 H 83.0473 -1.33824 -6.81994 0
M  V30 801 H 86.2383 -0.615001 -4.64042 0
M  V30 802 H 86.4113 -1.10118 -6.38575 0
M  V30 803 N 79.8174 1.5752 -0.0501392 0
M  V30 804 C 80.7804 2.1037 0.909786 0
M  V30 805 C 81.7804 1.02308 1.24056 0
M  V30 806 O 82.9704 1.28385 1.17741 0
M  V30 807 C 80.1024 2.58708 2.21998 0
M  V30 808 H 81.2954 2.96479 0.451665 0
M  V30 809 H 78.8484 1.55038 0.198248 0
M  V30 810 H 79.5834 1.75989 2.72394 0
M  V30 811 H 79.3684 3.37675 1.99295 0
M  V30 812 H 80.8584 2.99747 2.9076 0
M  V30 813 N 81.2955 -0.223234 1.56011 0
M  V30 814 C 82.2585 -1.26014 1.9145 0
M  V30 815 C 83.2585 -1.3989 0.792937 0
M  V30 816 O 84.4485 -1.38184 1.0607 0
M  V30 817 C 81.5805 -2.63422 2.16383 0
M  V30 818 H 82.7735 -0.95796 2.84189 0
M  V30 819 H 80.3265 -0.463576 1.49267 0
M  V30 820 H 81.0615 -2.98741 1.2619 0
M  V30 821 H 80.8465 -2.54728 2.98088 0
M  V30 822 H 82.3365 -3.38249 2.44903 0
M  V30 823 N 82.7736 -1.49793 -0.48987 0
M  V30 824 C 83.7036 -1.70201 -1.59856 0
M  V30 825 C 84.6846 -0.55076 -1.60937 0
M  V30 826 O 85.8696 -0.787841 -1.77501 0
M  V30 827 C 82.9996 -1.77882 -2.98287 0
M  V30 828 C 81.9536 -2.92907 -3.12073 0
M  V30 829 C 81.2796 -2.85712 -4.51965 0
M  V30 830 C 82.5796 -4.3369 -2.91051 0
M  V30 831 H 84.2736 -2.63025 -1.43032 0
M  V30 832 H 81.8196 -1.26574 -0.686664 0
M  V30 833 H 83.7726 -1.90744 -3.75759 0
M  V30 834 H 82.4966 -0.816653 -3.16225 0
M  V30 835 H 81.1556 -2.79665 -2.37029 0
M  V30 836 H 80.8036 -1.8738 -4.66795 0
M  V30 837 H 80.5036 -3.62921 -4.62128 0
M  V30 838 H 82.0276 -3.00598 -5.31482 0
M  V30 839 H 83.4416 -4.47555 -3.58284 0
M  V30 840 H 81.8386 -5.12205 -3.12675 0
M  V30 841 H 82.9086 -4.47362 -1.87071 0
M  V30 842 N 84.2517 0.741722 -1.39055 0
M  V30 843 C 85.2147 1.83733 -1.37021 0
M  V30 844 C 86.2147 1.58542 -0.268534 0
M  V30 845 O 87.4047 1.66067 -0.526076 0
M  V30 846 C 84.5367 3.2141 -1.13617 0
M  V30 847 H 85.7297 1.86941 -2.34506 0
M  V30 848 H 83.2827 0.944676 -1.24521 0
M  V30 849 H 84.0177 3.23865 -0.167863 0
M  V30 850 H 83.8027 3.4109 -1.93391 0
M  V30 851 H 85.2927 4.01477 -1.14918 0
M  V30 852 N 85.7298 1.2412 0.971189 0
M  V30 853 C 87.1458 1.00584 1.23916 0
M  V30 854 C 87.3458 -0.287481 1.99439 0
M  V30 855 O 86.4018 -1.00454 2.31658 0
M  V30 856 C 87.7148 2.21864 2.0297 0
M  V30 857 C 89.2628 2.26452 2.16076 0
M  V30 858 C 89.7378 3.47343 2.98524 0
M  V30 859 N 91.2288 3.47639 3.06107 0
M  V30 860 C 91.9638 4.37837 3.70251 0
M  V30 861 N 91.4598 5.38286 4.36142 0
M  V30 862 N 93.2528 4.25558 3.67228 0
M  V30 863 H 85.4038 2.07236 0.465499 0
M  V30 864 H 87.6668 0.909236 0.268315 0
M  V30 865 H 87.3728 3.15771 1.54861 0
M  V30 866 H 87.2468 2.23698 3.03709 0
M  V30 867 H 89.6338 1.33078 2.6339 0
M  V30 868 H 89.7148 2.28645 1.14696 0
M  V30 869 H 89.3588 4.41029 2.51905 0
M  V30 870 H 89.2888 3.42393 4.00093 0
M  V30 871 H 91.7798 2.74966 2.59233 0
M  V30 872 H 92.0928 6.03352 4.82894 0
M  V30 873 H 90.4378 5.42176 4.34822 0
M  V30 874 H 93.6288 3.46322 3.14927 0
M  V30 875 H 93.8018 4.96054 4.16935 0
M  V30 876 N 87.2079 -1.17134 1.05439 0
M  V30 877 C 88.1709 -2.19439 0.661764 0
M  V30 878 C 89.1709 -1.58199 -0.288042 0
M  V30 879 O 90.3609 -1.74053 -0.0715803 0
M  V30 880 C 87.4929 -3.40889 -0.0276209 0
M  V30 881 H 88.6859 -2.55688 1.56728 0
M  V30 882 H 86.2389 -1.31259 0.848567 0
M  V30 883 H 86.9739 -3.10187 -0.94629 0
M  V30 884 H 86.7589 -3.86586 0.655238 0
M  V30 885 H 88.2489 -4.16603 -0.288342 0
M  V30 886 N 88.686 -0.835752 -1.33615 0
M  V30 887 C 89.649 -0.272 -2.2758 0
M  V30 888 C 90.649 0.557487 -1.50827 0
M  V30 889 O 91.839 0.37173 -1.70188 0
M  V30 890 C 88.971 0.617173 -3.35267 0
M  V30 891 H 90.164 -1.10111 -2.78954 0
M  V30 892 H 87.717 -0.608594 -1.43965 0
M  V30 893 H 88.452 1.46884 -2.89129 0
M  V30 894 H 88.237 0.0237066 -3.92093 0
M  V30 895 H 89.727 1.005 -4.05326 0
M  V30 896 N 90.1641 1.46063 -0.591896 0
M  V30 897 C 91.0941 2.33172 0.123673 0
M  V30 898 C 92.0751 1.45897 0.87453 0
M  V30 899 O 93.2601 1.74698 0.848181 0
M  V30 900 C 90.3901 3.28336 1.13194 0
M  V30 901 C 89.3441 4.25124 0.495324 0
M  V30 902 C 88.6701 5.09863 1.61071 0
M  V30 903 C 89.9701 5.19143 -0.573425 0
M  V30 904 H 91.6641 2.93252 -0.603646 0
M  V30 905 H 89.2101 1.41014 -0.291741 0
M  V30 906 H 91.1631 3.88137 1.64097 0
M  V30 907 H 89.8871 2.66383 1.88965 0
M  V30 908 H 88.5461 3.66599 0.00729452 0
M  V30 909 H 88.1941 4.44288 2.35832 0
M  V30 910 H 87.8941 5.75417 1.19035 0
M  V30 911 H 89.4181 5.72529 2.12233 0
M  V30 912 H 90.8321 5.73106 -0.1491 0
M  V30 913 H 89.2291 5.93089 -0.914636 0
M  V30 914 H 90.2991 4.62519 -1.45617 0
M  V30 915 N 91.6422 0.330177 1.54103 0
M  V30 916 C 92.6052 -0.520144 2.2322 0
M  V30 917 C 93.6052 -1.03828 1.22786 0
M  V30 918 O 94.7952 -0.929652 1.4732 0
M  V30 919 C 91.9272 -1.72317 2.94142 0
M  V30 920 H 93.1202 0.0841605 2.99782 0
M  V30 921 H 90.6732 0.0813433 1.56088 0
M  V30 922 H 91.4082 -2.36653 2.21734 0
M  V30 923 H 91.1932 -1.35898 3.67796 0
M  V30 924 H 92.6832 -2.3266 3.46784 0
M  V30 925 N 93.1203 -1.57491 0.0584922 0
M  V30 926 C 94.5313 -1.80526 -0.476138 0
M  V30 927 C 94.8823 -0.971334 -1.70469 0
M  V30 928 O 94.0073 -0.190012 -2.15564 0
M  V30 929 C 94.6023 -3.27424 -0.870587 0
M  V30 930 C 93.1613 -3.51351 -1.35015 0
M  V30 931 C 92.3083 -2.75343 -0.32887 0
M  V30 932 H 95.2593 -1.56133 0.284312 0
M  V30 933 H 95.2803 -3.38745 -1.73299 0
M  V30 934 H 94.7923 -3.88093 0.0237627 0
M  V30 935 H 92.8933 -2.95971 -2.26345 0
M  V30 936 H 93.0063 -4.60059 -1.33726 0
M  V30 937 H 91.3703 -2.417 -0.803321 0
M  V30 938 H 92.1533 -3.38743 0.557521 0
M  V30 939 N 94.5984 0.214957 -1.56127 0
M  V30 940 C 96.0144 0.564948 -1.49267 0
M  V30 941 C 96.2144 1.86827 -0.754838 0
M  V30 942 O 95.2704 2.50745 -0.297198 0
M  V30 943 C 96.5834 0.638071 -2.93852 0
M  V30 944 C 98.1314 0.728253 -3.0441 0
M  V30 945 C 98.6064 0.832663 -4.50367 0
M  V30 946 N 100.097 0.896712 -4.54437 0
M  V30 947 C 100.832 0.997324 -5.6466 0
M  V30 948 N 100.328 1.06147 -6.8462 0
M  V30 949 N 102.121 1.03297 -5.52527 0
M  V30 950 H 94.2724 -0.640211 -2.02522 0
M  V30 951 H 96.5354 -0.225507 -0.920788 0
M  V30 952 H 96.2414 -0.250126 -3.50809 0
M  V30 953 H 96.1154 1.49947 -3.46115 0
M  V30 954 H 98.5024 1.60689 -2.47514 0
M  V30 955 H 98.5834 -0.158952 -2.55306 0
M  V30 956 H 98.2274 -0.0415417 -5.07883 0
M  V30 957 H 98.1574 1.73538 -4.97184 0
M  V30 958 H 100.648 0.857188 -3.6805 0
M  V30 959 H 100.961 1.1382 -7.64372 0
M  V30 960 H 99.3064 1.03049 -6.87318 0
M  V30 961 H 102.497 0.979558 -4.57736 0
M  V30 962 H 102.67 1.10793 -6.38458 0
M  V30 963 N 96.0765 1.50051 0.48192 0
M  V30 964 C 97.0065 1.71046 1.58951 0
M  V30 965 C 97.9875 0.559288 1.60642 0
M  V30 966 O 99.1725 0.797243 1.77081 0
M  V30 967 C 96.3025 1.79462 2.97339 0
M  V30 968 C 95.2565 2.94558 3.10515 0
M  V30 969 C 94.5825 2.88105 4.50444 0
M  V30 970 C 95.8825 4.35227 2.88747 0
M  V30 971 H 97.5765 2.6378 1.41635 0
M  V30 972 H 95.1225 1.26936 0.679942 0
M  V30 973 H 97.0755 1.92734 3.74742 0
M  V30 974 H 95.7995 0.833412 3.15788 0
M  V30 975 H 94.4585 2.80918 2.35543 0
M  V30 976 H 94.1065 1.89853 4.65795 0
M  V30 977 H 93.8065 3.65366 4.60197 0
M  V30 978 H 95.3305 3.03412 5.29881 0
M  V30 979 H 96.7445 4.49449 3.55905 0
M  V30 980 H 95.1415 5.13856 3.09955 0
M  V30 981 H 96.2115 4.48347 1.84696 0
M  V30 982 N 97.5546 -0.734337 1.39446 0
M  V30 983 C 98.9656 -1.31264 1.32766 0
M  V30 984 C 99.3166 -1.96198 -0.00767497 0
M  V30 985 O 98.4416 -1.96346 -0.909796 0
M  V30 986 C 99.0366 -2.38682 2.4045 0
M  V30 987 C 97.5956 -2.92184 2.37288 0
M  V30 988 C 96.7426 -1.6576 2.22304 0
M  V30 989 H 99.6936 -0.531799 1.49525 0
M  V30 990 H 99.7146 -3.19087 2.07276 0
M  V30 991 H 99.2266 -1.91392 3.37625 0
M  V30 992 H 97.3276 -3.43752 1.43754 0
M  V30 993 H 97.4406 -3.45253 3.3217 0
M  V30 994 H 95.8046 -1.9012 1.69489 0
M  V30 995 H 96.5876 -1.20521 3.21449 0
M  V30 996 N 99.0327 -1.24633 -0.964593 0
M  V30 997 C 99.9827 -1.00841 -2.04487 0
M  V30 998 C 100.967 0.0512468 -1.60818 0
M  V30 999 O 102.159 -0.162865 -1.76249 0
M  V30 1000 C 99.2877 -0.618474 -3.37683 0
M  V30 1001 C 98.3737 -1.71437 -3.87905 0
M  V30 1002 N 98.7647 -2.9477 -4.11029 0
M  V30 1003 C 97.0627 -1.5926 -4.16596 0
M  V30 1004 C 97.7637 -3.65834 -4.52261 0
M  V30 1005 N 96.7397 -2.9341 -4.57615 0
M  V30 1006 H 100.542 -1.94487 -2.20345 0
M  V30 1007 H 98.0557 -1.14805 -1.14863 0
M  V30 1008 H 100.053 -0.429247 -4.14684 0
M  V30 1009 H 98.7127 0.310766 -3.23209 0
M  V30 1010 H 99.7237 -3.30917 -3.9839 0
M  V30 1011 H 96.4007 -0.731606 -4.1104 0
M  V30 1012 H 97.7907 -4.71646 -4.78539 0
M  V30 1013 N 100.511 1.16574 -1.06058 0
M  V30 1014 C 101.459 2.22941 -0.663343 0
M  V30 1015 C 102.453 1.66358 0.319593 0
M  V30 1016 O 103.659 1.7905 0.184713 0
M  V30 1017 H 100.034 0.725907 -0.196376 0
M  V30 1018 H 102.005 2.53736 -1.57037 0
M  V30 1019 C 100.754 3.47642 -0.0632808 0
M  V30 1020 H 100.077 3.91493 -0.810733 0
M  V30 1021 H 101.517 4.2363 0.177177 0
M  V30 1022 C 99.9758 3.1509 1.19248 0
M  V30 1023 O 100.506 3.30673 2.28075 0
M  V30 1024 N 98.7118 2.6924 1.09353 0
M  V30 1025 H 98.2588 2.5676 0.207912 0
M  V30 1026 H 98.2168 2.47833 1.93458 0
M  V30 1027 N 101.989 0.842826 1.3317 0
M  V30 1028 C 102.919 0.294028 2.31641 0
M  V30 1029 C 103.9 -0.600401 1.59151 0
M  V30 1030 O 105.085 -0.523124 1.87022 0
M  V30 1031 C 102.215 -0.528416 3.43257 0
M  V30 1032 C 101.169 0.27056 4.27144 0
M  V30 1033 C 100.495 -0.675881 5.30411 0
M  V30 1034 C 101.795 1.48981 5.00602 0
M  V30 1035 H 103.489 1.11681 2.77791 0
M  V30 1036 H 101.035 0.538478 1.33553 0
M  V30 1037 H 102.988 -0.922674 4.11175 0
M  V30 1038 H 101.712 -1.38445 2.95805 0
M  V30 1039 H 100.371 0.646427 3.60856 0
M  V30 1040 H 100.019 -1.52842 4.79216 0
M  V30 1041 H 99.7189 -0.145374 5.8742 0
M  V30 1042 H 101.243 -1.06757 6.01195 0
M  V30 1043 H 102.657 1.16849 5.61266 0
M  V30 1044 H 101.054 1.95739 5.6728 0
M  V30 1045 H 102.124 2.25746 4.29147 0
M  V30 1046 N 103.467 -1.45747 0.599634 0
M  V30 1047 C 104.692 -2.07178 0.0960198 0
M  V30 1048 C 105.117 -1.44268 -1.207 0
M  V30 1049 O 104.475 -0.532503 -1.73303 0
M  V30 1050 C 104.523 -3.60579 -0.0385348 0
M  V30 1051 O 103.627 -3.97713 -1.0908 0
M  V30 1052 H 102.968 -0.660251 0.0704593 0
M  V30 1053 H 105.498 -1.87124 0.827385 0
M  V30 1054 H 105.508 -4.07298 -0.239304 0
M  V30 1055 H 104.183 -4.05756 0.912947 0
M  V30 1056 H 102.76 -3.62678 -0.867135 0
M  V30 1057 N 104.945 -0.338344 -1.53925 0
M  V30 1058 C 105.875 0.51328 -2.27789 0
M  V30 1059 C 106.856 1.107 -1.29149 0
M  V30 1060 O 108.041 1.12937 -1.57984 0
M  V30 1061 C 105.171 1.66697 -3.04679 0
M  V30 1062 C 104.125 1.20183 -4.1078 0
M  V30 1063 C 103.451 2.44363 -4.75595 0
M  V30 1064 C 104.751 0.30605 -5.21403 0
M  V30 1065 H 106.445 -0.102883 -2.99223 0
M  V30 1066 H 103.991 -0.0509219 -1.4391 0
M  V30 1067 H 105.944 2.26915 -3.55088 0
M  V30 1068 H 104.668 2.30995 -2.30887 0
M  V30 1069 H 103.327 0.622499 -3.61276 0
M  V30 1070 H 102.975 3.07057 -3.98403 0
M  V30 1071 H 102.675 2.13925 -5.47275 0
M  V30 1072 H 104.199 3.05317 -5.28786 0
M  V30 1073 H 105.613 0.814929 -5.67478 0
M  V30 1074 H 104.01 0.0937929 -6.00027 0
M  V30 1075 H 105.08 -0.65921 -4.80398 0
M  V30 1076 N 106.423 1.57458 -0.0668435 0
M  V30 1077 C 107.333 2.15937 0.916975 0
M  V30 1078 C 108.349 1.12123 1.33058 0
M  V30 1079 O 109.525 1.44366 1.40429 0
M  V30 1080 C 106.59 2.70547 2.16807 0
M  V30 1081 C 105.651 3.89215 1.81135 0
M  V30 1082 C 104.884 4.41211 3.0028 0
M  V30 1083 O 105.107 3.92225 4.14144 0
M  V30 1084 O 104.041 5.32605 2.80384 0
M  V30 1085 H 107.867 3.00354 0.449561 0
M  V30 1086 H 105.452 1.48584 0.155949 0
M  V30 1087 H 107.334 3.0557 2.90181 0
M  V30 1088 H 106.009 1.89192 2.62656 0
M  V30 1089 H 104.916 3.59054 1.05028 0
M  V30 1090 H 106.249 4.71848 1.40073 0
M  V30 1091 N 107.901 -0.206675 1.56239 0
M  V30 1092 C 108.831 -1.25909 1.96645 0
M  V30 1093 C 109.812 -1.48097 0.836734 0
M  V30 1094 O 110.997 -1.6003 1.10019 0
M  V30 1095 C 108.127 -2.6058 2.29599 0
M  V30 1096 C 107.081 -2.53024 3.452 0
M  V30 1097 C 106.407 -3.91861 3.63798 0
M  V30 1098 C 107.707 -2.06524 4.79734 0
M  V30 1099 H 109.401 -0.923369 2.84806 0
M  V30 1100 H 106.947 -0.442735 1.37025 0
M  V30 1101 H 108.9 -3.34375 2.56459 0
M  V30 1102 H 107.624 -2.95869 1.38307 0
M  V30 1103 H 106.283 -1.81684 3.18412 0
M  V30 1104 H 105.931 -4.24483 2.69857 0
M  V30 1105 H 105.631 -3.87683 4.4156 0
M  V30 1106 H 107.155 -4.67296 3.93022 0
M  V30 1107 H 108.569 -2.70072 5.05702 0
M  V30 1108 H 106.966 -2.13374 5.60885 0
M  V30 1109 H 108.036 -1.01802 4.74093 0
M  V30 1110 N 109.379 -1.50304 -0.473955 0
M  V30 1111 C 110.625 -1.61389 -1.22806 0
M  V30 1112 C 110.958 -0.311955 -1.91678 0
M  V30 1113 O 110.233 0.686384 -1.81986 0
M  V30 1114 C 110.516 -2.79219 -2.27396 0
M  V30 1115 C 110.369 -4.19286 -1.62848 0
M  V30 1116 C 111.688 -2.92614 -3.28732 0
M  V30 1117 H 108.807 -0.587399 -0.445119 0
M  V30 1118 H 111.449 -1.82681 -0.522265 0
M  V30 1119 H 109.599 -2.61195 -2.87592 0
M  V30 1120 H 111.271 -4.48892 -1.06271 0
M  V30 1121 H 109.514 -4.23677 -0.931693 0
M  V30 1122 H 110.185 -4.97655 -2.38838 0
M  V30 1123 H 112.661 -3.09105 -2.78556 0
M  V30 1124 H 111.537 -3.76688 -3.99246 0
M  V30 1125 H 111.798 -2.03107 -3.92683 0
M  V30 1126 N 110.857 0.726932 -1.39834 0
M  V30 1127 C 112.103 1.48884 -1.377 0
M  V30 1128 C 112.436 1.94185 0.0244852 0
M  V30 1129 O 111.711 1.67361 0.990986 0
M  V30 1130 C 111.994 2.72288 -2.3565 0
M  V30 1131 C 111.847 2.32956 -3.84775 0
M  V30 1132 C 113.166 3.74414 -2.31306 0
M  V30 1133 H 110.285 0.540062 -0.5015 0
M  V30 1134 H 112.927 0.830547 -1.70886 0
M  V30 1135 H 111.077 3.28457 -2.07481 0
M  V30 1136 H 112.749 1.82356 -4.23726 0
M  V30 1137 H 110.992 1.65088 -4.01159 0
M  V30 1138 H 111.663 3.21362 -4.4881 0
M  V30 1139 H 114.139 3.27849 -2.56231 0
M  V30 1140 H 113.015 4.58414 -3.01907 0
M  V30 1141 H 113.276 4.21909 -1.32081 0
M  V30 1142 N 112.336 1.25143 0.95797 0
M  V30 1143 C 113.299 1.05321 2.03569 0
M  V30 1144 C 114.299 0.007152 1.60798 0
M  V30 1145 O 115.489 0.24903 1.72411 0
M  V30 1146 C 112.621 0.598394 3.35607 0
M  V30 1147 H 113.814 2.00986 2.22586 0
M  V30 1148 H 111.367 1.07502 1.13459 0
M  V30 1149 H 112.102 -0.361014 3.22284 0
M  V30 1150 H 111.887 1.35351 3.67998 0
M  V30 1151 H 113.377 0.48104 4.1482 0
M  V30 1152 N 113.814 -1.1601 1.06675 0
M  V30 1153 C 114.777 -2.18724 0.685001 0
M  V30 1154 C 115.777 -1.58496 -0.271246 0
M  V30 1155 O 116.967 -1.74119 -0.0531156 0
M  V30 1156 C 114.099 -3.40899 0.00853648 0
M  V30 1157 H 115.292 -2.54011 1.59431 0
M  V30 1158 H 112.845 -1.30352 0.862441 0
M  V30 1159 H 113.58 -3.11173 -0.913337 0
M  V30 1160 H 113.365 -3.8587 0.696204 0
M  V30 1161 H 114.855 -4.16886 -0.24414 0
M  V30 1162 N 115.292 -0.849877 -1.32721 0
M  V30 1163 C 116.703 -0.506188 -1.79707 0
M  V30 1164 C 117.054 0.975627 -1.70223 0
M  V30 1165 O 116.179 1.76078 -1.25799 0
M  V30 1166 C 116.774 -0.912044 -3.26293 0
M  V30 1167 C 115.333 -0.620326 -3.71253 0
M  V30 1168 C 114.48 -1.11439 -2.53922 0
M  V30 1169 H 117.431 -1.03754 -1.20087 0
M  V30 1170 H 117.452 -0.226493 -3.79825 0
M  V30 1171 H 116.964 -1.99057 -3.33164 0
M  V30 1172 H 115.065 0.447674 -3.69901 0
M  V30 1173 H 115.178 -1.18327 -4.64258 0
M  V30 1174 H 113.542 -0.534834 -2.49021 0
M  V30 1175 H 114.325 -2.19992 -2.6355 0
M  V30 1176 N 116.77 1.45427 -0.607355 0
M  V30 1177 C 118.181 1.85756 -0.187535 0
M  V30 1178 C 118.532 1.5077 1.25551 0
M  V30 1179 O 117.657 0.93427 1.95193 0
M  V30 1180 C 118.252 3.37154 -0.333572 0
M  V30 1181 C 116.811 3.76387 0.0315542 0
M  V30 1182 C 115.958 2.69377 -0.658117 0
M  V30 1183 H 118.909 1.36231 -0.81405 0
M  V30 1184 H 118.93 3.78014 0.43428 0
M  V30 1185 H 118.442 3.62586 -1.38393 0
M  V30 1186 H 116.543 3.56571 1.0811 0
M  V30 1187 H 116.656 4.77731 -0.361935 0
M  V30 1188 H 115.02 2.5452 -0.0957873 0
M  V30 1189 H 115.803 2.97646 -1.7106 0
M  V30 1190 N 118.248 0.346503 1.53744 0
M  V30 1191 C 119.211 -0.496439 2.23759 0
M  V30 1192 C 120.211 -1.0252 1.2388 0
M  V30 1193 O 121.401 -0.913974 1.48297 0
M  V30 1194 C 118.533 -1.69187 2.95954 0
M  V30 1195 H 119.726 0.115952 2.99676 0
M  V30 1196 H 117.279 0.0978939 1.55993 0
M  V30 1197 H 118.014 -2.34288 2.24231 0
M  V30 1198 H 117.799 -1.31989 3.69217 0
M  V30 1199 H 119.289 -2.28969 3.49232 0
M  V30 1200 N 119.726 -1.57421 0.075193 0
M  V30 1201 C 121.142 -1.57099 -0.281444 0
M  V30 1202 C 121.342 -1.08486 -1.69803 0
M  V30 1203 O 120.398 -0.752279 -2.41033 0
M  V30 1204 C 121.711 -3.00571 -0.0880041 0
M  V30 1205 C 123.259 -3.12605 -0.157281 0
M  V30 1206 C 123.734 -4.57999 0.0079207 0
M  V30 1207 N 125.225 -4.63176 -0.0475725 0
M  V30 1208 C 125.96 -5.73373 0.0557876 0
M  V30 1209 N 125.456 -6.92473 0.21286 0
M  V30 1210 N 127.249 -5.621 -0.00152098 0
M  V30 1211 H 119.4 -1.87335 1.00098 0
M  V30 1212 H 121.663 -0.86377 0.390646 0
M  V30 1213 H 121.369 -3.40262 0.889629 0
M  V30 1214 H 121.243 -3.67754 -0.838875 0
M  V30 1215 H 123.63 -2.72798 -1.1254 0
M  V30 1216 H 123.711 -2.48053 0.62475 0
M  V30 1217 H 123.355 -4.98496 0.972824 0
M  V30 1218 H 123.285 -5.20586 -0.793556 0
M  V30 1219 H 125.776 -3.7753 -0.167244 0
M  V30 1220 H 126.089 -7.72279 0.283781 0
M  V30 1221 H 124.434 -6.94556 0.248267 0
M  V30 1222 H 127.625 -4.67938 -0.122958 0
M  V30 1223 H 127.798 -6.47948 0.0824844 0
M  V30 1224 N 121.204 0.198386 -1.56346 0
M  V30 1225 C 122.481 0.944982 -1.71258 0
M  V30 1226 C 122.861 2.0151 -0.629048 0
M  V30 1227 O 122.209 2.25639 0.360473 0
M  V30 1228 C 122.419 1.5344 -3.1346 0
M  V30 1229 C 123.767 2.01778 -3.73591 0
M  V30 1230 O 124.791 1.63288 -3.16568 0
M  V30 1231 O 123.65 2.72594 -4.73661 0
M  V30 1232 H 120.744 0.442939 -0.69838 0
M  V30 1233 H 123.29 0.188342 -1.68652 0
M  V30 1234 H 122.062 0.762869 -3.83792 0
M  V30 1235 H 121.685 2.35596 -3.20282 0
M  V30 1236 N 122.682 1.50554 0.465978 0
M  V30 1237 C 124.093 1.54599 1.04671 0
M  V30 1238 C 124.444 0.352488 1.93008 0
M  V30 1239 O 123.569 -0.534044 2.09707 0
M  V30 1240 C 124.164 2.80166 1.90505 0
M  V30 1241 C 122.723 2.86876 2.43678 0
M  V30 1242 C 121.87 2.48947 1.22151 0
M  V30 1243 H 124.821 1.56744 0.248384 0
M  V30 1244 H 124.842 2.62311 2.75633 0
M  V30 1245 H 124.354 3.67013 1.26186 0
M  V30 1246 H 122.455 2.04393 3.11536 0
M  V30 1247 H 122.568 3.89885 2.78436 0
M  V30 1248 H 120.932 2.01498 1.5579 0
M  V30 1249 H 121.715 3.38107 0.594866 0
M  V30 1250 N 124.16 -0.719506 1.40217 0
M  V30 1251 C 125.123 -1.8153 1.39927 0
M  V30 1252 C 126.123 -1.58095 0.293723 0
M  V30 1253 O 127.313 -1.65209 0.552429 0
M  V30 1254 C 124.445 -3.19561 1.18716 0
M  V30 1255 H 125.638 -1.83186 2.37451 0
M  V30 1256 H 123.191 -0.924746 1.26008 0
M  V30 1257 H 123.926 -3.23557 0.219366 0
M  V30 1258 H 123.711 -3.3797 1.98793 0
M  V30 1259 H 125.201 -3.99598 1.21291 0
M  V30 1260 N 125.638 -1.25649 -0.95132 0
M  V30 1261 C 126.863 -1.13443 -1.73624 0
M  V30 1262 C 127.288 0.307565 -1.85568 0
M  V30 1263 O 126.646 1.22282 -1.33854 0
M  V30 1264 C 126.694 -1.79723 -3.12621 0
M  V30 1265 O 125.798 -1.07912 -3.98031 0
M  V30 1266 H 125.139 -0.395872 -0.533086 0
M  V30 1267 H 127.669 -1.66276 -1.1922 0
M  V30 1268 H 127.679 -1.86141 -3.63064 0
M  V30 1269 H 126.354 -2.84633 -3.03244 0
M  V30 1270 H 124.931 -1.09398 -3.56492 0
M  V30 1271 N 127.117 1.15442 -1.07289 0
M  V30 1272 C 128.047 2.22312 -0.714107 0
M  V30 1273 C 129.028 1.67467 0.298155 0
M  V30 1274 O 130.213 1.93445 0.171048 0
M  V30 1275 C 127.343 3.47124 -0.110448 0
M  V30 1276 C 126.297 4.14926 -1.04979 0
M  V30 1277 C 125.623 5.33807 -0.308924 0
M  V30 1278 C 126.923 4.64762 -2.38314 0
M  V30 1279 H 128.617 2.5258 -1.6076 0
M  V30 1280 H 126.163 1.21404 -0.77441 0
M  V30 1281 H 128.116 4.21124 0.152482 0
M  V30 1282 H 126.84 3.16187 0.81812 0
M  V30 1283 H 125.499 3.42866 -1.29764 0
M  V30 1284 H 125.147 4.99126 0.623084 0
M  V30 1285 H 124.847 5.80113 -0.935036 0
M  V30 1286 H 126.371 6.10576 -0.0537771 0
M  V30 1287 H 127.785 5.30292 -2.1786 0
M  V30 1288 H 126.182 5.21728 -2.96514 0
M  V30 1289 H 127.252 3.80434 -3.00663 0
M  V30 1290 N 128.595 0.856903 1.32268 0
M  V30 1291 C 129.823 0.475439 2.01363 0
M  V30 1292 C 130.238 -0.928486 1.64392 0
M  V30 1293 O 129.595 -1.60624 0.866387 0
M  V30 1294 C 129.646 0.607545 3.56358 0
M  V30 1295 O 129.367 1.95617 3.92002 0
M  V30 1296 C 130.868 0.225382 4.42727 0
M  V30 1297 H 128.088 0.186636 0.644521 0
M  V30 1298 H 130.632 1.15446 1.68797 0
M  V30 1299 H 128.787 -0.0237719 3.87393 0
M  V30 1300 H 129.201 1.95455 4.86721 0
M  V30 1301 H 130.675 0.368813 5.50767 0
M  V30 1302 H 131.152 -0.834369 4.31202 0
M  V30 1303 H 131.758 0.831864 4.17085 0
M  V30 1304 N 130.073 -1.45103 0.615059 0
M  V30 1305 C 131.489 -1.57137 0.279322 0
M  V30 1306 C 131.689 -1.60523 -1.21797 0
M  V30 1307 O 130.745 -1.53956 -2.00134 0
M  V30 1308 C 132.058 -2.85062 0.957083 0
M  V30 1309 C 133.606 -2.98749 0.933706 0
M  V30 1310 C 134.081 -4.29455 1.59162 0
M  V30 1311 N 135.572 -4.36231 1.55746 0
M  V30 1312 C 136.307 -5.36051 2.0356 0
M  V30 1313 N 135.803 -6.42367 2.59494 0
M  V30 1314 N 137.596 -5.27456 1.94284 0
M  V30 1315 H 129.747 -1.41148 1.58717 0
M  V30 1316 H 132.01 -0.675331 0.665306 0
M  V30 1317 H 131.716 -2.88488 2.01166 0
M  V30 1318 H 131.59 -3.7407 0.48494 0
M  V30 1319 H 133.977 -2.94886 -0.112347 0
M  V30 1320 H 134.058 -2.11132 1.44419 0
M  V30 1321 H 133.702 -4.34077 2.63704 0
M  V30 1322 H 133.632 -5.15901 1.0561 0
M  V30 1323 H 136.123 -3.60011 1.14893 0
M  V30 1324 H 136.436 -7.14793 2.93752 0
M  V30 1325 H 134.781 -6.43097 2.63537 0
M  V30 1326 H 137.972 -4.43308 1.5032 0
M  V30 1327 H 138.145 -6.05099 2.3186 0
M  V30 1328 N 131.551 -0.354651 -1.53558 0
M  V30 1329 C 132.799 0.237972 -2.00694 0
M  V30 1330 C 133.12 1.50173 -1.24391 0
M  V30 1331 O 132.39 1.92673 -0.354135 0
M  V30 1332 H 130.97 0.0909256 -0.741446 0
M  V30 1333 H 133.632 -0.478368 -1.88938 0
M  V30 1334 H 132.728 0.47264 -3.085 0
M  V30 1335 N 133.029 1.57378 -0.0835403 0
M  V30 1336 C 133.959 2.1641 0.87686 0
M  V30 1337 C 134.94 1.09429 1.30228 0
M  V30 1338 O 136.125 1.37516 1.37124 0
M  V30 1339 C 133.255 2.73517 2.14022 0
M  V30 1340 C 132.209 3.85769 1.85381 0
M  V30 1341 C 131.535 4.29529 3.18448 0
M  V30 1342 C 132.835 5.09486 1.14984 0
M  V30 1343 H 134.529 2.96914 0.385059 0
M  V30 1344 H 132.075 1.42823 0.18377 0
M  V30 1345 H 134.028 3.13463 2.81636 0
M  V30 1346 H 132.752 1.90252 2.65465 0
M  V30 1347 H 131.411 3.46345 1.20169 0
M  V30 1348 H 131.059 3.43169 3.67755 0
M  V30 1349 H 130.759 5.05204 3.00071 0
M  V30 1350 H 132.283 4.72099 3.8724 0
M  V30 1351 H 133.697 5.46674 1.72687 0
M  V30 1352 H 132.094 5.90515 1.06826 0
M  V30 1353 H 133.164 4.84724 0.130749 0
M  V30 1354 N 134.507 -0.190092 1.56449 0
M  V30 1355 C 135.747 -0.916414 1.82705 0
M  V30 1356 C 136.111 -1.80235 0.661763 0
M  V30 1357 O 137.312 -2.56484 0.80433 0
M  V30 1358 C 135.583 -1.70691 3.14005 0
M  V30 1359 S 137.142 -2.48457 3.61683 0
M  V30 1360 H 133.96 -0.307281 0.64117 0
M  V30 1361 H 136.562 -0.179433 1.94675 0
M  V30 1362 H 135.266 -1.04677 3.96826 0
M  V30 1363 H 134.797 -2.48562 3.04927 0
M  V30 1364 H 136.812 -3.72756 3.27517 0
M  V30 1365 N 135.985 -1.50799 -0.457987 0
M  V30 1366 C 136.917 -1.66786 -1.57211 0
M  V30 1367 C 137.93 -0.548962 -1.53265 0
M  V30 1368 O 139.119 -0.8226 -1.58416 0
M  V30 1369 C 136.219 -1.64834 -2.96113 0
M  V30 1370 C 135.392 -2.92971 -3.24787 0
M  V30 1371 C 134.451 -2.83485 -4.43309 0
M  V30 1372 O 133.477 -3.5744 -4.42973 0
M  V30 1373 N 134.679 -1.97929 -5.45714 0
M  V30 1374 H 137.444 -2.62889 -1.43909 0
M  V30 1375 H 135.005 -1.48427 -0.646617 0
M  V30 1376 H 136.997 -1.56084 -3.7339 0
M  V30 1377 H 135.567 -0.764118 -3.03117 0
M  V30 1378 H 134.787 -3.15749 -2.36 0
M  V30 1379 H 136.075 -3.77834 -3.40762 0
M  V30 1380 H 135.473 -1.37182 -5.48815 0
M  V30 1381 H 134.03 -1.95073 -6.21924 0
M  V30 1382 N 137.463 0.71206 -1.40597 0
M  V30 1383 C 138.426 1.80785 -1.40888 0
M  V30 1384 C 139.426 1.57937 -0.302103 0
M  V30 1385 O 140.616 1.64913 -0.561182 0
M  V30 1386 C 137.748 3.18927 -1.20409 0
M  V30 1387 H 138.941 1.81924 -2.38419 0
M  V30 1388 H 136.494 0.91805 -1.26497 0
M  V30 1389 H 137.229 3.23436 -0.236522 0
M  V30 1390 H 137.014 3.36911 -2.00582 0
M  V30 1391 H 138.504 3.98949 -1.23408 0
M  V30 1392 N 138.941 1.26152 0.944643 0
M  V30 1393 C 139.871 1.09902 2.06019 0
M  V30 1394 C 140.852 0.00519538 1.70099 0
M  V30 1395 O 142.037 0.176583 1.93396 0
M  V30 1396 C 139.167 0.727562 3.39594 0
M  V30 1397 C 138.121 1.77274 3.89561 0
M  V30 1398 C 137.447 1.25569 5.19747 0
M  V30 1399 C 138.747 3.17357 4.14827 0
M  V30 1400 H 140.441 2.03217 2.19871 0
M  V30 1401 H 137.987 0.978452 1.05652 0
M  V30 1402 H 139.94 0.600777 4.17095 0
M  V30 1403 H 138.664 -0.241287 3.25707 0
M  V30 1404 H 137.323 1.88814 3.14237 0
M  V30 1405 H 136.971 0.276783 5.02238 0
M  V30 1406 H 136.671 1.95433 5.54148 0
M  V30 1407 H 138.195 1.1415 5.99835 0
M  V30 1408 H 139.609 3.08914 4.82954 0
M  V30 1409 H 138.006 3.84781 4.60504 0
M  V30 1410 H 139.076 3.63673 3.20734 0
M  V30 1411 N 140.419 -1.14872 1.07899 0
M  V30 1412 C 141.665 -1.86064 0.806725 0
M  V30 1413 C 141.998 -1.82434 -0.665706 0
M  V30 1414 O 141.273 -1.25138 -1.48899 0
M  V30 1415 C 141.556 -3.34929 1.32267 0
M  V30 1416 C 141.409 -3.47161 2.86006 0
M  V30 1417 C 142.728 -4.29863 0.943717 0
M  V30 1418 H 139.847 -0.675591 0.294526 0
M  V30 1419 H 142.489 -1.34925 1.33773 0
M  V30 1420 H 140.639 -3.78611 0.870974 0
M  V30 1421 H 142.311 -3.12302 3.39507 0
M  V30 1422 H 140.554 -2.88539 3.23925 0
M  V30 1423 H 141.225 -4.51777 3.17177 0
M  V30 1424 H 143.701 -3.9417 1.33302 0
M  V30 1425 H 142.577 -5.32494 1.33198 0
M  V30 1426 H 142.838 -4.41846 -0.149796 0
M  V30 1427 N 141.898 -0.863906 -1.31812 0
M  V30 1428 C 143.309 -0.52522 -1.7916 0
M  V30 1429 C 143.66 0.957518 -1.71248 0
M  V30 1430 O 142.785 1.74734 -1.27659 0
M  V30 1431 C 143.38 -0.9466 -3.25307 0
M  V30 1432 C 141.939 -0.659668 -3.70574 0
M  V30 1433 C 141.086 -1.14126 -2.52726 0
M  V30 1434 H 144.037 -1.05022 -1.1898 0
M  V30 1435 H 144.058 -0.266766 -3.79564 0
M  V30 1436 H 143.57 -2.02579 -3.31034 0
M  V30 1437 H 141.671 0.408416 -3.70355 0
M  V30 1438 H 141.784 -1.23245 -4.62977 0
M  V30 1439 H 140.148 -0.561216 -2.4844 0
M  V30 1440 H 140.931 -2.22775 -2.61201 0
M  V30 1441 N 143.376 1.44774 -0.622745 0
M  V30 1442 C 144.787 1.85546 -0.207226 0
M  V30 1443 C 145.138 1.52093 1.23944 0
M  V30 1444 O 144.263 0.95492 1.94191 0
M  V30 1445 C 144.858 3.36781 -0.369313 0
M  V30 1446 C 143.417 3.76399 -0.00836847 0
M  V30 1447 C 142.564 2.68664 -0.686651 0
M  V30 1448 H 145.515 1.3536 -0.828454 0
M  V30 1449 H 145.536 3.78453 0.394162 0
M  V30 1450 H 145.048 3.61098 -1.42231 0
M  V30 1451 H 143.149 3.57698 1.04322 0
M  V30 1452 H 143.262 4.7732 -0.412584 0
M  V30 1453 H 141.626 2.54404 -0.122777 0
M  V30 1454 H 142.409 2.95815 -1.74208 0
M  V30 1455 N 144.854 0.36279 1.53368 0
M  V30 1456 C 146.102 -0.227326 2.00817 0
M  V30 1457 C 146.423 -1.49511 1.25186 0
M  V30 1458 O 145.693 -1.92482 0.364348 0
M  V30 1459 H 144.273 -0.0869923 0.741917 0
M  V30 1460 H 146.935 0.488381 1.88682 0
M  V30 1461 H 146.031 -0.456273 3.08747 0
M  V30 1462 N 146.332 -1.57332 0.0918853 0
M  V30 1463 C 147.578 -1.94524 -0.573425 0
M  V30 1464 C 147.911 -0.973578 -1.68033 0
M  V30 1465 O 147.186 -0.00609226 -1.94499 0
M  V30 1466 C 147.469 -3.41858 -1.13161 0
M  V30 1467 C 147.322 -4.4979 -0.0299747 0
M  V30 1468 C 148.641 -3.90435 -2.03098 0
M  V30 1469 H 145.76 -0.70734 -0.206975 0
M  V30 1470 H 148.402 -1.89309 0.161942 0
M  V30 1471 H 146.552 -3.46433 -1.7583 0
M  V30 1472 H 148.224 -4.57327 0.604112 0
M  V30 1473 H 146.467 -4.291 0.636833 0
M  V30 1474 H 147.138 -5.50069 -0.461287 0
M  V30 1475 H 149.614 -3.87992 -1.50338 0
M  V30 1476 H 148.49 -4.94097 -2.39081 0
M  V30 1477 H 148.751 -3.29541 -2.94712 0
M  V30 1478 N 147.81 0.181792 -1.56548 0
M  V30 1479 C 148.773 1.20894 -1.94724 0
M  V30 1480 C 149.773 1.37738 -0.829747 0
M  V30 1481 O 150.963 1.35323 -1.09697 0
M  V30 1482 C 148.095 2.57593 -2.23291 0
M  V30 1483 H 149.288 0.882275 -2.86629 0
M  V30 1484 H 146.841 0.423838 -1.50444 0
M  V30 1485 H 147.576 2.95291 -1.34067 0
M  V30 1486 H 147.361 2.46735 -3.04736 0
M  V30 1487 H 148.851 3.31637 -2.53785 0
M  V30 1488 N 149.288 1.51039 0.449983 0
M  V30 1489 C 150.251 1.70863 1.5277 0
M  V30 1490 C 151.251 0.578846 1.5002 0
M  V30 1491 O 152.441 0.846213 1.52266 0
M  V30 1492 C 149.573 1.75341 2.9235 0
M  V30 1493 H 150.766 2.67034 1.36502 0
M  V30 1494 H 148.319 1.40838 0.677812 0
M  V30 1495 H 149.054 0.809383 3.14037 0
M  V30 1496 H 148.839 2.57436 2.95752 0
M  V30 1497 H 150.329 1.92559 3.70555 0
M  V30 1498 N 150.766 -0.704594 1.40972 0
M  V30 1499 C 151.696 -1.83124 1.44872 0
M  V30 1500 C 152.677 -1.67281 0.30838 0
M  V30 1501 O 153.862 -1.87149 0.518556 0
M  V30 1502 C 150.992 -3.21181 1.32136 0
M  V30 1503 C 149.946 -3.51714 2.43888 0
M  V30 1504 C 149.272 -4.89032 2.16222 0
M  V30 1505 C 150.572 -3.516 3.86232 0
M  V30 1506 H 152.266 -1.80117 2.39161 0
M  V30 1507 H 149.812 -0.865145 1.15114 0
M  V30 1508 H 151.765 -3.99702 1.33479 0
M  V30 1509 H 150.489 -3.24791 0.343279 0
M  V30 1510 H 149.148 -2.75539 2.41813 0
M  V30 1511 H 148.796 -4.89256 1.16778 0
M  V30 1512 H 148.496 -5.10426 2.911 0
M  V30 1513 H 150.02 -5.69873 2.19265 0
M  V30 1514 H 151.434 -4.2014 3.9007 0
M  V30 1515 H 149.831 -3.84523 4.60719 0
M  V30 1516 H 150.901 -2.50757 4.15029 0
M  V30 1517 N 152.244 -1.26651 -0.937939 0
M  V30 1518 C 153.174 -1.10993 -2.05433 0
M  V30 1519 C 154.155 -0.0142161 -1.70094 0
M  V30 1520 O 155.34 -0.186837 -1.93299 0
M  V30 1521 C 152.47 -0.745561 -3.39203 0
M  V30 1522 C 151.424 -1.79337 -3.88616 0
M  V30 1523 C 150.75 -1.28324 -5.19073 0
M  V30 1524 C 152.05 -3.19553 -4.13138 0
M  V30 1525 H 153.744 -2.0438 -2.1879 0
M  V30 1526 H 151.29 -0.984041 -1.05131 0
M  V30 1527 H 153.243 -0.622888 -4.16771 0
M  V30 1528 H 151.967 0.22401 -3.25831 0
M  V30 1529 H 150.626 -1.90477 -3.13231 0
M  V30 1530 H 150.274 -0.303414 -5.02084 0
M  V30 1531 H 149.974 -1.98369 -5.53103 0
M  V30 1532 H 151.498 -1.1733 -5.99221 0
M  V30 1533 H 152.912 -3.11471 -4.81309 0
M  V30 1534 H 151.309 -3.87218 -4.58457 0
M  V30 1535 H 152.379 -3.65368 -3.18801 0
M  V30 1536 N 153.722 1.14298 -1.08507 0
M  V30 1537 C 154.685 2.17607 -0.719711 0
M  V30 1538 C 155.685 1.58907 0.245997 0
M  V30 1539 O 156.875 1.74181 0.0254081 0
M  V30 1540 C 154.007 3.40842 -0.0627695 0
M  V30 1541 H 155.2 2.51443 -1.63452 0
M  V30 1542 H 152.753 1.28963 -0.88307 0
M  V30 1543 H 153.488 3.12587 0.863716 0
M  V30 1544 H 153.273 3.84713 -0.757504 0
M  V30 1545 H 154.763 4.17221 0.177786 0
M  V30 1546 N 155.201 0.870884 1.31352 0
M  V30 1547 C 156.448 0.482273 1.96673 0
M  V30 1548 C 156.776 -0.965638 1.68836 0
M  V30 1549 O 156.031 -1.69514 0.977937 0
M  V30 1550 C 156.33 0.687157 3.50732 0
M  V30 1551 C 155.996 2.108 3.9859 0
M  V30 1552 C 154.658 2.49656 4.1137 0
M  V30 1553 C 157.01 3.03459 4.23748 0
M  V30 1554 C 154.338 3.80412 4.46659 0
M  V30 1555 C 156.69 4.3373 4.60501 0
M  V30 1556 C 155.354 4.725 4.71487 0
M  V30 1557 H 154.624 0.176476 0.719679 0
M  V30 1558 H 157.271 1.10405 1.56471 0
M  V30 1559 H 155.576 -0.0177476 3.91796 0
M  V30 1560 H 157.273 0.366284 3.99324 0
M  V30 1561 H 153.863 1.79633 3.8914 0
M  V30 1562 H 158.047 2.74665 4.13368 0
M  V30 1563 H 153.303 4.1021 4.53362 0
M  V30 1564 H 157.477 5.05578 4.78919 0
M  V30 1565 H 155.104 5.73859 4.98588 0
M  V30 1566 N 156.679 -1.44442 0.630414 0
M  V30 1567 C 158.09 -1.85434 0.217063 0
M  V30 1568 C 158.441 -1.52748 -1.23136 0
M  V30 1569 O 157.566 -0.965205 -1.93682 0
M  V30 1570 C 158.161 -3.36581 0.387168 0
M  V30 1571 C 156.72 -3.76389 0.0283297 0
M  V30 1572 C 155.867 -2.68296 0.700889 0
M  V30 1573 H 158.818 -1.34919 0.83562 0
M  V30 1574 H 158.839 -3.78657 -0.374086 0
M  V30 1575 H 158.351 -3.60339 1.44144 0
M  V30 1576 H 156.452 -3.58246 -1.02423 0
M  V30 1577 H 156.565 -4.77095 0.437892 0
M  V30 1578 H 154.929 -2.54335 0.136267 0
M  V30 1579 H 155.712 -2.94887 1.75774 0
M  V30 1580 N 158.157 -0.370918 -1.53173 0
M  V30 1581 C 159.067 0.480823 -2.2962 0
M  V30 1582 C 160.083 1.08789 -1.35798 0
M  V30 1583 O 161.259 1.09768 -1.68858 0
M  V30 1584 C 158.324 1.60227 -3.07454 0
M  V30 1585 C 157.385 1.0222 -4.16953 0
M  V30 1586 C 156.618 2.0902 -4.91066 0
M  V30 1587 O 156.841 3.30222 -4.65091 0
M  V30 1588 O 155.775 1.71778 -5.76867 0
M  V30 1589 H 159.601 -0.141421 -3.03371 0
M  V30 1590 H 157.186 -0.135146 -1.48787 0
M  V30 1591 H 159.068 2.25417 -3.56041 0
M  V30 1592 H 157.743 2.20982 -2.36535 0
M  V30 1593 H 156.65 0.334064 -3.72605 0
M  V30 1594 H 157.983 0.459131 -4.90054 0
M  V30 1595 N 159.635 1.57281 -0.100228 0
M  V30 1596 C 160.598 2.13158 0.842398 0
M  V30 1597 C 161.598 1.06202 1.20738 0
M  V30 1598 O 162.788 1.32066 1.13597 0
M  V30 1599 C 159.92 2.65639 2.13655 0
M  V30 1600 H 161.113 2.97766 0.357114 0
M  V30 1601 H 158.666 1.5559 0.148823 0
M  V30 1602 H 159.401 1.84566 2.66657 0
M  V30 1603 H 159.186 3.43844 1.88451 0
M  V30 1604 H 160.676 3.08846 2.81077 0
M  V30 1605 N 161.113 -0.173488 1.56642 0
M  V30 1606 C 162.529 -0.525174 1.50712 0
M  V30 1607 C 162.729 -1.8476 0.804107 0
M  V30 1608 O 161.785 -2.49869 0.363574 0
M  V30 1609 C 163.098 -0.559937 2.95441 0
M  V30 1610 C 164.646 -0.647288 3.06234 0
M  V30 1611 C 165.121 -0.712963 4.52417 0
M  V30 1612 N 166.612 -0.775911 4.56655 0
M  V30 1613 C 167.347 -0.847264 5.67106 0
M  V30 1614 N 166.843 -0.879585 6.87194 0
M  V30 1615 N 168.636 -0.886117 5.55071 0
M  V30 1616 H 160.787 0.693681 2.00753 0
M  V30 1617 H 163.05 0.249841 0.914485 0
M  V30 1618 H 162.756 0.343049 3.50023 0
M  V30 1619 H 162.63 -1.40718 3.49969 0
M  V30 1620 H 165.017 -1.5407 2.51687 0
M  V30 1621 H 165.098 0.226586 2.54794 0
M  V30 1622 H 164.742 0.176183 5.07594 0
M  V30 1623 H 164.672 -1.60295 5.0161 0
M  V30 1624 H 167.163 -0.759304 3.70193 0
M  V30 1625 H 167.476 -0.935144 7.67121 0
M  V30 1626 H 165.821 -0.847898 6.89808 0
M  V30 1627 H 169.012 -0.857853 4.60172 0
M  V30 1628 H 169.185 -0.938263 6.41171 0
M  V30 1629 N 162.591 -1.51276 -0.441967 0
M  V30 1630 C 164.002 -1.56244 -1.02199 0
M  V30 1631 C 164.353 -0.383149 -1.92422 0
M  V30 1632 O 163.478 0.500613 -2.1053 0
M  V30 1633 C 164.073 -2.83162 -1.86024 0
M  V30 1634 C 162.632 -2.90716 -2.39084 0
M  V30 1635 C 161.779 -2.50858 -1.18175 0
M  V30 1636 H 164.73 -1.5712 -0.223416 0
M  V30 1637 H 164.751 -2.66663 -2.71425 0
M  V30 1638 H 164.263 -3.68974 -1.20331 0
M  V30 1639 H 162.364 -2.09323 -3.08244 0
M  V30 1640 H 162.477 -3.94266 -2.72198 0
M  V30 1641 H 160.841 -2.03951 -1.52565 0
M  V30 1642 H 161.624 -3.3901 -0.541001 0
M  V30 1643 N 164.069 0.697108 -1.41344 0
M  V30 1644 C 164.979 1.84088 -1.45427 0
M  V30 1645 C 165.995 1.70545 -0.34501 0
M  V30 1646 O 167.171 1.92488 -0.592492 0
M  V30 1647 C 164.236 3.20056 -1.33286 0
M  V30 1648 C 163.297 3.45718 -2.54514 0
M  V30 1649 C 162.53 4.75199 -2.42944 0
M  V30 1650 O 162.753 5.51579 -1.45318 0
M  V30 1651 O 161.687 5.0161 -3.32672 0
M  V30 1652 H 165.513 1.836 -2.41919 0
M  V30 1653 H 163.098 0.849966 -1.22866 0
M  V30 1654 H 164.98 4.01236 -1.28794 0
M  V30 1655 H 163.655 3.2123 -0.39909 0
M  V30 1656 H 162.562 2.64474 -2.64583 0
M  V30 1657 H 163.895 3.49356 -3.46715 0
M  V30 1658 N 165.547 1.27147 0.931209 0
M  V30 1659 C 166.477 1.12081 2.04842 0
M  V30 1660 C 167.458 0.0232364 1.70084 0
M  V30 1661 O 168.643 0.197085 1.93197 0
M  V30 1662 C 165.773 0.76354 3.38803 0
M  V30 1663 C 164.727 1.81396 3.87659 0
M  V30 1664 C 164.053 1.31075 5.18385 0
M  V30 1665 C 165.353 3.21739 4.11438 0
M  V30 1666 H 167.047 2.05537 2.17703 0
M  V30 1667 H 164.593 0.989603 1.04608 0
M  V30 1668 H 166.546 0.644982 4.16435 0
M  V30 1669 H 165.27 -0.206727 3.25945 0
M  V30 1670 H 163.929 1.92136 3.12217 0
M  V30 1671 H 163.577 0.330037 5.01916 0
M  V30 1672 H 163.277 2.013 5.52044 0
M  V30 1673 H 164.801 1.20506 5.98591 0
M  V30 1674 H 166.215 3.14019 4.79651 0
M  V30 1675 H 164.612 3.89644 4.56397 0
M  V30 1676 H 165.682 3.67054 3.16859 0
M  V30 1677 N 167.025 -1.13721 1.09112 0
M  V30 1678 C 167.955 -2.21148 0.749385 0
M  V30 1679 C 168.936 -1.6792 -0.271475 0
M  V30 1680 O 170.121 -1.93693 -0.140251 0
M  V30 1681 C 167.251 -3.46905 0.165659 0
M  V30 1682 C 166.205 -4.13203 1.11567 0
M  V30 1683 C 165.531 -5.33248 0.393809 0
M  V30 1684 C 166.831 -4.60912 2.45678 0
M  V30 1685 H 168.525 -2.4999 1.64758 0
M  V30 1686 H 166.071 -1.20156 0.793626 0
M  V30 1687 H 168.024 -4.21313 -0.085466 0
M  V30 1688 H 166.748 -3.17449 -0.767714 0
M  V30 1689 H 165.407 -3.40758 1.35202 0
M  V30 1690 H 165.055 -5.00054 -0.543599 0
M  V30 1691 H 164.755 -5.78552 1.02721 0
M  V30 1692 H 166.279 -6.10413 0.150908 0
M  V30 1693 H 167.693 -5.26759 2.26269 0
M  V30 1694 H 166.09 -5.16944 3.04776 0
M  V30 1695 H 167.16 -3.75603 3.06677 0
M  V30 1696 N 168.503 -0.877838 -1.30888 0
M  V30 1697 C 169.435 -0.296607 -2.27273 0
M  V30 1698 C 170.448 0.544799 -1.53414 0
M  V30 1699 O 171.637 0.365511 -1.74718 0
M  V30 1700 C 168.737 0.597481 -3.33592 0
M  V30 1701 C 167.91 -0.213251 -4.3688 0
M  V30 1702 C 166.969 0.610208 -5.2265 0
M  V30 1703 O 165.995 0.035441 -5.69189 0
M  V30 1704 N 167.197 1.92071 -5.47804 0
M  V30 1705 H 169.962 -1.12492 -2.77787 0
M  V30 1706 H 167.523 -0.740105 -1.43993 0
M  V30 1707 H 169.515 1.15425 -3.87891 0
M  V30 1708 H 168.085 1.32647 -2.83061 0
M  V30 1709 H 167.305 -0.951466 -3.82545 0
M  V30 1710 H 168.593 -0.769262 -5.02951 0
M  V30 1711 H 167.991 2.4107 -5.11763 0
M  V30 1712 H 166.548 2.42508 -6.05007 0
M  V30 1713 N 169.982 1.44106 -0.638065 0
M  V30 1714 C 170.912 2.33448 0.0494287 0
M  V30 1715 C 171.893 1.48606 0.827672 0
M  V30 1716 O 173.078 1.77308 0.792173 0
M  V30 1717 C 170.208 3.31771 1.02691 0
M  V30 1718 C 169.162 4.26485 0.359823 0
M  V30 1719 C 168.488 5.14729 1.44769 0
M  V30 1720 C 169.788 5.17056 -0.738296 0
M  V30 1721 H 171.482 2.91183 -0.696636 0
M  V30 1722 H 169.028 1.40014 -0.336456 0
M  V30 1723 H 170.981 3.93161 1.51666 0
M  V30 1724 H 169.705 2.7226 1.80395 0
M  V30 1725 H 168.364 3.66437 -0.10934 0
M  V30 1726 H 168.012 4.51566 2.21578 0
M  V30 1727 H 167.712 5.78913 1.00668 0
M  V30 1728 H 169.236 5.78991 1.93911 0
M  V30 1729 H 170.65 5.72342 -0.331354 0
M  V30 1730 H 169.047 5.89879 -1.10286 0
M  V30 1731 H 170.117 4.57652 -1.60258 0
M  V30 1732 N 171.46 0.379036 1.52974 0
M  V30 1733 C 172.41 -0.477772 2.22938 0
M  V30 1734 C 173.394 -1.03792 1.22948 0
M  V30 1735 O 174.586 -0.965725 1.48333 0
M  V30 1736 C 171.715 -1.60994 3.03209 0
M  V30 1737 C 170.801 -1.06203 4.10587 0
M  V30 1738 N 171.192 -0.238214 5.05239 0
M  V30 1739 C 169.49 -1.33554 4.25534 0
M  V30 1740 C 170.191 0.0633235 5.81666 0
M  V30 1741 N 169.167 -0.537901 5.40932 0
M  V30 1742 H 172.969 0.158295 2.93473 0
M  V30 1743 H 170.483 0.187778 1.61311 0
M  V30 1744 H 172.48 -2.23607 3.5186 0
M  V30 1745 H 171.14 -2.24893 2.34207 0
M  V30 1746 H 172.151 0.123695 5.17752 0
M  V30 1747 H 168.828 -1.97632 3.6776 0
M  V30 1748 H 170.218 0.730161 6.67921 0
M  V30 1749 N 172.938 -1.57226 0.108567 0
M  V30 1750 C 174.185 -1.94833 -0.551943 0
M  V30 1751 C 174.513 -0.991204 -1.67348 0
M  V30 1752 O 173.768 -0.0131878 -1.95696 0
M  V30 1753 C 174.067 -3.38911 -1.13463 0
M  V30 1754 C 173.733 -4.50696 -0.135509 0
M  V30 1755 C 172.395 -4.80998 0.139252 0
M  V30 1756 C 174.747 -5.18333 0.545957 0
M  V30 1757 C 172.075 -5.76259 1.10194 0
M  V30 1758 C 174.427 -6.14627 1.49721 0
M  V30 1759 C 173.091 -6.43327 1.78006 0
M  V30 1760 H 172.361 -0.712944 -0.20197 0
M  V30 1761 H 175.008 -1.90582 0.18726 0
M  V30 1762 H 173.313 -3.39805 -1.95037 0
M  V30 1763 H 175.01 -3.65317 -1.65362 0
M  V30 1764 H 171.6 -4.27087 -0.359846 0
M  V30 1765 H 175.784 -4.95087 0.346842 0
M  V30 1766 H 171.04 -5.96804 1.32795 0
M  V30 1767 H 175.214 -6.66126 2.03099 0
M  V30 1768 H 172.841 -7.1695 2.52759 0
M  V30 1769 N 174.416 0.165178 -1.56732 0
M  V30 1770 C 175.346 1.20651 -1.99914 0
M  V30 1771 C 176.327 1.45827 -0.875705 0
M  V30 1772 O 177.512 1.57057 -1.14223 0
M  V30 1773 C 174.642 2.54401 -2.36427 0
M  V30 1774 C 173.596 2.43782 -3.51787 0
M  V30 1775 C 172.922 3.82078 -3.7406 0
M  V30 1776 C 174.222 1.93732 -4.85041 0
M  V30 1777 H 175.916 0.847534 -2.87154 0
M  V30 1778 H 173.462 0.40625 -1.38151 0
M  V30 1779 H 175.415 3.27458 -2.65234 0
M  V30 1780 H 174.139 2.92098 -1.46103 0
M  V30 1781 H 172.798 1.73178 -3.23117 0
M  V30 1782 H 172.446 4.17179 -2.81017 0
M  V30 1783 H 172.146 3.7584 -4.51684 0
M  V30 1784 H 173.67 4.56712 -4.05274 0
M  V30 1785 H 175.084 2.56569 -5.12684 0
M  V30 1786 H 173.481 1.98428 -5.66345 0
M  V30 1787 H 174.551 0.891962 -4.76626 0
M  V30 1788 N 175.894 1.51508 0.433938 0
M  V30 1789 C 176.857 1.72473 1.50949 0
M  V30 1790 C 177.857 0.594725 1.49398 0
M  V30 1791 O 179.047 0.862315 1.5136 0
M  V30 1792 C 176.179 1.78431 2.90474 0
M  V30 1793 H 177.372 2.68467 1.33662 0
M  V30 1794 H 174.925 1.41549 0.662836 0
M  V30 1795 H 175.66 0.842645 3.13161 0
M  V30 1796 H 175.445 2.60558 2.93005 0
M  V30 1797 H 176.935 1.96479 3.68491 0
M  V30 1798 N 177.372 -0.689602 1.41712 0
M  V30 1799 C 178.335 -1.78521 1.43746 0
M  V30 1800 C 179.335 -1.57436 0.327191 0
M  V30 1801 O 180.525 -1.64 0.587348 0
M  V30 1802 C 177.657 -3.16971 1.25467 0
M  V30 1803 H 178.85 -1.78108 2.41283 0
M  V30 1804 H 176.403 -0.89781 1.27942 0
M  V30 1805 H 177.138 -3.23019 0.287948 0
M  V30 1806 H 176.923 -3.33678 2.05917 0
M  V30 1807 H 178.413 -3.96935 1.2974 0
M  V30 1808 N 178.85 -1.27639 -0.924453 0
M  V30 1809 C 179.813 -1.10681 -2.00705 0
M  V30 1810 C 180.813 -0.0497823 -1.60723 0
M  V30 1811 O 182.003 -0.294654 -1.7169 0
M  V30 1812 C 179.135 -0.687164 -3.33902 0
M  V30 1813 H 180.328 -2.06817 -2.17179 0
M  V30 1814 H 177.881 -1.10473 -1.10569 0
M  V30 1815 H 178.616 0.275439 -3.23128 0
M  V30 1816 H 178.401 -1.45061 -3.6428 0
M  V30 1817 H 179.891 -0.590853 -4.13399 0
M  V30 1818 N 180.328 1.1314 -1.09713 0
M  V30 1819 C 181.556 1.88321 -0.856898 0
M  V30 1820 C 181.971 1.79276 0.592073 0
M  V30 1821 O 181.328 1.16142 1.40774 0
M  V30 1822 C 181.379 3.37812 -1.28706 0
M  V30 1823 O 181.1 3.46627 -2.67921 0
M  V30 1824 C 182.601 4.29952 -1.07964 0
M  V30 1825 H 179.821 0.596094 -0.308079 0
M  V30 1826 H 182.365 1.43205 -1.45988 0
M  V30 1827 H 180.52 3.805 -0.727912 0
M  V30 1828 H 180.934 4.39579 -2.8613 0
M  V30 1829 H 182.408 5.33159 -1.42986 0
M  V30 1830 H 182.885 4.39196 -0.0176577 0
M  V30 1831 H 183.491 3.93036 -1.62489 0
M  V30 1832 N 181.806 0.884767 1.30421 0
M  V30 1833 C 182.716 0.355398 2.31892 0
M  V30 1834 C 183.732 -0.542261 1.65335 0
M  V30 1835 O 184.908 -0.435432 1.96637 0
M  V30 1836 C 181.973 -0.421661 3.44126 0
M  V30 1837 C 181.034 0.505727 4.26311 0
M  V30 1838 C 180.267 -0.234343 5.33185 0
M  V30 1839 O 180.49 -1.46045 5.51386 0
M  V30 1840 O 179.424 0.415443 6.00465 0
M  V30 1841 H 183.25 1.19685 2.79122 0
M  V30 1842 H 180.835 0.648596 1.34587 0
M  V30 1843 H 182.717 -0.861641 4.12497 0
M  V30 1844 H 181.392 -1.23942 2.99032 0
M  V30 1845 H 180.299 0.994513 3.60639 0
M  V30 1846 H 181.632 1.28948 4.75009 0
M  V30 1847 N 183.284 -1.43765 0.645699 0
M  V30 1848 C 184.512 -2.06253 0.163556 0
M  V30 1849 C 184.927 -1.48352 -1.16778 0
M  V30 1850 O 184.284 -0.611932 -1.71935 0
M  V30 1851 C 184.335 -3.61453 0.0583186 0
M  V30 1852 O 184.056 -4.172 1.33702 0
M  V30 1853 C 185.557 -4.41002 -0.450795 0
M  V30 1854 H 182.777 -0.665413 0.0864077 0
M  V30 1855 H 185.321 -1.84396 0.884222 0
M  V30 1856 H 183.476 -3.82522 -0.612865 0
M  V30 1857 H 183.89 -5.10791 1.19131 0
M  V30 1858 H 185.364 -5.49966 -0.473403 0
M  V30 1859 H 185.841 -4.13488 -1.48068 0
M  V30 1860 H 186.447 -4.24886 0.187637 0
M  V30 1861 N 184.763 -0.387143 -1.52771 0
M  V30 1862 C 186.174 0.0873634 -1.86495 0
M  V30 1863 C 186.525 1.46336 -1.30691 0
M  V30 1864 O 185.65 2.068 -0.637409 0
M  V30 1865 C 186.245 0.165305 -3.38396 0
M  V30 1866 C 184.804 0.584101 -3.7184 0
M  V30 1867 C 183.951 -0.255279 -2.76122 0
M  V30 1868 H 186.902 -0.605104 -1.46711 0
M  V30 1869 H 186.923 0.984848 -3.67534 0
M  V30 1870 H 186.435 -0.836301 -3.78982 0
M  V30 1871 H 184.536 1.59315 -3.36823 0
M  V30 1872 H 184.649 0.343749 -4.77865 0
M  V30 1873 H 183.013 0.279126 -2.53166 0
M  V30 1874 H 183.796 -1.25482 -3.19545 0
M  V30 1875 N 186.241 1.57166 -0.116904 0
M  V30 1876 C 187.487 1.95412 0.542405 0
M  V30 1877 C 187.82 1.00019 1.66463 0
M  V30 1878 O 187.095 0.0370346 1.94465 0
M  V30 1879 C 187.378 3.43615 1.07708 0
M  V30 1880 C 187.231 4.49781 -0.0415868 0
M  V30 1881 C 188.55 3.93616 1.96861 0
M  V30 1882 H 185.669 0.710543 0.195696 0
M  V30 1883 H 188.311 1.89027 -0.192038 0
M  V30 1884 H 186.461 3.49187 1.70296 0
M  V30 1885 H 188.133 4.56308 -0.676793 0
M  V30 1886 H 186.376 4.28033 -0.705019 0
M  V30 1887 H 187.047 5.50733 0.373717 0
M  V30 1888 H 189.523 3.90335 1.44146 0
M  V30 1889 H 188.399 4.97838 2.3119 0
M  V30 1890 H 188.66 3.34188 2.89432 0
M  V30 1891 N 187.719 -0.156864 1.56817 0
M  V30 1892 C 188.649 -1.19589 2.00551 0
M  V30 1893 C 189.63 -1.4536 0.883426 0
M  V30 1894 O 190.815 -1.56449 1.15054 0
M  V30 1895 C 187.945 -2.53143 2.37773 0
M  V30 1896 C 186.899 -2.41913 3.53075 0
M  V30 1897 C 186.225 -3.80088 3.76081 0
M  V30 1898 C 187.525 -1.91157 4.86062 0
M  V30 1899 H 189.219 -0.832293 2.87599 0
M  V30 1900 H 186.765 -0.398918 1.38364 0
M  V30 1901 H 188.718 -3.26047 2.66967 0
M  V30 1902 H 187.442 -2.91319 1.4765 0
M  V30 1903 H 186.101 -1.71462 3.24031 0
M  V30 1904 H 185.749 -4.15683 2.83225 0
M  V30 1905 H 185.449 -3.73439 4.53671 0
M  V30 1906 H 186.973 -4.54556 4.0769 0
M  V30 1907 H 188.387 -2.53846 5.14038 0
M  V30 1908 H 186.784 -1.95422 5.67389 0
M  V30 1909 H 187.854 -0.866673 4.77092 0
M  V30 1910 N 189.197 -1.51736 -0.425897 0
M  V30 1911 C 190.422 -1.69082 -1.20108 0
M  V30 1912 C 190.847 -0.392398 -1.83962 0
M  V30 1913 O 190.205 0.64858 -1.69302 0
M  V30 1914 C 190.253 -2.81604 -2.25237 0
M  V30 1915 O 189.357 -2.46004 -3.30992 0
M  V30 1916 H 188.698 -0.563408 -0.35138 0
M  V30 1917 H 191.228 -1.98358 -0.501512 0
M  V30 1918 H 191.238 -3.06025 -2.69838 0
M  V30 1919 H 189.913 -3.75817 -1.78142 0
M  V30 1920 H 188.49 -2.32195 -2.91787 0
M  V30 1921 N 190.675 0.682077 -1.42076 0
M  V30 1922 C 191.605 1.80796 -1.47767 0
M  V30 1923 C 192.586 1.6677 -0.334954 0
M  V30 1924 O 193.771 1.863 -0.548264 0
M  V30 1925 C 190.901 3.19038 -1.37229 0
M  V30 1926 C 189.855 3.47789 -2.49453 0
M  V30 1927 C 189.181 4.8553 -2.23975 0
M  V30 1928 C 190.481 3.45411 -3.91776 0
M  V30 1929 H 192.175 1.7629 -2.41997 0
M  V30 1930 H 189.721 0.846721 -1.16476 0
M  V30 1931 H 191.674 3.97528 -1.39821 0
M  V30 1932 H 190.398 3.24204 -0.394907 0
M  V30 1933 H 189.057 2.71657 -2.46166 0
M  V30 1934 H 188.705 4.87337 -1.24547 0
M  V30 1935 H 188.405 5.0573 -2.99184 0
M  V30 1936 H 189.929 5.66312 -2.28304 0
M  V30 1937 H 191.343 4.13882 -3.96705 0
M  V30 1938 H 189.74 3.77145 -4.66778 0
M  V30 1939 H 190.81 2.44122 -4.18966 0
M  V30 1940 N 192.153 1.28127 0.917671 0
M  V30 1941 C 193.083 1.14248 2.03641 0
M  V30 1942 C 194.064 0.0412748 1.7005 0
M  V30 1943 O 195.249 0.217566 1.92977 0
M  V30 1944 C 192.379 0.799431 3.37974 0
M  V30 1945 C 191.333 1.85497 3.85713 0
M  V30 1946 C 190.659 1.36565 5.16966 0
M  V30 1947 C 191.959 3.26085 4.08002 0
M  V30 1948 H 193.653 2.07835 2.15511 0
M  V30 1949 H 191.199 1.00064 1.03553 0
M  V30 1950 H 193.152 0.689114 4.15727 0
M  V30 1951 H 191.876 -0.172145 3.26146 0
M  V30 1952 H 190.535 1.95437 3.10161 0
M  V30 1953 H 190.183 0.383253 5.01538 0
M  V30 1954 H 189.883 2.07143 5.49878 0
M  V30 1955 H 191.407 1.26848 5.97279 0
M  V30 1956 H 192.821 3.19089 4.76293 0
M  V30 1957 H 191.218 3.94462 4.52238 0
M  V30 1958 H 192.288 3.70394 3.12948 0
M  V30 1959 N 193.631 -1.12557 1.10312 0
M  V30 1960 C 195.047 -1.36036 0.834649 0
M  V30 1961 C 195.247 -1.93946 -0.546539 0
M  V30 1962 O 194.303 -2.16484 -1.29966 0
M  V30 1963 C 195.616 -2.30312 1.9333 0
M  V30 1964 C 197.164 -2.43906 1.9616 0
M  V30 1965 C 197.639 -3.41496 3.05195 0
M  V30 1966 N 199.13 -3.49053 3.04494 0
M  V30 1967 C 199.865 -4.24471 3.85502 0
M  V30 1968 N 199.361 -5.02966 4.76442 0
M  V30 1969 N 201.154 -4.19864 3.73725 0
M  V30 1970 H 193.305 -0.733246 1.99342 0
M  V30 1971 H 195.568 -0.385234 0.866198 0
M  V30 1972 H 195.274 -1.94933 2.92735 0
M  V30 1973 H 195.148 -3.30421 1.81939 0
M  V30 1974 H 197.535 -2.78567 0.973886 0
M  V30 1975 H 197.616 -1.4369 2.11629 0
M  V30 1976 H 197.26 -3.07565 4.04186 0
M  V30 1977 H 197.19 -4.41539 2.86968 0
M  V30 1978 H 199.681 -2.93053 2.38596 0
M  V30 1979 H 199.994 -5.57846 5.34815 0
M  V30 1980 H 198.339 -5.02167 4.80472 0
M  V30 1981 H 201.53 -3.57623 3.02032 0
M  V30 1982 H 201.703 -4.78386 4.37093 0
M  V30 1983 N 195.109 -0.891671 -1.2995 0
M  V30 1984 C 196.525 -0.58662 -1.48428 0
M  V30 1985 C 196.725 0.873951 -1.81561 0
M  V30 1986 O 195.781 1.65471 -1.90724 0
M  V30 1987 C 197.094 -1.50553 -2.60296 0
M  V30 1988 C 198.642 -1.50988 -2.74175 0
M  V30 1989 C 199.117 -2.41488 -3.89163 0
M  V30 1990 N 200.608 -2.39489 -3.96483 0
M  V30 1991 C 201.343 -3.06223 -4.84784 0
M  V30 1992 N 200.839 -3.82206 -5.77833 0
M  V30 1993 N 202.632 -2.95421 -4.78208 0
M  V30 1994 H 194.783 -1.83644 -1.06718 0
M  V30 1995 H 197.046 -0.786455 -0.529332 0
M  V30 1996 H 196.752 -2.54581 -2.42654 0
M  V30 1997 H 196.626 -1.22008 -3.56923 0
M  V30 1998 H 199.013 -0.47708 -2.91218 0
M  V30 1999 H 199.094 -1.83567 -1.78148 0
M  V30 2000 H 198.738 -3.44857 -3.72876 0
M  V30 2001 H 198.668 -2.06222 -4.84541 0
M  V30 2002 H 201.159 -1.84278 -3.29924 0
M  V30 2003 H 201.472 -4.302 -6.41988 0
M  V30 2004 H 199.817 -3.86313 -5.77743 0
M  V30 2005 H 203.008 -2.35581 -4.04499 0
M  V30 2006 H 203.181 -3.47704 -5.46814 0
M  V30 2007 N 196.587 1.43421 -0.653314 0
M  V30 2008 C 197.497 2.34568 0.0388565 0
M  V30 2009 C 198.513 1.53888 0.81207 0
M  V30 2010 O 199.689 1.86539 0.759294 0
M  V30 2011 C 196.754 3.32167 0.993269 0
M  V30 2012 C 195.815 4.28751 0.216977 0
M  V30 2013 C 195.048 5.21688 1.12593 0
M  V30 2014 O 195.271 5.19052 2.36519 0
M  V30 2015 O 194.205 5.98919 0.598284 0
M  V30 2016 H 198.031 2.95251 -0.711386 0
M  V30 2017 H 195.616 1.43564 -0.413502 0
M  V30 2018 H 197.498 3.92183 1.54176 0
M  V30 2019 H 196.173 2.73987 1.72374 0
M  V30 2020 H 195.08 3.72215 -0.375101 0
M  V30 2021 H 196.413 4.89913 -0.473924 0
M  V30 2022 N 198.065 0.39524 1.52563 0
M  V30 2023 C 199.028 -0.425001 2.25225 0
M  V30 2024 C 200.028 -0.985266 1.27079 0
M  V30 2025 O 201.218 -0.866332 1.5113 0
M  V30 2026 C 198.35 -1.59686 3.01186 0
M  V30 2027 H 199.543 0.211233 2.99155 0
M  V30 2028 H 197.096 0.147472 1.55603 0
M  V30 2029 H 197.831 -2.27035 2.31572 0
M  V30 2030 H 197.616 -1.20176 3.73229 0
M  V30 2031 H 199.106 -2.17743 3.5634 0
M  V30 2032 N 199.544 -1.57102 0.125237 0
M  V30 2033 C 200.96 -1.57915 -0.231322 0
M  V30 2034 C 201.16 -1.13833 -1.66266 0
M  V30 2035 O 200.216 -0.828581 -2.38518 0
M  V30 2036 C 201.529 -3.00699 0.00766489 0
M  V30 2037 C 203.077 -3.12947 -0.0577483 0
M  V30 2038 C 203.552 -4.57742 0.153626 0
M  V30 2039 N 205.043 -4.63092 0.0998073 0
M  V30 2040 C 205.778 -5.72905 0.238174 0
M  V30 2041 N 205.274 -6.91445 0.433057 0
M  V30 2042 N 207.067 -5.6182 0.177308 0
M  V30 2043 H 199.218 -1.84055 1.06007 0
M  V30 2044 H 201.481 -0.850905 0.417929 0
M  V30 2045 H 201.187 -3.3726 0.997431 0
M  V30 2046 H 201.061 -3.70236 -0.721452 0
M  V30 2047 H 203.448 -2.7624 -1.03804 0
M  V30 2048 H 203.529 -2.4594 0.70335 0
M  V30 2049 H 203.173 -4.95149 1.13092 0
M  V30 2050 H 203.103 -5.22848 -0.627534 0
M  V30 2051 H 205.594 -3.77871 -0.047051 0
M  V30 2052 H 205.907 -7.70985 0.529332 0
M  V30 2053 H 204.252 -6.93415 0.469109 0
M  V30 2054 H 207.443 -4.68093 0.0259748 0
M  V30 2055 H 207.616 -6.47357 0.288582 0
M  V30 2056 N 201.022 0.148545 -1.56898 0
M  V30 2057 C 201.985 1.16736 -1.97244 0
M  V30 2058 C 202.985 1.35947 -0.858777 0
M  V30 2059 O 204.175 1.32966 -1.12542 0
M  V30 2060 C 201.307 2.52798 -2.28705 0
M  V30 2061 H 202.5 0.821279 -2.88435 0
M  V30 2062 H 200.053 0.391831 -1.51309 0
M  V30 2063 H 200.788 2.92381 -1.403 0
M  V30 2064 H 200.573 2.40216 -3.09901 0
M  V30 2065 H 202.063 3.26179 -2.60762 0
M  V30 2066 N 202.5 1.5196 0.417844 0
M  V30 2067 C 203.911 1.57851 0.997 0
M  V30 2068 C 204.262 0.413714 1.91789 0
M  V30 2069 O 203.387 -0.467057 2.113 0
M  V30 2070 C 203.982 2.86085 1.81496 0
M  V30 2071 C 202.541 2.94483 2.34428 0
M  V30 2072 C 201.688 2.52707 1.14169 0
M  V30 2073 H 204.639 1.57455 0.198392 0
M  V30 2074 H 204.66 2.70947 2.67148 0
M  V30 2075 H 204.172 3.70842 1.14446 0
M  V30 2076 H 202.273 2.142 3.04875 0
M  V30 2077 H 202.386 3.98546 2.65891 0
M  V30 2078 H 200.75 2.06353 1.49301 0
M  V30 2079 H 201.533 3.39828 0.486999 0
M  V30 2080 N 203.978 -0.674533 1.42435 0
M  V30 2081 C 204.908 -1.80009 1.48724 0
M  V30 2082 C 205.889 -1.6659 0.343793 0
M  V30 2083 O 207.074 -1.86007 0.558137 0
M  V30 2084 C 204.204 -3.18306 1.38919 0
M  V30 2085 C 203.158 -3.46461 2.51294 0
M  V30 2086 C 202.484 -4.84335 2.26547 0
M  V30 2087 C 203.784 -3.43328 3.93603 0
M  V30 2088 H 205.478 -1.75004 2.42928 0
M  V30 2089 H 203.024 -0.840533 1.16923 0
M  V30 2090 H 204.977 -3.9678 1.41927 0
M  V30 2091 H 203.701 -3.2399 0.412094 0
M  V30 2092 H 202.36 -2.70348 2.47604 0
M  V30 2093 H 202.008 -4.86669 1.2713 0
M  V30 2094 H 201.708 -5.04136 3.01861 0
M  V30 2095 H 203.232 -5.65094 2.31304 0
M  V30 2096 H 204.646 -4.11772 3.98894 0
M  V30 2097 H 203.043 -3.74664 4.68771 0
M  V30 2098 H 204.113 -2.41897 4.20255 0
M  V30 2099 N 205.456 -1.28612 -0.910864 0
M  V30 2100 C 206.704 -1.15705 -1.65701 0
M  V30 2101 C 207.025 0.29416 -1.92769 0
M  V30 2102 O 206.295 1.20331 -1.54588 0
M  V30 2103 H 204.875 -0.425216 -0.614167 0
M  V30 2104 H 207.537 -1.61381 -1.0928 0
M  V30 2105 H 206.633 -1.6988 -2.61815 0
M  V30 2106 N 206.934 1.1197 -1.10907 0
M  V30 2107 C 207.897 2.16031 -0.765707 0
M  V30 2108 C 208.897 1.59393 0.212235 0
M  V30 2109 O 210.087 1.74196 -0.0115441 0
M  V30 2110 C 207.219 3.40632 -0.135053 0
M  V30 2111 H 208.412 2.47919 -1.68748 0
M  V30 2112 H 205.965 1.27061 -0.910226 0
M  V30 2113 H 206.7 3.14348 0.797218 0
M  V30 2114 H 206.485 3.8302 -0.838937 0
M  V30 2115 H 207.975 4.17505 0.0892469 0
M  V30 2116 N 208.412 0.89855 1.29475 0
M  V30 2117 C 209.823 0.572537 1.77705 0
M  V30 2118 C 210.174 -0.911778 1.73727 0
M  V30 2119 O 209.299 -1.71288 1.32247 0
M  V30 2120 C 209.894 1.03252 3.22683 0
M  V30 2121 C 208.453 0.757687 3.68695 0
M  V30 2122 C 207.6 1.20787 2.49612 0
M  V30 2123 H 210.551 1.08139 1.16153 0
M  V30 2124 H 210.572 0.367307 3.78723 0
M  V30 2125 H 210.084 2.11285 3.25546 0
M  V30 2126 H 208.185 -0.310079 3.71308 0
M  V30 2127 H 208.298 1.35476 4.59547 0
M  V30 2128 H 206.662 0.626888 2.46865 0
M  V30 2129 H 207.445 2.29622 2.55203 0
M  V30 2130 N 209.89 -1.43072 0.660911 0
M  V30 2131 C 210.838 -2.32569 -0.0378199 0
M  V30 2132 C 211.832 -1.49046 -0.805092 0
M  V30 2133 O 213.038 -1.65206 -0.714624 0
M  V30 2134 H 209.413 -0.75136 -0.031019 0
M  V30 2135 H 211.384 -2.89216 0.734609 0
M  V30 2136 C 210.133 -3.33453 -0.985124 0
M  V30 2137 H 209.456 -3.97752 -0.404147 0
M  V30 2138 H 210.896 -3.98691 -1.44297 0
M  V30 2139 C 209.355 -2.64642 -2.08486 0
M  V30 2140 O 209.885 -2.46776 -3.16961 0
M  V30 2141 N 208.091 -2.23891 -1.8526 0
M  V30 2142 H 207.638 -2.38621 -0.970449 0
M  V30 2143 H 207.596 -1.78181 -2.59034 0
M  V30 2144 N 211.368 -0.403325 -1.52352 0
M  V30 2145 C 212.779 0.0675782 -1.86578 0
M  V30 2146 C 213.13 1.44941 -1.32236 0
M  V30 2147 O 212.255 2.06112 -0.659307 0
M  V30 2148 C 212.85 0.129404 -3.38553 0
M  V30 2149 C 211.409 0.544629 -3.72439 0
M  V30 2150 C 210.556 -0.284551 -2.75836 0
M  V30 2151 H 213.507 -0.620631 -1.46061 0
M  V30 2152 H 213.528 0.94581 -3.68558 0
M  V30 2153 H 213.04 -0.87645 -3.78074 0
M  V30 2154 H 211.141 1.55734 -3.38493 0
M  V30 2155 H 211.254 0.293046 -4.78203 0
M  V30 2156 H 209.618 0.252258 -2.53448 0
M  V30 2157 H 210.401 -1.28865 -3.18196 0
M  V30 2158 N 212.846 1.57033 -0.133567 0
M  V30 2159 C 214.093 1.95686 0.520877 0
M  V30 2160 C 214.421 1.0177 1.6575 0
M  V30 2161 O 213.676 0.0443195 1.9565 0
M  V30 2162 C 213.975 3.40674 1.08057 0
M  V30 2163 C 213.641 4.50855 0.0637899 0
M  V30 2164 C 212.303 4.80716 -0.215757 0
M  V30 2165 C 214.655 5.17398 -0.62835 0
M  V30 2166 C 211.983 5.74433 -1.19348 0
M  V30 2167 C 214.335 6.12167 -1.5948 0
M  V30 2168 C 212.999 6.40414 -1.88218 0
M  V30 2169 H 212.269 0.716067 0.190602 0
M  V30 2170 H 214.916 1.9026 -0.217556 0
M  V30 2171 H 213.221 3.42865 1.89606 0
M  V30 2172 H 214.918 3.67902 1.59529 0
M  V30 2173 H 211.508 4.27605 0.291855 0
M  V30 2174 H 215.692 4.94472 -0.425562 0
M  V30 2175 H 210.948 5.94616 -1.42272 0
M  V30 2176 H 215.122 6.6281 -2.13671 0
M  V30 2177 H 212.749 7.12838 -2.64133 0
M  V30 2178 N 214.325 -0.140222 1.56975 0
M  V30 2179 C 215.275 -1.17827 1.95194 0
M  V30 2180 C 216.259 -1.38195 0.824075 0
M  V30 2181 O 217.451 -1.39643 1.0876 0
M  V30 2182 C 214.58 -2.51024 2.34184 0
M  V30 2183 C 213.666 -2.3422 3.53556 0
M  V30 2184 N 214.057 -1.87185 4.69889 0
M  V30 2185 C 212.355 -2.64949 3.58773 0
M  V30 2186 C 213.056 -1.83586 5.5197 0
M  V30 2187 N 212.032 -2.2715 4.93866 0
M  V30 2188 H 215.834 -0.806817 2.82609 0
M  V30 2189 H 213.348 -0.348208 1.58623 0
M  V30 2190 H 215.345 -3.26074 2.59772 0
M  V30 2191 H 214.005 -2.88945 1.48124 0
M  V30 2192 H 215.016 -1.57048 4.93514 0
M  V30 2193 H 211.693 -3.067 2.8327 0
M  V30 2194 H 213.083 -1.48655 6.55249 0
M  V30 2195 N 215.803 -1.52179 -0.40978 0
M  V30 2196 C 216.733 -1.78435 -1.5061 0
M  V30 2197 C 217.714 -0.635295 -1.57791 0
M  V30 2198 O 218.899 -0.880823 -1.73076 0
M  V30 2199 C 216.029 -1.93444 -2.88439 0
M  V30 2200 C 214.983 -3.09038 -2.96108 0
M  V30 2201 C 214.309 -3.09268 -4.36185 0
M  V30 2202 C 215.609 -4.48508 -2.67652 0
M  V30 2203 H 217.303 -2.70237 -1.28889 0
M  V30 2204 H 214.849 -1.30036 -0.618605 0
M  V30 2205 H 216.802 -2.10394 -3.65119 0
M  V30 2206 H 215.526 -0.983129 -3.11452 0
M  V30 2207 H 214.185 -2.91837 -2.21872 0
M  V30 2208 H 213.833 -2.11861 -4.56206 0
M  V30 2209 H 213.533 -3.86907 -4.42241 0
M  V30 2210 H 215.057 -3.28348 -5.14801 0
M  V30 2211 H 216.471 -4.65918 -3.34056 0
M  V30 2212 H 214.868 -5.28059 -2.85085 0
M  V30 2213 H 215.938 -4.56649 -1.63095 0
M  V30 2214 N 217.281 0.66697 -1.42791 0
M  V30 2215 C 218.213 1.7925 -1.42836 0
M  V30 2216 C 219.226 1.59496 -0.326333 0
M  V30 2217 O 220.415 1.6847 -0.589916 0
M  V30 2218 C 217.515 3.16476 -1.21229 0
M  V30 2219 C 216.688 3.63011 -2.44013 0
M  V30 2220 C 215.747 4.78993 -2.17834 0
M  V30 2221 O 214.773 4.89137 -2.91091 0
M  V30 2222 N 215.975 5.68248 -1.18635 0
M  V30 2223 H 218.74 1.79695 -2.39854 0
M  V30 2224 H 216.301 0.850338 -1.37771 0
M  V30 2225 H 218.293 3.91734 -1.01621 0
M  V30 2226 H 216.863 3.10884 -0.32706 0
M  V30 2227 H 216.083 2.78346 -2.79137 0
M  V30 2228 H 217.371 3.90845 -3.25757 0
M  V30 2229 H 216.769 5.62712 -0.580615 0
M  V30 2230 H 215.326 6.43285 -1.05013 0
M  V30 2231 N 218.759 1.29093 0.90403 0
M  V30 2232 C 219.689 1.16401 2.02418 0
M  V30 2233 C 220.67 0.0593085 1.69997 0
M  V30 2234 O 221.855 0.238021 1.92736 0
M  V30 2235 C 218.985 0.835233 3.37107 0
M  V30 2236 C 217.939 1.89578 3.83724 0
M  V30 2237 C 217.265 1.42041 5.15489 0
M  V30 2238 C 218.565 3.30394 4.04521 0
M  V30 2239 H 220.259 2.10109 2.13295 0
M  V30 2240 H 217.805 1.01157 1.02486 0
M  V30 2241 H 219.758 0.733169 4.14973 0
M  V30 2242 H 218.482 -0.137543 3.2631 0
M  V30 2243 H 217.141 1.98715 3.08071 0
M  V30 2244 H 216.789 0.436426 5.01103 0
M  V30 2245 H 216.489 2.12964 5.4765 0
M  V30 2246 H 218.013 1.33176 5.959 0
M  V30 2247 H 219.427 3.24123 4.72882 0
M  V30 2248 H 217.824 3.99237 4.48029 0
M  V30 2249 H 218.894 3.73692 3.09002 0
M  V30 2250 N 220.237 -1.11381 1.11499 0
M  V30 2251 C 221.187 -2.15555 0.74298 0
M  V30 2252 C 222.171 -1.58894 -0.253276 0
M  V30 2253 O 223.363 -1.76897 -0.0602918 0
M  V30 2254 C 220.492 -3.42782 0.188481 0
M  V30 2255 C 219.578 -4.064 1.21244 0
M  V30 2256 N 219.969 -4.44864 2.40685 0
M  V30 2257 C 218.267 -4.3333 1.05552 0
M  V30 2258 C 218.968 -4.94715 3.05994 0
M  V30 2259 N 217.944 -4.90909 2.33472 0
M  V30 2260 H 221.746 -2.43074 1.65203 0
M  V30 2261 H 219.26 -1.28401 0.994329 0
M  V30 2262 H 221.257 -4.16789 -0.0961693 0
M  V30 2263 H 219.917 -3.16727 -0.715149 0
M  V30 2264 H 220.928 -4.36876 2.78136 0
M  V30 2265 H 217.605 -4.1698 0.208372 0
M  V30 2266 H 218.995 -5.34103 4.07656 0
M  V30 2267 N 221.715 -0.905404 -1.28997 0
M  V30 2268 C 222.961 -0.544465 -1.95977 0
M  V30 2269 C 223.316 0.90041 -1.70031 0
M  V30 2270 O 222.609 1.63064 -1.00601 0
M  V30 2271 C 222.803 -0.779906 -3.48787 0
M  V30 2272 C 222.632 -2.24612 -3.89589 0
M  V30 2273 C 221.402 -2.89464 -4.14172 0
M  V30 2274 C 223.6 -3.22182 -4.00878 0
M  V30 2275 N 221.582 -4.26469 -4.41585 0
M  V30 2276 C 222.953 -4.44323 -4.32409 0
M  V30 2277 C 225.008 -3.17694 -3.83373 0
M  V30 2278 C 223.711 -5.62546 -4.48258 0
M  V30 2279 C 225.737 -4.35208 -4.00435 0
M  V30 2280 C 225.099 -5.56121 -4.3233 0
M  V30 2281 H 221.198 -0.248948 -0.741316 0
M  V30 2282 H 223.782 -1.1674 -1.5582 0
M  V30 2283 H 221.953 -0.186308 -3.87953 0
M  V30 2284 H 223.685 -0.383833 -4.02876 0
M  V30 2285 H 220.44 -2.40232 -4.08149 0
M  V30 2286 H 220.864 -4.97283 -4.5939 0
M  V30 2287 H 225.506 -2.25297 -3.57773 0
M  V30 2288 H 223.224 -6.55429 -4.72692 0
M  V30 2289 H 226.81 -4.33228 -3.88336 0
M  V30 2290 H 225.69 -6.45537 -4.45255 0
M  V30 2291 N 223.193 1.4272 -0.668489 0
M  V30 2292 C 224.156 2.292 0.00448567 0
M  V30 2293 C 225.156 1.43001 0.735339 0
M  V30 2294 O 226.346 1.64461 0.57429 0
M  V30 2295 C 223.478 3.25375 1.01705 0
M  V30 2296 H 224.671 2.90199 -0.756608 0
M  V30 2297 H 222.224 1.50254 -0.430506 0
M  V30 2298 H 222.959 2.69301 1.80686 0
M  V30 2299 H 222.744 3.88944 0.496463 0
M  V30 2300 H 224.234 3.90245 1.48655 0
M  V30 2301 N 224.671 0.411399 1.52136 0
M  V30 2302 C 225.896 -0.165538 2.06738 0
M  V30 2303 C 226.321 -1.379 1.27926 0
M  V30 2304 O 225.679 -1.78628 0.310114 0
M  V30 2305 C 225.727 -0.492124 3.57226 0
M  V30 2306 O 224.831 -1.58276 3.80818 0
M  V30 2307 H 224.172 -0.0132132 0.663869 0
M  V30 2308 H 226.702 0.585253 1.96051 0
M  V30 2309 H 226.712 -0.750104 4.01045 0
M  V30 2310 H 225.387 0.394922 4.14021 0
M  V30 2311 H 223.964 -1.31677 3.48877 0
M  V30 2312 N 226.149 -1.5696 0.141893 0
M  V30 2313 C 227.56 -1.82797 -0.379776 0
M  V30 2314 C 227.911 -1.06033 -1.6508 0
M  V30 2315 O 227.036 -0.304011 -2.14254 0
M  V30 2316 C 227.631 -3.31578 -0.695802 0
M  V30 2317 C 226.19 -3.58014 -1.16201 0
M  V30 2318 C 225.337 -2.76699 -0.182455 0
M  V30 2319 H 228.288 -1.54406 0.366675 0
M  V30 2320 H 228.309 -3.47454 -1.55099 0
M  V30 2321 H 227.821 -3.87421 0.229449 0
M  V30 2322 H 225.922 -3.07553 -2.10338 0
M  V30 2323 H 226.035 -4.66501 -1.09151 0
M  V30 2324 H 224.399 -2.45618 -0.674072 0
M  V30 2325 H 225.182 -3.35311 0.736297 0
M  V30 2326 N 227.627 0.131896 -1.57047 0
M  V30 2327 C 228.557 1.16384 -2.02428 0
M  V30 2328 C 229.538 1.43936 -0.90644 0
M  V30 2329 O 230.723 1.54599 -1.17528 0
M  V30 2330 C 227.853 2.49328 -2.4177 0
M  V30 2331 C 226.807 2.36266 -3.56879 0
M  V30 2332 C 226.133 3.74057 -3.8208 0
M  V30 2333 C 227.433 1.834 -4.89042 0
M  V30 2334 H 229.127 0.786433 -2.88887 0
M  V30 2335 H 226.673 0.376855 -1.38981 0
M  V30 2336 H 228.626 3.21759 -2.7212 0
M  V30 2337 H 227.35 2.88934 -1.52266 0
M  V30 2338 H 226.009 1.66286 -3.26718 0
M  V30 2339 H 225.657 4.11125 -2.89803 0
M  V30 2340 H 225.357 3.66174 -4.59554 0
M  V30 2341 H 226.881 4.48012 -4.1487 0
M  V30 2342 H 228.295 2.45636 -5.18011 0
M  V30 2343 H 226.692 1.8637 -5.70426 0
M  V30 2344 H 227.762 0.790662 -4.7841 0
M  V30 2345 N 229.106 1.52395 0.401703 0
M  V30 2346 C 230.016 1.7917 1.51444 0
M  V30 2347 C 231.032 0.677691 1.6026 0
M  V30 2348 O 232.208 0.963909 1.76835 0
M  V30 2349 C 229.273 1.94347 2.87107 0
M  V30 2350 C 228.334 3.18257 2.88116 0
M  V30 2351 C 227.567 3.32701 4.17308 0
M  V30 2352 O 227.79 2.52238 5.11598 0
M  V30 2353 O 226.724 4.25891 4.25324 0
M  V30 2354 H 230.55 2.73633 1.31752 0
M  V30 2355 H 228.135 1.3733 0.588296 0
M  V30 2356 H 230.017 2.06109 3.67555 0
M  V30 2357 H 228.692 1.03073 3.06851 0
M  V30 2358 H 227.599 3.11947 2.06494 0
M  V30 2359 H 228.932 4.09336 2.73322 0
M  V30 2360 N 230.584 -0.659388 1.43143 0
M  V30 2361 C 231.812 -1.44723 1.47861 0
M  V30 2362 C 232.227 -1.88563 0.0945886 0
M  V30 2363 O 231.584 -1.59108 -0.893915 0
M  V30 2364 C 231.635 -2.68627 2.41913 0
M  V30 2365 O 231.356 -2.26623 3.74932 0
M  V30 2366 C 232.857 -3.62045 2.55809 0
M  V30 2367 H 230.077 -0.444801 0.502387 0
M  V30 2368 H 232.621 -0.808916 1.87821 0
M  V30 2369 H 230.776 -3.28613 2.05164 0
M  V30 2370 H 231.19 -3.06745 4.2545 0
M  V30 2371 H 232.664 -4.45666 3.25708 0
M  V30 2372 H 233.141 -4.08981 1.60099 0
M  V30 2373 H 233.747 -3.07944 2.93344 0
M  V30 2374 N 232.062 -1.29571 -0.897171 0
M  V30 2375 C 232.992 -1.17473 -2.01798 0
M  V30 2376 C 233.973 -0.068323 -1.69963 0
M  V30 2377 O 235.158 -0.248239 -1.92607 0
M  V30 2378 C 232.288 -0.853099 -3.36659 0
M  V30 2379 C 231.242 -1.9161 -3.82713 0
M  V30 2380 C 230.568 -1.44773 -5.14728 0
M  V30 2381 C 231.868 -3.32535 -4.02763 0
M  V30 2382 H 233.562 -2.11237 -2.12177 0
M  V30 2383 H 231.108 -1.01699 -1.01948 0
M  V30 2384 H 233.061 -0.755165 -4.14578 0
M  V30 2385 H 231.785 0.120236 -3.26379 0
M  V30 2386 H 230.444 -2.00346 -3.07013 0
M  V30 2387 H 230.092 -0.462995 -5.00865 0
M  V30 2388 H 229.792 -2.15865 -5.46513 0
M  V30 2389 H 231.316 -1.36334 -5.95185 0
M  V30 2390 H 232.73 -3.26626 -4.71156 0
M  V30 2391 H 231.127 -4.01607 -4.45905 0
M  V30 2392 H 232.197 -3.75326 -3.07016 0
M  V30 2393 N 233.54 1.10788 -1.12088 0
M  V30 2394 C 234.47 2.19083 -0.807755 0
M  V30 2395 C 235.451 1.6858 0.226859 0
M  V30 2396 O 236.636 1.93997 0.0888475 0
M  V30 2397 C 233.766 3.46344 -0.257576 0
M  V30 2398 C 232.72 4.101 -1.22483 0
M  V30 2399 C 232.046 5.32016 -0.535052 0
M  V30 2400 C 233.346 4.54236 -2.57811 0
M  V30 2401 H 235.04 2.45534 -1.71328 0
M  V30 2402 H 232.586 1.1801 -0.825205 0
M  V30 2403 H 234.539 4.21392 -0.0262679 0
M  V30 2404 H 233.263 3.19373 0.683278 0
M  V30 2405 H 231.922 3.37054 -1.44189 0
M  V30 2406 H 231.57 5.01319 0.410827 0
M  V30 2407 H 231.27 5.75625 -1.18024 0
M  V30 2408 H 232.794 6.09799 -0.312695 0
M  V30 2409 H 234.208 5.20575 -2.40155 0
M  V30 2410 H 232.605 5.08682 -3.18375 0
M  V30 2411 H 233.675 3.6734 -3.16528 0
M  V30 2412 N 235.018 0.912232 1.28515 0
M  V30 2413 C 236.295 0.463597 1.90027 0
M  V30 2414 C 236.675 -1.05753 1.82701 0
M  V30 2415 O 236.023 -1.90492 1.26194 0
M  V30 2416 C 236.233 0.992253 3.34597 0
M  V30 2417 C 237.581 1.04344 4.11579 0
M  V30 2418 O 238.605 0.94079 3.43551 0
M  V30 2419 O 237.464 1.1995 5.33174 0
M  V30 2420 H 234.558 0.146666 0.813891 0
M  V30 2421 H 237.104 1.00292 1.36893 0
M  V30 2422 H 235.876 2.03623 3.34146 0
M  V30 2423 H 235.499 0.433672 3.95228 0
M  V30 2424 N 236.496 -1.42363 0.676048 0
M  V30 2425 C 237.742 -2.0182 0.199125 0
M  V30 2426 C 238.075 -1.53339 -1.19168 0
M  V30 2427 O 237.35 -0.736124 -1.80032 0
M  V30 2428 C 237.633 -3.59331 0.235144 0
M  V30 2429 C 237.486 -4.17989 1.66149 0
M  V30 2430 C 238.805 -4.3813 -0.41595 0
M  V30 2431 H 235.924 -0.733293 0.0738311 0
M  V30 2432 H 238.566 -1.69368 0.86107 0
M  V30 2433 H 236.716 -3.87109 -0.328487 0
M  V30 2434 H 238.388 -4.0116 2.27747 0
M  V30 2435 H 236.631 -3.7377 2.20178 0
M  V30 2436 H 237.302 -5.27126 1.63837 0
M  V30 2437 H 239.778 -4.16051 0.0638529 0
M  V30 2438 H 238.654 -5.47717 -0.360115 0
M  V30 2439 H 238.915 -4.16101 -1.49373 0
M  V30 2440 N 237.974 -0.419461 -1.51915 0
M  V30 2441 C 238.904 0.391813 -2.30189 0
M  V30 2442 C 239.885 1.03699 -1.34836 0
M  V30 2443 O 241.07 1.04403 -1.63748 0
M  V30 2444 C 238.2 1.50312 -3.13087 0
M  V30 2445 C 237.154 0.9824 -4.16573 0
M  V30 2446 C 236.48 2.18809 -4.8788 0
M  V30 2447 C 237.78 0.0292356 -5.22292 0
M  V30 2448 H 239.474 -0.26135 -2.98257 0
M  V30 2449 H 237.02 -0.127134 -1.43438 0
M  V30 2450 H 238.973 2.07773 -3.66617 0
M  V30 2451 H 237.697 2.18431 -2.42807 0
M  V30 2452 H 236.356 0.430119 -3.64068 0
M  V30 2453 H 236.004 2.85507 -4.14119 0
M  V30 2454 H 235.704 1.84615 -5.57845 0
M  V30 2455 H 237.228 2.76858 -5.44226 0
M  V30 2456 H 238.642 0.512976 -5.71 0
M  V30 2457 H 237.039 -0.2244 -5.9968 0
M  V30 2458 H 238.109 -0.912931 -4.76228 0
M  V30 2459 N 239.452 1.56882 -0.150215 0
M  V30 2460 C 240.698 1.96518 0.500834 0
M  V30 2461 C 241.031 1.03527 1.64304 0
M  V30 2462 O 240.306 0.0782751 1.94342 0
M  V30 2463 C 240.589 3.45822 1.00395 0
M  V30 2464 C 240.442 4.49591 -0.136983 0
M  V30 2465 C 241.761 3.97704 1.88467 0
M  V30 2466 H 238.88 0.714535 0.18058 0
M  V30 2467 H 241.522 1.88577 -0.232091 0
M  V30 2468 H 239.672 3.5272 1.62851 0
M  V30 2469 H 241.344 4.5477 -0.77343 0
M  V30 2470 H 239.587 4.26441 -0.795652 0
M  V30 2471 H 240.258 5.51402 0.256815 0
M  V30 2472 H 242.734 3.93304 1.35834 0
M  V30 2473 H 241.61 5.0263 2.20578 0
M  V30 2474 H 241.871 3.40252 2.82279 0
M  V30 2475 N 240.93 -0.123565 1.57115 0
M  V30 2476 C 241.893 -1.13583 1.99076 0
M  V30 2477 C 242.893 -1.34564 0.880296 0
M  V30 2478 O 244.083 -1.31158 1.14644 0
M  V30 2479 C 241.215 -2.49128 2.32698 0
M  V30 2480 H 242.408 -0.775287 2.89706 0
M  V30 2481 H 239.961 -0.36771 1.51913 0
M  V30 2482 H 240.696 -2.90111 1.44934 0
M  V30 2483 H 240.481 -2.35255 3.13684 0
M  V30 2484 H 241.971 -3.2199 2.65918 0
M  V30 2485 N 242.408 -1.52605 -0.393616 0
M  V30 2486 C 243.654 -1.67672 -1.14079 0
M  V30 2487 C 243.987 -0.413121 -1.89755 0
M  V30 2488 O 243.262 0.588952 -1.85369 0
M  V30 2489 C 243.545 -2.9088 -2.12276 0
M  V30 2490 C 243.398 -4.27329 -1.40394 0
M  V30 2491 C 244.717 -3.09628 -3.12759 0
M  V30 2492 H 241.836 -0.610168 -0.413356 0
M  V30 2493 H 244.478 -1.85193 -0.424696 0
M  V30 2494 H 242.628 -2.76073 -2.73342 0
M  V30 2495 H 244.3 -4.53894 -0.82327 0
M  V30 2496 H 242.543 -4.2802 -0.705801 0
M  V30 2497 H 243.214 -5.09615 -2.12123 0
M  V30 2498 H 245.69 -3.23436 -2.61779 0
M  V30 2499 H 244.566 -3.97322 -3.78717 0
M  V30 2500 H 244.827 -2.23637 -3.81365 0
M  V30 2501 N 243.887 0.651787 -1.4349 0
M  V30 2502 C 244.817 1.77621 -1.51569 0
M  V30 2503 C 245.798 1.66022 -0.370253 0
M  V30 2504 O 246.983 1.85095 -0.587658 0
M  V30 2505 C 244.113 3.16056 -1.43966 0
M  V30 2506 C 243.067 3.4242 -2.56774 0
M  V30 2507 C 242.393 4.8067 -2.34223 0
M  V30 2508 C 243.693 3.37023 -3.99015 0
M  V30 2509 H 245.387 1.71117 -2.45681 0
M  V30 2510 H 242.933 0.821825 -1.18246 0
M  V30 2511 H 244.886 3.94472 -1.48221 0
M  V30 2512 H 243.61 3.23293 -0.463586 0
M  V30 2513 H 242.269 2.66375 -2.51873 0
M  V30 2514 H 241.917 4.84585 -1.34856 0
M  V30 2515 H 241.617 4.9927 -3.09844 0
M  V30 2516 H 243.141 5.61342 -2.40265 0
M  V30 2517 H 244.555 4.05374 -4.05395 0
M  V30 2518 H 242.952 3.67159 -4.74673 0
M  V30 2519 H 244.022 2.3518 -4.2405 0
M  V30 2520 N 245.365 1.30045 0.890287 0
M  V30 2521 C 246.297 1.11786 2.00091 0
M  V30 2522 C 247.31 0.0626307 1.62679 0
M  V30 2523 O 248.499 0.308112 1.75821 0
M  V30 2524 C 245.599 0.681527 3.31977 0
M  V30 2525 C 244.772 1.81735 3.97858 0
M  V30 2526 C 243.831 1.37045 5.08041 0
M  V30 2527 O 242.857 2.07677 5.29961 0
M  V30 2528 N 244.059 0.246525 5.79976 0
M  V30 2529 H 246.824 2.07441 2.16306 0
M  V30 2530 H 244.385 1.2211 1.06305 0
M  V30 2531 H 246.377 0.365675 4.03045 0
M  V30 2532 H 244.947 -0.182828 3.12065 0
M  V30 2533 H 244.167 2.30159 3.20032 0
M  V30 2534 H 245.455 2.57865 4.38615 0
M  V30 2535 H 244.853 -0.34215 5.64664 0
M  V30 2536 H 243.41 -0.00990438 6.51799 0
M  V30 2537 N 246.843 -1.10192 1.12674 0
M  V30 2538 C 247.806 -2.14786 0.799979 0
M  V30 2539 C 248.806 -1.59711 -0.18685 0
M  V30 2540 O 249.996 -1.74156 0.0392558 0
M  V30 2541 C 247.128 -3.40374 0.189228 0
M  V30 2542 H 248.321 -2.45203 1.72671 0
M  V30 2543 H 245.874 -1.25597 0.930326 0
M  V30 2544 H 246.609 -3.15577 -0.747107 0
M  V30 2545 H 246.394 -3.81637 0.899766 0
M  V30 2546 H 247.884 -4.17594 -0.0228143 0
M  V30 2547 N 248.321 -0.919034 -1.28029 0
M  V30 2548 C 249.271 -0.382574 -2.24767 0
M  V30 2549 C 250.255 0.508286 -1.52661 0
M  V30 2550 O 251.447 0.347145 -1.73562 0
M  V30 2551 C 248.576 0.371432 -3.41285 0
M  V30 2552 C 247.662 -0.535449 -4.20706 0
M  V30 2553 N 248.053 -1.65141 -4.78082 0
M  V30 2554 C 246.351 -0.336824 -4.44726 0
M  V30 2555 C 247.052 -2.21475 -5.37888 0
M  V30 2556 N 246.028 -1.50537 -5.22341 0
M  V30 2557 H 249.83 -1.23477 -2.66703 0
M  V30 2558 H 247.344 -0.772299 -1.42861 0
M  V30 2559 H 249.341 0.772638 -4.09678 0
M  V30 2560 H 248.001 1.22066 -3.00882 0
M  V30 2561 H 249.012 -2.03392 -4.7629 0
M  V30 2562 H 245.689 0.47246 -4.14818 0
M  V30 2563 H 247.079 -3.15379 -5.93284 0
M  V30 2564 N 249.799 1.42003 -0.683588 0
M  V30 2565 C 250.762 2.29191 -0.0198243 0
M  V30 2566 C 251.762 1.43773 0.72013 0
M  V30 2567 O 252.952 1.65061 0.556815 0
M  V30 2568 C 250.084 3.26435 0.982487 0
M  V30 2569 H 251.277 2.8938 -0.787345 0
M  V30 2570 H 248.83 1.49789 -0.446418 0
M  V30 2571 H 249.565 2.71203 1.77819 0
M  V30 2572 H 249.35 3.89449 0.455182 0
M  V30 2573 H 250.84 3.918 1.44508 0
M  V30 2574 N 251.277 0.427512 1.51691 0
M  V30 2575 C 252.523 -0.134744 2.02953 0
M  V30 2576 C 252.878 -1.41235 1.30654 0
M  V30 2577 O 252.171 -1.87168 0.409713 0
M  V30 2578 C 252.365 -0.418249 3.54944 0
M  V30 2579 C 252.194 0.830327 4.41968 0
M  V30 2580 C 250.964 1.36097 4.86627 0
M  V30 2581 C 253.162 1.7137 4.84909 0
M  V30 2582 N 251.144 2.56311 5.57833 0
M  V30 2583 C 252.515 2.76195 5.55082 0
M  V30 2584 C 254.57 1.72928 4.66905 0
M  V30 2585 C 253.273 3.82512 6.09161 0
M  V30 2586 C 255.299 2.78175 5.21894 0
M  V30 2587 C 254.661 3.8172 5.92004 0
M  V30 2588 H 250.76 -0.0103958 0.781931 0
M  V30 2589 H 253.344 0.585981 1.85673 0
M  V30 2590 H 251.515 -1.10801 3.7226 0
M  V30 2591 H 253.247 -0.970999 3.92879 0
M  V30 2592 H 250.002 0.916311 4.64651 0
M  V30 2593 H 250.426 3.17242 5.98069 0
M  V30 2594 H 255.068 0.942081 4.12171 0
M  V30 2595 H 252.786 4.62077 6.62956 0
M  V30 2596 H 256.372 2.8031 5.09821 0
M  V30 2597 H 255.252 4.61821 6.33791 0
M  V30 2598 N 252.755 -1.56801 0.158532 0
M  V30 2599 C 253.665 -2.20916 -0.789518 0
M  V30 2600 C 254.681 -1.1969 -1.26294 0
M  V30 2601 O 255.857 -1.52308 -1.31773 0
M  V30 2602 C 252.922 -2.82727 -2.00665 0
M  V30 2603 C 251.983 -3.99114 -1.58134 0
M  V30 2604 C 251.216 -4.57968 -2.74045 0
M  V30 2605 O 251.439 -4.15704 -3.90572 0
M  V30 2606 O 250.373 -5.48047 -2.48855 0
M  V30 2607 H 254.199 -3.02464 -0.273681 0
M  V30 2608 H 251.784 -1.4924 -0.0690548 0
M  V30 2609 H 253.666 -3.21968 -2.71872 0
M  V30 2610 H 252.341 -2.04184 -2.51179 0
M  V30 2611 H 251.248 -3.64567 -0.839155 0
M  V30 2612 H 252.581 -4.79212 -1.12325 0
M  V30 2613 N 254.233 0.115231 -1.57178 0
M  V30 2614 C 255.51 0.852873 -1.76027 0
M  V30 2615 C 255.89 1.97892 -0.73498 0
M  V30 2616 O 255.238 2.27232 0.24036 0
M  V30 2617 C 255.448 1.36608 -3.21153 0
M  V30 2618 C 256.796 1.81692 -3.83762 0
M  V30 2619 O 257.82 1.46278 -3.24779 0
M  V30 2620 O 256.679 2.47104 -4.87444 0
M  V30 2621 H 253.773 0.405296 -0.720877 0
M  V30 2622 H 256.319 0.0986785 -1.69413 0
M  V30 2623 H 255.091 0.558357 -3.87296 0
M  V30 2624 H 254.714 2.18287 -3.3232 0
M  V30 2625 N 255.711 1.52812 0.385517 0
M  V30 2626 C 256.957 1.68275 1.13188 0
M  V30 2627 C 257.29 0.423179 1.89533 0
M  V30 2628 O 256.565 -0.579113 1.85679 0
M  V30 2629 C 256.848 2.92001 2.1073 0
M  V30 2630 C 256.701 4.28067 1.38125 0
M  V30 2631 C 258.02 3.11283 3.11113 0
M  V30 2632 H 255.139 0.612352 0.410115 0
M  V30 2633 H 257.781 1.85415 0.414869 0
M  V30 2634 H 255.931 2.77519 2.71874 0
M  V30 2635 H 257.603 4.54324 0.799187 0
M  V30 2636 H 255.846 4.28388 0.683092 0
M  V30 2637 H 256.517 5.10733 2.09417 0
M  V30 2638 H 258.993 3.2482 2.6006 0
M  V30 2639 H 257.869 3.99325 3.76605 0
M  V30 2640 H 258.13 2.25656 3.80173 0
M  V30 2641 N 257.189 -0.644168 1.43834 0
M  V30 2642 C 258.437 -1.40117 1.45642 0
M  V30 2643 C 258.758 -1.94814 0.0852413 0
M  V30 2644 O 258.028 -1.74988 -0.880688 0
M  V30 2645 H 256.608 -0.52005 0.536243 0
M  V30 2646 H 259.27 -0.7591 1.7951 0
M  V30 2647 H 258.366 -2.23902 2.17427 0
M  V30 2648 N 258.668 -1.30515 -0.883378 0
M  V30 2649 C 259.598 -1.19607 -2.00541 0
M  V30 2650 C 260.579 -0.086346 -1.69881 0
M  V30 2651 O 261.764 -0.268654 -1.92333 0
M  V30 2652 C 258.894 -0.888758 -3.35736 0
M  V30 2653 C 257.848 -1.95659 -3.8066 0
M  V30 2654 C 257.174 -1.50224 -5.13164 0
M  V30 2655 C 258.474 -3.36788 -3.99213 0
M  V30 2656 H 260.168 -2.13476 -2.09925 0
M  V30 2657 H 257.714 -1.02775 -1.00863 0
M  V30 2658 H 259.667 -0.799094 -4.13754 0
M  V30 2659 H 258.391 0.0856125 -3.26488 0
M  V30 2660 H 257.05 -2.03591 -3.04871 0
M  V30 2661 H 256.698 -0.516092 -5.00345 0
M  V30 2662 H 256.398 -2.2165 -5.44192 0
M  V30 2663 H 257.922 -1.42639 -5.93706 0
M  V30 2664 H 259.336 -3.31605 -4.67665 0
M  V30 2665 H 257.733 -4.06314 -4.41621 0
M  V30 2666 H 258.803 -3.78561 -3.03017 0
M  V30 2667 N 260.146 1.09593 -1.13257 0
M  V30 2668 C 261.109 2.14359 -0.811358 0
M  V30 2669 C 262.109 1.59808 0.178377 0
M  V30 2670 O 263.299 1.74132 -0.0484911 0
M  V30 2671 C 260.431 3.40269 -0.207276 0
M  V30 2672 H 261.624 2.44284 -1.73969 0
M  V30 2673 H 259.177 1.25102 -0.936973 0
M  V30 2674 H 259.912 3.15969 0.73036 0
M  V30 2675 H 259.697 3.81154 -0.919992 0
M  V30 2676 H 261.187 4.176 0.000667944 0
M  V30 2677 N 261.624 0.925811 1.2754 0
M  V30 2678 C 262.554 0.440748 2.29303 0
M  V30 2679 C 263.535 -0.497971 1.62648 0
M  V30 2680 O 264.72 -0.403126 1.8997 0
M  V30 2681 C 261.85 -0.309048 3.45922 0
M  V30 2682 C 260.804 0.54166 4.24559 0
M  V30 2683 C 260.13 -0.337191 5.33636 0
M  V30 2684 C 261.43 1.80516 4.90114 0
M  V30 2685 H 263.124 1.29121 2.70126 0
M  V30 2686 H 260.67 0.622323 1.29858 0
M  V30 2687 H 262.623 -0.659315 4.1621 0
M  V30 2688 H 261.347 -1.19352 3.04011 0
M  V30 2689 H 260.006 0.874609 3.56014 0
M  V30 2690 H 259.654 -1.22056 4.87966 0
M  V30 2691 H 259.354 0.228497 5.87156 0
M  V30 2692 H 260.878 -0.683072 6.06767 0
M  V30 2693 H 262.292 1.52307 5.52698 0
M  V30 2694 H 260.689 2.3142 5.53683 0
M  V30 2695 H 261.759 2.52581 4.13921 0
M  V30 2696 N 263.102 -1.41638 0.69111 0
M  V30 2697 C 264.342 -2.03166 0.224291 0
M  V30 2698 C 264.706 -1.53537 -1.15284 0
M  V30 2699 O 265.907 -2.0696 -1.71525 0
M  V30 2700 C 264.178 -3.56342 0.274758 0
M  V30 2701 S 265.737 -4.3864 -0.118669 0
M  V30 2702 H 262.555 -0.705188 0.0907263 0
M  V30 2703 H 265.157 -1.7314 0.907895 0
M  V30 2704 H 263.861 -3.89958 1.2791 0
M  V30 2705 H 263.392 -3.91063 -0.428142 0
M  V30 2706 H 265.407 -4.77549 -1.34764 0
M  V30 2707 N 264.58 -0.43555 -1.51462 0
M  V30 2708 C 265.996 -0.0877501 -1.59359 0
M  V30 2709 C 266.196 1.4027 -1.4466 0
M  V30 2710 O 265.252 2.17243 -1.28693 0
M  V30 2711 C 266.565 -0.606264 -2.94525 0
M  V30 2712 C 268.113 -0.566548 -3.0783 0
M  V30 2713 C 268.588 -1.06201 -4.45517 0
M  V30 2714 N 270.079 -1.01992 -4.51832 0
M  V30 2715 C 270.814 -1.37417 -5.5669 0
M  V30 2716 N 270.31 -1.80119 -6.68976 0
M  V30 2717 N 272.103 -1.29245 -5.47039 0
M  V30 2718 H 264.254 -1.40533 -1.59261 0
M  V30 2719 H 266.517 -0.578992 -0.750648 0
M  V30 2720 H 266.223 -1.64901 -3.10645 0
M  V30 2721 H 266.097 -0.0302097 -3.77188 0
M  V30 2722 H 268.484 0.467208 -2.91378 0
M  V30 2723 H 268.565 -1.17898 -2.2701 0
M  V30 2724 H 268.209 -2.09422 -4.62715 0
M  V30 2725 H 268.139 -0.426127 -5.24873 0
M  V30 2726 H 270.63 -0.706308 -3.71241 0
M  V30 2727 H 270.943 -2.05392 -7.45006 0
M  V30 2728 H 269.288 -1.84044 -6.70189 0
M  V30 2729 H 272.479 -0.957522 -4.58202 0
M  V30 2730 H 272.652 -1.57182 -6.28648 0
M  V30 2731 N 266.058 1.56714 -0.166846 0
M  V30 2732 C 267.286 2.0112 0.485644 0
M  V30 2733 C 267.701 1.04705 1.57106 0
M  V30 2734 O 267.058 0.0471923 1.82439 0
M  V30 2735 C 267.109 3.45361 1.06808 0
M  V30 2736 O 266.83 4.38092 0.0259995 0
M  V30 2737 C 268.331 4.05145 1.79924 0
M  V30 2738 H 265.551 0.65931 0.124704 0
M  V30 2739 H 268.095 2.02746 -0.267262 0
M  V30 2740 H 266.25 3.44524 1.7715 0
M  V30 2741 H 266.664 5.22519 0.455398 0
M  V30 2742 H 268.138 5.08009 2.15942 0
M  V30 2743 H 268.615 3.46982 2.69258 0
M  V30 2744 H 269.221 4.09672 1.14234 0
M  V30 2745 N 267.536 -0.106894 1.57237 0
M  V30 2746 C 268.468 -1.15646 1.97885 0
M  V30 2747 C 269.481 -1.36981 0.879779 0
M  V30 2748 O 270.67 -1.35841 1.15799 0
M  V30 2749 C 267.77 -2.51425 2.27241 0
M  V30 2750 C 266.943 -2.50529 3.58545 0
M  V30 2751 C 266.002 -3.68145 3.75973 0
M  V30 2752 O 265.028 -3.51176 4.47956 0
M  V30 2753 N 266.23 -4.87177 3.15656 0
M  V30 2754 H 268.995 -0.81059 2.8853 0
M  V30 2755 H 266.556 -0.296024 1.59171 0
M  V30 2756 H 268.548 -3.28689 2.36105 0
M  V30 2757 H 267.118 -2.78147 1.42663 0
M  V30 2758 H 266.338 -1.58894 3.60758 0
M  V30 2759 H 267.626 -2.46997 4.44826 0
M  V30 2760 H 267.024 -5.03868 2.57165 0
M  V30 2761 H 265.581 -5.62075 3.30023 0
M  V30 2762 N 269.014 -1.53014 -0.377408 0
M  V30 2763 C 270.291 -1.59215 -1.13622 0
M  V30 2764 C 270.671 -0.392407 -2.07421 0
M  V30 2765 O 270.019 0.618342 -2.19975 0
M  V30 2766 C 270.229 -2.93669 -1.88573 0
M  V30 2767 C 271.577 -3.47822 -2.43526 0
M  V30 2768 O 272.601 -2.9562 -1.98715 0
M  V30 2769 O 271.46 -4.39055 -3.25412 0
M  V30 2770 H 268.554 -0.642625 -0.52054 0
M  V30 2771 H 271.1 -1.65353 -0.381625 0
M  V30 2772 H 269.872 -3.7243 -1.20048 0
M  V30 2773 H 269.495 -2.90968 -2.70968 0
M  V30 2774 N 270.492 0.636531 -1.44174 0
M  V30 2775 C 271.903 1.21806 -1.41493 0
M  V30 2776 C 272.254 1.95785 -0.1275 0
M  V30 2777 O 271.379 2.02147 0.772376 0
M  V30 2778 C 271.974 2.21551 -2.56321 0
M  V30 2779 C 270.533 2.75143 -2.56853 0
M  V30 2780 C 269.68 1.50052 -2.33195 0
M  V30 2781 H 272.631 0.427531 -1.52833 0
M  V30 2782 H 272.652 3.0405 -2.28765 0
M  V30 2783 H 272.164 1.67679 -3.50008 0
M  V30 2784 H 270.265 3.33033 -1.67093 0
M  V30 2785 H 270.378 3.2155 -3.55165 0
M  V30 2786 H 268.742 1.77993 -1.82183 0
M  V30 2787 H 269.525 0.980903 -3.28988 0
M  V30 2788 N 271.97 1.30982 0.876444 0
M  V30 2789 C 273.218 1.20058 1.62575 0
M  V30 2790 C 273.539 -0.242947 1.93481 0
M  V30 2791 O 272.809 -1.1619 1.57724 0
M  V30 2792 H 271.389 0.44135 0.602677 0
M  V30 2793 H 274.051 1.64222 1.04962 0
M  V30 2794 H 273.147 1.76762 2.57219 0
M  V30 2795 N 273.449 -1.08991 1.13837 0
M  V30 2796 C 274.697 -1.80899 0.901098 0
M  V30 2797 C 275.018 -1.86356 -0.574134 0
M  V30 2798 O 274.288 -1.35235 -1.41733 0
M  V30 2799 H 272.868 -0.669966 0.330386 0
M  V30 2800 H 275.53 -1.318 1.43578 0
M  V30 2801 H 274.626 -2.83929 1.29578 0
M  V30 2802 N 274.927 -0.932562 -1.27047 0
M  V30 2803 C 275.857 -0.452902 -2.29066 0
M  V30 2804 C 276.838 0.489338 -1.62909 0
M  V30 2805 O 278.023 0.393046 -1.90181 0
M  V30 2806 C 275.153 0.290698 -3.46081 0
M  V30 2807 C 274.107 -0.564168 -4.24265 0
M  V30 2808 C 273.433 0.308886 -5.33807 0
M  V30 2809 C 274.733 -1.83112 -4.89149 0
M  V30 2810 H 276.427 -1.30552 -2.69437 0
M  V30 2811 H 273.973 -0.629201 -1.29526 0
M  V30 2812 H 275.926 0.637233 -4.16554 0
M  V30 2813 H 274.65 1.17738 -3.0464 0
M  V30 2814 H 273.309 -0.893477 -3.55545 0
M  V30 2815 H 272.957 1.19467 -4.88607 0
M  V30 2816 H 272.657 -0.259633 -5.87026 0
M  V30 2817 H 274.181 0.650884 -6.07121 0
M  V30 2818 H 275.595 -1.55236 -5.51883 0
M  V30 2819 H 273.992 -2.34353 -5.52448 0
M  V30 2820 H 275.062 -2.54772 -4.12576 0
M  V30 2821 N 276.405 1.4127 -0.698611 0
M  V30 2822 C 277.651 2.01478 -0.231207 0
M  V30 2823 C 277.984 1.55215 1.16713 0
M  V30 2824 O 277.259 0.764672 1.78838 0
M  V30 2825 C 277.542 3.58912 -0.292281 0
M  V30 2826 C 277.395 4.15293 -1.72778 0
M  V30 2827 C 278.714 4.38736 0.346194 0
M  V30 2828 H 275.833 0.732025 -0.0854878 0
M  V30 2829 H 278.475 1.67977 -0.887906 0
M  V30 2830 H 276.625 3.87582 0.26686 0
M  V30 2831 H 278.297 3.97486 -2.341 0
M  V30 2832 H 276.54 3.7022 -2.26096 0
M  V30 2833 H 277.211 5.24452 -1.72202 0
M  V30 2834 H 279.687 4.15897 -0.130035 0
M  V30 2835 H 278.563 5.48221 0.272932 0
M  V30 2836 H 278.824 4.18425 1.42734 0
M  V30 2837 N 277.883 0.443576 1.51229 0
M  V30 2838 C 278.846 -0.353132 2.26463 0
M  V30 2839 C 279.846 -0.944338 1.3015 0
M  V30 2840 O 281.036 -0.817813 1.5381 0
M  V30 2841 C 278.168 -1.50023 3.06114 0
M  V30 2842 H 279.361 0.3063 2.98332 0
M  V30 2843 H 276.914 0.196902 1.55055 0
M  V30 2844 H 277.649 -2.19553 2.38677 0
M  V30 2845 H 277.434 -1.08241 3.76864 0
M  V30 2846 H 278.924 -2.06296 3.63087 0
M  V30 2847 N 279.361 -1.56624 0.175154 0
M  V30 2848 C 280.291 -2.21155 -0.749195 0
M  V30 2849 C 281.272 -1.16836 -1.23626 0
M  V30 2850 O 282.457 -1.45277 -1.28873 0
M  V30 2851 C 279.587 -2.8553 -1.97711 0
M  V30 2852 C 278.541 -3.95921 -1.62575 0
M  V30 2853 C 277.867 -4.47365 -2.92864 0
M  V30 2854 C 279.167 -5.15323 -0.850838 0
M  V30 2855 H 280.861 -2.98653 -0.211295 0
M  V30 2856 H 278.407 -1.43651 -0.100188 0
M  V30 2857 H 280.36 -3.2935 -2.62881 0
M  V30 2858 H 279.084 -2.05406 -2.53921 0
M  V30 2859 H 277.743 -3.52762 -0.997719 0
M  V30 2860 H 277.391 -3.64027 -3.47122 0
M  V30 2861 H 277.091 -5.21839 -2.70106 0
M  V30 2862 H 278.615 -4.93873 -3.59056 0
M  V30 2863 H 280.029 -5.55812 -1.40521 0
M  V30 2864 H 278.426 -5.95739 -0.722154 0
M  V30 2865 H 279.496 -4.84661 0.152082 0
M  V30 2866 N 280.839 0.0985539 -1.57292 0
M  V30 2867 C 282.085 0.798769 -1.87059 0
M  V30 2868 C 282.44 1.76514 -0.76555 0
M  V30 2869 O 281.733 1.90181 0.232752 0
M  V30 2870 C 281.927 1.56927 -3.21105 0
M  V30 2871 C 281.756 0.679026 -4.44544 0
M  V30 2872 C 280.526 0.326071 -5.04247 0
M  V30 2873 C 282.724 -0.0124715 -5.14298 0
M  V30 2874 N 280.706 -0.572702 -6.11223 0
M  V30 2875 C 282.077 -0.769446 -6.15207 0
M  V30 2876 C 284.132 -0.0867545 -4.97824 0
M  V30 2877 C 282.835 -1.59376 -7.01421 0
M  V30 2878 C 284.861 -0.897955 -5.84543 0
M  V30 2879 C 284.223 -1.64306 -6.84969 0
M  V30 2880 H 280.322 0.268568 -0.734435 0
M  V30 2881 H 282.906 0.0614664 -1.94603 0
M  V30 2882 H 281.077 2.27748 -3.1462 0
M  V30 2883 H 282.809 2.21641 -3.38611 0
M  V30 2884 H 279.564 0.67295 -4.68795 0
M  V30 2885 H 279.988 -1.01454 -6.69355 0
M  V30 2886 H 284.63 0.474963 -4.20124 0
M  V30 2887 H 282.348 -2.16655 -7.78515 0
M  V30 2888 H 285.934 -0.958059 -5.73858 0
M  V30 2889 H 284.814 -2.26065 -7.50909 0
M  V30 2890 N 282.317 1.53212 0.369288 0
M  V30 2891 C 283.545 1.73119 1.13303 0
M  V30 2892 C 283.96 0.458455 1.83149 0
M  V30 2893 O 283.317 -0.568403 1.73423 0
M  V30 2894 C 283.368 2.89413 2.16616 0
M  V30 2895 O 283.089 4.11761 1.49614 0
M  V30 2896 C 284.59 3.21161 3.05566 0
M  V30 2897 H 281.81 0.579107 0.338934 0
M  V30 2898 H 284.354 1.99942 0.429338 0
M  V30 2899 H 282.509 2.64994 2.82589 0
M  V30 2900 H 282.923 4.76858 2.18419 0
M  V30 2901 H 284.397 4.05949 3.74045 0
M  V30 2902 H 284.874 2.36369 3.70171 0
M  V30 2903 H 285.48 3.47492 2.45213 0
M  V30 2904 N 283.795 -0.628877 1.44509 0
M  V30 2905 C 285.02 -1.42048 1.5112 0
M  V30 2906 C 285.445 -1.87594 0.137818 0
M  V30 2907 O 284.803 -1.58873 -0.873437 0
M  V30 2908 C 284.851 -2.61541 2.48251 0
M  V30 2909 O 283.955 -3.61453 1.98559 0
M  V30 2910 H 283.296 -0.424942 0.510216 0
M  V30 2911 H 285.826 -0.767374 1.89664 0
M  V30 2912 H 285.836 -3.09057 2.66361 0
M  V30 2913 H 284.511 -2.27736 3.48007 0
M  V30 2914 H 283.088 -3.20731 1.90227 0
M  V30 2915 N 285.273 -1.31445 -0.869486 0
M  V30 2916 C 286.689 -1.10113 -1.15531 0
M  V30 2917 C 286.889 0.128087 -2.01092 0
M  V30 2918 O 285.945 0.817276 -2.38908 0
M  V30 2919 C 287.258 -2.37291 -1.84698 0
M  V30 2920 C 288.806 -2.42906 -1.97397 0
M  V30 2921 C 289.281 -3.69967 -2.69979 0
M  V30 2922 N 290.772 -3.70864 -2.77514 0
M  V30 2923 C 291.507 -4.65875 -3.34287 0
M  V30 2924 N 291.003 -5.71242 -3.91988 0
M  V30 2925 N 292.796 -4.53394 -3.3225 0
M  V30 2926 H 284.947 -2.1028 -0.299347 0
M  V30 2927 H 287.21 -0.927683 -0.195214 0
M  V30 2928 H 286.916 -3.27078 -1.29278 0
M  V30 2929 H 286.79 -2.47125 -2.84972 0
M  V30 2930 H 289.177 -1.53588 -2.51982 0
M  V30 2931 H 289.258 -2.37036 -0.961643 0
M  V30 2932 H 288.902 -4.59652 -2.16062 0
M  V30 2933 H 288.832 -3.73103 -3.7162 0
M  V30 2934 H 291.323 -2.94697 -2.36563 0
M  V30 2935 H 291.636 -6.39817 -4.33421 0
M  V30 2936 H 289.981 -5.75015 -3.90362 0
M  V30 2937 H 293.172 -3.70252 -2.8641 0
M  V30 2938 H 293.345 -5.27617 -3.76197 0
M  V30 2939 N 286.751 1.08385 -1.14413 0
M  V30 2940 C 287.714 2.13486 -0.834048 0
M  V30 2941 C 288.714 1.59988 0.161418 0
M  V30 2942 O 289.904 1.74071 -0.0669575 0
M  V30 2943 C 287.036 3.4003 -0.243354 0
M  V30 2944 H 288.229 2.42425 -1.7655 0
M  V30 2945 H 285.782 1.24101 -0.950189 0
M  V30 2946 H 286.517 3.16726 0.696807 0
M  V30 2947 H 286.302 3.80157 -0.960367 0
M  V30 2948 H 287.792 4.17577 -0.0436242 0
M  V30 2949 N 288.23 0.939286 1.26551 0
M  V30 2950 C 289.478 0.58469 1.93457 0
M  V30 2951 C 289.799 -0.878774 1.74076 0
M  V30 2952 O 289.069 -1.62421 1.09528 0
M  V30 2953 H 287.649 0.21325 0.715914 0
M  V30 2954 H 290.311 1.1942 1.54029 0
M  V30 2955 H 289.407 0.800849 3.0165 0
M  V30 2956 N 289.708 -1.40897 0.706093 0
M  V30 2957 C 291.124 -1.55042 0.37869 0
M  V30 2958 C 291.324 -1.67944 -1.11342 0
M  V30 2959 O 290.38 -1.66372 -1.89938 0
M  V30 2960 C 291.693 -2.78398 1.13643 0
M  V30 2961 C 293.241 -2.92206 1.12181 0
M  V30 2962 C 293.716 -4.18463 1.86152 0
M  V30 2963 N 295.207 -4.25443 1.83173 0
M  V30 2964 C 295.942 -5.2202 2.37239 0
M  V30 2965 N 295.438 -6.24563 2.99821 0
M  V30 2966 N 297.231 -5.14033 2.27435 0
M  V30 2967 H 289.382 -1.30769 1.67372 0
M  V30 2968 H 291.645 -0.631653 0.706907 0
M  V30 2969 H 291.351 -2.7511 2.19106 0
M  V30 2970 H 291.225 -3.70228 0.721853 0
M  V30 2971 H 293.612 -2.95004 0.0754171 0
M  V30 2972 H 293.693 -2.01521 1.57554 0
M  V30 2973 H 293.337 -4.16427 2.90776 0
M  V30 2974 H 293.267 -5.08141 1.38206 0
M  V30 2975 H 295.758 -3.51976 1.37556 0
M  V30 2976 H 296.071 -6.94665 3.38616 0
M  V30 2977 H 294.416 -6.25035 3.03902 0
M  V30 2978 H 297.607 -4.3285 1.78208 0
M  V30 2979 H 297.78 -5.89129 2.69873 0
M  V30 2980 N 291.186 -0.45159 -1.50991 0
M  V30 2981 C 292.597 0.00818571 -1.86698 0
M  V30 2982 C 292.948 1.40661 -1.3678 0
M  V30 2983 O 292.073 2.0391 -0.724546 0
M  V30 2984 C 292.668 0.0216303 -3.38793 0
M  V30 2985 C 291.227 0.425865 -3.73983 0
M  V30 2986 C 290.374 -0.372163 -2.74791 0
M  V30 2987 H 293.325 -0.666785 -1.44013 0
M  V30 2988 H 293.346 0.828078 -3.7138 0
M  V30 2989 H 292.858 -0.996288 -3.75094 0
M  V30 2990 H 290.959 1.44886 -3.43277 0
M  V30 2991 H 291.072 0.140761 -4.78893 0
M  V30 2992 H 289.436 0.171498 -2.54122 0
M  V30 2993 H 290.219 -1.38922 -3.13935 0
M  V30 2994 N 292.664 1.56529 -0.183458 0
M  V30 2995 C 294.075 1.83739 0.331177 0
M  V30 2996 C 294.426 1.10373 1.62211 0
M  V30 2997 O 293.551 0.36071 2.13373 0
M  V30 2998 C 294.146 3.33306 0.607646 0
M  V30 2999 C 292.705 3.60969 1.06668 0
M  V30 3000 C 291.852 2.77086 0.109029 0
M  V30 3001 H 294.803 1.53379 -0.407484 0
M  V30 3002 H 294.824 3.51444 1.45832 0
M  V30 3003 H 294.336 3.86677 -0.332086 0
M  V30 3004 H 292.437 3.13021 2.0211 0
M  V30 3005 H 292.55 4.69231 0.967447 0
M  V30 3006 H 290.914 2.47319 0.608714 0
M  V30 3007 H 291.697 3.33241 -0.82494 0
M  V30 3008 N 294.142 -0.090211 1.57342 0
M  V30 3009 C 295.074 -1.13541 1.99101 0
M  V30 3010 C 296.087 -1.3604 0.894258 0
M  V30 3011 O 297.276 -1.34606 1.17233 0
M  V30 3012 C 294.376 -2.49001 2.29895 0
M  V30 3013 C 293.549 -2.46712 3.61182 0
M  V30 3014 C 292.608 -3.64136 3.79857 0
M  V30 3015 O 291.634 -3.46405 4.51655 0
M  V30 3016 N 292.836 -4.83802 3.20806 0
M  V30 3017 H 295.601 -0.779942 2.89373 0
M  V30 3018 H 293.162 -0.279125 1.59476 0
M  V30 3019 H 295.154 -3.26166 2.39578 0
M  V30 3020 H 293.724 -2.76619 1.45605 0
M  V30 3021 H 292.944 -1.55058 3.62423 0
M  V30 3022 H 294.232 -2.42265 4.4742 0
M  V30 3023 H 293.63 -5.01112 2.62494 0
M  V30 3024 H 292.187 -5.58543 3.35966 0
M  V30 3025 N 295.62 -1.53406 -0.361157 0
M  V30 3026 C 296.55 -1.83136 -1.44857 0
M  V30 3027 C 297.531 -0.685174 -1.5569 0
M  V30 3028 O 298.716 -0.93544 -1.70186 0
M  V30 3029 C 295.846 -2.02522 -2.82138 0
M  V30 3030 C 294.8 -3.18302 -2.86126 0
M  V30 3031 C 294.126 -3.22989 -4.26125 0
M  V30 3032 C 295.426 -4.56796 -2.53248 0
M  V30 3033 H 297.12 -2.74201 -1.20226 0
M  V30 3034 H 294.666 -1.31938 -0.576922 0
M  V30 3035 H 296.619 -2.21904 -3.58241 0
M  V30 3036 H 295.343 -1.08172 -3.08166 0
M  V30 3037 H 294.002 -2.98747 -2.12475 0
M  V30 3038 H 293.65 -2.26267 -4.49235 0
M  V30 3039 H 293.35 -4.00781 -4.29708 0
M  V30 3040 H 294.874 -3.44559 -5.04094 0
M  V30 3041 H 296.288 -4.7631 -3.19064 0
M  V30 3042 H 294.685 -5.36862 -2.68141 0
M  V30 3043 H 295.755 -4.61606 -1.48484 0
M  V30 3044 N 297.098 0.621204 -1.44841 0
M  V30 3045 C 298.344 1.3826 -1.48365 0
M  V30 3046 C 298.677 1.93831 -0.119624 0
M  V30 3047 O 297.952 1.74251 0.864111 0
M  V30 3048 C 298.235 2.54058 -2.55199 0
M  V30 3049 C 298.088 2.03772 -4.00995 0
M  V30 3050 C 299.407 3.56225 -2.58442 0
M  V30 3051 H 296.526 0.501374 -0.540179 0
M  V30 3052 H 299.168 0.7015 -1.76576 0
M  V30 3053 H 297.318 3.12162 -2.31274 0
M  V30 3054 H 298.99 1.50423 -4.36086 0
M  V30 3055 H 297.233 1.34876 -4.12299 0
M  V30 3056 H 297.904 2.87185 -4.71411 0
M  V30 3057 H 300.38 3.07939 -2.79844 0
M  V30 3058 H 299.256 4.34756 -3.3508 0
M  V30 3059 H 299.517 4.10949 -1.63013 0
M  V30 3060 N 298.576 1.31904 0.862503 0
M  V30 3061 C 299.506 1.22782 1.98612 0
M  V30 3062 C 300.487 0.113362 1.69722 0
M  V30 3063 O 301.672 0.299218 1.91881 0
M  V30 3064 C 298.802 0.942058 3.34279 0
M  V30 3065 C 297.756 2.0169 3.77499 0
M  V30 3066 C 297.082 1.58369 5.10709 0
M  V30 3067 C 298.382 3.43096 3.93805 0
M  V30 3068 H 300.076 2.16788 2.06502 0
M  V30 3069 H 297.622 1.04366 0.992154 0
M  V30 3070 H 299.575 0.864818 4.1243 0
M  V30 3071 H 298.299 -0.0336603 3.26583 0
M  V30 3072 H 296.958 2.08416 3.01593 0
M  V30 3073 H 296.606 0.595628 4.99461 0
M  V30 3074 H 296.306 2.30279 5.40597 0
M  V30 3075 H 297.83 1.52067 5.91361 0
M  V30 3076 H 299.244 3.39003 4.62331 0
M  V30 3077 H 297.641 4.13288 4.35101 0
M  V30 3078 H 298.711 3.83334 2.96957 0
M  V30 3079 N 300.054 -1.07777 1.14986 0
M  V30 3080 C 301.331 -1.7699 0.832695 0
M  V30 3081 C 301.711 -2.001 -0.672561 0
M  V30 3082 O 301.059 -1.61598 -1.6155 0
M  V30 3083 C 301.269 -3.08139 1.63863 0
M  V30 3084 C 302.617 -3.8256 1.84208 0
M  V30 3085 O 303.641 -3.17939 1.60603 0
M  V30 3086 O 302.5 -4.98612 2.23714 0
M  V30 3087 H 299.594 -0.768389 0.305791 0
M  V30 3088 H 302.14 -1.14182 1.25541 0
M  V30 3089 H 300.912 -2.86909 2.6608 0
M  V30 3090 H 300.535 -3.78678 1.21197 0
M  V30 3091 N 301.532 -0.945985 -1.26051 0
M  V30 3092 C 302.462 -0.477172 -2.28572 0
M  V30 3093 C 303.443 0.472032 -1.63419 0
M  V30 3094 O 304.628 0.372853 -1.90587 0
M  V30 3095 C 301.758 0.253975 -3.4637 0
M  V30 3096 C 300.712 -0.609135 -4.23643 0
M  V30 3097 C 300.038 0.252252 -5.34105 0
M  V30 3098 C 301.338 -1.8829 -4.8718 0
M  V30 3099 H 303.032 -1.33402 -2.68038 0
M  V30 3100 H 300.578 -0.642904 -1.28852 0
M  V30 3101 H 302.531 0.593016 -4.17207 0
M  V30 3102 H 301.255 1.145 -3.05871 0
M  V30 3103 H 299.914 -0.931138 -3.54578 0
M  V30 3104 H 299.562 1.14278 -4.89846 0
M  V30 3105 H 299.262 -0.32188 -5.86718 0
M  V30 3106 H 300.786 0.586454 -6.07777 0
M  V30 3107 H 302.2 -1.61081 -5.50205 0
M  V30 3108 H 300.597 -2.40199 -5.49931 0
M  V30 3109 H 301.667 -2.59134 -4.09851 0
M  V30 3110 N 303.011 1.40521 -0.713556 0
M  V30 3111 C 304.236 2.05759 -0.26035 0
M  V30 3112 C 304.661 1.53403 1.08854 0
M  V30 3113 O 304.019 0.668535 1.68524 0
M  V30 3114 C 304.067 3.59745 -0.248122 0
M  V30 3115 O 303.171 4.05123 0.77131 0
M  V30 3116 H 302.512 0.652564 -0.122703 0
M  V30 3117 H 305.042 1.79958 -0.973467 0
M  V30 3118 H 305.052 4.07911 -0.0851129 0
M  V30 3119 H 303.727 3.97218 -1.2325 0
M  V30 3120 H 302.304 3.68422 0.57619 0
M  V30 3121 N 304.489 0.459591 1.5075 0
M  V30 3122 C 305.905 0.113092 1.59199 0
M  V30 3123 C 306.105 -1.37951 1.46874 0
M  V30 3124 O 305.161 -2.15168 1.32132 0
M  V30 3125 C 306.474 0.653043 2.93523 0
M  V30 3126 C 308.022 0.615449 3.0689 0
M  V30 3127 C 308.497 1.13275 4.43771 0
M  V30 3128 N 309.988 1.09167 4.50152 0
M  V30 3129 C 310.723 1.46256 5.54434 0
M  V30 3130 N 310.219 1.90739 6.66026 0
M  V30 3131 N 312.012 1.37932 5.44914 0
M  V30 3132 H 304.163 1.43049 1.57005 0
M  V30 3133 H 306.426 0.590861 0.741341 0
M  V30 3134 H 306.132 1.69822 3.07983 0
M  V30 3135 H 306.006 0.0902132 3.77092 0
M  V30 3136 H 308.393 -0.420793 2.92084 0
M  V30 3137 H 308.474 1.21495 2.25106 0
M  V30 3138 H 308.118 2.16757 4.59324 0
M  V30 3139 H 308.048 0.509576 5.24129 0
M  V30 3140 H 310.539 0.76528 3.7007 0
M  V30 3141 H 310.852 2.17218 7.41644 0
M  V30 3142 H 309.197 1.94683 6.67176 0
M  V30 3143 H 312.388 1.0303 4.56621 0
M  V30 3144 H 312.561 1.67164 6.26067 0
M  V30 3145 N 305.967 -1.56429 0.191757 0
M  V30 3146 C 307.383 -1.58754 -0.164137 0
M  V30 3147 C 307.583 -1.20782 -1.61288 0
M  V30 3148 O 306.639 -0.928999 -2.34789 0
M  V30 3149 C 307.952 -3.00396 0.135195 0
M  V30 3150 C 309.5 -3.1291 0.0750351 0
M  V30 3151 C 309.975 -4.56679 0.347632 0
M  V30 3152 N 311.466 -4.62252 0.296131 0
M  V30 3153 C 312.201 -5.71379 0.480948 0
M  V30 3154 N 311.697 -6.88986 0.725933 0
M  V30 3155 N 313.49 -5.60563 0.415435 0
M  V30 3156 H 305.641 -1.79393 1.13718 0
M  V30 3157 H 307.904 -0.832414 0.453643 0
M  V30 3158 H 307.61 -3.32726 1.13958 0
M  V30 3159 H 307.484 -3.72963 -0.563773 0
M  V30 3160 H 309.871 -2.80394 -0.919948 0
M  V30 3161 H 309.952 -2.42736 0.807029 0
M  V30 3162 H 309.596 -4.89907 1.33992 0
M  V30 3163 H 309.526 -5.25039 -0.405212 0
M  V30 3164 H 312.017 -3.7773 0.113259 0
M  V30 3165 H 312.33 -7.68046 0.855857 0
M  V30 3166 H 310.675 -6.90801 0.762788 0
M  V30 3167 H 313.866 -4.67561 0.224486 0
M  V30 3168 H 314.039 -6.45551 0.562889 0
M  V30 3169 N 307.445 0.0818655 -1.57387 0
M  V30 3170 C 308.722 0.815343 -1.77796 0
M  V30 3171 C 309.102 1.96289 -0.77679 0
M  V30 3172 O 308.45 2.27691 0.192106 0
M  V30 3173 C 308.66 1.29765 -3.23978 0
M  V30 3174 C 310.008 1.7351 -3.8753 0
M  V30 3175 O 311.032 1.39356 -3.27808 0
M  V30 3176 O 309.891 2.36708 -4.92576 0
M  V30 3177 H 306.985 0.389914 -0.729312 0
M  V30 3178 H 309.531 0.0627213 -1.69584 0
M  V30 3179 H 308.303 0.47608 -3.88393 0
M  V30 3180 H 307.926 2.11189 -3.36875 0
M  V30 3181 N 308.923 1.53595 0.353017 0
M  V30 3182 C 310.151 1.74311 1.1146 0
M  V30 3183 C 310.566 0.477854 1.82653 0
M  V30 3184 O 309.923 -0.549977 1.74016 0
M  V30 3185 C 309.974 2.91694 2.13534 0
M  V30 3186 O 309.695 4.13325 1.45238 0
M  V30 3187 C 311.196 3.24384 3.02142 0
M  V30 3188 H 308.416 0.582669 0.332773 0
M  V30 3189 H 310.96 2.00386 0.408107 0
M  V30 3190 H 309.115 2.67977 2.79763 0
M  V30 3191 H 309.529 4.79148 2.13349 0
M  V30 3192 H 311.003 4.09893 3.69718 0
M  V30 3193 H 311.48 2.40282 3.67643 0
M  V30 3194 H 312.086 3.50073 2.41514 0
M  V30 3195 N 310.401 -0.613514 1.45168 0
M  V30 3196 C 311.649 -1.36997 1.48581 0
M  V30 3197 C 311.97 -1.94589 0.126545 0
M  V30 3198 O 311.24 -1.76816 -0.843372 0
M  V30 3199 H 309.82 -0.508558 0.547154 0
M  V30 3200 H 312.482 -0.720853 1.81079 0
M  V30 3201 H 311.578 -2.1924 2.22127 0
M  V30 3202 N 311.879 -1.3236 -0.855495 0
M  V30 3203 C 313.156 -1.13491 -1.59309 0
M  V30 3204 C 313.536 0.30503 -2.08885 0
M  V30 3205 O 312.884 1.30151 -1.87811 0
M  V30 3206 C 313.094 -2.16176 -2.73987 0
M  V30 3207 C 314.442 -2.49463 -3.43589 0
M  V30 3208 O 315.466 -2.14715 -2.84211 0
M  V30 3209 O 314.325 -3.09027 -4.50738 0
M  V30 3210 H 311.419 -0.437887 -0.701559 0
M  V30 3211 H 313.965 -1.43887 -0.899696 0
M  V30 3212 H 312.737 -3.1297 -2.34873 0
M  V30 3213 H 312.36 -1.86769 -3.51003 0
M  V30 3214 N 313.357 1.07166 -1.15556 0
M  V30 3215 C 314.32 2.12589 -0.856644 0
M  V30 3216 C 315.32 1.6015 0.14444 0
M  V30 3217 O 316.51 1.7399 -0.0854163 0
M  V30 3218 C 313.642 3.39753 -0.279405 0
M  V30 3219 H 314.835 2.40539 -1.79112 0
M  V30 3220 H 312.388 1.23086 -0.963298 0
M  V30 3221 H 313.123 3.17447 0.663174 0
M  V30 3222 H 312.908 3.79117 -1.00063 0
M  V30 3223 H 314.398 4.17507 -0.0879113 0
M  V30 3224 N 314.835 0.952656 1.25548 0
M  V30 3225 C 316.083 0.605176 1.92826 0
M  V30 3226 C 316.404 -0.860261 1.74999 0
M  V30 3227 O 315.674 -1.6125 1.11244 0
M  V30 3228 H 314.254 0.220832 0.713612 0
M  V30 3229 H 316.916 1.21047 1.52754 0
M  V30 3230 H 316.012 0.832798 3.00784 0
M  V30 3231 N 316.313 -1.40141 0.720998 0
M  V30 3232 C 317.243 -2.33339 0.0867621 0
M  V30 3233 C 318.224 -1.53178 -0.739622 0
M  V30 3234 O 319.409 -1.81625 -0.687449 0
M  V30 3235 C 316.539 -3.37194 -0.831728 0
M  V30 3236 C 315.493 -4.27857 -0.110558 0
M  V30 3237 C 314.819 -5.22294 -1.14513 0
M  V30 3238 C 316.119 -5.11872 1.0385 0
M  V30 3239 H 317.813 -2.86626 0.865219 0
M  V30 3240 H 315.359 -1.37814 0.417516 0
M  V30 3241 H 317.312 -4.01335 -1.28485 0
M  V30 3242 H 316.036 -2.82314 -1.64214 0
M  V30 3243 H 314.695 -3.65176 0.322797 0
M  V30 3244 H 314.343 -4.63717 -1.94874 0
M  V30 3245 H 314.043 -5.83797 -0.667446 0
M  V30 3246 H 315.567 -5.89312 -1.59824 0
M  V30 3247 H 316.981 -5.69436 0.664482 0
M  V30 3248 H 315.378 -5.82445 1.4449 0
M  V30 3249 H 316.448 -4.4753 1.86668 0
M  V30 3250 N 317.792 -0.46758 -1.50504 0
M  V30 3251 C 319.208 -0.121533 -1.59137 0
M  V30 3252 C 319.408 1.3717 -1.47603 0
M  V30 3253 O 318.464 2.14464 -1.33272 0
M  V30 3254 C 319.777 -0.6686 -2.93173 0
M  V30 3255 C 321.325 -0.631716 -3.06559 0
M  V30 3256 C 321.8 -1.15627 -4.43164 0
M  V30 3257 N 323.291 -1.11553 -4.49567 0
M  V30 3258 C 324.026 -1.49195 -5.5365 0
M  V30 3259 N 323.522 -1.94269 -6.65005 0
M  V30 3260 N 325.315 -1.4082 -5.44175 0
M  V30 3261 H 317.466 -1.4388 -1.56245 0
M  V30 3262 H 319.729 -0.594784 -0.738198 0
M  V30 3263 H 319.435 -1.71453 -3.07078 0
M  V30 3264 H 319.309 -0.11021 -3.77039 0
M  V30 3265 H 321.696 0.405297 -2.92304 0
M  V30 3266 H 321.777 -1.22687 -2.24458 0
M  V30 3267 H 321.421 -2.1919 -4.58168 0
M  V30 3268 H 321.351 -0.537365 -5.23851 0
M  V30 3269 H 323.842 -0.784895 -3.69659 0
M  V30 3270 H 324.155 -2.21148 -7.40482 0
M  V30 3271 H 322.5 -1.98219 -6.66134 0
M  V30 3272 H 325.691 -1.0545 -4.56068 0
M  V30 3273 H 325.864 -1.70481 -6.25172 0
M  V30 3274 N 319.27 1.56325 -0.20005 0
M  V30 3275 C 320.233 2.18084 0.705132 0
M  V30 3276 C 321.233 1.13666 1.1374 0
M  V30 3277 O 322.423 1.39023 1.04968 0
M  V30 3278 C 319.555 2.78689 1.96329 0
M  V30 3279 H 320.748 2.99435 0.167023 0
M  V30 3280 H 318.301 1.56221 0.0495725 0
M  V30 3281 H 319.036 2.0115 2.5438 0
M  V30 3282 H 318.821 3.55133 1.66202 0
M  V30 3283 H 320.311 3.26096 2.60866 0
M  V30 3284 N 320.748 -0.0735177 1.57428 0
M  V30 3285 C 322.164 -0.428264 1.53747 0
M  V30 3286 C 322.364 -1.79272 0.91998 0
M  V30 3287 O 321.42 -2.47051 0.521745 0
M  V30 3288 C 322.733 -0.370914 2.98404 0
M  V30 3289 C 324.281 -0.451224 3.0973 0
M  V30 3290 C 324.756 -0.4238 4.56035 0
M  V30 3291 N 326.247 -0.483925 4.60665 0
M  V30 3292 C 326.982 -0.484891 5.71346 0
M  V30 3293 N 326.478 -0.440775 6.91396 0
M  V30 3294 N 328.271 -0.531319 5.59583 0
M  V30 3295 H 320.422 0.819949 1.95935 0
M  V30 3296 H 322.685 0.307493 0.896745 0
M  V30 3297 H 322.391 0.564956 3.47133 0
M  V30 3298 H 322.265 -1.18176 3.5821 0
M  V30 3299 H 324.652 -1.37752 2.60976 0
M  V30 3300 H 324.733 0.388167 2.52838 0
M  V30 3301 H 324.377 0.498638 5.05446 0
M  V30 3302 H 324.307 -1.2807 5.10789 0
M  V30 3303 H 326.798 -0.522338 3.74273 0
M  V30 3304 H 327.111 -0.44539 7.71515 0
M  V30 3305 H 325.456 -0.40749 6.93804 0
M  V30 3306 H 328.647 -0.563464 4.64696 0
M  V30 3307 H 328.82 -0.528603 6.4584 0
M  V30 3308 N 322.226 -1.5378 -0.344866 0
M  V30 3309 C 323.156 -1.84662 -1.42906 0
M  V30 3310 C 324.137 -0.701648 -1.54955 0
M  V30 3311 O 325.322 -0.953438 -1.69184 0
M  V30 3312 C 322.452 -2.05503 -2.79974 0
M  V30 3313 C 321.406 -3.21318 -2.82734 0
M  V30 3314 C 320.732 -3.2749 -4.22675 0
M  V30 3315 C 322.032 -4.59456 -2.48389 0
M  V30 3316 H 323.726 -2.75461 -1.17311 0
M  V30 3317 H 321.272 -1.32542 -0.562896 0
M  V30 3318 H 323.225 -2.25691 -3.55867 0
M  V30 3319 H 321.949 -1.11434 -3.07002 0
M  V30 3320 H 320.608 -3.00984 -2.09294 0
M  V30 3321 H 320.256 -2.31019 -4.4681 0
M  V30 3322 H 319.956 -4.05316 -4.25433 0
M  V30 3323 H 321.48 -3.49887 -5.00412 0
M  V30 3324 H 322.894 -4.79667 -3.13995 0
M  V30 3325 H 321.291 -5.39675 -2.62432 0
M  V30 3326 H 322.361 -4.63155 -1.4358 0
M  V30 3327 N 323.704 0.605807 -1.45491 0
M  V30 3328 C 324.667 1.69836 -1.5391 0
M  V30 3329 C 325.667 1.55261 -0.418424 0
M  V30 3330 O 326.857 1.60296 -0.681965 0
M  V30 3331 C 323.989 3.09117 -1.43734 0
M  V30 3332 H 325.182 1.63738 -2.51257 0
M  V30 3333 H 322.735 0.821689 -1.32959 0
M  V30 3334 H 323.47 3.20791 -0.475788 0
M  V30 3335 H 323.255 3.21104 -2.25021 0
M  V30 3336 H 324.745 3.88696 -1.52661 0
M  V30 3337 N 325.182 1.32811 0.848464 0
M  V30 3338 C 326.593 1.21315 1.41914 0
M  V30 3339 C 326.944 -0.171847 1.95446 0
M  V30 3340 O 326.069 -1.07093 1.88043 0
M  V30 3341 C 326.664 2.19631 2.57968 0
M  V30 3342 C 325.223 2.12003 3.11017 0
M  V30 3343 C 324.37 2.07651 1.83783 0
M  V30 3344 H 327.321 1.44549 0.655071 0
M  V30 3345 H 327.342 1.79845 3.35315 0
M  V30 3346 H 326.854 3.20423 2.18976 0
M  V30 3347 H 324.955 1.14481 3.54577 0
M  V30 3348 H 325.068 3.02111 3.71841 0
M  V30 3349 H 323.432 1.52983 2.03638 0
M  V30 3350 H 324.215 3.10235 1.47 0
M  V30 3351 N 326.66 -1.06551 1.16123 0
M  V30 3352 C 327.593 -2.13382 0.80892 0
M  V30 3353 C 328.571 -1.61128 -0.21827 0
M  V30 3354 O 329.755 -1.88219 -0.102952 0
M  V30 3355 C 326.882 -3.38083 0.204303 0
M  V30 3356 C 325.928 -4.09133 1.20469 0
M  V30 3357 S 326.761 -4.5948 2.75024 0
M  V30 3358 C 327.917 -5.87446 2.16005 0
M  V30 3359 H 328.15 -2.42937 1.71373 0
M  V30 3360 H 325.683 -1.18947 0.984428 0
M  V30 3361 H 327.641 -4.10268 -0.138081 0
M  V30 3362 H 326.302 -3.0669 -0.678234 0
M  V30 3363 H 325.495 -4.98685 0.730019 0
M  V30 3364 H 325.097 -3.4295 1.49202 0
M  V30 3365 H 327.389 -6.60065 1.5271 0
M  V30 3366 H 328.332 -6.39639 3.03756 0
M  V30 3367 H 328.74 -5.41354 1.59989 0
M  V30 3368 N 328.138 -0.959301 -1.25041 0
M  V30 3369 C 329.101 -0.487677 -2.23952 0
M  V30 3370 C 330.101 0.41119 -1.55454 0
M  V30 3371 O 331.291 0.207825 -1.72956 0
M  V30 3372 C 328.423 0.294807 -3.39623 0
M  V30 3373 H 329.616 -1.36198 -2.67189 0
M  V30 3374 H 327.169 -0.743042 -1.37508 0
M  V30 3375 H 327.904 1.18658 -3.01813 0
M  V30 3376 H 327.689 -0.35012 -3.90534 0
M  V30 3377 H 329.179 0.614089 -4.1306 0
M  V30 3378 N 329.616 1.39756 -0.72842 0
M  V30 3379 C 330.579 2.29012 -0.0927297 0
M  V30 3380 C 331.579 1.45992 0.674025 0
M  V30 3381 O 332.769 1.66749 0.50402 0
M  V30 3382 C 329.901 3.29396 0.878137 0
M  V30 3383 H 331.094 2.86729 -0.879011 0
M  V30 3384 H 328.647 1.48293 -0.493847 0
M  V30 3385 H 329.382 2.76722 1.69101 0
M  V30 3386 H 329.167 3.907 0.331051 0
M  V30 3387 H 330.657 3.96199 1.3197 0
M  V30 3388 N 331.094 0.475555 1.50254 0
M  V30 3389 C 332.505 0.0215174 1.86688 0
M  V30 3390 C 332.856 -1.38467 1.39001 0
M  V30 3391 O 331.981 -2.02732 0.756894 0
M  V30 3392 C 332.576 0.0322715 3.38785 0
M  V30 3393 C 331.135 -0.366314 3.74613 0
M  V30 3394 C 330.282 0.415832 2.74164 0
M  V30 3395 H 333.233 0.689612 1.42934 0
M  V30 3396 H 333.254 -0.76889 3.7265 0
M  V30 3397 H 332.766 1.05584 3.73462 0
M  V30 3398 H 330.867 -1.39406 3.45538 0
M  V30 3399 H 330.98 -0.064555 4.79057 0
M  V30 3400 H 329.344 -0.131048 2.54363 0
M  V30 3401 H 330.127 1.43899 3.11686 0
M  V30 3402 N 332.573 -1.56217 0.208337 0
M  V30 3403 C 333.819 -1.98242 -0.427552 0
M  V30 3404 C 334.152 -1.09554 -1.60348 0
M  V30 3405 O 333.427 -0.15035 -1.93918 0
M  V30 3406 C 333.71 -3.4931 -0.874907 0
M  V30 3407 C 333.563 -4.48773 0.303751 0
M  V30 3408 C 334.882 -4.04424 -1.73577 0
M  V30 3409 H 332.001 -0.720744 -0.153936 0
M  V30 3410 H 334.643 -1.87586 0.30192 0
M  V30 3411 H 332.793 -3.58522 -1.49648 0
M  V30 3412 H 334.465 -4.51586 0.941682 0
M  V30 3413 H 332.708 -4.23194 0.953375 0
M  V30 3414 H 333.379 -5.51976 -0.0519883 0
M  V30 3415 H 335.855 -3.98075 -1.21143 0
M  V30 3416 H 334.731 -5.1047 -2.01771 0
M  V30 3417 H 334.992 -3.50494 -2.69456 0
M  V30 3418 N 334.051 0.0651679 -1.57465 0
M  V30 3419 C 335.299 0.761555 -1.87202 0
M  V30 3420 C 335.62 1.77778 -0.801243 0
M  V30 3421 O 334.89 1.95166 0.16937 0
M  V30 3422 H 333.47 0.284251 -0.690804 0
M  V30 3423 H 336.132 0.0396827 -1.9486 0
M  V30 3424 H 335.228 1.27365 -2.84929 0
M  V30 3425 N 335.529 1.53961 0.336706 0
M  V30 3426 C 336.777 1.71197 1.07405 0
M  V30 3427 C 337.098 0.481475 1.88962 0
M  V30 3428 O 336.368 -0.504585 1.8929 0
M  V30 3429 H 334.948 0.631185 0.399517 0
M  V30 3430 H 337.61 1.91232 0.376323 0
M  V30 3431 H 336.706 2.58587 1.74755 0
M  V30 3432 N 337.007 -0.598083 1.45811 0
M  V30 3433 C 337.917 -1.73632 1.57763 0
M  V30 3434 C 338.933 -1.67763 0.461676 0
M  V30 3435 O 340.109 -1.87949 0.723685 0
M  V30 3436 C 337.174 -3.10114 1.55018 0
M  V30 3437 C 336.235 -3.27364 2.77726 0
M  V30 3438 C 335.468 -4.57334 2.75102 0
M  V30 3439 O 335.691 -5.40258 1.8297 0
M  V30 3440 O 334.625 -4.77502 3.66437 0
M  V30 3441 H 338.451 -1.66498 2.53992 0
M  V30 3442 H 336.036 -0.763308 1.28429 0
M  V30 3443 H 337.918 -3.9141 1.56129 0
M  V30 3444 H 336.593 -3.17718 0.619431 0
M  V30 3445 H 335.5 -2.45619 2.82174 0
M  V30 3446 H 336.833 -3.24641 3.69958 0
M  V30 3447 N 338.485 -1.33259 -0.841409 0
M  V30 3448 C 339.448 -1.23221 -1.9326 0
M  V30 3449 C 340.448 -0.151895 -1.60081 0
M  V30 3450 O 341.638 -0.403246 -1.69468 0
M  V30 3451 C 338.77 -0.898123 -3.28856 0
M  V30 3452 H 339.963 -2.2021 -2.03587 0
M  V30 3453 H 337.516 -1.17281 -1.03319 0
M  V30 3454 H 338.251 0.0693841 -3.24226 0
M  V30 3455 H 338.036 -1.67934 -3.54317 0
M  V30 3456 H 339.526 -0.852563 -4.08805 0
M  V30 3457 N 339.963 1.05934 -1.16686 0
M  V30 3458 C 341.374 1.60263 -0.957745 0
M  V30 3459 C 341.725 1.89789 0.49745 0
M  V30 3460 O 340.85 1.67401 1.37135 0
M  V30 3461 C 341.445 2.91172 -1.73218 0
M  V30 3462 C 340.004 3.42188 -1.56794 0
M  V30 3463 C 339.151 2.16028 -1.73859 0
M  V30 3464 H 342.102 0.888392 -1.31504 0
M  V30 3465 H 342.123 3.60744 -1.21014 0
M  V30 3466 H 341.635 2.6965 -2.79124 0
M  V30 3467 H 339.736 3.68762 -0.533437 0
M  V30 3468 H 339.849 4.17273 -2.35414 0
M  V30 3469 H 338.213 2.26426 -1.16633 0
M  V30 3470 H 338.996 1.96985 -2.81161 0
M  V30 3471 N 341.441 0.965919 1.2453 0
M  V30 3472 C 342.687 0.62776 1.92839 0
M  V30 3473 C 343.02 -0.834694 1.75347 0
M  V30 3474 O 342.295 -1.60031 1.10546 0
M  V30 3475 C 342.578 1.00109 3.45905 0
M  V30 3476 C 342.431 2.52011 3.72573 0
M  V30 3477 C 343.75 0.53435 4.36844 0
M  V30 3478 H 340.869 0.229537 0.700344 0
M  V30 3479 H 343.511 1.2046 1.46933 0
M  V30 3480 H 341.661 0.510238 3.85135 0
M  V30 3481 H 343.333 3.08559 3.42912 0
M  V30 3482 H 341.576 2.95287 3.17786 0
M  V30 3483 H 342.247 2.73183 4.79661 0
M  V30 3484 H 344.723 0.955565 4.04979 0
M  V30 3485 H 343.599 0.824152 5.42678 0
M  V30 3486 H 343.86 -0.565589 4.38467 0
M  V30 3487 N 342.919 -1.39368 0.735821 0
M  V30 3488 C 344.33 -1.83313 0.354015 0
M  V30 3489 C 344.681 -1.61461 -1.11466 0
M  V30 3490 O 343.806 -1.10621 -1.85989 0
M  V30 3491 C 344.401 -3.32781 0.635769 0
M  V30 3492 C 342.96 -3.75142 0.307448 0
M  V30 3493 C 342.107 -2.62358 0.897974 0
M  V30 3494 H 345.058 -1.28349 0.933398 0
M  V30 3495 H 345.079 -3.80388 -0.0921773 0
M  V30 3496 H 344.591 -3.48654 1.70476 0
M  V30 3497 H 342.692 -3.64857 -0.755674 0
M  V30 3498 H 342.805 -4.72532 0.790583 0
M  V30 3499 H 341.169 -2.52624 0.324551 0
M  V30 3500 H 341.952 -2.81036 1.97164 0
M  V30 3501 N 344.397 -0.483516 -1.5 0
M  V30 3502 C 345.36 0.292965 -2.2732 0
M  V30 3503 C 346.36 0.909499 -1.32608 0
M  V30 3504 O 347.55 0.776745 -1.55924 0
M  V30 3505 C 344.682 1.41854 -3.09984 0
M  V30 3506 H 345.875 -0.385289 -2.97415 0
M  V30 3507 H 343.428 -0.237942 -1.54478 0
M  V30 3508 H 344.163 2.13148 -2.44414 0
M  V30 3509 H 343.948 0.982114 -3.79601 0
M  V30 3510 H 345.438 1.96597 -3.68429 0
M  V30 3511 N 345.875 1.56104 -0.216619 0
M  V30 3512 C 346.838 2.18819 0.681962 0
M  V30 3513 C 347.838 1.14866 1.12528 0
M  V30 3514 O 349.028 1.40128 1.03488 0
M  V30 3515 C 346.16 2.80756 1.93362 0
M  V30 3516 H 347.353 2.99595 0.135254 0
M  V30 3517 H 344.906 1.56265 0.0330003 0
M  V30 3518 H 345.641 2.03837 2.52232 0
M  V30 3519 H 345.426 3.56876 1.62426 0
M  V30 3520 H 346.916 3.28844 2.57393 0
M  V30 3521 N 347.353 -0.0568162 1.57498 0
M  V30 3522 C 348.599 -0.75422 1.88253 0
M  V30 3523 C 348.932 -1.76461 0.810865 0
M  V30 3524 O 348.207 -1.93691 -0.177259 0
M  V30 3525 C 348.49 -1.44878 3.2967 0
M  V30 3526 C 348.343 -0.453789 4.47505 0
M  V30 3527 C 349.662 -2.38994 3.69554 0
M  V30 3528 H 346.781 -0.272724 0.684683 0
M  V30 3529 H 349.423 -0.0172113 1.89992 0
M  V30 3530 H 347.573 -2.077 3.28318 0
M  V30 3531 H 349.245 0.170371 4.60985 0
M  V30 3532 H 347.488 0.229552 4.33192 0
M  V30 3533 H 348.159 -0.977699 5.43273 0
M  V30 3534 H 350.635 -1.86239 3.72095 0
M  V30 3535 H 349.511 -2.84587 4.69363 0
M  V30 3536 H 349.772 -3.24461 3.00296 0
M  V30 3537 N 348.832 -1.54138 -0.328536 0
M  V30 3538 C 349.762 -1.86167 -1.40939 0
M  V30 3539 C 350.743 -0.718044 -1.54202 0
M  V30 3540 O 351.928 -0.971328 -1.68163 0
M  V30 3541 C 349.058 -2.08461 -2.77779 0
M  V30 3542 C 348.012 -3.24299 -2.7931 0
M  V30 3543 C 347.338 -3.31955 -4.19178 0
M  V30 3544 C 348.638 -4.62065 -2.43502 0
M  V30 3545 H 350.332 -2.76689 -1.14383 0
M  V30 3546 H 347.878 -1.33132 -0.548806 0
M  V30 3547 H 349.831 -2.29453 -3.53454 0
M  V30 3548 H 348.555 -1.14684 -3.05802 0
M  V30 3549 H 347.214 -3.03187 -2.0609 0
M  V30 3550 H 346.862 -2.35745 -4.44335 0
M  V30 3551 H 346.562 -4.09805 -4.2111 0
M  V30 3552 H 348.086 -3.55175 -4.96672 0
M  V30 3553 H 349.5 -4.8297 -3.08889 0
M  V30 3554 H 347.897 -5.42429 -2.56693 0
M  V30 3555 H 348.967 -4.64652 -1.38659 0
M  V30 3556 N 350.31 0.590341 -1.46126 0
M  V30 3557 C 351.24 1.71032 -1.58966 0
M  V30 3558 C 352.221 1.64302 -0.440335 0
M  V30 3559 O 353.406 1.82436 -0.665634 0
M  V30 3560 C 350.536 3.09665 -1.57241 0
M  V30 3561 C 349.49 3.31221 -2.71066 0
M  V30 3562 C 348.816 4.70303 -2.54399 0
M  V30 3563 C 350.116 3.19796 -4.1295 0
M  V30 3564 H 351.81 1.60543 -2.52718 0
M  V30 3565 H 349.356 0.770933 -1.21625 0
M  V30 3566 H 351.309 3.87831 -1.64819 0
M  V30 3567 H 350.033 3.21036 -0.600289 0
M  V30 3568 H 348.692 2.55452 -2.62944 0
M  V30 3569 H 348.34 4.78429 -1.55288 0
M  V30 3570 H 348.04 4.85679 -3.30741 0
M  V30 3571 H 349.564 5.50647 -2.63857 0
M  V30 3572 H 350.978 3.87815 -4.22223 0
M  V30 3573 H 349.375 3.46696 -4.89818 0
M  V30 3574 H 350.445 2.16983 -4.33643 0
M  V30 3575 N 351.788 1.33704 0.83433 0
M  V30 3576 C 353.036 1.25169 1.58673 0
M  V30 3577 C 353.357 -0.18127 1.94156 0
M  V30 3578 O 352.627 -1.11113 1.6134 0
M  V30 3579 H 351.207 0.4603 0.58833 0
M  V30 3580 H 353.869 1.67478 0.996847 0
M  V30 3581 H 352.965 1.84856 2.51465 0
M  V30 3582 N 353.266 -1.05314 1.17247 0
M  V30 3583 C 354.506 -1.79869 0.970898 0
M  V30 3584 C 354.87 -1.85594 -0.491808 0
M  V30 3585 O 356.071 -2.56229 -0.812409 0
M  V30 3586 C 354.342 -3.19937 1.59295 0
M  V30 3587 S 355.901 -4.10986 1.53741 0
M  V30 3588 H 352.719 -0.61949 0.348931 0
M  V30 3589 H 355.321 -1.26368 1.49169 0
M  V30 3590 H 354.025 -3.13372 2.65003 0
M  V30 3591 H 353.556 -3.78515 1.07191 0
M  V30 3592 H 355.571 -4.93203 0.544537 0
M  V30 3593 N 354.744 -0.972509 -1.24016 0
M  V30 3594 C 356.021 -0.553733 -1.87598 0
M  V30 3595 C 356.401 0.969158 -1.87538 0
M  V30 3596 O 355.749 1.84255 -1.35139 0
M  V30 3597 C 355.959 -1.15076 -3.29482 0
M  V30 3598 C 357.307 -1.23862 -4.06132 0
M  V30 3599 O 358.331 -1.10363 -3.38672 0
M  V30 3600 O 357.19 -1.45252 -5.26844 0
M  V30 3601 H 354.284 -0.185331 -0.805966 0
M  V30 3602 H 356.83 -1.06709 -1.31952 0
M  V30 3603 H 355.602 -2.19333 -3.2405 0
M  V30 3604 H 355.225 -0.621746 -3.92709 0
M  V30 3605 N 356.222 1.38976 -0.743202 0
M  V30 3606 C 357.471 1.99581 -0.291592 0
M  V30 3607 C 357.784 1.59656 1.13001 0
M  V30 3608 O 358.99 2.13157 1.68156 0
M  V30 3609 C 357.446 3.56813 -0.470391 0
M  V30 3610 C 357.054 4.05695 -1.90041 0
M  V30 3611 C 358.798 4.24423 -0.0809709 0
M  V30 3612 C 356.705 5.5553 -2.02832 0
M  V30 3613 H 355.635 0.746615 -0.105272 0
M  V30 3614 H 358.286 1.58872 -0.918258 0
M  V30 3615 H 356.668 3.95359 0.225299 0
M  V30 3616 H 357.842 3.78464 -2.62872 0
M  V30 3617 H 356.157 3.50775 -2.24379 0
M  V30 3618 H 358.754 5.34474 -0.155445 0
M  V30 3619 H 359.097 4.04962 0.96497 0
M  V30 3620 H 359.63 3.9108 -0.728124 0
M  V30 3621 H 356.369 5.79881 -3.05643 0
M  V30 3622 H 355.889 5.84537 -1.34448 0
M  V30 3623 H 357.568 6.21069 -1.81335 0
M  V30 3624 N 357.7 0.491464 1.49741 0
M  V30 3625 C 358.663 -0.280906 2.27472 0
M  V30 3626 C 359.663 -0.902454 1.33088 0
M  V30 3627 O 360.853 -0.768465 1.56334 0
M  V30 3628 C 357.985 -1.40209 3.10732 0
M  V30 3629 H 359.178 0.401056 2.97206 0
M  V30 3630 H 356.731 0.246131 1.5435 0
M  V30 3631 H 357.466 -2.11849 2.45541 0
M  V30 3632 H 357.251 -0.961969 3.80117 0
M  V30 3633 H 358.741 -1.9464 3.69466 0
M  V30 3634 N 359.178 -1.55987 0.224894 0
M  V30 3635 C 360.594 -1.59066 -0.130426 0
M  V30 3636 C 360.794 -1.24176 -1.5869 0
M  V30 3637 O 359.85 -0.978592 -2.32766 0
M  V30 3638 C 361.163 -3.00042 0.198883 0
M  V30 3639 C 362.711 -3.1268 0.141391 0
M  V30 3640 C 363.186 -4.55839 0.444422 0
M  V30 3641 N 364.677 -4.6152 0.394115 0
M  V30 3642 C 365.412 -5.70231 0.602038 0
M  V30 3643 N 364.908 -6.87291 0.871914 0
M  V30 3644 N 366.701 -5.59555 0.534245 0
M  V30 3645 H 358.852 -1.76941 1.17497 0
M  V30 3646 H 361.115 -0.822604 0.471197 0
M  V30 3647 H 360.821 -3.30234 1.2099 0
M  V30 3648 H 360.695 -3.74075 -0.484535 0
M  V30 3649 H 363.082 -2.82283 -0.860265 0
M  V30 3650 H 363.163 -2.40969 0.858335 0
M  V30 3651 H 362.807 -4.86954 1.44353 0
M  V30 3652 H 362.737 -5.2578 -0.293752 0
M  V30 3653 H 365.228 -3.77405 0.193356 0
M  V30 3654 H 365.541 -7.66058 1.01858 0
M  V30 3655 H 363.886 -6.89028 0.909145 0
M  V30 3656 H 367.077 -4.6698 0.323612 0
M  V30 3657 H 367.25 -6.44211 0.699693 0
M  V30 3658 N 360.656 0.0484629 -1.57525 0
M  V30 3659 C 361.619 1.03956 -2.04269 0
M  V30 3660 C 362.619 1.30211 -0.943496 0
M  V30 3661 O 363.809 1.25539 -1.20771 0
M  V30 3662 C 360.941 2.37742 -2.44319 0
M  V30 3663 H 362.134 0.636182 -2.93075 0
M  V30 3664 H 359.687 0.294811 -1.53494 0
M  V30 3665 H 360.422 2.82866 -1.5861 0
M  V30 3666 H 360.207 2.20021 -3.24551 0
M  V30 3667 H 361.697 3.08936 -2.80978 0
M  V30 3668 N 362.134 1.5431 0.320358 0
M  V30 3669 C 363.55 1.45091 0.664889 0
M  V30 3670 C 363.75 0.626382 1.91517 0
M  V30 3671 O 362.806 0.126443 2.52183 0
M  V30 3672 C 364.119 2.88848 0.83591 0
M  V30 3673 C 365.667 2.9877 0.933046 0
M  V30 3674 C 366.142 4.43683 1.13621 0
M  V30 3675 N 367.633 4.47309 1.20287 0
M  V30 3676 C 368.368 5.56595 1.37801 0
M  V30 3677 N 367.864 6.75844 1.52338 0
M  V30 3678 N 369.657 5.44248 1.40535 0
M  V30 3679 H 361.808 2.06398 -0.501374 0
M  V30 3680 H 364.071 0.933963 -0.162534 0
M  V30 3681 H 363.777 3.51698 -0.0116092 0
M  V30 3682 H 363.651 3.35148 1.73078 0
M  V30 3683 H 366.038 2.36045 1.77107 0
M  V30 3684 H 366.119 2.55796 0.0145782 0
M  V30 3685 H 365.763 5.06995 0.303032 0
M  V30 3686 H 365.693 4.84269 2.0686 0
M  V30 3687 H 368.184 3.61388 1.10485 0
M  V30 3688 H 368.497 7.54892 1.65403 0
M  V30 3689 H 366.842 6.78746 1.4943 0
M  V30 3690 H 370.033 4.50038 1.28777 0
M  V30 3691 H 370.206 6.29473 1.53842 0
M  V30 3692 N 363.613 -0.582584 1.46437 0
M  V30 3693 C 365.029 -0.905962 1.31394 0
M  V30 3694 C 365.229 -1.99468 0.285476 0
M  V30 3695 O 364.285 -2.50566 -0.311914 0
M  V30 3696 C 365.598 -1.3232 2.70022 0
M  V30 3697 C 367.146 -1.43604 2.78113 0
M  V30 3698 C 367.621 -1.88694 4.17323 0
M  V30 3699 N 369.112 -1.95887 4.19741 0
M  V30 3700 C 369.847 -2.32051 5.24347 0
M  V30 3701 N 369.343 -2.67006 6.39281 0
M  V30 3702 N 371.136 -2.32606 5.11713 0
M  V30 3703 H 363.287 0.1366 2.1196 0
M  V30 3704 H 365.55 -0.00155736 0.947999 0
M  V30 3705 H 365.256 -0.597242 3.46592 0
M  V30 3706 H 365.13 -2.28469 3.00136 0
M  V30 3707 H 367.517 -2.15286 2.01832 0
M  V30 3708 H 367.598 -0.457059 2.51684 0
M  V30 3709 H 367.242 -1.1759 4.941 0
M  V30 3710 H 367.172 -2.8755 4.4116 0
M  V30 3711 H 369.663 -1.71362 3.36814 0
M  V30 3712 H 369.976 -2.93554 7.14875 0
M  V30 3713 H 368.321 -2.64644 6.42642 0
M  V30 3714 H 371.512 -2.04721 4.2096 0
M  V30 3715 H 371.685 -2.60462 5.93349 0
M  V30 3716 N 365.091 -1.34144 -0.827227 0
M  V30 3717 C 366.337 -1.26446 -1.58554 0
M  V30 3718 C 366.67 0.1664 -1.93486 0
M  V30 3719 O 365.945 1.1107 -1.59667 0
M  V30 3720 C 366.228 -2.15111 -2.8879 0
M  V30 3721 C 366.081 -3.66712 -2.60465 0
M  V30 3722 C 367.4 -2.03311 -3.90324 0
M  V30 3723 H 364.519 -0.46067 -0.575284 0
M  V30 3724 H 367.161 -1.64356 -0.953269 0
M  V30 3725 H 365.311 -1.8291 -3.42748 0
M  V30 3726 H 366.983 -4.09259 -2.1285 0
M  V30 3727 H 365.226 -3.88014 -1.93978 0
M  V30 3728 H 365.897 -4.24112 -3.53317 0
M  V30 3729 H 368.373 -2.31574 -3.45706 0
M  V30 3730 H 367.249 -2.67582 -4.79261 0
M  V30 3731 H 367.51 -1.00879 -4.30437 0
M  V30 3732 N 366.569 1.04691 -1.17803 0
M  V30 3733 C 367.499 2.14494 -0.92275 0
M  V30 3734 C 368.48 1.69546 0.137179 0
M  V30 3735 O 369.665 1.94195 -0.0141108 0
M  V30 3736 C 366.795 3.44491 -0.440803 0
M  V30 3737 C 365.749 4.03031 -1.4405 0
M  V30 3738 C 365.075 5.28432 -0.81631 0
M  V30 3739 C 366.375 4.39932 -2.81527 0
M  V30 3740 H 368.069 2.36107 -1.84103 0
M  V30 3741 H 365.615 1.1347 -0.886599 0
M  V30 3742 H 367.568 4.2066 -0.249602 0
M  V30 3743 H 366.292 3.22546 0.513025 0
M  V30 3744 H 364.951 3.28937 -1.61853 0
M  V30 3745 H 364.599 5.02792 0.144511 0
M  V30 3746 H 364.299 5.68559 -1.48371 0
M  V30 3747 H 365.823 6.07284 -0.635496 0
M  V30 3748 H 367.237 5.07113 -2.67412 0
M  V30 3749 H 365.634 4.9109 -3.44892 0
M  V30 3750 H 366.704 3.50045 -3.35554 0
M  V30 3751 N 368.047 0.979072 1.23499 0
M  V30 3752 C 368.957 0.526431 2.28617 0
M  V30 3753 C 369.973 -0.418126 1.68901 0
M  V30 3754 O 371.149 -0.288372 1.99325 0
M  V30 3755 C 368.214 -0.165235 3.46306 0
M  V30 3756 C 367.275 0.82056 4.21385 0
M  V30 3757 C 366.508 0.161807 5.33455 0
M  V30 3758 O 366.731 -1.04742 5.60701 0
M  V30 3759 O 365.665 0.859708 5.95729 0
M  V30 3760 H 369.491 1.4006 2.69475 0
M  V30 3761 H 367.076 0.746643 1.29405 0
M  V30 3762 H 368.958 -0.553287 4.17752 0
M  V30 3763 H 367.633 -1.01419 3.07402 0
M  V30 3764 H 366.54 1.25929 3.52268 0
M  V30 3765 H 367.873 1.63828 4.64135 0
M  V30 3766 N 369.525 -1.3858 0.750561 0
M  V30 3767 C 370.488 -2.28836 0.129152 0
M  V30 3768 C 371.488 -1.47045 -0.650714 0
M  V30 3769 O 372.678 -1.6753 -0.477428 0
M  V30 3770 C 369.81 -3.30751 -0.825622 0
M  V30 3771 H 371.003 -2.85294 0.924516 0
M  V30 3772 H 368.556 -1.47489 0.517376 0
M  V30 3773 H 369.291 -2.79378 -1.64677 0
M  V30 3774 H 369.076 -3.91177 -0.268852 0
M  V30 3775 H 370.566 -3.98249 -1.2565 0
M  V30 3776 N 371.003 -0.499398 -1.49478 0
M  V30 3777 C 372.249 0.0457576 -2.02748 0
M  V30 3778 C 372.582 1.36793 -1.37846 0
M  V30 3779 O 371.857 1.87596 -0.513601 0
M  V30 3780 C 372.14 0.199986 -3.59544 0
M  V30 3781 C 371.993 -1.1452 -4.34977 0
M  V30 3782 C 373.312 0.94137 -4.29914 0
M  V30 3783 H 370.431 0.0151552 -0.736844 0
M  V30 3784 H 373.073 -0.650498 -1.78518 0
M  V30 3785 H 371.223 0.793007 -3.8032 0
M  V30 3786 H 372.895 -1.77697 -4.25701 0
M  V30 3787 H 371.138 -1.73488 -3.97598 0
M  V30 3788 H 371.809 -0.990607 -5.43039 0
M  V30 3789 H 374.285 0.43844 -4.13784 0
M  V30 3790 H 373.161 1.01812 -5.39375 0
M  V30 3791 H 373.422 1.98471 -3.95046 0
M  V30 3792 N 372.481 1.55866 -0.233164 0
M  V30 3793 C 373.892 1.847 0.272554 0
M  V30 3794 C 374.243 1.15477 1.58617 0
M  V30 3795 O 373.368 0.42841 2.12117 0
M  V30 3796 C 373.963 3.35071 0.501299 0
M  V30 3797 C 372.522 3.6418 0.951304 0
M  V30 3798 C 371.669 2.77292 0.0208209 0
M  V30 3799 H 374.62 1.52005 -0.456074 0
M  V30 3800 H 374.641 3.55906 1.34577 0
M  V30 3801 H 374.153 3.85424 -0.454936 0
M  V30 3802 H 372.254 3.19293 1.92049 0
M  V30 3803 H 372.367 4.72071 0.817675 0
M  V30 3804 H 370.731 2.49131 0.529723 0
M  V30 3805 H 371.514 3.30448 -0.93054 0
M  V30 3806 N 373.959 -0.0401083 1.57549 0
M  V30 3807 C 375.37 -0.588097 1.77196 0
M  V30 3808 C 375.721 -1.76209 0.862832 0
M  V30 3809 O 374.846 -2.16331 0.0548389 0
M  V30 3810 C 375.441 -1.07363 3.21339 0
M  V30 3811 C 374 -1.56723 3.42221 0
M  V30 3812 C 373.147 -0.50041 2.72747 0
M  V30 3813 H 376.098 0.186119 1.57605 0
M  V30 3814 H 376.119 -1.94143 3.27244 0
M  V30 3815 H 375.631 -0.218975 3.87482 0
M  V30 3816 H 373.732 -2.4441 2.81237 0
M  V30 3817 H 373.845 -1.62234 4.50796 0
M  V30 3818 H 372.209 -0.952894 2.36203 0
M  V30 3819 H 372.992 0.344599 3.41566 0
M  V30 3820 N 375.437 -1.54477 -0.31217 0
M  V30 3821 C 376.685 -1.72884 -1.04668 0
M  V30 3822 C 377.006 -0.511477 -1.88173 0
M  V30 3823 O 376.276 0.474407 -1.90069 0
M  V30 3824 H 374.856 -0.637461 -0.389425 0
M  V30 3825 H 377.518 -1.91807 -0.345852 0
M  V30 3826 H 376.614 -2.61334 -1.70619 0
M  V30 3827 N 376.915 0.57481 -1.46744 0
M  V30 3828 C 378.326 1.15695 -1.46532 0
M  V30 3829 C 378.677 1.95068 -0.210425 0
M  V30 3830 O 377.802 2.05241 0.685944 0
M  V30 3831 C 378.397 2.1048 -2.65487 0
M  V30 3832 C 376.956 2.64002 -2.68291 0
M  V30 3833 C 376.103 1.40026 -2.39349 0
M  V30 3834 H 379.054 0.362325 -1.54509 0
M  V30 3835 H 379.075 2.94074 -2.41455 0
M  V30 3836 H 378.587 1.52683 -3.56805 0
M  V30 3837 H 376.688 3.25646 -1.81067 0
M  V30 3838 H 376.801 3.06197 -3.68483 0
M  V30 3839 H 375.165 1.70106 -1.89568 0
M  V30 3840 H 375.948 0.840485 -3.32852 0
M  V30 3841 N 378.394 1.34581 0.820102 0
M  V30 3842 C 379.344 1.22943 1.92013 0
M  V30 3843 C 380.328 0.127802 1.60392 0
M  V30 3844 O 381.52 0.357737 1.73347 0
M  V30 3845 C 378.649 0.989938 3.28717 0
M  V30 3846 C 377.735 2.13486 3.66449 0
M  V30 3847 N 378.126 3.38625 3.75722 0
M  V30 3848 C 376.424 2.04573 3.96315 0
M  V30 3849 C 377.125 4.13832 4.08801 0
M  V30 3850 N 376.101 3.42451 4.22171 0
M  V30 3851 H 379.903 2.17771 1.97365 0
M  V30 3852 H 377.417 1.2686 1.01392 0
M  V30 3853 H 379.414 0.887462 4.07345 0
M  V30 3854 H 378.074 0.0503691 3.24661 0
M  V30 3855 H 379.085 3.73143 3.59144 0
M  V30 3856 H 375.762 1.1839 4.00362 0
M  V30 3857 H 377.152 5.21909 4.23156 0
M  V30 3858 N 379.872 -1.04064 1.18357 0
M  V30 3859 C 381.118 -1.77658 0.990412 0
M  V30 3860 C 381.473 -1.86446 -0.474944 0
M  V30 3861 O 380.766 -1.36153 -1.34807 0
M  V30 3862 C 380.96 -3.20634 1.57888 0
M  V30 3863 C 380.789 -3.25782 3.09994 0
M  V30 3864 C 379.559 -3.34411 3.7881 0
M  V30 3865 C 381.757 -3.13791 4.0748 0
M  V30 3866 N 379.739 -3.28809 5.18418 0
M  V30 3867 C 381.11 -3.15689 5.33611 0
M  V30 3868 C 383.165 -2.97833 3.98998 0
M  V30 3869 C 381.868 -3.03268 6.52243 0
M  V30 3870 C 383.894 -2.86759 5.17227 0
M  V30 3871 C 383.256 -2.893 6.4225 0
M  V30 3872 H 379.355 -0.661901 0.416427 0
M  V30 3873 H 381.939 -1.23968 1.50133 0
M  V30 3874 H 380.11 -3.7267 1.09414 0
M  V30 3875 H 381.842 -3.82525 1.32124 0
M  V30 3876 H 378.597 -3.40144 3.29543 0
M  V30 3877 H 379.021 -3.29448 5.91433 0
M  V30 3878 H 383.663 -2.94698 3.03171 0
M  V30 3879 H 381.381 -3.05156 7.48268 0
M  V30 3880 H 384.967 -2.75465 5.12455 0
M  V30 3881 H 383.847 -2.80818 7.32196 0
M  V30 3882 N 381.35 -0.985608 -1.22978 0
M  V30 3883 C 382.28 -0.549649 -2.26939 0
M  V30 3884 C 383.261 0.419803 -1.64838 0
M  V30 3885 O 384.446 0.31203 -1.91677 0
M  V30 3886 C 381.576 0.143652 -3.47003 0
M  V30 3887 C 380.53 -0.743606 -4.21491 0
M  V30 3888 C 379.856 0.0822027 -5.34637 0
M  V30 3889 C 381.156 -2.03694 -4.80943 0
M  V30 3890 H 382.85 -1.41862 -2.63658 0
M  V30 3891 H 380.396 -0.683571 -1.26741 0
M  V30 3892 H 382.349 0.459985 -4.18882 0
M  V30 3893 H 381.073 1.04711 -3.09359 0
M  V30 3894 H 379.732 -1.04347 -3.51436 0
M  V30 3895 H 379.38 0.986359 -4.93234 0
M  V30 3896 H 379.08 -0.508377 -5.85397 0
M  V30 3897 H 380.604 0.392797 -6.09335 0
M  V30 3898 H 382.018 -1.78504 -5.44802 0
M  V30 3899 H 380.415 -2.57573 -5.42011 0
M  V30 3900 H 381.485 -2.72042 -4.01399 0
M  V30 3901 N 382.828 1.3818 -0.7579 0
M  V30 3902 C 383.758 2.33027 -0.148597 0
M  V30 3903 C 384.739 1.55085 0.69875 0
M  V30 3904 O 385.924 1.83384 0.639053 0
M  V30 3905 C 383.054 3.3928 0.742034 0
M  V30 3906 C 382.008 4.28 -0.00291946 0
M  V30 3907 C 381.334 5.25146 1.00625 0
M  V30 3908 C 382.634 5.08938 -1.17385 0
M  V30 3909 H 384.328 2.84231 -0.940909 0
M  V30 3910 H 381.874 1.36659 -0.453908 0
M  V30 3911 H 383.827 4.046 1.17799 0
M  V30 3912 H 382.551 2.86569 1.56671 0
M  V30 3913 H 381.21 3.64192 -0.419504 0
M  V30 3914 H 380.858 4.68721 1.8251 0
M  V30 3915 H 380.558 5.85361 0.512428 0
M  V30 3916 H 382.082 5.93342 1.44143 0
M  V30 3917 H 383.496 5.67474 -0.815224 0
M  V30 3918 H 381.893 5.7841 -1.59882 0
M  V30 3919 H 382.963 4.42424 -1.98468 0
M  V30 3920 N 384.306 0.507319 1.49211 0
M  V30 3921 C 385.554 -0.0348839 2.0207 0
M  V30 3922 C 385.875 -1.36898 1.38866 0
M  V30 3923 O 385.145 -1.88133 0.546151 0
M  V30 3924 H 383.725 -0.0158812 0.746831 0
M  V30 3925 H 386.387 0.665998 1.83168 0
M  V30 3926 H 385.483 -0.159917 3.1169 0
M  V30 3927 N 385.784 -1.5574 0.241426 0
M  V30 3928 C 387.012 -2.03208 -0.389134 0
M  V30 3929 C 387.427 -1.12082 -1.51931 0
M  V30 3930 O 386.784 -0.134183 -1.82006 0
M  V30 3931 C 386.835 -3.50064 -0.902087 0
M  V30 3932 O 386.556 -4.37717 0.18305 0
M  V30 3933 C 388.057 -4.13268 -1.60389 0
M  V30 3934 H 385.277 -0.664509 -0.0931053 0
M  V30 3935 H 387.821 -2.0124 0.36369 0
M  V30 3936 H 385.976 -3.52583 -1.60511 0
M  V30 3937 H 386.39 -5.24097 -0.205579 0
M  V30 3938 H 387.864 -5.17733 -1.91458 0
M  V30 3939 H 388.341 -3.59434 -2.52397 0
M  V30 3940 H 388.947 -4.14655 -0.945576 0
M  V30 3941 N 387.262 0.0317525 -1.57568 0
M  V30 3942 C 388.673 0.578692 -1.77505 0
M  V30 3943 C 389.024 1.75749 -0.872164 0
M  V30 3944 O 388.149 2.16298 -0.0663106 0
M  V30 3945 C 388.744 1.05658 -3.21904 0
M  V30 3946 C 387.303 1.54906 -3.43047 0
M  V30 3947 C 386.45 0.485939 -2.73009 0
M  V30 3948 H 389.401 -0.194475 -1.57504 0
M  V30 3949 H 389.422 1.92404 -3.28269 0
M  V30 3950 H 388.934 0.198422 -3.87592 0
M  V30 3951 H 387.035 2.42915 -2.82529 0
M  V30 3952 H 387.148 1.59841 -4.5165 0
M  V30 3953 H 385.512 0.940354 -2.36705 0
M  V30 3954 H 386.295 -0.362709 -3.41379 0
M  V30 3955 N 388.74 1.54641 0.303973 0
M  V30 3956 C 389.67 1.88386 1.3796 0
M  V30 3957 C 390.651 0.742485 1.5304 0
M  V30 3958 O 391.836 0.997959 1.66597 0
M  V30 3959 C 388.966 2.12854 2.74427 0
M  V30 3960 C 387.92 3.28702 2.74115 0
M  V30 3961 C 387.246 3.38582 4.13844 0
M  V30 3962 C 388.546 4.65881 2.3612 0
M  V30 3963 H 390.24 2.78474 1.09966 0
M  V30 3964 H 387.786 1.33988 0.527556 0
M  V30 3965 H 389.739 2.35047 3.49758 0
M  V30 3966 H 388.463 1.19535 3.03939 0
M  V30 3967 H 387.122 3.06428 2.0124 0
M  V30 3968 H 386.77 2.42784 4.40528 0
M  V30 3969 H 386.47 4.16453 4.14537 0
M  V30 3970 H 387.994 3.63031 4.90959 0
M  V30 3971 H 389.408 4.87823 3.01167 0
M  V30 3972 H 387.805 5.46444 2.48031 0
M  V30 3973 H 388.875 4.66799 1.3125 0
M  V30 3974 N 390.218 -0.567019 1.47046 0
M  V30 3975 C 391.629 -1.14916 1.47143 0
M  V30 3976 C 391.98 -1.94954 0.220767 0
M  V30 3977 O 391.105 -2.05602 -0.67505 0
M  V30 3978 C 391.7 -2.09069 2.666 0
M  V30 3979 C 390.259 -2.62575 2.69687 0
M  V30 3980 C 389.406 -1.38755 2.40088 0
M  V30 3981 H 392.357 -0.354126 1.54699 0
M  V30 3982 H 392.378 -2.92789 2.43011 0
M  V30 3983 H 391.89 -1.50789 3.57609 0
M  V30 3984 H 389.991 -3.24681 1.82792 0
M  V30 3985 H 390.104 -3.04239 3.70102 0
M  V30 3986 H 388.468 -1.69098 1.90468 0
M  V30 3987 H 389.251 -0.822822 3.33293 0
M  V30 3988 N 391.696 -1.35014 -0.812953 0
M  V30 3989 C 393.107 -1.25035 -1.38648 0
M  V30 3990 C 393.458 0.119967 -1.95833 0
M  V30 3991 O 392.583 1.02069 -1.90816 0
M  V30 3992 C 393.178 -2.26394 -2.52054 0
M  V30 3993 C 391.737 -2.20175 -3.05287 0
M  V30 3994 C 390.884 -2.12451 -1.78213 0
M  V30 3995 H 393.835 -1.46235 -0.616516 0
M  V30 3996 H 393.856 -1.88672 -3.30429 0
M  V30 3997 H 393.368 -3.26116 -2.10404 0
M  V30 3998 H 391.469 -1.23841 -3.51417 0
M  V30 3999 H 391.582 -3.11863 -3.63701 0
M  V30 4000 H 389.946 -1.58328 -1.9951 0
M  V30 4001 H 390.729 -3.14024 -1.38723 0
M  V30 4002 N 393.175 1.03435 -1.18907 0
M  V30 4003 C 394.122 2.11591 -0.921837 0
M  V30 4004 C 395.092 1.65499 0.141226 0
M  V30 4005 O 396.277 1.908 0.000242829 0
M  V30 4006 C 393.417 3.42012 -0.460616 0
M  V30 4007 C 392.53 4.01682 -1.58982 0
M  V30 4008 C 391.665 5.20091 -1.08069 0
M  V30 4009 C 390.704 5.71805 -2.18416 0
M  V30 4010 N 389.841 6.81494 -1.68849 0
M  V30 4011 H 394.681 2.33787 -1.8479 0
M  V30 4012 H 392.218 1.1467 -0.921373 0
M  V30 4013 H 394.176 4.16834 -0.174642 0
M  V30 4014 H 392.806 3.19944 0.428467 0
M  V30 4015 H 391.858 3.24127 -1.99113 0
M  V30 4016 H 393.17 4.36084 -2.4214 0
M  V30 4017 H 392.324 6.02051 -0.749615 0
M  V30 4018 H 391.063 4.87209 -0.218771 0
M  V30 4019 H 390.068 4.88461 -2.5236 0
M  V30 4020 H 391.293 6.06728 -3.05054 0
M  V30 4021 H 389.239 6.50475 -0.849572 0
M  V30 4022 H 389.156 7.14994 -2.45601 0
M  V30 4023 H 390.424 7.67063 -1.38689 0
M  V30 4024 N 394.653 0.992116 1.22453 0
M  V30 4025 C 395.616 0.546883 2.2258 0
M  V30 4026 C 396.616 -0.369829 1.56489 0
M  V30 4027 O 397.806 -0.161896 1.73446 0
M  V30 4028 C 394.938 -0.204659 3.40285 0
M  V30 4029 H 396.131 1.43234 2.63484 0
M  V30 4030 H 393.684 0.779239 1.3549 0
M  V30 4031 H 394.419 -1.10614 3.04853 0
M  V30 4032 H 394.204 0.45354 3.89468 0
M  V30 4033 H 395.694 -0.504358 4.14543 0
M  V30 4034 N 396.131 -1.37776 0.765217 0
M  V30 4035 C 397.061 -2.32945 0.160953 0
M  V30 4036 C 398.042 -1.55454 -0.690516 0
M  V30 4037 O 399.227 -1.83721 -0.629318 0
M  V30 4038 C 396.357 -3.39669 -0.724031 0
M  V30 4039 C 395.311 -4.27992 0.0256173 0
M  V30 4040 C 394.637 -5.25673 -0.978383 0
M  V30 4041 C 395.937 -5.08309 1.20082 0
M  V30 4042 H 397.631 -2.83728 0.955969 0
M  V30 4043 H 395.177 -1.36416 0.461149 0
M  V30 4044 H 397.13 -4.05219 -1.15652 0
M  V30 4045 H 395.854 -2.87396 -1.5515 0
M  V30 4046 H 394.513 -3.63964 0.438812 0
M  V30 4047 H 394.161 -4.69682 -1.80022 0
M  V30 4048 H 393.861 -5.85625 -0.481378 0
M  V30 4049 H 395.385 -5.94098 -1.40995 0
M  V30 4050 H 396.799 -5.67034 0.845307 0
M  V30 4051 H 395.196 -5.77554 1.62947 0
M  V30 4052 H 396.266 -4.41365 2.00811 0
M  V30 4053 N 397.609 -0.515225 -1.4894 0
M  V30 4054 C 399.02 -0.0710067 -1.86565 0
M  V30 4055 C 399.371 1.34733 -1.42623 0
M  V30 4056 O 398.496 2.00653 -0.810379 0
M  V30 4057 C 399.091 -0.122083 -3.3858 0
M  V30 4058 C 397.65 0.266863 -3.75453 0
M  V30 4059 C 396.797 -0.488376 -2.72966 0
M  V30 4060 H 399.748 -0.727266 -1.41055 0
M  V30 4061 H 399.769 0.669818 -3.74558 0
M  V30 4062 H 399.281 -1.15448 -3.70531 0
M  V30 4063 H 397.382 1.30196 -3.49113 0
M  V30 4064 H 397.495 -0.0624811 -4.79059 0
M  V30 4065 H 395.859 0.0635622 -2.54621 0
M  V30 4066 H 396.642 -1.52113 -3.07761 0
M  V30 4067 N 399.087 1.5561 -0.249682 0
M  V30 4068 C 400.315 2.03411 0.378352 0
M  V30 4069 C 400.73 1.12886 1.51335 0
M  V30 4070 O 400.087 0.143833 1.81932 0
M  V30 4071 C 400.138 3.50537 0.88351 0
M  V30 4072 O 399.859 4.37614 -0.20626 0
M  V30 4073 C 401.36 4.14113 1.58195 0
M  V30 4074 H 398.58 0.664994 0.08958 0
M  V30 4075 H 401.124 2.01044 -0.374357 0
M  V30 4076 H 399.279 3.5343 1.58639 0
M  V30 4077 H 399.693 5.24199 0.177782 0
M  V30 4078 H 401.167 5.18741 1.8871 0
M  V30 4079 H 401.644 3.60767 2.50487 0
M  V30 4080 H 402.25 4.15151 0.923573 0
M  V30 4081 N 400.565 -0.0233959 1.57583 0
M  V30 4082 C 401.528 -1.00693 2.05897 0
M  V30 4083 C 402.528 -1.28693 0.964092 0
M  V30 4084 O 403.718 -1.23602 1.22753 0
M  V30 4085 C 400.85 -2.33825 2.4807 0
M  V30 4086 H 402.043 -0.589476 2.9405 0
M  V30 4087 H 399.596 -0.270354 1.53944 0
M  V30 4088 H 400.331 -2.80307 1.6309 0
M  V30 4089 H 400.116 -2.1483 3.2801 0
M  V30 4090 H 401.606 -3.04426 2.85857 0
M  V30 4091 N 402.043 -1.548 -0.295768 0
M  V30 4092 C 403.291 -1.73985 -1.02828 0
M  V30 4093 C 403.612 -0.531406 -1.87619 0
M  V30 4094 O 402.882 0.454221 -1.90561 0
M  V30 4095 H 401.462 -0.641556 -0.382642 0
M  V30 4096 H 404.124 -1.92163 -0.325489 0
M  V30 4097 H 403.22 -2.63129 -1.67838 0
M  V30 4098 N 403.521 0.559213 -1.47345 0
M  V30 4099 C 404.451 1.67622 -1.62558 0
M  V30 4100 C 405.432 1.63331 -0.475087 0
M  V30 4101 O 406.617 1.80983 -0.704182 0
M  V30 4102 C 403.747 3.0626 -1.63774 0
M  V30 4103 C 402.701 3.25397 -2.7803 0
M  V30 4104 C 402.027 4.64801 -2.64318 0
M  V30 4105 C 403.327 3.10965 -4.19641 0
M  V30 4106 H 405.021 1.55146 -2.56067 0
M  V30 4107 H 402.567 0.744961 -1.23233 0
M  V30 4108 H 404.52 3.84247 -1.73008 0
M  V30 4109 H 403.244 3.1969 -0.66825 0
M  V30 4110 H 401.903 2.49817 -2.68304 0
M  V30 4111 H 401.551 4.75028 -1.65401 0
M  V30 4112 H 401.251 4.78555 -3.40968 0
M  V30 4113 H 402.775 5.44926 -2.75478 0
M  V30 4114 H 404.189 3.78772 -4.30354 0
M  V30 4115 H 402.586 3.36229 -4.97062 0
M  V30 4116 H 403.656 2.07736 -4.38148 0
M  V30 4117 N 404.999 1.35443 0.805782 0
M  V30 4118 C 406.41 1.25768 1.37983 0
M  V30 4119 C 406.761 -0.10958 1.95894 0
M  V30 4120 O 405.886 -1.01056 1.91355 0
M  V30 4121 C 406.481 2.27727 2.5085 0
M  V30 4122 C 405.04 2.2179 3.04115 0
M  V30 4123 C 404.187 2.13393 1.77084 0
M  V30 4124 H 407.138 1.4656 0.608752 0
M  V30 4125 H 407.159 1.90422 3.29424 0
M  V30 4126 H 406.671 3.27227 2.08671 0
M  V30 4127 H 404.772 1.25703 3.50756 0
M  V30 4128 H 404.885 3.13788 3.62042 0
M  V30 4129 H 403.249 1.59384 1.98668 0
M  V30 4130 H 404.032 3.14755 1.37056 0
M  V30 4131 N 406.477 -1.02803 1.19454 0
M  V30 4132 C 407.888 -1.57667 0.999899 0
M  V30 4133 C 408.239 -1.91041 -0.446956 0
M  V30 4134 O 407.364 -1.70978 -1.32648 0
M  V30 4135 C 407.959 -2.86477 1.80877 0
M  V30 4136 C 406.518 -3.37911 1.65811 0
M  V30 4137 C 405.665 -2.11343 1.79526 0
M  V30 4138 H 408.616 -0.853214 1.33813 0
M  V30 4139 H 408.637 -3.57408 1.30536 0
M  V30 4140 H 408.149 -2.62155 2.86175 0
M  V30 4141 H 406.25 -3.67218 0.63102 0
M  V30 4142 H 406.363 -4.10885 2.46395 0
M  V30 4143 H 404.727 -2.23254 1.22596 0
M  V30 4144 H 405.51 -1.89461 2.86285 0
M  V30 4145 N 407.956 -0.998596 -1.21925 0
M  V30 4146 C 409.204 -0.676325 -1.90448 0
M  V30 4147 C 409.525 0.794719 -1.78071 0
M  V30 4148 O 408.795 1.5701 -1.17152 0
M  V30 4149 H 407.375 -0.247165 -0.704925 0
M  V30 4150 H 410.037 -1.26633 -1.48156 0
M  V30 4151 H 409.133 -0.943858 -2.97486 0
M  V30 4152 N 409.434 1.37368 -0.772513 0
M  V30 4153 C 410.364 2.32856 -0.173304 0
M  V30 4154 C 411.345 1.55818 0.682262 0
M  V30 4155 O 412.53 1.84052 0.619566 0
M  V30 4156 C 409.66 3.40048 0.706007 0
M  V30 4157 C 408.614 4.27973 -0.0483144 0
M  V30 4158 C 407.94 5.26184 0.950491 0
M  V30 4159 C 409.24 5.07665 -1.22776 0
M  V30 4160 H 410.934 2.83217 -0.971002 0
M  V30 4161 H 408.48 1.3617 -0.468377 0
M  V30 4162 H 410.433 4.05827 1.13501 0
M  V30 4163 H 409.157 2.88214 1.53623 0
M  V30 4164 H 407.816 3.63726 -0.458107 0
M  V30 4165 H 407.464 4.7063 1.77529 0
M  V30 4166 H 407.164 5.85872 0.450314 0
M  V30 4167 H 408.688 5.94838 1.37842 0
M  V30 4168 H 410.102 5.66578 -0.875366 0
M  V30 4169 H 408.499 5.76681 -1.66007 0
M  V30 4170 H 409.569 4.40294 -2.03149 0
M  V30 4171 N 410.912 0.523116 1.48665 0
M  V30 4172 C 411.842 -0.23231 2.32342 0
M  V30 4173 C 412.823 -0.941637 1.41659 0
M  V30 4174 O 414.008 -0.928751 1.70552 0
M  V30 4175 C 411.138 -1.28387 3.22698 0
M  V30 4176 C 410.092 -0.693098 4.22351 0
M  V30 4177 C 409.418 -1.8468 5.01794 0
M  V30 4178 C 410.718 0.33063 5.21252 0
M  V30 4179 H 412.412 0.466192 2.95748 0
M  V30 4180 H 409.958 0.225643 1.42221 0
M  V30 4181 H 411.911 -1.82024 3.80059 0
M  V30 4182 H 410.635 -2.01186 2.57278 0
M  V30 4183 H 409.294 -0.178299 3.66166 0
M  V30 4184 H 408.942 -2.56301 4.32804 0
M  V30 4185 H 408.642 -1.45747 5.69238 0
M  V30 4186 H 410.166 -2.38709 5.62006 0
M  V30 4187 H 411.58 -0.118407 5.73178 0
M  V30 4188 H 409.977 0.636974 5.9671 0
M  V30 4189 H 411.047 1.23883 4.68808 0
M  V30 4190 N 412.39 -1.55475 0.257931 0
M  V30 4191 C 413.353 -2.20551 -0.623706 0
M  V30 4192 C 414.353 -1.17809 -1.09443 0
M  V30 4193 O 415.543 -1.42823 -0.997362 0
M  V30 4194 C 412.675 -2.85784 -1.8585 0
M  V30 4195 H 413.868 -2.99848 -0.0557743 0
M  V30 4196 H 411.421 -1.56298 0.0084422 0
M  V30 4197 H 412.156 -2.10453 -2.46739 0
M  V30 4198 H 411.941 -3.61057 -1.52907 0
M  V30 4199 H 413.431 -3.35553 -2.48584 0
M  V30 4200 N 413.868 0.0150385 -1.57593 0
M  V30 4201 C 414.798 1.01047 -2.10503 0
M  V30 4202 C 415.779 1.36816 -1.01071 0
M  V30 4203 O 416.964 1.45455 -1.28672 0
M  V30 4204 C 414.094 2.30708 -2.59598 0
M  V30 4205 C 413.048 2.09142 -3.73421 0
M  V30 4206 C 412.374 3.44685 -4.08774 0
M  V30 4207 C 413.674 1.46619 -5.01298 0
M  V30 4208 H 415.368 0.569978 -2.93925 0
M  V30 4209 H 412.914 0.272724 -1.41394 0
M  V30 4210 H 414.867 3.00687 -2.95238 0
M  V30 4211 H 413.591 2.76843 -1.73279 0
M  V30 4212 H 412.25 1.41592 -3.38153 0
M  V30 4213 H 411.898 3.88495 -3.195 0
M  V30 4214 H 411.598 3.31077 -4.8545 0
M  V30 4215 H 413.122 4.16004 -4.4696 0
M  V30 4216 H 414.536 2.06535 -5.34805 0
M  V30 4217 H 412.933 1.43544 -5.82679 0
M  V30 4218 H 414.003 0.433611 -4.82957 0
M  V30 4219 N 415.346 1.54954 0.287554 0
M  V30 4220 C 416.594 1.74528 1.01904 0
M  V30 4221 C 416.915 0.541349 1.87335 0
M  V30 4222 O 416.185 -0.444108 1.908 0
M  V30 4223 H 414.765 0.643576 0.379235 0
M  V30 4224 H 417.427 1.92333 0.315294 0
M  V30 4225 H 416.523 2.64015 1.6644 0
M  V30 4226 N 416.824 -0.551391 1.4764 0
M  V30 4227 C 417.734 -1.68525 1.63207 0
M  V30 4228 C 418.75 -1.6621 0.514815 0
M  V30 4229 O 419.926 -1.85551 0.783113 0
M  V30 4230 C 416.991 -3.05025 1.64805 0
M  V30 4231 C 416.052 -3.18362 2.88 0
M  V30 4232 C 415.285 -4.4835 2.89513 0
M  V30 4233 O 415.508 -5.34163 2.00065 0
M  V30 4234 O 414.442 -4.65602 3.81443 0
M  V30 4235 H 418.268 -1.58333 2.59161 0
M  V30 4236 H 415.853 -0.722063 1.30792 0
M  V30 4237 H 417.735 -3.86245 1.68502 0
M  V30 4238 H 416.41 -3.15587 0.720197 0
M  V30 4239 H 415.317 -2.36518 2.89845 0
M  V30 4240 H 416.65 -3.12707 3.80099 0
M  V30 4241 N 418.302 -1.35869 -0.798587 0
M  V30 4242 C 419.548 -1.2978 -1.55836 0
M  V30 4243 C 419.881 0.125322 -1.93795 0
M  V30 4244 O 419.156 1.07658 -1.61987 0
M  V30 4245 C 419.439 -2.21188 -2.84162 0
M  V30 4246 C 419.292 -3.72155 -2.52628 0
M  V30 4247 C 420.611 -2.11545 -3.85923 0
M  V30 4248 H 417.73 -0.472769 -0.565383 0
M  V30 4249 H 420.372 -1.66341 -0.918192 0
M  V30 4250 H 418.522 -1.90139 -3.38791 0
M  V30 4251 H 420.194 -4.13682 -2.04121 0
M  V30 4252 H 418.437 -3.92042 -1.85704 0
M  V30 4253 H 419.108 -4.31511 -3.44242 0
M  V30 4254 H 421.584 -2.38855 -3.40716 0
M  V30 4255 H 420.46 -2.77688 -4.73477 0
M  V30 4256 H 420.721 -1.09987 -4.282 0
M  V30 4257 N 419.78 1.02168 -1.19998 0
M  V30 4258 C 420.743 2.08765 -0.94604 0
M  V30 4259 C 421.743 1.60618 0.0763846 0
M  V30 4260 O 422.933 1.73472 -0.159135 0
M  V30 4261 C 420.065 3.38262 -0.423255 0
M  V30 4262 H 421.258 2.32726 -1.89153 0
M  V30 4263 H 418.811 1.1889 -1.01464 0
M  V30 4264 H 419.546 3.19974 0.527938 0
M  V30 4265 H 419.331 3.74532 -1.16053 0
M  V30 4266 H 420.821 4.16759 -0.264911 0
M  V30 4267 N 421.258 1.00505 1.21394 0
M  V30 4268 C 422.674 0.717873 1.42544 0
M  V30 4269 C 422.874 -0.706936 1.88692 0
M  V30 4270 O 421.93 -1.47627 2.04847 0
M  V30 4271 C 423.243 1.73377 2.45684 0
M  V30 4272 C 424.791 1.75059 2.59467 0
M  V30 4273 C 425.266 2.75545 3.6584 0
M  V30 4274 N 426.757 2.74213 3.73311 0
M  V30 4275 C 427.492 3.48626 4.55245 0
M  V30 4276 N 426.988 4.32678 5.41075 0
M  V30 4277 N 428.781 3.37276 4.49668 0
M  V30 4278 H 420.932 1.92506 0.897503 0
M  V30 4279 H 423.195 0.830919 0.456375 0
M  V30 4280 H 422.901 2.75395 2.18748 0
M  V30 4281 H 422.775 1.53647 3.44489 0
M  V30 4282 H 425.162 0.737337 2.8574 0
M  V30 4283 H 425.243 1.98861 1.60897 0
M  V30 4284 H 424.887 3.77028 3.40313 0
M  V30 4285 H 424.817 2.49009 4.64007 0
M  V30 4286 H 427.308 2.13234 3.11993 0
M  V30 4287 H 427.621 4.86253 6.00648 0
M  V30 4288 H 425.966 4.3676 5.40616 0
M  V30 4289 H 429.157 2.71043 3.81646 0
M  V30 4290 H 429.33 3.95524 5.13288 0
M  V30 4291 N 422.737 -1.36956 0.779787 0
M  V30 4292 C 424.148 -1.82094 0.412156 0
M  V30 4293 C 424.499 -1.64926 -1.06273 0
M  V30 4294 O 423.624 -1.16483 -1.82375 0
M  V30 4295 C 424.219 -3.3059 0.741319 0
M  V30 4296 C 422.778 -3.73974 0.426641 0
M  V30 4297 C 421.925 -2.59368 0.980987 0
M  V30 4298 H 424.876 -1.25314 0.973758 0
M  V30 4299 H 424.897 -3.80489 0.028887 0
M  V30 4300 H 424.409 -3.43054 1.81482 0
M  V30 4301 H 422.51 -3.67076 -0.639215 0
M  V30 4302 H 422.623 -4.69778 0.940515 0
M  V30 4303 H 420.987 -2.51463 0.404757 0
M  V30 4304 H 421.77 -2.74621 2.06005 0
M  V30 4305 N 424.215 -0.530993 -1.48385 0
M  V30 4306 C 425.626 -0.0907905 -1.86479 0
M  V30 4307 C 425.977 1.33213 -1.44044 0
M  V30 4308 O 425.102 1.99783 -0.831615 0
M  V30 4309 C 425.697 -0.157987 -3.38431 0
M  V30 4310 C 424.256 0.227026 -3.75715 0
M  V30 4311 C 423.403 -0.5173 -2.72432 0
M  V30 4312 H 426.354 -0.742186 -1.40276 0
M  V30 4313 H 426.375 0.630053 -3.75247 0
M  V30 4314 H 425.887 -1.19372 -3.69286 0
M  V30 4315 H 423.988 1.26486 -3.50474 0
M  V30 4316 H 424.101 -0.113288 -4.78966 0
M  V30 4317 H 422.465 0.0365527 -2.54674 0
M  V30 4318 H 423.248 -1.55368 -3.0613 0
M  V30 4319 N 425.693 1.55336 -0.266172 0
M  V30 4320 C 426.623 2.25146 0.618981 0
M  V30 4321 C 427.604 1.23845 1.16604 0
M  V30 4322 O 428.789 1.52544 1.20183 0
M  V30 4323 C 425.919 2.96572 1.80728 0
M  V30 4324 C 424.873 4.04726 1.39215 0
M  V30 4325 C 424.199 4.63678 2.66283 0
M  V30 4326 C 425.499 5.19407 0.548942 0
M  V30 4327 H 427.193 2.99377 0.0368116 0
M  V30 4328 H 424.739 1.43991 0.0162651 0
M  V30 4329 H 426.692 3.44116 2.43232 0
M  V30 4330 H 425.416 2.19861 2.41514 0
M  V30 4331 H 424.075 3.57979 0.790351 0
M  V30 4332 H 423.723 3.83646 3.25308 0
M  V30 4333 H 423.423 5.367 2.39222 0
M  V30 4334 H 424.947 5.13967 3.29651 0
M  V30 4335 H 426.361 5.63059 1.07876 0
M  V30 4336 H 424.758 5.98936 0.373593 0
M  V30 4337 H 425.828 4.8295 -0.434394 0
M  V30 4338 N 427.171 -0.0066808 1.57599 0
M  V30 4339 C 428.081 -1.01671 2.11424 0
M  V30 4340 C 429.097 -1.38143 1.05795 0
M  V30 4341 O 430.273 -1.47011 1.37658 0
M  V30 4342 C 427.338 -2.29192 2.60139 0
M  V30 4343 C 426.399 -1.99094 3.80342 0
M  V30 4344 C 425.632 -3.20535 4.26724 0
M  V30 4345 O 425.855 -4.3199 3.72479 0
M  V30 4346 O 424.789 -3.04924 5.18946 0
M  V30 4347 H 428.615 -0.589181 2.9793 0
M  V30 4348 H 426.2 -0.225091 1.47695 0
M  V30 4349 H 428.082 -3.0412 2.917 0
M  V30 4350 H 426.757 -2.71195 1.76733 0
M  V30 4351 H 425.664 -1.21663 3.53764 0
M  V30 4352 H 426.997 -1.61931 4.648 0
M  V30 4353 N 428.649 -1.55105 -0.279332 0
M  V30 4354 C 429.612 -1.86783 -1.32834 0
M  V30 4355 C 430.612 -0.74199 -1.42657 0
M  V30 4356 O 431.802 -1.0102 -1.41918 0
M  V30 4357 C 428.934 -2.06746 -2.71052 0
M  V30 4358 H 430.127 -2.8055 -1.05979 0
M  V30 4359 H 427.68 -1.47499 -0.517087 0
M  V30 4360 H 428.415 -1.15339 -3.03097 0
M  V30 4361 H 428.2 -2.88711 -2.65309 0
M  V30 4362 H 429.69 -2.32549 -3.46858 0
M  V30 4363 N 430.127 0.543554 -1.4793 0
M  V30 4364 C 431.09 1.63156 -1.60975 0
M  V30 4365 C 432.09 1.53346 -0.483899 0
M  V30 4366 O 433.28 1.5726 -0.749339 0
M  V30 4367 C 430.412 3.02743 -1.56716 0
M  V30 4368 H 431.605 1.52934 -2.57975 0
M  V30 4369 H 429.158 0.764557 -1.36324 0
M  V30 4370 H 429.893 3.18484 -0.611418 0
M  V30 4371 H 429.678 3.11272 -2.38438 0
M  V30 4372 H 431.168 3.81871 -1.6901 0
M  V30 4373 N 431.605 1.3629 0.791371 0
M  V30 4374 C 432.854 1.29742 1.54434 0
M  V30 4375 C 433.167 -0.121729 1.95221 0
M  V30 4376 O 434.373 -0.309579 2.69729 0
M  V30 4377 C 432.829 2.27623 2.78776 0
M  V30 4378 C 432.437 3.74963 2.45166 0
M  V30 4379 C 434.181 2.30047 3.56761 0
M  V30 4380 C 432.088 4.64626 3.65891 0
M  V30 4381 H 431.018 0.482113 0.579727 0
M  V30 4382 H 433.669 1.61642 0.868565 0
M  V30 4383 H 432.051 1.88714 3.48142 0
M  V30 4384 H 433.225 4.22596 1.83709 0
M  V30 4385 H 431.54 3.75295 1.80396 0
M  V30 4386 H 434.137 2.94247 4.46456 0
M  V30 4387 H 434.48 1.30846 3.95203 0
M  V30 4388 H 435.013 2.67563 2.94372 0
M  V30 4389 H 431.752 5.64883 3.32547 0
M  V30 4390 H 431.272 4.2171 4.26521 0
M  V30 4391 H 432.951 4.80801 4.32943 0
M  V30 4392 N 433.083 -1.0153 1.20538 0
M  V30 4393 C 434.033 -2.08482 0.922991 0
M  V30 4394 C 435.017 -1.60469 -0.117702 0
M  V30 4395 O 436.209 -1.76772 0.0898465 0
M  V30 4396 C 433.338 -3.39952 0.478312 0
M  V30 4397 C 432.424 -3.94662 1.5525 0
M  V30 4398 N 432.815 -4.22866 2.77521 0
M  V30 4399 C 431.113 -4.22825 1.41897 0
M  V30 4400 C 431.814 -4.67002 3.4682 0
M  V30 4401 N 430.79 -4.69356 2.74237 0
M  V30 4402 H 434.592 -2.28199 1.85209 0
M  V30 4403 H 432.106 -1.19512 1.09957 0
M  V30 4404 H 434.103 -4.16105 0.257408 0
M  V30 4405 H 432.763 -3.21648 -0.444148 0
M  V30 4406 H 433.774 -4.11732 3.1416 0
M  V30 4407 H 430.451 -4.13714 0.561015 0
M  V30 4408 H 431.841 -4.97632 4.51455 0
M  V30 4409 N 434.561 -1.01147 -1.20859 0
M  V30 4410 C 435.838 -0.613136 -1.85742 0
M  V30 4411 C 436.218 0.909004 -1.90526 0
M  V30 4412 O 435.566 1.79862 -1.40932 0
M  V30 4413 C 435.776 -1.255 -3.25654 0
M  V30 4414 C 437.124 -1.3672 -4.01986 0
M  V30 4415 O 438.148 -1.21082 -3.34989 0
M  V30 4416 O 437.007 -1.6194 -5.21956 0
M  V30 4417 H 434.101 -0.210878 -0.799662 0
M  V30 4418 H 436.647 -1.10853 -1.2849 0
M  V30 4419 H 435.419 -2.29532 -3.16908 0
M  V30 4420 H 435.042 -0.746369 -3.90532 0
M  V30 4421 N 436.039 1.36541 -0.78704 0
M  V30 4422 C 437.288 1.98552 -0.35494 0
M  V30 4423 C 437.601 1.63171 1.07864 0
M  V30 4424 O 438.807 2.18399 1.61289 0
M  V30 4425 C 437.263 3.55136 -0.583671 0
M  V30 4426 C 436.871 3.99444 -2.02851 0
M  V30 4427 C 438.615 4.2395 -0.215957 0
M  V30 4428 C 436.522 5.48796 -2.20403 0
M  V30 4429 H 435.452 0.742888 -0.128972 0
M  V30 4430 H 438.103 1.5587 -0.968337 0
M  V30 4431 H 436.485 3.95875 0.0994046 0
M  V30 4432 H 437.659 3.6991 -2.74779 0
M  V30 4433 H 435.974 3.43459 -2.35425 0
M  V30 4434 H 438.571 5.33709 -0.325405 0
M  V30 4435 H 438.914 4.07827 0.835646 0
M  V30 4436 H 439.447 3.88565 -0.852175 0
M  V30 4437 H 436.186 5.69864 -3.23937 0
M  V30 4438 H 435.706 5.79964 -1.52977 0
M  V30 4439 H 437.385 6.14986 -2.01002 0
M  V30 4440 N 437.518 0.538854 1.48102 0
M  V30 4441 C 438.764 0.00801365 2.02798 0
M  V30 4442 C 439.097 -1.3309 1.41424 0
M  V30 4443 O 438.372 -1.86169 0.563158 0
M  V30 4444 C 438.655 -0.104589 3.59948 0
M  V30 4445 C 438.508 1.26012 4.31788 0
M  V30 4446 C 439.827 -0.827055 4.32259 0
M  V30 4447 H 436.946 0.00438624 0.736987 0
M  V30 4448 H 439.588 0.6976 1.7673 0
M  V30 4449 H 437.738 -0.691893 3.82289 0
M  V30 4450 H 439.41 1.88922 4.2084 0
M  V30 4451 H 437.653 1.83968 3.92859 0
M  V30 4452 H 438.324 1.13424 5.40221 0
M  V30 4453 H 440.8 -0.328578 4.14801 0
M  V30 4454 H 439.676 -0.87476 5.41885 0
M  V30 4455 H 439.937 -1.87927 4.0017 0
M  V30 4456 N 438.996 -1.55193 0.274407 0
M  V30 4457 C 439.928 -2.1989 -0.646595 0
M  V30 4458 C 440.941 -1.1834 -1.11801 0
M  V30 4459 O 442.13 -1.4507 -1.04004 0
M  V30 4460 C 439.23 -2.8104 -1.89393 0
M  V30 4461 C 438.403 -4.08274 -1.56943 0
M  V30 4462 C 437.462 -4.53478 -2.66916 0
M  V30 4463 O 436.488 -5.19267 -2.33132 0
M  V30 4464 N 437.69 -4.2356 -3.9696 0
M  V30 4465 H 440.455 -2.99556 -0.0928686 0
M  V30 4466 H 438.016 -1.61618 0.0954783 0
M  V30 4467 H 440.008 -3.08226 -2.62257 0
M  V30 4468 H 438.578 -2.05372 -2.35672 0
M  V30 4469 H 437.798 -3.88384 -0.674655 0
M  V30 4470 H 439.086 -4.91173 -1.32764 0
M  V30 4471 H 438.484 -3.70799 -4.27229 0
M  V30 4472 H 437.041 -4.55518 -4.66205 0
M  V30 4473 N 440.474 -0.00167713 -1.576 0
M  V30 4474 C 441.404 0.988091 -2.11563 0
M  V30 4475 C 442.385 1.35736 -1.02517 0
M  V30 4476 O 443.57 1.44082 -1.30208 0
M  V30 4477 C 440.7 2.27941 -2.62031 0
M  V30 4478 C 439.654 2.0517 -3.75619 0
M  V30 4479 C 438.98 3.4033 -4.12407 0
M  V30 4480 C 440.28 1.41294 -5.02825 0
M  V30 4481 H 441.974 0.538771 -2.94513 0
M  V30 4482 H 439.52 0.257712 -1.41675 0
M  V30 4483 H 441.473 2.97539 -2.9841 0
M  V30 4484 H 440.197 2.74989 -1.76205 0
M  V30 4485 H 438.856 1.37998 -3.39635 0
M  V30 4486 H 438.504 3.85085 -3.23603 0
M  V30 4487 H 438.204 3.25909 -4.88935 0
M  V30 4488 H 439.728 4.1124 -4.51347 0
M  V30 4489 H 441.142 2.00851 -5.36965 0
M  V30 4490 H 439.539 1.37356 -5.84169 0
M  V30 4491 H 440.609 0.382362 -4.8339 0
M  V30 4492 N 441.952 1.55251 0.271103 0
M  V30 4493 C 443.198 1.76207 1.00394 0
M  V30 4494 C 443.531 0.562604 1.85872 0
M  V30 4495 O 442.806 -0.439785 1.89463 0
M  V30 4496 C 443.089 3.06828 1.8849 0
M  V30 4497 C 442.942 4.37134 1.05992 0
M  V30 4498 C 444.261 3.33503 2.87165 0
M  V30 4499 H 441.38 0.641086 0.363562 0
M  V30 4500 H 444.022 1.87982 0.276189 0
M  V30 4501 H 442.172 2.96921 2.5054 0
M  V30 4502 H 443.844 4.59001 0.459978 0
M  V30 4503 H 442.087 4.32275 0.363443 0
M  V30 4504 H 442.758 5.2486 1.70955 0
M  V30 4505 H 445.234 3.43215 2.3525 0
M  V30 4506 H 444.11 4.2616 3.45946 0
M  V30 4507 H 444.371 2.53235 3.62387 0
M  V30 4508 N 443.43 -0.535701 1.48216 0
M  V30 4509 C 444.393 -1.623 1.61838 0
M  V30 4510 C 445.393 -1.53087 0.492024 0
M  V30 4511 O 446.583 -1.5686 0.757668 0
M  V30 4512 C 443.715 -3.01907 1.58319 0
M  V30 4513 H 444.908 -1.51564 2.58783 0
M  V30 4514 H 442.461 -0.757317 1.36727 0
M  V30 4515 H 443.196 -3.18155 0.628299 0
M  V30 4516 H 442.981 -3.10003 2.40085 0
M  V30 4517 H 444.471 -3.80969 1.71033 0
M  V30 4518 N 444.908 -1.36708 -0.784132 0
M  V30 4519 C 446.324 -1.17237 -1.08294 0
M  V30 4520 C 446.524 -5.93947e-05 -2.015 0
M  V30 4521 O 445.58 0.663686 -2.43622 0
M  V30 4522 C 446.893 -2.48557 -1.69233 0
M  V30 4523 C 448.441 -2.54968 -1.8155 0
M  V30 4524 C 448.916 -3.86388 -2.45904 0
M  V30 4525 N 450.407 -3.87762 -2.53367 0
M  V30 4526 C 451.142 -4.86191 -3.03983 0
M  V30 4527 N 450.638 -5.95015 -3.54866 0
M  V30 4528 N 452.431 -4.73606 -3.02743 0
M  V30 4529 H 444.582 -2.11758 -0.16501 0
M  V30 4530 H 446.845 -0.93822 -0.135822 0
M  V30 4531 H 446.551 -3.34638 -1.08215 0
M  V30 4532 H 446.425 -2.64748 -2.68679 0
M  V30 4533 H 448.812 -1.69302 -2.41704 0
M  V30 4534 H 448.893 -2.42672 -0.80895 0
M  V30 4535 H 448.537 -4.72462 -1.86392 0
M  V30 4536 H 448.467 -3.95982 -3.4714 0
M  V30 4537 H 450.958 -3.09145 -2.17343 0
M  V30 4538 H 451.271 -6.66086 -3.91854 0
M  V30 4539 H 449.616 -5.98676 -3.53003 0
M  V30 4540 H 452.807 -3.87717 -2.62284 0
M  V30 4541 H 452.98 -5.50473 -3.41881 0
M  V30 4542 N 446.386 1.0089 -1.21074 0
M  V30 4543 C 447.349 2.0775 -0.968129 0
M  V30 4544 C 448.349 1.6069 0.0593445 0
M  V30 4545 O 449.539 1.73293 -0.177525 0
M  V30 4546 C 446.671 3.37794 -0.459108 0
M  V30 4547 H 447.864 2.30707 -1.9161 0
M  V30 4548 H 445.417 1.17807 -1.02719 0
M  V30 4549 H 446.152 3.20516 0.49397 0
M  V30 4550 H 445.937 3.7328 -1.20019 0
M  V30 4551 H 447.427 4.16454 -0.309099 0
M  V30 4552 N 447.864 1.01787 1.20321 0
M  V30 4553 C 448.794 0.609625 2.25401 0
M  V30 4554 C 449.775 -0.375951 1.65893 0
M  V30 4555 O 450.96 -0.261101 1.92437 0
M  V30 4556 C 448.09 -0.0515995 3.47262 0
M  V30 4557 C 447.044 0.855095 4.19371 0
M  V30 4558 C 446.37 0.0595757 5.34667 0
M  V30 4559 C 447.67 2.16374 4.75373 0
M  V30 4560 H 449.364 1.48803 2.59804 0
M  V30 4561 H 446.91 0.716934 1.24884 0
M  V30 4562 H 448.863 -0.348764 4.19954 0
M  V30 4563 H 447.587 -0.964726 3.12027 0
M  V30 4564 H 446.246 1.13628 3.48546 0
M  V30 4565 H 445.894 -0.85524 4.95676 0
M  V30 4566 H 445.594 0.663406 5.83843 0
M  V30 4567 H 447.118 -0.231105 6.10162 0
M  V30 4568 H 448.532 1.92885 5.39878 0
M  V30 4569 H 446.929 2.71853 5.34991 0
M  V30 4570 H 447.999 2.82589 3.94045 0
M  V30 4571 N 449.342 -1.36122 0.79427 0
M  V30 4572 C 450.59 -1.98718 0.368177 0
M  V30 4573 C 450.911 -1.63345 -1.06506 0
M  V30 4574 O 450.181 -0.909825 -1.73491 0
M  V30 4575 H 448.761 -0.735038 0.133146 0
M  V30 4576 H 451.423 -1.66239 1.01739 0
M  V30 4577 H 450.519 -3.08633 0.463923 0
M  V30 4578 N 450.82 -0.546701 -1.47814 0
M  V30 4579 C 452.045 -0.021268 -2.07389 0
M  V30 4580 C 452.47 1.25822 -1.39822 0
M  V30 4581 O 451.828 1.75111 -0.46968 0
M  V30 4582 C 451.876 0.168502 -3.60206 0
M  V30 4583 O 450.98 1.23347 -3.93522 0
M  V30 4584 H 450.321 -0.0466108 -0.662362 0
M  V30 4585 H 452.851 -0.759387 -1.89985 0
M  V30 4586 H 452.861 0.385982 -4.0617 0
M  V30 4587 H 451.536 -0.766075 -4.08784 0
M  V30 4588 H 450.113 0.997319 -3.59316 0
M  V30 4589 N 452.299 1.55045 -0.282633 0
M  V30 4590 C 453.262 2.21515 0.588539 0
M  V30 4591 C 454.262 1.19535 1.07554 0
M  V30 4592 O 455.452 1.44391 0.974514 0
M  V30 4593 C 452.584 2.88704 1.8128 0
M  V30 4594 H 453.777 2.99899 0.00806397 0
M  V30 4595 H 451.33 1.56265 -0.0333067 0
M  V30 4596 H 452.065 2.14352 2.43359 0
M  V30 4597 H 451.85 3.63443 1.47144 0
M  V30 4598 H 453.34 3.39465 2.43214 0
M  V30 4599 N 453.777 0.010035 1.57597 0
M  V30 4600 C 454.74 -0.963029 2.07986 0
M  V30 4601 C 455.74 -1.26619 0.991173 0
M  V30 4602 O 456.93 -1.2097 1.25347 0
M  V30 4603 C 454.062 -2.2851 2.52974 0
M  V30 4604 H 455.255 -0.526971 2.95234 0
M  V30 4605 H 452.808 -0.237639 1.54483 0
M  V30 4606 H 453.543 -2.76784 1.69 0
M  V30 4607 H 453.328 -2.07824 3.32493 0
M  V30 4608 H 454.818 -2.98294 2.9225 0
M  V30 4609 N 455.255 -1.55392 -0.262866 0
M  V30 4610 C 456.187 -1.85392 -1.34768 0
M  V30 4611 C 457.2 -0.739069 -1.45057 0
M  V30 4612 O 458.389 -1.01703 -1.46693 0
M  V30 4613 C 455.489 -2.01088 -2.72795 0
M  V30 4614 C 454.662 -3.31828 -2.84972 0
M  V30 4615 C 453.721 -3.37464 -4.03738 0
M  V30 4616 O 452.747 -4.10778 -3.94018 0
M  V30 4617 N 453.949 -2.65599 -5.16176 0
M  V30 4618 H 456.714 -2.79029 -1.09375 0
M  V30 4619 H 454.275 -1.55434 -0.452981 0
M  V30 4620 H 456.267 -2.02217 -3.50557 0
M  V30 4621 H 454.837 -1.1427 -2.90966 0
M  V30 4622 H 454.057 -3.43152 -1.94012 0
M  V30 4623 H 455.345 -4.18032 -2.90045 0
M  V30 4624 H 454.743 -2.05736 -5.26962 0
M  V30 4625 H 453.3 -2.72439 -5.92132 0
M  V30 4626 N 456.733 0.527833 -1.48498 0
M  V30 4627 C 457.979 1.28545 -1.56857 0
M  V30 4628 C 458.312 1.92678 -0.242651 0
M  V30 4629 O 457.587 1.79394 0.751545 0
M  V30 4630 C 457.87 2.37314 -2.70839 0
M  V30 4631 C 457.723 1.77858 -4.13142 0
M  V30 4632 C 459.042 3.39068 -2.80573 0
M  V30 4633 H 456.161 0.466006 -0.570971 0
M  V30 4634 H 458.803 0.587784 -1.8068 0
M  V30 4635 H 456.953 2.96821 -2.50658 0
M  V30 4636 H 458.625 1.22385 -4.44769 0
M  V30 4637 H 456.868 1.08383 -4.20042 0
M  V30 4638 H 457.539 2.56624 -4.88721 0
M  V30 4639 H 460.015 2.89518 -2.98862 0
M  V30 4640 H 458.891 4.12566 -3.6205 0
M  V30 4641 H 459.152 3.9975 -1.88818 0
M  V30 4642 N 458.211 1.37122 0.776871 0
M  V30 4643 C 459.143 1.28342 1.89897 0
M  V30 4644 C 460.156 0.200277 1.61563 0
M  V30 4645 O 461.345 0.456012 1.72577 0
M  V30 4646 C 458.445 0.960427 3.25006 0
M  V30 4647 C 457.618 2.148 3.81025 0
M  V30 4648 C 456.677 1.79608 4.94598 0
M  V30 4649 O 455.703 2.51845 5.10454 0
M  V30 4650 N 456.905 0.737171 5.758 0
M  V30 4651 H 459.67 2.25027 1.97947 0
M  V30 4652 H 457.231 1.3068 0.955739 0
M  V30 4653 H 459.223 0.705942 3.98495 0
M  V30 4654 H 457.793 0.0823066 3.12492 0
M  V30 4655 H 457.013 2.56454 2.99374 0
M  V30 4656 H 458.301 2.9411 4.15183 0
M  V30 4657 H 457.699 0.137637 5.65533 0
M  V30 4658 H 456.256 0.542534 6.49538 0
M  V30 4659 N 459.689 -1.00246 1.21608 0
M  V30 4660 C 461.1 -1.55511 1.03312 0
M  V30 4661 C 461.451 -1.91946 -0.406332 0
M  V30 4662 O 460.576 -1.73753 -1.28992 0
M  V30 4663 C 461.171 -2.82576 1.86913 0
M  V30 4664 C 459.73 -3.34318 1.72941 0
M  V30 4665 C 458.877 -2.07487 1.83968 0
M  V30 4666 H 461.828 -0.824638 1.35593 0
M  V30 4667 H 461.849 -3.54559 1.38087 0
M  V30 4668 H 461.361 -2.56026 2.91672 0
M  V30 4669 H 459.462 -3.65797 0.70877 0
M  V30 4670 H 459.575 -4.05566 2.55055 0
M  V30 4671 H 457.939 -2.20603 1.27304 0
M  V30 4672 H 458.722 -1.83346 2.9024 0
M  V30 4673 N 461.167 -1.02423 -1.1978 0
M  V30 4674 C 462.114 -0.601023 -2.22837 0
M  V30 4675 C 463.084 0.382801 -1.61629 0
M  V30 4676 O 464.269 0.280514 -1.88727 0
M  V30 4677 C 461.409 0.0467755 -3.45068 0
M  V30 4678 C 460.522 -0.98253 -4.20678 0
M  V30 4679 C 459.657 -0.304982 -5.30324 0
M  V30 4680 C 458.696 -1.32052 -5.97686 0
M  V30 4681 N 457.833 -0.669105 -6.98904 0
M  V30 4682 H 462.673 -1.48444 -2.58396 0
M  V30 4683 H 460.21 -0.742936 -1.2696 0
M  V30 4684 H 462.168 0.439556 -4.14878 0
M  V30 4685 H 460.798 0.893796 -3.10179 0
M  V30 4686 H 459.85 -1.49341 -3.49859 0
M  V30 4687 H 461.162 -1.75455 -4.66923 0
M  V30 4688 H 460.316 0.142893 -6.06532 0
M  V30 4689 H 459.055 0.499283 -4.85138 0
M  V30 4690 H 458.06 -1.7787 -5.20233 0
M  V30 4691 H 459.285 -2.1262 -6.44957 0
M  V30 4692 H 457.231 0.115152 -6.55899 0
M  V30 4693 H 457.148 -1.37908 -7.43315 0
M  V30 4694 H 458.416 -0.245076 -7.79115 0
M  V30 4695 N 462.645 1.35699 -0.801477 0
M  V30 4696 C 464.061 1.52065 -0.484596 0
M  V30 4697 C 464.261 1.75215 0.995084 0
M  V30 4698 O 463.317 1.79061 1.78026 0
M  V30 4699 C 464.63 2.69908 -1.32552 0
M  V30 4700 C 466.178 2.83784 -1.32044 0
M  V30 4701 C 466.653 4.04646 -2.14536 0
M  V30 4702 N 468.144 4.11814 -2.12046 0
M  V30 4703 C 468.879 5.04437 -2.72636 0
M  V30 4704 N 468.375 6.02426 -3.42133 0
M  V30 4705 N 470.168 4.97144 -2.62305 0
M  V30 4706 H 462.319 1.18928 -1.75983 0
M  V30 4707 H 464.582 0.581455 -0.748741 0
M  V30 4708 H 464.288 2.59363 -2.37537 0
M  V30 4709 H 464.162 3.64376 -0.975181 0
M  V30 4710 H 466.549 2.93783 -0.27846 0
M  V30 4711 H 466.63 1.90188 -1.71062 0
M  V30 4712 H 466.274 3.95407 -3.18772 0
M  V30 4713 H 466.204 4.97413 -1.72882 0
M  V30 4714 H 468.695 3.41664 -1.61476 0
M  V30 4715 H 469.008 6.69688 -3.85666 0
M  V30 4716 H 467.353 6.02615 -3.46237 0
M  V30 4717 H 470.544 4.19546 -2.07603 0
M  V30 4718 H 470.717 5.69138 -3.09815 0
M  V30 4719 N 464.123 0.554532 1.47522 0
M  V30 4720 C 465.086 -0.184174 2.28459 0
M  V30 4721 C 466.086 -0.845195 1.36796 0
M  V30 4722 O 467.276 -0.701467 1.59452 0
M  V30 4723 C 464.408 -1.26903 3.16399 0
M  V30 4724 H 465.601 0.526751 2.95238 0
M  V30 4725 H 463.154 0.311375 1.53167 0
M  V30 4726 H 463.889 -2.01244 2.54306 0
M  V30 4727 H 463.674 -0.799883 3.83854 0
M  V30 4728 H 465.164 -1.78794 3.77389 0
M  V30 4729 N 465.601 -1.54893 0.290851 0
M  V30 4730 C 466.531 -2.26103 -0.583084 0
M  V30 4731 C 467.512 -1.25684 -1.14619 0
M  V30 4732 O 468.697 -1.54436 -1.17741 0
M  V30 4733 C 465.827 -2.99409 -1.75987 0
M  V30 4734 C 464.781 -4.0689 -1.32758 0
M  V30 4735 C 464.107 -4.67856 -2.58872 0
M  V30 4736 C 465.407 -5.20215 -0.46624 0
M  V30 4737 H 467.101 -2.99398 0.0108214 0
M  V30 4738 H 464.647 -1.43998 0.00664468 0
M  V30 4739 H 466.6 -3.47943 -2.37727 0
M  V30 4740 H 465.324 -2.23675 -2.37985 0
M  V30 4741 H 463.983 -3.59191 -0.733299 0
M  V30 4742 H 463.631 -3.88772 -3.19163 0
M  V30 4743 H 463.331 -5.40438 -2.30653 0
M  V30 4744 H 464.855 -5.19147 -3.21433 0
M  V30 4745 H 466.269 -5.64704 -0.989047 0
M  V30 4746 H 464.666 -5.99455 -0.27826 0
M  V30 4747 H 465.736 -4.82198 0.511173 0
M  V30 4748 N 467.08 -0.0183926 -1.57589 0
M  V30 4749 C 468.01 0.965596 -2.12599 0
M  V30 4750 C 468.991 1.34641 -1.0395 0
M  V30 4751 O 470.176 1.42693 -1.31729 0
M  V30 4752 C 467.306 2.25149 -2.64434 0
M  V30 4753 C 466.26 2.01175 -3.77773 0
M  V30 4754 C 465.586 3.35937 -4.15994 0
M  V30 4755 C 466.886 1.35953 -5.04296 0
M  V30 4756 H 468.58 0.507504 -2.95067 0
M  V30 4757 H 466.126 0.242671 -1.41941 0
M  V30 4758 H 468.079 2.94357 -3.01549 0
M  V30 4759 H 466.803 2.73105 -1.79112 0
M  V30 4760 H 465.462 1.34388 -3.4108 0
M  V30 4761 H 465.11 3.81631 -3.27669 0
M  V30 4762 H 464.81 3.20705 -4.92364 0
M  V30 4763 H 466.334 4.0643 -4.55683 0
M  V30 4764 H 467.748 1.95144 -5.39065 0
M  V30 4765 H 466.145 1.31152 -5.85593 0
M  V30 4766 H 467.215 0.331071 -4.83768 0
M  V30 4767 N 468.558 1.5553 0.254621 0
M  V30 4768 C 469.969 1.67518 0.824286 0
M  V30 4769 C 470.32 0.614429 1.86331 0
M  V30 4770 O 469.445 -0.240736 2.15057 0
M  V30 4771 C 470.04 3.03692 1.50189 0
M  V30 4772 C 468.599 3.17646 2.01935 0
M  V30 4773 C 467.746 2.63373 0.867746 0
M  V30 4774 H 470.697 1.58671 0.0305843 0
M  V30 4775 H 470.718 2.97706 2.36962 0
M  V30 4776 H 470.23 3.80874 0.745431 0
M  V30 4777 H 468.331 2.45273 2.80485 0
M  V30 4778 H 468.444 4.24455 2.22204 0
M  V30 4779 H 466.808 2.20999 1.26616 0
M  V30 4780 H 467.591 3.43074 0.124498 0
M  V30 4781 N 470.036 -0.519951 1.48776 0
M  V30 4782 C 470.999 -1.60574 1.6355 0
M  V30 4783 C 471.999 -1.52557 0.508234 0
M  V30 4784 O 473.189 -1.56047 0.774262 0
M  V30 4785 C 470.321 -3.00211 1.61512 0
M  V30 4786 H 471.514 -1.4881 2.60376 0
M  V30 4787 H 469.067 -0.742772 1.37523 0
M  V30 4788 H 469.802 -3.17471 0.662009 0
M  V30 4789 H 469.587 -3.07439 2.43359 0
M  V30 4790 H 471.077 -3.79134 1.75064 0
M  V30 4791 N 471.514 -1.37532 -0.769588 0
M  V30 4792 C 472.925 -1.29382 -1.346 0
M  V30 4793 C 473.276 0.0576039 -1.96115 0
M  V30 4794 O 472.401 0.95947 -1.93967 0
M  V30 4795 C 472.996 -2.34298 -2.44724 0
M  V30 4796 C 471.555 -2.29776 -2.98128 0
M  V30 4797 C 470.702 -2.18013 -1.71364 0
M  V30 4798 H 473.653 -1.48123 -0.56968 0
M  V30 4799 H 473.674 -1.99089 -3.24259 0
M  V30 4800 H 473.186 -3.32645 -1.99922 0
M  V30 4801 H 471.287 -1.34959 -3.47299 0
M  V30 4802 H 471.4 -3.23276 -3.53595 0
M  V30 4803 H 469.764 -1.64595 -1.94372 0
M  V30 4804 H 470.547 -3.18278 -1.28662 0
M  V30 4805 N 472.992 0.995999 -1.22138 0
M  V30 4806 C 474.238 1.73767 -1.04561 0
M  V30 4807 C 474.571 1.89633 0.418698 0
M  V30 4808 O 473.846 1.43723 1.3105 0
M  V30 4809 C 474.129 3.14505 -1.75382 0
M  V30 4810 C 473.982 3.06306 -3.29388 0
M  V30 4811 C 475.301 4.13615 -1.50369 0
M  V30 4812 H 472.42 0.630728 -0.38125 0
M  V30 4813 H 475.062 1.16057 -1.50435 0
M  V30 4814 H 473.212 3.63775 -1.36383 0
M  V30 4815 H 474.884 2.64681 -3.77812 0
M  V30 4816 H 473.127 2.43186 -3.59226 0
M  V30 4817 H 473.798 4.05884 -3.74116 0
M  V30 4818 H 476.274 3.73089 -1.84239 0
M  V30 4819 H 475.15 5.10212 -2.02421 0
M  V30 4820 H 475.411 4.39949 -0.435611 0
M  V30 4821 N 474.47 1.03057 1.19235 0
M  V30 4822 C 475.418 0.606391 2.24557 0
M  V30 4823 C 476.412 -0.361826 1.65491 0
M  V30 4824 O 477.618 -0.23022 1.78522 0
M  V30 4825 H 473.993 0.177838 0.730669 0
M  V30 4826 H 475.964 1.50529 2.5765 0
M  V30 4827 C 474.713 -0.0252127 3.47691 0
M  V30 4828 H 474.036 0.710838 3.9343 0
M  V30 4829 H 475.476 -0.284931 4.23042 0
M  V30 4830 C 473.935 -1.27229 3.11953 0
M  V30 4831 O 474.465 -2.36416 3.24762 0
M  V30 4832 N 472.671 -1.16169 2.6637 0
M  V30 4833 H 472.218 -0.273189 2.56147 0
M  V30 4834 H 472.176 -1.99703 2.42829 0
M  V30 4835 N 475.948 -1.35272 0.808662 0
M  V30 4836 C 477.188 -2.00534 0.395668 0
M  V30 4837 C 477.552 -1.62755 -1.01857 0
M  V30 4838 O 478.753 -2.20752 -1.53368 0
M  V30 4839 C 477.024 -3.52732 0.575771 0
M  V30 4840 S 478.583 -4.38067 0.253507 0
M  V30 4841 H 475.401 -0.694962 0.150165 0
M  V30 4842 H 478.003 -1.64823 1.05137 0
M  V30 4843 H 476.707 -3.77714 1.60499 0
M  V30 4844 H 476.238 -3.93285 -0.0951739 0
M  V30 4845 H 478.253 -4.87252 -0.938068 0
M  V30 4846 N 477.426 -0.562348 -1.47226 0
M  V30 4847 C 478.674 -0.0401371 -2.0206 0
M  V30 4848 C 478.995 1.3165 -1.43852 0
M  V30 4849 O 478.265 1.85976 -0.615599 0
M  V30 4850 H 476.845 -0.0118479 -0.746906 0
M  V30 4851 H 479.507 -0.73352 -1.8057 0
M  V30 4852 H 478.603 0.0441254 -3.12069 0
M  V30 4853 N 478.904 1.54736 -0.299062 0
M  V30 4854 C 480.181 1.92187 0.363802 0
M  V30 4855 C 480.561 1.22607 1.71845 0
M  V30 4856 O 479.909 0.361141 2.25628 0
M  V30 4857 C 480.119 3.45678 0.480377 0
M  V30 4858 C 481.467 4.17885 0.752147 0
M  V30 4859 O 482.491 3.51702 0.564264 0
M  V30 4860 O 481.35 5.35048 1.11294 0
M  V30 4861 H 478.444 0.801681 0.203066 0
M  V30 4862 H 480.99 1.66115 -0.346978 0
M  V30 4863 H 479.762 3.88443 -0.471999 0
M  V30 4864 H 479.385 3.77779 1.2397 0
M  V30 4865 N 480.382 0.0267497 1.57577 0
M  V30 4866 C 481.312 -0.954308 2.13108 0
M  V30 4867 C 482.293 -1.34088 1.04663 0
M  V30 4868 O 483.478 -1.41992 1.32484 0
M  V30 4869 C 480.608 -2.23744 2.65624 0
M  V30 4870 C 479.562 -1.99168 3.78835 0
M  V30 4871 C 478.888 -3.33726 4.17769 0
M  V30 4872 C 480.188 -1.33277 5.0501 0
M  V30 4873 H 481.882 -0.491848 2.95332 0
M  V30 4874 H 479.428 -0.23514 1.42067 0
M  V30 4875 H 481.381 -2.92754 3.03106 0
M  V30 4876 H 480.105 -2.72151 1.80558 0
M  V30 4877 H 478.764 -1.32577 3.41788 0
M  V30 4878 H 478.412 -3.79888 3.29688 0
M  V30 4879 H 478.112 -3.18089 4.94058 0
M  V30 4880 H 479.636 -4.04008 4.57832 0
M  V30 4881 H 481.05 -1.92283 5.40093 0
M  V30 4882 H 479.447 -1.28045 5.8628 0
M  V30 4883 H 480.517 -0.305411 4.83937 0
M  V30 4884 N 481.861 -1.55662 -0.24637 0
M  V30 4885 C 482.793 -1.86811 -1.32794 0
M  V30 4886 C 483.806 -0.754413 -1.44265 0
M  V30 4887 O 484.995 -1.03253 -1.45606 0
M  V30 4888 C 482.095 -2.0397 -2.70646 0
M  V30 4889 C 481.268 -3.34832 -2.81436 0
M  V30 4890 C 480.327 -3.41727 -4.00136 0
M  V30 4891 O 479.353 -4.14934 -3.89639 0
M  V30 4892 N 480.555 -2.71058 -5.1333 0
M  V30 4893 H 483.32 -2.80174 -1.06409 0
M  V30 4894 H 480.881 -1.55906 -0.43647 0
M  V30 4895 H 482.873 -2.05924 -3.48393 0
M  V30 4896 H 481.443 -1.1735 -2.89738 0
M  V30 4897 H 480.663 -3.4519 -1.90361 0
M  V30 4898 H 481.951 -4.21085 -2.85595 0
M  V30 4899 H 481.349 -2.11314 -5.2475 0
M  V30 4900 H 479.906 -2.78704 -5.89209 0
M  V30 4901 N 483.339 0.512053 -1.4905 0
M  V30 4902 C 484.75 1.09376 -1.51307 0
M  V30 4903 C 485.101 1.94 -0.292971 0
M  V30 4904 O 484.226 2.07965 0.598277 0
M  V30 4905 C 484.821 1.99031 -2.74176 0
M  V30 4906 C 483.38 2.52385 -2.79247 0
M  V30 4907 C 482.527 1.29749 -2.45073 0
M  V30 4908 H 485.478 0.296467 -1.55906 0
M  V30 4909 H 485.499 2.83569 -2.53711 0
M  V30 4910 H 485.011 1.37412 -3.62959 0
M  V30 4911 H 483.112 3.17673 -1.94716 0
M  V30 4912 H 483.225 2.90293 -3.81139 0
M  V30 4913 H 481.589 1.61912 -1.96612 0
M  V30 4914 H 482.372 0.698555 -3.36118 0
M  V30 4915 N 484.817 1.37938 0.762283 0
M  V30 4916 C 485.78 1.34279 1.85747 0
M  V30 4917 C 486.78 0.244969 1.58923 0
M  V30 4918 O 487.97 0.501365 1.66829 0
M  V30 4919 C 485.102 1.08833 3.23061 0
M  V30 4920 H 486.295 2.31705 1.90401 0
M  V30 4921 H 483.848 1.23105 0.963057 0
M  V30 4922 H 484.583 0.119767 3.24079 0
M  V30 4923 H 484.368 1.88306 3.43923 0
M  V30 4924 H 485.858 1.08946 4.03138 0
M  V30 4925 N 486.295 -0.989507 1.22664 0
M  V30 4926 C 487.543 -1.72612 1.05117 0
M  V30 4927 C 487.864 -1.90552 -0.414131 0
M  V30 4928 O 487.134 -1.4676 -1.29762 0
M  V30 4929 H 485.714 -0.639555 0.385977 0
M  V30 4930 H 488.376 -1.19158 1.54232 0
M  V30 4931 H 487.472 -2.71926 1.53175 0
M  V30 4932 N 487.773 -1.03688 -1.18687 0
M  V30 4933 C 489.184 -0.766488 -1.70241 0
M  V30 4934 C 489.535 0.713052 -1.82784 0
M  V30 4935 O 488.66 1.55529 -1.50465 0
M  V30 4936 C 489.255 -1.38475 -3.09209 0
M  V30 4937 C 487.814 -1.16276 -3.5799 0
M  V30 4938 C 486.961 -1.4778 -2.34641 0
M  V30 4939 H 489.912 -1.20378 -1.03415 0
M  V30 4940 H 489.933 -0.785939 -3.72295 0
M  V30 4941 H 489.445 -2.46157 -3.00048 0
M  V30 4942 H 487.546 -0.104508 -3.72453 0
M  V30 4943 H 487.659 -1.8571 -4.41643 0
M  V30 4944 H 486.023 -0.897366 -2.38368 0
M  V30 4945 H 486.806 -2.56562 -2.28102 0
M  V30 4946 N 489.251 1.34841 -0.815825 0
M  V30 4947 C 490.161 2.33425 -0.234462 0
M  V30 4948 C 491.177 1.62295 0.627413 0
M  V30 4949 O 492.353 1.94109 0.536987 0
M  V30 4950 C 489.418 3.41471 0.599849 0
M  V30 4951 C 488.479 4.28362 -0.283596 0
M  V30 4952 C 487.712 5.31248 0.51099 0
M  V30 4953 O 487.935 5.43056 1.7449 0
M  V30 4954 O 486.869 6.01812 -0.10297 0
M  V30 4955 H 490.695 2.84962 -1.05024 0
M  V30 4956 H 488.28 1.37774 -0.577809 0
M  V30 4957 H 490.162 4.07464 1.07475 0
M  V30 4958 H 488.837 2.9219 1.39308 0
M  V30 4959 H 487.744 3.65318 -0.805836 0
M  V30 4960 H 489.077 4.81066 -1.041 0
M  V30 4961 N 490.729 0.570148 1.46925 0
M  V30 4962 C 491.954 0.0542592 2.07329 0
M  V30 4963 C 492.379 -1.23582 1.41806 0
M  V30 4964 O 491.737 -1.74341 0.497479 0
M  V30 4965 C 491.785 -0.111175 3.60429 0
M  V30 4966 O 490.889 -1.17071 3.95434 0
M  V30 4967 H 490.23 0.0571425 0.661537 0
M  V30 4968 H 492.76 0.789516 1.88753 0
M  V30 4969 H 492.77 -0.321315 4.06733 0
M  V30 4970 H 491.445 0.831012 4.07513 0
M  V30 4971 H 490.022 -0.940029 3.60857 0
M  V30 4972 N 492.207 -1.54576 0.307264 0
M  V30 4973 C 493.618 -1.8579 -0.184121 0
M  V30 4974 C 493.969 -1.22914 -1.52927 0
M  V30 4975 O 493.094 -0.529126 -2.09831 0
M  V30 4976 C 493.689 -3.37081 -0.340862 0
M  V30 4977 C 492.248 -3.68304 -0.776465 0
M  V30 4978 C 491.395 -2.77076 0.111503 0
M  V30 4979 H 494.346 -1.49656 0.528078 0
M  V30 4980 H 494.367 -3.61922 -1.17443 0
M  V30 4981 H 493.879 -3.82815 0.638309 0
M  V30 4982 H 491.98 -3.28092 -1.76596 0
M  V30 4983 H 492.093 -4.75434 -0.591512 0
M  V30 4984 H 490.457 -2.51374 -0.410256 0
M  V30 4985 H 491.24 -3.25632 1.08714 0
M  V30 4986 N 493.685 -0.035106 -1.57561 0
M  V30 4987 C 494.933 0.64096 -1.91667 0
M  V30 4988 C 495.254 1.72323 -0.912681 0
M  V30 4989 O 494.524 1.95849 0.0449089 0
M  V30 4990 H 493.104 0.239743 -0.707483 0
M  V30 4991 H 495.766 -0.084321 -1.94718 0
M  V30 4992 H 494.862 1.08987 -2.92452 0
M  V30 4993 N 495.163 1.55791 0.238111 0
M  V30 4994 C 496.579 1.48411 0.587045 0
M  V30 4995 C 496.779 0.72702 1.87927 0
M  V30 4996 O 495.835 0.259942 2.51158 0
M  V30 4997 C 497.148 2.92873 0.681623 0
M  V30 4998 C 498.696 3.03295 0.773363 0
M  V30 4999 C 499.171 4.49082 0.899428 0
M  V30 5000 N 500.662 4.53056 0.964075 0
M  V30 5001 C 501.397 5.63117 1.08104 0
M  V30 5002 N 500.893 6.82969 1.16299 0
M  V30 5003 N 502.686 5.50933 1.11488 0
M  V30 5004 H 494.837 2.0345 -0.610076 0
M  V30 5005 H 497.1 0.924034 -0.211813 0
M  V30 5006 H 496.806 3.51142 -0.19802 0
M  V30 5007 H 496.68 3.43851 1.55069 0
M  V30 5008 H 499.067 2.45101 1.64346 0
M  V30 5009 H 499.148 2.55513 -0.121034 0
M  V30 5010 H 498.792 5.07889 0.0338586 0
M  V30 5011 H 498.722 4.94553 1.809 0
M  V30 5012 H 501.213 3.66737 0.91173 0
M  V30 5013 H 501.526 7.62598 1.25155 0
M  V30 5014 H 499.871 6.85712 1.13241 0
M  V30 5015 H 503.062 4.56231 1.0474 0
M  V30 5016 H 503.235 6.36743 1.20259 0
M  V30 5017 N 496.642 -0.504142 1.49319 0
M  V30 5018 C 497.889 -1.25846 1.58647 0
M  V30 5019 C 498.217 -1.92592 0.27177 0
M  V30 5020 O 497.472 -1.81167 -0.74007 0
M  V30 5021 C 497.771 -2.35021 2.69258 0
M  V30 5022 C 497.437 -1.85755 4.1086 0
M  V30 5023 C 496.099 -1.72038 4.49395 0
M  V30 5024 C 498.451 -1.48844 4.99495 0
M  V30 5025 C 495.779 -1.19783 5.74342 0
M  V30 5026 C 498.131 -0.980422 6.24956 0
M  V30 5027 C 496.795 -0.829622 6.62324 0
M  V30 5028 H 496.065 -0.460505 0.580531 0
M  V30 5029 H 498.712 -0.559716 1.83138 0
M  V30 5030 H 497.017 -3.10672 2.38726 0
M  V30 5031 H 498.714 -2.93083 2.73685 0
M  V30 5032 H 495.304 -1.9739 3.80441 0
M  V30 5033 H 499.488 -1.5829 4.70381 0
M  V30 5034 H 494.744 -1.06817 6.01997 0
M  V30 5035 H 498.918 -0.685608 6.93017 0
M  V30 5036 H 496.545 -0.42253 7.59025 0
M  V30 5037 N 498.12 -1.38341 -0.754957 0
M  V30 5038 C 499.05 -1.38176 -1.88227 0
M  V30 5039 C 500.031 -0.247873 -1.68284 0
M  V30 5040 O 501.216 -0.45075 -1.88896 0
M  V30 5041 C 498.346 -1.20471 -3.25736 0
M  V30 5042 C 497.3 -2.3105 -3.60278 0
M  V30 5043 C 496.626 -1.98452 -4.96509 0
M  V30 5044 C 497.926 -3.73305 -3.65295 0
M  V30 5045 H 499.62 -2.32512 -1.88622 0
M  V30 5046 H 497.166 -1.1192 -0.906082 0
M  V30 5047 H 499.119 -1.18982 -4.04254 0
M  V30 5048 H 497.843 -0.225965 -3.25817 0
M  V30 5049 H 496.502 -2.31723 -2.84078 0
M  V30 5050 H 496.15 -0.990641 -4.93148 0
M  V30 5051 H 495.85 -2.7251 -5.20588 0
M  V30 5052 H 497.374 -1.98578 -5.77407 0
M  V30 5053 H 498.788 -3.7467 -4.3393 0
M  V30 5054 H 497.185 -4.46557 -4.00883 0
M  V30 5055 H 498.255 -4.05719 -2.65556 0
M  V30 5056 N 499.598 0.982988 -1.23187 0
M  V30 5057 C 500.561 2.05649 -1.01198 0
M  V30 5058 C 501.561 1.6078 0.0252464 0
M  V30 5059 O 502.751 1.72878 -0.214243 0
M  V30 5060 C 499.883 3.36744 -0.530656 0
M  V30 5061 H 501.076 2.2659 -1.96461 0
M  V30 5062 H 498.629 1.15602 -1.05195 0
M  V30 5063 H 499.364 3.21492 0.425873 0
M  V30 5064 H 499.149 3.7065 -1.2791 0
M  V30 5065 H 500.639 4.15705 -0.397366 0
M  V30 5066 N 501.076 1.04316 1.18135 0
M  V30 5067 C 502.492 0.762858 1.40188 0
M  V30 5068 C 502.692 -0.646547 1.90846 0
M  V30 5069 O 501.748 -1.41036 2.0944 0
M  V30 5070 C 503.061 1.81106 2.40044 0
M  V30 5071 C 504.609 1.83226 2.53766 0
M  V30 5072 C 505.084 2.87044 3.56889 0
M  V30 5073 N 506.575 2.85951 3.64398 0
M  V30 5074 C 507.31 3.62932 4.43923 0
M  V30 5075 N 506.806 4.49672 5.27036 0
M  V30 5076 N 508.599 3.51411 4.38711 0
M  V30 5077 H 500.75 1.95264 0.835805 0
M  V30 5078 H 503.013 0.845017 0.429709 0
M  V30 5079 H 502.719 2.82214 2.09876 0
M  V30 5080 H 502.593 1.64529 3.39426 0
M  V30 5081 H 504.98 0.827869 2.8325 0
M  V30 5082 H 505.061 2.03879 1.54489 0
M  V30 5083 H 504.705 3.87663 3.28145 0
M  V30 5084 H 504.635 2.63645 4.5585 0
M  V30 5085 H 507.126 2.23051 3.05052 0
M  V30 5086 H 507.439 5.05116 5.84874 0
M  V30 5087 H 505.784 4.53738 5.26447 0
M  V30 5088 H 508.975 2.83047 3.72829 0
M  V30 5089 H 509.148 4.11654 5.00445 0
M  V30 5090 N 502.554 -1.34406 0.822964 0
M  V30 5091 C 503.801 -1.98284 0.411057 0
M  V30 5092 C 504.129 -1.65245 -1.02588 0
M  V30 5093 O 503.384 -0.91619 -1.72929 0
M  V30 5094 C 503.683 -3.52981 0.560268 0
M  V30 5095 C 503.349 -4.05931 1.96293 0
M  V30 5096 C 502.011 -4.20103 2.34664 0
M  V30 5097 C 504.363 -4.34412 2.87985 0
M  V30 5098 C 501.691 -4.60082 3.64062 0
M  V30 5099 C 504.043 -4.75838 4.16847 0
M  V30 5100 C 502.707 -4.88215 4.55195 0
M  V30 5101 H 501.977 -0.725573 0.150416 0
M  V30 5102 H 504.624 -1.60349 1.04692 0
M  V30 5103 H 502.929 -3.91477 -0.158982 0
M  V30 5104 H 504.626 -4.00385 0.222087 0
M  V30 5105 H 501.216 -3.95363 1.65487 0
M  V30 5106 H 505.4 -4.23001 2.59584 0
M  V30 5107 H 500.656 -4.67856 3.93599 0
M  V30 5108 H 504.83 -4.96834 4.87984 0
M  V30 5109 H 502.457 -5.18952 5.55512 0
M  V30 5110 N 504.032 -0.577932 -1.46621 0
M  V30 5111 C 504.962 0.145917 -2.33044 0
M  V30 5112 C 505.943 0.888412 -1.45056 0
M  V30 5113 O 507.128 0.864812 -1.73881 0
M  V30 5114 C 504.258 1.16322 -3.27241 0
M  V30 5115 C 503.212 0.535868 -4.24632 0
M  V30 5116 C 502.538 1.65929 -5.08303 0
M  V30 5117 C 503.838 -0.523861 -5.19666 0
M  V30 5118 H 505.532 -0.575636 -2.93814 0
M  V30 5119 H 503.078 -0.278272 -1.41286 0
M  V30 5120 H 505.031 1.67793 -3.86553 0
M  V30 5121 H 503.755 1.91498 -2.64567 0
M  V30 5122 H 502.414 0.0422759 -3.66576 0
M  V30 5123 H 502.062 2.40061 -4.42018 0
M  V30 5124 H 501.762 1.2452 -5.74255 0
M  V30 5125 H 503.286 2.17686 -5.70478 0
M  V30 5126 H 504.7 -0.0944059 -5.73222 0
M  V30 5127 H 503.097 -0.858 -5.93935 0
M  V30 5128 H 504.167 -1.41197 -4.63887 0
M  V30 5129 N 505.51 1.54411 -0.315457 0
M  V30 5130 C 506.473 2.22713 0.54142 0
M  V30 5131 C 507.473 1.2179 1.04995 0
M  V30 5132 O 508.663 1.46426 0.943667 0
M  V30 5133 C 505.795 2.92485 1.75116 0
M  V30 5134 H 506.988 2.99849 -0.0555508 0
M  V30 5135 H 504.541 1.56159 -0.0664453 0
M  V30 5136 H 505.276 2.19466 2.38758 0
M  V30 5137 H 505.061 3.66483 1.39401 0
M  V30 5138 H 506.551 3.44548 2.35959 0
M  V30 5139 N 506.988 0.0434614 1.5754 0
M  V30 5140 C 507.936 -0.951465 2.1225 0
M  V30 5141 C 508.93 -1.3274 1.05245 0
M  V30 5142 O 510.136 -1.30795 1.23663 0
M  V30 5143 H 506.511 -0.324667 0.678303 0
M  V30 5144 H 508.482 -0.464855 2.94757 0
M  V30 5145 C 507.231 -2.21972 2.67626 0
M  V30 5146 H 506.554 -1.93923 3.4962 0
M  V30 5147 H 507.994 -2.89765 3.09536 0
M  V30 5148 C 506.453 -2.95919 1.61038 0
M  V30 5149 O 506.983 -3.8857 1.01862 0
M  V30 5150 N 505.189 -2.58511 1.32741 0
M  V30 5151 H 504.736 -1.83244 1.81051 0
M  V30 5152 H 504.694 -3.08296 0.616531 0
M  V30 5153 N 508.466 -1.55915 -0.229846 0
M  V30 5154 C 509.694 -1.82617 -0.972562 0
M  V30 5155 C 510.109 -0.621488 -1.78278 0
M  V30 5156 O 509.466 0.409956 -1.77836 0
M  V30 5157 C 509.517 -3.0774 -1.89679 0
M  V30 5158 O 509.238 -4.23559 -1.11934 0
M  V30 5159 C 510.739 -3.47368 -2.75409 0
M  V30 5160 H 507.959 -0.60727 -0.285419 0
M  V30 5161 H 510.503 -2.02996 -0.247579 0
M  V30 5162 H 508.658 -2.89361 -2.57583 0
M  V30 5163 H 509.072 -4.94586 -1.74599 0
M  V30 5164 H 510.546 -4.37977 -3.35977 0
M  V30 5165 H 511.023 -2.68737 -3.47386 0
M  V30 5166 H 511.629 -3.68158 -2.12931 0
M  V30 5167 N 509.944 0.496216 -1.49584 0
M  V30 5168 C 511.169 1.27865 -1.63295 0
M  V30 5169 C 511.594 1.85592 -0.306156 0
M  V30 5170 O 510.952 1.66092 0.726851 0
M  V30 5171 C 511 2.38128 -2.7079 0
M  V30 5172 O 510.104 3.42108 -2.30296 0
M  V30 5173 H 509.445 0.377279 -0.546403 0
M  V30 5174 H 511.975 0.593497 -1.95803 0
M  V30 5175 H 511.985 2.8382 -2.93104 0
M  V30 5176 H 510.66 1.95479 -3.67098 0
M  V30 5177 H 509.237 3.02301 -2.18331 0
M  V30 5178 N 511.423 1.38739 0.74761 0
M  V30 5179 C 512.67 1.35274 1.50689 0
M  V30 5180 C 512.998 -0.0553359 1.94421 0
M  V30 5181 O 512.253 -1.03365 1.66175 0
M  V30 5182 C 512.552 2.25992 2.7688 0
M  V30 5183 C 512.218 3.73854 2.5208 0
M  V30 5184 C 510.88 4.14145 2.45025 0
M  V30 5185 C 513.232 4.67427 2.30568 0
M  V30 5186 C 510.56 5.4609 2.14483 0
M  V30 5187 C 512.912 5.99635 2.01545 0
M  V30 5188 C 511.576 6.39004 1.92951 0
M  V30 5189 H 510.846 0.495003 0.55141 0
M  V30 5190 H 513.493 1.71145 0.859158 0
M  V30 5191 H 511.798 1.83196 3.46333 0
M  V30 5192 H 513.495 2.20611 3.34861 0
M  V30 5193 H 510.085 3.41913 2.58444 0
M  V30 5194 H 514.269 4.3714 2.34994 0
M  V30 5195 H 509.525 5.75528 2.06342 0
M  V30 5196 H 513.699 6.71678 1.83906 0
M  V30 5197 H 511.326 7.41165 1.6905 0
M  V30 5198 N 512.901 -0.976442 1.23707 0
M  V30 5199 C 513.833 -2.07212 0.979574 0
M  V30 5200 C 514.846 -1.6273 -0.0478528 0
M  V30 5201 O 516.035 -1.77506 0.18815 0
M  V30 5202 C 513.135 -3.35835 0.45479 0
M  V30 5203 C 512.308 -4.09268 1.54331 0
M  V30 5204 C 511.367 -5.16166 1.02271 0
M  V30 5205 O 510.393 -5.42827 1.71254 0
M  V30 5206 N 511.595 -5.80313 -0.147419 0
M  V30 5207 H 514.36 -2.29878 1.92292 0
M  V30 5208 H 511.921 -1.14343 1.14618 0
M  V30 5209 H 513.913 -4.04597 0.0914631 0
M  V30 5210 H 512.483 -3.10106 -0.394068 0
M  V30 5211 H 511.703 -3.34906 2.07923 0
M  V30 5212 H 512.991 -4.55095 2.27522 0
M  V30 5213 H 512.389 -5.61043 -0.724353 0
M  V30 5214 H 510.946 -6.50231 -0.451972 0
M  V30 5215 N 514.379 -1.04941 -1.1758 0
M  V30 5216 C 515.627 -0.756492 -1.87408 0
M  V30 5217 C 515.948 0.718478 -1.81281 0
M  V30 5218 O 515.218 1.519 -1.23706 0
M  V30 5219 H 513.798 -0.276841 -0.693807 0
M  V30 5220 H 516.46 -1.32803 -1.42652 0
M  V30 5221 H 515.556 -1.06918 -2.93215 0
M  V30 5222 N 515.857 1.33968 -0.830081 0
M  V30 5223 C 517.273 1.51003 -0.516742 0
M  V30 5224 C 517.473 1.77286 0.957694 0
M  V30 5225 O 516.529 1.82797 1.74188 0
M  V30 5226 C 517.842 2.67036 -1.38247 0
M  V30 5227 C 519.39 2.80919 -1.38034 0
M  V30 5228 C 519.865 4.00004 -2.23071 0
M  V30 5229 N 521.356 4.07224 -2.20733 0
M  V30 5230 C 522.091 4.98541 -2.83275 0
M  V30 5231 N 521.587 5.95033 -3.54835 0
M  V30 5232 N 523.38 4.91469 -2.72791 0
M  V30 5233 H 515.531 1.15168 -1.78466 0
M  V30 5234 H 517.794 0.565443 -0.760906 0
M  V30 5235 H 517.5 2.54266 -2.42985 0
M  V30 5236 H 517.374 3.62226 -1.05225 0
M  V30 5237 H 519.761 2.93127 -0.340713 0
M  V30 5238 H 519.842 1.86517 -1.75057 0
M  V30 5239 H 519.486 3.88557 -3.27087 0
M  V30 5240 H 519.416 4.93634 -1.83394 0
M  V30 5241 H 521.907 3.38162 -1.68687 0
M  V30 5242 H 522.22 6.61357 -3.99784 0
M  V30 5243 H 520.565 5.95135 -3.58942 0
M  V30 5244 H 523.756 4.15048 -2.16456 0
M  V30 5245 H 523.929 5.62439 -3.21818 0
M  V30 5246 N 517.335 0.585699 1.46312 0
M  V30 5247 C 518.563 0.0781299 2.06752 0
M  V30 5248 C 518.978 -1.22812 1.43396 0
M  V30 5249 O 518.335 -1.74318 0.540314 0
M  V30 5250 C 518.386 -0.0911927 3.61385 0
M  V30 5251 O 518.107 1.16336 4.22371 0
M  V30 5252 C 519.608 -0.632765 4.38761 0
M  V30 5253 H 516.828 0.0588188 0.668417 0
M  V30 5254 H 519.372 0.807218 1.87894 0
M  V30 5255 H 517.527 -0.770514 3.7966 0
M  V30 5256 H 517.941 0.979082 5.15281 0
M  V30 5257 H 519.415 -0.70041 5.47538 0
M  V30 5258 H 519.892 -1.65039 4.07012 0
M  V30 5259 H 520.498 0.0117856 4.25298 0
M  V30 5260 N 518.813 -1.54241 0.323641 0
M  V30 5261 C 520.061 -2.00174 -0.278359 0
M  V30 5262 C 520.382 -1.2134 -1.52648 0
M  V30 5263 O 519.652 -0.315244 -1.93347 0
M  V30 5264 H 518.232 -0.739463 -0.105845 0
M  V30 5265 H 520.894 -1.89864 0.440204 0
M  V30 5266 H 519.99 -3.07486 -0.5347 0
M  V30 5267 N 520.291 -0.0518155 -1.57515 0
M  V30 5268 C 521.702 0.483787 -1.80323 0
M  V30 5269 C 522.053 1.70879 -0.964099 0
M  V30 5270 O 521.178 2.15643 -0.180872 0
M  V30 5271 C 521.773 0.884459 -3.27052 0
M  V30 5272 C 520.332 1.36504 -3.50776 0
M  V30 5273 C 519.479 0.340539 -2.75201 0
M  V30 5274 H 522.43 -0.277691 -1.56252 0
M  V30 5275 H 522.451 1.74733 -3.38007 0
M  V30 5276 H 521.963 -0.00731093 -3.88099 0
M  V30 5277 H 520.064 2.27598 -2.95009 0
M  V30 5278 H 520.177 1.35675 -4.59488 0
M  V30 5279 H 518.541 0.81356 -2.41357 0
M  V30 5280 H 519.324 -0.543156 -3.38976 0
M  V30 5281 N 521.769 1.56035 0.221574 0
M  V30 5282 C 523.015 1.79312 0.947372 0
M  V30 5283 C 523.348 0.621453 1.83988 0
M  V30 5284 O 522.623 -0.379287 1.90766 0
M  V30 5285 C 522.906 3.1267 1.78633 0
M  V30 5286 C 522.759 4.40284 0.920312 0
M  V30 5287 C 524.078 3.4247 2.7641 0
M  V30 5288 H 521.197 0.652328 0.342982 0
M  V30 5289 H 523.839 1.88765 0.216244 0
M  V30 5290 H 521.989 3.04741 2.40967 0
M  V30 5291 H 523.661 4.60232 0.313718 0
M  V30 5292 H 521.904 4.33212 0.225734 0
M  V30 5293 H 522.575 5.30033 1.54171 0
M  V30 5294 H 525.051 3.50526 2.24211 0
M  V30 5295 H 523.927 4.3695 3.32213 0
M  V30 5296 H 524.188 2.64635 3.54148 0
M  V30 5297 N 523.247 -0.488276 1.49845 0
M  V30 5298 C 524.493 -1.24065 1.61182 0
M  V30 5299 C 524.848 -1.9004 0.300435 0
M  V30 5300 O 524.141 -1.78341 -0.700365 0
M  V30 5301 C 524.335 -2.32152 2.71735 0
M  V30 5302 C 524.164 -1.76778 4.13497 0
M  V30 5303 C 522.934 -1.57513 4.80123 0
M  V30 5304 C 525.132 -1.27242 4.98311 0
M  V30 5305 N 523.114 -0.972015 6.06156 0
M  V30 5306 C 524.485 -0.791457 6.14928 0
M  V30 5307 C 526.54 -1.15934 4.84214 0
M  V30 5308 C 525.243 -0.208593 7.18997 0
M  V30 5309 C 527.269 -0.590436 5.88445 0
M  V30 5310 C 526.631 -0.119767 7.04298 0
M  V30 5311 H 522.73 -0.443487 0.644083 0
M  V30 5312 H 525.314 -0.545551 1.86901 0
M  V30 5313 H 523.485 -2.99108 2.47768 0
M  V30 5314 H 525.217 -2.99187 2.72523 0
M  V30 5315 H 521.972 -1.82247 4.37131 0
M  V30 5316 H 522.396 -0.689367 6.73481 0
M  V30 5317 H 527.038 -1.5092 3.94947 0
M  V30 5318 H 524.756 0.153501 8.07954 0
M  V30 5319 H 528.342 -0.505548 5.79599 0
M  V30 5320 H 527.222 0.313568 7.83573 0
M  V30 5321 N 524.725 -1.39134 -0.740242 0
M  V30 5322 C 525.971 -1.36273 -1.50192 0
M  V30 5323 C 526.304 0.0430136 -1.94152 0
M  V30 5324 O 525.579 1.00691 -1.66408 0
M  V30 5325 C 525.862 -2.33041 -2.74525 0
M  V30 5326 C 525.715 -3.82535 -2.36617 0
M  V30 5327 C 527.034 -2.27723 -3.76604 0
M  V30 5328 H 524.153 -0.496323 -0.544823 0
M  V30 5329 H 526.795 -1.70085 -0.846815 0
M  V30 5330 H 524.945 -2.04337 -3.30422 0
M  V30 5331 H 526.617 -4.21967 -1.86391 0
M  V30 5332 H 524.86 -3.99565 -1.68909 0
M  V30 5333 H 525.531 -4.45723 -3.2563 0
M  V30 5334 H 528.007 -2.53091 -3.30279 0
M  V30 5335 H 526.883 -2.97519 -4.61274 0
M  V30 5336 H 527.144 -1.28049 -4.2315 0
M  V30 5337 N 526.204 0.969867 -1.24223 0
M  V30 5338 C 527.432 1.74756 -1.10761 0
M  V30 5339 C 527.847 1.85713 0.340041 0
M  V30 5340 O 527.204 1.34389 1.23474 0
M  V30 5341 C 527.255 3.16915 -1.73917 0
M  V30 5342 O 526.976 3.06511 -3.13021 0
M  V30 5343 C 528.477 4.11032 -1.66036 0
M  V30 5344 H 525.697 0.548092 -0.387087 0
M  V30 5345 H 528.241 1.2178 -1.64286 0
M  V30 5346 H 526.396 3.66884 -1.244 0
M  V30 5347 H 526.81 3.96079 -3.43834 0
M  V30 5348 H 528.284 5.08446 -2.14911 0
M  V30 5349 H 528.761 4.34785 -0.621159 0
M  V30 5350 H 529.367 3.66972 -2.14969 0
M  V30 5351 N 527.682 1.05563 1.17022 0
M  V30 5352 C 528.93 0.76642 1.87004 0
M  V30 5353 C 529.251 -0.708854 1.8166 0
M  V30 5354 O 528.521 -1.51242 1.2451 0
M  V30 5355 H 527.101 0.280516 0.692329 0
M  V30 5356 H 529.763 1.33557 1.41945 0
M  V30 5357 H 528.859 1.08472 2.92644 0
M  V30 5358 N 529.16 -1.33526 0.837174 0
M  V30 5359 C 530.385 -2.0258 0.444545 0
M  V30 5360 C 530.81 -1.6258 -0.946006 0
M  V30 5361 O 530.168 -0.817548 -1.6182 0
M  V30 5362 C 530.216 -3.5605 0.571006 0
M  V30 5363 O 529.32 -4.10422 -0.403431 0
M  V30 5364 H 528.661 -0.638866 0.180958 0
M  V30 5365 H 531.191 -1.70462 1.13154 0
M  V30 5366 H 531.201 -4.05488 0.452024 0
M  V30 5367 H 529.876 -3.84509 1.58512 0
M  V30 5368 H 528.453 -3.72113 -0.242147 0
M  V30 5369 N 530.638 -0.59345 -1.46 0
M  V30 5370 C 531.863 -0.0872365 -2.07216 0
M  V30 5371 C 532.288 1.2131 -1.43755 0
M  V30 5372 O 531.646 1.73528 -0.525152 0
M  V30 5373 C 531.694 0.0538197 -3.6056 0
M  V30 5374 O 530.798 1.10765 -3.97247 0
M  V30 5375 H 530.139 -0.0676598 -0.660544 0
M  V30 5376 H 532.669 -0.819445 -1.87473 0
M  V30 5377 H 532.679 0.256567 -4.07193 0
M  V30 5378 H 531.354 -0.895739 -4.0614 0
M  V30 5379 H 529.931 0.882501 -3.62307 0
M  V30 5380 N 532.116 1.54067 -0.331816 0
M  V30 5381 C 533.048 2.22139 0.564538 0
M  V30 5382 C 534.061 1.22408 1.07332 0
M  V30 5383 O 535.25 1.4883 0.985481 0
M  V30 5384 C 532.35 2.87876 1.78831 0
M  V30 5385 C 531.523 4.13817 1.41682 0
M  V30 5386 C 530.582 4.63072 2.49901 0
M  V30 5387 O 529.608 5.27562 2.13699 0
M  V30 5388 N 530.81 4.38001 3.80967 0
M  V30 5389 H 533.575 2.99694 -0.0183736 0
M  V30 5390 H 531.136 1.61153 -0.155396 0
M  V30 5391 H 533.128 3.17747 2.50637 0
M  V30 5392 H 531.698 2.13977 2.27887 0
M  V30 5393 H 530.918 3.9062 0.530044 0
M  V30 5394 H 532.206 4.95762 1.14443 0
M  V30 5395 H 531.604 3.864 4.13173 0
M  V30 5396 H 530.161 4.72507 4.48977 0
M  V30 5397 N 533.594 0.0601682 1.57485 0
M  V30 5398 C 534.84 -0.612501 1.93329 0
M  V30 5399 C 535.173 -1.6996 0.939526 0
M  V30 5400 O 534.448 -1.94472 -0.0330957 0
M  V30 5401 C 534.731 -1.20025 3.39508 0
M  V30 5402 C 534.584 -0.12059 4.49638 0
M  V30 5403 C 535.903 -2.10923 3.86264 0
M  V30 5404 H 533.022 -0.221185 0.703027 0
M  V30 5405 H 535.664 0.123768 1.89596 0
M  V30 5406 H 533.814 -1.82774 3.42821 0
M  V30 5407 H 535.486 0.51185 4.58452 0
M  V30 5408 H 533.729 0.550251 4.30296 0
M  V30 5409 H 534.4 -0.572019 5.49028 0
M  V30 5410 H 536.876 -1.58124 3.84884 0
M  V30 5411 H 535.752 -2.48987 4.8918 0
M  V30 5412 H 536.013 -3.01292 3.23536 0
M  V30 5413 N 535.072 -1.5615 -0.213296 0
M  V30 5414 C 536.022 -1.89485 -1.26804 0
M  V30 5415 C 537.006 -0.758713 -1.41889 0
M  V30 5416 O 538.198 -1.02127 -1.44565 0
M  V30 5417 C 535.327 -2.22219 -2.61675 0
M  V30 5418 C 534.413 -3.42245 -2.50458 0
M  V30 5419 N 534.804 -4.60645 -2.089 0
M  V30 5420 C 533.102 -3.46023 -2.81397 0
M  V30 5421 C 533.803 -5.42805 -2.09135 0
M  V30 5422 N 532.779 -4.82732 -2.49941 0
M  V30 5423 H 536.581 -2.78537 -0.937771 0
M  V30 5424 H 534.095 -1.56826 -0.421824 0
M  V30 5425 H 536.092 -2.44278 -3.37837 0
M  V30 5426 H 534.752 -1.34484 -2.95541 0
M  V30 5427 H 535.763 -4.85651 -1.79899 0
M  V30 5428 H 532.44 -2.68654 -3.1958 0
M  V30 5429 H 533.83 -6.47601 -1.79059 0
M  V30 5430 N 536.55 0.480323 -1.50102 0
M  V30 5431 C 537.483 1.59789 -1.62919 0
M  V30 5432 C 538.461 1.55429 -0.477557 0
M  V30 5433 O 539.645 1.75186 -0.695851 0
M  V30 5434 C 536.772 2.98351 -1.60325 0
M  V30 5435 C 535.818 3.20899 -2.80938 0
M  V30 5436 S 536.651 3.01791 -4.4236 0
M  V30 5437 C 537.807 4.42712 -4.42444 0
M  V30 5438 H 538.04 1.48676 -2.57454 0
M  V30 5439 H 535.573 0.666996 -1.3925 0
M  V30 5440 H 537.531 3.7824 -1.59514 0
M  V30 5441 H 536.192 3.06862 -0.670419 0
M  V30 5442 H 535.385 4.22102 -2.75401 0
M  V30 5443 H 534.987 2.48768 -2.79268 0
M  V30 5444 H 537.279 5.3518 -4.15438 0
M  V30 5445 H 538.222 4.53294 -5.43995 0
M  V30 5446 H 538.63 4.24359 -3.72263 0
M  V30 5447 N 538.028 1.39524 0.732853 0
M  V30 5448 C 539.253 1.40329 1.52717 0
M  V30 5449 C 539.678 0.000286574 1.881 0
M  V30 5450 O 539.036 -0.987262 1.52062 0
M  V30 5451 C 539.084 2.28464 2.78992 0
M  V30 5452 O 538.188 1.716 3.75003 0
M  V30 5453 H 537.529 0.47778 0.461109 0
M  V30 5454 H 540.059 1.83546 0.903996 0
M  V30 5455 H 540.069 2.43051 3.27705 0
M  V30 5456 H 538.744 3.30425 2.52572 0
M  V30 5457 H 537.321 1.66267 3.33781 0
M  V30 5458 N 539.506 -0.963266 1.24736 0
M  V30 5459 C 540.922 -1.23273 1.01371 0
M  V30 5460 C 541.122 -1.99618 -0.274776 0
M  V30 5461 O 540.178 -2.32293 -0.989769 0
M  V30 5462 C 541.491 -2.01554 2.23152 0
M  V30 5463 C 543.039 -2.14629 2.27823 0
M  V30 5464 C 543.514 -2.96307 3.49237 0
M  V30 5465 N 545.005 -3.03887 3.49581 0
M  V30 5466 C 545.74 -3.67456 4.40186 0
M  V30 5467 N 545.236 -4.32706 5.41052 0
M  V30 5468 N 547.029 -3.64511 4.27888 0
M  V30 5469 H 539.18 -0.452294 2.07528 0
M  V30 5470 H 541.443 -0.262521 0.910926 0
M  V30 5471 H 541.149 -1.52847 3.1675 0
M  V30 5472 H 541.023 -3.02278 2.25628 0
M  V30 5473 H 543.41 -2.62537 1.34753 0
M  V30 5474 H 543.491 -1.13238 2.2937 0
M  V30 5475 H 543.135 -2.49091 4.42624 0
M  V30 5476 H 543.065 -3.97905 3.44933 0
M  V30 5477 H 545.556 -2.57477 2.76611 0
M  V30 5478 H 545.869 -4.79042 6.06415 0
M  V30 5479 H 544.214 -4.31361 5.44934 0
M  V30 5480 H 547.405 -3.12715 3.4832 0
M  V30 5481 H 547.578 -4.13768 4.98698 0
M  V30 5482 N 540.985 -1.06182 -1.16461 0
M  V30 5483 C 541.935 -0.641619 -2.18786 0
M  V30 5484 C 542.919 0.327122 -1.5754 0
M  V30 5485 O 544.111 0.142746 -1.76423 0
M  V30 5486 C 541.24 -0.0283734 -3.43288 0
M  V30 5487 C 540.326 -1.02154 -4.11613 0
M  V30 5488 N 540.717 -2.19671 -4.55608 0
M  V30 5489 C 539.015 -0.852229 -4.37782 0
M  V30 5490 C 539.716 -2.82583 -5.0845 0
M  V30 5491 N 538.692 -2.10318 -5.01266 0
M  V30 5492 H 542.494 -1.53684 -2.50516 0
M  V30 5493 H 540.008 -0.933349 -1.329 0
M  V30 5494 H 542.005 0.29049 -4.15887 0
M  V30 5495 H 540.665 0.862118 -3.13046 0
M  V30 5496 H 541.676 -2.57453 -4.49375 0
M  V30 5497 H 538.353 -0.0136314 -4.17498 0
M  V30 5498 H 539.743 -3.82298 -5.52538 0
M  V30 5499 N 542.463 1.3308 -0.844243 0
M  V30 5500 C 543.71 1.97605 -0.44255 0
M  V30 5501 C 544.038 1.66856 0.999458 0
M  V30 5502 O 543.293 0.943586 1.7145 0
M  V30 5503 C 543.592 3.52045 -0.616354 0
M  V30 5504 C 543.258 4.02757 -2.02726 0
M  V30 5505 C 541.92 4.16316 -2.41317 0
M  V30 5506 C 544.272 4.29776 -2.9486 0
M  V30 5507 C 541.6 4.54232 -3.71335 0
M  V30 5508 C 543.952 4.69146 -4.24364 0
M  V30 5509 C 542.616 4.80911 -4.62904 0
M  V30 5510 H 541.886 0.723088 -0.161941 0
M  V30 5511 H 544.533 1.58663 -1.0723 0
M  V30 5512 H 542.838 3.91681 0.0966812 0
M  V30 5513 H 544.535 3.99981 -0.285756 0
M  V30 5514 H 541.125 3.9268 -1.71756 0
M  V30 5515 H 545.309 4.18818 -2.6628 0
M  V30 5516 H 540.565 4.61535 -4.00993 0
M  V30 5517 H 544.739 4.89008 -4.95827 0
M  V30 5518 H 542.366 5.10048 -5.63698 0
M  V30 5519 N 543.941 0.601185 1.45683 0
M  V30 5520 C 544.888 -0.121396 2.30481 0
M  V30 5521 C 545.858 -0.866232 1.41724 0
M  V30 5522 O 547.043 -0.85324 1.70659 0
M  V30 5523 C 544.183 -1.11704 3.26521 0
M  V30 5524 C 543.296 -0.373741 4.3038 0
M  V30 5525 C 542.431 -1.35854 5.13534 0
M  V30 5526 C 541.47 -0.602689 6.09126 0
M  V30 5527 N 540.607 -1.53645 6.85082 0
M  V30 5528 H 545.447 0.607732 2.91737 0
M  V30 5529 H 542.984 0.311502 1.43764 0
M  V30 5530 H 544.942 -1.70735 3.80664 0
M  V30 5531 H 543.572 -1.81366 2.67032 0
M  V30 5532 H 542.624 0.331962 3.78949 0
M  V30 5533 H 543.936 0.2163 4.98331 0
M  V30 5534 H 543.09 -2.02111 5.72046 0
M  V30 5535 H 541.829 -1.98251 4.45587 0
M  V30 5536 H 540.834 0.0735482 5.49751 0
M  V30 5537 H 542.059 0.0161467 6.79098 0
M  V30 5538 H 540.005 -2.14819 6.1983 0
M  V30 5539 H 539.922 -0.999688 7.49361 0
M  V30 5540 H 541.19 -2.1888 7.48139 0
M  V30 5541 N 545.419 -1.53889 0.339982 0
M  V30 5542 C 546.665 -2.01152 -0.258003 0
M  V30 5543 C 546.998 -1.22749 -1.50487 0
M  V30 5544 O 546.273 -0.314156 -1.91946 0
M  V30 5545 C 546.556 -3.55468 -0.575717 0
M  V30 5546 C 546.409 -4.44584 0.682996 0
M  V30 5547 C 547.728 -4.1768 -1.38677 0
M  V30 5548 H 544.847 -0.731198 -0.0922992 0
M  V30 5549 H 547.489 -1.84352 0.459814 0
M  V30 5550 H 545.639 -3.69914 -1.18725 0
M  V30 5551 H 547.311 -4.41981 1.32102 0
M  V30 5552 H 545.554 -4.13592 1.3086 0
M  V30 5553 H 546.225 -5.5043 0.416001 0
M  V30 5554 H 548.701 -4.0691 -0.869705 0
M  V30 5555 H 547.577 -5.25734 -1.57783 0
M  V30 5556 H 547.838 -3.72069 -2.38782 0
M  V30 5557 N 546.897 -0.0685191 -1.57451 0
M  V30 5558 C 548.143 0.596247 -1.94465 0
M  V30 5559 C 548.498 1.67417 -0.948117 0
M  V30 5560 O 547.791 1.91576 0.0301056 0
M  V30 5561 C 547.985 1.22051 -3.35914 0
M  V30 5562 C 547.814 0.204586 -4.49234 0
M  V30 5563 C 546.584 -0.20959 -5.04865 0
M  V30 5564 C 548.782 -0.556872 -5.11276 0
M  V30 5565 N 546.764 -1.21656 -6.01725 0
M  V30 5566 C 548.135 -1.41642 -6.03604 0
M  V30 5567 C 550.19 -0.613297 -4.94108 0
M  V30 5568 C 548.893 -2.32737 -6.80607 0
M  V30 5569 C 550.919 -1.51174 -5.71752 0
M  V30 5570 C 550.281 -2.35898 -6.63726 0
M  V30 5571 H 546.38 0.189307 -0.75874 0
M  V30 5572 H 548.964 -0.144899 -1.9416 0
M  V30 5573 H 547.135 1.9316 -3.36963 0
M  V30 5574 H 548.867 1.84548 -3.60172 0
M  V30 5575 H 545.622 0.172871 -4.73284 0
M  V30 5576 H 546.046 -1.71746 -6.54853 0
M  V30 5577 H 550.688 0.0275228 -4.22791 0
M  V30 5578 H 548.406 -2.97856 -7.51204 0
M  V30 5579 H 551.992 -1.5602 -5.6049 0
M  V30 5580 H 550.872 -3.04291 -7.22756 0
M  V30 5581 N 548.375 1.56261 0.205012 0
M  V30 5582 C 549.6 1.84491 0.947512 0
M  V30 5583 C 550.025 0.650894 1.76479 0
M  V30 5584 O 549.383 -0.40035 1.76824 0
M  V30 5585 C 549.431 3.10863 1.82747 0
M  V30 5586 O 548.535 2.90719 2.925 0
M  V30 5587 H 547.876 0.607783 0.267386 0
M  V30 5588 H 550.406 2.03485 0.213323 0
M  V30 5589 H 550.416 3.41399 2.23407 0
M  V30 5590 H 549.091 3.97392 1.2269 0
M  V30 5591 H 547.668 2.71457 2.55667 0
M  V30 5592 N 549.853 -0.472356 1.50355 0
M  V30 5593 C 550.783 -1.57859 1.72055 0
M  V30 5594 C 551.764 -1.60283 0.569505 0
M  V30 5595 O 552.949 -1.7657 0.808503 0
M  V30 5596 C 550.079 -2.96191 1.81351 0
M  V30 5597 C 549.033 -3.08633 2.96529 0
M  V30 5598 C 548.359 -4.486 2.90968 0
M  V30 5599 C 549.659 -2.85969 4.37057 0
M  V30 5600 H 551.353 -1.39953 2.64676 0
M  V30 5601 H 548.899 -0.671846 1.27367 0
M  V30 5602 H 550.852 -3.73507 1.95117 0
M  V30 5603 H 549.576 -3.15251 0.853502 0
M  V30 5604 H 548.235 -2.33749 2.82413 0
M  V30 5605 H 547.883 -4.64577 1.92815 0
M  V30 5606 H 547.583 -4.57861 3.68289 0
M  V30 5607 H 549.107 -5.27938 3.0678 0
M  V30 5608 H 550.521 -3.53036 4.51706 0
M  V30 5609 H 548.918 -3.06677 5.15819 0
M  V30 5610 H 549.988 -1.81838 4.49514 0
M  V30 5611 N 551.331 -1.39911 -0.725443 0
M  V30 5612 C 552.747 -1.21725 -1.03224 0
M  V30 5613 C 552.947 -0.0855224 -2.01318 0
M  V30 5614 O 552.003 0.55976 -2.46217 0
M  V30 5615 C 553.316 -2.55511 -1.58539 0
M  V30 5616 C 554.864 -2.62439 -1.70572 0
M  V30 5617 C 555.339 -3.9647 -2.29294 0
M  V30 5618 N 556.83 -3.98159 -2.36692 0
M  V30 5619 C 557.565 -4.98647 -2.83088 0
M  V30 5620 N 557.061 -6.0953 -3.2931 0
M  V30 5621 N 558.854 -4.8602 -2.82384 0
M  V30 5622 H 551.005 -2.12267 -0.075048 0
M  V30 5623 H 553.268 -0.943136 -0.0959066 0
M  V30 5624 H 552.974 -3.38926 -0.939249 0
M  V30 5625 H 552.848 -2.75905 -2.57208 0
M  V30 5626 H 555.235 -1.79401 -2.34306 0
M  V30 5627 H 555.316 -2.45885 -0.705297 0
M  V30 5628 H 554.96 -4.79942 -1.66186 0
M  V30 5629 H 554.89 -4.10349 -3.30032 0
M  V30 5630 H 557.381 -3.18085 -2.04035 0
M  V30 5631 H 557.694 -6.82106 -3.6325 0
M  V30 5632 H 556.039 -6.1311 -3.27294 0
M  V30 5633 H 559.23 -3.98493 -2.45603 0
M  V30 5634 H 559.403 -5.64478 -3.18226 0
M  V30 5635 N 552.809 0.956637 -1.25245 0
M  V30 5636 C 554.225 1.22733 -1.02023 0
M  V30 5637 C 554.425 1.99761 0.264186 0
M  V30 5638 O 553.481 2.32814 0.977436 0
M  V30 5639 C 554.794 2.00367 -2.24217 0
M  V30 5640 C 556.342 2.13418 -2.28958 0
M  V30 5641 C 556.817 2.9445 -3.50803 0
M  V30 5642 N 558.308 3.02029 -3.51187 0
M  V30 5643 C 559.043 3.65116 -4.42129 0
M  V30 5644 N 558.539 4.2983 -5.43339 0
M  V30 5645 N 560.332 3.62237 -4.29815 0
M  V30 5646 H 552.483 0.441282 -2.07765 0
M  V30 5647 H 554.746 0.257686 -0.912306 0
M  V30 5648 H 554.452 1.51165 -3.17556 0
M  V30 5649 H 554.326 3.01077 -2.27228 0
M  V30 5650 H 556.713 2.61819 -1.36143 0
M  V30 5651 H 556.794 1.1202 -2.29968 0
M  V30 5652 H 556.438 2.46741 -4.43939 0
M  V30 5653 H 556.368 3.9607 -3.47039 0
M  V30 5654 H 558.859 2.56007 -2.77973 0
M  V30 5655 H 559.172 4.75819 -6.08947 0
M  V30 5656 H 557.517 4.28465 -5.47214 0
M  V30 5657 H 560.708 3.10863 -3.49974 0
M  V30 5658 H 560.881 4.11117 -5.00886 0
M  V30 5659 N 554.287 1.06798 1.15896 0
M  V30 5660 C 555.564 0.701057 1.82605 0
M  V30 5661 C 555.944 -0.817066 1.94646 0
M  V30 5662 O 555.292 -1.72933 1.49353 0
M  V30 5663 C 555.502 1.40895 3.19296 0
M  V30 5664 C 556.85 1.55744 3.95005 0
M  V30 5665 O 557.874 1.36927 3.28831 0
M  V30 5666 O 556.733 1.86658 5.13635 0
M  V30 5667 H 553.827 0.248791 0.78869 0
M  V30 5668 H 556.373 1.16857 1.23055 0
M  V30 5669 H 555.145 2.4439 3.05596 0
M  V30 5670 H 554.768 0.931847 3.86526 0
M  V30 5671 N 555.766 -1.3263 0.851289 0
M  V30 5672 C 557.177 -1.79653 0.5081 0
M  V30 5673 C 557.528 -1.70327 -0.973815 0
M  V30 5674 O 556.653 -1.25986 -1.75944 0
M  V30 5675 C 557.248 -3.26196 0.915515 0
M  V30 5676 C 555.807 -3.71187 0.624277 0
M  V30 5677 C 554.954 -2.53804 1.11709 0
M  V30 5678 H 557.905 -1.19976 1.03882 0
M  V30 5679 H 557.926 -3.79801 0.230535 0
M  V30 5680 H 557.438 -3.32952 1.99411 0
M  V30 5681 H 555.539 -3.69948 -0.443737 0
M  V30 5682 H 555.652 -4.64132 1.18821 0
M  V30 5683 H 554.016 -2.48964 0.537484 0
M  V30 5684 H 554.799 -2.63315 2.20272 0
M  V30 5685 N 557.244 -0.608902 -1.45362 0
M  V30 5686 C 558.66 -0.272659 -1.57254 0
M  V30 5687 C 558.86 1.22477 -1.60005 0
M  V30 5688 O 557.916 2.00785 -1.53106 0
M  V30 5689 C 559.229 -0.944991 -2.85465 0
M  V30 5690 C 560.777 -0.921033 -2.99142 0
M  V30 5691 C 561.252 -1.5734 -4.30126 0
M  V30 5692 N 562.743 -1.53895 -4.36887 0
M  V30 5693 C 563.478 -2.01286 -5.36909 0
M  V30 5694 N 562.974 -2.56768 -6.43461 0
M  V30 5695 N 564.767 -1.92046 -5.28275 0
M  V30 5696 H 556.918 -1.58117 -1.4182 0
M  V30 5697 H 559.181 -0.662437 -0.678146 0
M  V30 5698 H 558.887 -1.99941 -2.89338 0
M  V30 5699 H 558.761 -0.469079 -3.74272 0
M  V30 5700 H 561.148 0.124846 -2.94836 0
M  V30 5701 H 561.229 -1.43522 -2.11743 0
M  V30 5702 H 560.873 -2.61862 -4.35191 0
M  V30 5703 H 560.803 -1.03422 -5.16344 0
M  V30 5704 H 563.294 -1.13366 -3.60495 0
M  V30 5705 H 563.607 -2.9072 -7.16032 0
M  V30 5706 H 561.952 -2.60808 -6.44208 0
M  V30 5707 H 565.143 -1.48439 -4.43941 0
M  V30 5708 H 565.316 -2.29293 -6.06077 0
M  V30 5709 N 558.722 1.53707 -0.348139 0
M  V30 5710 C 559.97 2.00591 0.246478 0
M  V30 5711 C 560.291 1.23753 1.50699 0
M  V30 5712 O 559.561 0.345964 1.92821 0
M  V30 5713 H 558.141 0.741053 0.0940679 0
M  V30 5714 H 560.803 1.89139 -0.470354 0
M  V30 5715 H 559.899 3.08297 0.485714 0
M  V30 5716 N 560.2 0.0768682 1.57412 0
M  V30 5717 C 561.163 -0.873949 2.11884 0
M  V30 5718 C 562.163 -1.22301 1.04398 0
M  V30 5719 O 563.353 -1.15545 1.30365 0
M  V30 5720 C 560.485 -2.17575 2.62438 0
M  V30 5721 H 561.678 -0.401278 2.97203 0
M  V30 5722 H 559.231 -0.171904 1.55352 0
M  V30 5723 H 559.966 -2.69368 1.80587 0
M  V30 5724 H 559.751 -1.93534 3.41009 0
M  V30 5725 H 561.241 -2.85631 3.04639 0
M  V30 5726 N 561.678 -1.56367 -0.196722 0
M  V30 5727 C 563.089 -1.70462 -0.761545 0
M  V30 5728 C 563.44 -0.683161 -1.83922 0
M  V30 5729 O 562.565 0.160753 -2.15802 0
M  V30 5730 C 563.16 -3.09057 -1.38814 0
M  V30 5731 C 561.719 -3.24922 -1.90007 0
M  V30 5732 C 560.866 -2.66412 -0.769399 0
M  V30 5733 H 563.817 -1.58675 0.0283263 0
M  V30 5734 H 563.838 -3.06296 -2.2575 0
M  V30 5735 H 563.35 -3.83378 -0.603559 0
M  V30 5736 H 561.451 -2.55514 -2.71189 0
M  V30 5737 H 561.564 -4.3241 -2.06297 0
M  V30 5738 H 559.928 -2.25546 -1.18326 0
M  V30 5739 H 560.711 -3.433 0.00291773 0
M  V30 5740 N 563.156 0.464375 -1.50603 0
M  V30 5741 C 564.119 1.54393 -1.69397 0
M  V30 5742 C 565.119 1.50566 -0.564504 0
M  V30 5743 O 566.309 1.53066 -0.831645 0
M  V30 5744 C 563.441 2.9401 -1.72543 0
M  V30 5745 H 564.634 1.39044 -2.65719 0
M  V30 5746 H 562.187 0.69122 -1.40185 0
M  V30 5747 H 562.922 3.14795 -0.77938 0
M  V30 5748 H 562.707 2.98195 -2.54602 0
M  V30 5749 H 564.197 3.72375 -1.89015 0
M  V30 5750 N 564.634 1.40294 0.718013 0
M  V30 5751 C 565.88 1.39648 1.47885 0
M  V30 5752 C 566.235 -0.0023879 1.924 0
M  V30 5753 O 565.528 -0.972304 1.65096 0
M  V30 5754 C 565.722 2.31814 2.72024 0
M  V30 5755 C 565.551 3.80523 2.3965 0
M  V30 5756 C 564.321 4.49351 2.3111 0
M  V30 5757 C 566.519 4.72077 2.04079 0
M  V30 5758 N 564.501 5.83305 1.91385 0
M  V30 5759 C 565.872 5.94809 1.74935 0
M  V30 5760 C 567.927 4.59935 1.90694 0
M  V30 5761 C 566.63 7.06755 1.33753 0
M  V30 5762 C 568.656 5.7182 1.50915 0
M  V30 5763 C 568.018 6.93637 1.22668 0
M  V30 5764 H 564.117 0.566263 0.539324 0
M  V30 5765 H 566.701 1.75986 0.832891 0
M  V30 5766 H 564.872 1.97607 3.34374 0
M  V30 5767 H 566.604 2.22042 3.38348 0
M  V30 5768 H 563.359 4.03002 2.4877 0
M  V30 5769 H 563.783 6.54239 1.74068 0
M  V30 5770 H 568.425 3.66274 2.11194 0
M  V30 5771 H 566.143 8.00302 1.11995 0
M  V30 5772 H 569.729 5.64421 1.4114 0
M  V30 5773 H 568.609 7.78743 0.923502 0
M  V30 5774 N 566.112 -0.949982 1.2575 0
M  V30 5775 C 567.075 -2.02894 1.06615 0
M  V30 5776 C 568.075 -1.60791 0.0173905 0
M  V30 5777 O 569.265 -1.72249 0.260003 0
M  V30 5778 C 566.397 -3.35219 0.619751 0
M  V30 5779 H 567.59 -2.21302 2.02399 0
M  V30 5780 H 565.143 -1.12772 1.08223 0
M  V30 5781 H 565.878 -3.22508 -0.340486 0
M  V30 5782 H 565.663 -3.67129 1.37692 0
M  V30 5783 H 567.153 -4.14505 0.507443 0
M  V30 5784 N 567.59 -1.07411 -1.15328 0
M  V30 5785 C 568.818 -0.818782 -1.90009 0
M  V30 5786 C 569.233 0.628072 -1.78047 0
M  V30 5787 O 568.59 1.43085 -1.13282 0
M  V30 5788 C 568.641 -1.21874 -3.40337 0
M  V30 5789 O 568.362 -2.60883 -3.51954 0
M  V30 5790 C 569.863 -0.992796 -4.3204 0
M  V30 5791 H 567.083 -0.296007 -0.60218 0
M  V30 5792 H 569.627 -1.43073 -1.46117 0
M  V30 5793 H 567.782 -0.651103 -3.81889 0
M  V30 5794 H 568.196 -2.77216 -4.45255 0
M  V30 5795 H 569.67 -1.32215 -5.35932 0
M  V30 5796 H 570.147 0.0708331 -4.39143 0
M  V30 5797 H 570.753 -1.54537 -3.9623 0
M  V30 5798 N 569.068 1.32177 -0.85831 0
M  V30 5799 C 570.314 1.97417 -0.46417 0
M  V30 5800 C 570.647 1.67746 0.978514 0
M  V30 5801 O 569.922 0.967654 1.68721 0
M  V30 5802 C 570.205 3.53069 -0.708094 0
M  V30 5803 C 570.058 3.92357 -2.19946 0
M  V30 5804 C 571.377 4.39783 -0.166881 0
M  V30 5805 H 568.496 0.717097 -0.17012 0
M  V30 5806 H 571.138 1.56499 -1.07741 0
M  V30 5807 H 569.288 3.88054 -0.186128 0
M  V30 5808 H 570.96 3.67533 -2.78779 0
M  V30 5809 H 569.203 3.41384 -2.67656 0
M  V30 5810 H 569.874 5.00841 -2.32082 0
M  V30 5811 H 572.35 4.11556 -0.613285 0
M  V30 5812 H 571.226 5.47671 -0.367093 0
M  V30 5813 H 571.487 4.32196 0.930559 0
M  V30 5814 N 570.547 0.616602 1.45037 0
M  V30 5815 C 571.795 0.115103 2.01772 0
M  V30 5816 C 572.116 -1.2622 1.48639 0
M  V30 5817 O 571.386 -1.83563 0.684199 0
M  V30 5818 H 569.966 0.0395607 0.745952 0
M  V30 5819 H 572.628 0.800032 1.77723 0
M  V30 5820 H 571.724 0.0717274 3.12018 0
M  V30 5821 N 572.025 -1.5352 0.356285 0
M  V30 5822 C 573.25 -2.06007 -0.239961 0
M  V30 5823 C 573.675 -1.22872 -1.42422 0
M  V30 5824 O 573.033 -0.245516 -1.7963 0
M  V30 5825 C 573.081 -3.5522 -0.620587 0
M  V30 5826 O 572.185 -3.74864 -1.71902 0
M  V30 5827 H 571.526 -0.662961 -0.0371377 0
M  V30 5828 H 574.056 -1.98033 0.514194 0
M  V30 5829 H 574.066 -3.98081 -0.894197 0
M  V30 5830 H 572.741 -4.15175 0.245407 0
M  V30 5831 H 571.318 -3.43904 -1.44169 0
M  V30 5832 N 573.503 -0.0852151 -1.57369 0
M  V30 5833 C 574.749 0.575588 -1.95086 0
M  V30 5834 C 575.104 1.66402 -0.96582 0
M  V30 5835 O 574.397 1.91598 0.00978463 0
M  V30 5836 C 574.591 1.18482 -3.3719 0
M  V30 5837 C 574.42 0.156928 -4.49426 0
M  V30 5838 C 573.19 -0.263126 -5.04614 0
M  V30 5839 C 575.388 -0.611068 -5.10657 0
M  V30 5840 N 573.37 -1.28032 -6.00401 0
M  V30 5841 C 574.741 -1.48036 -6.02068 0
M  V30 5842 C 576.796 -0.665669 -4.9343 0
M  V30 5843 C 575.499 -2.39943 -6.781 0
M  V30 5844 C 577.525 -1.5723 -5.70116 0
M  V30 5845 C 576.887 -2.42924 -6.61186 0
M  V30 5846 H 572.986 0.181249 -0.760705 0
M  V30 5847 H 575.57 -0.165484 -1.93995 0
M  V30 5848 H 573.741 1.89575 -3.38992 0
M  V30 5849 H 575.473 1.80718 -3.62109 0
M  V30 5850 H 572.228 0.122664 -4.73441 0
M  V30 5851 H 572.652 -1.78682 -6.52994 0
M  V30 5852 H 577.294 -0.0173214 -4.22796 0
M  V30 5853 H 575.012 -3.05807 -7.48002 0
M  V30 5854 H 578.598 -1.61956 -5.58804 0
M  V30 5855 H 577.478 -3.1194 -7.19488 0
M  V30 5856 N 574.981 1.5647 0.188427 0
M  V30 5857 C 576.397 1.50204 0.539532 0
M  V30 5858 C 576.597 0.78644 1.85519 0
M  V30 5859 O 575.653 0.339714 2.50204 0
M  V30 5860 C 576.966 2.94893 0.588103 0
M  V30 5861 C 578.514 3.05602 0.67648 0
M  V30 5862 C 578.989 4.51716 0.756101 0
M  V30 5863 N 580.48 4.55894 0.819451 0
M  V30 5864 C 581.215 5.66272 0.90134 0
M  V30 5865 N 580.711 6.86323 0.945118 0
M  V30 5866 N 582.504 5.54201 0.939043 0
M  V30 5867 H 574.655 2.01406 -0.674493 0
M  V30 5868 H 576.918 0.916828 -0.241103 0
M  V30 5869 H 576.624 3.50334 -0.309633 0
M  V30 5870 H 576.498 3.4861 1.44051 0
M  V30 5871 H 578.885 2.50206 1.56465 0
M  V30 5872 H 578.966 2.54999 -0.202262 0
M  V30 5873 H 578.61 5.07739 -0.12774 0
M  V30 5874 H 578.54 5.00058 1.65074 0
M  V30 5875 H 581.031 3.69452 0.794594 0
M  V30 5876 H 581.344 7.66194 1.0083 0
M  V30 5877 H 579.689 6.88968 0.913683 0
M  V30 5878 H 582.88 4.59333 0.901725 0
M  V30 5879 H 583.053 6.40247 0.999402 0
M  V30 5880 N 576.459 -0.456382 1.50847 0
M  V30 5881 C 577.736 -1.21739 1.53098 0
M  V30 5882 C 578.116 -2.09179 0.284132 0
M  V30 5883 O 577.464 -2.16466 -0.731773 0
M  V30 5884 C 577.674 -2.03573 2.83477 0
M  V30 5885 C 579.022 -2.61264 3.34703 0
M  V30 5886 O 580.046 -2.13802 2.84898 0
M  V30 5887 O 578.905 -3.47779 4.21559 0
M  V30 5888 H 575.999 -0.553219 0.614718 0
M  V30 5889 H 578.545 -0.467003 1.63148 0
M  V30 5890 H 577.317 -1.39232 3.65691 0
M  V30 5891 H 576.94 -2.85716 2.76499 0
M  V30 5892 N 577.937 -1.40673 -0.710563 0
M  V30 5893 C 579.185 -1.38947 -1.46759 0
M  V30 5894 C 579.506 0.00572879 -1.94999 0
M  V30 5895 O 578.776 0.961358 -1.70689 0
M  V30 5896 H 577.356 -0.5114 -0.544499 0
M  V30 5897 H 580.018 -1.75773 -0.842012 0
M  V30 5898 H 579.114 -2.06745 -2.33801 0
M  V30 5899 N 579.415 0.9433 -1.26252 0
M  V30 5900 C 580.347 2.04542 -1.03417 0
M  V30 5901 C 581.36 1.62799 0.0046911 0
M  V30 5902 O 582.549 1.76944 -0.235146 0
M  V30 5903 C 579.649 3.34511 -0.543671 0
M  V30 5904 C 578.822 4.05033 -1.65128 0
M  V30 5905 C 577.881 5.13273 -1.1592 0
M  V30 5906 O 576.907 5.38095 -1.85586 0
M  V30 5907 N 578.109 5.805 -0.00649279 0
M  V30 5908 H 580.874 2.24699 -1.98319 0
M  V30 5909 H 578.435 1.11264 -1.1761 0
M  V30 5910 H 580.427 4.04212 -0.198703 0
M  V30 5911 H 578.997 3.11042 0.311711 0
M  V30 5912 H 578.217 3.29275 -2.16729 0
M  V30 5913 H 579.505 4.48903 -2.39508 0
M  V30 5914 H 578.903 5.62767 0.575347 0
M  V30 5915 H 577.46 6.51201 0.279416 0
M  V30 5916 N 580.893 1.08022 1.14757 0
M  V30 5917 C 581.823 0.728248 2.21853 0
M  V30 5918 C 582.804 -0.287486 1.67653 0
M  V30 5919 O 583.989 -0.158727 1.9355 0
M  V30 5920 C 581.119 0.132549 3.47047 0
M  V30 5921 C 580.073 1.07619 4.14249 0
M  V30 5922 C 579.399 0.342907 5.33599 0
M  V30 5923 C 580.699 2.41268 4.63235 0
M  V30 5924 H 582.393 1.62365 2.51551 0
M  V30 5925 H 579.939 0.782125 1.20908 0
M  V30 5926 H 581.892 -0.125665 4.21213 0
M  V30 5927 H 580.616 -0.797971 3.16702 0
M  V30 5928 H 579.275 1.31944 3.42033 0
M  V30 5929 H 578.923 -0.59129 4.99513 0
M  V30 5930 H 578.623 0.971955 5.79506 0
M  V30 5931 H 580.147 0.0926538 6.1053 0
M  V30 5932 H 581.561 2.21232 5.28894 0
M  V30 5933 H 579.958 2.9983 5.19829 0
M  V30 5934 H 581.028 3.03079 3.78512 0
M  V30 5935 N 582.371 -1.3172 0.865308 0
M  V30 5936 C 583.648 -1.91574 0.394789 0
M  V30 5937 C 584.028 -1.78769 -1.12271 0
M  V30 5938 O 583.376 -1.19245 -1.94918 0
M  V30 5939 C 583.586 -3.37957 0.870982 0
M  V30 5940 C 584.934 -4.15073 0.894384 0
M  V30 5941 O 585.958 -3.4672 0.816325 0
M  V30 5942 O 584.817 -5.37151 1.00651 0
M  V30 5943 H 581.911 -0.818649 0.117229 0
M  V30 5944 H 584.457 -1.4042 0.952913 0
M  V30 5945 H 583.229 -3.41269 1.91444 0
M  V30 5946 H 582.852 -3.96534 0.290907 0
M  V30 5947 N 583.85 -0.624285 -1.44708 0
M  V30 5948 C 584.779 0.0717025 -2.3339 0
M  V30 5949 C 585.76 0.841814 -1.47809 0
M  V30 5950 O 586.946 0.809056 -1.76544 0
M  V30 5951 C 584.076 1.05852 -3.30776 0
M  V30 5952 C 583.029 0.400503 -4.26122 0
M  V30 5953 C 582.356 1.49674 -5.13324 0
M  V30 5954 C 583.656 -0.688924 -5.17737 0
M  V30 5955 H 585.35 -0.668819 -2.91834 0
M  V30 5956 H 582.896 -0.32308 -1.40329 0
M  V30 5957 H 584.849 1.5541 -3.91696 0
M  V30 5958 H 583.572 1.82984 -2.70526 0
M  V30 5959 H 582.231 -0.0743687 -3.66525 0
M  V30 5960 H 581.88 2.25877 -4.49431 0
M  V30 5961 H 581.58 1.06188 -5.77926 0
M  V30 5962 H 583.104 1.99427 -5.77115 0
M  V30 5963 H 584.518 -0.276724 -5.72632 0
M  V30 5964 H 582.915 -1.04652 -5.90904 0
M  V30 5965 H 583.985 -1.55884 -4.5916 0
M  V30 5966 N 585.328 1.53329 -0.364422 0
M  V30 5967 C 586.238 2.29414 0.490552 0
M  V30 5968 C 587.254 1.35335 1.09363 0
M  V30 5969 O 588.43 1.68391 1.10483 0
M  V30 5970 C 585.495 3.06772 1.61529 0
M  V30 5971 C 584.556 4.16516 1.03986 0
M  V30 5972 C 583.789 4.90176 2.111 0
M  V30 5973 O 584.012 4.63687 3.32191 0
M  V30 5974 O 582.946 5.76134 1.74222 0
M  V30 5975 H 586.772 3.03428 -0.12856 0
M  V30 5976 H 584.357 1.48843 -0.128837 0
M  V30 5977 H 586.239 3.55082 2.26924 0
M  V30 5978 H 584.914 2.35596 2.21983 0
M  V30 5979 H 583.821 3.7246 0.349856 0
M  V30 5980 H 585.154 4.89855 0.4799 0
M  V30 5981 N 586.806 0.0935595 1.57322 0
M  V30 5982 C 588.217 -0.435807 1.81542 0
M  V30 5983 C 588.568 -1.68263 1.00907 0
M  V30 5984 O 587.693 -2.15087 0.237983 0
M  V30 5985 C 588.288 -0.797436 3.29282 0
M  V30 5986 C 586.847 -1.27155 3.54272 0
M  V30 5987 C 585.994 -0.267455 2.76007 0
M  V30 5988 H 588.945 0.31902 1.5546 0
M  V30 5989 H 588.966 -1.6571 3.42521 0
M  V30 5990 H 588.478 0.110206 3.87943 0
M  V30 5991 H 586.579 -2.19696 3.00939 0
M  V30 5992 H 586.692 -1.23445 4.62923 0
M  V30 5993 H 585.056 -0.749282 2.43429 0
M  V30 5994 H 585.839 0.632839 3.37417 0
M  V30 5995 N 588.284 -1.56567 -0.180126 0
M  V30 5996 C 589.532 -1.81133 -0.896392 0
M  V30 5997 C 589.853 -0.669114 -1.83161 0
M  V30 5998 O 589.123 0.311616 -1.93406 0
M  V30 5999 H 587.703 -0.668172 -0.333999 0
M  V30 6000 H 590.365 -1.94048 -0.182051 0
M  V30 6001 H 589.461 -2.74854 -1.47857 0
M  V30 6002 N 589.762 0.448376 -1.51087 0
M  V30 6003 C 591.01 1.19635 -1.62886 0
M  V30 6004 C 591.331 1.91977 -0.342024 0
M  V30 6005 O 590.601 1.85094 0.641636 0
M  V30 6006 H 589.181 0.444598 -0.600285 0
M  V30 6007 H 591.843 0.515138 -1.87969 0
M  V30 6008 H 590.939 1.93194 -2.45117 0
M  V30 6009 N 591.24 1.41047 0.703093 0
M  V30 6010 C 592.203 1.42036 1.79884 0
M  V30 6011 C 593.203 0.312153 1.57741 0
M  V30 6012 O 594.393 0.571672 1.64553 0
M  V30 6013 C 591.525 1.22437 3.18154 0
M  V30 6014 H 592.718 2.39572 1.80403 0
M  V30 6015 H 590.271 1.27079 0.909977 0
M  V30 6016 H 591.006 0.257112 3.23279 0
M  V30 6017 H 590.791 2.02723 3.35627 0
M  V30 6018 H 592.281 1.25946 3.98155 0
M  V30 6019 N 592.718 -0.936591 1.26751 0
M  V30 6020 C 593.943 -1.72288 1.15462 0
M  V30 6021 C 594.368 -1.85915 -0.285887 0
M  V30 6022 O 593.726 -1.35272 -1.20711 0
M  V30 6023 C 593.774 -3.10503 1.83359 0
M  V30 6024 O 592.878 -3.96745 1.1255 0
M  V30 6025 H 592.219 -0.52843 0.402067 0
M  V30 6026 H 594.749 -1.17271 1.67656 0
M  V30 6027 H 594.759 -3.60867 1.90365 0
M  V30 6028 H 593.434 -2.99901 2.88153 0
M  V30 6029 H 592.011 -3.55191 1.13551 0
M  V30 6030 N 594.196 -1.08629 -1.14182 0
M  V30 6031 C 595.159 -0.722027 -2.1753 0
M  V30 6032 C 596.159 0.244305 -1.58933 0
M  V30 6033 O 597.349 0.0235545 -1.74184 0
M  V30 6034 C 594.481 -0.0663966 -3.40835 0
M  V30 6035 H 595.674 -1.63719 -2.51269 0
M  V30 6036 H 593.227 -0.884442 -1.28869 0
M  V30 6037 H 593.962 0.860389 -3.12678 0
M  V30 6038 H 593.747 -0.761598 -3.84632 0
M  V30 6039 H 595.237 0.173346 -4.1724 0
M  V30 6040 N 595.674 1.31259 -0.872281 0
M  V30 6041 C 597.09 1.49283 -0.564521 0
M  V30 6042 C 597.29 1.80243 0.900807 0
M  V30 6043 O 596.346 1.88246 1.68284 0
M  V30 6044 C 597.659 2.62503 -1.46673 0
M  V30 6045 C 599.207 2.76386 -1.46901 0
M  V30 6046 C 599.682 3.92705 -2.35684 0
M  V30 6047 N 601.173 3.99995 -2.33577 0
M  V30 6048 C 601.908 4.89276 -2.98992 0
M  V30 6049 N 601.404 5.83443 -3.73585 0
M  V30 6050 N 603.197 4.82541 -2.88289 0
M  V30 6051 H 595.348 1.09432 -1.82039 0
M  V30 6052 H 597.611 0.540949 -0.77851 0
M  V30 6053 H 597.317 2.46407 -2.50951 0
M  V30 6054 H 597.191 3.58695 -1.16696 0
M  V30 6055 H 599.578 2.91894 -0.433796 0
M  V30 6056 H 599.659 1.80853 -1.80903 0
M  V30 6057 H 599.303 3.77954 -3.39283 0
M  V30 6058 H 599.233 4.87549 -1.99006 0
M  V30 6059 H 601.724 3.32624 -1.7936 0
M  V30 6060 H 602.037 6.48303 -4.20622 0
M  V30 6061 H 600.382 5.83415 -3.77694 0
M  V30 6062 H 603.573 4.07951 -2.2955 0
M  V30 6063 H 603.746 5.51916 -3.39549 0
M  V30 6064 N 597.152 0.631951 1.44375 0
M  V30 6065 C 598.563 0.219036 1.85411 0
M  V30 6066 C 598.914 -1.22974 1.52879 0
M  V30 6067 O 598.039 -1.93579 0.967266 0
M  V30 6068 C 598.634 0.39075 3.36539 0
M  V30 6069 C 597.193 0.0323351 3.76386 0
M  V30 6070 C 596.34 0.703744 2.68221 0
M  V30 6071 H 599.291 0.837056 1.3483 0
M  V30 6072 H 599.312 -0.370056 3.78696 0
M  V30 6073 H 598.824 1.44527 3.60185 0
M  V30 6074 H 596.925 -1.02042 3.58355 0
M  V30 6075 H 597.038 0.442969 4.77048 0
M  V30 6076 H 595.402 0.138974 2.54321 0
M  V30 6077 H 596.185 1.76088 2.947 0
M  V30 6078 N 598.631 -1.53133 0.372548 0
M  V30 6079 C 600.042 -1.86404 -0.105155 0
M  V30 6080 C 600.393 -1.29289 -1.47576 0
M  V30 6081 O 599.518 -0.617646 -2.07398 0
M  V30 6082 C 600.113 -3.38223 -0.197588 0
M  V30 6083 C 598.672 -3.71266 -0.619556 0
M  V30 6084 C 597.819 -2.76353 0.228919 0
M  V30 6085 H 600.77 -1.47282 0.591077 0
M  V30 6086 H 600.791 -3.66577 -1.01987 0
M  V30 6087 H 600.303 -3.79763 0.800099 0
M  V30 6088 H 598.404 -3.35287 -1.62522 0
M  V30 6089 H 598.517 -4.77515 -0.389332 0
M  V30 6090 H 596.881 -2.52888 -0.303271 0
M  V30 6091 H 597.664 -3.20728 1.22428 0
M  V30 6092 N 600.109 -0.101901 -1.5727 0
M  V30 6093 C 601.52 0.426173 -1.81771 0
M  V30 6094 C 601.871 1.67725 -1.01797 0
M  V30 6095 O 600.996 2.14958 -0.249386 0
M  V30 6096 C 601.591 0.779962 -3.297 0
M  V30 6097 C 600.15 1.25275 -3.54941 0
M  V30 6098 C 599.297 0.252814 -2.76145 0
M  V30 6099 H 602.248 -0.32726 -1.55289 0
M  V30 6100 H 602.269 1.63891 -3.43395 0
M  V30 6101 H 601.781 -0.130778 -3.8788 0
M  V30 6102 H 599.882 2.18097 -3.021 0
M  V30 6103 H 599.995 1.20988 -4.63572 0
M  V30 6104 H 598.359 0.736362 -2.43823 0
M  V30 6105 H 599.142 -0.650724 -3.37076 0
M  V30 6106 N 601.587 1.56661 0.17182 0
M  V30 6107 C 602.998 1.71652 0.734329 0
M  V30 6108 C 603.349 0.712335 1.82812 0
M  V30 6109 O 602.474 -0.126401 2.16031 0
M  V30 6110 C 603.069 3.11226 1.3388 0
M  V30 6111 C 601.628 3.27904 1.84813 0
M  V30 6112 C 600.775 2.67603 0.726917 0
M  V30 6113 H 603.726 1.5861 -0.0535665 0
M  V30 6114 H 603.747 3.09849 2.20849 0
M  V30 6115 H 603.259 3.8429 0.54249 0
M  V30 6116 H 601.36 2.59796 2.6709 0
M  V30 6117 H 601.473 4.35637 1.99392 0
M  V30 6118 H 599.837 2.274 1.14723 0
M  V30 6119 H 600.62 3.43252 -0.0575334 0
M  V30 6120 N 603.065 -0.440357 1.51323 0
M  V30 6121 C 603.997 -1.55254 1.68609 0
M  V30 6122 C 605.01 -1.52614 0.566812 0
M  V30 6123 O 606.199 -1.57445 0.841032 0
M  V30 6124 C 603.299 -2.94169 1.68279 0
M  V30 6125 C 602.472 -3.21346 2.96742 0
M  V30 6126 C 601.531 -4.3997 2.8864 0
M  V30 6127 O 600.557 -4.38771 3.62586 0
M  V30 6128 N 601.759 -5.43367 2.04285 0
M  V30 6129 H 604.524 -1.40831 2.6455 0
M  V30 6130 H 602.085 -0.629251 1.49171 0
M  V30 6131 H 604.077 -3.71543 1.60431 0
M  V30 6132 H 602.647 -3.02205 0.799441 0
M  V30 6133 H 601.867 -2.32299 3.18482 0
M  V30 6134 H 603.155 -3.3633 3.81785 0
M  V30 6135 H 602.553 -5.47176 1.43578 0
M  V30 6136 H 601.11 -6.19605 2.02318 0
M  V30 6137 N 604.543 -1.41418 -0.695603 0
M  V30 6138 C 605.791 -1.40496 -1.45277 0
M  V30 6139 C 606.112 -0.0149538 -1.94994 0
M  V30 6140 O 605.382 0.9432 -1.71699 0
M  V30 6141 H 603.962 -0.517147 -0.539044 0
M  V30 6142 H 606.624 -1.76656 -0.823321 0
M  V30 6143 H 605.72 -2.09214 -2.31595 0
M  V30 6144 N 606.021 0.929856 -1.27246 0
M  V30 6145 C 606.984 2.01172 -1.09829 0
M  V30 6146 C 607.984 1.60743 -0.0429687 0
M  V30 6147 O 609.174 1.71813 -0.287373 0
M  V30 6148 C 606.306 3.34191 -0.673003 0
M  V30 6149 H 607.499 2.18054 -2.05895 0
M  V30 6150 H 605.052 1.11036 -1.10003 0
M  V30 6151 H 605.787 3.23009 0.289134 0
M  V30 6152 H 605.572 3.64892 -1.43515 0
M  V30 6153 H 607.062 4.13646 -0.573323 0
M  V30 6154 N 607.499 1.09233 1.13605 0
M  V30 6155 C 608.431 0.687794 2.18637 0
M  V30 6156 C 609.444 -0.26936 1.60556 0
M  V30 6157 O 610.633 -0.0557162 1.78413 0
M  V30 6158 C 607.733 -0.00751901 3.38899 0
M  V30 6159 C 606.906 0.97067 4.26494 0
M  V30 6160 C 605.965 0.309129 5.25291 0
M  V30 6161 O 604.991 0.956149 5.61112 0
M  V30 6162 N 606.193 -0.937555 5.72879 0
M  V30 6163 H 608.958 1.59141 2.53957 0
M  V30 6164 H 606.519 0.979515 1.28907 0
M  V30 6165 H 608.511 -0.461238 4.02063 0
M  V30 6166 H 607.081 -0.813353 3.01833 0
M  V30 6167 H 606.301 1.603 3.60135 0
M  V30 6168 H 607.589 1.63323 4.81875 0
M  V30 6169 H 606.987 -1.48281 5.4592 0
M  V30 6170 H 605.544 -1.33463 6.3799 0
M  V30 6171 N 608.977 -1.30795 0.87923 0
M  V30 6172 C 610.223 -1.96653 0.495519 0
M  V30 6173 C 610.556 -1.69282 -0.951703 0
M  V30 6174 O 609.831 -0.994374 -1.6716 0
M  V30 6175 C 610.114 -3.51898 0.764174 0
M  V30 6176 C 609.967 -3.88808 2.2616 0
M  V30 6177 C 611.286 -4.39462 0.236825 0
M  V30 6178 H 608.405 -0.7143 0.181507 0
M  V30 6179 H 611.047 -1.54765 1.10217 0
M  V30 6180 H 609.197 -3.87709 0.247841 0
M  V30 6181 H 610.869 -3.63051 2.8459 0
M  V30 6182 H 609.112 -3.37082 2.73053 0
M  V30 6183 H 609.783 -4.97086 2.4002 0
M  V30 6184 H 612.259 -4.10528 0.678683 0
M  V30 6185 H 611.135 -5.47018 0.454176 0
M  V30 6186 H 611.396 -4.33621 -0.861683 0
M  V30 6187 N 610.455 -0.639598 -1.44038 0
M  V30 6188 C 611.701 -0.156248 -2.02799 0
M  V30 6189 C 612.056 1.21145 -1.49471 0
M  V30 6190 O 611.349 1.79406 -0.672608 0
M  V30 6191 C 611.543 -0.0925348 -3.5728 0
M  V30 6192 C 611.372 -1.45252 -4.25596 0
M  V30 6193 C 610.142 -2.04145 -4.62226 0
M  V30 6194 C 612.34 -2.38812 -4.55492 0
M  V30 6195 N 610.322 -3.3329 -5.15549 0
M  V30 6196 C 611.693 -3.52578 -5.09989 0
M  V30 6197 C 613.748 -2.37785 -4.3745 0
M  V30 6198 C 612.451 -4.65525 -5.48342 0
M  V30 6199 C 614.477 -3.49802 -4.76857 0
M  V30 6200 C 613.839 -4.62292 -5.31475 0
M  V30 6201 H 609.938 -0.101292 -0.775412 0
M  V30 6202 H 612.522 -0.844938 -1.75411 0
M  V30 6203 H 610.693 0.565459 -3.84262 0
M  V30 6204 H 612.425 0.400426 -4.02714 0
M  V30 6205 H 609.18 -1.56999 -4.4682 0
M  V30 6206 H 609.604 -3.9934 -5.46678 0
M  V30 6207 H 614.246 -1.52061 -3.94509 0
M  V30 6208 H 611.964 -5.51951 -5.90233 0
M  V30 6209 H 615.55 -3.50193 -4.64603 0
M  V30 6210 H 614.43 -5.47536 -5.61403 0
M  V30 6211 N 611.933 1.52934 -0.380664 0
M  V30 6212 C 613.344 1.86457 0.0952684 0
M  V30 6213 C 613.695 1.3007 1.46889 0
M  V30 6214 O 612.82 0.628636 2.07068 0
M  V30 6215 C 613.415 3.38323 0.179648 0
M  V30 6216 C 611.974 3.71589 0.599858 0
M  V30 6217 C 611.121 2.76228 -0.243572 0
M  V30 6218 H 614.072 1.46966 -0.59888 0
M  V30 6219 H 614.093 3.67113 1.00042 0
M  V30 6220 H 613.605 3.79333 -0.820228 0
M  V30 6221 H 611.706 3.36144 1.60742 0
M  V30 6222 H 611.819 4.77715 0.364003 0
M  V30 6223 H 610.183 2.53045 0.289855 0
M  V30 6224 H 610.966 3.20074 -1.24127 0
M  V30 6225 N 613.412 0.11024 1.57214 0
M  V30 6226 C 614.359 -0.843195 2.14846 0
M  V30 6227 C 615.329 -1.26954 1.07107 0
M  V30 6228 O 616.514 -1.34861 1.34971 0
M  V30 6229 C 613.654 -2.09123 2.74521 0
M  V30 6230 C 612.767 -1.71404 3.96541 0
M  V30 6231 C 611.902 -2.91107 4.44331 0
M  V30 6232 C 610.941 -2.49586 5.58903 0
M  V30 6233 N 610.078 -3.62175 6.01477 0
M  V30 6234 H 614.918 -0.344886 2.95998 0
M  V30 6235 H 612.455 -0.15855 1.46243 0
M  V30 6236 H 614.413 -2.82234 3.07246 0
M  V30 6237 H 613.043 -2.56427 1.96074 0
M  V30 6238 H 612.095 -0.88201 3.70033 0
M  V30 6239 H 613.407 -1.36884 4.7965 0
M  V30 6240 H 612.561 -3.72454 4.78919 0
M  V30 6241 H 611.3 -3.28848 3.60153 0
M  V30 6242 H 610.305 -1.6667 5.23929 0
M  V30 6243 H 611.53 -2.12973 6.4484 0
M  V30 6244 H 609.476 -3.99605 5.20242 0
M  V30 6245 H 609.393 -3.3155 6.79419 0
M  V30 6246 H 610.661 -4.43987 6.407 0
M  V30 6247 N 614.89 -1.56749 -0.16351 0
M  V30 6248 C 615.82 -2.00042 -1.20438 0
M  V30 6249 C 616.801 -0.877256 -1.45733 0
M  V30 6250 O 617.986 -1.1439 -1.56935 0
M  V30 6251 C 615.116 -2.36697 -2.54149 0
M  V30 6252 C 614.07 -3.52046 -2.43408 0
M  V30 6253 C 613.396 -3.74466 -3.81679 0
M  V30 6254 C 614.696 -4.85247 -1.93216 0
M  V30 6255 H 616.39 -2.87244 -0.844477 0
M  V30 6256 H 613.936 -1.38194 -0.40478 0
M  V30 6257 H 615.889 -2.65582 -3.27176 0
M  V30 6258 H 614.613 -1.46414 -2.91943 0
M  V30 6259 H 613.272 -3.23301 -1.72834 0
M  V30 6260 H 612.92 -2.81461 -4.1688 0
M  V30 6261 H 612.62 -4.52084 -3.75359 0
M  V30 6262 H 614.144 -4.0576 -4.5628 0
M  V30 6263 H 615.558 -5.12957 -2.56023 0
M  V30 6264 H 613.955 -5.66556 -1.97825 0
M  V30 6265 H 615.025 -4.7672 -0.88689 0
M  V30 6266 N 616.368 0.432326 -1.51554 0
M  V30 6267 C 617.784 0.769195 -1.39841 0
M  V30 6268 C 617.984 1.95584 -0.484675 0
M  V30 6269 O 617.04 2.52433 0.0582829 0
M  V30 6270 C 618.353 1.04487 -2.81963 0
M  V30 6271 C 619.901 1.149 -2.91148 0
M  V30 6272 C 620.376 1.45758 -4.34187 0
M  V30 6273 N 621.867 1.52671 -4.37317 0
M  V30 6274 C 622.602 1.78129 -5.4503 0
M  V30 6275 N 622.098 2.01345 -6.62897 0
M  V30 6276 N 623.891 1.79953 -5.32516 0
M  V30 6277 H 616.042 -0.349122 -2.09511 0
M  V30 6278 H 618.305 -0.0938113 -0.943347 0
M  V30 6279 H 618.011 0.24557 -3.50842 0
M  V30 6280 H 617.885 1.97119 -3.21596 0
M  V30 6281 H 620.272 1.93891 -2.22464 0
M  V30 6282 H 620.353 0.201568 -2.55005 0
M  V30 6283 H 619.997 0.672917 -5.03423 0
M  V30 6284 H 619.927 2.41715 -4.67848 0
M  V30 6285 H 622.418 1.36612 -3.52343 0
M  V30 6286 H 622.731 2.20155 -7.40778 0
M  V30 6287 H 621.076 1.98657 -6.66003 0
M  V30 6288 H 624.267 1.61337 -4.39418 0
M  V30 6289 H 624.44 1.99455 -6.1654 0
M  V30 6290 N 617.846 1.41785 0.688094 0
M  V30 6291 C 619.092 1.41753 1.4503 0
M  V30 6292 C 619.425 0.0290745 1.94178 0
M  V30 6293 O 618.7 -0.944456 1.7003 0
M  V30 6294 C 618.983 2.43069 2.65686 0
M  V30 6295 C 618.836 3.91053 2.22256 0
M  V30 6296 C 620.155 2.41543 3.67893 0
M  V30 6297 H 617.274 0.516202 0.526027 0
M  V30 6298 H 619.916 1.73111 0.783105 0
M  V30 6299 H 618.066 2.1646 3.2261 0
M  V30 6300 H 619.738 4.28594 1.70602 0
M  V30 6301 H 617.981 4.05559 1.53963 0
M  V30 6302 H 618.652 4.57501 3.08863 0
M  V30 6303 H 621.128 2.65175 3.20658 0
M  V30 6304 H 620.004 3.14434 4.49914 0
M  V30 6305 H 620.265 1.43666 4.18106 0
M  V30 6306 N 619.324 -0.923095 1.27737 0
M  V30 6307 C 620.57 -1.67375 1.14514 0
M  V30 6308 C 620.903 -1.91751 -0.307424 0
M  V30 6309 O 620.178 -1.51119 -1.22447 0
M  V30 6310 C 620.461 -3.03745 1.9342 0
M  V30 6311 C 620.314 -2.86581 3.46686 0
M  V30 6312 C 621.633 -4.04144 1.74228 0
M  V30 6313 H 618.752 -0.607427 0.417374 0
M  V30 6314 H 621.394 -1.07089 1.56946 0
M  V30 6315 H 619.544 -3.55204 1.5736 0
M  V30 6316 H 621.216 -2.42203 3.92601 0
M  V30 6317 H 619.459 -2.21829 3.72793 0
M  V30 6318 H 620.13 -3.83381 3.97143 0
M  V30 6319 H 622.606 -3.61712 2.05678 0
M  V30 6320 H 621.482 -4.97543 2.31824 0
M  V30 6321 H 621.743 -4.36661 0.691373 0
M  V30 6322 N 620.802 -1.09834 -1.13024 0
M  V30 6323 C 622.03 -0.858902 -1.8823 0
M  V30 6324 C 622.445 0.590164 -1.79339 0
M  V30 6325 O 621.802 1.4065 -1.16292 0
M  V30 6326 C 621.853 -1.29066 -3.37675 0
M  V30 6327 O 621.574 -2.6829 -3.46341 0
M  V30 6328 C 623.075 -1.08421 -4.29837 0
M  V30 6329 H 620.295 -0.308713 -0.595766 0
M  V30 6330 H 622.839 -1.4614 -1.4305 0
M  V30 6331 H 620.994 -0.731961 -3.80422 0
M  V30 6332 H 621.408 -2.86598 -4.39274 0
M  V30 6333 H 622.882 -1.43553 -5.33007 0
M  V30 6334 H 623.359 -0.0223315 -4.39194 0
M  V30 6335 H 623.965 -1.62907 -3.92863 0
M  V30 6336 N 622.28 1.30327 -0.886154 0
M  V30 6337 C 623.21 2.30549 -0.370028 0
M  V30 6338 C 624.191 1.61039 0.547751 0
M  V30 6339 O 625.376 1.8864 0.461353 0
M  V30 6340 C 622.506 3.44808 0.415275 0
M  V30 6341 C 621.46 4.26024 -0.41085 0
M  V30 6342 C 620.786 5.32347 0.501128 0
M  V30 6343 C 622.086 4.95433 -1.65359 0
M  V30 6344 H 623.78 2.73969 -1.20754 0
M  V30 6345 H 621.326 1.3171 -0.582097 0
M  V30 6346 H 623.279 4.13986 0.78699 0
M  V30 6347 H 622.003 3.00197 1.28644 0
M  V30 6348 H 620.662 3.58535 -0.764719 0
M  V30 6349 H 620.31 4.83982 1.37004 0
M  V30 6350 H 620.01 5.87581 -0.0478356 0
M  V30 6351 H 621.534 6.0438 0.869333 0
M  V30 6352 H 622.948 5.5712 -1.35239 0
M  V30 6353 H 621.345 5.60537 -2.14284 0
M  V30 6354 H 622.415 4.21493 -2.39733 0
M  V30 6355 N 623.758 0.647228 1.43697 0
M  V30 6356 C 624.688 -0.0345631 2.33474 0
M  V30 6357 C 625.669 -0.818193 1.4913 0
M  V30 6358 O 626.854 -0.780867 1.77809 0
M  V30 6359 C 623.984 -1.00576 3.32418 0
M  V30 6360 C 622.938 -0.33266 4.26705 0
M  V30 6361 C 622.264 -1.41489 5.1564 0
M  V30 6362 C 623.564 0.771204 5.16575 0
M  V30 6363 H 625.258 0.715163 2.90733 0
M  V30 6364 H 622.804 0.345364 1.39797 0
M  V30 6365 H 624.757 -1.49159 3.94119 0
M  V30 6366 H 623.481 -1.78657 2.73403 0
M  V30 6367 H 622.14 0.13267 3.6636 0
M  V30 6368 H 621.788 -2.18698 4.52968 0
M  V30 6369 H 621.488 -0.969799 5.79542 0
M  V30 6370 H 623.012 -1.9022 5.80214 0
M  V30 6371 H 624.426 0.36779 5.72119 0
M  V30 6372 H 622.823 1.1404 5.89165 0
M  V30 6373 H 623.893 1.63169 4.56622 0
M  V30 6374 N 625.236 -1.5273 0.388769 0
M  V30 6375 C 626.146 -2.30165 -0.453993 0
M  V30 6376 C 627.162 -1.37058 -1.07197 0
M  V30 6377 O 628.338 -1.70127 -1.0779 0
M  V30 6378 C 625.403 -3.09303 -1.56628 0
M  V30 6379 C 624.464 -4.18117 -0.973467 0
M  V30 6380 C 623.697 -4.93472 -2.03275 0
M  V30 6381 O 623.92 -4.68913 -3.24772 0
M  V30 6382 O 622.854 -5.78833 -1.65034 0
M  V30 6383 H 626.68 -3.03185 0.176816 0
M  V30 6384 H 624.265 -1.4862 0.152501 0
M  V30 6385 H 626.147 -3.58648 -2.21246 0
M  V30 6386 H 624.822 -2.39098 -2.18206 0
M  V30 6387 H 623.729 -3.7297 -0.290556 0
M  V30 6388 H 625.062 -4.90556 -0.401908 0
M  V30 6389 N 626.714 -0.118576 -1.57153 0
M  V30 6390 C 627.664 0.842924 -2.11846 0
M  V30 6391 C 628.648 1.22845 -1.03914 0
M  V30 6392 O 629.84 1.19961 -1.30148 0
M  V30 6393 C 626.969 2.09312 -2.72109 0
M  V30 6394 C 626.055 1.73198 -3.87122 0
M  V30 6395 N 626.446 1.07758 -4.94188 0
M  V30 6396 C 624.744 2.02659 -3.97298 0
M  V30 6397 C 625.445 0.907741 -5.74574 0
M  V30 6398 N 624.421 1.4326 -5.24383 0
M  V30 6399 H 628.223 0.333416 -2.92003 0
M  V30 6400 H 625.737 0.0839073 -1.62183 0
M  V30 6401 H 627.734 2.79162 -3.09635 0
M  V30 6402 H 626.394 2.60807 -1.93416 0
M  V30 6403 H 627.405 0.741613 -5.12563 0
M  V30 6404 H 624.082 2.56204 -3.29645 0
M  V30 6405 H 625.472 0.394112 -6.70743 0
M  V30 6406 N 628.193 1.56834 0.155195 0
M  V30 6407 C 629.604 1.72421 0.716082 0
M  V30 6408 C 629.955 0.731685 1.82046 0
M  V30 6409 O 629.08 -0.103481 2.16152 0
M  V30 6410 C 629.675 3.12629 1.30571 0
M  V30 6411 C 628.234 3.29846 1.81325 0
M  V30 6412 C 627.381 2.68359 0.698494 0
M  V30 6413 H 630.332 1.58544 -0.0703861 0
M  V30 6414 H 630.353 3.12174 2.1755 0
M  V30 6415 H 629.865 3.84844 0.501701 0
M  V30 6416 H 627.966 2.62614 2.64319 0
M  V30 6417 H 628.079 4.37727 1.9476 0
M  V30 6418 H 626.443 2.28604 1.12305 0
M  V30 6419 H 627.226 3.43171 -0.0939366 0
M  V30 6420 N 629.671 -0.424282 1.51781 0
M  V30 6421 C 630.918 -1.1726 1.65095 0
M  V30 6422 C 631.246 -1.90881 0.373477 0
M  V30 6423 O 630.501 -1.84835 -0.642997 0
M  V30 6424 C 630.8 -2.20418 2.81337 0
M  V30 6425 C 630.466 -1.63715 4.20129 0
M  V30 6426 C 629.128 -1.47975 4.57883 0
M  V30 6427 C 631.48 -1.22157 5.06682 0
M  V30 6428 C 628.808 -0.891703 5.79884 0
M  V30 6429 C 631.16 -0.647767 6.29275 0
M  V30 6430 C 629.824 -0.477371 6.65791 0
M  V30 6431 H 629.094 -0.429085 0.604125 0
M  V30 6432 H 631.741 -0.461852 1.85847 0
M  V30 6433 H 630.046 -2.97581 2.54859 0
M  V30 6434 H 631.743 -2.78163 2.88836 0
M  V30 6435 H 628.333 -1.76946 3.90369 0
M  V30 6436 H 632.517 -1.33133 4.7811 0
M  V30 6437 H 627.773 -0.747563 6.06813 0
M  V30 6438 H 631.947 -0.317291 6.95677 0
M  V30 6439 H 629.574 -0.0195936 7.60197 0
M  V30 6440 N 631.149 -1.42148 -0.680565 0
M  V30 6441 C 632.395 -1.42521 -1.44277 0
M  V30 6442 C 632.728 -0.0393718 -1.9416 0
M  V30 6443 O 632.003 0.935425 -1.70529 0
M  V30 6444 C 632.286 -2.44475 -2.64394 0
M  V30 6445 C 632.139 -3.92226 -2.20179 0
M  V30 6446 C 633.458 -2.43491 -3.66606 0
M  V30 6447 H 630.577 -0.518985 -0.523282 0
M  V30 6448 H 633.219 -1.73524 -0.773914 0
M  V30 6449 H 631.369 -2.18168 -3.21458 0
M  V30 6450 H 633.041 -4.29493 -1.68327 0
M  V30 6451 H 631.284 -4.0637 -1.5181 0
M  V30 6452 H 631.955 -4.59133 -3.06433 0
M  V30 6453 H 634.431 -2.66872 -3.19247 0
M  V30 6454 H 633.307 -3.16816 -4.4824 0
M  V30 6455 H 633.568 -1.45881 -4.17338 0
M  V30 6456 N 632.627 0.916307 -1.28225 0
M  V30 6457 C 633.874 1.66518 -1.1523 0
M  V30 6458 C 634.202 1.92178 0.299632 0
M  V30 6459 O 633.457 1.51842 1.2346 0
M  V30 6460 C 633.756 3.03125 -1.8934 0
M  V30 6461 C 633.422 2.97135 -3.39148 0
M  V30 6462 C 632.084 2.95208 -3.80007 0
M  V30 6463 C 634.436 2.87574 -4.34685 0
M  V30 6464 C 631.764 2.81518 -5.14747 0
M  V30 6465 C 634.116 2.75424 -5.69495 0
M  V30 6466 C 632.78 2.71854 -6.09632 0
M  V30 6467 H 632.05 0.609334 -0.421655 0
M  V30 6468 H 634.697 1.06776 -1.58969 0
M  V30 6469 H 633.002 3.66639 -1.38143 0
M  V30 6470 H 634.699 3.59968 -1.76704 0
M  V30 6471 H 631.289 2.99428 -3.06661 0
M  V30 6472 H 635.473 2.88152 -4.04082 0
M  V30 6473 H 630.729 2.77148 -5.44976 0
M  V30 6474 H 634.903 2.66993 -6.43185 0
M  V30 6475 H 632.53 2.61003 -7.1399 0
M  V30 6476 N 634.105 1.10431 1.1244 0
M  V30 6477 C 635.068 0.756542 2.16354 0
M  V30 6478 C 636.068 -0.21899 1.59302 0
M  V30 6479 O 637.258 0.00415969 1.742 0
M  V30 6480 C 634.39 0.120612 3.40687 0
M  V30 6481 H 635.583 1.67696 2.48632 0
M  V30 6482 H 633.136 0.904832 1.27446 0
M  V30 6483 H 633.871 -0.810536 3.14008 0
M  V30 6484 H 633.656 0.822693 3.83372 0
M  V30 6485 H 635.146 -0.106945 4.17463 0
M  V30 6486 N 635.583 -1.29855 0.893053 0
M  V30 6487 C 636.999 -1.48366 0.588199 0
M  V30 6488 C 637.199 -1.81654 -0.872018 0
M  V30 6489 O 636.255 -1.909 -1.65268 0
M  V30 6490 C 637.568 -2.60136 1.5083 0
M  V30 6491 C 639.116 -2.74014 1.51279 0
M  V30 6492 C 639.591 -3.88905 2.41902 0
M  V30 6493 N 641.082 -3.96228 2.39911 0
M  V30 6494 C 641.817 -4.84458 3.06738 0
M  V30 6495 N 641.313 -5.77426 3.8282 0
M  V30 6496 N 643.106 -4.77894 2.95929 0
M  V30 6497 H 635.257 -1.06522 1.83757 0
M  V30 6498 H 637.52 -0.528495 0.787018 0
M  V30 6499 H 637.226 -2.42383 2.54839 0
M  V30 6500 H 637.1 -3.56793 1.22388 0
M  V30 6501 H 639.487 -2.91167 0.480179 0
M  V30 6502 H 639.568 -1.77952 1.83757 0
M  V30 6503 H 639.212 -3.72508 3.45253 0
M  V30 6504 H 639.142 -4.84322 2.06737 0
M  V30 6505 H 641.633 -3.29728 1.84629 0
M  V30 6506 H 641.946 -6.41529 4.30883 0
M  V30 6507 H 640.291 -5.77332 3.86927 0
M  V30 6508 H 643.482 -4.04248 2.36012 0
M  V30 6509 H 643.655 -5.46444 3.48286 0
M  V30 6510 N 637.061 -0.65484 -1.43351 0
M  V30 6511 C 638.338 -0.0987371 -1.95351 0
M  V30 6512 C 638.718 1.38161 -1.59608 0
M  V30 6513 O 638.066 2.10791 -0.882021 0
M  V30 6514 C 638.276 -0.346684 -3.47274 0
M  V30 6515 C 639.624 -0.25249 -4.23849 0
M  V30 6516 O 640.648 -0.279332 -3.55103 0
M  V30 6517 O 639.507 -0.177584 -5.46211 0
M  V30 6518 H 636.601 0.0086829 -0.826954 0
M  V30 6519 H 639.147 -0.728189 -1.53282 0
M  V30 6520 H 637.919 -1.37296 -3.66423 0
M  V30 6521 H 637.542 0.315757 -3.96344 0
M  V30 6522 N 638.539 1.52521 -0.396863 0
M  V30 6523 C 639.95 1.86547 0.0754868 0
M  V30 6524 C 640.301 1.31621 1.45501 0
M  V30 6525 O 639.426 0.650563 2.0639 0
M  V30 6526 C 640.021 3.38495 0.143754 0
M  V30 6527 C 638.58 3.72205 0.560413 0
M  V30 6528 C 637.727 2.75954 -0.272856 0
M  V30 6529 H 640.678 1.46323 -0.614434 0
M  V30 6530 H 640.699 3.68153 0.961425 0
M  V30 6531 H 640.211 3.78442 -0.860415 0
M  V30 6532 H 638.312 3.3783 1.57167 0
M  V30 6533 H 638.425 4.78074 0.313314 0
M  V30 6534 H 636.789 2.53339 0.263 0
M  V30 6535 H 637.572 3.1874 -1.27515 0
M  V30 6536 N 640.017 0.126909 1.57088 0
M  V30 6537 C 641.294 -0.573152 1.87014 0
M  V30 6538 C 641.674 -1.84297 1.02945 0
M  V30 6539 O 641.022 -2.28232 0.110573 0
M  V30 6540 C 641.232 -0.857984 3.38289 0
M  V30 6541 C 642.58 -1.20759 4.07066 0
M  V30 6542 O 643.604 -0.947992 3.43353 0
M  V30 6543 O 642.463 -1.69516 5.19545 0
M  V30 6544 H 639.557 -0.290082 0.774456 0
M  V30 6545 H 642.103 0.162008 1.68925 0
M  V30 6546 H 640.875 0.0415286 3.91278 0
M  V30 6547 H 640.498 -1.64803 3.61837 0
M  V30 6548 N 641.495 -1.56914 -0.146875 0
M  V30 6549 C 642.405 -2.0154 -1.20079 0
M  V30 6550 C 643.421 -0.930838 -1.47008 0
M  V30 6551 O 644.597 -1.24032 -1.58676 0
M  V30 6552 C 641.662 -2.38715 -2.51428 0
M  V30 6553 C 640.723 -3.6112 -2.32145 0
M  V30 6554 C 639.956 -3.96512 -3.57231 0
M  V30 6555 O 640.179 -3.32566 -4.63418 0
M  V30 6556 O 639.113 -4.89758 -3.49887 0
M  V30 6557 H 642.939 -2.91506 -0.851924 0
M  V30 6558 H 640.524 -1.45106 -0.355607 0
M  V30 6559 H 642.406 -2.63485 -3.28867 0
M  V30 6560 H 641.081 -1.51903 -2.85845 0
M  V30 6561 H 639.988 -3.41536 -1.52656 0
M  V30 6562 H 641.321 -4.48549 -2.02644 0
M  V30 6563 N 642.974 0.416227 -1.52004 0
M  V30 6564 C 644.251 1.17637 -1.56272 0
M  V30 6565 C 644.631 2.08352 -0.339493 0
M  V30 6566 O 643.979 2.1833 0.674124 0
M  V30 6567 C 644.189 1.95986 -2.88774 0
M  V30 6568 C 645.537 2.52299 -3.41512 0
M  V30 6569 O 646.561 2.06174 -2.90467 0
M  V30 6570 O 645.42 3.3648 -4.30631 0
M  V30 6571 H 642.514 0.536726 -0.629169 0
M  V30 6572 H 645.06 0.423583 -1.64329 0
M  V30 6573 H 643.832 1.29487 -3.69254 0
M  V30 6574 H 643.455 2.78285 -2.83978 0
M  V30 6575 N 644.452 1.42507 0.673017 0
M  V30 6576 C 645.7 1.42789 1.43023 0
M  V30 6577 C 646.021 0.0459738 1.94946 0
M  V30 6578 O 645.291 -0.915765 1.73178 0
M  V30 6579 H 643.871 0.525657 0.530748 0
M  V30 6580 H 646.533 1.77944 0.795113 0
M  V30 6581 H 645.629 2.12872 2.28237 0
M  V30 6582 N 645.93 -0.909495 1.28709 0
M  V30 6583 C 646.862 -2.01729 1.08804 0
M  V30 6584 C 647.875 -1.62755 0.0384739 0
M  V30 6585 O 649.064 -1.76259 0.281977 0
M  V30 6586 C 646.164 -3.32952 0.63217 0
M  V30 6587 C 645.337 -4.00512 1.75809 0
M  V30 6588 C 644.396 -5.10019 1.29488 0
M  V30 6589 O 643.422 -5.32986 1.99787 0
M  V30 6590 N 644.624 -5.80278 0.1604 0
M  V30 6591 H 647.389 -2.19362 2.04207 0
M  V30 6592 H 644.95 -1.08106 1.20518 0
M  V30 6593 H 646.942 -4.03543 0.305802 0
M  V30 6594 H 645.512 -3.11759 -0.229134 0
M  V30 6595 H 644.732 -3.23413 2.25383 0
M  V30 6596 H 646.02 -4.42395 2.51325 0
M  V30 6597 H 645.418 -5.64094 -0.425937 0
M  V30 6598 H 643.975 -6.51713 -0.106663 0
M  V30 6599 N 647.408 -1.11026 -1.11852 0
M  V30 6600 C 648.648 -0.866348 -1.85132 0
M  V30 6601 C 649.012 0.597236 -1.82475 0
M  V30 6602 O 650.213 0.957744 -2.51159 0
M  V30 6603 C 648.484 -1.40721 -3.28531 0
M  V30 6604 S 650.043 -1.29964 -4.19112 0
M  V30 6605 H 646.861 -0.312899 -0.638447 0
M  V30 6606 H 649.463 -1.41691 -1.34699 0
M  V30 6607 H 648.167 -2.46631 -3.28027 0
M  V30 6608 H 647.698 -0.85349 -3.8403 0
M  V30 6609 H 649.713 -0.261333 -4.95511 0
M  V30 6610 N 648.886 1.2938 -0.899927 0
M  V30 6611 C 650.297 1.77644 -0.574427 0
M  V30 6612 C 650.648 1.73824 0.909928 0
M  V30 6613 O 649.773 1.32429 1.71147 0
M  V30 6614 C 650.368 3.22573 -1.03595 0
M  V30 6615 C 648.927 3.68614 -0.76161 0
M  V30 6616 C 648.074 2.49483 -1.21052 0
M  V30 6617 H 651.025 1.16038 -1.08263 0
M  V30 6618 H 651.046 3.78684 -0.371337 0
M  V30 6619 H 650.558 3.25321 -2.11631 0
M  V30 6620 H 648.659 3.7134 0.306127 0
M  V30 6621 H 648.772 4.59402 -1.35965 0
M  V30 6622 H 647.136 2.46798 -0.629515 0
M  V30 6623 H 647.919 2.54959 -2.29893 0
M  V30 6624 N 650.364 0.662433 1.43002 0
M  V30 6625 C 651.327 -0.0142016 2.29196 0
M  V30 6626 C 652.327 -0.741394 1.42688 0
M  V30 6627 O 653.517 -0.581257 1.64216 0
M  V30 6628 C 650.649 -1.03084 3.24941 0
M  V30 6629 H 651.842 0.7443 2.90517 0
M  V30 6630 H 649.395 0.424133 1.50435 0
M  V30 6631 H 650.13 -1.81826 2.68533 0
M  V30 6632 H 649.915 -0.512946 3.8873 0
M  V30 6633 H 651.405 -1.50308 3.89612 0
M  V30 6634 N 651.842 -1.52309 0.404946 0
M  V30 6635 C 653.09 -2.01368 -0.17186 0
M  V30 6636 C 653.411 -1.29261 -1.46002 0
M  V30 6637 O 652.681 -0.41729 -1.91404 0
M  V30 6638 H 651.261 -0.744034 -0.0664993 0
M  V30 6639 H 653.923 -1.87263 0.540228 0
M  V30 6640 H 653.019 -3.09888 -0.370957 0
M  V30 6641 N 653.32 -0.135238 -1.57019 0
M  V30 6642 C 654.252 0.839675 -2.13265 0
M  V30 6643 C 655.265 1.21887 -1.07923 0
M  V30 6644 O 656.454 1.16499 -1.35241 0
M  V30 6645 C 653.554 2.13647 -2.63075 0
M  V30 6646 C 652.727 1.92646 -3.92691 0
M  V30 6647 C 651.786 3.06205 -4.27931 0
M  V30 6648 O 650.812 2.78409 -4.96465 0
M  V30 6649 N 652.014 4.33072 -3.86561 0
M  V30 6650 H 654.779 0.359026 -2.97542 0
M  V30 6651 H 652.34 0.0486979 -1.61827 0
M  V30 6652 H 654.332 2.88641 -2.8367 0
M  V30 6653 H 652.902 2.5301 -1.83588 0
M  V30 6654 H 652.122 1.01754 -3.80841 0
M  V30 6655 H 653.41 1.75939 -4.77413 0
M  V30 6656 H 652.808 4.58526 -3.31316 0
M  V30 6657 H 651.365 5.04885 -4.12231 0
M  V30 6658 N 654.798 1.5699 0.138552 0
M  V30 6659 C 655.728 2.01933 1.17241 0
M  V30 6660 C 656.709 0.90033 1.44319 0
M  V30 6661 O 657.894 1.16872 1.55095 0
M  V30 6662 C 655.024 2.40711 2.50351 0
M  V30 6663 C 653.978 3.55874 2.37776 0
M  V30 6664 C 653.304 3.80491 3.75674 0
M  V30 6665 C 654.604 4.8826 1.85472 0
M  V30 6666 H 656.298 2.88551 0.798672 0
M  V30 6667 H 653.844 1.3882 0.382743 0
M  V30 6668 H 655.797 2.70754 3.22909 0
M  V30 6669 H 654.521 1.5104 2.89576 0
M  V30 6670 H 653.18 3.2601 1.67669 0
M  V30 6671 H 652.828 2.88057 4.12349 0
M  V30 6672 H 652.528 4.57998 3.68119 0
M  V30 6673 H 654.052 4.12967 4.49767 0
M  V30 6674 H 655.466 5.16965 2.4783 0
M  V30 6675 H 653.863 5.69631 1.88787 0
M  V30 6676 H 654.933 4.78071 0.810935 0
M  V30 6677 N 656.276 -0.40816 1.52223 0
M  V30 6678 C 657.516 -1.16418 1.68006 0
M  V30 6679 C 657.88 -1.87749 0.401793 0
M  V30 6680 O 659.081 -2.65245 0.435743 0
M  V30 6681 C 657.352 -2.13143 2.86889 0
M  V30 6682 S 658.911 -2.96839 3.2316 0
M  V30 6683 H 655.729 -0.394373 0.5916 0
M  V30 6684 H 658.331 -0.451349 1.90219 0
M  V30 6685 H 657.035 -1.59428 3.78168 0
M  V30 6686 H 656.566 -2.88963 2.66953 0
M  V30 6687 H 658.581 -4.151 2.71857 0
M  V30 6688 N 657.755 -1.42862 -0.66545 0
M  V30 6689 C 658.685 -1.49867 -1.79059 0
M  V30 6690 C 659.666 -0.354394 -1.66367 0
M  V30 6691 O 660.851 -0.569969 -1.85647 0
M  V30 6692 C 657.981 -1.40943 -3.17415 0
M  V30 6693 C 656.935 -2.53495 -3.44854 0
M  V30 6694 C 656.261 -2.29626 -4.82883 0
M  V30 6695 C 657.561 -3.95781 -3.40815 0
M  V30 6696 H 659.255 -2.44037 -1.73453 0
M  V30 6697 H 656.801 -1.17456 -0.833071 0
M  V30 6698 H 658.754 -1.4445 -3.95869 0
M  V30 6699 H 657.478 -0.432716 -3.23721 0
M  V30 6700 H 656.137 -2.4932 -2.68766 0
M  V30 6701 H 655.785 -1.30226 -4.8585 0
M  V30 6702 H 655.485 -3.05065 -5.02204 0
M  V30 6703 H 657.009 -2.34897 -5.63609 0
M  V30 6704 H 658.423 -4.01508 -4.09224 0
M  V30 6705 H 656.82 -4.71148 -3.71672 0
M  V30 6706 H 657.89 -4.21786 -2.39216 0
M  V30 6707 N 659.233 0.902656 -1.29189 0
M  V30 6708 C 660.51 1.63296 -1.07674 0
M  V30 6709 C 660.89 2.07649 0.380137 0
M  V30 6710 O 660.238 1.82997 1.36837 0
M  V30 6711 C 660.448 2.81603 -2.06158 0
M  V30 6712 C 661.796 3.52359 -2.36914 0
M  V30 6713 O 662.82 2.91767 -2.04329 0
M  V30 6714 O 661.679 4.61586 -2.92576 0
M  V30 6715 H 658.773 0.716889 -0.41231 0
M  V30 6716 H 661.319 0.950984 -1.4055 0
M  V30 6717 H 660.091 2.46004 -3.04299 0
M  V30 6718 H 659.714 3.57508 -1.73993 0
M  V30 6719 N 660.711 1.11618 1.11262 0
M  V30 6720 C 662.122 0.881942 1.64556 0
M  V30 6721 C 662.473 -0.585442 1.87262 0
M  V30 6722 O 661.598 -1.44795 1.60821 0
M  V30 6723 C 662.193 1.59446 2.98935 0
M  V30 6724 C 660.752 1.40661 3.4913 0
M  V30 6725 C 659.899 1.63593 2.23903 0
M  V30 6726 H 662.85 1.27217 0.94877 0
M  V30 6727 H 662.871 1.04054 3.65996 0
M  V30 6728 H 662.383 2.66241 2.82378 0
M  V30 6729 H 660.484 0.360835 3.70849 0
M  V30 6730 H 660.597 2.15693 4.27801 0
M  V30 6731 H 658.961 1.05944 2.3162 0
M  V30 6732 H 659.744 2.71666 2.09886 0
M  V30 6733 N 662.189 -1.289 0.906776 0
M  V30 6734 C 663.437 -1.94883 0.535266 0
M  V30 6735 C 663.758 -1.71784 -0.922791 0
M  V30 6736 O 663.028 -1.05359 -1.65156 0
M  V30 6737 H 661.608 -0.721109 0.194962 0
M  V30 6738 H 664.27 -1.57018 1.15461 0
M  V30 6739 H 663.366 -3.03591 0.723821 0
M  V30 6740 N 663.667 -0.670007 -1.42649 0
M  V30 6741 C 664.895 -0.19854 -2.05945 0
M  V30 6742 C 665.31 1.14243 -1.50313 0
M  V30 6743 O 664.667 1.70872 -0.641027 0
M  V30 6744 C 664.718 -0.11966 -3.61302 0
M  V30 6745 O 664.439 -1.40764 -4.1487 0
M  V30 6746 C 665.94 0.375878 -4.41704 0
M  V30 6747 H 663.16 -0.0976894 -0.663851 0
M  V30 6748 H 665.704 -0.915392 -1.82868 0
M  V30 6749 H 663.859 0.547851 -3.83507 0
M  V30 6750 H 664.273 -1.27784 -5.08696 0
M  V30 6751 H 665.747 0.379988 -5.50691 0
M  V30 6752 H 666.224 1.41028 -4.15942 0
M  V30 6753 H 666.83 -0.259727 -4.24506 0
M  V30 6754 N 665.145 1.52092 -0.413018 0
M  V30 6755 C 666.093 2.28681 0.425199 0
M  V30 6756 C 667.087 1.3353 1.04241 0
M  V30 6757 O 668.293 1.50973 0.980166 0
M  V30 6758 H 664.668 0.735661 0.155906 0
M  V30 6759 H 666.639 2.97418 -0.241926 0
M  V30 6760 C 665.388 3.1235 1.5275 0
M  V30 6761 H 664.711 3.85439 1.06191 0
M  V30 6762 H 666.151 3.69038 2.08774 0
M  V30 6763 C 664.61 2.26161 2.49706 0
M  V30 6764 O 665.14 1.90452 3.53682 0
M  V30 6765 N 663.346 1.89854 2.20008 0
M  V30 6766 H 662.893 2.19092 1.35486 0
M  V30 6767 H 662.851 1.3248 2.85125 0
M  V30 6768 N 666.623 0.143563 1.56945 0
M  V30 6769 C 667.9 -0.553285 1.87612 0
M  V30 6770 C 668.28 -1.83195 1.04894 0
M  V30 6771 O 667.628 -2.28102 0.134773 0
M  V30 6772 C 667.838 -0.822055 3.3918 0
M  V30 6773 C 669.186 -1.16435 4.08324 0
M  V30 6774 O 670.21 -0.911522 3.4434 0
M  V30 6775 O 669.069 -1.63996 5.21313 0
M  V30 6776 H 666.163 -0.281851 0.777489 0
M  V30 6777 H 668.709 0.179916 1.68744 0
M  V30 6778 H 667.481 0.0830265 3.91212 0
M  V30 6779 H 667.104 -1.60956 3.63564 0
M  V30 6780 N 668.101 -1.57061 -0.130224 0
M  V30 6781 C 669.326 -1.88802 -0.858409 0
M  V30 6782 C 669.751 -0.734353 -1.73173 0
M  V30 6783 O 669.109 0.315529 -1.78533 0
M  V30 6784 C 669.157 -3.19228 -1.67708 0
M  V30 6785 O 668.261 -3.04343 -2.78297 0
M  V30 6786 H 667.602 -0.619849 -0.238083 0
M  V30 6787 H 670.132 -2.04271 -0.115995 0
M  V30 6788 H 670.142 -3.51669 -2.06864 0
M  V30 6789 H 668.817 -4.02793 -1.0359 0
M  V30 6790 H 667.394 -2.83346 -2.42425 0
M  V30 6791 N 669.579 0.400081 -1.52437 0
M  V30 6792 C 670.542 1.4707 -1.75793 0
M  V30 6793 C 671.542 1.48036 -0.627856 0
M  V30 6794 O 672.732 1.49401 -0.895817 0
M  V30 6795 C 669.864 2.86427 -1.84858 0
M  V30 6796 H 671.057 1.27649 -2.71377 0
M  V30 6797 H 668.61 0.631141 -1.42991 0
M  V30 6798 H 669.345 3.11207 -0.912194 0
M  V30 6799 H 669.13 2.87128 -2.6702 0
M  V30 6800 H 670.62 3.64023 -2.04638 0
M  V30 6801 N 671.057 1.43213 0.657864 0
M  V30 6802 C 672.285 1.48015 1.44566 0
M  V30 6803 C 672.7 0.0965951 1.88553 0
M  V30 6804 O 672.057 -0.892221 1.59203 0
M  V30 6805 C 672.108 2.42199 2.68369 0
M  V30 6806 O 671.829 3.75173 2.26223 0
M  V30 6807 C 673.33 2.56195 3.61772 0
M  V30 6808 H 670.55 0.502861 0.444266 0
M  V30 6809 H 673.094 1.87907 0.806917 0
M  V30 6810 H 671.249 2.05514 3.28394 0
M  V30 6811 H 671.663 4.25776 3.06293 0
M  V30 6812 H 673.137 3.26182 4.4532 0
M  V30 6813 H 673.614 1.60534 4.0881 0
M  V30 6814 H 674.22 2.93671 3.07632 0
M  V30 6815 N 672.536 -0.895792 1.29666 0
M  V30 6816 C 673.466 -2.01673 1.17688 0
M  V30 6817 C 674.447 -1.69955 0.0701317 0
M  V30 6818 O 675.632 -1.9258 0.250289 0
M  V30 6819 C 672.762 -3.36568 0.856681 0
M  V30 6820 C 671.716 -3.82509 1.92017 0
M  V30 6821 C 671.042 -5.14574 1.4532 0
M  V30 6822 C 672.342 -4.02409 3.32963 0
M  V30 6823 H 674.036 -2.11953 2.11463 0
M  V30 6824 H 671.582 -1.01839 1.01807 0
M  V30 6825 H 673.535 -4.14498 0.759577 0
M  V30 6826 H 672.259 -3.26391 -0.116763 0
M  V30 6827 H 670.918 -3.068 2.00673 0
M  V30 6828 H 670.566 -5.00815 0.468325 0
M  V30 6829 H 670.266 -5.46283 2.16447 0
M  V30 6830 H 671.79 -5.9504 1.36968 0
M  V30 6831 H 673.204 -4.70808 3.27127 0
M  V30 6832 H 671.601 -4.45478 4.02082 0
M  V30 6833 H 672.671 -3.06616 3.75652 0
M  V30 6834 N 674.014 -1.12206 -1.10668 0
M  V30 6835 C 675.291 -0.787382 -1.79052 0
M  V30 6836 C 675.671 0.723267 -1.98323 0
M  V30 6837 O 675.019 1.6561 -1.57434 0
M  V30 6838 C 675.229 -1.55968 -3.1221 0
M  V30 6839 C 676.577 -1.74413 -3.87125 0
M  V30 6840 O 677.601 -1.5246 -3.21923 0
M  V30 6841 O 676.46 -2.10952 -5.04144 0
M  V30 6842 H 673.554 -0.286137 -0.775922 0
M  V30 6843 H 676.1 -1.22595 -1.1734 0
M  V30 6844 H 674.872 -2.58692 -2.93588 0
M  V30 6845 H 674.495 -1.1152 -3.8164 0
M  V30 6846 N 675.492 1.28418 -0.913599 0
M  V30 6847 C 676.455 2.25564 -0.406624 0
M  V30 6848 C 677.455 1.5387 0.466965 0
M  V30 6849 O 678.645 1.72094 0.270042 0
M  V30 6850 C 675.777 3.38339 0.417053 0
M  V30 6851 H 676.97 2.71926 -1.26477 0
M  V30 6852 H 674.523 1.40098 -0.692986 0
M  V30 6853 H 675.258 2.97339 1.29461 0
M  V30 6854 H 675.043 3.91542 -0.209102 0
M  V30 6855 H 676.533 4.10578 0.762602 0
M  V30 6856 N 676.97 0.677563 1.42291 0
M  V30 6857 C 677.9 0.014968 2.33495 0
M  V30 6858 C 678.881 -0.786376 1.50831 0
M  V30 6859 O 680.066 -0.742975 1.79426 0
M  V30 6860 C 677.196 -0.935023 3.34477 0
M  V30 6861 C 676.15 -0.242074 4.27315 0
M  V30 6862 C 675.476 -1.30519 5.18526 0
M  V30 6863 C 676.776 0.880604 5.14823 0
M  V30 6864 H 678.47 0.776671 2.89151 0
M  V30 6865 H 676.016 0.37494 1.39033 0
M  V30 6866 H 677.969 -1.40766 3.97194 0
M  V30 6867 H 676.693 -1.72818 2.77131 0
M  V30 6868 H 675.352 0.210351 3.65996 0
M  V30 6869 H 675 -2.09041 4.57505 0
M  V30 6870 H 674.7 -0.846652 5.81468 0
M  V30 6871 H 676.224 -1.7787 5.84119 0
M  V30 6872 H 677.638 0.489062 5.7121 0
M  V30 6873 H 676.035 1.26511 5.86613 0
M  V30 6874 H 677.105 1.72818 4.53059 0
M  V30 6875 N 678.448 -1.51871 0.421078 0
M  V30 6876 C 679.695 -2.01938 -0.15079 0
M  V30 6877 C 680.023 -1.30611 -1.44121 0
M  V30 6878 O 679.278 -0.404631 -1.91471 0
M  V30 6879 C 679.577 -3.54764 -0.433292 0
M  V30 6880 C 679.243 -4.44288 0.76936 0
M  V30 6881 C 677.905 -4.68477 1.09921 0
M  V30 6882 C 680.257 -4.96915 1.57242 0
M  V30 6883 C 677.585 -5.4254 2.2331 0
M  V30 6884 C 679.937 -5.7222 2.69716 0
M  V30 6885 C 678.601 -5.94678 3.03174 0
M  V30 6886 H 677.871 -0.738943 -0.0551781 0
M  V30 6887 H 680.518 -1.82977 0.564945 0
M  V30 6888 H 678.823 -3.71968 -1.23074 0
M  V30 6889 H 680.52 -3.91023 -0.888922 0
M  V30 6890 H 677.11 -4.25646 0.502305 0
M  V30 6891 H 681.294 -4.78125 1.3308 0
M  V30 6892 H 676.55 -5.58146 2.49565 0
M  V30 6893 H 680.724 -6.11992 3.32323 0
M  V30 6894 H 678.351 -6.51848 3.9115 0
M  V30 6895 N 679.926 -0.151884 -1.56866 0
M  V30 6896 C 680.889 0.771861 -2.15812 0
M  V30 6897 C 681.889 1.17181 -1.10115 0
M  V30 6898 O 683.079 1.09194 -1.35729 0
M  V30 6899 C 680.211 2.04806 -2.7252 0
M  V30 6900 H 681.404 0.259021 -2.98779 0
M  V30 6901 H 678.957 0.097588 -1.55995 0
M  V30 6902 H 679.692 2.60445 -1.93233 0
M  V30 6903 H 679.477 1.77044 -3.49854 0
M  V30 6904 H 680.967 2.70771 -3.1792 0
M  V30 6905 N 681.404 1.57128 0.121893 0
M  V30 6906 C 682.367 1.99197 1.13372 0
M  V30 6907 C 683.367 0.881728 1.3447 0
M  V30 6908 O 684.557 1.14783 1.31036 0
M  V30 6909 C 681.689 2.32963 2.4888 0
M  V30 6910 H 682.882 2.89788 0.772204 0
M  V30 6911 H 680.435 1.51952 0.366093 0
M  V30 6912 H 681.17 1.45243 2.89957 0
M  V30 6913 H 680.955 3.13934 2.34921 0
M  V30 6914 H 682.445 2.66261 3.21706 0
M  V30 6915 N 682.882 -0.391992 1.52647 0
M  V30 6916 C 683.812 -1.48517 1.8018 0
M  V30 6917 C 684.793 -1.57039 0.653667 0
M  V30 6918 O 685.978 -1.72036 0.900962 0
M  V30 6919 C 683.108 -2.86161 1.96797 0
M  V30 6920 C 682.062 -2.92481 3.12472 0
M  V30 6921 C 681.388 -4.32546 3.14338 0
M  V30 6922 C 682.688 -2.624 4.51601 0
M  V30 6923 H 684.382 -1.25726 2.71723 0
M  V30 6924 H 681.928 -0.603387 1.30749 0
M  V30 6925 H 683.881 -3.62639 2.14641 0
M  V30 6926 H 682.605 -3.10283 1.01941 0
M  V30 6927 H 681.264 -2.18451 2.94406 0
M  V30 6928 H 680.912 -4.53703 2.1717 0
M  V30 6929 H 680.612 -4.37695 3.92042 0
M  V30 6930 H 682.136 -5.10934 3.34333 0
M  V30 6931 H 683.55 -3.28596 4.69785 0
M  V30 6932 H 681.947 -2.78903 5.3135 0
M  V30 6933 H 683.017 -1.57754 4.58521 0
M  V30 6934 N 684.36 -1.4356 -0.65026 0
M  V30 6935 C 685.323 -1.48615 -1.74489 0
M  V30 6936 C 686.323 -0.370483 -1.56474 0
M  V30 6937 O 687.513 -0.632351 -1.62317 0
M  V30 6938 C 684.645 -1.34161 -3.13391 0
M  V30 6939 H 685.838 -2.46103 -1.71387 0
M  V30 6940 H 683.391 -1.30369 -0.862186 0
M  V30 6941 H 684.126 -0.376918 -3.22102 0
M  V30 6942 H 683.911 -2.1504 -3.27872 0
M  V30 6943 H 685.401 -1.40637 -3.93206 0
M  V30 6944 N 685.838 0.888903 -1.30139 0
M  V30 6945 C 686.786 2.0156 -1.16088 0
M  V30 6946 C 687.78 1.69239 -0.0737413 0
M  V30 6947 O 688.986 1.78468 -0.234313 0
M  V30 6948 H 685.361 0.660825 -0.358907 0
M  V30 6949 H 687.332 2.10547 -2.11453 0
M  V30 6950 C 686.081 3.36758 -0.865426 0
M  V30 6951 H 685.404 3.62137 -1.69402 0
M  V30 6952 H 686.844 4.16246 -0.807192 0
M  V30 6953 C 685.303 3.34124 0.431577 0
M  V30 6954 O 685.833 3.7445 1.45431 0
M  V30 6955 N 684.039 2.87229 0.441321 0
M  V30 6956 H 683.586 2.54609 -0.391433 0
M  V30 6957 H 683.544 2.8585 1.30909 0
M  V30 6958 N 687.317 1.12792 1.10072 0
M  V30 6959 C 688.565 0.883796 1.81751 0
M  V30 6960 C 688.886 -0.591891 1.858 0
M  V30 6961 O 688.156 -1.43017 1.33876 0
M  V30 6962 H 686.736 0.323978 0.673088 0
M  V30 6963 H 689.398 1.42314 1.33164 0
M  V30 6964 H 688.494 1.26863 2.85153 0
M  V30 6965 N 688.795 -1.27931 0.920396 0
M  V30 6966 C 690.02 -1.99343 0.572478 0
M  V30 6967 C 690.445 -1.68267 -0.840696 0
M  V30 6968 O 689.803 -0.918805 -1.56294 0
M  V30 6969 C 689.851 -3.51698 0.796284 0
M  V30 6970 O 688.955 -4.12157 -0.141602 0
M  V30 6971 H 688.296 -0.626065 0.221221 0
M  V30 6972 H 690.826 -1.62921 1.23765 0
M  V30 6973 H 690.836 -4.01793 0.708984 0
M  V30 6974 H 689.511 -3.73649 1.82644 0
M  V30 6975 H 688.088 -3.729 -0.005007 0
M  V30 6976 N 690.273 -0.685099 -1.4193 0
M  V30 6977 C 691.236 -0.0222632 -2.29189 0
M  V30 6978 C 692.236 0.7186 -1.4385 0
M  V30 6979 O 693.426 0.555058 -1.6512 0
M  V30 6980 C 690.558 0.979013 -3.2654 0
M  V30 6981 H 691.751 -0.790424 -2.89296 0
M  V30 6982 H 689.304 -0.448012 -1.49742 0
M  V30 6983 H 690.039 1.77531 -2.71392 0
M  V30 6984 H 689.824 0.451037 -3.89497 0
M  V30 6985 H 691.314 1.44091 -3.91954 0
M  V30 6986 N 691.751 1.51645 -0.429126 0
M  V30 6987 C 693.162 1.86665 0.0359003 0
M  V30 6988 C 693.513 1.34677 1.42676 0
M  V30 6989 O 692.638 0.694195 2.04963 0
M  V30 6990 C 693.233 3.38724 0.0719221 0
M  V30 6991 C 691.792 3.7331 0.481336 0
M  V30 6992 C 690.939 2.75313 -0.331329 0
M  V30 6993 H 693.89 1.44987 -0.645333 0
M  V30 6994 H 693.911 3.7011 0.883118 0
M  V30 6995 H 693.423 3.76532 -0.940495 0
M  V30 6996 H 691.524 3.41088 1.49966 0
M  V30 6997 H 691.637 4.78631 0.211837 0
M  V30 6998 H 690.001 2.53839 0.209204 0
M  V30 6999 H 690.784 3.15963 -1.34247 0
M  V30 7000 N 693.229 0.160201 1.56784 0
M  V30 7001 C 694.645 -0.196089 1.58391 0
M  V30 7002 C 694.845 -1.63689 1.17508 0
M  V30 7003 O 693.901 -2.36613 0.881506 0
M  V30 7004 C 695.214 0.0746449 3.00607 0
M  V30 7005 C 696.762 0.0119762 3.12998 0
M  V30 7006 C 697.237 0.255551 4.57286 0
M  V30 7007 N 698.728 0.202938 4.62755 0
M  V30 7008 C 699.463 0.365731 5.72232 0
M  V30 7009 N 698.959 0.586972 6.90309 0
M  V30 7010 N 700.752 0.302411 5.61286 0
M  V30 7011 H 692.903 1.1008 1.81648 0
M  V30 7012 H 695.166 0.436779 0.841384 0
M  V30 7013 H 694.872 1.07231 3.34954 0
M  V30 7014 H 694.746 -0.638802 3.71751 0
M  V30 7015 H 697.133 -0.976254 2.78484 0
M  V30 7016 H 697.214 0.75796 2.44313 0
M  V30 7017 H 696.858 1.24094 4.92507 0
M  V30 7018 H 696.788 -0.510912 5.24116 0
M  V30 7019 H 699.279 0.0371328 3.77882 0
M  V30 7020 H 699.592 0.700941 7.69615 0
M  V30 7021 H 697.937 0.623453 6.92198 0
M  V30 7022 H 701.128 0.130238 4.67919 0
M  V30 7023 H 701.301 0.432712 6.46554 0
M  V30 7024 N 694.707 -1.5719 -0.113559 0
M  V30 7025 C 695.67 -1.99796 -1.12314 0
M  V30 7026 C 696.67 -0.888847 -1.34001 0
M  V30 7027 O 697.86 -1.15476 -1.30426 0
M  V30 7028 C 694.992 -2.34279 -2.47641 0
M  V30 7029 H 696.185 -2.90193 -0.756825 0
M  V30 7030 H 693.738 -1.52144 -0.358029 0
M  V30 7031 H 694.473 -1.46778 -2.89183 0
M  V30 7032 H 694.258 -3.15175 -2.33253 0
M  V30 7033 H 695.748 -2.67963 -3.2029 0
M  V30 7034 N 696.185 0.383891 -1.52853 0
M  V30 7035 C 697.115 1.47559 -1.80965 0
M  V30 7036 C 698.096 1.5669 -0.661986 0
M  V30 7037 O 699.281 1.71556 -0.910072 0
M  V30 7038 C 696.411 2.85114 -1.98312 0
M  V30 7039 C 695.365 2.9082 -3.14019 0
M  V30 7040 C 694.691 4.30873 -3.16627 0
M  V30 7041 C 695.991 2.60001 -4.52986 0
M  V30 7042 H 697.685 1.24283 -2.72386 0
M  V30 7043 H 695.231 0.596445 -1.31067 0
M  V30 7044 H 697.184 3.61496 -2.16561 0
M  V30 7045 H 695.908 3.09738 -1.03585 0
M  V30 7046 H 694.567 2.16886 -2.9556 0
M  V30 7047 H 694.215 4.52545 -2.19573 0
M  V30 7048 H 693.915 4.3561 -3.94357 0
M  V30 7049 H 695.439 5.09154 -3.37038 0
M  V30 7050 H 696.853 3.261 -4.71521 0
M  V30 7051 H 695.25 2.76081 -5.32822 0
M  V30 7052 H 696.32 1.5532 -4.59351 0
M  V30 7053 N 697.663 1.43903 0.642637 0
M  V30 7054 C 699.079 1.27536 0.959519 0
M  V30 7055 C 699.279 0.202751 2.00477 0
M  V30 7056 O 698.335 -0.415256 2.49062 0
M  V30 7057 C 699.648 2.6432 1.43372 0
M  V30 7058 C 701.196 2.71937 1.54981 0
M  V30 7059 C 701.671 4.09164 2.05789 0
M  V30 7060 N 703.162 4.11282 2.13076 0
M  V30 7061 C 703.897 5.14303 2.53534 0
M  V30 7062 N 703.393 6.27693 2.93212 0
M  V30 7063 N 705.186 5.01657 2.53567 0
M  V30 7064 H 697.337 2.12344 -0.0488376 0
M  V30 7065 H 699.6 0.947124 0.0407559 0
M  V30 7066 H 699.306 3.43826 0.740048 0
M  V30 7067 H 699.18 2.90432 2.40685 0
M  V30 7068 H 701.567 1.92757 2.23448 0
M  V30 7069 H 701.648 2.49578 0.560739 0
M  V30 7070 H 701.292 4.88815 1.37921 0
M  V30 7071 H 701.222 4.28893 3.05546 0
M  V30 7072 H 703.713 3.2944 1.85143 0
M  V30 7073 H 704.026 7.02125 3.22863 0
M  V30 7074 H 702.371 6.31149 2.90991 0
M  V30 7075 H 705.562 4.12134 2.21952 0
M  V30 7076 H 705.735 5.82072 2.84774 0
M  V30 7077 N 699.141 -0.881989 1.30609 0
M  V30 7078 C 700.088 -1.98803 1.17244 0
M  V30 7079 C 701.058 -1.65987 0.0611905 0
M  V30 7080 O 702.243 -1.89385 0.231911 0
M  V30 7081 C 699.383 -3.33867 0.87333 0
M  V30 7082 C 698.496 -3.79354 2.06675 0
M  V30 7083 C 697.631 -5.03078 1.70547 0
M  V30 7084 C 696.67 -5.40981 2.86366 0
M  V30 7085 N 695.807 -6.55886 2.50514 0
M  V30 7086 H 700.647 -2.09566 2.11863 0
M  V30 7087 H 698.184 -1.02607 1.05405 0
M  V30 7088 H 700.142 -4.11612 0.680519 0
M  V30 7089 H 698.772 -3.2278 -0.0359983 0
M  V30 7090 H 697.824 -2.97492 2.37071 0
M  V30 7091 H 699.136 -4.03382 2.93401 0
M  V30 7092 H 698.29 -5.88457 1.47658 0
M  V30 7093 H 697.029 -4.80927 0.809947 0
M  V30 7094 H 696.034 -4.54127 3.09917 0
M  V30 7095 H 697.259 -5.65104 3.76609 0
M  V30 7096 H 695.205 -6.35306 1.63471 0
M  V30 7097 H 695.122 -6.79799 3.30771 0
M  V30 7098 H 696.39 -7.44489 2.30989 0
M  V30 7099 N 700.619 -1.13374 -1.09472 0
M  V30 7100 C 701.859 -0.905422 -1.83252 0
M  V30 7101 C 702.223 0.558396 -1.83701 0
M  V30 7102 O 703.424 0.904254 -2.53134 0
M  V30 7103 C 701.695 -1.47658 -3.25472 0
M  V30 7104 S 703.254 -1.38825 -4.16261 0
M  V30 7105 H 700.072 -0.326371 -0.631667 0
M  V30 7106 H 702.674 -1.44517 -1.31663 0
M  V30 7107 H 701.378 -2.53533 -3.22722 0
M  V30 7108 H 700.909 -0.934756 -3.82133 0
M  V30 7109 H 702.924 -0.366379 -4.94846 0
M  V30 7110 N 702.098 1.27442 -0.927168 0
M  V30 7111 C 703.338 1.96157 -0.574608 0
M  V30 7112 C 703.702 1.71265 0.867897 0
M  V30 7113 O 704.903 2.33664 1.3287 0
M  V30 7114 C 703.174 3.46115 -0.891009 0
M  V30 7115 S 704.733 4.34006 -0.646885 0
M  V30 7116 H 701.551 0.678619 -0.212125 0
M  V30 7117 H 704.153 1.54688 -1.19549 0
M  V30 7118 H 702.857 3.6173 -1.93854 0
M  V30 7119 H 702.388 3.92545 -0.259301 0
M  V30 7120 H 704.403 4.93719 0.495568 0
M  V30 7121 N 703.576 0.692616 1.41565 0
M  V30 7122 C 704.806 0.230943 2.05305 0
M  V30 7123 C 705.214 -1.12379 1.52209 0
M  V30 7124 O 704.557 -1.71281 0.663968 0
M  V30 7125 C 704.619 0.107894 3.59338 0
M  V30 7126 C 704.283 1.39419 4.35214 0
M  V30 7127 C 705.28 2.33143 4.64694 0
M  V30 7128 C 702.965 1.64674 4.74539 0
M  V30 7129 C 704.959 3.50385 5.32456 0
M  V30 7130 C 702.646 2.82202 5.42038 0
M  V30 7131 C 703.644 3.74881 5.70923 0
M  V30 7132 O 703.332 4.90351 6.37033 0
M  V30 7133 H 703.064 0.105708 0.667684 0
M  V30 7134 H 705.618 0.94488 1.82376 0
M  V30 7135 H 703.848 -0.661785 3.80995 0
M  V30 7136 H 705.537 -0.316213 4.04666 0
M  V30 7137 H 706.303 2.14887 4.34797 0
M  V30 7138 H 702.182 0.934007 4.51439 0
M  V30 7139 H 705.726 4.22743 5.54918 0
M  V30 7140 H 701.623 3.00376 5.71353 0
M  V30 7141 H 702.391 4.90128 6.55528 0
M  V30 7142 N 705.054 -1.51416 0.437162 0
M  V30 7143 C 706.302 -2.01687 -0.129108 0
M  V30 7144 C 706.623 -1.32329 -1.43227 0
M  V30 7145 O 705.893 -0.457796 -1.90476 0
M  V30 7146 H 704.473 -0.745277 -0.0507023 0
M  V30 7147 H 707.135 -1.86075 0.579828 0
M  V30 7148 H 706.231 -3.10605 -0.305141 0
M  V30 7149 N 706.532 -0.168513 -1.56696 0
M  V30 7150 C 707.762 0.482802 -2.0088 0
M  V30 7151 C 708.17 1.57537 -1.0478 0
M  V30 7152 O 707.513 1.83656 -0.0402746 0
M  V30 7153 C 707.575 1.1236 -3.4149 0
M  V30 7154 C 707.239 0.173027 -4.56672 0
M  V30 7155 C 708.236 -0.607565 -5.16338 0
M  V30 7156 C 705.921 0.0696691 -5.02252 0
M  V30 7157 C 707.915 -1.47874 -6.2001 0
M  V30 7158 C 705.602 -0.805096 -6.05773 0
M  V30 7159 C 706.6 -1.57789 -6.64524 0
M  V30 7160 O 706.288 -2.43804 -7.66038 0
M  V30 7161 H 706.02 0.128246 -0.663723 0
M  V30 7162 H 708.574 -0.266532 -2.03663 0
M  V30 7163 H 706.804 1.921 -3.35611 0
M  V30 7164 H 708.493 1.67683 -3.69645 0
M  V30 7165 H 709.259 -0.53787 -4.82008 0
M  V30 7166 H 705.138 0.660957 -4.56237 0
M  V30 7167 H 708.682 -2.0824 -6.65794 0
M  V30 7168 H 704.579 -0.876005 -6.39528 0
M  V30 7169 H 705.347 -2.37289 -7.83349 0
M  V30 7170 N 708.01 1.57248 0.105221 0
M  V30 7171 C 709.25 1.87393 0.816283 0
M  V30 7172 C 709.614 0.758249 1.76393 0
M  V30 7173 O 710.815 0.941835 2.5176 0
M  V30 7174 C 709.086 3.22775 1.53463 0
M  V30 7175 S 710.645 3.74588 2.28537 0
M  V30 7176 H 707.463 0.656847 0.272164 0
M  V30 7177 H 710.065 1.9536 0.073909 0
M  V30 7178 H 708.769 4.01905 0.830674 0
M  V30 7179 H 708.3 3.17921 2.3171 0
M  V30 7180 H 710.315 3.47193 3.54502 0
M  V30 7181 N 709.488 -0.375779 1.53054 0
M  V30 7182 C 710.737 -1.11674 1.67964 0
M  V30 7183 C 711.05 -1.90755 0.432655 0
M  V30 7184 O 712.256 -2.67538 0.462109 0
M  V30 7185 C 710.712 -2.0344 2.96884 0
M  V30 7186 C 710.32 -1.29719 4.28809 0
M  V30 7187 C 712.064 -2.7759 3.2116 0
M  V30 7188 C 709.971 -2.20327 5.48826 0
M  V30 7189 H 708.901 -0.420597 0.625791 0
M  V30 7190 H 711.552 -0.378499 1.79554 0
M  V30 7191 H 709.934 -2.80953 2.79072 0
M  V30 7192 H 711.108 -0.573394 4.57219 0
M  V30 7193 H 709.423 -0.674735 4.10897 0
M  V30 7194 H 712.02 -3.4559 4.0801 0
M  V30 7195 H 712.363 -3.42399 2.36789 0
M  V30 7196 H 712.896 -2.07164 3.396 0
M  V30 7197 H 709.635 -1.60113 6.35645 0
M  V30 7198 H 709.155 -2.90585 5.2471 0
M  V30 7199 H 710.834 -2.80116 5.83219 0
M  V30 7200 N 710.966 -1.44241 -0.634997 0
M  V30 7201 C 712.243 -1.37296 -1.39317 0
M  V30 7202 C 712.623 -0.0297532 -2.11079 0
M  V30 7203 O 711.971 0.987524 -2.06059 0
M  V30 7204 C 712.181 -2.56853 -2.36279 0
M  V30 7205 C 713.529 -3.00747 -2.99728 0
M  V30 7206 O 714.553 -2.5703 -2.46605 0
M  V30 7207 O 713.412 -3.76533 -3.96087 0
M  V30 7208 H 710.506 -0.543503 -0.623325 0
M  V30 7209 H 713.052 -1.56324 -0.660376 0
M  V30 7210 H 711.824 -3.46228 -1.82324 0
M  V30 7211 H 711.447 -2.40019 -3.16981 0
M  V30 7212 N 712.444 0.87505 -1.31075 0
M  V30 7213 C 713.374 1.99775 -1.20881 0
M  V30 7214 C 714.355 1.69822 -0.0971612 0
M  V30 7215 O 715.54 1.92158 -0.280895 0
M  V30 7216 C 712.67 3.35163 -0.910118 0
M  V30 7217 C 711.624 3.79406 -1.98078 0
M  V30 7218 C 710.95 5.12197 -1.53488 0
M  V30 7219 C 712.25 3.97061 -3.39323 0
M  V30 7220 H 713.944 2.08562 -2.14808 0
M  V30 7221 H 711.49 1.00207 -1.03415 0
M  V30 7222 H 713.443 4.13237 -0.825423 0
M  V30 7223 H 712.167 3.26536 0.064822 0
M  V30 7224 H 710.826 3.03568 -2.05528 0
M  V30 7225 H 710.474 5.00007 -0.547941 0
M  V30 7226 H 710.174 5.4277 -2.2511 0
M  V30 7227 H 711.698 5.92785 -1.46417 0
M  V30 7228 H 713.112 4.65545 -3.34576 0
M  V30 7229 H 711.509 4.39025 -4.09118 0
M  V30 7230 H 712.579 3.00601 -3.80483 0
M  V30 7231 N 713.922 1.13953 1.08869 0
M  V30 7232 C 714.852 0.844824 2.17681 0
M  V30 7233 C 715.833 -0.198213 1.68941 0
M  V30 7234 O 717.018 -0.0559073 1.9412 0
M  V30 7235 C 714.148 0.316325 3.45856 0
M  V30 7236 C 713.102 1.29426 4.07962 0
M  V30 7237 C 712.428 0.625275 5.31031 0
M  V30 7238 C 713.728 2.65484 4.49795 0
M  V30 7239 H 715.422 1.75471 2.42591 0
M  V30 7240 H 712.968 0.845116 1.16592 0
M  V30 7241 H 714.921 0.0977876 4.21287 0
M  V30 7242 H 713.645 -0.628972 3.20486 0
M  V30 7243 H 712.304 1.49889 3.34558 0
M  V30 7244 H 711.952 -0.325678 5.01945 0
M  V30 7245 H 711.652 1.27777 5.73539 0
M  V30 7246 H 713.176 0.416152 6.0918 0
M  V30 7247 H 714.59 2.48957 5.16424 0
M  V30 7248 H 712.987 3.26963 5.03205 0
M  V30 7249 H 714.057 3.22717 3.61914 0
M  V30 7250 N 715.4 -1.26948 0.933913 0
M  V30 7251 C 716.31 -2.30366 0.443671 0
M  V30 7252 C 717.326 -1.67284 -0.478745 0
M  V30 7253 O 718.502 -1.98156 -0.360043 0
M  V30 7254 C 715.567 -3.45485 -0.289974 0
M  V30 7255 C 714.628 -4.24069 0.668114 0
M  V30 7256 C 713.861 -5.33691 -0.0306138 0
M  V30 7257 O 714.084 -5.5656 -1.24888 0
M  V30 7258 O 713.018 -5.98441 0.644384 0
M  V30 7259 H 716.844 -2.74349 1.30254 0
M  V30 7260 H 714.429 -1.32012 0.699506 0
M  V30 7261 H 716.311 -4.15486 -0.70353 0
M  V30 7262 H 714.986 -3.03546 -1.12435 0
M  V30 7263 H 713.893 -3.56579 1.13147 0
M  V30 7264 H 715.226 -4.69739 1.46989 0
M  V30 7265 N 716.879 -0.700114 -1.41195 0
M  V30 7266 C 718.295 -0.372114 -1.55201 0
M  V30 7267 C 718.495 1.12053 -1.6747 0
M  V30 7268 O 717.551 1.90642 -1.65566 0
M  V30 7269 C 718.864 -1.12462 -2.78878 0
M  V30 7270 C 720.412 -1.10941 -2.92679 0
M  V30 7271 C 720.887 -1.84376 -4.19249 0
M  V30 7272 N 722.378 -1.81368 -4.26216 0
M  V30 7273 C 723.113 -2.35024 -5.23021 0
M  V30 7274 N 722.609 -2.9717 -6.25829 0
M  V30 7275 N 724.402 -2.25254 -5.14992 0
M  V30 7276 H 716.553 -1.66816 -1.31477 0
M  V30 7277 H 718.816 -0.704223 -0.634644 0
M  V30 7278 H 718.522 -2.17937 -2.76037 0
M  V30 7279 H 718.396 -0.706152 -3.70531 0
M  V30 7280 H 720.783 -0.062911 -2.95033 0
M  V30 7281 H 720.864 -1.56698 -2.02187 0
M  V30 7282 H 720.508 -2.89008 -4.17656 0
M  V30 7283 H 720.438 -1.3605 -5.08722 0
M  V30 7284 H 722.929 -1.36062 -3.52556 0
M  V30 7285 H 723.242 -3.35668 -6.96094 0
M  V30 7286 H 721.587 -3.01249 -6.26318 0
M  V30 7287 H 724.778 -1.76372 -4.33602 0
M  V30 7288 H 724.951 -2.67373 -5.90268 0
M  V30 7289 N 718.357 1.51182 -0.445186 0
M  V30 7290 C 719.287 2.30821 0.352686 0
M  V30 7291 C 720.268 1.36576 1.01395 0
M  V30 7292 O 721.453 1.65497 1.01609 0
M  V30 7293 C 718.583 3.15593 1.44976 0
M  V30 7294 C 717.537 4.1818 0.911553 0
M  V30 7295 C 716.863 4.91523 2.10497 0
M  V30 7296 C 718.163 5.22266 -0.059418 0
M  V30 7297 H 719.857 2.97771 -0.311936 0
M  V30 7298 H 717.403 1.43201 -0.151461 0
M  V30 7299 H 719.356 3.70091 2.01521 0
M  V30 7300 H 718.08 2.4648 2.14278 0
M  V30 7301 H 716.739 3.64746 0.368264 0
M  V30 7302 H 716.387 4.18906 2.78437 0
M  V30 7303 H 716.087 5.60898 1.7512 0
M  V30 7304 H 717.611 5.48847 2.6758 0
M  V30 7305 H 719.025 5.71789 0.415985 0
M  V30 7306 H 717.422 5.99213 -0.326152 0
M  V30 7307 H 718.492 4.7461 -0.993631 0
M  V30 7308 N 719.835 0.176821 1.56605 0
M  V30 7309 C 720.798 -0.737429 2.17013 0
M  V30 7310 C 721.798 -1.15414 1.11965 0
M  V30 7311 O 722.988 -1.0702 1.37449 0
M  V30 7312 C 720.12 -2.00445 2.75744 0
M  V30 7313 H 721.313 -0.211455 2.99154 0
M  V30 7314 H 718.866 -0.0727582 1.56131 0
M  V30 7315 H 719.601 -2.57338 1.97352 0
M  V30 7316 H 719.386 -1.71456 3.52626 0
M  V30 7317 H 720.876 -2.65679 3.22187 0
M  V30 7318 N 721.313 -1.57302 -0.09688 0
M  V30 7319 C 722.223 -2.05258 -1.13606 0
M  V30 7320 C 723.239 -0.977137 -1.43972 0
M  V30 7321 O 724.415 -1.29018 -1.54649 0
M  V30 7322 C 721.48 -2.46593 -2.43706 0
M  V30 7323 C 720.541 -3.68322 -2.20538 0
M  V30 7324 C 719.774 -4.07676 -3.44435 0
M  V30 7325 O 719.997 -3.47141 -4.52603 0
M  V30 7326 O 718.931 -5.00641 -3.34129 0
M  V30 7327 H 722.757 -2.94069 -0.758752 0
M  V30 7328 H 720.342 -1.46164 -0.309263 0
M  V30 7329 H 722.224 -2.73814 -3.20318 0
M  V30 7330 H 720.899 -1.6092 -2.80867 0
M  V30 7331 H 719.806 -3.4622 -1.41713 0
M  V30 7332 H 721.139 -4.54769 -1.88271 0
M  V30 7333 N 722.791 0.367657 -1.53252 0
M  V30 7334 C 724.068 1.12606 -1.59935 0
M  V30 7335 C 724.448 2.07167 -0.405606 0
M  V30 7336 O 723.796 2.20364 0.604323 0
M  V30 7337 C 724.006 1.86699 -2.94863 0
M  V30 7338 C 725.354 2.41306 -3.49366 0
M  V30 7339 O 726.378 1.96828 -2.96879 0
M  V30 7340 O 725.237 3.2261 -4.41118 0
M  V30 7341 H 722.331 0.516438 -0.645926 0
M  V30 7342 H 724.877 0.371088 -1.65593 0
M  V30 7343 H 723.649 1.17674 -3.73187 0
M  V30 7344 H 723.272 2.6911 -2.92687 0
M  V30 7345 N 724.269 1.44576 0.627338 0
M  V30 7346 C 725.497 1.51048 1.41394 0
M  V30 7347 C 725.912 0.136568 1.88305 0
M  V30 7348 O 725.269 -0.858251 1.6106 0
M  V30 7349 C 725.32 2.47837 2.63172 0
M  V30 7350 O 725.041 3.79887 2.18215 0
M  V30 7351 C 726.542 2.63811 3.56257 0
M  V30 7352 H 723.762 0.512171 0.4335 0
M  V30 7353 H 726.306 1.89576 0.766878 0
M  V30 7354 H 724.461 2.12433 3.23961 0
M  V30 7355 H 724.875 4.32177 2.97192 0
M  V30 7356 H 726.349 3.35554 4.38301 0
M  V30 7357 H 726.826 1.69169 4.05313 0
M  V30 7358 H 727.432 3.0013 3.01333 0
M  V30 7359 N 725.747 -0.868086 1.31537 0
M  V30 7360 C 727.158 -1.437 1.19195 0
M  V30 7361 C 727.509 -1.95169 -0.200842 0
M  V30 7362 O 726.634 -1.86432 -1.09872 0
M  V30 7363 C 727.229 -2.612 2.15778 0
M  V30 7364 C 725.788 -3.1413 2.07363 0
M  V30 7365 C 724.935 -1.86845 2.049 0
M  V30 7366 H 727.886 -0.676457 1.43561 0
M  V30 7367 H 727.907 -3.37948 1.74847 0
M  V30 7368 H 727.419 -2.23709 3.17137 0
M  V30 7369 H 725.52 -3.56238 1.09204 0
M  V30 7370 H 725.633 -3.76285 2.96557 0
M  V30 7371 H 723.997 -2.05886 1.49943 0
M  V30 7372 H 724.78 -1.51589 3.08019 0
M  V30 7373 N 727.225 -1.14528 -1.08264 0
M  V30 7374 C 728.472 -0.914405 -1.80679 0
M  V30 7375 C 728.8 0.558952 -1.86295 0
M  V30 7376 O 728.055 1.43017 -1.33584 0
M  V30 7377 C 728.354 -1.46226 -3.26117 0
M  V30 7378 C 728.02 -2.95451 -3.40616 0
M  V30 7379 C 726.682 -3.36191 -3.4428 0
M  V30 7380 C 729.034 -3.91399 -3.44175 0
M  V30 7381 C 726.362 -4.71539 -3.49096 0
M  V30 7382 C 728.714 -5.26606 -3.50526 0
M  V30 7383 C 727.378 -5.66856 -3.52464 0
M  V30 7384 H 726.648 -0.334604 -0.661151 0
M  V30 7385 H 729.295 -1.4292 -1.27461 0
M  V30 7386 H 727.6 -0.868442 -3.82054 0
M  V30 7387 H 729.297 -1.25955 -3.80705 0
M  V30 7388 H 725.887 -2.62955 -3.38456 0
M  V30 7389 H 730.071 -3.61004 -3.40573 0
M  V30 7390 H 725.327 -5.02082 -3.4889 0
M  V30 7391 H 729.501 -6.00758 -3.52225 0
M  V30 7392 H 727.128 -6.71718 -3.55948 0
M  V30 7393 N 728.703 1.26451 -0.940633 0
M  V30 7394 C 729.98 1.88947 -0.505811 0
M  V30 7395 C 730.36 1.85011 1.01657 0
M  V30 7396 O 729.708 1.30406 1.87634 0
M  V30 7397 C 729.918 3.32304 -1.06654 0
M  V30 7398 C 731.266 4.09153 -1.13486 0
M  V30 7399 O 732.29 3.41371 -1.01708 0
M  V30 7400 O 731.149 5.30369 -1.31797 0
M  V30 7401 H 728.243 0.810422 -0.164759 0
M  V30 7402 H 730.789 1.34625 -1.03316 0
M  V30 7403 H 729.561 3.29527 -2.11015 0
M  V30 7404 H 729.184 3.94164 -0.521603 0
M  V30 7405 N 730.181 0.707592 1.40822 0
M  V30 7406 C 731.428 0.243671 2.01029 0
M  V30 7407 C 731.756 -1.16057 1.5608 0
M  V30 7408 O 731.011 -1.7999 0.768251 0
M  V30 7409 C 731.31 0.262892 3.56432 0
M  V30 7410 C 730.976 1.61632 4.20935 0
M  V30 7411 C 729.638 1.98682 4.38268 0
M  V30 7412 C 731.99 2.50619 4.5699 0
M  V30 7413 C 729.318 3.2428 4.88937 0
M  V30 7414 C 731.67 3.75562 5.09054 0
M  V30 7415 C 730.334 4.12739 5.24598 0
M  V30 7416 H 729.604 0.0891654 0.735616 0
M  V30 7417 H 732.251 0.909051 1.68548 0
M  V30 7418 H 730.556 -0.486052 3.88773 0
M  V30 7419 H 732.253 -0.113775 4.00839 0
M  V30 7420 H 728.843 1.31818 4.07826 0
M  V30 7421 H 733.027 2.23272 4.43242 0
M  V30 7422 H 728.283 3.53064 4.99155 0
M  V30 7423 H 732.457 4.44692 5.35931 0
M  V30 7424 H 730.084 5.10132 5.63622 0
M  V30 7425 N 731.66 -1.50943 0.453197 0
M  V30 7426 C 732.57 -2.31884 -0.355963 0
M  V30 7427 C 733.586 -1.41481 -1.01287 0
M  V30 7428 O 734.762 -1.74546 -1.00477 0
M  V30 7429 C 731.827 -3.15668 -1.43369 0
M  V30 7430 C 730.888 -4.2187 -0.795253 0
M  V30 7431 C 730.121 -5.0165 -1.82162 0
M  V30 7432 O 730.344 -4.82266 -3.04592 0
M  V30 7433 O 729.278 -5.85311 -1.40336 0
M  V30 7434 H 733.104 -3.02162 0.305248 0
M  V30 7435 H 730.689 -1.47839 0.215398 0
M  V30 7436 H 732.571 -3.67709 -2.05836 0
M  V30 7437 H 731.246 -2.48137 -2.07869 0
M  V30 7438 H 730.153 -3.73867 -0.132106 0
M  V30 7439 H 731.486 -4.9182 -0.193484 0
M  V30 7440 N 733.138 -0.185124 -1.56509 0
M  V30 7441 C 734.068 0.735098 -2.21627 0
M  V30 7442 C 735.049 1.2288 -1.1762 0
M  V30 7443 O 736.234 1.27945 -1.46095 0
M  V30 7444 C 733.364 1.95889 -2.86783 0
M  V30 7445 C 732.318 1.6005 -3.96948 0
M  V30 7446 C 731.644 2.90009 -4.4922 0
M  V30 7447 C 732.944 0.818008 -5.15855 0
M  V30 7448 H 734.638 0.192274 -2.98782 0
M  V30 7449 H 732.184 0.0910393 -1.43712 0
M  V30 7450 H 734.137 2.60779 -3.31017 0
M  V30 7451 H 732.861 2.52608 -2.07018 0
M  V30 7452 H 731.52 0.975237 -3.5339 0
M  V30 7453 H 731.168 3.44797 -3.6623 0
M  V30 7454 H 730.868 2.66778 -5.23549 0
M  V30 7455 H 732.392 3.55904 -4.9615 0
M  V30 7456 H 733.806 1.36979 -5.56695 0
M  V30 7457 H 732.203 0.684207 -5.96187 0
M  V30 7458 H 733.273 -0.182939 -4.84555 0
M  V30 7459 N 734.616 1.57351 0.0885366 0
M  V30 7460 C 735.846 1.90355 0.80303 0
M  V30 7461 C 736.254 0.777678 1.72478 0
M  V30 7462 O 735.597 -0.258908 1.81866 0
M  V30 7463 C 735.659 3.18674 1.66395 0
M  V30 7464 C 735.323 4.4778 0.913327 0
M  V30 7465 C 736.32 5.19345 0.240148 0
M  V30 7466 C 734.005 4.94434 0.885462 0
M  V30 7467 C 735.999 6.35803 -0.450854 0
M  V30 7468 C 733.686 6.10802 0.190679 0
M  V30 7469 C 734.684 6.81337 -0.476295 0
M  V30 7470 O 734.372 7.95488 -1.15992 0
M  V30 7471 H 734.104 0.634035 0.234469 0
M  V30 7472 H 736.658 2.05287 0.0681959 0
M  V30 7473 H 734.888 2.99906 2.44117 0
M  V30 7474 H 736.577 3.37458 2.2556 0
M  V30 7475 H 737.343 4.84339 0.253092 0
M  V30 7476 H 733.222 4.39417 1.39406 0
M  V30 7477 H 736.766 6.90795 -0.972019 0
M  V30 7478 H 732.663 6.45261 0.175603 0
M  V30 7479 H 733.431 8.11509 -1.06749 0
M  V30 7480 N 736.094 -0.359525 1.53444 0
M  V30 7481 C 737.024 -1.44662 1.8329 0
M  V30 7482 C 738.005 -1.55617 0.68683 0
M  V30 7483 O 739.19 -1.70086 0.93725 0
M  V30 7484 C 736.32 -2.81923 2.02822 0
M  V30 7485 C 735.274 -2.85787 3.18606 0
M  V30 7486 C 734.6 -4.25781 3.23442 0
M  V30 7487 C 735.9 -2.52762 4.57065 0
M  V30 7488 H 737.594 -1.19934 2.74329 0
M  V30 7489 H 735.14 -0.575517 1.31999 0
M  V30 7490 H 737.093 -3.58005 2.22285 0
M  V30 7491 H 735.817 -3.08051 1.085 0
M  V30 7492 H 734.476 -2.12157 2.98973 0
M  V30 7493 H 734.124 -4.48994 2.26745 0
M  V30 7494 H 733.824 -4.29281 4.01238 0
M  V30 7495 H 735.348 -5.03727 3.45096 0
M  V30 7496 H 736.762 -3.18557 4.76649 0
M  V30 7497 H 735.159 -2.67569 5.37147 0
M  V30 7498 H 736.229 -1.47993 4.61764 0
M  V30 7499 N 737.572 -1.44907 -0.619662 0
M  V30 7500 C 738.818 -1.48512 -1.38102 0
M  V30 7501 C 739.151 -0.121686 -1.93818 0
M  V30 7502 O 738.426 0.862256 -1.74343 0
M  V30 7503 C 738.709 -2.55469 -2.53787 0
M  V30 7504 C 738.562 -4.01212 -2.03345 0
M  V30 7505 C 739.881 -2.58821 -3.55949 0
M  V30 7506 H 737 -0.540712 -0.500799 0
M  V30 7507 H 739.642 -1.7665 -0.69962 0
M  V30 7508 H 737.792 -2.31606 -3.11915 0
M  V30 7509 H 739.464 -4.36245 -1.49959 0
M  V30 7510 H 737.707 -4.12443 -1.34438 0
M  V30 7511 H 738.378 -4.71717 -2.86683 0
M  V30 7512 H 740.854 -2.80172 -3.07641 0
M  V30 7513 H 739.73 -3.35542 -4.34399 0
M  V30 7514 H 739.991 -1.63451 -4.10775 0
M  V30 7515 N 739.05 0.861098 -1.31996 0
M  V30 7516 C 740.298 1.61162 -1.21947 0
M  V30 7517 C 740.619 1.93751 0.220351 0
M  V30 7518 O 739.889 1.59069 1.14341 0
M  V30 7519 H 738.469 0.597485 -0.448353 0
M  V30 7520 H 741.131 1.03039 -1.65436 0
M  V30 7521 H 740.227 2.55138 -1.79752 0
M  V30 7522 N 740.528 1.15101 1.07655 0
M  V30 7523 C 741.805 0.834578 1.76902 0
M  V30 7524 C 742.185 -0.670431 2.00171 0
M  V30 7525 O 741.533 -1.61378 1.6177 0
M  V30 7526 C 741.743 1.64191 3.07965 0
M  V30 7527 C 743.091 1.84615 3.82364 0
M  V30 7528 O 744.115 1.60941 3.17768 0
M  V30 7529 O 742.974 2.24244 4.98374 0
M  V30 7530 H 740.068 0.306608 0.768063 0
M  V30 7531 H 742.614 1.25663 1.14048 0
M  V30 7532 H 741.386 2.66386 2.86626 0
M  V30 7533 H 741.009 1.216 3.78549 0
M  V30 7534 N 742.006 -1.2595 0.947325 0
M  V30 7535 C 743.254 -1.93081 0.596996 0
M  V30 7536 C 743.575 -1.74632 -0.867672 0
M  V30 7537 O 742.845 -1.1056 -1.6172 0
M  V30 7538 H 741.425 -0.714542 0.217805 0
M  V30 7539 H 744.087 -1.53265 1.20398 0
M  V30 7540 H 743.183 -3.01134 0.82004 0
M  V30 7541 N 743.484 -0.715051 -1.40445 0
M  V30 7542 C 744.431 -0.0621393 -2.30716 0
M  V30 7543 C 745.401 0.750871 -1.48159 0
M  V30 7544 O 746.586 0.714928 -1.76899 0
M  V30 7545 C 743.726 0.854036 -3.34365 0
M  V30 7546 C 742.839 0.0305565 -4.31989 0
M  V30 7547 C 741.974 0.946162 -5.22706 0
M  V30 7548 C 741.013 0.116741 -6.11989 0
M  V30 7549 N 740.15 0.987194 -6.95125 0
M  V30 7550 H 744.99 -0.83764 -2.85985 0
M  V30 7551 H 742.527 -0.424759 -1.40834 0
M  V30 7552 H 744.485 1.39946 -3.93028 0
M  V30 7553 H 743.115 1.59572 -2.806 0
M  V30 7554 H 742.167 -0.632044 -3.75112 0
M  V30 7555 H 743.479 -0.611615 -4.95036 0
M  V30 7556 H 742.633 1.56014 -5.86297 0
M  V30 7557 H 741.372 1.62216 -4.59932 0
M  V30 7558 H 740.377 -0.510176 -5.47428 0
M  V30 7559 H 741.602 -0.555742 -6.76822 0
M  V30 7560 H 739.548 1.64885 -6.3494 0
M  V30 7561 H 739.465 0.401046 -7.54936 0
M  V30 7562 H 740.733 1.58737 -7.63166 0
M  V30 7563 N 744.962 1.50701 -0.461195 0
M  V30 7564 C 746.192 2.06381 0.0950376 0
M  V30 7565 C 746.6 1.32627 1.34933 0
M  V30 7566 O 745.943 0.386137 1.79596 0
M  V30 7567 C 746.005 3.56558 0.458965 0
M  V30 7568 C 745.669 4.51732 -0.691891 0
M  V30 7569 C 746.666 4.95594 -1.57105 0
M  V30 7570 C 744.351 4.94542 -0.879407 0
M  V30 7571 C 746.345 5.80963 -2.62223 0
M  V30 7572 C 744.032 5.79695 -1.93382 0
M  V30 7573 C 745.03 6.22806 -2.80359 0
M  V30 7574 O 744.718 7.06265 -3.83986 0
M  V30 7575 H 744.45 0.676 0.000687488 0
M  V30 7576 H 747.004 1.94974 -0.646087 0
M  V30 7577 H 745.234 3.65832 1.25314 0
M  V30 7578 H 746.923 3.94647 0.949124 0
M  V30 7579 H 747.689 4.63197 -1.43783 0
M  V30 7580 H 743.568 4.60513 -0.211907 0
M  V30 7581 H 747.112 6.14533 -3.30143 0
M  V30 7582 H 743.009 6.11506 -2.06715 0
M  V30 7583 H 743.777 7.24494 -3.80855 0
M  V30 7584 N 746.441 0.193421 1.56409 0
M  V30 7585 C 747.689 -0.444908 1.97142 0
M  V30 7586 C 748.01 -1.62268 1.08139 0
M  V30 7587 O 747.28 -1.95307 0.152326 0
M  V30 7588 H 745.86 -0.16736 0.728011 0
M  V30 7589 H 748.522 0.279763 1.92882 0
M  V30 7590 H 747.618 -0.790159 3.01932 0
M  V30 7591 N 747.919 -1.57396 -0.0801906 0
M  V30 7592 C 748.882 -2.02133 -1.0805 0
M  V30 7593 C 749.882 -0.91707 -1.32085 0
M  V30 7594 O 751.072 -1.18217 -1.27947 0
M  V30 7595 C 748.204 -2.39479 -2.42616 0
M  V30 7596 H 749.397 -2.91733 -0.6951 0
M  V30 7597 H 746.95 -1.52869 -0.325677 0
M  V30 7598 H 747.685 -1.52879 -2.86004 0
M  V30 7599 H 747.47 -3.20052 -2.26515 0
M  V30 7600 H 748.96 -2.74697 -3.14534 0
M  V30 7601 N 749.397 0.351382 -1.53633 0
M  V30 7602 C 750.327 1.43688 -1.84055 0
M  V30 7603 C 751.308 1.55251 -0.695073 0
M  V30 7604 O 752.493 1.69587 -0.946257 0
M  V30 7605 C 749.623 2.80843 -2.04315 0
M  V30 7606 C 748.577 2.84094 -3.20117 0
M  V30 7607 C 747.903 4.2406 -3.25696 0
M  V30 7608 C 749.203 2.50334 -4.58399 0
M  V30 7609 H 750.897 1.18478 -2.74961 0
M  V30 7610 H 748.443 0.568509 -1.32303 0
M  V30 7611 H 750.396 3.56821 -2.2418 0
M  V30 7612 H 749.12 3.07471 -1.10132 0
M  V30 7613 H 747.779 2.10568 -3.00094 0
M  V30 7614 H 747.427 4.47785 -2.29123 0
M  V30 7615 H 747.127 4.27147 -4.03509 0
M  V30 7616 H 748.651 5.0189 -3.47762 0
M  V30 7617 H 750.065 3.16025 -4.78332 0
M  V30 7618 H 748.462 2.64717 -5.38558 0
M  V30 7619 H 749.532 1.45542 -4.62543 0
M  V30 7620 N 750.875 1.45233 0.611969 0
M  V30 7621 C 752.291 1.29542 0.932251 0
M  V30 7622 C 752.491 0.24523 2.00002 0
M  V30 7623 O 751.547 -0.362333 2.49887 0
M  V30 7624 C 752.86 2.67301 1.37733 0
M  V30 7625 C 754.408 2.75163 1.49178 0
M  V30 7626 C 754.883 4.13437 1.97064 0
M  V30 7627 N 756.374 4.15709 2.04304 0
M  V30 7628 C 757.109 5.19566 2.42568 0
M  V30 7629 N 756.605 6.33771 2.79832 0
M  V30 7630 N 758.398 5.06923 2.42869 0
M  V30 7631 H 750.549 2.12192 -0.0938679 0
M  V30 7632 H 752.812 0.947775 0.0206569 0
M  V30 7633 H 752.518 3.45318 0.666951 0
M  V30 7634 H 752.392 2.95472 2.3447 0
M  V30 7635 H 754.779 1.97453 2.19309 0
M  V30 7636 H 754.86 2.50712 0.507674 0
M  V30 7637 H 754.504 4.91631 1.27521 0
M  V30 7638 H 754.434 4.35277 2.9638 0
M  V30 7639 H 756.925 3.33293 1.78113 0
M  V30 7640 H 757.238 7.08815 3.07898 0
M  V30 7641 H 755.583 6.37179 2.77538 0
M  V30 7642 H 758.774 4.1675 2.1316 0
M  V30 7643 H 758.947 5.87981 2.72364 0
M  V30 7644 N 752.353 -0.854086 1.3245 0
M  V30 7645 C 753.63 -1.59188 1.1366 0
M  V30 7646 C 754.01 -2.08917 -0.302807 0
M  V30 7647 O 753.358 -1.8795 -1.29951 0
M  V30 7648 C 753.568 -2.73757 2.16467 0
M  V30 7649 C 754.916 -3.43323 2.49829 0
M  V30 7650 O 755.94 -2.83983 2.15017 0
M  V30 7651 O 754.799 -4.50409 3.09506 0
M  V30 7652 H 751.893 -0.701092 0.438633 0
M  V30 7653 H 754.439 -0.898165 1.43983 0
M  V30 7654 H 753.211 -2.3454 3.1322 0
M  V30 7655 H 752.834 -3.50804 1.87142 0
M  V30 7656 N 753.831 -1.1567 -1.07043 0
M  V30 7657 C 755.079 -0.931673 -1.79344 0
M  V30 7658 C 755.4 0.542421 -1.87304 0
M  V30 7659 O 754.67 1.39418 -1.37621 0
M  V30 7660 H 753.25 -0.34171 -0.664262 0
M  V30 7661 H 755.912 -1.45795 -1.29344 0
M  V30 7662 H 755.008 -1.34379 -2.81689 0
M  V30 7663 N 755.309 1.25446 -0.953992 0
M  V30 7664 C 756.725 1.4539 -0.658316 0
M  V30 7665 C 756.925 1.85607 0.784356 0
M  V30 7666 O 755.981 1.98568 1.55972 0
M  V30 7667 C 757.294 2.52643 -1.6307 0
M  V30 7668 C 758.842 2.66484 -1.64181 0
M  V30 7669 C 759.317 3.76921 -2.60182 0
M  V30 7670 N 760.808 3.84331 -2.58542 0
M  V30 7671 C 761.543 4.69271 -3.29503 0
M  V30 7672 N 761.039 5.58503 -4.09934 0
M  V30 7673 N 762.832 4.6323 -3.18393 0
M  V30 7674 H 754.983 0.976337 -1.8863 0
M  V30 7675 H 757.246 0.490343 -0.811337 0
M  V30 7676 H 756.952 2.29949 -2.66114 0
M  V30 7677 H 756.826 3.50547 -1.39271 0
M  V30 7678 H 759.213 2.88545 -0.618552 0
M  V30 7679 H 759.294 1.68982 -1.92038 0
M  V30 7680 H 758.938 3.55612 -3.62633 0
M  V30 7681 H 758.868 4.73906 -2.29609 0
M  V30 7682 H 761.359 3.20544 -2.0015 0
M  V30 7683 H 761.672 6.20241 -4.61 0
M  V30 7684 H 760.017 5.58214 -4.14032 0
M  V30 7685 H 763.208 3.92527 -2.5503 0
M  V30 7686 H 763.381 5.29204 -3.73961 0
M  V30 7687 N 756.787 0.722489 1.40064 0
M  V30 7688 C 758.033 0.27422 2.01543 0
M  V30 7689 C 758.388 -1.12224 1.5628 0
M  V30 7690 O 757.681 -1.75179 0.776063 0
M  V30 7691 C 757.875 0.300682 3.56133 0
M  V30 7692 C 757.704 1.69818 4.16404 0
M  V30 7693 C 756.474 2.30747 4.49537 0
M  V30 7694 C 758.672 2.64962 4.40794 0
M  V30 7695 N 756.654 3.62781 4.9524 0
M  V30 7696 C 758.025 3.81712 4.88565 0
M  V30 7697 C 760.08 2.62885 4.22842 0
M  V30 7698 C 758.783 4.96703 5.20268 0
M  V30 7699 C 760.809 3.77009 4.55652 0
M  V30 7700 C 760.171 4.92492 5.03618 0
M  V30 7701 H 756.27 0.146328 0.768188 0
M  V30 7702 H 758.854 0.94577 1.70186 0
M  V30 7703 H 757.025 -0.340461 3.86905 0
M  V30 7704 H 758.757 -0.164951 4.04364 0
M  V30 7705 H 755.512 1.82783 4.36907 0
M  V30 7706 H 755.936 4.30533 5.22465 0
M  V30 7707 H 760.578 1.74803 3.84972 0
M  V30 7708 H 758.296 5.85425 5.57049 0
M  V30 7709 H 761.882 3.76685 4.43396 0
M  V30 7710 H 760.762 5.79336 5.28525 0
M  V30 7711 N 758.265 -1.50454 0.469181 0
M  V30 7712 C 759.493 -2.06729 -0.0842134 0
M  V30 7713 C 759.908 -1.33326 -1.33677 0
M  V30 7714 O 759.265 -0.401977 -1.78018 0
M  V30 7715 C 759.316 -3.59557 -0.374253 0
M  V30 7716 O 759.037 -4.30192 0.828622 0
M  V30 7717 C 760.538 -4.32449 -0.974824 0
M  V30 7718 H 757.758 -0.670971 0.006231 0
M  V30 7719 H 760.302 -1.93645 0.657415 0
M  V30 7720 H 758.457 -3.7245 -1.06581 0
M  V30 7721 H 758.871 -5.21371 0.572066 0
M  V30 7722 H 760.345 -5.40361 -1.12755 0
M  V30 7723 H 760.822 -3.92819 -1.96442 0
M  V30 7724 H 761.428 -4.24082 -0.321703 0
M  V30 7725 N 759.743 -0.201713 -1.56304 0
M  V30 7726 C 760.991 0.434447 -1.97375 0
M  V30 7727 C 761.312 1.61692 -1.08998 0
M  V30 7728 O 760.582 1.95223 -0.162682 0
M  V30 7729 H 759.162 0.163497 -0.728888 0
M  V30 7730 H 761.824 -0.289988 -1.92731 0
M  V30 7731 H 760.92 0.774136 -3.02347 0
M  V30 7732 N 761.222 1.57436 0.0718424 0
M  V30 7733 C 762.152 2.06724 1.08571 0
M  V30 7734 C 763.133 0.960731 1.40371 0
M  V30 7735 O 764.318 1.23345 1.49999 0
M  V30 7736 C 761.448 2.51112 2.39916 0
M  V30 7737 C 760.402 3.65639 2.22469 0
M  V30 7738 C 759.728 3.96082 3.59198 0
M  V30 7739 C 761.028 4.95687 1.64596 0
M  V30 7740 H 762.722 2.91679 0.675569 0
M  V30 7741 H 760.268 1.40319 0.32352 0
M  V30 7742 H 762.221 2.84206 3.11135 0
M  V30 7743 H 760.945 1.63186 2.8291 0
M  V30 7744 H 759.604 3.32828 1.53691 0
M  V30 7745 H 759.252 3.05287 3.99761 0
M  V30 7746 H 758.952 4.73199 3.48362 0
M  V30 7747 H 760.476 4.31672 4.31847 0
M  V30 7748 H 761.89 5.27011 2.25681 0
M  V30 7749 H 760.287 5.77126 1.64457 0
M  V30 7750 H 761.357 4.8108 0.60744 0
M  V30 7751 N 762.7 -0.34323 1.53817 0
M  V30 7752 C 763.946 -1.08504 1.71332 0
M  V30 7753 C 764.279 -1.88294 0.475285 0
M  V30 7754 O 763.554 -1.87205 -0.527688 0
M  V30 7755 C 763.837 -2.02597 2.97702 0
M  V30 7756 C 763.69 -1.26268 4.31713 0
M  V30 7757 C 765.009 -3.0241 3.19744 0
M  V30 7758 H 762.128 -0.393072 0.623429 0
M  V30 7759 H 764.77 -0.363579 1.86489 0
M  V30 7760 H 762.92 -2.64118 2.8491 0
M  V30 7761 H 764.592 -0.673594 4.56356 0
M  V30 7762 H 762.835 -0.564696 4.30109 0
M  V30 7763 H 763.506 -1.95253 5.16314 0
M  V30 7764 H 765.982 -2.51004 3.31868 0
M  V30 7765 H 764.858 -3.65449 4.09558 0
M  V30 7766 H 765.119 -3.73806 2.36054 0
M  V30 7767 N 764.178 -1.45556 -0.604258 0
M  V30 7768 C 765.426 -1.4945 -1.36048 0
M  V30 7769 C 765.747 -0.138933 -1.94504 0
M  V30 7770 O 765.017 0.832097 -1.7735 0
M  V30 7771 H 763.597 -0.550381 -0.505064 0
M  V30 7772 H 766.259 -1.81535 -0.709308 0
M  V30 7773 H 765.355 -2.23519 -2.17821 0
M  V30 7774 N 765.656 0.84705 -1.32902 0
M  V30 7775 C 766.933 1.58583 -1.14503 0
M  V30 7776 C 767.313 2.09075 0.291724 0
M  V30 7777 O 766.661 1.88636 1.28952 0
M  V30 7778 C 766.871 2.72605 -2.17916 0
M  V30 7779 C 768.219 3.41993 -2.51646 0
M  V30 7780 O 769.243 2.82838 -2.1652 0
M  V30 7781 O 768.102 4.48761 -3.1189 0
M  V30 7782 H 765.196 0.698756 -0.442345 0
M  V30 7783 H 767.742 0.890516 -1.44457 0
M  V30 7784 H 766.514 2.32876 -3.14459 0
M  V30 7785 H 766.137 3.49807 -1.89 0
M  V30 7786 N 767.134 1.16236 1.06428 0
M  V30 7787 C 768.064 0.890807 2.1584 0
M  V30 7788 C 769.045 -0.162333 1.69324 0
M  V30 7789 O 770.23 -0.0147191 1.94194 0
M  V30 7790 C 767.36 0.389615 3.45108 0
M  V30 7791 C 766.314 1.38051 4.05125 0
M  V30 7792 C 765.64 0.737773 5.29586 0
M  V30 7793 C 766.94 2.74965 4.44062 0
M  V30 7794 H 768.634 1.80577 2.38814 0
M  V30 7795 H 766.18 0.869657 1.14774 0
M  V30 7796 H 768.133 0.187127 4.20984 0
M  V30 7797 H 766.857 -0.560851 3.21748 0
M  V30 7798 H 765.516 1.56952 3.31303 0
M  V30 7799 H 765.164 -0.219135 5.02522 0
M  V30 7800 H 764.864 1.39914 5.70699 0
M  V30 7801 H 766.388 0.545275 6.0816 0
M  V30 7802 H 767.802 2.59855 5.11027 0
M  V30 7803 H 766.199 3.37563 4.96156 0
M  V30 7804 H 767.269 3.30321 3.54987 0
M  V30 7805 N 768.612 -1.24939 0.960631 0
M  V30 7806 C 769.542 -2.28 0.503815 0
M  V30 7807 C 770.523 -1.63959 -0.452928 0
M  V30 7808 O 771.708 -1.91009 -0.350585 0
M  V30 7809 C 768.838 -3.46643 -0.213535 0
M  V30 7810 C 767.792 -4.22903 0.658535 0
M  V30 7811 C 767.118 -5.34363 -0.189902 0
M  V30 7812 C 768.418 -4.84949 1.93963 0
M  V30 7813 H 770.112 -2.66462 1.36521 0
M  V30 7814 H 767.658 -1.28093 0.657897 0
M  V30 7815 H 769.611 -4.1787 -0.544286 0
M  V30 7816 H 768.335 -3.07187 -1.10923 0
M  V30 7817 H 766.994 -3.53467 0.972455 0
M  V30 7818 H 766.642 -4.91147 -1.08553 0
M  V30 7819 H 766.342 -5.86302 0.390331 0
M  V30 7820 H 767.866 -6.0842 -0.515484 0
M  V30 7821 H 769.28 -5.48288 1.67491 0
M  V30 7822 H 767.677 -5.47091 2.46601 0
M  V30 7823 H 768.747 -4.06799 2.639 0
M  V30 7824 N 770.09 -0.729906 -1.39679 0
M  V30 7825 C 771.053 -0.0951668 -2.29002 0
M  V30 7826 C 772.053 0.672471 -1.46063 0
M  V30 7827 O 773.243 0.502245 -1.66803 0
M  V30 7828 C 770.375 0.874631 -3.29489 0
M  V30 7829 H 771.568 -0.882062 -2.86635 0
M  V30 7830 H 769.121 -0.495424 -1.4824 0
M  V30 7831 H 769.856 1.68807 -2.76902 0
M  V30 7832 H 769.641 0.326893 -3.90735 0
M  V30 7833 H 771.131 1.31548 -3.96339 0
M  V30 7834 N 771.568 1.50203 -0.477153 0
M  V30 7835 C 772.816 2.01959 0.0755889 0
M  V30 7836 C 773.137 1.3608 1.39668 0
M  V30 7837 O 772.407 0.508136 1.89195 0
M  V30 7838 H 770.987 0.74636 0.0309248 0
M  V30 7839 H 773.649 1.84473 -0.628959 0
M  V30 7840 H 772.745 3.11305 0.222683 0
M  V30 7841 N 773.046 0.209999 1.56195 0
M  V30 7842 C 774.462 -0.145598 1.58934 0
M  V30 7843 C 774.662 -1.59868 1.22656 0
M  V30 7844 O 773.718 -2.33689 0.956336 0
M  V30 7845 C 775.031 0.170243 3.00218 0
M  V30 7846 C 776.579 0.111548 3.12801 0
M  V30 7847 C 777.054 0.400904 4.56242 0
M  V30 7848 N 778.545 0.350058 4.61875 0
M  V30 7849 C 779.28 0.547598 5.70779 0
M  V30 7850 N 778.776 0.806291 6.88092 0
M  V30 7851 N 780.569 0.480827 5.6004 0
M  V30 7852 H 772.72 1.15804 1.78054 0
M  V30 7853 H 774.983 0.463326 0.827063 0
M  V30 7854 H 774.689 1.17833 3.31373 0
M  V30 7855 H 774.563 -0.520208 3.73596 0
M  V30 7856 H 776.95 -0.887162 2.81449 0
M  V30 7857 H 777.031 0.835302 2.41777 0
M  V30 7858 H 776.675 1.397 4.8831 0
M  V30 7859 H 776.605 -0.34391 5.25476 0
M  V30 7860 H 779.096 0.157334 3.77572 0
M  V30 7861 H 779.409 0.945433 7.66995 0
M  V30 7862 H 777.754 0.843355 6.89864 0
M  V30 7863 H 780.945 0.279037 4.67268 0
M  V30 7864 H 781.118 0.638189 6.4485 0
M  V30 7865 N 774.524 -1.57472 -0.0634922 0
M  V30 7866 C 775.487 -2.03268 -1.059 0
M  V30 7867 C 776.487 -0.931028 -1.31105 0
M  V30 7868 O 777.677 -1.19567 -1.26686 0
M  V30 7869 C 774.809 -2.42039 -2.40062 0
M  V30 7870 H 776.002 -2.92454 -0.664119 0
M  V30 7871 H 773.555 -1.53206 -0.309444 0
M  V30 7872 H 774.29 -1.55904 -2.84367 0
M  V30 7873 H 774.075 -3.22437 -2.23108 0
M  V30 7874 H 775.565 -2.78017 -3.11603 0
M  V30 7875 N 776.003 0.335068 -1.53997 0
M  V30 7876 C 776.953 1.4127 -1.7896 0
M  V30 7877 C 777.937 1.474 -0.64513 0
M  V30 7878 O 779.129 1.52127 -0.904785 0
M  V30 7879 C 776.258 2.78292 -2.01018 0
M  V30 7880 C 775.344 2.7652 -3.21555 0
M  V30 7881 N 775.735 2.44374 -4.42849 0
M  V30 7882 C 774.033 3.0766 -3.22895 0
M  V30 7883 C 774.734 2.51049 -5.24737 0
M  V30 7884 N 773.71 2.8702 -4.6165 0
M  V30 7885 H 777.512 1.15327 -2.70327 0
M  V30 7886 H 775.026 0.543483 -1.53036 0
M  V30 7887 H 777.023 3.55949 -2.17039 0
M  V30 7888 H 775.683 3.05175 -1.10898 0
M  V30 7889 H 776.694 2.17422 -4.70051 0
M  V30 7890 H 773.371 3.3966 -2.42771 0
M  V30 7891 H 774.761 2.29283 -6.31569 0
M  V30 7892 N 777.481 1.45874 0.596531 0
M  V30 7893 C 778.414 1.49889 1.72071 0
M  V30 7894 C 779.392 0.354224 1.58695 0
M  V30 7895 O 780.576 0.556355 1.80103 0
M  V30 7896 C 777.703 1.3644 3.10003 0
M  V30 7897 C 776.749 2.54913 3.41938 0
M  V30 7898 S 777.582 4.17336 3.35545 0
M  V30 7899 C 778.738 4.06372 4.76039 0
M  V30 7900 H 778.971 2.45005 1.68404 0
M  V30 7901 H 776.504 1.33592 0.77412 0
M  V30 7902 H 778.462 1.29368 3.89582 0
M  V30 7903 H 777.123 0.427762 3.11174 0
M  V30 7904 H 776.316 2.41458 4.42396 0
M  V30 7905 H 775.918 2.58904 2.69898 0
M  V30 7906 H 778.21 3.72199 5.66105 0
M  V30 7907 H 779.153 5.0678 4.9455 0
M  V30 7908 H 779.561 3.37846 4.52239 0
M  V30 7909 N 778.959 -0.83999 1.33349 0
M  V30 7910 C 779.922 -1.93128 1.23426 0
M  V30 7911 C 780.922 -1.60065 0.153599 0
M  V30 7912 O 782.112 -1.69425 0.405049 0
M  V30 7913 C 779.244 -3.28761 0.901622 0
M  V30 7914 H 780.437 -2.03352 2.20427 0
M  V30 7915 H 777.99 -1.03194 1.17391 0
M  V30 7916 H 778.725 -3.24233 -0.0659337 0
M  V30 7917 H 778.51 -3.54138 1.68311 0
M  V30 7918 H 780 -4.08714 0.856913 0
M  V30 7919 N 780.437 -1.16799 -1.0581 0
M  V30 7920 C 781.683 -0.953935 -1.78963 0
M  V30 7921 C 782.016 0.516638 -1.87202 0
M  V30 7922 O 781.291 1.38338 -1.36721 0
M  V30 7923 C 781.574 -1.58808 -3.23191 0
M  V30 7924 C 781.427 -3.13032 -3.23003 0
M  V30 7925 C 782.746 -1.2868 -4.20867 0
M  V30 7926 H 779.865 -0.347972 -0.64968 0
M  V30 7927 H 782.507 -1.44204 -1.23715 0
M  V30 7928 H 780.657 -1.17303 -3.70368 0
M  V30 7929 H 782.329 -3.63553 -2.83949 0
M  V30 7930 H 780.572 -3.46108 -2.61518 0
M  V30 7931 H 781.243 -3.52527 -4.24769 0
M  V30 7932 H 783.719 -1.6461 -3.82155 0
M  V30 7933 H 782.595 -1.75645 -5.20038 0
M  V30 7934 H 782.856 -0.206491 -4.41618 0
M  V30 7935 N 781.915 1.24427 -0.967243 0
M  V30 7936 C 783.143 1.96541 -0.646477 0
M  V30 7937 C 783.558 1.71753 0.783996 0
M  V30 7938 O 782.915 1.00102 1.52597 0
M  V30 7939 C 782.966 3.4983 -0.911098 0
M  V30 7940 O 782.687 3.7377 -2.28534 0
M  V30 7941 C 784.188 4.3916 -0.604458 0
M  V30 7942 H 781.408 0.626129 -0.241255 0
M  V30 7943 H 783.952 1.58268 -1.29505 0
M  V30 7944 H 782.107 3.86168 -0.308741 0
M  V30 7945 H 782.521 4.68154 -2.365 0
M  V30 7946 H 783.995 5.4557 -0.840069 0
M  V30 7947 H 784.472 4.36771 0.461273 0
M  V30 7948 H 785.078 4.08409 -1.1867 0
M  V30 7949 N 783.393 0.737304 1.3929 0
M  V30 7950 C 784.618 0.295237 2.05288 0
M  V30 7951 C 785.043 -1.06235 1.55228 0
M  V30 7952 O 784.401 -1.67365 0.697043 0
M  V30 7953 C 784.449 0.309146 3.59272 0
M  V30 7954 O 783.553 -0.702437 4.06374 0
M  V30 7955 H 782.894 0.133762 0.650387 0
M  V30 7956 H 785.424 1.00387 1.78279 0
M  V30 7957 H 785.434 0.154336 4.07708 0
M  V30 7958 H 784.109 1.29974 3.95069 0
M  V30 7959 H 782.686 -0.513574 3.69346 0
M  V30 7960 N 784.871 -1.49948 0.485112 0
M  V30 7961 C 786.118 -2.02396 -0.0650059 0
M  V30 7962 C 786.446 -1.36606 -1.38452 0
M  V30 7963 O 785.701 -0.485476 -1.89583 0
M  V30 7964 C 786 -3.56282 -0.282434 0
M  V30 7965 C 785.666 -4.40625 0.957106 0
M  V30 7966 C 784.328 -4.63393 1.29692 0
M  V30 7967 C 786.68 -4.89799 1.78176 0
M  V30 7968 C 784.008 -5.3258 2.4612 0
M  V30 7969 C 786.36 -5.60266 2.93743 0
M  V30 7970 C 785.024 -5.81284 3.28124 0
M  V30 7971 H 784.294 -0.740618 -0.0237873 0
M  V30 7972 H 786.941 -1.80416 0.642044 0
M  V30 7973 H 785.246 -3.76853 -1.07186 0
M  V30 7974 H 786.943 -3.94442 -0.722276 0
M  V30 7975 H 783.533 -4.23133 0.682384 0
M  V30 7976 H 787.717 -4.7205 1.53239 0
M  V30 7977 H 782.973 -5.47059 2.73014 0
M  V30 7978 H 787.147 -5.97347 3.5798 0
M  V30 7979 H 784.774 -6.34671 4.18446 0
M  V30 7980 N 786.349 -0.21828 -1.56081 0
M  V30 7981 C 787.574 0.422302 -2.03055 0
M  V30 7982 C 787.999 1.5279 -1.09713 0
M  V30 7983 O 787.357 1.81102 -0.0847187 0
M  V30 7984 C 787.405 0.934177 -3.48289 0
M  V30 7985 O 786.509 2.04574 -3.58083 0
M  V30 7986 H 785.85 0.0959764 -0.657027 0
M  V30 7987 H 788.38 -0.335958 -2.01823 0
M  V30 7988 H 788.39 1.24484 -3.88546 0
M  V30 7989 H 787.065 0.124963 -4.15712 0
M  V30 7990 H 785.642 1.74196 -3.29712 0
M  V30 7991 N 787.827 1.57504 0.0551401 0
M  V30 7992 C 789.076 1.87237 0.750009 0
M  V30 7993 C 789.389 0.813268 1.77891 0
M  V30 7994 O 790.595 0.99898 2.52453 0
M  V30 7995 C 789.051 3.32187 1.38491 0
M  V30 7996 C 788.659 4.46267 0.393707 0
M  V30 7997 C 790.403 3.71101 2.06117 0
M  V30 7998 C 788.31 5.82265 1.03547 0
M  V30 7999 H 787.24 0.698524 0.283866 0
M  V30 8000 H 789.891 1.835 0.00365997 0
M  V30 8001 H 788.273 3.30588 2.18008 0
M  V30 8002 H 789.447 4.59289 -0.372865 0
M  V30 8003 H 787.762 4.16015 -0.17902 0
M  V30 8004 H 790.359 4.70012 2.54937 0
M  V30 8005 H 790.702 3.01751 2.86796 0
M  V30 8006 H 791.235 3.74762 1.33409 0
M  V30 8007 H 787.974 6.54949 0.268644 0
M  V30 8008 H 787.494 5.73012 1.7725 0
M  V30 8009 H 789.173 6.28148 1.55047 0
M  V30 8010 N 789.305 -0.326896 1.54172 0
M  V30 8011 C 790.253 -1.42232 1.84046 0
M  V30 8012 C 791.247 -1.53705 0.712115 0
M  V30 8013 O 792.453 -1.56131 0.895724 0
M  V30 8014 H 788.828 -0.474568 0.583343 0
M  V30 8015 H 790.799 -1.14259 2.75658 0
M  V30 8016 C 789.548 -2.78502 2.08163 0
M  V30 8017 H 788.871 -2.70447 2.94446 0
M  V30 8018 H 790.311 -3.54228 2.33021 0
M  V30 8019 C 788.77 -3.25415 0.872152 0
M  V30 8020 O 789.3 -4.01621 0.0797648 0
M  V30 8021 N 787.506 -2.82418 0.684716 0
M  V30 8022 H 787.053 -2.20566 1.33072 0
M  V30 8023 H 787.011 -3.14159 -0.123031 0
M  V30 8024 N 790.784 -1.46188 -0.588786 0
M  V30 8025 C 792.009 -1.5498 -1.37826 0
M  V30 8026 C 792.434 -0.189498 -1.87143 0
M  V30 8027 O 791.792 0.829293 -1.61222 0
M  V30 8028 C 791.84 -2.55369 -2.54596 0
M  V30 8029 O 790.944 -2.08452 -3.55839 0
M  V30 8030 H 790.285 -0.521741 -0.41071 0
M  V30 8031 H 792.815 -1.91708 -0.714779 0
M  V30 8032 H 792.825 -2.74782 -3.01594 0
M  V30 8033 H 791.5 -3.54155 -2.18052 0
M  V30 8034 H 790.077 -1.98999 -3.15363 0
M  V30 8035 N 792.262 0.832906 -1.33792 0
M  V30 8036 C 793.225 1.92471 -1.24449 0
M  V30 8037 C 794.225 1.59981 -0.162085 0
M  V30 8038 O 795.415 1.69208 -0.414029 0
M  V30 8039 C 792.547 3.28278 -0.919044 0
M  V30 8040 H 793.74 2.0218 -2.21502 0
M  V30 8041 H 791.293 1.0257 -1.17936 0
M  V30 8042 H 792.028 3.24263 0.048738 0
M  V30 8043 H 791.813 3.53241 -1.70187 0
M  V30 8044 H 793.303 4.08253 -0.878576 0
M  V30 8045 N 793.74 1.17359 1.05189 0
M  V30 8046 C 795.156 0.920861 1.30355 0
M  V30 8047 C 795.356 -0.419993 1.97074 0
M  V30 8048 O 794.412 -1.15696 2.24434 0
M  V30 8049 C 795.725 2.07818 2.1733 0
M  V30 8050 C 797.273 2.1152 2.30712 0
M  V30 8051 C 797.748 3.26637 3.21048 0
M  V30 8052 N 799.239 3.26426 3.28634 0
M  V30 8053 C 799.974 4.12141 3.98657 0
M  V30 8054 N 799.47 5.07966 4.71107 0
M  V30 8055 N 801.263 4.00091 3.94821 0
M  V30 8056 H 793.414 2.03666 0.602821 0
M  V30 8057 H 795.677 0.889294 0.328421 0
M  V30 8058 H 795.383 3.04727 1.75597 0
M  V30 8059 H 795.257 2.02922 3.17966 0
M  V30 8060 H 797.644 1.15196 2.71687 0
M  V30 8061 H 797.725 2.20477 1.29706 0
M  V30 8062 H 797.369 4.23227 2.80788 0
M  V30 8063 H 797.299 3.14917 4.2206 0
M  V30 8064 H 799.79 2.57045 2.77013 0
M  V30 8065 H 800.103 5.69766 5.22099 0
M  V30 8066 H 798.448 5.11936 4.7005 0
M  V30 8067 H 801.639 3.24523 3.37346 0
M  V30 8068 H 801.812 4.6711 4.49123 0
M  V30 8069 N 795.218 -1.23913 0.973828 0
M  V30 8070 C 796.443 -1.96735 0.656511 0
M  V30 8071 C 796.868 -1.71682 -0.768571 0
M  V30 8072 O 796.226 -0.984267 -1.52256 0
M  V30 8073 C 796.274 -3.48004 0.944735 0
M  V30 8074 O 795.378 -4.12387 0.0333357 0
M  V30 8075 H 794.719 -0.616119 0.247575 0
M  V30 8076 H 797.249 -1.57525 1.30564 0
M  V30 8077 H 797.259 -3.98424 0.87876 0
M  V30 8078 H 795.934 -3.65567 1.98328 0
M  V30 8079 H 794.511 -3.72585 0.153157 0
M  V30 8080 N 796.696 -0.74468 -1.38897 0
M  V30 8081 C 797.628 -0.0713608 -2.29089 0
M  V30 8082 C 798.641 0.693224 -1.47303 0
M  V30 8083 O 799.83 0.535785 -1.70269 0
M  V30 8084 C 796.93 0.923078 -3.26087 0
M  V30 8085 C 796.103 0.217998 -4.36856 0
M  V30 8086 C 795.162 1.12192 -5.14101 0
M  V30 8087 O 794.188 0.595771 -5.66073 0
M  V30 8088 N 795.39 2.45082 -5.26227 0
M  V30 8089 H 798.155 -0.845906 -2.87514 0
M  V30 8090 H 795.716 -0.594712 -1.50581 0
M  V30 8091 H 797.708 1.53061 -3.74639 0
M  V30 8092 H 796.278 1.59876 -2.68623 0
M  V30 8093 H 795.498 -0.570134 -3.90055 0
M  V30 8094 H 796.786 -0.270248 -5.08082 0
M  V30 8095 H 796.184 2.90294 -4.85537 0
M  V30 8096 H 794.741 3.00907 -5.78185 0
M  V30 8097 N 798.174 1.49689 -0.493057 0
M  V30 8098 C 799.42 2.02727 0.0543518 0
M  V30 8099 C 799.753 1.37264 1.37376 0
M  V30 8100 O 799.028 0.505644 1.87812 0
M  V30 8101 C 799.311 3.59456 0.215226 0
M  V30 8102 C 799.164 4.35459 -1.12675 0
M  V30 8103 C 800.483 4.29511 0.959586 0
M  V30 8104 H 797.602 0.736773 0.0182786 0
M  V30 8105 H 800.244 1.78792 -0.642924 0
M  V30 8106 H 798.394 3.79981 0.809122 0
M  V30 8107 H 800.066 4.2645 -1.75891 0
M  V30 8108 H 798.309 3.9833 -1.71801 0
M  V30 8109 H 798.98 5.43454 -0.967578 0
M  V30 8110 H 801.456 4.13594 0.455977 0
M  V30 8111 H 800.332 5.38939 1.04098 0
M  V30 8112 H 800.593 3.94202 2.00144 0
M  V30 8113 N 799.652 0.226554 1.55963 0
M  V30 8114 C 800.898 -0.404387 1.98727 0
M  V30 8115 C 801.231 -1.59059 1.11418 0
M  V30 8116 O 800.506 -1.93729 0.172971 0
M  V30 8117 C 800.789 -0.834081 3.50307 0
M  V30 8118 C 800.642 0.356104 4.48388 0
M  V30 8119 C 801.961 -1.68845 4.06423 0
M  V30 8120 H 799.08 -0.145515 0.722492 0
M  V30 8121 H 801.722 0.323791 1.87221 0
M  V30 8122 H 799.872 -1.45454 3.60244 0
M  V30 8123 H 801.544 0.99432 4.50456 0
M  V30 8124 H 799.787 1.0027 4.22053 0
M  V30 8125 H 800.458 0.0124333 5.51999 0
M  V30 8126 H 802.934 -1.16489 3.99461 0
M  V30 8127 H 801.81 -1.958 5.1279 0
M  V30 8128 H 802.071 -2.65347 3.53615 0
M  V30 8129 N 801.13 -1.57531 -0.0467866 0
M  V30 8130 C 802.407 -1.79568 -0.775536 0
M  V30 8131 C 802.787 -0.820322 -1.94509 0
M  V30 8132 O 802.135 0.14134 -2.28062 0
M  V30 8133 C 802.345 -3.26789 -1.22516 0
M  V30 8134 C 803.693 -3.91299 -1.64835 0
M  V30 8135 O 804.717 -3.30831 -1.3202 0
M  V30 8136 O 803.576 -4.97727 -2.25677 0
M  V30 8137 H 800.67 -0.737817 -0.373572 0
M  V30 8138 H 803.216 -1.69682 -0.0249302 0
M  V30 8139 H 801.988 -3.89357 -0.389446 0
M  V30 8140 H 801.611 -3.41496 -2.03633 0
M  V30 8141 N 802.608 0.318715 -1.54344 0
M  V30 8142 C 803.855 1.05608 -1.72781 0
M  V30 8143 C 804.183 1.87854 -0.504083 0
M  V30 8144 O 803.438 1.88826 0.51414 0
M  V30 8145 C 803.737 2.00514 -2.95853 0
M  V30 8146 C 803.403 1.34385 -4.30409 0
M  V30 8147 C 802.065 1.16081 -4.66989 0
M  V30 8148 C 804.417 0.869627 -5.13894 0
M  V30 8149 C 801.745 0.490114 -5.84649 0
M  V30 8150 C 804.097 0.212735 -6.32242 0
M  V30 8151 C 802.761 0.0175882 -6.67498 0
M  V30 8152 H 802.031 0.386449 -0.632249 0
M  V30 8153 H 804.678 0.332729 -1.88587 0
M  V30 8154 H 802.983 2.79317 -2.74753 0
M  V30 8155 H 804.68 2.57605 -3.07312 0
M  V30 8156 H 801.27 1.49634 -4.01631 0
M  V30 8157 H 805.454 0.998809 -4.86146 0
M  V30 8158 H 800.71 0.327767 -6.10521 0
M  V30 8159 H 804.884 -0.162699 -6.9621 0
M  V30 8160 H 802.511 -0.504137 -7.58527 0
M  V30 8161 N 804.086 1.46499 0.581025 0
M  V30 8162 C 805.314 1.5547 1.36517 0
M  V30 8163 C 805.729 0.196407 1.87776 0
M  V30 8164 O 805.086 -0.806577 1.63709 0
M  V30 8165 C 805.137 2.56084 2.55154 0
M  V30 8166 O 804.858 3.86637 2.06018 0
M  V30 8167 C 806.359 2.75011 3.47683 0
M  V30 8168 H 803.579 0.525703 0.416986 0
M  V30 8169 H 806.123 1.9192 0.706177 0
M  V30 8170 H 804.278 2.22633 3.17039 0
M  V30 8171 H 804.692 4.41413 2.83292 0
M  V30 8172 H 806.166 3.49329 4.27403 0
M  V30 8173 H 806.643 1.81978 3.99726 0
M  V30 8174 H 807.249 3.09565 2.91632 0
M  V30 8175 N 805.565 -0.825799 1.34232 0
M  V30 8176 C 806.79 -1.61883 1.29648 0
M  V30 8177 C 807.215 -1.87669 -0.127295 0
M  V30 8178 O 806.573 -1.45016 -1.08813 0
M  V30 8179 C 806.621 -2.93846 2.09014 0
M  V30 8180 O 805.725 -3.85778 1.4577 0
M  V30 8181 H 805.066 -0.492454 0.445405 0
M  V30 8182 H 807.596 -1.02641 1.76992 0
M  V30 8183 H 807.606 -3.43435 2.20264 0
M  V30 8184 H 806.281 -2.74401 3.12533 0
M  V30 8185 H 804.858 -3.4429 1.43245 0
M  V30 8186 N 807.043 -1.17915 -1.04565 0
M  V30 8187 C 808.454 -0.976383 -1.59134 0
M  V30 8188 C 808.805 0.475267 -1.90357 0
M  V30 8189 O 807.93 1.35172 -1.6899 0
M  V30 8190 C 808.525 -1.76604 -2.89131 0
M  V30 8191 C 807.084 -1.60777 -3.40335 0
M  V30 8192 C 806.231 -1.76369 -2.13985 0
M  V30 8193 H 809.182 -1.32532 -0.872985 0
M  V30 8194 H 809.203 -1.25215 -3.59307 0
M  V30 8195 H 808.715 -2.82252 -2.66375 0
M  V30 8196 H 806.816 -0.576436 -3.68114 0
M  V30 8197 H 806.929 -2.40268 -4.14497 0
M  V30 8198 H 805.293 -1.19268 -2.25049 0
M  V30 8199 H 806.076 -2.83441 -1.9369 0
M  V30 8200 N 808.521 1.23394 -0.980386 0
M  V30 8201 C 809.768 1.91809 -0.649261 0
M  V30 8202 C 810.096 1.765 0.817197 0
M  V30 8203 O 809.351 1.11979 1.60497 0
M  V30 8204 C 809.65 3.43542 -0.985588 0
M  V30 8205 C 809.316 3.79031 -2.44225 0
M  V30 8206 C 807.978 3.88429 -2.84035 0
M  V30 8207 C 810.33 3.96145 -3.38702 0
M  V30 8208 C 807.658 4.12368 -4.17336 0
M  V30 8209 C 810.01 4.21583 -4.71646 0
M  V30 8210 C 808.674 4.29203 -5.11215 0
M  V30 8211 H 807.944 0.70188 -0.237581 0
M  V30 8212 H 810.591 1.4642 -1.23424 0
M  V30 8213 H 808.896 3.90503 -0.318521 0
M  V30 8214 H 810.593 3.94708 -0.707596 0
M  V30 8215 H 807.183 3.7229 -2.12362 0
M  V30 8216 H 811.367 3.88274 -3.09123 0
M  V30 8217 H 806.623 4.1649 -4.47601 0
M  V30 8218 H 810.797 4.33769 -5.4481 0
M  V30 8219 H 808.424 4.47505 -6.14527 0
M  V30 8220 N 809.999 0.752036 1.385 0
M  V30 8221 C 811.246 0.307503 2.00152 0
M  V30 8222 C 811.574 -1.11033 1.59693 0
M  V30 8223 O 810.829 -1.77455 0.825125 0
M  V30 8224 C 811.128 0.376155 3.55415 0
M  V30 8225 C 810.794 1.74942 4.15579 0
M  V30 8226 C 809.456 2.12525 4.31725 0
M  V30 8227 C 811.808 2.65031 4.48785 0
M  V30 8228 C 809.136 3.39671 4.78373 0
M  V30 8229 C 811.488 3.91567 4.96848 0
M  V30 8230 C 810.152 4.2922 5.11201 0
M  V30 8231 H 809.422 0.112523 0.732407 0
M  V30 8232 H 812.069 0.962213 1.65571 0
M  V30 8233 H 810.374 -0.362121 3.90123 0
M  V30 8234 H 812.071 0.0138065 4.00998 0
M  V30 8235 H 808.661 1.44726 4.03426 0
M  V30 8236 H 812.845 2.3726 4.35914 0
M  V30 8237 H 808.101 3.68765 4.8767 0
M  V30 8238 H 812.275 4.61517 5.21512 0
M  V30 8239 H 809.902 5.27805 5.47107 0
M  V30 8240 N 811.477 -1.49425 0.500989 0
M  V30 8241 C 812.702 -2.07356 -0.0425154 0
M  V30 8242 C 813.127 -1.35887 -1.30063 0
M  V30 8243 O 812.485 -0.41561 -1.76472 0
M  V30 8244 C 812.533 -3.59518 -0.279188 0
M  V30 8245 O 811.637 -3.89542 -1.3539 0
M  V30 8246 H 810.978 -0.663482 0.0262207 0
M  V30 8247 H 813.508 -1.92231 0.700607 0
M  V30 8248 H 813.518 -4.04791 -0.5107 0
M  V30 8249 H 812.193 -4.10946 0.640009 0
M  V30 8250 H 810.77 -3.56079 -1.10734 0
M  V30 8251 N 812.955 -0.234822 -1.55841 0
M  V30 8252 C 814.183 0.397745 -2.03041 0
M  V30 8253 C 814.598 1.52405 -1.11437 0
M  V30 8254 O 813.955 1.82061 -0.126466 0
M  V30 8255 C 814.006 0.916919 -3.49678 0
M  V30 8256 O 813.727 -0.164493 -4.37791 0
M  V30 8257 C 815.228 1.62139 -4.12584 0
M  V30 8258 H 812.448 0.0959214 -0.664108 0
M  V30 8259 H 814.992 -0.355156 -2.01392 0
M  V30 8260 H 813.147 1.62004 -3.519 0
M  V30 8261 H 813.561 0.227794 -5.24005 0
M  V30 8262 H 815.035 1.93651 -5.16917 0
M  V30 8263 H 815.512 2.53918 -3.58361 0
M  V30 8264 H 816.118 0.963145 -4.14251 0
M  V30 8265 N 814.433 1.57553 0.0384317 0
M  V30 8266 C 815.658 1.93485 0.746872 0
M  V30 8267 C 816.083 0.834069 1.68597 0
M  V30 8268 O 815.441 -0.210902 1.80069 0
M  V30 8269 C 815.489 3.28463 1.4881 0
M  V30 8270 O 814.593 3.20051 2.60079 0
M  V30 8271 H 813.934 0.632675 0.201539 0
M  V30 8272 H 816.464 2.046 -0.00329815 0
M  V30 8273 H 816.474 3.63132 1.86009 0
M  V30 8274 H 815.149 4.08147 0.799297 0
M  V30 8275 H 813.726 2.96998 2.25492 0
M  V30 8276 N 815.911 -0.310526 1.54511 0
M  V30 8277 C 816.841 -1.38757 1.878 0
M  V30 8278 C 817.822 -1.53353 0.735991 0
M  V30 8279 O 819.007 -1.67018 0.990887 0
M  V30 8280 C 816.137 -2.75327 2.11689 0
M  V30 8281 C 815.091 -2.75506 3.27537 0
M  V30 8282 C 814.417 -4.15275 3.36824 0
M  V30 8283 C 815.717 -2.38093 4.64875 0
M  V30 8284 H 817.411 -1.11146 2.78005 0
M  V30 8285 H 814.957 -0.533232 1.33763 0
M  V30 8286 H 816.91 -3.50752 2.33562 0
M  V30 8287 H 815.634 -3.04443 1.18245 0
M  V30 8288 H 814.293 -2.02538 3.05572 0
M  V30 8289 H 813.941 -4.41553 2.40915 0
M  V30 8290 H 813.641 -4.16299 4.14692 0
M  V30 8291 H 815.165 -4.92493 3.60947 0
M  V30 8292 H 816.579 -3.03232 4.86542 0
M  V30 8293 H 814.976 -2.50345 5.45387 0
M  V30 8294 H 816.046 -1.33227 4.66239 0
M  V30 8295 N 817.389 -1.46805 -0.573248 0
M  V30 8296 C 818.637 -1.52302 -1.32847 0
M  V30 8297 C 818.958 -0.180159 -1.94166 0
M  V30 8298 O 818.228 0.794291 -1.79075 0
M  V30 8299 H 816.808 -0.56097 -0.493276 0
M  V30 8300 H 819.47 -1.82998 -0.670642 0
M  V30 8301 H 818.566 -2.28089 -2.13031 0
M  V30 8302 N 818.867 0.818669 -1.34668 0
M  V30 8303 C 820.116 1.57017 -1.26604 0
M  V30 8304 C 820.429 1.94936 0.161036 0
M  V30 8305 O 821.635 2.69051 0.36386 0
M  V30 8306 C 820.091 2.83305 -2.2196 0
M  V30 8307 C 819.699 2.52671 -3.69948 0
M  V30 8308 C 821.443 3.61324 -2.22813 0
M  V30 8309 C 819.35 3.75178 -4.5716 0
M  V30 8310 H 818.28 0.589323 -0.470335 0
M  V30 8311 H 820.931 0.900956 -1.59859 0
M  V30 8312 H 819.313 3.51874 -1.81661 0
M  V30 8313 H 820.487 1.92186 -4.18809 0
M  V30 8314 H 818.802 1.8792 -3.71584 0
M  V30 8315 H 821.399 4.52294 -2.85192 0
M  V30 8316 H 821.742 3.97759 -1.22857 0
M  V30 8317 H 822.275 2.99703 -2.61578 0
M  V30 8318 H 819.014 3.43861 -5.58068 0
M  V30 8319 H 818.534 4.34931 -4.13031 0
M  V30 8320 H 820.213 4.42542 -4.71981 0
M  V30 8321 N 820.346 1.18468 1.03938 0
M  V30 8322 C 821.279 0.856251 2.11527 0
M  V30 8323 C 822.257 -0.182323 1.61575 0
M  V30 8324 O 823.441 -0.061 1.88401 0
M  V30 8325 C 820.568 0.279562 3.37544 0
M  V30 8326 C 819.614 1.29552 4.06348 0
M  V30 8327 S 820.447 2.85191 4.5324 0
M  V30 8328 C 821.603 2.29037 5.82489 0
M  V30 8329 H 821.836 1.76742 2.39059 0
M  V30 8330 H 819.369 1.01068 1.16725 0
M  V30 8331 H 821.327 -0.0466579 4.10473 0
M  V30 8332 H 819.988 -0.60975 3.08125 0
M  V30 8333 H 819.181 0.840922 4.96935 0
M  V30 8334 H 818.783 1.56804 3.39541 0
M  V30 8335 H 821.075 1.67376 6.565 0
M  V30 8336 H 822.018 3.17929 6.32714 0
M  V30 8337 H 822.426 1.72009 5.37655 0
M  V30 8338 N 821.824 -1.22873 0.986916 0
M  V30 8339 C 823.07 -1.91746 0.660401 0
M  V30 8340 C 823.403 -1.76738 -0.804812 0
M  V30 8341 O 822.678 -1.13246 -1.58131 0
M  V30 8342 C 822.961 -3.44156 1.05966 0
M  V30 8343 C 822.814 -3.68242 2.58298 0
M  V30 8344 C 824.133 -4.35874 0.60842 0
M  V30 8345 H 821.252 -0.696347 0.241391 0
M  V30 8346 H 823.894 -1.44867 1.22937 0
M  V30 8347 H 822.044 -3.84213 0.575534 0
M  V30 8348 H 823.716 -3.37626 3.14335 0
M  V30 8349 H 821.959 -3.12728 3.00638 0
M  V30 8350 H 822.63 -4.74956 2.81285 0
M  V30 8351 H 825.106 -4.03299 1.02417 0
M  V30 8352 H 823.982 -5.41201 0.916142 0
M  V30 8353 H 824.243 -4.39364 -0.491086 0
M  V30 8354 N 823.302 -0.75937 -1.38099 0
M  V30 8355 C 824.718 -0.437606 -1.53483 0
M  V30 8356 C 824.918 1.04849 -1.72072 0
M  V30 8357 O 823.974 1.83448 -1.73502 0
M  V30 8358 C 825.287 -1.24189 -2.73857 0
M  V30 8359 C 826.835 -1.23255 -2.8771 0
M  V30 8360 C 827.31 -2.01992 -4.11051 0
M  V30 8361 N 828.801 -1.99282 -4.1814 0
M  V30 8362 C 829.536 -2.56996 -5.12583 0
M  V30 8363 N 829.032 -3.23446 -6.12662 0
M  V30 8364 N 830.825 -2.46894 -5.04975 0
M  V30 8365 H 822.976 -1.72242 -1.24283 0
M  V30 8366 H 825.239 -0.730507 -0.604205 0
M  V30 8367 H 824.945 -2.29449 -2.66545 0
M  V30 8368 H 824.819 -0.862672 -3.67203 0
M  V30 8369 H 827.206 -0.187988 -2.94501 0
M  V30 8370 H 827.287 -1.65132 -1.95359 0
M  V30 8371 H 826.931 -3.06462 -4.05023 0
M  V30 8372 H 826.861 -1.57505 -5.02494 0
M  V30 8373 H 829.352 -1.50893 -3.46467 0
M  V30 8374 H 829.665 -3.6489 -6.81231 0
M  V30 8375 H 828.01 -3.27543 -6.12977 0
M  V30 8376 H 831.201 -1.94604 -4.25731 0
M  V30 8377 H 831.374 -2.92168 -5.78396 0
M  V30 8378 N 824.78 1.49157 -0.508906 0
M  V30 8379 C 825.743 2.27784 0.25434 0
M  V30 8380 C 826.743 1.34132 0.88686 0
M  V30 8381 O 827.933 1.5722 0.750168 0
M  V30 8382 C 825.065 3.12347 1.36573 0
M  V30 8383 H 826.258 2.96718 -0.435714 0
M  V30 8384 H 823.811 1.54052 -0.264128 0
M  V30 8385 H 824.546 2.47997 2.08969 0
M  V30 8386 H 824.331 3.81213 0.917543 0
M  V30 8387 H 825.821 3.71712 1.90315 0
M  V30 8388 N 826.258 0.243083 1.55714 0
M  V30 8389 C 827.674 -0.111853 1.59208 0
M  V30 8390 C 827.874 -1.5723 1.2602 0
M  V30 8391 O 826.93 -2.31608 1.00569 0
M  V30 8392 C 828.243 0.233885 2.99789 0
M  V30 8393 C 829.791 0.177873 3.12494 0
M  V30 8394 C 830.266 0.49759 4.55289 0
M  V30 8395 N 831.757 0.447949 4.61029 0
M  V30 8396 C 832.492 0.668545 5.69489 0
M  V30 8397 N 831.988 0.952064 6.86227 0
M  V30 8398 N 833.781 0.599512 5.58894 0
M  V30 8399 H 825.932 1.19554 1.75558 0
M  V30 8400 H 828.195 0.480765 0.817049 0
M  V30 8401 H 827.901 1.24835 3.28799 0
M  V30 8402 H 827.775 -0.440846 3.74615 0
M  V30 8403 H 830.162 -0.827263 2.83267 0
M  V30 8404 H 830.243 0.886399 2.39951 0
M  V30 8405 H 829.887 1.50026 4.85237 0
M  V30 8406 H 829.817 -0.232371 5.26087 0
M  V30 8407 H 832.308 0.237388 3.77154 0
M  V30 8408 H 832.621 1.10791 7.64817 0
M  V30 8409 H 830.966 0.989496 6.8792 0
M  V30 8410 H 834.157 0.378088 4.66571 0
M  V30 8411 H 834.33 0.774828 6.43351 0
M  V30 8412 N 827.736 -1.57571 -0.0300757 0
M  V30 8413 C 829.013 -1.80381 -0.756447 0
M  V30 8414 C 829.393 -0.840906 -1.93628 0
M  V30 8415 O 828.741 0.117143 -2.282 0
M  V30 8416 C 828.951 -3.2807 -1.19043 0
M  V30 8417 C 830.299 -3.93025 -1.60676 0
M  V30 8418 O 831.323 -3.32213 -1.28503 0
M  V30 8419 O 830.182 -5.00092 -2.20386 0
M  V30 8420 H 827.276 -0.741737 -0.365725 0
M  V30 8421 H 829.822 -1.69699 -0.00693177 0
M  V30 8422 H 828.594 -3.89748 -0.348128 0
M  V30 8423 H 828.217 -3.43637 -1.99999 0
M  V30 8424 N 829.214 0.302327 -1.54673 0
M  V30 8425 C 830.442 1.05669 -1.77881 0
M  V30 8426 C 830.857 1.80983 -0.537648 0
M  V30 8427 O 830.214 1.7573 0.492467 0
M  V30 8428 C 830.265 2.03828 -2.98557 0
M  V30 8429 O 829.986 1.3157 -4.17877 0
M  V30 8430 C 831.487 2.91314 -3.34143 0
M  V30 8431 H 828.707 0.313436 -0.593295 0
M  V30 8432 H 831.251 0.342003 -2.0162 0
M  V30 8433 H 829.406 2.70801 -2.7703 0
M  V30 8434 H 829.82 1.97481 -4.85903 0
M  V30 8435 H 831.294 3.56042 -4.21827 0
M  V30 8436 H 831.771 3.59544 -2.52239 0
M  V30 8437 H 832.377 2.29874 -3.57824 0
M  V30 8438 N 830.692 1.47107 0.565454 0
M  V30 8439 C 831.655 1.58535 1.65527 0
M  V30 8440 C 832.655 0.461081 1.54048 0
M  V30 8441 O 833.845 0.725911 1.58355 0
M  V30 8442 C 830.977 1.52204 3.05036 0
M  V30 8443 H 832.17 2.55676 1.56747 0
M  V30 8444 H 829.723 1.35174 0.78471 0
M  V30 8445 H 830.458 0.564071 3.19357 0
M  V30 8446 H 830.243 2.3379 3.14777 0
M  V30 8447 H 831.733 1.63322 3.84338 0
M  V30 8448 N 832.17 -0.811516 1.35101 0
M  V30 8449 C 833.395 -1.60499 1.31358 0
M  V30 8450 C 833.82 -1.87793 -0.107383 0
M  V30 8451 O 833.178 -1.46161 -1.07268 0
M  V30 8452 C 833.226 -2.91612 2.12119 0
M  V30 8453 O 832.33 -3.84211 1.49853 0
M  V30 8454 H 831.671 -0.487702 0.450603 0
M  V30 8455 H 834.201 -1.00758 1.7807 0
M  V30 8456 H 834.211 -3.4108 2.23894 0
M  V30 8457 H 832.886 -2.71071 3.15426 0
M  V30 8458 H 831.463 -3.42751 1.46889 0
M  V30 8459 N 833.648 -1.19017 -1.03309 0
M  V30 8460 C 835.059 -0.993206 -1.5809 0
M  V30 8461 C 835.41 0.45505 -1.9085 0
M  V30 8462 O 834.535 1.33372 -1.70414 0
M  V30 8463 C 835.13 -1.79661 -2.87241 0
M  V30 8464 C 833.689 -1.64377 -3.38611 0
M  V30 8465 C 832.836 -1.78628 -2.12102 0
M  V30 8466 H 835.787 -1.3345 -0.858879 0
M  V30 8467 H 835.808 -1.29019 -3.57958 0
M  V30 8468 H 835.32 -2.85061 -2.63366 0
M  V30 8469 H 833.421 -0.615447 -3.67482 0
M  V30 8470 H 833.534 -2.44651 -4.11926 0
M  V30 8471 H 831.898 -1.21648 -2.23772 0
M  V30 8472 H 832.681 -2.8548 -1.90673 0
M  V30 8473 N 835.127 1.22348 -0.993418 0
M  V30 8474 C 836.376 1.90422 -0.665019 0
M  V30 8475 C 836.689 1.78199 0.806512 0
M  V30 8476 O 837.895 2.41193 1.24652 0
M  V30 8477 C 836.351 3.41403 -1.13893 0
M  V30 8478 C 835.959 3.62262 -2.63572 0
M  V30 8479 C 837.703 4.15175 -0.884884 0
M  V30 8480 C 835.61 5.06947 -3.04564 0
M  V30 8481 H 834.54 0.713073 -0.245037 0
M  V30 8482 H 837.191 1.3856 -1.20305 0
M  V30 8483 H 835.573 3.9245 -0.529027 0
M  V30 8484 H 836.747 3.21705 -3.29913 0
M  V30 8485 H 835.062 3.01824 -2.86865 0
M  V30 8486 H 837.659 5.21813 -1.16684 0
M  V30 8487 H 838.002 4.15915 0.178982 0
M  V30 8488 H 838.535 3.70157 -1.45701 0
M  V30 8489 H 835.274 5.11346 -4.10128 0
M  V30 8490 H 834.794 5.48404 -2.42927 0
M  V30 8491 H 836.473 5.75374 -2.95894 0
M  V30 8492 N 836.605 0.766683 1.37694 0
M  V30 8493 C 837.853 0.328065 1.9942 0
M  V30 8494 C 838.174 -1.09775 1.61166 0
M  V30 8495 O 837.444 -1.75288 0.874686 0
M  V30 8496 H 836.024 0.11831 0.737572 0
M  V30 8497 H 838.686 0.983686 1.68255 0
M  V30 8498 H 837.782 0.401647 3.09505 0
M  V30 8499 N 838.083 -1.48885 0.516809 0
M  V30 8500 C 839.046 -2.27916 -0.242256 0
M  V30 8501 C 840.046 -1.34601 -0.879735 0
M  V30 8502 O 841.236 -1.57616 -0.74182 0
M  V30 8503 C 838.368 -3.13067 -1.34914 0
M  V30 8504 H 839.561 -2.96483 0.451444 0
M  V30 8505 H 837.114 -1.5391 0.272294 0
M  V30 8506 H 837.849 -2.49102 -2.07651 0
M  V30 8507 H 837.634 -3.81695 -0.897313 0
M  V30 8508 H 839.124 -3.72716 -1.88341 0
M  V30 8509 N 839.561 -0.251338 -1.55583 0
M  V30 8510 C 840.808 0.372169 -1.99051 0
M  V30 8511 C 841.136 1.57623 -1.13953 0
M  V30 8512 O 840.391 1.94762 -0.191398 0
M  V30 8513 C 840.69 0.821186 -3.47838 0
M  V30 8514 C 840.356 -0.275608 -4.50057 0
M  V30 8515 C 839.018 -0.57683 -4.7773 0
M  V30 8516 C 841.37 -1.01585 -5.11204 0
M  V30 8517 C 838.698 -1.62229 -5.63825 0
M  V30 8518 C 841.05 -2.05087 -5.98433 0
M  V30 8519 C 839.714 -2.35869 -6.24437 0
M  V30 8520 H 838.984 0.136186 -0.728378 0
M  V30 8521 H 841.631 -0.360089 -1.88084 0
M  V30 8522 H 839.936 1.63272 -3.56159 0
M  V30 8523 H 841.633 1.31396 -3.78861 0
M  V30 8524 H 838.223 -0.030697 -4.28589 0
M  V30 8525 H 842.407 -0.79639 -4.89869 0
M  V30 8526 H 837.663 -1.86607 -5.82226 0
M  V30 8527 H 841.837 -2.62934 -6.44855 0
M  V30 8528 H 839.464 -3.17017 -6.90944 0
M  V30 8529 N 841.039 1.57585 0.0217189 0
M  V30 8530 C 841.972 2.02435 1.05334 0
M  V30 8531 C 842.95 0.91006 1.34747 0
M  V30 8532 O 844.134 1.17648 1.47279 0
M  V30 8533 C 841.261 2.40362 2.38629 0
M  V30 8534 C 840.307 3.62307 2.25025 0
M  V30 8535 S 841.14 5.11141 1.59673 0
M  V30 8536 C 842.296 5.52316 2.94444 0
M  V30 8537 H 842.529 2.89621 0.671354 0
M  V30 8538 H 840.062 1.52648 0.231925 0
M  V30 8539 H 842.02 2.62883 3.15282 0
M  V30 8540 H 840.681 1.53615 2.73973 0
M  V30 8541 H 839.874 3.86523 3.23443 0
M  V30 8542 H 839.476 3.39675 1.56515 0
M  V30 8543 H 841.768 5.53449 3.90768 0
M  V30 8544 H 842.711 6.52539 2.74952 0
M  V30 8545 H 843.119 4.79834 2.97355 0
M  V30 8546 N 842.517 -0.29412 1.54831 0
M  V30 8547 C 843.763 -1.02602 1.75626 0
M  V30 8548 C 844.118 -1.84689 0.539232 0
M  V30 8549 O 843.411 -1.85788 -0.468322 0
M  V30 8550 C 843.605 -1.95782 2.99006 0
M  V30 8551 C 843.434 -1.22861 4.32591 0
M  V30 8552 C 842.204 -0.95294 4.96233 0
M  V30 8553 C 844.402 -0.629592 5.10432 0
M  V30 8554 N 842.384 -0.194728 6.13591 0
M  V30 8555 C 843.755 -0.00449586 6.2 0
M  V30 8556 C 845.81 -0.535327 4.95014 0
M  V30 8557 C 844.513 0.705754 7.15829 0
M  V30 8558 C 846.539 0.161284 5.9118 0
M  V30 8559 C 845.901 0.775203 7.00121 0
M  V30 8560 H 842 -0.358143 0.695167 0
M  V30 8561 H 844.584 -0.303896 1.92314 0
M  V30 8562 H 842.755 -2.65238 2.83731 0
M  V30 8563 H 844.487 -2.62175 3.08296 0
M  V30 8564 H 841.242 -1.25285 4.56728 0
M  V30 8565 H 841.666 0.171093 6.76784 0
M  V30 8566 H 846.308 -0.995662 4.10909 0
M  V30 8567 H 844.026 1.17784 7.9947 0
M  V30 8568 H 847.612 0.234256 5.81328 0
M  V30 8569 H 846.492 1.30566 7.73254 0
M  V30 8570 N 843.995 -1.47404 -0.557645 0
M  V30 8571 C 845.406 -1.47872 -1.13977 0
M  V30 8572 C 845.757 -0.233176 -1.94809 0
M  V30 8573 O 844.882 0.661945 -2.06027 0
M  V30 8574 C 845.477 -2.67926 -2.07368 0
M  V30 8575 C 844.036 -2.71354 -2.60852 0
M  V30 8576 C 843.183 -2.40967 -1.37223 0
M  V30 8577 H 846.134 -1.54921 -0.344268 0
M  V30 8578 H 846.155 -2.44871 -2.91236 0
M  V30 8579 H 845.667 -3.58562 -1.48509 0
M  V30 8580 H 843.768 -1.84855 -3.23511 0
M  V30 8581 H 843.881 -3.72032 -3.01876 0
M  V30 8582 H 842.245 -1.91541 -1.67882 0
M  V30 8583 H 843.028 -3.33811 -0.801583 0
M  V30 8584 N 845.473 0.80434 -1.35529 0
M  V30 8585 C 846.403 1.93086 -1.31301 0
M  V30 8586 C 847.384 1.69068 -0.187044 0
M  V30 8587 O 848.569 1.90399 -0.382359 0
M  V30 8588 C 845.699 3.29867 -1.0865 0
M  V30 8589 C 844.653 3.68373 -2.17911 0
M  V30 8590 C 843.979 5.0334 -1.80423 0
M  V30 8591 C 845.279 3.78516 -3.59893 0
M  V30 8592 H 846.973 1.96882 -2.25561 0
M  V30 8593 H 844.519 0.945841 -1.08581 0
M  V30 8594 H 846.472 4.08281 -1.04331 0
M  V30 8595 H 845.196 3.2642 -0.108359 0
M  V30 8596 H 843.855 2.92247 -2.21331 0
M  V30 8597 H 843.503 4.96399 -0.812213 0
M  V30 8598 H 843.203 5.30074 -2.53565 0
M  V30 8599 H 844.727 5.84191 -1.77633 0
M  V30 8600 H 846.141 4.47155 -3.58783 0
M  V30 8601 H 844.538 4.16721 -4.31814 0
M  V30 8602 H 845.608 2.8001 -3.95882 0
M  V30 8603 N 846.951 1.19563 1.02676 0
M  V30 8604 C 847.901 0.903055 2.09354 0
M  V30 8605 C 848.885 -0.133009 1.60349 0
M  V30 8606 O 850.077 0.0729744 1.7685 0
M  V30 8607 C 847.206 0.445852 3.40392 0
M  V30 8608 C 846.292 1.51477 3.96126 0
M  V30 8609 N 846.683 2.73474 4.25495 0
M  V30 8610 C 844.981 1.37856 4.2416 0
M  V30 8611 C 845.682 3.42348 4.7029 0
M  V30 8612 N 844.658 2.69746 4.71952 0
M  V30 8613 H 848.46 1.83023 2.29956 0
M  V30 8614 H 845.974 1.08812 1.20556 0
M  V30 8615 H 847.971 0.21769 4.16331 0
M  V30 8616 H 846.631 -0.47482 3.2121 0
M  V30 8617 H 847.642 3.10217 4.14711 0
M  V30 8618 H 844.319 0.521512 4.1423 0
M  V30 8619 H 845.709 4.46686 5.01917 0
M  V30 8620 N 848.429 -1.21819 0.999893 0
M  V30 8621 C 849.675 -1.91325 0.690373 0
M  V30 8622 C 850.03 -1.76323 -0.769929 0
M  V30 8623 O 849.323 -1.12585 -1.55033 0
M  V30 8624 C 849.517 -3.4193 1.04012 0
M  V30 8625 C 849.346 -3.71585 2.53287 0
M  V30 8626 C 848.116 -3.91219 3.19806 0
M  V30 8627 C 850.314 -3.75502 3.5143 0
M  V30 8628 N 848.296 -4.08246 4.58485 0
M  V30 8629 C 849.667 -3.97753 4.75597 0
M  V30 8630 C 851.722 -3.58383 3.45638 0
M  V30 8631 C 850.425 -4.04662 5.94677 0
M  V30 8632 C 852.451 -3.66555 4.64103 0
M  V30 8633 C 851.813 -3.89263 5.87072 0
M  V30 8634 H 847.912 -0.720484 0.304018 0
M  V30 8635 H 850.496 -1.46595 1.28133 0
M  V30 8636 H 848.667 -3.85452 0.477671 0
M  V30 8637 H 850.399 -3.98846 0.685864 0
M  V30 8638 H 847.154 -3.88917 2.7026 0
M  V30 8639 H 847.578 -4.20673 5.30437 0
M  V30 8640 H 852.22 -3.39807 2.51576 0
M  V30 8641 H 849.938 -4.22039 6.89136 0
M  V30 8642 H 853.524 -3.54639 4.61218 0
M  V30 8643 H 852.404 -3.95424 6.77207 0
M  V30 8644 N 849.908 -0.773975 -1.37286 0
M  V30 8645 C 851.133 -0.349561 -2.04433 0
M  V30 8646 C 851.558 1.02082 -1.5799 0
M  V30 8647 O 850.916 1.65458 -0.741172 0
M  V30 8648 C 850.964 -0.404292 -3.58326 0
M  V30 8649 O 850.068 0.594447 -4.08093 0
M  V30 8650 H 849.409 -0.150959 -0.646612 0
M  V30 8651 H 851.939 -1.05079 -1.75555 0
M  V30 8652 H 851.949 -0.262378 -4.07155 0
M  V30 8653 H 850.624 -1.40403 -3.91484 0
M  V30 8654 H 849.201 0.415468 -3.70578 0
M  V30 8655 N 851.386 1.48609 -0.524698 0
M  V30 8656 C 852.614 2.06899 0.00742946 0
M  V30 8657 C 853.029 1.38196 1.28637 0
M  V30 8658 O 852.386 0.467771 1.76403 0
M  V30 8659 C 852.437 3.60699 0.240548 0
M  V30 8660 O 852.158 4.26821 -0.987715 0
M  V30 8661 C 853.659 4.35769 0.813652 0
M  V30 8662 H 850.879 0.670278 -0.0311294 0
M  V30 8663 H 853.423 1.91071 -0.728832 0
M  V30 8664 H 851.578 3.76149 0.926845 0
M  V30 8665 H 851.992 5.18889 -0.765175 0
M  V30 8666 H 853.466 5.44174 0.926219 0
M  V30 8667 H 853.943 3.9984 1.81728 0
M  V30 8668 H 854.549 4.24983 0.164086 0
M  V30 8669 N 852.864 0.259585 1.55447 0
M  V30 8670 C 854.11 -0.355207 2.00274 0
M  V30 8671 C 854.465 -1.54637 1.14477 0
M  V30 8672 O 853.758 -1.90519 0.203215 0
M  V30 8673 C 853.952 -0.802727 3.48269 0
M  V30 8674 C 853.781 0.34353 4.48386 0
M  V30 8675 C 852.551 0.822317 4.98564 0
M  V30 8676 C 854.749 1.17482 5.00702 0
M  V30 8677 N 852.731 1.93966 5.82452 0
M  V30 8678 C 854.102 2.14032 5.81885 0
M  V30 8679 C 856.157 1.20994 4.82975 0
M  V30 8680 C 854.86 3.1382 6.47232 0
M  V30 8681 C 856.886 2.19618 5.4911 0
M  V30 8682 C 856.248 3.14903 6.30092 0
M  V30 8683 H 852.347 -0.0955824 0.776137 0
M  V30 8684 H 854.931 0.380062 1.90954 0
M  V30 8685 H 853.102 -1.50726 3.57961 0
M  V30 8686 H 854.834 -1.39354 3.79951 0
M  V30 8687 H 851.589 0.404272 4.71871 0
M  V30 8688 H 852.013 2.50148 6.29091 0
M  V30 8689 H 856.655 0.487104 4.19985 0
M  V30 8690 H 854.373 3.87045 7.09381 0
M  V30 8691 H 857.959 2.23057 5.37342 0
M  V30 8692 H 856.839 3.8997 6.80362 0
M  V30 8693 N 854.342 -1.57594 -0.0133615 0
M  V30 8694 C 855.272 -2.10611 -1.00823 0
M  V30 8695 C 856.253 -1.01217 -1.36708 0
M  V30 8696 O 857.438 -1.28827 -1.45318 0
M  V30 8697 C 854.568 -2.59844 -2.30431 0
M  V30 8698 C 853.522 -3.73644 -2.08745 0
M  V30 8699 C 852.848 -4.09141 -3.4425 0
M  V30 8700 C 854.148 -5.01454 -1.46086 0
M  V30 8701 H 855.842 -2.93985 -0.566849 0
M  V30 8702 H 853.388 -1.41423 -0.271219 0
M  V30 8703 H 855.341 -2.95557 -3.00373 0
M  V30 8704 H 854.065 -1.73573 -2.76658 0
M  V30 8705 H 852.724 -3.38303 -1.41232 0
M  V30 8706 H 852.372 -3.19914 -3.88155 0
M  V30 8707 H 852.072 -4.85802 -3.3056 0
M  V30 8708 H 853.596 -4.47402 -4.15528 0
M  V30 8709 H 855.01 -5.35024 -2.05966 0
M  V30 8710 H 853.407 -5.82832 -1.42924 0
M  V30 8711 H 854.477 -4.83003 -0.428471 0
M  V30 8712 N 855.82 0.285905 -1.54985 0
M  V30 8713 C 857.068 1.01718 -1.74636 0
M  V30 8714 C 857.389 1.87277 -0.543342 0
M  V30 8715 O 856.659 1.90847 0.442078 0
M  V30 8716 H 855.239 0.378549 -0.643979 0
M  V30 8717 H 857.901 0.313247 -1.92366 0
M  V30 8718 H 856.997 1.66159 -2.64192 0
M  V30 8719 N 857.298 1.47698 0.54982 0
M  V30 8720 C 858.544 1.54931 1.30859 0
M  V30 8721 C 858.877 0.214021 1.93017 0
M  V30 8722 O 858.152 -0.778093 1.78258 0
M  V30 8723 C 858.435 2.67286 2.41309 0
M  V30 8724 C 858.288 4.10457 1.83971 0
M  V30 8725 C 859.607 2.75509 3.43195 0
M  V30 8726 H 856.726 0.56399 0.474431 0
M  V30 8727 H 859.368 1.79787 0.614541 0
M  V30 8728 H 857.518 2.46224 3.0051 0
M  V30 8729 H 859.19 4.42903 1.28974 0
M  V30 8730 H 857.433 4.18387 1.14606 0
M  V30 8731 H 858.104 4.84857 2.63851 0
M  V30 8732 H 860.58 2.94531 2.93923 0
M  V30 8733 H 859.456 3.55886 4.17895 0
M  V30 8734 H 859.717 1.82863 4.02509 0
M  V30 8735 N 858.776 -0.797141 1.35954 0
M  V30 8736 C 860.023 -1.55468 1.29754 0
M  V30 8737 C 860.351 -1.94095 -0.125391 0
M  V30 8738 O 859.606 -1.62341 -1.09288 0
M  V30 8739 C 859.905 -2.84847 2.15863 0
M  V30 8740 C 859.571 -2.65394 3.64523 0
M  V30 8741 C 858.233 -2.59796 4.05042 0
M  V30 8742 C 860.585 -2.4727 4.58811 0
M  V30 8743 C 857.913 -2.3403 5.38002 0
M  V30 8744 C 860.265 -2.23032 5.91979 0
M  V30 8745 C 858.929 -2.15862 6.31633 0
M  V30 8746 H 858.199 -0.568897 0.474803 0
M  V30 8747 H 860.846 -0.920299 1.67937 0
M  V30 8748 H 859.151 -3.52712 1.70591 0
M  V30 8749 H 860.848 -3.42597 2.08395 0
M  V30 8750 H 857.438 -2.70602 3.32374 0
M  V30 8751 H 861.622 -2.506 4.28384 0
M  V30 8752 H 856.878 -2.26956 5.67715 0
M  V30 8753 H 861.052 -2.08001 6.64612 0
M  V30 8754 H 858.679 -1.9566 7.34589 0
M  V30 8755 N 860.254 -1.20106 -1.0204 0
M  V30 8756 C 861.217 -0.948261 -2.08664 0
M  V30 8757 C 862.217 0.0746753 -1.60627 0
M  V30 8758 O 863.407 -0.160981 -1.73455 0
M  V30 8759 C 860.539 -0.426854 -3.38217 0
M  V30 8760 H 861.732 -1.894 -2.32524 0
M  V30 8761 H 859.285 -1.0159 -1.18782 0
M  V30 8762 H 860.02 0.524532 -3.2003 0
M  V30 8763 H 859.805 -1.16451 -3.74408 0
M  V30 8764 H 861.295 -0.269346 -4.1673 0
M  V30 8765 N 861.732 1.21287 -1.00634 0
M  V30 8766 C 862.695 2.21927 -0.572821 0
M  V30 8767 C 863.695 1.5691 0.351541 0
M  V30 8768 O 864.885 1.73623 0.141643 0
M  V30 8769 C 862.017 3.40501 0.164932 0
M  V30 8770 H 863.21 2.61795 -1.463 0
M  V30 8771 H 860.763 1.34571 -0.794998 0
M  V30 8772 H 861.498 3.06123 1.07049 0
M  V30 8773 H 861.283 3.88912 -0.498962 0
M  V30 8774 H 862.773 4.15103 0.455945 0
M  V30 8775 N 863.21 0.781244 1.36873 0
M  V30 8776 C 864.14 0.188128 2.32741 0
M  V30 8777 C 865.121 -0.672326 1.56249 0
M  V30 8778 O 866.306 -0.607835 1.84442 0
M  V30 8779 C 863.436 -0.684341 3.40491 0
M  V30 8780 C 862.39 0.0755641 4.27933 0
M  V30 8781 C 861.716 -0.916968 5.26779 0
M  V30 8782 C 863.016 1.26006 5.06873 0
M  V30 8783 H 864.71 0.989016 2.82593 0
M  V30 8784 H 862.256 0.477038 1.35869 0
M  V30 8785 H 864.209 -1.10915 4.06541 0
M  V30 8786 H 862.933 -1.51785 2.89187 0
M  V30 8787 H 861.592 0.481258 3.63427 0
M  V30 8788 H 861.24 -1.74528 4.71751 0
M  V30 8789 H 860.94 -0.413 5.86147 0
M  V30 8790 H 862.464 -1.34052 5.95703 0
M  V30 8791 H 863.878 0.911425 5.66009 0
M  V30 8792 H 862.275 1.69676 5.75613 0
M  V30 8793 H 863.345 2.05948 4.38991 0
M  V30 8794 N 864.689 -1.48329 0.532571 0
M  V30 8795 C 865.639 -2.2664 -0.24868 0
M  V30 8796 C 866.623 -1.32861 -0.907563 0
M  V30 8797 O 867.815 -1.57382 -0.809942 0
M  V30 8798 C 864.944 -3.18004 -1.29339 0
M  V30 8799 C 864.03 -4.19256 -0.639166 0
M  V30 8800 N 864.421 -5.05043 0.276597 0
M  V30 8801 C 862.719 -4.36906 -0.896062 0
M  V30 8802 C 863.42 -5.78009 0.654261 0
M  V30 8803 N 862.396 -5.43598 0.0147447 0
M  V30 8804 H 866.198 -2.90344 0.455792 0
M  V30 8805 H 863.712 -1.58566 0.350778 0
M  V30 8806 H 865.709 -3.72767 -1.86682 0
M  V30 8807 H 864.369 -2.55855 -1.99921 0
M  V30 8808 H 865.38 -5.13813 0.649351 0
M  V30 8809 H 862.057 -3.85945 -1.59226 0
M  V30 8810 H 863.447 -6.57039 1.40532 0
M  V30 8811 N 866.167 -0.267825 -1.55308 0
M  V30 8812 C 867.097 0.616585 -2.25212 0
M  V30 8813 C 868.078 1.16472 -1.23969 0
M  V30 8814 O 869.263 1.20021 -1.52672 0
M  V30 8815 C 866.393 1.80412 -2.96764 0
M  V30 8816 C 865.347 1.38784 -4.04874 0
M  V30 8817 C 864.673 2.65789 -4.63961 0
M  V30 8818 C 865.973 0.543415 -5.19465 0
M  V30 8819 H 867.667 0.0336257 -2.99381 0
M  V30 8820 H 865.213 0.0147328 -1.43992 0
M  V30 8821 H 867.166 2.42866 -3.44375 0
M  V30 8822 H 865.89 2.4128 -2.20118 0
M  V30 8823 H 864.549 0.786541 -3.58063 0
M  V30 8824 H 864.197 3.24899 -3.83992 0
M  V30 8825 H 863.897 2.38651 -5.36954 0
M  V30 8826 H 865.421 3.29104 -5.14318 0
M  V30 8827 H 866.835 1.07277 -5.63174 0
M  V30 8828 H 865.232 0.367219 -5.98975 0
M  V30 8829 H 866.302 -0.439534 -4.82904 0
M  V30 8830 N 867.645 1.57599 0.00500368 0
M  V30 8831 C 868.873 1.94626 0.702016 0
M  V30 8832 C 869.288 0.86953 1.67585 0
M  V30 8833 O 868.645 -0.15199 1.81866 0
M  V30 8834 C 868.696 3.31658 1.43824 0
M  V30 8835 O 868.417 4.35197 0.503467 0
M  V30 8836 C 869.918 3.83114 2.23021 0
M  V30 8837 H 867.138 0.641785 0.195841 0
M  V30 8838 H 869.682 2.04451 -0.0446287 0
M  V30 8839 H 867.837 3.23156 2.13655 0
M  V30 8840 H 868.251 5.1444 1.02235 0
M  V30 8841 H 869.725 4.81438 2.7004 0
M  V30 8842 H 870.202 3.15559 3.05482 0
M  V30 8843 H 870.808 3.94775 1.58216 0
M  V30 8844 N 869.123 -0.277682 1.55134 0
M  V30 8845 C 870.086 -1.32635 1.86924 0
M  V30 8846 C 871.086 -1.42578 0.743507 0
M  V30 8847 O 872.276 -1.4181 1.01171 0
M  V30 8848 C 869.408 -2.70832 2.07034 0
M  V30 8849 H 870.601 -1.0568 2.80663 0
M  V30 8850 H 868.154 -0.515517 1.47554 0
M  V30 8851 H 868.889 -3.02974 1.15661 0
M  V30 8852 H 868.674 -2.65001 2.88993 0
M  V30 8853 H 870.164 -3.46611 2.32918 0
M  V30 8854 N 870.601 -1.47988 -0.541979 0
M  V30 8855 C 871.531 -1.64503 -1.65713 0
M  V30 8856 C 872.512 -0.494116 -1.62765 0
M  V30 8857 O 873.697 -0.725256 -1.80149 0
M  V30 8858 C 870.827 -1.67337 -3.04328 0
M  V30 8859 C 869.781 -2.81809 -3.2213 0
M  V30 8860 C 869.107 -2.69724 -4.61685 0
M  V30 8861 C 870.407 -4.23241 -3.06046 0
M  V30 8862 H 872.101 -2.5786 -1.52147 0
M  V30 8863 H 869.647 -1.24094 -0.730529 0
M  V30 8864 H 871.6 -1.77481 -3.82202 0
M  V30 8865 H 870.324 -0.705514 -3.18889 0
M  V30 8866 H 868.983 -2.71201 -2.46669 0
M  V30 8867 H 868.631 -1.70934 -4.73065 0
M  V30 8868 H 868.331 -3.4653 -4.74543 0
M  V30 8869 H 869.855 -2.81818 -5.41674 0
M  V30 8870 H 871.269 -4.34746 -3.73723 0
M  V30 8871 H 869.666 -5.00952 -3.30405 0
M  V30 8872 H 870.736 -4.40543 -2.02609 0
M  V30 8873 N 872.079 0.78992 -1.36375 0
M  V30 8874 C 873.326 1.54777 -1.30576 0
M  V30 8875 C 873.654 1.94159 0.115095 0
M  V30 8876 O 872.909 1.62918 1.08426 0
M  V30 8877 C 873.208 2.83698 -2.17371 0
M  V30 8878 C 872.874 2.63457 -3.65925 0
M  V30 8879 C 871.536 2.57645 -4.06415 0
M  V30 8880 C 873.888 2.44833 -4.60115 0
M  V30 8881 C 871.216 2.31174 -5.39236 0
M  V30 8882 C 873.568 2.19889 -5.93154 0
M  V30 8883 C 872.232 2.1251 -6.32768 0
M  V30 8884 H 871.502 0.566371 -0.477813 0
M  V30 8885 H 874.149 0.91138 -1.68422 0
M  V30 8886 H 872.454 3.51802 -1.72459 0
M  V30 8887 H 874.151 3.41487 -2.10209 0
M  V30 8888 H 870.741 2.68836 -3.33804 0
M  V30 8889 H 874.925 2.48325 -4.29707 0
M  V30 8890 H 870.181 2.23942 -5.68911 0
M  V30 8891 H 874.355 2.04473 -6.65705 0
M  V30 8892 H 871.982 1.91761 -7.35616 0
M  V30 8893 N 873.557 1.20646 1.01402 0
M  V30 8894 C 874.487 0.98155 2.11867 0
M  V30 8895 C 875.468 -0.0903712 1.6986 0
M  V30 8896 O 876.653 0.0676586 1.94082 0
M  V30 8897 C 873.783 0.535636 3.43145 0
M  V30 8898 C 872.737 1.55109 3.98905 0
M  V30 8899 C 872.063 0.961725 5.2598 0
M  V30 8900 C 873.363 2.93552 4.32001 0
M  V30 8901 H 875.057 1.90544 2.3094 0
M  V30 8902 H 872.603 0.917554 1.10982 0
M  V30 8903 H 874.556 0.365512 4.19812 0
M  V30 8904 H 873.28 -0.423882 3.23838 0
M  V30 8905 H 871.939 1.70862 3.24348 0
M  V30 8906 H 871.587 -0.00580108 5.03 0
M  V30 8907 H 871.287 1.63993 5.64252 0
M  V30 8908 H 872.811 0.802726 6.053 0
M  V30 8909 H 874.225 2.81295 4.99546 0
M  V30 8910 H 872.622 3.58303 4.81393 0
M  V30 8911 H 873.692 3.4508 3.40658 0
M  V30 8912 N 875.035 -1.20752 1.01276 0
M  V30 8913 C 876.263 -1.94006 0.718976 0
M  V30 8914 C 876.678 -1.74544 -0.719711 0
M  V30 8915 O 876.035 -1.05697 -1.48776 0
M  V30 8916 C 876.086 -3.46208 1.04031 0
M  V30 8917 O 875.807 -3.65031 2.42248 0
M  V30 8918 C 877.308 -4.36614 0.767032 0
M  V30 8919 H 874.528 -0.616743 0.264327 0
M  V30 8920 H 877.072 -1.53352 1.3529 0
M  V30 8921 H 875.227 -3.84756 0.451852 0
M  V30 8922 H 875.641 -4.59054 2.53712 0
M  V30 8923 H 877.115 -5.42076 1.04198 0
M  V30 8924 H 877.592 -4.38182 -0.298851 0
M  V30 8925 H 878.198 -4.03723 1.33746 0
M  V30 8926 N 876.513 -0.788492 -1.36457 0
M  V30 8927 C 877.759 -0.360995 -1.99561 0
M  V30 8928 C 878.092 1.06433 -1.62437 0
M  V30 8929 O 877.367 1.7352 -0.878705 0
M  V30 8930 C 877.65 -0.523735 -3.56271 0
M  V30 8931 C 877.503 -1.99268 -4.03252 0
M  V30 8932 C 878.822 0.0617908 -4.40057 0
M  V30 8933 H 875.941 -0.13264 -0.724966 0
M  V30 8934 H 878.583 -0.994659 -1.61884 0
M  V30 8935 H 876.733 0.0156979 -3.88497 0
M  V30 8936 H 878.405 -2.59311 -3.81518 0
M  V30 8937 H 876.648 -2.49561 -3.54826 0
M  V30 8938 H 877.319 -2.05752 -5.12221 0
M  V30 8939 H 879.795 -0.398674 -4.14186 0
M  V30 8940 H 878.671 -0.0821089 -5.48839 0
M  V30 8941 H 878.932 1.15381 -4.26778 0
M  V30 8942 N 877.991 1.48044 -0.54043 0
M  V30 8943 C 879.221 2.06595 -0.0144943 0
M  V30 8944 C 879.629 1.39593 1.27713 0
M  V30 8945 O 878.972 0.480794 1.77297 0
M  V30 8946 C 879.034 3.5849 0.269316 0
M  V30 8947 C 878.698 4.47429 -0.930372 0
M  V30 8948 C 879.695 4.8657 -1.83155 0
M  V30 8949 C 877.38 4.89185 -1.14032 0
M  V30 8950 C 879.374 5.66246 -2.92649 0
M  V30 8951 C 877.061 5.6863 -2.23838 0
M  V30 8952 C 878.059 6.07069 -3.12979 0
M  V30 8953 O 877.747 6.84917 -4.20884 0
M  V30 8954 H 877.479 0.675086 -0.0351467 0
M  V30 8955 H 880.033 1.91275 -0.74853 0
M  V30 8956 H 878.263 3.71961 1.05745 0
M  V30 8957 H 879.952 3.99124 0.738595 0
M  V30 8958 H 880.718 4.54924 -1.68134 0
M  V30 8959 H 876.597 4.58742 -0.455717 0
M  V30 8960 H 880.141 5.96169 -3.62254 0
M  V30 8961 H 876.038 5.99688 -2.38839 0
M  V30 8962 H 876.806 7.03287 -4.18723 0
M  V30 8963 N 879.47 0.276058 1.55163 0
M  V30 8964 C 880.38 -0.621066 2.2623 0
M  V30 8965 C 881.396 -1.16931 1.28853 0
M  V30 8966 O 882.572 -1.1994 1.61791 0
M  V30 8967 C 879.637 -1.78824 2.97023 0
M  V30 8968 C 878.698 -1.27657 4.09881 0
M  V30 8969 C 877.931 -2.38812 4.77289 0
M  V30 8970 O 878.154 -3.58188 4.43912 0
M  V30 8971 O 877.088 -2.06915 5.65217 0
M  V30 8972 H 880.914 -0.0453346 3.03666 0
M  V30 8973 H 878.499 0.0434275 1.49337 0
M  V30 8974 H 880.381 -2.46877 3.41511 0
M  V30 8975 H 879.056 -2.35104 2.22503 0
M  V30 8976 H 877.963 -0.56248 3.69847 0
M  V30 8977 H 879.296 -0.759509 4.86305 0
M  V30 8978 N 880.948 -1.576 0.00335426 0
M  V30 8979 C 882.194 -1.91833 -0.676149 0
M  V30 8980 C 882.549 -0.878079 -1.71194 0
M  V30 8981 O 881.842 0.109297 -1.91288 0
M  V30 8982 C 882.036 -3.3058 -1.35837 0
M  V30 8983 C 881.865 -4.48004 -0.390171 0
M  V30 8984 C 880.635 -5.053 0.000648493 0
M  V30 8985 C 882.833 -5.13142 0.344982 0
M  V30 8986 N 880.815 -6.06241 0.966709 0
M  V30 8987 C 882.186 -6.08944 1.16562 0
M  V30 8988 C 884.241 -4.96222 0.408457 0
M  V30 8989 C 882.944 -6.89649 2.04395 0
M  V30 8990 C 884.97 -5.77514 1.27403 0
M  V30 8991 C 884.332 -6.72912 2.08251 0
M  V30 8992 H 880.431 -0.750263 -0.220519 0
M  V30 8993 H 883.015 -1.94593 0.0644891 0
M  V30 8994 H 881.186 -3.28687 -2.06928 0
M  V30 8995 H 882.918 -3.52233 -1.99284 0
M  V30 8996 H 879.673 -4.72165 -0.368428 0
M  V30 8997 H 880.097 -6.61394 1.44521 0
M  V30 8998 H 884.739 -4.22316 -0.202324 0
M  V30 8999 H 882.457 -7.62878 2.66539 0
M  V30 9000 H 886.043 -5.66462 1.3271 0
M  V30 9001 H 884.923 -7.34721 2.74145 0
M  V30 9002 N 882.426 0.269451 -1.5528 0
M  V30 9003 C 883.842 0.616827 -1.47199 0
M  V30 9004 C 884.042 1.89354 -0.68901 0
M  V30 9005 O 883.098 2.51631 -0.209287 0
M  V30 9006 C 884.411 0.740492 -2.9144 0
M  V30 9007 C 885.959 0.834312 -3.01676 0
M  V30 9008 C 886.434 0.989725 -4.47178 0
M  V30 9009 N 887.925 1.05516 -4.51022 0
M  V30 9010 C 888.66 1.19427 -5.60825 0
M  V30 9011 N 888.156 1.30035 -6.80487 0
M  V30 9012 N 889.949 1.22566 -5.48575 0
M  V30 9013 H 882.1 -0.568962 -2.04638 0
M  V30 9014 H 884.363 -0.193153 -0.928114 0
M  V30 9015 H 884.069 -0.127234 -3.5147 0
M  V30 9016 H 883.943 1.61965 -3.40657 0
M  V30 9017 H 886.33 1.6925 -2.4174 0
M  V30 9018 H 886.411 -0.0695298 -2.55705 0
M  V30 9019 H 886.055 0.136179 -5.07717 0
M  V30 9020 H 885.985 1.90827 -4.90808 0
M  V30 9021 H 888.476 0.985434 -3.64825 0
M  V30 9022 H 888.789 1.40494 -7.59922 0
M  V30 9023 H 887.134 1.27033 -6.83292 0
M  V30 9024 H 890.325 1.13911 -4.54029 0
M  V30 9025 H 890.498 1.33063 -6.34191 0
M  V30 9026 N 883.904 1.48273 0.534124 0
M  V30 9027 C 885.129 1.59988 1.31979 0
M  V30 9028 C 885.554 0.258824 1.86311 0
M  V30 9029 O 884.912 -0.768885 1.64188 0
M  V30 9030 C 884.96 2.64642 2.44943 0
M  V30 9031 O 884.064 2.21515 3.47858 0
M  V30 9032 H 883.405 0.536625 0.391063 0
M  V30 9033 H 885.935 1.94229 0.643135 0
M  V30 9034 H 885.945 2.85786 2.91187 0
M  V30 9035 H 884.62 3.62004 2.04758 0
M  V30 9036 H 883.197 2.10567 3.0776 0
M  V30 9037 N 885.382 -0.782676 1.36792 0
M  V30 9038 C 886.793 -1.35828 1.28092 0
M  V30 9039 C 887.144 -1.96052 -0.076315 0
M  V30 9040 O 886.269 -1.93042 -0.977935 0
M  V30 9041 C 886.864 -2.46949 2.31952 0
M  V30 9042 C 885.423 -3.00307 2.2692 0
M  V30 9043 C 884.57 -1.73436 2.16368 0
M  V30 9044 H 887.521 -0.583788 1.47572 0
M  V30 9045 H 887.542 -3.26144 1.95986 0
M  V30 9046 H 887.054 -2.03087 3.30722 0
M  V30 9047 H 885.155 -3.48571 1.31639 0
M  V30 9048 H 885.268 -3.56663 3.19887 0
M  V30 9049 H 883.632 -1.95934 1.62733 0
M  V30 9050 H 884.415 -1.31693 3.17036 0
M  V30 9051 N 886.86 -1.21182 -1.00761 0
M  V30 9052 C 888.09 -1.05182 -1.77821 0
M  V30 9053 C 888.498 0.401527 -1.8489 0
M  V30 9054 O 887.841 1.29042 -1.30743 0
M  V30 9055 C 887.903 -1.57066 -3.23374 0
M  V30 9056 C 887.567 -3.05491 -3.39889 0
M  V30 9057 C 888.564 -4.03065 -3.28381 0
M  V30 9058 C 886.249 -3.44641 -3.65415 0
M  V30 9059 C 888.243 -5.37778 -3.4216 0
M  V30 9060 C 885.93 -4.79507 -3.78836 0
M  V30 9061 C 886.928 -5.75884 -3.67214 0
M  V30 9062 O 886.616 -7.08304 -3.80212 0
M  V30 9063 H 886.348 -0.369983 -0.565763 0
M  V30 9064 H 888.902 -1.60914 -1.27655 0
M  V30 9065 H 887.132 -0.957273 -3.74664 0
M  V30 9066 H 888.821 -1.36949 -3.82099 0
M  V30 9067 H 889.587 -3.74163 -3.08588 0
M  V30 9068 H 885.466 -2.7016 -3.73544 0
M  V30 9069 H 889.01 -6.12987 -3.33005 0
M  V30 9070 H 884.907 -5.08096 -3.98132 0
M  V30 9071 H 885.675 -7.15677 -3.97175 0
M  V30 9072 N 888.338 1.20213 -1.01915 0
M  V30 9073 C 889.586 1.89272 -0.708552 0
M  V30 9074 C 889.907 1.79394 0.76438 0
M  V30 9075 O 889.177 1.198 1.54999 0
M  V30 9076 H 887.757 0.700628 -0.259094 0
M  V30 9077 H 890.419 1.45985 -1.29129 0
M  V30 9078 H 889.515 2.95841 -0.994215 0
M  V30 9079 N 889.816 0.795718 1.36037 0
M  V30 9080 C 890.746 0.212803 2.32528 0
M  V30 9081 C 891.727 -0.655716 1.56953 0
M  V30 9082 O 892.912 -0.588238 1.85077 0
M  V30 9083 C 890.042 -0.648189 3.41198 0
M  V30 9084 C 888.996 0.120948 4.27829 0
M  V30 9085 C 888.322 -0.861044 5.27722 0
M  V30 9086 C 889.622 1.31375 5.05508 0
M  V30 9087 H 891.316 1.01893 2.81528 0
M  V30 9088 H 888.862 0.491422 1.35355 0
M  V30 9089 H 890.815 -1.06597 4.07695 0
M  V30 9090 H 889.539 -1.48709 2.9078 0
M  V30 9091 H 888.198 0.519777 3.62897 0
M  V30 9092 H 887.846 -1.69515 4.73575 0
M  V30 9093 H 887.546 -0.350808 5.86552 0
M  V30 9094 H 889.07 -1.27726 5.97092 0
M  V30 9095 H 890.484 0.971406 5.6501 0
M  V30 9096 H 888.881 1.75772 5.73781 0
M  V30 9097 H 889.951 2.10593 4.36782 0
M  V30 9098 N 891.294 -1.47756 0.548274 0
M  V30 9099 C 892.522 -2.06884 0.0254873 0
M  V30 9100 C 892.937 -1.40225 -1.26422 0
M  V30 9101 O 892.294 -0.495776 -1.75637 0
M  V30 9102 C 892.345 -3.61036 -0.183134 0
M  V30 9103 O 892.066 -4.25195 1.05549 0
M  V30 9104 C 893.567 -4.37008 -0.744222 0
M  V30 9105 H 890.787 -0.669697 0.041789 0
M  V30 9106 H 893.331 -1.89888 0.759138 0
M  V30 9107 H 891.486 -3.77576 -0.866886 0
M  V30 9108 H 891.9 -5.17606 0.847629 0
M  V30 9109 H 893.374 -5.45579 -0.839529 0
M  V30 9110 H 893.851 -4.0268 -1.75344 0
M  V30 9111 H 894.457 -4.25191 -0.0964542 0
M  V30 9112 N 892.772 -0.284283 -1.55015 0
M  V30 9113 C 894.183 0.211681 -1.85496 0
M  V30 9114 C 894.534 1.54735 -1.2063 0
M  V30 9115 O 893.659 2.10594 -0.497918 0
M  V30 9116 C 894.254 0.390864 -3.36538 0
M  V30 9117 C 892.813 0.831055 -3.67111 0
M  V30 9118 C 891.96 -0.0703581 -2.77211 0
M  V30 9119 H 894.911 -0.505803 -1.50424 0
M  V30 9120 H 894.932 1.22803 -3.60138 0
M  V30 9121 H 894.444 -0.581409 -3.8372 0
M  V30 9122 H 892.545 1.81447 -3.25434 0
M  V30 9123 H 892.658 0.662026 -4.74504 0
M  V30 9124 H 891.022 0.447528 -2.50737 0
M  V30 9125 H 891.805 -1.03868 -3.2721 0
M  V30 9126 N 894.251 1.57596 -0.0117121 0
M  V30 9127 C 895.667 1.55837 0.344506 0
M  V30 9128 C 895.867 1.01557 1.74036 0
M  V30 9129 O 894.923 0.654563 2.43868 0
M  V30 9130 C 896.236 2.99973 0.209023 0
M  V30 9131 C 897.784 3.11717 0.283092 0
M  V30 9132 C 898.259 4.57659 0.176599 0
M  V30 9133 N 899.75 4.62608 0.234133 0
M  V30 9134 C 900.485 5.73132 0.175252 0
M  V30 9135 N 899.981 6.92768 0.0662888 0
M  V30 9136 N 901.774 5.61638 0.227972 0
M  V30 9137 H 893.925 1.91215 -0.924692 0
M  V30 9138 H 896.188 0.878807 -0.355531 0
M  V30 9139 H 895.894 3.4357 -0.751826 0
M  V30 9140 H 895.768 3.64075 0.98635 0
M  V30 9141 H 898.155 2.68043 1.23439 0
M  V30 9142 H 898.236 2.50369 -0.52431 0
M  V30 9143 H 897.88 5.02011 -0.771205 0
M  V30 9144 H 897.81 5.16967 1.00264 0
M  V30 9145 H 900.301 3.76549 0.319203 0
M  V30 9146 H 900.614 7.72795 0.0275765 0
M  V30 9147 H 898.959 6.94993 0.0317502 0
M  V30 9148 H 902.15 4.67063 0.311377 0
M  V30 9149 H 902.323 6.47754 0.178621 0
M  V30 9150 N 895.729 -0.261212 1.5542 0
M  V30 9151 C 896.977 -0.989272 1.76232 0
M  V30 9152 C 897.298 -1.86389 0.573067 0
M  V30 9153 O 896.568 -1.91526 -0.41166 0
M  V30 9154 H 895.148 -0.368256 0.64992 0
M  V30 9155 H 897.81 -0.282603 1.9284 0
M  V30 9156 H 896.906 -1.61935 2.66802 0
M  V30 9157 N 897.207 -1.48554 -0.526253 0
M  V30 9158 C 898.623 -1.34757 -0.855138 0
M  V30 9159 C 898.823 -0.36142 -1.98232 0
M  V30 9160 O 897.879 0.216026 -2.51574 0
M  V30 9161 C 899.192 -2.74877 -1.21915 0
M  V30 9162 C 900.74 -2.83393 -1.32882 0
M  V30 9163 C 901.215 -4.24223 -1.72624 0
M  V30 9164 N 902.706 -4.26913 -1.7972 0
M  V30 9165 C 903.441 -5.32824 -2.11863 0
M  V30 9166 N 902.937 -6.49008 -2.42405 0
M  V30 9167 N 904.73 -5.20221 -2.12901 0
M  V30 9168 H 896.881 -2.11284 0.217422 0
M  V30 9169 H 899.144 -0.947367 0.0346362 0
M  V30 9170 H 898.85 -3.48619 -0.464486 0
M  V30 9171 H 898.724 -3.0864 -2.16844 0
M  V30 9172 H 901.111 -2.09904 -2.07424 0
M  V30 9173 H 901.192 -2.53245 -0.360638 0
M  V30 9174 H 900.836 -4.98229 -0.986411 0
M  V30 9175 H 900.766 -4.51817 -2.70498 0
M  V30 9176 H 903.257 -3.4311 -1.58379 0
M  V30 9177 H 903.57 -7.25561 -2.66048 0
M  V30 9178 H 901.915 -6.52277 -2.39917 0
M  V30 9179 H 905.106 -4.28469 -1.885 0
M  V30 9180 H 905.279 -6.02861 -2.37619 0
M  V30 9181 N 898.685 0.775411 -1.37205 0
M  V30 9182 C 899.633 1.90996 -1.32752 0
M  V30 9183 C 900.627 1.68006 -0.216907 0
M  V30 9184 O 901.833 1.7584 -0.384723 0
M  V30 9185 H 898.208 0.62803 -0.413621 0
M  V30 9186 H 900.179 1.91869 -2.28536 0
M  V30 9187 C 898.928 3.28211 -1.14772 0
M  V30 9188 H 898.251 3.46477 -1.99484 0
M  V30 9189 H 899.691 4.07907 -1.15706 0
M  V30 9190 C 898.15 3.3658 0.146852 0
M  V30 9191 O 898.68 3.85428 1.13173 0
M  V30 9192 N 896.886 2.89936 0.196305 0
M  V30 9193 H 896.433 2.50375 -0.605807 0
M  V30 9194 H 896.391 2.95916 1.06212 0
M  V30 9195 N 900.163 1.21714 1.00117 0
M  V30 9196 C 901.579 0.97532 1.26332 0
M  V30 9197 C 901.779 -0.336029 1.98678 0
M  V30 9198 O 900.835 -1.06073 2.29139 0
M  V30 9199 C 902.148 2.16848 2.0832 0
M  V30 9200 C 903.696 2.21115 2.21533 0
M  V30 9201 C 904.171 3.3996 3.06906 0
M  V30 9202 N 905.662 3.40071 3.14494 0
M  V30 9203 C 906.397 4.28678 3.80818 0
M  V30 9204 N 905.893 5.2749 4.49139 0
M  V30 9205 N 907.686 4.16476 3.77497 0
M  V30 9206 H 899.837 2.06039 0.515897 0
M  V30 9207 H 902.1 0.902423 0.290408 0
M  V30 9208 H 901.806 3.119 1.62515 0
M  V30 9209 H 901.68 2.16226 3.09073 0
M  V30 9210 H 904.067 1.26616 2.66557 0
M  V30 9211 H 904.148 2.2578 1.20238 0
M  V30 9212 H 903.792 4.34755 2.62585 0
M  V30 9213 H 903.722 3.32534 4.08324 0
M  V30 9214 H 906.213 2.68563 2.65861 0
M  V30 9215 H 906.526 5.91397 4.97463 0
M  V30 9216 H 904.871 5.31412 4.47914 0
M  V30 9217 H 908.062 3.38539 3.23278 0
M  V30 9218 H 908.235 4.85739 4.28908 0
M  V30 9219 N 901.641 -1.19671 1.02551 0
M  V30 9220 C 902.866 -1.93774 0.739363 0
M  V30 9221 C 903.291 -1.74787 -0.695064 0
M  V30 9222 O 902.649 -1.04796 -1.47944 0
M  V30 9223 C 902.697 -3.43684 1.09149 0
M  V30 9224 O 901.801 -4.11874 0.208213 0
M  V30 9225 H 901.142 -0.605064 0.273484 0
M  V30 9226 H 903.672 -1.51846 1.37128 0
M  V30 9227 H 903.682 -3.94339 1.04695 0
M  V30 9228 H 902.357 -3.56826 2.13654 0
M  V30 9229 H 900.934 -3.716 0.311045 0
M  V30 9230 N 903.119 -0.802921 -1.35613 0
M  V30 9231 C 904.347 -0.39393 -2.03115 0
M  V30 9232 C 904.762 0.993961 -1.60517 0
M  V30 9233 O 904.119 1.63984 -0.800973 0
M  V30 9234 C 904.17 -0.463486 -3.58516 0
M  V30 9235 O 903.891 -1.79666 -3.99565 0
M  V30 9236 C 905.392 -0.0468377 -4.43275 0
M  V30 9237 H 902.612 -0.160519 -0.651517 0
M  V30 9238 H 905.156 -1.08552 -1.73311 0
M  V30 9239 H 903.311 0.179821 -3.86982 0
M  V30 9240 H 903.725 -1.75688 -4.942 0
M  V30 9241 H 905.199 -0.146626 -5.51805 0
M  V30 9242 H 905.676 1.00741 -4.2749 0
M  V30 9243 H 906.282 -0.663158 -4.20098 0
M  V30 9244 N 904.597 1.47463 -0.556102 0
M  V30 9245 C 905.843 2.02775 -0.0316806 0
M  V30 9246 C 906.176 1.42967 1.3143 0
M  V30 9247 O 905.451 0.584847 1.85499 0
M  V30 9248 C 905.734 3.60046 0.0625742 0
M  V30 9249 C 905.587 4.30288 -1.31043 0
M  V30 9250 C 906.906 4.33195 0.776553 0
M  V30 9251 H 904.025 0.736886 -0.0129869 0
M  V30 9252 H 906.667 1.75904 -0.718177 0
M  V30 9253 H 904.817 3.83071 0.647231 0
M  V30 9254 H 906.489 4.18607 -1.9382 0
M  V30 9255 H 904.732 3.90685 -1.8854 0
M  V30 9256 H 905.403 5.38861 -1.1972 0
M  V30 9257 H 907.879 4.15156 0.280147 0
M  V30 9258 H 906.755 5.42869 0.81146 0
M  V30 9259 H 907.016 4.02336 1.83244 0
M  V30 9260 N 906.075 0.2925 1.54862 0
M  V30 9261 C 907.322 -0.319263 1.99967 0
M  V30 9262 C 907.65 -1.54547 1.18092 0
M  V30 9263 O 906.905 -1.94186 0.242969 0
M  V30 9264 C 907.204 -0.728674 3.49893 0
M  V30 9265 C 906.87 0.394836 4.49168 0
M  V30 9266 C 905.532 0.703289 4.76033 0
M  V30 9267 C 907.884 1.15103 5.08331 0
M  V30 9268 C 905.212 1.77121 5.59325 0
M  V30 9269 C 907.564 2.20881 5.92785 0
M  V30 9270 C 906.228 2.52342 6.17964 0
M  V30 9271 H 905.498 -0.116827 0.731733 0
M  V30 9272 H 908.145 0.40983 1.87063 0
M  V30 9273 H 906.45 -1.53772 3.60363 0
M  V30 9274 H 908.147 -1.21305 3.82212 0
M  V30 9275 H 904.737 0.144319 4.28357 0
M  V30 9276 H 908.921 0.92599 4.87585 0
M  V30 9277 H 904.177 2.01978 5.77074 0
M  V30 9278 H 908.351 2.79939 6.37657 0
M  V30 9279 H 905.978 3.35225 6.82296 0
M  V30 9280 N 907.553 -1.57587 0.0200696 0
M  V30 9281 C 908.778 -1.96124 -0.674547 0
M  V30 9282 C 909.203 -0.896068 -1.65385 0
M  V30 9283 O 908.561 0.143925 -1.80728 0
M  V30 9284 C 908.609 -3.3376 -1.36517 0
M  V30 9285 O 907.713 -3.29483 -2.48022 0
M  V30 9286 H 907.054 -0.639719 -0.177919 0
M  V30 9287 H 909.584 -2.04447 0.0792317 0
M  V30 9288 H 909.594 -3.69785 -1.72403 0
M  V30 9289 H 908.269 -4.10832 -0.647265 0
M  V30 9290 H 906.846 -3.05162 -2.14314 0
M  V30 9291 N 909.032 0.252966 -1.55557 0
M  V30 9292 C 910.262 0.998115 -1.8089 0
M  V30 9293 C 910.67 1.79679 -0.592623 0
M  V30 9294 O 910.013 1.78151 0.448093 0
M  V30 9295 C 910.075 1.98878 -2.99479 0
M  V30 9296 C 909.739 1.37761 -4.35742 0
M  V30 9297 C 910.736 0.783142 -5.13968 0
M  V30 9298 C 908.421 1.39879 -4.8243 0
M  V30 9299 C 910.415 0.218004 -6.37027 0
M  V30 9300 C 908.102 0.829801 -6.0544 0
M  V30 9301 C 909.1 0.240426 -6.82577 0
M  V30 9302 O 908.788 -0.319797 -8.03264 0
M  V30 9303 H 908.52 0.29963 -0.605969 0
M  V30 9304 H 911.074 0.282978 -2.03441 0
M  V30 9305 H 909.304 2.74206 -2.72669 0
M  V30 9306 H 910.993 2.59686 -3.11959 0
M  V30 9307 H 911.759 0.759326 -4.79019 0
M  V30 9308 H 907.638 1.84692 -4.22386 0
M  V30 9309 H 911.182 -0.242654 -6.97178 0
M  V30 9310 H 907.079 0.850924 -6.39867 0
M  V30 9311 H 907.847 -0.211078 -8.18228 0
M  V30 9312 N 910.51 1.48831 0.518367 0
M  V30 9313 C 911.735 1.61379 1.30275 0
M  V30 9314 C 912.16 0.278571 1.86026 0
M  V30 9315 O 911.518 -0.751427 1.64995 0
M  V30 9316 C 911.566 2.67225 2.42122 0
M  V30 9317 O 910.67 2.25192 3.45489 0
M  V30 9318 H 910.011 0.540742 0.385349 0
M  V30 9319 H 912.541 1.949 0.622498 0
M  V30 9320 H 912.551 2.88859 2.8814 0
M  V30 9321 H 911.226 3.64155 2.00907 0
M  V30 9322 H 909.803 2.13819 3.05509 0
M  V30 9323 N 911.988 -0.768124 1.37614 0
M  V30 9324 C 913.213 -1.56239 1.36397 0
M  V30 9325 C 913.638 -1.8804 -0.0475839 0
M  V30 9326 O 912.996 -1.495 -1.02564 0
M  V30 9327 C 913.044 -2.84716 2.21289 0
M  V30 9328 O 912.148 -3.79249 1.62001 0
M  V30 9329 H 911.489 -0.473119 0.465891 0
M  V30 9330 H 914.019 -0.950415 1.81186 0
M  V30 9331 H 914.029 -3.33784 2.34632 0
M  V30 9332 H 912.704 -2.60899 3.2389 0
M  V30 9333 H 911.281 -3.37904 1.57719 0
M  V30 9334 N 913.466 -1.22244 -0.994698 0
M  V30 9335 C 914.429 -0.992308 -2.06606 0
M  V30 9336 C 915.429 0.0405872 -1.60749 0
M  V30 9337 O 916.619 -0.197737 -1.73074 0
M  V30 9338 C 913.751 -0.498499 -3.37236 0
M  V30 9339 H 914.944 -1.9429 -2.28455 0
M  V30 9340 H 912.497 -1.04087 -1.166 0
M  V30 9341 H 913.232 0.456531 -3.21071 0
M  V30 9342 H 913.017 -1.24367 -3.71854 0
M  V30 9343 H 914.507 -0.35768 -4.16065 0
M  V30 9344 N 914.944 1.19125 -1.03184 0
M  V30 9345 C 915.874 2.24675 -0.635889 0
M  V30 9346 C 916.855 1.66321 0.356565 0
M  V30 9347 O 918.04 1.92728 0.238625 0
M  V30 9348 C 915.17 3.47298 0.011069 0
M  V30 9349 C 914.124 4.18345 -0.903979 0
M  V30 9350 C 913.45 5.34561 -0.12197 0
M  V30 9351 C 914.75 4.72816 -2.21907 0
M  V30 9352 H 916.444 2.5805 -1.51825 0
M  V30 9353 H 913.99 1.24039 -0.73146 0
M  V30 9354 H 915.943 4.20333 0.299729 0
M  V30 9355 H 914.667 3.13131 0.928245 0
M  V30 9356 H 913.326 3.47196 -1.17688 0
M  V30 9357 H 912.974 4.9664 0.797334 0
M  V30 9358 H 912.674 5.83029 -0.731498 0
M  V30 9359 H 914.198 6.10391 0.159881 0
M  V30 9360 H 915.612 5.3759 -1.99173 0
M  V30 9361 H 914.009 5.31782 -2.78078 0
M  V30 9362 H 915.079 3.9072 -2.87168 0
M  V30 9363 N 916.422 0.810101 1.35185 0
M  V30 9364 C 917.37 0.211071 2.3164 0
M  V30 9365 C 918.364 -0.641109 1.568 0
M  V30 9366 O 919.57 -0.533881 1.719 0
M  V30 9367 H 915.945 0.0494978 0.750369 0
M  V30 9368 H 917.916 1.03964 2.79703 0
M  V30 9369 C 916.665 -0.622933 3.42074 0
M  V30 9370 H 915.988 0.0234648 3.99793 0
M  V30 9371 H 917.428 -1.0084 4.11834 0
M  V30 9372 C 915.887 -1.78994 2.85417 0
M  V30 9373 O 916.417 -2.88758 2.79252 0
M  V30 9374 N 914.623 -1.60259 2.42416 0
M  V30 9375 H 914.17 -0.70974 2.4763 0
M  V30 9376 H 914.128 -2.38498 2.04857 0
M  V30 9377 N 917.9 -1.47166 0.563914 0
M  V30 9378 C 918.83 -2.32894 -0.168148 0
M  V30 9379 C 919.811 -1.44202 -0.902214 0
M  V30 9380 O 920.996 -1.73048 -0.881365 0
M  V30 9381 C 918.126 -3.26116 -1.19439 0
M  V30 9382 C 917.08 -4.24101 -0.576363 0
M  V30 9383 C 916.406 -5.06696 -1.70772 0
M  V30 9384 C 917.706 -5.20142 0.47425 0
M  V30 9385 H 919.4 -2.9435 0.547573 0
M  V30 9386 H 916.946 -1.41545 0.264778 0
M  V30 9387 H 918.899 -3.84935 -1.71474 0
M  V30 9388 H 917.623 -2.62728 -1.94014 0
M  V30 9389 H 916.282 -3.66519 -0.0772534 0
M  V30 9390 H 915.93 -4.39707 -2.44268 0
M  V30 9391 H 915.63 -5.7304 -1.29994 0
M  V30 9392 H 917.154 -5.68375 -2.2312 0
M  V30 9393 H 918.568 -5.73286 0.0397035 0
M  V30 9394 H 916.965 -5.94726 0.801287 0
M  V30 9395 H 918.035 -4.65214 1.36764 0
M  V30 9396 N 919.378 -0.300708 -1.54705 0
M  V30 9397 C 920.618 0.30953 -2.02043 0
M  V30 9398 C 920.982 1.51114 -1.18442 0
M  V30 9399 O 922.183 2.19273 -1.55477 0
M  V30 9400 C 920.454 0.657489 -3.513 0
M  V30 9401 S 922.013 1.25063 -4.206 0
M  V30 9402 H 918.831 0.0950019 -0.704624 0
M  V30 9403 H 921.433 -0.428512 -1.90746 0
M  V30 9404 H 920.137 -0.225532 -4.0978 0
M  V30 9405 H 919.668 1.42633 -3.66633 0
M  V30 9406 H 921.683 2.53844 -4.26354 0
M  V30 9407 N 920.856 1.57574 -0.0284266 0
M  V30 9408 C 922.086 1.95787 0.659617 0
M  V30 9409 C 922.494 0.903475 1.66235 0
M  V30 9410 O 921.837 -0.12329 1.83286 0
M  V30 9411 C 921.899 3.30139 1.42298 0
M  V30 9412 C 921.563 4.53322 0.578658 0
M  V30 9413 C 922.56 5.19696 -0.145751 0
M  V30 9414 C 920.245 4.9964 0.516264 0
M  V30 9415 C 922.239 6.30708 -0.921235 0
M  V30 9416 C 919.926 6.10534 -0.262925 0
M  V30 9417 C 920.924 6.75927 -0.980382 0
M  V30 9418 O 920.612 7.84692 -1.7468 0
M  V30 9419 H 920.344 0.649681 0.186792 0
M  V30 9420 H 922.898 2.05227 -0.0842687 0
M  V30 9421 H 921.128 3.17188 2.21199 0
M  V30 9422 H 922.817 3.53259 1.99906 0
M  V30 9423 H 923.583 4.84882 -0.106876 0
M  V30 9424 H 919.462 4.48547 1.06427 0
M  V30 9425 H 923.006 6.81682 -1.48176 0
M  V30 9426 H 918.903 6.44786 -0.303519 0
M  V30 9427 H 919.671 8.01355 -1.6665 0
M  V30 9428 N 922.334 -0.244713 1.55689 0
M  V30 9429 C 923.297 -1.2864 1.89695 0
M  V30 9430 C 924.297 -1.40969 0.773583 0
M  V30 9431 O 925.487 -1.39632 1.04156 0
M  V30 9432 C 922.619 -2.66379 2.12732 0
M  V30 9433 H 923.812 -0.997033 2.82841 0
M  V30 9434 H 921.365 -0.484103 1.48614 0
M  V30 9435 H 922.1 -3.00452 1.22062 0
M  V30 9436 H 921.885 -2.58812 2.94549 0
M  V30 9437 H 923.375 -3.41592 2.40218 0
M  V30 9438 N 923.813 -1.49104 -0.510467 0
M  V30 9439 C 925.062 -1.57362 -1.26175 0
M  V30 9440 C 925.375 -0.261218 -1.93848 0
M  V30 9441 O 926.581 -0.222238 -2.70589 0
M  V30 9442 C 925.037 -2.77606 -2.29048 0
M  V30 9443 C 924.645 -4.15567 -1.67357 0
M  V30 9444 C 926.389 -2.95188 -3.05064 0
M  V30 9445 C 924.296 -5.27046 -2.68285 0
M  V30 9446 H 923.226 -0.585887 -0.474608 0
M  V30 9447 H 925.877 -1.75474 -0.536753 0
M  V30 9448 H 924.259 -2.52968 -3.04669 0
M  V30 9449 H 925.433 -4.50304 -0.977924 0
M  V30 9450 H 923.748 -4.03264 -1.03765 0
M  V30 9451 H 926.345 -3.75643 -3.80521 0
M  V30 9452 H 926.688 -2.05385 -3.62108 0
M  V30 9453 H 927.221 -3.19821 -2.36558 0
M  V30 9454 H 923.96 -6.18878 -2.16034 0
M  V30 9455 H 923.48 -4.96774 -3.36118 0
M  V30 9456 H 925.159 -5.55983 -3.30896 0
M  V30 9457 N 925.291 0.760815 -1.38019 0
M  V30 9458 C 926.221 1.88811 -1.37377 0
M  V30 9459 C 927.202 1.68388 -0.240737 0
M  V30 9460 O 928.387 1.89086 -0.442739 0
M  V30 9461 C 925.517 3.26244 -1.1909 0
M  V30 9462 C 924.471 3.61254 -2.29521 0
M  V30 9463 C 923.797 4.97346 -1.96345 0
M  V30 9464 C 925.097 3.66874 -3.71753 0
M  V30 9465 H 926.791 1.89606 -2.31711 0
M  V30 9466 H 924.337 0.910818 -1.11535 0
M  V30 9467 H 926.29 4.04755 -1.17267 0
M  V30 9468 H 925.014 3.2591 -0.212152 0
M  V30 9469 H 923.673 2.85057 -2.30517 0
M  V30 9470 H 923.321 4.93564 -0.969728 0
M  V30 9471 H 923.021 5.21739 -2.703 0
M  V30 9472 H 924.545 5.78244 -1.96129 0
M  V30 9473 H 925.959 4.35514 -3.72828 0
M  V30 9474 H 924.356 4.02772 -4.44853 0
M  V30 9475 H 925.426 2.67273 -4.0459 0
M  V30 9476 N 926.769 1.22769 0.988202 0
M  V30 9477 C 928.016 1.05509 1.72841 0
M  V30 9478 C 928.344 -0.409145 1.90148 0
M  V30 9479 O 927.599 -1.3195 1.44526 0
M  V30 9480 C 927.898 1.71679 3.13466 0
M  V30 9481 C 927.564 3.21584 3.16061 0
M  V30 9482 C 926.226 3.62486 3.16476 0
M  V30 9483 C 928.578 4.17511 3.11984 0
M  V30 9484 C 925.906 4.97789 3.10521 0
M  V30 9485 C 928.258 5.52796 3.0757 0
M  V30 9486 C 926.922 5.93072 3.06304 0
M  V30 9487 H 926.192 0.386085 0.632471 0
M  V30 9488 H 928.839 1.52596 1.157 0
M  V30 9489 H 927.144 1.1693 3.73945 0
M  V30 9490 H 928.841 1.55809 3.69492 0
M  V30 9491 H 925.431 2.89019 3.1649 0
M  V30 9492 H 929.615 3.86926 3.10809 0
M  V30 9493 H 924.871 5.28218 3.07888 0
M  V30 9494 H 929.045 6.26848 3.03372 0
M  V30 9495 H 926.672 6.97879 3.01444 0
M  V30 9496 N 928.247 -1.18576 1.03814 0
M  V30 9497 C 929.663 -1.4051 0.756909 0
M  V30 9498 C 929.863 -1.9057 -0.654631 0
M  V30 9499 O 928.919 -2.0884 -1.41922 0
M  V30 9500 C 930.232 -2.4081 1.80087 0
M  V30 9501 C 931.78 -2.54541 1.82148 0
M  V30 9502 C 932.255 -3.58102 2.85529 0
M  V30 9503 N 933.746 -3.65607 2.84404 0
M  V30 9504 C 934.481 -4.45458 3.61047 0
M  V30 9505 N 933.977 -5.28937 4.47434 0
M  V30 9506 N 935.77 -4.40196 3.49548 0
M  V30 9507 H 927.921 -0.844075 1.94908 0
M  V30 9508 H 930.184 -0.433287 0.843188 0
M  V30 9509 H 929.89 -2.1107 2.81322 0
M  V30 9510 H 929.764 -3.4012 1.63089 0
M  V30 9511 H 932.151 -2.83598 0.815855 0
M  V30 9512 H 932.232 -1.55352 2.03223 0
M  V30 9513 H 931.876 -3.29786 3.86269 0
M  V30 9514 H 931.806 -4.56963 2.6171 0
M  V30 9515 H 934.297 -3.05994 2.21756 0
M  V30 9516 H 934.61 -5.8701 5.02632 0
M  V30 9517 H 932.955 -5.28366 4.51503 0
M  V30 9518 H 936.146 -3.74026 2.81464 0
M  V30 9519 H 936.319 -5.02186 4.09528 0
M  V30 9520 N 929.725 -0.817259 -1.34754 0
M  V30 9521 C 931.141 -0.502309 -1.51489 0
M  V30 9522 C 931.341 0.974568 -1.76364 0
M  V30 9523 O 930.397 1.75924 -1.81127 0
M  V30 9524 C 931.71 -1.35693 -2.68343 0
M  V30 9525 C 933.258 -1.35347 -2.82224 0
M  V30 9526 C 933.733 -2.19244 -4.02114 0
M  V30 9527 N 935.224 -2.16837 -4.09311 0
M  V30 9528 C 935.959 -2.78505 -5.01221 0
M  V30 9529 N 935.455 -3.4914 -5.98392 0
M  V30 9530 N 937.248 -2.68089 -4.94049 0
M  V30 9531 H 929.399 -1.77359 -1.16866 0
M  V30 9532 H 931.662 -0.755476 -0.572678 0
M  V30 9533 H 931.368 -2.40548 -2.56573 0
M  V30 9534 H 931.242 -1.01764 -3.63213 0
M  V30 9535 H 933.629 -0.312727 -2.93438 0
M  V30 9536 H 933.71 -1.7327 -1.88179 0
M  V30 9537 H 933.354 -3.23365 -3.9166 0
M  V30 9538 H 933.284 -1.78675 -4.95361 0
M  V30 9539 H 935.775 -1.65452 -3.39756 0
M  V30 9540 H 936.088 -3.93455 -6.65141 0
M  V30 9541 H 934.433 -3.53246 -5.98533 0
M  V30 9542 H 937.624 -2.12485 -4.17094 0
M  V30 9543 H 937.797 -3.16436 -5.65484 0
M  V30 9544 N 931.203 1.46865 -0.571711 0
M  V30 9545 C 932.431 2.06818 -0.0583975 0
M  V30 9546 C 932.846 1.42218 1.24175 0
M  V30 9547 O 932.203 0.523655 1.74826 0
M  V30 9548 C 932.254 3.61281 0.125673 0
M  V30 9549 O 931.975 4.23462 -1.123 0
M  V30 9550 C 933.476 4.38137 0.674604 0
M  V30 9551 H 930.696 0.668948 -0.052438 0
M  V30 9552 H 933.24 1.88656 -0.789251 0
M  V30 9553 H 931.395 3.78908 0.806707 0
M  V30 9554 H 931.809 5.16192 -0.929869 0
M  V30 9555 H 933.283 5.46845 0.752626 0
M  V30 9556 H 933.76 4.05419 1.68915 0
M  V30 9557 H 934.366 4.2529 0.0287979 0
M  V30 9558 N 932.681 0.308908 1.54543 0
M  V30 9559 C 933.927 -0.298478 2.00592 0
M  V30 9560 C 934.26 -1.52929 1.19692 0
M  V30 9561 O 933.535 -1.9254 0.27542 0
M  V30 9562 C 933.818 -0.647218 3.54236 0
M  V30 9563 C 933.671 0.593284 4.4587 0
M  V30 9564 C 934.99 -1.47064 4.14801 0
M  V30 9565 H 932.109 -0.107012 0.72919 0
M  V30 9566 H 934.751 0.422578 1.85241 0
M  V30 9567 H 932.901 -1.26153 3.67447 0
M  V30 9568 H 934.573 1.2317 4.44552 0
M  V30 9569 H 932.816 1.22501 4.16144 0
M  V30 9570 H 933.487 0.305018 5.51157 0
M  V30 9571 H 935.963 -0.951511 4.05075 0
M  V30 9572 H 934.839 -1.68343 5.22448 0
M  V30 9573 H 935.1 -2.4623 3.67183 0
M  V30 9574 N 934.159 -1.57557 0.0367827 0
M  V30 9575 C 935.384 -1.96828 -0.653707 0
M  V30 9576 C 935.809 -0.913559 -1.64425 0
M  V30 9577 O 935.167 0.124749 -1.8087 0
M  V30 9578 C 935.215 -3.35189 -1.32969 0
M  V30 9579 O 934.319 -3.32095 -2.44513 0
M  V30 9580 H 933.66 -0.64157 -0.171124 0
M  V30 9581 H 936.19 -2.04351 0.100912 0
M  V30 9582 H 936.2 -3.71593 -1.68472 0
M  V30 9583 H 934.875 -4.11496 -0.603654 0
M  V30 9584 H 933.452 -3.07418 -2.11065 0
M  V30 9585 N 935.637 0.236453 -1.55816 0
M  V30 9586 C 936.862 0.98449 -1.82545 0
M  V30 9587 C 937.287 1.77755 -0.615206 0
M  V30 9588 O 936.645 1.75982 0.435895 0
M  V30 9589 C 936.693 1.88973 -3.07118 0
M  V30 9590 O 935.797 2.98298 -2.84766 0
M  V30 9591 H 935.138 0.279577 -0.602273 0
M  V30 9592 H 937.668 0.254277 -2.03014 0
M  V30 9593 H 937.678 2.3024 -3.36829 0
M  V30 9594 H 936.353 1.30671 -3.94839 0
M  V30 9595 H 934.93 2.61085 -2.6625 0
M  V30 9596 N 937.115 1.49373 0.502552 0
M  V30 9597 C 938.062 1.65927 1.60427 0
M  V30 9598 C 939.032 0.500768 1.58371 0
M  V30 9599 O 940.217 0.727606 1.76382 0
M  V30 9600 C 937.357 1.73043 2.9858 0
M  V30 9601 C 936.47 3.00187 3.10663 0
M  V30 9602 C 935.605 2.98292 4.3954 0
M  V30 9603 C 934.644 4.20022 4.4525 0
M  V30 9604 N 933.781 4.16046 5.65553 0
M  V30 9605 H 938.621 2.59998 1.45619 0
M  V30 9606 H 936.158 1.28912 0.708519 0
M  V30 9607 H 938.116 1.7515 3.78653 0
M  V30 9608 H 936.746 0.824397 3.12095 0
M  V30 9609 H 935.798 3.07699 2.23663 0
M  V30 9610 H 937.11 3.9018 3.10742 0
M  V30 9611 H 936.264 2.98953 5.27932 0
M  V30 9612 H 935.003 2.06075 4.42023 0
M  V30 9613 H 934.008 4.19607 3.5526 0
M  V30 9614 H 935.233 5.13431 4.44484 0
M  V30 9615 H 933.179 3.26665 5.68881 0
M  V30 9616 H 933.096 4.99773 5.67242 0
M  V30 9617 H 934.364 4.20807 6.56156 0
M  V30 9618 N 938.594 -0.753485 1.38421 0
M  V30 9619 C 939.822 -1.54272 1.37868 0
M  V30 9620 C 940.237 -1.88774 -0.0315155 0
M  V30 9621 O 939.594 -1.52785 -0.998148 0
M  V30 9622 C 939.645 -2.84179 2.23438 0
M  V30 9623 O 939.366 -2.51149 3.58965 0
M  V30 9624 C 940.867 -3.78316 2.31067 0
M  V30 9625 H 938.087 -0.47735 0.47157 0
M  V30 9626 H 940.631 -0.932509 1.82001 0
M  V30 9627 H 938.786 -3.41577 1.82767 0
M  V30 9628 H 939.2 -3.34466 4.04021 0
M  V30 9629 H 940.674 -4.66418 2.95226 0
M  V30 9630 H 941.151 -4.18757 1.32436 0
M  V30 9631 H 941.757 -3.26842 2.72129 0
M  V30 9632 N 940.072 -1.23292 -0.981677 0
M  V30 9633 C 941.483 -1.05936 -1.53735 0
M  V30 9634 C 941.834 0.373695 -1.92608 0
M  V30 9635 O 940.959 1.26024 -1.75917 0
M  V30 9636 C 941.554 -1.91682 -2.79363 0
M  V30 9637 C 940.113 -1.78591 -3.31334 0
M  V30 9638 C 939.26 -1.87463 -2.04335 0
M  V30 9639 H 942.211 -1.36973 -0.801505 0
M  V30 9640 H 942.232 -1.44085 -3.52164 0
M  V30 9641 H 941.744 -2.95975 -2.51039 0
M  V30 9642 H 939.845 -0.770755 -3.64541 0
M  V30 9643 H 939.958 -2.61902 -4.01179 0
M  V30 9644 H 938.322 -1.3103 -2.18411 0
M  V30 9645 H 939.105 -2.9331 -1.78394 0
M  V30 9646 N 941.55 1.18024 -1.04442 0
M  V30 9647 C 942.497 2.21785 -0.638759 0
M  V30 9648 C 943.467 1.62255 0.355312 0
M  V30 9649 O 944.652 1.89176 0.24844 0
M  V30 9650 C 941.792 3.45098 -0.0118002 0
M  V30 9651 C 940.905 4.1895 -1.05379 0
M  V30 9652 C 940.04 5.2973 -0.394951 0
M  V30 9653 C 939.079 5.95359 -1.42178 0
M  V30 9654 N 938.216 6.97668 -0.787635 0
M  V30 9655 H 943.056 2.55839 -1.52808 0
M  V30 9656 H 940.593 1.25681 -0.764378 0
M  V30 9657 H 942.551 4.15564 0.369075 0
M  V30 9658 H 941.181 3.11652 0.84102 0
M  V30 9659 H 940.233 3.47274 -1.55258 0
M  V30 9660 H 941.545 4.63877 -1.83355 0
M  V30 9661 H 940.699 6.06687 0.0399244 0
M  V30 9662 H 939.438 4.85915 0.416867 0
M  V30 9663 H 938.443 5.17139 -1.86675 0
M  V30 9664 H 939.668 6.41255 -2.23536 0
M  V30 9665 H 937.614 6.56 0.00380893 0
M  V30 9666 H 937.531 7.40867 -1.50505 0
M  V30 9667 H 938.799 7.78586 -0.377282 0
M  V30 9668 N 943.028 0.824394 1.34319 0
M  V30 9669 C 944.268 0.419044 2.00058 0
M  V30 9670 C 944.632 -0.999504 1.63933 0
M  V30 9671 O 945.833 -1.50781 2.22527 0
M  V30 9672 C 944.104 0.616897 3.52036 0
M  V30 9673 S 945.663 0.304614 4.37741 0
M  V30 9674 H 942.481 0.158265 0.693162 0
M  V30 9675 H 945.083 1.07053 1.63585 0
M  V30 9676 H 943.787 1.64896 3.75816 0
M  V30 9677 H 943.318 -0.0492693 3.93369 0
M  V30 9678 H 945.333 -0.88114 4.88314 0
M  V30 9679 N 944.506 -1.46559 0.579492 0
M  V30 9680 C 945.917 -1.8608 0.152052 0
M  V30 9681 C 946.268 -1.48346 -1.28405 0
M  V30 9682 O 945.393 -0.89685 -1.9694 0
M  V30 9683 C 945.988 -3.37729 0.269171 0
M  V30 9684 C 944.547 -3.76258 -0.103376 0
M  V30 9685 C 943.694 -2.70584 0.60659 0
M  V30 9686 H 946.645 -1.3776 0.787904 0
M  V30 9687 H 946.666 -3.77116 -0.506339 0
M  V30 9688 H 946.178 -3.65162 1.31448 0
M  V30 9689 H 944.279 -3.54443 -1.14895 0
M  V30 9690 H 944.392 -4.78335 0.270701 0
M  V30 9691 H 942.756 -2.54656 0.0471984 0
M  V30 9692 H 943.539 -3.00856 1.65349 0
M  V30 9693 N 945.984 -0.3171 -1.54377 0
M  V30 9694 C 947.212 0.289558 -2.04864 0
M  V30 9695 C 947.627 1.46284 -1.19359 0
M  V30 9696 O 946.984 1.81135 -0.222795 0
M  V30 9697 C 947.035 0.730273 -3.54047 0
M  V30 9698 O 946.756 -0.396325 -4.36304 0
M  V30 9699 C 948.257 1.40041 -4.20599 0
M  V30 9700 H 945.477 0.0605836 -0.668259 0
M  V30 9701 H 948.021 -0.461411 -1.99227 0
M  V30 9702 H 946.176 1.43123 -3.59992 0
M  V30 9703 H 946.59 -0.0502901 -5.24476 0
M  V30 9704 H 948.064 1.65979 -5.26455 0
M  V30 9705 H 948.541 2.34565 -3.71316 0
M  V30 9706 H 949.147 0.742206 -4.18774 0
M  V30 9707 N 947.462 1.57535 -0.0451378 0
M  V30 9708 C 948.71 1.92071 0.628743 0
M  V30 9709 C 949.031 0.923635 1.71738 0
M  V30 9710 O 948.301 -0.0324376 1.95873 0
M  V30 9711 H 946.881 0.708995 0.235233 0
M  V30 9712 H 949.543 1.9466 -0.0967177 0
M  V30 9713 H 948.639 2.9314 1.07123 0
M  V30 9714 N 948.94 -0.228186 1.55939 0
M  V30 9715 C 950.356 -0.577583 1.48782 0
M  V30 9716 C 950.556 -1.87461 0.738972 0
M  V30 9717 O 949.612 -2.50988 0.275929 0
M  V30 9718 C 950.925 -0.662961 2.93301 0
M  V30 9719 C 952.473 -0.754035 3.03782 0
M  V30 9720 C 952.948 -0.870815 4.49645 0
M  V30 9721 N 954.439 -0.935208 4.53661 0
M  V30 9722 C 955.174 -1.04516 5.63794 0
M  V30 9723 N 954.67 -1.11948 6.83696 0
M  V30 9724 N 956.463 -1.07978 5.51631 0
M  V30 9725 H 948.614 0.623018 2.03057 0
M  V30 9726 H 950.877 0.217692 0.922667 0
M  V30 9727 H 950.583 0.220375 3.51009 0
M  V30 9728 H 950.457 -1.52876 3.44831 0
M  V30 9729 H 952.844 -1.62782 2.46143 0
M  V30 9730 H 952.925 0.137301 2.55431 0
M  V30 9731 H 952.569 -0.0015186 5.079 0
M  V30 9732 H 952.499 -1.77747 4.95695 0
M  V30 9733 H 954.99 -0.88836 3.6731 0
M  V30 9734 H 955.303 -1.20297 7.6338 0
M  V30 9735 H 953.648 -1.08873 6.8642 0
M  V30 9736 H 956.839 -1.01833 4.56889 0
M  V30 9737 H 957.012 -1.16202 6.37496 0
M  V30 9738 N 950.418 -1.49637 -0.494624 0
M  V30 9739 C 951.348 -1.69692 -1.60396 0
M  V30 9740 C 952.329 -0.545648 -1.61111 0
M  V30 9741 O 953.514 -0.782202 -1.77751 0
M  V30 9742 C 950.644 -1.76934 -2.9885 0
M  V30 9743 C 949.598 -2.91915 -3.13001 0
M  V30 9744 C 948.924 -2.84276 -4.5287 0
M  V30 9745 C 950.224 -4.32764 -2.92426 0
M  V30 9746 H 951.918 -2.6257 -1.43866 0
M  V30 9747 H 949.464 -1.26355 -0.690679 0
M  V30 9748 H 951.417 -1.8955 -3.76362 0
M  V30 9749 H 950.141 -0.806609 -3.16483 0
M  V30 9750 H 948.8 -2.78911 -2.37916 0
M  V30 9751 H 948.448 -1.85897 -4.67388 0
M  V30 9752 H 948.148 -3.61452 -4.63278 0
M  V30 9753 H 949.672 -2.98909 -5.32434 0
M  V30 9754 H 951.086 -4.46415 -3.59703 0
M  V30 9755 H 949.483 -5.1121 -3.143 0
M  V30 9756 H 950.553 -4.46765 -1.88491 0
M  V30 9757 N 951.896 0.746133 -1.38819 0
M  V30 9758 C 952.826 1.87344 -1.39372 0
M  V30 9759 C 953.807 1.68123 -0.258583 0
M  V30 9760 O 954.992 1.88606 -0.462769 0
M  V30 9761 C 952.122 3.24962 -1.22543 0
M  V30 9762 C 951.076 3.58799 -2.33339 0
M  V30 9763 C 950.402 4.95235 -2.01609 0
M  V30 9764 C 951.702 3.62911 -3.75624 0
M  V30 9765 H 953.396 1.87138 -2.33709 0
M  V30 9766 H 950.942 0.898937 -1.12495 0
M  V30 9767 H 952.895 4.03488 -1.21554 0
M  V30 9768 H 951.619 3.25667 -0.246707 0
M  V30 9769 H 950.278 2.82596 -2.33527 0
M  V30 9770 H 949.926 4.92508 -1.02202 0
M  V30 9771 H 949.626 5.18843 -2.75819 0
M  V30 9772 H 951.15 5.76131 -2.02251 0
M  V30 9773 H 952.564 4.31535 -3.77426 0
M  V30 9774 H 950.961 3.98031 -4.491 0
M  V30 9775 H 952.031 2.62967 -4.07402 0
M  V30 9776 N 953.375 1.23811 0.975125 0
M  V30 9777 C 954.308 0.967173 2.06691 0
M  V30 9778 C 955.286 -0.09642 1.62314 0
M  V30 9779 O 956.47 0.0389532 1.8846 0
M  V30 9780 C 953.597 0.458094 3.35588 0
M  V30 9781 C 952.643 1.5091 3.98909 0
M  V30 9782 S 953.476 3.08815 4.37485 0
M  V30 9783 C 954.632 2.59591 5.69529 0
M  V30 9784 H 954.865 1.89166 2.29355 0
M  V30 9785 H 952.398 1.07113 1.11203 0
M  V30 9786 H 954.356 0.170991 4.10144 0
M  V30 9787 H 953.017 -0.445562 3.10924 0
M  V30 9788 H 952.21 1.10315 4.91779 0
M  V30 9789 H 951.812 1.74582 3.30752 0
M  V30 9790 H 954.104 2.0194 6.46704 0
M  V30 9791 H 955.047 3.51021 6.14971 0
M  V30 9792 H 955.455 2.00267 5.27782 0
M  V30 9793 N 954.853 -1.17469 1.05066 0
M  V30 9794 C 955.801 -2.23495 0.644418 0
M  V30 9795 C 956.795 -1.66081 -0.333685 0
M  V30 9796 O 958.001 -1.78887 -0.199886 0
M  V30 9797 H 954.376 -0.727546 0.190214 0
M  V30 9798 H 956.347 -2.55058 1.5488 0
M  V30 9799 C 955.096 -3.47684 0.0338051 0
M  V30 9800 H 954.419 -3.92167 0.777513 0
M  V30 9801 H 955.859 -4.23464 -0.213086 0
M  V30 9802 C 954.318 -3.14067 -1.21915 0
M  V30 9803 O 954.848 -3.28728 -2.3087 0
M  V30 9804 N 953.054 -2.68304 -1.11631 0
M  V30 9805 H 952.601 -2.56574 -0.229673 0
M  V30 9806 H 952.559 -2.46184 -1.95553 0
M  V30 9807 N 956.331 -0.831506 -1.3388 0
M  V30 9808 C 957.261 -0.274378 -2.31882 0
M  V30 9809 C 958.242 0.613872 -1.58637 0
M  V30 9810 O 959.427 0.538961 -1.86571 0
M  V30 9811 C 956.557 0.557498 -3.42796 0
M  V30 9812 C 955.511 -0.234337 -4.27358 0
M  V30 9813 C 954.837 0.720825 -5.29819 0
M  V30 9814 C 956.137 -1.44732 -5.01847 0
M  V30 9815 H 957.831 -1.09322 -2.78728 0
M  V30 9816 H 955.377 -0.527136 -1.34005 0
M  V30 9817 H 957.33 0.957501 -4.10378 0
M  V30 9818 H 956.054 1.40947 -2.94621 0
M  V30 9819 H 954.713 -0.61581 -3.61391 0
M  V30 9820 H 954.361 1.569 -4.77903 0
M  V30 9821 H 954.061 0.195171 -5.87276 0
M  V30 9822 H 955.585 1.1185 -6.00268 0
M  V30 9823 H 956.999 -1.12087 -5.62236 0
M  V30 9824 H 955.396 -1.90923 -5.68919 0
M  V30 9825 H 956.466 -2.22099 -4.31045 0
M  V30 9826 N 957.809 1.4625 -0.587256 0
M  V30 9827 C 959.055 2.0323 -0.0830359 0
M  V30 9828 C 959.41 1.45007 1.26455 0
M  V30 9829 O 958.703 0.607494 1.81714 0
M  V30 9830 C 958.897 3.57382 0.036328 0
M  V30 9831 C 958.726 4.30556 -1.29814 0
M  V30 9832 C 957.496 4.69285 -1.87349 0
M  V30 9833 C 959.694 4.63806 -2.22236 0
M  V30 9834 N 957.676 5.27229 -3.14488 0
M  V30 9835 C 959.047 5.22368 -3.33964 0
M  V30 9836 C 961.102 4.45738 -2.2186 0
M  V30 9837 C 959.805 5.64769 -4.45454 0
M  V30 9838 C 961.831 4.89158 -3.32383 0
M  V30 9839 C 961.193 5.47795 -4.42832 0
M  V30 9840 H 957.292 0.77856 -0.0732716 0
M  V30 9841 H 959.876 1.78343 -0.781152 0
M  V30 9842 H 958.047 3.81973 0.703621 0
M  V30 9843 H 959.779 4.01009 0.545347 0
M  V30 9844 H 956.534 4.5219 -1.40789 0
M  V30 9845 H 956.958 5.60719 -3.79372 0
M  V30 9846 H 961.6 3.99735 -1.37739 0
M  V30 9847 H 959.318 6.09748 -5.30314 0
M  V30 9848 H 962.904 4.76926 -3.33216 0
M  V30 9849 H 961.784 5.80778 -5.26941 0
M  V30 9850 N 959.287 0.325282 1.54207 0
M  V30 9851 C 960.25 -0.527228 2.23054 0
M  V30 9852 C 961.25 -1.04217 1.22456 0
M  V30 9853 O 962.44 -0.934325 1.47024 0
M  V30 9854 C 959.572 -1.7325 2.93594 0
M  V30 9855 H 960.765 0.0746423 2.99807 0
M  V30 9856 H 958.318 0.0763872 1.56113 0
M  V30 9857 H 959.053 -2.37356 2.20981 0
M  V30 9858 H 958.838 -1.37065 3.67363 0
M  V30 9859 H 960.328 -2.3376 3.46043 0
M  V30 9860 N 960.765 -1.57509 0.0534917 0
M  V30 9861 C 962.014 -1.91959 -0.619244 0
M  V30 9862 C 962.327 -0.933882 -1.71866 0
M  V30 9863 O 963.533 -1.17052 -2.44972 0
M  V30 9864 C 961.989 -3.40938 -1.15278 0
M  V30 9865 C 961.597 -4.47919 -0.085348 0
M  V30 9866 C 963.341 -3.84419 -1.80063 0
M  V30 9867 C 961.248 -5.88014 -0.631897 0
M  V30 9868 H 960.178 -0.71642 -0.235072 0
M  V30 9869 H 962.829 -1.83089 0.122758 0
M  V30 9870 H 961.211 -3.44821 -1.94717 0
M  V30 9871 H 962.385 -4.55629 0.688374 0
M  V30 9872 H 960.7 -4.13793 0.465178 0
M  V30 9873 H 963.297 -4.86457 -2.21954 0
M  V30 9874 H 963.64 -3.20791 -2.65328 0
M  V30 9875 H 964.173 -3.83062 -1.07275 0
M  V30 9876 H 960.912 -6.55244 0.183175 0
M  V30 9877 H 960.432 -5.83861 -1.37355 0
M  V30 9878 H 962.111 -6.37336 -1.11407 0
M  V30 9879 N 962.243 0.219913 -1.56058 0
M  V30 9880 C 963.49 0.944064 -1.79147 0
M  V30 9881 C 963.818 1.84268 -0.622531 0
M  V30 9882 O 963.073 1.91713 0.393013 0
M  V30 9883 C 963.372 1.81293 -3.08006 0
M  V30 9884 C 963.038 1.0674 -4.38084 0
M  V30 9885 C 961.7 0.86147 -4.73426 0
M  V30 9886 C 964.052 0.541049 -5.18384 0
M  V30 9887 C 961.38 0.117307 -5.86583 0
M  V30 9888 C 963.732 -0.189779 -6.32315 0
M  V30 9889 C 962.396 -0.406951 -6.66258 0
M  V30 9890 H 961.666 0.345458 -0.655546 0
M  V30 9891 H 964.313 0.212121 -1.90322 0
M  V30 9892 H 962.618 2.61278 -2.9196 0
M  V30 9893 H 964.315 2.3754 -3.23072 0
M  V30 9894 H 960.905 1.23789 -4.10334 0
M  V30 9895 H 965.089 0.687617 -4.91514 0
M  V30 9896 H 960.345 -0.0611651 -6.11369 0
M  V30 9897 H 964.519 -0.605134 -6.93766 0
M  V30 9898 H 962.146 -0.985511 -7.53785 0
M  V30 9899 N 963.721 1.49897 0.486681 0
M  V30 9900 C 964.961 1.61732 1.24988 0
M  V30 9901 C 965.325 0.303724 1.89582 0
M  V30 9902 O 966.526 0.297373 2.6715 0
M  V30 9903 C 964.797 2.75429 2.27757 0
M  V30 9904 S 966.356 3.07304 3.13225 0
M  V30 9905 H 963.174 0.570316 0.424571 0
M  V30 9906 H 965.776 1.87617 0.549549 0
M  V30 9907 H 964.48 3.69376 1.78857 0
M  V30 9908 H 964.011 2.51582 3.0244 0
M  V30 9909 H 966.026 2.49928 4.28661 0
M  V30 9910 N 965.199 -0.738761 1.39212 0
M  V30 9911 C 966.129 -1.86602 1.40364 0
M  V30 9912 C 967.11 -1.67984 0.267495 0
M  V30 9913 O 968.295 -1.88358 0.472765 0
M  V30 9914 C 965.425 -3.24308 1.24265 0
M  V30 9915 C 964.379 -3.57557 2.35239 0
M  V30 9916 C 963.705 -4.94159 2.04233 0
M  V30 9917 C 965.005 -3.60914 3.77543 0
M  V30 9918 H 966.699 -1.85896 2.34698 0
M  V30 9919 H 964.245 -0.892959 1.1297 0
M  V30 9920 H 966.198 -4.02838 1.23692 0
M  V30 9921 H 964.922 -3.25531 0.263974 0
M  V30 9922 H 963.581 -2.81354 2.35022 0
M  V30 9923 H 963.229 -4.91959 1.04813 0
M  V30 9924 H 962.929 -5.17373 2.78567 0
M  V30 9925 H 964.453 -5.7505 2.05303 0
M  V30 9926 H 965.867 -4.29528 3.79709 0
M  V30 9927 H 964.264 -3.95644 4.51205 0
M  V30 9928 H 965.334 -2.60803 4.08791 0
M  V30 9929 N 966.677 -1.24326 -0.968545 0
M  V30 9930 C 967.607 -1.05951 -2.08079 0
M  V30 9931 C 968.588 0.0272666 -1.70078 0
M  V30 9932 O 969.773 -0.139644 -1.93697 0
M  V30 9933 C 966.903 -0.662623 -3.4092 0
M  V30 9934 C 965.857 -1.69807 -3.92873 0
M  V30 9935 C 965.183 -1.15628 -5.22048 0
M  V30 9936 C 966.483 -3.09383 -4.20808 0
M  V30 9937 H 968.177 -1.98984 -2.23709 0
M  V30 9938 H 965.723 -0.958112 -1.075 0
M  V30 9939 H 967.676 -0.521071 -4.18166 0
M  V30 9940 H 966.4 0.303399 -3.25188 0
M  V30 9941 H 965.059 -1.82783 -3.17783 0
M  V30 9942 H 964.707 -0.180888 -5.02675 0
M  V30 9943 H 964.407 -1.84822 -5.57776 0
M  V30 9944 H 965.931 -1.02683 -6.01904 0
M  V30 9945 H 967.345 -2.99642 -4.88761 0
M  V30 9946 H 965.742 -3.75923 -4.67763 0
M  V30 9947 H 966.812 -3.57486 -3.27616 0
M  V30 9948 N 968.156 1.1691 -1.05688 0
M  V30 9949 C 969.402 1.8757 -0.771071 0
M  V30 9950 C 969.735 1.8113 0.700399 0
M  V30 9951 O 969.01 1.22273 1.5126 0
M  V30 9952 C 969.293 3.37392 -1.25851 0
M  V30 9953 C 969.146 3.52556 -2.79329 0
M  V30 9954 C 970.465 4.31585 -0.861512 0
M  V30 9955 H 967.584 0.681089 -0.281579 0
M  V30 9956 H 970.226 1.37453 -1.31174 0
M  V30 9957 H 968.376 3.80204 -0.798563 0
M  V30 9958 H 970.048 3.18725 -3.33485 0
M  V30 9959 H 968.291 2.94668 -3.1836 0
M  V30 9960 H 968.962 4.57748 -3.08498 0
M  V30 9961 H 971.438 3.96642 -1.25756 0
M  V30 9962 H 970.314 5.34939 -1.23012 0
M  V30 9963 H 970.575 4.4148 0.234089 0
M  V30 9964 N 969.634 0.838594 1.33437 0
M  V30 9965 C 970.564 0.286672 2.31734 0
M  V30 9966 C 971.545 -0.605451 1.5896 0
M  V30 9967 O 972.73 -0.529059 1.86854 0
M  V30 9968 C 969.86 -0.539311 3.43087 0
M  V30 9969 C 968.814 0.256997 4.27228 0
M  V30 9970 C 968.14 -0.692718 5.30194 0
M  V30 9971 C 969.44 1.47391 5.01072 0
M  V30 9972 H 971.134 1.10798 2.78144 0
M  V30 9973 H 968.68 0.534235 1.33723 0
M  V30 9974 H 970.633 -0.935724 4.1088 0
M  V30 9975 H 969.357 -1.39383 2.95364 0
M  V30 9976 H 968.016 0.634967 3.61059 0
M  V30 9977 H 967.664 -1.54363 4.78729 0
M  V30 9978 H 967.364 -0.164023 5.87371 0
M  V30 9979 H 968.888 -1.08665 6.00853 0
M  V30 9980 H 970.302 1.15067 5.61634 0
M  V30 9981 H 968.699 1.93937 5.67898 0
M  V30 9982 H 969.769 2.24382 4.29861 0
M  V30 9983 N 971.112 -1.45937 0.595003 0
M  V30 9984 C 972.337 -2.07207 0.0894416 0
M  V30 9985 C 972.762 -1.43884 -1.21157 0
M  V30 9986 O 972.12 -0.526998 -1.73472 0
M  V30 9987 C 972.168 -3.60565 -0.0499828 0
M  V30 9988 O 971.272 -3.97364 -1.10342 0
M  V30 9989 H 970.613 -0.660471 0.0683627 0
M  V30 9990 H 973.143 -1.87386 0.82144 0
M  V30 9991 H 973.153 -4.0722 -0.252234 0
M  V30 9992 H 971.828 -4.06044 0.90006 0
M  V30 9993 H 970.405 -3.62401 -0.878645 0
M  V30 9994 N 972.59 -0.333456 -1.54032 0
M  V30 9995 C 973.815 0.270517 -2.05628 0
M  V30 9996 C 974.24 1.44231 -1.20744 0
M  V30 9997 O 973.598 1.79975 -0.218822 0
M  V30 9998 C 973.646 0.673251 -3.54259 0
M  V30 9999 O 972.75 1.77448 -3.72271 0
M  V30 10000 H 972.091 0.0469753 -0.662336 0
M  V30 10001 H 974.621 -0.484739 -1.98775 0
M  V30 10002 H 974.631 0.953194 -3.96709 0
M  V30 10003 H 973.306 -0.183747 -4.15494 0
M  V30 10004 H 971.883 1.49259 -3.41725 0
M  V30 10005 N 974.068 1.57479 -0.061844 0
M  V30 10006 C 975.298 1.97142 0.61794 0
M  V30 10007 C 975.706 0.938533 1.64281 0
M  V30 10008 O 975.049 -0.084385 1.83506 0
M  V30 10009 C 975.111 3.33083 1.35263 0
M  V30 10010 C 974.775 4.54447 0.482372 0
M  V30 10011 C 975.772 5.1927 -0.255954 0
M  V30 10012 C 973.457 5.00623 0.410167 0
M  V30 10013 C 975.451 6.28612 -1.05481 0
M  V30 10014 C 973.138 6.09839 -0.392369 0
M  V30 10015 C 974.136 6.73696 -1.12354 0
M  V30 10016 O 973.824 7.80811 -1.91285 0
M  V30 10017 H 973.556 0.653497 0.172969 0
M  V30 10018 H 976.11 2.05002 -0.127781 0
M  V30 10019 H 974.34 3.21808 2.14421 0
M  V30 10020 H 976.029 3.5742 1.92368 0
M  V30 10021 H 976.795 4.84546 -0.209703 0
M  V30 10022 H 972.674 4.50704 0.968883 0
M  V30 10023 H 976.218 6.78385 -1.62602 0
M  V30 10024 H 972.115 6.43997 -0.44022 0
M  V30 10025 H 972.883 7.9764 -1.83611 0
M  V30 10026 N 975.546 -0.211634 1.56173 0
M  V30 10027 C 976.774 -0.951184 1.83739 0
M  V30 10028 C 977.189 -1.7754 0.642252 0
M  V30 10029 O 976.546 -1.78302 -0.389174 0
M  V30 10030 C 976.597 -1.86075 3.09933 0
M  V30 10031 O 976.318 -1.06983 4.24837 0
M  V30 10032 C 977.819 -2.71337 3.50559 0
M  V30 10033 H 975.039 -0.278312 0.61056 0
M  V30 10034 H 977.583 -0.223871 2.03271 0
M  V30 10035 H 975.738 -2.54189 2.92347 0
M  V30 10036 H 976.152 -1.68815 4.9659 0
M  V30 10037 H 977.626 -3.30843 4.41868 0
M  V30 10038 H 978.103 -3.44226 2.72773 0
M  V30 10039 H 978.709 -2.0862 3.70618 0
M  V30 10040 N 977.024 -1.50153 -0.478725 0
M  V30 10041 C 977.987 -1.67916 -1.56003 0
M  V30 10042 C 978.987 -0.550111 -1.51097 0
M  V30 10043 O 980.177 -0.817001 -1.53853 0
M  V30 10044 C 977.309 -1.6973 -2.95643 0
M  V30 10045 H 978.502 -2.6438 -1.41573 0
M  V30 10046 H 976.055 -1.39519 -0.704565 0
M  V30 10047 H 976.79 -0.749306 -3.15525 0
M  V30 10048 H 976.575 -2.51745 -3.00611 0
M  V30 10049 H 978.065 -1.85453 -3.74162 0
M  V30 10050 N 978.502 0.731368 -1.39602 0
M  V30 10051 C 979.45 1.86676 -1.38761 0
M  V30 10052 C 980.444 1.6723 -0.270247 0
M  V30 10053 O 981.65 1.74528 -0.440471 0
M  V30 10054 H 978.025 0.614553 -0.433391 0
M  V30 10055 H 979.996 1.84501 -2.34525 0
M  V30 10056 C 978.745 3.24394 -1.25155 0
M  V30 10057 H 978.068 3.39955 -2.10406 0
M  V30 10058 H 979.508 4.04019 -1.28625 0
M  V30 10059 C 977.967 3.36877 0.0396976 0
M  V30 10060 O 978.497 3.88833 1.00854 0
M  V30 10061 N 976.703 2.90414 0.103965 0
M  V30 10062 H 976.25 2.48321 -0.685155 0
M  V30 10063 H 976.208 2.99146 0.967435 0
M  V30 10064 N 979.98 1.24838 0.961938 0
M  V30 10065 C 980.91 1.07053 2.07514 0
M  V30 10066 C 981.891 -0.0182465 1.7009 0
M  V30 10067 O 983.076 0.149915 1.9362 0
M  V30 10068 C 980.206 0.680693 3.40564 0
M  V30 10069 C 979.16 1.71889 3.91967 0
M  V30 10070 C 978.486 1.18395 5.21428 0
M  V30 10071 C 979.786 3.1161 4.19161 0
M  V30 10072 H 981.48 2.00167 2.22651 0
M  V30 10073 H 979.026 0.963799 1.0699 0
M  V30 10074 H 980.979 0.54324 4.17884 0
M  V30 10075 H 979.703 -0.28615 3.25344 0
M  V30 10076 H 978.362 1.84465 3.16809 0
M  V30 10077 H 978.01 0.207543 5.02572 0
M  V30 10078 H 977.71 1.87778 5.56788 0
M  V30 10079 H 979.234 1.05873 6.01351 0
M  V30 10080 H 980.648 3.0223 4.87165 0
M  V30 10081 H 979.045 3.78398 4.65763 0
M  V30 10082 H 980.115 3.59218 3.25715 0
M  V30 10083 N 981.458 -1.16348 1.06306 0
M  V30 10084 C 982.421 -2.18941 0.678053 0
M  V30 10085 C 983.421 -1.58409 -0.276277 0
M  V30 10086 O 984.611 -1.74101 -0.0586435 0
M  V30 10087 C 981.743 -3.409 -0.00228684 0
M  V30 10088 H 982.936 -2.54516 1.58624 0
M  V30 10089 H 980.489 -1.30625 0.858298 0
M  V30 10090 H 981.224 -3.10881 -0.923212 0
M  V30 10091 H 981.009 -3.86089 0.683949 0
M  V30 10092 H 982.499 -4.16806 -0.257374 0
M  V30 10093 N 982.937 -0.845659 -1.3299 0
M  V30 10094 C 983.9 -0.288905 -2.27372 0
M  V30 10095 C 984.9 0.546263 -1.51237 0
M  V30 10096 O 986.09 0.359072 -1.70459 0
M  V30 10097 C 983.222 0.59224 -3.35716 0
M  V30 10098 H 984.415 -1.12181 -2.78128 0
M  V30 10099 H 981.968 -0.619276 -1.43508 0
M  V30 10100 H 982.703 1.44732 -2.90212 0
M  V30 10101 H 982.488 -0.00543255 -3.921 0
M  V30 10102 H 983.978 0.974848 -4.06062 0
M  V30 10103 N 984.415 1.45619 -0.602734 0
M  V30 10104 C 985.661 2.02572 -0.0961759 0
M  V30 10105 C 985.994 1.47076 1.26815 0
M  V30 10106 O 985.269 0.643566 1.83544 0
M  V30 10107 C 985.552 3.60062 -0.0520032 0
M  V30 10108 C 985.405 4.25901 -1.44665 0
M  V30 10109 C 986.724 4.35446 0.638342 0
M  V30 10110 H 983.843 0.736099 -0.0364238 0
M  V30 10111 H 986.485 1.7353 -0.773776 0
M  V30 10112 H 984.635 3.84936 0.525032 0
M  V30 10113 H 986.307 4.12228 -2.0704 0
M  V30 10114 H 984.55 3.84489 -2.00874 0
M  V30 10115 H 985.221 5.34779 -1.36803 0
M  V30 10116 H 987.697 4.15837 0.147926 0
M  V30 10117 H 986.573 5.45176 0.63834 0
M  V30 10118 H 986.834 4.07962 1.70351 0
M  V30 10119 N 985.893 0.34162 1.53853 0
M  V30 10120 C 986.826 -0.559051 2.21246 0
M  V30 10121 C 987.804 -1.10179 1.1958 0
M  V30 10122 O 988.988 -1.16242 1.48392 0
M  V30 10123 C 986.115 -1.7689 2.88838 0
M  V30 10124 C 985.161 -1.3558 4.04377 0
M  V30 10125 S 985.994 -0.377225 5.3417 0
M  V30 10126 C 987.15 -1.59395 6.05264 0
M  V30 10127 H 987.383 0.013373 2.97297 0
M  V30 10128 H 984.916 0.125694 1.53888 0
M  V30 10129 H 986.874 -2.463 3.284 0
M  V30 10130 H 985.535 -2.31254 2.12557 0
M  V30 10131 H 984.728 -2.25781 4.50599 0
M  V30 10132 H 984.33 -0.741197 3.66582 0
M  V30 10133 H 986.622 -2.52872 6.2854 0
M  V30 10134 H 987.565 -1.17356 6.98307 0
M  V30 10135 H 987.973 -1.78913 5.35397 0
M  V30 10136 N 987.371 -1.57444 0.0701946 0
M  V30 10137 C 988.617 -1.93716 -0.600178 0
M  V30 10138 C 988.95 -0.950329 -1.69359 0
M  V30 10139 O 988.225 0.0207123 -1.94489 0
M  V30 10140 C 988.508 -3.40266 -1.17861 0
M  V30 10141 C 988.361 -4.49706 -0.0919575 0
M  V30 10142 C 989.68 -3.87599 -2.08459 0
M  V30 10143 H 986.799 -0.704421 -0.216704 0
M  V30 10144 H 989.441 -1.89514 0.135838 0
M  V30 10145 H 987.591 -3.43977 -1.80587 0
M  V30 10146 H 989.263 -4.58116 0.541031 0
M  V30 10147 H 987.506 -4.29937 0.577639 0
M  V30 10148 H 988.177 -5.49381 -0.537048 0
M  V30 10149 H 990.653 -3.85883 -1.5567 0
M  V30 10150 H 989.529 -4.90755 -2.45867 0
M  V30 10151 H 989.79 -3.25448 -2.99226 0
M  V30 10152 N 988.849 0.203349 -1.56283 0
M  V30 10153 C 990.097 0.923183 -1.79782 0
M  V30 10154 C 990.418 1.84134 -0.64185 0
M  V30 10155 O 989.688 1.92922 0.340292 0
M  V30 10156 H 988.268 0.343881 -0.66314 0
M  V30 10157 H 990.93 0.210837 -1.93756 0
M  V30 10158 H 990.026 1.51921 -2.72629 0
M  V30 10159 N 990.327 1.50405 0.470755 0
M  V30 10160 C 991.604 1.51929 1.23195 0
M  V30 10161 C 991.984 0.264159 2.09441 0
M  V30 10162 O 991.332 -0.752395 2.15757 0
M  V30 10163 C 991.542 2.81521 2.06269 0
M  V30 10164 C 992.89 3.32195 2.64446 0
M  V30 10165 O 993.914 2.82845 2.16511 0
M  V30 10166 O 992.773 4.18221 3.51786 0
M  V30 10167 H 989.867 0.609411 0.559059 0
M  V30 10168 H 992.413 1.62695 0.482549 0
M  V30 10169 H 991.185 3.64346 1.42715 0
M  V30 10170 H 990.808 2.7376 2.88342 0
M  V30 10171 N 991.805 -0.723954 1.39988 0
M  V30 10172 C 992.752 -1.83803 1.39589 0
M  V30 10173 C 993.722 -1.64146 0.253996 0
M  V30 10174 O 994.907 -1.85398 0.450793 0
M  V30 10175 C 992.047 -3.21431 1.25604 0
M  V30 10176 C 991.16 -3.52717 2.49429 0
M  V30 10177 C 990.295 -4.79805 2.27949 0
M  V30 10178 C 989.334 -5.03968 3.47394 0
M  V30 10179 N 988.471 -6.22266 3.25161 0
M  V30 10180 H 993.311 -1.83479 2.34818 0
M  V30 10181 H 990.848 -0.896396 1.16633 0
M  V30 10182 H 992.806 -4.00892 1.15504 0
M  V30 10183 H 991.436 -3.21005 0.339986 0
M  V30 10184 H 990.488 -2.67872 2.7009 0
M  V30 10185 H 991.8 -3.66486 3.38363 0
M  V30 10186 H 990.954 -5.67268 2.15155 0
M  V30 10187 H 989.693 -4.68229 1.36428 0
M  V30 10188 H 988.698 -4.14963 3.60674 0
M  V30 10189 H 989.923 -5.17422 4.39831 0
M  V30 10190 H 987.869 -6.11957 2.36314 0
M  V30 10191 H 987.786 -6.36673 4.07656 0
M  V30 10192 H 989.054 -7.12539 3.16083 0
M  V30 10193 N 993.283 -1.25346 -0.955304 0
M  V30 10194 C 994.511 -1.12793 -1.73451 0
M  V30 10195 C 994.926 0.318344 -1.86097 0
M  V30 10196 O 994.283 1.21897 -1.35821 0
M  V30 10197 C 994.334 -1.77603 -3.14864 0
M  V30 10198 O 994.055 -3.16577 -3.02837 0
M  V30 10199 C 995.556 -1.70821 -4.09066 0
M  V30 10200 H 992.776 -0.393457 -0.543537 0
M  V30 10201 H 995.32 -1.65696 -1.19855 0
M  V30 10202 H 993.475 -1.28673 -3.65407 0
M  V30 10203 H 993.889 -3.48433 -3.92039 0
M  V30 10204 H 995.363 -2.2083 -5.05903 0
M  V30 10205 H 995.84 -0.671858 -4.34031 0
M  V30 10206 H 996.446 -2.19237 -3.64438 0
M  V30 10207 N 994.761 1.15782 -1.06922 0
M  V30 10208 C 996.008 1.86465 -0.789752 0
M  V30 10209 C 996.336 1.82075 0.684022 0
M  V30 10210 O 995.591 1.23576 1.51748 0
M  V30 10211 C 995.89 3.35284 -1.2377 0
M  V30 10212 C 995.556 3.59871 -2.71668 0
M  V30 10213 C 994.218 3.6629 -3.12066 0
M  V30 10214 C 996.57 3.69929 -3.67154 0
M  V30 10215 C 993.898 3.80275 -4.46775 0
M  V30 10216 C 996.25 3.85436 -5.01619 0
M  V30 10217 C 994.914 3.901 -5.41644 0
M  V30 10218 H 994.184 0.682324 -0.288991 0
M  V30 10219 H 996.831 1.36861 -1.33945 0
M  V30 10220 H 995.136 3.87065 -0.607309 0
M  V30 10221 H 996.833 3.88371 -0.998431 0
M  V30 10222 H 993.423 3.55512 -2.39393 0
M  V30 10223 H 997.607 3.64274 -3.37073 0
M  V30 10224 H 992.863 3.8214 -4.77262 0
M  V30 10225 H 997.037 3.92161 -5.75485 0
M  V30 10226 H 994.664 4.00688 -6.46029 0
M  V30 10227 N 996.239 0.8527 1.3254 0
M  V30 10228 C 997.149 0.298744 2.3269 0
M  V30 10229 C 998.165 -0.582418 1.63963 0
M  V30 10230 O 999.341 -0.483253 1.95516 0
M  V30 10231 C 996.406 -0.505453 3.42996 0
M  V30 10232 C 995.467 0.401618 4.27417 0
M  V30 10233 C 994.7 -0.364294 5.32455 0
M  V30 10234 O 994.923 -1.59448 5.47661 0
M  V30 10235 O 993.857 0.268892 6.01299 0
M  V30 10236 H 997.683 1.12843 2.81958 0
M  V30 10237 H 995.268 0.615584 1.36128 0
M  V30 10238 H 997.15 -0.961974 4.10273 0
M  V30 10239 H 995.825 -1.31197 2.95921 0
M  V30 10240 H 994.732 0.906274 3.62957 0
M  V30 10241 H 996.065 1.17327 4.78012 0
M  V30 10242 N 997.718 -1.45297 0.610449 0
M  V30 10243 C 998.628 -2.34349 -0.108475 0
M  V30 10244 C 999.644 -1.51409 -0.857397 0
M  V30 10245 O 1000.82 -1.84202 -0.814337 0
M  V30 10246 C 997.885 -3.29072 -1.09144 0
M  V30 10247 C 996.946 -4.27918 -0.344165 0
M  V30 10248 C 996.179 -5.18116 -1.28031 0
M  V30 10249 O 996.402 -5.11802 -2.51824 0
M  V30 10250 O 995.336 -5.96879 -0.775821 0
M  V30 10251 H 999.162 -2.97232 0.623421 0
M  V30 10252 H 996.747 -1.44728 0.3707 0
M  V30 10253 H 998.629 -3.87433 -1.65751 0
M  V30 10254 H 997.304 -2.68749 -1.80431 0
M  V30 10255 H 996.211 -3.73164 0.264437 0
M  V30 10256 H 997.544 -4.91104 0.328275 0
M  V30 10257 N 999.196 -0.349774 -1.5367 0
M  V30 10258 C 1000.13 0.496338 -2.28164 0
M  V30 10259 C 1001.11 1.09737 -1.29968 0
M  V30 10260 O 1002.29 1.11759 -1.58819 0
M  V30 10261 C 999.422 1.64428 -3.0591 0
M  V30 10262 C 998.376 1.17127 -4.11661 0
M  V30 10263 C 997.702 2.40822 -4.77398 0
M  V30 10264 C 999.002 0.267293 -5.21616 0
M  V30 10265 H 1000.7 -0.125117 -2.99138 0
M  V30 10266 H 998.242 -0.0616152 -1.43868 0
M  V30 10267 H 1000.19 2.2427 -3.56765 0
M  V30 10268 H 998.919 2.29272 -2.32598 0
M  V30 10269 H 997.578 0.595634 -3.61729 0
M  V30 10270 H 997.226 3.04088 -4.00674 0
M  V30 10271 H 996.926 2.09852 -5.48849 0
M  V30 10272 H 998.45 3.01378 -5.3104 0
M  V30 10273 H 999.864 0.772734 -5.68068 0
M  V30 10274 H 998.261 0.0491991 -6.0008 0
M  V30 10275 H 999.331 -0.694892 -4.79895 0
M  V30 10276 N 1000.67 1.57404 -0.0785433 0
M  V30 10277 C 1001.9 1.98492 0.601292 0
M  V30 10278 C 1002.32 0.956832 1.61945 0
M  V30 10279 O 1001.68 -0.0767502 1.81137 0
M  V30 10280 C 1001.73 3.38596 1.24036 0
M  V30 10281 O 1000.83 3.38461 2.35622 0
M  V30 10282 H 1000.17 0.645882 0.154054 0
M  V30 10283 H 1002.7 2.04012 -0.155056 0
M  V30 10284 H 1002.71 3.75929 1.5856 0
M  V30 10285 H 1001.39 4.12952 0.494341 0
M  V30 10286 H 999.967 3.12906 2.02841 0
M  V30 10287 N 1002.15 -0.195058 1.56388 0
M  V30 10288 C 1003.4 -0.913636 1.8027 0
M  V30 10289 C 1003.72 -1.83791 0.651606 0
M  V30 10290 O 1002.99 -1.931 -0.330057 0
M  V30 10291 H 1001.57 -0.34036 0.664954 0
M  V30 10292 H 1004.23 -0.200559 1.93865 0
M  V30 10293 H 1003.33 -1.50473 2.7343 0
M  V30 10294 N 1003.63 -1.50653 -0.462772 0
M  V30 10295 C 1004.88 -1.61296 -1.21105 0
M  V30 10296 C 1005.19 -0.322757 -1.92919 0
M  V30 10297 O 1006.4 -0.308211 -2.69745 0
M  V30 10298 C 1004.85 -2.84752 -2.201 0
M  V30 10299 C 1004.46 -4.20681 -1.54051 0
M  V30 10300 C 1006.21 -3.04744 -2.95518 0
M  V30 10301 C 1004.11 -5.35314 -2.51381 0
M  V30 10302 H 1003.04 -0.60069 -0.455728 0
M  V30 10303 H 1005.69 -1.77093 -0.480656 0
M  V30 10304 H 1004.08 -2.62532 -2.96467 0
M  V30 10305 H 1005.25 -4.53187 -0.834168 0
M  V30 10306 H 1003.56 -4.06361 -0.908828 0
M  V30 10307 H 1006.16 -3.87559 -3.68378 0
M  V30 10308 H 1006.5 -2.16802 -3.55391 0
M  V30 10309 H 1007.04 -3.27185 -2.26263 0
M  V30 10310 H 1003.78 -6.25437 -1.96235 0
M  V30 10311 H 1003.3 -5.07216 -3.20144 0
M  V30 10312 H 1004.98 -5.66229 -3.1304 0
M  V30 10313 N 1005.11 0.71652 -1.4037 0
M  V30 10314 C 1006.06 1.82219 -1.37041 0
M  V30 10315 C 1007.04 1.58975 -0.248116 0
M  V30 10316 O 1008.23 1.70164 -0.487147 0
M  V30 10317 C 1005.36 3.20337 -1.23446 0
M  V30 10318 C 1004.45 3.49347 -2.40452 0
M  V30 10319 N 1004.84 3.49179 -3.65934 0
M  V30 10320 C 1003.14 3.798 -2.33811 0
M  V30 10321 C 1003.84 3.76506 -4.43416 0
M  V30 10322 N 1002.82 3.95209 -3.73244 0
M  V30 10323 H 1006.62 1.80421 -2.32003 0
M  V30 10324 H 1004.13 0.915603 -1.34129 0
M  V30 10325 H 1006.13 3.99513 -1.19143 0
M  V30 10326 H 1004.79 3.23362 -0.294497 0
M  V30 10327 H 1005.8 3.30051 -3.99107 0
M  V30 10328 H 1002.48 3.9032 -1.48177 0
M  V30 10329 H 1003.87 3.82689 -5.52267 0
M  V30 10330 N 1006.59 1.25851 0.948643 0
M  V30 10331 C 1007.86 1.01717 1.67072 0
M  V30 10332 C 1008.24 -0.454749 2.06144 0
M  V30 10333 O 1007.59 -1.43345 1.77945 0
M  V30 10334 C 1007.8 1.95872 2.88852 0
M  V30 10335 C 1009.15 2.24057 3.60671 0
M  V30 10336 O 1010.17 1.93678 2.98944 0
M  V30 10337 O 1009.03 2.75745 4.71833 0
M  V30 10338 H 1006.13 0.386198 0.731287 0
M  V30 10339 H 1008.67 1.37031 1.00104 0
M  V30 10340 H 1007.44 2.95233 2.56814 0
M  V30 10341 H 1007.07 1.60992 3.63548 0
M  V30 10342 N 1008.06 -1.15214 1.07534 0
M  V30 10343 C 1009.48 -1.67628 0.822045 0
M  V30 10344 C 1009.83 -1.8503 -0.652571 0
M  V30 10345 O 1008.95 -1.55497 -1.50498 0
M  V30 10346 C 1009.55 -3.04489 1.48566 0
M  V30 10347 C 1008.11 -3.53974 1.27983 0
M  V30 10348 C 1007.25 -2.29656 1.55414 0
M  V30 10349 H 1010.2 -0.994016 1.23713 0
M  V30 10350 H 1010.22 -3.69509 0.907916 0
M  V30 10351 H 1009.74 -2.91792 2.55888 0
M  V30 10352 H 1007.84 -3.71908 0.226906 0
M  V30 10353 H 1007.95 -4.35298 2.0013 0
M  V30 10354 H 1006.31 -2.35289 0.975251 0
M  V30 10355 H 1007.1 -2.19544 2.63923 0
M  V30 10356 N 1009.54 -0.859717 -1.32086 0
M  V30 10357 C 1010.49 -0.306042 -2.28762 0
M  V30 10358 C 1011.46 0.589801 -1.55276 0
M  V30 10359 O 1012.64 0.523633 -1.83474 0
M  V30 10360 C 1009.78 0.495256 -3.41528 0
M  V30 10361 C 1008.9 -0.426947 -4.29885 0
M  V30 10362 C 1008.03 0.387474 -5.29785 0
M  V30 10363 C 1007.07 -0.531807 -6.09785 0
M  V30 10364 N 1006.21 0.245741 -7.0167 0
M  V30 10365 H 1011.05 -1.1357 -2.7551 0
M  V30 10366 H 1008.59 -0.571468 -1.35546 0
M  V30 10367 H 1010.54 0.97551 -4.05635 0
M  V30 10368 H 1009.17 1.28969 -2.95917 0
M  V30 10369 H 1008.23 -1.02561 -3.66313 0
M  V30 10370 H 1009.54 -1.13226 -4.85779 0
M  V30 10371 H 1008.69 0.930677 -5.99519 0
M  V30 10372 H 1007.43 1.12612 -4.74521 0
M  V30 10373 H 1006.44 -1.08685 -5.3895 0
M  V30 10374 H 1007.66 -1.26915 -6.67135 0
M  V30 10375 H 1005.61 0.967391 -6.48828 0
M  V30 10376 H 1005.52 -0.400432 -7.54939 0
M  V30 10377 H 1006.79 0.770507 -7.75683 0
M  V30 10378 N 1011.02 1.44971 -0.618145 0
M  V30 10379 C 1011.95 2.33357 0.0815955 0
M  V30 10380 C 1012.93 1.47451 0.848072 0
M  V30 10381 O 1014.12 1.762 0.816532 0
M  V30 10382 C 1011.25 3.30324 1.07253 0
M  V30 10383 C 1010.2 4.25948 0.418563 0
M  V30 10384 C 1009.53 5.12685 1.51849 0
M  V30 10385 C 1010.83 5.18024 -0.66697 0
M  V30 10386 H 1012.52 2.92115 -0.656442 0
M  V30 10387 H 1010.07 1.40465 -0.317129 0
M  V30 10388 H 1012.02 3.91033 1.57069 0
M  V30 10389 H 1010.74 2.69748 1.8413 0
M  V30 10390 H 1009.4 3.66553 -0.0588308 0
M  V30 10391 H 1009.05 4.4847 2.2778 0
M  V30 10392 H 1008.75 5.7747 1.08637 0
M  V30 10393 H 1010.27 5.76264 2.01871 0
M  V30 10394 H 1011.69 5.72744 -0.252448 0
M  V30 10395 H 1010.09 5.91343 -1.02146 0
M  V30 10396 H 1011.16 4.59817 -1.53936 0
M  V30 10397 N 1012.5 0.357919 1.53482 0
M  V30 10398 C 1013.45 -0.50845 2.22258 0
M  V30 10399 C 1014.43 -1.05476 1.21506 0
M  V30 10400 O 1015.62 -0.986075 1.46988 0
M  V30 10401 C 1012.75 -1.65157 3.00962 0
M  V30 10402 C 1011.84 -1.11851 4.09084 0
M  V30 10403 N 1012.23 -0.307818 5.04862 0
M  V30 10404 C 1010.53 -1.39405 4.23653 0
M  V30 10405 C 1011.23 -0.016842 5.81698 0
M  V30 10406 N 1010.21 -0.612396 5.40139 0
M  V30 10407 H 1014.01 0.117836 2.93664 0
M  V30 10408 H 1011.52 0.16553 1.61554 0
M  V30 10409 H 1013.52 -2.28435 3.48745 0
M  V30 10410 H 1012.18 -2.281 2.31086 0
M  V30 10411 H 1013.19 0.0523313 5.17874 0
M  V30 10412 H 1009.87 -2.02682 3.65002 0
M  V30 10413 H 1011.26 0.638046 6.68864 0
M  V30 10414 N 1013.98 -1.5736 0.0868897 0
M  V30 10415 C 1014.93 -2.10105 -0.885435 0
M  V30 10416 C 1015.91 -1.01417 -1.24913 0
M  V30 10417 O 1017.1 -1.27704 -1.22558 0
M  V30 10418 C 1014.23 -2.67837 -2.14752 0
M  V30 10419 C 1013.32 -3.83553 -1.80963 0
M  V30 10420 N 1013.71 -4.91917 -1.17693 0
M  V30 10421 C 1012.01 -3.93134 -2.10622 0
M  V30 10422 C 1012.71 -5.72628 -1.02332 0
M  V30 10423 N 1011.68 -5.2139 -1.53796 0
M  V30 10424 H 1015.49 -2.91272 -0.392179 0
M  V30 10425 H 1013 -1.61981 -0.116566 0
M  V30 10426 H 1015 -3.03948 -2.85344 0
M  V30 10427 H 1013.66 -1.88122 -2.64651 0
M  V30 10428 H 1014.67 -5.10964 -0.844731 0
M  V30 10429 H 1011.34 -3.24416 -2.62793 0
M  V30 10430 H 1012.73 -6.69813 -0.529171 0
M  V30 10431 N 1015.45 0.186762 -1.56489 0
M  V30 10432 C 1016.87 0.750675 -1.70944 0
M  V30 10433 C 1017.22 1.83483 -0.694858 0
M  V30 10434 O 1016.34 2.159 0.147009 0
M  V30 10435 C 1016.94 1.36843 -3.09934 0
M  V30 10436 C 1015.5 1.87934 -3.26125 0
M  V30 10437 C 1014.64 0.75242 -2.66897 0
M  V30 10438 H 1017.59 -0.0384292 -1.58653 0
M  V30 10439 H 1017.61 2.23795 -3.07727 0
M  V30 10440 H 1017.13 0.579135 -3.83755 0
M  V30 10441 H 1015.23 2.69556 -2.57235 0
M  V30 10442 H 1015.34 2.0354 -4.33715 0
M  V30 10443 H 1013.7 1.16888 -2.26295 0
M  V30 10444 H 1014.49 -0.0247769 -3.43291 0
M  V30 10445 N 1016.93 1.50896 0.454776 0
M  V30 10446 C 1017.9 1.70377 1.53312 0
M  V30 10447 C 1018.9 0.57408 1.50203 0
M  V30 10448 O 1020.09 0.841374 1.52534 0
M  V30 10449 C 1017.22 1.74411 2.92905 0
M  V30 10450 H 1018.41 2.66599 1.37349 0
M  V30 10451 H 1015.96 1.40622 0.68228 0
M  V30 10452 H 1016.7 0.799408 3.14293 0
M  V30 10453 H 1016.48 2.56496 2.96568 0
M  V30 10454 H 1017.97 1.91382 3.71164 0
M  V30 10455 N 1018.41 -0.709066 1.40748 0
M  V30 10456 C 1019.34 -1.83412 1.37451 0
M  V30 10457 C 1020.36 -1.60394 0.27884 0
M  V30 10458 O 1021.54 -1.70147 0.539642 0
M  V30 10459 C 1018.64 -3.19935 1.1178 0
M  V30 10460 C 1017.82 -3.70095 2.33128 0
M  V30 10461 C 1016.88 -4.85249 2.03518 0
M  V30 10462 O 1015.9 -4.97563 2.76442 0
M  V30 10463 N 1017.1 -5.7152 1.01714 0
M  V30 10464 H 1019.87 -1.86736 2.34414 0
M  V30 10465 H 1017.43 -0.890863 1.35186 0
M  V30 10466 H 1019.42 -3.94578 0.899464 0
M  V30 10467 H 1017.99 -3.11718 0.234624 0
M  V30 10468 H 1017.21 -2.8651 2.70751 0
M  V30 10469 H 1018.5 -4.00344 3.1401 0
M  V30 10470 H 1017.9 -5.64188 0.413307 0
M  V30 10471 H 1016.46 -6.46119 0.858696 0
M  V30 10472 N 1019.89 -1.26353 -0.941956 0
M  V30 10473 C 1021.14 -1.1163 -1.68473 0
M  V30 10474 C 1021.46 0.34108 -1.91994 0
M  V30 10475 O 1020.73 1.24065 -1.51607 0
M  V30 10476 H 1019.31 -0.410113 -0.624353 0
M  V30 10477 H 1021.97 -1.58669 -1.13182 0
M  V30 10478 H 1021.07 -1.63445 -2.6588 0
M  V30 10479 N 1021.37 1.14642 -1.08144 0
M  V30 10480 C 1022.61 1.85617 -0.809484 0
M  V30 10481 C 1022.94 1.8279 0.664672 0
M  V30 10482 O 1022.2 1.25178 1.50429 0
M  V30 10483 C 1022.5 3.33953 -1.2732 0
M  V30 10484 C 1022.16 3.56969 -2.7547 0
M  V30 10485 C 1020.82 3.6296 -3.15933 0
M  V30 10486 C 1023.18 3.66014 -3.71057 0
M  V30 10487 C 1020.5 3.75515 -4.50783 0
M  V30 10488 C 1022.86 3.80094 -5.05679 0
M  V30 10489 C 1021.52 3.84333 -5.45751 0
M  V30 10490 H 1020.79 0.67922 -0.296211 0
M  V30 10491 H 1023.44 1.35433 -1.35389 0
M  V30 10492 H 1021.74 3.86399 -0.648329 0
M  V30 10493 H 1023.44 3.87291 -1.03957 0
M  V30 10494 H 1020.03 3.52953 -2.4315 0
M  V30 10495 H 1024.21 3.60679 -3.40917 0
M  V30 10496 H 1019.47 3.77057 -4.81288 0
M  V30 10497 H 1023.64 3.86035 -5.79612 0
M  V30 10498 H 1021.27 3.93814 -6.50242 0
M  V30 10499 N 1022.85 0.866709 1.31628 0
M  V30 10500 C 1024.26 0.558188 1.49521 0
M  V30 10501 C 1024.46 -0.90844 1.7986 0
M  V30 10502 O 1023.52 -1.6908 1.87531 0
M  V30 10503 C 1024.83 1.45559 2.63122 0
M  V30 10504 C 1026.38 1.45728 2.77006 0
M  V30 10505 C 1026.85 2.34017 3.937 0
M  V30 10506 N 1028.34 2.31879 4.00982 0
M  V30 10507 C 1029.08 2.96915 4.90539 0
M  V30 10508 N 1028.58 3.71109 5.85021 0
M  V30 10509 N 1030.37 2.86241 4.83759 0
M  V30 10510 H 1022.52 1.81574 1.10203 0
M  V30 10511 H 1024.78 0.77621 0.544244 0
M  V30 10512 H 1024.49 2.49904 2.47469 0
M  V30 10513 H 1024.36 1.15174 3.59186 0
M  V30 10514 H 1026.75 0.421419 2.92075 0
M  V30 10515 H 1026.83 1.80134 1.81619 0
M  V30 10516 H 1026.47 3.37678 3.79389 0
M  V30 10517 H 1026.4 1.96937 4.88388 0
M  V30 10518 H 1028.9 1.77948 3.33381 0
M  V30 10519 H 1029.21 4.1787 6.5008 0
M  V30 10520 H 1027.55 3.75217 5.8501 0
M  V30 10521 H 1030.74 2.27819 4.08921 0
M  V30 10522 H 1030.92 3.37206 5.5335 0
M  V30 10523 N 1024.32 -1.44642 0.625825 0
M  V30 10524 C 1025.57 -2.02094 0.128201 0
M  V30 10525 C 1025.9 -1.49181 -1.24801 0
M  V30 10526 O 1025.15 -0.663965 -1.84092 0
M  V30 10527 C 1025.45 -3.57352 0.0584381 0
M  V30 10528 C 1025.12 -4.29496 1.37272 0
M  V30 10529 C 1023.78 -4.48922 1.7327 0
M  V30 10530 C 1026.13 -4.70586 2.2405 0
M  V30 10531 C 1023.46 -5.06697 2.95762 0
M  V30 10532 C 1025.81 -5.29717 3.45807 0
M  V30 10533 C 1024.48 -5.47363 3.82034 0
M  V30 10534 H 1023.75 -0.739514 0.0469122 0
M  V30 10535 H 1026.39 -1.73475 0.811083 0
M  V30 10536 H 1024.7 -3.85354 -0.707791 0
M  V30 10537 H 1026.4 -3.9953 -0.34303 0
M  V30 10538 H 1022.99 -4.14702 1.08258 0
M  V30 10539 H 1027.17 -4.55295 1.97535 0
M  V30 10540 H 1022.43 -5.18546 3.23913 0
M  V30 10541 H 1026.6 -5.60507 4.13286 0
M  V30 10542 H 1024.23 -5.91898 4.77033 0
M  V30 10543 N 1025.8 -0.366053 -1.5329 0
M  V30 10544 C 1027.05 0.223051 -2.00865 0
M  V30 10545 C 1027.37 1.49244 -1.25504 0
M  V30 10546 O 1026.64 1.92404 -0.368444 0
M  V30 10547 H 1025.22 0.085413 -0.742101 0
M  V30 10548 H 1027.88 -0.492396 -1.88578 0
M  V30 10549 H 1026.98 0.449701 -3.08843 0
M  V30 10550 N 1027.28 1.57312 -0.0952337 0
M  V30 10551 C 1028.51 1.98697 0.57682 0
M  V30 10552 C 1028.92 0.974347 1.61716 0
M  V30 10553 O 1028.28 -0.036022 1.82464 0
M  V30 10554 C 1028.33 3.40133 1.2244 0
M  V30 10555 O 1028.05 4.37518 0.225678 0
M  V30 10556 C 1029.55 3.96522 1.98205 0
M  V30 10557 H 1026.77 0.65294 0.154629 0
M  V30 10558 H 1029.32 2.03754 -0.174562 0
M  V30 10559 H 1027.47 3.3609 1.92671 0
M  V30 10560 H 1027.89 5.199 0.693116 0
M  V30 10561 H 1029.36 4.97637 2.38875 0
M  V30 10562 H 1029.84 3.34347 2.84796 0
M  V30 10563 H 1030.44 4.04038 1.3279 0
M  V30 10564 N 1028.76 -0.17846 1.56586 0
M  V30 10565 C 1030 -0.897562 1.81856 0
M  V30 10566 C 1030.34 -1.82204 0.671955 0
M  V30 10567 O 1029.61 -1.91739 -0.326535 0
M  V30 10568 C 1029.89 -1.69942 3.17477 0
M  V30 10569 C 1029.75 -0.798545 4.42655 0
M  V30 10570 C 1031.07 -2.66861 3.49962 0
M  V30 10571 H 1028.19 -0.324863 0.661539 0
M  V30 10572 H 1030.83 -0.164106 1.8929 0
M  V30 10573 H 1028.98 -2.32471 3.11271 0
M  V30 10574 H 1030.65 -0.18668 4.60922 0
M  V30 10575 H 1028.89 -0.106181 4.3367 0
M  V30 10576 H 1029.56 -1.39496 5.34083 0
M  V30 10577 H 1032.04 -2.1446 3.56576 0
M  V30 10578 H 1030.92 -3.20037 4.45946 0
M  V30 10579 H 1031.18 -3.46715 2.74301 0
M  V30 10580 N 1030.24 -1.51135 -0.446768 0
M  V30 10581 C 1031.48 -1.64542 -1.19573 0
M  V30 10582 C 1031.84 -0.352728 -1.89139 0
M  V30 10583 O 1031.13 0.650917 -1.80204 0
M  V30 10584 C 1031.32 -2.78034 -2.2457 0
M  V30 10585 C 1031.15 -4.18214 -1.65308 0
M  V30 10586 C 1029.92 -4.84284 -1.44212 0
M  V30 10587 C 1032.12 -5.01631 -1.13451 0
M  V30 10588 N 1030.1 -6.08606 -0.804486 0
M  V30 10589 C 1031.47 -6.16876 -0.621577 0
M  V30 10590 C 1033.53 -4.87227 -1.02537 0
M  V30 10591 C 1032.23 -7.19299 -0.0102361 0
M  V30 10592 C 1034.26 -5.8985 -0.427936 0
M  V30 10593 C 1033.62 -7.04361 0.0745026 0
M  V30 10594 H 1029.72 -0.656068 -0.425556 0
M  V30 10595 H 1032.3 -1.88334 -0.493802 0
M  V30 10596 H 1030.47 -2.55922 -2.92162 0
M  V30 10597 H 1032.21 -2.8067 -2.91558 0
M  V30 10598 H 1028.96 -4.4199 -1.70123 0
M  V30 10599 H 1029.38 -6.75126 -0.503379 0
M  V30 10600 H 1034.03 -3.98959 -1.39971 0
M  V30 10601 H 1031.74 -8.07224 0.376252 0
M  V30 10602 H 1035.33 -5.80773 -0.34552 0
M  V30 10603 H 1034.21 -7.8241 0.529535 0
M  V30 10604 N 1031.71 0.701592 -1.41122 0
M  V30 10605 C 1032.62 1.84548 -1.44841 0
M  V30 10606 C 1033.64 1.70654 -0.339594 0
M  V30 10607 O 1034.82 1.92675 -0.586378 0
M  V30 10608 C 1031.88 3.20477 -1.3227 0
M  V30 10609 C 1030.94 3.46524 -2.53415 0
M  V30 10610 C 1030.17 4.75968 -2.41434 0
M  V30 10611 O 1030.4 5.52037 -1.43566 0
M  V30 10612 O 1029.33 5.02664 -3.31078 0
M  V30 10613 H 1033.16 1.84367 -2.41335 0
M  V30 10614 H 1030.74 0.853863 -1.22595 0
M  V30 10615 H 1032.62 4.01642 -1.2752 0
M  V30 10616 H 1031.3 3.21355 -0.388889 0
M  V30 10617 H 1030.21 2.65313 -2.63742 0
M  V30 10618 H 1031.54 3.50455 -3.45604 0
M  V30 10619 N 1033.19 1.2685 0.935242 0
M  V30 10620 C 1034.42 1.15645 1.72165 0
M  V30 10621 C 1034.84 -0.283909 1.85945 0
M  V30 10622 O 1034.2 -1.20567 1.354 0
M  V30 10623 C 1034.25 1.83689 3.10307 0
M  V30 10624 O 1033.35 1.12972 3.96625 0
M  V30 10625 H 1032.69 0.402629 0.528002 0
M  V30 10626 H 1035.22 1.67781 1.17093 0
M  V30 10627 H 1035.23 1.90749 3.60664 0
M  V30 10628 H 1033.91 2.88472 2.99595 0
M  V30 10629 H 1032.48 1.13929 3.5507 0
M  V30 10630 N 1034.67 -1.14067 1.0875 0
M  V30 10631 C 1035.9 -1.89582 0.841038 0
M  V30 10632 C 1036.32 -1.78226 -0.601436 0
M  V30 10633 O 1035.68 -1.12491 -1.42181 0
M  V30 10634 C 1035.73 -3.37415 1.27213 0
M  V30 10635 O 1034.83 -4.10191 0.426246 0
M  V30 10636 H 1034.17 -0.589716 0.305173 0
M  V30 10637 H 1036.7 -1.44364 1.44984 0
M  V30 10638 H 1036.71 -3.88234 1.25451 0
M  V30 10639 H 1035.39 -3.44999 2.32268 0
M  V30 10640 H 1033.96 -3.69429 0.507585 0
M  V30 10641 N 1036.15 -0.873678 -1.31166 0
M  V30 10642 C 1037.11 -0.337069 -2.26708 0
M  V30 10643 C 1038.11 0.51406 -1.52362 0
M  V30 10644 O 1039.3 0.322834 -1.71182 0
M  V30 10645 C 1036.43 0.520897 -3.36897 0
M  V30 10646 H 1037.63 -1.18056 -2.75686 0
M  V30 10647 H 1035.18 -0.649577 -1.42163 0
M  V30 10648 H 1035.91 1.38543 -2.93217 0
M  V30 10649 H 1035.7 -0.0886015 -3.92 0
M  V30 10650 H 1037.19 0.888497 -4.08039 0
M  V30 10651 N 1037.63 1.44308 -0.633487 0
M  V30 10652 C 1038.54 2.34492 0.0711787 0
M  V30 10653 C 1039.55 1.52754 0.8332 0
M  V30 10654 O 1040.73 1.85475 0.784929 0
M  V30 10655 C 1037.79 3.30767 1.03895 0
M  V30 10656 C 1036.85 4.28412 0.276043 0
M  V30 10657 C 1036.09 5.20087 1.19772 0
M  V30 10658 O 1036.31 5.15743 2.4365 0
M  V30 10659 O 1035.24 5.98038 0.680764 0
M  V30 10660 H 1039.07 2.96203 -0.67063 0
M  V30 10661 H 1036.66 1.4412 -0.393678 0
M  V30 10662 H 1038.54 3.90021 1.59566 0
M  V30 10663 H 1037.21 2.71586 1.76133 0
M  V30 10664 H 1036.12 3.72696 -0.32377 0
M  V30 10665 H 1037.45 4.9052 -0.406364 0
M  V30 10666 N 1039.1 0.374177 1.53094 0
M  V30 10667 C 1040.07 -0.455999 2.24618 0
M  V30 10668 C 1041.07 -1.00269 1.25709 0
M  V30 10669 O 1042.26 -0.887077 1.49922 0
M  V30 10670 C 1039.39 -1.63822 2.98957 0
M  V30 10671 H 1040.58 0.169986 2.99418 0
M  V30 10672 H 1038.14 0.126015 1.55791 0
M  V30 10673 H 1038.87 -2.30205 2.28421 0
M  V30 10674 H 1038.66 -1.25308 3.71538 0
M  V30 10675 H 1040.15 -2.22633 3.53305 0
M  V30 10676 N 1040.58 -1.57259 0.103575 0
M  V30 10677 C 1041.81 -1.98711 -0.565454 0
M  V30 10678 C 1042.22 -0.981759 -1.61735 0
M  V30 10679 O 1041.56 0.0357019 -1.83665 0
M  V30 10680 C 1041.63 -3.36552 -1.26384 0
M  V30 10681 C 1041.29 -4.55566 -0.361714 0
M  V30 10682 C 1042.29 -5.18408 0.393539 0
M  V30 10683 C 1039.97 -5.01534 -0.277292 0
M  V30 10684 C 1041.97 -6.25594 1.2211 0
M  V30 10685 C 1039.65 -6.08584 0.553919 0
M  V30 10686 C 1040.65 -6.7048 1.30176 0
M  V30 10687 O 1040.34 -7.75464 2.1192 0
M  V30 10688 H 1040.07 -0.657853 -0.155582 0
M  V30 10689 H 1042.62 -2.04591 0.182089 0
M  V30 10690 H 1040.85 -3.2738 -2.05813 0
M  V30 10691 H 1042.54 -3.62395 -1.82824 0
M  V30 10692 H 1043.31 -4.8382 0.338098 0
M  V30 10693 H 1039.19 -4.53114 -0.849047 0
M  V30 10694 H 1042.73 -6.73836 1.80531 0
M  V30 10695 H 1038.63 -6.42604 0.610809 0
M  V30 10696 H 1039.4 -7.92491 2.04694 0
M  V30 10697 N 1042.06 0.170153 -1.56679 0
M  V30 10698 C 1043.31 0.884902 -1.81252 0
M  V30 10699 C 1043.62 1.83361 -0.681024 0
M  V30 10700 O 1044.83 2.59082 -0.811722 0
M  V30 10701 C 1043.28 1.62408 -3.21172 0
M  V30 10702 C 1042.89 0.718947 -4.42194 0
M  V30 10703 C 1044.64 2.32699 -3.55037 0
M  V30 10704 C 1042.54 1.45843 -5.73135 0
M  V30 10705 H 1041.47 0.33418 -0.675899 0
M  V30 10706 H 1044.12 0.137818 -1.82982 0
M  V30 10707 H 1042.51 2.41596 -3.13763 0
M  V30 10708 H 1043.68 -0.0360521 -4.60786 0
M  V30 10709 H 1042 0.125634 -4.1621 0
M  V30 10710 H 1044.59 2.88621 -4.50114 0
M  V30 10711 H 1044.94 3.08092 -2.79974 0
M  V30 10712 H 1045.47 1.60453 -3.64005 0
M  V30 10713 H 1042.21 0.746799 -6.51232 0
M  V30 10714 H 1041.73 2.18672 -5.58518 0
M  V30 10715 H 1043.41 2.0056 -6.1513 0
M  V30 10716 N 1043.54 1.5137 0.438746 0
M  V30 10717 C 1044.49 1.72582 1.53245 0
M  V30 10718 C 1045.46 0.567488 1.56105 0
M  V30 10719 O 1046.64 0.80176 1.73137 0
M  V30 10720 C 1043.78 1.85551 2.90972 0
M  V30 10721 C 1042.89 3.13094 2.97652 0
M  V30 10722 C 1042.03 3.16666 4.26493 0
M  V30 10723 C 1041.07 4.38529 4.27035 0
M  V30 10724 N 1040.2 4.39659 5.47398 0
M  V30 10725 H 1045.04 2.65941 1.3446 0
M  V30 10726 H 1042.58 1.31801 0.653206 0
M  V30 10727 H 1044.54 1.91053 3.70884 0
M  V30 10728 H 1043.17 0.956025 3.08318 0
M  V30 10729 H 1042.22 3.16909 2.10412 0
M  V30 10730 H 1043.53 4.03009 2.93914 0
M  V30 10731 H 1042.69 3.21075 5.14777 0
M  V30 10732 H 1041.43 2.24637 4.32885 0
M  V30 10733 H 1040.43 4.34297 3.37144 0
M  V30 10734 H 1041.66 5.31821 4.22307 0
M  V30 10735 H 1039.6 3.50499 5.54514 0
M  V30 10736 H 1039.52 5.23382 5.45534 0
M  V30 10737 H 1040.79 4.48259 6.37718 0
M  V30 10738 N 1045.02 -0.694098 1.41492 0
M  V30 10739 C 1045.96 -1.80801 1.43456 0
M  V30 10740 C 1046.93 -1.63571 0.288757 0
M  V30 10741 O 1048.12 -1.844 0.490017 0
M  V30 10742 C 1045.26 -3.18694 1.32394 0
M  V30 10743 C 1044.37 -3.47346 2.56855 0
M  V30 10744 C 1043.51 -4.74862 2.38075 0
M  V30 10745 C 1042.55 -4.96486 3.58005 0
M  V30 10746 N 1041.68 -6.15229 3.38287 0
M  V30 10747 H 1046.52 -1.78457 2.38657 0
M  V30 10748 H 1044.06 -0.871455 1.18508 0
M  V30 10749 H 1046.02 -3.98352 1.23982 0
M  V30 10750 H 1044.65 -3.20211 0.407999 0
M  V30 10751 H 1043.7 -2.62083 2.75711 0
M  V30 10752 H 1045.01 -3.59226 3.4606 0
M  V30 10753 H 1044.17 -5.62577 2.27139 0
M  V30 10754 H 1042.9 -4.6523 1.46329 0
M  V30 10755 H 1041.91 -4.07219 3.69395 0
M  V30 10756 H 1043.13 -5.07976 4.50708 0
M  V30 10757 H 1041.08 -6.06807 2.49242 0
M  V30 10758 H 1041 -6.27883 4.21069 0
M  V30 10759 H 1042.27 -7.05674 3.31126 0
M  V30 10760 N 1046.49 -1.27344 -0.928501 0
M  V30 10761 C 1047.72 -1.16557 -1.7155 0
M  V30 10762 C 1048.14 0.274044 -1.86093 0
M  V30 10763 O 1047.5 1.19847 -1.36038 0
M  V30 10764 C 1047.55 -1.85332 -3.09329 0
M  V30 10765 O 1046.65 -1.15074 -3.9602 0
M  V30 10766 H 1046 -0.405423 -0.525859 0
M  V30 10767 H 1048.53 -1.68399 -1.16202 0
M  V30 10768 H 1048.54 -1.92659 -3.59648 0
M  V30 10769 H 1047.21 -2.90056 -2.98061 0
M  V30 10770 H 1045.79 -1.1581 -3.54461 0
M  V30 10771 N 1047.97 1.13488 -1.09353 0
M  V30 10772 C 1049.22 1.84748 -0.829126 0
M  V30 10773 C 1049.55 1.83485 0.645247 0
M  V30 10774 O 1048.8 1.26767 1.49093 0
M  V30 10775 C 1049.1 3.32584 -1.30854 0
M  V30 10776 C 1048.77 3.54028 -2.7924 0
M  V30 10777 C 1047.43 3.59588 -3.19765 0
M  V30 10778 C 1049.78 3.62058 -3.74918 0
M  V30 10779 C 1047.11 3.70712 -4.54741 0
M  V30 10780 C 1049.46 3.7471 -5.09682 0
M  V30 10781 C 1048.13 3.78523 -5.49797 0
M  V30 10782 H 1047.4 0.67604 -0.303399 0
M  V30 10783 H 1050.04 1.33989 -1.36818 0
M  V30 10784 H 1048.35 3.85689 -0.689275 0
M  V30 10785 H 1050.04 3.86166 -1.08059 0
M  V30 10786 H 1046.63 3.50354 -2.4688 0
M  V30 10787 H 1050.82 3.57043 -3.44723 0
M  V30 10788 H 1046.07 3.71931 -4.8526 0
M  V30 10789 H 1050.25 3.79866 -5.83674 0
M  V30 10790 H 1047.88 3.86895 -6.54382 0
M  V30 10791 N 1049.45 0.880621 1.30701 0
M  V30 10792 C 1050.86 0.547993 1.78477 0
M  V30 10793 C 1051.21 -0.935633 1.72454 0
M  V30 10794 O 1050.34 -1.73094 1.29874 0
M  V30 10795 C 1050.93 0.98795 3.24076 0
M  V30 10796 C 1049.49 0.706805 3.69704 0
M  V30 10797 C 1048.64 1.17335 2.51252 0
M  V30 10798 H 1051.59 1.06528 1.17633 0
M  V30 10799 H 1051.61 0.31508 3.79193 0
M  V30 10800 H 1051.12 2.06778 3.28427 0
M  V30 10801 H 1049.22 -0.36122 3.70845 0
M  V30 10802 H 1049.34 1.2913 4.6137 0
M  V30 10803 H 1047.7 0.592808 2.47705 0
M  V30 10804 H 1048.48 2.26083 2.58343 0
M  V30 10805 N 1050.93 -1.4397 0.641131 0
M  V30 10806 C 1052.21 -1.95436 0.0800918 0
M  V30 10807 C 1052.59 -1.58282 -1.39678 0
M  V30 10808 O 1051.93 -0.861867 -2.11623 0
M  V30 10809 C 1052.14 -3.47589 0.313531 0
M  V30 10810 C 1053.49 -4.2407 0.212034 0
M  V30 10811 O 1054.52 -3.55353 0.245434 0
M  V30 10812 O 1053.38 -5.46356 0.125455 0
M  V30 10813 H 1050.47 -0.826834 -0.0165735 0
M  V30 10814 H 1053.02 -1.5397 0.71353 0
M  V30 10815 H 1051.79 -3.67716 1.33793 0
M  V30 10816 H 1051.41 -3.96025 -0.353563 0
M  V30 10817 N 1052.41 -0.382291 -1.52893 0
M  V30 10818 C 1053.34 0.500194 -2.22651 0
M  V30 10819 C 1054.32 1.06969 -1.22459 0
M  V30 10820 O 1055.5 1.12267 -1.51422 0
M  V30 10821 C 1052.63 1.6917 -2.93427 0
M  V30 10822 C 1051.68 1.24811 -4.07829 0
M  V30 10823 S 1052.51 0.235466 -5.34982 0
M  V30 10824 C 1053.66 1.43292 -6.09277 0
M  V30 10825 H 1053.9 -0.0921913 -2.97157 0
M  V30 10826 H 1051.43 -0.16645 -1.535 0
M  V30 10827 H 1053.39 2.37507 -3.34815 0
M  V30 10828 H 1052.05 2.25537 -2.18613 0
M  V30 10829 H 1051.24 2.13754 -4.56426 0
M  V30 10830 H 1050.84 0.643744 -3.68418 0
M  V30 10831 H 1053.14 2.36118 -6.35023 0
M  V30 10832 H 1054.08 0.988003 -7.01173 0
M  V30 10833 H 1054.49 1.64655 -5.39953 0
M  V30 10834 N 1053.89 1.57202 -0.111913 0
M  V30 10835 C 1054.84 2.11487 0.851897 0
M  V30 10836 C 1055.82 1.03392 1.23284 0
M  V30 10837 O 1057.01 1.29638 1.20511 0
M  V30 10838 C 1054.14 2.71219 2.10464 0
M  V30 10839 C 1053.23 3.86384 1.74838 0
M  V30 10840 N 1053.62 4.93727 1.09852 0
M  V30 10841 C 1051.92 3.96435 2.04341 0
M  V30 10842 C 1052.62 5.74184 0.93209 0
M  V30 10843 N 1051.59 5.23771 1.45482 0
M  V30 10844 H 1055.39 2.91859 0.345791 0
M  V30 10845 H 1052.91 1.62146 0.0907816 0
M  V30 10846 H 1054.91 3.08449 2.80472 0
M  V30 10847 H 1053.57 1.92308 2.61625 0
M  V30 10848 H 1054.58 5.12244 0.763334 0
M  V30 10849 H 1051.25 3.28556 2.57599 0
M  V30 10850 H 1052.64 6.7057 0.422542 0
M  V30 10851 N 1055.36 -0.161842 1.56767 0
M  V30 10852 C 1056.33 -1.18404 1.96247 0
M  V30 10853 C 1057.33 -1.3667 0.84722 0
M  V30 10854 O 1058.52 -1.33915 1.11411 0
M  V30 10855 C 1055.65 -2.54728 2.26553 0
M  V30 10856 H 1056.84 -0.845703 2.87729 0
M  V30 10857 H 1054.39 -0.404645 1.50971 0
M  V30 10858 H 1055.13 -2.93559 1.37816 0
M  V30 10859 H 1054.91 -2.42834 3.07854 0
M  V30 10860 H 1056.4 -3.28378 2.57987 0
M  V30 10861 N 1056.84 -1.516 -0.430713 0
M  V30 10862 C 1057.79 -1.69776 -1.52185 0
M  V30 10863 C 1058.78 -0.551692 -1.51146 0
M  V30 10864 O 1059.97 -0.807883 -1.57487 0
M  V30 10865 C 1057.1 -1.83222 -2.90318 0
M  V30 10866 C 1056.18 -3.03633 -2.96087 0
M  V30 10867 N 1056.57 -4.267 -2.71589 0
M  V30 10868 C 1054.87 -3.03024 -3.2725 0
M  V30 10869 C 1055.57 -5.08011 -2.83372 0
M  V30 10870 N 1054.55 -4.42798 -3.15327 0
M  V30 10871 H 1058.35 -2.62586 -1.32006 0
M  V30 10872 H 1055.86 -1.49338 -0.63812 0
M  V30 10873 H 1057.86 -1.94355 -3.68825 0
M  V30 10874 H 1056.52 -0.915971 -3.11513 0
M  V30 10875 H 1057.53 -4.55535 -2.46391 0
M  V30 10876 H 1054.21 -2.21055 -3.54176 0
M  V30 10877 H 1055.6 -6.15995 -2.68329 0
M  V30 10878 N 1058.32 0.686584 -1.41858 0
M  V30 10879 C 1059.25 1.81107 -1.38836 0
M  V30 10880 C 1060.23 1.60599 -0.254293 0
M  V30 10881 O 1061.41 1.83229 -0.442641 0
M  V30 10882 C 1058.54 3.17928 -1.16787 0
M  V30 10883 C 1057.59 3.5721 -2.33031 0
M  V30 10884 S 1058.42 3.60986 -3.95536 0
M  V30 10885 C 1059.58 5.00519 -3.75808 0
M  V30 10886 H 1059.81 1.83396 -2.33994 0
M  V30 10887 H 1057.34 0.856146 -1.28489 0
M  V30 10888 H 1059.3 3.9691 -1.04752 0
M  V30 10889 H 1057.96 3.1324 -0.232335 0
M  V30 10890 H 1057.15 4.56629 -2.13321 0
M  V30 10891 H 1056.76 2.8556 -2.41519 0
M  V30 10892 H 1059.05 5.88272 -3.36069 0
M  V30 10893 H 1059.99 5.25273 -4.74862 0
M  V30 10894 H 1060.4 4.72481 -3.08904 0
M  V30 10895 N 1059.8 1.27835 0.921735 0
M  V30 10896 C 1061.21 1.05369 1.19873 0
M  V30 10897 C 1061.41 -0.208997 2.00413 0
M  V30 10898 O 1060.47 -0.912861 2.35421 0
M  V30 10899 C 1061.78 2.29658 1.94108 0
M  V30 10900 C 1063.33 2.34756 2.07023 0
M  V30 10901 C 1063.81 3.5879 2.84664 0
M  V30 10902 N 1065.3 3.59383 2.9223 0
M  V30 10903 C 1066.03 4.52029 3.52785 0
M  V30 10904 N 1065.53 5.54986 4.14683 0
M  V30 10905 N 1067.32 4.39641 3.50246 0
M  V30 10906 H 1059.47 2.08903 0.383819 0
M  V30 10907 H 1061.73 0.919065 0.232429 0
M  V30 10908 H 1061.44 3.21604 1.4235 0
M  V30 10909 H 1061.31 2.35444 2.94696 0
M  V30 10910 H 1063.7 1.43312 2.57965 0
M  V30 10911 H 1063.78 2.32969 1.05636 0
M  V30 10912 H 1063.43 4.50574 2.34404 0
M  V30 10913 H 1063.36 3.57829 3.86349 0
M  V30 10914 H 1065.85 2.84927 2.48244 0
M  V30 10915 H 1066.16 6.21837 4.58845 0
M  V30 10916 H 1064.51 5.58822 4.13211 0
M  V30 10917 H 1067.7 3.58413 3.01094 0
M  V30 10918 H 1067.87 5.12033 3.97148 0
M  V30 10919 N 1061.28 -1.12907 1.09954 0
M  V30 10920 C 1062.69 -1.363 0.830326 0
M  V30 10921 C 1062.89 -1.93772 -0.552694 0
M  V30 10922 O 1061.95 -2.1607 -1.30652 0
M  V30 10923 C 1063.26 -2.30925 1.92598 0
M  V30 10924 C 1064.81 -2.44528 1.95385 0
M  V30 10925 C 1065.28 -3.42464 3.0411 0
M  V30 10926 N 1066.77 -3.50018 3.03384 0
M  V30 10927 C 1067.51 -4.25693 3.84152 0
M  V30 10928 N 1067.01 -5.04476 4.74843 0
M  V30 10929 N 1068.8 -4.21049 3.7239 0
M  V30 10930 H 1060.95 -0.739571 1.99108 0
M  V30 10931 H 1063.21 -0.387983 0.86497 0
M  V30 10932 H 1062.92 -1.95861 2.92115 0
M  V30 10933 H 1062.79 -3.30997 1.80889 0
M  V30 10934 H 1065.18 -2.78875 0.965037 0
M  V30 10935 H 1065.26 -1.44361 2.11172 0
M  V30 10936 H 1064.9 -3.08847 4.03207 0
M  V30 10937 H 1064.83 -4.42448 2.85565 0
M  V30 10938 H 1067.33 -2.93809 2.37665 0
M  V30 10939 H 1067.64 -5.59541 5.33042 0
M  V30 10940 H 1065.98 -5.0369 4.78875 0
M  V30 10941 H 1069.17 -3.5858 3.00895 0
M  V30 10942 H 1069.35 -4.79771 4.35572 0
M  V30 10943 N 1062.75 -0.88754 -1.30232 0
M  V30 10944 C 1063.7 -0.327649 -2.25633 0
M  V30 10945 C 1064.69 0.545362 -1.51376 0
M  V30 10946 O 1065.88 0.389366 -1.72664 0
M  V30 10947 C 1063.01 0.454546 -3.40277 0
M  V30 10948 C 1062.09 -0.432698 -4.21887 0
M  V30 10949 N 1062.49 -1.53434 -4.81966 0
M  V30 10950 C 1060.78 -0.228275 -4.45415 0
M  V30 10951 C 1061.48 -2.08292 -5.43129 0
M  V30 10952 N 1060.46 -1.37754 -5.25856 0
M  V30 10953 H 1064.26 -1.16937 -2.69635 0
M  V30 10954 H 1061.78 -0.737232 -1.44702 0
M  V30 10955 H 1063.77 0.87231 -4.07672 0
M  V30 10956 H 1062.43 1.29367 -2.97816 0
M  V30 10957 H 1063.44 -1.91717 -4.81108 0
M  V30 10958 H 1060.12 0.573475 -4.13543 0
M  V30 10959 H 1061.51 -3.00818 -6.00798 0
M  V30 10960 N 1064.23 1.43628 -0.648757 0
M  V30 10961 C 1065.46 2.06732 -0.166284 0
M  V30 10962 C 1065.88 1.48281 1.15734 0
M  V30 10963 O 1065.24 0.591018 1.71396 0
M  V30 10964 C 1065.29 3.60502 -0.0838732 0
M  V30 10965 O 1064.39 4.01186 0.955185 0
M  V30 10966 H 1063.73 0.657479 -0.0928285 0
M  V30 10967 H 1066.26 1.84208 -0.890421 0
M  V30 10968 H 1066.27 4.07875 0.100923 0
M  V30 10969 H 1064.95 4.02424 -1.05014 0
M  V30 10970 H 1063.53 3.65412 0.743537 0
M  V30 10971 N 1065.71 0.390394 1.52688 0
M  V30 10972 C 1066.67 -0.432149 2.25089 0
M  V30 10973 C 1067.67 -0.989296 1.26766 0
M  V30 10974 O 1068.86 -0.871126 1.50854 0
M  V30 10975 C 1066 -1.60642 3.00678 0
M  V30 10976 H 1067.19 0.201734 2.99221 0
M  V30 10977 H 1064.74 0.142531 1.55649 0
M  V30 10978 H 1065.48 -2.2777 2.3085 0
M  V30 10979 H 1065.26 -1.21361 3.72846 0
M  V30 10980 H 1066.75 -2.18873 3.55647 0
M  V30 10981 N 1067.19 -1.57141 0.120249 0
M  V30 10982 C 1068.6 -1.82256 -0.404931 0
M  V30 10983 C 1068.95 -1.03748 -1.66526 0
M  V30 10984 O 1068.08 -0.274456 -2.14653 0
M  V30 10985 C 1068.67 -3.30588 -0.741431 0
M  V30 10986 C 1067.23 -3.56379 -1.21124 0
M  V30 10987 C 1066.38 -2.76421 -0.220569 0
M  V30 10988 H 1069.33 -1.54897 0.345361 0
M  V30 10989 H 1069.35 -3.45284 -1.59872 0
M  V30 10990 H 1068.86 -3.87701 0.176036 0
M  V30 10991 H 1066.96 -3.04625 -2.14556 0
M  V30 10992 H 1067.07 -4.64952 -1.1557 0
M  V30 10993 H 1065.44 -2.44666 -0.707857 0
M  V30 10994 H 1066.22 -3.36294 0.690018 0
M  V30 10995 N 1068.67 0.153526 -1.5685 0
M  V30 10996 C 1069.89 0.882335 -1.87143 0
M  V30 10997 C 1070.31 1.75034 -0.707702 0
M  V30 10998 O 1069.67 1.79624 0.32273 0
M  V30 10999 C 1069.72 1.74444 -3.16625 0
M  V30 11000 O 1069.44 0.911419 -4.28515 0
M  V30 11001 C 1070.94 2.58139 -3.60388 0
M  V30 11002 H 1068.16 0.25546 -0.620469 0
M  V30 11003 H 1070.7 0.148275 -2.03962 0
M  V30 11004 H 1068.86 2.43163 -3.0158 0
M  V30 11005 H 1069.27 1.50268 -5.02513 0
M  V30 11006 H 1070.75 3.14215 -4.53842 0
M  V30 11007 H 1071.22 3.33865 -2.85361 0
M  V30 11008 H 1071.83 1.94721 -3.78105 0
M  V30 11009 N 1070.14 1.51827 0.422667 0
M  V30 11010 C 1071.37 1.69049 1.1929 0
M  V30 11011 C 1071.79 0.394095 1.84641 0
M  V30 11012 O 1071.14 -0.628731 1.71328 0
M  V30 11013 C 1071.2 2.81657 2.26609 0
M  V30 11014 O 1070.92 4.06275 1.63929 0
M  V30 11015 C 1072.42 3.10274 3.16615 0
M  V30 11016 H 1069.64 0.566894 0.358988 0
M  V30 11017 H 1072.18 1.98318 0.499029 0
M  V30 11018 H 1070.34 2.54945 2.91688 0
M  V30 11019 H 1070.75 4.68924 2.3497 0
M  V30 11020 H 1072.22 3.92613 3.88019 0
M  V30 11021 H 1072.7 2.23273 3.78214 0
M  V30 11022 H 1073.31 3.387 2.57221 0
M  V30 11023 N 1071.62 -0.679052 1.4222 0
M  V30 11024 C 1073.03 -1.25953 1.37815 0
M  V30 11025 C 1073.38 -1.96077 0.0693215 0
M  V30 11026 O 1072.51 -1.99765 -0.832047 0
M  V30 11027 C 1073.1 -2.29063 2.49631 0
M  V30 11028 C 1071.66 -2.82647 2.48571 0
M  V30 11029 C 1070.81 -1.56909 2.28637 0
M  V30 11030 H 1073.76 -0.472714 1.51496 0
M  V30 11031 H 1073.78 -3.10708 2.19638 0
M  V30 11032 H 1073.29 -1.77996 3.44876 0
M  V30 11033 H 1071.4 -3.37846 1.57132 0
M  V30 11034 H 1071.51 -3.31952 3.45463 0
M  V30 11035 H 1069.87 -1.83323 1.76819 0
M  V30 11036 H 1070.66 -1.07814 3.25931 0
M  V30 11037 N 1073.1 -1.28322 -0.914942 0
M  V30 11038 C 1074.52 -1.06003 -1.19313 0
M  V30 11039 C 1074.72 0.198366 -2.00521 0
M  V30 11040 O 1073.77 0.900364 -2.35902 0
M  V30 11041 C 1075.09 -2.30684 -1.92887 0
M  V30 11042 C 1076.63 -2.35851 -2.05775 0
M  V30 11043 C 1077.11 -3.60295 -2.82757 0
M  V30 11044 N 1078.6 -3.60928 -2.9032 0
M  V30 11045 C 1079.33 -4.53894 -3.50383 0
M  V30 11046 N 1078.83 -5.57178 -4.11734 0
M  V30 11047 N 1080.62 -4.41492 -3.4791 0
M  V30 11048 H 1072.77 -2.09104 -0.372735 0
M  V30 11049 H 1075.04 -0.920285 -0.227552 0
M  V30 11050 H 1074.74 -3.22355 -1.40643 0
M  V30 11051 H 1074.62 -2.37003 -2.93444 0
M  V30 11052 H 1077 -1.44678 -2.57201 0
M  V30 11053 H 1077.09 -2.33526 -1.04399 0
M  V30 11054 H 1076.73 -4.51811 -2.32011 0
M  V30 11055 H 1076.66 -3.59873 -3.84446 0
M  V30 11056 H 1079.15 -2.8624 -2.46729 0
M  V30 11057 H 1079.46 -6.24261 -4.55541 0
M  V30 11058 H 1077.81 -5.61005 -4.10242 0
M  V30 11059 H 1081 -3.60005 -2.99189 0
M  V30 11060 H 1081.17 -5.14132 -3.94427 0
M  V30 11061 N 1074.58 1.12322 -1.10551 0
M  V30 11062 C 1075.83 1.83495 -0.846998 0
M  V30 11063 C 1076.15 1.8457 0.629205 0
M  V30 11064 O 1075.42 1.30968 1.45686 0
M  V30 11065 H 1074 0.679479 -0.310351 0
M  V30 11066 H 1076.66 1.36004 -1.39602 0
M  V30 11067 H 1075.76 2.87651 -1.21092 0
M  V30 11068 N 1076.06 0.894434 1.2976 0
M  V30 11069 C 1077.3 0.518435 1.96061 0
M  V30 11070 C 1077.64 -0.931882 1.70381 0
M  V30 11071 O 1076.91 -1.65988 1.01381 0
M  V30 11072 C 1077.19 0.80519 3.50982 0
M  V30 11073 C 1077.05 2.30683 3.86142 0
M  V30 11074 C 1078.37 0.288096 4.39156 0
M  V30 11075 H 1075.48 0.18983 0.712133 0
M  V30 11076 H 1078.13 1.12016 1.53468 0
M  V30 11077 H 1076.28 0.293071 3.87393 0
M  V30 11078 H 1077.95 2.88808 3.59705 0
M  V30 11079 H 1076.19 2.76968 3.33873 0
M  V30 11080 H 1076.86 2.45805 4.94251 0
M  V30 11081 H 1079.34 0.726547 4.09708 0
M  V30 11082 H 1078.21 0.517985 5.4645 0
M  V30 11083 H 1078.48 -0.811018 4.34597 0
M  V30 11084 N 1077.53 -1.43282 0.656365 0
M  V30 11085 C 1078.5 -2.29188 -0.0239173 0
M  V30 11086 C 1079.5 -1.42373 -0.747436 0
M  V30 11087 O 1080.69 -1.63969 -0.588213 0
M  V30 11088 C 1077.82 -3.24501 -1.0446 0
M  V30 11089 H 1079.01 -2.9083 0.731978 0
M  V30 11090 H 1076.57 -1.50614 0.417752 0
M  V30 11091 H 1077.3 -2.6776 -1.82962 0
M  V30 11092 H 1077.09 -3.88509 -0.52942 0
M  V30 11093 H 1078.58 -3.88971 -1.51958 0
M  V30 11094 N 1079.01 -0.398486 -1.52479 0
M  V30 11095 C 1079.95 0.476551 -2.23169 0
M  V30 11096 C 1080.92 1.05665 -1.23587 0
M  V30 11097 O 1082.11 1.10654 -1.52604 0
M  V30 11098 C 1079.24 1.66048 -2.95204 0
M  V30 11099 C 1078.28 1.20478 -4.0913 0
M  V30 11100 S 1079.11 0.178711 -5.35202 0
M  V30 11101 C 1080.27 1.36821 -6.10762 0
M  V30 11102 H 1080.5 -0.123704 -2.97043 0
M  V30 11103 H 1078.04 -0.182722 -1.53315 0
M  V30 11104 H 1079.99 2.33942 -3.37315 0
M  V30 11105 H 1078.66 2.23206 -2.20993 0
M  V30 11106 H 1077.85 2.08901 -4.58668 0
M  V30 11107 H 1077.45 0.604632 -3.6908 0
M  V30 11108 H 1079.74 2.2937 -6.37492 0
M  V30 11109 H 1080.69 0.913579 -7.02182 0
M  V30 11110 H 1081.09 1.58919 -5.41669 0
M  V30 11111 N 1080.49 1.57075 -0.12858 0
M  V30 11112 C 1081.42 2.18833 0.814519 0
M  V30 11113 C 1082.4 1.13114 1.2704 0
M  V30 11114 O 1083.59 1.41387 1.33129 0
M  V30 11115 C 1080.72 2.79535 2.06101 0
M  V30 11116 C 1079.67 3.9092 1.74257 0
M  V30 11117 C 1079 4.38473 3.06015 0
M  V30 11118 C 1080.3 5.1257 1.00345 0
M  V30 11119 H 1081.99 2.97895 0.299862 0
M  V30 11120 H 1079.54 1.4329 0.14279 0
M  V30 11121 H 1081.49 3.21401 2.72543 0
M  V30 11122 H 1080.21 1.97777 2.59907 0
M  V30 11123 H 1078.87 3.49645 1.102 0
M  V30 11124 H 1078.52 3.53561 3.57776 0
M  V30 11125 H 1078.22 5.13591 2.85479 0
M  V30 11126 H 1079.75 4.82997 3.7356 0
M  V30 11127 H 1081.16 5.51395 1.56959 0
M  V30 11128 H 1079.56 5.93333 0.898693 0
M  V30 11129 H 1080.63 4.84899 -0.0081335 0
M  V30 11130 N 1081.97 -0.145205 1.5693 0
M  V30 11131 C 1083.2 -0.872398 1.87608 0
M  V30 11132 C 1083.61 -1.74657 0.716975 0
M  V30 11133 O 1082.97 -1.79792 -0.3132 0
M  V30 11134 C 1083.02 -1.72762 3.17546 0
M  V30 11135 O 1082.74 -0.888681 4.28992 0
M  V30 11136 C 1084.24 -2.56224 3.61751 0
M  V30 11137 H 1081.46 -0.252166 0.621815 0
M  V30 11138 H 1084.01 -0.137456 2.04038 0
M  V30 11139 H 1082.16 -2.41561 3.02865 0
M  V30 11140 H 1082.58 -1.47601 5.03303 0
M  V30 11141 H 1084.05 -3.11804 4.55502 0
M  V30 11142 H 1084.53 -3.32347 2.87127 0
M  V30 11143 H 1085.13 -1.92714 3.79133 0
M  V30 11144 N 1083.45 -1.52049 -0.414609 0
M  V30 11145 C 1084.67 -1.6997 -1.18848 0
M  V30 11146 C 1085.1 -0.406058 -1.83665 0
M  V30 11147 O 1084.46 0.635981 -1.69779 0
M  V30 11148 C 1084.5 -2.8327 -2.23138 0
M  V30 11149 O 1083.61 -2.48457 -3.29155 0
M  V30 11150 H 1082.95 -0.566003 -0.347183 0
M  V30 11151 H 1085.48 -1.98726 -0.486757 0
M  V30 11152 H 1085.49 -3.08022 -2.67557 0
M  V30 11153 H 1084.16 -3.7713 -1.75344 0
M  V30 11154 H 1082.74 -2.34357 -2.90054 0
M  V30 11155 N 1084.93 0.6715 -1.42579 0
M  V30 11156 C 1086.2 1.42766 -1.33706 0
M  V30 11157 C 1086.58 2.11086 0.0239748 0
M  V30 11158 O 1085.93 2.03479 1.03964 0
M  V30 11159 C 1086.14 2.42739 -2.50756 0
M  V30 11160 C 1087.49 3.07284 -2.93021 0
M  V30 11161 O 1088.51 2.53066 -2.50671 0
M  V30 11162 O 1087.37 4.05541 -3.66331 0
M  V30 11163 H 1084.47 0.636955 -0.527463 0
M  V30 11164 H 1087.01 0.699946 -1.54593 0
M  V30 11165 H 1085.78 1.91076 -3.41476 0
M  V30 11166 H 1085.41 3.22986 -2.31874 0
M  V30 11167 N 1086.4 1.28806 0.908124 0
M  V30 11168 C 1087.81 1.14719 1.47297 0
M  V30 11169 C 1088.17 -0.260763 1.94459 0
M  V30 11170 O 1087.29 -1.15553 1.82966 0
M  V30 11171 C 1087.89 2.07643 2.67712 0
M  V30 11172 C 1086.44 1.97605 3.20358 0
M  V30 11173 C 1085.59 1.99058 1.93058 0
M  V30 11174 H 1088.54 1.41413 0.720283 0
M  V30 11175 H 1088.56 1.64372 3.43165 0
M  V30 11176 H 1088.08 3.10108 2.33355 0
M  V30 11177 H 1086.18 0.981982 3.59427 0
M  V30 11178 H 1086.29 2.84846 3.85226 0
M  V30 11179 H 1084.65 1.43541 2.104 0
M  V30 11180 H 1085.44 3.03212 1.60989 0
M  V30 11181 N 1087.88 -1.11734 1.11145 0
M  V30 11182 C 1089.29 -1.64928 0.874959 0
M  V30 11183 C 1089.64 -1.87012 -0.593375 0
M  V30 11184 O 1088.77 -1.60206 -1.45475 0
M  V30 11185 C 1089.36 -2.99608 1.58178 0
M  V30 11186 C 1087.92 -3.49723 1.39179 0
M  V30 11187 C 1087.07 -2.24595 1.62642 0
M  V30 11188 H 1090.02 -0.954154 1.26813 0
M  V30 11189 H 1090.04 -3.66434 1.02501 0
M  V30 11190 H 1089.55 -2.83504 2.65042 0
M  V30 11191 H 1087.65 -3.70998 0.345111 0
M  V30 11192 H 1087.77 -4.28711 2.13878 0
M  V30 11193 H 1086.13 -2.32067 1.04961 0
M  V30 11194 H 1086.91 -2.11036 2.70774 0
M  V30 11195 N 1089.36 -0.901303 -1.29284 0
M  V30 11196 C 1090.31 -0.378666 -2.27672 0
M  V30 11197 C 1091.28 0.540102 -1.57074 0
M  V30 11198 O 1092.46 0.464997 -1.85047 0
M  V30 11199 C 1089.6 0.38635 -3.42931 0
M  V30 11200 C 1088.71 -0.563496 -4.28309 0
M  V30 11201 C 1087.85 0.218731 -5.30749 0
M  V30 11202 C 1086.89 -0.725536 -6.07785 0
M  V30 11203 N 1086.03 0.0223854 -7.02096 0
M  V30 11204 H 1090.87 -1.22277 -2.71758 0
M  V30 11205 H 1088.4 -0.614302 -1.33659 0
M  V30 11206 H 1090.36 0.845967 -4.08533 0
M  V30 11207 H 1088.99 1.1949 -2.9987 0
M  V30 11208 H 1088.04 -1.14163 -3.62865 0
M  V30 11209 H 1089.35 -1.28623 -4.81931 0
M  V30 11210 H 1088.51 0.739473 -6.02177 0
M  V30 11211 H 1087.25 0.97459 -4.77863 0
M  V30 11212 H 1086.25 -1.25776 -5.3522 0
M  V30 11213 H 1087.48 -1.48075 -6.6276 0
M  V30 11214 H 1085.42 0.760482 -6.51577 0
M  V30 11215 H 1085.34 -0.640408 -7.53283 0
M  V30 11216 H 1086.61 0.523339 -7.77741 0
M  V30 11217 N 1090.84 1.42931 -0.663954 0
M  V30 11218 C 1091.77 2.33499 0.00731327 0
M  V30 11219 C 1092.75 1.50074 0.800733 0
M  V30 11220 O 1093.93 1.78708 0.760062 0
M  V30 11221 C 1091.06 3.33569 0.966897 0
M  V30 11222 C 1090.02 4.27064 0.282839 0
M  V30 11223 C 1089.34 5.17257 1.35461 0
M  V30 11224 C 1090.64 5.1564 -0.831438 0
M  V30 11225 H 1092.34 2.89879 -0.749044 0
M  V30 11226 H 1089.88 1.39385 -0.361656 0
M  V30 11227 H 1091.84 3.95833 1.44549 0
M  V30 11228 H 1090.56 2.75469 1.75455 0
M  V30 11229 H 1089.22 3.6618 -0.175417 0
M  V30 11230 H 1088.87 4.5549 2.13397 0
M  V30 11231 H 1088.57 5.80634 0.902098 0
M  V30 11232 H 1090.09 5.82395 1.83436 0
M  V30 11233 H 1091.51 5.71651 -0.434534 0
M  V30 11234 H 1089.9 5.87794 -1.20908 0
M  V30 11235 H 1090.97 4.54687 -1.68487 0
M  V30 11236 N 1092.32 0.406567 1.52266 0
M  V30 11237 C 1093.26 -0.43489 2.28498 0
M  V30 11238 C 1094.26 -1.04806 1.33086 0
M  V30 11239 O 1095.46 -0.986557 1.50556 0
M  V30 11240 H 1091.84 -0.159023 0.734994 0
M  V30 11241 H 1093.81 0.229316 2.97518 0
M  V30 11242 C 1092.56 -1.54073 3.117 0
M  V30 11243 H 1091.88 -1.07824 3.84986 0
M  V30 11244 H 1093.32 -2.10337 3.6815 0
M  V30 11245 C 1091.78 -2.50662 2.251 0
M  V30 11246 O 1092.31 -3.54486 1.88951 0
M  V30 11247 N 1090.52 -2.20811 1.8892 0
M  V30 11248 H 1090.06 -1.36413 2.18516 0
M  V30 11249 H 1090.02 -2.85684 1.3127 0
M  V30 11250 N 1093.79 -1.57004 0.136909 0
M  V30 11251 C 1094.76 -2.15066 -0.792419 0
M  V30 11252 C 1095.76 -1.08991 -1.18226 0
M  V30 11253 O 1096.95 -1.34681 -1.10484 0
M  V30 11254 C 1094.08 -2.70554 -2.07397 0
M  V30 11255 H 1095.27 -2.98519 -0.28752 0
M  V30 11256 H 1092.83 -1.55895 -0.112469 0
M  V30 11257 H 1093.56 -1.90739 -2.62277 0
M  V30 11258 H 1093.35 -3.48149 -1.80374 0
M  V30 11259 H 1094.84 -3.15322 -2.73792 0
M  V30 11260 N 1095.27 0.136881 -1.57004 0
M  V30 11261 C 1096.52 0.847775 -1.83899 0
M  V30 11262 C 1096.85 1.80709 -0.719332 0
M  V30 11263 O 1096.1 1.93527 0.290838 0
M  V30 11264 C 1096.4 1.64711 -3.17183 0
M  V30 11265 C 1096.07 0.833683 -4.43126 0
M  V30 11266 C 1094.73 0.609306 -4.77327 0
M  V30 11267 C 1097.08 0.265504 -5.20523 0
M  V30 11268 C 1094.41 -0.193793 -5.8638 0
M  V30 11269 C 1096.76 -0.524688 -6.3042 0
M  V30 11270 C 1095.43 -0.759548 -6.63164 0
M  V30 11271 H 1094.7 0.310223 -0.672936 0
M  V30 11272 H 1097.34 0.110937 -1.91178 0
M  V30 11273 H 1095.65 2.45435 -3.054 0
M  V30 11274 H 1097.34 2.20081 -3.3521 0
M  V30 11275 H 1093.93 1.01864 -4.16319 0
M  V30 11276 H 1098.12 0.426109 -4.94467 0
M  V30 11277 H 1093.37 -0.385153 -6.10186 0
M  V30 11278 H 1097.55 -0.972033 -6.89583 0
M  V30 11279 H 1095.18 -1.38369 -7.47501 0
M  V30 11280 N 1096.75 1.52266 0.40654 0
M  V30 11281 C 1098 1.6568 1.15035 0
M  V30 11282 C 1098.31 0.394135 1.91588 0
M  V30 11283 O 1099.52 0.408113 2.68415 0
M  V30 11284 C 1097.97 2.92725 2.0938 0
M  V30 11285 C 1097.58 4.26108 1.38332 0
M  V30 11286 C 1099.33 3.15502 2.84004 0
M  V30 11287 C 1097.23 5.44275 2.3134 0
M  V30 11288 H 1096.16 0.61719 0.43312 0
M  V30 11289 H 1098.81 1.78755 0.414598 0
M  V30 11290 H 1097.2 2.73355 2.86519 0
M  V30 11291 H 1098.37 4.55971 0.665396 0
M  V30 11292 H 1096.69 4.09454 0.757384 0
M  V30 11293 H 1099.28 4.00964 3.5374 0
M  V30 11294 H 1099.63 2.29842 3.471 0
M  V30 11295 H 1100.16 3.35357 2.13964 0
M  V30 11296 H 1096.9 6.3229 1.72887 0
M  V30 11297 H 1096.42 5.18749 3.01098 0
M  V30 11298 H 1098.1 5.77457 2.91809 0
M  V30 11299 N 1098.23 -0.663929 1.42933 0
M  V30 11300 C 1099.16 -1.78876 1.41699 0
M  V30 11301 C 1100.14 -1.60174 0.27981 0
M  V30 11302 O 1101.32 -1.82502 0.471735 0
M  V30 11303 C 1098.45 -3.1603 1.2183 0
M  V30 11304 C 1097.5 -3.53457 2.38685 0
M  V30 11305 S 1098.33 -3.54648 4.01229 0
M  V30 11306 C 1099.49 -4.94477 3.83723 0
M  V30 11307 H 1099.72 -1.7965 2.36882 0
M  V30 11308 H 1097.25 -0.835596 1.29835 0
M  V30 11309 H 1099.21 -3.95193 1.11054 0
M  V30 11310 H 1097.87 -3.1283 0.282139 0
M  V30 11311 H 1097.06 -4.53178 2.20559 0
M  V30 11312 H 1096.67 -2.81681 2.46032 0
M  V30 11313 H 1098.96 -5.82851 3.45386 0
M  V30 11314 H 1099.9 -5.17652 4.83158 0
M  V30 11315 H 1100.31 -4.67507 3.16382 0
M  V30 11316 N 1099.71 -1.29285 -0.901281 0
M  V30 11317 C 1100.98 -1.07847 -1.63182 0
M  V30 11318 C 1101.36 0.377927 -2.07689 0
M  V30 11319 O 1100.71 1.36642 -1.83143 0
M  V30 11320 C 1100.92 -2.06457 -2.81383 0
M  V30 11321 C 1102.27 -2.37289 -3.52107 0
M  V30 11322 O 1103.29 -2.0464 -2.91549 0
M  V30 11323 O 1102.15 -2.93067 -4.61274 0
M  V30 11324 H 1099.25 -0.413073 -0.71645 0
M  V30 11325 H 1101.79 -1.40651 -0.949488 0
M  V30 11326 H 1100.56 -3.04561 -2.4568 0
M  V30 11327 H 1100.19 -1.74374 -3.57323 0
M  V30 11328 N 1101.18 1.11143 -1.11736 0
M  V30 11329 C 1102.13 2.17274 -0.778513 0
M  V30 11330 C 1103.1 1.64186 0.251405 0
M  V30 11331 O 1104.29 1.90373 0.127629 0
M  V30 11332 C 1101.43 3.44324 -0.231246 0
M  V30 11333 C 1100.54 4.114 -1.31809 0
M  V30 11334 C 1099.67 5.26146 -0.73104 0
M  V30 11335 C 1098.71 5.85112 -1.79752 0
M  V30 11336 N 1097.85 6.91247 -1.22973 0
M  V30 11337 H 1102.69 2.45603 -1.68769 0
M  V30 11338 H 1100.23 1.20565 -0.842759 0
M  V30 11339 H 1102.19 4.1707 0.104045 0
M  V30 11340 H 1100.82 3.16369 0.641119 0
M  V30 11341 H 1099.87 3.36697 -1.77029 0
M  V30 11342 H 1101.18 4.51278 -2.12485 0
M  V30 11343 H 1100.33 6.05713 -0.345987 0
M  V30 11344 H 1099.07 4.87583 0.107 0
M  V30 11345 H 1098.08 5.0422 -2.19185 0
M  V30 11346 H 1099.3 6.25741 -2.63865 0
M  V30 11347 H 1097.25 6.54696 -0.41339 0
M  V30 11348 H 1097.17 7.29796 -1.97316 0
M  V30 11349 H 1098.43 7.74611 -0.87167 0
M  V30 11350 N 1102.66 0.908147 1.28804 0
M  V30 11351 C 1103.89 0.553431 1.9988 0
M  V30 11352 C 1104.31 -0.856714 1.67458 0
M  V30 11353 O 1103.67 -1.57163 0.903849 0
M  V30 11354 C 1103.72 0.762688 3.52442 0
M  V30 11355 O 1102.82 -0.180924 4.12003 0
M  V30 11356 H 1102.16 0.215237 0.628147 0
M  V30 11357 H 1104.69 1.22205 1.64095 0
M  V30 11358 H 1104.7 0.670612 4.02451 0
M  V30 11359 H 1103.38 1.79071 3.75375 0
M  V30 11360 H 1101.96 -0.0405897 3.72878 0
M  V30 11361 N 1104.14 -1.42577 0.671525 0
M  V30 11362 C 1105.07 -2.33499 0.00506984 0
M  V30 11363 C 1106.05 -1.50497 -0.792763 0
M  V30 11364 O 1107.24 -1.79109 -0.750574 0
M  V30 11365 C 1104.37 -3.34077 -0.949194 0
M  V30 11366 C 1103.32 -4.27208 -0.260187 0
M  V30 11367 C 1102.65 -5.17968 -1.32716 0
M  V30 11368 C 1103.95 -5.15192 0.858772 0
M  V30 11369 H 1105.64 -2.89477 0.764407 0
M  V30 11370 H 1103.19 -1.39191 0.369043 0
M  V30 11371 H 1105.14 -3.96594 -1.42448 0
M  V30 11372 H 1103.86 -2.76396 -1.73991 0
M  V30 11373 H 1102.52 -3.66082 0.194834 0
M  V30 11374 H 1102.17 -4.56615 -2.10979 0
M  V30 11375 H 1101.87 -5.81104 -0.871293 0
M  V30 11376 H 1103.39 -5.83359 -1.80345 0
M  V30 11377 H 1104.81 -5.71412 0.464844 0
M  V30 11378 H 1103.21 -5.87144 1.24023 0
M  V30 11379 H 1104.28 -4.53787 1.70895 0
M  V30 11380 N 1105.62 -0.414636 -1.52048 0
M  V30 11381 C 1106.55 0.399119 -2.30064 0
M  V30 11382 C 1107.53 1.04126 -1.34506 0
M  V30 11383 O 1108.71 1.04923 -1.63416 0
M  V30 11384 C 1105.84 1.51305 -3.12608 0
M  V30 11385 C 1104.8 0.995621 -4.16259 0
M  V30 11386 C 1104.12 2.20357 -4.87183 0
M  V30 11387 C 1105.42 0.0458178 -5.2228 0
M  V30 11388 H 1107.12 -0.251879 -2.98339 0
M  V30 11389 H 1104.66 -0.122579 -1.43477 0
M  V30 11390 H 1106.62 2.08936 -3.65956 0
M  V30 11391 H 1105.34 2.19201 -2.42113 0
M  V30 11392 H 1104 0.441676 -3.6393 0
M  V30 11393 H 1103.65 2.8682 -4.13211 0
M  V30 11394 H 1103.35 1.86385 -5.57256 0
M  V30 11395 H 1104.87 2.78584 -5.43345 0
M  V30 11396 H 1106.29 0.531102 -5.70835 0
M  V30 11397 H 1104.68 -0.20536 -5.99749 0
M  V30 11398 H 1105.75 -0.897807 -4.76516 0
M  V30 11399 N 1107.1 1.56929 -0.145233 0
M  V30 11400 C 1108.37 1.8767 0.551288 0
M  V30 11401 C 1108.75 1.05089 1.83083 0
M  V30 11402 O 1108.1 0.137201 2.28088 0
M  V30 11403 C 1108.31 3.39268 0.818445 0
M  V30 11404 C 1109.66 4.08447 1.16 0
M  V30 11405 O 1110.68 3.44436 0.907857 0
M  V30 11406 O 1109.54 5.21488 1.63441 0
M  V30 11407 H 1106.64 0.777788 0.281024 0
M  V30 11408 H 1109.18 1.68724 -0.181712 0
M  V30 11409 H 1107.95 3.91203 -0.0871897 0
M  V30 11410 H 1107.58 3.63735 1.60569 0
M  V30 11411 N 1108.58 -0.128553 1.57075 0
M  V30 11412 C 1109.81 -0.851214 1.8825 0
M  V30 11413 C 1110.21 -1.74402 0.733531 0
M  V30 11414 O 1109.56 -1.81149 -0.305108 0
M  V30 11415 C 1109.62 -1.74451 3.14336 0
M  V30 11416 C 1109.28 -1.02699 4.45311 0
M  V30 11417 C 1110.28 -0.37224 5.18566 0
M  V30 11418 C 1107.96 -1.01101 4.9202 0
M  V30 11419 C 1109.96 0.2889 6.36745 0
M  V30 11420 C 1107.65 -0.346063 6.10119 0
M  V30 11421 C 1108.64 0.302744 6.82329 0
M  V30 11422 O 1108.33 0.9571 7.98182 0
M  V30 11423 H 1108.06 -0.250529 0.627863 0
M  V30 11424 H 1110.62 -0.120418 2.05047 0
M  V30 11425 H 1108.85 -2.51671 2.93596 0
M  V30 11426 H 1110.54 -2.34075 3.31608 0
M  V30 11427 H 1111.3 -0.376271 4.83538 0
M  V30 11428 H 1107.18 -1.50543 4.35727 0
M  V30 11429 H 1110.73 0.795901 6.93045 0
M  V30 11430 H 1106.62 -0.339762 6.44605 0
M  V30 11431 H 1107.39 0.860616 8.13963 0
M  V30 11432 N 1110.05 -1.5248 -0.398459 0
M  V30 11433 C 1110.96 -1.79492 -1.51062 0
M  V30 11434 C 1111.98 -0.681101 -1.60116 0
M  V30 11435 O 1113.16 -0.967671 -1.7663 0
M  V30 11436 C 1110.22 -1.94958 -2.86692 0
M  V30 11437 C 1109.28 -3.1887 -2.87438 0
M  V30 11438 C 1108.51 -3.33588 -4.16599 0
M  V30 11439 O 1108.74 -2.53327 -5.11059 0
M  V30 11440 O 1107.67 -4.26795 -4.24416 0
M  V30 11441 H 1111.5 -2.73913 -1.31169 0
M  V30 11442 H 1109.08 -1.37455 -0.585372 0
M  V30 11443 H 1110.96 -2.06891 -3.67116 0
M  V30 11444 H 1109.64 -1.03726 -3.06631 0
M  V30 11445 H 1108.55 -3.12386 -2.0583 0
M  V30 11446 H 1109.88 -4.09917 -2.7245 0
M  V30 11447 N 1111.53 0.65634 -1.43283 0
M  V30 11448 C 1112.78 1.41837 -1.44949 0
M  V30 11449 C 1113.11 1.94065 -0.0723212 0
M  V30 11450 O 1112.39 1.72092 0.906346 0
M  V30 11451 C 1112.67 2.60206 -2.48927 0
M  V30 11452 C 1112.52 2.1349 -3.95907 0
M  V30 11453 C 1113.84 3.62421 -2.49678 0
M  V30 11454 H 1110.96 0.514398 -0.527792 0
M  V30 11455 H 1113.6 0.74435 -1.74813 0
M  V30 11456 H 1111.75 3.17708 -2.23592 0
M  V30 11457 H 1113.42 1.61012 -4.32288 0
M  V30 11458 H 1111.67 1.4489 -4.08888 0
M  V30 11459 H 1112.34 2.98596 -4.64268 0
M  V30 11460 H 1114.81 3.14671 -2.72252 0
M  V30 11461 H 1113.69 4.42798 -3.24378 0
M  V30 11462 H 1113.95 4.14802 -1.52944 0
M  V30 11463 N 1113.01 1.29761 0.894412 0
M  V30 11464 C 1114.23 1.21064 1.68399 0
M  V30 11465 C 1114.66 -0.224608 1.86754 0
M  V30 11466 O 1114.02 -1.16199 1.39167 0
M  V30 11467 C 1114.07 1.93468 3.04306 0
M  V30 11468 O 1113.17 1.25533 3.9283 0
M  V30 11469 H 1112.51 0.419223 0.514925 0
M  V30 11470 H 1115.04 1.71421 1.11696 0
M  V30 11471 H 1115.05 2.02127 3.54413 0
M  V30 11472 H 1113.73 2.97857 2.90265 0
M  V30 11473 H 1112.3 1.25168 3.51266 0
M  V30 11474 N 1114.49 -1.10549 1.12324 0
M  V30 11475 C 1115.74 -1.81851 0.872531 0
M  V30 11476 C 1116.05 -1.86058 -0.603468 0
M  V30 11477 O 1117.26 -2.53553 -0.970736 0
M  V30 11478 C 1115.71 -3.26631 1.51131 0
M  V30 11479 C 1115.32 -3.30725 3.02201 0
M  V30 11480 C 1117.06 -4.02768 1.34082 0
M  V30 11481 C 1114.97 -4.69957 3.59018 0
M  V30 11482 H 1113.9 -0.681422 0.322769 0
M  V30 11483 H 1116.55 -1.24332 1.34959 0
M  V30 11484 H 1114.93 -3.8414 0.961913 0
M  V30 11485 H 1116.11 -2.83046 3.63623 0
M  V30 11486 H 1114.42 -2.68072 3.18632 0
M  V30 11487 H 1117.02 -5.05612 1.73955 0
M  V30 11488 H 1117.36 -4.15328 0.284369 0
M  V30 11489 H 1117.9 -3.51671 1.85937 0
M  V30 11490 H 1114.63 -4.62597 4.64418 0
M  V30 11491 H 1114.15 -5.18008 3.02371 0
M  V30 11492 H 1115.83 -5.38925 3.58007 0
M  V30 11493 N 1115.97 -0.914965 -1.28321 0
M  V30 11494 C 1117.24 -0.46764 -1.89928 0
M  V30 11495 C 1117.62 1.05364 -1.82925 0
M  V30 11496 O 1116.97 1.90223 -1.26599 0
M  V30 11497 C 1117.18 -0.999372 -3.34385 0
M  V30 11498 C 1118.53 -1.0522 -4.11356 0
M  V30 11499 O 1119.55 -0.9481 -3.4335 0
M  V30 11500 O 1118.41 -1.21085 -5.32917 0
M  V30 11501 H 1115.51 -0.148398 -0.813577 0
M  V30 11502 H 1118.05 -1.00583 -1.36679 0
M  V30 11503 H 1116.82 -2.04333 -3.33712 0
M  V30 11504 H 1116.45 -0.442083 -3.95135 0
M  V30 11505 N 1117.44 1.42219 -0.679077 0
M  V30 11506 C 1118.41 2.29197 -0.0125475 0
M  V30 11507 C 1119.41 1.43544 0.724691 0
M  V30 11508 O 1120.6 1.64884 0.562052 0
M  V30 11509 C 1117.73 3.26122 0.992846 0
M  V30 11510 H 1118.92 2.89629 -0.778154 0
M  V30 11511 H 1116.47 1.4993 -0.44166 0
M  V30 11512 H 1117.21 2.70637 1.78679 0
M  V30 11513 H 1116.99 3.89302 0.467544 0
M  V30 11514 H 1118.48 3.91339 1.45751 0
M  V30 11515 N 1118.92 0.422693 1.51826 0
M  V30 11516 C 1120.2 -0.20786 1.94492 0
M  V30 11517 C 1120.58 -1.61414 1.36047 0
M  V30 11518 O 1119.93 -2.21987 0.541657 0
M  V30 11519 C 1120.14 -0.200457 3.48424 0
M  V30 11520 C 1121.48 -0.413199 4.22585 0
M  V30 11521 O 1122.51 -0.27922 3.55104 0
M  V30 11522 O 1121.37 -0.678469 5.42272 0
M  V30 11523 H 1118.46 -0.137851 0.81543 0
M  V30 11524 H 1121.01 0.479617 1.62781 0
M  V30 11525 H 1119.78 0.783263 3.83381 0
M  V30 11526 H 1119.4 -0.931464 3.86535 0
M  V30 11527 N 1120.4 -1.5685 0.153553 0
M  V30 11528 C 1121.64 -1.98226 -0.498586 0
M  V30 11529 C 1122 -1.03671 -1.61605 0
M  V30 11530 O 1123.2 -1.34117 -2.32951 0
M  V30 11531 C 1121.48 -3.43539 -0.985678 0
M  V30 11532 S 1123.03 -4.0694 -1.6415 0
M  V30 11533 H 1119.85 -0.692533 -0.160993 0
M  V30 11534 H 1122.45 -1.93936 0.246817 0
M  V30 11535 H 1121.16 -4.10081 -0.161708 0
M  V30 11536 H 1120.69 -3.51557 -1.76555 0
M  V30 11537 H 1122.7 -4.0053 -2.929 0
M  V30 11538 N 1121.88 0.120221 -1.57141 0
M  V30 11539 C 1122.82 1.14751 -2.00252 0
M  V30 11540 C 1123.79 1.41217 -0.874462 0
M  V30 11541 O 1124.98 1.53104 -1.13859 0
M  V30 11542 C 1122.12 2.46923 -2.41087 0
M  V30 11543 C 1121.23 2.27403 -3.67303 0
M  V30 11544 C 1120.37 3.52797 -3.97125 0
M  V30 11545 C 1119.41 3.28429 -5.16528 0
M  V30 11546 N 1118.54 4.46022 -5.42226 0
M  V30 11547 H 1123.38 0.772884 -2.87803 0
M  V30 11548 H 1120.92 0.370137 -1.42367 0
M  V30 11549 H 1122.88 3.24025 -2.62799 0
M  V30 11550 H 1121.51 2.82281 -1.5658 0
M  V30 11551 H 1120.56 1.41224 -3.53214 0
M  V30 11552 H 1121.87 2.05373 -4.54558 0
M  V30 11553 H 1121.03 4.38318 -4.19479 0
M  V30 11554 H 1119.77 3.77857 -3.08343 0
M  V30 11555 H 1118.77 2.41299 -4.94019 0
M  V30 11556 H 1120 3.0474 -6.06886 0
M  V30 11557 H 1117.94 4.71205 -4.56401 0
M  V30 11558 H 1117.86 4.27092 -6.23802 0
M  V30 11559 H 1119.13 5.3268 -5.69098 0
M  V30 11560 N 1123.36 1.52689 0.390367 0
M  V30 11561 C 1124.29 1.80338 1.48325 0
M  V30 11562 C 1125.27 0.655338 1.56969 0
M  V30 11563 O 1126.45 0.902792 1.7194 0
M  V30 11564 C 1123.58 1.97101 2.85952 0
M  V30 11565 C 1122.54 3.12783 2.92148 0
M  V30 11566 C 1121.86 3.14798 4.32211 0
M  V30 11567 C 1123.16 4.5188 2.61919 0
M  V30 11568 H 1124.86 2.71857 1.25437 0
M  V30 11569 H 1122.4 1.30813 0.601995 0
M  V30 11570 H 1124.36 2.15027 3.62411 0
M  V30 11571 H 1123.08 1.02271 3.10174 0
M  V30 11572 H 1121.74 2.94638 2.18137 0
M  V30 11573 H 1121.39 2.17653 4.53471 0
M  V30 11574 H 1121.09 3.92507 4.37278 0
M  V30 11575 H 1122.61 3.34877 5.10578 0
M  V30 11576 H 1124.02 4.70134 3.28096 0
M  V30 11577 H 1122.42 5.31647 2.78337 0
M  V30 11578 H 1123.49 4.58689 1.57266 0
M  V30 11579 N 1124.83 -0.648732 1.43629 0
M  V30 11580 C 1125.76 -1.77298 1.51947 0
M  V30 11581 C 1126.75 -1.65942 0.373785 0
M  V30 11582 O 1127.93 -1.8497 0.591596 0
M  V30 11583 C 1125.06 -3.15749 1.44638 0
M  V30 11584 C 1124.01 -3.41872 2.57502 0
M  V30 11585 C 1123.34 -4.8017 2.35246 0
M  V30 11586 C 1124.64 -3.36173 3.99731 0
M  V30 11587 H 1126.33 -1.70594 2.46045 0
M  V30 11588 H 1123.88 -0.819306 1.1842 0
M  V30 11589 H 1125.83 -3.94156 1.4906 0
M  V30 11590 H 1124.56 -3.23194 0.470466 0
M  V30 11591 H 1123.22 -2.65838 2.5244 0
M  V30 11592 H 1122.86 -4.84297 1.35887 0
M  V30 11593 H 1122.56 -4.9861 3.10906 0
M  V30 11594 H 1124.09 -5.6083 2.41459 0
M  V30 11595 H 1125.5 -4.0451 4.06257 0
M  V30 11596 H 1123.9 -3.66148 4.75453 0
M  V30 11597 H 1124.97 -2.34277 4.24549 0
M  V30 11598 N 1126.31 -1.30234 -0.887518 0
M  V30 11599 C 1127.54 -1.21829 -1.67229 0
M  V30 11600 C 1127.96 0.219251 -1.87523 0
M  V30 11601 O 1127.31 1.14526 -1.42091 0
M  V30 11602 C 1127.36 -1.94044 -3.05007 0
M  V30 11603 O 1127.08 -3.32185 -2.85631 0
M  V30 11604 C 1128.59 -1.92265 -3.99436 0
M  V30 11605 H 1125.81 -0.421716 -0.521916 0
M  V30 11606 H 1128.35 -1.71816 -1.10903 0
M  V30 11607 H 1126.5 -1.47861 -3.58072 0
M  V30 11608 H 1126.92 -3.68724 -3.73018 0
M  V30 11609 H 1128.39 -2.47336 -4.93486 0
M  V30 11610 H 1128.87 -0.900984 -4.29859 0
M  V30 11611 H 1129.48 -2.38247 -3.52305 0
M  V30 11612 N 1127.79 1.09952 -1.12909 0
M  V30 11613 C 1129.04 1.82286 -0.888797 0
M  V30 11614 C 1129.37 1.85218 0.58379 0
M  V30 11615 O 1128.64 1.31645 1.43177 0
M  V30 11616 C 1128.93 3.28706 -1.47053 0
M  V30 11617 C 1128.78 3.34078 -3.01184 0
M  V30 11618 C 1130.1 4.25233 -1.13424 0
M  V30 11619 H 1127.22 0.661803 -0.324324 0
M  V30 11620 H 1129.86 1.28833 -1.3965 0
M  V30 11621 H 1128.01 3.74356 -1.03874 0
M  V30 11622 H 1129.68 2.96871 -3.5308 0
M  V30 11623 H 1127.93 2.73825 -3.36455 0
M  V30 11624 H 1128.6 4.37202 -3.36984 0
M  V30 11625 H 1131.07 3.87841 -1.50726 0
M  V30 11626 H 1129.95 5.26033 -1.56783 0
M  V30 11627 H 1130.21 4.42075 -0.0471496 0
M  V30 11628 N 1129.27 0.921757 1.27833 0
M  V30 11629 C 1130.52 0.557974 1.94245 0
M  V30 11630 C 1130.84 -0.90268 1.72849 0
M  V30 11631 O 1130.11 -1.63915 1.07279 0
M  V30 11632 H 1128.69 0.203364 0.718785 0
M  V30 11633 H 1131.35 1.17286 1.5566 0
M  V30 11634 H 1130.45 0.759202 3.02725 0
M  V30 11635 N 1130.75 -1.41857 0.686609 0
M  V30 11636 C 1131.69 -2.30795 0.015643 0
M  V30 11637 C 1132.66 -1.46616 -0.780569 0
M  V30 11638 O 1133.85 -1.75423 -0.750424 0
M  V30 11639 C 1130.99 -3.32577 -0.921229 0
M  V30 11640 C 1130.1 -4.3184 -0.117585 0
M  V30 11641 C 1129.24 -5.20693 -1.05128 0
M  V30 11642 C 1128.28 -6.11629 -0.240018 0
M  V30 11643 N 1127.41 -6.92995 -1.12704 0
M  V30 11644 H 1132.25 -2.87615 0.77985 0
M  V30 11645 H 1129.79 -1.41661 0.396298 0
M  V30 11646 H 1131.75 -3.90129 -1.47836 0
M  V30 11647 H 1130.38 -2.77328 -1.65193 0
M  V30 11648 H 1129.43 -3.7631 0.55634 0
M  V30 11649 H 1130.74 -4.96168 0.511753 0
M  V30 11650 H 1129.9 -5.83035 -1.67795 0
M  V30 11651 H 1128.63 -4.5657 -1.71449 0
M  V30 11652 H 1127.64 -5.48345 0.399779 0
M  V30 11653 H 1128.86 -6.77805 0.419266 0
M  V30 11654 H 1126.81 -6.31489 -1.77644 0
M  V30 11655 H 1126.73 -7.53974 -0.553065 0
M  V30 11656 H 1128 -7.59813 -1.7408 0
M  V30 11657 N 1132.22 -0.430739 -1.51599 0
M  V30 11658 C 1133.64 0.0339139 -1.86669 0
M  V30 11659 C 1133.99 1.42533 -1.34829 0
M  V30 11660 O 1133.11 2.04889 -0.696376 0
M  V30 11661 C 1133.71 0.0683174 -3.38731 0
M  V30 11662 C 1132.27 0.477363 -3.73361 0
M  V30 11663 C 1131.41 -0.334258 -2.75278 0
M  V30 11664 H 1134.36 -0.646875 -1.44918 0
M  V30 11665 H 1134.38 0.879179 -3.70204 0
M  V30 11666 H 1133.9 -0.944501 -3.76432 0
M  V30 11667 H 1132 1.49603 -3.41247 0
M  V30 11668 H 1132.11 0.206744 -4.78654 0
M  V30 11669 H 1130.47 0.206503 -2.53861 0
M  V30 11670 H 1131.26 -1.34583 -3.1582 0
M  V30 11671 N 1133.7 1.56767 -0.161869 0
M  V30 11672 C 1134.95 1.96594 0.485496 0
M  V30 11673 C 1135.28 1.04743 1.63887 0
M  V30 11674 O 1134.53 0.079602 1.95538 0
M  V30 11675 C 1134.83 3.42567 1.01894 0
M  V30 11676 C 1134.5 4.50897 -0.0175419 0
M  V30 11677 C 1133.16 4.80249 -0.302429 0
M  V30 11678 C 1135.51 5.16181 -0.721572 0
M  V30 11679 C 1132.84 5.72187 -1.2969 0
M  V30 11680 C 1135.19 6.09191 -1.70496 0
M  V30 11681 C 1133.86 6.36915 -1.99739 0
M  V30 11682 H 1133.13 0.719388 0.177656 0
M  V30 11683 H 1135.77 1.89837 -0.251839 0
M  V30 11684 H 1134.08 3.4623 1.83391 0
M  V30 11685 H 1135.77 3.70719 1.52867 0
M  V30 11686 H 1132.36 4.28062 0.21468 0
M  V30 11687 H 1136.55 4.93624 -0.514681 0
M  V30 11688 H 1131.8 5.91953 -1.52974 0
M  V30 11689 H 1135.98 6.58849 -2.25591 0
M  V30 11690 H 1133.61 7.07958 -2.76948 0
M  V30 11691 N 1135.18 -0.111886 1.57202 0
M  V30 11692 C 1136.14 -1.12101 1.99915 0
M  V30 11693 C 1137.14 -1.33906 0.890272 0
M  V30 11694 O 1138.33 -1.30303 1.15615 0
M  V30 11695 C 1135.47 -2.47392 2.34543 0
M  V30 11696 H 1136.66 -0.753736 2.90274 0
M  V30 11697 H 1134.21 -0.35641 1.52182 0
M  V30 11698 H 1134.95 -2.89026 1.47086 0
M  V30 11699 H 1134.73 -2.32917 3.15423 0
M  V30 11700 H 1136.22 -3.20004 2.68304 0
M  V30 11701 N 1136.66 -1.52894 -0.382264 0
M  V30 11702 C 1137.91 -1.67489 -1.12385 0
M  V30 11703 C 1138.22 -0.424565 -1.90937 0
M  V30 11704 O 1139.43 -0.450763 -2.67732 0
M  V30 11705 C 1137.88 -2.96019 -2.04697 0
M  V30 11706 C 1137.49 -4.28255 -1.31535 0
M  V30 11707 C 1139.23 -3.19981 -2.78949 0
M  V30 11708 C 1137.14 -5.47887 -2.22652 0
M  V30 11709 H 1136.07 -0.624002 -0.423246 0
M  V30 11710 H 1138.72 -1.79392 -0.386107 0
M  V30 11711 H 1137.1 -2.77878 -2.82134 0
M  V30 11712 H 1138.28 -4.56971 -0.592771 0
M  V30 11713 H 1136.59 -4.10607 -0.692148 0
M  V30 11714 H 1139.19 -4.06541 -3.47316 0
M  V30 11715 H 1139.53 -2.35335 -3.43399 0
M  V30 11716 H 1140.07 -3.38718 -2.08602 0
M  V30 11717 H 1136.81 -6.3496 -1.62806 0
M  V30 11718 H 1136.33 -5.23473 -2.92807 0
M  V30 11719 H 1138 -5.82026 -2.82586 0
M  V30 11720 N 1138.14 0.641106 -1.43971 0
M  V30 11721 C 1139.05 1.78239 -1.52538 0
M  V30 11722 C 1140.06 1.6906 -0.411668 0
M  V30 11723 O 1141.24 1.90014 -0.66757 0
M  V30 11724 C 1138.3 3.14579 -1.45743 0
M  V30 11725 C 1137.37 3.35464 -2.67885 0
M  V30 11726 C 1136.6 4.65299 -2.61404 0
M  V30 11727 O 1136.82 5.45451 -1.66851 0
M  V30 11728 O 1135.76 4.8817 -3.521 0
M  V30 11729 H 1139.58 1.73965 -2.48937 0
M  V30 11730 H 1137.17 0.801098 -1.26106 0
M  V30 11731 H 1139.05 3.95873 -1.4444 0
M  V30 11732 H 1137.72 3.19417 -0.524837 0
M  V30 11733 H 1136.63 2.53888 -2.74758 0
M  V30 11734 H 1137.96 3.35481 -3.60157 0
M  V30 11735 N 1139.62 1.30703 0.880598 0
M  V30 11736 C 1140.86 1.19541 1.62955 0
M  V30 11737 C 1141.18 -0.249089 1.93403 0
M  V30 11738 O 1140.45 -1.1669 1.57354 0
M  V30 11739 H 1139.03 0.439434 0.604075 0
M  V30 11740 H 1141.7 1.63888 1.05483 0
M  V30 11741 H 1140.79 1.75945 2.57779 0
M  V30 11742 N 1141.09 -1.09351 1.1349 0
M  V30 11743 C 1142.32 -1.85036 0.918989 0
M  V30 11744 C 1142.73 -1.8146 -0.535638 0
M  V30 11745 O 1142.07 -1.20958 -1.38256 0
M  V30 11746 C 1142.14 -3.33992 1.33001 0
M  V30 11747 C 1141.8 -3.61315 2.79822 0
M  V30 11748 C 1142.8 -3.56973 3.77976 0
M  V30 11749 C 1140.48 -3.89636 3.17001 0
M  V30 11750 C 1142.48 -3.80564 5.11321 0
M  V30 11751 C 1140.16 -4.12882 4.50524 0
M  V30 11752 C 1141.16 -4.08338 5.47494 0
M  V30 11753 O 1140.85 -4.30983 6.78608 0
M  V30 11754 H 1140.58 -0.591301 0.327627 0
M  V30 11755 H 1143.14 -1.39078 1.5115 0
M  V30 11756 H 1141.37 -3.8066 0.68077 0
M  V30 11757 H 1143.05 -3.9109 1.08645 0
M  V30 11758 H 1143.82 -3.3512 3.50599 0
M  V30 11759 H 1139.7 -3.92297 2.42124 0
M  V30 11760 H 1143.24 -3.76933 5.86998 0
M  V30 11761 H 1139.14 -4.34216 4.77626 0
M  V30 11762 H 1139.91 -4.4844 6.84722 0
M  V30 11763 N 1142.57 -0.928524 -1.27343 0
M  V30 11764 C 1143.82 -0.568267 -1.93946 0
M  V30 11765 C 1144.14 0.893501 -1.73325 0
M  V30 11766 O 1143.41 1.63344 -1.08147 0
M  V30 11767 H 1141.99 -0.207173 -0.717696 0
M  V30 11768 H 1144.65 -1.1811 -1.55036 0
M  V30 11769 H 1143.75 -0.775246 -3.02318 0
M  V30 11770 N 1144.05 1.41491 -0.694123 0
M  V30 11771 C 1145.3 2.00479 -0.221585 0
M  V30 11772 C 1145.61 1.55605 1.18518 0
M  V30 11773 O 1146.82 2.07143 1.7551 0
M  V30 11774 C 1145.27 3.5824 -0.345264 0
M  V30 11775 C 1144.88 4.12096 -1.7573 0
M  V30 11776 C 1146.63 4.24446 0.0675731 0
M  V30 11777 C 1144.53 5.62286 -1.83271 0
M  V30 11778 H 1143.46 0.749841 -0.0790854 0
M  V30 11779 H 1146.11 1.61987 -0.86211 0
M  V30 11780 H 1144.5 3.94328 0.363487 0
M  V30 11781 H 1145.67 3.8743 -2.49469 0
M  V30 11782 H 1143.98 3.58411 -2.11969 0
M  V30 11783 H 1146.58 5.34691 0.0316485 0
M  V30 11784 H 1146.92 4.01338 1.10606 0
M  V30 11785 H 1147.46 3.93388 -0.59085 0
M  V30 11786 H 1144.2 5.9022 -2.85168 0
M  V30 11787 H 1143.72 5.88883 -1.13914 0
M  V30 11788 H 1145.4 6.27033 -1.59494 0
M  V30 11789 N 1145.53 0.438773 1.51369 0
M  V30 11790 C 1146.78 -0.126962 2.01701 0
M  V30 11791 C 1147.1 -1.43086 1.32481 0
M  V30 11792 O 1146.37 -1.90427 0.459823 0
M  V30 11793 H 1144.95 -0.0499092 0.745331 0
M  V30 11794 H 1147.61 0.581808 1.86013 0
M  V30 11795 H 1146.7 -0.301836 3.10637 0
M  V30 11796 N 1147.01 -1.56678 0.170181 0
M  V30 11797 C 1147.94 -2.20916 -0.756213 0
M  V30 11798 C 1148.92 -1.16442 -1.23997 0
M  V30 11799 O 1150.1 -1.44867 -1.29333 0
M  V30 11800 C 1147.23 -2.84901 -1.98617 0
M  V30 11801 C 1146.19 -3.95403 -1.63831 0
M  V30 11802 C 1145.51 -4.46432 -2.94282 0
M  V30 11803 C 1146.81 -5.15051 -0.867195 0
M  V30 11804 H 1148.51 -2.98585 -0.220776 0
M  V30 11805 H 1146.05 -1.43619 -0.104748 0
M  V30 11806 H 1148 -3.28514 -2.63926 0
M  V30 11807 H 1146.73 -2.04598 -2.54572 0
M  V30 11808 H 1145.39 -3.52444 -1.00891 0
M  V30 11809 H 1145.04 -3.62923 -3.48276 0
M  V30 11810 H 1144.74 -5.20979 -2.71762 0
M  V30 11811 H 1146.26 -4.92731 -3.60622 0
M  V30 11812 H 1147.67 -5.55363 -1.42285 0
M  V30 11813 H 1146.07 -5.95507 -0.741065 0
M  V30 11814 H 1147.14 -4.84707 0.136693 0
M  V30 11815 N 1148.48 0.103547 -1.57259 0
M  V30 11816 C 1149.89 0.659006 -1.74683 0
M  V30 11817 C 1150.25 1.79542 -0.791142 0
M  V30 11818 O 1149.37 2.16376 0.0323585 0
M  V30 11819 C 1149.97 1.20222 -3.16752 0
M  V30 11820 C 1148.52 1.70382 -3.35629 0
M  V30 11821 C 1147.67 0.609886 -2.7051 0
M  V30 11822 H 1150.62 -0.122474 -1.58227 0
M  V30 11823 H 1150.64 2.07169 -3.19157 0
M  V30 11824 H 1150.16 0.374901 -3.86285 0
M  V30 11825 H 1148.26 2.55542 -2.71162 0
M  V30 11826 H 1148.37 1.80263 -4.43894 0
M  V30 11827 H 1146.73 1.04728 -2.32173 0
M  V30 11828 H 1147.52 -0.206713 -3.42677 0
M  V30 11829 N 1149.96 1.53094 0.37415 0
M  V30 11830 C 1150.89 1.75199 1.47776 0
M  V30 11831 C 1151.91 0.632627 1.50006 0
M  V30 11832 O 1153.1 0.908688 1.5364 0
M  V30 11833 C 1150.2 1.80909 2.86575 0
M  V30 11834 C 1149.37 3.10432 3.08141 0
M  V30 11835 C 1148.43 3.07495 4.27005 0
M  V30 11836 O 1147.45 3.81319 4.22592 0
M  V30 11837 N 1148.66 2.27715 5.33972 0
M  V30 11838 H 1151.42 2.70423 1.29196 0
M  V30 11839 H 1148.98 1.51766 0.563802 0
M  V30 11840 H 1150.97 1.76432 3.64217 0
M  V30 11841 H 1149.54 0.930074 2.98443 0
M  V30 11842 H 1148.76 3.2828 2.18233 0
M  V30 11843 H 1150.05 3.96047 3.19413 0
M  V30 11844 H 1149.45 1.67231 5.40417 0
M  V30 11845 H 1148.01 2.29065 6.10223 0
M  V30 11846 N 1151.44 -0.633461 1.44309 0
M  V30 11847 C 1152.39 -1.76674 1.51292 0
M  V30 11848 C 1153.38 -1.64972 0.384807 0
M  V30 11849 O 1154.59 -1.71079 0.559653 0
M  V30 11850 H 1150.96 -0.583238 0.474697 0
M  V30 11851 H 1152.93 -1.67907 2.46678 0
M  V30 11852 C 1151.68 -3.15002 1.47205 0
M  V30 11853 H 1151.01 -3.24653 2.33325 0
M  V30 11854 H 1152.45 -3.94199 1.56151 0
M  V30 11855 C 1150.9 -3.3635 0.192464 0
M  V30 11856 O 1151.43 -3.94857 -0.738285 0
M  V30 11857 N 1149.64 -2.9044 0.0963424 0
M  V30 11858 H 1149.19 -2.43011 0.85459 0
M  V30 11859 H 1149.15 -3.05099 -0.759061 0
M  V30 11860 N 1152.92 -1.31168 -0.873655 0
M  V30 11861 C 1154.14 -1.23728 -1.66452 0
M  V30 11862 C 1154.57 0.194869 -1.87088 0
M  V30 11863 O 1153.93 1.1397 -1.40998 0
M  V30 11864 C 1153.97 -1.98285 -3.0119 0
M  V30 11865 O 1153.08 -1.31767 -3.90783 0
M  V30 11866 H 1152.42 -0.427362 -0.508191 0
M  V30 11867 H 1154.95 -1.73176 -1.08955 0
M  V30 11868 H 1154.96 -2.0774 -3.51153 0
M  V30 11869 H 1153.63 -3.02437 -2.8549 0
M  V30 11870 H 1152.21 -1.3074 -3.4923 0
M  V30 11871 N 1154.4 1.08748 -1.14068 0
M  V30 11872 C 1155.81 1.62551 -0.918379 0
M  V30 11873 C 1156.16 1.8852 0.543583 0
M  V30 11874 O 1155.28 1.64007 1.41176 0
M  V30 11875 C 1155.88 2.95309 -1.66066 0
M  V30 11876 C 1154.44 3.4591 -1.48403 0
M  V30 11877 C 1153.58 2.20204 -1.6854 0
M  V30 11878 H 1156.54 0.920196 -1.29298 0
M  V30 11879 H 1156.56 3.63587 -1.12181 0
M  V30 11880 H 1156.07 2.76377 -2.72465 0
M  V30 11881 H 1154.17 3.69953 -0.443353 0
M  V30 11882 H 1154.28 4.2289 -2.25169 0
M  V30 11883 H 1152.65 2.29203 -1.11077 0
M  V30 11884 H 1153.43 2.03783 -2.76274 0
M  V30 11885 N 1155.87 0.935264 1.26849 0
M  V30 11886 C 1156.8 0.457776 2.28969 0
M  V30 11887 C 1157.79 -0.48587 1.63013 0
M  V30 11888 O 1158.97 -0.388998 1.90264 0
M  V30 11889 C 1156.1 -0.283332 3.46142 0
M  V30 11890 C 1155.05 0.573196 4.24144 0
M  V30 11891 C 1154.38 -0.297525 5.33872 0
M  V30 11892 C 1155.68 1.84153 4.88759 0
M  V30 11893 H 1157.37 1.31125 2.69159 0
M  V30 11894 H 1154.92 0.631956 1.29392 0
M  V30 11895 H 1156.87 -0.628366 4.16689 0
M  V30 11896 H 1155.6 -1.1709 3.04889 0
M  V30 11897 H 1154.26 0.901043 3.55354 0
M  V30 11898 H 1153.9 -1.18427 4.8886 0
M  V30 11899 H 1153.6 0.272126 5.8697 0
M  V30 11900 H 1155.13 -0.637961 6.07258 0
M  V30 11901 H 1156.54 1.5641 5.51551 0
M  V30 11902 H 1154.94 2.35528 5.51948 0
M  V30 11903 H 1156.01 2.5565 4.12033 0
M  V30 11904 N 1157.35 -1.41121 0.701616 0
M  V30 11905 C 1158.58 -2.05452 0.244365 0
M  V30 11906 C 1159 -1.5282 -1.10866 0
M  V30 11907 O 1158.35 -0.67893 -1.69401 0
M  V30 11908 C 1158.4 -3.60946 0.200112 0
M  V30 11909 O 1158.12 -4.11632 1.4997 0
M  V30 11910 C 1159.63 -4.42431 -0.277394 0
M  V30 11911 H 1156.85 -0.66151 0.112453 0
M  V30 11912 H 1159.39 -1.80784 0.9559 0
M  V30 11913 H 1157.54 -3.84632 -0.462287 0
M  V30 11914 H 1157.96 -5.05723 1.39084 0
M  V30 11915 H 1159.43 -5.514 -0.257225 0
M  V30 11916 H 1159.91 -4.1898 -1.31728 0
M  V30 11917 H 1160.52 -4.23822 0.354223 0
M  V30 11918 N 1158.83 -0.446794 -1.51134 0
M  V30 11919 C 1160.06 0.117242 -2.07068 0
M  V30 11920 C 1160.48 1.34877 -1.3111 0
M  V30 11921 O 1159.84 1.77856 -0.35172 0
M  V30 11922 C 1159.89 0.408616 -3.58277 0
M  V30 11923 O 1158.99 1.49345 -3.84408 0
M  V30 11924 H 1158.33 -0.00228458 -0.663996 0
M  V30 11925 H 1160.86 -0.63085 -1.94632 0
M  V30 11926 H 1160.87 0.656298 -4.02687 0
M  V30 11927 H 1159.55 -0.491444 -4.12986 0
M  V30 11928 H 1158.12 1.23499 -3.51856 0
M  V30 11929 N 1160.31 1.56586 -0.178487 0
M  V30 11930 C 1161.26 2.19631 0.765822 0
M  V30 11931 C 1162.25 1.16247 1.23219 0
M  V30 11932 O 1163.46 1.34431 1.19701 0
M  V30 11933 H 1159.83 0.703661 0.265264 0
M  V30 11934 H 1161.8 2.97659 0.210207 0
M  V30 11935 C 1160.55 2.85686 1.98188 0
M  V30 11936 H 1159.87 3.64971 1.63206 0
M  V30 11937 H 1161.31 3.33259 2.62134 0
M  V30 11938 C 1159.77 1.85837 2.81009 0
M  V30 11939 O 1160.3 1.3483 3.78396 0
M  V30 11940 N 1158.51 1.54435 2.46167 0
M  V30 11941 H 1158.06 1.96107 1.67032 0
M  V30 11942 H 1158.01 0.878808 3.01868 0
M  V30 11943 N 1161.79 -0.095206 1.57312 0
M  V30 11944 C 1162.72 -1.11627 2.05089 0
M  V30 11945 C 1163.7 -1.41782 0.939787 0
M  V30 11946 O 1164.88 -1.51813 1.21105 0
M  V30 11947 C 1162.01 -2.43618 2.47523 0
M  V30 11948 C 1160.97 -2.27872 3.62296 0
M  V30 11949 C 1160.29 -3.65038 3.90706 0
M  V30 11950 C 1161.59 -1.71936 4.93189 0
M  V30 11951 H 1163.29 -0.718795 2.90644 0
M  V30 11952 H 1160.83 -0.344315 1.39823 0
M  V30 11953 H 1162.79 -3.1532 2.79556 0
M  V30 11954 H 1161.51 -2.85301 1.58968 0
M  V30 11955 H 1160.17 -1.58615 3.3051 0
M  V30 11956 H 1159.82 -4.04249 2.99319 0
M  V30 11957 H 1159.52 -3.55349 4.67976 0
M  V30 11958 H 1161.04 -4.38208 4.25213 0
M  V30 11959 H 1162.45 -2.33479 5.23603 0
M  V30 11960 H 1160.85 -1.73006 5.74621 0
M  V30 11961 H 1161.92 -0.678789 4.80125 0
M  V30 11962 N 1163.26 -1.53291 -0.366026 0
M  V30 11963 C 1164.49 -1.73665 -1.13381 0
M  V30 11964 C 1164.91 -0.464284 -1.8228 0
M  V30 11965 O 1164.27 0.581645 -1.71717 0
M  V30 11966 C 1164.32 -2.90225 -2.14013 0
M  V30 11967 O 1163.42 -2.58803 -3.21084 0
M  V30 11968 H 1162.77 -0.576762 -0.329 0
M  V30 11969 H 1165.3 -2.00174 -0.423287 0
M  V30 11970 H 1165.31 -3.16378 -2.57622 0
M  V30 11971 H 1163.98 -3.82518 -1.63257 0
M  V30 11972 H 1162.56 -2.43466 -2.82451 0
M  V30 11973 N 1164.74 0.6258 -1.44643 0
M  V30 11974 C 1165.65 1.76611 -1.5442 0
M  V30 11975 C 1166.67 1.68614 -0.429576 0
M  V30 11976 O 1167.84 1.89296 -0.687686 0
M  V30 11977 C 1164.91 3.13015 -1.49071 0
M  V30 11978 C 1163.97 3.32604 -2.71428 0
M  V30 11979 C 1163.2 4.62501 -2.66325 0
M  V30 11980 O 1163.43 5.43651 -1.72626 0
M  V30 11981 O 1162.36 4.84408 -3.57258 0
M  V30 11982 H 1166.19 1.71315 -2.50769 0
M  V30 11983 H 1163.77 0.787677 -1.26949 0
M  V30 11984 H 1165.65 3.94318 -1.48631 0
M  V30 11985 H 1164.33 3.18842 -0.558686 0
M  V30 11986 H 1163.24 2.50959 -2.77435 0
M  V30 11987 H 1164.57 3.31642 -3.63695 0
M  V30 11988 N 1166.22 1.31629 0.866686 0
M  V30 11989 C 1167.47 1.21503 1.61998 0
M  V30 11990 C 1167.8 -0.226044 1.93182 0
M  V30 11991 O 1167.05 -1.17573 1.56445 0
M  V30 11992 C 1167.35 2.00775 2.95676 0
M  V30 11993 C 1167.02 3.50245 2.83971 0
M  V30 11994 C 1165.68 3.91 2.80485 0
M  V30 11995 C 1168.03 4.45347 2.70769 0
M  V30 11996 C 1165.36 5.25119 2.61661 0
M  V30 11997 C 1167.71 5.79595 2.53481 0
M  V30 11998 C 1166.37 6.19567 2.48381 0
M  V30 11999 H 1165.64 0.44461 0.592792 0
M  V30 12000 H 1168.29 1.62929 1.00629 0
M  V30 12001 H 1166.6 1.52039 3.61097 0
M  V30 12002 H 1168.29 1.90318 3.52959 0
M  V30 12003 H 1164.88 3.17869 2.87502 0
M  V30 12004 H 1169.07 4.14789 2.72514 0
M  V30 12005 H 1164.32 5.5516 2.5614 0
M  V30 12006 H 1168.5 6.5291 2.42243 0
M  V30 12007 H 1166.12 7.23434 2.33554 0
M  V30 12008 N 1167.7 -1.08142 1.14644 0
M  V30 12009 C 1168.95 -1.79959 0.910908 0
M  V30 12010 C 1169.26 -1.87296 -0.563866 0
M  V30 12011 O 1170.47 -2.55555 -0.916735 0
M  V30 12012 C 1168.92 -3.23351 1.58025 0
M  V30 12013 C 1168.53 -3.2424 3.09148 0
M  V30 12014 C 1170.28 -3.99834 1.42595 0
M  V30 12015 C 1168.18 -4.62236 3.68906 0
M  V30 12016 H 1167.11 -0.674423 0.33715 0
M  V30 12017 H 1169.76 -1.21441 1.37566 0
M  V30 12018 H 1168.15 -3.82013 1.04318 0
M  V30 12019 H 1169.32 -2.75269 3.69545 0
M  V30 12020 H 1167.63 -2.61253 3.24246 0
M  V30 12021 H 1170.23 -5.01809 1.8464 0
M  V30 12022 H 1170.57 -4.14631 0.372402 0
M  V30 12023 H 1171.11 -3.47648 1.93354 0
M  V30 12024 H 1167.85 -4.52642 4.74126 0
M  V30 12025 H 1167.37 -5.11477 3.1329 0
M  V30 12026 H 1169.05 -5.3121 3.69358 0
M  V30 12027 N 1169.18 -0.941978 -1.26351 0
M  V30 12028 C 1170.4 -0.606231 -1.98342 0
M  V30 12029 C 1170.83 0.812014 -1.6967 0
M  V30 12030 O 1170.19 1.54712 -0.9452 0
M  V30 12031 C 1170.23 -0.855864 -3.50296 0
M  V30 12032 O 1169.34 0.0716251 -4.12338 0
M  V30 12033 H 1168.68 -0.231815 -0.62222 0
M  V30 12034 H 1171.21 -1.26513 -1.60797 0
M  V30 12035 H 1171.22 -0.777079 -4.00531 0
M  V30 12036 H 1169.89 -1.8896 -3.70496 0
M  V30 12037 H 1168.47 -0.0582866 -3.72854 0
M  V30 12038 N 1170.66 1.40747 -0.709091 0
M  V30 12039 C 1172.07 1.54961 -0.381989 0
M  V30 12040 C 1172.27 1.68181 1.10985 0
M  V30 12041 O 1171.33 1.66776 1.89584 0
M  V30 12042 C 1172.64 2.78156 -1.14236 0
M  V30 12043 C 1174.19 2.91967 -1.12803 0
M  V30 12044 C 1174.66 4.18066 -1.87042 0
M  V30 12045 N 1176.15 4.25052 -1.84078 0
M  V30 12046 C 1176.89 5.21514 -2.38349 0
M  V30 12047 N 1176.39 6.23924 -3.01149 0
M  V30 12048 N 1178.18 5.13548 -2.28528 0
M  V30 12049 H 1170.33 1.30412 -1.6765 0
M  V30 12050 H 1172.59 0.630147 -0.70825 0
M  V30 12051 H 1172.3 2.74643 -2.19691 0
M  V30 12052 H 1172.17 3.70074 -0.729731 0
M  V30 12053 H 1174.56 2.94987 -0.0816956 0
M  V30 12054 H 1174.64 2.01185 -1.57982 0
M  V30 12055 H 1174.28 4.15808 -2.91662 0
M  V30 12056 H 1174.21 5.07845 -1.39287 0
M  V30 12057 H 1176.71 3.51682 -1.38305 0
M  V30 12058 H 1177.02 6.93942 -3.40094 0
M  V30 12059 H 1175.36 6.24387 -3.05231 0
M  V30 12060 H 1178.55 4.3247 -1.79129 0
M  V30 12061 H 1178.73 5.88553 -2.71126 0
M  V30 12062 N 1172.13 0.454803 1.50895 0
M  V30 12063 C 1173.36 -0.103785 2.06339 0
M  V30 12064 C 1173.77 -1.35494 1.32053 0
M  V30 12065 O 1173.11 -1.79758 0.37852 0
M  V30 12066 C 1173.18 -0.474076 3.5636 0
M  V30 12067 C 1172.84 0.672736 4.52021 0
M  V30 12068 C 1173.84 1.55003 4.96256 0
M  V30 12069 C 1171.52 0.858435 4.9491 0
M  V30 12070 C 1173.52 2.59757 5.82069 0
M  V30 12071 C 1171.2 1.90922 5.8051 0
M  V30 12072 C 1172.2 2.77717 6.23989 0
M  V30 12073 O 1171.89 3.80989 7.07886 0
M  V30 12074 H 1171.62 -0.0035531 0.675991 0
M  V30 12075 H 1174.18 0.637816 1.95246 0
M  V30 12076 H 1172.41 -1.26863 3.65298 0
M  V30 12077 H 1174.09 -0.965845 3.94241 0
M  V30 12078 H 1174.86 1.41818 4.63802 0
M  V30 12079 H 1170.74 0.192384 4.60598 0
M  V30 12080 H 1174.28 3.27535 6.15927 0
M  V30 12081 H 1170.18 2.04121 6.12376 0
M  V30 12082 H 1170.95 3.7778 7.26102 0
M  V30 12083 N 1173.61 -1.56489 0.186789 0
M  V30 12084 C 1174.56 -2.18703 -0.737402 0
M  V30 12085 C 1175.53 -1.13171 -1.21579 0
M  V30 12086 O 1176.71 -1.41388 -1.28118 0
M  V30 12087 C 1173.85 -2.84394 -1.95484 0
M  V30 12088 C 1172.97 -4.04429 -1.51859 0
M  V30 12089 C 1172.1 -4.58001 -2.69089 0
M  V30 12090 C 1171.14 -5.70412 -2.22029 0
M  V30 12091 N 1170.28 -6.18425 -3.32407 0
M  V30 12092 H 1175.12 -2.97327 -0.200105 0
M  V30 12093 H 1172.65 -1.46842 -0.087032 0
M  V30 12094 H 1174.61 -3.20646 -2.66912 0
M  V30 12095 H 1173.24 -2.08347 -2.46559 0
M  V30 12096 H 1172.29 -3.73895 -0.70048 0
M  V30 12097 H 1173.61 -4.85756 -1.13327 0
M  V30 12098 H 1172.76 -4.96515 -3.48652 0
M  V30 12099 H 1171.5 -3.75764 -3.1089 0
M  V30 12100 H 1170.5 -5.31434 -1.40918 0
M  V30 12101 H 1171.73 -6.54461 -1.81268 0
M  V30 12102 H 1169.68 -5.39113 -3.73755 0
M  V30 12103 H 1169.59 -6.94782 -2.98017 0
M  V30 12104 H 1170.86 -6.61592 -4.12209 0
M  V30 12105 N 1175.09 0.086862 -1.5736 0
M  V30 12106 C 1176.31 0.806017 -1.91097 0
M  V30 12107 C 1176.74 1.71082 -0.78183 0
M  V30 12108 O 1176.1 1.79335 0.266175 0
M  V30 12109 C 1176.15 1.5884 -3.23732 0
M  V30 12110 O 1175.25 2.69798 -3.11902 0
M  V30 12111 H 1174.59 0.220899 -0.626179 0
M  V30 12112 H 1177.12 0.059619 -2.04513 0
M  V30 12113 H 1177.13 1.97088 -3.5724 0
M  V30 12114 H 1175.81 0.924426 -4.05496 0
M  V30 12115 H 1174.38 2.34519 -2.89923 0
M  V30 12116 N 1176.57 1.53483 0.357892 0
M  V30 12117 C 1177.79 1.74264 1.12458 0
M  V30 12118 C 1178.22 0.473944 1.82031 0
M  V30 12119 O 1177.58 -0.57253 1.72023 0
M  V30 12120 C 1177.62 2.91356 2.12471 0
M  V30 12121 O 1176.73 2.60502 3.19707 0
M  V30 12122 H 1176.07 0.578499 0.325937 0
M  V30 12123 H 1178.6 2.00395 0.412666 0
M  V30 12124 H 1178.61 3.1774 2.5594 0
M  V30 12125 H 1177.28 3.83378 1.61226 0
M  V30 12126 H 1175.86 2.44961 2.81156 0
M  V30 12127 N 1178.05 -0.61812 1.44973 0
M  V30 12128 C 1179.29 -1.37468 1.48145 0
M  V30 12129 C 1179.61 -1.94628 0.120366 0
M  V30 12130 O 1178.88 -1.76548 -0.848982 0
M  V30 12131 H 1177.46 -0.510293 0.545536 0
M  V30 12132 H 1180.13 -0.726598 1.8085 0
M  V30 12133 H 1179.22 -2.19944 2.2143 0
M  V30 12134 N 1179.52 -1.32087 -0.859693 0
M  V30 12135 C 1180.77 -1.2236 -1.61351 0
M  V30 12136 C 1181.1 0.215796 -1.93299 0
M  V30 12137 O 1180.35 1.16742 -1.57066 0
M  V30 12138 C 1180.65 -2.0234 -2.94607 0
M  V30 12139 C 1180.32 -3.51746 -2.82109 0
M  V30 12140 C 1178.98 -3.92482 -2.78408 0
M  V30 12141 C 1181.33 -4.46776 -2.68403 0
M  V30 12142 C 1178.66 -5.265 -2.58873 0
M  V30 12143 C 1181.01 -5.80931 -2.50404 0
M  V30 12144 C 1179.68 -6.20875 -2.45092 0
M  V30 12145 H 1178.95 -0.447748 -0.590426 0
M  V30 12146 H 1181.59 -1.63461 -0.997637 0
M  V30 12147 H 1179.9 -1.53952 -3.60286 0
M  V30 12148 H 1181.6 -1.92187 -3.51945 0
M  V30 12149 H 1178.19 -3.19389 -2.85812 0
M  V30 12150 H 1182.37 -4.16228 -2.70311 0
M  V30 12151 H 1177.63 -5.5651 -2.53192 0
M  V30 12152 H 1181.8 -6.54185 -2.38777 0
M  V30 12153 H 1179.43 -7.24662 -2.29714 0
M  V30 12154 N 1181 1.07532 -1.15215 0
M  V30 12155 C 1182.25 1.79474 -0.920439 0
M  V30 12156 C 1182.56 1.87593 0.553926 0
M  V30 12157 O 1183.77 2.56037 0.903169 0
M  V30 12158 C 1182.23 3.22509 -1.59738 0
M  V30 12159 C 1181.83 3.22596 -3.10863 0
M  V30 12160 C 1183.58 3.99072 -1.44714 0
M  V30 12161 C 1181.48 4.60273 -3.71352 0
M  V30 12162 H 1180.41 0.672625 -0.340722 0
M  V30 12163 H 1183.07 1.2071 -1.38208 0
M  V30 12164 H 1181.45 3.81454 -1.06342 0
M  V30 12165 H 1182.62 2.73306 -3.70999 0
M  V30 12166 H 1180.94 2.5953 -3.25627 0
M  V30 12167 H 1183.53 5.00823 -1.87299 0
M  V30 12168 H 1183.88 4.14428 -0.394386 0
M  V30 12169 H 1184.41 3.46617 -1.95195 0
M  V30 12170 H 1181.15 4.50122 -4.76519 0
M  V30 12171 H 1180.67 5.09809 -3.15998 0
M  V30 12172 H 1182.35 5.29243 -3.7217 0
M  V30 12173 N 1182.48 0.948665 1.2585 0
M  V30 12174 C 1183.76 0.517832 1.88621 0
M  V30 12175 C 1184.14 -1.00477 1.85654 0
M  V30 12176 O 1183.49 -1.868 1.31598 0
M  V30 12177 C 1183.7 1.08768 3.31618 0
M  V30 12178 C 1185.04 1.16089 4.08422 0
M  V30 12179 O 1186.07 1.0388 3.40716 0
M  V30 12180 O 1184.93 1.35172 5.29519 0
M  V30 12181 H 1182.02 0.169916 0.809356 0
M  V30 12182 H 1184.57 1.04171 1.33964 0
M  V30 12183 H 1183.34 2.13109 3.28177 0
M  V30 12184 H 1182.96 0.54669 3.93824 0
M  V30 12185 N 1183.96 -1.40369 0.716545 0
M  V30 12186 C 1184.89 -2.33365 0.0793533 0
M  V30 12187 C 1185.87 -1.52943 -0.744482 0
M  V30 12188 O 1187.05 -1.81406 -0.693212 0
M  V30 12189 C 1184.18 -3.36928 -0.842429 0
M  V30 12190 C 1183.14 -4.2782 -0.124142 0
M  V30 12191 C 1182.46 -5.21928 -1.1617 0
M  V30 12192 C 1183.76 -5.12199 1.02224 0
M  V30 12193 H 1185.46 -2.86899 0.856115 0
M  V30 12194 H 1183 -1.37946 0.413138 0
M  V30 12195 H 1184.96 -4.00925 -1.29759 0
M  V30 12196 H 1183.68 -2.81791 -1.6511 0
M  V30 12197 H 1182.34 -3.65277 0.311201 0
M  V30 12198 H 1181.99 -4.63096 -1.96345 0
M  V30 12199 H 1181.69 -5.83582 -0.685978 0
M  V30 12200 H 1183.21 -5.88802 -1.61694 0
M  V30 12201 H 1184.63 -5.69644 0.646399 0
M  V30 12202 H 1183.02 -5.82901 1.4264 0
M  V30 12203 H 1184.09 -4.4812 1.85246 0
M  V30 12204 N 1185.44 -0.462799 -1.50652 0
M  V30 12205 C 1186.37 0.325724 -2.31217 0
M  V30 12206 C 1187.35 0.997942 -1.3775 0
M  V30 12207 O 1188.53 0.996707 -1.66671 0
M  V30 12208 C 1185.66 1.41283 -3.17264 0
M  V30 12209 C 1184.62 0.862687 -4.19216 0
M  V30 12210 C 1183.94 2.04746 -4.93946 0
M  V30 12211 C 1185.24 -0.120365 -5.22161 0
M  V30 12212 H 1186.94 -0.346666 -2.97386 0
M  V30 12213 H 1184.48 -0.168163 -1.43015 0
M  V30 12214 H 1186.44 1.97188 -3.72418 0
M  V30 12215 H 1185.16 2.11387 -2.48964 0
M  V30 12216 H 1183.82 0.325671 -3.65151 0
M  V30 12217 H 1183.47 2.73529 -4.22127 0
M  V30 12218 H 1183.17 1.68562 -5.62904 0
M  V30 12219 H 1184.69 2.61157 -5.51932 0
M  V30 12220 H 1186.1 0.349226 -5.72235 0
M  V30 12221 H 1184.5 -0.396061 -5.98792 0
M  V30 12222 H 1185.57 -1.04895 -4.73418 0
M  V30 12223 N 1186.91 1.56388 -0.195085 0
M  V30 12224 C 1187.86 2.15705 0.738595 0
M  V30 12225 C 1188.85 1.09782 1.1763 0
M  V30 12226 O 1190.04 1.35844 1.1347 0
M  V30 12227 C 1187.17 2.81994 1.95791 0
M  V30 12228 C 1186.26 3.95108 1.54111 0
M  V30 12229 N 1186.65 4.98856 0.835261 0
M  V30 12230 C 1184.94 4.06709 1.8304 0
M  V30 12231 C 1185.65 5.78317 0.626417 0
M  V30 12232 N 1184.62 5.30746 1.17513 0
M  V30 12233 H 1188.42 2.93281 0.190597 0
M  V30 12234 H 1185.94 1.62399 0.00470391 0
M  V30 12235 H 1187.93 3.22883 2.63728 0
M  V30 12236 H 1186.59 2.05906 2.51063 0
M  V30 12237 H 1187.61 5.1557 0.490732 0
M  V30 12238 H 1184.28 3.41749 2.39821 0
M  V30 12239 H 1185.67 6.71867 0.0664935 0
M  V30 12240 N 1188.39 -0.0785156 1.57404 0
M  V30 12241 C 1189.67 -0.811557 1.77969 0
M  V30 12242 C 1190.05 -1.96123 0.780966 0
M  V30 12243 O 1189.4 -2.27731 -0.18726 0
M  V30 12244 C 1189.61 -1.29075 3.24254 0
M  V30 12245 C 1190.96 -1.72685 3.87898 0
M  V30 12246 O 1191.98 -1.38658 3.28104 0
M  V30 12247 O 1190.84 -2.3566 4.93079 0
M  V30 12248 H 1187.93 -0.388361 0.73014 0
M  V30 12249 H 1190.48 -0.0591118 1.69597 0
M  V30 12250 H 1189.25 -0.467813 3.88494 0
M  V30 12251 H 1188.87 -2.10472 3.37324 0
M  V30 12252 N 1189.87 -1.5367 -0.349747 0
M  V30 12253 C 1190.82 -1.81223 -1.42922 0
M  V30 12254 C 1191.79 -0.657536 -1.52531 0
M  V30 12255 O 1192.97 -0.90134 -1.68168 0
M  V30 12256 C 1190.11 -2.022 -2.79659 0
M  V30 12257 C 1189.23 -3.29915 -2.78891 0
M  V30 12258 C 1188.36 -3.40993 -4.07305 0
M  V30 12259 C 1187.4 -4.6268 -4.00741 0
M  V30 12260 N 1186.54 -4.70826 -5.20833 0
M  V30 12261 H 1191.38 -2.73328 -1.18727 0
M  V30 12262 H 1188.91 -1.35386 -0.57525 0
M  V30 12263 H 1190.87 -2.12351 -3.59114 0
M  V30 12264 H 1189.5 -1.13416 -3.0222 0
M  V30 12265 H 1188.55 -3.28637 -1.91577 0
M  V30 12266 H 1189.87 -4.19459 -2.69917 0
M  V30 12267 H 1189.02 -3.50542 -4.95182 0
M  V30 12268 H 1187.76 -2.49493 -4.19052 0
M  V30 12269 H 1186.76 -4.53215 -3.11249 0
M  V30 12270 H 1187.99 -5.55538 -3.90582 0
M  V30 12271 H 1185.93 -3.82233 -5.33136 0
M  V30 12272 H 1185.85 -5.54297 -5.14092 0
M  V30 12273 H 1187.12 -4.84677 -6.10499 0
M  V30 12274 N 1191.35 0.610423 -1.45298 0
M  V30 12275 C 1192.59 1.36959 -1.50379 0
M  V30 12276 C 1192.95 1.91872 -0.142378 0
M  V30 12277 O 1192.24 1.71944 0.845332 0
M  V30 12278 C 1192.44 2.53812 -2.51623 0
M  V30 12279 C 1192.27 2.10341 -3.97476 0
M  V30 12280 C 1191.04 1.96646 -4.65466 0
M  V30 12281 C 1193.23 1.67982 -4.86093 0
M  V30 12282 N 1191.22 1.46956 -5.96051 0
M  V30 12283 C 1192.59 1.29686 -6.06285 0
M  V30 12284 C 1194.64 1.55548 -4.72979 0
M  V30 12285 C 1193.34 0.801985 -7.14815 0
M  V30 12286 C 1195.37 1.07465 -5.81554 0
M  V30 12287 C 1194.73 0.701317 -7.009 0
M  V30 12288 H 1190.83 0.495191 -0.605236 0
M  V30 12289 H 1193.42 0.698121 -1.81754 0
M  V30 12290 H 1191.59 3.18558 -2.22205 0
M  V30 12291 H 1193.32 3.20683 -2.4687 0
M  V30 12292 H 1190.07 2.17743 -4.20577 0
M  V30 12293 H 1190.5 1.2435 -6.65482 0
M  V30 12294 H 1195.14 1.83038 -3.81126 0
M  V30 12295 H 1192.86 0.514634 -8.0646 0
M  V30 12296 H 1196.44 0.98274 -5.7344 0
M  V30 12297 H 1195.32 0.334967 -7.83484 0
M  V30 12298 N 1192.83 1.32541 0.852676 0
M  V30 12299 C 1194.06 1.26037 1.63702 0
M  V30 12300 C 1194.46 -0.173583 1.88402 0
M  V30 12301 O 1193.81 -1.12175 1.45473 0
M  V30 12302 C 1193.87 1.95245 3.01861 0
M  V30 12303 C 1193.53 3.44576 3.00193 0
M  V30 12304 C 1194.53 4.40026 2.76899 0
M  V30 12305 C 1192.22 3.86541 3.20766 0
M  V30 12306 C 1194.21 5.75414 2.74185 0
M  V30 12307 C 1191.9 5.22038 3.17678 0
M  V30 12308 C 1192.89 6.16286 2.94416 0
M  V30 12309 O 1192.58 7.49303 2.91206 0
M  V30 12310 H 1192.31 0.436073 0.516543 0
M  V30 12311 H 1194.87 1.75251 1.07127 0
M  V30 12312 H 1193.1 1.40603 3.60233 0
M  V30 12313 H 1194.79 1.82423 3.62597 0
M  V30 12314 H 1195.55 4.0893 2.6077 0
M  V30 12315 H 1191.43 3.13603 3.37897 0
M  V30 12316 H 1194.98 6.4895 2.55947 0
M  V30 12317 H 1190.87 5.52762 3.33353 0
M  V30 12318 H 1191.64 7.58686 3.07146 0
M  V30 12319 N 1194.3 -1.0692 1.15784 0
M  V30 12320 C 1195.25 -2.14235 0.858616 0
M  V30 12321 C 1196.22 -1.65006 -0.190295 0
M  V30 12322 O 1197.41 -1.90715 -0.0568853 0
M  V30 12323 C 1194.55 -3.43229 0.35888 0
M  V30 12324 C 1193.66 -4.06225 1.46987 0
M  V30 12325 C 1192.79 -5.2307 0.925812 0
M  V30 12326 C 1191.83 -5.78037 2.01345 0
M  V30 12327 N 1190.97 -6.86206 1.48544 0
M  V30 12328 H 1195.81 -2.3917 1.77769 0
M  V30 12329 H 1193.35 -1.17354 0.886925 0
M  V30 12330 H 1195.31 -4.17169 0.0508198 0
M  V30 12331 H 1193.94 -3.18531 -0.523259 0
M  V30 12332 H 1192.99 -3.29895 1.89403 0
M  V30 12333 H 1194.3 -4.43081 2.29088 0
M  V30 12334 H 1193.45 -6.04011 0.570555 0
M  V30 12335 H 1192.19 -4.87644 0.0740371 0
M  V30 12336 H 1191.2 -4.95738 2.37748 0
M  V30 12337 H 1192.42 -6.15517 2.86907 0
M  V30 12338 H 1190.37 -6.52711 0.656092 0
M  V30 12339 H 1190.29 -7.2197 2.24266 0
M  V30 12340 H 1191.55 -7.70842 1.15856 0
M  V30 12341 N 1195.78 -0.955326 -1.25345 0
M  V30 12342 C 1196.72 -0.420299 -2.24296 0
M  V30 12343 C 1197.69 0.498753 -1.54762 0
M  V30 12344 O 1198.88 0.432971 -1.8346 0
M  V30 12345 C 1196 0.394576 -3.36394 0
M  V30 12346 C 1195.05 -0.464973 -4.23958 0
M  V30 12347 S 1195.88 -1.89764 -5.00749 0
M  V30 12348 C 1197.04 -1.09121 -6.16314 0
M  V30 12349 H 1197.27 -1.25888 -2.69331 0
M  V30 12350 H 1194.81 -0.759449 -1.34431 0
M  V30 12351 H 1196.76 0.858788 -4.01416 0
M  V30 12352 H 1195.42 1.20799 -2.89942 0
M  V30 12353 H 1194.62 0.160055 -5.03746 0
M  V30 12354 H 1194.22 -0.864422 -3.63873 0
M  V30 12355 H 1196.51 -0.340218 -6.76645 0
M  V30 12356 H 1197.45 -1.86304 -6.83152 0
M  V30 12357 H 1197.86 -0.621033 -5.61073 0
M  V30 12358 N 1197.26 1.39987 -0.723979 0
M  V30 12359 C 1198.51 2.01028 -0.267511 0
M  V30 12360 C 1198.84 1.57295 1.13894 0
M  V30 12361 O 1198.12 0.796805 1.7743 0
M  V30 12362 C 1198.4 3.58326 -0.356971 0
M  V30 12363 C 1198.25 4.12109 -1.8024 0
M  V30 12364 C 1199.57 4.39289 0.267003 0
M  V30 12365 H 1196.69 0.730364 -0.0986775 0
M  V30 12366 H 1199.33 1.66348 -0.91806 0
M  V30 12367 H 1197.48 3.88001 0.196908 0
M  V30 12368 H 1199.15 3.93199 -2.41231 0
M  V30 12369 H 1197.4 3.66082 -2.32737 0
M  V30 12370 H 1198.07 5.21261 -1.81634 0
M  V30 12371 H 1200.54 4.15595 -0.20503 0
M  V30 12372 H 1199.42 5.48624 0.174004 0
M  V30 12373 H 1199.68 4.20931 1.35164 0
M  V30 12374 N 1198.74 0.470782 1.50404 0
M  V30 12375 C 1200.15 0.0155901 1.86693 0
M  V30 12376 C 1200.5 -1.38908 1.38561 0
M  V30 12377 O 1199.63 -2.02971 0.750454 0
M  V30 12378 C 1200.22 0.0215152 3.38793 0
M  V30 12379 C 1198.78 -0.378206 3.74495 0
M  V30 12380 C 1197.93 0.407126 2.74295 0
M  V30 12381 H 1200.88 0.68507 1.43152 0
M  V30 12382 H 1200.9 -0.780717 3.72404 0
M  V30 12383 H 1200.41 1.04397 3.73795 0
M  V30 12384 H 1198.51 -1.40503 3.45094 0
M  V30 12385 H 1198.63 -0.0797643 4.79034 0
M  V30 12386 H 1196.99 -0.139123 2.5432 0
M  V30 12387 H 1197.77 1.42909 3.12141 0
M  V30 12388 N 1200.22 -1.56282 0.203376 0
M  V30 12389 C 1201.46 -1.99712 -0.43527 0
M  V30 12390 C 1201.82 -1.0876 -1.58225 0
M  V30 12391 O 1203.02 -1.4146 -2.28566 0
M  V30 12392 C 1201.29 -3.46501 -0.875885 0
M  V30 12393 S 1202.85 -4.11957 -1.5112 0
M  V30 12394 H 1199.67 -0.697305 -0.138879 0
M  V30 12395 H 1202.27 -1.93052 0.308392 0
M  V30 12396 H 1200.98 -4.10388 -0.0311623 0
M  V30 12397 H 1200.51 -3.56996 -1.65281 0
M  V30 12398 H 1202.52 -4.09645 -2.80009 0
M  V30 12399 N 1201.7 0.070167 -1.57444 0
M  V30 12400 C 1202.94 0.767495 -1.8696 0
M  V30 12401 C 1203.26 1.78032 -0.795595 0
M  V30 12402 O 1202.53 1.95112 0.175566 0
M  V30 12403 H 1201.11 0.286443 -0.689898 0
M  V30 12404 H 1203.78 0.0458692 -1.94846 0
M  V30 12405 H 1202.87 1.28269 -2.84523 0
M  V30 12406 N 1203.17 1.53854 0.341593 0
M  V30 12407 C 1204.12 1.81979 1.41959 0
M  V30 12408 C 1205.09 0.665616 1.5218 0
M  V30 12409 O 1206.28 0.910246 1.67688 0
M  V30 12410 C 1203.42 2.03681 2.78583 0
M  V30 12411 C 1202.53 3.31389 2.77137 0
M  V30 12412 C 1201.66 3.43148 4.05491 0
M  V30 12413 C 1200.7 4.64799 3.98282 0
M  V30 12414 N 1199.84 4.73581 5.18329 0
M  V30 12415 H 1204.68 2.73953 1.17275 0
M  V30 12416 H 1202.22 1.35689 0.568062 0
M  V30 12417 H 1204.17 2.14253 3.57983 0
M  V30 12418 H 1202.8 1.15017 3.01614 0
M  V30 12419 H 1201.86 3.29649 1.89832 0
M  V30 12420 H 1203.17 4.20885 2.67689 0
M  V30 12421 H 1202.32 3.53163 4.93316 0
M  V30 12422 H 1201.06 2.51712 4.17723 0
M  V30 12423 H 1200.07 4.54859 3.08842 0
M  V30 12424 H 1201.29 5.57601 3.87631 0
M  V30 12425 H 1199.24 3.85055 5.31102 0
M  V30 12426 H 1199.15 5.57016 5.11145 0
M  V30 12427 H 1200.42 4.87908 6.0792 0
M  V30 12428 N 1204.65 -0.602709 1.4562 0
M  V30 12429 C 1206.07 -0.923983 1.30133 0
M  V30 12430 C 1206.27 -1.99842 0.25796 0
M  V30 12431 O 1205.32 -2.50112 -0.346414 0
M  V30 12432 C 1206.64 -1.36029 2.68173 0
M  V30 12433 C 1208.18 -1.47423 2.76108 0
M  V30 12434 C 1208.66 -1.94427 4.14683 0
M  V30 12435 N 1210.15 -2.01653 4.17002 0
M  V30 12436 C 1210.89 -2.39255 5.211 0
M  V30 12437 N 1210.38 -2.75791 6.3554 0
M  V30 12438 N 1212.17 -2.39636 5.08459 0
M  V30 12439 H 1204.33 0.107377 2.12128 0
M  V30 12440 H 1206.59 -0.0146216 0.947887 0
M  V30 12441 H 1206.29 -0.644949 3.45736 0
M  V30 12442 H 1206.17 -2.32584 2.96959 0
M  V30 12443 H 1208.56 -2.18047 1.98845 0
M  V30 12444 H 1208.64 -0.4917 2.5103 0
M  V30 12445 H 1208.28 -1.24389 4.92433 0
M  V30 12446 H 1208.21 -2.93603 4.37156 0
M  V30 12447 H 1210.7 -1.75988 3.3442 0
M  V30 12448 H 1211.01 -3.03378 7.10761 0
M  V30 12449 H 1209.36 -2.73475 6.38934 0
M  V30 12450 H 1212.55 -2.10502 4.18098 0
M  V30 12451 H 1212.72 -2.68614 5.89704 0
M  V30 12452 N 1206.13 -1.32992 -0.845635 0
M  V30 12453 C 1207.38 -1.24249 -1.60281 0
M  V30 12454 C 1207.71 0.193049 -1.93238 0
M  V30 12455 O 1206.98 1.1326 -1.58122 0
M  V30 12456 C 1207.27 -2.1111 -2.91727 0
M  V30 12457 C 1207.12 -3.63088 -2.65494 0
M  V30 12458 C 1208.44 -1.97913 -3.93089 0
M  V30 12459 H 1205.56 -0.452698 -0.581578 0
M  V30 12460 H 1208.2 -1.63026 -0.975828 0
M  V30 12461 H 1206.35 -1.78169 -3.45236 0
M  V30 12462 H 1208.02 -4.06287 -2.18469 0
M  V30 12463 H 1206.26 -3.85304 -1.99306 0
M  V30 12464 H 1206.94 -4.19202 -3.59129 0
M  V30 12465 H 1209.41 -2.26788 -3.48864 0
M  V30 12466 H 1208.29 -2.60952 -4.82903 0
M  V30 12467 H 1208.55 -0.949378 -4.31786 0
M  V30 12468 N 1207.61 1.06304 -1.1635 0
M  V30 12469 C 1208.85 1.79101 -0.94494 0
M  V30 12470 C 1209.18 1.87217 0.527251 0
M  V30 12471 O 1208.44 1.35992 1.40729 0
M  V30 12472 C 1208.74 3.23589 -1.51741 0
M  V30 12473 C 1208.4 3.35552 -3.0119 0
M  V30 12474 C 1207.06 3.38525 -3.41986 0
M  V30 12475 C 1209.42 3.37482 -3.97184 0
M  V30 12476 C 1206.74 3.41042 -4.77396 0
M  V30 12477 C 1209.1 3.41537 -5.3248 0
M  V30 12478 C 1207.76 3.42792 -5.72757 0
M  V30 12479 H 1207.03 0.655377 -0.345778 0
M  V30 12480 H 1209.68 1.25017 -1.45062 0
M  V30 12481 H 1207.98 3.80525 -0.933164 0
M  V30 12482 H 1209.68 3.78512 -1.32399 0
M  V30 12483 H 1206.27 3.33944 -2.68662 0
M  V30 12484 H 1210.45 3.34397 -3.66732 0
M  V30 12485 H 1205.71 3.40317 -5.07931 0
M  V30 12486 H 1209.88 3.41977 -6.0665 0
M  V30 12487 H 1207.51 3.44495 -6.77663 0
M  V30 12488 N 1209.09 0.96196 1.24836 0
M  V30 12489 C 1210.05 0.492443 2.23847 0
M  V30 12490 C 1211.05 -0.40788 1.55541 0
M  V30 12491 O 1212.24 -0.204143 1.73 0
M  V30 12492 C 1209.37 -0.287578 3.39685 0
M  V30 12493 H 1210.56 1.36767 2.66899 0
M  V30 12494 H 1208.12 0.745967 1.3735 0
M  V30 12495 H 1208.85 -1.18015 3.02064 0
M  V30 12496 H 1208.64 0.358431 3.90458 0
M  V30 12497 H 1210.13 -0.605297 4.1319 0
M  V30 12498 N 1210.56 -1.39601 0.731392 0
M  V30 12499 C 1211.81 -2.00883 0.278168 0
M  V30 12500 C 1212.14 -1.57897 -1.13059 0
M  V30 12501 O 1211.42 -0.806203 -1.77005 0
M  V30 12502 C 1211.7 -3.58132 0.375969 0
M  V30 12503 C 1211.55 -4.11147 1.82423 0
M  V30 12504 C 1212.87 -4.39425 -0.243702 0
M  V30 12505 H 1209.99 -0.729831 0.102549 0
M  V30 12506 H 1212.63 -1.65859 0.926869 0
M  V30 12507 H 1210.78 -3.881 -0.176329 0
M  V30 12508 H 1212.46 -3.91914 2.43313 0
M  V30 12509 H 1210.7 -3.64842 2.34675 0
M  V30 12510 H 1211.37 -5.20291 1.84396 0
M  V30 12511 H 1213.85 -4.1548 0.227067 0
M  V30 12512 H 1212.72 -5.48709 -0.144907 0
M  V30 12513 H 1212.98 -4.21642 -1.32929 0
M  V30 12514 N 1212.04 -0.478751 -1.50152 0
M  V30 12515 C 1213.27 0.0710485 -2.06778 0
M  V30 12516 C 1213.69 1.32826 -1.34174 0
M  V30 12517 O 1213.04 1.77758 -0.413304 0
M  V30 12518 C 1213.09 0.351351 -3.59789 0
M  V30 12519 O 1212.81 -0.855998 -4.29656 0
M  V30 12520 C 1214.32 0.947269 -4.33061 0
M  V30 12521 H 1211.54 -0.0105032 -0.670918 0
M  V30 12522 H 1214.08 -0.669732 -1.93222 0
M  V30 12523 H 1212.23 1.04207 -3.73121 0
M  V30 12524 H 1212.65 -0.605252 -5.20996 0
M  V30 12525 H 1214.12 1.09312 -5.41068 0
M  V30 12526 H 1214.6 1.93937 -3.94062 0
M  V30 12527 H 1215.21 0.294693 -4.24278 0
M  V30 12528 N 1213.52 1.56172 -0.211661 0
M  V30 12529 C 1214.43 2.23468 0.714081 0
M  V30 12530 C 1215.45 1.23908 1.22159 0
M  V30 12531 O 1216.62 1.56693 1.26528 0
M  V30 12532 C 1213.69 2.89375 1.90953 0
M  V30 12533 C 1212.75 4.04251 1.44497 0
M  V30 12534 C 1211.98 4.67006 2.58343 0
M  V30 12535 O 1212.2 4.28721 3.76237 0
M  V30 12536 O 1211.14 5.56177 2.3011 0
M  V30 12537 H 1214.96 3.03219 0.170862 0
M  V30 12538 H 1212.55 1.49389 0.0183607 0
M  V30 12539 H 1214.43 3.3101 2.60787 0
M  V30 12540 H 1213.11 2.12591 2.44104 0
M  V30 12541 H 1212.01 3.67205 0.714932 0
M  V30 12542 H 1213.35 4.82748 0.959947 0
M  V30 12543 N 1215 -0.0618163 1.57479 0
M  V30 12544 C 1216.23 -0.771724 1.91969 0
M  V30 12545 C 1216.64 -1.7061 0.808549 0
M  V30 12546 O 1216 -1.812 -0.217455 0
M  V30 12547 C 1216.05 -1.55687 3.26257 0
M  V30 12548 O 1215.77 -0.660032 4.331 0
M  V30 12549 C 1217.27 -2.36688 3.74825 0
M  V30 12550 H 1214.49 -0.21885 0.634307 0
M  V30 12551 H 1217.04 -0.0291068 2.04479 0
M  V30 12552 H 1215.19 -2.25167 3.15244 0
M  V30 12553 H 1215.6 -1.20715 5.1042 0
M  V30 12554 H 1217.08 -2.8722 4.7139 0
M  V30 12555 H 1217.56 -3.1666 3.0434 0
M  V30 12556 H 1218.16 -1.72346 3.88815 0
M  V30 12557 N 1216.48 -1.54033 -0.333429 0
M  V30 12558 C 1217.41 -1.85719 -1.4153 0
M  V30 12559 C 1218.39 -0.713144 -1.54429 0
M  V30 12560 O 1219.57 -0.965984 -1.68471 0
M  V30 12561 C 1216.7 -2.07578 -2.78439 0
M  V30 12562 C 1215.66 -3.23411 -2.80338 0
M  V30 12563 C 1214.98 -3.30622 -4.2023 0
M  V30 12564 C 1216.28 -4.6129 -2.44968 0
M  V30 12565 H 1217.98 -2.76325 -1.15261 0
M  V30 12566 H 1215.52 -1.32957 -0.55303 0
M  V30 12567 H 1217.48 -2.28329 -3.5418 0
M  V30 12568 H 1216.2 -1.13713 -3.06165 0
M  V30 12569 H 1214.86 -3.02531 -2.07052 0
M  V30 12570 H 1214.51 -2.34333 -4.45081 0
M  V30 12571 H 1214.21 -4.08466 -4.22409 0
M  V30 12572 H 1215.73 -3.53596 -4.97798 0
M  V30 12573 H 1217.14 -4.81987 -3.10421 0
M  V30 12574 H 1215.54 -5.41611 -2.58414 0
M  V30 12575 H 1216.61 -4.6421 -1.40134 0
M  V30 12576 N 1217.95 0.594978 -1.45938 0
M  V30 12577 C 1218.89 1.71909 -1.51591 0
M  V30 12578 C 1219.9 1.57671 -0.405416 0
M  V30 12579 O 1221.09 1.65321 -0.673144 0
M  V30 12580 C 1218.19 3.10041 -1.3685 0
M  V30 12581 C 1217.36 3.50399 -2.61801 0
M  V30 12582 C 1216.42 4.67542 -2.41435 0
M  V30 12583 O 1215.45 4.74022 -3.15106 0
M  V30 12584 N 1216.65 5.6163 -1.46808 0
M  V30 12585 H 1219.41 1.67518 -2.48511 0
M  V30 12586 H 1216.97 0.78062 -1.41838 0
M  V30 12587 H 1218.97 3.86183 -1.21017 0
M  V30 12588 H 1217.54 3.08868 -0.481589 0
M  V30 12589 H 1216.76 2.64088 -2.92662 0
M  V30 12590 H 1218.04 3.74125 -3.44831 0
M  V30 12591 H 1217.44 5.5912 -0.860333 0
M  V30 12592 H 1216 6.37252 -1.36942 0
M  V30 12593 N 1219.43 1.33438 0.838571 0
M  V30 12594 C 1220.37 1.18055 1.9529 0
M  V30 12595 C 1221.34 0.075958 1.62422 0
M  V30 12596 O 1222.53 0.23825 1.86988 0
M  V30 12597 C 1219.65 0.810795 3.28852 0
M  V30 12598 C 1218.7 1.92293 3.80691 0
M  V30 12599 S 1219.53 3.53395 4.02334 0
M  V30 12600 C 1220.69 3.18426 5.38846 0
M  V30 12601 H 1220.92 2.12384 2.08039 0
M  V30 12602 H 1218.46 1.18284 0.992385 0
M  V30 12603 H 1220.41 0.604235 4.06029 0
M  V30 12604 H 1219.07 -0.113894 3.13893 0
M  V30 12605 H 1218.27 1.61758 4.77337 0
M  V30 12606 H 1217.87 2.08617 3.10411 0
M  V30 12607 H 1220.16 2.6927 6.21691 0
M  V30 12608 H 1221.1 4.14153 5.74354 0
M  V30 12609 H 1221.51 2.55016 5.03614 0
M  V30 12610 N 1220.91 -1.05686 1.16912 0
M  V30 12611 C 1222.14 -1.82821 0.979348 0
M  V30 12612 C 1222.56 -1.82196 -0.467575 0
M  V30 12613 O 1221.92 -1.22727 -1.33445 0
M  V30 12614 C 1221.97 -3.2705 1.51891 0
M  V30 12615 O 1221.07 -4.05899 0.729341 0
M  V30 12616 H 1220.41 -0.565455 0.348076 0
M  V30 12617 H 1222.94 -1.33211 1.55293 0
M  V30 12618 H 1222.95 -3.77859 1.53904 0
M  V30 12619 H 1221.63 -3.26819 2.5722 0
M  V30 12620 H 1220.2 -3.64646 0.780221 0
M  V30 12621 N 1222.39 -0.968567 -1.24324 0
M  V30 12622 C 1223.64 -0.626519 -1.91723 0
M  V30 12623 C 1223.95 0.84225 -1.76538 0
M  V30 12624 O 1225.16 1.29486 -2.38633 0
M  V30 12625 C 1223.61 -1.06992 -3.43629 0
M  V30 12626 C 1223.22 -2.5622 -3.67499 0
M  V30 12627 C 1224.96 -0.801057 -4.16873 0
M  V30 12628 C 1222.87 -2.94288 -5.1298 0
M  V30 12629 H 1221.8 -0.23062 -0.717865 0
M  V30 12630 H 1224.45 -1.17489 -1.40956 0
M  V30 12631 H 1222.83 -0.44985 -3.93437 0
M  V30 12632 H 1224.01 -3.23364 -3.28287 0
M  V30 12633 H 1222.32 -2.80726 -3.07542 0
M  V30 12634 H 1224.92 -1.06147 -5.24058 0
M  V30 12635 H 1225.26 0.262742 -4.1547 0
M  V30 12636 H 1225.8 -1.38213 -3.73017 0
M  V30 12637 H 1222.54 -3.99743 -5.19506 0
M  V30 12638 H 1222.06 -2.31829 -5.53187 0
M  V30 12639 H 1223.73 -2.84242 -5.81219 0
M  V30 12640 N 1223.87 1.39211 -0.738786 0
M  V30 12641 C 1225.1 2.04435 -0.298318 0
M  V30 12642 C 1225.5 1.55822 1.07314 0
M  V30 12643 O 1224.85 0.719922 1.69005 0
M  V30 12644 C 1224.91 3.58789 -0.225979 0
M  V30 12645 C 1224.57 4.30395 -1.53653 0
M  V30 12646 C 1225.57 4.56777 -2.48295 0
M  V30 12647 C 1223.26 4.68869 -1.80187 0
M  V30 12648 C 1225.25 5.20648 -3.67702 0
M  V30 12649 C 1222.94 5.32467 -2.99871 0
M  V30 12650 C 1223.93 5.58289 -3.93449 0
M  V30 12651 O 1223.62 6.20567 -5.1103 0
M  V30 12652 H 1223.35 0.663848 -0.127603 0
M  V30 12653 H 1225.91 1.79171 -1.00433 0
M  V30 12654 H 1224.14 3.82965 0.536164 0
M  V30 12655 H 1225.83 4.05487 0.182996 0
M  V30 12656 H 1226.59 4.27497 -2.29066 0
M  V30 12657 H 1222.47 4.48124 -1.08193 0
M  V30 12658 H 1226.02 5.4072 -4.40759 0
M  V30 12659 H 1221.91 5.61169 -3.18998 0
M  V30 12660 H 1222.68 6.39059 -5.11415 0
M  V30 12661 N 1225.34 0.486708 1.49896 0
M  V30 12662 C 1226.29 -0.318255 2.25768 0
M  V30 12663 C 1227.28 -0.94799 1.30008 0
M  V30 12664 O 1228.47 -0.857954 1.54816 0
M  V30 12665 C 1225.6 -1.39057 3.13876 0
M  V30 12666 C 1224.69 -0.767787 4.17092 0
M  V30 12667 N 1225.08 0.121163 5.05655 0
M  V30 12668 C 1223.37 -1.02999 4.33944 0
M  V30 12669 C 1224.08 0.47621 5.79747 0
M  V30 12670 N 1223.05 -0.152422 5.43386 0
M  V30 12671 H 1226.85 0.366294 2.91608 0
M  V30 12672 H 1224.37 0.301852 1.5957 0
M  V30 12673 H 1226.36 -1.98056 3.6685 0
M  V30 12674 H 1225.02 -2.07694 2.49586 0
M  V30 12675 H 1226.04 0.491043 5.15567 0
M  V30 12676 H 1222.71 -1.71018 3.80866 0
M  V30 12677 H 1224.1 1.20262 6.6105 0
M  V30 12678 N 1226.82 -1.56058 0.219941 0
M  V30 12679 C 1228.07 -1.9826 -0.412197 0
M  V30 12680 C 1228.4 -1.10754 -1.59887 0
M  V30 12681 O 1227.65 -0.15212 -1.95108 0
M  V30 12682 C 1227.95 -3.46113 -0.8911 0
M  V30 12683 C 1227.62 -4.50521 0.184877 0
M  V30 12684 C 1226.28 -4.78795 0.480462 0
M  V30 12685 C 1228.63 -5.13147 0.912652 0
M  V30 12686 C 1225.96 -5.66979 1.50837 0
M  V30 12687 C 1228.31 -6.02444 1.92988 0
M  V30 12688 C 1226.98 -6.29063 2.2324 0
M  V30 12689 H 1226.25 -0.725486 -0.150834 0
M  V30 12690 H 1228.89 -1.88771 0.322122 0
M  V30 12691 H 1227.2 -3.52797 -1.70415 0
M  V30 12692 H 1228.9 -3.76137 -1.39003 0
M  V30 12693 H 1225.49 -4.28564 -0.0556594 0
M  V30 12694 H 1229.67 -4.91374 0.697532 0
M  V30 12695 H 1224.93 -5.85868 1.74839 0
M  V30 12696 H 1229.1 -6.50022 2.49889 0
M  V30 12697 H 1226.73 -6.97191 3.03032 0
M  V30 12698 N 1228.3 0.053464 -1.57509 0
M  V30 12699 C 1229.26 1.04604 -2.03938 0
M  V30 12700 C 1230.26 1.30509 -0.939357 0
M  V30 12701 O 1231.45 1.25922 -1.20371 0
M  V30 12702 C 1228.59 2.38516 -2.43563 0
M  V30 12703 H 1229.78 0.645484 -2.92871 0
M  V30 12704 H 1227.33 0.299683 -1.534 0
M  V30 12705 H 1228.07 2.83368 -1.57712 0
M  V30 12706 H 1227.85 2.2105 -3.23851 0
M  V30 12707 H 1229.34 3.09826 -2.79996 0
M  V30 12708 N 1229.78 1.54207 0.325255 0
M  V30 12709 C 1231.03 1.71991 1.0613 0
M  V30 12710 C 1231.35 0.495505 1.88599 0
M  V30 12711 O 1230.62 -0.490504 1.8966 0
M  V30 12712 H 1229.2 0.634137 0.394816 0
M  V30 12713 H 1231.86 1.91507 0.362101 0
M  V30 12714 H 1230.96 2.59878 1.72829 0
M  V30 12715 N 1231.26 -0.58723 1.46251 0
M  V30 12716 C 1232.19 -1.70694 1.5933 0
M  V30 12717 C 1233.17 -1.64208 0.443831 0
M  V30 12718 O 1234.35 -1.82294 0.669516 0
M  V30 12719 C 1231.48 -3.0933 1.579 0
M  V30 12720 C 1230.44 -3.30643 2.7177 0
M  V30 12721 C 1229.76 -4.69761 2.554 0
M  V30 12722 C 1231.06 -3.18916 4.1363 0
M  V30 12723 H 1232.76 -1.60004 2.53059 0
M  V30 12724 H 1230.3 -0.768343 1.21789 0
M  V30 12725 H 1232.26 -3.87479 1.65644 0
M  V30 12726 H 1230.98 -3.20907 0.60712 0
M  V30 12727 H 1229.64 -2.54892 2.63488 0
M  V30 12728 H 1229.29 -4.78098 1.56306 0
M  V30 12729 H 1228.99 -4.84974 3.31774 0
M  V30 12730 H 1230.51 -5.50084 2.65028 0
M  V30 12731 H 1231.93 -3.86915 4.23048 0
M  V30 12732 H 1230.32 -3.45653 4.90555 0
M  V30 12733 H 1231.39 -2.1606 4.34104 0
M  V30 12734 N 1232.74 -1.33881 -0.831482 0
M  V30 12735 C 1233.98 -1.25755 -1.58719 0
M  V30 12736 C 1234.31 0.174746 -1.93713 0
M  V30 12737 O 1233.57 1.13384 -1.59507 0
M  V30 12738 C 1233.86 -2.08544 -2.90249 0
M  V30 12739 C 1233.53 -3.57651 -2.74585 0
M  V30 12740 C 1232.19 -3.983 -2.7002 0
M  V30 12741 C 1234.54 -4.52369 -2.58866 0
M  V30 12742 C 1231.87 -5.31872 -2.47647 0
M  V30 12743 C 1234.22 -5.86112 -2.38025 0
M  V30 12744 C 1232.89 -6.25934 -2.31867 0
M  V30 12745 H 1232.16 -0.460171 -0.580796 0
M  V30 12746 H 1234.81 -1.6554 -0.96274 0
M  V30 12747 H 1233.11 -1.6156 -3.56939 0
M  V30 12748 H 1234.81 -1.99609 -3.47789 0
M  V30 12749 H 1231.4 -3.2538 -2.78973 0
M  V30 12750 H 1235.58 -4.21868 -2.61421 0
M  V30 12751 H 1230.84 -5.61756 -2.41331 0
M  V30 12752 H 1235.01 -6.59103 -2.24847 0
M  V30 12753 H 1232.64 -7.29372 -2.14291 0
M  V30 12754 N 1234.21 1.05064 -1.1747 0
M  V30 12755 C 1235.46 1.78352 -0.965311 0
M  V30 12756 C 1235.79 1.87527 0.504707 0
M  V30 12757 O 1235.07 1.376 1.37465 0
M  V30 12758 C 1235.35 3.22173 -1.60862 0
M  V30 12759 C 1235.2 3.21003 -3.15083 0
M  V30 12760 C 1236.52 4.2004 -1.31358 0
M  V30 12761 H 1233.64 0.647452 -0.352101 0
M  V30 12762 H 1236.28 1.22794 -1.44988 0
M  V30 12763 H 1234.43 3.69613 -1.19658 0
M  V30 12764 H 1236.11 2.81629 -3.65353 0
M  V30 12765 H 1234.35 2.59309 -3.47766 0
M  V30 12766 H 1235.02 4.22516 -3.55224 0
M  V30 12767 H 1237.5 3.81099 -1.6704 0
M  V30 12768 H 1236.37 5.1891 -1.78953 0
M  V30 12769 H 1236.63 4.41477 -0.234606 0
M  V30 12770 N 1235.69 0.975146 1.23809 0
M  V30 12771 C 1236.62 0.530389 2.27396 0
M  V30 12772 C 1237.6 -0.433763 1.64476 0
M  V30 12773 O 1238.79 -0.32827 1.91405 0
M  V30 12774 C 1235.92 -0.173066 3.46869 0
M  V30 12775 C 1234.87 0.707844 4.22106 0
M  V30 12776 C 1234.2 -0.127527 5.34548 0
M  V30 12777 C 1235.5 1.99609 4.82652 0
M  V30 12778 H 1237.19 1.39622 2.64851 0
M  V30 12779 H 1234.74 0.672802 1.27316 0
M  V30 12780 H 1236.69 -0.495481 4.18477 0
M  V30 12781 H 1235.41 -1.0733 3.0846 0
M  V30 12782 H 1234.07 1.01364 3.52308 0
M  V30 12783 H 1233.72 -1.02814 4.9238 0
M  V30 12784 H 1233.42 0.458728 5.85807 0
M  V30 12785 H 1234.95 -0.444443 6.0898 0
M  V30 12786 H 1236.36 1.73878 5.46296 0
M  V30 12787 H 1234.76 2.52969 5.44175 0
M  V30 12788 H 1235.83 2.68629 4.03691 0
M  V30 12789 N 1237.17 -1.38817 0.746158 0
M  V30 12790 C 1238.1 -2.33144 0.128836 0
M  V30 12791 C 1239.08 -1.54487 -0.711873 0
M  V30 12792 O 1240.27 -1.82836 -0.654577 0
M  V30 12793 C 1237.4 -3.38639 -0.770772 0
M  V30 12794 C 1236.35 -4.27987 -0.0333669 0
M  V30 12795 C 1235.68 -5.24274 -1.05073 0
M  V30 12796 C 1236.98 -5.09915 1.13066 0
M  V30 12797 H 1238.67 -2.85019 0.916778 0
M  V30 12798 H 1236.22 -1.37039 0.442306 0
M  V30 12799 H 1238.17 -4.03587 -1.21225 0
M  V30 12800 H 1236.89 -2.8523 -1.59095 0
M  V30 12801 H 1235.55 -3.64534 0.388612 0
M  V30 12802 H 1235.2 -4.67156 -1.86478 0
M  V30 12803 H 1234.9 -5.84906 -0.562037 0
M  V30 12804 H 1236.42 -5.92099 -1.49169 0
M  V30 12805 H 1237.84 -5.68145 0.767084 0
M  V30 12806 H 1236.23 -5.79744 1.54972 0
M  V30 12807 H 1237.3 -4.4409 1.94709 0
M  V30 12808 N 1238.65 -0.49465 -1.49636 0
M  V30 12809 C 1239.89 0.0505629 -2.04337 0
M  V30 12810 C 1240.25 1.34858 -1.36665 0
M  V30 12811 O 1241.45 1.97763 -1.82052 0
M  V30 12812 C 1239.72 0.206247 -3.56804 0
M  V30 12813 S 1241.28 0.706624 -4.33073 0
M  V30 12814 H 1238.1 0.00479193 -0.710984 0
M  V30 12815 H 1240.7 -0.667169 -1.83764 0
M  V30 12816 H 1239.41 -0.743862 -4.03602 0
M  V30 12817 H 1238.94 0.949406 -3.81772 0
M  V30 12818 H 1240.95 1.97672 -4.55127 0
M  V30 12819 N 1240.13 1.55939 -0.228214 0
M  V30 12820 C 1241.06 2.2357 0.6737 0
M  V30 12821 C 1242.04 1.20964 1.1959 0
M  V30 12822 O 1243.22 1.49568 1.23867 0
M  V30 12823 C 1240.35 2.92076 1.87906 0
M  V30 12824 C 1239.31 4.01211 1.49043 0
M  V30 12825 C 1238.63 4.57047 2.77511 0
M  V30 12826 C 1239.93 5.17914 0.67544 0
M  V30 12827 H 1241.63 2.99199 0.109806 0
M  V30 12828 H 1239.17 1.43908 0.0513732 0
M  V30 12829 H 1241.12 3.38083 2.51551 0
M  V30 12830 H 1239.85 2.13906 2.46803 0
M  V30 12831 H 1238.51 3.55945 0.877411 0
M  V30 12832 H 1238.16 3.75599 3.34566 0
M  V30 12833 H 1237.86 5.30707 2.52239 0
M  V30 12834 H 1239.38 5.05776 3.42087 0
M  V30 12835 H 1240.79 5.60261 1.21575 0
M  V30 12836 H 1239.19 5.97847 0.519536 0
M  V30 12837 H 1240.26 4.83866 -0.316495 0
M  V30 12838 N 1241.6 -0.0451101 1.57535 0
M  V30 12839 C 1242.85 -0.737654 1.88157 0
M  V30 12840 C 1243.17 -1.76743 0.823817 0
M  V30 12841 O 1242.44 -1.95366 -0.144503 0
M  V30 12842 H 1241.02 -0.275431 0.694368 0
M  V30 12843 H 1243.69 -0.0148651 1.94894 0
M  V30 12844 H 1242.78 -1.23726 2.86528 0
M  V30 12845 N 1243.08 -1.54377 -0.317073 0
M  V30 12846 C 1244.01 -1.8721 -1.39552 0
M  V30 12847 C 1244.99 -0.729483 -1.53664 0
M  V30 12848 O 1246.18 -0.983799 -1.67437 0
M  V30 12849 C 1243.31 -2.1052 -2.76222 0
M  V30 12850 C 1242.26 -3.26366 -2.76892 0
M  V30 12851 C 1241.59 -3.35061 -4.16699 0
M  V30 12852 C 1242.89 -4.63862 -2.40061 0
M  V30 12853 H 1244.58 -2.77532 -1.12323 0
M  V30 12854 H 1242.13 -1.33536 -0.538897 0
M  V30 12855 H 1244.08 -2.32073 -3.51739 0
M  V30 12856 H 1242.81 -1.16953 -3.04942 0
M  V30 12857 H 1241.46 -3.0471 -2.03831 0
M  V30 12858 H 1241.11 -2.39041 -4.4257 0
M  V30 12859 H 1240.81 -4.12923 -4.18053 0
M  V30 12860 H 1242.34 -3.58856 -4.94019 0
M  V30 12861 H 1243.75 -4.85252 -3.05292 0
M  V30 12862 H 1242.15 -5.44321 -2.52655 0
M  V30 12863 H 1243.22 -4.6567 -1.35202 0
M  V30 12864 N 1244.56 0.579466 -1.4656 0
M  V30 12865 C 1245.81 1.33492 -1.51738 0
M  V30 12866 C 1246.13 1.94241 -0.171926 0
M  V30 12867 O 1245.4 1.78737 0.801875 0
M  V30 12868 H 1243.98 0.49565 -0.558874 0
M  V30 12869 H 1246.64 0.678394 -1.82712 0
M  V30 12870 H 1245.74 2.13995 -2.27183 0
M  V30 12871 N 1246.04 1.3432 0.824371 0
M  V30 12872 C 1247.26 1.2982 1.61745 0
M  V30 12873 C 1247.69 -0.125298 1.87682 0
M  V30 12874 O 1247.05 -1.08658 1.45131 0
M  V30 12875 C 1247.09 2.09327 2.93623 0
M  V30 12876 O 1246.2 1.4618 3.85623 0
M  V30 12877 H 1245.54 0.445929 0.491979 0
M  V30 12878 H 1248.07 1.77101 1.02452 0
M  V30 12879 H 1248.08 2.20629 3.43201 0
M  V30 12880 H 1246.75 3.12825 2.74069 0
M  V30 12881 H 1245.33 1.43611 3.44137 0
M  V30 12882 N 1247.52 -1.0444 1.18026 0
M  V30 12883 C 1248.48 -2.10532 0.906028 0
M  V30 12884 C 1249.48 -1.60443 -0.107022 0
M  V30 12885 O 1250.67 -1.73744 0.126001 0
M  V30 12886 C 1247.8 -3.39008 0.358625 0
M  V30 12887 H 1248.99 -2.36293 1.84677 0
M  V30 12888 H 1246.55 -1.20805 0.991763 0
M  V30 12889 H 1247.28 -3.18908 -0.588904 0
M  V30 12890 H 1247.07 -3.76678 1.08884 0
M  V30 12891 H 1248.56 -4.17189 0.185331 0
M  V30 12892 N 1248.99 -0.981699 -1.2329 0
M  V30 12893 C 1249.92 -0.542441 -2.27112 0
M  V30 12894 C 1250.91 0.425034 -1.64704 0
M  V30 12895 O 1252.09 0.318114 -1.91577 0
M  V30 12896 C 1249.22 0.154668 -3.46955 0
M  V30 12897 C 1248.17 -0.73022 -4.21725 0
M  V30 12898 C 1247.5 0.0991766 -5.34608 0
M  V30 12899 C 1248.8 -2.02166 -4.81587 0
M  V30 12900 H 1250.49 -1.41024 -2.64107 0
M  V30 12901 H 1248.04 -0.679544 -1.26957 0
M  V30 12902 H 1249.99 0.473281 -4.18734 0
M  V30 12903 H 1248.72 1.05693 -3.09025 0
M  V30 12904 H 1247.38 -1.03231 -3.51765 0
M  V30 12905 H 1247.02 1.00201 -4.92919 0
M  V30 12906 H 1246.72 -0.489788 -5.85555 0
M  V30 12907 H 1248.25 0.412141 -6.09207 0
M  V30 12908 H 1249.66 -1.76773 -5.45366 0
M  V30 12909 H 1248.06 -2.55851 -5.42826 0
M  V30 12910 H 1249.13 -2.70766 -4.02261 0
M  V30 12911 N 1250.47 1.3842 -0.753509 0
M  V30 12912 C 1251.4 2.33073 -0.141198 0
M  V30 12913 C 1252.38 1.54863 0.70367 0
M  V30 12914 O 1253.57 1.8318 0.644872 0
M  V30 12915 C 1250.7 3.39043 0.752802 0
M  V30 12916 C 1249.65 4.27999 0.0106692 0
M  V30 12917 C 1248.98 5.24824 1.02291 0
M  V30 12918 C 1250.28 5.09308 -1.15768 0
M  V30 12919 H 1251.97 2.84528 -0.93188 0
M  V30 12920 H 1249.52 1.36802 -0.449567 0
M  V30 12921 H 1251.47 4.04224 1.19083 0
M  V30 12922 H 1250.2 2.8607 1.57581 0
M  V30 12923 H 1248.85 3.64323 -0.407939 0
M  V30 12924 H 1248.5 4.68139 1.83998 0
M  V30 12925 H 1248.2 5.85196 0.53101 0
M  V30 12926 H 1249.73 5.92882 1.46026 0
M  V30 12927 H 1251.14 5.6773 -0.797203 0
M  V30 12928 H 1249.54 5.78914 -1.58044 0
M  V30 12929 H 1250.61 4.43051 -1.97062 0
M  V30 12930 N 1251.95 0.502579 1.49372 0
M  V30 12931 C 1253.18 -0.0403087 2.07361 0
M  V30 12932 C 1253.6 -1.29918 1.36026 0
M  V30 12933 O 1252.96 -1.76428 0.417488 0
M  V30 12934 C 1253.01 -0.275362 3.59547 0
M  V30 12935 O 1252.11 -1.34975 3.89686 0
M  V30 12936 H 1251.45 0.0269268 0.663454 0
M  V30 12937 H 1253.98 0.702652 1.92156 0
M  V30 12938 H 1253.99 -0.506392 4.04845 0
M  V30 12939 H 1252.67 0.644382 4.10878 0
M  V30 12940 H 1251.24 -1.10355 3.56197 0
M  V30 12941 N 1253.43 -1.55816 0.23648 0
M  V30 12942 C 1254.65 -2.03534 -0.398575 0
M  V30 12943 C 1255.08 -1.11488 -1.51499 0
M  V30 12944 O 1254.44 -0.105848 -1.80991 0
M  V30 12945 C 1254.48 -3.49356 -0.893467 0
M  V30 12946 O 1253.59 -3.60446 -2.00381 0
M  V30 12947 H 1252.93 -0.658102 -0.0883021 0
M  V30 12948 H 1255.46 -2.01417 0.359488 0
M  V30 12949 H 1255.47 -3.89972 -1.19941 0
M  V30 12950 H 1254.14 -4.1583 -0.0764388 0
M  V30 12951 H 1252.72 -3.31723 -1.70336 0
M  V30 12952 N 1254.91 0.036755 -1.57557 0
M  V30 12953 C 1255.84 1.03939 -2.09091 0
M  V30 12954 C 1256.82 1.38196 -0.991761 0
M  V30 12955 O 1258 1.47214 -1.26656 0
M  V30 12956 C 1255.13 2.34263 -2.56394 0
M  V30 12957 C 1254.09 2.14269 -3.70504 0
M  V30 12958 C 1253.41 3.50286 -4.03985 0
M  V30 12959 C 1254.71 1.53514 -4.9923 0
M  V30 12960 H 1256.41 0.610429 -2.93111 0
M  V30 12961 H 1253.95 0.292183 -1.41005 0
M  V30 12962 H 1255.91 3.04727 -2.91066 0
M  V30 12963 H 1254.63 2.79205 -1.69447 0
M  V30 12964 H 1253.29 1.46239 -3.36169 0
M  V30 12965 H 1252.94 3.92861 -3.14116 0
M  V30 12966 H 1252.64 3.37735 -4.80842 0
M  V30 12967 H 1254.16 4.22124 -4.41184 0
M  V30 12968 H 1255.57 2.13885 -5.31908 0
M  V30 12969 H 1253.97 1.51561 -5.80646 0
M  V30 12970 H 1255.04 0.500126 -4.82314 0
M  V30 12971 N 1256.39 1.54543 0.308881 0
M  V30 12972 C 1257.63 1.73107 1.043 0
M  V30 12973 C 1257.95 0.515481 1.88063 0
M  V30 12974 O 1257.22 -0.47036 1.90169 0
M  V30 12975 H 1255.8 0.638289 0.388068 0
M  V30 12976 H 1258.47 1.9188 0.341769 0
M  V30 12977 H 1257.56 2.61697 1.70063 0
M  V30 12978 N 1257.86 -0.571685 1.46866 0
M  V30 12979 C 1258.77 -1.70758 1.60869 0
M  V30 12980 C 1259.79 -1.66903 0.49186 0
M  V30 12981 O 1260.97 -1.86613 0.757468 0
M  V30 12982 C 1258.03 -3.07267 1.60586 0
M  V30 12983 C 1257.09 -3.22301 2.83585 0
M  V30 12984 C 1256.32 -4.52298 2.83306 0
M  V30 12985 O 1256.55 -5.36869 1.92685 0
M  V30 12986 O 1255.48 -4.70814 3.7499 0
M  V30 12987 H 1259.31 -1.6189 2.56954 0
M  V30 12988 H 1256.89 -0.740018 1.29785 0
M  V30 12989 H 1258.77 -3.8853 1.63163 0
M  V30 12990 H 1257.45 -3.16549 0.676637 0
M  V30 12991 H 1256.36 -2.4049 2.86558 0
M  V30 12992 H 1257.69 -3.17916 3.75753 0
M  V30 12993 N 1259.34 -1.34755 -0.817236 0
M  V30 12994 C 1260.29 -1.23351 -1.91751 0
M  V30 12995 C 1261.28 -0.131215 -1.60364 0
M  V30 12996 O 1262.47 -0.361425 -1.73271 0
M  V30 12997 C 1259.6 -0.996932 -3.28506 0
M  V30 12998 C 1258.68 -2.14265 -3.65993 0
M  V30 12999 N 1259.07 -3.39424 -3.75 0
M  V30 13000 C 1257.37 -2.05416 -3.95879 0
M  V30 13001 C 1258.07 -4.14701 -4.07919 0
M  V30 13002 N 1257.05 -3.43349 -4.21441 0
M  V30 13003 H 1260.85 -2.18191 -1.96901 0
M  V30 13004 H 1258.36 -1.27075 -1.01122 0
M  V30 13005 H 1260.36 -0.89613 -4.07155 0
M  V30 13006 H 1259.02 -0.0572789 -3.24649 0
M  V30 13007 H 1260.03 -3.73907 -3.58349 0
M  V30 13008 H 1256.71 -1.19242 -4.0011 0
M  V30 13009 H 1258.1 -5.22808 -4.22044 0
M  V30 13010 N 1260.82 1.03812 -1.18578 0
M  V30 13011 C 1261.78 2.10049 -0.91718 0
M  V30 13012 C 1262.78 1.60498 0.0985122 0
M  V30 13013 O 1263.97 1.73674 -0.135213 0
M  V30 13014 C 1261.1 3.38813 -0.376599 0
M  V30 13015 H 1262.3 2.3531 -1.85927 0
M  V30 13016 H 1259.85 1.20277 -0.998156 0
M  V30 13017 H 1260.59 3.19216 0.571983 0
M  V30 13018 H 1260.37 3.76096 -1.10881 0
M  V30 13019 H 1261.86 4.17084 -0.207453 0
M  V30 13020 N 1262.3 0.988223 1.22768 0
M  V30 13021 C 1263.54 0.661461 1.91392 0
M  V30 13022 C 1263.87 -0.805942 1.77016 0
M  V30 13023 O 1263.13 -1.5978 1.12999 0
M  V30 13024 C 1263.43 1.00744 3.42907 0
M  V30 13025 C 1263.09 2.46634 3.77469 0
M  V30 13026 C 1261.75 2.86503 3.86613 0
M  V30 13027 C 1264.11 3.41217 3.9398 0
M  V30 13028 C 1261.43 4.19954 4.09702 0
M  V30 13029 C 1263.79 4.74321 4.18572 0
M  V30 13030 C 1262.45 5.13938 4.25939 0
M  V30 13031 H 1261.72 0.242046 0.700353 0
M  V30 13032 H 1264.37 1.24354 1.45631 0
M  V30 13033 H 1262.67 0.34338 3.90292 0
M  V30 13034 H 1264.37 0.732714 3.94249 0
M  V30 13035 H 1260.96 2.14729 3.70931 0
M  V30 13036 H 1265.14 3.11589 3.86298 0
M  V30 13037 H 1260.4 4.50243 4.13631 0
M  V30 13038 H 1264.57 5.47561 4.30291 0
M  V30 13039 H 1262.2 6.17364 4.43583 0
M  V30 13040 N 1263.78 -1.38018 0.760839 0
M  V30 13041 C 1265.02 -1.99952 0.320241 0
M  V30 13042 C 1265.35 -1.60397 -1.10014 0
M  V30 13043 O 1264.61 -0.836407 -1.76926 0
M  V30 13044 C 1264.9 -3.55168 0.398778 0
M  V30 13045 C 1264.57 -4.14457 1.77585 0
M  V30 13046 C 1263.23 -4.30363 2.15269 0
M  V30 13047 C 1265.58 -4.47089 2.67883 0
M  V30 13048 C 1262.91 -4.762 3.4271 0
M  V30 13049 C 1265.26 -4.94345 3.94722 0
M  V30 13050 C 1263.93 -5.08458 4.32466 0
M  V30 13051 H 1263.2 -0.731675 0.117185 0
M  V30 13052 H 1265.85 -1.64955 0.972736 0
M  V30 13053 H 1264.15 -3.90346 -0.337273 0
M  V30 13054 H 1265.85 -4.00981 0.0393393 0
M  V30 13055 H 1262.44 -4.02496 1.47292 0
M  V30 13056 H 1266.62 -4.34395 2.40031 0
M  V30 13057 H 1261.88 -4.85312 3.71863 0
M  V30 13058 H 1266.05 -5.18563 4.64828 0
M  V30 13059 H 1263.68 -5.43735 5.31278 0
M  V30 13060 N 1265.25 -0.510493 -1.49103 0
M  V30 13061 C 1266.67 -0.167061 -1.58723 0
M  V30 13062 C 1266.87 1.32886 -1.51471 0
M  V30 13063 O 1265.93 2.10559 -1.39359 0
M  V30 13064 C 1267.24 -0.752293 -2.91137 0
M  V30 13065 C 1268.79 -0.719258 -3.04624 0
M  V30 13066 C 1269.26 -1.28272 -4.39671 0
M  V30 13067 N 1270.75 -1.24383 -4.46187 0
M  V30 13068 C 1271.49 -1.6499 -5.4915 0
M  V30 13069 N 1270.98 -2.13235 -6.59168 0
M  V30 13070 N 1272.78 -1.56348 -5.39918 0
M  V30 13071 H 1264.93 -1.48296 -1.5206 0
M  V30 13072 H 1267.19 -0.615683 -0.72086 0
M  V30 13073 H 1266.9 -1.80178 -3.02041 0
M  V30 13074 H 1266.77 -0.218152 -3.76569 0
M  V30 13075 H 1269.16 0.321413 -2.93344 0
M  V30 13076 H 1269.24 -1.29065 -2.20852 0
M  V30 13077 H 1268.88 -2.32222 -4.51703 0
M  V30 13078 H 1268.81 -0.687179 -5.22097 0
M  V30 13079 H 1271.3 -0.890446 -3.67259 0
M  V30 13080 H 1271.62 -2.42266 -7.33844 0
M  V30 13081 H 1269.96 -2.17216 -6.60183 0
M  V30 13082 H 1273.15 -1.18469 -4.52861 0
M  V30 13083 H 1273.33 -1.88317 -6.20033 0
M  V30 13084 N 1266.73 1.55688 -0.24474 0
M  V30 13085 C 1267.66 2.24272 0.64995 0
M  V30 13086 C 1268.64 1.22226 1.183 0
M  V30 13087 O 1269.83 1.50873 1.22274 0
M  V30 13088 C 1266.96 2.94053 1.84798 0
M  V30 13089 C 1265.91 4.02769 1.44779 0
M  V30 13090 C 1265.24 4.59965 2.72647 0
M  V30 13091 C 1266.54 5.18601 0.62047 0
M  V30 13092 H 1268.23 2.99298 0.0780654 0
M  V30 13093 H 1265.78 1.43955 0.0361069 0
M  V30 13094 H 1267.73 3.40732 2.47951 0
M  V30 13095 H 1266.45 2.16511 2.44521 0
M  V30 13096 H 1265.11 3.56856 0.839609 0
M  V30 13097 H 1264.76 3.79126 3.30564 0
M  V30 13098 H 1264.46 5.33352 2.46596 0
M  V30 13099 H 1265.99 5.09376 3.36703 0
M  V30 13100 H 1267.4 5.61519 1.15625 0
M  V30 13101 H 1265.8 5.98364 0.456097 0
M  V30 13102 H 1266.87 4.83503 -0.367798 0
M  V30 13103 N 1268.21 -0.0283989 1.57574 0
M  V30 13104 C 1269.17 -1.01346 2.05576 0
M  V30 13105 C 1270.17 -1.28999 0.960001 0
M  V30 13106 O 1271.36 -1.23991 1.2236 0
M  V30 13107 C 1268.49 -2.34611 2.47327 0
M  V30 13108 H 1269.69 -0.598809 2.93861 0
M  V30 13109 H 1267.24 -0.27524 1.53857 0
M  V30 13110 H 1267.98 -2.80823 1.622 0
M  V30 13111 H 1267.76 -2.1587 3.27326 0
M  V30 13112 H 1269.25 -3.05332 2.84889 0
M  V30 13113 N 1269.69 -1.54705 -0.300681 0
M  V30 13114 C 1270.62 -1.88679 -1.37559 0
M  V30 13115 C 1271.6 -0.74574 -1.52881 0
M  V30 13116 O 1272.78 -1.0015 -1.66384 0
M  V30 13117 C 1269.91 -2.13438 -2.73974 0
M  V30 13118 C 1268.87 -3.29284 -2.73415 0
M  V30 13119 C 1268.19 -3.39462 -4.13122 0
M  V30 13120 C 1269.49 -4.66382 -2.35128 0
M  V30 13121 H 1271.19 -2.78707 -1.09373 0
M  V30 13122 H 1268.73 -1.341 -0.524704 0
M  V30 13123 H 1270.69 -2.35791 -3.49257 0
M  V30 13124 H 1269.41 -1.20181 -3.03684 0
M  V30 13125 H 1268.07 -3.06855 -2.00588 0
M  V30 13126 H 1267.72 -2.43721 -4.4001 0
M  V30 13127 H 1267.42 -4.17334 -4.1365 0
M  V30 13128 H 1268.94 -3.64075 -4.90185 0
M  V30 13129 H 1270.36 -4.88463 -3.00128 0
M  V30 13130 H 1268.75 -5.4697 -2.46867 0
M  V30 13131 H 1269.82 -4.67078 -1.30256 0
M  V30 13132 N 1271.17 0.563888 -1.47167 0
M  V30 13133 C 1272.58 1.14603 -1.47388 0
M  V30 13134 C 1272.93 1.94907 -0.224916 0
M  V30 13135 O 1272.05 2.05745 0.670672 0
M  V30 13136 C 1272.65 2.08501 -2.67044 0
M  V30 13137 C 1271.21 2.62 -2.70246 0
M  V30 13138 C 1270.35 1.38244 -2.40383 0
M  V30 13139 H 1273.31 0.350833 -1.54774 0
M  V30 13140 H 1273.33 2.92272 -2.43634 0
M  V30 13141 H 1272.84 1.50027 -3.57929 0
M  V30 13142 H 1270.94 3.24292 -1.83482 0
M  V30 13143 H 1271.05 3.0345 -3.70749 0
M  V30 13144 H 1269.42 1.68692 -1.90827 0
M  V30 13145 H 1270.2 0.815726 -3.33468 0
M  V30 13146 N 1272.64 1.35187 0.810078 0
M  V30 13147 C 1274.06 1.15149 1.10512 0
M  V30 13148 C 1274.26 -0.038394 2.01463 0
M  V30 13149 O 1273.32 -0.710056 2.42311 0
M  V30 13150 C 1274.63 2.45282 1.73946 0
M  V30 13151 C 1276.18 2.51457 1.86382 0
M  V30 13152 C 1276.65 3.81625 2.53232 0
M  V30 13153 N 1278.14 3.82856 2.6072 0
M  V30 13154 C 1278.88 4.80302 3.13206 0
M  V30 13155 N 1278.37 5.88134 3.66156 0
M  V30 13156 N 1280.17 4.67743 3.11726 0
M  V30 13157 H 1272.32 2.11405 0.205391 0
M  V30 13158 H 1274.58 0.935457 0.153702 0
M  V30 13159 H 1274.29 3.32512 1.14582 0
M  V30 13160 H 1274.16 2.59573 2.73682 0
M  V30 13161 H 1276.55 1.64659 2.44891 0
M  V30 13162 H 1276.63 2.41084 0.855113 0
M  V30 13163 H 1276.27 4.68819 1.95375 0
M  V30 13164 H 1276.2 3.89285 3.54633 0
M  V30 13165 H 1278.69 3.04941 2.23203 0
M  V30 13166 H 1279.01 6.58487 4.04494 0
M  V30 13167 H 1277.35 5.91831 3.64364 0
M  V30 13168 H 1280.54 3.82642 2.69635 0
M  V30 13169 H 1280.72 5.43849 3.52324 0
M  V30 13170 N 1274.12 -1.03182 1.19127 0
M  V30 13171 C 1275.37 -1.75934 0.986415 0
M  V30 13172 C 1275.68 -1.89519 -0.48392 0
M  V30 13173 O 1276.89 -2.59213 -0.80752 0
M  V30 13174 C 1275.35 -3.16358 1.71597 0
M  V30 13175 C 1274.95 -3.10836 3.22622 0
M  V30 13176 C 1276.7 -3.93426 1.59425 0
M  V30 13177 C 1274.61 -4.46174 3.88179 0
M  V30 13178 H 1273.54 -0.659516 0.365451 0
M  V30 13179 H 1276.19 -1.15497 1.42593 0
M  V30 13180 H 1274.57 -3.77245 1.20426 0
M  V30 13181 H 1275.74 -2.59348 3.80887 0
M  V30 13182 H 1274.06 -2.47266 3.35035 0
M  V30 13183 H 1276.65 -4.93526 2.05757 0
M  V30 13184 H 1277 -4.12678 0.547926 0
M  V30 13185 H 1277.53 -3.39134 2.07925 0
M  V30 13186 H 1274.27 -4.32126 4.92897 0
M  V30 13187 H 1273.79 -4.97729 3.34702 0
M  V30 13188 H 1275.47 -5.15066 3.91556 0
M  V30 13189 N 1275.6 -0.99472 -1.22242 0
M  V30 13190 C 1277.02 -0.705762 -1.43147 0
M  V30 13191 C 1277.22 0.722908 -1.88086 0
M  V30 13192 O 1276.27 1.49359 -2.03588 0
M  V30 13193 C 1277.59 -1.71288 -2.47145 0
M  V30 13194 C 1279.13 -1.72853 -2.60942 0
M  V30 13195 C 1279.61 -2.72433 -3.68163 0
M  V30 13196 N 1281.1 -2.71039 -3.75623 0
M  V30 13197 C 1281.83 -3.44753 -4.58184 0
M  V30 13198 N 1281.33 -4.28075 -5.44724 0
M  V30 13199 N 1283.12 -3.33451 -4.52512 0
M  V30 13200 H 1275.27 -1.91738 -0.913792 0
M  V30 13201 H 1277.54 -0.82702 -0.463403 0
M  V30 13202 H 1277.24 -2.7353 -2.21075 0
M  V30 13203 H 1277.12 -1.50721 -3.45779 0
M  V30 13204 H 1279.5 -0.713085 -2.86355 0
M  V30 13205 H 1279.59 -1.9749 -1.62577 0
M  V30 13206 H 1279.23 -3.74129 -3.43497 0
M  V30 13207 H 1279.16 -2.45066 -4.66101 0
M  V30 13208 H 1281.65 -2.10581 -3.1379 0
M  V30 13209 H 1281.96 -4.81143 -6.04749 0
M  V30 13210 H 1280.31 -4.32161 -5.44299 0
M  V30 13211 H 1283.5 -2.67797 -3.8393 0
M  V30 13212 H 1283.67 -3.91158 -5.16623 0
M  V30 13213 N 1277.08 1.37613 -0.768148 0
M  V30 13214 C 1278.03 2.30311 -0.150176 0
M  V30 13215 C 1279 1.50918 0.69376 0
M  V30 13216 O 1280.18 1.795 0.64687 0
M  V30 13217 C 1277.32 3.37382 0.72576 0
M  V30 13218 C 1276.43 4.31791 -0.13439 0
M  V30 13219 C 1275.57 5.25937 0.745915 0
M  V30 13220 C 1274.61 6.11988 -0.116988 0
M  V30 13221 N 1273.74 6.98387 0.721091 0
M  V30 13222 H 1278.58 2.82579 -0.946212 0
M  V30 13223 H 1276.12 1.3911 -0.478217 0
M  V30 13224 H 1278.08 3.98084 1.24839 0
M  V30 13225 H 1276.71 2.86488 1.48743 0
M  V30 13226 H 1275.76 3.72426 -0.774793 0
M  V30 13227 H 1277.07 4.9234 -0.800163 0
M  V30 13228 H 1276.23 5.91826 1.33516 0
M  V30 13229 H 1274.97 4.6579 1.44538 0
M  V30 13230 H 1273.97 5.45081 -0.7188 0
M  V30 13231 H 1275.2 6.74207 -0.813732 0
M  V30 13232 H 1273.14 6.40772 1.40524 0
M  V30 13233 H 1273.06 7.55916 0.112536 0
M  V30 13234 H 1274.33 7.6867 1.29485 0
M  V30 13235 N 1278.56 0.518393 1.4883 0
M  V30 13236 C 1279.8 -0.019866 2.0209 0
M  V30 13237 C 1280.13 -1.35863 1.3988 0
M  V30 13238 O 1279.4 -1.87722 0.560117 0
M  V30 13239 H 1277.98 -0.0103306 0.746929 0
M  V30 13240 H 1280.64 0.679591 1.82668 0
M  V30 13241 H 1279.73 -0.136749 3.118 0
M  V30 13242 N 1280.03 -1.55556 0.252993 0
M  V30 13243 C 1281.26 -2.03945 -0.376965 0
M  V30 13244 C 1281.68 -1.13089 -1.50308 0
M  V30 13245 O 1281.04 -0.125039 -1.80868 0
M  V30 13246 C 1281.09 -3.50284 -0.856363 0
M  V30 13247 O 1280.19 -3.62551 -1.96546 0
M  V30 13248 H 1279.54 -0.659002 -0.081317 0
M  V30 13249 H 1282.07 -2.01024 0.380831 0
M  V30 13250 H 1282.08 -3.91222 -1.15798 0
M  V30 13251 H 1280.75 -4.15887 -0.0323302 0
M  V30 13252 H 1279.33 -3.33511 -1.66808 0
M  V30 13253 N 1281.51 0.0200419 -1.57587 0
M  V30 13254 C 1282.93 0.375834 -1.55112 0
M  V30 13255 C 1283.13 1.76047 -0.980297 0
M  V30 13256 O 1282.18 2.45138 -0.605297 0
M  V30 13257 C 1283.5 0.269418 -2.99491 0
M  V30 13258 C 1285.05 0.345838 -3.11084 0
M  V30 13259 C 1285.52 0.268771 -4.57211 0
M  V30 13260 N 1287.01 0.32729 -4.62042 0
M  V30 13261 C 1287.75 0.290688 -5.72663 0
M  V30 13262 N 1287.24 0.205851 -6.92494 0
M  V30 13263 N 1289.04 0.341082 -5.61064 0
M  V30 13264 H 1281.19 -0.885979 -1.93039 0
M  V30 13265 H 1283.45 -0.337753 -0.885792 0
M  V30 13266 H 1283.16 -0.682452 -3.45015 0
M  V30 13267 H 1283.03 1.0595 -3.62014 0
M  V30 13268 H 1285.42 1.28814 -2.65501 0
M  V30 13269 H 1285.5 -0.47376 -2.51375 0
M  V30 13270 H 1285.14 -0.669906 -5.03463 0
M  V30 13271 H 1285.07 1.10659 -5.14842 0
M  V30 13272 H 1287.56 0.395004 -3.7583 0
M  V30 13273 H 1287.88 0.18327 -7.72583 0
M  V30 13274 H 1286.22 0.171768 -6.94788 0
M  V30 13275 H 1289.41 0.405415 -4.66341 0
M  V30 13276 H 1289.58 0.309091 -6.47262 0
M  V30 13277 N 1282.99 1.54862 0.292472 0
M  V30 13278 C 1283.92 1.89406 1.36556 0
M  V30 13279 C 1284.9 0.753838 1.52484 0
M  V30 13280 O 1286.09 1.01031 1.6585 0
M  V30 13281 C 1283.22 2.14888 2.72838 0
M  V30 13282 C 1282.17 3.3073 2.71665 0
M  V30 13283 C 1281.5 3.41648 4.11316 0
M  V30 13284 C 1282.8 4.67622 2.32651 0
M  V30 13285 H 1284.49 2.79284 1.07894 0
M  V30 13286 H 1282.04 1.34377 0.517585 0
M  V30 13287 H 1283.99 2.3764 3.48002 0
M  V30 13288 H 1282.71 1.2179 3.03042 0
M  V30 13289 H 1281.37 3.07915 1.98958 0
M  V30 13290 H 1281.02 2.46051 4.38711 0
M  V30 13291 H 1280.72 4.19522 4.11431 0
M  V30 13292 H 1282.24 3.6667 4.88248 0
M  V30 13293 H 1283.66 4.90048 2.97533 0
M  V30 13294 H 1282.06 5.48272 2.43963 0
M  V30 13295 H 1283.13 4.67762 1.27777 0
M  V30 13296 N 1284.47 -0.556076 1.47464 0
M  V30 13297 C 1285.4 -1.67829 1.56096 0
M  V30 13298 C 1286.41 -1.56541 0.447077 0
M  V30 13299 O 1287.6 -1.63478 0.716739 0
M  V30 13300 C 1284.7 -3.06303 1.45023 0
M  V30 13301 C 1283.88 -3.43334 2.70999 0
M  V30 13302 C 1282.93 -4.60976 2.53746 0
M  V30 13303 O 1281.96 -4.65501 3.27564 0
M  V30 13304 N 1283.16 -5.5754 1.61647 0
M  V30 13305 H 1285.93 -1.6087 2.52865 0
M  V30 13306 H 1283.49 -0.74274 1.43857 0
M  V30 13307 H 1285.48 -3.82838 1.31214 0
M  V30 13308 H 1284.05 -3.07483 0.563311 0
M  V30 13309 H 1283.27 -2.56236 2.99561 0
M  V30 13310 H 1284.56 -3.64851 3.54629 0
M  V30 13311 H 1283.96 -5.56642 1.00827 0
M  V30 13312 H 1282.51 -6.33397 1.53789 0
M  V30 13313 N 1285.95 -1.35615 -0.802897 0
M  V30 13314 C 1287.18 -1.32025 -1.58911 0
M  V30 13315 C 1287.59 0.103539 -1.88916 0
M  V30 13316 O 1286.93 1.06699 -1.49536 0
M  V30 13317 C 1286.99 -2.06313 -2.94406 0
M  V30 13318 C 1286.65 -3.5548 -2.87198 0
M  V30 13319 C 1287.65 -4.5 -2.60377 0
M  V30 13320 C 1285.34 -3.9818 -3.06199 0
M  V30 13321 C 1287.33 -5.85194 -2.5264 0
M  V30 13322 C 1285.02 -5.33469 -2.98084 0
M  V30 13323 C 1286.02 -6.26788 -2.71341 0
M  V30 13324 O 1285.7 -7.59594 -2.63195 0
M  V30 13325 H 1285.44 -0.454943 -0.500003 0
M  V30 13326 H 1287.99 -1.79106 -1.00549 0
M  V30 13327 H 1286.22 -1.53875 -3.54766 0
M  V30 13328 H 1287.91 -1.95755 -3.55577 0
M  V30 13329 H 1288.67 -4.18327 -2.45413 0
M  V30 13330 H 1284.55 -3.25927 -3.26025 0
M  V30 13331 H 1288.1 -6.58003 -2.31686 0
M  V30 13332 H 1283.99 -5.64754 -3.12607 0
M  V30 13333 H 1284.76 -7.69562 -2.78776 0
M  V30 13334 N 1287.43 1.02549 -1.19673 0
M  V30 13335 C 1288.67 1.76382 -1.01296 0
M  V30 13336 C 1289.03 1.87036 0.451162 0
M  V30 13337 O 1288.32 1.37859 1.33062 0
M  V30 13338 C 1288.51 3.18597 -1.61959 0
M  V30 13339 C 1288.34 3.21808 -3.14117 0
M  V30 13340 C 1287.11 3.2956 -3.83038 0
M  V30 13341 C 1289.31 3.08576 -4.11443 0
M  V30 13342 N 1287.29 3.22181 -5.22564 0
M  V30 13343 C 1288.66 3.08868 -5.37588 0
M  V30 13344 C 1290.72 2.92728 -4.02759 0
M  V30 13345 C 1289.42 2.94938 -6.56052 0
M  V30 13346 C 1291.45 2.80149 -5.20837 0
M  V30 13347 C 1290.81 2.81098 -6.45882 0
M  V30 13348 H 1286.91 0.656544 -0.424822 0
M  V30 13349 H 1289.49 1.22046 -1.517 0
M  V30 13350 H 1287.66 3.71247 -1.14151 0
M  V30 13351 H 1289.4 3.80812 -1.36984 0
M  V30 13352 H 1286.15 3.3592 -3.33848 0
M  V30 13353 H 1286.57 3.21889 -5.95581 0
M  V30 13354 H 1291.22 2.90814 -3.069 0
M  V30 13355 H 1288.93 2.95603 -7.52093 0
M  V30 13356 H 1292.52 2.68917 -5.15921 0
M  V30 13357 H 1291.4 2.71471 -7.35713 0
M  V30 13358 N 1288.9 1.00119 1.21713 0
M  V30 13359 C 1289.83 0.578504 2.2622 0
M  V30 13360 C 1290.81 -0.398777 1.6536 0
M  V30 13361 O 1292 -0.287596 1.92059 0
M  V30 13362 C 1289.13 -0.0994508 3.47158 0
M  V30 13363 C 1288.08 0.79722 4.2051 0
M  V30 13364 C 1287.41 -0.0141125 5.34698 0
M  V30 13365 C 1288.71 2.09802 4.7831 0
M  V30 13366 H 1290.4 1.45208 2.6183 0
M  V30 13367 H 1287.95 0.699656 1.2586 0
M  V30 13368 H 1289.9 -0.406605 4.19434 0
M  V30 13369 H 1288.63 -1.00763 3.10667 0
M  V30 13370 H 1287.29 1.08814 3.50079 0
M  V30 13371 H 1286.93 -0.923468 4.9445 0
M  V30 13372 H 1286.63 0.582883 5.84702 0
M  V30 13373 H 1288.16 -0.31517 6.09786 0
M  V30 13374 H 1289.57 1.85427 5.42485 0
M  V30 13375 H 1287.97 2.64455 5.38687 0
M  V30 13376 H 1289.04 2.77132 3.97902 0
M  V30 13377 N 1290.38 -1.37203 0.775435 0
M  V30 13378 C 1291.33 -2.27584 0.137667 0
M  V30 13379 C 1292.32 -1.46281 -0.670135 0
M  V30 13380 O 1293.51 -1.688 -0.532503 0
M  V30 13381 C 1290.64 -3.3528 -0.73773 0
M  V30 13382 C 1289.72 -4.24028 0.078102 0
M  V30 13383 N 1290.11 -4.93117 1.1256 0
M  V30 13384 C 1288.41 -4.45763 -0.145295 0
M  V30 13385 C 1289.11 -5.58656 1.62107 0
M  V30 13386 N 1288.09 -5.3554 0.932622 0
M  V30 13387 H 1291.89 -2.78475 0.93961 0
M  V30 13388 H 1289.4 -1.50364 0.613544 0
M  V30 13389 H 1291.4 -3.98941 -1.21043 0
M  V30 13390 H 1290.06 -2.85944 -1.53838 0
M  V30 13391 H 1291.07 -4.95465 1.50781 0
M  V30 13392 H 1287.75 -4.07292 -0.917557 0
M  V30 13393 H 1289.14 -6.23866 2.49482 0
M  V30 13394 N 1291.86 -0.526279 -1.48553 0
M  V30 13395 C 1293.09 0.0052277 -2.06899 0
M  V30 13396 C 1293.5 1.2849 -1.38332 0
M  V30 13397 O 1292.86 1.76354 -0.469648 0
M  V30 13398 C 1292.91 0.236709 -3.60724 0
M  V30 13399 O 1292.63 -0.992256 -4.26715 0
M  V30 13400 C 1294.13 0.809014 -4.35855 0
M  V30 13401 H 1291.35 -0.0318426 -0.670244 0
M  V30 13402 H 1293.9 -0.730865 -1.90994 0
M  V30 13403 H 1292.05 0.922842 -3.76248 0
M  V30 13404 H 1292.47 -0.770697 -5.18807 0
M  V30 13405 H 1293.94 0.920428 -5.44272 0
M  V30 13406 H 1294.42 1.81302 -4.00033 0
M  V30 13407 H 1295.02 0.159564 -4.25001 0
M  V30 13408 N 1293.34 1.5542 -0.261239 0
M  V30 13409 C 1294.56 2.04142 0.366144 0
M  V30 13410 C 1294.99 1.13884 1.49706 0
M  V30 13411 O 1294.35 0.134629 1.80799 0
M  V30 13412 C 1294.39 3.50733 0.837774 0
M  V30 13413 O 1293.5 3.63588 1.94621 0
M  V30 13414 H 1292.84 0.659424 0.077821 0
M  V30 13415 H 1295.37 2.0082 -0.391487 0
M  V30 13416 H 1295.38 3.91831 1.13721 0
M  V30 13417 H 1294.05 4.15899 0.0102742 0
M  V30 13418 H 1292.63 3.34391 1.65037 0
M  V30 13419 N 1294.82 -0.0116844 1.57596 0
M  V30 13420 C 1295.75 -1.03477 2.04512 0
M  V30 13421 C 1296.76 -1.31414 0.960945 0
M  V30 13422 O 1297.95 -1.28596 1.23796 0
M  V30 13423 C 1295.05 -2.37234 2.42019 0
M  V30 13424 C 1294.22 -2.28405 3.73028 0
M  V30 13425 C 1293.28 -3.44753 3.97532 0
M  V30 13426 O 1292.31 -3.23465 4.68358 0
M  V30 13427 N 1293.51 -4.67212 3.44518 0
M  V30 13428 H 1296.27 -0.634758 2.92901 0
M  V30 13429 H 1293.84 -0.1993 1.60669 0
M  V30 13430 H 1295.83 -3.13821 2.55535 0
M  V30 13431 H 1294.4 -2.69018 1.5921 0
M  V30 13432 H 1293.62 -1.36804 3.697 0
M  V30 13433 H 1294.91 -2.19666 4.58938 0
M  V30 13434 H 1294.3 -4.87407 2.87142 0
M  V30 13435 H 1292.86 -5.41105 3.63384 0
M  V30 13436 N 1296.29 -1.55015 -0.284256 0
M  V30 13437 C 1297.24 -1.87122 -1.35107 0
M  V30 13438 C 1298.21 -0.721638 -1.49605 0
M  V30 13439 O 1299.4 -0.971855 -1.64194 0
M  V30 13440 C 1296.54 -2.1388 -2.70831 0
M  V30 13441 C 1295.65 -3.41447 -2.64647 0
M  V30 13442 C 1294.78 -3.57961 -3.92476 0
M  V30 13443 C 1293.82 -4.79261 -3.80757 0
M  V30 13444 N 1292.96 -4.92492 -5.00395 0
M  V30 13445 H 1297.8 -2.78117 -1.07027 0
M  V30 13446 H 1295.34 -1.37704 -0.517311 0
M  V30 13447 H 1297.29 -2.27391 -3.49784 0
M  V30 13448 H 1295.92 -1.26132 -2.97137 0
M  V30 13449 H 1294.98 -3.36467 -1.77466 0
M  V30 13450 H 1296.29 -4.3053 -2.51884 0
M  V30 13451 H 1295.44 -3.71229 -4.79868 0
M  V30 13452 H 1294.18 -2.67042 -4.08093 0
M  V30 13453 H 1293.19 -4.66008 -2.91747 0
M  V30 13454 H 1294.41 -5.71604 -3.66669 0
M  V30 13455 H 1292.36 -4.04501 -5.16445 0
M  V30 13456 H 1292.27 -5.75603 -4.9012 0
M  V30 13457 H 1293.54 -5.10134 -5.89392 0
M  V30 13458 N 1297.77 0.548248 -1.47757 0
M  V30 13459 C 1299.02 1.30139 -1.54099 0
M  V30 13460 C 1299.33 1.9445 -0.2118 0
M  V30 13461 O 1300.54 2.71067 -0.153302 0
M  V30 13462 C 1299 2.36039 -2.71687 0
M  V30 13463 C 1298.6 1.77879 -4.11173 0
M  V30 13464 C 1300.35 3.12478 -2.87329 0
M  V30 13465 C 1298.25 2.81611 -5.20047 0
M  V30 13466 H 1297.18 0.489364 -0.573619 0
M  V30 13467 H 1299.84 0.581237 -1.74051 0
M  V30 13468 H 1298.22 3.11008 -2.45132 0
M  V30 13469 H 1299.39 1.09221 -4.47669 0
M  V30 13470 H 1297.71 1.13994 -4.00493 0
M  V30 13471 H 1300.3 3.89958 -3.65837 0
M  V30 13472 H 1300.65 3.67218 -1.96103 0
M  V30 13473 H 1301.18 2.4462 -3.13697 0
M  V30 13474 H 1297.92 2.31714 -6.13179 0
M  V30 13475 H 1297.44 3.48652 -4.88059 0
M  V30 13476 H 1299.12 3.44938 -5.47382 0
M  V30 13477 N 1299.25 1.36039 0.795694 0
M  V30 13478 C 1300.2 1.26386 1.89765 0
M  V30 13479 C 1301.18 0.156711 1.60135 0
M  V30 13480 O 1302.38 0.388946 1.72674 0
M  V30 13481 C 1299.5 1.04907 3.26878 0
M  V30 13482 C 1298.59 2.20061 3.62538 0
M  V30 13483 N 1298.98 3.45347 3.69553 0
M  V30 13484 C 1297.28 2.11688 3.92561 0
M  V30 13485 C 1297.98 4.21138 4.0127 0
M  V30 13486 N 1296.96 3.5001 4.15925 0
M  V30 13487 H 1300.76 2.21295 1.93405 0
M  V30 13488 H 1298.27 1.28668 0.990877 0
M  V30 13489 H 1300.27 0.960791 4.05678 0
M  V30 13490 H 1298.93 0.108921 3.24517 0
M  V30 13491 H 1299.94 3.79561 3.52355 0
M  V30 13492 H 1296.62 1.25592 3.98162 0
M  V30 13493 H 1298.01 5.29456 4.13673 0
M  V30 13494 N 1300.73 -1.01913 1.20215 0
M  V30 13495 C 1302.14 -1.27766 0.956459 0
M  V30 13496 C 1302.34 -1.98158 -0.365486 0
M  V30 13497 O 1301.4 -2.27539 -1.09463 0
M  V30 13498 C 1302.71 -2.11516 2.13732 0
M  V30 13499 C 1304.26 -2.24792 2.17802 0
M  V30 13500 C 1304.74 -3.11919 3.35367 0
M  V30 13501 N 1306.23 -3.19507 3.35364 0
M  V30 13502 C 1306.96 -3.8714 4.22978 0
M  V30 13503 N 1306.46 -4.5692 5.20765 0
M  V30 13504 N 1308.25 -3.83638 4.10827 0
M  V30 13505 H 1300.4 -0.546426 2.05251 0
M  V30 13506 H 1302.67 -0.303772 0.898012 0
M  V30 13507 H 1302.37 -1.67127 3.09453 0
M  V30 13508 H 1302.25 -3.12249 2.11614 0
M  V30 13509 H 1304.63 -2.68407 1.22645 0
M  V30 13510 H 1304.71 -1.23576 2.2397 0
M  V30 13511 H 1304.36 -2.6901 4.30809 0
M  V30 13512 H 1304.29 -4.13215 3.26436 0
M  V30 13513 H 1306.78 -2.69819 2.64587 0
M  V30 13514 H 1307.09 -5.06188 5.83947 0
M  V30 13515 H 1305.44 -4.55753 5.24704 0
M  V30 13516 H 1308.63 -3.28268 3.33703 0
M  V30 13517 H 1308.8 -4.36071 4.79318 0
M  V30 13518 N 1302.21 -1.00763 -1.2118 0
M  V30 13519 C 1303.17 -0.575183 -2.21865 0
M  V30 13520 C 1304.17 0.349871 -1.56948 0
M  V30 13521 O 1305.36 0.139795 -1.73638 0
M  V30 13522 C 1302.49 0.161308 -3.40518 0
M  V30 13523 H 1303.68 -1.46578 -2.61639 0
M  V30 13524 H 1301.24 -0.79643 -1.34487 0
M  V30 13525 H 1301.97 1.06723 -3.06236 0
M  V30 13526 H 1301.76 -0.503101 -3.88859 0
M  V30 13527 H 1303.25 0.451527 -4.15152 0
M  V30 13528 N 1303.68 1.3679 -0.7827 0
M  V30 13529 C 1304.61 2.32721 -0.190604 0
M  V30 13530 C 1305.6 1.56321 0.670663 0
M  V30 13531 O 1306.78 1.84507 0.605871 0
M  V30 13532 C 1303.91 3.40564 0.680717 0
M  V30 13533 C 1302.86 4.27925 -0.080118 0
M  V30 13534 C 1302.19 5.26876 0.911361 0
M  V30 13535 C 1303.49 5.06738 -1.26545 0
M  V30 13536 H 1305.18 2.82488 -0.992023 0
M  V30 13537 H 1302.73 1.35818 -0.478484 0
M  V30 13538 H 1304.68 4.06659 1.10482 0
M  V30 13539 H 1303.41 2.89348 1.51477 0
M  V30 13540 H 1302.07 3.63376 -0.485125 0
M  V30 13541 H 1301.71 4.71936 1.74026 0
M  V30 13542 H 1301.41 5.8619 0.406762 0
M  V30 13543 H 1302.94 5.95846 1.33418 0
M  V30 13544 H 1304.35 5.65911 -0.917448 0
M  V30 13545 H 1302.75 5.75432 -1.70289 0
M  V30 13546 H 1303.82 4.38772 -2.06415 0
M  V30 13547 N 1305.16 0.53415 1.48272 0
M  V30 13548 C 1306.11 -0.239672 2.31362 0
M  V30 13549 C 1307.1 -0.931501 1.4149 0
M  V30 13550 O 1308.31 -0.855411 1.58375 0
M  V30 13551 H 1304.69 -0.09616 0.745827 0
M  V30 13552 H 1306.66 0.480638 2.94504 0
M  V30 13553 C 1305.41 -1.27102 3.23636 0
M  V30 13554 H 1304.73 -0.748082 3.92739 0
M  V30 13555 H 1306.17 -1.78379 3.84652 0
M  V30 13556 C 1304.63 -2.30683 2.45534 0
M  V30 13557 O 1305.16 -3.37197 2.18314 0
M  V30 13558 N 1303.36 -2.04006 2.06954 0
M  V30 13559 H 1302.91 -1.17403 2.29291 0
M  V30 13560 H 1302.87 -2.73531 1.5501 0
M  V30 13561 N 1306.64 -1.55279 0.269478 0
M  V30 13562 C 1307.87 -2.03876 -0.352418 0
M  V30 13563 C 1308.28 -1.14804 -1.49885 0
M  V30 13564 O 1307.64 -0.166989 -1.81734 0
M  V30 13565 C 1307.69 -3.51634 -0.838799 0
M  V30 13566 O 1307.41 -4.37316 0.261972 0
M  V30 13567 C 1308.91 -4.16094 -1.52909 0
M  V30 13568 H 1306.13 -0.66608 -0.0811043 0
M  V30 13569 H 1308.68 -2.00551 0.399929 0
M  V30 13570 H 1306.83 -3.55421 -1.54125 0
M  V30 13571 H 1307.25 -5.24383 -0.111013 0
M  V30 13572 H 1308.72 -5.21102 -1.82089 0
M  V30 13573 H 1309.2 -3.63928 -2.45872 0
M  V30 13574 H 1309.8 -4.16293 -0.87063 0
M  V30 13575 N 1308.12 0.00332656 -1.576 0
M  V30 13576 C 1309.03 1.01221 -2.1164 0
M  V30 13577 C 1310.04 1.37918 -1.06088 0
M  V30 13578 O 1311.22 1.46717 -1.37971 0
M  V30 13579 C 1308.29 2.28638 -2.60626 0
M  V30 13580 C 1307.35 1.98284 -3.80765 0
M  V30 13581 C 1306.58 3.19626 -4.27405 0
M  V30 13582 O 1306.8 4.31196 -3.73398 0
M  V30 13583 O 1305.74 3.03819 -5.19594 0
M  V30 13584 H 1309.56 0.582839 -2.98055 0
M  V30 13585 H 1307.15 0.221947 -1.47742 0
M  V30 13586 H 1309.03 3.03498 -2.92347 0
M  V30 13587 H 1307.7 2.70819 -1.7731 0
M  V30 13588 H 1306.61 1.2091 -3.54022 0
M  V30 13589 H 1307.94 1.60942 -4.65144 0
M  V30 13590 N 1309.6 1.55164 0.276031 0
M  V30 13591 C 1311.01 1.66367 0.847293 0
M  V30 13592 C 1311.36 0.588692 1.8716 0
M  V30 13593 O 1310.48 -0.27035 2.14705 0
M  V30 13594 C 1311.08 3.01593 1.5436 0
M  V30 13595 C 1309.64 3.14833 2.06293 0
M  V30 13596 C 1308.78 2.62152 0.903959 0
M  V30 13597 H 1311.74 1.58613 0.0524478 0
M  V30 13598 H 1311.76 2.94412 2.41043 0
M  V30 13599 H 1311.27 3.7981 0.797849 0
M  V30 13600 H 1309.37 2.41384 2.83839 0
M  V30 13601 H 1309.48 4.21353 2.28032 0
M  V30 13602 H 1307.85 2.19233 1.29649 0
M  V30 13603 H 1308.63 3.4287 0.171765 0
M  V30 13604 N 1311.07 -0.540404 1.48045 0
M  V30 13605 C 1312.49 -1.12243 1.49192 0
M  V30 13606 C 1312.84 -1.94524 0.255895 0
M  V30 13607 O 1311.96 -2.06786 -0.637855 0
M  V30 13608 C 1312.56 -2.04227 2.70327 0
M  V30 13609 C 1311.12 -2.57668 2.7438 0
M  V30 13610 C 1310.26 -1.34402 2.42552 0
M  V30 13611 H 1313.21 -0.326165 1.55312 0
M  V30 13612 H 1313.23 -2.88359 2.48253 0
M  V30 13613 H 1312.75 -1.44314 3.60271 0
M  V30 13614 H 1310.85 -3.21331 1.88618 0
M  V30 13615 H 1310.96 -2.97514 3.7553 0
M  V30 13616 H 1309.32 -1.65635 1.93487 0
M  V30 13617 H 1310.11 -0.762571 3.34723 0
M  V30 13618 N 1312.55 -1.36459 -0.788468 0
M  V30 13619 C 1313.46 -1.33017 -1.93245 0
M  V30 13620 C 1314.48 -0.232212 -1.72444 0
M  V30 13621 O 1315.65 -0.464743 -1.95965 0
M  V30 13622 C 1312.72 -1.1197 -3.28121 0
M  V30 13623 C 1311.78 -2.3125 -3.61693 0
M  V30 13624 C 1311.01 -2.11197 -4.90134 0
M  V30 13625 O 1311.24 -1.08764 -5.59934 0
M  V30 13626 O 1310.17 -2.98996 -5.22384 0
M  V30 13627 H 1314 -2.29333 -1.99098 0
M  V30 13628 H 1311.58 -1.17016 -0.928856 0
M  V30 13629 H 1313.46 -1.02154 -4.08831 0
M  V30 13630 H 1312.14 -0.187171 -3.23158 0
M  V30 13631 H 1311.05 -2.46635 -2.81286 0
M  V30 13632 H 1312.38 -3.23012 -3.71381 0
M  V30 13633 N 1314.03 1.01274 -1.20754 0
M  V30 13634 C 1315.28 1.74586 -1.01804 0
M  V30 13635 C 1315.6 1.89727 0.450419 0
M  V30 13636 O 1314.87 1.44257 1.32539 0
M  V30 13637 H 1313.45 0.646804 -0.373702 0
M  V30 13638 H 1316.11 1.22079 -1.5193 0
M  V30 13639 H 1315.21 2.748 -1.47958 0
M  V30 13640 N 1315.51 1.01404 1.20644 0
M  V30 13641 C 1316.73 0.720839 1.9447 0
M  V30 13642 C 1317.16 -0.711711 1.74116 0
M  V30 13643 O 1316.52 -1.48938 1.03379 0
M  V30 13644 C 1316.57 1.05864 3.4471 0
M  V30 13645 O 1315.67 0.168901 4.12054 0
M  V30 13646 H 1315.01 0.267698 0.607646 0
M  V30 13647 H 1317.54 1.35672 1.53147 0
M  V30 13648 H 1317.55 1.00928 3.9532 0
M  V30 13649 H 1316.23 2.1024 3.58848 0
M  V30 13650 H 1314.8 0.275572 3.7188 0
M  V30 13651 N 1316.99 -1.36373 0.789944 0
M  V30 13652 C 1317.93 -2.30043 0.186798 0
M  V30 13653 C 1318.9 -1.52002 -0.669663 0
M  V30 13654 O 1320.09 -1.80506 -0.618232 0
M  V30 13655 C 1317.23 -3.38494 -0.671994 0
M  V30 13656 C 1316.34 -4.31522 0.203067 0
M  V30 13657 C 1315.48 -5.27057 -0.662148 0
M  V30 13658 C 1314.52 -6.11725 0.214335 0
M  V30 13659 N 1313.65 -6.99446 -0.609892 0
M  V30 13660 H 1318.49 -2.81038 0.991048 0
M  V30 13661 H 1316.03 -1.38331 0.500288 0
M  V30 13662 H 1317.99 -4.0002 -1.1849 0
M  V30 13663 H 1316.62 -2.88818 -1.44167 0
M  V30 13664 H 1315.67 -3.71146 0.833945 0
M  V30 13665 H 1316.98 -4.91005 0.878389 0
M  V30 13666 H 1316.14 -5.93875 -1.24084 0
M  V30 13667 H 1314.88 -4.6803 -1.37109 0
M  V30 13668 H 1313.88 -5.43868 0.805426 0
M  V30 13669 H 1315.11 -6.72827 0.92089 0
M  V30 13670 H 1313.05 -6.42927 -1.30312 0
M  V30 13671 H 1312.97 -7.56 0.00773786 0
M  V30 13672 H 1314.24 -7.70633 -1.1724 0
M  V30 13673 N 1318.47 -0.542005 -1.47987 0
M  V30 13674 C 1319.38 0.217677 -2.33588 0
M  V30 13675 C 1320.39 0.927093 -1.47245 0
M  V30 13676 O 1321.57 0.899378 -1.80203 0
M  V30 13677 C 1318.63 1.24376 -3.23622 0
M  V30 13678 C 1317.69 0.543407 -4.25847 0
M  V30 13679 C 1316.93 1.5206 -5.11579 0
M  V30 13680 O 1317.15 2.75425 -4.99497 0
M  V30 13681 O 1316.08 1.05341 -5.9261 0
M  V30 13682 H 1319.91 -0.484089 -2.99817 0
M  V30 13683 H 1317.49 -0.302783 -1.463 0
M  V30 13684 H 1319.38 1.83644 -3.7928 0
M  V30 13685 H 1318.05 1.92772 -2.6004 0
M  V30 13686 H 1316.96 -0.090074 -3.73992 0
M  V30 13687 H 1318.29 -0.0988264 -4.92101 0
M  V30 13688 N 1319.94 1.55134 -0.277709 0
M  V30 13689 C 1320.85 2.26296 0.618658 0
M  V30 13690 C 1321.87 1.28978 1.16794 0
M  V30 13691 O 1323.05 1.61918 1.19768 0
M  V30 13692 C 1320.11 2.97214 1.78508 0
M  V30 13693 C 1319.17 4.10016 1.27221 0
M  V30 13694 C 1318.4 4.77543 2.38304 0
M  V30 13695 O 1318.63 4.44293 3.57715 0
M  V30 13696 O 1317.56 5.65437 2.06313 0
M  V30 13697 H 1321.39 3.03671 0.0421031 0
M  V30 13698 H 1318.97 1.49332 -0.0450166 0
M  V30 13699 H 1320.85 3.41773 2.46513 0
M  V30 13700 H 1319.53 2.22753 2.34867 0
M  V30 13701 H 1318.44 3.69907 0.558544 0
M  V30 13702 H 1319.77 4.86385 0.754333 0
M  V30 13703 N 1321.42 0.00503138 1.57599 0
M  V30 13704 C 1322.65 -0.689609 1.95069 0
M  V30 13705 C 1323.06 -1.67028 0.880183 0
M  V30 13706 O 1322.42 -1.81959 -0.140406 0
M  V30 13707 C 1322.47 -1.41709 3.32567 0
M  V30 13708 O 1322.19 -0.475746 4.35509 0
M  V30 13709 C 1323.69 -2.20578 3.84526 0
M  V30 13710 H 1320.91 -0.19175 0.643019 0
M  V30 13711 H 1323.46 0.057646 2.04419 0
M  V30 13712 H 1321.61 -2.11593 3.2451 0
M  V30 13713 H 1322.03 -0.989573 5.1508 0
M  V30 13714 H 1323.5 -2.66969 4.83148 0
M  V30 13715 H 1323.98 -3.03467 3.17497 0
M  V30 13716 H 1324.58 -1.557 3.95775 0
M  V30 13717 N 1322.9 -1.55308 -0.267798 0
M  V30 13718 C 1323.86 -1.87765 -1.31442 0
M  V30 13719 C 1324.86 -0.752571 -1.42102 0
M  V30 13720 O 1326.05 -1.02072 -1.41163 0
M  V30 13721 C 1323.18 -2.08754 -2.69508 0
M  V30 13722 H 1324.38 -2.8133 -1.03891 0
M  V30 13723 H 1321.93 -1.47879 -0.506111 0
M  V30 13724 H 1322.67 -1.17588 -3.02231 0
M  V30 13725 H 1322.45 -2.90674 -2.63156 0
M  V30 13726 H 1323.94 -2.3512 -3.4512 0
M  V30 13727 N 1324.38 0.532545 -1.4833 0
M  V30 13728 C 1325.29 1.66433 -1.65339 0
M  V30 13729 C 1326.3 1.65541 -0.535939 0
M  V30 13730 O 1327.48 1.84539 -0.806679 0
M  V30 13731 C 1324.54 3.02901 -1.68676 0
M  V30 13732 C 1323.61 3.14669 -2.92031 0
M  V30 13733 C 1322.84 4.44627 -2.95199 0
M  V30 13734 O 1323.06 5.31572 -2.06851 0
M  V30 13735 O 1322 4.60707 -3.87341 0
M  V30 13736 H 1325.82 1.5502 -2.61156 0
M  V30 13737 H 1323.41 0.705348 -1.31701 0
M  V30 13738 H 1325.29 3.84068 -1.73407 0
M  V30 13739 H 1323.96 3.14644 -0.760327 0
M  V30 13740 H 1322.87 2.32807 -2.92834 0
M  V30 13741 H 1324.2 3.07841 -3.8405 0
M  V30 13742 N 1325.86 1.36875 0.78122 0
M  V30 13743 C 1326.82 1.31706 1.8758 0
M  V30 13744 C 1327.82 0.223044 1.59246 0
M  V30 13745 O 1329.01 0.478327 1.67504 0
M  V30 13746 C 1326.14 1.0437 3.2453 0
M  V30 13747 H 1327.33 2.29059 1.93576 0
M  V30 13748 H 1324.89 1.21766 0.979931 0
M  V30 13749 H 1325.62 0.0750941 3.24213 0
M  V30 13750 H 1325.41 1.83548 3.46486 0
M  V30 13751 H 1326.9 1.0338 4.04602 0
M  V30 13752 N 1327.33 -1.00632 1.21289 0
M  V30 13753 C 1328.24 -2.12829 0.986957 0
M  V30 13754 C 1329.26 -1.73895 -0.0605152 0
M  V30 13755 O 1330.44 -2.00985 0.129238 0
M  V30 13756 C 1327.5 -3.4226 0.553089 0
M  V30 13757 C 1326.56 -3.95376 1.67262 0
M  V30 13758 C 1325.79 -5.18629 1.25936 0
M  V30 13759 O 1326.02 -5.70246 0.132402 0
M  V30 13760 O 1324.95 -5.65157 2.07077 0
M  V30 13761 H 1328.78 -2.34765 1.92663 0
M  V30 13762 H 1326.36 -1.11208 0.997654 0
M  V30 13763 H 1328.24 -4.20177 0.320856 0
M  V30 13764 H 1326.92 -3.21716 -0.357881 0
M  V30 13765 H 1325.83 -3.18692 1.95924 0
M  V30 13766 H 1327.16 -4.20328 2.56097 0
M  V30 13767 N 1328.81 -1.02043 -1.20104 0
M  V30 13768 C 1330.22 -0.742954 -1.71281 0
M  V30 13769 C 1330.57 0.738173 -1.81784 0
M  V30 13770 O 1329.7 1.57588 -1.48307 0
M  V30 13771 C 1330.29 -1.342 -3.11088 0
M  V30 13772 C 1328.85 -1.11331 -3.59559 0
M  V30 13773 C 1328 -1.44532 -2.36655 0
M  V30 13774 H 1330.95 -1.18942 -1.05064 0
M  V30 13775 H 1330.97 -0.734558 -3.73342 0
M  V30 13776 H 1330.48 -2.41998 -3.03411 0
M  V30 13777 H 1328.58 -0.05317 -3.72562 0
M  V30 13778 H 1328.7 -1.79606 -4.4416 0
M  V30 13779 H 1327.06 -0.864431 -2.39582 0
M  V30 13780 H 1327.84 -2.53394 -2.31616 0
M  V30 13781 N 1330.29 1.35952 -0.797165 0
M  V30 13782 C 1331.52 2.0381 -0.38421 0
M  V30 13783 C 1331.94 1.597 0.993854 0
M  V30 13784 O 1331.3 0.769148 1.64176 0
M  V30 13785 C 1331.35 3.57589 -0.465054 0
M  V30 13786 O 1330.45 4.09043 0.525095 0
M  V30 13787 H 1329.79 0.643957 -0.161912 0
M  V30 13788 H 1332.32 1.73746 -1.08043 0
M  V30 13789 H 1332.33 4.06651 -0.331448 0
M  V30 13790 H 1331.01 3.89045 -1.47027 0
M  V30 13791 H 1329.58 3.7123 0.352509 0
M  V30 13792 N 1331.77 0.549846 1.47697 0
M  V30 13793 C 1333.02 0.0230048 2.02087 0
M  V30 13794 C 1333.34 -1.32865 1.4273 0
M  V30 13795 O 1332.61 -1.86492 0.59981 0
M  V30 13796 H 1331.19 0.00551514 0.74698 0
M  V30 13797 H 1333.85 0.718185 1.81185 0
M  V30 13798 H 1332.95 -0.0705813 3.1202 0
M  V30 13799 N 1333.25 -1.54984 0.285932 0
M  V30 13800 C 1334.66 -1.85519 -0.209707 0
M  V30 13801 C 1335.01 -1.20794 -1.54606 0
M  V30 13802 O 1334.13 -0.500159 -2.10541 0
M  V30 13803 C 1334.73 -3.36579 -0.387283 0
M  V30 13804 C 1333.29 -3.67199 -0.827148 0
M  V30 13805 C 1332.43 -2.77203 0.073308 0
M  V30 13806 H 1335.39 -1.5037 0.507404 0
M  V30 13807 H 1335.41 -3.60269 -1.2242 0
M  V30 13808 H 1334.92 -3.83658 0.585493 0
M  V30 13809 H 1333.02 -3.25627 -1.81101 0
M  V30 13810 H 1333.13 -4.74574 -0.656976 0
M  V30 13811 H 1331.5 -2.50785 -0.444859 0
M  V30 13812 H 1332.28 -3.27099 1.04216 0
M  V30 13813 N 1334.72 -0.0133892 -1.57594 0
M  V30 13814 C 1335.63 0.989701 -2.12702 0
M  V30 13815 C 1336.65 1.36785 -1.07545 0
M  V30 13816 O 1337.83 1.45246 -1.39519 0
M  V30 13817 C 1334.89 2.2586 -2.63036 0
M  V30 13818 C 1333.95 1.94234 -3.82847 0
M  V30 13819 C 1333.19 3.15075 -4.30771 0
M  V30 13820 O 1333.41 4.27212 -3.7795 0
M  V30 13821 O 1332.34 2.98291 -5.22787 0
M  V30 13822 H 1336.17 0.551194 -2.98656 0
M  V30 13823 H 1333.75 0.206264 -1.47969 0
M  V30 13824 H 1335.64 3.0038 -2.9555 0
M  V30 13825 H 1334.31 2.68923 -1.80173 0
M  V30 13826 H 1333.22 1.17148 -3.55285 0
M  V30 13827 H 1334.55 1.55999 -4.66824 0
M  V30 13828 N 1336.2 1.55448 0.259558 0
M  V30 13829 C 1337.45 1.76948 0.990816 0
M  V30 13830 C 1337.78 0.576401 1.85449 0
M  V30 13831 O 1337.06 -0.425693 1.89784 0
M  V30 13832 C 1337.34 3.08221 1.86204 0
M  V30 13833 C 1337.19 4.37909 1.0274 0
M  V30 13834 C 1338.51 3.35627 2.84679 0
M  V30 13835 H 1335.63 0.64377 0.358788 0
M  V30 13836 H 1338.27 1.88182 0.262211 0
M  V30 13837 H 1336.42 2.98775 2.48326 0
M  V30 13838 H 1338.09 4.5933 0.425855 0
M  V30 13839 H 1336.34 4.32533 0.331308 0
M  V30 13840 H 1337.01 5.26116 1.6705 0
M  V30 13841 H 1339.48 3.44954 2.32693 0
M  V30 13842 H 1338.36 4.28719 3.42769 0
M  V30 13843 H 1338.62 2.55921 3.60496 0
M  V30 13844 N 1337.68 -0.524672 1.4861 0
M  V30 13845 C 1338.59 -1.65554 1.6622 0
M  V30 13846 C 1339.61 -1.65254 0.54471 0
M  V30 13847 O 1340.78 -1.84109 0.816454 0
M  V30 13848 C 1337.85 -3.02003 1.7028 0
M  V30 13849 C 1336.91 -3.13116 2.93695 0
M  V30 13850 C 1336.14 -4.43055 2.97553 0
M  V30 13851 O 1336.36 -5.30468 2.09667 0
M  V30 13852 O 1335.3 -4.58646 3.89779 0
M  V30 13853 H 1339.12 -1.53633 2.61974 0
M  V30 13854 H 1336.71 -0.698354 1.32073 0
M  V30 13855 H 1338.59 -3.83143 1.75441 0
M  V30 13856 H 1337.27 -3.14236 0.777002 0
M  V30 13857 H 1336.17 -2.31251 2.94064 0
M  V30 13858 H 1337.51 -3.058 3.85677 0
M  V30 13859 N 1339.16 -1.37287 -0.77395 0
M  V30 13860 C 1340.09 -1.28746 -1.89624 0
M  V30 13861 C 1341.1 -0.203715 -1.6152 0
M  V30 13862 O 1342.29 -0.459684 -1.72479 0
M  V30 13863 C 1339.39 -0.967342 -3.24801 0
M  V30 13864 C 1338.57 -2.1561 -3.80567 0
M  V30 13865 C 1337.62 -1.80661 -4.94215 0
M  V30 13866 O 1336.65 -2.5293 -5.09917 0
M  V30 13867 N 1337.85 -0.749424 -5.75642 0
M  V30 13868 H 1340.62 -2.25447 -1.97468 0
M  V30 13869 H 1338.18 -1.30883 -0.952956 0
M  V30 13870 H 1340.17 -0.714421 -3.98344 0
M  V30 13871 H 1338.74 -0.0889573 -3.12473 0
M  V30 13872 H 1337.96 -2.57091 -2.98828 0
M  V30 13873 H 1339.25 -2.94993 -4.14556 0
M  V30 13874 H 1338.65 -0.149673 -5.65502 0
M  V30 13875 H 1337.2 -0.556358 -6.49421 0
M  V30 13876 N 1340.64 0.999871 -1.21821 0
M  V30 13877 C 1341.57 2.09044 -0.939852 0
M  V30 13878 C 1342.58 1.62609 0.0788987 0
M  V30 13879 O 1343.77 1.77832 -0.154241 0
M  V30 13880 C 1340.87 3.36641 -0.390618 0
M  V30 13881 C 1340.04 4.12139 -1.46493 0
M  V30 13882 C 1339.1 5.18023 -0.924019 0
M  V30 13883 O 1338.13 5.45996 -1.60864 0
M  V30 13884 N 1339.33 5.79926 0.258136 0
M  V30 13885 H 1342.1 2.33506 -1.8787 0
M  V30 13886 H 1339.66 1.16509 -1.12415 0
M  V30 13887 H 1341.65 4.04697 -0.0142349 0
M  V30 13888 H 1340.22 3.09298 0.453176 0
M  V30 13889 H 1339.44 3.38813 -2.01494 0
M  V30 13890 H 1340.73 4.59354 -2.18795 0
M  V30 13891 H 1340.12 5.59559 0.831288 0
M  V30 13892 H 1338.68 6.4925 0.575977 0
M  V30 13893 N 1342.11 1.02678 1.19562 0
M  V30 13894 C 1343.05 0.563882 2.22155 0
M  V30 13895 C 1344.06 -0.359132 1.58789 0
M  V30 13896 O 1345.25 -0.155857 1.77818 0
M  V30 13897 C 1342.35 -0.197894 3.38322 0
M  V30 13898 C 1341.52 0.729542 4.31273 0
M  V30 13899 C 1340.58 0.013543 5.26198 0
M  V30 13900 O 1339.61 0.639417 5.65597 0
M  V30 13901 N 1340.81 -1.25791 5.66707 0
M  V30 13902 H 1343.57 1.44623 2.62496 0
M  V30 13903 H 1341.13 0.90555 1.34207 0
M  V30 13904 H 1343.13 -0.686381 3.98837 0
M  V30 13905 H 1341.7 -0.981632 2.96787 0
M  V30 13906 H 1340.92 1.39816 3.68572 0
M  V30 13907 H 1342.2 1.35994 4.90289 0
M  V30 13908 H 1341.6 -1.78716 5.36728 0
M  V30 13909 H 1340.16 -1.69093 6.29485 0
M  V30 13910 N 1343.59 -1.35528 0.804364 0
M  V30 13911 C 1344.52 -2.28562 0.170893 0
M  V30 13912 C 1345.54 -1.50178 -0.628526 0
M  V30 13913 O 1346.73 -1.72438 -0.461252 0
M  V30 13914 C 1343.83 -3.29792 -0.780434 0
M  V30 13915 C 1343 -4.37391 -0.0278619 0
M  V30 13916 C 1342.06 -5.18492 -0.897341 0
M  V30 13917 O 1341.08 -5.68128 -0.349098 0
M  V30 13918 N 1342.29 -5.36385 -2.21971 0
M  V30 13919 H 1345.05 -2.83565 0.970108 0
M  V30 13920 H 1342.61 -1.47854 0.659617 0
M  V30 13921 H 1344.6 -3.80939 -1.36628 0
M  V30 13922 H 1343.17 -2.7532 -1.48046 0
M  V30 13923 H 1342.39 -3.87208 0.739178 0
M  V30 13924 H 1343.68 -5.06426 0.490889 0
M  V30 13925 H 1343.08 -4.97699 -2.6891 0
M  V30 13926 H 1341.64 -5.90721 -2.75485 0
M  V30 13927 N 1345.07 -0.557671 -1.47404 0
M  V30 13928 C 1346 0.227253 -2.28071 0
M  V30 13929 C 1347.02 0.878951 -1.37034 0
M  V30 13930 O 1348.21 0.752725 -1.61853 0
M  V30 13931 C 1345.31 1.33942 -3.11308 0
M  V30 13932 C 1344.48 0.784425 -4.30309 0
M  V30 13933 C 1343.54 1.78114 -4.95138 0
M  V30 13934 O 1342.56 1.32708 -5.53514 0
M  V30 13935 N 1343.77 3.11453 -4.89875 0
M  V30 13936 H 1346.53 -0.464709 -2.96075 0
M  V30 13937 H 1344.09 -0.393777 -1.57038 0
M  V30 13938 H 1346.08 2.00495 -3.51545 0
M  V30 13939 H 1344.65 1.93461 -2.45543 0
M  V30 13940 H 1343.87 -0.0578917 -3.94157 0
M  V30 13941 H 1345.16 0.39298 -5.0728 0
M  V30 13942 H 1344.56 3.50987 -4.43649 0
M  V30 13943 H 1343.12 3.73563 -5.34129 0
M  V30 13944 N 1346.55 1.54831 -0.294147 0
M  V30 13945 C 1347.48 2.20696 0.61854 0
M  V30 13946 C 1348.49 1.19754 1.10285 0
M  V30 13947 O 1349.68 1.46383 1.02148 0
M  V30 13948 C 1346.78 2.83429 1.85798 0
M  V30 13949 C 1345.96 4.10239 1.51731 0
M  V30 13950 C 1345.02 4.56841 2.61119 0
M  V30 13951 O 1344.04 5.22194 2.26501 0
M  V30 13952 N 1345.24 4.2858 3.91534 0
M  V30 13953 H 1348.01 2.9965 0.054714 0
M  V30 13954 H 1345.57 1.61484 -0.116052 0
M  V30 13955 H 1347.56 3.11541 2.5831 0
M  V30 13956 H 1346.13 2.08356 2.33038 0
M  V30 13957 H 1345.35 3.89212 0.625142 0
M  V30 13958 H 1346.64 4.92824 1.26499 0
M  V30 13959 H 1346.04 3.7621 4.22472 0
M  V30 13960 H 1344.59 4.61418 4.60366 0
M  V30 13961 N 1348.03 0.0217466 1.57585 0
M  V30 13962 C 1349.3 -0.696733 1.8277 0
M  V30 13963 C 1349.68 -1.90759 0.904112 0
M  V30 13964 O 1349.03 -2.28461 -0.0420522 0
M  V30 13965 C 1349.24 -1.08193 3.31806 0
M  V30 13966 C 1350.59 -1.47667 3.98095 0
M  V30 13967 O 1351.61 -1.17511 3.36258 0
M  V30 13968 O 1350.47 -2.03825 5.07068 0
M  V30 13969 H 1347.57 -0.341141 0.75336 0
M  V30 13970 H 1350.11 0.0488652 1.6963 0
M  V30 13971 H 1348.89 -0.219799 3.90682 0
M  V30 13972 H 1348.51 -1.88593 3.50026 0
M  V30 13973 N 1349.51 -1.55583 -0.251311 0
M  V30 13974 C 1350.44 -1.86388 -1.33387 0
M  V30 13975 C 1351.45 -0.749829 -1.44504 0
M  V30 13976 O 1352.64 -1.0279 -1.45933 0
M  V30 13977 C 1349.74 -2.0311 -2.71293 0
M  V30 13978 C 1348.91 -3.33937 -2.82498 0
M  V30 13979 C 1347.97 -3.40455 -4.01219 0
M  V30 13980 O 1347 -4.13695 -3.90954 0
M  V30 13981 N 1348.2 -2.69427 -5.14188 0
M  V30 13982 H 1350.96 -2.79834 -1.07298 0
M  V30 13983 H 1348.53 -1.55766 -0.441418 0
M  V30 13984 H 1350.52 -2.04817 -3.49045 0
M  V30 13985 H 1349.09 -1.16429 -2.90109 0
M  V30 13986 H 1348.31 -3.44584 -1.91456 0
M  V30 13987 H 1349.6 -4.20176 -2.86931 0
M  V30 13988 H 1348.99 -2.09647 -5.25419 0
M  V30 13989 H 1347.55 -2.76832 -5.90091 0
M  V30 13990 N 1350.98 0.516783 -1.48886 0
M  V30 13991 C 1352.39 1.09856 -1.50959 0
M  V30 13992 C 1352.75 1.94092 -0.28681 0
M  V30 13993 O 1351.87 2.07774 0.604877 0
M  V30 13994 C 1352.47 1.999 -2.73542 0
M  V30 13995 C 1351.02 2.5327 -2.78444 0
M  V30 13996 C 1350.17 1.30526 -2.44659 0
M  V30 13997 H 1353.12 0.301415 -1.55811 0
M  V30 13998 H 1353.14 2.84373 -2.52809 0
M  V30 13999 H 1352.66 1.38564 -3.62521 0
M  V30 14000 H 1350.76 3.1829 -1.93707 0
M  V30 14001 H 1350.87 2.91502 -3.80215 0
M  V30 14002 H 1349.23 1.62536 -1.96097 0
M  V30 14003 H 1350.02 0.709223 -3.35894 0
M  V30 14004 N 1352.46 1.37696 0.766659 0
M  V30 14005 C 1353.69 1.3639 1.55581 0
M  V30 14006 C 1354.1 -0.0495272 1.88735 0
M  V30 14007 O 1353.46 -1.01268 1.51826 0
M  V30 14008 C 1353.51 2.20717 2.86298 0
M  V30 14009 O 1353.23 3.56552 2.54563 0
M  V30 14010 C 1354.73 2.27446 3.80504 0
M  V30 14011 H 1351.95 0.466993 0.481828 0
M  V30 14012 H 1354.5 1.81103 0.949834 0
M  V30 14013 H 1352.65 1.79499 3.43306 0
M  V30 14014 H 1353.07 4.00811 3.38306 0
M  V30 14015 H 1354.54 2.90762 4.69214 0
M  V30 14016 H 1355.02 1.28434 4.20002 0
M  V30 14017 H 1355.62 2.68998 3.29424 0
M  V30 14018 N 1353.94 -0.993397 1.22349 0
M  V30 14019 C 1354.9 -2.065 0.994506 0
M  V30 14020 C 1355.9 -1.60753 -0.0388766 0
M  V30 14021 O 1357.09 -1.73053 0.199578 0
M  V30 14022 C 1354.22 -3.37182 0.502088 0
M  V30 14023 H 1355.42 -2.28248 1.94533 0
M  V30 14024 H 1352.97 -1.16489 1.04211 0
M  V30 14025 H 1353.71 -3.21119 -0.453114 0
M  V30 14026 H 1353.49 -3.71721 1.24763 0
M  V30 14027 H 1354.98 -4.16027 0.362108 0
M  V30 14028 N 1355.42 -1.03311 -1.19015 0
M  V30 14029 C 1356.83 -0.761079 -1.70483 0
M  V30 14030 C 1357.18 0.718851 -1.82557 0
M  V30 14031 O 1356.3 1.56006 -1.4997 0
M  V30 14032 C 1356.9 -1.37492 -3.09647 0
M  V30 14033 C 1355.46 -1.15138 -3.58358 0
M  V30 14034 C 1354.61 -1.47034 -2.35109 0
M  V30 14035 H 1357.56 -1.2005 -1.03797 0
M  V30 14036 H 1357.58 -0.774115 -3.72542 0
M  V30 14037 H 1357.09 -2.45203 -3.00828 0
M  V30 14038 H 1355.19 -0.0926822 -3.72485 0
M  V30 14039 H 1355.3 -1.84307 -4.4223 0
M  V30 14040 H 1353.67 -0.889794 -2.38652 0
M  V30 14041 H 1354.45 -2.55837 -2.28916 0
M  V30 14042 N 1356.9 1.35099 -0.81154 0
M  V30 14043 C 1357.81 2.33499 -0.22705 0
M  V30 14044 C 1358.82 1.62095 0.632562 0
M  V30 14045 O 1360 1.93938 0.543147 0
M  V30 14046 C 1357.06 3.41279 0.610687 0
M  V30 14047 C 1356.12 4.2845 -0.269994 0
M  V30 14048 C 1355.36 5.31083 0.527854 0
M  V30 14049 O 1355.58 5.42499 1.76213 0
M  V30 14050 O 1354.51 6.01842 -0.083862 0
M  V30 14051 H 1358.34 2.85294 -1.04119 0
M  V30 14052 H 1355.92 1.37957 -0.573432 0
M  V30 14053 H 1357.81 4.07121 1.08768 0
M  V30 14054 H 1356.48 2.91746 1.40235 0
M  V30 14055 H 1355.39 3.65572 -0.794234 0
M  V30 14056 H 1356.72 4.81394 -1.02572 0
M  V30 14057 N 1358.37 0.56548 1.47106 0
M  V30 14058 C 1359.62 0.0444375 2.02051 0
M  V30 14059 C 1359.94 -1.31344 1.44131 0
M  V30 14060 O 1359.21 -1.85845 0.619556 0
M  V30 14061 H 1357.79 0.0134375 0.746879 0
M  V30 14062 H 1360.45 0.737362 1.80413 0
M  V30 14063 H 1359.55 -0.0374834 3.12077 0
M  V30 14064 N 1359.85 -1.54672 0.302354 0
M  V30 14065 C 1361.1 -2.01178 -0.299842 0
M  V30 14066 C 1361.45 -1.18698 -1.51422 0
M  V30 14067 O 1360.75 -0.255677 -1.89886 0
M  V30 14068 C 1360.94 -3.5035 -0.70638 0
M  V30 14069 C 1360.77 -4.47268 0.467051 0
M  V30 14070 C 1359.54 -4.96107 0.959494 0
M  V30 14071 C 1361.74 -4.97272 1.31245 0
M  V30 14072 N 1359.72 -5.76881 2.09955 0
M  V30 14073 C 1361.09 -5.75761 2.29997 0
M  V30 14074 C 1363.15 -4.79455 1.34267 0
M  V30 14075 C 1361.85 -6.38332 3.31549 0
M  V30 14076 C 1363.87 -5.42845 2.34677 0
M  V30 14077 C 1363.24 -6.21168 3.32159 0
M  V30 14078 H 1359.34 -0.778477 -0.0741425 0
M  V30 14079 H 1361.92 -1.89834 0.432577 0
M  V30 14080 H 1360.09 -3.61982 -1.40797 0
M  V30 14081 H 1361.82 -3.83649 -1.28823 0
M  V30 14082 H 1358.58 -4.70577 0.534246 0
M  V30 14083 H 1359 -6.21953 2.67401 0
M  V30 14084 H 1363.64 -4.18482 0.602738 0
M  V30 14085 H 1361.36 -6.98438 4.0646 0
M  V30 14086 H 1364.95 -5.30987 2.37791 0
M  V30 14087 H 1363.83 -6.69349 4.08584 0
M  V30 14088 N 1361.33 -0.0301034 -1.57571 0
M  V30 14089 C 1362.28 0.951421 -2.10277 0
M  V30 14090 C 1363.25 1.3224 -1.00508 0
M  V30 14091 O 1364.43 1.41554 -1.27934 0
M  V30 14092 C 1361.57 2.2282 -2.63525 0
M  V30 14093 C 1360.69 1.91359 -3.87306 0
M  V30 14094 C 1359.82 3.13339 -4.28943 0
M  V30 14095 C 1358.86 2.77701 -5.4548 0
M  V30 14096 N 1358 3.9231 -5.82269 0
M  V30 14097 H 1362.84 0.495049 -2.93859 0
M  V30 14098 H 1360.37 0.232756 -1.45247 0
M  V30 14099 H 1362.33 2.97502 -2.92487 0
M  V30 14100 H 1360.96 2.66072 -1.82772 0
M  V30 14101 H 1360.01 1.06915 -3.65066 0
M  V30 14102 H 1361.33 1.61112 -4.72064 0
M  V30 14103 H 1360.48 3.9634 -4.59347 0
M  V30 14104 H 1359.22 3.46747 -3.42954 0
M  V30 14105 H 1358.22 1.93113 -5.14769 0
M  V30 14106 H 1359.45 2.45508 -6.33169 0
M  V30 14107 H 1357.39 4.25559 -4.99235 0
M  V30 14108 H 1357.31 3.65691 -6.61669 0
M  V30 14109 H 1358.58 4.76012 -6.17279 0
M  V30 14110 N 1362.81 1.55714 0.243056 0
M  V30 14111 C 1364.22 1.48224 0.591754 0
M  V30 14112 C 1364.42 0.72105 1.88157 0
M  V30 14113 O 1363.48 0.251966 2.5124 0
M  V30 14114 C 1364.79 2.92655 0.690918 0
M  V30 14115 C 1366.34 3.03048 0.782988 0
M  V30 14116 C 1366.82 4.48794 0.913682 0
M  V30 14117 N 1368.31 4.52748 0.978454 0
M  V30 14118 C 1369.04 5.62771 1.09891 0
M  V30 14119 N 1368.54 6.82596 1.18467 0
M  V30 14120 N 1370.33 5.50576 1.13237 0
M  V30 14121 H 1362.48 2.03642 -0.603614 0
M  V30 14122 H 1364.75 0.924702 -0.208878 0
M  V30 14123 H 1364.45 3.51203 -0.186871 0
M  V30 14124 H 1364.33 3.43357 1.5616 0
M  V30 14125 H 1366.71 2.44578 1.65123 0
M  V30 14126 H 1366.79 2.55551 -0.112921 0
M  V30 14127 H 1366.44 5.07875 0.0499835 0
M  V30 14128 H 1366.37 4.93976 1.82469 0
M  V30 14129 H 1368.86 3.66445 0.92337 0
M  V30 14130 H 1369.17 7.62197 1.27576 0
M  V30 14131 H 1367.52 6.85349 1.15418 0
M  V30 14132 H 1370.71 4.55897 1.06188 0
M  V30 14133 H 1370.88 6.36358 1.2228 0
M  V30 14134 N 1364.29 -0.50888 1.49158 0
M  V30 14135 C 1365.25 -1.59354 1.64739 0
M  V30 14136 C 1366.25 -1.52175 0.519557 0
M  V30 14137 O 1367.44 -1.55468 0.785838 0
M  V30 14138 C 1364.57 -2.99002 1.63739 0
M  V30 14139 H 1365.76 -1.46871 2.61474 0
M  V30 14140 H 1363.32 -0.732532 1.38071 0
M  V30 14141 H 1364.05 -3.1697 0.685583 0
M  V30 14142 H 1363.84 -3.05622 2.45637 0
M  V30 14143 H 1365.33 -3.77822 1.77877 0
M  V30 14144 N 1365.76 -1.381 -0.759346 0
M  V30 14145 C 1367.18 -1.19171 -1.06162 0
M  V30 14146 C 1367.38 -0.0364043 -2.01467 0
M  V30 14147 O 1366.44 0.619635 -2.44779 0
M  V30 14148 C 1367.75 -2.51569 -1.64723 0
M  V30 14149 C 1369.3 -2.58201 -1.76921 0
M  V30 14150 C 1369.77 -3.9076 -2.38894 0
M  V30 14151 N 1371.26 -3.92269 -2.46331 0
M  V30 14152 C 1372 -4.91595 -2.95164 0
M  V30 14153 N 1371.49 -6.01318 -3.44075 0
M  V30 14154 N 1373.29 -4.7899 -2.94152 0
M  V30 14155 H 1365.44 -2.12021 -0.126788 0
M  V30 14156 H 1367.7 -0.940517 -0.118877 0
M  V30 14157 H 1367.41 -3.36535 -1.02162 0
M  V30 14158 H 1367.28 -2.69551 -2.6386 0
M  V30 14159 H 1369.67 -1.73634 -2.38611 0
M  V30 14160 H 1369.75 -2.44092 -0.765047 0
M  V30 14161 H 1369.39 -4.75747 -1.7784 0
M  V30 14162 H 1369.32 -4.02179 -3.39941 0
M  V30 14163 H 1371.81 -3.13015 -2.11731 0
M  V30 14164 H 1372.13 -6.73046 -3.79776 0
M  V30 14165 H 1370.47 -6.04946 -3.42148 0
M  V30 14166 H 1373.66 -3.92385 -2.55248 0
M  V30 14167 H 1373.84 -5.5655 -3.31897 0
M  V30 14168 N 1367.24 0.986894 -1.22875 0
M  V30 14169 C 1368.66 1.25185 -0.989997 0
M  V30 14170 C 1368.86 1.99057 0.31282 0
M  V30 14171 O 1367.91 2.30361 1.03392 0
M  V30 14172 C 1369.23 2.05775 -2.19265 0
M  V30 14173 C 1370.78 2.18938 -2.23686 0
M  V30 14174 C 1371.25 3.02917 -3.43519 0
M  V30 14175 N 1372.74 3.10503 -3.43718 0
M  V30 14176 C 1373.48 3.75789 -4.33094 0
M  V30 14177 N 1372.97 4.42952 -5.32696 0
M  V30 14178 N 1374.77 3.72611 -4.20854 0
M  V30 14179 H 1366.92 0.491816 -2.06628 0
M  V30 14180 H 1369.18 0.279856 -0.905751 0
M  V30 14181 H 1368.89 1.58864 -3.13776 0
M  V30 14182 H 1368.76 3.06529 -2.19818 0
M  V30 14183 H 1371.15 2.65061 -1.29718 0
M  V30 14184 H 1371.23 1.17595 -2.27168 0
M  V30 14185 H 1370.87 2.57493 -4.3779 0
M  V30 14186 H 1370.8 4.04415 -3.37277 0
M  V30 14187 H 1373.29 2.62709 -2.71647 0
M  V30 14188 H 1373.61 4.90527 -5.97162 0
M  V30 14189 H 1371.95 4.41681 -5.36603 0
M  V30 14190 H 1375.14 3.19305 -3.42289 0
M  V30 14191 H 1375.31 4.2321 -4.90711 0
M  V30 14192 N 1368.72 1.0394 1.18466 0
M  V30 14193 C 1369.68 0.633804 2.20262 0
M  V30 14194 C 1370.68 -0.308136 1.5782 0
M  V30 14195 O 1371.87 -0.0937087 1.73948 0
M  V30 14196 C 1369.01 -0.0709693 3.40826 0
M  V30 14197 H 1370.2 1.53463 2.57661 0
M  V30 14198 H 1367.75 0.831806 1.32328 0
M  V30 14199 H 1368.49 -0.985659 3.08958 0
M  V30 14200 H 1368.27 0.606023 3.87388 0
M  V30 14201 H 1369.76 -0.341298 4.16203 0
M  V30 14202 N 1370.2 -1.34667 0.818693 0
M  V30 14203 C 1371.44 -1.98708 0.405359 0
M  V30 14204 C 1371.78 -1.64767 -1.02788 0
M  V30 14205 O 1371.05 -0.91714 -1.71519 0
M  V30 14206 C 1371.34 -3.55016 0.602966 0
M  V30 14207 C 1371.19 -3.98713 2.08201 0
M  V30 14208 C 1372.51 -4.40085 0.0362489 0
M  V30 14209 H 1369.63 -0.721831 0.148756 0
M  V30 14210 H 1372.27 -1.59628 1.03047 0
M  V30 14211 H 1370.42 -3.88435 0.0708453 0
M  V30 14212 H 1372.09 -3.75647 2.67745 0
M  V30 14213 H 1370.33 -3.49179 2.57403 0
M  V30 14214 H 1371 -5.0751 2.17111 0
M  V30 14215 H 1373.48 -4.13195 0.490837 0
M  V30 14216 H 1372.36 -5.4852 0.204344 0
M  V30 14217 H 1372.62 -4.29243 -1.05845 0
M  V30 14218 N 1371.68 -0.573274 -1.46804 0
M  V30 14219 C 1372.95 0.011163 -1.95597 0
M  V30 14220 C 1373.33 1.4691 -1.51594 0
M  V30 14221 O 1372.68 2.15413 -0.76221 0
M  V30 14222 C 1372.89 -0.151045 -3.48673 0
M  V30 14223 C 1374.24 -0.0139817 -4.24598 0
M  V30 14224 O 1375.26 -0.0794008 -3.56111 0
M  V30 14225 O 1374.12 0.129547 -5.46346 0
M  V30 14226 H 1371.22 0.0551258 -0.825161 0
M  V30 14227 H 1373.76 -0.640928 -1.57131 0
M  V30 14228 H 1372.53 -1.16494 -3.73557 0
M  V30 14229 H 1372.16 0.537917 -3.93944 0
M  V30 14230 N 1373.15 1.5451 -0.310553 0
M  V30 14231 C 1374.1 2.23871 0.561277 0
M  V30 14232 C 1375.07 1.22475 1.12202 0
M  V30 14233 O 1376.26 1.51121 1.16477 0
M  V30 14234 C 1373.4 2.99029 1.72267 0
M  V30 14235 C 1372.51 4.15218 1.19241 0
M  V30 14236 C 1371.64 4.77935 2.31843 0
M  V30 14237 C 1370.68 5.86251 1.75999 0
M  V30 14238 N 1369.82 6.42885 2.82212 0
M  V30 14239 H 1374.66 2.97977 -0.0367998 0
M  V30 14240 H 1372.2 1.4707 -0.0299317 0
M  V30 14241 H 1374.16 3.40842 2.40588 0
M  V30 14242 H 1372.79 2.27281 2.29223 0
M  V30 14243 H 1371.84 3.78279 0.401148 0
M  V30 14244 H 1373.15 4.93225 0.743675 0
M  V30 14245 H 1372.3 5.2265 3.08094 0
M  V30 14246 H 1371.04 3.99281 2.80047 0
M  V30 14247 H 1370.05 5.40952 0.982415 0
M  V30 14248 H 1371.27 6.66795 1.28688 0
M  V30 14249 H 1369.22 5.67109 3.29732 0
M  V30 14250 H 1369.14 7.16267 2.41864 0
M  V30 14251 H 1370.4 6.92256 3.58332 0
M  V30 14252 N 1374.63 0.0384594 1.57553 0
M  V30 14253 C 1375.54 -0.955737 2.14249 0
M  V30 14254 C 1376.56 -1.35056 1.09708 0
M  V30 14255 O 1377.74 -1.43008 1.41812 0
M  V30 14256 C 1374.8 -2.21647 2.66596 0
M  V30 14257 C 1373.86 -1.88119 3.85888 0
M  V30 14258 C 1373.09 -3.08182 4.35729 0
M  V30 14259 O 1373.32 -4.21145 3.84699 0
M  V30 14260 O 1372.25 -2.89936 5.27467 0
M  V30 14261 H 1376.08 -0.50361 2.99495 0
M  V30 14262 H 1373.66 -0.182698 1.48279 0
M  V30 14263 H 1375.54 -2.9564 3.00291 0
M  V30 14264 H 1374.22 -2.66022 1.84428 0
M  V30 14265 H 1373.13 -1.11481 3.57103 0
M  V30 14266 H 1374.46 -1.48553 4.69247 0
M  V30 14267 N 1376.11 -1.55841 -0.234795 0
M  V30 14268 C 1377.53 -1.48536 -0.583885 0
M  V30 14269 C 1377.73 -0.731018 -1.87772 0
M  V30 14270 O 1376.78 -0.265287 -2.51103 0
M  V30 14271 C 1378.1 -2.93017 -0.675389 0
M  V30 14272 C 1379.64 -3.03459 -0.766906 0
M  V30 14273 C 1380.12 -4.49272 -0.889868 0
M  V30 14274 N 1381.61 -4.5326 -0.95443 0
M  V30 14275 C 1382.35 -5.63346 -1.06905 0
M  V30 14276 N 1381.84 -6.83215 -1.14845 0
M  V30 14277 N 1383.63 -5.51169 -1.10315 0
M  V30 14278 H 1375.79 -2.0332 0.614405 0
M  V30 14279 H 1378.05 -0.923581 0.213779 0
M  V30 14280 H 1377.75 -3.51099 0.205493 0
M  V30 14281 H 1377.63 -3.4418 -1.54337 0
M  V30 14282 H 1380.02 -2.4545 -1.63823 0
M  V30 14283 H 1380.1 -2.55487 0.126472 0
M  V30 14284 H 1379.74 -5.07895 -0.0230489 0
M  V30 14285 H 1379.67 -4.94937 -1.79847 0
M  V30 14286 H 1382.16 -3.6693 -0.903923 0
M  V30 14287 H 1382.47 -7.62863 -1.23532 0
M  V30 14288 H 1380.82 -6.85952 -1.11781 0
M  V30 14289 H 1384.01 -4.56453 -1.03769 0
M  V30 14290 H 1384.18 -6.36998 -1.18903 0
M  V30 14291 N 1377.59 0.500963 -1.49426 0
M  V30 14292 C 1379.01 0.832142 -1.36189 0
M  V30 14293 C 1379.21 1.9759 -0.395014 0
M  V30 14294 O 1378.26 2.51905 0.173294 0
M  V30 14295 C 1379.57 1.17232 -2.76907 0
M  V30 14296 C 1381.12 1.28052 -2.85607 0
M  V30 14297 C 1381.6 1.65399 -4.27092 0
M  V30 14298 N 1383.09 1.72448 -4.29902 0
M  V30 14299 C 1383.82 2.02789 -5.36343 0
M  V30 14300 N 1383.32 2.31354 -6.53029 0
M  V30 14301 N 1385.11 2.0404 -5.23759 0
M  V30 14302 H 1377.26 -0.253253 -2.10885 0
M  V30 14303 H 1379.53 -0.0507111 -0.946643 0
M  V30 14304 H 1379.23 0.405247 -3.49357 0
M  V30 14305 H 1379.11 2.11574 -3.12276 0
M  V30 14306 H 1381.49 2.03831 -2.13394 0
M  V30 14307 H 1381.57 0.317603 -2.53821 0
M  V30 14308 H 1381.22 0.901704 -4.99832 0
M  V30 14309 H 1381.15 2.6279 -4.56343 0
M  V30 14310 H 1383.64 1.52532 -3.45749 0
M  V30 14311 H 1383.95 2.53695 -7.29972 0
M  V30 14312 H 1382.3 2.28811 -6.56255 0
M  V30 14313 H 1385.49 1.812 -4.31606 0
M  V30 14314 H 1385.66 2.27353 -6.06807 0
M  V30 14315 N 1379.07 1.38501 0.752011 0
M  V30 14316 C 1380.31 1.34995 1.51341 0
M  V30 14317 C 1380.65 -0.0594724 1.94109 0
M  V30 14318 O 1379.92 -1.02098 1.65548 0
M  V30 14319 C 1380.2 2.30705 2.76491 0
M  V30 14320 C 1380.06 3.80515 2.39851 0
M  V30 14321 C 1381.38 2.24521 3.78521 0
M  V30 14322 H 1378.5 0.491687 0.549011 0
M  V30 14323 H 1381.14 1.69361 0.861205 0
M  V30 14324 H 1379.29 2.01529 3.32142 0
M  V30 14325 H 1380.96 4.20371 1.89962 0
M  V30 14326 H 1379.2 3.98119 1.7229 0
M  V30 14327 H 1379.87 4.42946 3.29397 0
M  V30 14328 H 1382.35 2.50282 3.32413 0
M  V30 14329 H 1381.23 2.93598 4.63779 0
M  V30 14330 H 1381.49 1.24457 4.2422 0
M  V30 14331 N 1380.55 -0.980364 1.23396 0
M  V30 14332 C 1381.96 -1.24658 0.996622 0
M  V30 14333 C 1382.16 -1.9922 -0.302259 0
M  V30 14334 O 1381.22 -2.30906 -1.02169 0
M  V30 14335 C 1382.53 -2.0461 2.20353 0
M  V30 14336 C 1384.08 -2.17749 2.24843 0
M  V30 14337 C 1384.55 -3.01091 3.4512 0
M  V30 14338 N 1386.04 -3.08676 3.4536 0
M  V30 14339 C 1386.78 -3.73487 4.3508 0
M  V30 14340 N 1386.28 -4.40121 5.35038 0
M  V30 14341 N 1388.07 -3.70373 4.22824 0
M  V30 14342 H 1380.22 -0.480851 2.06885 0
M  V30 14343 H 1382.48 -0.275049 0.907222 0
M  V30 14344 H 1382.19 -1.57197 3.14614 0
M  V30 14345 H 1382.06 -3.05359 2.21441 0
M  V30 14346 H 1384.45 -2.64369 1.31122 0
M  V30 14347 H 1384.53 -1.16388 2.27788 0
M  V30 14348 H 1384.17 -2.55168 4.39149 0
M  V30 14349 H 1384.1 -4.02621 3.39417 0
M  V30 14350 H 1386.6 -2.61265 2.73037 0
M  V30 14351 H 1386.91 -4.87354 5.99755 0
M  V30 14352 H 1385.25 -4.38829 5.38938 0
M  V30 14353 H 1388.44 -3.17486 3.43977 0
M  V30 14354 H 1388.62 -4.20601 4.92949 0
M  V30 14355 N 1382.02 -1.04567 -1.17913 0
M  V30 14356 C 1383.27 -0.752023 -1.88018 0
M  V30 14357 C 1383.6 0.720567 -1.8066 0
M  V30 14358 O 1382.85 1.54207 -1.20493 0
M  V30 14359 C 1383.15 -1.1699 -3.3771 0
M  V30 14360 C 1382.82 -2.64363 -3.65271 0
M  V30 14361 C 1381.48 -3.04622 -3.72503 0
M  V30 14362 C 1383.83 -3.59626 -3.77251 0
M  V30 14363 C 1381.16 -4.39023 -3.89199 0
M  V30 14364 C 1383.51 -4.93752 -3.95465 0
M  V30 14365 C 1382.18 -5.33675 -4.00933 0
M  V30 14366 H 1381.45 -0.275185 -0.688008 0
M  V30 14367 H 1384.09 -1.31161 -1.39532 0
M  V30 14368 H 1382.4 -0.529202 -3.8821 0
M  V30 14369 H 1384.1 -0.919981 -3.90304 0
M  V30 14370 H 1380.69 -2.32182 -3.60263 0
M  V30 14371 H 1384.87 -3.29665 -3.70992 0
M  V30 14372 H 1380.13 -4.69466 -3.91679 0
M  V30 14373 H 1384.3 -5.67467 -4.03676 0
M  V30 14374 H 1381.93 -6.37825 -4.13623 0
M  V30 14375 N 1383.5 1.34231 -0.825823 0
M  V30 14376 C 1384.43 2.31997 -0.264546 0
M  V30 14377 C 1385.41 1.58375 0.620592 0
M  V30 14378 O 1386.6 1.86341 0.546865 0
M  V30 14379 C 1383.73 3.42557 0.572025 0
M  V30 14380 C 1382.68 4.27454 -0.216219 0
M  V30 14381 C 1382.01 5.29509 0.743279 0
M  V30 14382 C 1383.31 5.02456 -1.42603 0
M  V30 14383 H 1385 2.79189 -1.08139 0
M  V30 14384 H 1382.55 1.34227 -0.521451 0
M  V30 14385 H 1384.5 4.09968 0.974889 0
M  V30 14386 H 1383.22 2.94021 1.42195 0
M  V30 14387 H 1381.88 3.61649 -0.600485 0
M  V30 14388 H 1381.53 4.77234 1.58924 0
M  V30 14389 H 1381.23 5.87188 0.220064 0
M  V30 14390 H 1382.76 5.99789 1.14394 0
M  V30 14391 H 1384.17 5.62706 -1.09702 0
M  V30 14392 H 1382.57 5.69723 -1.88509 0
M  V30 14393 H 1383.64 4.31983 -2.2027 0
M  V30 14394 N 1384.98 0.581051 1.46498 0
M  V30 14395 C 1385.91 -0.140957 2.33074 0
M  V30 14396 C 1386.89 -0.885323 1.45245 0
M  V30 14397 O 1388.08 -0.86111 1.74065 0
M  V30 14398 C 1385.21 -1.15625 3.27488 0
M  V30 14399 C 1384.16 -0.526829 4.24745 0
M  V30 14400 C 1383.49 -1.64847 5.08655 0
M  V30 14401 C 1384.79 0.53492 5.19554 0
M  V30 14402 H 1386.48 0.581888 2.93691 0
M  V30 14403 H 1384.03 0.281278 1.41226 0
M  V30 14404 H 1385.98 -1.6697 3.8691 0
M  V30 14405 H 1384.7 -1.90935 2.64974 0
M  V30 14406 H 1383.36 -0.0344738 3.66584 0
M  V30 14407 H 1383.01 -2.3912 4.42528 0
M  V30 14408 H 1382.71 -1.23298 5.74518 0
M  V30 14409 H 1384.23 -2.16472 5.7094 0
M  V30 14410 H 1385.65 0.106606 5.73201 0
M  V30 14411 H 1384.04 0.870639 5.93751 0
M  V30 14412 H 1385.11 1.42184 4.63586 0
M  V30 14413 N 1386.46 -1.54343 0.318742 0
M  V30 14414 C 1387.37 -2.27856 -0.558442 0
M  V30 14415 C 1388.38 -1.32029 -1.13333 0
M  V30 14416 O 1389.56 -1.65037 -1.15433 0
M  V30 14417 C 1386.62 -3.01842 -1.70565 0
M  V30 14418 C 1385.69 -4.13245 -1.16305 0
M  V30 14419 C 1384.92 -4.83693 -2.25559 0
M  V30 14420 O 1385.14 -4.53621 -3.4581 0
M  V30 14421 O 1384.08 -5.70708 -1.91249 0
M  V30 14422 H 1387.9 -3.03676 0.0384247 0
M  V30 14423 H 1385.49 -1.4916 0.0845936 0
M  V30 14424 H 1387.37 -3.48189 -2.37365 0
M  V30 14425 H 1386.04 -2.28902 -2.28879 0
M  V30 14426 H 1384.95 -3.71258 -0.460274 0
M  V30 14427 H 1386.28 -4.88214 -0.625111 0
M  V30 14428 N 1387.94 -0.0468143 -1.5753 0
M  V30 14429 C 1389.35 0.489509 -1.80169 0
M  V30 14430 C 1389.7 1.71184 -0.958669 0
M  V30 14431 O 1388.82 2.15699 -0.174025 0
M  V30 14432 C 1389.42 0.894838 -3.26769 0
M  V30 14433 C 1387.98 1.37617 -3.50341 0
M  V30 14434 C 1387.12 0.349275 -2.75092 0
M  V30 14435 H 1390.07 -0.272728 -1.56339 0
M  V30 14436 H 1390.1 1.75805 -3.3745 0
M  V30 14437 H 1389.61 0.00501096 -3.881 0
M  V30 14438 H 1387.71 2.28533 -2.94285 0
M  V30 14439 H 1387.82 1.37133 -4.59055 0
M  V30 14440 H 1386.19 0.821219 -2.41098 0
M  V30 14441 H 1386.97 -0.532391 -3.39147 0
M  V30 14442 N 1389.41 1.55964 0.226527 0
M  V30 14443 C 1390.38 1.91184 1.26418 0
M  V30 14444 C 1391.38 0.789982 1.40057 0
M  V30 14445 O 1392.57 1.05778 1.38407 0
M  V30 14446 C 1389.7 2.15826 2.63878 0
M  V30 14447 H 1390.89 2.83986 0.963956 0
M  V30 14448 H 1388.45 1.49169 0.466726 0
M  V30 14449 H 1389.18 1.2556 2.99007 0
M  V30 14450 H 1388.97 2.97549 2.55356 0
M  V30 14451 H 1390.46 2.44188 3.38765 0
M  V30 14452 N 1390.89 -0.493031 1.4969 0
M  V30 14453 C 1392.14 -1.24849 1.59814 0
M  V30 14454 C 1392.47 -1.92059 0.287555 0
M  V30 14455 O 1391.75 -1.81099 -0.709471 0
M  V30 14456 C 1392.03 -2.30929 2.76304 0
M  V30 14457 C 1391.88 -1.68167 4.17181 0
M  V30 14458 C 1393.2 -3.32427 2.8841 0
M  V30 14459 H 1390.32 -0.452553 0.581691 0
M  V30 14460 H 1392.96 -0.545455 1.82002 0
M  V30 14461 H 1391.11 -2.9089 2.57517 0
M  V30 14462 H 1392.78 -1.11971 4.47504 0
M  V30 14463 H 1391.03 -0.985496 4.22458 0
M  V30 14464 H 1391.7 -2.45148 4.94577 0
M  V30 14465 H 1394.17 -2.82464 3.05537 0
M  V30 14466 H 1393.05 -4.04004 3.71581 0
M  V30 14467 H 1393.31 -3.95234 1.98097 0
M  V30 14468 N 1392.37 -1.38898 -0.744656 0
M  V30 14469 C 1393.62 -1.35795 -1.50623 0
M  V30 14470 C 1393.95 0.0491775 -1.94138 0
M  V30 14471 O 1393.22 1.01219 -1.66087 0
M  V30 14472 C 1393.51 -2.32168 -2.75263 0
M  V30 14473 C 1393.36 -3.81781 -2.3783 0
M  V30 14474 C 1394.68 -2.26526 -3.77325 0
M  V30 14475 H 1391.8 -0.494591 -0.546396 0
M  V30 14476 H 1394.44 -1.69816 -0.852211 0
M  V30 14477 H 1392.59 -2.03287 -3.31069 0
M  V30 14478 H 1394.26 -4.21373 -1.8773 0
M  V30 14479 H 1392.51 -3.99027 -1.70176 0
M  V30 14480 H 1393.18 -4.44687 -3.27044 0
M  V30 14481 H 1395.65 -2.52041 -3.31081 0
M  V30 14482 H 1394.53 -2.96053 -4.62216 0
M  V30 14483 H 1394.79 -1.26705 -4.23554 0
M  V30 14484 N 1393.85 0.973806 -1.23914 0
M  V30 14485 C 1395.09 1.71852 -1.07678 0
M  V30 14486 C 1395.43 1.90357 0.384425 0
M  V30 14487 O 1394.7 1.46063 1.28436 0
M  V30 14488 C 1394.99 3.1129 -1.81026 0
M  V30 14489 C 1394.84 3.00315 -3.3486 0
M  V30 14490 C 1396.16 4.10835 -1.57805 0
M  V30 14491 H 1393.28 0.623749 -0.392564 0
M  V30 14492 H 1395.92 1.13325 -1.52504 0
M  V30 14493 H 1394.07 3.61255 -1.42922 0
M  V30 14494 H 1395.74 2.57823 -3.82524 0
M  V30 14495 H 1393.98 2.36667 -3.63553 0
M  V30 14496 H 1394.65 3.9907 -3.81376 0
M  V30 14497 H 1397.13 3.69705 -1.90939 0
M  V30 14498 H 1396.01 5.06478 -2.11591 0
M  V30 14499 H 1396.27 4.39091 -0.514894 0
M  V30 14500 N 1395.33 1.05191 1.17357 0
M  V30 14501 C 1396.29 0.65713 2.19578 0
M  V30 14502 C 1397.29 -0.29138 1.58138 0
M  V30 14503 O 1398.48 -0.075254 1.74037 0
M  V30 14504 C 1395.61 -0.0348162 3.40882 0
M  V30 14505 H 1396.8 1.56188 2.56018 0
M  V30 14506 H 1394.36 0.845795 1.31438 0
M  V30 14507 H 1395.09 -0.952835 3.09986 0
M  V30 14508 H 1394.88 0.647076 3.86724 0
M  V30 14509 H 1396.37 -0.297135 4.16542 0
M  V30 14510 N 1396.8 -1.33791 0.83293 0
M  V30 14511 C 1398.22 -1.80336 0.483294 0
M  V30 14512 C 1398.57 -1.68969 -0.997195 0
M  V30 14513 O 1397.69 -1.23549 -1.77664 0
M  V30 14514 C 1398.29 -3.27427 0.870475 0
M  V30 14515 C 1396.85 -3.72012 0.573064 0
M  V30 14516 C 1395.99 -2.55319 1.08201 0
M  V30 14517 H 1398.94 -1.21396 1.02218 0
M  V30 14518 H 1398.96 -3.80083 0.178173 0
M  V30 14519 H 1398.48 -3.35668 1.94804 0
M  V30 14520 H 1396.58 -3.69302 -0.494678 0
M  V30 14521 H 1396.69 -4.65725 1.12414 0
M  V30 14522 H 1395.05 -2.49681 0.503123 0
M  V30 14523 H 1395.84 -2.66326 2.16623 0
M  V30 14524 N 1398.28 -0.588812 -1.46187 0
M  V30 14525 C 1399.19 0.143253 -2.34162 0
M  V30 14526 C 1400.21 0.879779 -1.5012 0
M  V30 14527 O 1401.38 0.841592 -1.82973 0
M  V30 14528 C 1398.45 1.14017 -3.27416 0
M  V30 14529 C 1397.51 0.407651 -4.2736 0
M  V30 14530 C 1396.74 1.35708 -5.16158 0
M  V30 14531 O 1396.97 2.59394 -5.08007 0
M  V30 14532 O 1395.9 0.864343 -5.95662 0
M  V30 14533 H 1399.73 -0.579228 -2.98125 0
M  V30 14534 H 1397.31 -0.349174 -1.45262 0
M  V30 14535 H 1399.19 1.71484 -3.8493 0
M  V30 14536 H 1397.87 1.84401 -2.66041 0
M  V30 14537 H 1396.78 -0.209011 -3.73516 0
M  V30 14538 H 1398.11 -0.255334 -4.91537 0
M  V30 14539 N 1399.76 1.54172 -0.326923 0
M  V30 14540 C 1400.72 2.2311 0.524855 0
M  V30 14541 C 1401.72 1.22567 1.04087 0
M  V30 14542 O 1402.91 1.47123 0.932759 0
M  V30 14543 C 1400.05 2.93778 1.72937 0
M  V30 14544 H 1401.24 2.99799 -0.0778327 0
M  V30 14545 H 1398.79 1.56105 -0.0780484 0
M  V30 14546 H 1399.53 2.21234 2.3712 0
M  V30 14547 H 1399.31 3.67509 1.36674 0
M  V30 14548 H 1400.8 3.46292 2.33392 0
M  V30 14549 N 1401.24 0.0551678 1.57503 0
M  V30 14550 C 1402.52 -0.657808 1.84207 0
M  V30 14551 C 1402.9 -1.88798 0.944372 0
M  V30 14552 O 1402.24 -2.28499 0.00641728 0
M  V30 14553 C 1402.45 -1.0113 3.34026 0
M  V30 14554 C 1403.8 -1.39189 4.01138 0
M  V30 14555 O 1404.83 -1.10353 3.38675 0
M  V30 14556 O 1403.68 -1.93023 5.11277 0
M  V30 14557 H 1400.78 -0.325084 0.760427 0
M  V30 14558 H 1403.32 0.0848352 1.69488 0
M  V30 14559 H 1402.1 -0.13688 3.91061 0
M  V30 14560 H 1401.72 -1.81126 3.53948 0
M  V30 14561 N 1402.72 -1.56081 -0.218252 0
M  V30 14562 C 1403.68 -1.91851 -1.25402 0
M  V30 14563 C 1404.68 -0.797399 -1.39636 0
M  V30 14564 O 1405.87 -1.06511 -1.37844 0
M  V30 14565 C 1403 -2.17223 -2.6273 0
M  V30 14566 H 1404.19 -2.84493 -0.948882 0
M  V30 14567 H 1401.75 -1.49414 -0.458809 0
M  V30 14568 H 1402.48 -1.27144 -2.98337 0
M  V30 14569 H 1402.27 -2.98899 -2.53775 0
M  V30 14570 H 1403.76 -2.45981 -3.37466 0
M  V30 14571 N 1404.2 0.485086 -1.49949 0
M  V30 14572 C 1405.11 1.61089 -1.70551 0
M  V30 14573 C 1406.12 1.63752 -0.588333 0
M  V30 14574 O 1407.3 1.81879 -0.86498 0
M  V30 14575 C 1404.36 2.97382 -1.78227 0
M  V30 14576 C 1403.42 3.05219 -3.01894 0
M  V30 14577 C 1402.66 4.35011 -3.09195 0
M  V30 14578 O 1402.88 5.24722 -2.23658 0
M  V30 14579 O 1401.81 4.48151 -4.01802 0
M  V30 14580 H 1405.64 1.46633 -2.65956 0
M  V30 14581 H 1403.22 0.663091 -1.33879 0
M  V30 14582 H 1405.11 3.78356 -1.85538 0
M  V30 14583 H 1403.78 3.12066 -0.860043 0
M  V30 14584 H 1402.69 2.23373 -3.00092 0
M  V30 14585 H 1404.02 2.95467 -3.93649 0
M  V30 14586 N 1405.67 1.39291 0.737279 0
M  V30 14587 C 1406.64 1.37607 1.83294 0
M  V30 14588 C 1407.64 0.273594 1.58455 0
M  V30 14589 O 1408.83 0.531375 1.65898 0
M  V30 14590 C 1405.96 1.14642 3.21045 0
M  V30 14591 H 1407.15 2.35102 1.86191 0
M  V30 14592 H 1404.7 1.24822 0.940696 0
M  V30 14593 H 1405.44 0.178202 3.2381 0
M  V30 14594 H 1405.22 1.94479 3.40471 0
M  V30 14595 H 1406.71 1.162 4.01108 0
M  V30 14596 N 1407.15 -0.967221 1.24429 0
M  V30 14597 C 1408.06 -2.09582 1.05417 0
M  V30 14598 C 1409.08 -1.73999 -0.00516127 0
M  V30 14599 O 1410.25 -2.00472 0.193115 0
M  V30 14600 C 1407.32 -3.40327 0.661697 0
M  V30 14601 C 1406.38 -3.89854 1.79756 0
M  V30 14602 C 1405.61 -5.1436 1.42372 0
M  V30 14603 O 1405.84 -5.69536 0.313754 0
M  V30 14604 O 1404.77 -5.58283 2.24952 0
M  V30 14605 H 1408.6 -2.28517 2.00034 0
M  V30 14606 H 1406.18 -1.07978 1.03253 0
M  V30 14607 H 1408.06 -4.18943 0.454369 0
M  V30 14608 H 1406.74 -3.22691 -0.255348 0
M  V30 14609 H 1405.64 -3.12297 2.05964 0
M  V30 14610 H 1406.98 -4.11967 2.69339 0
M  V30 14611 N 1408.63 -1.05812 -1.16797 0
M  V30 14612 C 1409.59 -0.668766 -2.19226 0
M  V30 14613 C 1410.59 0.28299 -1.5829 0
M  V30 14614 O 1411.78 0.0660233 -1.74075 0
M  V30 14615 C 1408.91 0.0167379 -3.40896 0
M  V30 14616 H 1410.11 -1.57543 -2.55187 0
M  V30 14617 H 1407.66 -0.852753 -1.30988 0
M  V30 14618 H 1408.4 0.936382 -3.10487 0
M  V30 14619 H 1408.18 -0.667576 -3.86375 0
M  V30 14620 H 1409.67 0.275041 -4.16693 0
M  V30 14621 N 1410.11 1.33347 -0.840014 0
M  V30 14622 C 1411.07 2.27492 -0.279264 0
M  V30 14623 C 1412.07 1.51004 0.552669 0
M  V30 14624 O 1413.26 1.70305 0.366295 0
M  V30 14625 C 1410.39 3.35462 0.606466 0
M  V30 14626 H 1411.59 2.78601 -1.11001 0
M  V30 14627 H 1409.14 1.4377 -0.613187 0
M  V30 14628 H 1409.87 2.89596 1.45961 0
M  V30 14629 H 1409.66 3.92098 0.0111889 0
M  V30 14630 H 1411.15 4.05645 0.992052 0
M  V30 14631 N 1411.59 0.596556 1.45873 0
M  V30 14632 C 1413 0.173758 1.8589 0
M  V30 14633 C 1413.35 -1.26665 1.49835 0
M  V30 14634 O 1412.47 -1.9588 0.919773 0
M  V30 14635 C 1413.07 0.308567 3.37392 0
M  V30 14636 C 1411.63 -0.0594585 3.76353 0
M  V30 14637 C 1410.77 0.638127 2.69858 0
M  V30 14638 H 1413.72 0.803928 1.36831 0
M  V30 14639 H 1413.75 -0.462294 3.77681 0
M  V30 14640 H 1413.26 1.35701 3.63603 0
M  V30 14641 H 1411.36 -1.1075 3.5576 0
M  V30 14642 H 1411.47 0.326506 4.77986 0
M  V30 14643 H 1409.84 0.0769147 2.54584 0
M  V30 14644 H 1410.62 1.68849 2.98906 0
M  V30 14645 N 1413.06 -1.53996 0.335095 0
M  V30 14646 C 1414.48 -1.59591 -0.0171422 0
M  V30 14647 C 1414.68 -1.35132 -1.49471 0
M  V30 14648 O 1413.74 -1.14141 -2.25229 0
M  V30 14649 C 1415.05 -2.97872 0.411443 0
M  V30 14650 C 1416.6 -3.10887 0.363072 0
M  V30 14651 C 1417.07 -4.51532 0.766995 0
M  V30 14652 N 1418.56 -4.57557 0.72085 0
M  V30 14653 C 1419.3 -5.64516 1.00544 0
M  V30 14654 N 1418.79 -6.79365 1.35777 0
M  V30 14655 N 1420.59 -5.54349 0.930243 0
M  V30 14656 H 1412.74 -1.68151 1.29766 0
M  V30 14657 H 1415 -0.787067 0.528422 0
M  V30 14658 H 1414.71 -3.20809 1.44134 0
M  V30 14659 H 1414.58 -3.76571 -0.217678 0
M  V30 14660 H 1416.97 -2.87679 -0.657642 0
M  V30 14661 H 1417.05 -2.34266 1.02728 0
M  V30 14662 H 1416.69 -4.75474 1.78568 0
M  V30 14663 H 1416.62 -5.26539 0.0803511 0
M  V30 14664 H 1419.11 -3.75079 0.460867 0
M  V30 14665 H 1419.43 -7.56891 1.55999 0
M  V30 14666 H 1417.77 -6.80833 1.39614 0
M  V30 14667 H 1420.96 -4.63503 0.654402 0
M  V30 14668 H 1421.14 -6.37616 1.15539 0
M  V30 14669 N 1414.54 -0.0635198 -1.57472 0
M  V30 14670 C 1415.45 0.921531 -2.15743 0
M  V30 14671 C 1416.47 1.33294 -1.11842 0
M  V30 14672 O 1417.64 1.40733 -1.4407 0
M  V30 14673 C 1414.71 2.17378 -2.70088 0
M  V30 14674 C 1413.77 1.81956 -3.88832 0
M  V30 14675 C 1413 3.01211 -4.40577 0
M  V30 14676 O 1413.23 4.14971 -3.9135 0
M  V30 14677 O 1412.16 2.81507 -5.32012 0
M  V30 14678 H 1415.99 0.455899 -3.00259 0
M  V30 14679 H 1413.57 0.159085 -1.48551 0
M  V30 14680 H 1415.45 2.90826 -3.04956 0
M  V30 14681 H 1414.13 2.63055 -1.88637 0
M  V30 14682 H 1413.03 1.05786 -3.58832 0
M  V30 14683 H 1414.37 1.41069 -4.71551 0
M  V30 14684 N 1416.02 1.56195 0.209972 0
M  V30 14685 C 1417.27 1.7939 0.930796 0
M  V30 14686 C 1417.59 0.634038 1.84404 0
M  V30 14687 O 1416.86 -0.348467 1.92776 0
M  V30 14688 H 1415.44 0.661676 0.346689 0
M  V30 14689 H 1418.1 1.93665 0.219049 0
M  V30 14690 H 1417.2 2.71982 1.53075 0
M  V30 14691 N 1417.5 -0.477127 1.50204 0
M  V30 14692 C 1418.91 -1.05815 1.53819 0
M  V30 14693 C 1419.26 -1.93264 0.338169 0
M  V30 14694 O 1418.38 -2.09305 -0.549576 0
M  V30 14695 C 1418.98 -1.92577 2.78746 0
M  V30 14696 C 1417.54 -2.45799 2.85061 0
M  V30 14697 C 1416.69 -1.23994 2.48034 0
M  V30 14698 H 1419.64 -0.259998 1.56556 0
M  V30 14699 H 1419.66 -2.7757 2.6026 0
M  V30 14700 H 1419.17 -1.28904 3.66068 0
M  V30 14701 H 1417.27 -3.13042 2.02077 0
M  V30 14702 H 1417.38 -2.81318 3.8781 0
M  V30 14703 H 1415.75 -1.5728 2.00338 0
M  V30 14704 H 1416.53 -0.619917 3.37657 0
M  V30 14705 N 1418.98 -1.3968 -0.729882 0
M  V30 14706 C 1420.22 -1.37385 -1.49175 0
M  V30 14707 C 1420.56 0.0285839 -1.94179 0
M  V30 14708 O 1419.83 0.994516 -1.67152 0
M  V30 14709 C 1420.11 -2.35075 -2.72785 0
M  V30 14710 C 1419.97 -3.84282 -2.33767 0
M  V30 14711 C 1421.29 -2.30515 -3.74901 0
M  V30 14712 H 1418.4 -0.500359 -0.541119 0
M  V30 14713 H 1421.05 -1.7071 -0.834152 0
M  V30 14714 H 1419.2 -2.06787 -3.28894 0
M  V30 14715 H 1420.87 -4.2334 -1.8325 0
M  V30 14716 H 1419.11 -4.00809 -1.65935 0
M  V30 14717 H 1419.78 -4.48131 -3.22309 0
M  V30 14718 H 1422.26 -2.55539 -3.28389 0
M  V30 14719 H 1421.13 -3.00939 -4.5905 0
M  V30 14720 H 1421.4 -1.3119 -4.22187 0
M  V30 14721 N 1420.45 0.960609 -1.2494 0
M  V30 14722 C 1421.7 1.70765 -1.10503 0
M  V30 14723 C 1422.06 1.89164 0.351384 0
M  V30 14724 O 1421.35 1.44718 1.25568 0
M  V30 14725 C 1421.54 3.09564 -1.78619 0
M  V30 14726 C 1421.37 3.04705 -3.30734 0
M  V30 14727 C 1420.14 3.08793 -3.99969 0
M  V30 14728 C 1422.34 2.86333 -4.27221 0
M  V30 14729 N 1420.32 2.94028 -5.38907 0
M  V30 14730 C 1421.69 2.79938 -5.53204 0
M  V30 14731 C 1423.75 2.70967 -4.17709 0
M  V30 14732 C 1422.45 2.59747 -6.70764 0
M  V30 14733 C 1424.48 2.52146 -5.34954 0
M  V30 14734 C 1423.84 2.46466 -6.59874 0
M  V30 14735 H 1419.94 0.633102 -0.459027 0
M  V30 14736 H 1422.52 1.13833 -1.57956 0
M  V30 14737 H 1420.69 3.64674 -1.33669 0
M  V30 14738 H 1422.42 3.73015 -1.56978 0
M  V30 14739 H 1419.18 3.17751 -3.51185 0
M  V30 14740 H 1419.6 2.89867 -6.11806 0
M  V30 14741 H 1424.25 2.74137 -3.21883 0
M  V30 14742 H 1421.96 2.5532 -7.66705 0
M  V30 14743 H 1425.55 2.41191 -5.29451 0
M  V30 14744 H 1424.43 2.32091 -7.49068 0
M  V30 14745 N 1421.93 1.0643 1.16234 0
M  V30 14746 C 1422.86 0.697605 2.22836 0
M  V30 14747 C 1423.84 -0.310563 1.67241 0
M  V30 14748 O 1425.03 -0.185385 1.93313 0
M  V30 14749 C 1422.16 0.0847097 3.47197 0
M  V30 14750 C 1421.11 1.019 4.15693 0
M  V30 14751 C 1420.44 0.269339 5.34021 0
M  V30 14752 C 1421.74 2.34861 4.66516 0
M  V30 14753 H 1423.43 1.58883 2.53765 0
M  V30 14754 H 1420.98 0.765388 1.21975 0
M  V30 14755 H 1422.93 -0.1837 4.20999 0
M  V30 14756 H 1421.66 -0.84154 3.15572 0
M  V30 14757 H 1420.31 1.27218 3.43818 0
M  V30 14758 H 1419.96 -0.660072 4.9865 0
M  V30 14759 H 1419.66 0.892001 5.8079 0
M  V30 14760 H 1421.19 0.00850775 6.10599 0
M  V30 14761 H 1422.6 2.13922 5.31893 0
M  V30 14762 H 1421 2.92637 5.23912 0
M  V30 14763 H 1422.07 2.97834 3.82653 0
M  V30 14764 N 1423.41 -1.329 0.847073 0
M  V30 14765 C 1424.65 -1.99318 0.45294 0
M  V30 14766 C 1425.01 -1.65606 -0.971536 0
M  V30 14767 O 1426.22 -2.25054 -1.46983 0
M  V30 14768 C 1424.49 -3.50938 0.67656 0
M  V30 14769 S 1426.05 -4.37161 0.378869 0
M  V30 14770 H 1422.86 -0.690376 0.170008 0
M  V30 14771 H 1425.47 -1.61744 1.09814 0
M  V30 14772 H 1424.17 -3.72963 1.71252 0
M  V30 14773 H 1423.7 -3.93396 0.0175049 0
M  V30 14774 H 1425.72 -4.89739 -0.79813 0
M  V30 14775 N 1424.89 -0.604284 -1.45555 0
M  V30 14776 C 1426.11 -0.102634 -2.07146 0
M  V30 14777 C 1426.54 1.20239 -1.44652 0
M  V30 14778 O 1425.9 1.73133 -0.538033 0
M  V30 14779 C 1425.94 0.0270231 -3.6059 0
M  V30 14780 O 1425.05 1.0781 -3.98059 0
M  V30 14781 H 1424.39 -0.0725667 -0.660023 0
M  V30 14782 H 1426.92 -0.833355 -1.86859 0
M  V30 14783 H 1426.93 0.226299 -4.07372 0
M  V30 14784 H 1425.6 -0.925896 -4.05463 0
M  V30 14785 H 1424.18 0.855552 -3.62953 0
M  V30 14786 N 1426.37 1.53816 -0.343257 0
M  V30 14787 C 1427.6 2.05028 0.254375 0
M  V30 14788 C 1428 1.21793 1.44786 0
M  V30 14789 O 1427.35 0.246075 1.82044 0
M  V30 14790 C 1427.41 3.5194 0.733364 0
M  V30 14791 C 1427.07 4.5573 -0.340434 0
M  V30 14792 C 1428.07 5.06261 -1.18304 0
M  V30 14793 C 1425.76 4.99862 -0.494277 0
M  V30 14794 C 1427.75 5.99504 -2.16503 0
M  V30 14795 C 1425.44 5.92916 -1.47967 0
M  V30 14796 C 1426.43 6.42625 -2.3135 0
M  V30 14797 O 1426.12 7.33848 -3.28211 0
M  V30 14798 H 1425.85 0.673922 0.0529695 0
M  V30 14799 H 1428.41 1.99387 -0.493352 0
M  V30 14800 H 1426.64 3.55044 1.53233 0
M  V30 14801 H 1428.33 3.86124 1.25151 0
M  V30 14802 H 1429.09 4.7293 -1.07527 0
M  V30 14803 H 1424.97 4.60772 0.144904 0
M  V30 14804 H 1428.52 6.38227 -2.81624 0
M  V30 14805 H 1424.41 6.25662 -1.588 0
M  V30 14806 H 1425.18 7.51781 -3.23679 0
M  V30 14807 N 1427.84 0.0718701 1.57436 0
M  V30 14808 C 1429.09 -0.596052 1.9311 0
M  V30 14809 C 1429.41 -1.70146 0.952652 0
M  V30 14810 O 1428.68 -1.959 0.000812941 0
M  V30 14811 H 1427.26 -0.223165 0.712886 0
M  V30 14812 H 1429.93 0.129744 1.94468 0
M  V30 14813 H 1429.02 -1.02132 2.94916 0
M  V30 14814 N 1429.32 -1.56304 -0.201686 0
M  V30 14815 C 1430.74 -1.49741 -0.552247 0
M  V30 14816 C 1430.94 -0.770683 -1.86179 0
M  V30 14817 O 1429.99 -0.318489 -2.50483 0
M  V30 14818 C 1431.31 -2.94384 -0.613083 0
M  V30 14819 C 1432.86 -3.05018 -0.702365 0
M  V30 14820 C 1433.33 -4.51058 -0.794371 0
M  V30 14821 N 1434.82 -4.55183 -0.858072 0
M  V30 14822 C 1435.56 -5.65487 -0.949317 0
M  V30 14823 N 1435.05 -6.85497 -1.00327 0
M  V30 14824 N 1436.85 -5.53385 -0.985995 0
M  V30 14825 H 1429 -2.01971 0.657394 0
M  V30 14826 H 1431.26 -0.918839 0.233322 0
M  V30 14827 H 1430.97 -3.50584 0.279921 0
M  V30 14828 H 1430.84 -3.47376 -1.47002 0
M  V30 14829 H 1433.23 -2.4887 -1.5858 0
M  V30 14830 H 1433.31 -2.55161 0.180636 0
M  V30 14831 H 1432.95 -5.07829 0.0846883 0
M  V30 14832 H 1432.88 -4.98641 -1.69308 0
M  V30 14833 H 1435.37 -3.68765 -0.825888 0
M  V30 14834 H 1435.69 -7.65312 -1.07322 0
M  V30 14835 H 1434.03 -6.88169 -0.972061 0
M  V30 14836 H 1437.22 -4.58552 -0.940635 0
M  V30 14837 H 1437.39 -6.39376 -1.05365 0
M  V30 14838 N 1430.8 0.469154 -1.50455 0
M  V30 14839 C 1432.21 1.04997 -1.54378 0
M  V30 14840 C 1432.56 1.93082 -0.348414 0
M  V30 14841 O 1431.69 2.09594 0.538469 0
M  V30 14842 C 1432.28 1.91096 -2.79764 0
M  V30 14843 C 1430.84 2.44283 -2.86361 0
M  V30 14844 C 1429.99 1.22676 -2.48688 0
M  V30 14845 H 1432.94 0.251692 -1.56691 0
M  V30 14846 H 1432.96 2.76186 -2.61728 0
M  V30 14847 H 1432.47 1.26961 -3.66746 0
M  V30 14848 H 1430.57 3.11966 -2.03735 0
M  V30 14849 H 1430.69 2.79258 -3.89297 0
M  V30 14850 H 1429.05 1.56215 -2.01169 0
M  V30 14851 H 1429.83 0.602002 -3.37981 0
M  V30 14852 N 1432.28 1.40065 0.722464 0
M  V30 14853 C 1433.69 1.33876 1.30131 0
M  V30 14854 C 1434.04 0.00899369 1.96198 0
M  V30 14855 O 1433.17 -0.893082 1.97112 0
M  V30 14856 C 1433.76 2.42469 2.36631 0
M  V30 14857 C 1432.32 2.39762 2.90157 0
M  V30 14858 C 1431.47 2.23704 1.63865 0
M  V30 14859 H 1434.42 1.49971 0.519077 0
M  V30 14860 H 1434.44 2.0998 3.17315 0
M  V30 14861 H 1433.95 3.39239 1.88517 0
M  V30 14862 H 1432.05 1.46669 3.42519 0
M  V30 14863 H 1432.16 3.35092 3.42419 0
M  V30 14864 H 1430.53 1.71098 1.88674 0
M  V30 14865 H 1431.31 3.22462 1.17785 0
M  V30 14866 N 1433.76 -0.95397 1.25448 0
M  V30 14867 C 1434.72 -2.03231 1.0597 0
M  V30 14868 C 1435.72 -1.60795 0.0122855 0
M  V30 14869 O 1436.91 -1.7233 0.254533 0
M  V30 14870 C 1434.04 -3.35414 0.609105 0
M  V30 14871 H 1435.24 -2.21943 2.01696 0
M  V30 14872 H 1432.79 -1.13115 1.07864 0
M  V30 14873 H 1433.52 -3.22398 -0.350723 0
M  V30 14874 H 1433.31 -3.67564 1.36526 0
M  V30 14875 H 1434.8 -4.14664 0.49428 0
M  V30 14876 N 1435.24 -1.07045 -1.15668 0
M  V30 14877 C 1436.2 -0.69198 -2.18505 0
M  V30 14878 C 1437.2 0.266185 -1.58582 0
M  V30 14879 O 1438.39 0.0475566 -1.74135 0
M  V30 14880 C 1435.52 -0.0194196 -3.40894 0
M  V30 14881 H 1436.71 -1.60241 -2.53501 0
M  V30 14882 H 1434.27 -0.866598 -1.30076 0
M  V30 14883 H 1435 0.903398 -3.11463 0
M  V30 14884 H 1434.79 -0.708519 -3.85645 0
M  V30 14885 H 1436.28 0.230829 -4.16962 0
M  V30 14886 N 1436.71 1.32449 -0.85411 0
M  V30 14887 C 1438.13 1.50046 -0.543895 0
M  V30 14888 C 1438.33 1.78985 0.925561 0
M  V30 14889 O 1437.39 1.85909 1.70862 0
M  V30 14890 C 1438.7 2.64499 -1.43041 0
M  V30 14891 C 1440.25 2.78384 -1.43078 0
M  V30 14892 C 1440.72 3.95915 -2.3025 0
M  V30 14893 N 1442.21 4.03176 -2.28043 0
M  V30 14894 C 1442.95 4.9335 -2.92221 0
M  V30 14895 N 1442.44 5.88536 -3.6551 0
M  V30 14896 N 1444.24 4.86468 -2.81612 0
M  V30 14897 H 1436.39 1.11931 -1.80514 0
M  V30 14898 H 1438.65 0.551626 -0.770982 0
M  V30 14899 H 1438.36 2.49842 -2.47532 0
M  V30 14900 H 1438.23 3.60269 -1.11742 0
M  V30 14901 H 1440.62 2.92464 -0.393529 0
M  V30 14902 H 1440.7 1.83329 -1.78393 0
M  V30 14903 H 1440.34 3.82594 -3.34043 0
M  V30 14904 H 1440.27 4.90245 -1.92268 0
M  V30 14905 H 1442.76 3.35064 -1.74759 0
M  V30 14906 H 1443.08 6.54038 -4.11648 0
M  V30 14907 H 1441.42 5.88564 -3.69618 0
M  V30 14908 H 1444.61 4.11076 -2.23907 0
M  V30 14909 H 1444.79 5.56542 -3.3191 0
M  V30 14910 N 1438.19 0.611994 1.45232 0
M  V30 14911 C 1439.6 0.193464 1.85695 0
M  V30 14912 C 1439.95 -1.25069 1.5117 0
M  V30 14913 O 1439.08 -1.94894 0.940497 0
M  V30 14914 C 1439.67 0.344334 3.37046 0
M  V30 14915 C 1438.23 -0.0195378 3.76395 0
M  V30 14916 C 1437.38 0.666714 2.69166 0
M  V30 14917 H 1440.33 0.818395 1.35971 0
M  V30 14918 H 1440.35 -0.422209 3.7815 0
M  V30 14919 H 1439.86 1.3955 3.62143 0
M  V30 14920 H 1437.96 -1.06971 3.56915 0
M  V30 14921 H 1438.08 0.377184 4.77613 0
M  V30 14922 H 1436.44 0.103912 2.54488 0
M  V30 14923 H 1437.22 1.7201 2.97099 0
M  V30 14924 N 1439.67 -1.53632 0.351409 0
M  V30 14925 C 1440.9 -2.05458 -0.243852 0
M  V30 14926 C 1441.31 -1.22588 -1.43589 0
M  V30 14927 O 1440.67 -0.263088 -1.80594 0
M  V30 14928 C 1440.72 -3.55586 -0.651226 0
M  V30 14929 O 1440.44 -4.35313 0.493415 0
M  V30 14930 C 1441.94 -4.23614 -1.30637 0
M  V30 14931 H 1439.16 -0.669443 -0.0456828 0
M  V30 14932 H 1441.71 -1.98149 0.505675 0
M  V30 14933 H 1439.86 -3.63091 -1.35068 0
M  V30 14934 H 1440.28 -5.24234 0.167107 0
M  V30 14935 H 1441.75 -5.30022 -1.5421 0
M  V30 14936 H 1442.23 -3.76449 -2.26236 0
M  V30 14937 H 1442.83 -4.20323 -0.648738 0
M  V30 14938 N 1441.15 -0.0802183 -1.57396 0
M  V30 14939 C 1442.4 0.585802 -1.93424 0
M  V30 14940 C 1442.72 1.69638 -0.961662 0
M  V30 14941 O 1441.99 1.95897 -0.011202 0
M  V30 14942 H 1440.57 0.219382 -0.714059 0
M  V30 14943 H 1443.23 -0.140055 -1.94396 0
M  V30 14944 H 1442.32 1.00566 -2.95454 0
M  V30 14945 N 1442.63 1.56409 0.193394 0
M  V30 14946 C 1443.59 1.93822 1.22334 0
M  V30 14947 C 1444.59 0.819513 1.3835 0
M  V30 14948 O 1445.78 1.0869 1.36132 0
M  V30 14949 C 1442.91 2.21375 2.59241 0
M  V30 14950 H 1444.1 2.85967 0.903502 0
M  V30 14951 H 1441.66 1.50125 0.43498 0
M  V30 14952 H 1442.39 1.31874 2.96277 0
M  V30 14953 H 1442.18 3.02899 2.48988 0
M  V30 14954 H 1443.67 2.51319 3.33509 0
M  V30 14955 N 1444.1 -0.461169 1.50702 0
M  V30 14956 C 1445.51 -1.04177 1.54932 0
M  V30 14957 C 1445.87 -1.92894 0.358648 0
M  V30 14958 O 1444.99 -2.09876 -0.527346 0
M  V30 14959 C 1445.59 -1.8961 2.80773 0
M  V30 14960 C 1444.14 -2.42761 2.87652 0
M  V30 14961 C 1443.29 -1.21356 2.49335 0
M  V30 14962 H 1446.24 -0.243379 1.56823 0
M  V30 14963 H 1446.26 -2.74794 2.63189 0
M  V30 14964 H 1445.78 -1.25014 3.67414 0
M  V30 14965 H 1443.88 -3.10881 2.05386 0
M  V30 14966 H 1443.99 -2.77189 3.90772 0
M  V30 14967 H 1442.35 -1.55146 2.01995 0
M  V30 14968 H 1443.14 -0.584069 3.38295 0
M  V30 14969 N 1445.58 -1.40446 -0.715026 0
M  V30 14970 C 1446.51 -1.36673 -1.83993 0
M  V30 14971 C 1447.53 -0.272038 -1.60511 0
M  V30 14972 O 1448.72 -0.532425 -1.70375 0
M  V30 14973 C 1445.82 -1.10423 -3.20406 0
M  V30 14974 C 1444.99 -2.31557 -3.71079 0
M  V30 14975 C 1444.05 -2.01459 -4.86108 0
M  V30 14976 O 1443.07 -2.7433 -4.9873 0
M  V30 14977 N 1444.28 -0.992899 -5.71946 0
M  V30 14978 H 1447.04 -2.3362 -1.87728 0
M  V30 14979 H 1444.6 -1.34807 -0.896586 0
M  V30 14980 H 1446.59 -0.88273 -3.94956 0
M  V30 14981 H 1445.16 -0.221408 -3.11815 0
M  V30 14982 H 1444.38 -2.69534 -2.87655 0
M  V30 14983 H 1445.67 -3.1231 -4.01671 0
M  V30 14984 H 1445.07 -0.389387 -5.64358 0
M  V30 14985 H 1443.63 -0.831299 -6.46477 0
M  V30 14986 N 1447.06 0.947303 -1.25952 0
M  V30 14987 C 1448.47 1.50755 -1.10136 0
M  V30 14988 C 1448.82 1.93566 0.320437 0
M  V30 14989 O 1447.95 1.79326 1.21125 0
M  V30 14990 C 1448.54 2.7397 -1.99313 0
M  V30 14991 C 1447.1 3.26283 -1.8766 0
M  V30 14992 C 1446.25 1.99088 -1.93027 0
M  V30 14993 H 1449.2 0.763427 -1.39131 0
M  V30 14994 H 1449.22 3.48057 -1.53742 0
M  V30 14995 H 1448.73 2.42781 -3.02785 0
M  V30 14996 H 1446.83 3.62277 -0.870992 0
M  V30 14997 H 1446.95 3.93803 -2.72866 0
M  V30 14998 H 1445.31 2.14714 -1.37003 0
M  V30 14999 H 1446.09 1.70237 -2.98118 0
M  V30 15000 N 1448.54 1.07657 1.15099 0
M  V30 15001 C 1449.79 0.800025 1.85591 0
M  V30 15002 C 1450.11 -0.675973 1.82909 0
M  V30 15003 O 1449.38 -1.48971 1.27218 0
M  V30 15004 H 1447.96 0.292958 0.687157 0
M  V30 15005 H 1450.62 1.36096 1.39513 0
M  V30 15006 H 1449.72 1.13733 2.90639 0
M  V30 15007 N 1450.02 -1.31994 0.861122 0
M  V30 15008 C 1450.93 -2.32495 0.313555 0
M  V30 15009 C 1451.94 -1.64331 -0.571966 0
M  V30 15010 O 1453.12 -1.9582 -0.470794 0
M  V30 15011 C 1450.18 -3.43311 -0.483603 0
M  V30 15012 C 1449.24 -4.27153 0.428825 0
M  V30 15013 C 1448.48 -5.32676 -0.330383 0
M  V30 15014 O 1448.7 -5.48665 -1.55957 0
M  V30 15015 O 1447.63 -6.01116 0.307174 0
M  V30 15016 H 1451.46 -2.81234 1.14636 0
M  V30 15017 H 1449.05 -1.35734 0.624239 0
M  V30 15018 H 1450.93 -4.10877 -0.935831 0
M  V30 15019 H 1449.6 -2.9675 -1.2931 0
M  V30 15020 H 1448.51 -3.62372 0.929366 0
M  V30 15021 H 1449.84 -4.77255 1.20368 0
M  V30 15022 N 1451.49 -0.619688 -1.44906 0
M  V30 15023 C 1452.42 0.0791121 -2.33366 0
M  V30 15024 C 1453.41 0.846503 -1.47541 0
M  V30 15025 O 1454.59 0.814657 -1.76287 0
M  V30 15026 C 1451.72 1.06901 -3.30438 0
M  V30 15027 C 1450.67 0.41403 -4.25993 0
M  V30 15028 C 1450 1.51303 -5.12846 0
M  V30 15029 C 1451.3 -0.672483 -5.17953 0
M  V30 15030 H 1452.99 -0.659551 -2.92045 0
M  V30 15031 H 1450.54 -0.318623 -1.40431 0
M  V30 15032 H 1452.49 1.56653 -3.912 0
M  V30 15033 H 1451.22 1.83842 -2.69944 0
M  V30 15034 H 1449.88 -0.0627315 -3.66546 0
M  V30 15035 H 1449.52 2.27303 -4.48712 0
M  V30 15036 H 1449.22 1.08022 -5.77586 0
M  V30 15037 H 1450.75 2.01258 -5.76479 0
M  V30 15038 H 1452.16 -0.258542 -5.72717 0
M  V30 15039 H 1450.56 -1.02776 -5.91234 0
M  V30 15040 H 1451.63 -1.54425 -4.59653 0
M  V30 15041 N 1452.97 1.53444 -0.359552 0
M  V30 15042 C 1453.9 2.23121 0.524379 0
M  V30 15043 C 1454.92 1.24324 1.05106 0
M  V30 15044 O 1456.11 1.50584 0.958476 0
M  V30 15045 C 1453.21 2.91055 1.7361 0
M  V30 15046 C 1452.38 4.16306 1.34195 0
M  V30 15047 C 1451.44 4.67504 2.41508 0
M  V30 15048 O 1450.46 5.3133 2.04149 0
M  V30 15049 N 1451.67 4.44801 3.73005 0
M  V30 15050 H 1454.43 2.99612 -0.072427 0
M  V30 15051 H 1451.99 1.60846 -0.184438 0
M  V30 15052 H 1453.98 3.22216 2.44865 0
M  V30 15053 H 1452.55 2.18052 2.23991 0
M  V30 15054 H 1451.77 3.91513 0.459501 0
M  V30 15055 H 1453.06 4.97746 1.05483 0
M  V30 15056 H 1452.46 3.9379 4.06136 0
M  V30 15057 H 1451.02 4.80528 4.40382 0
M  V30 15058 N 1454.45 0.0885642 1.57351 0
M  V30 15059 C 1455.36 -0.887092 2.17182 0
M  V30 15060 C 1456.38 -1.31498 1.13949 0
M  V30 15061 O 1457.55 -1.38424 1.4629 0
M  V30 15062 C 1454.62 -2.13053 2.73513 0
M  V30 15063 C 1453.68 -1.75747 3.91678 0
M  V30 15064 C 1452.91 -2.94163 4.45313 0
M  V30 15065 O 1453.13 -4.08693 3.97903 0
M  V30 15066 O 1452.07 -2.73008 5.36424 0
M  V30 15067 H 1455.89 -0.408073 3.00946 0
M  V30 15068 H 1453.48 -0.135431 1.48785 0
M  V30 15069 H 1455.36 -2.85937 3.09545 0
M  V30 15070 H 1454.04 -2.6002 1.92798 0
M  V30 15071 H 1452.94 -1.00064 3.60469 0
M  V30 15072 H 1454.28 -1.33549 4.73736 0
M  V30 15073 N 1455.93 -1.56509 -0.185096 0
M  V30 15074 C 1456.86 -1.98363 -1.23184 0
M  V30 15075 C 1457.84 -0.85709 -1.46929 0
M  V30 15076 O 1459.02 -1.12216 -1.58497 0
M  V30 15077 C 1456.15 -2.33172 -2.57387 0
M  V30 15078 C 1455.11 -3.48658 -2.48236 0
M  V30 15079 C 1454.43 -3.69171 -3.86804 0
M  V30 15080 C 1455.73 -4.82538 -1.99885 0
M  V30 15081 H 1457.43 -2.86053 -0.883982 0
M  V30 15082 H 1454.97 -1.37623 -0.423786 0
M  V30 15083 H 1456.93 -2.61048 -3.30805 0
M  V30 15084 H 1455.65 -1.42377 -2.93933 0
M  V30 15085 H 1454.31 -3.20889 -1.77273 0
M  V30 15086 H 1453.96 -2.75689 -4.20719 0
M  V30 15087 H 1453.66 -4.46868 -3.81553 0
M  V30 15088 H 1455.18 -3.99433 -4.61829 0
M  V30 15089 H 1456.6 -5.0938 -2.63068 0
M  V30 15090 H 1454.99 -5.63775 -2.05614 0
M  V30 15091 H 1456.06 -4.75453 -0.952503 0
M  V30 15092 N 1457.41 0.45317 -1.50944 0
M  V30 15093 C 1458.32 1.57435 -1.73929 0
M  V30 15094 C 1459.33 1.62467 -0.622935 0
M  V30 15095 O 1460.51 1.80004 -0.903365 0
M  V30 15096 C 1457.57 2.93534 -1.84495 0
M  V30 15097 C 1456.63 2.98747 -3.083 0
M  V30 15098 C 1455.87 4.28354 -3.18352 0
M  V30 15099 O 1456.09 5.1986 -2.34738 0
M  V30 15100 O 1455.02 4.39527 -4.11217 0
M  V30 15101 H 1458.85 1.40959 -2.69006 0
M  V30 15102 H 1456.44 0.634545 -1.35255 0
M  V30 15103 H 1458.32 3.74336 -1.93522 0
M  V30 15104 H 1456.99 3.10171 -0.926044 0
M  V30 15105 H 1455.9 2.16958 -3.04762 0
M  V30 15106 H 1457.23 2.87051 -3.99828 0
M  V30 15107 N 1458.88 1.40823 0.707568 0
M  V30 15108 C 1460.3 1.23029 1.01666 0
M  V30 15109 C 1460.5 0.111152 2.01193 0
M  V30 15110 O 1459.56 -0.52836 2.4691 0
M  V30 15111 C 1460.87 2.57509 1.55272 0
M  V30 15112 C 1462.42 2.6459 1.67216 0
M  V30 15113 C 1462.89 3.99357 2.24227 0
M  V30 15114 N 1464.38 4.01141 2.31603 0
M  V30 15115 C 1465.12 5.02211 2.76715 0
M  V30 15116 N 1464.61 6.13674 3.21521 0
M  V30 15117 N 1466.41 4.89577 2.76172 0
M  V30 15118 H 1458.56 2.12346 0.0480107 0
M  V30 15119 H 1460.82 0.944281 0.0838885 0
M  V30 15120 H 1460.53 3.40095 0.896012 0
M  V30 15121 H 1460.4 2.79158 2.53674 0
M  V30 15122 H 1462.79 1.8237 2.32002 0
M  V30 15123 H 1462.87 2.46763 0.673927 0
M  V30 15124 H 1462.51 4.8202 1.6006 0
M  V30 15125 H 1462.44 4.14518 3.2478 0
M  V30 15126 H 1464.93 3.20657 1.99968 0
M  V30 15127 H 1465.25 6.86677 3.54534 0
M  V30 15128 H 1463.59 6.17228 3.1946 0
M  V30 15129 H 1466.78 4.01588 2.40509 0
M  V30 15130 H 1466.96 5.68485 3.11012 0
M  V30 15131 N 1460.36 -0.94061 1.26453 0
M  V30 15132 C 1461.78 -1.21424 1.03578 0
M  V30 15133 C 1461.98 -2.00081 -0.238726 0
M  V30 15134 O 1461.03 -2.3404 -0.947709 0
M  V30 15135 C 1462.35 -1.97496 2.26751 0
M  V30 15136 C 1463.9 -2.10485 2.31657 0
M  V30 15137 C 1464.37 -2.89959 3.54525 0
M  V30 15138 N 1465.86 -2.97533 3.55005 0
M  V30 15139 C 1466.6 -3.59456 4.46742 0
M  V30 15140 N 1466.09 -4.22876 5.48769 0
M  V30 15141 N 1467.89 -3.56734 4.34393 0
M  V30 15142 H 1460.04 -0.414788 2.08311 0
M  V30 15143 H 1462.3 -0.246047 0.915513 0
M  V30 15144 H 1462.01 -1.47109 3.19456 0
M  V30 15145 H 1461.88 -2.98159 2.31043 0
M  V30 15146 H 1464.27 -2.60064 1.39466 0
M  V30 15147 H 1464.35 -1.09082 2.31376 0
M  V30 15148 H 1463.99 -2.41067 4.47045 0
M  V30 15149 H 1463.92 -3.91619 3.52054 0
M  V30 15150 H 1466.41 -2.52446 2.81211 0
M  V30 15151 H 1466.73 -4.68026 6.14956 0
M  V30 15152 H 1465.07 -4.21461 5.52626 0
M  V30 15153 H 1468.26 -3.06381 3.53904 0
M  V30 15154 H 1468.43 -4.04706 5.0608 0
M  V30 15155 N 1461.84 -1.08266 -1.14527 0
M  V30 15156 C 1463.09 -0.806405 -1.84878 0
M  V30 15157 C 1463.4 0.670151 -1.83762 0
M  V30 15158 O 1464.61 1.06151 -2.49888 0
M  V30 15159 C 1463.06 -1.39257 -3.31867 0
M  V30 15160 C 1462.67 -2.90081 -3.41404 0
M  V30 15161 C 1464.42 -1.19475 -4.0734 0
M  V30 15162 C 1462.32 -3.41842 -4.82595 0
M  V30 15163 H 1461.25 -0.297993 -0.692615 0
M  V30 15164 H 1463.9 -1.30389 -1.29116 0
M  V30 15165 H 1462.29 -0.822802 -3.87358 0
M  V30 15166 H 1463.46 -3.53182 -2.95971 0
M  V30 15167 H 1461.78 -3.08761 -2.79385 0
M  V30 15168 H 1464.37 -1.55614 -5.11555 0
M  V30 15169 H 1464.72 -0.134455 -4.16083 0
M  V30 15170 H 1465.25 -1.73138 -3.58145 0
M  V30 15171 H 1461.99 -4.47439 -4.79039 0
M  V30 15172 H 1461.51 -2.835 -5.28572 0
M  V30 15173 H 1463.19 -3.38346 -5.51481 0
M  V30 15174 N 1463.32 1.31536 -0.86811 0
M  V30 15175 C 1464.23 2.32326 -0.32588 0
M  V30 15176 C 1465.25 1.64632 0.563243 0
M  V30 15177 O 1466.42 1.96067 0.460403 0
M  V30 15178 C 1463.49 3.43562 0.46539 0
M  V30 15179 C 1462.55 4.26919 -0.451472 0
M  V30 15180 C 1461.78 5.32844 0.302129 0
M  V30 15181 O 1462 5.49485 1.53045 0
M  V30 15182 O 1460.94 6.00944 -0.339048 0
M  V30 15183 H 1464.76 2.80622 -1.16126 0
M  V30 15184 H 1462.35 1.35401 -0.631428 0
M  V30 15185 H 1464.23 4.11368 0.914028 0
M  V30 15186 H 1462.91 2.97432 1.27734 0
M  V30 15187 H 1461.81 3.61874 -0.948571 0
M  V30 15188 H 1463.15 4.7661 -1.22897 0
M  V30 15189 N 1464.8 0.627364 1.44575 0
M  V30 15190 C 1466.04 0.130545 2.02379 0
M  V30 15191 C 1466.38 -1.24301 1.49208 0
M  V30 15192 O 1465.65 -1.82425 0.674626 0
M  V30 15193 C 1465.93 0.11311 3.59922 0
M  V30 15194 C 1465.79 1.51874 4.23385 0
M  V30 15195 C 1467.11 -0.564341 4.36467 0
M  V30 15196 H 1464.23 0.0489125 0.735375 0
M  V30 15197 H 1466.87 0.803118 1.72192 0
M  V30 15198 H 1465.02 -0.459621 3.85772 0
M  V30 15199 H 1466.69 2.14007 4.08655 0
M  V30 15200 H 1464.93 2.07371 3.81024 0
M  V30 15201 H 1465.6 1.4586 5.3238 0
M  V30 15202 H 1468.08 -0.0773244 4.16028 0
M  V30 15203 H 1466.96 -0.545715 5.46181 0
M  V30 15204 H 1467.22 -1.63403 4.10794 0
M  V30 15205 N 1466.28 -1.53251 0.367684 0
M  V30 15206 C 1467.24 -2.24423 -0.465516 0
M  V30 15207 C 1468.24 -1.25283 -1.00801 0
M  V30 15208 O 1469.43 -1.49545 -0.893424 0
M  V30 15209 C 1466.56 -2.9826 -1.65087 0
M  V30 15210 H 1467.75 -2.99487 0.157292 0
M  V30 15211 H 1465.31 -1.55843 0.119409 0
M  V30 15212 H 1466.04 -2.27443 -2.31171 0
M  V30 15213 H 1465.83 -3.71003 -1.26882 0
M  V30 15214 H 1467.32 -3.52358 -2.24128 0
M  V30 15215 N 1467.75 -0.0969077 -1.57302 0
M  V30 15216 C 1469.17 0.25974 -1.57472 0
M  V30 15217 C 1469.37 1.6829 -1.10818 0
M  V30 15218 O 1468.43 2.39972 -0.785466 0
M  V30 15219 C 1469.74 0.0465211 -3.00664 0
M  V30 15220 C 1471.29 0.114131 -3.12792 0
M  V30 15221 C 1471.76 -0.0711175 -4.57945 0
M  V30 15222 N 1473.25 -0.0163438 -4.63197 0
M  V30 15223 C 1473.99 -0.1349 -5.73241 0
M  V30 15224 N 1473.48 -0.308391 -6.92113 0
M  V30 15225 N 1475.28 -0.0760411 -5.62049 0
M  V30 15226 H 1467.43 -1.02673 -1.85935 0
M  V30 15227 H 1469.69 -0.402528 -0.858298 0
M  V30 15228 H 1469.4 -0.936496 -3.39002 0
M  V30 15229 H 1469.27 0.78805 -3.68876 0
M  V30 15230 H 1471.66 1.08765 -2.74325 0
M  V30 15231 H 1471.74 -0.658918 -2.47168 0
M  V30 15232 H 1471.38 -1.04152 -4.97106 0
M  V30 15233 H 1471.31 0.721647 -5.21632 0
M  V30 15234 H 1473.8 0.115134 -3.77725 0
M  V30 15235 H 1474.12 -0.390318 -7.71814 0
M  V30 15236 H 1472.46 -0.344082 -6.94148 0
M  V30 15237 H 1475.65 0.0583778 -4.68064 0
M  V30 15238 H 1475.83 -0.171884 -6.47772 0
M  V30 15239 N 1469.23 1.56605 0.176793 0
M  V30 15240 C 1470.14 1.99211 1.23903 0
M  V30 15241 C 1471.16 0.902614 1.48758 0
M  V30 15242 O 1472.33 1.20982 1.61014 0
M  V30 15243 C 1469.4 2.33873 2.55938 0
M  V30 15244 C 1468.46 3.56624 2.38994 0
M  V30 15245 C 1467.69 3.89623 3.64733 0
M  V30 15246 O 1467.92 3.23662 4.6968 0
M  V30 15247 O 1466.85 4.82992 3.5917 0
M  V30 15248 H 1470.68 2.89827 0.907398 0
M  V30 15249 H 1468.26 1.44401 0.383234 0
M  V30 15250 H 1470.14 2.57161 3.33836 0
M  V30 15251 H 1468.82 1.46421 2.88691 0
M  V30 15252 H 1467.72 3.38561 1.59146 0
M  V30 15253 H 1469.06 4.446 2.11167 0
M  V30 15254 N 1470.71 -0.445159 1.51182 0
M  V30 15255 C 1472.13 -0.781023 1.39184 0
M  V30 15256 C 1472.33 -1.95988 0.468076 0
M  V30 15257 O 1471.38 -2.52374 -0.0796822 0
M  V30 15258 C 1472.69 -1.06874 2.81067 0
M  V30 15259 C 1474.24 -1.17364 2.90163 0
M  V30 15260 C 1474.72 -1.49433 4.32936 0
M  V30 15261 N 1476.21 -1.56373 4.36006 0
M  V30 15262 C 1476.94 -1.82743 5.435 0
M  V30 15263 N 1476.44 -2.06958 6.61166 0
M  V30 15264 N 1478.23 -1.84461 5.30971 0
M  V30 15265 H 1470.38 0.331347 2.098 0
M  V30 15266 H 1472.65 0.0858102 0.944108 0
M  V30 15267 H 1472.35 -0.275306 3.50621 0
M  V30 15268 H 1472.23 -1.99839 3.19913 0
M  V30 15269 H 1474.61 -1.95771 2.20812 0
M  V30 15270 H 1474.69 -0.22318 2.54825 0
M  V30 15271 H 1474.34 -0.715573 5.02834 0
M  V30 15272 H 1474.27 -2.45673 4.65782 0
M  V30 15273 H 1476.76 -1.39595 3.51172 0
M  V30 15274 H 1477.07 -2.26427 7.38885 0
M  V30 15275 H 1475.42 -2.04297 6.64295 0
M  V30 15276 H 1478.61 -1.65057 4.38034 0
M  V30 15277 H 1478.78 -2.04675 6.14827 0
M  V30 15278 N 1472.19 -1.41197 -0.700089 0
M  V30 15279 C 1473.12 -1.45456 -1.8266 0
M  V30 15280 C 1474.1 -0.313719 -1.67182 0
M  V30 15281 O 1475.28 -0.524528 -1.86982 0
M  V30 15282 C 1472.41 -1.33161 -3.20758 0
M  V30 15283 C 1471.37 -2.4501 -3.50933 0
M  V30 15284 C 1470.69 -2.17782 -4.88339 0
M  V30 15285 C 1471.99 -3.87352 -3.50365 0
M  V30 15286 H 1473.69 -2.39735 -1.79353 0
M  V30 15287 H 1471.23 -1.1539 -0.861465 0
M  V30 15288 H 1473.19 -1.34754 -3.99274 0
M  V30 15289 H 1471.91 -0.353646 -3.2468 0
M  V30 15290 H 1470.57 -2.42692 -2.74766 0
M  V30 15291 H 1470.22 -1.1834 -4.88881 0
M  V30 15292 H 1469.92 -2.92728 -5.09494 0
M  V30 15293 H 1471.44 -2.21083 -5.6917 0
M  V30 15294 H 1472.86 -3.9141 -4.18893 0
M  V30 15295 H 1471.25 -4.61944 -3.83051 0
M  V30 15296 H 1472.32 -4.15827 -2.4943 0
M  V30 15297 N 1473.67 0.933891 -1.2695 0
M  V30 15298 C 1475.08 1.20873 -1.0422 0
M  V30 15299 C 1475.28 2.00205 0.228112 0
M  V30 15300 O 1474.34 2.34539 0.935284 0
M  V30 15301 C 1475.65 1.9629 -2.27795 0
M  V30 15302 C 1477.2 2.09254 -2.3277 0
M  V30 15303 C 1477.67 2.88075 -3.56057 0
M  V30 15304 N 1479.16 2.95646 -3.56578 0
M  V30 15305 C 1479.9 3.57082 -4.48642 0
M  V30 15306 N 1479.4 4.1996 -5.51004 0
M  V30 15307 N 1481.19 3.54425 -4.36279 0
M  V30 15308 H 1473.34 0.403735 -2.08528 0
M  V30 15309 H 1475.6 0.241189 -0.916805 0
M  V30 15310 H 1475.31 1.45412 -3.20231 0
M  V30 15311 H 1475.18 2.9693 -2.32621 0
M  V30 15312 H 1477.57 2.5932 -1.40844 0
M  V30 15313 H 1477.65 1.07854 -2.31951 0
M  V30 15314 H 1477.29 2.38693 -4.48317 0
M  V30 15315 H 1477.22 3.89746 -3.54126 0
M  V30 15316 H 1479.72 2.50951 -2.82545 0
M  V30 15317 H 1480.03 4.64758 -6.1743 0
M  V30 15318 H 1478.37 4.18525 -5.54853 0
M  V30 15319 H 1481.56 3.045 -3.55524 0
M  V30 15320 H 1481.74 4.02016 -5.0822 0
M  V30 15321 N 1475.14 1.08871 1.13951 0
M  V30 15322 C 1476.08 0.680849 2.18854 0
M  V30 15323 C 1477.09 -0.274456 1.6047 0
M  V30 15324 O 1478.28 -0.0613804 1.78394 0
M  V30 15325 C 1475.38 -0.0182788 3.38895 0
M  V30 15326 C 1474.55 0.957125 4.268 0
M  V30 15327 C 1473.61 0.29245 5.25387 0
M  V30 15328 O 1472.64 0.938329 5.61413 0
M  V30 15329 N 1473.84 -0.955738 5.72578 0
M  V30 15330 H 1476.6 1.58334 2.54461 0
M  V30 15331 H 1474.16 0.975417 1.29218 0
M  V30 15332 H 1476.16 -0.474001 4.01915 0
M  V30 15333 H 1474.73 -0.822932 3.01574 0
M  V30 15334 H 1473.95 1.59156 3.60642 0
M  V30 15335 H 1475.23 1.61792 4.82391 0
M  V30 15336 H 1474.63 -1.50014 5.45447 0
M  V30 15337 H 1473.19 -1.35488 6.37563 0
M  V30 15338 N 1476.62 -1.31073 0.875073 0
M  V30 15339 C 1477.58 -2.26672 0.339481 0
M  V30 15340 C 1478.58 -1.52416 -0.512439 0
M  V30 15341 O 1479.77 -1.71217 -0.321012 0
M  V30 15342 C 1476.91 -3.36952 -0.517311 0
M  V30 15343 H 1478.1 -2.7556 1.18349 0
M  V30 15344 H 1475.65 -1.42093 0.65109 0
M  V30 15345 H 1476.39 -2.93364 -1.38231 0
M  V30 15346 H 1476.17 -3.9199 0.092773 0
M  V30 15347 H 1477.66 -4.08133 -0.884154 0
M  V30 15348 N 1478.1 -0.635022 -1.4424 0
M  V30 15349 C 1479.03 0.0543561 -2.33437 0
M  V30 15350 C 1480.01 0.830807 -1.48431 0
M  V30 15351 O 1481.2 0.795913 -1.77141 0
M  V30 15352 C 1478.33 1.03391 -3.31553 0
M  V30 15353 C 1477.28 0.368824 -4.26408 0
M  V30 15354 C 1476.61 1.45855 -5.14422 0
M  V30 15355 C 1477.91 -0.727381 -5.1721 0
M  V30 15356 H 1479.6 -0.690489 -2.91329 0
M  V30 15357 H 1477.15 -0.3335 -1.40085 0
M  V30 15358 H 1479.1 1.52495 -3.9284 0
M  V30 15359 H 1477.82 1.80969 -2.71878 0
M  V30 15360 H 1476.48 -0.101605 -3.66459 0
M  V30 15361 H 1476.13 2.22531 -4.51098 0
M  V30 15362 H 1475.83 1.0189 -5.78699 0
M  V30 15363 H 1477.35 1.95132 -5.78581 0
M  V30 15364 H 1478.77 -0.319272 -5.7241 0
M  V30 15365 H 1477.17 -1.09041 -5.9011 0
M  V30 15366 H 1478.24 -1.59292 -4.57989 0
M  V30 15367 N 1479.58 1.53054 -0.375806 0
M  V30 15368 C 1480.82 2.017 0.210985 0
M  V30 15369 C 1481.16 1.26228 1.47581 0
M  V30 15370 O 1480.43 0.358869 1.91161 0
M  V30 15371 C 1480.72 3.56715 0.492596 0
M  V30 15372 C 1480.57 4.42869 -0.786573 0
M  V30 15373 C 1481.89 4.20803 1.28891 0
M  V30 15374 H 1479.01 0.733153 0.0752084 0
M  V30 15375 H 1481.65 1.83229 -0.502715 0
M  V30 15376 H 1479.8 3.72585 1.10059 0
M  V30 15377 H 1481.47 4.38777 -1.42381 0
M  V30 15378 H 1479.71 4.10425 -1.40478 0
M  V30 15379 H 1480.38 5.49309 -0.544354 0
M  V30 15380 H 1482.86 4.08828 0.774498 0
M  V30 15381 H 1481.74 5.29273 1.45469 0
M  V30 15382 H 1482 3.77541 2.30033 0
M  V30 15383 N 1481.06 0.105248 1.57248 0
M  V30 15384 C 1482.47 -0.251385 1.57608 0
M  V30 15385 C 1482.67 -1.677 1.11709 0
M  V30 15386 O 1481.73 -2.39552 0.798182 0
M  V30 15387 C 1483.04 -0.0305755 3.00684 0
M  V30 15388 C 1484.59 -0.0975409 3.12848 0
M  V30 15389 C 1485.06 0.0954024 4.57901 0
M  V30 15390 N 1486.56 0.040908 4.63182 0
M  V30 15391 C 1487.29 0.165298 5.73162 0
M  V30 15392 N 1486.79 0.345091 6.9194 0
M  V30 15393 N 1488.58 0.105847 5.62 0
M  V30 15394 H 1480.73 1.03658 1.85388 0
M  V30 15395 H 1482.99 0.407074 0.856151 0
M  V30 15396 H 1482.7 0.954461 3.38501 0
M  V30 15397 H 1482.57 -0.768477 3.69289 0
M  V30 15398 H 1484.96 -1.07309 2.74898 0
M  V30 15399 H 1485.04 0.672017 2.46815 0
M  V30 15400 H 1484.69 1.06786 4.96547 0
M  V30 15401 H 1484.62 -0.693974 5.22007 0
M  V30 15402 H 1487.11 -0.0951009 3.7778 0
M  V30 15403 H 1487.42 0.431243 7.71596 0
M  V30 15404 H 1485.76 0.38089 6.93955 0
M  V30 15405 H 1488.96 -0.0335544 4.68088 0
M  V30 15406 H 1489.13 0.206235 6.47672 0
M  V30 15407 N 1482.53 -1.56697 -0.168486 0
M  V30 15408 C 1483.95 -1.50879 -0.52036 0
M  V30 15409 C 1484.15 -0.810001 -1.84503 0
M  V30 15410 O 1483.21 -0.371549 -2.49751 0
M  V30 15411 C 1484.52 -2.95618 -0.550502 0
M  V30 15412 C 1486.07 -3.06439 -0.637508 0
M  V30 15413 C 1486.54 -4.52642 -0.698516 0
M  V30 15414 N 1488.03 -4.569 -0.761328 0
M  V30 15415 C 1488.77 -5.67373 -0.829155 0
M  V30 15416 N 1488.26 -6.87471 -0.857642 0
M  V30 15417 N 1490.06 -5.55352 -0.868392 0
M  V30 15418 H 1482.21 -2.00531 0.700087 0
M  V30 15419 H 1484.47 -0.913683 0.252759 0
M  V30 15420 H 1484.18 -3.49912 0.354222 0
M  V30 15421 H 1484.05 -3.50416 -1.396 0
M  V30 15422 H 1486.44 -2.52178 -1.53266 0
M  V30 15423 H 1486.52 -2.54721 0.234719 0
M  V30 15424 H 1486.16 -5.07535 0.192387 0
M  V30 15425 H 1486.09 -5.0212 -1.58693 0
M  V30 15426 H 1488.58 -3.70434 -0.747482 0
M  V30 15427 H 1488.9 -7.67416 -0.910648 0
M  V30 15428 H 1487.24 -6.90076 -0.825872 0
M  V30 15429 H 1490.43 -4.60444 -0.843158 0
M  V30 15430 H 1490.61 -6.41468 -0.917789 0
M  V30 15431 N 1484.01 0.437135 -1.51416 0
M  V30 15432 C 1485.26 1.18421 -1.63771 0
M  V30 15433 C 1485.58 1.91718 -0.356282 0
M  V30 15434 O 1484.85 1.85566 0.627863 0
M  V30 15435 H 1483.43 0.440125 -0.603572 0
M  V30 15436 H 1486.09 0.501155 -1.88347 0
M  V30 15437 H 1485.19 1.91367 -2.46546 0
M  V30 15438 N 1485.49 1.41566 0.692592 0
M  V30 15439 C 1486.42 1.39582 1.81795 0
M  V30 15440 C 1487.44 0.29754 1.60058 0
M  V30 15441 O 1488.62 0.559463 1.69506 0
M  V30 15442 C 1485.72 1.15506 3.18609 0
M  V30 15443 C 1484.9 2.37432 3.67349 0
M  V30 15444 C 1483.96 2.09168 4.82841 0
M  V30 15445 O 1482.98 2.8223 4.94303 0
M  V30 15446 N 1484.18 1.08377 5.70294 0
M  V30 15447 H 1486.95 2.36577 1.83988 0
M  V30 15448 H 1484.51 1.36216 0.875026 0
M  V30 15449 H 1486.5 0.945452 3.93501 0
M  V30 15450 H 1485.07 0.270987 3.11423 0
M  V30 15451 H 1484.29 2.74076 2.8333 0
M  V30 15452 H 1485.58 3.18661 3.96652 0
M  V30 15453 H 1484.98 0.479122 5.63667 0
M  V30 15454 H 1483.54 0.934042 6.45073 0
M  V30 15455 N 1486.97 -0.927146 1.27443 0
M  V30 15456 C 1487.9 -2.04483 1.12735 0
M  V30 15457 C 1488.88 -1.70076 0.0286662 0
M  V30 15458 O 1490.06 -1.93133 0.203252 0
M  V30 15459 C 1487.19 -3.38557 0.774352 0
M  V30 15460 C 1486.15 -3.87078 1.82632 0
M  V30 15461 C 1485.47 -5.17964 1.32729 0
M  V30 15462 C 1486.77 -4.10409 3.23051 0
M  V30 15463 H 1488.47 -2.17046 2.06231 0
M  V30 15464 H 1486.01 -1.04292 0.992937 0
M  V30 15465 H 1487.97 -4.16227 0.658273 0
M  V30 15466 H 1486.69 -3.26009 -0.196321 0
M  V30 15467 H 1485.35 -3.11602 1.93132 0
M  V30 15468 H 1485 -5.01808 0.346059 0
M  V30 15469 H 1484.7 -5.51398 2.03061 0
M  V30 15470 H 1486.22 -5.98203 1.22416 0
M  V30 15471 H 1487.64 -4.78646 3.15549 0
M  V30 15472 H 1486.03 -4.5515 3.91099 0
M  V30 15473 H 1487.1 -3.15685 3.68064 0
M  V30 15474 N 1488.45 -1.09474 -1.13372 0
M  V30 15475 C 1489.38 -0.756441 -2.20908 0
M  V30 15476 C 1490.36 0.266113 -1.68006 0
M  V30 15477 O 1491.54 0.134067 -1.93737 0
M  V30 15478 C 1488.67 -0.176733 -3.4685 0
M  V30 15479 C 1487.63 -1.12886 -4.12845 0
M  V30 15480 C 1486.95 -0.410831 -5.33119 0
M  V30 15481 C 1488.25 -2.47148 -4.60125 0
M  V30 15482 H 1489.95 -1.65555 -2.49463 0
M  V30 15483 H 1487.49 -0.797458 -1.19902 0
M  V30 15484 H 1489.45 0.0720151 -4.21338 0
M  V30 15485 H 1488.17 0.757576 -3.17692 0
M  V30 15486 H 1486.83 -1.36289 -3.40325 0
M  V30 15487 H 1486.48 0.527632 -5.00225 0
M  V30 15488 H 1486.18 -1.04567 -5.78221 0
M  V30 15489 H 1487.7 -0.170394 -6.10362 0
M  V30 15490 H 1489.11 -2.27949 -5.26034 0
M  V30 15491 H 1487.51 -3.06425 -5.15969 0
M  V30 15492 H 1488.58 -3.07874 -3.74622 0
M  V30 15493 N 1489.92 1.30607 -0.882012 0
M  V30 15494 C 1490.89 2.26489 -0.351498 0
M  V30 15495 C 1491.89 1.52686 0.504348 0
M  V30 15496 O 1493.08 1.71385 0.311928 0
M  V30 15497 C 1490.21 3.37222 0.499435 0
M  V30 15498 H 1491.4 2.74929 -1.19809 0
M  V30 15499 H 1488.96 1.41746 -0.658616 0
M  V30 15500 H 1489.69 2.94093 1.36673 0
M  V30 15501 H 1489.48 3.91936 -0.11356 0
M  V30 15502 H 1490.97 4.08596 0.862497 0
M  V30 15503 N 1491.4 0.642663 1.43901 0
M  V30 15504 C 1492.33 -0.0938945 2.29008 0
M  V30 15505 C 1493.35 -0.797561 1.41925 0
M  V30 15506 O 1494.54 -0.65708 1.65966 0
M  V30 15507 C 1491.64 -1.15564 3.18588 0
M  V30 15508 C 1490.81 -0.532208 4.3415 0
M  V30 15509 C 1489.87 -1.48943 5.0468 0
M  V30 15510 O 1488.89 -1.00211 5.60309 0
M  V30 15511 N 1490.1 -2.82362 5.072 0
M  V30 15512 H 1492.86 0.636539 2.92862 0
M  V30 15513 H 1490.42 0.484665 1.54475 0
M  V30 15514 H 1492.41 -1.79658 3.62636 0
M  V30 15515 H 1490.98 -1.78816 2.56405 0
M  V30 15516 H 1490.2 0.287598 3.93149 0
M  V30 15517 H 1491.49 -0.0965526 5.08708 0
M  V30 15518 H 1490.89 -3.24524 4.63358 0
M  V30 15519 H 1489.45 -3.41786 5.55001 0
M  V30 15520 N 1492.88 -1.52852 0.383918 0
M  V30 15521 C 1493.81 -2.29213 -0.44539 0
M  V30 15522 C 1494.79 -1.3238 -1.06815 0
M  V30 15523 O 1495.98 -1.61269 -1.08194 0
M  V30 15524 C 1493.11 -3.09497 -1.57573 0
M  V30 15525 C 1492.06 -4.14168 -1.07928 0
M  V30 15526 C 1491.39 -4.82644 -2.30128 0
M  V30 15527 C 1492.69 -5.22082 -0.151035 0
M  V30 15528 H 1494.38 -2.98786 0.19172 0
M  V30 15529 H 1491.93 -1.43695 0.0936471 0
M  V30 15530 H 1493.88 -3.61672 -2.16267 0
M  V30 15531 H 1492.6 -2.37647 -2.24034 0
M  V30 15532 H 1491.26 -3.62966 -0.514909 0
M  V30 15533 H 1490.91 -4.07348 -2.95087 0
M  V30 15534 H 1490.61 -5.53388 -1.97574 0
M  V30 15535 H 1492.14 -5.37621 -2.89475 0
M  V30 15536 H 1493.55 -5.69649 -0.646003 0
M  V30 15537 H 1491.95 -6.00041 0.0844833 0
M  V30 15538 H 1493.02 -4.78228 0.801618 0
M  V30 15539 N 1494.36 -0.113586 -1.5719 0
M  V30 15540 C 1495.61 0.544642 -1.94623 0
M  V30 15541 C 1495.93 1.6756 -0.997428 0
M  V30 15542 O 1495.2 1.95829 -0.0527521 0
M  V30 15543 H 1493.78 0.204186 -0.718552 0
M  V30 15544 H 1496.44 -0.181258 -1.94055 0
M  V30 15545 H 1495.54 0.942765 -2.9752 0
M  V30 15546 N 1495.84 1.56784 0.160173 0
M  V30 15547 C 1497.11 1.73513 0.902908 0
M  V30 15548 C 1497.49 0.678036 1.99915 0
M  V30 15549 O 1496.84 -0.305302 2.26451 0
M  V30 15550 C 1497.05 3.17111 1.45744 0
M  V30 15551 C 1498.4 3.78404 1.92602 0
M  V30 15552 O 1499.42 3.20459 1.55515 0
M  V30 15553 O 1498.28 4.80172 2.60954 0
M  V30 15554 H 1495.38 0.708981 0.425764 0
M  V30 15555 H 1497.92 1.69061 0.147129 0
M  V30 15556 H 1496.7 3.85539 0.668985 0
M  V30 15557 H 1496.32 3.25936 2.2771 0
M  V30 15558 N 1497.32 -0.429099 1.51646 0
M  V30 15559 C 1498.54 -1.20465 1.68828 0
M  V30 15560 C 1498.97 -1.84044 0.388514 0
M  V30 15561 O 1498.32 -1.69165 -0.652152 0
M  V30 15562 C 1498.37 -2.25831 2.81128 0
M  V30 15563 O 1497.48 -3.31511 2.45305 0
M  V30 15564 H 1496.82 -0.352568 0.562665 0
M  V30 15565 H 1499.35 -0.505698 1.98252 0
M  V30 15566 H 1499.36 -2.70484 3.05455 0
M  V30 15567 H 1498.03 -1.78934 3.7544 0
M  V30 15568 H 1496.61 -2.92277 2.31579 0
M  V30 15569 N 1498.79 -1.41931 -0.685074 0
M  V30 15570 C 1499.76 -1.44315 -1.78061 0
M  V30 15571 C 1500.76 -0.332215 -1.57331 0
M  V30 15572 O 1501.95 -0.59258 -1.63811 0
M  V30 15573 C 1499.08 -1.26479 -3.16569 0
M  V30 15574 H 1500.27 -2.4185 -1.77337 0
M  V30 15575 H 1497.82 -1.28228 -0.893721 0
M  V30 15576 H 1498.56 -0.298259 -3.22926 0
M  V30 15577 H 1498.34 -2.06981 -3.33018 0
M  V30 15578 H 1499.83 -1.31006 -3.96519 0
M  V30 15579 N 1500.27 0.920374 -1.27933 0
M  V30 15580 C 1501.69 1.19761 -1.05496 0
M  V30 15581 C 1501.89 2.00435 0.206864 0
M  V30 15582 O 1500.94 2.35518 0.910356 0
M  V30 15583 C 1502.26 1.93863 -2.29864 0
M  V30 15584 C 1503.8 2.06773 -2.34976 0
M  V30 15585 C 1504.28 2.84282 -3.59093 0
M  V30 15586 N 1505.77 2.91847 -3.59694 0
M  V30 15587 C 1506.51 3.52303 -4.52404 0
M  V30 15588 N 1506 4.14092 -5.55427 0
M  V30 15589 N 1507.79 3.49778 -4.40013 0
M  V30 15590 H 1499.95 0.381596 -2.08944 0
M  V30 15591 H 1502.21 0.231451 -0.919312 0
M  V30 15592 H 1501.91 1.42008 -3.21756 0
M  V30 15593 H 1501.79 2.94446 -2.35757 0
M  V30 15594 H 1504.18 2.57812 -1.43586 0
M  V30 15595 H 1504.26 1.05388 -2.33082 0
M  V30 15596 H 1503.9 2.33925 -4.50823 0
M  V30 15597 H 1503.83 3.85968 -3.5824 0
M  V30 15598 H 1506.32 2.4794 -2.85191 0
M  V30 15599 H 1506.63 4.58183 -6.22325 0
M  V30 15600 H 1504.98 4.12616 -5.59261 0
M  V30 15601 H 1508.17 3.00712 -3.58733 0
M  V30 15602 H 1508.34 3.96603 -5.12455 0
M  V30 15603 N 1501.75 1.10074 1.1279 0
M  V30 15604 C 1502.7 0.715508 2.16482 0
M  V30 15605 C 1503.68 -0.273462 1.58559 0
M  V30 15606 O 1504.88 -0.0827829 1.76806 0
M  V30 15607 C 1502 0.144874 3.42994 0
M  V30 15608 C 1501.09 1.16066 4.07909 0
M  V30 15609 N 1501.48 2.35008 4.47889 0
M  V30 15610 C 1499.78 1.00033 4.34637 0
M  V30 15611 C 1500.48 2.99678 4.98566 0
M  V30 15612 N 1499.46 2.2721 4.93839 0
M  V30 15613 H 1503.26 1.62098 2.45156 0
M  V30 15614 H 1500.77 0.97792 1.29655 0
M  V30 15615 H 1502.77 -0.149164 4.16633 0
M  V30 15616 H 1501.43 -0.755369 3.15791 0
M  V30 15617 H 1502.44 2.72557 4.40378 0
M  V30 15618 H 1499.12 0.155328 4.17211 0
M  V30 15619 H 1500.51 4.00831 5.39244 0
M  V30 15620 N 1503.23 -1.30138 0.888926 0
M  V30 15621 C 1504.64 -1.48552 0.583486 0
M  V30 15622 C 1504.84 -1.81376 -0.877781 0
M  V30 15623 O 1503.9 -1.90374 -1.65873 0
M  V30 15624 C 1505.21 -2.60613 1.50004 0
M  V30 15625 C 1506.76 -2.74493 1.50409 0
M  V30 15626 C 1507.24 -3.89672 2.40666 0
M  V30 15627 N 1508.73 -3.96988 2.38652 0
M  V30 15628 C 1509.46 -4.85429 3.05199 0
M  V30 15629 N 1508.96 -5.78638 3.80985 0
M  V30 15630 N 1510.75 -4.78831 2.9441 0
M  V30 15631 H 1502.9 -1.07105 1.83418 0
M  V30 15632 H 1505.16 -0.530991 0.785336 0
M  V30 15633 H 1504.87 -2.43191 2.54069 0
M  V30 15634 H 1504.74 -3.5718 1.21254 0
M  V30 15635 H 1507.13 -2.91318 0.470933 0
M  V30 15636 H 1507.21 -1.78535 1.83191 0
M  V30 15637 H 1506.86 -3.73603 3.44069 0
M  V30 15638 H 1506.79 -4.84975 2.05198 0
M  V30 15639 H 1509.28 -3.30313 1.83581 0
M  V30 15640 H 1509.59 -6.42894 4.28844 0
M  V30 15641 H 1507.94 -5.78558 3.85092 0
M  V30 15642 H 1511.13 -4.04995 2.34727 0
M  V30 15643 H 1511.3 -5.47547 3.46549 0
M  V30 15644 N 1504.71 -0.650285 -1.43559 0
M  V30 15645 C 1506.12 -0.24263 -1.85117 0
M  V30 15646 C 1506.47 1.21017 -1.54432 0
M  V30 15647 O 1505.59 1.92332 -0.991839 0
M  V30 15648 C 1506.19 -0.433575 -3.36014 0
M  V30 15649 C 1504.75 -0.0802635 -3.76314 0
M  V30 15650 C 1503.89 -0.737844 -2.67303 0
M  V30 15651 H 1506.84 -0.854158 -1.33753 0
M  V30 15652 H 1506.87 0.321801 -3.79137 0
M  V30 15653 H 1506.38 -1.49102 -3.58316 0
M  V30 15654 H 1504.48 0.974703 -3.59625 0
M  V30 15655 H 1504.59 -0.503683 -4.76445 0
M  V30 15656 H 1502.96 -0.171349 -2.54123 0
M  V30 15657 H 1503.74 -1.79826 -2.92434 0
M  V30 15658 N 1506.18 1.52647 -0.392018 0
M  V30 15659 C 1507.6 1.59544 -0.0421007 0
M  V30 15660 C 1507.8 1.40586 1.44353 0
M  V30 15661 O 1506.86 1.22422 2.20837 0
M  V30 15662 C 1508.17 2.9614 -0.521713 0
M  V30 15663 C 1509.72 3.09325 -0.478205 0
M  V30 15664 C 1510.19 4.48374 -0.93405 0
M  V30 15665 N 1511.68 4.54566 -0.890173 0
M  V30 15666 C 1512.42 5.60395 -1.21427 0
M  V30 15667 N 1511.91 6.73858 -1.60897 0
M  V30 15668 N 1513.71 5.50515 -1.13534 0
M  V30 15669 H 1505.86 1.63219 -1.35917 0
M  V30 15670 H 1508.12 0.766913 -0.557269 0
M  V30 15671 H 1507.83 3.15238 -1.55942 0
M  V30 15672 H 1507.7 3.7712 0.0777658 0
M  V30 15673 H 1510.09 2.89921 0.550418 0
M  V30 15674 H 1510.17 2.30292 -1.11352 0
M  V30 15675 H 1509.81 4.68519 -1.96092 0
M  V30 15676 H 1509.74 5.25878 -0.275717 0
M  V30 15677 H 1512.23 3.7311 -0.599758 0
M  V30 15678 H 1512.55 7.5058 -1.83983 0
M  V30 15679 H 1510.89 6.75182 -1.64786 0
M  V30 15680 H 1514.08 4.60755 -0.825977 0
M  V30 15681 H 1514.26 6.32889 -1.39124 0
M  V30 15682 N 1507.66 0.121921 1.57128 0
M  V30 15683 C 1509.08 -0.234655 1.57866 0
M  V30 15684 C 1509.28 -1.66506 1.13482 0
M  V30 15685 O 1508.33 -2.38692 0.823544 0
M  V30 15686 C 1509.65 0.00131784 3.007 0
M  V30 15687 C 1511.2 -0.0643537 3.12934 0
M  V30 15688 C 1511.67 0.143964 4.57774 0
M  V30 15689 N 1513.16 0.0900323 4.63112 0
M  V30 15690 C 1513.9 0.22608 5.72954 0
M  V30 15691 N 1513.39 0.418461 6.91535 0
M  V30 15692 N 1515.19 0.165449 5.61856 0
M  V30 15693 H 1507.34 1.05618 1.84279 0
M  V30 15694 H 1509.6 0.416132 0.851785 0
M  V30 15695 H 1509.31 0.99031 3.3747 0
M  V30 15696 H 1509.18 -0.729266 3.70083 0
M  V30 15697 H 1511.57 -1.04387 2.7602 0
M  V30 15698 H 1511.65 0.698157 2.46088 0
M  V30 15699 H 1511.29 1.12047 4.95387 0
M  V30 15700 H 1511.22 -0.638569 5.22714 0
M  V30 15701 H 1513.71 -0.0550269 3.7786 0
M  V30 15702 H 1514.03 0.513057 7.71095 0
M  V30 15703 H 1512.37 0.454471 6.93512 0
M  V30 15704 H 1515.56 0.0160945 4.68097 0
M  V30 15705 H 1515.73 0.274917 6.47417 0
M  V30 15706 N 1509.14 -1.56867 -0.151857 0
M  V30 15707 C 1510.07 -2.00932 -1.18949 0
M  V30 15708 C 1511.05 -0.888062 -1.45077 0
M  V30 15709 O 1512.24 -1.15553 -1.56081 0
M  V30 15710 C 1509.37 -2.3858 -2.52383 0
M  V30 15711 C 1508.32 -3.53845 -2.40785 0
M  V30 15712 C 1507.65 -3.77292 -3.78886 0
M  V30 15713 C 1508.95 -4.8667 -1.89605 0
M  V30 15714 H 1510.64 -2.87863 -0.823107 0
M  V30 15715 H 1508.19 -1.38491 -0.394499 0
M  V30 15716 H 1510.14 -2.68006 -3.25193 0
M  V30 15717 H 1508.86 -1.48579 -2.90847 0
M  V30 15718 H 1507.52 -3.24577 -1.70427 0
M  V30 15719 H 1507.17 -2.84551 -4.14777 0
M  V30 15720 H 1506.87 -4.54861 -3.71989 0
M  V30 15721 H 1508.39 -4.09139 -4.53252 0
M  V30 15722 H 1509.81 -5.14846 -2.52204 0
M  V30 15723 H 1508.21 -5.6801 -1.93609 0
M  V30 15724 H 1509.28 -4.77366 -0.851438 0
M  V30 15725 N 1510.62 0.421051 -1.51871 0
M  V30 15726 C 1511.55 1.51928 -1.77313 0
M  V30 15727 C 1512.53 1.58258 -0.623579 0
M  V30 15728 O 1513.71 1.73724 -0.867967 0
M  V30 15729 C 1510.84 2.89865 -1.913 0
M  V30 15730 C 1509.8 2.98391 -3.06834 0
M  V30 15731 C 1509.12 4.38466 -3.06026 0
M  V30 15732 C 1510.42 2.7097 -4.46511 0
M  V30 15733 H 1512.12 1.30889 -2.69274 0
M  V30 15734 H 1509.66 0.628229 -1.29573 0
M  V30 15735 H 1511.62 3.66669 -2.07682 0
M  V30 15736 H 1510.34 3.12172 -0.960011 0
M  V30 15737 H 1509 2.24029 -2.90184 0
M  V30 15738 H 1508.65 4.57764 -2.08472 0
M  V30 15739 H 1508.35 4.45097 -3.83618 0
M  V30 15740 H 1509.87 5.17221 -3.24522 0
M  V30 15741 H 1511.29 3.37501 -4.63428 0
M  V30 15742 H 1509.68 2.88992 -5.25931 0
M  V30 15743 H 1510.75 1.66476 -4.55427 0
M  V30 15744 N 1512.1 1.42293 0.677538 0
M  V30 15745 C 1513.03 1.41503 1.80304 0
M  V30 15746 C 1514.04 0.314499 1.59733 0
M  V30 15747 O 1515.23 0.57741 1.68903 0
M  V30 15748 C 1512.33 1.18879 3.17366 0
M  V30 15749 C 1511.5 2.41314 3.6481 0
M  V30 15750 C 1510.56 2.14277 4.80595 0
M  V30 15751 O 1509.59 2.87457 4.91281 0
M  V30 15752 N 1510.79 1.14419 5.69112 0
M  V30 15753 H 1513.56 2.38515 1.81468 0
M  V30 15754 H 1511.12 1.37137 0.860529 0
M  V30 15755 H 1513.11 0.987135 3.92476 0
M  V30 15756 H 1511.68 0.304002 3.11118 0
M  V30 15757 H 1510.9 2.77066 2.80407 0
M  V30 15758 H 1512.19 3.2285 3.9325 0
M  V30 15759 H 1511.58 0.53888 5.63127 0
M  V30 15760 H 1510.14 1.00241 6.44046 0
M  V30 15761 N 1513.57 -0.913576 1.28419 0
M  V30 15762 C 1514.54 -1.99757 1.12382 0
M  V30 15763 C 1515.54 -1.60675 0.063435 0
M  V30 15764 O 1516.73 -1.71433 0.30923 0
M  V30 15765 C 1513.86 -3.33307 0.715506 0
M  V30 15766 H 1515.05 -2.15414 2.08655 0
M  V30 15767 H 1512.61 -1.09626 1.11408 0
M  V30 15768 H 1513.34 -3.23351 -0.247977 0
M  V30 15769 H 1513.13 -3.63034 1.4815 0
M  V30 15770 H 1514.62 -4.12882 0.625953 0
M  V30 15771 N 1515.05 -1.1067 -1.12204 0
M  V30 15772 C 1516.47 -0.838988 -1.35769 0
M  V30 15773 C 1516.67 0.540345 -1.9412 0
M  V30 15774 O 1515.72 1.29274 -2.16897 0
M  V30 15775 C 1517.04 -1.94065 -2.29694 0
M  V30 15776 C 1518.59 -1.96938 -2.43279 0
M  V30 15777 C 1519.06 -3.06284 -3.4052 0
M  V30 15778 N 1520.55 -3.05607 -3.48079 0
M  V30 15779 C 1521.29 -3.86855 -4.23238 0
M  V30 15780 N 1520.78 -4.78046 -5.01442 0
M  V30 15781 N 1522.58 -3.75064 -4.18669 0
M  V30 15782 H 1514.73 -1.99575 -0.726878 0
M  V30 15783 H 1516.99 -0.867423 -0.382467 0
M  V30 15784 H 1516.7 -2.93356 -1.93997 0
M  V30 15785 H 1516.57 -1.82992 -3.29839 0
M  V30 15786 H 1518.96 -0.982774 -2.78254 0
M  V30 15787 H 1519.04 -2.12087 -1.43014 0
M  V30 15788 H 1518.68 -4.05165 -3.06273 0
M  V30 15789 H 1518.61 -2.88376 -4.40621 0
M  V30 15790 H 1521.1 -2.39531 -2.9229 0
M  V30 15791 H 1521.42 -5.36594 -5.56136 0
M  V30 15792 H 1519.76 -4.82073 -5.0063 0
M  V30 15793 H 1522.95 -3.03172 -3.56657 0
M  V30 15794 H 1523.12 -4.38618 -4.76988 0
M  V30 15795 N 1516.53 1.29665 -0.895815 0
M  V30 15796 C 1517.49 2.26103 -0.3755 0
M  V30 15797 C 1518.49 1.53212 0.488126 0
M  V30 15798 O 1519.68 1.71706 0.293733 0
M  V30 15799 C 1516.82 3.37732 0.46364 0
M  V30 15800 H 1518.01 2.73643 -1.22718 0
M  V30 15801 H 1515.56 1.4104 -0.673613 0
M  V30 15802 H 1516.3 2.95526 1.33546 0
M  V30 15803 H 1516.08 3.91793 -0.155123 0
M  V30 15804 H 1517.57 4.09488 0.819112 0
M  V30 15805 N 1518.01 0.657889 1.43212 0
M  V30 15806 C 1518.97 -0.0214783 2.2919 0
M  V30 15807 C 1519.97 -0.745921 1.42452 0
M  V30 15808 O 1521.16 -0.586468 1.64031 0
M  V30 15809 C 1518.29 -1.04115 3.24612 0
M  V30 15810 H 1519.49 0.735072 2.90752 0
M  V30 15811 H 1517.04 0.419354 1.50569 0
M  V30 15812 H 1517.77 -1.82677 2.67954 0
M  V30 15813 H 1517.56 -0.525285 3.88566 0
M  V30 15814 H 1519.05 -1.51544 3.89132 0
M  V30 15815 N 1519.49 -1.52437 0.400108 0
M  V30 15816 C 1520.9 -1.86563 -0.0715162 0
M  V30 15817 C 1521.25 -1.3193 -1.4522 0
M  V30 15818 O 1520.37 -0.654955 -2.06251 0
M  V30 15819 C 1520.97 -3.38525 -0.13655 0
M  V30 15820 C 1519.53 -3.72323 -0.55249 0
M  V30 15821 C 1518.67 -2.75896 0.278729 0
M  V30 15822 H 1521.63 -1.46192 0.617547 0
M  V30 15823 H 1521.65 -3.68357 -0.953588 0
M  V30 15824 H 1521.16 -3.78258 0.868468 0
M  V30 15825 H 1519.26 -3.38164 -1.56448 0
M  V30 15826 H 1519.37 -4.7814 -0.303139 0
M  V30 15827 H 1517.74 -2.53394 -0.257608 0
M  V30 15828 H 1518.52 -3.18467 1.28193 0
M  V30 15829 N 1520.96 -0.130252 -1.57061 0
M  V30 15830 C 1521.93 0.801529 -2.14728 0
M  V30 15831 C 1522.93 1.18687 -1.08489 0
M  V30 15832 O 1524.12 1.11054 -1.34211 0
M  V30 15833 C 1521.25 2.08542 -2.69672 0
M  V30 15834 H 1522.44 0.300172 -2.98394 0
M  V30 15835 H 1520 0.119077 -1.55846 0
M  V30 15836 H 1520.73 2.63083 -1.89625 0
M  V30 15837 H 1520.52 1.81849 -3.47381 0
M  V30 15838 H 1522.01 2.75126 -3.14158 0
M  V30 15839 N 1522.44 1.56945 0.143535 0
M  V30 15840 C 1523.35 2.01795 1.1965 0
M  V30 15841 C 1524.37 0.933965 1.4681 0
M  V30 15842 O 1525.55 1.2437 1.58411 0
M  V30 15843 C 1522.61 2.39249 2.5092 0
M  V30 15844 C 1521.67 3.61613 2.31376 0
M  V30 15845 C 1520.9 3.97271 3.56386 0
M  V30 15846 O 1521.13 3.33552 4.62709 0
M  V30 15847 O 1520.06 4.90501 3.48844 0
M  V30 15848 H 1523.89 2.91687 0.845718 0
M  V30 15849 H 1521.47 1.45182 0.352518 0
M  V30 15850 H 1523.35 2.64184 3.28306 0
M  V30 15851 H 1522.03 1.52511 2.85521 0
M  V30 15852 H 1520.94 3.4186 1.51929 0
M  V30 15853 H 1522.27 4.48979 2.01689 0
M  V30 15854 N 1523.92 -0.412991 1.52093 0
M  V30 15855 C 1524.88 -1.48555 1.7454 0
M  V30 15856 C 1525.88 -1.48563 0.615283 0
M  V30 15857 O 1527.07 -1.50155 0.883119 0
M  V30 15858 C 1524.21 -2.87984 1.82423 0
M  V30 15859 H 1525.4 -1.29945 2.70285 0
M  V30 15860 H 1522.95 -0.643241 1.4245 0
M  V30 15861 H 1523.69 -3.11969 0.885777 0
M  V30 15862 H 1523.47 -2.89381 2.64577 0
M  V30 15863 H 1524.96 -3.65745 2.01545 0
M  V30 15864 N 1525.4 -1.4265 -0.669982 0
M  V30 15865 C 1526.81 -1.38614 -1.25072 0
M  V30 15866 C 1527.16 -0.0818051 -1.96029 0
M  V30 15867 O 1526.29 0.81931 -2.0029 0
M  V30 15868 C 1526.88 -2.51085 -2.27469 0
M  V30 15869 C 1525.44 -2.50366 -2.81059 0
M  V30 15870 C 1524.59 -2.29632 -1.5545 0
M  V30 15871 H 1527.54 -1.51794 -0.463058 0
M  V30 15872 H 1527.56 -2.21612 -3.09303 0
M  V30 15873 H 1527.07 -3.46002 -1.75796 0
M  V30 15874 H 1525.17 -1.5928 -3.36839 0
M  V30 15875 H 1525.29 -3.47569 -3.29746 0
M  V30 15876 H 1523.65 -1.77982 -1.82193 0
M  V30 15877 H 1524.43 -3.26611 -1.05736 0
M  V30 15878 N 1526.88 0.906753 -1.28902 0
M  V30 15879 C 1528.29 1.47175 -1.14876 0
M  V30 15880 C 1528.64 1.94487 0.258693 0
M  V30 15881 O 1527.76 1.83088 1.15359 0
M  V30 15882 C 1528.36 2.67491 -2.07928 0
M  V30 15883 C 1526.92 3.20148 -1.97946 0
M  V30 15884 C 1526.07 1.92846 -1.99263 0
M  V30 15885 H 1529.02 0.718777 -1.4149 0
M  V30 15886 H 1529.04 3.42989 -1.64738 0
M  V30 15887 H 1528.55 2.33025 -3.10356 0
M  V30 15888 H 1526.65 3.59322 -0.985806 0
M  V30 15889 H 1526.76 3.84923 -2.85256 0
M  V30 15890 H 1525.13 2.10247 -1.43765 0
M  V30 15891 H 1525.91 1.60666 -3.03383 0
M  V30 15892 N 1528.36 1.11264 1.11616 0
M  V30 15893 C 1529.31 0.738429 2.15711 0
M  V30 15894 C 1530.29 -0.25663 1.5884 0
M  V30 15895 O 1531.48 -0.0640255 1.76884 0
M  V30 15896 C 1528.61 0.181245 3.42821 0
M  V30 15897 C 1527.7 1.20386 4.06655 0
M  V30 15898 N 1528.09 2.39745 4.45372 0
M  V30 15899 C 1526.39 1.04637 4.33552 0
M  V30 15900 C 1527.09 3.04949 4.95359 0
M  V30 15901 N 1526.06 2.32435 4.91401 0
M  V30 15902 H 1529.86 1.6469 2.43423 0
M  V30 15903 H 1527.38 0.991616 1.28611 0
M  V30 15904 H 1529.38 -0.104966 4.16768 0
M  V30 15905 H 1528.04 -0.721832 3.16575 0
M  V30 15906 H 1529.05 2.77213 4.37462 0
M  V30 15907 H 1525.72 0.19957 4.17023 0
M  V30 15908 H 1527.11 4.06528 5.34962 0
M  V30 15909 N 1529.83 -1.29188 0.902679 0
M  V30 15910 C 1531.06 -2.00113 0.544953 0
M  V30 15911 C 1531.48 -1.67093 -0.863805 0
M  V30 15912 O 1530.84 -0.897179 -1.57545 0
M  V30 15913 C 1530.89 -3.52762 0.747741 0
M  V30 15914 O 1529.99 -4.11923 -0.198388 0
M  V30 15915 H 1529.33 -0.629054 0.212572 0
M  V30 15916 H 1531.86 -1.64611 1.21508 0
M  V30 15917 H 1531.87 -4.02732 0.653546 0
M  V30 15918 H 1530.55 -3.76131 1.77478 0
M  V30 15919 H 1529.13 -3.72857 -0.0563959 0
M  V30 15920 N 1531.31 -0.665475 -1.42861 0
M  V30 15921 C 1532.56 -0.183521 -2.01265 0
M  V30 15922 C 1532.88 1.21103 -1.52837 0
M  V30 15923 O 1532.15 1.81135 -0.746109 0
M  V30 15924 H 1530.73 -0.0648565 -0.744179 0
M  V30 15925 H 1533.39 -0.859893 -1.74905 0
M  V30 15926 H 1532.49 -0.177589 -3.11594 0
M  V30 15927 N 1532.79 1.52222 -0.408187 0
M  V30 15928 C 1534.21 1.59491 -0.0590201 0
M  V30 15929 C 1534.41 1.42109 1.42854 0
M  V30 15930 O 1533.46 1.24757 2.19527 0
M  V30 15931 C 1534.77 2.9557 -0.553093 0
M  V30 15932 C 1536.32 3.08801 -0.510986 0
M  V30 15933 C 1536.8 4.47358 -0.981554 0
M  V30 15934 N 1538.29 4.53596 -0.938335 0
M  V30 15935 C 1539.02 5.59076 -1.27364 0
M  V30 15936 N 1538.52 6.72113 -1.68035 0
M  V30 15937 N 1540.31 5.49279 -1.19367 0
M  V30 15938 H 1532.46 1.61768 -1.37641 0
M  V30 15939 H 1534.73 0.760959 -0.565372 0
M  V30 15940 H 1534.43 3.13566 -1.59276 0
M  V30 15941 H 1534.31 3.77181 0.0377629 0
M  V30 15942 H 1536.69 2.90489 0.519637 0
M  V30 15943 H 1536.77 2.29098 -1.13788 0
M  V30 15944 H 1536.42 4.66413 -2.0105 0
M  V30 15945 H 1536.35 5.25556 -0.331478 0
M  V30 15946 H 1538.84 3.72453 -0.639297 0
M  V30 15947 H 1539.15 7.48586 -1.91934 0
M  V30 15948 H 1537.5 6.73396 -1.71938 0
M  V30 15949 H 1540.69 4.59853 -0.8748 0
M  V30 15950 H 1540.86 6.31378 -1.45829 0
M  V30 15951 N 1534.27 0.138579 1.5699 0
M  V30 15952 C 1535.68 -0.383633 1.82716 0
M  V30 15953 C 1536.03 -1.65304 1.05684 0
M  V30 15954 O 1535.15 -2.14318 0.299488 0
M  V30 15955 C 1535.75 -0.7028 3.3143 0
M  V30 15956 C 1534.31 -1.16957 3.57768 0
M  V30 15957 C 1533.46 -0.188295 2.7666 0
M  V30 15958 H 1536.41 0.363415 1.54483 0
M  V30 15959 H 1536.43 -1.55832 3.47126 0
M  V30 15960 H 1535.94 0.221271 3.87469 0
M  V30 15961 H 1534.04 -2.10987 3.07108 0
M  V30 15962 H 1534.15 -1.10136 4.66269 0
M  V30 15963 H 1532.52 -0.679255 2.45475 0
M  V30 15964 H 1533.3 0.729218 3.35466 0
M  V30 15965 N 1535.75 -1.57019 -0.13521 0
M  V30 15966 C 1536.99 -1.83626 -0.844147 0
M  V30 15967 C 1537.31 -0.721298 -1.81169 0
M  V30 15968 O 1536.58 0.256095 -1.94219 0
M  V30 15969 H 1535.16 -0.677464 -0.314725 0
M  V30 15970 H 1537.83 -1.9449 -0.126399 0
M  V30 15971 H 1536.92 -2.78976 -1.39925 0
M  V30 15972 N 1537.22 0.404919 -1.52309 0
M  V30 15973 C 1538.45 1.17764 -1.70723 0
M  V30 15974 C 1538.87 1.83403 -0.417744 0
M  V30 15975 O 1538.23 1.70181 0.625157 0
M  V30 15976 C 1538.28 2.2133 -2.84685 0
M  V30 15977 O 1537.38 3.27566 -2.50548 0
M  V30 15978 H 1536.73 0.343572 -0.568203 0
M  V30 15979 H 1539.26 0.474093 -1.99031 0
M  V30 15980 H 1539.27 2.6559 -3.09719 0
M  V30 15981 H 1537.94 1.72939 -3.78239 0
M  V30 15982 H 1536.52 2.88556 -2.36199 0
M  V30 15983 N 1538.7 1.43003 0.662408 0
M  V30 15984 C 1539.63 1.43407 1.78793 0
M  V30 15985 C 1540.65 0.331423 1.59391 0
M  V30 15986 O 1541.84 0.595291 1.68281 0
M  V30 15987 C 1538.94 1.22239 3.16087 0
M  V30 15988 C 1538.11 2.4517 3.6223 0
M  V30 15989 C 1537.17 2.19362 4.78296 0
M  V30 15990 O 1536.19 2.92651 4.88205 0
M  V30 15991 N 1537.4 1.20449 5.67866 0
M  V30 15992 H 1540.16 2.40426 1.78928 0
M  V30 15993 H 1537.72 1.38042 0.845936 0
M  V30 15994 H 1539.71 1.02871 3.91407 0
M  V30 15995 H 1538.28 0.336983 3.10778 0
M  V30 15996 H 1537.5 2.80024 2.77453 0
M  V30 15997 H 1538.79 3.27003 3.89803 0
M  V30 15998 H 1538.19 0.598577 5.62524 0
M  V30 15999 H 1536.75 1.07066 6.42946 0
M  V30 16000 N 1540.18 -0.899904 1.29381 0
M  V30 16001 C 1541.09 -2.03699 1.16378 0
M  V30 16002 C 1542.11 -1.73782 0.0870792 0
M  V30 16003 O 1543.28 -1.99167 0.299109 0
M  V30 16004 C 1540.35 -3.36341 0.841166 0
M  V30 16005 C 1539.41 -3.79778 2.00168 0
M  V30 16006 C 1538.64 -5.0609 1.69437 0
M  V30 16007 O 1538.86 -5.67073 0.615212 0
M  V30 16008 O 1537.8 -5.45574 2.54229 0
M  V30 16009 H 1541.62 -2.17592 2.11866 0
M  V30 16010 H 1539.21 -1.02353 1.08831 0
M  V30 16011 H 1541.09 -4.15946 0.675803 0
M  V30 16012 H 1539.77 -3.23591 -0.0839376 0
M  V30 16013 H 1538.67 -3.00941 2.22229 0
M  V30 16014 H 1540.01 -3.97111 2.90798 0
M  V30 16015 O 1541.7 -1.23944 -1.03538 0
M  V30 16016 H 1542.39 -1.01387 -1.65047 0
M  V30 END ATOM
M  V30 BEGIN BOND
M  V30 END BOND
M  V30 END CTAB
M  END
$$$$
