drugbank_target|Q51504 Cell division protein (DB01147; DB01413; DB06211; DB09050; DB14879)
 OpenBabel12092120573D

  0  0  0     0  0            999 V3000
M  V30 BEGIN CTAB
M  V30 COUNTS 8928 9018 0 0 0
M  V30 BEGIN ATOM
M  V30 1 H -0.908 1.98254 -0.117106 0
M  V30 2 N 0 1.576 0 0
M  V30 3 C 0.933 2.03868 1.02534 0
M  V30 4 C 1.911 0.928543 1.3348 0
M  V30 5 O 3.095 1.19667 1.45644 0
M  V30 6 C 0.222 2.43627 2.35294 0
M  V30 7 C -0.732 3.65373 2.2001 0
M  V30 8 S 0.101 5.13292 1.52614 0
M  V30 9 C 1.257 5.56322 2.86805 0
M  V30 10 H 1.49 2.90518 0.631377 0
M  V30 11 H -0.977 1.52953 0.210867 0
M  V30 12 H 0.981 2.67203 3.11629 0
M  V30 13 H -0.358 1.57376 2.7183 0
M  V30 14 H -1.165 3.90944 3.18086 0
M  V30 15 H -1.563 3.418 1.51819 0
M  V30 16 H 0.729 5.58782 3.83104 0
M  V30 17 H 1.672 6.56266 2.65933 0
M  V30 18 H 2.08 4.83886 2.90714 0
M  V30 19 N 1.4781 -0.272755 1.55222 0
M  V30 20 C 2.4251 -1.33716 1.88119 0
M  V30 21 C 3.3951 -1.49066 0.73271 0
M  V30 22 O 4.5801 -1.63469 0.984002 0
M  V30 23 C 1.7201 -2.69238 2.15882 0
M  V30 24 C 0.8331 -2.62108 3.43399 0
M  V30 25 C -0.0319 -3.89811 3.60861 0
M  V30 26 C -0.9929 -3.77193 4.8207 0
M  V30 27 N -1.8559 -4.9673 4.96189 0
M  V30 28 H 2.9841 -1.04962 2.78903 0
M  V30 29 H 0.5211 -0.507088 1.38083 0
M  V30 30 H 2.4791 -3.48089 2.29978 0
M  V30 31 H 1.1091 -2.96194 1.28331 0
M  V30 32 H 0.1611 -1.74967 3.37773 0
M  V30 33 H 1.4731 -2.48685 4.32386 0
M  V30 34 H 0.6271 -4.77103 3.74777 0
M  V30 35 H -0.6339 -4.06102 2.7006 0
M  V30 36 H -1.6289 -2.88284 4.68159 0
M  V30 37 H -0.4039 -3.62421 5.74307 0
M  V30 38 H -2.4579 -5.13431 4.08319 0
M  V30 39 H -2.5409 -4.85839 5.79221 0
M  V30 40 H -1.2729 -5.85594 5.1449 0
M  V30 41 N 2.9562 -1.48159 -0.537278 0
M  V30 42 C 3.8862 -1.65029 -1.6519 0
M  V30 43 C 4.8672 -0.499281 -1.62607 0
M  V30 44 O 6.0522 -0.730972 -1.79918 0
M  V30 45 C 3.1822 -1.68303 -3.03795 0
M  V30 46 C 2.1362 -2.8283 -3.21234 0
M  V30 47 C 1.4622 -2.71189 -4.60826 0
M  V30 48 C 2.7622 -4.24211 -3.04701 0
M  V30 49 H 4.4562 -2.58341 -1.51328 0
M  V30 50 H 2.0022 -1.24325 -0.726585 0
M  V30 51 H 3.9552 -1.78693 -3.81637 0
M  V30 52 H 2.6792 -0.715635 -3.18663 0
M  V30 53 H 1.3382 -2.71983 -2.45807 0
M  V30 54 H 0.9862 -1.72435 -4.7252 0
M  V30 55 H 0.6862 -3.48035 -4.7344 0
M  V30 56 H 2.2102 -2.83537 -5.40777 0
M  V30 57 H 3.6242 -4.3593 -3.72341 0
M  V30 58 H 2.0212 -5.01998 -3.28813 0
M  V30 59 H 3.0912 -4.41184 -2.01209 0
M  V30 60 N 4.4343 0.785586 -1.36625 0
M  V30 61 C 5.3823 1.91978 -1.31329 0
M  V30 62 C 6.3763 1.68162 -0.204416 0
M  V30 63 O 7.5823 1.76122 -0.371645 0
M  V30 64 H 3.9573 0.631087 -0.408942 0
M  V30 65 H 5.9283 1.93562 -2.27104 0
M  V30 66 C 4.6773 3.29055 -1.12329 0
M  V30 67 H 4.0003 3.4795 -1.96903 0
M  V30 68 H 5.4403 4.08756 -1.12671 0
M  V30 69 C 3.8993 3.36461 0.171861 0
M  V30 70 O 4.4293 3.84576 1.16035 0
M  V30 71 N 2.6353 2.89782 0.217846 0
M  V30 72 H 2.1823 2.50819 -0.587183 0
M  V30 73 H 2.1403 2.95119 1.08408 0
M  V30 74 N 5.9124 1.20967 1.01018 0
M  V30 75 C 7.1424 1.04803 1.78044 0
M  V30 76 C 7.5504 -0.405462 1.84804 0
M  V30 77 O 6.8934 -1.2932 1.30468 0
M  V30 78 C 6.9554 1.56377 3.23707 0
M  V30 79 C 6.6194 3.04767 3.40538 0
M  V30 80 C 7.6164 4.02366 3.29239 0
M  V30 81 C 5.3014 3.43862 3.66147 0
M  V30 82 C 7.2954 5.37049 3.43304 0
M  V30 83 C 4.9824 4.78699 3.79855 0
M  V30 84 C 5.9804 5.75101 3.68439 0
M  V30 85 O 5.6684 7.07493 3.81719 0
M  V30 86 H 5.4004 0.368778 0.56655 0
M  V30 87 H 7.9544 1.60642 1.27997 0
M  V30 88 H 6.1844 0.949297 3.74867 0
M  V30 89 H 7.8734 1.36136 3.8239 0
M  V30 90 H 8.6394 3.73506 3.09384 0
M  V30 91 H 4.5184 2.69364 3.74118 0
M  V30 92 H 8.0624 6.12277 3.34309 0
M  V30 93 H 3.9594 5.07247 3.99213 0
M  V30 94 H 4.7274 7.1483 3.98697 0
M  V30 95 N 7.3905 -1.2043 1.01659 0
M  V30 96 C 8.6375 -1.89797 0.705917 0
M  V30 97 C 8.9655 -1.78848 -0.764439 0
M  V30 98 O 8.2205 -1.16694 -1.57102 0
M  V30 99 C 8.5195 -3.40464 1.08714 0
M  V30 100 C 8.1855 -3.71614 2.5537 0
M  V30 101 C 6.8475 -3.79826 2.95441 0
M  V30 102 C 9.1995 -3.85915 3.50313 0
M  V30 103 C 6.5275 -3.99797 4.29394 0
M  V30 104 C 8.8795 -4.07396 4.83954 0
M  V30 105 C 7.5435 -4.13837 5.23732 0
M  V30 106 H 6.8135 -0.694518 0.258313 0
M  V30 107 H 9.4605 -1.42691 1.27717 0
M  V30 108 H 7.7655 -3.89385 0.434309 0
M  V30 109 H 9.4625 -3.92433 0.824461 0
M  V30 110 H 6.0525 -3.65822 2.23321 0
M  V30 111 H 10.2365 -3.78926 3.20513 0
M  V30 112 H 5.4925 -4.03018 4.59768 0
M  V30 113 H 9.6665 -4.17404 5.57447 0
M  V30 114 H 7.2935 -4.29064 6.27541 0
M  V30 115 N 8.8686 -0.792821 -1.36206 0
M  V30 116 C 9.8006 -0.151469 -2.28699 0
M  V30 117 C 10.8136 0.641262 -1.49638 0
M  V30 118 O 12.0026 0.475885 -1.72039 0
M  V30 119 C 9.1026 0.808424 -3.29117 0
M  V30 120 C 8.2756 0.0650202 -4.37352 0
M  V30 121 C 7.3346 0.941358 -5.17711 0
M  V30 122 O 6.3606 0.397352 -5.67811 0
M  V30 123 N 7.5626 2.2652 -5.3448 0
M  V30 124 H 10.3276 -0.945982 -2.84379 0
M  V30 125 H 7.8886 -0.647032 -1.48409 0
M  V30 126 H 9.8806 1.3986 -3.79765 0
M  V30 127 H 8.4506 1.5038 -2.74052 0
M  V30 128 H 7.6706 -0.706255 -3.87822 0
M  V30 129 H 8.9586 -0.447847 -5.06825 0
M  V30 130 H 8.3566 2.73128 -4.95396 0
M  V30 131 H 6.9136 2.80493 -5.88359 0
M  V30 132 N 10.3467 1.47872 -0.545128 0
M  V30 133 C 11.5947 2.02093 -0.016553 0
M  V30 134 C 11.9157 1.42305 1.3332 0
M  V30 135 O 11.1857 0.593853 1.86682 0
M  V30 136 H 9.7657 0.746993 -0.00313038 0
M  V30 137 H 12.4277 1.81414 -0.712397 0
M  V30 138 H 11.5237 3.11996 0.0805422 0
M  V30 139 N 11.8248 0.280983 1.55075 0
M  V30 140 C 12.7878 -0.590896 2.21452 0
M  V30 141 C 13.7878 -1.07682 1.19421 0
M  V30 142 O 14.9778 -0.97605 1.44288 0
M  V30 143 C 12.1098 -1.81587 2.88511 0
M  V30 144 H 13.3028 -0.0112554 2.99898 0
M  V30 145 H 10.8558 0.0316438 1.56268 0
M  V30 146 H 11.5908 -2.43587 2.14093 0
M  V30 147 H 11.3758 -1.4753 3.63287 0
M  V30 148 H 12.8658 -2.43575 3.39206 0
M  V30 149 N 13.3029 -1.57598 0.00835791 0
M  V30 150 C 14.2329 -2.1198 -0.979113 0
M  V30 151 C 15.2139 -1.03091 -1.35301 0
M  V30 152 O 16.3989 -1.30818 -1.43528 0
M  V30 153 C 13.5289 -2.62995 -2.26828 0
M  V30 154 C 12.4829 -3.76485 -2.03576 0
M  V30 155 C 11.8089 -4.13846 -3.38579 0
M  V30 156 C 13.1089 -5.0342 -1.39161 0
M  V30 157 H 14.8029 -2.94738 -0.526281 0
M  V30 158 H 12.3489 -1.41783 -0.251704 0
M  V30 159 H 14.3019 -2.99669 -2.96271 0
M  V30 160 H 13.0259 -1.7737 -2.7424 0
M  V30 161 H 11.6849 -3.40217 -1.36557 0
M  V30 162 H 11.3329 -3.25232 -3.83709 0
M  V30 163 H 11.0329 -4.90312 -3.23834 0
M  V30 164 H 12.5569 -4.53086 -4.09323 0
M  V30 165 H 13.9709 -5.37812 -1.98573 0
M  V30 166 H 12.3679 -5.84746 -1.34878 0
M  V30 167 H 13.4379 -4.83548 -0.361868 0
M  V30 168 N 14.781 0.264519 -1.55364 0
M  V30 169 C 16.011 1.01153 -1.80143 0
M  V30 170 C 16.419 1.80115 -0.579253 0
M  V30 171 O 15.762 1.77813 0.46132 0
M  V30 172 C 15.824 2.01098 -2.97993 0
M  V30 173 C 15.488 1.40995 -4.34706 0
M  V30 174 C 16.485 0.821316 -5.13372 0
M  V30 175 C 14.17 1.43461 -4.81378 0
M  V30 176 C 16.164 0.265339 -6.36847 0
M  V30 177 C 13.851 0.874771 -6.04807 0
M  V30 178 C 14.849 0.291146 -6.82379 0
M  V30 179 O 14.537 -0.260093 -8.03479 0
M  V30 180 H 14.269 0.304125 -0.603725 0
M  V30 181 H 16.823 0.298089 -2.03225 0
M  V30 182 H 15.053 2.76224 -2.70623 0
M  V30 183 H 16.742 2.61997 -3.1002 0
M  V30 184 H 17.508 0.794903 -4.78442 0
M  V30 185 H 13.387 1.87826 -4.21002 0
M  V30 186 H 16.931 -0.190837 -6.97339 0
M  V30 187 H 12.828 0.898452 -6.39217 0
M  V30 188 H 13.596 -0.150265 -8.18362 0
M  V30 189 N 16.2591 1.48442 0.529413 0
M  V30 190 C 17.6701 1.5002 1.11134 0
M  V30 191 C 18.0211 0.27031 1.94329 0
M  V30 192 O 17.1461 -0.622507 2.07253 0
M  V30 193 C 17.7411 2.71834 2.02217 0
M  V30 194 C 16.3001 2.76283 2.55627 0
M  V30 195 C 15.4471 2.43542 1.326 0
M  V30 196 H 18.3981 1.5555 0.314641 0
M  V30 197 H 18.4191 2.50384 2.8651 0
M  V30 198 H 17.9311 3.61331 1.41639 0
M  V30 199 H 16.0321 1.90995 3.19924 0
M  V30 200 H 16.1451 3.77725 2.94721 0
M  V30 201 H 14.5091 1.94709 1.64196 0
M  V30 202 H 15.2921 3.3528 0.737734 0
M  V30 203 N 17.7372 -0.778329 1.37039 0
M  V30 204 C 18.9832 -1.53817 1.33086 0
M  V30 205 C 19.3382 -1.92208 -0.0860346 0
M  V30 206 O 18.6312 -1.60713 -1.04316 0
M  V30 207 C 18.8252 -2.81845 2.19768 0
M  V30 208 C 18.6542 -2.55967 3.69744 0
M  V30 209 C 17.4242 -2.50428 4.38878 0
M  V30 210 C 19.6222 -2.2441 4.62758 0
M  V30 211 N 17.6042 -2.16564 5.74433 0
M  V30 212 C 18.9752 -2.0063 5.86641 0
M  V30 213 C 21.0302 -2.1051 4.5121 0
M  V30 214 C 19.7332 -1.64354 7.00272 0
M  V30 215 C 21.7592 -1.75634 5.64718 0
M  V30 216 C 21.1212 -1.52709 6.87648 0
M  V30 217 H 17.2202 -0.563434 0.542279 0
M  V30 218 H 19.8042 -0.908617 1.72198 0
M  V30 219 H 17.9752 -3.42649 1.82883 0
M  V30 220 H 19.7072 -3.47682 2.07122 0
M  V30 221 H 16.4622 -2.66056 3.91805 0
M  V30 222 H 16.8862 -2.02348 6.46053 0
M  V30 223 H 21.5282 -2.26919 3.56746 0
M  V30 224 H 19.2462 -1.46683 7.94676 0
M  V30 225 H 22.8322 -1.65546 5.57751 0
M  V30 226 H 21.7122 -1.2612 7.73992 0
M  V30 227 N 19.2153 -1.21501 -1.00376 0
M  V30 228 C 20.6313 -0.972629 -1.26539 0
M  V30 229 C 20.8313 0.340257 -1.98606 0
M  V30 230 O 19.8873 1.06561 -2.28913 0
M  V30 231 C 21.2003 -2.16404 -2.08781 0
M  V30 232 C 22.7483 -2.20643 -2.22004 0
M  V30 233 C 23.2233 -3.39306 -3.07629 0
M  V30 234 N 24.7143 -3.39401 -3.15217 0
M  V30 235 C 25.4493 -4.27867 -3.81729 0
M  V30 236 N 24.9453 -5.26533 -4.5026 0
M  V30 237 N 26.7383 -4.15672 -3.78382 0
M  V30 238 H 18.8893 -2.05929 -0.520281 0
M  V30 239 H 21.1523 -0.901803 -0.292328 0
M  V30 240 H 20.8583 -3.11554 -1.63178 0
M  V30 241 H 20.7323 -2.15567 -3.09533 0
M  V30 242 H 23.1193 -1.26048 -2.66825 0
M  V30 243 H 23.2003 -2.25523 -1.20718 0
M  V30 244 H 22.8443 -4.34195 -2.63509 0
M  V30 245 H 22.7743 -3.31665 -4.09031 0
M  V30 246 H 25.2653 -2.67997 -2.66432 0
M  V30 247 H 25.5783 -5.90337 -4.98721 0
M  V30 248 H 23.9233 -5.30457 -4.49044 0
M  V30 249 H 27.1143 -3.3785 -3.23998 0
M  V30 250 H 27.2873 -4.84825 -4.2994 0
M  V30 251 N 20.6934 1.19889 -1.02296 0
M  V30 252 C 21.9404 1.8942 -0.715972 0
M  V30 253 C 22.2684 1.79251 0.754944 0
M  V30 254 O 21.5234 1.17526 1.56481 0
M  V30 255 C 21.8224 3.39883 -1.10518 0
M  V30 256 C 21.4884 3.70254 -2.57337 0
M  V30 257 C 20.1504 3.78254 -2.97452 0
M  V30 258 C 22.5024 3.84052 -3.52354 0
M  V30 259 C 19.8304 3.97514 -4.31509 0
M  V30 260 C 22.1824 4.04824 -4.86108 0
M  V30 261 C 20.8464 4.11054 -5.25919 0
M  V30 262 H 20.1164 0.693138 -0.261993 0
M  V30 263 H 22.7634 1.42012 -1.28472 0
M  V30 264 H 21.0684 3.8915 -0.454953 0
M  V30 265 H 22.7654 3.9199 -0.845261 0
M  V30 266 H 19.3554 3.64632 -2.25258 0
M  V30 267 H 23.5394 3.77221 -3.22518 0
M  V30 268 H 18.7954 4.00574 -4.61898 0
M  V30 269 H 22.9694 4.14442 -5.59653 0
M  V30 270 H 20.5964 4.2573 -6.29808 0
M  V30 271 N 22.1715 0.800033 1.35784 0
M  V30 272 C 23.4115 0.382891 2.00782 0
M  V30 273 C 23.7755 -1.02891 1.62103 0
M  V30 274 O 24.9765 -1.54771 2.19771 0
M  V30 275 C 23.2475 0.553299 3.53091 0
M  V30 276 S 24.8065 0.225608 4.3822 0
M  V30 277 H 21.6245 0.145737 0.695904 0
M  V30 278 H 24.2265 1.04085 1.65489 0
M  V30 279 H 22.9305 1.58091 3.78729 0
M  V30 280 H 22.4615 -0.120214 3.93216 0
M  V30 281 H 24.4765 -0.969074 4.86645 0
M  V30 282 N 23.6496 -1.47581 0.552962 0
M  V30 283 C 24.8956 -2.02782 0.0273648 0
M  V30 284 C 25.2286 -1.42687 -1.31734 0
M  V30 285 O 24.5036 -0.580897 -1.85623 0
M  V30 286 C 24.7866 -3.60031 -0.0702371 0
M  V30 287 C 24.6396 -4.30566 1.30126 0
M  V30 288 C 25.9586 -4.33028 -0.785771 0
M  V30 289 H 23.0776 -0.736912 0.0114185 0
M  V30 290 H 25.7196 -1.76056 0.714432 0
M  V30 291 H 23.8696 -3.82932 -0.655382 0
M  V30 292 H 25.5416 -4.19018 1.92929 0
M  V30 293 H 23.7846 -3.91086 1.87709 0
M  V30 294 H 24.4556 -5.39114 1.18573 0
M  V30 295 H 26.9316 -4.15095 -0.288982 0
M  V30 296 H 25.8076 -5.42695 -0.823013 0
M  V30 297 H 26.0686 -4.01945 -1.841 0
M  V30 298 N 25.1277 -0.289203 -1.54924 0
M  V30 299 C 26.3767 0.324231 -1.99077 0
M  V30 300 C 26.6897 1.5591 -1.18117 0
M  V30 301 O 27.8957 2.24637 -1.52481 0
M  V30 302 C 26.3517 0.628209 -3.54375 0
M  V30 303 C 25.9597 -0.587647 -4.44129 0
M  V30 304 C 27.7037 1.20349 -4.07083 0
M  V30 305 C 25.6107 -0.257475 -5.90839 0
M  V30 306 H 24.5407 0.124924 -0.743579 0
M  V30 307 H 27.1917 -0.396063 -1.79175 0
M  V30 308 H 25.5737 1.40778 -3.70132 0
M  V30 309 H 26.7477 -1.36418 -4.40144 0
M  V30 310 H 25.0627 -1.08074 -4.0213 0
M  V30 311 H 27.6597 1.46456 -5.14252 0
M  V30 312 H 28.0027 2.14195 -3.56968 0
M  V30 313 H 28.5357 0.485889 -3.94821 0
M  V30 314 H 25.2747 -1.16419 -6.45079 0
M  V30 315 H 24.7947 0.482018 -5.9786 0
M  V30 316 H 26.4737 0.145238 -6.46837 0
M  V30 317 N 26.6058 1.57591 -0.0167156 0
M  V30 318 C 27.8518 1.91567 0.665582 0
M  V30 319 C 28.1848 0.892298 1.72487 0
M  V30 320 O 27.4598 -0.0867127 1.94307 0
M  V30 321 C 27.7428 3.36069 1.29342 0
M  V30 322 C 27.5958 4.49135 0.244541 0
M  V30 323 C 28.9148 3.803 2.21495 0
M  V30 324 H 26.0338 0.69666 0.240488 0
M  V30 325 H 28.6758 1.89866 -0.0714356 0
M  V30 326 H 26.8258 3.3765 1.92158 0
M  V30 327 H 28.4978 4.59689 -0.385228 0
M  V30 328 H 26.7408 4.3165 -0.431379 0
M  V30 329 H 27.4118 5.47242 0.723207 0
M  V30 330 H 29.8878 3.80377 1.68678 0
M  V30 331 H 28.7638 4.82127 2.62382 0
M  V30 332 H 29.0248 3.15104 3.101 0
M  V30 333 N 28.0839 -0.256276 1.55502 0
M  V30 334 C 29.3319 -0.983672 1.76545 0
M  V30 335 C 29.6529 -1.86206 0.578982 0
M  V30 336 O 28.9229 -1.91656 -0.405577 0
M  V30 337 H 27.5029 -0.366191 0.651086 0
M  V30 338 H 30.1649 -0.276479 1.92929 0
M  V30 339 H 29.2609 -1.61087 2.67315 0
M  V30 340 N 29.562 -1.4872 -0.521534 0
M  V30 341 C 30.492 -1.66771 -1.63431 0
M  V30 342 C 31.473 -0.516499 -1.62069 0
M  V30 343 O 32.658 -0.750013 -1.79132 0
M  V30 344 C 29.788 -1.71515 -3.01993 0
M  V30 345 C 28.742 -2.86222 -3.18216 0
M  V30 346 C 28.068 -2.76061 -4.57924 0
M  V30 347 C 29.368 -4.27419 -3.00184 0
M  V30 348 H 31.062 -2.59932 -1.48579 0
M  V30 349 H 28.608 -1.25089 -0.713358 0
M  V30 350 H 30.561 -1.82731 -3.7972 0
M  V30 351 H 29.285 -0.749393 -3.17886 0
M  V30 352 H 27.944 -2.74575 -2.42908 0
M  V30 353 H 27.592 -1.77437 -4.70665 0
M  V30 354 H 27.292 -3.53037 -4.69722 0
M  V30 355 H 28.816 -2.89256 -5.37739 0
M  V30 356 H 30.23 -4.39855 -3.67697 0
M  V30 357 H 28.627 -5.05458 -3.2347 0
M  V30 358 H 29.697 -4.43293 -1.96518 0
M  V30 359 N 31.0401 0.771051 -1.3745 0
M  V30 360 C 31.9701 1.89827 -1.3597 0
M  V30 361 C 32.9511 1.68562 -0.228216 0
M  V30 362 O 34.1361 1.8941 -0.428675 0
M  V30 363 C 31.2661 3.2712 -1.16662 0
M  V30 364 C 30.2201 3.6295 -2.2683 0
M  V30 365 C 29.5461 4.98791 -1.92644 0
M  V30 366 C 30.8461 3.69627 -3.69017 0
M  V30 367 H 32.5401 1.91323 -2.30295 0
M  V30 368 H 30.0861 0.919082 -1.10855 0
M  V30 369 H 32.0391 4.05615 -1.14256 0
M  V30 370 H 30.7631 3.26059 -0.187926 0
M  V30 371 H 29.4221 2.86763 -2.28392 0
M  V30 372 H 29.0701 4.94271 -0.933021 0
M  V30 373 H 28.7701 5.23733 -2.66416 0
M  V30 374 H 30.2941 5.79685 -1.91826 0
M  V30 375 H 31.7081 4.38273 -3.69581 0
M  V30 376 H 30.1051 4.06067 -4.41848 0
M  V30 377 H 31.1751 2.70273 -4.02592 0
M  V30 378 N 32.5182 1.22032 0.997298 0
M  V30 379 C 33.4482 1.01065 2.10495 0
M  V30 380 C 34.4292 -0.0669542 1.69968 0
M  V30 381 O 35.6142 0.0943987 1.9397 0
M  V30 382 C 32.7442 0.582874 3.42374 0
M  V30 383 C 31.6982 1.60592 3.96729 0
M  V30 384 C 31.0242 1.03412 5.24605 0
M  V30 385 C 32.3242 2.99478 4.27914 0
M  V30 386 H 34.0182 1.93708 2.28292 0
M  V30 387 H 31.5642 0.932761 1.09707 0
M  V30 388 H 33.5172 0.423332 4.19268 0
M  V30 389 H 32.2412 -0.379213 3.24391 0
M  V30 390 H 30.9002 1.75316 3.21963 0
M  V30 391 H 30.5482 0.063518 5.0296 0
M  V30 392 H 30.2482 1.71754 5.61938 0
M  V30 393 H 31.7722 0.886066 6.04137 0
M  V30 394 H 33.1862 2.88153 4.95622 0
M  V30 395 H 31.5832 3.64903 4.76409 0
M  V30 396 H 32.6532 3.49742 3.3587 0
M  V30 397 N 33.9963 -1.19345 1.0293 0
M  V30 398 C 34.9593 -2.20793 0.615069 0
M  V30 399 C 35.9593 -1.57553 -0.321533 0
M  V30 400 O 37.1493 -1.73862 -0.108483 0
M  V30 401 C 34.2813 -3.40754 -0.0999222 0
M  V30 402 H 35.4743 -2.58955 1.51269 0
M  V30 403 H 33.0273 -1.3303 0.820534 0
M  V30 404 H 33.7623 -3.0811 -1.01187 0
M  V30 405 H 33.5473 -3.87889 0.57309 0
M  V30 406 H 35.0373 -4.15898 -0.376645 0
M  V30 407 N 35.4744 -0.807222 -1.35358 0
M  V30 408 C 36.4074 -0.163572 -2.27613 0
M  V30 409 C 37.3854 0.670817 -1.48118 0
M  V30 410 O 38.5694 0.63796 -1.77376 0
M  V30 411 C 35.6964 0.773015 -3.29761 0
M  V30 412 C 34.7424 0.0181653 -4.26496 0
M  V30 413 S 35.5754 -1.31831 -5.19019 0
M  V30 414 C 36.7314 -0.38619 -6.24707 0
M  V30 415 H 36.9644 -0.945757 -2.81856 0
M  V30 416 H 34.4974 -0.602315 -1.42167 0
M  V30 417 H 36.4554 1.30788 -3.89108 0
M  V30 418 H 35.1164 1.52859 -2.74396 0
M  V30 419 H 34.3094 0.729534 -4.98692 0
M  V30 420 H 33.9114 -0.446761 -3.71322 0
M  V30 421 H 36.2034 0.428295 -6.76145 0
M  V30 422 H 37.1464 -1.07736 -6.99856 0
M  V30 423 H 37.5544 0.018398 -5.64497 0
M  V30 424 N 36.9525 1.47285 -0.560781 0
M  V30 425 C 38.1985 2.02764 -0.0381184 0
M  V30 426 C 38.5315 1.43384 1.30976 0
M  V30 427 O 37.8065 0.590733 1.85312 0
M  V30 428 C 38.0895 3.60064 0.0511427 0
M  V30 429 C 37.9425 4.2987 -1.32408 0
M  V30 430 C 39.2615 4.33439 0.762795 0
M  V30 431 H 36.3805 0.736841 -0.0153264 0
M  V30 432 H 39.0225 1.75675 -0.723759 0
M  V30 433 H 37.1725 3.83274 0.635065 0
M  V30 434 H 38.8445 4.17989 -1.95148 0
M  V30 435 H 37.0875 3.90085 -1.8978 0
M  V30 436 H 37.7585 5.38478 -1.21431 0
M  V30 437 H 40.2345 4.15243 0.266965 0
M  V30 438 H 39.1105 5.43124 0.794221 0
M  V30 439 H 39.3715 4.02915 1.81966 0
M  V30 440 N 38.4306 0.297415 1.54768 0
M  V30 441 C 39.6786 -0.312295 1.99673 0
M  V30 442 C 39.9996 -1.54686 1.18732 0
M  V30 443 O 39.2696 -1.93854 0.282382 0
M  V30 444 H 37.8496 -0.118381 0.73756 0
M  V30 445 H 40.5116 0.407915 1.90583 0
M  V30 446 H 39.6076 -0.586813 3.06534 0
M  V30 447 N 39.9087 -1.5758 0.0250728 0
M  V30 448 C 40.8717 -2.08896 -0.943139 0
M  V30 449 C 41.8717 -1.00321 -1.25668 0
M  V30 450 O 43.0617 -1.26495 -1.19769 0
M  V30 451 C 40.1937 -2.55143 -2.26086 0
M  V30 452 H 41.3867 -2.95723 -0.498775 0
M  V30 453 H 38.9397 -1.54703 -0.222888 0
M  V30 454 H 39.6747 -1.71633 -2.75159 0
M  V30 455 H 39.4597 -3.34461 -2.04641 0
M  V30 456 H 40.9497 -2.95083 -2.95492 0
M  V30 457 N 41.3868 0.248026 -1.55636 0
M  V30 458 C 42.6358 0.974134 -1.76617 0
M  V30 459 C 42.9488 1.86528 -0.588796 0
M  V30 460 O 44.1548 2.62805 -0.681594 0
M  V30 461 C 42.6108 1.78213 -3.12679 0
M  V30 462 C 42.2188 0.93843 -4.38061 0
M  V30 463 C 43.9628 2.50104 -3.42999 0
M  V30 464 C 41.8698 1.74225 -5.65155 0
M  V30 465 H 40.7998 0.36745 -0.658405 0
M  V30 466 H 43.4508 0.22884 -1.82067 0
M  V30 467 H 41.8328 2.56933 -3.01333 0
M  V30 468 H 43.0068 0.193635 -4.60393 0
M  V30 469 H 41.3218 0.332905 -4.15067 0
M  V30 470 H 43.9188 3.10694 -4.3517 0
M  V30 471 H 44.2618 3.21662 -2.64271 0
M  V30 472 H 44.7948 1.78395 -3.55556 0
M  V30 473 H 41.5338 1.07043 -6.46701 0
M  V30 474 H 41.0538 2.46235 -5.46926 0
M  V30 475 H 42.7328 2.30967 -6.0437 0
M  V30 476 N 42.8649 1.48995 0.513639 0
M  V30 477 C 44.1109 1.58076 1.27042 0
M  V30 478 C 44.4439 0.261026 1.92438 0
M  V30 479 O 43.7189 -0.734393 1.80103 0
M  V30 480 C 44.0019 2.73091 2.34719 0
M  V30 481 C 43.8549 4.14821 1.73907 0
M  V30 482 C 45.1739 2.83796 3.36375 0
M  V30 483 H 42.2929 0.575391 0.460536 0
M  V30 484 H 44.9349 1.81232 0.570516 0
M  V30 485 H 43.0849 2.53479 2.94416 0
M  V30 486 H 44.7569 4.45917 1.18135 0
M  V30 487 H 42.9999 4.21058 1.0437 0
M  V30 488 H 43.6709 4.91147 2.51949 0
M  V30 489 H 46.1469 3.01611 2.86653 0
M  V30 490 H 45.0229 3.65971 4.09093 0
M  V30 491 H 45.2839 1.92624 3.9793 0
M  V30 492 N 44.343 -0.763751 1.37857 0
M  V30 493 C 45.589 -1.52396 1.3471 0
M  V30 494 C 45.944 -1.92288 -0.0656435 0
M  V30 495 O 45.237 -1.6181 -1.02606 0
M  V30 496 C 45.431 -2.79499 2.22745 0
M  V30 497 C 45.26 -2.52031 3.72438 0
M  V30 498 C 44.03 -2.45759 4.4151 0
M  V30 499 C 46.228 -2.19489 4.65112 0
M  V30 500 N 44.21 -2.1046 5.76697 0
M  V30 501 C 45.581 -1.94396 5.88736 0
M  V30 502 C 47.636 -2.05712 4.53417 0
M  V30 503 C 46.339 -1.56917 7.01975 0
M  V30 504 C 48.365 -1.69634 5.66549 0
M  V30 505 C 47.727 -1.45407 6.89229 0
M  V30 506 H 43.826 -0.55765 0.548225 0
M  V30 507 H 46.41 -0.890302 1.73152 0
M  V30 508 H 44.581 -3.4069 1.86507 0
M  V30 509 H 46.313 -3.45465 2.10798 0
M  V30 510 H 43.068 -2.61885 3.94605 0
M  V30 511 H 43.492 -1.95484 6.48163 0
M  V30 512 H 48.134 -2.23123 3.59133 0
M  V30 513 H 45.852 -1.38246 7.96187 0
M  V30 514 H 49.438 -1.59621 5.59475 0
M  V30 515 H 48.318 -1.17904 7.75286 0
M  V30 516 N 45.8211 -1.22559 -0.990812 0
M  V30 517 C 47.2371 -0.985996 -1.255 0
M  V30 518 C 47.4371 0.319173 -1.98956 0
M  V30 519 O 46.4931 1.04127 -2.3003 0
M  V30 520 C 47.8061 -2.18607 -2.06474 0
M  V30 521 C 49.3541 -2.22985 -2.19651 0
M  V30 522 C 49.8291 -3.4255 -3.04012 0
M  V30 523 N 51.3201 -3.42725 -3.11599 0
M  V30 524 C 52.0551 -4.31892 -3.7717 0
M  V30 525 N 51.5511 -5.31279 -4.44651 0
M  V30 526 N 53.3441 -4.19662 -3.73952 0
M  V30 527 H 45.4951 -2.06469 -0.49841 0
M  V30 528 H 47.7581 -0.904853 -0.282747 0
M  V30 529 H 47.4641 -3.13267 -1.59865 0
M  V30 530 H 47.3381 -2.18838 -3.07229 0
M  V30 531 H 49.7251 -1.28871 -2.65474 0
M  V30 532 H 49.8061 -2.26791 -1.18319 0
M  V30 533 H 49.4501 -4.36965 -2.58889 0
M  V30 534 H 49.3801 -3.35984 -4.0549 0
M  V30 535 H 51.8711 -2.70807 -2.63575 0
M  V30 536 H 52.1841 -5.95593 -4.92431 0
M  V30 537 H 50.5291 -5.3519 -4.43392 0
M  V30 538 H 53.7201 -3.41268 -3.20396 0
M  V30 539 H 53.8931 -4.89358 -4.24774 0
M  V30 540 N 47.2992 1.18797 -1.03562 0
M  V30 541 C 48.5482 1.87978 -0.731235 0
M  V30 542 C 48.8612 1.80911 0.743671 0
M  V30 543 O 50.0672 2.45407 1.16137 0
M  V30 544 C 48.5232 3.3721 -1.25768 0
M  V30 545 C 48.1312 3.52818 -2.76085 0
M  V30 546 C 49.8752 4.11825 -1.0296 0
M  V30 547 C 47.7822 4.9598 -3.22114 0
M  V30 548 H 46.7122 0.704063 -0.269835 0
M  V30 549 H 49.3632 1.34266 -1.25079 0
M  V30 550 H 47.7452 3.90359 -0.666011 0
M  V30 551 H 48.9192 3.09965 -3.40966 0
M  V30 552 H 47.2342 2.91602 -2.97249 0
M  V30 553 H 49.8312 5.17411 -1.34869 0
M  V30 554 H 50.1742 4.16287 0.0333546 0
M  V30 555 H 50.7072 3.64833 -1.58562 0
M  V30 556 H 47.4462 4.96684 -4.27768 0
M  V30 557 H 46.9662 5.39569 -2.61965 0
M  V30 558 H 48.6452 5.6467 -3.15844 0
M  V30 559 N 48.7773 0.814389 1.34928 0
M  V30 560 C 50.0233 0.399013 1.98836 0
M  V30 561 C 50.3563 -1.03314 1.64438 0
M  V30 562 O 49.6313 -1.71811 0.911659 0
M  V30 563 C 49.9143 0.591629 3.55207 0
M  V30 564 C 49.7673 2.06928 3.99376 0
M  V30 565 C 51.0863 0.022199 4.40094 0
M  V30 566 H 48.2053 0.146451 0.722303 0
M  V30 567 H 50.8473 1.02537 1.59957 0
M  V30 568 H 48.9973 0.0584441 3.88456 0
M  V30 569 H 50.6693 2.66544 3.76499 0
M  V30 570 H 48.9123 2.56287 3.49999 0
M  V30 571 H 49.5833 2.1549 5.08201 0
M  V30 572 H 52.0593 0.477643 4.13349 0
M  V30 573 H 50.9353 0.186832 5.48582 0
M  V30 574 H 51.1963 -1.07215 4.28902 0
M  V30 575 N 50.2554 -1.46986 0.568584 0
M  V30 576 C 51.5324 -1.95592 -0.0174074 0
M  V30 577 C 51.9124 -1.51124 -1.47393 0
M  V30 578 O 51.2604 -0.755329 -2.15655 0
M  V30 579 C 51.4704 -3.48719 0.139913 0
M  V30 580 C 52.8184 -4.246 0.000426376 0
M  V30 581 O 53.8424 -3.56135 0.0680316 0
M  V30 582 O 52.7014 -5.46302 -0.146988 0
M  V30 583 H 49.7954 -0.82498 -0.0577599 0
M  V30 584 H 52.3414 -1.57335 0.635909 0
M  V30 585 H 51.1134 -3.73927 1.15301 0
M  V30 586 H 50.7364 -3.93771 -0.550491 0
M  V30 587 N 51.7335 -0.305618 -1.54608 0
M  V30 588 C 52.6635 0.561482 -2.26649 0
M  V30 589 C 53.6445 1.13415 -1.26772 0
M  V30 590 O 54.8295 1.16262 -1.55553 0
M  V30 591 C 51.9595 1.73122 -3.01075 0
M  V30 592 C 50.9135 1.2887 -4.08138 0
M  V30 593 C 50.2395 2.54396 -4.70305 0
M  V30 594 C 51.5395 0.416578 -5.20636 0
M  V30 595 H 53.2335 -0.0393902 -2.99374 0
M  V30 596 H 50.7795 -0.020385 -1.43986 0
M  V30 597 H 52.7325 2.34396 -3.50195 0
M  V30 598 H 51.4565 2.3584 -2.25936 0
M  V30 599 H 50.1155 0.698991 -3.59875 0
M  V30 600 H 49.7635 3.15439 -3.918 0
M  V30 601 H 49.4635 2.25486 -5.42614 0
M  V30 602 H 50.9875 3.16464 -5.2219 0
M  V30 603 H 52.4015 0.935116 -5.65622 0
M  V30 604 H 50.7985 0.221046 -5.99693 0
M  V30 605 H 51.8685 -0.557162 -4.81688 0
M  V30 606 N 53.2116 1.57565 -0.0334293 0
M  V30 607 C 54.1616 2.06978 0.956237 0
M  V30 608 C 55.1456 0.971193 1.28283 0
M  V30 609 O 56.3376 1.23471 1.26822 0
M  V30 610 C 53.4666 2.60393 2.23719 0
M  V30 611 C 52.5526 3.7719 1.93877 0
M  V30 612 N 52.9436 4.87639 1.34321 0
M  V30 613 C 51.2416 3.85758 2.23845 0
M  V30 614 C 51.9426 5.68825 1.21709 0
M  V30 615 N 50.9186 5.1587 1.71404 0
M  V30 616 H 54.7206 2.89773 0.490815 0
M  V30 617 H 52.2346 1.61492 0.171478 0
M  V30 618 H 54.2316 2.94088 2.95496 0
M  V30 619 H 52.8916 1.79031 2.70884 0
M  V30 620 H 53.9026 5.07803 1.01767 0
M  V30 621 H 50.5796 3.1531 2.73653 0
M  V30 622 H 51.9696 6.67631 0.75621 0
M  V30 623 N 54.6897 -0.239769 1.55765 0
M  V30 624 C 55.9357 -0.968234 1.78194 0
M  V30 625 C 56.2687 -1.84701 0.599938 0
M  V30 626 O 55.5437 -1.9031 -0.401524 0
M  V30 627 C 55.8267 -1.8227 3.10564 0
M  V30 628 C 55.6797 -0.971633 4.3918 0
M  V30 629 C 56.9987 -2.80388 3.39221 0
M  V30 630 H 54.1177 -0.350572 0.648281 0
M  V30 631 H 56.7597 -0.238259 1.885 0
M  V30 632 H 54.9097 -2.44507 3.01908 0
M  V30 633 H 56.5817 -0.367408 4.59835 0
M  V30 634 H 54.8247 -0.276276 4.32919 0
M  V30 635 H 55.4957 -1.60346 5.28198 0
M  V30 636 H 57.9717 -2.28287 3.47885 0
M  V30 637 H 56.8477 -3.3729 4.33044 0
M  V30 638 H 57.1087 -3.57212 2.60484 0
M  V30 639 N 56.1678 -1.49265 -0.50573 0
M  V30 640 C 57.4168 -1.57761 -1.25675 0
M  V30 641 C 57.7298 -0.267371 -1.93764 0
M  V30 642 O 58.9358 -0.230827 -2.70517 0
M  V30 643 C 57.3918 -2.78332 -2.28165 0
M  V30 644 C 56.9998 -4.16096 -1.66037 0
M  V30 645 C 58.7438 -2.96155 -3.04125 0
M  V30 646 C 56.6508 -5.27895 -2.6661 0
M  V30 647 H 55.5808 -0.587391 -0.472745 0
M  V30 648 H 58.2318 -1.75644 -0.53118 0
M  V30 649 H 56.6138 -2.53934 -3.03865 0
M  V30 650 H 57.7878 -4.50612 -0.963622 0
M  V30 651 H 56.1028 -4.03591 -1.02484 0
M  V30 652 H 58.6998 -3.76849 -3.79327 0
M  V30 653 H 59.0428 -2.06534 -3.61455 0
M  V30 654 H 59.5758 -3.2057 -2.35541 0
M  V30 655 H 56.3148 -6.1956 -2.14068 0
M  V30 656 H 55.8348 -4.97839 -3.34539 0
M  V30 657 H 57.5138 -5.57031 -3.29129 0
M  V30 658 N 57.6459 0.756429 -1.3826 0
M  V30 659 C 58.9229 1.50584 -1.24835 0
M  V30 660 C 59.3029 2.10556 0.151485 0
M  V30 661 O 58.6509 1.96825 1.1607 0
M  V30 662 C 58.8609 2.57448 -2.3563 0
M  V30 663 C 60.2089 3.24429 -2.73917 0
M  V30 664 O 61.2329 2.67751 -2.34921 0
M  V30 665 O 60.0919 4.26937 -3.41156 0
M  V30 666 H 57.1859 0.667664 -0.48801 0
M  V30 667 H 59.7319 0.792083 -1.5008 0
M  V30 668 H 58.5039 2.11362 -3.29305 0
M  V30 669 H 58.1269 3.36408 -2.11933 0
M  V30 670 N 59.124 1.23083 0.984299 0
M  V30 671 C 60.074 0.975749 2.06066 0
M  V30 672 C 61.058 -0.0768251 1.60716 0
M  V30 673 O 62.25 0.134805 1.76486 0
M  V30 674 C 59.379 0.564673 3.38624 0
M  V30 675 C 58.465 1.65244 3.90583 0
M  V30 676 N 58.856 2.88193 4.15666 0
M  V30 677 C 57.154 1.52612 4.19077 0
M  V30 678 C 57.855 3.58593 4.58024 0
M  V30 679 N 56.831 2.86093 4.62225 0
M  V30 680 H 60.633 1.90957 2.23411 0
M  V30 681 H 58.147 1.12963 1.16675 0
M  V30 682 H 60.144 0.36322 4.15315 0
M  V30 683 H 58.804 -0.362147 3.22674 0
M  V30 684 H 59.815 3.24537 4.03604 0
M  V30 685 H 56.492 0.666121 4.12152 0
M  V30 686 H 57.882 4.63974 4.85982 0
M  V30 687 N 60.6021 -1.18246 1.0419 0
M  V30 688 C 61.8791 -1.84121 0.660208 0
M  V30 689 C 62.2591 -1.92778 -0.860221 0
M  V30 690 O 61.6071 -1.45464 -1.76217 0
M  V30 691 C 61.8171 -3.22355 1.33747 0
M  V30 692 C 63.1651 -3.98376 1.46906 0
M  V30 693 O 64.1891 -3.31799 1.29568 0
M  V30 694 O 63.0481 -5.17665 1.75171 0
M  V30 695 H 60.1421 -0.794036 0.231161 0
M  V30 696 H 62.6881 -1.25628 1.14087 0
M  V30 697 H 61.4601 -3.10964 2.37522 0
M  V30 698 H 61.0831 -3.88506 0.845515 0
M  V30 699 N 62.0802 -0.821533 -1.34494 0
M  V30 700 C 63.3272 -0.408946 -1.98328 0
M  V30 701 C 63.6552 1.02764 -1.65136 0
M  V30 702 O 62.9102 1.73026 -0.914349 0
M  V30 703 C 63.2092 -0.556512 -3.53041 0
M  V30 704 C 62.8752 -1.95861 -4.0614 0
M  V30 705 C 61.5372 -2.34217 -4.20352 0
M  V30 706 C 63.8892 -2.87523 -4.34718 0
M  V30 707 C 61.2172 -3.63572 -4.6047 0
M  V30 708 C 63.5692 -4.1634 -4.76281 0
M  V30 709 C 62.2332 -4.54675 -4.88699 0
M  V30 710 H 61.5032 -0.149644 -0.725732 0
M  V30 711 H 64.1502 -1.04521 -1.6046 0
M  V30 712 H 62.4552 0.163148 -3.9146 0
M  V30 713 H 64.1522 -0.217826 -4.00408 0
M  V30 714 H 60.7422 -1.65066 -3.95539 0
M  V30 715 H 64.9262 -2.59133 -4.23277 0
M  V30 716 H 60.1822 -3.93101 -4.68275 0
M  V30 717 H 64.3562 -4.87455 -4.97354 0
M  V30 718 H 61.9832 -5.54959 -5.19542 0
M  V30 719 N 63.5583 1.46682 -0.576371 0
M  V30 720 C 64.4883 2.33028 0.148397 0
M  V30 721 C 65.4693 1.44961 0.889956 0
M  V30 722 O 66.6543 1.73789 0.866662 0
M  V30 723 C 63.7843 3.27117 1.1667 0
M  V30 724 C 62.7383 4.24575 0.540386 0
M  V30 725 C 62.0643 5.08126 1.6647 0
M  V30 726 C 63.3643 5.19722 -0.518331 0
M  V30 727 H 65.0583 2.93875 -0.572509 0
M  V30 728 H 62.6043 1.41315 -0.276768 0
M  V30 729 H 64.5573 3.86374 1.68204 0
M  V30 730 H 63.2813 2.64364 1.9178 0
M  V30 731 H 61.9403 3.66571 0.0461769 0
M  V30 732 H 61.5883 4.41762 2.40531 0
M  V30 733 H 61.2883 5.74122 1.25131 0
M  V30 734 H 62.8123 5.70246 2.18293 0
M  V30 735 H 64.2263 5.73232 -0.0883058 0
M  V30 736 H 62.6233 5.94026 -0.851679 0
M  V30 737 H 63.6933 4.64037 -1.40703 0
M  V30 738 N 65.0364 0.313813 1.54444 0
M  V30 739 C 65.9834 -0.55655 2.23989 0
M  V30 740 C 66.9534 -1.11943 1.22711 0
M  V30 741 O 68.1384 -1.16158 1.51367 0
M  V30 742 C 65.2784 -1.71635 2.99392 0
M  V30 743 C 64.3914 -1.18364 4.15468 0
M  V30 744 C 63.5264 -2.30834 4.78424 0
M  V30 745 C 62.5654 -1.74762 5.86622 0
M  V30 746 N 61.7024 -2.80855 6.43479 0
M  V30 747 H 66.5424 0.0430893 2.97969 0
M  V30 748 H 64.0794 0.0330359 1.47063 0
M  V30 749 H 66.0374 -2.39868 3.41349 0
M  V30 750 H 64.6674 -2.28742 2.27765 0
M  V30 751 H 63.7194 -0.393163 3.78363 0
M  V30 752 H 65.0314 -0.733262 4.93381 0
M  V30 753 H 64.1854 -3.0699 5.23299 0
M  V30 754 H 62.9244 -2.79204 3.99871 0
M  V30 755 H 61.9294 -0.970995 5.41158 0
M  V30 756 H 63.1544 -1.2728 6.67066 0
M  V30 757 H 61.1004 -3.28535 5.67804 0
M  V30 758 H 61.0174 -2.40351 7.16776 0
M  V30 759 H 62.2854 -3.5687 6.93011 0
M  V30 760 N 66.5145 -1.57545 0.0417849 0
M  V30 761 C 67.7625 -1.91937 -0.632829 0
M  V30 762 C 68.0835 -0.919978 -1.71934 0
M  V30 763 O 67.3535 0.0366064 -1.95866 0
M  V30 764 H 65.9335 -0.708493 -0.236742 0
M  V30 765 H 68.5955 -1.9468 0.0925745 0
M  V30 766 H 67.6915 -2.92912 -1.07746 0
M  V30 767 N 67.9926 0.231505 -1.5589 0
M  V30 768 C 68.9246 1.31006 -1.8807 0
M  V30 769 C 69.9376 1.43539 -0.768145 0
M  V30 770 O 71.1266 1.44614 -1.04638 0
M  V30 771 C 68.2266 2.68688 -2.06543 0
M  V30 772 C 67.3996 2.78228 -3.37502 0
M  V30 773 C 66.4586 3.96857 -3.4553 0
M  V30 774 O 65.4846 3.85662 -4.18633 0
M  V30 775 N 66.6866 5.1072 -2.75944 0
M  V30 776 H 69.4516 1.03731 -2.81176 0
M  V30 777 H 67.0126 0.421573 -1.56315 0
M  V30 778 H 69.0046 3.46412 -2.09239 0
M  V30 779 H 67.5746 2.88605 -1.20109 0
M  V30 780 H 66.7946 1.87059 -3.46991 0
M  V30 781 H 68.0826 2.81564 -4.23791 0
M  V30 782 H 67.4806 5.2271 -2.16311 0
M  V30 783 H 66.0376 5.86523 -2.84314 0
M  V30 784 N 69.4707 1.49531 0.497807 0
M  V30 785 C 70.7187 1.58865 1.24926 0
M  V30 786 C 71.0397 0.278721 1.92998 0
M  V30 787 O 70.3097 -0.702144 1.82885 0
M  V30 788 H 68.8897 0.585343 0.464094 0
M  V30 789 H 71.5517 1.86174 0.57666 0
M  V30 790 H 70.6477 2.38633 2.01149 0
M  V30 791 N 70.9488 -0.749086 1.3866 0
M  V30 792 C 72.2258 -1.4992 1.25632 0
M  V30 793 C 72.6058 -2.10633 -0.140317 0
M  V30 794 O 71.9538 -1.97437 -1.15025 0
M  V30 795 C 72.1638 -2.56195 2.36992 0
M  V30 796 C 73.5118 -3.22972 2.75634 0
M  V30 797 O 74.5358 -2.66502 2.36337 0
M  V30 798 O 73.3948 -4.25122 3.43415 0
M  V30 799 H 70.4888 -0.665067 0.491544 0
M  V30 800 H 73.0348 -0.784113 1.50498 0
M  V30 801 H 71.8068 -2.09612 3.30422 0
M  V30 802 H 71.4298 -3.35279 2.13714 0
M  V30 803 N 72.4269 -1.23603 -0.977757 0
M  V30 804 C 73.3899 -1.02069 -2.05218 0
M  V30 805 C 74.3899 0.0184305 -1.60789 0
M  V30 806 O 75.5799 -0.221569 -1.72785 0
M  V30 807 C 72.7119 -0.544926 -3.36517 0
M  V30 808 H 73.9049 -1.9742 -2.25755 0
M  V30 809 H 71.4579 -1.05684 -1.15155 0
M  V30 810 H 72.1929 0.412241 -3.21669 0
M  V30 811 H 71.9779 -1.2948 -3.70105 0
M  V30 812 H 73.4679 -0.414985 -4.15533 0
M  V30 813 N 73.905 1.17692 -1.04816 0
M  V30 814 C 75.321 1.39863 -0.768794 0
M  V30 815 C 75.521 1.91118 0.638451 0
M  V30 816 O 74.577 2.10036 1.40146 0
M  V30 817 C 75.89 2.39274 -1.82122 0
M  V30 818 C 77.438 2.52987 -1.843 0
M  V30 819 C 77.913 3.55669 -2.88555 0
M  V30 820 N 79.404 3.63183 -2.87493 0
M  V30 821 C 80.139 4.42381 -3.64811 0
M  V30 822 N 79.635 5.25125 -4.51903 0
M  V30 823 N 81.428 4.37217 -3.53267 0
M  V30 824 H 73.579 0.82752 -1.95617 0
M  V30 825 H 75.842 0.426123 -0.846831 0
M  V30 826 H 75.548 2.08678 -2.83102 0
M  V30 827 H 75.422 3.38725 -1.65967 0
M  V30 828 H 77.809 2.82896 -0.839869 0
M  V30 829 H 77.89 1.53623 -2.04532 0
M  V30 830 H 77.534 3.26499 -3.89051 0
M  V30 831 H 77.464 4.54728 -2.65575 0
M  V30 832 H 79.955 3.04103 -2.24343 0
M  V30 833 H 80.268 5.82728 -5.07591 0
M  V30 834 H 78.613 5.24519 -4.55966 0
M  V30 835 H 81.804 3.71626 -2.84625 0
M  V30 836 H 81.977 4.98696 -4.13771 0
M  V30 837 N 75.3831 0.828654 1.34056 0
M  V30 838 C 76.6081 0.431637 2.02859 0
M  V30 839 C 77.0331 -0.956339 1.61975 0
M  V30 840 O 76.3911 -1.62338 0.807228 0
M  V30 841 C 76.4391 0.548323 3.56407 0
M  V30 842 O 75.5431 -0.429556 4.10157 0
M  V30 843 H 74.8841 0.176886 0.640006 0
M  V30 844 H 77.4141 1.12066 1.71179 0
M  V30 845 H 77.4241 0.426196 4.05768 0
M  V30 846 H 76.0991 1.5606 3.8551 0
M  V30 847 H 74.6761 -0.265836 3.71951 0
M  V30 848 N 76.8612 -1.46375 0.584142 0
M  V30 849 C 78.1072 -2.02678 0.0703716 0
M  V30 850 C 78.4402 -1.4545 -1.28678 0
M  V30 851 O 77.7152 -0.62014 -1.84349 0
M  V30 852 C 77.9982 -3.60099 0.00614674 0
M  V30 853 C 77.8512 -4.27709 1.3923 0
M  V30 854 C 79.1702 -4.34598 -0.693742 0
M  V30 855 H 76.2892 -0.736504 0.027047 0
M  V30 856 H 78.9312 -1.74501 0.751615 0
M  V30 857 H 77.0812 -3.84236 -0.574009 0
M  V30 858 H 78.7532 -4.14832 2.01773 0
M  V30 859 H 76.9962 -3.87016 1.95962 0
M  V30 860 H 77.6672 -5.36478 1.29982 0
M  V30 861 H 80.1432 -4.15615 -0.200869 0
M  V30 862 H 79.0192 -5.44318 -0.707714 0
M  V30 863 H 79.2802 -4.05759 -1.75533 0
M  V30 864 N 78.3393 -0.321999 -1.54275 0
M  V30 865 C 79.7553 0.0306999 -1.5957 0
M  V30 866 C 79.9553 1.50614 -1.33857 0
M  V30 867 O 79.0113 2.2619 -1.12223 0
M  V30 868 C 80.3243 -0.386122 -2.98211 0
M  V30 869 C 81.8723 -0.336647 -3.11184 0
M  V30 870 C 82.3473 -0.728607 -4.52167 0
M  V30 871 N 83.8383 -0.681952 -4.58152 0
M  V30 872 C 84.5733 -0.957449 -5.6535 0
M  V30 873 N 84.0693 -1.3 -6.80494 0
M  V30 874 N 85.8623 -0.883113 -5.55119 0
M  V30 875 H 78.0133 -1.28332 -1.69247 0
M  V30 876 H 80.2763 -0.521716 -0.791528 0
M  V30 877 H 79.9823 -1.41404 -3.22022 0
M  V30 878 H 79.8563 0.249662 -3.76373 0
M  V30 879 H 82.2433 0.682058 -2.8711 0
M  V30 880 H 82.3243 -1.00734 -2.3513 0
M  V30 881 H 81.9683 -1.74522 -4.76974 0
M  V30 882 H 81.8983 -0.0356152 -5.26588 0
M  V30 883 H 84.3893 -0.428985 -3.75457 0
M  V30 884 H 84.7023 -1.49563 -7.58189 0
M  V30 885 H 83.0473 -1.33824 -6.81994 0
M  V30 886 H 86.2383 -0.615001 -4.64042 0
M  V30 887 H 86.4113 -1.10118 -6.38575 0
M  V30 888 N 79.8174 1.5752 -0.0501392 0
M  V30 889 C 80.7674 2.07981 0.934231 0
M  V30 890 C 81.7514 0.984745 1.27246 0
M  V30 891 O 82.9434 1.24809 1.25506 0
M  V30 892 C 80.0724 2.62751 2.20945 0
M  V30 893 C 79.1584 3.79225 1.89865 0
M  V30 894 N 79.5494 4.89036 1.29142 0
M  V30 895 C 77.8474 3.88111 2.19741 0
M  V30 896 C 78.5484 5.70084 1.15669 0
M  V30 897 N 77.5244 5.17659 1.65923 0
M  V30 898 H 81.3264 2.90277 0.460053 0
M  V30 899 H 78.8404 1.61665 0.15434 0
M  V30 900 H 80.8374 2.97205 2.9236 0
M  V30 901 H 79.4974 1.81894 2.6897 0
M  V30 902 H 80.5084 5.08854 0.963756 0
M  V30 903 H 77.1854 3.18194 2.70293 0
M  V30 904 H 78.5754 6.68395 0.685356 0
M  V30 905 N 81.2955 -0.223234 1.56011 0
M  V30 906 C 82.5445 -0.945912 1.78144 0
M  V30 907 C 82.8575 -1.85567 0.618396 0
M  V30 908 O 84.0635 -2.61688 0.723318 0
M  V30 909 C 82.5195 -1.73216 3.15475 0
M  V30 910 C 82.1275 -0.868619 4.39499 0
M  V30 911 C 83.8715 -2.44615 3.46935 0
M  V30 912 C 81.7785 -1.65212 5.67855 0
M  V30 913 H 80.7085 -0.356929 0.664167 0
M  V30 914 H 83.3595 -0.199845 1.82409 0
M  V30 915 H 81.7415 -2.52107 3.05382 0
M  V30 916 H 82.9155 -0.120366 4.60643 0
M  V30 917 H 81.2305 -0.26683 4.15544 0
M  V30 918 H 83.8275 -3.03732 4.40058 0
M  V30 919 H 84.1705 -3.17417 2.69355 0
M  V30 920 H 84.7035 -1.72715 3.58349 0
M  V30 921 H 81.4425 -0.967407 6.48322 0
M  V30 922 H 80.9625 -2.37503 5.50774 0
M  V30 923 H 82.6415 -2.21322 6.07968 0
M  V30 924 N 82.7736 -1.49793 -0.48987 0
M  V30 925 C 83.7366 -1.66752 -1.57246 0
M  V30 926 C 84.7366 -0.538867 -1.51502 0
M  V30 927 O 85.9266 -0.805545 -1.54456 0
M  V30 928 C 83.0586 -1.67528 -2.96896 0
M  V30 929 H 84.2516 -2.63321 -1.43534 0
M  V30 930 H 81.8046 -1.38992 -0.714914 0
M  V30 931 H 82.5396 -0.725837 -3.16073 0
M  V30 932 H 82.3246 -2.49504 -3.02473 0
M  V30 933 H 83.8146 -1.82667 -3.7553 0
M  V30 934 N 84.2517 0.741722 -1.39055 0
M  V30 935 C 85.5007 1.49656 -1.35225 0
M  V30 936 C 85.8137 1.95533 0.0512708 0
M  V30 937 O 87.0197 2.7067 0.212138 0
M  V30 938 C 85.4757 2.70389 -2.37525 0
M  V30 939 C 85.0837 2.31489 -3.83558 0
M  V30 940 C 86.8277 3.48236 -2.42759 0
M  V30 941 C 84.7347 3.48903 -4.77515 0
M  V30 942 H 83.6647 0.56197 -0.502699 0
M  V30 943 H 86.3157 0.809727 -1.64668 0
M  V30 944 H 84.6977 3.41113 -2.01142 0
M  V30 945 H 85.8717 1.68354 -4.28945 0
M  V30 946 H 84.1867 1.66749 -3.81554 0
M  V30 947 H 86.7837 4.35558 -3.1015 0
M  V30 948 H 87.1267 3.90229 -1.45008 0
M  V30 949 H 87.6597 2.84535 -2.78002 0
M  V30 950 H 84.3987 3.11966 -5.76504 0
M  V30 951 H 83.9187 4.11041 -4.36813 0
M  V30 952 H 85.5977 4.15328 -4.96096 0
M  V30 953 N 85.7298 1.2412 0.971189 0
M  V30 954 C 87.1408 1.07236 1.52831 0
M  V30 955 C 87.4918 -0.357352 1.92918 0
M  V30 956 O 86.6168 -1.24528 1.76979 0
M  V30 957 C 87.2118 1.94043 2.77728 0
M  V30 958 C 85.7708 1.81394 3.29808 0
M  V30 959 C 84.9178 1.89189 2.02738 0
M  V30 960 H 87.8688 1.37648 0.789864 0
M  V30 961 H 87.8898 1.47066 3.5093 0
M  V30 962 H 87.4018 2.98093 2.4852 0
M  V30 963 H 85.5028 0.801634 3.63874 0
M  V30 964 H 85.6158 2.65294 3.98944 0
M  V30 965 H 83.9798 1.32877 2.17292 0
M  V30 966 H 84.7628 2.94812 1.759 0
M  V30 967 N 87.2079 -1.17134 1.05439 0
M  V30 968 C 88.1709 -2.19439 0.661764 0
M  V30 969 C 89.1709 -1.58199 -0.288042 0
M  V30 970 O 90.3609 -1.74053 -0.0715803 0
M  V30 971 C 87.4929 -3.40889 -0.0276209 0
M  V30 972 H 88.6859 -2.55688 1.56728 0
M  V30 973 H 86.2389 -1.31259 0.848567 0
M  V30 974 H 86.9739 -3.10187 -0.94629 0
M  V30 975 H 86.7589 -3.86586 0.655238 0
M  V30 976 H 88.2489 -4.16603 -0.288342 0
M  V30 977 N 88.686 -0.835752 -1.33615 0
M  V30 978 C 89.636 -0.238856 -2.26745 0
M  V30 979 C 90.62 0.604343 -1.49119 0
M  V30 980 O 91.812 0.456822 -1.71003 0
M  V30 981 C 88.941 0.587725 -3.38232 0
M  V30 982 C 88.027 -0.266811 -4.2326 0
M  V30 983 N 88.418 -1.34403 -4.87616 0
M  V30 984 C 86.716 -0.0533131 -4.45968 0
M  V30 985 C 87.417 -1.86819 -5.50884 0
M  V30 986 N 86.393 -1.17013 -5.30857 0
M  V30 987 H 90.195 -1.06266 -2.74016 0
M  V30 988 H 87.709 -0.679881 -1.47483 0
M  V30 989 H 89.706 1.03161 -4.03935 0
M  V30 990 H 88.366 1.40954 -2.9251 0
M  V30 991 H 89.377 -1.7269 -4.88261 0
M  V30 992 H 86.054 0.735312 -4.10974 0
M  V30 993 H 87.444 -2.7701 -6.1214 0
M  V30 994 N 90.1641 1.46063 -0.591896 0
M  V30 995 C 91.5801 1.57561 -0.254288 0
M  V30 996 C 91.7801 1.58565 1.24336 0
M  V30 997 O 90.8361 1.50753 2.02558 0
M  V30 998 C 92.1491 2.86549 -0.911611 0
M  V30 999 C 93.6971 3.00197 -0.886059 0
M  V30 1000 C 94.1721 4.31933 -1.5231 0
M  V30 1001 N 95.6631 4.38654 -1.48786 0
M  V30 1002 C 96.3981 5.39222 -1.95006 0
M  V30 1003 N 95.8941 6.46414 -2.49241 0
M  V30 1004 N 97.6871 5.3048 -1.85868 0
M  V30 1005 H 89.8381 1.43655 -1.56451 0
M  V30 1006 H 92.1011 0.68583 -0.654478 0
M  V30 1007 H 91.8071 2.91651 -1.96551 0
M  V30 1008 H 91.6811 3.74794 -0.425368 0
M  V30 1009 H 94.0681 2.9467 0.159246 0
M  V30 1010 H 94.1491 2.13403 -1.41041 0
M  V30 1011 H 93.7931 4.38217 -2.56765 0
M  V30 1012 H 93.7231 5.17516 -0.973891 0
M  V30 1013 H 96.2141 3.61793 -1.09151 0
M  V30 1014 H 96.5271 7.19376 -2.82344 0
M  V30 1015 H 94.8721 6.47208 -2.53272 0
M  V30 1016 H 98.0631 4.45643 -1.43248 0
M  V30 1017 H 98.2361 6.08711 -2.22204 0
M  V30 1018 N 91.6422 0.330177 1.54103 0
M  V30 1019 C 92.8902 -0.269871 2.0029 0
M  V30 1020 C 93.2112 -1.52133 1.21986 0
M  V30 1021 O 92.4812 -1.93212 0.323438 0
M  V30 1022 H 91.0612 -0.10271 0.739905 0
M  V30 1023 H 93.7232 0.448249 1.89675 0
M  V30 1024 H 92.8192 -0.52166 3.07709 0
M  V30 1025 N 93.1203 -1.57491 0.0584922 0
M  V30 1026 C 94.0503 -2.14988 -0.911178 0
M  V30 1027 C 95.0313 -1.07343 -1.31952 0
M  V30 1028 O 96.2163 -1.35318 -1.39294 0
M  V30 1029 C 93.3463 -2.70078 -2.18347 0
M  V30 1030 C 92.3003 -3.82771 -1.91495 0
M  V30 1031 C 91.6263 -4.24408 -3.25241 0
M  V30 1032 C 92.9263 -5.07592 -1.23075 0
M  V30 1033 H 94.6203 -2.96263 -0.432246 0
M  V30 1034 H 92.1663 -1.42512 -0.206469 0
M  V30 1035 H 94.1193 -3.08943 -2.86587 0
M  V30 1036 H 92.8433 -1.86005 -2.68458 0
M  V30 1037 H 91.5023 -3.44389 -1.25664 0
M  V30 1038 H 91.1503 -3.37275 -3.73168 0
M  V30 1039 H 90.8503 -5.00366 -3.08071 0
M  V30 1040 H 92.3743 -4.65879 -3.94701 0
M  V30 1041 H 93.7883 -5.43857 -1.81362 0
M  V30 1042 H 92.1853 -5.88741 -1.16207 0
M  V30 1043 H 93.2553 -4.84454 -0.207847 0
M  V30 1044 N 94.5984 0.214957 -1.56127 0
M  V30 1045 C 95.8474 0.936451 -1.78643 0
M  V30 1046 C 96.1604 1.85237 -0.628229 0
M  V30 1047 O 97.3664 2.613 -0.737186 0
M  V30 1048 C 95.8224 1.7154 -3.16389 0
M  V30 1049 C 95.4304 0.845299 -4.39953 0
M  V30 1050 C 97.1744 2.42772 -3.48227 0
M  V30 1051 C 95.0814 1.62198 -5.68723 0
M  V30 1052 H 94.0114 0.353401 -0.666051 0
M  V30 1053 H 96.6624 0.190169 -1.82512 0
M  V30 1054 H 95.0444 2.50484 -3.06715 0
M  V30 1055 H 96.2184 0.0959353 -4.607 0
M  V30 1056 H 94.5334 0.244789 -4.1568 0
M  V30 1057 H 97.1304 3.01394 -4.41663 0
M  V30 1058 H 97.4734 3.15984 -2.71035 0
M  V30 1059 H 98.0064 1.70813 -3.5926 0
M  V30 1060 H 94.7454 0.933011 -6.48826 0
M  V30 1061 H 94.2654 2.34579 -5.52026 0
M  V30 1062 H 95.9444 2.18095 -6.09133 0
M  V30 1063 N 96.0765 1.50051 0.48192 0
M  V30 1064 C 97.3045 1.64237 1.25832 0
M  V30 1065 C 97.7195 0.321336 1.86045 0
M  V30 1066 O 97.0765 -0.695478 1.68729 0
M  V30 1067 C 97.1275 2.72548 2.37487 0
M  V30 1068 O 96.8485 3.99529 1.79745 0
M  V30 1069 C 98.3495 2.9761 3.28547 0
M  V30 1070 H 95.5695 0.55237 0.380957 0
M  V30 1071 H 98.1135 1.96207 0.576467 0
M  V30 1072 H 96.2685 2.43303 3.01467 0
M  V30 1073 H 96.6825 4.59342 2.5319 0
M  V30 1074 H 98.1565 3.77084 4.03127 0
M  V30 1075 H 98.6335 2.0826 3.86684 0
M  V30 1076 H 99.2395 3.28345 2.70314 0
M  V30 1077 N 97.5546 -0.734337 1.39446 0
M  V30 1078 C 98.8316 -1.48579 1.27215 0
M  V30 1079 C 99.2116 -2.1077 -0.117968 0
M  V30 1080 O 98.5596 -1.98646 -1.12924 0
M  V30 1081 C 98.7696 -2.53667 2.39696 0
M  V30 1082 C 100.118 -3.20031 2.79044 0
M  V30 1083 O 101.142 -2.6398 2.39151 0
M  V30 1084 O 100.001 -4.21455 3.47905 0
M  V30 1085 H 97.0946 -0.659816 0.49857 0
M  V30 1086 H 99.6406 -0.768106 1.51322 0
M  V30 1087 H 98.4126 -2.06096 3.32626 0
M  V30 1088 H 98.0356 -3.32994 2.17258 0
M  V30 1089 N 99.0327 -1.24633 -0.964593 0
M  V30 1090 C 100.449 -1.01239 -1.2338 0
M  V30 1091 C 100.649 0.2769 -1.99588 0
M  V30 1092 O 99.7047 0.992241 -2.32187 0
M  V30 1093 C 101.018 -2.22937 -2.01791 0
M  V30 1094 C 102.566 -2.27594 -2.14872 0
M  V30 1095 C 103.041 -3.48921 -2.96678 0
M  V30 1096 N 104.532 -3.49257 -3.04259 0
M  V30 1097 C 105.267 -4.39795 -3.67924 0
M  V30 1098 N 104.763 -5.40591 -4.33281 0
M  V30 1099 N 106.556 -4.275 -3.64966 0
M  V30 1100 H 98.7067 -2.0748 -0.454502 0
M  V30 1101 H 100.97 -0.910647 -0.26349 0
M  V30 1102 H 100.676 -3.16587 -1.53184 0
M  V30 1103 H 100.55 -2.25306 -3.02518 0
M  V30 1104 H 102.937 -1.34473 -2.6268 0
M  V30 1105 H 103.018 -2.2925 -1.13482 0
M  V30 1106 H 102.662 -4.42359 -2.49562 0
M  V30 1107 H 102.592 -3.4451 -3.98272 0
M  V30 1108 H 105.083 -2.76337 -2.57771 0
M  V30 1109 H 105.396 -6.05904 -4.79687 0
M  V30 1110 H 103.741 -5.44475 -4.3194 0
M  V30 1111 H 106.932 -3.47987 -3.13086 0
M  V30 1112 H 107.105 -4.98258 -4.14298 0
M  V30 1113 N 100.511 1.16574 -1.06058 0
M  V30 1114 C 101.459 2.22941 -0.663343 0
M  V30 1115 C 102.453 1.66358 0.319593 0
M  V30 1116 O 103.659 1.7905 0.184713 0
M  V30 1117 H 100.034 0.725907 -0.196376 0
M  V30 1118 H 102.005 2.53736 -1.57037 0
M  V30 1119 C 100.754 3.47642 -0.0632808 0
M  V30 1120 H 100.077 3.91493 -0.810733 0
M  V30 1121 H 101.517 4.2363 0.177177 0
M  V30 1122 C 99.9758 3.1509 1.19248 0
M  V30 1123 O 100.506 3.30673 2.28075 0
M  V30 1124 N 98.7118 2.6924 1.09353 0
M  V30 1125 H 98.2588 2.5676 0.207912 0
M  V30 1126 H 98.2168 2.47833 1.93458 0
M  V30 1127 N 101.989 0.842826 1.3317 0
M  V30 1128 C 103.237 0.439577 1.97262 0
M  V30 1129 C 103.558 -1.00548 1.67078 0
M  V30 1130 O 102.828 -1.70098 0.971779 0
M  V30 1131 H 101.408 0.159558 0.72976 0
M  V30 1132 H 104.07 1.07665 1.62463 0
M  V30 1133 H 103.166 0.574886 3.0676 0
M  V30 1134 N 103.467 -1.45747 0.599634 0
M  V30 1135 C 104.377 -2.34262 -0.125888 0
M  V30 1136 C 105.393 -1.50768 -0.868625 0
M  V30 1137 O 106.569 -1.83592 -0.828003 0
M  V30 1138 C 103.634 -3.28252 -1.11587 0
M  V30 1139 C 102.695 -4.27651 -0.375956 0
M  V30 1140 C 101.928 -5.1715 -1.31877 0
M  V30 1141 O 102.151 -5.09916 -2.55621 0
M  V30 1142 O 101.085 -5.96286 -0.820157 0
M  V30 1143 H 104.911 -2.97688 0.601315 0
M  V30 1144 H 102.496 -1.44999 0.359934 0
M  V30 1145 H 104.378 -3.86191 -1.68626 0
M  V30 1146 H 103.053 -2.67401 -1.82424 0
M  V30 1147 H 101.96 -3.7335 0.236698 0
M  V30 1148 H 103.293 -4.91334 0.29177 0
M  V30 1149 N 104.945 -0.338344 -1.53925 0
M  V30 1150 C 106.356 0.146651 -1.86123 0
M  V30 1151 C 106.707 1.5042 -1.2597 0
M  V30 1152 O 105.832 2.08723 -0.571294 0
M  V30 1153 C 106.427 0.272879 -3.37699 0
M  V30 1154 C 104.986 0.702103 -3.69794 0
M  V30 1155 C 104.133 -0.167304 -2.76795 0
M  V30 1156 H 107.084 -0.558123 -1.48562 0
M  V30 1157 H 107.105 1.10128 -3.64214 0
M  V30 1158 H 106.617 -0.715307 -3.81451 0
M  V30 1159 H 104.718 1.6995 -3.31584 0
M  V30 1160 H 104.831 0.495604 -4.7653 0
M  V30 1161 H 103.195 0.359527 -2.5215 0
M  V30 1162 H 103.978 -1.15253 -3.23375 0
M  V30 1163 N 106.423 1.57458 -0.0668435 0
M  V30 1164 C 107.353 2.15468 0.899764 0
M  V30 1165 C 108.334 1.08042 1.31381 0
M  V30 1166 O 109.519 1.36054 1.38574 0
M  V30 1167 C 106.649 2.71232 2.16911 0
M  V30 1168 C 105.603 3.83781 1.89463 0
M  V30 1169 C 104.929 4.26127 3.22986 0
M  V30 1170 C 106.229 5.08238 1.20381 0
M  V30 1171 H 107.923 2.96488 0.416529 0
M  V30 1172 H 105.469 1.4262 0.198908 0
M  V30 1173 H 107.422 3.10458 2.84945 0
M  V30 1174 H 106.146 1.87426 2.67468 0
M  V30 1175 H 104.805 3.45051 1.23836 0
M  V30 1176 H 104.453 3.39249 3.71374 0
M  V30 1177 H 104.153 5.01993 3.05413 0
M  V30 1178 H 105.677 4.67966 3.92225 0
M  V30 1179 H 107.091 5.44811 1.78475 0
M  V30 1180 H 105.488 5.89349 1.13083 0
M  V30 1181 H 106.558 4.84558 0.182153 0
M  V30 1182 N 107.901 -0.206675 1.56239 0
M  V30 1183 C 108.864 -1.23976 1.92776 0
M  V30 1184 C 109.864 -1.39041 0.807729 0
M  V30 1185 O 111.054 -1.37051 1.0753 0
M  V30 1186 C 108.186 -2.61112 2.19165 0
M  V30 1187 H 109.379 -0.927764 2.85189 0
M  V30 1188 H 106.932 -0.447718 1.4975 0
M  V30 1189 H 107.667 -2.97386 1.29352 0
M  V30 1190 H 107.452 -2.51552 3.00772 0
M  V30 1191 H 108.942 -3.35633 2.48476 0
M  V30 1192 N 109.379 -1.50304 -0.473955 0
M  V30 1193 C 110.625 -1.61389 -1.22806 0
M  V30 1194 C 110.958 -0.311955 -1.91678 0
M  V30 1195 O 110.233 0.686384 -1.81986 0
M  V30 1196 C 110.516 -2.79219 -2.27396 0
M  V30 1197 C 110.369 -4.19286 -1.62848 0
M  V30 1198 C 111.688 -2.92614 -3.28732 0
M  V30 1199 H 108.807 -0.587399 -0.445119 0
M  V30 1200 H 111.449 -1.82681 -0.522265 0
M  V30 1201 H 109.599 -2.61195 -2.87592 0
M  V30 1202 H 111.271 -4.48892 -1.06271 0
M  V30 1203 H 109.514 -4.23677 -0.931693 0
M  V30 1204 H 110.185 -4.97655 -2.38838 0
M  V30 1205 H 112.661 -3.09105 -2.78556 0
M  V30 1206 H 111.537 -3.76688 -3.99246 0
M  V30 1207 H 111.798 -2.03107 -3.92683 0
M  V30 1208 N 110.857 0.726932 -1.39834 0
M  V30 1209 C 112.082 1.52121 -1.40976 0
M  V30 1210 C 112.507 1.88098 -0.00826029 0
M  V30 1211 O 111.865 1.52479 0.980807 0
M  V30 1212 C 111.913 2.78021 -2.29644 0
M  V30 1213 O 111.017 3.74272 -1.73188 0
M  V30 1214 H 110.358 0.45908 -0.479731 0
M  V30 1215 H 112.888 0.896207 -1.83927 0
M  V30 1216 H 112.898 3.26671 -2.44438 0
M  V30 1217 H 111.573 2.51169 -3.31492 0
M  V30 1218 H 110.15 3.33073 -1.6768 0
M  V30 1219 N 112.336 1.25143 0.95797 0
M  V30 1220 C 113.564 1.12424 1.73691 0
M  V30 1221 C 113.979 -0.322304 1.86029 0
M  V30 1222 O 113.336 -1.22186 1.35561 0
M  V30 1223 C 113.387 1.76933 3.15241 0
M  V30 1224 O 113.108 3.15932 3.03511 0
M  V30 1225 C 114.609 1.6995 4.09429 0
M  V30 1226 H 111.829 0.3923 0.544373 0
M  V30 1227 H 114.373 1.6544 1.20207 0
M  V30 1228 H 112.528 1.27895 3.6568 0
M  V30 1229 H 112.942 3.47598 3.9278 0
M  V30 1230 H 114.416 2.19753 5.06372 0
M  V30 1231 H 114.893 0.662619 4.34173 0
M  V30 1232 H 115.499 2.18461 3.64904 0
M  V30 1233 N 113.814 -1.1601 1.06675 0
M  V30 1234 C 115.225 -1.68235 0.809565 0
M  V30 1235 C 115.576 -1.8454 -0.666303 0
M  V30 1236 O 114.701 -1.54374 -1.5165 0
M  V30 1237 C 115.296 -3.05585 1.46299 0
M  V30 1238 C 113.855 -3.54915 1.25349 0
M  V30 1239 C 113.002 -2.30804 1.53703 0
M  V30 1240 H 115.953 -1.00318 1.22971 0
M  V30 1241 H 115.974 -3.70174 0.880431 0
M  V30 1242 H 115.486 -2.93686 2.53713 0
M  V30 1243 H 113.587 -3.72067 0.199261 0
M  V30 1244 H 113.7 -4.36774 1.9689 0
M  V30 1245 H 112.064 -2.36007 0.957739 0
M  V30 1246 H 112.847 -2.21499 2.62284 0
M  V30 1247 N 115.292 -0.849877 -1.32721 0
M  V30 1248 C 116.538 -0.451591 -1.97708 0
M  V30 1249 C 116.871 0.989175 -1.6712 0
M  V30 1250 O 116.146 1.69334 -0.956891 0
M  V30 1251 C 116.429 -0.685598 -3.53513 0
M  V30 1252 C 116.282 -2.17444 -3.93749 0
M  V30 1253 C 117.601 -0.138874 -4.39881 0
M  V30 1254 H 114.72 -0.16555 -0.718166 0
M  V30 1255 H 117.362 -1.06742 -1.57182 0
M  V30 1256 H 115.512 -0.161416 -3.88165 0
M  V30 1257 H 117.184 -2.76433 -3.693 0
M  V30 1258 H 115.427 -2.65476 -3.43081 0
M  V30 1259 H 116.098 -2.28888 -5.02309 0
M  V30 1260 H 118.574 -0.587068 -4.11938 0
M  V30 1261 H 117.45 -0.332213 -5.47894 0
M  V30 1262 H 117.711 0.95806 -4.31594 0
M  V30 1263 N 116.77 1.45427 -0.607355 0
M  V30 1264 C 117.998 2.06614 -0.108814 0
M  V30 1265 C 118.413 1.45204 1.2067 0
M  V30 1266 O 117.77 0.566132 1.73497 0
M  V30 1267 C 117.821 3.61481 0.0375347 0
M  V30 1268 O 117.542 4.20598 -1.22593 0
M  V30 1269 C 119.043 4.39652 0.567561 0
M  V30 1270 H 116.263 0.66747 -0.0687351 0
M  V30 1271 H 118.807 1.86675 -0.835022 0
M  V30 1272 H 116.962 3.80762 0.714068 0
M  V30 1273 H 117.376 5.1377 -1.05547 0
M  V30 1274 H 118.85 5.48518 0.61905 0
M  V30 1275 H 119.327 4.09417 1.58978 0
M  V30 1276 H 119.933 4.25234 -0.0749202 0
M  V30 1277 N 118.248 0.346503 1.53744 0
M  V30 1278 C 119.476 -0.25041 2.05379 0
M  V30 1279 C 119.891 -1.43979 1.22129 0
M  V30 1280 O 119.248 -1.80677 0.257321 0
M  V30 1281 C 119.299 -0.662575 3.55376 0
M  V30 1282 O 119.02 0.479515 4.35468 0
M  V30 1283 C 120.521 -1.31989 4.23195 0
M  V30 1284 H 117.741 -0.0478198 0.669294 0
M  V30 1285 H 120.285 0.499346 1.9831 0
M  V30 1286 H 118.44 -1.36227 3.62658 0
M  V30 1287 H 118.854 0.15037 5.24284 0
M  V30 1288 H 120.328 -1.55902 5.29527 0
M  V30 1289 H 120.805 -2.27436 3.75725 0
M  V30 1290 H 121.411 -0.662154 4.20114 0
M  V30 1291 N 119.726 -1.57421 0.075193 0
M  V30 1292 C 120.656 -2.15942 -0.888324 0
M  V30 1293 C 121.637 -1.08737 -1.30806 0
M  V30 1294 O 122.822 -1.36787 -1.37851 0
M  V30 1295 C 119.952 -2.72379 -2.1547 0
M  V30 1296 C 118.906 -3.8478 -1.87425 0
M  V30 1297 C 118.232 -4.27834 -3.20721 0
M  V30 1298 C 119.532 -5.08869 -1.17684 0
M  V30 1299 H 121.226 -2.96705 -0.400799 0
M  V30 1300 H 118.772 -1.42723 -0.191342 0
M  V30 1301 H 120.725 -3.11965 -2.83295 0
M  V30 1302 H 119.449 -1.88841 -2.6647 0
M  V30 1303 H 118.108 -3.45703 -1.22004 0
M  V30 1304 H 117.756 -3.41214 -3.6957 0
M  V30 1305 H 117.456 -5.03605 -3.02746 0
M  V30 1306 H 118.98 -4.70039 -3.89738 0
M  V30 1307 H 120.394 -5.4575 -1.75584 0
M  V30 1308 H 118.791 -5.8994 -1.09956 0
M  V30 1309 H 119.861 -4.84648 -0.156453 0
M  V30 1310 N 121.204 0.198386 -1.56346 0
M  V30 1311 C 122.45 0.916115 -1.81601 0
M  V30 1312 C 122.805 1.81025 -0.651744 0
M  V30 1313 O 122.098 1.88316 0.353229 0
M  V30 1314 C 122.292 1.77031 -3.10475 0
M  V30 1315 C 122.121 0.960365 -4.39326 0
M  V30 1316 C 120.891 0.646093 -5.01152 0
M  V30 1317 C 123.089 0.314628 -5.13337 0
M  V30 1318 N 121.071 -0.182828 -6.13628 0
M  V30 1319 C 122.442 -0.37664 -6.18855 0
M  V30 1320 C 124.497 0.230019 -4.97368 0
M  V30 1321 C 123.2 -1.14445 -7.10137 0
M  V30 1322 C 125.226 -0.524389 -5.89071 0
M  V30 1323 C 124.588 -1.20412 -6.94032 0
M  V30 1324 H 120.687 0.314732 -0.715868 0
M  V30 1325 H 123.271 0.185102 -1.93818 0
M  V30 1326 H 121.442 2.47295 -2.99499 0
M  V30 1327 H 123.174 2.42727 -3.2383 0
M  V30 1328 H 119.929 0.969724 -4.63566 0
M  V30 1329 H 120.353 -0.586802 -6.74452 0
M  V30 1330 H 124.995 0.741184 -4.16253 0
M  V30 1331 H 122.713 -1.66706 -7.90718 0
M  V30 1332 H 126.299 -0.591167 -5.78789 0
M  V30 1333 H 125.179 -1.77853 -7.63766 0
M  V30 1334 N 122.682 1.50554 0.465978 0
M  V30 1335 C 123.645 1.69233 1.54574 0
M  V30 1336 C 124.645 0.562901 1.50626 0
M  V30 1337 O 125.835 0.830016 1.53155 0
M  V30 1338 C 122.967 1.7223 2.94193 0
M  V30 1339 H 124.16 2.65571 1.39327 0
M  V30 1340 H 121.713 1.40111 0.692711 0
M  V30 1341 H 122.448 0.77603 3.14878 0
M  V30 1342 H 122.233 2.54285 2.98466 0
M  V30 1343 H 123.723 1.88618 3.72576 0
M  V30 1344 N 124.16 -0.719506 1.40217 0
M  V30 1345 C 125.108 -1.85493 1.40339 0
M  V30 1346 C 126.102 -1.66995 0.284415 0
M  V30 1347 O 127.308 -1.74148 0.455252 0
M  V30 1348 H 123.683 -0.610857 0.438586 0
M  V30 1349 H 125.654 -1.82506 2.36081 0
M  V30 1350 C 124.403 -3.23321 1.27901 0
M  V30 1351 H 123.726 -3.38159 2.1328 0
M  V30 1352 H 125.166 -4.02914 1.32045 0
M  V30 1353 C 123.625 -3.36898 -0.0111355 0
M  V30 1354 O 124.155 -3.89674 -0.975538 0
M  V30 1355 N 122.361 -2.90492 -0.0793393 0
M  V30 1356 H 121.908 -2.47731 0.706183 0
M  V30 1357 H 121.866 -2.99955 -0.942038 0
M  V30 1358 N 125.638 -1.25649 -0.95132 0
M  V30 1359 C 127.049 -1.09654 -1.51106 0
M  V30 1360 C 127.4 0.326615 -1.93462 0
M  V30 1361 O 126.525 1.21697 -1.78938 0
M  V30 1362 C 127.12 -1.98437 -2.74605 0
M  V30 1363 C 125.679 -1.86618 -3.2688 0
M  V30 1364 C 124.826 -1.9239 -1.99703 0
M  V30 1365 H 127.777 -1.38887 -0.767865 0
M  V30 1366 H 127.798 -1.5263 -3.48546 0
M  V30 1367 H 127.31 -3.02009 -2.43746 0
M  V30 1368 H 125.411 -0.859421 -3.62553 0
M  V30 1369 H 125.524 -2.71607 -3.94673 0
M  V30 1370 H 123.888 -1.36317 -2.15151 0
M  V30 1371 H 124.671 -2.97573 -1.71188 0
M  V30 1372 N 127.117 1.15442 -1.07289 0
M  V30 1373 C 128.064 2.20161 -0.692653 0
M  V30 1374 C 129.034 1.63073 0.31564 0
M  V30 1375 O 130.219 1.89725 0.202235 0
M  V30 1376 C 127.359 3.44967 -0.0959509 0
M  V30 1377 C 126.472 4.16256 -1.15564 0
M  V30 1378 C 125.607 5.28609 -0.524011 0
M  V30 1379 C 124.646 5.91715 -1.56653 0
M  V30 1380 N 123.783 6.9554 -0.957531 0
M  V30 1381 H 128.623 2.52037 -1.59002 0
M  V30 1382 H 126.16 1.2378 -0.794798 0
M  V30 1383 H 128.118 4.16341 0.267628 0
M  V30 1384 H 126.748 3.1361 0.764772 0
M  V30 1385 H 125.8 3.43385 -1.6368 0
M  V30 1386 H 127.112 4.59268 -1.94613 0
M  V30 1387 H 126.266 6.06604 -0.108032 0
M  V30 1388 H 125.005 4.86787 0.29825 0
M  V30 1389 H 124.01 5.12433 -1.9923 0
M  V30 1390 H 125.235 6.35614 -2.39107 0
M  V30 1391 H 123.181 6.55814 -0.156162 0
M  V30 1392 H 123.098 7.36977 -1.68526 0
M  V30 1393 H 124.366 7.77435 -0.567032 0
M  V30 1394 N 128.595 0.856903 1.32268 0
M  V30 1395 C 129.505 0.306131 2.32594 0
M  V30 1396 C 130.521 -0.577209 1.64147 0
M  V30 1397 O 131.697 -0.477043 1.95669 0
M  V30 1398 C 128.762 -0.494561 3.43154 0
M  V30 1399 C 127.823 0.415186 4.27288 0
M  V30 1400 C 127.056 -0.347387 5.32568 0
M  V30 1401 O 127.279 -1.57708 5.48165 0
M  V30 1402 O 126.213 0.287982 6.01211 0
M  V30 1403 H 130.039 1.13737 2.81598 0
M  V30 1404 H 127.624 0.619902 1.35932 0
M  V30 1405 H 129.506 -0.948944 4.10576 0
M  V30 1406 H 128.181 -1.30257 2.96336 0
M  V30 1407 H 127.088 0.917793 3.62667 0
M  V30 1408 H 128.421 1.18844 4.77637 0
M  V30 1409 N 130.073 -1.45103 0.615059 0
M  V30 1410 C 131.003 -2.33339 -0.0865619 0
M  V30 1411 C 131.984 -1.4727 -0.851209 0
M  V30 1412 O 133.169 -1.76026 -0.820281 0
M  V30 1413 C 130.299 -3.30095 -1.07956 0
M  V30 1414 C 129.253 -4.25858 -0.427628 0
M  V30 1415 C 128.579 -5.12361 -1.5294 0
M  V30 1416 C 129.879 -5.18165 0.655944 0
M  V30 1417 H 131.573 -2.92254 0.650224 0
M  V30 1418 H 129.119 -1.40532 0.314138 0
M  V30 1419 H 131.072 -3.90698 -1.57901 0
M  V30 1420 H 129.796 -2.69355 -1.84703 0
M  V30 1421 H 128.455 -3.66564 0.0510292 0
M  V30 1422 H 128.103 -4.47984 -2.28734 0
M  V30 1423 H 127.803 -5.77238 -1.09865 0
M  V30 1424 H 129.327 -5.75833 -2.03098 0
M  V30 1425 H 130.741 -5.72796 0.240257 0
M  V30 1426 H 129.138 -5.91559 1.00888 0
M  V30 1427 H 130.208 -4.60144 1.52957 0
M  V30 1428 N 131.551 -0.354651 -1.53558 0
M  V30 1429 C 132.484 0.540273 -2.21712 0
M  V30 1430 C 133.462 1.09161 -1.2051 0
M  V30 1431 O 134.646 1.14979 -1.49372 0
M  V30 1432 C 131.773 1.74435 -2.90328 0
M  V30 1433 C 130.819 1.32146 -4.05512 0
M  V30 1434 S 131.652 0.331924 -5.3447 0
M  V30 1435 C 132.808 1.54258 -6.06593 0
M  V30 1436 H 133.041 -0.0385776 -2.97275 0
M  V30 1437 H 130.574 -0.138736 -1.53775 0
M  V30 1438 H 132.532 2.43507 -3.30476 0
M  V30 1439 H 131.193 2.29444 -2.1451 0
M  V30 1440 H 130.386 2.21952 -4.52497 0
M  V30 1441 H 129.988 0.710091 -3.67197 0
M  V30 1442 H 132.28 2.47534 -6.30661 0
M  V30 1443 H 133.223 1.11431 -6.99277 0
M  V30 1444 H 133.631 1.74367 -5.36895 0
M  V30 1445 N 133.029 1.57378 -0.0835403 0
M  V30 1446 C 134.257 1.98263 0.59157 0
M  V30 1447 C 134.672 0.962302 1.62435 0
M  V30 1448 O 134.029 -0.049581 1.82433 0
M  V30 1449 C 134.08 3.39214 1.24965 0
M  V30 1450 O 133.801 4.37339 0.258186 0
M  V30 1451 C 135.302 3.95038 2.01147 0
M  V30 1452 H 132.522 0.651773 0.159477 0
M  V30 1453 H 135.066 2.03878 -0.159415 0
M  V30 1454 H 133.221 3.34649 1.95164 0
M  V30 1455 H 133.635 5.19371 0.731734 0
M  V30 1456 H 135.109 4.95848 2.42567 0
M  V30 1457 H 135.586 3.32222 2.87272 0
M  V30 1458 H 136.192 4.0304 1.35789 0
M  V30 1459 N 134.507 -0.190092 1.56449 0
M  V30 1460 C 135.47 -1.21925 1.9408 0
M  V30 1461 C 136.47 -1.38176 0.822431 0
M  V30 1462 O 137.66 -1.35903 1.08977 0
M  V30 1463 C 134.792 -2.58773 2.21922 0
M  V30 1464 H 135.985 -0.897464 2.86157 0
M  V30 1465 H 133.538 -0.43181 1.50217 0
M  V30 1466 H 134.273 -2.95998 1.32499 0
M  V30 1467 H 134.058 -2.48348 3.03424 0
M  V30 1468 H 135.548 -3.32978 2.52022 0
M  V30 1469 N 135.985 -1.50799 -0.457987 0
M  V30 1470 C 136.932 -1.70617 -1.5543 0
M  V30 1471 C 137.902 -0.547562 -1.56815 0
M  V30 1472 O 139.087 -0.779647 -1.74144 0
M  V30 1473 C 136.227 -1.81831 -2.93311 0
M  V30 1474 C 135.34 -3.09278 -3.01615 0
M  V30 1475 C 134.475 -3.11209 -4.30491 0
M  V30 1476 C 133.514 -4.33055 -4.32585 0
M  V30 1477 N 132.651 -4.32652 -5.52952 0
M  V30 1478 H 137.491 -2.64207 -1.37836 0
M  V30 1479 H 135.028 -1.30959 -0.669937 0
M  V30 1480 H 136.986 -1.86314 -3.73287 0
M  V30 1481 H 135.616 -0.916685 -3.0951 0
M  V30 1482 H 134.668 -3.14203 -2.1443 0
M  V30 1483 H 135.98 -3.99233 -2.99022 0
M  V30 1484 H 135.134 -3.14494 -5.18824 0
M  V30 1485 H 133.873 -2.19106 -4.35711 0
M  V30 1486 H 132.878 -4.29969 -3.42647 0
M  V30 1487 H 134.103 -5.264 -4.29046 0
M  V30 1488 H 132.049 -3.43409 -5.58933 0
M  V30 1489 H 131.966 -5.16392 -5.52155 0
M  V30 1490 H 133.234 -4.40101 -6.43375 0
M  V30 1491 N 137.463 0.71206 -1.40597 0
M  V30 1492 C 138.373 1.8562 -1.43466 0
M  V30 1493 C 139.389 1.70902 -0.326902 0
M  V30 1494 O 140.565 1.93105 -0.572043 0
M  V30 1495 C 137.63 3.21451 -1.29884 0
M  V30 1496 C 136.691 3.48398 -2.50833 0
M  V30 1497 C 135.924 4.77749 -2.3789 0
M  V30 1498 O 136.147 5.53089 -1.39459 0
M  V30 1499 O 135.081 5.05111 -3.27333 0
M  V30 1500 H 138.907 1.86155 -2.39958 0
M  V30 1501 H 136.492 0.86295 -1.21957 0
M  V30 1502 H 138.374 4.02579 -1.24531 0
M  V30 1503 H 137.049 3.21636 -0.364997 0
M  V30 1504 H 135.956 2.67265 -2.61763 0
M  V30 1505 H 137.289 3.53014 -3.4299 0
M  V30 1506 N 138.941 1.26152 0.944643 0
M  V30 1507 C 140.357 1.03189 1.21754 0
M  V30 1508 C 140.557 -0.245112 2.00004 0
M  V30 1509 O 139.613 -0.955176 2.33736 0
M  V30 1510 C 140.926 2.26119 1.98219 0
M  V30 1511 C 142.474 2.30984 2.11224 0
M  V30 1512 C 142.949 3.53597 2.91089 0
M  V30 1513 N 144.44 3.54053 2.98664 0
M  V30 1514 C 145.175 4.45593 3.60881 0
M  V30 1515 N 144.671 5.47416 4.24626 0
M  V30 1516 N 146.464 4.33252 3.58119 0
M  V30 1517 H 138.615 2.08177 0.421437 0
M  V30 1518 H 140.878 0.914723 0.248969 0
M  V30 1519 H 140.584 3.18984 1.48128 0
M  V30 1520 H 140.458 2.3009 2.98895 0
M  V30 1521 H 142.845 1.38635 2.60508 0
M  V30 1522 H 142.926 2.31026 1.09821 0
M  V30 1523 H 142.57 4.46273 2.42493 0
M  V30 1524 H 142.5 3.50802 3.92741 0
M  V30 1525 H 144.991 2.80403 2.53343 0
M  V30 1526 H 145.304 6.13459 4.69987 0
M  V30 1527 H 143.649 5.51278 4.23223 0
M  V30 1528 H 146.84 3.52924 3.0751 0
M  V30 1529 H 147.013 5.04786 4.06319 0
M  V30 1530 N 140.419 -1.14872 1.07899 0
M  V30 1531 C 141.665 -1.86289 0.81657 0
M  V30 1532 C 142.02 -1.8107 -0.65049 0
M  V30 1533 O 141.313 -1.22684 -1.47171 0
M  V30 1534 C 141.507 -3.34223 1.26609 0
M  V30 1535 C 141.336 -3.53846 2.77531 0
M  V30 1536 C 140.106 -3.68995 3.45212 0
M  V30 1537 C 142.304 -3.51201 3.75716 0
M  V30 1538 N 140.286 -3.76725 4.84718 0
M  V30 1539 C 141.657 -3.65112 5.01092 0
M  V30 1540 C 143.712 -3.34507 3.68794 0
M  V30 1541 C 142.415 -3.64056 6.20368 0
M  V30 1542 C 144.441 -3.34752 4.8754 0
M  V30 1543 C 143.803 -3.49199 6.11751 0
M  V30 1544 H 139.902 -0.698579 0.351443 0
M  V30 1545 H 142.486 -1.37713 1.37634 0
M  V30 1546 H 140.657 -3.81402 0.73395 0
M  V30 1547 H 142.389 -3.93377 0.95062 0
M  V30 1548 H 139.144 -3.70006 2.95622 0
M  V30 1549 H 139.568 -3.8432 5.5734 0
M  V30 1550 H 144.21 -3.22253 2.73702 0
M  V30 1551 H 141.928 -3.75087 7.15776 0
M  V30 1552 H 145.514 -3.23055 4.83866 0
M  V30 1553 H 144.394 -3.49328 7.02097 0
M  V30 1554 N 141.898 -0.863906 -1.31812 0
M  V30 1555 C 143.309 -0.52522 -1.7916 0
M  V30 1556 C 143.66 0.957518 -1.71248 0
M  V30 1557 O 142.785 1.74734 -1.27659 0
M  V30 1558 C 143.38 -0.9466 -3.25307 0
M  V30 1559 C 141.939 -0.659668 -3.70574 0
M  V30 1560 C 141.086 -1.14126 -2.52726 0
M  V30 1561 H 144.037 -1.05022 -1.1898 0
M  V30 1562 H 144.058 -0.266766 -3.79564 0
M  V30 1563 H 143.57 -2.02579 -3.31034 0
M  V30 1564 H 141.671 0.408416 -3.70355 0
M  V30 1565 H 141.784 -1.23245 -4.62977 0
M  V30 1566 H 140.148 -0.561216 -2.4844 0
M  V30 1567 H 140.931 -2.22775 -2.61201 0
M  V30 1568 N 143.376 1.44774 -0.622745 0
M  V30 1569 C 144.308 2.28856 0.125485 0
M  V30 1570 C 145.321 1.40811 0.817069 0
M  V30 1571 O 146.51 1.65044 0.679918 0
M  V30 1572 C 143.61 3.16963 1.19949 0
M  V30 1573 C 142.783 4.33374 0.592064 0
M  V30 1574 C 141.842 5.02577 1.55893 0
M  V30 1575 O 140.868 5.58873 1.07933 0
M  V30 1576 N 142.07 5.03256 2.89334 0
M  V30 1577 H 144.835 2.93713 -0.596068 0
M  V30 1578 H 142.396 1.55129 -0.463303 0
M  V30 1579 H 144.388 3.60123 1.84644 0
M  V30 1580 H 142.958 2.53913 1.82337 0
M  V30 1581 H 142.178 3.93509 -0.233322 0
M  V30 1582 H 143.466 5.08527 0.166738 0
M  V30 1583 H 142.864 4.58836 3.30887 0
M  V30 1584 H 141.421 5.50232 3.49412 0
M  V30 1585 N 144.854 0.36279 1.53368 0
M  V30 1586 C 145.784 -0.476976 2.28576 0
M  V30 1587 C 146.765 -1.08631 1.30894 0
M  V30 1588 O 147.95 -1.10409 1.59761 0
M  V30 1589 C 145.08 -1.61828 3.07293 0
M  V30 1590 C 144.034 -1.13633 4.1264 0
M  V30 1591 C 143.36 -2.36766 4.79423 0
M  V30 1592 C 144.66 -0.223061 5.21823 0
M  V30 1593 H 146.354 0.150474 2.99022 0
M  V30 1594 H 143.9 0.0738103 1.43811 0
M  V30 1595 H 145.853 -2.21237 3.58653 0
M  V30 1596 H 144.577 -2.27292 2.34533 0
M  V30 1597 H 143.236 -0.564945 3.62221 0
M  V30 1598 H 142.884 -3.0068 4.03238 0
M  V30 1599 H 142.584 -2.05192 5.50609 0
M  V30 1600 H 144.108 -2.96865 5.33576 0
M  V30 1601 H 145.522 -0.724545 5.68703 0
M  V30 1602 H 143.919 0.001678 6.001 0
M  V30 1603 H 144.989 0.735553 4.79289 0
M  V30 1604 N 146.332 -1.57332 0.0918853 0
M  V30 1605 C 147.295 -2.12708 -0.85369 0
M  V30 1606 C 148.295 -1.05561 -1.213 0
M  V30 1607 O 149.485 -1.31461 -1.14296 0
M  V30 1608 C 146.617 -2.64503 -2.15061 0
M  V30 1609 H 147.81 -2.97573 -0.3729 0
M  V30 1610 H 145.363 -1.55509 -0.157072 0
M  V30 1611 H 146.098 -1.83149 -2.67632 0
M  V30 1612 H 145.883 -3.4284 -1.90272 0
M  V30 1613 H 147.373 -3.07351 -2.82711 0
M  V30 1614 N 147.81 0.181792 -1.56548 0
M  V30 1615 C 148.773 1.20894 -1.94724 0
M  V30 1616 C 149.773 1.37738 -0.829747 0
M  V30 1617 O 150.963 1.35323 -1.09697 0
M  V30 1618 C 148.095 2.57593 -2.23291 0
M  V30 1619 H 149.288 0.882275 -2.86629 0
M  V30 1620 H 146.841 0.423838 -1.50444 0
M  V30 1621 H 147.576 2.95291 -1.34067 0
M  V30 1622 H 147.361 2.46735 -3.04736 0
M  V30 1623 H 148.851 3.31637 -2.53785 0
M  V30 1624 N 149.288 1.51039 0.449983 0
M  V30 1625 C 150.251 1.70863 1.5277 0
M  V30 1626 C 151.251 0.578846 1.5002 0
M  V30 1627 O 152.441 0.846213 1.52266 0
M  V30 1628 C 149.573 1.75341 2.9235 0
M  V30 1629 H 150.766 2.67034 1.36502 0
M  V30 1630 H 148.319 1.40838 0.677812 0
M  V30 1631 H 149.054 0.809383 3.14037 0
M  V30 1632 H 148.839 2.57436 2.95752 0
M  V30 1633 H 150.329 1.92559 3.70555 0
M  V30 1634 N 150.766 -0.704594 1.40972 0
M  V30 1635 C 151.696 -1.83124 1.44872 0
M  V30 1636 C 152.677 -1.67281 0.30838 0
M  V30 1637 O 153.862 -1.87149 0.518556 0
M  V30 1638 C 150.992 -3.21181 1.32136 0
M  V30 1639 C 149.946 -3.51714 2.43888 0
M  V30 1640 C 149.272 -4.89032 2.16222 0
M  V30 1641 C 150.572 -3.516 3.86232 0
M  V30 1642 H 152.266 -1.80117 2.39161 0
M  V30 1643 H 149.812 -0.865145 1.15114 0
M  V30 1644 H 151.765 -3.99702 1.33479 0
M  V30 1645 H 150.489 -3.24791 0.343279 0
M  V30 1646 H 149.148 -2.75539 2.41813 0
M  V30 1647 H 148.796 -4.89256 1.16778 0
M  V30 1648 H 148.496 -5.10426 2.911 0
M  V30 1649 H 150.02 -5.69873 2.19265 0
M  V30 1650 H 151.434 -4.2014 3.9007 0
M  V30 1651 H 149.831 -3.84523 4.60719 0
M  V30 1652 H 150.901 -2.50757 4.15029 0
M  V30 1653 N 152.244 -1.26651 -0.937939 0
M  V30 1654 C 153.492 -1.12165 -1.68118 0
M  V30 1655 C 153.813 0.334983 -1.92101 0
M  V30 1656 O 153.083 1.23583 -1.52 0
M  V30 1657 H 151.663 -0.412093 -0.623048 0
M  V30 1658 H 154.325 -1.59027 -1.12678 0
M  V30 1659 H 153.421 -1.64289 -2.6536 0
M  V30 1660 N 153.722 1.14298 -1.08507 0
M  V30 1661 C 154.654 2.1907 -0.673859 0
M  V30 1662 C 155.667 1.60381 0.279577 0
M  V30 1663 O 156.856 1.78374 0.0670754 0
M  V30 1664 C 153.956 3.38888 0.0290979 0
M  V30 1665 C 153.129 4.27103 -0.943494 0
M  V30 1666 C 152.188 5.25477 -0.275676 0
M  V30 1667 O 151.214 5.61709 -0.920401 0
M  V30 1668 N 152.416 5.7227 0.974013 0
M  V30 1669 H 155.181 2.54965 -1.57521 0
M  V30 1670 H 152.742 1.29528 -0.971287 0
M  V30 1671 H 154.734 4.01761 0.48683 0
M  V30 1672 H 153.304 3.01309 0.832555 0
M  V30 1673 H 152.524 3.61149 -1.58004 0
M  V30 1674 H 153.812 4.82905 -1.60251 0
M  V30 1675 H 153.21 5.44965 1.51755 0
M  V30 1676 H 151.767 6.37127 1.37522 0
M  V30 1677 N 155.201 0.870884 1.31352 0
M  V30 1678 C 156.478 0.402907 1.91405 0
M  V30 1679 C 156.858 -1.11512 1.79244 0
M  V30 1680 O 156.206 -1.94411 1.2007 0
M  V30 1681 C 156.416 0.885301 3.37585 0
M  V30 1682 C 157.764 0.911971 4.14691 0
M  V30 1683 O 158.788 0.831016 3.46371 0
M  V30 1684 O 157.647 1.02927 5.3672 0
M  V30 1685 H 154.741 0.120698 0.818145 0
M  V30 1686 H 157.287 0.958857 1.40014 0
M  V30 1687 H 156.059 1.92889 3.40455 0
M  V30 1688 H 155.682 0.307714 3.96407 0
M  V30 1689 N 156.679 -1.44442 0.630414 0
M  V30 1690 C 157.907 -2.06414 0.141671 0
M  V30 1691 C 158.322 -1.47105 -1.18345 0
M  V30 1692 O 157.679 -0.593662 -1.72574 0
M  V30 1693 C 157.73 -3.61494 0.0199784 0
M  V30 1694 O 157.451 -4.18594 1.29269 0
M  V30 1695 C 158.952 -4.40499 -0.497544 0
M  V30 1696 H 156.172 -0.666292 0.0793452 0
M  V30 1697 H 158.716 -1.85323 0.864614 0
M  V30 1698 H 156.871 -3.8185 -0.653402 0
M  V30 1699 H 157.285 -5.12026 1.13707 0
M  V30 1700 H 158.759 -5.49433 -0.531708 0
M  V30 1701 H 159.236 -4.11895 -1.52445 0
M  V30 1702 H 159.842 -4.25061 0.142562 0
M  V30 1703 N 158.157 -0.370918 -1.53173 0
M  V30 1704 C 159.104 0.473035 -2.259 0
M  V30 1705 C 160.074 1.07311 -1.26781 0
M  V30 1706 O 161.259 1.1046 -1.55574 0
M  V30 1707 C 158.399 1.60405 -3.05556 0
M  V30 1708 C 157.512 1.02863 -4.19575 0
M  V30 1709 C 156.647 2.12918 -4.86661 0
M  V30 1710 C 155.686 1.52869 -5.92704 0
M  V30 1711 N 154.823 2.56779 -6.53459 0
M  V30 1712 H 159.663 -0.153649 -2.97604 0
M  V30 1713 H 157.2 -0.0875946 -1.46839 0
M  V30 1714 H 159.158 2.27034 -3.50016 0
M  V30 1715 H 157.788 2.20131 -2.36097 0
M  V30 1716 H 156.84 0.252465 -3.79561 0
M  V30 1717 H 158.152 0.549642 -4.95762 0
M  V30 1718 H 157.306 2.87356 -5.34333 0
M  V30 1719 H 156.045 2.6417 -4.09958 0
M  V30 1720 H 155.05 0.769479 -5.44389 0
M  V30 1721 H 156.275 1.02435 -6.7133 0
M  V30 1722 H 154.221 3.07235 -5.79606 0
M  V30 1723 H 154.138 2.13583 -7.25202 0
M  V30 1724 H 155.406 3.30903 -7.05779 0
M  V30 1725 N 159.635 1.57281 -0.100228 0
M  V30 1726 C 160.565 2.17328 0.853857 0
M  V30 1727 C 161.546 1.10804 1.2906 0
M  V30 1728 O 162.731 1.38963 1.35657 0
M  V30 1729 C 159.861 2.75772 2.11109 0
M  V30 1730 C 158.815 3.87713 1.81279 0
M  V30 1731 C 158.141 4.32882 3.13874 0
M  V30 1732 C 159.441 5.10677 1.09574 0
M  V30 1733 H 161.135 2.97305 0.353545 0
M  V30 1734 H 158.681 1.43009 0.168612 0
M  V30 1735 H 160.634 3.16433 2.78296 0
M  V30 1736 H 159.358 1.93057 2.63432 0
M  V30 1737 H 158.017 3.476 1.16489 0
M  V30 1738 H 157.665 3.47051 3.64095 0
M  V30 1739 H 157.365 5.08358 2.94696 0
M  V30 1740 H 158.889 4.7618 3.82211 0
M  V30 1741 H 160.303 5.48474 1.66879 0
M  V30 1742 H 158.7 5.91615 1.00557 0
M  V30 1743 H 159.77 4.84835 0.0793299 0
M  V30 1744 N 161.113 -0.173488 1.56642 0
M  V30 1745 C 162.36 -0.890465 1.81871 0
M  V30 1746 C 162.688 -1.82339 0.67696 0
M  V30 1747 O 161.943 -1.92795 -0.335926 0
M  V30 1748 C 162.242 -1.72069 3.13252 0
M  V30 1749 C 161.908 -0.936878 4.41059 0
M  V30 1750 C 160.57 -0.720545 4.75775 0
M  V30 1751 C 162.922 -0.386919 5.19762 0
M  V30 1752 C 160.25 0.0568829 5.86672 0
M  V30 1753 C 162.602 0.37741 6.31473 0
M  V30 1754 C 161.266 0.604563 6.64757 0
M  V30 1755 H 160.536 -0.325844 0.665512 0
M  V30 1756 H 163.183 -0.155527 1.90867 0
M  V30 1757 H 161.488 -2.52496 2.99588 0
M  V30 1758 H 163.185 -2.27844 3.29982 0
M  V30 1759 H 159.775 -1.11553 4.13828 0
M  V30 1760 H 163.959 -0.541398 4.93338 0
M  V30 1761 H 159.215 0.242635 6.10918 0
M  V30 1762 H 163.389 0.810825 6.91664 0
M  V30 1763 H 161.016 1.20885 7.50527 0
M  V30 1764 N 162.591 -1.51276 -0.441967 0
M  V30 1765 C 163.554 -1.7167 -1.51862 0
M  V30 1766 C 164.554 -0.586793 -1.49711 0
M  V30 1767 O 165.744 -0.854276 -1.51815 0
M  V30 1768 C 162.876 -1.76889 -2.91416 0
M  V30 1769 H 164.069 -2.67754 -1.35084 0
M  V30 1770 H 161.622 -1.41196 -0.670333 0
M  V30 1771 H 162.357 -0.826026 -3.13604 0
M  V30 1772 H 162.142 -2.59001 -2.94382 0
M  V30 1773 H 163.632 -1.94522 -3.69528 0
M  V30 1774 N 164.069 0.697108 -1.41344 0
M  V30 1775 C 165.346 1.45154 -1.31109 0
M  V30 1776 C 165.726 2.11009 0.0620449 0
M  V30 1777 O 165.074 2.01571 1.07618 0
M  V30 1778 C 165.284 2.47223 -2.46337 0
M  V30 1779 C 166.632 3.1252 -2.87431 0
M  V30 1780 O 167.656 2.57547 -2.46065 0
M  V30 1781 O 166.515 4.12083 -3.58957 0
M  V30 1782 H 163.609 0.646365 -0.515889 0
M  V30 1783 H 166.155 0.727716 -1.53305 0
M  V30 1784 H 164.927 1.97204 -3.37974 0
M  V30 1785 H 164.55 3.27116 -2.2601 0
M  V30 1786 N 165.547 1.27147 0.931209 0
M  V30 1787 C 166.963 1.04475 1.20653 0
M  V30 1788 C 167.163 -0.223885 2.00252 0
M  V30 1789 O 166.219 -0.930332 2.34736 0
M  V30 1790 C 167.532 2.28209 1.95809 0
M  V30 1791 C 169.08 2.33211 2.08762 0
M  V30 1792 C 169.555 3.56665 2.87323 0
M  V30 1793 N 171.046 3.57201 2.94892 0
M  V30 1794 C 171.781 4.49395 3.56134 0
M  V30 1795 N 171.277 5.51889 4.18796 0
M  V30 1796 N 173.07 4.37026 3.53504 0
M  V30 1797 H 165.221 2.08612 0.399333 0
M  V30 1798 H 167.484 0.917312 0.239253 0
M  V30 1799 H 167.19 3.20538 1.44736 0
M  V30 1800 H 167.064 2.33247 2.96438 0
M  V30 1801 H 169.451 1.41391 2.59023 0
M  V30 1802 H 169.532 2.32178 1.07364 0
M  V30 1803 H 169.176 4.4882 2.37746 0
M  V30 1804 H 169.106 3.54948 3.88998 0
M  V30 1805 H 171.597 2.83074 2.50354 0
M  V30 1806 H 171.91 6.18409 4.63454 0
M  V30 1807 H 170.255 5.55735 4.17353 0
M  V30 1808 H 173.446 3.56166 3.03749 0
M  V30 1809 H 173.619 5.09067 4.00942 0
M  V30 1810 N 167.025 -1.13721 1.09112 0
M  V30 1811 C 168.274 -1.84275 0.82009 0
M  V30 1812 C 168.587 -1.84253 -0.656509 0
M  V30 1813 O 169.793 -2.50668 -1.04296 0
M  V30 1814 C 168.249 -3.30825 1.41714 0
M  V30 1815 C 167.857 -3.39244 2.92605 0
M  V30 1816 C 169.601 -4.06443 1.22492 0
M  V30 1817 C 167.508 -4.80047 3.45411 0
M  V30 1818 H 166.438 -0.690387 0.30312 0
M  V30 1819 H 169.089 -1.28146 1.31343 0
M  V30 1820 H 167.471 -3.86737 0.851498 0
M  V30 1821 H 168.645 -2.93344 3.55367 0
M  V30 1822 H 166.96 -2.77088 3.10823 0
M  V30 1823 H 169.557 -5.10387 1.59402 0
M  V30 1824 H 169.9 -4.15972 0.165299 0
M  V30 1825 H 170.433 -3.56852 1.75788 0
M  V30 1826 H 167.172 -4.75709 4.50978 0
M  V30 1827 H 166.692 -5.26455 2.87411 0
M  V30 1828 H 168.371 -5.48957 3.42425 0
M  V30 1829 N 168.503 -0.877838 -1.30888 0
M  V30 1830 C 169.413 -0.343096 -2.32078 0
M  V30 1831 C 170.429 0.551022 -1.65045 0
M  V30 1832 O 171.605 0.445854 -1.96403 0
M  V30 1833 C 168.67 0.439905 -3.43898 0
M  V30 1834 C 167.731 -0.483111 -4.26573 0
M  V30 1835 C 166.964 0.262616 -5.33053 0
M  V30 1836 O 167.187 1.48967 -5.50604 0
M  V30 1837 O 166.121 -0.383593 -6.00676 0
M  V30 1838 H 169.947 -1.18203 -2.79753 0
M  V30 1839 H 167.532 -0.64145 -1.34929 0
M  V30 1840 H 169.414 0.883504 -4.12034 0
M  V30 1841 H 168.089 1.25526 -2.98371 0
M  V30 1842 H 166.996 -0.975374 -3.61161 0
M  V30 1843 H 168.329 -1.26427 -4.75686 0
M  V30 1844 N 169.982 1.44106 -0.638065 0
M  V30 1845 C 170.914 2.28976 0.101205 0
M  V30 1846 C 171.927 1.4167 0.802088 0
M  V30 1847 O 173.116 1.65755 0.662375 0
M  V30 1848 C 170.216 3.18217 1.16581 0
M  V30 1849 C 169.389 4.33978 0.546066 0
M  V30 1850 C 168.448 5.04202 1.50554 0
M  V30 1851 O 167.474 5.59986 1.01999 0
M  V30 1852 N 168.676 5.06296 2.8398 0
M  V30 1853 H 171.441 2.93064 -0.627186 0
M  V30 1854 H 169.002 1.54629 -0.479731 0
M  V30 1855 H 170.994 3.62061 1.80815 0
M  V30 1856 H 169.564 2.55833 1.79634 0
M  V30 1857 H 168.784 3.93239 -0.275046 0
M  V30 1858 H 170.072 5.08675 0.112793 0
M  V30 1859 H 169.47 4.62319 3.26002 0
M  V30 1860 H 168.027 5.53907 3.43556 0
M  V30 1861 N 171.46 0.379036 1.52974 0
M  V30 1862 C 172.408 -0.476033 2.27677 0
M  V30 1863 C 173.402 -1.0719 1.31174 0
M  V30 1864 O 174.608 -1.01355 1.48752 0
M  V30 1865 H 170.983 -0.172255 0.732006 0
M  V30 1866 H 172.954 0.175615 2.97883 0
M  V30 1867 C 171.703 -1.5967 3.0887 0
M  V30 1868 H 171.026 -1.1475 3.82978 0
M  V30 1869 H 172.466 -2.16943 3.64296 0
M  V30 1870 C 170.925 -2.54682 2.20542 0
M  V30 1871 O 171.455 -3.57836 1.82527 0
M  V30 1872 N 169.661 -2.24183 1.84907 0
M  V30 1873 H 169.208 -1.40333 2.1602 0
M  V30 1874 H 169.166 -2.88006 1.26096 0
M  V30 1875 N 172.938 -1.57226 0.108567 0
M  V30 1876 C 173.901 -2.13602 -0.831082 0
M  V30 1877 C 174.901 -1.06841 -1.20173 0
M  V30 1878 O 176.091 -1.32666 -1.12895 0
M  V30 1879 C 173.223 -2.66769 -2.12243 0
M  V30 1880 H 174.416 -2.97951 -0.341317 0
M  V30 1881 H 171.969 -1.55667 -0.14057 0
M  V30 1882 H 172.704 -1.85977 -2.65675 0
M  V30 1883 H 172.489 -3.44839 -1.86625 0
M  V30 1884 H 173.979 -3.10332 -2.79435 0
M  V30 1885 N 174.416 0.165178 -1.56732 0
M  V30 1886 C 175.326 1.22423 -2.00125 0
M  V30 1887 C 176.342 1.48084 -0.913619 0
M  V30 1888 O 177.518 1.60112 -1.22172 0
M  V30 1889 C 174.583 2.54197 -2.35764 0
M  V30 1890 C 173.644 2.36343 -3.58386 0
M  V30 1891 C 172.877 3.61834 -3.92316 0
M  V30 1892 O 173.1 4.67267 -3.27135 0
M  V30 1893 O 172.034 3.55579 -4.85641 0
M  V30 1894 H 175.86 0.885886 -2.90492 0
M  V30 1895 H 173.445 0.372518 -1.44681 0
M  V30 1896 H 175.327 3.3192 -2.59629 0
M  V30 1897 H 174.002 2.87598 -1.48557 0
M  V30 1898 H 172.909 1.56632 -3.39731 0
M  V30 1899 H 174.242 2.07865 -4.46154 0
M  V30 1900 N 175.894 1.51508 0.433938 0
M  V30 1901 C 177.31 1.39759 0.770682 0
M  V30 1902 C 177.51 0.482594 1.95636 0
M  V30 1903 O 176.566 -0.0609691 2.52426 0
M  V30 1904 C 177.879 2.81851 1.04787 0
M  V30 1905 C 179.427 2.91025 1.1521 0
M  V30 1906 C 179.902 4.34032 1.46219 0
M  V30 1907 N 181.393 4.37154 1.53136 0
M  V30 1908 C 182.128 5.4484 1.78709 0
M  V30 1909 N 181.624 6.62682 2.02051 0
M  V30 1910 N 183.417 5.32324 1.80519 0
M  V30 1911 H 175.568 2.09548 -0.346892 0
M  V30 1912 H 177.831 0.943446 -0.0928074 0
M  V30 1913 H 177.537 3.50815 0.249304 0
M  V30 1914 H 177.411 3.21386 1.97461 0
M  V30 1915 H 179.798 2.22257 1.94128 0
M  V30 1916 H 179.879 2.54983 0.204281 0
M  V30 1917 H 179.523 5.03351 0.678274 0
M  V30 1918 H 179.453 4.6759 2.42212 0
M  V30 1919 H 181.944 3.52197 1.36987 0
M  V30 1920 H 182.257 7.40543 2.20943 0
M  V30 1921 H 180.602 6.65791 1.99366 0
M  V30 1922 H 183.793 4.39246 1.61805 0
M  V30 1923 H 183.966 6.16328 2.00111 0
M  V30 1924 N 177.372 -0.689602 1.41712 0
M  V30 1925 C 178.282 -1.83314 1.46401 0
M  V30 1926 C 179.298 -1.7036 0.35405 0
M  V30 1927 O 180.474 -1.92171 0.602692 0
M  V30 1928 C 177.539 -3.19344 1.34982 0
M  V30 1929 C 176.6 -3.44363 2.56344 0
M  V30 1930 C 175.833 -4.73904 2.45461 0
M  V30 1931 O 176.056 -5.508 1.48241 0
M  V30 1932 O 174.99 -4.99839 3.35328 0
M  V30 1933 H 178.816 -1.82314 2.42889 0
M  V30 1934 H 176.401 -0.843438 1.23315 0
M  V30 1935 H 178.283 -4.00547 1.3092 0
M  V30 1936 H 176.958 -3.21014 0.41612 0
M  V30 1937 H 175.865 -2.63067 2.65982 0
M  V30 1938 H 177.198 -3.47512 3.48563 0
M  V30 1939 N 178.85 -1.27639 -0.924453 0
M  V30 1940 C 180.097 -1.14167 -1.67249 0
M  V30 1941 C 180.425 0.311863 -1.91984 0
M  V30 1942 O 179.68 1.24425 -1.51053 0
M  V30 1943 C 179.979 -1.87407 -3.04325 0
M  V30 1944 C 179.645 -3.37249 -2.99289 0
M  V30 1945 C 178.307 -3.7812 -2.97622 0
M  V30 1946 C 180.659 -4.32845 -2.90336 0
M  V30 1947 C 177.987 -5.12944 -2.8479 0
M  V30 1948 C 180.339 -5.6773 -2.79045 0
M  V30 1949 C 179.003 -6.07889 -2.7573 0
M  V30 1950 H 178.273 -0.417766 -0.612007 0
M  V30 1951 H 180.92 -1.58286 -1.07786 0
M  V30 1952 H 179.225 -1.35805 -3.67511 0
M  V30 1953 H 180.922 -1.74408 -3.61086 0
M  V30 1954 H 177.512 -3.04748 -3.01374 0
M  V30 1955 H 181.696 -4.02239 -2.90719 0
M  V30 1956 H 176.952 -5.432 -2.80612 0
M  V30 1957 H 181.126 -6.41472 -2.71083 0
M  V30 1958 H 178.753 -7.12314 -2.65544 0
M  V30 1959 N 180.328 1.1314 -1.09713 0
M  V30 1960 C 181.577 1.83838 -0.829851 0
M  V30 1961 C 181.89 1.84599 0.646728 0
M  V30 1962 O 183.096 2.51218 1.02965 0
M  V30 1963 C 181.552 3.30069 -1.43466 0
M  V30 1964 C 181.16 3.37688 -2.94399 0
M  V30 1965 C 182.904 4.05788 -1.24645 0
M  V30 1966 C 180.811 4.78209 -3.47952 0
M  V30 1967 H 179.741 0.68877 -0.306777 0
M  V30 1968 H 182.392 1.27448 -1.3202 0
M  V30 1969 H 180.774 3.8628 -0.871996 0
M  V30 1970 H 181.948 2.91456 -3.56918 0
M  V30 1971 H 180.263 2.75436 -3.12289 0
M  V30 1972 H 182.86 5.09535 -1.62107 0
M  V30 1973 H 183.203 4.15878 -0.187357 0
M  V30 1974 H 183.736 3.55915 -1.77678 0
M  V30 1975 H 180.475 4.73311 -4.53495 0
M  V30 1976 H 179.995 5.24924 -2.90198 0
M  V30 1977 H 181.674 5.47133 -3.45332 0
M  V30 1978 N 181.806 0.884767 1.30421 0
M  V30 1979 C 183.036 0.517293 2.00019 0
M  V30 1980 C 183.444 -0.898632 1.66497 0
M  V30 1981 O 182.787 -1.60245 0.898181 0
M  V30 1982 C 182.849 0.612025 3.54252 0
M  V30 1983 C 182.513 1.99222 4.1129 0
M  V30 1984 C 183.51 2.9616 4.273 0
M  V30 1985 C 181.195 2.29755 4.46674 0
M  V30 1986 C 183.189 4.21764 4.77906 0
M  V30 1987 C 180.876 3.55606 4.96979 0
M  V30 1988 C 181.874 4.51425 5.12547 0
M  V30 1989 O 181.562 5.75043 5.61766 0
M  V30 1990 H 181.294 0.198529 0.64619 0
M  V30 1991 H 183.848 1.1919 1.67281 0
M  V30 1992 H 182.078 -0.119561 3.86515 0
M  V30 1993 H 183.767 0.255859 4.05093 0
M  V30 1994 H 184.533 2.73882 4.00267 0
M  V30 1995 H 180.412 1.55942 4.33824 0
M  V30 1996 H 183.956 4.96561 4.89972 0
M  V30 1997 H 179.853 3.7772 5.23448 0
M  V30 1998 H 180.621 5.77422 5.80109 0
M  V30 1999 N 183.284 -1.43765 0.645699 0
M  V30 2000 C 184.214 -2.33471 -0.0370477 0
M  V30 2001 C 185.195 -1.49042 -0.819779 0
M  V30 2002 O 186.38 -1.77726 -0.782758 0
M  V30 2003 C 183.51 -3.32311 -1.0093 0
M  V30 2004 C 182.464 -4.2667 -0.337201 0
M  V30 2005 C 181.79 -5.1549 -1.42037 0
M  V30 2006 C 183.09 -5.16657 0.765706 0
M  V30 2007 H 184.784 -2.90809 0.712069 0
M  V30 2008 H 182.33 -1.39834 0.343876 0
M  V30 2009 H 184.283 -3.9396 -1.49578 0
M  V30 2010 H 183.007 -2.73213 -1.78948 0
M  V30 2011 H 181.666 -3.66374 0.128771 0
M  V30 2012 H 181.314 -4.52735 -2.1918 0
M  V30 2013 H 181.014 -5.79438 -0.975966 0
M  V30 2014 H 182.538 -5.80012 -1.90838 0
M  V30 2015 H 183.952 -5.72158 0.361702 0
M  V30 2016 H 182.349 -5.89286 1.13413 0
M  V30 2017 H 183.419 -4.56796 1.62683 0
M  V30 2018 N 184.763 -0.387143 -1.52771 0
M  V30 2019 C 186.009 0.196025 -2.0185 0
M  V30 2020 C 186.342 1.46641 -1.27319 0
M  V30 2021 O 185.617 1.90889 -0.373032 0
M  V30 2022 C 185.9 0.466136 -3.5707 0
M  V30 2023 C 185.753 -0.819385 -4.42274 0
M  V30 2024 C 187.072 1.25768 -4.21747 0
M  V30 2025 H 184.191 0.0697708 -0.73369 0
M  V30 2026 H 186.833 -0.516286 -1.82851 0
M  V30 2027 H 184.983 1.07293 -3.7339 0
M  V30 2028 H 186.655 -1.4563 -4.37709 0
M  V30 2029 H 184.898 -1.43517 -4.09372 0
M  V30 2030 H 185.569 -0.585065 -5.48891 0
M  V30 2031 H 188.045 0.744167 -4.09391 0
M  V30 2032 H 186.921 1.41541 -5.30337 0
M  V30 2033 H 187.182 2.27228 -3.79236 0
M  V30 2034 N 186.241 1.57166 -0.116904 0
M  V30 2035 C 187.657 1.5779 0.239693 0
M  V30 2036 C 187.857 1.1295 1.66867 0
M  V30 2037 O 186.913 0.81592 2.38954 0
M  V30 2038 C 188.226 3.00699 0.00828202 0
M  V30 2039 C 189.774 3.12912 0.0743438 0
M  V30 2040 C 190.249 4.57817 -0.129348 0
M  V30 2041 N 191.74 4.63139 -0.075247 0
M  V30 2042 C 192.475 5.73023 -0.207788 0
M  V30 2043 N 191.971 6.91665 -0.396382 0
M  V30 2044 N 193.764 5.61906 -0.14751 0
M  V30 2045 H 185.915 1.84615 -1.05029 0
M  V30 2046 H 188.178 0.85311 -0.41341 0
M  V30 2047 H 187.884 3.37784 -0.979531 0
M  V30 2048 H 187.758 3.69848 0.741077 0
M  V30 2049 H 190.145 2.75686 1.05268 0
M  V30 2050 H 190.226 2.4631 -0.690297 0
M  V30 2051 H 189.87 4.95742 -1.10465 0
M  V30 2052 H 189.8 5.22507 0.655253 0
M  V30 2053 H 192.291 3.7784 0.0670898 0
M  V30 2054 H 192.604 7.71255 -0.488437 0
M  V30 2055 H 190.949 6.93654 -0.432329 0
M  V30 2056 H 194.14 4.681 -0.00115036 0
M  V30 2057 H 194.313 6.47501 -0.254247 0
M  V30 2058 N 187.719 -0.156864 1.56817 0
M  V30 2059 C 188.967 -0.869404 1.82444 0
M  V30 2060 C 189.288 -1.82147 0.69623 0
M  V30 2061 O 188.558 -1.93847 -0.28287 0
M  V30 2062 H 187.138 -0.324043 0.673056 0
M  V30 2063 H 189.8 -0.153224 1.94297 0
M  V30 2064 H 188.896 -1.43761 2.77019 0
M  V30 2065 N 189.197 -1.51736 -0.425897 0
M  V30 2066 C 190.127 -1.76827 -1.52494 0
M  V30 2067 C 191.108 -0.618524 -1.58456 0
M  V30 2068 O 192.293 -0.862416 -1.74 0
M  V30 2069 C 189.423 -1.90374 -2.90474 0
M  V30 2070 C 188.377 -3.0588 -2.99369 0
M  V30 2071 C 187.703 -3.04625 -4.3944 0
M  V30 2072 C 189.003 -4.45644 -2.72394 0
M  V30 2073 H 190.697 -2.68855 -1.31748 0
M  V30 2074 H 188.243 -1.29372 -0.632362 0
M  V30 2075 H 190.196 -2.0651 -3.6733 0
M  V30 2076 H 188.92 -0.95004 -3.12477 0
M  V30 2077 H 187.579 -2.89467 -2.24954 0
M  V30 2078 H 187.227 -2.0701 -4.58428 0
M  V30 2079 H 186.927 -3.82195 -4.46319 0
M  V30 2080 H 188.451 -3.22869 -5.18255 0
M  V30 2081 H 189.865 -4.62348 -3.38979 0
M  V30 2082 H 188.262 -5.25006 -2.9067 0
M  V30 2083 H 189.332 -4.54893 -1.67929 0
M  V30 2084 N 190.675 0.682077 -1.42076 0
M  V30 2085 C 191.903 1.47057 -1.4554 0
M  V30 2086 C 192.318 1.8869 -0.0645779 0
M  V30 2087 O 191.675 1.57666 0.919115 0
M  V30 2088 C 191.726 2.72442 -2.37609 0
M  V30 2089 O 191.447 2.32559 -3.71279 0
M  V30 2090 C 192.948 3.66069 -2.50017 0
M  V30 2091 H 190.168 0.452737 -0.495248 0
M  V30 2092 H 192.712 0.838695 -1.8651 0
M  V30 2093 H 190.867 3.31835 -1.9991 0
M  V30 2094 H 191.281 3.13475 -4.20516 0
M  V30 2095 H 192.755 4.50792 -3.18576 0
M  V30 2096 H 193.232 4.11476 -1.53572 0
M  V30 2097 H 193.838 3.12572 -2.88407 0
M  V30 2098 N 192.153 1.28127 0.917671 0
M  V30 2099 C 193.564 1.13622 1.48145 0
M  V30 2100 C 193.915 -0.275207 1.9426 0
M  V30 2101 O 193.04 -1.1691 1.82102 0
M  V30 2102 C 193.635 2.05648 2.69248 0
M  V30 2103 C 192.194 1.95219 3.21818 0
M  V30 2104 C 191.341 1.97618 1.94532 0
M  V30 2105 H 194.292 1.40874 0.730772 0
M  V30 2106 H 194.313 1.61818 3.44377 0
M  V30 2107 H 193.825 3.08365 2.35653 0
M  V30 2108 H 191.926 0.955244 3.60147 0
M  V30 2109 H 192.039 2.81976 3.87333 0
M  V30 2110 H 190.403 1.41973 2.11461 0
M  V30 2111 H 191.186 3.02007 1.63238 0
M  V30 2112 N 193.631 -1.12557 1.10312 0
M  V30 2113 C 194.541 -2.21841 0.763142 0
M  V30 2114 C 195.557 -1.72354 -0.238801 0
M  V30 2115 O 196.733 -2.01249 -0.0778746 0
M  V30 2116 C 193.798 -3.46131 0.198632 0
M  V30 2117 C 192.859 -4.10464 1.25769 0
M  V30 2118 C 192.092 -5.28821 0.72002 0
M  V30 2119 O 192.315 -5.6859 -0.453993 0
M  V30 2120 O 191.249 -5.83437 1.47935 0
M  V30 2121 H 195.075 -2.53312 1.67532 0
M  V30 2122 H 192.66 -1.20867 0.878157 0
M  V30 2123 H 194.542 -4.2125 -0.112401 0
M  V30 2124 H 193.217 -3.16338 -0.686419 0
M  V30 2125 H 192.124 -3.3713 1.62156 0
M  V30 2126 H 193.457 -4.44408 2.11571 0
M  V30 2127 N 195.109 -0.891671 -1.2995 0
M  V30 2128 C 196.041 -0.320695 -2.26945 0
M  V30 2129 C 197.054 0.528497 -1.53983 0
M  V30 2130 O 198.243 0.346959 -1.75096 0
M  V30 2131 C 195.343 0.562066 -3.34207 0
M  V30 2132 C 194.516 -0.259576 -4.36629 0
M  V30 2133 C 193.575 0.554739 -5.23268 0
M  V30 2134 O 192.601 -0.0249311 -5.69195 0
M  V30 2135 N 193.803 1.8625 -5.4981 0
M  V30 2136 H 196.568 -1.15432 -2.76578 0
M  V30 2137 H 194.129 -0.755336 -1.432 0
M  V30 2138 H 196.121 1.11304 -3.89093 0
M  V30 2139 H 194.691 1.29637 -2.84452 0
M  V30 2140 H 193.911 -0.991986 -3.81514 0
M  V30 2141 H 195.199 -0.822564 -5.02107 0
M  V30 2142 H 194.597 2.35628 -5.14292 0
M  V30 2143 H 193.154 2.36078 -6.07545 0
M  V30 2144 N 196.587 1.43421 -0.653314 0
M  V30 2145 C 197.835 2.01414 -0.166415 0
M  V30 2146 C 198.156 1.51803 1.22397 0
M  V30 2147 O 197.426 0.730693 1.81763 0
M  V30 2148 H 196.006 0.744703 -0.0585319 0
M  V30 2149 H 198.668 1.75629 -0.845003 0
M  V30 2150 H 197.764 3.11734 -0.151111 0
M  V30 2151 N 198.065 0.39524 1.52563 0
M  V30 2152 C 198.975 -0.444232 2.30356 0
M  V30 2153 C 199.991 -1.06615 1.37511 0
M  V30 2154 O 201.167 -1.07067 1.70583 0
M  V30 2155 C 198.232 -1.55315 3.09964 0
M  V30 2156 C 197.293 -0.955734 4.18526 0
M  V30 2157 C 196.526 -2.01181 4.9433 0
M  V30 2158 O 196.749 -3.22781 4.70285 0
M  V30 2159 O 195.683 -1.62579 5.79527 0
M  V30 2160 H 199.509 0.189667 3.03107 0
M  V30 2161 H 197.094 0.1588 1.48554 0
M  V30 2162 H 198.976 -2.19724 3.59582 0
M  V30 2163 H 197.651 -2.17191 2.4002 0
M  V30 2164 H 196.558 -0.274743 3.7309 0
M  V30 2165 H 197.891 -0.381109 4.90722 0
M  V30 2166 N 199.544 -1.57102 0.125237 0
M  V30 2167 C 200.792 -1.95021 -0.530198 0
M  V30 2168 C 201.113 -1.00982 -1.66816 0
M  V30 2169 O 200.383 -0.0672693 -1.95784 0
M  V30 2170 H 198.963 -0.720046 -0.198853 0
M  V30 2171 H 201.625 -1.93916 0.19564 0
M  V30 2172 H 200.721 -2.98211 -0.920681 0
M  V30 2173 N 201.022 0.148545 -1.56898 0
M  V30 2174 C 202.268 0.862694 -1.83536 0
M  V30 2175 C 202.601 1.80889 -0.706604 0
M  V30 2176 O 201.876 1.92328 0.289885 0
M  V30 2177 C 202.159 1.63853 -3.20662 0
M  V30 2178 C 202.012 0.713925 -4.44098 0
M  V30 2179 C 203.331 2.60133 -3.54991 0
M  V30 2180 H 200.45 0.312179 -0.667618 0
M  V30 2181 H 203.092 0.127953 -1.89569 0
M  V30 2182 H 201.242 2.26489 -3.1565 0
M  V30 2183 H 202.914 0.098686 -4.61194 0
M  V30 2184 H 201.157 0.0234019 -4.33794 0
M  V30 2185 H 201.828 1.29278 -5.36648 0
M  V30 2186 H 204.304 2.07616 -3.60603 0
M  V30 2187 H 203.18 3.11468 -4.51972 0
M  V30 2188 H 203.441 3.41417 -2.80868 0
M  V30 2189 N 202.5 1.5196 0.417844 0
M  V30 2190 C 203.749 1.6482 1.16264 0
M  V30 2191 C 204.062 0.379886 1.91876 0
M  V30 2192 O 205.268 0.388154 2.68711 0
M  V30 2193 C 203.724 2.91161 2.1155 0
M  V30 2194 C 203.332 4.25068 1.41495 0
M  V30 2195 C 205.076 3.13383 2.86341 0
M  V30 2196 C 202.983 5.42541 2.35379 0
M  V30 2197 H 201.913 0.613954 0.437694 0
M  V30 2198 H 204.564 1.78442 0.427871 0
M  V30 2199 H 202.946 2.71218 2.88543 0
M  V30 2200 H 204.12 4.55463 0.699263 0
M  V30 2201 H 202.435 4.0888 0.787792 0
M  V30 2202 H 205.032 3.98324 3.5671 0
M  V30 2203 H 205.375 2.27256 3.48798 0
M  V30 2204 H 205.908 3.33757 2.1645 0
M  V30 2205 H 202.647 6.30987 1.77582 0
M  V30 2206 H 202.167 5.16497 3.04945 0
M  V30 2207 H 203.846 5.75272 2.96093 0
M  V30 2208 N 203.978 -0.674533 1.42435 0
M  V30 2209 C 204.941 -1.76986 1.45632 0
M  V30 2210 C 205.941 -1.5708 0.343871 0
M  V30 2211 O 207.131 -1.63367 0.604709 0
M  V30 2212 C 204.263 -3.15623 1.28822 0
M  V30 2213 H 205.456 -1.75539 2.43158 0
M  V30 2214 H 203.009 -0.884189 1.28887 0
M  V30 2215 H 203.744 -3.22696 0.322193 0
M  V30 2216 H 203.529 -3.31475 2.09444 0
M  V30 2217 H 205.019 -3.95537 1.33942 0
M  V30 2218 N 205.456 -1.28612 -0.910864 0
M  V30 2219 C 206.386 -1.15326 -2.03032 0
M  V30 2220 C 207.367 -0.0502924 -1.70026 0
M  V30 2221 O 208.552 -0.227797 -1.92859 0
M  V30 2222 C 205.682 -0.817343 -3.37545 0
M  V30 2223 C 204.636 -1.8754 -3.84724 0
M  V30 2224 C 203.962 -1.39305 -5.16235 0
M  V30 2225 C 205.262 -3.28244 -4.06267 0
M  V30 2226 H 206.956 -2.08975 -2.14406 0
M  V30 2227 H 204.502 -1.00612 -1.03021 0
M  V30 2228 H 206.455 -0.711151 -4.15356 0
M  V30 2229 H 205.179 0.154846 -3.26233 0
M  V30 2230 H 203.838 -1.97079 -3.09121 0
M  V30 2231 H 203.486 -0.409846 -5.01328 0
M  V30 2232 H 203.186 -2.10057 -5.48771 0
M  V30 2233 H 204.71 -1.30014 -5.96598 0
M  V30 2234 H 206.124 -3.21611 -4.74594 0
M  V30 2235 H 204.521 -3.96855 -4.5014 0
M  V30 2236 H 205.591 -3.72048 -3.10979 0
M  V30 2237 N 206.934 1.1197 -1.10907 0
M  V30 2238 C 207.881 2.17846 -0.762345 0
M  V30 2239 C 208.851 1.63995 0.263599 0
M  V30 2240 O 210.036 1.90273 0.141773 0
M  V30 2241 C 207.176 3.44487 -0.205651 0
M  V30 2242 C 206.289 4.12369 -1.28748 0
M  V30 2243 C 205.424 5.26674 -0.691919 0
M  V30 2244 C 204.463 5.86431 -1.75399 0
M  V30 2245 N 203.6 6.92142 -1.17833 0
M  V30 2246 H 208.44 2.46851 -1.6694 0
M  V30 2247 H 205.977 1.21188 -0.833776 0
M  V30 2248 H 207.935 4.16981 0.135037 0
M  V30 2249 H 206.565 3.15884 0.664613 0
M  V30 2250 H 205.617 3.38003 -1.74522 0
M  V30 2251 H 206.929 4.52844 -2.09125 0
M  V30 2252 H 206.083 6.05953 -0.300963 0
M  V30 2253 H 204.822 4.8749 0.143232 0
M  V30 2254 H 203.827 5.05835 -2.15432 0
M  V30 2255 H 205.052 6.27685 -2.59208 0
M  V30 2256 H 202.998 6.54985 -0.364725 0
M  V30 2257 H 202.915 7.31242 -1.91887 0
M  V30 2258 H 204.183 7.75237 -0.81408 0
M  V30 2259 N 208.412 0.89855 1.29475 0
M  V30 2260 C 209.658 0.524658 1.95896 0
M  V30 2261 C 209.991 -0.926468 1.70676 0
M  V30 2262 O 209.266 -1.65665 1.01908 0
M  V30 2263 C 209.549 0.81633 3.50725 0
M  V30 2264 C 209.402 2.31907 3.85408 0
M  V30 2265 C 210.721 0.302038 4.39062 0
M  V30 2266 H 207.84 0.19209 0.711527 0
M  V30 2267 H 210.482 1.12502 1.53112 0
M  V30 2268 H 208.632 0.305369 3.87298 0
M  V30 2269 H 210.304 2.89949 3.58786 0
M  V30 2270 H 208.547 2.78027 3.32992 0
M  V30 2271 H 209.218 2.47373 4.93468 0
M  V30 2272 H 211.694 0.739551 4.09475 0
M  V30 2273 H 210.57 0.535331 5.46283 0
M  V30 2274 H 210.831 -0.797216 4.34853 0
M  V30 2275 N 209.89 -1.43072 0.660911 0
M  V30 2276 C 211.301 -1.84932 0.256348 0
M  V30 2277 C 211.652 -1.55325 -1.19868 0
M  V30 2278 O 210.777 -1.00607 -1.91591 0
M  V30 2279 C 211.372 -3.35684 0.458475 0
M  V30 2280 C 209.931 -3.76245 0.108161 0
M  V30 2281 C 209.078 -2.66749 0.757641 0
M  V30 2282 H 212.029 -1.33116 0.864051 0
M  V30 2283 H 212.05 -3.79365 -0.293683 0
M  V30 2284 H 211.562 -3.572 1.51755 0
M  V30 2285 H 209.663 -3.60338 -0.948014 0
M  V30 2286 H 209.776 -4.76058 0.538992 0
M  V30 2287 H 208.14 -2.53989 0.190185 0
M  V30 2288 H 208.923 -2.91092 1.81989 0
M  V30 2289 N 211.368 -0.403325 -1.52352 0
M  V30 2290 C 212.616 0.174003 -2.0135 0
M  V30 2291 C 212.937 1.46139 -1.29106 0
M  V30 2292 O 212.207 1.91448 -0.415253 0
M  V30 2293 H 210.787 0.0672911 -0.743963 0
M  V30 2294 H 213.449 -0.538235 -1.87321 0
M  V30 2295 H 212.545 0.374254 -3.09848 0
M  V30 2296 N 212.846 1.57033 -0.133567 0
M  V30 2297 C 214.092 1.95976 0.521649 0
M  V30 2298 C 214.425 1.01779 1.65393 0
M  V30 2299 O 213.7 0.0576581 1.94415 0
M  V30 2300 C 213.983 3.44738 1.04057 0
M  V30 2301 C 213.836 4.49711 -0.0892897 0
M  V30 2302 C 215.155 3.95682 1.92675 0
M  V30 2303 H 212.274 0.712579 0.188149 0
M  V30 2304 H 214.916 1.88813 -0.212076 0
M  V30 2305 H 213.066 3.50973 1.66583 0
M  V30 2306 H 214.738 4.55565 -0.725152 0
M  V30 2307 H 212.981 4.27261 -0.750378 0
M  V30 2308 H 213.652 5.51099 0.315284 0
M  V30 2309 H 216.128 3.91841 1.39998 0
M  V30 2310 H 215.004 5.00262 2.25897 0
M  V30 2311 H 215.265 3.37239 2.85872 0
M  V30 2312 N 214.325 -0.140222 1.56975 0
M  V30 2313 C 215.555 -0.865181 1.87612 0
M  V30 2314 C 215.963 -1.74942 0.72055 0
M  V30 2315 O 215.306 -1.80917 -0.318561 0
M  V30 2316 C 215.368 -1.76782 3.13031 0
M  V30 2317 C 215.032 -1.06005 4.44536 0
M  V30 2318 C 216.029 -0.410768 5.18275 0
M  V30 2319 C 213.714 -1.04754 4.91255 0
M  V30 2320 C 215.708 0.241572 6.36942 0
M  V30 2321 C 213.395 -0.391394 6.09845 0
M  V30 2322 C 214.393 0.252029 6.82535 0
M  V30 2323 O 214.081 0.897757 7.98871 0
M  V30 2324 H 213.813 -0.255188 0.625983 0
M  V30 2325 H 216.367 -0.135653 2.04952 0
M  V30 2326 H 214.597 -2.53846 2.91718 0
M  V30 2327 H 216.286 -2.36533 3.29859 0
M  V30 2328 H 217.052 -0.412195 4.83245 0
M  V30 2329 H 212.931 -1.53777 4.34596 0
M  V30 2330 H 216.475 0.744375 6.93617 0
M  V30 2331 H 212.372 -0.387656 6.44335 0
M  V30 2332 H 213.14 0.800102 8.1458 0
M  V30 2333 N 215.803 -1.52179 -0.40978 0
M  V30 2334 C 217.028 -1.70347 -1.18308 0
M  V30 2335 C 217.453 -0.411887 -1.83535 0
M  V30 2336 O 216.811 0.630587 -1.6998 0
M  V30 2337 C 216.859 -2.83977 -2.22238 0
M  V30 2338 O 215.963 -2.495 -3.28365 0
M  V30 2339 H 215.304 -0.567103 -0.345384 0
M  V30 2340 H 217.834 -1.98879 -0.480445 0
M  V30 2341 H 217.844 -3.0887 -2.66577 0
M  V30 2342 H 216.519 -3.77685 -1.74146 0
M  V30 2343 H 215.096 -2.35277 -2.89308 0
M  V30 2344 N 217.281 0.66697 -1.42791 0
M  V30 2345 C 218.53 1.42278 -1.42968 0
M  V30 2346 C 218.843 1.9553 -0.0524489 0
M  V30 2347 O 220.049 2.71414 0.068363 0
M  V30 2348 C 218.505 2.57418 -2.51524 0
M  V30 2349 C 218.113 2.10832 -3.9529 0
M  V30 2350 C 219.857 3.34878 -2.60877 0
M  V30 2351 C 217.764 3.23101 -4.95338 0
M  V30 2352 H 216.694 0.534533 -0.531781 0
M  V30 2353 H 219.345 0.721302 -1.68729 0
M  V30 2354 H 217.727 3.29971 -2.18941 0
M  V30 2355 H 218.901 1.4538 -4.37266 0
M  V30 2356 H 217.216 1.46289 -3.89857 0
M  V30 2357 H 219.813 4.18505 -3.32802 0
M  V30 2358 H 220.156 3.81993 -1.6549 0
M  V30 2359 H 220.689 2.69398 -2.92693 0
M  V30 2360 H 217.428 2.80969 -5.9223 0
M  V30 2361 H 216.948 3.87309 -4.57987 0
M  V30 2362 H 218.627 3.88447 -5.17415 0
M  V30 2363 N 218.759 1.29093 0.90403 0
M  V30 2364 C 219.669 1.15727 2.0407 0
M  V30 2365 C 220.685 0.0815308 1.73809 0
M  V30 2366 O 221.861 0.292749 1.99261 0
M  V30 2367 C 218.926 0.830424 3.36608 0
M  V30 2368 C 217.987 1.98955 3.80415 0
M  V30 2369 C 217.22 1.6782 5.06628 0
M  V30 2370 O 217.443 0.597105 5.67266 0
M  V30 2371 O 216.377 2.52486 5.46383 0
M  V30 2372 H 220.203 2.11171 2.18267 0
M  V30 2373 H 217.788 1.08504 1.027 0
M  V30 2374 H 219.67 0.662521 4.16159 0
M  V30 2375 H 218.345 -0.0942678 3.23563 0
M  V30 2376 H 217.252 2.21267 3.01648 0
M  V30 2377 H 218.585 2.89529 3.98037 0
M  V30 2378 N 220.237 -1.11381 1.11499 0
M  V30 2379 C 221.147 -2.21019 0.786628 0
M  V30 2380 C 222.163 -1.72597 -0.220507 0
M  V30 2381 O 223.339 -2.01321 -0.0565251 0
M  V30 2382 C 220.404 -3.459 0.235333 0
M  V30 2383 C 219.465 -4.09107 1.30115 0
M  V30 2384 C 218.698 -5.28027 0.776068 0
M  V30 2385 O 218.921 -5.6904 -0.393661 0
M  V30 2386 O 217.855 -5.81835 1.54114 0
M  V30 2387 H 221.681 -2.51521 1.70209 0
M  V30 2388 H 219.266 -1.19928 0.890928 0
M  V30 2389 H 221.148 -4.21346 -0.067715 0
M  V30 2390 H 219.823 -3.17049 -0.652828 0
M  V30 2391 H 218.73 -3.35391 1.65722 0
M  V30 2392 H 220.063 -4.42139 2.16273 0
M  V30 2393 N 221.715 -0.905404 -1.28997 0
M  V30 2394 C 222.962 -0.534248 -1.95325 0
M  V30 2395 C 223.29 0.920535 -1.71337 0
M  V30 2396 O 222.545 1.66861 -1.02254 0
M  V30 2397 C 222.844 -0.779906 -3.48787 0
M  V30 2398 C 222.51 -2.21293 -3.92861 0
M  V30 2399 C 221.172 -2.60475 -4.04606 0
M  V30 2400 C 223.524 -3.14587 -4.15553 0
M  V30 2401 C 220.852 -3.9212 -4.36416 0
M  V30 2402 C 223.204 -4.45787 -4.48839 0
M  V30 2403 C 221.868 -4.84834 -4.58794 0
M  V30 2404 H 221.138 -0.195495 -0.714747 0
M  V30 2405 H 223.785 -1.14514 -1.53488 0
M  V30 2406 H 222.09 -0.0861365 -3.91705 0
M  V30 2407 H 223.787 -0.472029 -3.98212 0
M  V30 2408 H 220.377 -1.89887 -3.84241 0
M  V30 2409 H 224.561 -2.85528 -4.0594 0
M  V30 2410 H 219.817 -4.22086 -4.42327 0
M  V30 2411 H 223.991 -5.18098 -4.65346 0
M  V30 2412 H 221.618 -5.86877 -4.83197 0
M  V30 2413 N 223.193 1.4272 -0.668489 0
M  V30 2414 C 224.609 1.55992 -0.33745 0
M  V30 2415 C 224.809 1.64933 1.15756 0
M  V30 2416 O 223.865 1.61278 1.94282 0
M  V30 2417 C 225.178 2.81314 -1.06222 0
M  V30 2418 C 226.726 2.95078 -1.04394 0
M  V30 2419 C 227.201 4.23252 -1.74991 0
M  V30 2420 N 228.692 4.3015 -1.71829 0
M  V30 2421 C 229.427 5.28127 -2.23315 0
M  V30 2422 N 228.923 6.32293 -2.83156 0
M  V30 2423 N 230.716 5.19882 -2.13726 0
M  V30 2424 H 222.867 1.3516 -1.63846 0
M  V30 2425 H 225.13 0.650174 -0.689912 0
M  V30 2426 H 224.836 2.80823 -2.11734 0
M  V30 2427 H 224.71 3.72012 -0.62344 0
M  V30 2428 H 227.097 2.951 0.0028244 0
M  V30 2429 H 227.178 2.05627 -1.52155 0
M  V30 2430 H 226.822 4.2399 -2.79633 0
M  V30 2431 H 226.752 5.11626 -1.24685 0
M  V30 2432 H 229.243 3.55499 -1.28175 0
M  V30 2433 H 229.556 7.03398 -3.20079 0
M  V30 2434 H 227.901 6.32873 -2.87223 0
M  V30 2435 H 231.092 4.37423 -1.66669 0
M  V30 2436 H 231.265 5.96077 -2.54158 0
M  V30 2437 N 224.671 0.411399 1.52136 0
M  V30 2438 C 226.087 0.0623865 1.59478 0
M  V30 2439 C 226.287 -1.42554 1.4241 0
M  V30 2440 O 225.343 -2.19263 1.2522 0
M  V30 2441 C 226.656 0.559331 2.95452 0
M  V30 2442 C 228.204 0.517503 3.08692 0
M  V30 2443 C 228.679 0.990994 4.4715 0
M  V30 2444 N 230.17 0.947908 4.53397 0
M  V30 2445 C 230.905 1.28544 5.58806 0
M  V30 2446 N 230.401 1.69454 6.71757 0
M  V30 2447 N 232.194 1.20526 5.49026 0
M  V30 2448 H 224.345 1.37982 1.61477 0
M  V30 2449 H 226.608 0.566977 0.759764 0
M  V30 2450 H 226.314 1.59938 3.1323 0
M  V30 2451 H 226.188 -0.0298014 3.77188 0
M  V30 2452 H 228.575 -0.513505 2.90598 0
M  V30 2453 H 228.656 1.14272 2.28857 0
M  V30 2454 H 228.3 2.02034 4.65988 0
M  V30 2455 H 228.23 0.34257 5.25485 0
M  V30 2456 H 230.721 0.647157 3.72317 0
M  V30 2457 H 231.034 1.93513 7.48179 0
M  V30 2458 H 229.379 1.73359 6.73032 0
M  V30 2459 H 232.57 0.884505 4.59667 0
M  V30 2460 H 232.743 1.47161 6.31069 0
M  V30 2461 N 226.149 -1.5696 0.141893 0
M  V30 2462 C 227.396 -1.9596 -0.510492 0
M  V30 2463 C 227.724 -1.02648 -1.65208 0
M  V30 2464 O 226.979 -0.0546947 -1.95624 0
M  V30 2465 C 227.278 -3.41242 -1.06249 0
M  V30 2466 C 226.944 -4.50882 -0.0398791 0
M  V30 2467 C 225.606 -4.80595 0.241247 0
M  V30 2468 C 227.958 -5.17058 0.65578 0
M  V30 2469 C 225.286 -5.73792 1.22393 0
M  V30 2470 C 227.638 -6.11313 1.62724 0
M  V30 2471 C 226.302 -6.39407 1.91612 0
M  V30 2472 H 225.572 -0.717068 -0.186802 0
M  V30 2473 H 228.219 -1.90142 0.227643 0
M  V30 2474 H 226.524 -3.43866 -1.87785 0
M  V30 2475 H 228.221 -3.68742 -1.57576 0
M  V30 2476 H 224.811 -4.27754 -0.269174 0
M  V30 2477 H 228.995 -4.94239 0.451779 0
M  V30 2478 H 224.251 -5.93853 1.45424 0
M  V30 2479 H 228.425 -6.61668 2.17183 0
M  V30 2480 H 226.052 -7.11427 2.6791 0
M  V30 2481 N 227.627 0.131896 -1.57047 0
M  V30 2482 C 228.857 0.855219 -1.88068 0
M  V30 2483 C 229.265 1.74557 -0.729817 0
M  V30 2484 O 228.608 1.81083 0.308962 0
M  V30 2485 C 228.67 1.75119 -3.13964 0
M  V30 2486 C 228.334 1.03646 -4.45091 0
M  V30 2487 C 229.331 0.383276 -5.18485 0
M  V30 2488 C 227.016 1.02148 -4.91804 0
M  V30 2489 C 229.01 -0.275347 -6.36805 0
M  V30 2490 C 226.697 0.359047 -6.10044 0
M  V30 2491 C 227.695 -0.288222 -6.82392 0
M  V30 2492 O 227.383 -0.94011 -7.98384 0
M  V30 2493 H 227.115 0.251864 -0.627328 0
M  V30 2494 H 229.669 0.124782 -2.05021 0
M  V30 2495 H 227.899 2.52295 -2.9306 0
M  V30 2496 H 229.588 2.3478 -3.31109 0
M  V30 2497 H 230.354 0.386562 -4.83457 0
M  V30 2498 H 226.233 1.5147 -4.35405 0
M  V30 2499 H 229.777 -0.781148 -6.93213 0
M  V30 2500 H 225.674 0.35348 -6.44531 0
M  V30 2501 H 226.442 -0.84329 -8.14144 0
M  V30 2502 N 229.106 1.52395 0.401703 0
M  V30 2503 C 230.517 1.58899 0.980202 0
M  V30 2504 C 230.868 0.434032 1.91339 0
M  V30 2505 O 229.993 -0.444619 2.11783 0
M  V30 2506 C 230.588 2.87994 1.78451 0
M  V30 2507 C 229.147 2.96953 2.31292 0
M  V30 2508 C 228.294 2.53903 1.11483 0
M  V30 2509 H 231.245 1.57657 0.18168 0
M  V30 2510 H 231.266 2.73765 2.64259 0
M  V30 2511 H 230.778 3.72035 1.10506 0
M  V30 2512 H 228.879 2.17422 3.02586 0
M  V30 2513 H 228.992 4.01344 2.61649 0
M  V30 2514 H 227.356 2.07925 1.47104 0
M  V30 2515 H 228.139 3.40326 0.450928 0
M  V30 2516 N 230.584 -0.659388 1.43143 0
M  V30 2517 C 231.547 -1.75432 1.47501 0
M  V30 2518 C 232.547 -1.56707 0.360512 0
M  V30 2519 O 233.737 -1.62717 0.622002 0
M  V30 2520 C 230.869 -3.14239 1.32162 0
M  V30 2521 H 232.062 -1.7295 2.45006 0
M  V30 2522 H 229.615 -0.870469 1.29817 0
M  V30 2523 H 230.35 -3.22336 0.356401 0
M  V30 2524 H 230.135 -3.29235 2.12948 0
M  V30 2525 H 231.625 -3.94094 1.3813 0
M  V30 2526 N 232.062 -1.29571 -0.897171 0
M  V30 2527 C 233.31 -1.17456 -1.64464 0
M  V30 2528 C 233.631 0.273698 -1.9307 0
M  V30 2529 O 232.901 1.18684 -1.55855 0
M  V30 2530 H 231.481 -0.431706 -0.609622 0
M  V30 2531 H 234.143 -1.62531 -1.07562 0
M  V30 2532 H 233.239 -1.72648 -2.59998 0
M  V30 2533 N 233.54 1.10788 -1.12088 0
M  V30 2534 C 234.45 2.20599 -0.798338 0
M  V30 2535 C 235.466 1.72712 0.21135 0
M  V30 2536 O 236.642 2.01348 0.0458477 0
M  V30 2537 C 233.707 3.45771 -0.253674 0
M  V30 2538 C 232.768 4.08411 -1.32283 0
M  V30 2539 C 232.001 5.27608 -0.80406 0
M  V30 2540 O 232.224 5.69241 0.363478 0
M  V30 2541 O 231.158 5.8101 -1.57198 0
M  V30 2542 H 234.984 2.50614 -1.7154 0
M  V30 2543 H 232.569 1.19454 -0.897275 0
M  V30 2544 H 234.451 4.21376 0.0453691 0
M  V30 2545 H 233.126 3.1739 0.636005 0
M  V30 2546 H 232.033 3.34507 -1.67499 0
M  V30 2547 H 233.366 4.40986 -2.18614 0
M  V30 2548 N 235.018 0.912232 1.28515 0
M  V30 2549 C 236.264 0.545405 1.95328 0
M  V30 2550 C 236.597 -0.908313 1.71649 0
M  V30 2551 O 235.872 -1.64575 1.03659 0
M  V30 2552 C 236.155 0.853483 3.4984 0
M  V30 2553 C 236.008 2.35982 3.82926 0
M  V30 2554 C 237.327 0.348589 4.38717 0
M  V30 2555 H 234.446 0.199626 0.709449 0
M  V30 2556 H 237.088 1.1412 1.5191 0
M  V30 2557 H 235.238 0.34643 3.86952 0
M  V30 2558 H 236.91 2.93738 3.55691 0
M  V30 2559 H 235.153 2.81543 3.30024 0
M  V30 2560 H 235.824 2.52593 4.90816 0
M  V30 2561 H 238.3 0.78294 4.08668 0
M  V30 2562 H 237.176 0.593242 5.45685 0
M  V30 2563 H 237.437 -0.751049 4.35674 0
M  V30 2564 N 236.496 -1.42363 0.676048 0
M  V30 2565 C 237.742 -2.0182 0.199125 0
M  V30 2566 C 238.075 -1.53339 -1.19168 0
M  V30 2567 O 237.35 -0.736124 -1.80032 0
M  V30 2568 C 237.633 -3.59331 0.235144 0
M  V30 2569 C 237.486 -4.17989 1.66149 0
M  V30 2570 C 238.805 -4.3813 -0.41595 0
M  V30 2571 H 235.924 -0.733293 0.0738311 0
M  V30 2572 H 238.566 -1.69368 0.86107 0
M  V30 2573 H 236.716 -3.87109 -0.328487 0
M  V30 2574 H 238.388 -4.0116 2.27747 0
M  V30 2575 H 236.631 -3.7377 2.20178 0
M  V30 2576 H 237.302 -5.27126 1.63837 0
M  V30 2577 H 239.778 -4.16051 0.0638529 0
M  V30 2578 H 238.654 -5.47717 -0.360115 0
M  V30 2579 H 238.915 -4.16101 -1.49373 0
M  V30 2580 N 237.974 -0.419461 -1.51915 0
M  V30 2581 C 238.937 0.389116 -2.25873 0
M  V30 2582 C 239.937 0.964924 -1.28631 0
M  V30 2583 O 241.127 0.842179 -1.52489 0
M  V30 2584 C 238.259 1.54874 -3.03689 0
M  V30 2585 H 239.452 -0.258799 -2.98781 0
M  V30 2586 H 237.005 -0.172209 -1.55348 0
M  V30 2587 H 237.74 2.23323 -2.35154 0
M  V30 2588 H 237.525 1.14223 -3.75094 0
M  V30 2589 H 239.015 2.12046 -3.59759 0
M  V30 2590 N 239.452 1.56882 -0.150215 0
M  V30 2591 C 240.402 2.13501 0.800071 0
M  V30 2592 C 241.386 1.06368 1.20726 0
M  V30 2593 O 242.578 1.32538 1.17314 0
M  V30 2594 C 239.707 2.76271 2.03787 0
M  V30 2595 C 238.793 3.90533 1.65364 0
M  V30 2596 N 239.184 4.96259 0.977794 0
M  V30 2597 C 237.482 4.013 1.94613 0
M  V30 2598 C 238.183 5.76286 0.791794 0
M  V30 2599 N 237.159 5.27163 1.32666 0
M  V30 2600 H 240.961 2.92615 0.274517 0
M  V30 2601 H 238.475 1.62319 0.0512144 0
M  V30 2602 H 240.472 3.15197 2.72867 0
M  V30 2603 H 239.132 1.98631 2.56857 0
M  V30 2604 H 240.143 5.13953 0.638193 0
M  V30 2605 H 236.82 3.3474 2.4951 0
M  V30 2606 H 238.21 6.71401 0.258894 0
M  V30 2607 N 240.93 -0.123565 1.57115 0
M  V30 2608 C 241.893 -1.13583 1.99076 0
M  V30 2609 C 242.893 -1.34564 0.880296 0
M  V30 2610 O 244.083 -1.31158 1.14644 0
M  V30 2611 C 241.215 -2.49128 2.32698 0
M  V30 2612 H 242.408 -0.775287 2.89706 0
M  V30 2613 H 239.961 -0.36771 1.51913 0
M  V30 2614 H 240.696 -2.90111 1.44934 0
M  V30 2615 H 240.481 -2.35255 3.13684 0
M  V30 2616 H 241.971 -3.2199 2.65918 0
M  V30 2617 N 242.408 -1.52605 -0.393616 0
M  V30 2618 C 243.654 -1.67672 -1.14079 0
M  V30 2619 C 243.987 -0.413121 -1.89755 0
M  V30 2620 O 243.262 0.588952 -1.85369 0
M  V30 2621 C 243.545 -2.9088 -2.12276 0
M  V30 2622 C 243.398 -4.27329 -1.40394 0
M  V30 2623 C 244.717 -3.09628 -3.12759 0
M  V30 2624 H 241.836 -0.610168 -0.413356 0
M  V30 2625 H 244.478 -1.85193 -0.424696 0
M  V30 2626 H 242.628 -2.76073 -2.73342 0
M  V30 2627 H 244.3 -4.53894 -0.82327 0
M  V30 2628 H 242.543 -4.2802 -0.705801 0
M  V30 2629 H 243.214 -5.09615 -2.12123 0
M  V30 2630 H 245.69 -3.23436 -2.61779 0
M  V30 2631 H 244.566 -3.97322 -3.78717 0
M  V30 2632 H 244.827 -2.23637 -3.81365 0
M  V30 2633 N 243.887 0.651787 -1.4349 0
M  V30 2634 C 245.135 1.40888 -1.44897 0
M  V30 2635 C 245.456 1.94856 -0.0749086 0
M  V30 2636 O 244.726 1.74518 0.889956 0
M  V30 2637 H 243.306 0.522887 -0.533478 0
M  V30 2638 H 245.968 0.768609 -1.79104 0
M  V30 2639 H 245.064 2.25052 -2.16236 0
M  V30 2640 N 245.365 1.30045 0.890287 0
M  V30 2641 C 246.612 1.18561 1.64163 0
M  V30 2642 C 246.94 -0.260852 1.92743 0
M  V30 2643 O 246.195 -1.20376 1.54299 0
M  V30 2644 C 246.494 1.95409 2.99249 0
M  V30 2645 C 246.16 3.45066 2.90242 0
M  V30 2646 C 244.822 3.85878 2.87492 0
M  V30 2647 C 247.174 4.4039 2.78758 0
M  V30 2648 C 244.502 5.20314 2.7109 0
M  V30 2649 C 246.854 5.74928 2.63894 0
M  V30 2650 C 245.518 6.14986 2.59516 0
M  V30 2651 H 244.788 0.433846 0.600715 0
M  V30 2652 H 247.435 1.61088 1.03552 0
M  V30 2653 H 245.74 1.45501 3.63781 0
M  V30 2654 H 247.437 1.8392 3.56334 0
M  V30 2655 H 244.027 3.12631 2.93189 0
M  V30 2656 H 248.211 4.09806 2.79952 0
M  V30 2657 H 243.467 5.50449 2.66112 0
M  V30 2658 H 247.641 6.48434 2.53981 0
M  V30 2659 H 245.268 7.19104 2.46565 0
M  V30 2660 N 246.843 -1.10192 1.12674 0
M  V30 2661 C 248.071 -1.85983 0.906527 0
M  V30 2662 C 248.486 -1.80783 -0.544333 0
M  V30 2663 O 247.843 -1.19834 -1.37645 0
M  V30 2664 C 247.894 -3.34281 1.37618 0
M  V30 2665 O 247.615 -3.39401 2.77017 0
M  V30 2666 C 249.116 -4.26938 1.19325 0
M  V30 2667 H 246.336 -0.587716 0.323775 0
M  V30 2668 H 248.88 -1.39284 1.49734 0
M  V30 2669 H 247.035 -3.78436 0.828539 0
M  V30 2670 H 247.449 -4.31838 2.97684 0
M  V30 2671 H 248.923 -5.29181 1.57071 0
M  V30 2672 H 249.4 -4.38995 0.134097 0
M  V30 2673 H 250.006 -3.8859 1.72852 0
M  V30 2674 N 248.321 -0.919034 -1.28029 0
M  V30 2675 C 249.598 -0.473668 -1.89778 0
M  V30 2676 C 249.978 1.04783 -1.83259 0
M  V30 2677 O 249.326 1.8982 -1.27202 0
M  V30 2678 C 249.536 -1.00998 -3.34066 0
M  V30 2679 C 250.884 -1.06525 -4.1102 0
M  V30 2680 O 251.908 -0.958996 -3.43048 0
M  V30 2681 O 250.767 -1.22776 -5.3253 0
M  V30 2682 H 247.861 -0.15098 -0.813101 0
M  V30 2683 H 250.407 -1.01016 -1.36359 0
M  V30 2684 H 249.179 -2.05392 -3.33061 0
M  V30 2685 H 248.802 -0.454626 -3.94992 0
M  V30 2686 N 249.799 1.42003 -0.683588 0
M  V30 2687 C 251.045 2.01712 -0.209825 0
M  V30 2688 C 251.378 1.53968 1.18353 0
M  V30 2689 O 250.653 0.745661 1.79639 0
M  V30 2690 C 250.936 3.59202 -0.254197 0
M  V30 2691 C 250.789 4.17102 -1.68363 0
M  V30 2692 C 252.108 4.38344 0.392709 0
M  V30 2693 H 249.227 0.732891 -0.0777189 0
M  V30 2694 H 251.869 1.68909 -0.87004 0
M  V30 2695 H 250.019 3.87278 0.307954 0
M  V30 2696 H 251.691 3.99946 -2.29871 0
M  V30 2697 H 249.934 3.72597 -2.22157 0
M  V30 2698 H 250.605 5.26249 -1.6663 0
M  V30 2699 H 253.081 4.16011 -0.0859162 0
M  V30 2700 H 251.957 5.47901 0.331063 0
M  V30 2701 H 252.218 4.16887 1.47164 0
M  V30 2702 N 251.277 0.427512 1.51691 0
M  V30 2703 C 252.554 -0.201684 1.94557 0
M  V30 2704 C 252.934 -1.60981 1.36559 0
M  V30 2705 O 252.282 -2.21814 0.548702 0
M  V30 2706 C 252.492 -0.189394 3.48486 0
M  V30 2707 C 253.84 -0.39978 4.22714 0
M  V30 2708 O 254.864 -0.267945 3.55191 0
M  V30 2709 O 253.723 -0.661249 5.42485 0
M  V30 2710 H 250.817 -0.135261 0.815864 0
M  V30 2711 H 253.363 0.484782 1.62628 0
M  V30 2712 H 252.135 0.795431 3.8313 0
M  V30 2713 H 251.758 -0.919187 3.86829 0
M  V30 2714 N 252.755 -1.56801 0.158532 0
M  V30 2715 C 254.032 -1.88131 -0.535357 0
M  V30 2716 C 254.412 -1.06638 -1.82186 0
M  V30 2717 O 253.76 -0.156533 -2.27963 0
M  V30 2718 C 253.97 -3.39949 -0.789653 0
M  V30 2719 C 255.318 -4.09416 -1.12533 0
M  V30 2720 O 256.342 -3.45194 -0.878622 0
M  V30 2721 O 255.201 -5.22855 -1.59014 0
M  V30 2722 H 252.295 -0.780143 -0.27442 0
M  V30 2723 H 254.841 -1.68564 0.19601 0
M  V30 2724 H 253.613 -3.91115 0.120353 0
M  V30 2725 H 253.236 -3.65084 -1.57479 0
M  V30 2726 N 254.233 0.115231 -1.57178 0
M  V30 2727 C 255.649 0.468877 -1.52557 0
M  V30 2728 C 255.849 1.81649 -0.872125 0
M  V30 2729 O 254.905 2.48347 -0.45606 0
M  V30 2730 C 256.218 0.4499 -2.97315 0
M  V30 2731 C 257.766 0.533185 -3.08425 0
M  V30 2732 C 258.241 0.54456 -4.54751 0
M  V30 2733 N 259.732 0.605892 -4.5922 0
M  V30 2734 C 260.467 0.636203 -5.6986 0
M  V30 2735 N 259.963 0.623931 -6.89985 0
M  V30 2736 N 261.756 0.679496 -5.57978 0
M  V30 2737 H 253.907 -0.767712 -1.9804 0
M  V30 2738 H 256.17 -0.283609 -0.904583 0
M  V30 2739 H 255.876 -0.472721 -3.48509 0
M  V30 2740 H 255.75 1.27632 -3.5495 0
M  V30 2741 H 258.137 1.44623 -2.57232 0
M  V30 2742 H 258.218 -0.320995 -2.53778 0
M  V30 2743 H 257.862 -0.364452 -5.06591 0
M  V30 2744 H 257.792 1.41568 -5.07214 0
M  V30 2745 H 260.283 0.621386 -3.72756 0
M  V30 2746 H 260.596 0.649787 -7.70063 0
M  V30 2747 H 258.941 0.591296 -6.9248 0
M  V30 2748 H 262.132 0.686472 -4.63039 0
M  V30 2749 H 262.305 0.69965 -6.44212 0
M  V30 2750 N 255.711 1.52812 0.385517 0
M  V30 2751 C 256.959 1.67694 1.12797 0
M  V30 2752 C 257.28 0.421115 1.90399 0
M  V30 2753 O 256.55 -0.564551 1.87589 0
M  V30 2754 H 255.13 0.618155 0.419396 0
M  V30 2755 H 257.792 1.89938 0.436972 0
M  V30 2756 H 256.888 2.52896 1.82894 0
M  V30 2757 N 257.189 -0.644168 1.43834 0
M  V30 2758 C 258.605 -0.960875 1.27434 0
M  V30 2759 C 258.805 -2.00499 0.200618 0
M  V30 2760 O 257.861 -2.49018 -0.417906 0
M  V30 2761 C 259.174 -1.43653 2.64167 0
M  V30 2762 C 260.722 -1.55271 2.71772 0
M  V30 2763 C 261.197 -2.06224 4.08944 0
M  V30 2764 N 262.688 -2.13513 4.11055 0
M  V30 2765 C 263.423 -2.54081 5.14033 0
M  V30 2766 N 262.919 -2.9388 6.27381 0
M  V30 2767 N 264.712 -2.54101 5.01387 0
M  V30 2768 H 256.863 0.0465779 2.12349 0
M  V30 2769 H 259.126 -0.0417638 0.94708 0
M  V30 2770 H 258.832 -0.743706 3.43747 0
M  V30 2771 H 258.706 -2.40993 2.90176 0
M  V30 2772 H 261.093 -2.23653 1.92519 0
M  V30 2773 H 261.174 -0.563395 2.49519 0
M  V30 2774 H 260.818 -1.38441 4.88668 0
M  V30 2775 H 260.748 -3.06003 4.28567 0
M  V30 2776 H 263.239 -1.85493 3.29242 0
M  V30 2777 H 263.552 -3.2361 7.01781 0
M  V30 2778 H 261.897 -2.91663 6.30839 0
M  V30 2779 H 265.088 -2.22391 4.11898 0
M  V30 2780 H 265.261 -2.85394 5.81768 0
M  V30 2781 N 258.668 -1.30515 -0.883378 0
M  V30 2782 C 259.578 -1.18959 -2.02203 0
M  V30 2783 C 260.594 -0.109172 -1.73657 0
M  V30 2784 O 261.77 -0.324413 -1.9877 0
M  V30 2785 C 258.835 -0.883871 -3.35244 0
M  V30 2786 C 257.896 -2.04982 -3.77201 0
M  V30 2787 C 257.129 -1.75859 -5.03894 0
M  V30 2788 O 257.352 -0.687276 -5.66244 0
M  V30 2789 O 256.286 -2.61146 -5.42297 0
M  V30 2790 H 260.112 -2.14616 -2.1488 0
M  V30 2791 H 257.697 -1.10124 -1.0096 0
M  V30 2792 H 259.579 -0.728644 -4.15053 0
M  V30 2793 H 258.254 0.0427798 -3.23672 0
M  V30 2794 H 257.161 -2.26038 -2.9809 0
M  V30 2795 H 258.494 -2.95825 -3.93381 0
M  V30 2796 N 260.146 1.09593 -1.13257 0
M  V30 2797 C 261.394 1.81375 -0.891492 0
M  V30 2798 C 261.715 1.86049 0.584009 0
M  V30 2799 O 260.985 1.34481 1.42449 0
M  V30 2800 H 259.565 0.671708 -0.326828 0
M  V30 2801 H 262.227 1.3256 -1.42877 0
M  V30 2802 H 261.323 2.84612 -1.28071 0
M  V30 2803 N 261.624 0.925811 1.2754 0
M  V30 2804 C 262.873 0.561084 1.93739 0
M  V30 2805 C 263.186 -0.901685 1.73577 0
M  V30 2806 O 264.392 -1.37511 2.34101 0
M  V30 2807 C 262.848 0.952668 3.47062 0
M  V30 2808 C 262.456 2.43599 3.75983 0
M  V30 2809 C 264.2 0.659103 4.19352 0
M  V30 2810 C 262.107 2.76707 5.22673 0
M  V30 2811 H 261.037 0.206122 0.725279 0
M  V30 2812 H 263.688 1.12637 1.44863 0
M  V30 2813 H 262.07 0.316053 3.94737 0
M  V30 2814 H 263.244 3.12035 3.39073 0
M  V30 2815 H 261.559 2.70125 3.16893 0
M  V30 2816 H 264.156 0.882985 5.27359 0
M  V30 2817 H 264.499 -0.403607 4.14339 0
M  V30 2818 H 265.032 1.25473 3.77494 0
M  V30 2819 H 261.771 3.8188 5.32774 0
M  V30 2820 H 261.291 2.12919 5.60737 0
M  V30 2821 H 262.97 2.6435 5.90532 0
M  V30 2822 N 263.102 -1.41638 0.69111 0
M  V30 2823 C 264.012 -2.34588 0.0233487 0
M  V30 2824 C 265.028 -1.55987 -0.770984 0
M  V30 2825 O 266.204 -1.88486 -0.709569 0
M  V30 2826 C 263.269 -3.34684 -0.904851 0
M  V30 2827 C 262.33 -4.29176 -0.103225 0
M  V30 2828 C 261.563 -5.2449 -0.987216 0
M  V30 2829 O 261.786 -5.2514 -2.22674 0
M  V30 2830 O 260.72 -6.00295 -0.439281 0
M  V30 2831 H 264.546 -2.93261 0.789416 0
M  V30 2832 H 262.131 -1.42417 0.45142 0
M  V30 2833 H 264.013 -3.96133 -1.43724 0
M  V30 2834 H 262.688 -2.78461 -1.65049 0
M  V30 2835 H 261.595 -3.71089 0.473655 0
M  V30 2836 H 262.928 -4.88484 0.60365 0
M  V30 2837 N 264.58 -0.43555 -1.51462 0
M  V30 2838 C 265.51 0.367376 -2.30592 0
M  V30 2839 C 266.491 1.02263 -1.35928 0
M  V30 2840 O 267.676 1.02661 -1.64847 0
M  V30 2841 C 264.806 1.46983 -3.14664 0
M  V30 2842 C 263.76 0.938161 -4.17591 0
M  V30 2843 C 263.086 2.13622 -4.90173 0
M  V30 2844 C 264.386 -0.0261621 -5.22293 0
M  V30 2845 H 266.08 -0.292969 -2.97963 0
M  V30 2846 H 263.626 -0.14234 -1.43295 0
M  V30 2847 H 265.579 2.03873 -3.688 0
M  V30 2848 H 264.303 2.15843 -2.4511 0
M  V30 2849 H 262.962 0.391481 -3.64504 0
M  V30 2850 H 262.61 2.81098 -4.17124 0
M  V30 2851 H 262.31 1.78688 -5.59772 0
M  V30 2852 H 263.834 2.7107 -5.47132 0
M  V30 2853 H 265.248 0.452384 -5.71512 0
M  V30 2854 H 263.645 -0.287992 -5.99409 0
M  V30 2855 H 264.715 -0.963391 -4.75233 0
M  V30 2856 N 266.058 1.56714 -0.166846 0
M  V30 2857 C 267.021 2.16539 0.751232 0
M  V30 2858 C 268.021 1.11228 1.16125 0
M  V30 2859 O 269.211 1.36765 1.07894 0
M  V30 2860 C 266.343 2.74462 2.02196 0
M  V30 2861 H 267.536 2.99013 0.230499 0
M  V30 2862 H 265.089 1.56081 0.0826982 0
M  V30 2863 H 265.824 1.95709 2.58589 0
M  V30 2864 H 265.609 3.51527 1.73698 0
M  V30 2865 H 267.099 3.20489 2.67725 0
M  V30 2866 N 267.536 -0.106894 1.57237 0
M  V30 2867 C 268.783 -0.812526 1.85484 0
M  V30 2868 C 269.111 -1.79304 0.753687 0
M  V30 2869 O 268.366 -1.94047 -0.253853 0
M  V30 2870 C 268.665 -1.58628 3.20268 0
M  V30 2871 C 268.331 -0.748967 4.44636 0
M  V30 2872 C 266.993 -0.518104 4.78403 0
M  V30 2873 C 269.345 -0.166122 5.20935 0
M  V30 2874 C 266.673 0.305659 5.85903 0
M  V30 2875 C 269.025 0.644899 6.29304 0
M  V30 2876 C 267.689 0.885965 6.61594 0
M  V30 2877 H 266.959 -0.297324 0.678734 0
M  V30 2878 H 269.606 -0.0744332 1.91355 0
M  V30 2879 H 267.911 -2.39562 3.10028 0
M  V30 2880 H 269.608 -2.13643 3.39349 0
M  V30 2881 H 266.198 -0.939006 4.18187 0
M  V30 2882 H 270.382 -0.33167 4.95191 0
M  V30 2883 H 265.638 0.501528 6.0934 0
M  V30 2884 H 269.812 1.10345 6.87602 0
M  V30 2885 H 267.439 1.52609 7.44725 0
M  V30 2886 N 269.014 -1.53014 -0.377408 0
M  V30 2887 C 270.291 -1.59215 -1.13622 0
M  V30 2888 C 270.671 -0.392407 -2.07421 0
M  V30 2889 O 270.019 0.618342 -2.19975 0
M  V30 2890 C 270.229 -2.93669 -1.88573 0
M  V30 2891 C 271.577 -3.47822 -2.43526 0
M  V30 2892 O 272.601 -2.9562 -1.98715 0
M  V30 2893 O 271.46 -4.39055 -3.25412 0
M  V30 2894 H 268.554 -0.642625 -0.52054 0
M  V30 2895 H 271.1 -1.65353 -0.381625 0
M  V30 2896 H 269.872 -3.7243 -1.20048 0
M  V30 2897 H 269.495 -2.90968 -2.70968 0
M  V30 2898 N 270.492 0.636531 -1.44174 0
M  V30 2899 C 271.402 1.77754 -1.53103 0
M  V30 2900 C 272.418 1.68928 -0.417034 0
M  V30 2901 O 273.594 1.89801 -0.6736 0
M  V30 2902 C 270.659 3.14115 -1.46741 0
M  V30 2903 C 269.72 3.34612 -2.68948 0
M  V30 2904 C 268.953 4.64467 -2.6288 0
M  V30 2905 O 269.176 5.44919 -1.68581 0
M  V30 2906 O 268.11 4.87049 -3.53648 0
M  V30 2907 H 271.936 1.73174 -2.49489 0
M  V30 2908 H 269.521 0.79709 -1.2636 0
M  V30 2909 H 271.403 3.95412 -1.45696 0
M  V30 2910 H 270.078 3.19249 -0.534975 0
M  V30 2911 H 268.985 2.53014 -2.75562 0
M  V30 2912 H 270.318 3.34336 -3.61221 0
M  V30 2913 N 271.97 1.30982 0.876444 0
M  V30 2914 C 273.216 1.21484 1.63136 0
M  V30 2915 C 273.571 -0.226339 1.91064 0
M  V30 2916 O 272.864 -1.15788 1.52656 0
M  V30 2917 C 273.058 1.98572 2.9716 0
M  V30 2918 C 272.887 3.50039 2.82317 0
M  V30 2919 C 271.657 4.19393 2.81847 0
M  V30 2920 C 273.855 4.45111 2.57644 0
M  V30 2921 N 271.837 5.57061 2.57985 0
M  V30 2922 C 273.208 5.70402 2.42986 0
M  V30 2923 C 275.263 4.3461 2.42937 0
M  V30 2924 C 273.966 6.8638 2.15115 0
M  V30 2925 C 275.992 5.50365 2.16454 0
M  V30 2926 C 275.354 6.74642 2.02578 0
M  V30 2927 H 271.453 0.499632 0.601575 0
M  V30 2928 H 274.037 1.65094 1.03209 0
M  V30 2929 H 272.208 1.5734 3.55104 0
M  V30 2930 H 273.94 1.81146 3.61895 0
M  V30 2931 H 270.695 3.71303 2.93991 0
M  V30 2932 H 271.119 6.29529 2.49043 0
M  V30 2933 H 275.761 3.39199 2.52396 0
M  V30 2934 H 273.479 7.81824 2.04394 0
M  V30 2935 H 277.065 5.44154 2.05884 0
M  V30 2936 H 275.945 7.62699 1.82374 0
M  V30 2937 N 273.449 -1.08991 1.13837 0
M  V30 2938 C 274.379 -2.17771 0.842507 0
M  V30 2939 C 275.36 -1.6892 -0.20001 0
M  V30 2940 O 276.545 -1.94113 -0.0579731 0
M  V30 2941 C 273.675 -3.4589 0.312644 0
M  V30 2942 C 272.629 -4.08099 1.28992 0
M  V30 2943 C 271.955 -5.31098 0.619623 0
M  V30 2944 C 273.255 -4.50077 2.65005 0
M  V30 2945 H 274.949 -2.42777 1.75213 0
M  V30 2946 H 272.495 -1.16682 0.843875 0
M  V30 2947 H 274.448 -4.21297 0.0933043 0
M  V30 2948 H 273.172 -3.20419 -0.632382 0
M  V30 2949 H 271.831 -3.34717 1.49533 0
M  V30 2950 H 271.479 -5.0191 -0.33102 0
M  V30 2951 H 271.179 -5.73674 1.27167 0
M  V30 2952 H 272.703 -6.09224 0.409669 0
M  V30 2953 H 274.117 -5.16688 2.48407 0
M  V30 2954 H 272.514 -5.03553 3.26427 0
M  V30 2955 H 273.584 -3.62257 3.22332 0
M  V30 2956 N 274.927 -0.932562 -1.27047 0
M  V30 2957 C 275.89 -0.440064 -2.24936 0
M  V30 2958 C 276.89 0.444071 -1.54547 0
M  V30 2959 O 278.08 0.244465 -1.72476 0
M  V30 2960 C 275.212 0.36678 -3.38921 0
M  V30 2961 H 276.405 -1.305 -2.70018 0
M  V30 2962 H 273.958 -0.713707 -1.39054 0
M  V30 2963 H 274.693 1.25033 -2.99228 0
M  V30 2964 H 274.478 -0.267204 -3.91188 0
M  V30 2965 H 275.968 0.701567 -4.11665 0
M  V30 2966 N 276.405 1.4127 -0.698611 0
M  V30 2967 C 277.653 2.00782 -0.230409 0
M  V30 2968 C 277.974 1.5562 1.17505 0
M  V30 2969 O 277.244 0.78815 1.79346 0
M  V30 2970 H 275.824 0.742464 -0.0821944 0
M  V30 2971 H 278.486 1.72852 -0.90045 0
M  V30 2972 H 277.582 3.11095 -0.25021 0
M  V30 2973 N 277.883 0.443576 1.51229 0
M  V30 2974 C 279.129 -0.120975 2.02439 0
M  V30 2975 C 279.462 -1.41815 1.32674 0
M  V30 2976 O 278.737 -1.89373 0.443622 0
M  V30 2977 C 279.02 -0.333291 3.58554 0
M  V30 2978 C 278.873 0.982968 4.38928 0
M  V30 2979 C 280.192 -1.10028 4.26124 0
M  V30 2980 H 277.311 -0.0424923 0.735774 0
M  V30 2981 H 279.953 0.583794 1.80809 0
M  V30 2982 H 278.103 -0.933614 3.77115 0
M  V30 2983 H 279.775 1.61775 4.32003 0
M  V30 2984 H 278.018 1.58611 4.03763 0
M  V30 2985 H 278.689 0.788379 5.46341 0
M  V30 2986 H 281.165 -0.591711 4.11871 0
M  V30 2987 H 280.041 -1.21761 5.35225 0
M  V30 2988 H 280.302 -2.12996 3.87408 0
M  V30 2989 N 279.361 -1.56624 0.175154 0
M  V30 2990 C 280.772 -1.83561 -0.340916 0
M  V30 2991 C 281.123 -1.09511 -1.62794 0
M  V30 2992 O 280.248 -0.349389 -2.13561 0
M  V30 2993 C 280.843 -3.32979 -0.625313 0
M  V30 2994 C 279.402 -3.60399 -1.08581 0
M  V30 2995 C 278.549 -2.77024 -0.123722 0
M  V30 2996 H 281.5 -1.53593 0.399344 0
M  V30 2997 H 281.521 -3.50666 -1.47694 0
M  V30 2998 H 281.033 -3.86847 0.311575 0
M  V30 2999 H 279.134 -3.11945 -2.03767 0
M  V30 3000 H 279.247 -4.68711 -0.992317 0
M  V30 3001 H 277.611 -2.46993 -0.621821 0
M  V30 3002 H 278.394 -3.33674 0.807256 0
M  V30 3003 N 280.839 0.0985539 -1.57292 0
M  V30 3004 C 282.087 0.801092 -1.85545 0
M  V30 3005 C 282.408 1.79438 -0.763353 0
M  V30 3006 O 281.678 1.94763 0.21073 0
M  V30 3007 H 280.258 0.29884 -0.684619 0
M  V30 3008 H 282.92 0.0810064 -1.94732 0
M  V30 3009 H 282.016 1.3338 -2.82163 0
M  V30 3010 N 282.317 1.53212 0.369288 0
M  V30 3011 C 283.264 1.79388 1.45219 0
M  V30 3012 C 284.234 0.638059 1.53356 0
M  V30 3013 O 285.419 0.879852 1.69302 0
M  V30 3014 C 282.559 1.98623 2.82211 0
M  V30 3015 C 281.672 3.26337 2.8307 0
M  V30 3016 C 280.807 3.35779 4.11614 0
M  V30 3017 C 279.846 4.5754 4.06601 0
M  V30 3018 N 278.983 4.64155 5.26787 0
M  V30 3019 H 283.823 2.71794 1.22198 0
M  V30 3020 H 281.36 1.34642 0.592444 0
M  V30 3021 H 283.318 2.07761 3.61789 0
M  V30 3022 H 281.948 1.09558 3.03639 0
M  V30 3023 H 281 3.26171 1.95747 0
M  V30 3024 H 282.312 4.15988 2.75237 0
M  V30 3025 H 281.466 3.44208 4.99606 0
M  V30 3026 H 280.205 2.44137 4.22195 0
M  V30 3027 H 279.21 4.49215 3.16996 0
M  V30 3028 H 280.435 5.50519 3.97625 0
M  V30 3029 H 278.381 3.75413 5.3796 0
M  V30 3030 H 278.298 5.47706 5.21109 0
M  V30 3031 H 279.566 4.76863 6.16621 0
M  V30 3032 N 283.795 -0.628877 1.44509 0
M  V30 3033 C 285.211 -0.947305 1.28446 0
M  V30 3034 C 285.411 -2.00275 0.221872 0
M  V30 3035 O 284.467 -2.49447 -0.391471 0
M  V30 3036 C 285.78 -1.40843 2.65676 0
M  V30 3037 C 287.328 -1.52379 2.73404 0
M  V30 3038 C 287.803 -2.01875 4.11109 0
M  V30 3039 N 289.294 -2.09142 4.13296 0
M  V30 3040 C 290.029 -2.48615 5.16699 0
M  V30 3041 N 289.525 -2.87209 6.30462 0
M  V30 3042 N 291.318 -2.48768 5.04054 0
M  V30 3043 H 283.469 0.0690977 2.12288 0
M  V30 3044 H 285.732 -0.0317164 0.947469 0
M  V30 3045 H 285.438 -0.707206 3.44516 0
M  V30 3046 H 285.312 -2.37902 2.92716 0
M  V30 3047 H 287.699 -2.21598 1.9488 0
M  V30 3048 H 287.78 -0.536898 2.50102 0
M  V30 3049 H 287.424 -1.3325 4.90109 0
M  V30 3050 H 287.354 -3.0144 4.31789 0
M  V30 3051 H 289.845 -1.81991 3.31191 0
M  V30 3052 H 290.158 -3.16149 7.05174 0
M  V30 3053 H 288.503 -2.84955 6.33897 0
M  V30 3054 H 291.694 -2.18009 4.14234 0
M  V30 3055 H 291.867 -2.79207 5.84763 0
M  V30 3056 N 285.273 -1.31445 -0.869486 0
M  V30 3057 C 286.205 -1.14955 -1.98287 0
M  V30 3058 C 287.218 -0.0885037 -1.62559 0
M  V30 3059 O 288.407 -0.336044 -1.75308 0
M  V30 3060 C 285.507 -0.734255 -3.3085 0
M  V30 3061 C 284.68 -1.88042 -3.94917 0
M  V30 3062 C 283.739 -1.4511 -5.05796 0
M  V30 3063 O 282.765 -2.16082 -5.2659 0
M  V30 3064 N 283.967 -0.338763 -5.79511 0
M  V30 3065 H 286.732 -2.10856 -2.12979 0
M  V30 3066 H 284.293 -1.23786 -1.04349 0
M  V30 3067 H 286.285 -0.42975 -4.02412 0
M  V30 3068 H 284.855 0.133158 -3.12316 0
M  V30 3069 H 284.075 -2.35222 -3.1633 0
M  V30 3070 H 285.363 -2.6481 -4.34457 0
M  V30 3071 H 284.761 0.252274 -5.65137 0
M  V30 3072 H 283.318 -0.0937925 -6.51733 0
M  V30 3073 N 286.751 1.08385 -1.14413 0
M  V30 3074 C 287.997 1.81044 -0.913834 0
M  V30 3075 C 288.33 1.86004 0.558209 0
M  V30 3076 O 287.605 1.33606 1.4135 0
M  V30 3077 C 287.888 3.26648 -1.51569 0
M  V30 3078 C 287.741 3.29895 -3.0576 0
M  V30 3079 C 289.06 4.23629 -1.19273 0
M  V30 3080 H 286.179 0.65727 -0.333414 0
M  V30 3081 H 288.821 1.26896 -1.41412 0
M  V30 3082 H 286.971 3.72889 -1.09023 0
M  V30 3083 H 288.643 2.91977 -3.57137 0
M  V30 3084 H 286.886 2.69163 -3.40197 0
M  V30 3085 H 287.557 4.32516 -3.42977 0
M  V30 3086 H 290.033 3.85727 -1.56057 0
M  V30 3087 H 288.909 5.23822 -1.64017 0
M  V30 3088 H 289.17 4.41968 -0.108068 0
M  V30 3089 N 288.23 0.939286 1.26551 0
M  V30 3090 C 289.16 0.465044 2.28822 0
M  V30 3091 C 290.141 -0.480692 1.63167 0
M  V30 3092 O 291.326 -0.382955 1.90387 0
M  V30 3093 C 288.456 -0.27234 3.46231 0
M  V30 3094 C 287.41 0.58666 4.2396 0
M  V30 3095 C 286.736 -0.280573 5.33963 0
M  V30 3096 C 288.036 1.85704 4.88171 0
M  V30 3097 H 289.73 1.31979 2.68741 0
M  V30 3098 H 287.276 0.636061 1.29191 0
M  V30 3099 H 289.229 -0.615133 4.16886 0
M  V30 3100 H 287.953 -1.16121 3.0526 0
M  V30 3101 H 286.612 0.91232 3.55067 0
M  V30 3102 H 286.26 -1.16874 4.89234 0
M  V30 3103 H 285.96 0.29076 5.8688 0
M  V30 3104 H 287.484 -0.618678 6.07458 0
M  V30 3105 H 288.898 1.58161 5.51052 0
M  V30 3106 H 287.295 2.37279 5.51197 0
M  V30 3107 H 288.365 2.56957 4.11219 0
M  V30 3108 N 289.708 -1.40897 0.706093 0
M  V30 3109 C 290.655 -2.30751 0.0474474 0
M  V30 3110 C 291.625 -1.47678 -0.76029 0
M  V30 3111 O 292.81 -1.76441 -0.726177 0
M  V30 3112 C 289.95 -3.33815 -0.875309 0
M  V30 3113 C 289.063 -4.31961 -0.0580623 0
M  V30 3114 C 288.198 -5.22093 -0.979425 0
M  V30 3115 C 287.237 -6.11902 -0.155706 0
M  V30 3116 N 286.374 -6.94482 -1.03144 0
M  V30 3117 H 291.214 -2.86513 0.819413 0
M  V30 3118 H 288.751 -1.41102 0.415783 0
M  V30 3119 H 290.709 -3.92129 -1.42446 0
M  V30 3120 H 289.339 -2.79579 -1.61356 0
M  V30 3121 H 288.391 -3.75507 0.608147 0
M  V30 3122 H 289.703 -4.95415 0.580082 0
M  V30 3123 H 288.857 -5.85292 -1.59744 0
M  V30 3124 H 287.596 -4.5889 -1.65141 0
M  V30 3125 H 286.601 -5.47742 0.475309 0
M  V30 3126 H 287.826 -6.77162 0.512635 0
M  V30 3127 H 285.772 -6.33877 -1.68924 0
M  V30 3128 H 285.689 -7.54665 -0.449108 0
M  V30 3129 H 286.957 -7.6214 -1.63593 0
M  V30 3130 N 291.186 -0.45159 -1.50991 0
M  V30 3131 C 292.463 0.170707 -1.94854 0
M  V30 3132 C 292.843 1.58788 -1.39103 0
M  V30 3133 O 292.191 2.20913 -0.583921 0
M  V30 3134 C 292.401 0.133929 -3.48743 0
M  V30 3135 C 293.749 0.33248 -4.23296 0
M  V30 3136 O 294.773 0.211403 -3.55572 0
M  V30 3137 O 293.632 0.57486 -5.43468 0
M  V30 3138 H 290.726 0.122264 -0.817912 0
M  V30 3139 H 293.272 -0.510594 -1.61836 0
M  V30 3140 H 292.044 -0.856283 -3.81816 0
M  V30 3141 H 291.667 0.857529 -3.88242 0
M  V30 3142 N 292.664 1.56529 -0.183458 0
M  V30 3143 C 294.08 1.58664 0.172554 0
M  V30 3144 C 294.28 1.19925 1.61926 0
M  V30 3145 O 293.336 0.916534 2.35278 0
M  V30 3146 C 294.649 3.00463 -0.119262 0
M  V30 3147 C 296.197 3.12945 -0.0584396 0
M  V30 3148 C 296.672 4.56857 -0.323408 0
M  V30 3149 N 298.163 4.62403 -0.271612 0
M  V30 3150 C 298.898 5.71626 -0.450639 0
M  V30 3151 N 298.394 6.89362 -0.689384 0
M  V30 3152 N 300.187 5.60775 -0.385701 0
M  V30 3153 H 292.338 1.79994 -1.12765 0
M  V30 3154 H 294.601 0.834808 -0.449222 0
M  V30 3155 H 294.307 3.33326 -1.12192 0
M  V30 3156 H 294.181 3.72659 0.583544 0
M  V30 3157 H 296.568 2.79902 0.934805 0
M  V30 3158 H 296.649 2.4316 -0.794144 0
M  V30 3159 H 296.293 4.9061 -1.31392 0
M  V30 3160 H 296.223 5.24816 0.43305 0
M  V30 3161 H 298.714 3.77785 -0.0932256 0
M  V30 3162 H 299.027 7.68489 -0.815113 0
M  V30 3163 H 297.372 6.91196 -0.726142 0
M  V30 3164 H 300.563 4.67674 -0.199687 0
M  V30 3165 H 300.736 6.4584 -0.528646 0
M  V30 3166 N 294.142 -0.090211 1.57342 0
M  V30 3167 C 295.558 -0.444547 1.53284 0
M  V30 3168 C 295.758 -1.80238 0.900914 0
M  V30 3169 O 294.814 -2.4759 0.495513 0
M  V30 3170 C 296.127 -0.402543 2.97993 0
M  V30 3171 C 297.675 -0.48405 3.09234 0
M  V30 3172 C 298.15 -0.472144 4.5556 0
M  V30 3173 N 299.641 -0.532757 4.60126 0
M  V30 3174 C 300.376 -0.545462 5.708 0
M  V30 3175 N 299.872 -0.514082 6.9089 0
M  V30 3176 N 301.665 -0.59064 5.58988 0
M  V30 3177 H 293.816 0.799121 1.96794 0
M  V30 3178 H 296.079 0.297965 0.899956 0
M  V30 3179 H 295.785 0.528106 3.47712 0
M  V30 3180 H 295.659 -1.21969 3.56936 0
M  V30 3181 H 298.046 -1.40512 2.595 0
M  V30 3182 H 298.127 0.361328 2.53235 0
M  V30 3183 H 297.771 0.445 5.05947 0
M  V30 3184 H 297.701 -1.3348 5.09402 0
M  V30 3185 H 300.192 -0.562006 3.73698 0
M  V30 3186 H 300.505 -0.527195 7.71 0
M  V30 3187 H 298.85 -0.481054 6.93333 0
M  V30 3188 H 302.041 -0.61272 4.64073 0
M  V30 3189 H 302.214 -0.597073 6.45243 0
M  V30 3190 N 295.62 -1.53406 -0.361157 0
M  V30 3191 C 296.868 -1.69467 -1.10115 0
M  V30 3192 C 297.189 -0.451352 -1.89705 0
M  V30 3193 O 296.459 0.534636 -1.88463 0
M  V30 3194 H 295.039 -0.624749 -0.409508 0
M  V30 3195 H 297.701 -1.90609 -0.406699 0
M  V30 3196 H 296.797 -2.55774 -1.78847 0
M  V30 3197 N 297.098 0.621204 -1.44841 0
M  V30 3198 C 298.514 0.94048 -1.28946 0
M  V30 3199 C 298.714 2.00154 -0.23249 0
M  V30 3200 O 297.77 2.49651 0.378237 0
M  V30 3201 C 299.083 1.39433 -2.66419 0
M  V30 3202 C 300.631 1.50927 -2.74208 0
M  V30 3203 C 301.106 1.99692 -4.12174 0
M  V30 3204 N 302.597 2.06947 -4.144 0
M  V30 3205 C 303.332 2.45871 -5.1801 0
M  V30 3206 N 302.828 2.83862 -6.31977 0
M  V30 3207 N 304.621 2.46092 -5.05366 0
M  V30 3208 H 296.772 -0.0803548 -2.12248 0
M  V30 3209 H 299.035 0.0266913 -0.947624 0
M  V30 3210 H 298.741 0.688925 -3.44887 0
M  V30 3211 H 298.615 2.36347 -2.93973 0
M  V30 3212 H 301.002 2.20561 -1.96053 0
M  V30 3213 H 301.083 0.523627 -2.50383 0
M  V30 3214 H 300.727 1.30649 -4.90809 0
M  V30 3215 H 300.657 2.99146 -4.33381 0
M  V30 3216 H 303.148 1.80232 -3.32152 0
M  V30 3217 H 303.461 3.12405 -7.0684 0
M  V30 3218 H 301.806 2.8159 -6.35399 0
M  V30 3219 H 304.997 2.1581 -4.15384 0
M  V30 3220 H 305.17 2.76102 -5.86235 0
M  V30 3221 N 298.576 1.31904 0.862503 0
M  V30 3222 C 299.822 1.22197 1.61851 0
M  V30 3223 C 300.155 -0.217641 1.92977 0
M  V30 3224 O 299.43 -1.15264 1.56666 0
M  V30 3225 C 299.713 2.07378 2.94391 0
M  V30 3226 C 299.566 3.59678 2.70096 0
M  V30 3227 C 300.885 1.92891 3.95577 0
M  V30 3228 H 298.004 0.445255 0.587296 0
M  V30 3229 H 300.646 1.6177 0.99651 0
M  V30 3230 H 298.796 1.73758 3.47477 0
M  V30 3231 H 300.468 4.03472 2.23625 0
M  V30 3232 H 298.711 3.82735 2.04197 0
M  V30 3233 H 299.382 4.14595 3.64438 0
M  V30 3234 H 301.858 2.22327 3.51724 0
M  V30 3235 H 300.734 2.54781 4.86187 0
M  V30 3236 H 300.995 0.894315 4.3296 0
M  V30 3237 N 300.054 -1.07777 1.14986 0
M  V30 3238 C 301.303 -1.79669 0.916617 0
M  V30 3239 C 301.616 -1.87474 -0.557917 0
M  V30 3240 O 302.822 -2.55845 -0.908617 0
M  V30 3241 C 301.278 -3.22848 1.59051 0
M  V30 3242 C 300.886 -3.23257 3.10176 0
M  V30 3243 C 302.63 -3.99379 1.43864 0
M  V30 3244 C 300.537 -4.61063 3.70372 0
M  V30 3245 H 299.467 -0.673349 0.33929 0
M  V30 3246 H 302.118 -1.21003 1.37951 0
M  V30 3247 H 300.5 -3.8168 1.0553 0
M  V30 3248 H 301.674 -2.74095 3.70417 0
M  V30 3249 H 299.989 -2.60222 3.25074 0
M  V30 3250 H 302.586 -5.0122 1.86232 0
M  V30 3251 H 302.929 -4.14511 0.385564 0
M  V30 3252 H 303.462 -3.47032 1.94457 0
M  V30 3253 H 300.201 -4.51135 4.7556 0
M  V30 3254 H 299.721 -5.1048 3.14913 0
M  V30 3255 H 301.4 -5.30034 3.71043 0
M  V30 3256 N 301.532 -0.945985 -1.26051 0
M  V30 3257 C 302.479 -0.45809 -2.26208 0
M  V30 3258 C 303.449 0.484816 -1.58867 0
M  V30 3259 O 304.634 0.399969 -1.86561 0
M  V30 3260 C 301.774 0.266131 -3.44072 0
M  V30 3261 C 300.887 -0.713005 -4.26075 0
M  V30 3262 C 300.022 0.0329013 -5.3119 0
M  V30 3263 C 299.061 -0.93774 -6.04874 0
M  V30 3264 N 298.198 -0.223274 -7.01745 0
M  V30 3265 H 303.038 -1.3171 -2.67313 0
M  V30 3266 H 300.575 -0.66069 -1.31428 0
M  V30 3267 H 302.533 0.702514 -4.11243 0
M  V30 3268 H 301.163 1.08925 -3.03867 0
M  V30 3269 H 300.215 -1.26789 -3.58648 0
M  V30 3270 H 301.527 -1.45406 -4.77136 0
M  V30 3271 H 300.681 0.528335 -6.04395 0
M  V30 3272 H 299.42 0.806801 -4.8098 0
M  V30 3273 H 298.425 -1.44425 -5.30492 0
M  V30 3274 H 299.65 -1.71172 -6.57173 0
M  V30 3275 H 297.596 0.532046 -6.53839 0
M  V30 3276 H 297.513 -0.90357 -7.50581 0
M  V30 3277 H 298.781 0.250907 -7.79096 0
M  V30 3278 N 303.011 1.40521 -0.713556 0
M  V30 3279 C 304.288 1.94775 -0.17943 0
M  V30 3280 C 304.668 1.65184 1.31444 0
M  V30 3281 O 304.016 0.968429 2.06963 0
M  V30 3282 C 304.226 3.45543 -0.489986 0
M  V30 3283 C 305.574 4.22442 -0.427536 0
M  V30 3284 O 306.598 3.53644 -0.425929 0
M  V30 3285 O 305.457 5.4501 -0.403292 0
M  V30 3286 H 302.551 0.826606 -0.0255192 0
M  V30 3287 H 305.097 1.5014 -0.790949 0
M  V30 3288 H 303.869 3.60432 -1.5233 0
M  V30 3289 H 303.492 3.97311 0.151598 0
M  V30 3290 N 304.489 0.459591 1.5075 0
M  V30 3291 C 305.735 -0.0994966 2.02556 0
M  V30 3292 C 306.068 -1.40399 1.3417 0
M  V30 3293 O 305.343 -1.88892 0.463683 0
M  V30 3294 C 305.626 -0.295242 3.58888 0
M  V30 3295 C 305.479 1.02947 4.37861 0
M  V30 3296 C 306.798 -1.05502 4.27267 0
M  V30 3297 H 303.917 -0.034686 0.736183 0
M  V30 3298 H 306.559 0.602938 1.8018 0
M  V30 3299 H 304.709 -0.893563 3.78084 0
M  V30 3300 H 306.381 1.66348 4.30263 0
M  V30 3301 H 304.624 1.62885 4.02058 0
M  V30 3302 H 305.295 0.846281 5.45474 0
M  V30 3303 H 307.771 -0.547993 4.12476 0
M  V30 3304 H 306.647 -1.16077 5.36486 0
M  V30 3305 H 306.908 -2.08875 3.89645 0
M  V30 3306 N 305.967 -1.56429 0.191757 0
M  V30 3307 C 306.899 -2.16154 -0.762245 0
M  V30 3308 C 307.912 -1.12247 -1.17917 0
M  V30 3309 O 309.101 -1.39353 -1.11548 0
M  V30 3310 C 306.201 -2.70606 -2.04024 0
M  V30 3311 C 305.374 -3.99381 -1.78364 0
M  V30 3312 C 304.433 -4.38692 -2.90578 0
M  V30 3313 O 303.459 -5.06179 -2.6033 0
M  V30 3314 N 304.661 -4.01922 -4.18854 0
M  V30 3315 H 307.426 -2.98643 -0.251526 0
M  V30 3316 H 304.987 -1.61897 0.00967373 0
M  V30 3317 H 306.979 -2.93891 -2.78227 0
M  V30 3318 H 305.549 -1.9259 -2.46227 0
M  V30 3319 H 304.769 -3.84262 -0.879581 0
M  V30 3320 H 306.057 -4.83445 -1.58614 0
M  V30 3321 H 305.455 -3.47631 -4.46283 0
M  V30 3322 H 304.012 -4.30165 -4.89695 0
M  V30 3323 N 307.445 0.0818655 -1.57387 0
M  V30 3324 C 308.691 0.784074 -1.8703 0
M  V30 3325 C 309.024 1.77729 -0.782689 0
M  V30 3326 O 308.299 1.93384 0.208051 0
M  V30 3327 C 308.582 1.50105 -3.27323 0
M  V30 3328 C 308.435 0.524925 -4.46727 0
M  V30 3329 C 309.754 2.44843 -3.65705 0
M  V30 3330 H 306.873 0.283582 -0.680257 0
M  V30 3331 H 309.515 0.0474352 -1.89941 0
M  V30 3332 H 307.665 2.12897 -3.24972 0
M  V30 3333 H 309.337 -0.0970111 -4.61198 0
M  V30 3334 H 307.58 -0.160606 -4.33503 0
M  V30 3335 H 308.251 1.064 -5.41648 0
M  V30 3336 H 310.727 1.92135 -3.69085 0
M  V30 3337 H 309.603 2.92018 -4.64776 0
M  V30 3338 H 309.864 3.29197 -2.95096 0
M  V30 3339 N 308.923 1.53595 0.353017 0
M  V30 3340 C 310.151 1.74311 1.1146 0
M  V30 3341 C 310.566 0.477854 1.82653 0
M  V30 3342 O 309.923 -0.549977 1.74016 0
M  V30 3343 C 309.974 2.91694 2.13534 0
M  V30 3344 O 309.695 4.13325 1.45238 0
M  V30 3345 C 311.196 3.24384 3.02142 0
M  V30 3346 H 308.416 0.582669 0.332773 0
M  V30 3347 H 310.96 2.00386 0.408107 0
M  V30 3348 H 309.115 2.67977 2.79763 0
M  V30 3349 H 309.529 4.79148 2.13349 0
M  V30 3350 H 311.003 4.09893 3.69718 0
M  V30 3351 H 311.48 2.40282 3.67643 0
M  V30 3352 H 312.086 3.50073 2.41514 0
M  V30 3353 N 310.401 -0.613514 1.45168 0
M  V30 3354 C 311.348 -1.72456 1.53387 0
M  V30 3355 C 312.318 -1.6169 0.380191 0
M  V30 3356 O 313.503 -1.81356 0.592836 0
M  V30 3357 C 310.643 -3.10753 1.50088 0
M  V30 3358 C 309.756 -3.32368 2.75963 0
M  V30 3359 C 308.891 -4.60737 2.64376 0
M  V30 3360 C 307.93 -4.7559 3.85332 0
M  V30 3361 N 307.067 -5.95253 3.72315 0
M  V30 3362 H 311.907 -1.64768 2.48305 0
M  V30 3363 H 309.444 -0.803503 1.23216 0
M  V30 3364 H 311.402 -3.90758 1.46164 0
M  V30 3365 H 310.032 -3.17413 0.587243 0
M  V30 3366 H 309.084 -2.4618 2.89999 0
M  V30 3367 H 310.396 -3.39218 3.65695 0
M  V30 3368 H 309.55 -5.48928 2.58385 0
M  V30 3369 H 308.289 -4.56275 1.72233 0
M  V30 3370 H 307.294 -3.85824 3.91688 0
M  V30 3371 H 308.519 -4.81854 4.78533 0
M  V30 3372 H 306.465 -5.91847 2.82937 0
M  V30 3373 H 306.382 -6.03236 4.55677 0
M  V30 3374 H 307.65 -6.85958 3.70246 0
M  V30 3375 N 311.879 -1.3236 -0.855495 0
M  V30 3376 C 312.827 -1.2118 -1.9854 0
M  V30 3377 C 313.821 -0.116788 -1.68997 0
M  V30 3378 O 315.027 -0.279657 -1.77814 0
M  V30 3379 H 311.402 -0.375608 -0.651477 0
M  V30 3380 H 313.373 -2.16743 -2.05098 0
M  V30 3381 C 312.122 -0.950849 -3.34446 0
M  V30 3382 H 311.445 -1.78563 -3.57708 0
M  V30 3383 H 312.885 -0.912863 -4.14057 0
M  V30 3384 C 311.344 0.346404 -3.35114 0
M  V30 3385 O 311.874 1.35855 -3.7803 0
M  V30 3386 N 310.08 0.36808 -2.88259 0
M  V30 3387 H 309.627 -0.456102 -2.5353 0
M  V30 3388 H 309.585 1.23591 -2.89089 0
M  V30 3389 N 313.357 1.07166 -1.15556 0
M  V30 3390 C 314.32 2.12589 -0.856644 0
M  V30 3391 C 315.32 1.6015 0.14444 0
M  V30 3392 O 316.51 1.7399 -0.0854163 0
M  V30 3393 C 313.642 3.39753 -0.279405 0
M  V30 3394 H 314.835 2.40539 -1.79112 0
M  V30 3395 H 312.388 1.23086 -0.963298 0
M  V30 3396 H 313.123 3.17447 0.663174 0
M  V30 3397 H 312.908 3.79117 -1.00063 0
M  V30 3398 H 314.398 4.17507 -0.0879113 0
M  V30 3399 N 314.835 0.952656 1.25548 0
M  V30 3400 C 315.782 0.47008 2.25962 0
M  V30 3401 C 316.752 -0.476384 1.59122 0
M  V30 3402 O 317.937 -0.39007 1.8677 0
M  V30 3403 C 315.077 -0.247881 3.44209 0
M  V30 3404 C 314.19 0.735591 4.25691 0
M  V30 3405 C 313.325 -0.0047306 5.312 0
M  V30 3406 C 312.364 0.969805 6.04368 0
M  V30 3407 N 311.501 0.260486 7.01617 0
M  V30 3408 H 316.341 1.33126 2.66611 0
M  V30 3409 H 313.878 0.66765 1.31076 0
M  V30 3410 H 315.836 -0.680695 4.1161 0
M  V30 3411 H 314.466 -1.07312 3.0444 0
M  V30 3412 H 313.518 1.28689 3.57971 0
M  V30 3413 H 314.83 1.47934 4.76358 0
M  V30 3414 H 313.984 -0.496275 6.04667 0
M  V30 3415 H 312.723 -0.781282 4.81401 0
M  V30 3416 H 311.728 1.47237 5.29718 0
M  V30 3417 H 312.953 1.74655 6.56256 0
M  V30 3418 H 310.899 -0.497364 6.54112 0
M  V30 3419 H 310.816 0.943362 7.50091 0
M  V30 3420 H 312.084 -0.209587 7.79218 0
M  V30 3421 N 316.313 -1.40141 0.720998 0
M  V30 3422 C 317.724 -1.83678 0.334553 0
M  V30 3423 C 318.075 -1.6027 -1.13173 0
M  V30 3424 O 317.2 -1.08643 -1.87152 0
M  V30 3425 C 317.795 -3.33437 0.600437 0
M  V30 3426 C 316.354 -3.75447 0.267642 0
M  V30 3427 C 315.501 -2.63296 0.870097 0
M  V30 3428 H 318.452 -1.29331 0.919732 0
M  V30 3429 H 318.473 -3.80269 -0.132517 0
M  V30 3430 H 317.985 -3.50442 1.66768 0
M  V30 3431 H 316.086 -3.64035 -0.794329 0
M  V30 3432 H 316.199 -4.73344 0.74042 0
M  V30 3433 H 314.563 -2.52954 0.297739 0
M  V30 3434 H 315.346 -2.83112 1.94172 0
M  V30 3435 N 317.792 -0.46758 -1.50504 0
M  V30 3436 C 319.04 0.0884469 -2.01906 0
M  V30 3437 C 319.361 1.40532 -1.35188 0
M  V30 3438 O 318.631 1.89515 -0.496079 0
M  V30 3439 H 317.211 0.0356765 -0.746148 0
M  V30 3440 H 319.873 -0.6172 -1.84869 0
M  V30 3441 H 318.969 0.2425 -3.11156 0
M  V30 3442 N 319.27 1.56325 -0.20005 0
M  V30 3443 C 320.217 2.1932 0.718833 0
M  V30 3444 C 321.187 1.14198 1.20615 0
M  V30 3445 O 322.372 1.42469 1.26914 0
M  V30 3446 C 319.512 2.86041 1.93066 0
M  V30 3447 C 318.625 4.05702 1.48425 0
M  V30 3448 C 317.76 4.60266 2.65196 0
M  V30 3449 C 316.799 5.72273 2.17185 0
M  V30 3450 N 315.936 6.21221 3.27152 0
M  V30 3451 H 320.776 2.97486 0.17489 0
M  V30 3452 H 318.313 1.46911 0.0745794 0
M  V30 3453 H 320.271 3.22897 2.64184 0
M  V30 3454 H 318.901 2.1043 2.44783 0
M  V30 3455 H 317.953 3.74475 0.668755 0
M  V30 3456 H 319.265 4.86699 1.09204 0
M  V30 3457 H 318.419 4.99453 3.4443 0
M  V30 3458 H 317.158 3.78386 3.07693 0
M  V30 3459 H 316.163 5.3261 1.36407 0
M  V30 3460 H 317.388 6.55974 1.75713 0
M  V30 3461 H 315.334 5.42263 3.69171 0
M  V30 3462 H 315.251 6.97284 2.92116 0
M  V30 3463 H 316.519 6.65063 4.06585 0
M  V30 3464 N 320.748 -0.0735177 1.57428 0
M  V30 3465 C 321.976 -0.785969 1.9139 0
M  V30 3466 C 322.391 -1.71207 0.795847 0
M  V30 3467 O 321.748 -1.81033 -0.230915 0
M  V30 3468 C 321.799 -1.58107 3.25091 0
M  V30 3469 O 321.52 -0.6922 4.32597 0
M  V30 3470 C 323.021 -2.39467 3.73055 0
M  V30 3471 H 320.241 -0.223558 0.632663 0
M  V30 3472 H 322.785 -0.044302 2.04452 0
M  V30 3473 H 320.94 -2.27503 3.13562 0
M  V30 3474 H 321.354 -1.24504 5.09508 0
M  V30 3475 H 322.828 -2.90716 4.69242 0
M  V30 3476 H 323.305 -3.18913 3.01979 0
M  V30 3477 H 323.911 -1.7523 3.87523 0
M  V30 3478 N 322.226 -1.5378 -0.344866 0
M  V30 3479 C 323.156 -1.84662 -1.42906 0
M  V30 3480 C 324.137 -0.701648 -1.54955 0
M  V30 3481 O 325.322 -0.953438 -1.69184 0
M  V30 3482 C 322.452 -2.05503 -2.79974 0
M  V30 3483 C 321.406 -3.21318 -2.82734 0
M  V30 3484 C 320.732 -3.2749 -4.22675 0
M  V30 3485 C 322.032 -4.59456 -2.48389 0
M  V30 3486 H 323.726 -2.75461 -1.17311 0
M  V30 3487 H 321.272 -1.32542 -0.562896 0
M  V30 3488 H 323.225 -2.25691 -3.55867 0
M  V30 3489 H 321.949 -1.11434 -3.07002 0
M  V30 3490 H 320.608 -3.00984 -2.09294 0
M  V30 3491 H 320.256 -2.31019 -4.4681 0
M  V30 3492 H 319.956 -4.05316 -4.25433 0
M  V30 3493 H 321.48 -3.49887 -5.00412 0
M  V30 3494 H 322.894 -4.79667 -3.13995 0
M  V30 3495 H 321.291 -5.39675 -2.62432 0
M  V30 3496 H 322.361 -4.63155 -1.4358 0
M  V30 3497 N 323.704 0.605807 -1.45491 0
M  V30 3498 C 324.667 1.69836 -1.5391 0
M  V30 3499 C 325.667 1.55261 -0.418424 0
M  V30 3500 O 326.857 1.60296 -0.681965 0
M  V30 3501 C 323.989 3.09117 -1.43734 0
M  V30 3502 H 325.182 1.63738 -2.51257 0
M  V30 3503 H 322.735 0.821689 -1.32959 0
M  V30 3504 H 323.47 3.20791 -0.475788 0
M  V30 3505 H 323.255 3.21104 -2.25021 0
M  V30 3506 H 324.745 3.88696 -1.52661 0
M  V30 3507 N 325.182 1.32811 0.848464 0
M  V30 3508 C 326.112 1.24882 1.97299 0
M  V30 3509 C 327.093 0.131357 1.69592 0
M  V30 3510 O 328.278 0.319553 1.91553 0
M  V30 3511 C 325.408 0.97746 3.33261 0
M  V30 3512 C 324.362 2.05682 3.75338 0
M  V30 3513 C 323.688 1.63777 5.09 0
M  V30 3514 C 324.988 3.47254 3.90144 0
M  V30 3515 H 326.682 2.18966 2.04191 0
M  V30 3516 H 324.228 1.05413 0.981029 0
M  V30 3517 H 326.181 0.908513 4.1149 0
M  V30 3518 H 324.905 0.000980011 3.266 0
M  V30 3519 H 323.564 2.11603 2.99366 0
M  V30 3520 H 323.212 0.648569 4.98801 0
M  V30 3521 H 322.912 2.36 5.38124 0
M  V30 3522 H 324.436 1.5833 5.89715 0
M  V30 3523 H 325.85 3.43888 4.58709 0
M  V30 3524 H 324.247 4.1788 4.30693 0
M  V30 3525 H 325.317 3.86462 2.92874 0
M  V30 3526 N 326.66 -1.06551 1.16123 0
M  V30 3527 C 327.885 -1.83544 0.965735 0
M  V30 3528 C 328.31 -1.81843 -0.481102 0
M  V30 3529 O 327.668 -1.21732 -1.34354 0
M  V30 3530 C 327.716 -3.28169 1.49457 0
M  V30 3531 O 326.82 -4.0643 0.699157 0
M  V30 3532 H 326.161 -0.568026 0.343864 0
M  V30 3533 H 328.691 -1.34362 1.54299 0
M  V30 3534 H 328.701 -3.78992 1.51092 0
M  V30 3535 H 327.376 -3.28722 2.54784 0
M  V30 3536 H 325.953 -3.65216 0.7531 0
M  V30 3537 N 328.138 -0.959301 -1.25041 0
M  V30 3538 C 329.387 -0.612254 -1.92183 0
M  V30 3539 C 329.7 0.855347 -1.75907 0
M  V30 3540 O 330.906 1.31256 -2.37664 0
M  V30 3541 C 329.362 -1.04435 -3.44414 0
M  V30 3542 C 328.97 -2.53482 -3.69393 0
M  V30 3543 C 330.714 -0.770055 -4.17457 0
M  V30 3544 C 328.621 -2.90468 -5.15153 0
M  V30 3545 H 327.551 -0.225279 -0.719559 0
M  V30 3546 H 330.202 -1.16438 -1.41825 0
M  V30 3547 H 328.584 -0.4206 -3.9376 0
M  V30 3548 H 329.758 -3.20916 -3.30681 0
M  V30 3549 H 328.073 -2.78432 -3.0962 0
M  V30 3550 H 330.67 -1.02249 -5.24832 0
M  V30 3551 H 331.013 0.293611 -4.15263 0
M  V30 3552 H 331.546 -1.35437 -3.74034 0
M  V30 3553 H 328.285 -3.95871 -5.22462 0
M  V30 3554 H 327.805 -2.27711 -5.54894 0
M  V30 3555 H 329.484 -2.79914 -5.83315 0
M  V30 3556 N 329.616 1.39756 -0.72842 0
M  V30 3557 C 330.893 1.94574 -0.200079 0
M  V30 3558 C 331.273 1.66569 1.29684 0
M  V30 3559 O 330.621 0.990326 2.05924 0
M  V30 3560 C 330.831 3.45004 -0.526608 0
M  V30 3561 C 332.179 4.21965 -0.472318 0
M  V30 3562 O 333.203 3.53173 -0.463413 0
M  V30 3563 O 332.062 5.44552 -0.461075 0
M  V30 3564 H 329.156 0.826289 -0.0342851 0
M  V30 3565 H 331.702 1.49293 -0.806829 0
M  V30 3566 H 330.474 3.58796 -1.56144 0
M  V30 3567 H 330.097 3.97449 0.109449 0
M  V30 3568 N 331.094 0.475555 1.50254 0
M  V30 3569 C 332.024 -0.30611 2.31485 0
M  V30 3570 C 333.005 -0.986228 1.38591 0
M  V30 3571 O 334.19 -0.982541 1.67511 0
M  V30 3572 C 331.32 -1.38588 3.1845 0
M  V30 3573 C 330.274 -0.827115 4.19932 0
M  V30 3574 C 329.6 -2.00551 4.95665 0
M  V30 3575 C 330.9 0.16463 5.2204 0
M  V30 3576 H 332.594 0.371866 2.97082 0
M  V30 3577 H 330.14 0.180282 1.42867 0
M  V30 3578 H 332.093 -1.94023 3.74076 0
M  V30 3579 H 330.817 -2.09269 2.50747 0
M  V30 3580 H 329.476 -0.294702 3.65414 0
M  V30 3581 H 329.124 -2.6994 4.2443 0
M  V30 3582 H 328.824 -1.63784 5.64313 0
M  V30 3583 H 330.348 -2.56468 5.54127 0
M  V30 3584 H 331.762 -0.300699 5.72511 0
M  V30 3585 H 330.159 0.446813 5.98434 0
M  V30 3586 H 331.229 1.08905 4.72512 0
M  V30 3587 N 332.573 -1.56217 0.208337 0
M  V30 3588 C 333.989 -1.58919 -0.14729 0
M  V30 3589 C 334.189 -1.22486 -1.59998 0
M  V30 3590 O 333.245 -0.953849 -2.3379 0
M  V30 3591 C 334.558 -3.00236 0.167048 0
M  V30 3592 C 336.106 -3.12813 0.108219 0
M  V30 3593 C 336.581 -4.56284 0.396049 0
M  V30 3594 N 338.072 -4.61912 0.345142 0
M  V30 3595 C 338.807 -5.70837 0.541523 0
M  V30 3596 N 338.303 -6.88178 0.798968 0
M  V30 3597 N 340.096 -5.60091 0.474867 0
M  V30 3598 H 332.247 -1.78177 1.15614 0
M  V30 3599 H 334.51 -0.827555 0.462446 0
M  V30 3600 H 334.216 -3.31499 1.1748 0
M  V30 3601 H 334.09 -3.7354 -0.524184 0
M  V30 3602 H 336.477 -2.81354 -0.890157 0
M  V30 3603 H 336.558 -2.41866 0.832729 0
M  V30 3604 H 336.202 -4.88458 1.3918 0
M  V30 3605 H 336.132 -5.25439 -0.349502 0
M  V30 3606 H 338.623 -3.77589 0.153316 0
M  V30 3607 H 338.936 -7.67095 0.93727 0
M  V30 3608 H 337.281 -6.89953 0.836013 0
M  V30 3609 H 340.472 -4.67297 0.274064 0
M  V30 3610 H 340.645 -6.44917 0.631326 0
M  V30 3611 N 334.051 0.0651679 -1.57465 0
M  V30 3612 C 334.981 1.07693 -2.07182 0
M  V30 3613 C 335.962 1.39962 -0.966673 0
M  V30 3614 O 337.147 1.49475 -1.2398 0
M  V30 3615 C 334.277 2.3885 -2.52127 0
M  V30 3616 C 333.231 2.20917 -3.66579 0
M  V30 3617 C 332.557 3.57515 -3.97601 0
M  V30 3618 C 333.857 1.62493 -4.9638 0
M  V30 3619 H 335.551 0.663199 -2.91962 0
M  V30 3620 H 333.097 0.317569 -1.40455 0
M  V30 3621 H 335.05 3.09928 -2.85522 0
M  V30 3622 H 333.774 2.82215 -1.64384 0
M  V30 3623 H 332.433 1.52279 -3.33477 0
M  V30 3624 H 332.081 3.98463 -3.06979 0
M  V30 3625 H 331.781 3.46353 -4.74672 0
M  V30 3626 H 333.305 4.30013 -4.33499 0
M  V30 3627 H 334.719 2.23445 -5.27963 0
M  V30 3628 H 333.116 1.62009 -5.77818 0
M  V30 3629 H 334.186 0.587041 -4.81333 0
M  V30 3630 N 335.529 1.53961 0.336706 0
M  V30 3631 C 336.461 1.78751 1.4346 0
M  V30 3632 C 337.474 0.669019 1.48418 0
M  V30 3633 O 338.663 0.945884 1.51378 0
M  V30 3634 C 335.763 1.87844 2.82078 0
M  V30 3635 C 334.936 3.17854 3.00479 0
M  V30 3636 C 333.995 3.17816 4.19379 0
M  V30 3637 O 333.021 3.91511 4.13168 0
M  V30 3638 N 334.223 2.40669 5.2826 0
M  V30 3639 H 336.988 2.73493 1.22563 0
M  V30 3640 H 334.549 1.53096 0.526625 0
M  V30 3641 H 336.541 1.85261 3.59806 0
M  V30 3642 H 335.111 1.00257 2.96086 0
M  V30 3643 H 334.331 3.33504 2.10163 0
M  V30 3644 H 335.619 4.03718 3.0966 0
M  V30 3645 H 335.017 1.8036 5.36178 0
M  V30 3646 H 333.574 2.43877 6.04456 0
M  V30 3647 N 337.007 -0.598083 1.45811 0
M  V30 3648 C 338.237 -1.38121 1.53643 0
M  V30 3649 C 338.645 -1.88425 0.171081 0
M  V30 3650 O 337.988 -1.63409 -0.839237 0
M  V30 3651 C 338.05 -2.61432 2.46766 0
M  V30 3652 C 337.714 -2.32702 3.93318 0
M  V30 3653 C 338.711 -1.92479 4.82957 0
M  V30 3654 C 336.396 -2.45321 4.38318 0
M  V30 3655 C 338.39 -1.65248 6.15607 0
M  V30 3656 C 336.077 -2.17703 5.71007 0
M  V30 3657 C 337.075 -1.7773 6.5947 0
M  V30 3658 O 336.763 -1.50441 7.89698 0
M  V30 3659 H 336.495 -0.428863 0.522544 0
M  V30 3660 H 339.049 -0.73557 1.91777 0
M  V30 3661 H 337.279 -3.28749 2.0362 0
M  V30 3662 H 338.968 -3.23487 2.45175 0
M  V30 3663 H 339.734 -1.82258 4.49452 0
M  V30 3664 H 335.613 -2.75399 3.69697 0
M  V30 3665 H 339.157 -1.33973 6.84614 0
M  V30 3666 H 335.054 -2.27544 6.04065 0
M  V30 3667 H 335.822 -1.64415 8.01817 0
M  V30 3668 N 338.485 -1.33259 -0.841409 0
M  V30 3669 C 339.415 -1.25926 -1.96634 0
M  V30 3670 C 340.396 -0.140349 -1.6952 0
M  V30 3671 O 341.581 -0.329707 -1.91381 0
M  V30 3672 C 338.711 -0.99512 -3.32738 0
M  V30 3673 C 337.665 -2.0767 -3.74242 0
M  V30 3674 C 336.991 -1.66474 -5.08125 0
M  V30 3675 C 338.291 -3.49318 -3.88297 0
M  V30 3676 H 339.985 -2.20046 -2.03027 0
M  V30 3677 H 337.531 -1.05931 -0.975425 0
M  V30 3678 H 339.484 -0.930323 -4.11002 0
M  V30 3679 H 338.208 -0.0183004 -3.26595 0
M  V30 3680 H 336.867 -2.13187 -2.98239 0
M  V30 3681 H 336.515 -0.675012 -4.9845 0
M  V30 3682 H 336.215 -2.3885 -5.36865 0
M  V30 3683 H 337.739 -1.61455 -5.88867 0
M  V30 3684 H 339.153 -3.46316 -4.56879 0
M  V30 3685 H 337.55 -4.20158 -4.28471 0
M  V30 3686 H 338.62 -3.8801 -2.9082 0
M  V30 3687 N 339.963 1.05934 -1.16686 0
M  V30 3688 C 340.926 2.11669 -0.879144 0
M  V30 3689 C 341.926 1.60294 0.127445 0
M  V30 3690 O 343.116 1.7389 -0.103865 0
M  V30 3691 C 340.248 3.39438 -0.315425 0
M  V30 3692 H 341.441 2.38626 -1.81653 0
M  V30 3693 H 338.994 1.22058 -0.976299 0
M  V30 3694 H 339.729 3.18132 0.629468 0
M  V30 3695 H 339.514 3.78034 -1.04079 0
M  V30 3696 H 341.004 4.17391 -0.132189 0
M  V30 3697 N 341.441 0.965919 1.2453 0
M  V30 3698 C 342.391 0.465731 2.23193 0
M  V30 3699 C 343.375 -0.451277 1.54442 0
M  V30 3700 O 344.567 -0.282489 1.74731 0
M  V30 3701 C 341.696 -0.244511 3.42428 0
M  V30 3702 C 340.782 0.691222 4.18429 0
M  V30 3703 N 341.173 1.82771 4.71623 0
M  V30 3704 C 339.471 0.501649 4.4317 0
M  V30 3705 C 340.172 2.41285 5.29298 0
M  V30 3706 N 339.148 1.69819 5.16394 0
M  V30 3707 H 342.95 1.33291 2.61937 0
M  V30 3708 H 340.464 0.824789 1.39896 0
M  V30 3709 H 342.461 -0.620056 4.12263 0
M  V30 3710 H 341.121 -1.10815 3.05205 0
M  V30 3711 H 342.132 2.20929 4.68413 0
M  V30 3712 H 338.809 -0.318177 4.16286 0
M  V30 3713 H 340.199 3.37181 5.8117 0
M  V30 3714 N 342.919 -1.39368 0.735821 0
M  V30 3715 C 344.335 -1.54204 0.411492 0
M  V30 3716 C 344.535 -1.70268 -1.07755 0
M  V30 3717 O 343.591 -1.70364 -1.86366 0
M  V30 3718 C 344.904 -2.75925 1.19523 0
M  V30 3719 C 346.452 -2.89761 1.18354 0
M  V30 3720 C 346.927 -4.14421 1.94986 0
M  V30 3721 N 348.418 -4.21462 1.92156 0
M  V30 3722 C 349.153 -5.16871 2.48258 0
M  V30 3723 N 348.649 -6.18063 3.13001 0
M  V30 3724 N 350.442 -5.09093 2.38287 0
M  V30 3725 H 342.593 -1.27189 1.70108 0
M  V30 3726 H 344.856 -0.616517 0.720147 0
M  V30 3727 H 344.562 -2.70401 2.24892 0
M  V30 3728 H 344.436 -3.68614 0.800222 0
M  V30 3729 H 346.823 -2.94777 0.137975 0
M  V30 3730 H 346.904 -1.98133 1.61793 0
M  V30 3731 H 346.548 -4.10166 2.99543 0
M  V30 3732 H 346.478 -5.05095 1.48953 0
M  V30 3733 H 348.969 -3.48979 1.44991 0
M  V30 3734 H 349.282 -6.87326 3.53275 0
M  V30 3735 H 347.627 -6.18448 3.17091 0
M  V30 3736 H 350.818 -4.28973 1.8735 0
M  V30 3737 H 350.991 -5.83272 2.82308 0
M  V30 3738 N 344.397 -0.483516 -1.5 0
M  V30 3739 C 345.307 0.309172 -2.32554 0
M  V30 3740 C 346.323 0.984159 -1.43493 0
M  V30 3741 O 347.499 0.969399 -1.76535 0
M  V30 3742 C 344.564 1.36979 -3.18493 0
M  V30 3743 C 343.625 0.710095 -4.23387 0
M  V30 3744 C 342.858 1.72018 -5.05218 0
M  V30 3745 O 343.081 2.94813 -4.88305 0
M  V30 3746 O 342.015 1.28515 -5.8802 0
M  V30 3747 H 345.841 -0.366064 -3.01486 0
M  V30 3748 H 343.426 -0.24514 -1.47375 0
M  V30 3749 H 345.308 1.98385 -3.71781 0
M  V30 3750 H 343.983 2.02828 -2.52275 0
M  V30 3751 H 342.89 0.0567539 -3.74057 0
M  V30 3752 H 344.223 0.0943557 -4.9211 0
M  V30 3753 N 345.875 1.56104 -0.216619 0
M  V30 3754 C 346.805 2.23063 0.690296 0
M  V30 3755 C 347.786 1.20072 1.20485 0
M  V30 3756 O 348.971 1.48643 1.24976 0
M  V30 3757 C 346.101 2.90672 1.90072 0
M  V30 3758 C 345.055 4.00092 1.5202 0
M  V30 3759 C 344.381 4.54972 2.80899 0
M  V30 3760 C 345.681 5.17398 0.71391 0
M  V30 3761 H 347.375 2.99109 0.132038 0
M  V30 3762 H 344.921 1.43866 0.0620664 0
M  V30 3763 H 346.874 3.36204 2.54057 0
M  V30 3764 H 345.598 2.12066 2.48386 0
M  V30 3765 H 344.257 3.55283 0.903839 0
M  V30 3766 H 343.905 3.73102 3.37348 0
M  V30 3767 H 343.605 5.28817 2.56176 0
M  V30 3768 H 345.129 5.0322 3.45836 0
M  V30 3769 H 346.543 5.59342 1.25735 0
M  V30 3770 H 344.94 5.97444 0.563951 0
M  V30 3771 H 346.01 4.84088 -0.280527 0
M  V30 3772 N 347.353 -0.0568162 1.57498 0
M  V30 3773 C 348.769 -0.411933 1.54192 0
M  V30 3774 C 348.969 -1.78287 0.938942 0
M  V30 3775 O 348.025 -2.46483 0.547919 0
M  V30 3776 C 349.338 -0.339244 2.9878 0
M  V30 3777 C 350.886 -0.418348 3.10192 0
M  V30 3778 C 351.361 -0.375407 4.56459 0
M  V30 3779 N 352.852 -0.435038 4.61153 0
M  V30 3780 C 353.587 -0.424265 5.71828 0
M  V30 3781 N 353.083 -0.367418 6.91825 0
M  V30 3782 N 354.876 -0.471938 5.60115 0
M  V30 3783 H 347.027 0.840684 1.95055 0
M  V30 3784 H 349.29 0.316987 0.893433 0
M  V30 3785 H 348.996 0.601742 3.46514 0
M  V30 3786 H 348.87 -1.14371 3.59443 0
M  V30 3787 H 351.257 -1.34976 2.62422 0
M  V30 3788 H 351.338 0.414962 2.52412 0
M  V30 3789 H 350.982 0.552219 5.04889 0
M  V30 3790 H 350.912 -1.22645 5.12119 0
M  V30 3791 H 353.403 -0.482612 3.74806 0
M  V30 3792 H 353.716 -0.363535 7.71944 0
M  V30 3793 H 352.061 -0.333879 6.94198 0
M  V30 3794 H 355.252 -0.514145 4.65268 0
M  V30 3795 H 355.425 -0.460073 6.46365 0
M  V30 3796 N 348.832 -1.54138 -0.328536 0
M  V30 3797 C 349.78 -1.83894 -1.42428 0
M  V30 3798 C 350.774 -0.710478 -1.53781 0
M  V30 3799 O 351.98 -0.894062 -1.56226 0
M  V30 3800 H 348.355 -0.582837 -0.475189 0
M  V30 3801 H 350.326 -2.75537 -1.14552 0
M  V30 3802 C 349.075 -2.07866 -2.78724 0
M  V30 3803 H 348.398 -2.94158 -2.7076 0
M  V30 3804 H 349.838 -2.32644 -3.54476 0
M  V30 3805 C 348.297 -0.868689 -3.25508 0
M  V30 3806 O 348.827 -0.0754908 -4.01629 0
M  V30 3807 N 347.033 -0.681711 -2.82491 0
M  V30 3808 H 346.58 -1.32838 -2.20708 0
M  V30 3809 H 346.538 0.126374 -3.14146 0
M  V30 3810 N 350.31 0.590341 -1.46126 0
M  V30 3811 C 351.273 1.68194 -1.55703 0
M  V30 3812 C 352.273 1.54808 -0.434868 0
M  V30 3813 O 353.463 1.59564 -0.698928 0
M  V30 3814 C 350.595 3.07575 -1.47005 0
M  V30 3815 H 351.788 1.61064 -2.52979 0
M  V30 3816 H 349.341 0.807541 -1.33823 0
M  V30 3817 H 350.076 3.20268 -0.509785 0
M  V30 3818 H 349.861 3.187 -2.28414 0
M  V30 3819 H 351.351 3.87055 -1.56776 0
M  V30 3820 N 351.788 1.33704 0.83433 0
M  V30 3821 C 352.718 1.26967 1.95963 0
M  V30 3822 C 353.699 0.149337 1.69443 0
M  V30 3823 O 354.884 0.339852 1.91203 0
M  V30 3824 C 352.014 1.01275 3.32206 0
M  V30 3825 C 350.968 2.09652 3.73136 0
M  V30 3826 C 350.294 1.69166 5.07235 0
M  V30 3827 C 351.594 3.51372 3.86439 0
M  V30 3828 H 353.288 2.2112 2.01857 0
M  V30 3829 H 350.834 1.06447 0.969793 0
M  V30 3830 H 352.787 0.952106 4.10503 0
M  V30 3831 H 351.511 0.0356203 3.26581 0
M  V30 3832 H 350.17 2.14766 2.97104 0
M  V30 3833 H 349.818 0.701437 4.98085 0
M  V30 3834 H 349.518 2.41694 5.35591 0
M  V30 3835 H 351.042 1.64576 5.88003 0
M  V30 3836 H 352.456 3.48734 4.55036 0
M  V30 3837 H 350.853 4.22425 4.26236 0
M  V30 3838 H 351.923 3.89546 2.88759 0
M  V30 3839 N 353.266 -1.05314 1.17247 0
M  V30 3840 C 354.196 -2.1498 0.911362 0
M  V30 3841 C 355.177 -1.69471 -0.146169 0
M  V30 3842 O 356.362 -1.942 0.003812 0
M  V30 3843 C 353.492 -3.4472 0.422528 0
M  V30 3844 C 352.446 -4.03789 1.4191 0
M  V30 3845 C 351.772 -5.28858 0.788274 0
M  V30 3846 C 353.072 -4.41418 2.7919 0
M  V30 3847 H 354.766 -2.3708 1.82848 0
M  V30 3848 H 352.312 -1.13938 0.880569 0
M  V30 3849 H 354.265 -4.20787 0.227289 0
M  V30 3850 H 352.989 -3.22269 -0.530123 0
M  V30 3851 H 351.648 -3.2979 1.60106 0
M  V30 3852 H 351.296 -5.02709 -0.171173 0
M  V30 3853 H 350.996 -5.69338 1.45353 0
M  V30 3854 H 352.52 -6.07612 0.603282 0
M  V30 3855 H 353.934 -5.08524 2.64719 0
M  V30 3856 H 352.331 -4.92913 3.42282 0
M  V30 3857 H 353.401 -3.51819 3.33693 0
M  V30 3858 N 354.744 -0.972509 -1.24016 0
M  V30 3859 C 355.654 -0.5143 -2.28893 0
M  V30 3860 C 356.67 0.427078 -1.68677 0
M  V30 3861 O 357.846 0.298939 -1.99169 0
M  V30 3862 C 354.911 0.183598 -3.46214 0
M  V30 3863 C 353.972 -0.798202 -4.21814 0
M  V30 3864 C 353.205 -0.133514 -5.33533 0
M  V30 3865 O 353.428 1.07714 -5.60137 0
M  V30 3866 O 352.362 -0.828103 -5.96176 0
M  V30 3867 H 356.188 -1.38629 -2.70214 0
M  V30 3868 H 353.773 -0.739769 -1.29799 0
M  V30 3869 H 355.655 0.575433 -4.17453 0
M  V30 3870 H 354.33 1.03048 -3.0686 0
M  V30 3871 H 353.237 -1.24059 -3.52931 0
M  V30 3872 H 354.57 -1.61364 -4.64997 0
M  V30 3873 N 356.222 1.38976 -0.743202 0
M  V30 3874 C 357.17 2.32394 -0.0978389 0
M  V30 3875 C 358.164 1.53486 0.716824 0
M  V30 3876 O 359.37 1.69092 0.617088 0
M  V30 3877 H 355.745 0.75189 -0.0128402 0
M  V30 3878 H 357.716 2.84441 -0.901981 0
M  V30 3879 C 356.465 3.38629 0.789036 0
M  V30 3880 H 355.788 3.99432 0.171559 0
M  V30 3881 H 357.228 4.06426 1.20807 0
M  V30 3882 C 355.687 2.76347 1.92702 0
M  V30 3883 O 356.217 2.64836 3.02034 0
M  V30 3884 N 354.423 2.34311 1.71891 0
M  V30 3885 H 353.97 2.43873 0.829675 0
M  V30 3886 H 353.928 1.9298 2.48205 0
M  V30 3887 N 357.7 0.491464 1.49741 0
M  V30 3888 C 358.948 -0.0563141 2.02022 0
M  V30 3889 C 359.269 -1.38363 1.37407 0
M  V30 3890 O 358.539 -1.88702 0.526166 0
M  V30 3891 H 357.119 -0.0238014 0.746621 0
M  V30 3892 H 359.781 0.646533 1.83864 0
M  V30 3893 H 358.877 -0.192967 3.11503 0
M  V30 3894 N 359.178 -1.55987 0.224894 0
M  V30 3895 C 360.141 -2.19178 -0.670348 0
M  V30 3896 C 361.141 -1.15461 -1.11917 0
M  V30 3897 O 362.331 -1.40675 -1.02743 0
M  V30 3898 C 359.463 -2.81777 -1.9187 0
M  V30 3899 H 360.656 -2.99662 -0.119364 0
M  V30 3900 H 358.209 -1.5628 -0.0247128 0
M  V30 3901 H 358.944 -2.05172 -2.51147 0
M  V30 3902 H 358.729 -3.57732 -1.60531 0
M  V30 3903 H 360.219 -3.30205 -2.55645 0
M  V30 3904 N 360.656 0.0484629 -1.57525 0
M  V30 3905 C 361.603 1.05504 -2.05275 0
M  V30 3906 C 362.573 1.37084 -0.937927 0
M  V30 3907 O 363.758 1.47754 -1.2072 0
M  V30 3908 C 360.898 2.35676 -2.52093 0
M  V30 3909 C 360.011 2.10423 -3.77288 0
M  V30 3910 C 359.146 3.34327 -4.12794 0
M  V30 3911 C 358.185 3.04542 -5.30962 0
M  V30 3912 N 357.322 4.20841 -5.61994 0
M  V30 3913 H 362.162 0.640885 -2.91027 0
M  V30 3914 H 359.699 0.304854 -1.43906 0
M  V30 3915 H 361.657 3.11709 -2.77297 0
M  V30 3916 H 360.287 2.7485 -1.69285 0
M  V30 3917 H 359.339 1.24976 -3.59284 0
M  V30 3918 H 360.651 1.84438 -4.63448 0
M  V30 3919 H 359.805 4.1874 -4.39024 0
M  V30 3920 H 358.544 3.63408 -3.25247 0
M  V30 3921 H 357.549 2.18528 -5.04505 0
M  V30 3922 H 358.774 2.76758 -6.20146 0
M  V30 3923 H 356.72 4.4991 -4.77406 0
M  V30 3924 H 356.637 3.98212 -6.42622 0
M  V30 3925 H 357.905 5.06184 -5.92789 0
M  V30 3926 N 362.134 1.5431 0.320358 0
M  V30 3927 C 363.097 1.83195 1.3774 0
M  V30 3928 C 364.097 0.703906 1.44575 0
M  V30 3929 O 365.287 0.972214 1.44546 0
M  V30 3930 C 362.419 1.99487 2.76438 0
M  V30 3931 H 363.612 2.77642 1.1338 0
M  V30 3932 H 361.165 1.46076 0.556012 0
M  V30 3933 H 361.9 1.07262 3.06048 0
M  V30 3934 H 361.685 2.81575 2.7287 0
M  V30 3935 H 363.175 2.23271 3.52902 0
M  V30 3936 N 363.613 -0.582584 1.46437 0
M  V30 3937 C 364.861 -1.33814 1.51453 0
M  V30 3938 C 365.182 -1.94277 0.167792 0
M  V30 3939 O 364.452 -1.78566 -0.805677 0
M  V30 3940 H 363.032 -0.496838 0.557818 0
M  V30 3941 H 365.694 -0.682281 1.82568 0
M  V30 3942 H 364.79 -2.14479 2.26728 0
M  V30 3943 N 365.091 -1.34144 -0.827227 0
M  V30 3944 C 366.316 -1.29476 -1.62021 0
M  V30 3945 C 366.741 0.129292 -1.87655 0
M  V30 3946 O 366.099 1.08967 -1.449 0
M  V30 3947 C 366.147 -2.08702 -2.94068 0
M  V30 3948 O 365.251 -1.45359 -3.85933 0
M  V30 3949 H 364.592 -0.444881 -0.492927 0
M  V30 3950 H 367.122 -1.76882 -1.02829 0
M  V30 3951 H 367.132 -2.19898 -3.43669 0
M  V30 3952 H 365.807 -3.12241 -2.74734 0
M  V30 3953 H 364.384 -1.42879 -3.44442 0
M  V30 3954 N 366.569 1.04691 -1.17803 0
M  V30 3955 C 367.499 2.14494 -0.92275 0
M  V30 3956 C 368.48 1.69546 0.137179 0
M  V30 3957 O 369.665 1.94195 -0.0141108 0
M  V30 3958 C 366.795 3.44491 -0.440803 0
M  V30 3959 C 365.749 4.03031 -1.4405 0
M  V30 3960 C 365.075 5.28432 -0.81631 0
M  V30 3961 C 366.375 4.39932 -2.81527 0
M  V30 3962 H 368.069 2.36107 -1.84103 0
M  V30 3963 H 365.615 1.1347 -0.886599 0
M  V30 3964 H 367.568 4.2066 -0.249602 0
M  V30 3965 H 366.292 3.22546 0.513025 0
M  V30 3966 H 364.951 3.28937 -1.61853 0
M  V30 3967 H 364.599 5.02792 0.144511 0
M  V30 3968 H 364.299 5.68559 -1.48371 0
M  V30 3969 H 365.823 6.07284 -0.635496 0
M  V30 3970 H 367.237 5.07113 -2.67412 0
M  V30 3971 H 365.634 4.9109 -3.44892 0
M  V30 3972 H 366.704 3.50045 -3.35554 0
M  V30 3973 N 368.047 0.979072 1.23499 0
M  V30 3974 C 369.293 0.648178 1.92163 0
M  V30 3975 C 369.626 -0.816049 1.76222 0
M  V30 3976 O 368.901 -1.58849 1.12237 0
M  V30 3977 C 369.184 1.03773 3.44824 0
M  V30 3978 C 369.037 2.55948 3.69879 0
M  V30 3979 C 370.356 0.580653 4.36253 0
M  V30 3980 H 367.475 0.236952 0.69787 0
M  V30 3981 H 370.117 1.22012 1.45647 0
M  V30 3982 H 368.267 0.551058 3.84572 0
M  V30 3983 H 369.939 3.12179 3.3962 0
M  V30 3984 H 368.182 2.98641 3.14636 0
M  V30 3985 H 368.853 2.78255 4.76737 0
M  V30 3986 H 371.329 0.998465 4.03943 0
M  V30 3987 H 370.205 0.881663 5.41773 0
M  V30 3988 H 370.466 -0.519052 4.39042 0
M  V30 3989 N 369.525 -1.3858 0.750561 0
M  V30 3990 C 370.774 -1.99424 0.302172 0
M  V30 3991 C 371.087 -1.60254 -1.12152 0
M  V30 3992 O 372.293 -2.14046 -1.67023 0
M  V30 3993 C 370.749 -3.56558 0.489307 0
M  V30 3994 C 370.357 -4.04682 1.92189 0
M  V30 3995 C 372.101 -4.24374 0.103478 0
M  V30 3996 C 370.008 -5.54446 2.05775 0
M  V30 3997 H 368.938 -0.746046 0.10923 0
M  V30 3998 H 371.589 -1.58383 0.92667 0
M  V30 3999 H 369.971 -3.95472 -0.204329 0
M  V30 4000 H 371.145 -3.77065 2.64875 0
M  V30 4001 H 369.46 -3.4958 2.26236 0
M  V30 4002 H 372.057 -5.34384 0.183787 0
M  V30 4003 H 372.4 -4.05468 -0.943481 0
M  V30 4004 H 372.933 -3.90688 0.748854 0
M  V30 4005 H 369.672 -5.78252 3.08714 0
M  V30 4006 H 369.192 -5.83816 1.37546 0
M  V30 4007 H 370.871 -6.20099 1.84626 0
M  V30 4008 N 371.003 -0.499398 -1.49478 0
M  V30 4009 C 371.936 0.326491 -2.25852 0
M  V30 4010 C 372.914 0.971776 -1.30366 0
M  V30 4011 O 374.098 1.00219 -1.59651 0
M  V30 4012 C 371.225 1.45969 -3.05632 0
M  V30 4013 C 370.271 0.928938 -4.16261 0
M  V30 4014 S 371.104 -0.179012 -5.35201 0
M  V30 4015 C 372.26 0.957389 -6.18534 0
M  V30 4016 H 372.493 -0.321746 -2.95554 0
M  V30 4017 H 370.026 -0.284674 -1.51753 0
M  V30 4018 H 371.984 2.109 -3.52181 0
M  V30 4019 H 370.645 2.07953 -2.35402 0
M  V30 4020 H 369.838 1.77813 -4.71592 0
M  V30 4021 H 369.44 0.356869 -3.72293 0
M  V30 4022 H 371.732 1.86296 -6.51383 0
M  V30 4023 H 372.675 0.442733 -7.06715 0
M  V30 4024 H 373.083 1.224 -5.5107 0
M  V30 4025 N 372.481 1.55866 -0.233164 0
M  V30 4026 C 373.758 1.90471 0.444988 0
M  V30 4027 C 374.138 1.15209 1.7689 0
M  V30 4028 O 373.486 0.265119 2.26957 0
M  V30 4029 C 373.696 3.4333 0.626559 0
M  V30 4030 C 375.044 4.14319 0.92871 0
M  V30 4031 O 376.068 3.48993 0.712926 0
M  V30 4032 O 374.927 5.29846 1.33887 0
M  V30 4033 H 372.021 0.792347 0.236885 0
M  V30 4034 H 374.567 1.67437 -0.276211 0
M  V30 4035 H 373.339 3.90095 -0.306822 0
M  V30 4036 H 372.962 3.72181 1.39881 0
M  V30 4037 N 373.959 -0.0401083 1.57549 0
M  V30 4038 C 375.205 -0.734211 1.89043 0
M  V30 4039 C 375.538 -1.75591 0.829535 0
M  V30 4040 O 374.813 -1.93868 -0.156706 0
M  V30 4041 C 375.096 -1.41374 3.31188 0
M  V30 4042 C 374.949 -0.406299 4.47961 0
M  V30 4043 C 376.268 -2.35061 3.72068 0
M  V30 4044 H 373.387 -0.265447 0.687537 0
M  V30 4045 H 376.029 0.00294087 1.9 0
M  V30 4046 H 374.179 -2.04206 3.30503 0
M  V30 4047 H 375.851 0.219255 4.60779 0
M  V30 4048 H 374.094 0.275485 4.32924 0
M  V30 4049 H 374.765 -0.920022 5.44279 0
M  V30 4050 H 377.241 -1.82282 3.74049 0
M  V30 4051 H 376.117 -2.79593 4.72355 0
M  V30 4052 H 376.378 -3.21258 3.0372 0
M  V30 4053 N 375.437 -1.54477 -0.31217 0
M  V30 4054 C 376.384 -1.84655 -1.38461 0
M  V30 4055 C 377.354 -0.694536 -1.50882 0
M  V30 4056 O 378.539 -0.942081 -1.6592 0
M  V30 4057 C 375.679 -2.0896 -2.74645 0
M  V30 4058 C 374.792 -3.36618 -2.70763 0
M  V30 4059 C 373.927 -3.50824 -3.98868 0
M  V30 4060 C 372.966 -4.72315 -3.89339 0
M  V30 4061 N 372.103 -4.83387 -5.09197 0
M  V30 4062 H 376.943 -2.76142 -1.12026 0
M  V30 4063 H 374.48 -1.36748 -0.542065 0
M  V30 4064 H 376.438 -2.21045 -3.53829 0
M  V30 4065 H 375.068 -1.20752 -2.99364 0
M  V30 4066 H 374.12 -3.33211 -1.83506 0
M  V30 4067 H 375.432 -4.25917 -2.59608 0
M  V30 4068 H 374.586 -3.62513 -4.86486 0
M  V30 4069 H 373.325 -2.59638 -4.12843 0
M  V30 4070 H 372.33 -4.6067 -3.00105 0
M  V30 4071 H 373.555 -5.64897 -3.76919 0
M  V30 4072 H 371.501 -3.9512 -5.23657 0
M  V30 4073 H 371.418 -5.66669 -5.00422 0
M  V30 4074 H 372.686 -4.9942 -5.98498 0
M  V30 4075 N 376.915 0.57481 -1.46744 0
M  V30 4076 C 378.143 1.35856 -1.56047 0
M  V30 4077 C 378.558 1.87691 -0.204365 0
M  V30 4078 O 377.915 1.64049 0.79963 0
M  V30 4079 C 377.966 2.54066 -2.57163 0
M  V30 4080 O 377.687 2.04377 -3.87507 0
M  V30 4081 C 379.188 3.46514 -2.76483 0
M  V30 4082 H 376.408 0.414754 -0.527466 0
M  V30 4083 H 378.952 0.698035 -1.92218 0
M  V30 4084 H 377.107 3.16092 -2.23974 0
M  V30 4085 H 377.521 2.81419 -4.4261 0
M  V30 4086 H 378.995 4.25919 -3.51137 0
M  V30 4087 H 379.472 3.98951 -1.83671 0
M  V30 4088 H 380.078 2.90318 -3.10799 0
M  V30 4089 N 378.394 1.34581 0.820102 0
M  V30 4090 C 379.642 1.26845 1.57336 0
M  V30 4091 C 379.963 -0.160667 1.94337 0
M  V30 4092 O 379.233 -1.09396 1.6251 0
M  V30 4093 H 377.813 0.466514 0.583415 0
M  V30 4094 H 380.475 1.68526 0.979027 0
M  V30 4095 H 379.571 1.87513 2.4949 0
M  V30 4096 N 379.872 -1.04064 1.18357 0
M  V30 4097 C 380.782 -2.15569 0.925596 0
M  V30 4098 C 381.798 -1.7365 -0.110295 0
M  V30 4099 O 382.974 -2.01273 0.0716218 0
M  V30 4100 C 380.039 -3.43704 0.454836 0
M  V30 4101 C 379.1 -4.00004 1.55869 0
M  V30 4102 C 378.333 -5.22023 1.1103 0
M  V30 4103 O 378.556 -5.70392 -0.0309756 0
M  V30 4104 O 377.49 -5.70856 1.90805 0
M  V30 4105 H 381.316 -2.40187 1.8586 0
M  V30 4106 H 378.901 -1.1402 0.965394 0
M  V30 4107 H 380.783 -4.20923 0.200382 0
M  V30 4108 H 379.458 -3.20559 -0.449876 0
M  V30 4109 H 378.365 -3.24172 1.86716 0
M  V30 4110 H 379.698 -4.2749 2.43953 0
M  V30 4111 N 381.35 -0.985608 -1.22978 0
M  V30 4112 C 382.599 -0.652881 -1.90841 0
M  V30 4113 C 382.912 0.817842 -1.77681 0
M  V30 4114 O 384.118 1.26185 -2.40395 0
M  V30 4115 C 382.574 -1.11717 -3.42122 0
M  V30 4116 C 382.182 -2.6126 -3.63933 0
M  V30 4117 C 383.926 -0.85843 -4.1573 0
M  V30 4118 C 381.833 -3.0133 -5.08876 0
M  V30 4119 H 380.763 -0.240491 -0.714619 0
M  V30 4120 H 383.414 -1.1942 -1.39324 0
M  V30 4121 H 381.796 -0.504027 -3.92779 0
M  V30 4122 H 382.97 -3.27858 -3.23799 0
M  V30 4123 H 381.285 -2.84937 -3.03644 0
M  V30 4124 H 383.882 -1.13359 -5.22546 0
M  V30 4125 H 384.225 0.205461 -4.15793 0
M  V30 4126 H 384.758 -1.43341 -3.71077 0
M  V30 4127 H 381.497 -4.06864 -5.13947 0
M  V30 4128 H 381.017 -2.3943 -5.49939 0
M  V30 4129 H 382.696 -2.92224 -5.77247 0
M  V30 4130 N 382.828 1.3818 -0.7579 0
M  V30 4131 C 383.758 2.33027 -0.148597 0
M  V30 4132 C 384.739 1.55085 0.69875 0
M  V30 4133 O 385.924 1.83384 0.639053 0
M  V30 4134 C 383.054 3.3928 0.742034 0
M  V30 4135 C 382.008 4.28 -0.00291946 0
M  V30 4136 C 381.334 5.25146 1.00625 0
M  V30 4137 C 382.634 5.08938 -1.17385 0
M  V30 4138 H 384.328 2.84231 -0.940909 0
M  V30 4139 H 381.874 1.36659 -0.453908 0
M  V30 4140 H 383.827 4.046 1.17799 0
M  V30 4141 H 382.551 2.86569 1.56671 0
M  V30 4142 H 381.21 3.64192 -0.419504 0
M  V30 4143 H 380.858 4.68721 1.8251 0
M  V30 4144 H 380.558 5.85361 0.512428 0
M  V30 4145 H 382.082 5.93342 1.44143 0
M  V30 4146 H 383.496 5.67474 -0.815224 0
M  V30 4147 H 381.893 5.7841 -1.59882 0
M  V30 4148 H 382.963 4.42424 -1.98468 0
M  V30 4149 N 384.306 0.507319 1.49211 0
M  V30 4150 C 385.269 -0.256763 2.27757 0
M  V30 4151 C 386.269 -0.888287 1.34038 0
M  V30 4152 O 387.459 -0.751841 1.5714 0
M  V30 4153 C 384.591 -1.36905 3.12202 0
M  V30 4154 H 385.784 0.432557 2.96764 0
M  V30 4155 H 383.337 0.262488 1.5408 0
M  V30 4156 H 384.072 -2.09233 2.47775 0
M  V30 4157 H 383.857 -0.921599 3.81115 0
M  V30 4158 H 385.347 -1.9071 3.7151 0
M  V30 4159 N 385.784 -1.5574 0.241426 0
M  V30 4160 C 386.717 -2.17168 -0.700935 0
M  V30 4161 C 387.695 -1.12206 -1.1768 0
M  V30 4162 O 388.879 -1.40565 -1.25593 0
M  V30 4163 C 386.006 -2.76796 -1.95196 0
M  V30 4164 C 385.052 -3.94764 -1.61442 0
M  V30 4165 S 385.885 -5.30613 -0.72182 0
M  V30 4166 C 387.041 -5.93691 -1.98197 0
M  V30 4167 H 387.274 -2.96761 -0.178882 0
M  V30 4168 H 384.807 -1.54378 0.0259299 0
M  V30 4169 H 386.765 -3.11787 -2.67019 0
M  V30 4170 H 385.426 -1.9716 -2.44514 0
M  V30 4171 H 384.619 -4.35057 -2.54443 0
M  V30 4172 H 384.221 -3.61022 -0.976672 0
M  V30 4173 H 386.513 -6.10874 -2.92983 0
M  V30 4174 H 387.456 -6.89258 -1.62262 0
M  V30 4175 H 387.864 -5.22709 -2.13156 0
M  V30 4176 N 387.262 0.0317525 -1.57568 0
M  V30 4177 C 388.49 0.734949 -1.93407 0
M  V30 4178 C 388.905 1.69036 -0.84096 0
M  V30 4179 O 388.262 1.81582 0.182836 0
M  V30 4180 C 388.313 1.49432 -3.29169 0
M  V30 4181 O 388.034 0.577261 -4.3428 0
M  V30 4182 C 389.535 2.29492 -3.79273 0
M  V30 4183 H 386.755 0.206706 -0.638368 0
M  V30 4184 H 389.299 -0.00992046 -2.04498 0
M  V30 4185 H 387.454 2.1911 -3.19483 0
M  V30 4186 H 387.868 1.10952 -5.1263 0
M  V30 4187 H 389.342 2.78172 -4.76785 0
M  V30 4188 H 389.819 3.10794 -3.10328 0
M  V30 4189 H 390.425 1.64894 -3.92033 0
M  V30 4190 N 388.74 1.54641 0.303973 0
M  V30 4191 C 389.688 1.86137 1.39484 0
M  V30 4192 C 390.682 0.734854 1.52631 0
M  V30 4193 O 391.888 0.918803 1.54784 0
M  V30 4194 H 388.263 0.590324 0.465856 0
M  V30 4195 H 390.234 2.77324 1.10154 0
M  V30 4196 C 388.983 2.12274 2.75382 0
M  V30 4197 H 388.306 2.98429 2.66046 0
M  V30 4198 H 389.746 2.38254 3.5073 0
M  V30 4199 C 388.205 0.920365 3.24085 0
M  V30 4200 O 388.735 0.139377 4.01458 0
M  V30 4201 N 386.941 0.726566 2.81371 0
M  V30 4202 H 386.488 1.36332 2.18567 0
M  V30 4203 H 386.446 -0.0763799 3.14307 0
M  V30 4204 N 390.218 -0.567019 1.47046 0
M  V30 4205 C 391.15 -1.68985 1.54844 0
M  V30 4206 C 392.163 -1.56869 0.435431 0
M  V30 4207 O 393.352 -1.64006 0.70457 0
M  V30 4208 C 390.452 -3.07373 1.42742 0
M  V30 4209 C 389.625 -3.45339 2.6844 0
M  V30 4210 C 388.684 -4.62849 2.50314 0
M  V30 4211 O 387.71 -4.67922 3.24095 0
M  V30 4212 N 388.912 -5.58726 1.57499 0
M  V30 4213 H 391.677 -1.62745 2.51663 0
M  V30 4214 H 389.238 -0.753411 1.43302 0
M  V30 4215 H 391.23 -3.83803 1.28365 0
M  V30 4216 H 389.8 -3.07893 0.540445 0
M  V30 4217 H 389.02 -2.58455 2.97648 0
M  V30 4218 H 390.308 -3.67476 3.51907 0
M  V30 4219 H 389.706 -5.57376 0.966876 0
M  V30 4220 H 388.263 -6.34523 1.49078 0
M  V30 4221 N 391.696 -1.35014 -0.812953 0
M  V30 4222 C 393.107 -1.25035 -1.38648 0
M  V30 4223 C 393.458 0.119967 -1.95833 0
M  V30 4224 O 392.583 1.02069 -1.90816 0
M  V30 4225 C 393.178 -2.26394 -2.52054 0
M  V30 4226 C 391.737 -2.20175 -3.05287 0
M  V30 4227 C 390.884 -2.12451 -1.78213 0
M  V30 4228 H 393.835 -1.46235 -0.616516 0
M  V30 4229 H 393.856 -1.88672 -3.30429 0
M  V30 4230 H 393.368 -3.26116 -2.10404 0
M  V30 4231 H 391.469 -1.23841 -3.51417 0
M  V30 4232 H 391.582 -3.11863 -3.63701 0
M  V30 4233 H 389.946 -1.58328 -1.9951 0
M  V30 4234 H 390.729 -3.14024 -1.38723 0
M  V30 4235 N 393.175 1.03435 -1.18907 0
M  V30 4236 C 394.403 1.80381 -1.01342 0
M  V30 4237 C 394.818 1.83649 0.438005 0
M  V30 4238 O 394.175 1.27655 1.30424 0
M  V30 4239 C 394.226 3.25689 -1.56873 0
M  V30 4240 O 393.947 3.22673 -2.96334 0
M  V30 4241 C 395.448 4.19255 -1.44014 0
M  V30 4242 H 392.668 0.56784 -0.35749 0
M  V30 4243 H 395.212 1.30317 -1.576 0
M  V30 4244 H 393.367 3.72962 -1.04777 0
M  V30 4245 H 393.781 4.13748 -3.22355 0
M  V30 4246 H 395.255 5.19123 -1.87657 0
M  V30 4247 H 395.732 4.37467 -0.389815 0
M  V30 4248 H 396.338 3.77851 -1.95214 0
M  V30 4249 N 394.653 0.992116 1.22453 0
M  V30 4250 C 395.883 0.684949 1.94915 0
M  V30 4251 C 396.291 -0.754292 1.73514 0
M  V30 4252 O 395.634 -1.52056 1.03076 0
M  V30 4253 C 395.696 0.910054 3.47791 0
M  V30 4254 C 395.36 2.33363 3.92926 0
M  V30 4255 C 396.357 3.31308 4.00663 0
M  V30 4256 C 394.042 2.66785 4.25595 0
M  V30 4257 C 396.036 4.6075 4.40441 0
M  V30 4258 C 393.723 3.96446 4.65053 0
M  V30 4259 C 394.721 4.9324 4.72444 0
M  V30 4260 O 394.409 6.20584 5.1101 0
M  V30 4261 H 394.141 0.25258 0.62704 0
M  V30 4262 H 396.695 1.32939 1.56577 0
M  V30 4263 H 394.925 0.208443 3.86138 0
M  V30 4264 H 396.614 0.598257 4.01467 0
M  V30 4265 H 397.38 3.0682 3.75615 0
M  V30 4266 H 393.259 1.92148 4.19047 0
M  V30 4267 H 396.803 5.363 4.46126 0
M  V30 4268 H 392.7 4.20724 4.89552 0
M  V30 4269 H 393.468 6.24509 5.29085 0
M  V30 4270 N 396.131 -1.37776 0.765217 0
M  V30 4271 C 397.079 -2.32209 0.134798 0
M  V30 4272 C 398.073 -1.54607 -0.692315 0
M  V30 4273 O 399.279 -1.70052 -0.590109 0
M  V30 4274 H 395.654 -0.751591 0.0248005 0
M  V30 4275 H 397.625 -2.8297 0.947119 0
M  V30 4276 C 396.374 -3.39841 -0.735063 0
M  V30 4277 H 395.697 -3.99654 -0.107991 0
M  V30 4278 H 397.137 -4.08296 -1.14326 0
M  V30 4279 C 395.596 -2.79378 -1.88281 0
M  V30 4280 O 396.126 -2.69608 -2.97783 0
M  V30 4281 N 394.332 -2.37016 -1.68142 0
M  V30 4282 H 393.879 -2.45162 -0.790772 0
M  V30 4283 H 393.837 -1.96905 -2.45104 0
M  V30 4284 N 397.609 -0.515225 -1.4894 0
M  V30 4285 C 399.02 -0.0710067 -1.86565 0
M  V30 4286 C 399.371 1.34733 -1.42623 0
M  V30 4287 O 398.496 2.00653 -0.810379 0
M  V30 4288 C 399.091 -0.122083 -3.3858 0
M  V30 4289 C 397.65 0.266863 -3.75453 0
M  V30 4290 C 396.797 -0.488376 -2.72966 0
M  V30 4291 H 399.748 -0.727266 -1.41055 0
M  V30 4292 H 399.769 0.669818 -3.74558 0
M  V30 4293 H 399.281 -1.15448 -3.70531 0
M  V30 4294 H 397.382 1.30196 -3.49113 0
M  V30 4295 H 397.495 -0.0624811 -4.79059 0
M  V30 4296 H 395.859 0.0635622 -2.54621 0
M  V30 4297 H 396.642 -1.52113 -3.07761 0
M  V30 4298 N 399.087 1.5561 -0.249682 0
M  V30 4299 C 400.035 2.22894 0.664906 0
M  V30 4300 C 401.029 1.21743 1.17792 0
M  V30 4301 O 402.235 1.39748 1.13449 0
M  V30 4302 H 398.61 0.715022 0.232912 0
M  V30 4303 H 400.581 2.98307 0.0742998 0
M  V30 4304 C 399.33 2.94424 1.84959 0
M  V30 4305 H 398.653 3.72031 1.46399 0
M  V30 4306 H 400.093 3.44862 2.4667 0
M  V30 4307 C 398.552 1.98454 2.72245 0
M  V30 4308 O 399.082 1.51939 3.71857 0
M  V30 4309 N 397.288 1.65496 2.38871 0
M  V30 4310 H 396.835 2.03517 1.57919 0
M  V30 4311 H 396.793 1.0155 2.97548 0
M  V30 4312 N 400.565 -0.0233959 1.57583 0
M  V30 4313 C 401.513 -1.04063 2.08023 0
M  V30 4314 C 402.507 -1.37084 0.995204 0
M  V30 4315 O 403.713 -1.35923 1.18004 0
M  V30 4316 H 400.088 -0.353144 0.663922 0
M  V30 4317 H 402.059 -0.589453 2.9252 0
M  V30 4318 C 400.808 -2.33123 2.57971 0
M  V30 4319 H 400.131 -2.08577 3.4108 0
M  V30 4320 H 401.571 -3.02632 2.96967 0
M  V30 4321 C 400.03 -3.02483 1.48342 0
M  V30 4322 O 400.56 -3.92541 0.852898 0
M  V30 4323 N 398.766 -2.63909 1.21658 0
M  V30 4324 H 398.313 -1.90758 1.73116 0
M  V30 4325 H 398.271 -3.10633 0.485218 0
M  V30 4326 N 402.043 -1.548 -0.295768 0
M  V30 4327 C 403.459 -1.4613 -0.641722 0
M  V30 4328 C 403.659 -0.656771 -1.90496 0
M  V30 4329 O 402.715 -0.166547 -2.5195 0
M  V30 4330 C 404.028 -2.90141 -0.789852 0
M  V30 4331 C 405.576 -3.00216 -0.885396 0
M  V30 4332 C 406.051 -4.45434 -1.06548 0
M  V30 4333 N 407.542 -4.49166 -1.13156 0
M  V30 4334 C 408.277 -5.58717 -1.28929 0
M  V30 4335 N 407.773 -6.78182 -1.41567 0
M  V30 4336 N 409.566 -5.46415 -1.31859 0
M  V30 4337 H 401.717 -2.05574 0.534147 0
M  V30 4338 H 403.98 -0.931259 0.177372 0
M  V30 4339 H 403.686 -3.51635 0.0675598 0
M  V30 4340 H 403.56 -3.37859 -1.67724 0
M  V30 4341 H 405.947 -2.38833 -1.73329 0
M  V30 4342 H 406.028 -2.55787 0.0261185 0
M  V30 4343 H 405.672 -5.07413 -0.222335 0
M  V30 4344 H 405.602 -4.87499 -1.9913 0
M  V30 4345 H 408.093 -3.631 -1.04721 0
M  V30 4346 H 408.406 -7.57428 -1.53372 0
M  V30 4347 H 406.751 -6.81037 -1.38613 0
M  V30 4348 H 409.942 -4.5203 -1.21601 0
M  V30 4349 H 410.115 -6.31841 -1.43808 0
M  V30 4350 N 403.521 0.559213 -1.47345 0
M  V30 4351 C 404.937 0.884943 -1.32819 0
M  V30 4352 C 405.137 1.98988 -0.317173 0
M  V30 4353 O 404.193 2.51031 0.272011 0
M  V30 4354 C 405.506 1.28007 -2.72093 0
M  V30 4355 C 407.054 1.39161 -2.80363 0
M  V30 4356 C 407.529 1.82031 -4.20272 0
M  V30 4357 N 409.02 1.89185 -4.22804 0
M  V30 4358 C 409.755 2.2368 -5.27973 0
M  V30 4359 N 409.251 2.56802 -6.43447 0
M  V30 4360 N 411.044 2.24436 -5.15349 0
M  V30 4361 H 403.195 -0.170304 -2.11716 0
M  V30 4362 H 405.458 -0.0135247 -0.947904 0
M  V30 4363 H 405.164 0.542027 -3.47498 0
M  V30 4364 H 405.038 2.23665 -3.03733 0
M  V30 4365 H 407.425 2.12048 -2.05231 0
M  V30 4366 H 407.506 0.41696 -2.52379 0
M  V30 4367 H 407.15 1.09715 -4.95908 0
M  V30 4368 H 407.08 2.80495 -4.45679 0
M  V30 4369 H 409.571 1.65982 -3.39497 0
M  V30 4370 H 409.884 2.82144 -7.19454 0
M  V30 4371 H 408.229 2.54387 -6.46771 0
M  V30 4372 H 411.42 1.97998 -4.24163 0
M  V30 4373 H 411.593 2.50989 -5.97418 0
M  V30 4374 N 404.999 1.35443 0.805782 0
M  V30 4375 C 405.947 1.28465 1.93906 0
M  V30 4376 C 406.941 0.17943 1.68447 0
M  V30 4377 O 408.147 0.345459 1.76654 0
M  V30 4378 H 404.522 0.399528 0.637088 0
M  V30 4379 H 406.493 2.24206 1.96912 0
M  V30 4380 C 405.242 1.07432 3.30687 0
M  V30 4381 H 404.565 1.91716 3.50835 0
M  V30 4382 H 406.005 1.06591 4.10383 0
M  V30 4383 C 404.464 -0.22179 3.36169 0
M  V30 4384 O 404.994 -1.21731 3.82811 0
M  V30 4385 N 403.2 -0.260841 2.89427 0
M  V30 4386 H 402.747 0.549884 2.51663 0
M  V30 4387 H 402.705 -1.12777 2.93477 0
M  V30 4388 N 406.477 -1.02803 1.19454 0
M  V30 4389 C 407.407 -2.12999 0.956758 0
M  V30 4390 C 408.388 -1.69743 -0.110188 0
M  V30 4391 O 409.573 -1.94148 0.0450038 0
M  V30 4392 C 406.703 -3.43746 0.495553 0
M  V30 4393 C 405.657 -4.00688 1.50443 0
M  V30 4394 C 404.983 -5.27067 0.900275 0
M  V30 4395 C 406.283 -4.35397 2.8849 0
M  V30 4396 H 407.977 -2.33148 1.87836 0
M  V30 4397 H 405.523 -1.12045 0.904539 0
M  V30 4398 H 407.476 -4.2021 0.316493 0
M  V30 4399 H 406.2 -3.23321 -0.461646 0
M  V30 4400 H 404.859 -3.2632 1.67065 0
M  V30 4401 H 404.507 -5.02959 -0.064503 0
M  V30 4402 H 404.207 -5.66127 1.57397 0
M  V30 4403 H 405.731 -6.06196 0.73203 0
M  V30 4404 H 407.145 -5.02795 2.75446 0
M  V30 4405 H 405.542 -4.85541 3.52661 0
M  V30 4406 H 406.612 -3.44662 3.41081 0
M  V30 4407 N 407.956 -0.998596 -1.21925 0
M  V30 4408 C 408.888 -0.511879 -2.23411 0
M  V30 4409 C 409.901 0.396094 -1.57908 0
M  V30 4410 O 411.09 0.197316 -1.77406 0
M  V30 4411 C 408.19 0.276802 -3.37768 0
M  V30 4412 C 407.363 -0.628687 -4.32858 0
M  V30 4413 C 406.422 0.109272 -5.26087 0
M  V30 4414 O 405.448 -0.507237 -5.66935 0
M  V30 4415 N 406.65 1.38983 -5.63617 0
M  V30 4416 H 409.415 -1.38457 -2.658 0
M  V30 4417 H 406.976 -0.873981 -1.36283 0
M  V30 4418 H 408.968 0.77928 -3.97126 0
M  V30 4419 H 407.538 1.05063 -2.94415 0
M  V30 4420 H 406.758 -1.31175 -3.71735 0
M  V30 4421 H 408.046 -1.24514 -4.93329 0
M  V30 4422 H 407.444 1.91194 -5.32411 0
M  V30 4423 H 406.001 1.83739 -6.25367 0
M  V30 4424 N 409.434 1.37368 -0.772513 0
M  V30 4425 C 410.845 1.8231 -0.402493 0
M  V30 4426 C 411.196 1.6436 1.07146 0
M  V30 4427 O 410.321 1.15514 1.82991 0
M  V30 4428 C 410.916 3.30979 -0.723776 0
M  V30 4429 C 409.475 3.74195 -0.406802 0
M  V30 4430 C 408.622 2.59885 -0.967218 0
M  V30 4431 H 411.573 1.25829 -0.967099 0
M  V30 4432 H 411.594 3.80499 -0.00870832 0
M  V30 4433 H 411.106 3.44011 -1.7966 0
M  V30 4434 H 409.207 3.66732 0.658673 0
M  V30 4435 H 409.32 4.7027 -0.915588 0
M  V30 4436 H 407.684 2.51674 -0.391416 0
M  V30 4437 H 408.467 2.7571 -2.04546 0
M  V30 4438 N 410.912 0.523116 1.48665 0
M  V30 4439 C 411.875 -0.232592 2.28017 0
M  V30 4440 C 412.875 -0.874021 1.34972 0
M  V30 4441 O 414.065 -0.735132 1.57929 0
M  V30 4442 C 411.197 -1.33586 3.13636 0
M  V30 4443 H 412.39 0.464008 2.96289 0
M  V30 4444 H 409.943 0.278816 1.53793 0
M  V30 4445 H 410.678 -2.06593 2.4998 0
M  V30 4446 H 410.463 -0.881125 3.82071 0
M  V30 4447 H 411.953 -1.86759 3.73511 0
M  V30 4448 N 412.39 -1.55475 0.257931 0
M  V30 4449 C 413.353 -2.20551 -0.623706 0
M  V30 4450 C 414.353 -1.17809 -1.09443 0
M  V30 4451 O 415.543 -1.42823 -0.997362 0
M  V30 4452 C 412.675 -2.85784 -1.8585 0
M  V30 4453 H 413.868 -2.99848 -0.0557743 0
M  V30 4454 H 411.421 -1.56298 0.0084422 0
M  V30 4455 H 412.156 -2.10453 -2.46739 0
M  V30 4456 H 411.941 -3.61057 -1.52907 0
M  V30 4457 H 413.431 -3.35553 -2.48584 0
M  V30 4458 N 413.868 0.0150385 -1.57593 0
M  V30 4459 C 414.801 1.04475 -2.0288 0
M  V30 4460 C 415.779 1.3436 -0.915764 0
M  V30 4461 O 416.963 1.46779 -1.18271 0
M  V30 4462 C 414.09 2.37608 -2.41371 0
M  V30 4463 C 413.136 2.23487 -3.63257 0
M  V30 4464 S 413.969 1.57505 -5.11813 0
M  V30 4465 C 415.125 2.921 -5.5356 0
M  V30 4466 H 415.358 0.65907 -2.89903 0
M  V30 4467 H 412.891 0.225452 -1.52745 0
M  V30 4468 H 414.849 3.14165 -2.64217 0
M  V30 4469 H 413.51 2.7332 -1.54775 0
M  V30 4470 H 412.703 3.21802 -3.87891 0
M  V30 4471 H 412.305 1.55074 -3.40335 0
M  V30 4472 H 414.597 3.88419 -5.55101 0
M  V30 4473 H 415.54 2.72184 -6.53698 0
M  V30 4474 H 415.948 2.95318 -4.8109 0
M  V30 4475 N 415.346 1.54954 0.287554 0
M  V30 4476 C 416.762 1.46469 0.633964 0
M  V30 4477 C 416.962 0.666865 1.90145 0
M  V30 4478 O 416.018 0.179906 2.51858 0
M  V30 4479 C 417.331 2.90556 0.774454 0
M  V30 4480 C 418.879 3.00681 0.869462 0
M  V30 4481 C 419.354 4.45993 1.04184 0
M  V30 4482 N 420.845 4.4976 1.10772 0
M  V30 4483 C 421.58 5.59393 1.25964 0
M  V30 4484 N 421.076 6.78923 1.37968 0
M  V30 4485 N 422.869 5.47107 1.28959 0
M  V30 4486 H 415.02 2.05288 -0.545041 0
M  V30 4487 H 417.283 0.930305 -0.182308 0
M  V30 4488 H 416.989 3.51594 -0.086207 0
M  V30 4489 H 416.863 3.38743 1.6593 0
M  V30 4490 H 419.25 2.39749 1.7206 0
M  V30 4491 H 419.331 2.55769 -0.0396831 0
M  V30 4492 H 418.975 5.07524 0.195422 0
M  V30 4493 H 418.905 4.88548 1.96542 0
M  V30 4494 H 421.396 3.63651 1.02794 0
M  V30 4495 H 421.709 7.58231 1.49353 0
M  V30 4496 H 420.054 6.81763 1.34999 0
M  V30 4497 H 423.245 4.52668 1.19202 0
M  V30 4498 H 423.418 6.32595 1.40455 0
M  V30 4499 N 416.824 -0.551391 1.4764 0
M  V30 4500 C 417.772 -1.67896 1.60978 0
M  V30 4501 C 418.766 -1.62549 0.476877 0
M  V30 4502 O 419.972 -1.67664 0.654878 0
M  V30 4503 H 416.347 -0.555649 0.506713 0
M  V30 4504 H 418.318 -1.53784 2.55721 0
M  V30 4505 C 417.067 -3.06234 1.64669 0
M  V30 4506 H 416.39 -3.11033 2.51194 0
M  V30 4507 H 417.83 -3.84804 1.7805 0
M  V30 4508 C 416.289 -3.34737 0.381115 0
M  V30 4509 O 416.819 -3.98381 -0.515297 0
M  V30 4510 N 415.025 -2.8944 0.259354 0
M  V30 4511 H 414.572 -2.37827 0.98976 0
M  V30 4512 H 414.53 -3.08882 -0.586464 0
M  V30 4513 N 418.302 -1.35869 -0.798587 0
M  V30 4514 C 419.718 -1.16082 -1.09532 0
M  V30 4515 C 419.918 0.0213124 -2.01489 0
M  V30 4516 O 418.974 0.689488 -2.42904 0
M  V30 4517 C 420.287 -2.46748 -1.7186 0
M  V30 4518 C 421.835 -2.53028 -1.84244 0
M  V30 4519 C 422.31 -3.83758 -2.49988 0
M  V30 4520 N 423.801 -3.85053 -2.57465 0
M  V30 4521 C 424.536 -4.8294 -3.09122 0
M  V30 4522 N 424.032 -5.91217 -3.61157 0
M  V30 4523 N 425.825 -4.70369 -3.0775 0
M  V30 4524 H 417.976 -2.11571 -0.187461 0
M  V30 4525 H 420.239 -0.936726 -0.145765 0
M  V30 4526 H 419.945 -3.33471 -1.11759 0
M  V30 4527 H 419.819 -2.61883 -2.71472 0
M  V30 4528 H 422.206 -1.66729 -2.43486 0
M  V30 4529 H 422.287 -2.418 -0.834643 0
M  V30 4530 H 421.931 -4.70459 -1.91393 0
M  V30 4531 H 421.861 -3.92278 -3.5132 0
M  V30 4532 H 424.352 -3.06822 -2.20609 0
M  V30 4533 H 424.665 -6.61892 -3.98896 0
M  V30 4534 H 423.01 -5.94899 -3.59333 0
M  V30 4535 H 426.201 -3.84914 -2.66381 0
M  V30 4536 H 426.374 -5.46816 -3.47701 0
M  V30 4537 N 419.78 1.02168 -1.19998 0
M  V30 4538 C 420.743 2.08765 -0.94604 0
M  V30 4539 C 421.743 1.60618 0.0763846 0
M  V30 4540 O 422.933 1.73472 -0.159135 0
M  V30 4541 C 420.065 3.38262 -0.423255 0
M  V30 4542 H 421.258 2.32726 -1.89153 0
M  V30 4543 H 418.811 1.1889 -1.01464 0
M  V30 4544 H 419.546 3.19974 0.527938 0
M  V30 4545 H 419.331 3.74532 -1.16053 0
M  V30 4546 H 420.821 4.16759 -0.264911 0
M  V30 4547 N 421.258 1.00505 1.21394 0
M  V30 4548 C 422.191 0.51032 2.22421 0
M  V30 4549 C 423.169 -0.436 1.56645 0
M  V30 4550 O 424.353 -0.358709 1.85055 0
M  V30 4551 C 421.48 -0.258733 3.3771 0
M  V30 4552 C 420.526 0.635395 4.2174 0
M  V30 4553 S 421.359 2.09783 4.92698 0
M  V30 4554 C 422.515 1.33862 6.11418 0
M  V30 4555 H 422.748 1.36637 2.64041 0
M  V30 4556 H 420.281 0.812991 1.31262 0
M  V30 4557 H 422.239 -0.696372 4.0455 0
M  V30 4558 H 420.9 -1.0902 2.94573 0
M  V30 4559 H 420.093 0.0430189 5.03982 0
M  V30 4560 H 419.695 1.01031 3.60095 0
M  V30 4561 H 421.987 0.612541 6.74725 0
M  V30 4562 H 422.93 2.13675 6.75092 0
M  V30 4563 H 423.338 0.846568 5.58116 0
M  V30 4564 N 422.737 -1.36956 0.779787 0
M  V30 4565 C 423.986 -1.98738 0.344405 0
M  V30 4566 C 424.299 -1.62596 -1.08728 0
M  V30 4567 O 425.505 -2.1754 -1.62445 0
M  V30 4568 C 423.961 -3.5544 0.564829 0
M  V30 4569 C 423.569 -4.00514 2.0073 0
M  V30 4570 C 425.313 -4.24059 0.193471 0
M  V30 4571 C 423.22 -5.49957 2.17489 0
M  V30 4572 H 422.15 -0.743561 0.12503 0
M  V30 4573 H 424.801 -1.56381 0.960057 0
M  V30 4574 H 423.183 -3.95817 -0.120397 0
M  V30 4575 H 424.357 -3.71362 2.72814 0
M  V30 4576 H 422.672 -3.44703 2.336 0
M  V30 4577 H 425.269 -5.33874 0.297097 0
M  V30 4578 H 425.612 -4.07378 -0.857263 0
M  V30 4579 H 426.145 -3.89012 0.831556 0
M  V30 4580 H 422.884 -5.71574 3.2091 0
M  V30 4581 H 422.404 -5.80767 1.49899 0
M  V30 4582 H 424.083 -6.16043 1.97738 0
M  V30 4583 N 424.215 -0.530993 -1.48385 0
M  V30 4584 C 425.492 0.0671788 -1.95485 0
M  V30 4585 C 425.872 1.51191 -1.47324 0
M  V30 4586 O 425.22 2.17507 -0.700202 0
M  V30 4587 C 425.43 -0.0511206 -3.48963 0
M  V30 4588 C 426.778 0.107632 -4.24464 0
M  V30 4589 O 427.802 0.0226248 -3.56193 0
M  V30 4590 O 426.661 0.285972 -5.45751 0
M  V30 4591 H 423.755 0.0787365 -0.823243 0
M  V30 4592 H 426.301 -0.595662 -1.58902 0
M  V30 4593 H 425.073 -1.05747 -3.7674 0
M  V30 4594 H 424.696 0.650525 -3.92242 0
M  V30 4595 N 425.693 1.55336 -0.266172 0
M  V30 4596 C 426.939 1.99692 0.353681 0
M  V30 4597 C 427.272 1.1543 1.56172 0
M  V30 4598 O 426.547 0.222218 1.93226 0
M  V30 4599 C 426.83 3.52316 0.74466 0
M  V30 4600 C 426.683 4.47337 -0.470101 0
M  V30 4601 C 428.002 4.10588 1.58447 0
M  V30 4602 H 425.121 0.725961 0.12708 0
M  V30 4603 H 427.763 1.86336 -0.371333 0
M  V30 4604 H 425.913 3.63829 1.36239 0
M  V30 4605 H 427.585 4.4778 -1.10864 0
M  V30 4606 H 425.828 4.19364 -1.10978 0
M  V30 4607 H 426.499 5.51788 -0.15291 0
M  V30 4608 H 428.975 4.02297 1.06286 0
M  V30 4609 H 427.851 5.17607 1.82686 0
M  V30 4610 H 428.112 3.60253 2.56262 0
M  V30 4611 N 427.171 -0.0066808 1.57599 0
M  V30 4612 C 428.418 -0.69292 1.90276 0
M  V30 4613 C 428.746 -1.74148 0.866192 0
M  V30 4614 O 428.001 -1.95268 -0.129933 0
M  V30 4615 C 428.3 -1.37939 3.29708 0
M  V30 4616 C 427.966 -0.464679 4.48499 0
M  V30 4617 C 426.628 -0.212809 4.80729 0
M  V30 4618 C 428.98 0.16551 5.20937 0
M  V30 4619 C 426.308 0.677653 5.82773 0
M  V30 4620 C 428.66 1.04381 6.23929 0
M  V30 4621 C 427.324 1.30492 6.54621 0
M  V30 4622 H 426.594 -0.253558 0.696268 0
M  V30 4623 H 429.241 0.0474123 1.91441 0
M  V30 4624 H 427.546 -2.1936 3.24636 0
M  V30 4625 H 429.243 -1.9163 3.52249 0
M  V30 4626 H 425.833 -0.671153 4.23313 0
M  V30 4627 H 430.017 -0.0160756 4.96297 0
M  V30 4628 H 425.273 0.88803 6.04917 0
M  V30 4629 H 429.447 1.53851 6.79193 0
M  V30 4630 H 427.074 1.99662 7.33512 0
M  V30 4631 N 428.649 -1.55105 -0.279332 0
M  V30 4632 C 429.559 -1.90638 -1.36727 0
M  V30 4633 C 430.575 -0.802899 -1.54368 0
M  V30 4634 O 431.751 -1.10138 -1.68616 0
M  V30 4635 C 428.816 -2.16547 -2.70755 0
M  V30 4636 C 427.877 -3.40146 -2.61915 0
M  V30 4637 C 427.11 -3.6481 -3.8955 0
M  V30 4638 O 427.333 -2.92095 -4.89935 0
M  V30 4639 O 426.267 -4.58343 -3.90135 0
M  V30 4640 H 430.093 -2.83237 -1.09591 0
M  V30 4641 H 427.678 -1.4157 -0.477306 0
M  V30 4642 H 429.56 -2.34665 -3.50014 0
M  V30 4643 H 428.235 -1.27131 -2.9769 0
M  V30 4644 H 427.142 -3.2737 -1.81052 0
M  V30 4645 H 428.475 -4.29761 -2.3993 0
M  V30 4646 N 430.127 0.543554 -1.4793 0
M  V30 4647 C 431.538 1.12561 -1.48953 0
M  V30 4648 C 431.889 1.94578 -0.251754 0
M  V30 4649 O 431.014 2.0665 0.642255 0
M  V30 4650 C 431.609 2.04801 -2.69892 0
M  V30 4651 C 430.168 2.58251 -2.73831 0
M  V30 4652 C 429.315 1.34918 -2.42265 0
M  V30 4653 H 432.266 0.32947 -1.55242 0
M  V30 4654 H 432.287 2.88886 -2.47639 0
M  V30 4655 H 431.799 1.4508 -3.59963 0
M  V30 4656 H 429.9 3.21732 -1.87934 0
M  V30 4657 H 430.013 2.98312 -3.74895 0
M  V30 4658 H 428.377 1.66046 -1.93134 0
M  V30 4659 H 429.16 0.769693 -3.3456 0
M  V30 4660 N 431.605 1.3629 0.791371 0
M  V30 4661 C 432.853 1.30154 1.5461 0
M  V30 4662 C 433.174 -0.119409 1.94634 0
M  V30 4663 O 432.444 -1.05924 1.64794 0
M  V30 4664 H 431.024 0.478784 0.573389 0
M  V30 4665 H 433.686 1.70565 0.94306 0
M  V30 4666 H 432.782 1.92762 2.45457 0
M  V30 4667 N 433.083 -1.0153 1.20538 0
M  V30 4668 C 434.308 -1.79283 1.04271 0
M  V30 4669 C 434.733 -1.8372 -0.403544 0
M  V30 4670 O 434.091 -1.27321 -1.2907 0
M  V30 4671 C 434.139 -3.21535 1.63241 0
M  V30 4672 O 433.243 -4.03099 0.870908 0
M  V30 4673 H 432.584 -0.55293 0.367647 0
M  V30 4674 H 435.114 -1.27696 1.59859 0
M  V30 4675 H 435.124 -3.72243 1.6703 0
M  V30 4676 H 433.799 -3.1762 2.68497 0
M  V30 4677 H 432.376 -3.61693 0.907323 0
M  V30 4678 N 434.561 -1.01147 -1.20859 0
M  V30 4679 C 435.789 -0.716911 -1.94082 0
M  V30 4680 C 436.204 0.721568 -1.74467 0
M  V30 4681 O 435.561 1.48889 -1.05539 0
M  V30 4682 C 435.612 -1.03662 -3.46318 0
M  V30 4683 O 435.333 -2.4186 -3.65288 0
M  V30 4684 C 436.834 -0.762386 -4.36695 0
M  V30 4685 H 434.054 -0.26367 -0.617024 0
M  V30 4686 H 436.598 -1.35127 -1.53496 0
M  V30 4687 H 434.753 -0.447757 -3.84804 0
M  V30 4688 H 435.167 -2.53224 -4.59323 0
M  V30 4689 H 436.641 -1.03621 -5.42187 0
M  V30 4690 H 437.118 0.303514 -4.3815 0
M  V30 4691 H 437.724 -1.33316 -4.03865 0
M  V30 4692 N 436.039 1.36541 -0.78704 0
M  V30 4693 C 437.285 1.99599 -0.358872 0
M  V30 4694 C 437.618 1.62323 1.06606 0
M  V30 4695 O 436.893 0.876858 1.73613 0
M  V30 4696 C 437.176 3.56327 -0.519944 0
M  V30 4697 C 437.029 4.03464 -1.98839 0
M  V30 4698 C 438.348 4.4005 0.0664737 0
M  V30 4699 H 435.467 0.725107 -0.131869 0
M  V30 4700 H 438.109 1.6199 -0.992936 0
M  V30 4701 H 436.259 3.88495 0.0198321 0
M  V30 4702 H 437.931 3.81793 -2.58905 0
M  V30 4703 H 436.174 3.55092 -2.49183 0
M  V30 4704 H 436.845 5.12439 -2.05207 0
M  V30 4705 H 439.321 4.14228 -0.394267 0
M  V30 4706 H 438.197 5.48847 -0.0762682 0
M  V30 4707 H 438.458 4.26655 1.15835 0
M  V30 4708 N 437.518 0.538854 1.48102 0
M  V30 4709 C 438.465 -0.219042 2.29758 0
M  V30 4710 C 439.435 -0.925562 1.37922 0
M  V30 4711 O 440.62 -0.924855 1.66886 0
M  V30 4712 C 437.76 -1.25452 3.2149 0
M  V30 4713 C 436.873 -0.555943 4.28408 0
M  V30 4714 C 436.008 -1.57512 5.0731 0
M  V30 4715 C 435.047 -0.860498 6.06021 0
M  V30 4716 N 434.184 -1.82564 6.77949 0
M  V30 4717 H 439.024 0.483449 2.94052 0
M  V30 4718 H 436.561 0.250247 1.44956 0
M  V30 4719 H 438.519 -1.86727 3.7308 0
M  V30 4720 H 437.149 -1.92528 2.591 0
M  V30 4721 H 436.201 0.170938 3.80016 0
M  V30 4722 H 437.513 0.00474616 4.988 0
M  V30 4723 H 436.667 -2.26191 5.62959 0
M  V30 4724 H 435.406 -2.16972 4.36778 0
M  V30 4725 H 434.411 -0.159686 5.49568 0
M  V30 4726 H 435.636 -0.271897 6.78555 0
M  V30 4727 H 433.582 -2.40915 6.10161 0
M  V30 4728 H 433.499 -1.31662 7.44447 0
M  V30 4729 H 434.767 -2.50414 7.38182 0
M  V30 4730 N 438.996 -1.55193 0.274407 0
M  V30 4731 C 440.407 -1.85358 -0.223488 0
M  V30 4732 C 440.758 -1.19642 -1.555 0
M  V30 4733 O 439.883 -0.484498 -2.10907 0
M  V30 4734 C 440.478 -3.36282 -0.412285 0
M  V30 4735 C 439.037 -3.66574 -0.854413 0
M  V30 4736 C 438.184 -2.7725 0.0527056 0
M  V30 4737 H 441.135 -1.50743 0.496215 0
M  V30 4738 H 441.156 -3.59349 -1.25094 0
M  V30 4739 H 440.668 -3.84083 0.556965 0
M  V30 4740 H 438.769 -3.24273 -1.83516 0
M  V30 4741 H 438.882 -4.74073 -0.692226 0
M  V30 4742 H 437.246 -2.50447 -0.463484 0
M  V30 4743 H 438.029 -3.27865 1.01783 0
M  V30 4744 N 440.474 -0.00167713 -1.576 0
M  V30 4745 C 441.721 0.68282 -1.90641 0
M  V30 4746 C 442.049 1.73686 -0.875415 0
M  V30 4747 O 441.304 1.95334 0.119575 0
M  V30 4748 C 441.603 1.36189 -3.30435 0
M  V30 4749 C 441.269 0.440887 -4.48739 0
M  V30 4750 C 439.931 0.187312 -4.80835 0
M  V30 4751 C 442.283 -0.193134 -5.20842 0
M  V30 4752 C 439.611 -0.70855 -5.82406 0
M  V30 4753 C 441.963 -1.07688 -6.23367 0
M  V30 4754 C 440.627 -1.33962 -6.53919 0
M  V30 4755 H 439.897 0.249862 -0.697603 0
M  V30 4756 H 442.544 -0.0575642 -1.91413 0
M  V30 4757 H 440.849 2.17636 -3.25794 0
M  V30 4758 H 442.546 1.89759 -3.5326 0
M  V30 4759 H 439.136 0.648694 -4.23663 0
M  V30 4760 H 443.32 -0.0102445 -4.96299 0
M  V30 4761 H 438.576 -0.920097 -6.04437 0
M  V30 4762 H 442.75 -1.57451 -6.78367 0
M  V30 4763 H 440.377 -2.03549 -7.32442 0
M  V30 4764 N 441.952 1.55251 0.271103 0
M  V30 4765 C 443.177 1.80306 1.02491 0
M  V30 4766 C 443.602 0.575457 1.79081 0
M  V30 4767 O 442.96 -0.474987 1.74967 0
M  V30 4768 C 443.008 3.02832 1.95768 0
M  V30 4769 O 442.112 2.78051 3.04568 0
M  V30 4770 H 441.453 0.595896 0.292923 0
M  V30 4771 H 443.983 2.02397 0.299436 0
M  V30 4772 H 443.993 3.31616 2.37686 0
M  V30 4773 H 442.668 3.9183 1.39434 0
M  V30 4774 H 441.245 2.60369 2.66951 0
M  V30 4775 N 443.43 -0.535701 1.48216 0
M  V30 4776 C 444.363 -1.65726 1.56876 0
M  V30 4777 C 445.341 -1.57094 0.419542 0
M  V30 4778 O 446.525 -1.77648 0.630352 0
M  V30 4779 C 443.652 -3.04096 1.49142 0
M  V30 4780 C 442.698 -3.31105 2.68834 0
M  V30 4781 S 443.531 -3.18001 4.30854 0
M  V30 4782 C 444.687 -4.58828 4.25709 0
M  V30 4783 H 444.92 -1.58129 2.51759 0
M  V30 4784 H 442.453 -0.718218 1.36678 0
M  V30 4785 H 444.411 -3.839 1.45366 0
M  V30 4786 H 443.072 -3.09139 0.556067 0
M  V30 4787 H 442.265 -4.32033 2.59545 0
M  V30 4788 H 441.867 -2.58961 2.69843 0
M  V30 4789 H 444.159 -5.5023 3.95289 0
M  V30 4790 H 445.102 -4.73172 5.26796 0
M  V30 4791 H 445.51 -4.37883 3.56257 0
M  V30 4792 N 444.908 -1.36708 -0.784132 0
M  V30 4793 C 446.133 -1.34565 -1.5782 0
M  V30 4794 C 446.558 0.0695257 -1.87971 0
M  V30 4795 O 445.916 1.04302 -1.48293 0
M  V30 4796 C 445.964 -2.17952 -2.87279 0
M  V30 4797 O 445.068 -1.57563 -3.81114 0
M  V30 4798 H 444.409 -0.460337 -0.478524 0
M  V30 4799 H 446.939 -1.80064 -0.971495 0
M  V30 4800 H 446.949 -2.30721 -3.365 0
M  V30 4801 H 445.624 -3.20823 -2.64661 0
M  V30 4802 H 444.201 -1.53764 -3.39722 0
M  V30 4803 N 446.386 1.0089 -1.21074 0
M  V30 4804 C 447.349 2.0775 -0.968129 0
M  V30 4805 C 448.349 1.6069 0.0593445 0
M  V30 4806 O 449.539 1.73293 -0.177525 0
M  V30 4807 C 446.671 3.37794 -0.459108 0
M  V30 4808 H 447.864 2.30707 -1.9161 0
M  V30 4809 H 445.417 1.17807 -1.02719 0
M  V30 4810 H 446.152 3.20516 0.49397 0
M  V30 4811 H 445.937 3.7328 -1.20019 0
M  V30 4812 H 447.427 4.16454 -0.309099 0
M  V30 4813 N 447.864 1.01787 1.20321 0
M  V30 4814 C 448.827 0.593972 2.2137 0
M  V30 4815 C 449.827 -0.336553 1.57239 0
M  V30 4816 O 451.017 -0.125069 1.7375 0
M  V30 4817 C 448.149 -0.132433 3.40643 0
M  V30 4818 H 449.342 1.48791 2.60387 0
M  V30 4819 H 446.895 0.807803 1.33807 0
M  V30 4820 H 447.63 -1.04123 3.0713 0
M  V30 4821 H 447.415 0.53605 3.88418 0
M  V30 4822 H 448.905 -0.416314 4.1552 0
M  V30 4823 N 449.342 -1.36122 0.79427 0
M  V30 4824 C 450.272 -2.32551 0.210328 0
M  V30 4825 C 451.253 -1.56884 -0.657386 0
M  V30 4826 O 452.438 -1.85014 -0.590207 0
M  V30 4827 C 449.568 -3.41128 -0.651819 0
M  V30 4828 C 448.522 -4.27842 0.116395 0
M  V30 4829 C 447.848 -5.2763 -0.86666 0
M  V30 4830 C 449.148 -5.05647 1.30837 0
M  V30 4831 H 450.842 -2.81636 1.01594 0
M  V30 4832 H 448.388 -1.35407 0.489981 0
M  V30 4833 H 450.341 -4.07581 -1.07031 0
M  V30 4834 H 449.065 -2.90622 -1.49019 0
M  V30 4835 H 447.724 -3.62952 0.515915 0
M  V30 4836 H 447.372 -4.73395 -1.70019 0
M  V30 4837 H 447.072 -5.86514 -0.35705 0
M  V30 4838 H 448.596 -5.96955 -1.28361 0
M  V30 4839 H 450.01 -5.65113 0.965393 0
M  V30 4840 H 448.407 -5.73967 1.75161 0
M  V30 4841 H 449.477 -4.37006 2.10128 0
M  V30 4842 N 450.82 -0.546701 -1.47814 0
M  V30 4843 C 451.783 0.196287 -2.28358 0
M  V30 4844 C 452.783 0.852437 -1.36346 0
M  V30 4845 O 453.973 0.709913 -1.59078 0
M  V30 4846 C 451.105 1.28579 -3.15722 0
M  V30 4847 H 452.298 -0.511086 -2.95513 0
M  V30 4848 H 449.851 -0.303248 -1.5333 0
M  V30 4849 H 450.586 2.0259 -2.53235 0
M  V30 4850 H 450.371 0.820229 -3.83425 0
M  V30 4851 H 451.861 1.80793 -3.76435 0
M  V30 4852 N 452.299 1.55045 -0.282633 0
M  V30 4853 C 453.524 2.04628 0.337977 0
M  V30 4854 C 453.949 1.15937 1.48123 0
M  V30 4855 O 453.307 0.159532 1.80597 0
M  V30 4856 C 453.355 3.51854 0.78936 0
M  V30 4857 O 452.459 3.66236 1.89592 0
M  V30 4858 H 451.8 0.660434 0.0687261 0
M  V30 4859 H 454.33 2.00261 -0.419124 0
M  V30 4860 H 454.34 3.93361 1.08311 0
M  V30 4861 H 453.015 4.15873 -0.0470419 0
M  V30 4862 H 451.592 3.36633 1.60413 0
M  V30 4863 N 453.777 0.010035 1.57597 0
M  V30 4864 C 455.025 -0.671371 1.90623 0
M  V30 4865 C 455.346 -1.73753 0.885151 0
M  V30 4866 O 454.616 -1.95752 -0.0760611 0
M  V30 4867 H 453.196 -0.250968 0.703579 0
M  V30 4868 H 455.858 0.0533325 1.94827 0
M  V30 4869 H 454.954 -1.13626 2.90681 0
M  V30 4870 N 455.255 -1.55392 -0.262866 0
M  V30 4871 C 456.671 -1.47459 -0.610582 0
M  V30 4872 C 456.871 -0.697031 -1.8906 0
M  V30 4873 O 455.927 -0.219952 -2.5154 0
M  V30 4874 C 457.24 -2.91751 -0.728131 0
M  V30 4875 C 458.788 -3.02027 -0.821517 0
M  V30 4876 C 459.263 -4.47594 -0.97076 0
M  V30 4877 N 460.754 -4.51465 -1.03603 0
M  V30 4878 C 461.489 -5.61326 -1.17049 0
M  V30 4879 N 460.985 -6.81032 -1.2715 0
M  V30 4880 N 462.778 -5.49089 -1.20239 0
M  V30 4881 H 454.929 -2.04395 0.577632 0
M  V30 4882 H 457.192 -0.927287 0.197086 0
M  V30 4883 H 456.898 -3.51413 0.142132 0
M  V30 4884 H 456.772 -3.4134 -1.6052 0
M  V30 4885 H 459.159 -2.42456 -1.68224 0
M  V30 4886 H 459.24 -2.55674 0.0803688 0
M  V30 4887 H 458.884 -5.07771 -0.114655 0
M  V30 4888 H 458.814 -4.91613 -1.88745 0
M  V30 4889 H 461.305 -3.6524 -0.96996 0
M  V30 4890 H 461.618 -7.60511 -1.37271 0
M  V30 4891 H 459.963 -6.83824 -1.24136 0
M  V30 4892 H 463.154 -4.54507 -1.11985 0
M  V30 4893 H 463.327 -6.34749 -1.30373 0
M  V30 4894 N 456.733 0.527833 -1.48498 0
M  V30 4895 C 457.979 1.28295 -1.57836 0
M  V30 4896 C 458.334 1.9077 -0.249943 0
M  V30 4897 O 457.627 1.76421 0.747402 0
M  V30 4898 C 457.821 2.39275 -2.65485 0
M  V30 4899 C 457.65 1.87679 -4.08664 0
M  V30 4900 C 456.42 1.70187 -4.75778 0
M  V30 4901 C 458.618 1.40409 -4.94762 0
M  V30 4902 N 456.6 1.13238 -6.03366 0
M  V30 4903 C 457.971 0.954216 -6.12613 0
M  V30 4904 C 460.026 1.28732 -4.8097 0
M  V30 4905 C 458.729 0.39915 -7.18192 0
M  V30 4906 C 460.755 0.746244 -5.86673 0
M  V30 4907 C 460.117 0.306457 -7.03733 0
M  V30 4908 H 456.216 0.460408 -0.632099 0
M  V30 4909 H 458.8 0.594913 -1.85388 0
M  V30 4910 H 456.971 3.05572 -2.3975 0
M  V30 4911 H 458.703 3.06308 -2.64495 0
M  V30 4912 H 455.458 1.93772 -4.32145 0
M  V30 4913 H 455.882 0.867687 -6.71417 0
M  V30 4914 H 460.524 1.61338 -3.90807 0
M  V30 4915 H 458.242 0.0607678 -8.08077 0
M  V30 4916 H 461.828 0.659041 -5.78055 0
M  V30 4917 H 460.708 -0.105708 -7.84129 0
M  V30 4918 N 458.211 1.37122 0.776871 0
M  V30 4919 C 459.158 1.3247 1.88998 0
M  V30 4920 C 460.128 0.191143 1.64997 0
M  V30 4921 O 461.313 0.379683 1.86984 0
M  V30 4922 C 458.453 1.13241 3.25992 0
M  V30 4923 C 457.566 2.35782 3.61982 0
M  V30 4924 C 456.701 2.09465 4.88158 0
M  V30 4925 C 455.74 3.279 5.16864 0
M  V30 4926 N 454.877 3.01167 6.34226 0
M  V30 4927 H 459.717 2.27642 1.9231 0
M  V30 4928 H 457.254 1.13125 0.94027 0
M  V30 4929 H 459.212 1.00115 4.0501 0
M  V30 4930 H 457.842 0.217186 3.22069 0
M  V30 4931 H 456.894 2.59666 2.77989 0
M  V30 4932 H 458.206 3.24125 3.79137 0
M  V30 4933 H 457.36 1.93341 5.75069 0
M  V30 4934 H 456.099 1.18452 4.73097 0
M  V30 4935 H 455.104 3.44569 4.2843 0
M  V30 4936 H 456.329 4.19757 5.33836 0
M  V30 4937 H 454.275 2.12779 6.20533 0
M  V30 4938 H 454.192 3.83052 6.51772 0
M  V30 4939 H 455.46 2.88649 7.24087 0
M  V30 4940 N 459.689 -1.00246 1.21608 0
M  V30 4941 C 461.1 -1.55511 1.03312 0
M  V30 4942 C 461.451 -1.91946 -0.406332 0
M  V30 4943 O 460.576 -1.73753 -1.28992 0
M  V30 4944 C 461.171 -2.82576 1.86913 0
M  V30 4945 C 459.73 -3.34318 1.72941 0
M  V30 4946 C 458.877 -2.07487 1.83968 0
M  V30 4947 H 461.828 -0.824638 1.35593 0
M  V30 4948 H 461.849 -3.54559 1.38087 0
M  V30 4949 H 461.361 -2.56026 2.91672 0
M  V30 4950 H 459.462 -3.65797 0.70877 0
M  V30 4951 H 459.575 -4.05566 2.55055 0
M  V30 4952 H 457.939 -2.20603 1.27304 0
M  V30 4953 H 458.722 -1.83346 2.9024 0
M  V30 4954 N 461.167 -1.02423 -1.1978 0
M  V30 4955 C 462.392 -0.7373 -1.93852 0
M  V30 4956 C 462.817 0.696923 -1.74713 0
M  V30 4957 O 462.175 1.48056 -1.04638 0
M  V30 4958 C 462.223 -1.08783 -3.438 0
M  V30 4959 O 461.327 -0.20383 -4.11896 0
M  V30 4960 H 460.668 -0.27284 -0.605355 0
M  V30 4961 H 463.198 -1.36966 -1.51992 0
M  V30 4962 H 463.208 -1.04276 -3.9445 0
M  V30 4963 H 461.883 -2.13274 -3.57053 0
M  V30 4964 H 460.46 -0.307091 -3.71633 0
M  V30 4965 N 462.645 1.35699 -0.801477 0
M  V30 4966 C 463.922 1.9324 -0.302937 0
M  V30 4967 C 464.302 1.73209 1.20672 0
M  V30 4968 O 463.65 1.09809 2.00385 0
M  V30 4969 C 463.86 3.41728 -0.708747 0
M  V30 4970 C 465.208 4.18868 -0.695328 0
M  V30 4971 O 466.232 3.5022 -0.649971 0
M  V30 4972 O 465.091 5.41342 -0.749081 0
M  V30 4973 H 462.185 0.82331 -0.0780367 0
M  V30 4974 H 464.731 1.44806 -0.884832 0
M  V30 4975 H 463.503 3.50015 -1.74944 0
M  V30 4976 H 463.126 3.97471 -0.101384 0
M  V30 4977 N 464.123 0.554532 1.47522 0
M  V30 4978 C 465.372 0.0273458 2.01681 0
M  V30 4979 C 465.685 -1.32962 1.43459 0
M  V30 4980 O 466.891 -1.94657 1.89265 0
M  V30 4981 C 465.347 -0.00159057 3.599 0
M  V30 4982 C 464.955 1.35197 4.27113 0
M  V30 4983 C 466.699 -0.476311 4.21819 0
M  V30 4984 C 464.606 1.28229 5.77331 0
M  V30 4985 H 463.536 0.00645269 0.753972 0
M  V30 4986 H 466.187 0.701985 1.69542 0
M  V30 4987 H 464.569 -0.741821 3.8899 0
M  V30 4988 H 465.743 2.1097 4.09668 0
M  V30 4989 H 464.058 1.76441 3.77171 0
M  V30 4990 H 466.655 -0.5468 5.31897 0
M  V30 4991 H 466.998 -1.4877 3.8881 0
M  V30 4992 H 467.531 0.20898 3.97251 0
M  V30 4993 H 464.27 2.26959 6.14955 0
M  V30 4994 H 463.79 0.566314 5.97121 0
M  V30 4995 H 465.469 0.983226 6.39485 0
M  V30 4996 N 465.601 -1.54893 0.290851 0
M  V30 4997 C 466.847 -2.0023 -0.321867 0
M  V30 4998 C 467.18 -1.179 -1.54316 0
M  V30 4999 O 466.455 -0.25293 -1.92848 0
M  V30 5000 C 466.738 -3.53456 -0.688515 0
M  V30 5001 C 466.591 -4.46532 0.541209 0
M  V30 5002 C 467.91 -4.13057 -1.51895 0
M  V30 5003 H 465.029 -0.727891 -0.115515 0
M  V30 5004 H 467.671 -1.85722 0.400931 0
M  V30 5005 H 465.821 -3.6595 -1.30433 0
M  V30 5006 H 467.493 -4.4596 1.17973 0
M  V30 5007 H 465.736 -4.17545 1.17636 0
M  V30 5008 H 466.407 -5.51475 0.240675 0
M  V30 5009 H 468.883 -4.03937 -0.99872 0
M  V30 5010 H 467.759 -5.20448 -1.74429 0
M  V30 5011 H 468.02 -3.64284 -2.50498 0
M  V30 5012 N 467.08 -0.0183926 -1.57589 0
M  V30 5013 C 468.357 0.700621 -1.82622 0
M  V30 5014 C 468.737 1.90951 -0.90005 0
M  V30 5015 O 468.085 2.28452 0.0469145 0
M  V30 5016 C 468.295 1.08899 -3.31575 0
M  V30 5017 C 469.643 1.48514 -3.9778 0
M  V30 5018 O 470.667 1.18227 -3.36007 0
M  V30 5019 O 469.526 2.04903 -5.06633 0
M  V30 5020 H 466.62 0.342743 -0.752633 0
M  V30 5021 H 469.166 -0.0452548 -1.6964 0
M  V30 5022 H 467.938 0.228113 -3.90635 0
M  V30 5023 H 467.561 1.89338 -3.49624 0
M  V30 5024 N 468.558 1.5553 0.254621 0
M  V30 5025 C 469.804 1.77262 0.985193 0
M  V30 5026 C 470.137 0.582286 1.85265 0
M  V30 5027 O 469.412 -0.419666 1.89919 0
M  V30 5028 C 469.695 3.0881 1.85225 0
M  V30 5029 C 469.548 4.38233 1.0135 0
M  V30 5030 C 470.867 3.3653 2.83612 0
M  V30 5031 H 467.986 0.644906 0.356742 0
M  V30 5032 H 470.628 1.88264 0.256236 0
M  V30 5033 H 468.778 2.99562 2.47376 0
M  V30 5034 H 470.45 4.59463 0.411269 0
M  V30 5035 H 468.693 4.32636 0.317574 0
M  V30 5036 H 469.364 5.26644 1.65379 0
M  V30 5037 H 471.84 3.45691 2.31596 0
M  V30 5038 H 470.716 4.29805 3.41407 0
M  V30 5039 H 470.977 2.57064 3.59681 0
M  V30 5040 N 470.036 -0.519951 1.48776 0
M  V30 5041 C 471.266 -1.29783 1.60748 0
M  V30 5042 C 471.674 -1.87253 0.27072 0
M  V30 5043 O 471.017 -1.67628 -0.751438 0
M  V30 5044 C 471.079 -2.47984 2.60277 0
M  V30 5045 C 470.743 -2.11526 4.051 0
M  V30 5046 C 471.74 -1.66608 4.92481 0
M  V30 5047 C 469.425 -2.21742 4.50706 0
M  V30 5048 C 471.419 -1.32384 6.23501 0
M  V30 5049 C 469.106 -1.87129 5.81744 0
M  V30 5050 C 470.104 -1.42523 6.67964 0
M  V30 5051 O 469.792 -1.0837 7.96562 0
M  V30 5052 H 469.524 -0.400562 0.544542 0
M  V30 5053 H 472.078 -0.632879 1.95407 0
M  V30 5054 H 470.308 -3.17493 2.2076 0
M  V30 5055 H 471.997 -3.10036 2.61978 0
M  V30 5056 H 472.763 -1.58178 4.58481 0
M  V30 5057 H 468.642 -2.55415 3.83776 0
M  V30 5058 H 472.186 -0.974949 6.90754 0
M  V30 5059 H 468.083 -1.95204 6.15277 0
M  V30 5060 H 468.851 -1.21681 8.09405 0
M  V30 5061 N 471.514 -1.37532 -0.769588 0
M  V30 5062 C 472.925 -1.29382 -1.346 0
M  V30 5063 C 473.276 0.0576039 -1.96115 0
M  V30 5064 O 472.401 0.95947 -1.93967 0
M  V30 5065 C 472.996 -2.34298 -2.44724 0
M  V30 5066 C 471.555 -2.29776 -2.98128 0
M  V30 5067 C 470.702 -2.18013 -1.71364 0
M  V30 5068 H 473.653 -1.48123 -0.56968 0
M  V30 5069 H 473.674 -1.99089 -3.24259 0
M  V30 5070 H 473.186 -3.32645 -1.99922 0
M  V30 5071 H 471.287 -1.34959 -3.47299 0
M  V30 5072 H 471.4 -3.23276 -3.53595 0
M  V30 5073 H 469.764 -1.64595 -1.94372 0
M  V30 5074 H 470.547 -3.18278 -1.28662 0
M  V30 5075 N 472.992 0.995999 -1.22138 0
M  V30 5076 C 474.24 1.73167 -1.042 0
M  V30 5077 C 474.561 1.90329 0.42423 0
M  V30 5078 O 473.831 1.4607 1.30539 0
M  V30 5079 H 472.411 0.641593 -0.38258 0
M  V30 5080 H 475.073 1.19974 -1.53598 0
M  V30 5081 H 474.169 2.72734 -1.51731 0
M  V30 5082 N 474.47 1.03057 1.19235 0
M  V30 5083 C 475.698 0.747697 1.92917 0
M  V30 5084 C 476.113 -0.69372 1.75593 0
M  V30 5085 O 475.47 -1.47191 1.07894 0
M  V30 5086 C 475.521 1.09159 3.44625 0
M  V30 5087 O 475.242 2.47641 3.61394 0
M  V30 5088 C 476.743 0.831763 4.35427 0
M  V30 5089 H 473.963 0.273453 0.612751 0
M  V30 5090 H 476.507 1.37552 1.51327 0
M  V30 5091 H 474.662 0.508919 3.84043 0
M  V30 5092 H 475.076 2.60499 4.55237 0
M  V30 5093 H 476.55 1.12233 5.4047 0
M  V30 5094 H 477.027 -0.233769 4.38577 0
M  V30 5095 H 477.633 1.39725 4.01693 0
M  V30 5096 N 475.948 -1.35272 0.808662 0
M  V30 5097 C 476.878 -2.32315 0.234981 0
M  V30 5098 C 477.859 -1.57572 -0.64071 0
M  V30 5099 O 479.044 -1.8563 -0.570551 0
M  V30 5100 C 476.174 -3.41801 -0.615601 0
M  V30 5101 C 475.128 -4.27694 0.161767 0
M  V30 5102 C 474.454 -5.28519 -0.810649 0
M  V30 5103 C 475.754 -5.04231 1.36193 0
M  V30 5104 H 477.448 -2.80543 1.04575 0
M  V30 5105 H 474.994 -1.3488 0.504315 0
M  V30 5106 H 476.947 -4.08693 -1.02702 0
M  V30 5107 H 475.671 -2.92186 -1.45928 0
M  V30 5108 H 474.33 -3.62384 0.554382 0
M  V30 5109 H 473.978 -4.75171 -1.64988 0
M  V30 5110 H 473.678 -5.8686 -0.294822 0
M  V30 5111 H 475.202 -5.98283 -1.22023 0
M  V30 5112 H 476.616 -5.64058 1.02528 0
M  V30 5113 H 475.013 -5.72077 1.81239 0
M  V30 5114 H 476.083 -4.34753 2.14751 0
M  V30 5115 N 477.426 -0.562348 -1.47226 0
M  V30 5116 C 478.358 0.220011 -2.28142 0
M  V30 5117 C 479.371 0.874596 -1.37312 0
M  V30 5118 O 480.56 0.747583 -1.62091 0
M  V30 5119 C 477.66 1.32953 -3.11732 0
M  V30 5120 C 476.833 0.770759 -4.30556 0
M  V30 5121 C 475.892 1.76541 -4.95701 0
M  V30 5122 O 474.918 1.3095 -5.53932 0
M  V30 5123 N 476.12 3.09896 -4.90861 0
M  V30 5124 H 478.885 -0.474107 -2.95926 0
M  V30 5125 H 476.446 -0.398761 -1.56912 0
M  V30 5126 H 478.438 1.99378 -3.5218 0
M  V30 5127 H 477.008 1.92681 -2.46156 0
M  V30 5128 H 476.228 -0.0704056 -3.94137 0
M  V30 5129 H 477.516 0.376872 -5.07402 0
M  V30 5130 H 476.914 3.49577 -4.44761 0
M  V30 5131 H 475.471 3.71865 -5.35313 0
M  V30 5132 N 478.904 1.54736 -0.299062 0
M  V30 5133 C 480.153 1.99279 0.311549 0
M  V30 5134 C 480.466 1.19107 1.55154 0
M  V30 5135 O 481.672 1.53908 2.23662 0
M  V30 5136 C 480.128 3.54768 0.605632 0
M  V30 5137 C 479.736 4.43746 -0.615914 0
M  V30 5138 C 481.48 4.07841 1.17754 0
M  V30 5139 C 479.387 5.90663 -0.29509 0
M  V30 5140 H 478.317 0.744359 0.120187 0
M  V30 5141 H 480.968 1.78919 -0.407464 0
M  V30 5142 H 479.35 3.71021 1.38419 0
M  V30 5143 H 480.524 4.39267 -1.39218 0
M  V30 5144 H 478.839 4.01434 -1.10633 0
M  V30 5145 H 481.436 5.15174 1.43179 0
M  V30 5146 H 481.779 3.58324 2.11918 0
M  V30 5147 H 482.312 3.95123 0.460739 0
M  V30 5148 H 479.051 6.44325 -1.20524 0
M  V30 5149 H 478.571 5.98155 0.44394 0
M  V30 5150 H 480.25 6.46916 0.104048 0
M  V30 5151 N 480.382 0.0267497 1.57577 0
M  V30 5152 C 481.63 -0.651116 1.91324 0
M  V30 5153 C 481.951 -1.72804 0.90353 0
M  V30 5154 O 481.221 -1.95822 -0.0552946 0
M  V30 5155 H 479.801 -0.243491 0.706202 0
M  V30 5156 H 482.463 0.0739935 1.94759 0
M  V30 5157 H 481.559 -1.10536 2.9187 0
M  V30 5158 N 481.861 -1.55662 -0.24637 0
M  V30 5159 C 483.277 -1.48098 -0.594907 0
M  V30 5160 C 483.477 -0.717044 -1.8831 0
M  V30 5161 O 482.533 -0.246618 -2.51293 0
M  V30 5162 C 483.846 -2.92507 -0.697146 0
M  V30 5163 C 485.394 -3.02881 -0.789436 0
M  V30 5164 C 485.869 -4.48598 -0.923232 0
M  V30 5165 N 487.36 -4.52538 -0.988088 0
M  V30 5166 C 488.095 -5.62536 -1.11089 0
M  V30 5167 N 487.591 -6.82342 -1.19919 0
M  V30 5168 N 489.384 -5.50334 -1.14408 0
M  V30 5169 H 481.535 -2.0377 0.599278 0
M  V30 5170 H 483.798 -0.925145 0.20691 0
M  V30 5171 H 483.504 -3.51242 0.179396 0
M  V30 5172 H 483.378 -3.43024 -1.5689 0
M  V30 5173 H 485.765 -2.44226 -1.65643 0
M  V30 5174 H 485.846 -2.55574 0.107482 0
M  V30 5175 H 485.49 -5.07864 -0.0607927 0
M  V30 5176 H 485.42 -4.93587 -1.8352 0
M  V30 5177 H 487.911 -3.66248 -0.931167 0
M  V30 5178 H 488.224 -7.61924 -1.29197 0
M  V30 5179 H 486.569 -6.85102 -1.16876 0
M  V30 5180 H 489.76 -4.5567 -1.07158 0
M  V30 5181 H 489.933 -6.36096 -1.23634 0
M  V30 5182 N 483.339 0.512053 -1.4905 0
M  V30 5183 C 484.569 1.28928 -1.61434 0
M  V30 5184 C 484.977 1.87107 -0.280647 0
M  V30 5185 O 484.32 1.68024 0.742537 0
M  V30 5186 C 484.382 2.466 -2.61588 0
M  V30 5187 C 484.046 2.09375 -4.06216 0
M  V30 5188 C 485.043 1.63994 -4.93358 0
M  V30 5189 C 482.728 2.19348 -4.51876 0
M  V30 5190 C 484.722 1.29076 -6.24194 0
M  V30 5191 C 482.409 1.84041 -5.82728 0
M  V30 5192 C 483.407 1.38978 -6.68711 0
M  V30 5193 O 483.095 1.04144 -7.97126 0
M  V30 5194 H 482.827 0.397668 -0.546659 0
M  V30 5195 H 485.381 0.622507 -1.9574 0
M  V30 5196 H 483.611 3.16318 -2.22441 0
M  V30 5197 H 485.3 3.08642 -2.63619 0
M  V30 5198 H 486.066 1.55744 -4.59313 0
M  V30 5199 H 481.945 2.53376 -3.85125 0
M  V30 5200 H 485.489 0.938303 -6.91261 0
M  V30 5201 H 481.386 1.91938 -6.16304 0
M  V30 5202 H 482.154 1.17387 -8.10039 0
M  V30 5203 N 484.817 1.37938 0.762283 0
M  V30 5204 C 486.045 1.36883 1.55147 0
M  V30 5205 C 486.46 -0.0435348 1.8875 0
M  V30 5206 O 485.817 -1.00786 1.52146 0
M  V30 5207 C 485.868 2.21624 2.85596 0
M  V30 5208 O 485.589 3.57358 2.5343 0
M  V30 5209 C 487.09 2.28653 3.7978 0
M  V30 5210 H 484.31 0.468521 0.480343 0
M  V30 5211 H 486.854 1.81404 0.944079 0
M  V30 5212 H 485.009 1.80588 3.42734 0
M  V30 5213 H 485.423 4.01883 3.37032 0
M  V30 5214 H 486.897 2.9225 4.68288 0
M  V30 5215 H 487.374 1.29767 4.19592 0
M  V30 5216 H 487.98 2.70043 3.28568 0
M  V30 5217 N 486.295 -0.989507 1.22664 0
M  V30 5218 C 487.544 -1.72375 1.04737 0
M  V30 5219 C 487.857 -1.91096 -0.417316 0
M  V30 5220 O 489.063 -2.6188 -0.716334 0
M  V30 5221 C 487.519 -3.10161 1.82561 0
M  V30 5222 C 487.127 -2.99358 3.333 0
M  V30 5223 C 488.871 -3.87607 1.73093 0
M  V30 5224 C 486.778 -4.32319 4.03552 0
M  V30 5225 H 485.708 -0.646326 0.388302 0
M  V30 5226 H 488.359 -1.10437 1.46546 0
M  V30 5227 H 486.741 -3.728 1.33552 0
M  V30 5228 H 487.915 -2.45863 3.89728 0
M  V30 5229 H 486.23 -2.35392 3.43481 0
M  V30 5230 H 488.827 -4.86025 2.22899 0
M  V30 5231 H 489.17 -4.10509 0.691976 0
M  V30 5232 H 489.703 -3.31652 2.19663 0
M  V30 5233 H 486.442 -4.14616 5.07714 0
M  V30 5234 H 485.962 -4.85714 3.51911 0
M  V30 5235 H 487.641 -5.01051 4.09337 0
M  V30 5236 N 487.773 -1.03688 -1.18687 0
M  V30 5237 C 489.189 -0.755413 -1.4059 0
M  V30 5238 C 489.389 0.656659 -1.905 0
M  V30 5239 O 488.445 1.42144 -2.08689 0
M  V30 5240 C 489.758 -1.7983 -2.41001 0
M  V30 5241 C 491.306 -1.81877 -2.54735 0
M  V30 5242 C 491.781 -2.85148 -3.58406 0
M  V30 5243 N 493.272 -2.84015 -3.6591 0
M  V30 5244 C 494.007 -3.60573 -4.45841 0
M  V30 5245 N 493.503 -4.46871 -5.29413 0
M  V30 5246 N 495.296 -3.49079 -4.40568 0
M  V30 5247 H 487.447 -1.94818 -0.846148 0
M  V30 5248 H 489.71 -0.842727 -0.434184 0
M  V30 5249 H 489.416 -2.81097 -2.1137 0
M  V30 5250 H 489.29 -1.62727 -3.40294 0
M  V30 5251 H 491.677 -0.812836 -2.83685 0
M  V30 5252 H 491.758 -2.03057 -1.55568 0
M  V30 5253 H 491.402 -3.85918 -3.30197 0
M  V30 5254 H 491.332 -2.61224 -4.57241 0
M  V30 5255 H 493.823 -2.21431 -3.0623 0
M  V30 5256 H 494.136 -5.02007 -5.87545 0
M  V30 5257 H 492.481 -4.5094 -5.28846 0
M  V30 5258 H 495.672 -2.81066 -3.74325 0
M  V30 5259 H 495.845 -4.08994 -5.02621 0
M  V30 5260 N 489.251 1.34841 -0.815825 0
M  V30 5261 C 490.528 1.92908 -0.323416 0
M  V30 5262 C 490.908 1.74479 1.18828 0
M  V30 5263 O 490.256 1.11928 1.99209 0
M  V30 5264 C 490.466 3.40957 -0.744952 0
M  V30 5265 C 491.814 4.18107 -0.739716 0
M  V30 5266 O 492.838 3.49511 -0.68708 0
M  V30 5267 O 491.697 5.40517 -0.806456 0
M  V30 5268 H 488.791 0.822436 -0.0867646 0
M  V30 5269 H 491.337 1.4386 -0.90014 0
M  V30 5270 H 490.109 3.4814 -1.78646 0
M  V30 5271 H 489.732 3.97341 -0.143535 0
M  V30 5272 N 490.729 0.570148 1.46925 0
M  V30 5273 C 491.975 0.0510284 2.02736 0
M  V30 5274 C 492.308 -1.3006 1.44215 0
M  V30 5275 O 491.583 -1.84932 0.602521 0
M  V30 5276 C 491.866 -0.028215 3.60089 0
M  V30 5277 C 491.719 1.35142 4.29018 0
M  V30 5278 C 493.038 -0.735181 4.33916 0
M  V30 5279 H 490.157 0.0200178 0.736728 0
M  V30 5280 H 492.799 0.73493 1.75211 0
M  V30 5281 H 490.949 -0.610648 3.83671 0
M  V30 5282 H 492.621 1.97806 4.16738 0
M  V30 5283 H 490.864 1.9226 3.88868 0
M  V30 5284 H 491.535 1.24857 5.37694 0
M  V30 5285 H 494.011 -0.240519 4.15404 0
M  V30 5286 H 492.887 -0.759622 5.43618 0
M  V30 5287 H 493.148 -1.79397 4.04066 0
M  V30 5288 N 492.207 -1.54576 0.307264 0
M  V30 5289 C 493.432 -2.05139 -0.305379 0
M  V30 5290 C 493.857 -1.18278 -1.46259 0
M  V30 5291 O 493.215 -0.188243 -1.8032 0
M  V30 5292 C 493.263 -3.53066 -0.733283 0
M  V30 5293 O 492.367 -3.69206 -1.83741 0
M  V30 5294 H 491.708 -0.661444 -0.0582105 0
M  V30 5295 H 494.238 -1.99569 0.450931 0
M  V30 5296 H 494.248 -3.95034 -1.02039 0
M  V30 5297 H 492.923 -4.15746 0.113198 0
M  V30 5298 H 491.5 -3.39143 -1.55037 0
M  V30 5299 N 493.685 -0.035106 -1.57561 0
M  V30 5300 C 495.101 0.321334 -1.56332 0
M  V30 5301 C 495.301 1.72509 -1.04129 0
M  V30 5302 O 494.357 2.4287 -0.690694 0
M  V30 5303 C 495.67 0.164469 -3.0025 0
M  V30 5304 C 497.218 0.236786 -3.12103 0
M  V30 5305 C 497.693 0.10864 -4.57871 0
M  V30 5306 N 499.184 0.165433 -4.62904 0
M  V30 5307 C 499.919 0.0901506 -5.73329 0
M  V30 5308 N 499.415 -0.0365606 -6.9279 0
M  V30 5309 N 501.208 0.144572 -5.61914 0
M  V30 5310 H 493.359 -0.952976 -1.89821 0
M  V30 5311 H 495.622 -0.368537 -0.873432 0
M  V30 5312 H 495.328 -0.802746 -3.42416 0
M  V30 5313 H 495.202 0.932194 -3.655 0
M  V30 5314 H 497.589 1.19446 -2.69845 0
M  V30 5315 H 497.67 -0.561419 -2.49563 0
M  V30 5316 H 497.314 -0.845644 -5.00811 0
M  V30 5317 H 497.244 0.925786 -5.18398 0
M  V30 5318 H 499.735 0.263269 -3.76982 0
M  V30 5319 H 500.048 -0.0871487 -7.72751 0
M  V30 5320 H 498.393 -0.0714256 -6.94963 0
M  V30 5321 H 501.584 0.242006 -4.67474 0
M  V30 5322 H 501.757 0.0824413 -6.47948 0
M  V30 5323 N 495.163 1.55791 0.238111 0
M  V30 5324 C 496.111 1.91885 1.31464 0
M  V30 5325 C 497.105 0.798929 1.49377 0
M  V30 5326 O 498.311 0.983626 1.50747 0
M  V30 5327 H 494.686 0.609551 0.440399 0
M  V30 5328 H 496.657 2.81747 0.982925 0
M  V30 5329 C 495.406 2.23763 2.6613 0
M  V30 5330 H 494.729 3.09444 2.53149 0
M  V30 5331 H 496.169 2.52915 3.40309 0
M  V30 5332 C 494.628 1.05699 3.1989 0
M  V30 5333 O 495.158 0.309524 4.00506 0
M  V30 5334 N 493.364 0.845251 2.78036 0
M  V30 5335 H 492.911 1.4548 2.12588 0
M  V30 5336 H 492.869 0.0569973 3.14348 0
M  V30 5337 N 496.642 -0.504142 1.49319 0
M  V30 5338 C 497.867 -1.28729 1.62615 0
M  V30 5339 C 498.292 -1.85752 0.296309 0
M  V30 5340 O 497.65 -1.65704 -0.735649 0
M  V30 5341 C 497.698 -2.39561 2.69524 0
M  V30 5342 O 496.802 -3.43324 2.28478 0
M  V30 5343 H 496.143 -0.380172 0.544395 0
M  V30 5344 H 498.673 -0.603872 1.95485 0
M  V30 5345 H 498.683 -2.8537 2.91595 0
M  V30 5346 H 497.358 -1.97423 3.66056 0
M  V30 5347 H 495.935 -3.03455 2.16725 0
M  V30 5348 N 498.12 -1.38341 -0.754957 0
M  V30 5349 C 499.536 -1.19508 -1.05783 0
M  V30 5350 C 499.736 -0.0428005 -2.01455 0
M  V30 5351 O 498.792 0.611861 -2.44975 0
M  V30 5352 C 500.105 -2.52091 -1.63923 0
M  V30 5353 C 501.653 -2.58762 -1.76101 0
M  V30 5354 C 502.128 -3.91517 -2.37652 0
M  V30 5355 N 503.619 -3.93049 -2.45085 0
M  V30 5356 C 504.354 -4.9253 -2.93602 0
M  V30 5357 N 503.85 -6.02408 -3.42165 0
M  V30 5358 N 505.643 -4.79921 -2.92629 0
M  V30 5359 H 497.794 -2.1206 -0.120056 0
M  V30 5360 H 500.057 -0.94089 -0.11589 0
M  V30 5361 H 499.763 -3.36858 -1.01093 0
M  V30 5362 H 499.637 -2.70388 -2.63003 0
M  V30 5363 H 502.024 -1.74391 -2.38058 0
M  V30 5364 H 502.105 -2.44333 -0.757294 0
M  V30 5365 H 501.749 -4.76309 -1.76329 0
M  V30 5366 H 501.679 -4.03256 -3.38662 0
M  V30 5367 H 504.17 -3.13685 -2.10736 0
M  V30 5368 H 504.483 -6.74248 -3.77637 0
M  V30 5369 H 502.828 -6.0603 -3.40225 0
M  V30 5370 H 506.019 -3.93194 -2.54001 0
M  V30 5371 H 506.192 -5.57601 -3.30128 0
M  V30 5372 N 499.598 0.982988 -1.23187 0
M  V30 5373 C 500.53 2.07729 -0.968572 0
M  V30 5374 C 501.543 1.62702 0.0564821 0
M  V30 5375 O 502.732 1.77603 -0.178733 0
M  V30 5376 C 499.832 3.36071 -0.436974 0
M  V30 5377 C 499.005 4.10081 -1.52159 0
M  V30 5378 C 498.064 5.16701 -0.99532 0
M  V30 5379 O 497.09 5.43727 -1.68373 0
M  V30 5380 N 498.292 5.80226 0.178192 0
M  V30 5381 H 501.057 2.30894 -1.9107 0
M  V30 5382 H 498.618 1.14949 -1.1401 0
M  V30 5383 H 500.61 4.04639 -0.0700051 0
M  V30 5384 H 499.18 3.09893 0.410509 0
M  V30 5385 H 498.4 3.36004 -2.06144 0
M  V30 5386 H 499.688 4.56295 -2.25105 0
M  V30 5387 H 499.086 5.60651 0.754096 0
M  V30 5388 H 497.643 6.49982 0.486449 0
M  V30 5389 N 501.076 1.04316 1.18135 0
M  V30 5390 C 502.006 0.657299 2.24058 0
M  V30 5391 C 502.987 -0.340678 1.66654 0
M  V30 5392 O 504.172 -0.220223 1.92947 0
M  V30 5393 C 501.302 0.0220715 3.47293 0
M  V30 5394 C 500.256 0.943857 4.17463 0
M  V30 5395 C 499.582 0.172973 5.3442 0
M  V30 5396 C 500.882 2.26409 4.70677 0
M  V30 5397 H 502.576 1.5428 2.56589 0
M  V30 5398 H 500.122 0.743263 1.23335 0
M  V30 5399 H 502.075 -0.259607 4.206 0
M  V30 5400 H 500.799 -0.898323 3.14003 0
M  V30 5401 H 499.458 1.20996 3.46057 0
M  V30 5402 H 499.106 -0.749907 4.97379 0
M  V30 5403 H 498.806 0.787098 5.82304 0
M  V30 5404 H 500.33 -0.101628 6.10515 0
M  V30 5405 H 501.744 2.04294 5.35665 0
M  V30 5406 H 500.141 2.8314 5.29105 0
M  V30 5407 H 501.211 2.90883 3.87962 0
M  V30 5408 N 502.554 -1.34406 0.822964 0
M  V30 5409 C 503.831 -1.92733 0.333641 0
M  V30 5410 C 504.211 -1.75107 -1.17901 0
M  V30 5411 O 503.559 -1.12983 -1.98613 0
M  V30 5412 C 503.769 -3.40557 0.763023 0
M  V30 5413 C 505.117 -4.17709 0.761879 0
M  V30 5414 O 506.141 -3.49141 0.705606 0
M  V30 5415 O 505 -5.40082 0.835109 0
M  V30 5416 H 502.094 -0.821964 0.0911249 0
M  V30 5417 H 504.64 -1.4338 0.907757 0
M  V30 5418 H 503.412 -3.47187 1.8049 0
M  V30 5419 H 503.035 -3.97259 0.164605 0
M  V30 5420 N 504.032 -0.577932 -1.46621 0
M  V30 5421 C 504.962 0.145917 -2.33044 0
M  V30 5422 C 505.943 0.888412 -1.45056 0
M  V30 5423 O 507.128 0.864812 -1.73881 0
M  V30 5424 C 504.258 1.16322 -3.27241 0
M  V30 5425 C 503.212 0.535868 -4.24632 0
M  V30 5426 C 502.538 1.65929 -5.08303 0
M  V30 5427 C 503.838 -0.523861 -5.19666 0
M  V30 5428 H 505.532 -0.575636 -2.93814 0
M  V30 5429 H 503.078 -0.278272 -1.41286 0
M  V30 5430 H 505.031 1.67793 -3.86553 0
M  V30 5431 H 503.755 1.91498 -2.64567 0
M  V30 5432 H 502.414 0.0422759 -3.66576 0
M  V30 5433 H 502.062 2.40061 -4.42018 0
M  V30 5434 H 501.762 1.2452 -5.74255 0
M  V30 5435 H 503.286 2.17686 -5.70478 0
M  V30 5436 H 504.7 -0.0944059 -5.73222 0
M  V30 5437 H 503.097 -0.858 -5.93935 0
M  V30 5438 H 504.167 -1.41197 -4.63887 0
M  V30 5439 N 505.51 1.54411 -0.315457 0
M  V30 5440 C 506.738 2.04833 0.291738 0
M  V30 5441 C 507.153 1.19203 1.46411 0
M  V30 5442 O 506.51 0.220867 1.81159 0
M  V30 5443 C 506.561 3.53969 0.73404 0
M  V30 5444 O 506.282 4.36346 -0.391682 0
M  V30 5445 C 507.783 4.2045 1.40489 0
M  V30 5446 H 505.003 0.668195 0.0612947 0
M  V30 5447 H 507.547 1.99276 -0.45929 0
M  V30 5448 H 505.702 3.5984 1.43506 0
M  V30 5449 H 506.116 5.24481 -0.0447088 0
M  V30 5450 H 507.59 5.26278 1.66539 0
M  V30 5451 H 508.067 3.71067 2.3496 0
M  V30 5452 H 508.673 4.18694 0.746662 0
M  V30 5453 N 506.988 0.0434614 1.5754 0
M  V30 5454 C 508.236 -0.630786 1.92004 0
M  V30 5455 C 508.557 -1.71836 0.921807 0
M  V30 5456 O 507.827 -1.9587 -0.034522 0
M  V30 5457 H 506.407 -0.235988 0.708745 0
M  V30 5458 H 509.069 0.0946462 1.9467 0
M  V30 5459 H 508.165 -1.07434 2.93026 0
M  V30 5460 N 508.466 -1.55915 -0.229846 0
M  V30 5461 C 509.715 -1.77742 -0.953455 0
M  V30 5462 C 510.028 -0.610524 -1.85828 0
M  V30 5463 O 511.234 -0.712219 -2.61992 0
M  V30 5464 C 509.69 -3.14738 -1.74551 0
M  V30 5465 C 509.298 -4.39126 -0.887242 0
M  V30 5466 C 511.042 -3.45895 -2.46084 0
M  V30 5467 C 508.949 -5.67149 -1.67617 0
M  V30 5468 H 507.879 -0.662648 -0.359741 0
M  V30 5469 H 510.53 -1.82322 -0.207576 0
M  V30 5470 H 508.912 -3.04311 -2.53399 0
M  V30 5471 H 510.086 -4.60588 -0.139892 0
M  V30 5472 H 508.401 -4.15427 -0.284443 0
M  V30 5473 H 510.998 -4.38767 -3.05594 0
M  V30 5474 H 511.341 -2.68007 -3.18556 0
M  V30 5475 H 511.874 -3.57614 -1.74233 0
M  V30 5476 H 508.613 -6.47906 -0.994881 0
M  V30 5477 H 508.133 -5.49763 -2.39836 0
M  V30 5478 H 509.812 -6.07025 -2.23898 0
M  V30 5479 N 509.944 0.496216 -1.49584 0
M  V30 5480 C 510.874 1.60576 -1.69521 0
M  V30 5481 C 511.855 1.61169 -0.543933 0
M  V30 5482 O 513.04 1.77834 -0.78031 0
M  V30 5483 C 510.17 2.99038 -1.76616 0
M  V30 5484 C 509.124 3.13312 -2.91581 0
M  V30 5485 C 508.45 4.53172 -2.83794 0
M  V30 5486 C 509.75 2.92886 -4.32452 0
M  V30 5487 H 511.444 1.44146 -2.62416 0
M  V30 5488 H 508.99 0.692024 -1.26282 0
M  V30 5489 H 510.943 3.76564 -1.8915 0
M  V30 5490 H 509.667 3.16568 -0.80324 0
M  V30 5491 H 508.326 2.38213 -2.78658 0
M  V30 5492 H 507.974 4.67585 -1.854 0
M  V30 5493 H 507.674 4.63662 -3.60958 0
M  V30 5494 H 509.198 5.32752 -2.98342 0
M  V30 5495 H 510.612 3.60178 -4.46032 0
M  V30 5496 H 509.009 3.14844 -5.10875 0
M  V30 5497 H 510.079 1.88966 -4.46565 0
M  V30 5498 N 511.423 1.38739 0.74761 0
M  V30 5499 C 512.672 1.3459 1.50228 0
M  V30 5500 C 512.985 -0.0595592 1.95509 0
M  V30 5501 O 514.191 -0.22361 2.70578 0
M  V30 5502 C 512.647 2.36377 2.71393 0
M  V30 5503 C 512.255 3.82573 2.33113 0
M  V30 5504 C 513.999 2.41281 3.49262 0
M  V30 5505 C 511.906 4.76032 3.50924 0
M  V30 5506 H 510.836 0.500312 0.564096 0
M  V30 5507 H 513.487 1.64324 0.8167 0
M  V30 5508 H 511.869 1.99694 3.41962 0
M  V30 5509 H 513.043 4.28227 1.70171 0
M  V30 5510 H 511.358 3.80844 1.68365 0
M  V30 5511 H 513.955 3.08301 4.36869 0
M  V30 5512 H 514.298 1.43353 3.9084 0
M  V30 5513 H 514.831 2.76793 2.85711 0
M  V30 5514 H 511.57 5.75177 3.14408 0
M  V30 5515 H 511.09 4.35066 4.12889 0
M  V30 5516 H 512.769 4.94331 4.17427 0
M  V30 5517 N 512.901 -0.976442 1.23707 0
M  V30 5518 C 513.848 -2.06952 1.02174 0
M  V30 5519 C 514.818 -1.65984 -0.0621034 0
M  V30 5520 O 516.003 -1.90584 0.0907906 0
M  V30 5521 C 513.143 -3.39425 0.62327 0
M  V30 5522 C 512.256 -3.9364 1.77966 0
M  V30 5523 C 511.391 -5.14343 1.3276 0
M  V30 5524 C 510.43 -5.60733 2.45449 0
M  V30 5525 N 509.567 -6.72662 2.01172 0
M  V30 5526 H 514.407 -2.24704 1.95734 0
M  V30 5527 H 511.944 -1.10143 0.975034 0
M  V30 5528 H 513.902 -4.15526 0.37332 0
M  V30 5529 H 512.532 -3.21624 -0.275329 0
M  V30 5530 H 511.584 -3.14258 2.14351 0
M  V30 5531 H 512.896 -4.24035 2.62671 0
M  V30 5532 H 512.05 -5.97789 1.03601 0
M  V30 5533 H 510.789 -4.8561 0.450975 0
M  V30 5534 H 509.794 -4.75865 2.75378 0
M  V30 5535 H 511.019 -5.91483 3.33654 0
M  V30 5536 H 508.965 -6.45681 1.15895 0
M  V30 5537 H 508.882 -7.02462 2.79434 0
M  V30 5538 H 510.15 -7.59572 1.75129 0
M  V30 5539 N 514.379 -1.04941 -1.1758 0
M  V30 5540 C 515.604 -0.778253 -1.92245 0
M  V30 5541 C 516.029 0.659707 -1.76152 0
M  V30 5542 O 515.387 1.45803 -1.07755 0
M  V30 5543 C 515.435 -1.16051 -3.41416 0
M  V30 5544 O 514.539 -0.291153 -4.11371 0
M  V30 5545 H 513.88 -0.285619 -0.599431 0
M  V30 5546 H 516.41 -1.40159 -1.49052 0
M  V30 5547 H 516.42 -1.12619 -3.92149 0
M  V30 5548 H 515.095 -2.208 -3.52449 0
M  V30 5549 H 513.672 -0.385851 -3.70898 0
M  V30 5550 N 515.857 1.33968 -0.830081 0
M  V30 5551 C 517.082 2.02813 -0.433796 0
M  V30 5552 C 517.507 1.62076 0.954614 0
M  V30 5553 O 516.865 0.808955 1.62252 0
M  V30 5554 C 516.913 3.56348 -0.552115 0
M  V30 5555 O 516.017 4.10202 0.425191 0
M  V30 5556 H 515.358 0.639817 -0.177567 0
M  V30 5557 H 517.888 1.7106 -1.12248 0
M  V30 5558 H 517.898 4.05722 -0.430513 0
M  V30 5559 H 516.573 3.85344 -1.56471 0
M  V30 5560 H 515.15 3.71979 0.261878 0
M  V30 5561 N 517.335 0.585699 1.46312 0
M  V30 5562 C 518.283 -0.158577 2.32059 0
M  V30 5563 C 519.277 -0.881427 1.44662 0
M  V30 5564 O 520.483 -0.799476 1.61271 0
M  V30 5565 H 516.858 -0.0700066 0.748734 0
M  V30 5566 H 518.829 0.583383 2.92642 0
M  V30 5567 C 517.578 -1.15701 3.27885 0
M  V30 5568 H 516.901 -0.610215 3.95116 0
M  V30 5569 H 518.341 -1.64812 3.90657 0
M  V30 5570 C 516.8 -2.21951 2.53455 0
M  V30 5571 O 517.33 -3.29352 2.29978 0
M  V30 5572 N 515.536 -1.9664 2.13965 0
M  V30 5573 H 515.083 -1.09309 2.33258 0
M  V30 5574 H 515.041 -2.6794 1.64485 0
M  V30 5575 N 518.813 -1.54241 0.323641 0
M  V30 5576 C 520.059 -2.00867 -0.279323 0
M  V30 5577 C 520.392 -1.21146 -1.5178 0
M  V30 5578 O 519.667 -0.29378 -1.92269 0
M  V30 5579 C 519.95 -3.54837 -0.613387 0
M  V30 5580 C 519.803 -4.45284 0.635803 0
M  V30 5581 C 521.122 -4.16186 -1.43099 0
M  V30 5582 H 518.241 -0.730177 -0.100049 0
M  V30 5583 H 520.883 -1.84829 0.440235 0
M  V30 5584 H 519.033 -3.68634 -1.22641 0
M  V30 5585 H 520.705 -4.43357 1.27406 0
M  V30 5586 H 518.948 -4.14956 1.26466 0
M  V30 5587 H 519.619 -5.5084 0.357597 0
M  V30 5588 H 522.095 -4.05964 -0.912814 0
M  V30 5589 H 520.971 -5.24031 -1.6335 0
M  V30 5590 H 521.232 -3.69516 -2.42715 0
M  V30 5591 N 520.291 -0.0518155 -1.57515 0
M  V30 5592 C 521.539 0.620595 -1.92336 0
M  V30 5593 C 521.86 1.71345 -0.930907 0
M  V30 5594 O 521.13 1.95885 0.0241341 0
M  V30 5595 H 519.71 0.232226 -0.709986 0
M  V30 5596 H 522.372 -0.104969 -1.94617 0
M  V30 5597 H 521.468 1.05879 -2.93592 0
M  V30 5598 N 521.769 1.56035 0.221574 0
M  V30 5599 C 523.018 1.78245 0.944016 0
M  V30 5600 C 523.331 0.620371 1.85501 0
M  V30 5601 O 524.537 0.726103 2.6161 0
M  V30 5602 C 522.993 3.15659 1.7288 0
M  V30 5603 C 522.601 4.39591 0.863942 0
M  V30 5604 C 524.345 3.47195 2.44246 0
M  V30 5605 C 522.252 5.6803 1.64607 0
M  V30 5606 H 521.182 0.664547 0.356222 0
M  V30 5607 H 523.833 1.8243 0.197904 0
M  V30 5608 H 522.215 3.0565 2.51781 0
M  V30 5609 H 523.389 4.60655 0.115464 0
M  V30 5610 H 521.704 4.15572 0.262407 0
M  V30 5611 H 524.301 4.40381 3.03263 0
M  V30 5612 H 524.644 2.69693 3.1713 0
M  V30 5613 H 525.177 3.58533 1.72334 0
M  V30 5614 H 521.916 6.48425 0.960507 0
M  V30 5615 H 521.436 5.51027 2.36917 0
M  V30 5616 H 523.115 6.08203 2.20675 0
M  V30 5617 N 523.247 -0.488276 1.49845 0
M  V30 5618 C 524.472 -1.26997 1.63971 0
M  V30 5619 C 524.897 -1.85427 0.315994 0
M  V30 5620 O 524.255 -1.66475 -0.718032 0
M  V30 5621 C 524.303 -2.36689 2.72049 0
M  V30 5622 O 523.407 -3.40882 2.32107 0
M  V30 5623 H 522.748 -0.374376 0.548396 0
M  V30 5624 H 525.278 -0.583104 1.96115 0
M  V30 5625 H 525.288 -2.82262 2.94605 0
M  V30 5626 H 523.963 -1.93529 3.68129 0
M  V30 5627 H 522.54 -3.01139 2.19931 0
M  V30 5628 N 524.725 -1.39134 -0.740242 0
M  V30 5629 C 525.672 -1.37434 -1.8542 0
M  V30 5630 C 526.642 -0.234822 -1.64432 0
M  V30 5631 O 527.827 -0.429125 -1.85912 0
M  V30 5632 C 524.967 -1.21844 -3.22875 0
M  V30 5633 C 524.08 -2.45296 -3.55603 0
M  V30 5634 C 523.215 -2.22334 -4.82432 0
M  V30 5635 C 522.254 -3.41488 -5.07988 0
M  V30 5636 N 521.391 -3.17877 -6.26018 0
M  V30 5637 H 526.231 -2.3266 -1.86207 0
M  V30 5638 H 523.768 -1.15578 -0.909946 0
M  V30 5639 H 525.726 -1.10818 -4.02213 0
M  V30 5640 H 524.356 -0.3025 -3.21379 0
M  V30 5641 H 523.408 -2.66945 -2.71006 0
M  V30 5642 H 524.72 -3.34063 -3.7041 0
M  V30 5643 H 523.874 -2.0852 -5.69741 0
M  V30 5644 H 522.613 -1.30954 -4.6979 0
M  V30 5645 H 521.618 -3.55807 -4.19144 0
M  V30 5646 H 522.843 -4.33763 -5.22519 0
M  V30 5647 H 520.789 -2.29156 -6.14673 0
M  V30 5648 H 520.706 -4.00198 -6.41387 0
M  V30 5649 H 521.974 -3.07746 -7.16179 0
M  V30 5650 N 526.204 0.969867 -1.24223 0
M  V30 5651 C 527.453 1.70687 -1.07466 0
M  V30 5652 C 527.766 1.91736 0.386861 0
M  V30 5653 O 528.972 2.62986 0.674581 0
M  V30 5654 C 527.428 3.07217 -1.87472 0
M  V30 5655 C 527.036 2.94018 -3.3802 0
M  V30 5656 C 528.78 3.84804 -1.79237 0
M  V30 5657 C 526.687 4.25844 -4.10379 0
M  V30 5658 H 525.617 0.640067 -0.398536 0
M  V30 5659 H 528.268 1.08092 -1.48285 0
M  V30 5660 H 526.65 3.70628 -1.39466 0
M  V30 5661 H 527.824 2.39632 -3.9359 0
M  V30 5662 H 526.139 2.29898 -3.47183 0
M  V30 5663 H 528.736 4.82417 -2.30603 0
M  V30 5664 H 529.079 4.09356 -0.757197 0
M  V30 5665 H 529.612 3.28115 -2.24912 0
M  V30 5666 H 526.351 4.06486 -5.14246 0
M  V30 5667 H 525.871 4.80054 -3.59594 0
M  V30 5668 H 527.55 4.94475 -4.17257 0
M  V30 5669 N 527.682 1.05563 1.17022 0
M  V30 5670 C 528.645 0.664098 2.19368 0
M  V30 5671 C 529.645 -0.286358 1.5823 0
M  V30 5672 O 530.835 -0.069728 1.7406 0
M  V30 5673 C 527.967 -0.0239932 3.40892 0
M  V30 5674 H 529.16 1.57 2.55521 0
M  V30 5675 H 526.713 0.849964 1.31169 0
M  V30 5676 H 527.448 -0.942988 3.10287 0
M  V30 5677 H 527.233 0.659351 3.86516 0
M  V30 5678 H 528.723 -0.283909 4.16634 0
M  V30 5679 N 529.16 -1.33526 0.837174 0
M  V30 5680 C 530.407 -1.97837 0.432064 0
M  V30 5681 C 530.735 -1.66324 -1.00829 0
M  V30 5682 O 529.99 -0.93448 -1.71948 0
M  V30 5683 C 530.289 -3.52367 0.597675 0
M  V30 5684 C 529.955 -4.03826 2.00587 0
M  V30 5685 C 528.617 -4.1759 2.39106 0
M  V30 5686 C 530.969 -4.31333 2.92576 0
M  V30 5687 C 528.297 -4.56195 3.68921 0
M  V30 5688 C 530.649 -4.7139 4.2187 0
M  V30 5689 C 529.313 -4.8336 4.60347 0
M  V30 5690 H 528.583 -0.723937 0.158104 0
M  V30 5691 H 531.23 -1.5923 1.06387 0
M  V30 5692 H 529.535 -3.91624 -0.117452 0
M  V30 5693 H 531.232 -4.00126 0.26454 0
M  V30 5694 H 527.822 -3.93586 1.69671 0
M  V30 5695 H 532.006 -4.20224 2.64056 0
M  V30 5696 H 527.262 -4.63655 3.9854 0
M  V30 5697 H 531.436 -4.91631 4.93226 0
M  V30 5698 H 529.063 -5.1303 5.60985 0
M  V30 5699 N 530.638 -0.59345 -1.46 0
M  V30 5700 C 531.915 -0.0157933 -1.95594 0
M  V30 5701 C 532.295 1.44807 -1.53604 0
M  V30 5702 O 531.643 2.14342 -0.791824 0
M  V30 5703 C 531.853 -0.199081 -3.48432 0
M  V30 5704 C 533.201 -0.0724943 -4.24538 0
M  V30 5705 O 534.225 -0.128469 -3.55968 0
M  V30 5706 O 533.084 0.0542426 -5.46473 0
M  V30 5707 H 530.178 0.043749 -0.825842 0
M  V30 5708 H 532.724 -0.662522 -1.56233 0
M  V30 5709 H 531.496 -1.21631 -3.71916 0
M  V30 5710 H 531.119 0.483576 -3.94648 0
M  V30 5711 N 532.116 1.54067 -0.331816 0
M  V30 5712 C 533.365 1.99895 0.269209 0
M  V30 5713 C 533.678 1.22371 1.52593 0
M  V30 5714 O 534.884 1.58618 2.20347 0
M  V30 5715 C 533.34 3.55972 0.530244 0
M  V30 5716 C 532.948 4.4234 -0.709901 0
M  V30 5717 C 534.692 4.10247 1.09077 0
M  V30 5718 C 532.599 5.89905 -0.420312 0
M  V30 5719 H 531.529 0.746741 0.104371 0
M  V30 5720 H 534.18 1.78014 -0.445324 0
M  V30 5721 H 532.562 3.73873 1.30518 0
M  V30 5722 H 533.736 4.36215 -1.48504 0
M  V30 5723 H 532.051 3.98997 -1.19123 0
M  V30 5724 H 534.648 5.18095 1.32219 0
M  V30 5725 H 534.991 3.62739 2.0427 0
M  V30 5726 H 535.524 3.96011 0.376824 0
M  V30 5727 H 532.263 6.41623 -1.34164 0
M  V30 5728 H 531.783 5.98962 0.316962 0
M  V30 5729 H 533.462 6.46991 -0.0331956 0
M  V30 5730 N 533.594 0.0601682 1.57485 0
M  V30 5731 C 534.842 -0.610386 1.92662 0
M  V30 5732 C 535.163 -1.70849 0.939981 0
M  V30 5733 O 534.433 -1.95895 -0.0137455 0
M  V30 5734 H 533.013 -0.228457 0.711208 0
M  V30 5735 H 535.675 0.115288 1.94559 0
M  V30 5736 H 534.771 -1.0432 2.94149 0
M  V30 5737 N 535.072 -1.5615 -0.213296 0
M  V30 5738 C 536.035 -1.92249 -1.24792 0
M  V30 5739 C 537.035 -0.801828 -1.39382 0
M  V30 5740 O 538.225 -1.06948 -1.37506 0
M  V30 5741 C 535.357 -2.18056 -2.62039 0
M  V30 5742 H 536.55 -2.84793 -0.939845 0
M  V30 5743 H 534.103 -1.49559 -0.454062 0
M  V30 5744 H 534.838 -1.2809 -2.97932 0
M  V30 5745 H 534.623 -2.99703 -2.52825 0
M  V30 5746 H 536.113 -2.47051 -3.36683 0
M  V30 5747 N 536.55 0.480323 -1.50102 0
M  V30 5748 C 537.46 1.60547 -1.71061 0
M  V30 5749 C 538.476 1.63564 -0.593529 0
M  V30 5750 O 539.652 1.81604 -0.870751 0
M  V30 5751 C 536.717 2.96814 -1.79171 0
M  V30 5752 C 535.778 3.04259 -3.02861 0
M  V30 5753 C 535.011 4.34027 -3.10574 0
M  V30 5754 O 535.234 5.24009 -2.25323 0
M  V30 5755 O 534.168 4.46873 -4.03223 0
M  V30 5756 H 537.994 1.45788 -2.6642 0
M  V30 5757 H 535.579 0.658838 -1.34088 0
M  V30 5758 H 537.461 3.77765 -1.86738 0
M  V30 5759 H 536.136 3.11791 -0.869947 0
M  V30 5760 H 535.043 2.22419 -3.008 0
M  V30 5761 H 536.376 2.94216 -3.94586 0
M  V30 5762 N 538.028 1.39524 0.732853 0
M  V30 5763 C 539.253 1.40329 1.52717 0
M  V30 5764 C 539.678 0.000286574 1.881 0
M  V30 5765 O 539.036 -0.987262 1.52062 0
M  V30 5766 C 539.084 2.28464 2.78992 0
M  V30 5767 O 538.188 1.716 3.75003 0
M  V30 5768 H 537.529 0.47778 0.461109 0
M  V30 5769 H 540.059 1.83546 0.903996 0
M  V30 5770 H 540.069 2.43051 3.27705 0
M  V30 5771 H 538.744 3.30425 2.52572 0
M  V30 5772 H 537.321 1.66267 3.33781 0
M  V30 5773 N 539.506 -0.963266 1.24736 0
M  V30 5774 C 540.755 -1.70115 1.08369 0
M  V30 5775 C 541.068 -1.91939 -0.376688 0
M  V30 5776 O 542.274 -2.6334 -0.660624 0
M  V30 5777 C 540.73 -3.06218 1.89099 0
M  V30 5778 C 540.338 -2.92221 3.39574 0
M  V30 5779 C 542.082 -3.83848 1.81275 0
M  V30 5780 C 539.989 -4.23662 4.12631 0
M  V30 5781 H 538.919 -0.637944 0.401924 0
M  V30 5782 H 541.57 -1.07304 1.48856 0
M  V30 5783 H 539.952 -3.69884 1.41429 0
M  V30 5784 H 541.126 -2.37541 3.94856 0
M  V30 5785 H 539.441 -2.28054 3.48397 0
M  V30 5786 H 542.038 -4.81188 2.33158 0
M  V30 5787 H 542.381 -4.08949 0.778895 0
M  V30 5788 H 542.914 -3.26918 2.26649 0
M  V30 5789 H 539.653 -4.03753 5.16395 0
M  V30 5790 H 539.173 -4.78141 3.62135 0
M  V30 5791 H 540.852 -4.92256 4.19873 0
M  V30 5792 N 540.985 -1.06182 -1.16461 0
M  V30 5793 C 542.215 -0.797425 -1.9059 0
M  V30 5794 C 542.623 0.651845 -1.77616 0
M  V30 5795 O 541.966 1.45788 -1.11766 0
M  V30 5796 C 542.028 -1.11128 -3.41893 0
M  V30 5797 C 541.692 -2.55874 -3.78652 0
M  V30 5798 C 542.689 -3.54104 -3.80665 0
M  V30 5799 C 540.374 -2.91144 -4.09317 0
M  V30 5800 C 542.368 -4.85645 -4.12829 0
M  V30 5801 C 540.055 -4.22885 -4.41148 0
M  V30 5802 C 541.053 -5.19945 -4.42883 0
M  V30 5803 O 540.741 -6.49322 -4.73959 0
M  V30 5804 H 540.473 -0.288709 -0.611247 0
M  V30 5805 H 543.027 -1.41841 -1.4856 0
M  V30 5806 H 541.257 -0.433217 -3.84266 0
M  V30 5807 H 542.946 -0.831306 -3.97296 0
M  V30 5808 H 543.712 -3.28197 -3.57088 0
M  V30 5809 H 539.591 -2.16252 -4.07131 0
M  V30 5810 H 543.135 -5.61398 -4.14099 0
M  V30 5811 H 539.032 -4.48551 -4.6419 0
M  V30 5812 H 539.8 -6.54294 -4.91774 0
M  V30 5813 N 542.463 1.3308 -0.844243 0
M  V30 5814 C 543.688 2.02341 -0.455282 0
M  V30 5815 C 544.113 1.6308 0.93737 0
M  V30 5816 O 543.471 0.826118 1.61385 0
M  V30 5817 C 543.519 3.55743 -0.58988 0
M  V30 5818 O 542.623 4.1063 0.38166 0
M  V30 5819 H 541.964 0.637898 -0.184343 0
M  V30 5820 H 544.494 1.6986 -1.14056 0
M  V30 5821 H 544.504 4.05243 -0.473522 0
M  V30 5822 H 543.179 3.83662 -1.60549 0
M  V30 5823 H 541.756 3.72236 0.22241 0
M  V30 5824 N 543.941 0.601185 1.45683 0
M  V30 5825 C 545.187 0.0940202 2.02582 0
M  V30 5826 C 545.52 -1.26972 1.46941 0
M  V30 5827 O 544.795 -1.83613 0.641612 0
M  V30 5828 C 545.078 0.0481715 3.60068 0
M  V30 5829 C 544.931 1.44212 4.26055 0
M  V30 5830 C 546.25 -0.642975 4.35378 0
M  V30 5831 H 543.369 0.0356404 0.736138 0
M  V30 5832 H 546.011 0.771929 1.73612 0
M  V30 5833 H 544.161 -0.529128 3.8488 0
M  V30 5834 H 545.833 2.06601 4.12449 0
M  V30 5835 H 544.076 2.00465 3.84703 0
M  V30 5836 H 544.747 1.36234 5.34925 0
M  V30 5837 H 547.223 -0.152351 4.15821 0
M  V30 5838 H 546.099 -0.644141 5.45107 0
M  V30 5839 H 546.36 -1.70785 4.0778 0
M  V30 5840 N 545.419 -1.53889 0.339982 0
M  V30 5841 C 546.352 -2.21187 -0.561405 0
M  V30 5842 C 547.33 -1.19463 -1.10306 0
M  V30 5843 O 548.514 -1.48268 -1.164 0
M  V30 5844 C 545.641 -2.8865 -1.77198 0
M  V30 5845 C 544.687 -4.04232 -1.3601 0
M  V30 5846 S 545.52 -5.34129 -0.382909 0
M  V30 5847 C 546.676 -6.05094 -1.60039 0
M  V30 5848 H 546.909 -2.97298 0.0102092 0
M  V30 5849 H 544.442 -1.53901 0.124056 0
M  V30 5850 H 546.4 -3.28138 -2.4665 0
M  V30 5851 H 545.061 -2.12311 -2.3148 0
M  V30 5852 H 544.254 -4.50358 -2.2626 0
M  V30 5853 H 543.856 -3.66503 -0.745098 0
M  V30 5854 H 546.148 -6.2827 -2.53541 0
M  V30 5855 H 547.091 -6.98182 -1.18099 0
M  V30 5856 H 547.499 -5.35207 -1.79483 0
M  V30 5857 N 546.897 -0.0685191 -1.57451 0
M  V30 5858 C 547.829 0.929372 -2.09512 0
M  V30 5859 C 548.842 1.26354 -1.02657 0
M  V30 5860 O 550.031 1.2213 -1.30179 0
M  V30 5861 C 547.131 2.24612 -2.53777 0
M  V30 5862 C 546.304 2.09128 -3.84167 0
M  V30 5863 C 545.363 3.24079 -4.14559 0
M  V30 5864 O 544.389 2.99215 -4.8421 0
M  V30 5865 N 545.591 4.49077 -3.67845 0
M  V30 5866 H 548.356 0.484901 -2.95751 0
M  V30 5867 H 545.917 0.11729 -1.61475 0
M  V30 5868 H 547.909 3.00412 -2.71172 0
M  V30 5869 H 546.479 2.60569 -1.72692 0
M  V30 5870 H 545.699 1.17815 -3.76182 0
M  V30 5871 H 546.987 1.9603 -4.69521 0
M  V30 5872 H 546.385 4.72165 -3.11571 0
M  V30 5873 H 544.942 5.21915 -3.90446 0
M  V30 5874 N 548.375 1.56261 0.205012 0
M  V30 5875 C 549.307 1.90266 1.27795 0
M  V30 5876 C 550.32 0.792397 1.42214 0
M  V30 5877 O 551.509 1.07077 1.42817 0
M  V30 5878 C 548.609 2.11074 2.65143 0
M  V30 5879 C 547.782 3.42176 2.7246 0
M  V30 5880 C 546.841 3.52216 3.90936 0
M  V30 5881 O 545.867 4.25119 3.78501 0
M  V30 5882 N 547.069 2.84573 5.05963 0
M  V30 5883 H 549.834 2.82896 0.989434 0
M  V30 5884 H 547.395 1.57008 0.394981 0
M  V30 5885 H 549.387 2.15089 3.4281 0
M  V30 5886 H 547.957 1.2499 2.86524 0
M  V30 5887 H 547.177 3.50116 1.81142 0
M  V30 5888 H 548.465 4.28509 2.74331 0
M  V30 5889 H 547.863 2.25152 5.18963 0
M  V30 5890 H 546.42 2.94228 5.81613 0
M  V30 5891 N 549.853 -0.472356 1.50355 0
M  V30 5892 C 551.099 -1.22634 1.6152 0
M  V30 5893 C 551.432 -1.91645 0.313995 0
M  V30 5894 O 550.707 -1.82059 -0.684446 0
M  V30 5895 C 550.99 -2.27099 2.7946 0
M  V30 5896 C 550.843 -1.62402 4.19459 0
M  V30 5897 C 552.162 -3.28421 2.92964 0
M  V30 5898 H 549.281 -0.444494 0.587873 0
M  V30 5899 H 551.923 -0.520321 1.82737 0
M  V30 5900 H 550.073 -2.87314 2.61501 0
M  V30 5901 H 551.745 -1.05793 4.49005 0
M  V30 5902 H 549.988 -0.927184 4.23776 0
M  V30 5903 H 550.659 -2.38309 4.97909 0
M  V30 5904 H 553.135 -2.78227 3.09401 0
M  V30 5905 H 552.011 -3.98845 3.77113 0
M  V30 5906 H 552.272 -3.92467 2.03525 0
M  V30 5907 N 551.331 -1.39911 -0.725443 0
M  V30 5908 C 552.579 -1.37382 -1.48224 0
M  V30 5909 C 552.9 0.0264107 -1.94982 0
M  V30 5910 O 552.17 0.979408 -1.6966 0
M  V30 5911 H 550.75 -0.505596 -0.549892 0
M  V30 5912 H 553.412 -1.7487 -0.860608 0
M  V30 5913 H 552.508 -2.04254 -2.3598 0
M  V30 5914 N 552.809 0.956637 -1.25245 0
M  V30 5915 C 553.739 2.07058 -1.07931 0
M  V30 5916 C 554.72 1.70096 0.0110361 0
M  V30 5917 O 555.905 1.93555 -0.158121 0
M  V30 5918 C 553.035 3.40272 -0.695124 0
M  V30 5919 C 551.989 3.91235 -1.73549 0
M  V30 5920 C 551.315 5.20921 -1.20604 0
M  V30 5921 C 552.615 4.17837 -3.13385 0
M  V30 5922 H 554.309 2.218 -2.01109 0
M  V30 5923 H 551.855 1.06581 -0.968326 0
M  V30 5924 H 553.808 4.1765 -0.560949 0
M  V30 5925 H 552.532 3.25462 0.272355 0
M  V30 5926 H 551.191 3.16025 -1.85807 0
M  V30 5927 H 550.839 5.02479 -0.228846 0
M  V30 5928 H 550.539 5.55987 -1.90136 0
M  V30 5929 H 552.063 6.00897 -1.08421 0
M  V30 5930 H 553.477 4.8588 -3.04292 0
M  V30 5931 H 551.874 4.64154 -3.80369 0
M  V30 5932 H 552.944 3.2419 -3.60595 0
M  V30 5933 N 554.287 1.06798 1.15896 0
M  V30 5934 C 555.535 0.786211 1.8618 0
M  V30 5935 C 555.856 -0.689547 1.82401 0
M  V30 5936 O 555.126 -1.49913 1.26107 0
M  V30 5937 H 553.706 0.287843 0.689315 0
M  V30 5938 H 556.368 1.35055 1.40521 0
M  V30 5939 H 555.464 1.1157 2.91477 0
M  V30 5940 N 555.766 -1.3263 0.851289 0
M  V30 5941 C 556.698 -2.27824 0.250757 0
M  V30 5942 C 557.711 -1.52285 -0.575598 0
M  V30 5943 O 558.9 -1.73946 -0.400638 0
M  V30 5944 C 556 -3.3232 -0.664571 0
M  V30 5945 C 555.173 -4.37221 0.125187 0
M  V30 5946 C 554.232 -5.21314 -0.715385 0
M  V30 5947 O 553.258 -5.69002 -0.150111 0
M  V30 5948 N 554.46 -5.43823 -2.03069 0
M  V30 5949 H 557.225 -2.79997 1.06873 0
M  V30 5950 H 554.786 -1.45455 0.710943 0
M  V30 5951 H 556.778 -3.85486 -1.23216 0
M  V30 5952 H 555.348 -2.80331 -1.38323 0
M  V30 5953 H 554.568 -3.84384 0.874199 0
M  V30 5954 H 555.856 -5.04399 0.667774 0
M  V30 5955 H 555.254 -5.06803 -2.51332 0
M  V30 5956 H 553.811 -5.99998 -2.54648 0
M  V30 5957 N 557.244 -0.608902 -1.45362 0
M  V30 5958 C 558.521 -0.0365378 -1.95566 0
M  V30 5959 C 558.901 1.43169 -1.55131 0
M  V30 5960 O 558.249 2.1349 -0.814513 0
M  V30 5961 C 558.459 -0.236026 -3.48201 0
M  V30 5962 C 559.807 -0.117518 -4.24437 0
M  V30 5963 O 560.831 -0.166217 -3.55812 0
M  V30 5964 O 559.69 -0.00372127 -5.465 0
M  V30 5965 H 556.784 0.0349874 -0.82626 0
M  V30 5966 H 559.33 -0.679055 -1.55521 0
M  V30 5967 H 558.102 -1.25569 -3.70605 0
M  V30 5968 H 557.725 0.441691 -3.95139 0
M  V30 5969 N 558.722 1.53707 -0.348139 0
M  V30 5970 C 559.95 2.05406 0.248224 0
M  V30 5971 C 560.365 1.22282 1.43849 0
M  V30 5972 O 559.722 0.259244 1.80649 0
M  V30 5973 C 559.773 3.55446 0.658793 0
M  V30 5974 O 559.494 4.35417 -0.484149 0
M  V30 5975 C 560.995 4.23335 1.31539 0
M  V30 5976 H 558.215 0.669344 0.0471075 0
M  V30 5977 H 560.759 1.98257 -0.501456 0
M  V30 5978 H 558.914 3.62803 1.35841 0
M  V30 5979 H 559.328 5.24268 -0.155949 0
M  V30 5980 H 560.802 5.29692 1.55338 0
M  V30 5981 H 561.279 3.75967 2.27036 0
M  V30 5982 H 561.885 4.20184 0.657683 0
M  V30 5983 N 560.2 0.0768682 1.57412 0
M  V30 5984 C 561.448 -0.589918 1.93299 0
M  V30 5985 C 561.769 -1.69842 0.958049 0
M  V30 5986 O 561.039 -1.95899 0.00703261 0
M  V30 5987 H 559.619 -0.220901 0.713591 0
M  V30 5988 H 562.281 0.135917 1.94425 0
M  V30 5989 H 561.377 -1.01195 2.95239 0
M  V30 5990 N 561.678 -1.56367 -0.196722 0
M  V30 5991 C 562.608 -1.97442 -1.24655 0
M  V30 5992 C 563.589 -0.846147 -1.47561 0
M  V30 5993 O 564.774 -1.11035 -1.59326 0
M  V30 5994 C 561.904 -2.31253 -2.59112 0
M  V30 5995 C 560.858 -3.46804 -2.50821 0
M  V30 5996 C 560.184 -3.66286 -3.89536 0
M  V30 5997 C 561.484 -4.8104 -2.03465 0
M  V30 5998 H 563.178 -2.85388 -0.905216 0
M  V30 5999 H 560.724 -1.37304 -0.434002 0
M  V30 6000 H 562.677 -2.58583 -3.32736 0
M  V30 6001 H 561.401 -1.40188 -2.94983 0
M  V30 6002 H 560.06 -3.19563 -1.79653 0
M  V30 6003 H 559.708 -2.72555 -4.22756 0
M  V30 6004 H 559.408 -4.4402 -3.84864 0
M  V30 6005 H 560.932 -3.9599 -4.64784 0
M  V30 6006 H 562.346 -5.07411 -2.66846 0
M  V30 6007 H 560.743 -5.62232 -2.09798 0
M  V30 6008 H 561.813 -4.74732 -0.98781 0
M  V30 6009 N 563.156 0.464375 -1.50603 0
M  V30 6010 C 564.404 1.21356 -1.61608 0
M  V30 6011 C 564.725 1.92329 -0.321643 0
M  V30 6012 O 563.995 1.84403 0.661232 0
M  V30 6013 H 562.575 0.45094 -0.595535 0
M  V30 6014 H 565.237 0.535046 -1.87412 0
M  V30 6015 H 564.333 1.95783 -2.43054 0
M  V30 6016 N 564.634 1.40294 0.718013 0
M  V30 6017 C 565.881 1.3844 1.47786 0
M  V30 6018 C 566.209 -0.0140838 1.94495 0
M  V30 6019 O 565.464 -0.998165 1.68331 0
M  V30 6020 C 565.763 2.31814 2.72024 0
M  V30 6021 C 565.429 3.79117 2.44093 0
M  V30 6022 C 564.091 4.19249 2.36185 0
M  V30 6023 C 566.443 4.72212 2.20602 0
M  V30 6024 C 563.771 5.50516 2.02851 0
M  V30 6025 C 566.123 6.03775 1.88781 0
M  V30 6026 C 564.787 6.42953 1.79354 0
M  V30 6027 H 564.057 0.506588 0.540786 0
M  V30 6028 H 566.704 1.72929 0.822663 0
M  V30 6029 H 565.009 1.90501 3.42369 0
M  V30 6030 H 566.706 2.27664 3.30106 0
M  V30 6031 H 563.296 3.47318 2.51133 0
M  V30 6032 H 567.48 4.42026 2.25669 0
M  V30 6033 H 562.736 5.79776 1.94088 0
M  V30 6034 H 566.91 6.75428 1.69617 0
M  V30 6035 H 564.537 7.44584 1.53291 0
M  V30 6036 N 566.112 -0.949982 1.2575 0
M  V30 6037 C 567.523 -1.50989 1.09815 0
M  V30 6038 C 567.874 -1.93497 -0.324556 0
M  V30 6039 O 566.999 -1.79068 -1.21506 0
M  V30 6040 C 567.594 -2.74394 1.98729 0
M  V30 6041 C 566.153 -3.26682 1.86965 0
M  V30 6042 C 565.3 -1.99498 1.92603 0
M  V30 6043 H 568.251 -0.766387 1.38968 0
M  V30 6044 H 568.272 -3.48383 1.53001 0
M  V30 6045 H 567.784 -2.43425 3.02268 0
M  V30 6046 H 565.885 -3.62461 0.863279 0
M  V30 6047 H 565.998 -3.94383 2.72027 0
M  V30 6048 H 564.362 -2.15005 1.36546 0
M  V30 6049 H 565.145 -1.70871 2.97755 0
M  V30 6050 N 567.59 -1.07411 -1.15328 0
M  V30 6051 C 568.838 -0.796073 -1.85761 0
M  V30 6052 C 569.159 0.679864 -1.82764 0
M  V30 6053 O 568.429 1.49242 -1.269 0
M  V30 6054 H 567.009 -0.291495 -0.687779 0
M  V30 6055 H 569.671 -1.35799 -1.39802 0
M  V30 6056 H 568.767 -1.13114 -2.90881 0
M  V30 6057 N 569.068 1.32177 -0.85831 0
M  V30 6058 C 569.978 2.32561 -0.308606 0
M  V30 6059 C 570.994 1.64209 0.575462 0
M  V30 6060 O 572.17 1.95719 0.474961 0
M  V30 6061 C 569.235 3.43207 0.490909 0
M  V30 6062 C 568.296 4.27243 -0.419733 0
M  V30 6063 C 567.529 5.32605 0.341719 0
M  V30 6064 O 567.752 5.48332 1.57125 0
M  V30 6065 O 566.686 6.0118 -0.294379 0
M  V30 6066 H 570.512 2.81477 -1.14037 0
M  V30 6067 H 568.097 1.35866 -0.621349 0
M  V30 6068 H 569.979 4.10677 0.944574 0
M  V30 6069 H 568.654 2.96474 1.29941 0
M  V30 6070 H 567.561 3.62569 -0.921652 0
M  V30 6071 H 568.894 4.7751 -1.19352 0
M  V30 6072 N 570.547 0.616602 1.45037 0
M  V30 6073 C 571.963 0.280994 1.57107 0
M  V30 6074 C 572.163 -1.21627 1.60653 0
M  V30 6075 O 571.219 -1.9997 1.54169 0
M  V30 6076 C 572.532 0.960116 2.8496 0
M  V30 6077 C 574.08 0.936884 2.98649 0
M  V30 6078 C 574.555 1.59619 4.29285 0
M  V30 6079 N 576.046 1.5621 4.36065 0
M  V30 6080 C 576.781 2.04131 5.35834 0
M  V30 6081 N 576.277 2.60177 6.4209 0
M  V30 6082 N 578.07 1.94845 5.27249 0
M  V30 6083 H 570.221 1.58867 1.40979 0
M  V30 6084 H 572.484 0.666024 0.674623 0
M  V30 6085 H 572.19 2.01473 2.88273 0
M  V30 6086 H 572.064 0.488921 3.74018 0
M  V30 6087 H 574.451 -0.109209 2.94898 0
M  V30 6088 H 574.532 1.44643 2.10979 0
M  V30 6089 H 574.176 2.64166 4.33796 0
M  V30 6090 H 574.106 1.06159 5.15789 0
M  V30 6091 H 576.597 1.15276 3.59889 0
M  V30 6092 H 576.91 2.94513 7.1448 0
M  V30 6093 H 575.255 2.64221 6.42816 0
M  V30 6094 H 578.446 1.50792 4.43147 0
M  V30 6095 H 578.619 2.32504 6.04852 0
M  V30 6096 N 572.025 -1.5352 0.356285 0
M  V30 6097 C 573.271 -2.01414 -0.236653 0
M  V30 6098 C 573.604 -1.24339 -1.49176 0
M  V30 6099 O 572.879 -0.334496 -1.91602 0
M  V30 6100 C 573.162 -3.56059 -0.537982 0
M  V30 6101 C 573.015 -4.43835 0.730112 0
M  V30 6102 C 574.334 -4.19127 -1.34239 0
M  V30 6103 H 571.453 -0.732135 -0.0845386 0
M  V30 6104 H 574.095 -1.83854 0.479341 0
M  V30 6105 H 572.245 -3.71153 -1.14795 0
M  V30 6106 H 573.917 -4.40555 1.36782 0
M  V30 6107 H 572.16 -4.1218 1.3524 0
M  V30 6108 H 572.831 -5.49958 0.474358 0
M  V30 6109 H 575.307 -4.07809 -0.826498 0
M  V30 6110 H 574.183 -5.27378 -1.52198 0
M  V30 6111 H 574.444 -3.74581 -2.34822 0
M  V30 6112 N 573.503 -0.0852151 -1.57369 0
M  V30 6113 C 574.751 0.579658 -1.93609 0
M  V30 6114 C 575.072 1.69332 -0.967043 0
M  V30 6115 O 574.342 1.95892 -0.0174215 0
M  V30 6116 H 572.922 0.217113 -0.714752 0
M  V30 6117 H 575.584 -0.146226 -1.94351 0
M  V30 6118 H 574.68 0.996276 -2.95771 0
M  V30 6119 N 574.981 1.5647 0.188427 0
M  V30 6120 C 575.929 1.95971 1.25293 0
M  V30 6121 C 576.923 0.846047 1.4676 0
M  V30 6122 O 578.129 1.03109 1.47542 0
M  V30 6123 H 574.504 0.623253 0.420784 0
M  V30 6124 H 576.475 2.84731 0.892792 0
M  V30 6125 C 575.224 2.32116 2.58877 0
M  V30 6126 H 574.547 3.17341 2.43176 0
M  V30 6127 H 575.987 2.63613 3.3209 0
M  V30 6128 C 574.446 1.15823 3.16365 0
M  V30 6129 O 574.976 0.436785 3.99318 0
M  V30 6130 N 573.182 0.933278 2.75206 0
M  V30 6131 H 572.729 1.52169 2.07852 0
M  V30 6132 H 572.687 0.156976 3.14008 0
M  V30 6133 N 576.459 -0.456382 1.50847 0
M  V30 6134 C 577.389 -1.56025 1.73719 0
M  V30 6135 C 578.37 -1.5967 0.586473 0
M  V30 6136 O 579.555 -1.75702 0.827185 0
M  V30 6137 C 576.685 -2.94251 1.84483 0
M  V30 6138 C 575.639 -3.05471 2.99786 0
M  V30 6139 C 574.965 -4.45489 2.95709 0
M  V30 6140 C 576.265 -2.81318 4.40065 0
M  V30 6141 H 577.959 -1.37138 2.66146 0
M  V30 6142 H 575.505 -0.658299 1.28072 0
M  V30 6143 H 577.458 -3.71417 1.99067 0
M  V30 6144 H 576.182 -3.14328 0.886891 0
M  V30 6145 H 574.841 -2.30741 2.84876 0
M  V30 6146 H 574.489 -4.62505 1.97732 0
M  V30 6147 H 574.189 -4.53929 3.73125 0
M  V30 6148 H 575.713 -5.24655 3.12362 0
M  V30 6149 H 577.127 -3.48226 4.55425 0
M  V30 6150 H 575.524 -3.01188 5.19043 0
M  V30 6151 H 576.594 -1.7706 4.51418 0
M  V30 6152 N 577.937 -1.40673 -0.710563 0
M  V30 6153 C 579.348 -1.34975 -1.28991 0
M  V30 6154 C 579.699 -0.0256272 -1.96183 0
M  V30 6155 O 578.824 0.876339 -1.97862 0
M  V30 6156 C 579.419 -2.44467 -2.34567 0
M  V30 6157 C 577.978 -2.42213 -2.88114 0
M  V30 6158 C 577.125 -2.25085 -1.61963 0
M  V30 6159 H 580.076 -1.50406 -0.506343 0
M  V30 6160 H 580.097 -2.12663 -3.15523 0
M  V30 6161 H 579.609 -3.40825 -1.85634 0
M  V30 6162 H 577.71 -1.49568 -3.41263 0
M  V30 6163 H 577.823 -3.37983 -3.39565 0
M  V30 6164 H 576.187 -1.72691 -1.87216 0
M  V30 6165 H 576.97 -3.23449 -1.15047 0
M  V30 6166 N 579.415 0.9433 -1.26252 0
M  V30 6167 C 580.363 2.06302 -1.07434 0
M  V30 6168 C 581.357 1.694 -0.00189471 0
M  V30 6169 O 582.563 1.79302 -0.158408 0
M  V30 6170 H 578.938 0.675453 -0.330556 0
M  V30 6171 H 580.909 2.19326 -2.02333 0
M  V30 6172 C 579.658 3.40125 -0.721817 0
M  V30 6173 H 578.981 3.68996 -1.5389 0
M  V30 6174 H 580.421 4.19295 -0.629922 0
M  V30 6175 C 578.88 3.31993 0.572902 0
M  V30 6176 O 579.41 3.67945 1.61182 0
M  V30 6177 N 577.616 2.85099 0.562748 0
M  V30 6178 H 577.163 2.5604 -0.283092 0
M  V30 6179 H 577.121 2.80041 1.42915 0
M  V30 6180 N 580.893 1.08022 1.14757 0
M  V30 6181 C 581.843 0.676345 2.17737 0
M  V30 6182 C 582.827 -0.302018 1.5804 0
M  V30 6183 O 584.019 -0.11466 1.76628 0
M  V30 6184 C 581.148 0.082984 3.432 0
M  V30 6185 C 580.234 1.0869 4.09936 0
M  V30 6186 N 580.625 2.26891 4.52055 0
M  V30 6187 C 578.923 0.921768 4.36371 0
M  V30 6188 C 579.624 2.90636 5.0389 0
M  V30 6189 N 578.6 2.18266 4.97856 0
M  V30 6190 H 582.402 1.5765 2.4804 0
M  V30 6191 H 579.916 0.954374 1.31398 0
M  V30 6192 H 581.913 -0.224289 4.16296 0
M  V30 6193 H 580.573 -0.812206 3.14378 0
M  V30 6194 H 581.584 2.6457 4.45223 0
M  V30 6195 H 578.261 0.0800499 4.17423 0
M  V30 6196 H 579.651 3.9104 5.46386 0
M  V30 6197 N 582.371 -1.3172 0.865308 0
M  V30 6198 C 583.787 -1.4958 0.556596 0
M  V30 6199 C 583.987 -1.79763 -0.910353 0
M  V30 6200 O 583.043 -1.87351 -1.6928 0
M  V30 6201 C 584.356 -2.63277 1.45279 0
M  V30 6202 C 585.904 -2.77161 1.45433 0
M  V30 6203 C 586.379 -3.93949 2.33598 0
M  V30 6204 N 587.87 -4.01228 2.31453 0
M  V30 6205 C 588.605 -4.90855 2.96393 0
M  V30 6206 N 588.101 -5.85416 3.70486 0
M  V30 6207 N 589.894 -4.84063 2.85726 0
M  V30 6208 H 582.045 -1.10396 1.81456 0
M  V30 6209 H 584.308 -0.54507 0.775631 0
M  V30 6210 H 584.014 -2.47734 2.49641 0
M  V30 6211 H 583.888 -3.59309 1.14792 0
M  V30 6212 H 586.275 -2.9212 0.41831 0
M  V30 6213 H 586.356 -1.8181 1.79941 0
M  V30 6214 H 586 -3.79748 3.37274 0
M  V30 6215 H 585.93 -4.88598 1.96417 0
M  V30 6216 H 588.421 -3.3357 1.77593 0
M  V30 6217 H 588.734 -6.50525 4.17178 0
M  V30 6218 H 587.079 -5.85409 3.74594 0
M  V30 6219 H 590.27 -4.09163 2.27384 0
M  V30 6220 H 590.443 -5.53708 3.36617 0
M  V30 6221 N 583.85 -0.624285 -1.44708 0
M  V30 6222 C 584.797 0.0847135 -2.30644 0
M  V30 6223 C 585.767 0.843575 -1.43084 0
M  V30 6224 O 586.952 0.825982 -1.71995 0
M  V30 6225 C 584.091 1.06495 -3.28257 0
M  V30 6226 C 583.205 0.305224 -4.3092 0
M  V30 6227 C 582.34 1.27667 -5.1563 0
M  V30 6228 C 581.379 0.505706 -6.10007 0
M  V30 6229 N 580.516 1.42727 -6.8744 0
M  V30 6230 H 585.356 -0.654068 -2.90733 0
M  V30 6231 H 582.893 -0.334334 -1.4325 0
M  V30 6232 H 584.851 1.64658 -3.83332 0
M  V30 6233 H 583.481 1.77094 -2.69884 0
M  V30 6234 H 582.533 -0.392207 -3.78373 0
M  V30 6235 H 583.845 -0.295553 -4.97924 0
M  V30 6236 H 582.999 1.92984 -5.75189 0
M  V30 6237 H 581.738 1.91137 -4.48685 0
M  V30 6238 H 580.743 -0.160999 -5.49564 0
M  V30 6239 H 581.968 -0.124183 -6.78986 0
M  V30 6240 H 579.913 2.04931 -6.23169 0
M  V30 6241 H 579.831 0.880345 -7.50857 0
M  V30 6242 H 581.099 2.0695 -7.51526 0
M  V30 6243 N 585.328 1.53329 -0.364422 0
M  V30 6244 C 586.574 2.02222 0.21855 0
M  V30 6245 C 586.929 1.24702 1.46517 0
M  V30 6246 O 586.222 0.331969 1.88702 0
M  V30 6247 C 586.416 3.52911 0.564661 0
M  V30 6248 C 586.245 4.45023 -0.646862 0
M  V30 6249 C 585.015 4.91838 -1.15858 0
M  V30 6250 C 587.213 4.91581 -1.51172 0
M  V30 6251 N 585.195 5.67955 -2.33025 0
M  V30 6252 C 586.566 5.66028 -2.53006 0
M  V30 6253 C 588.621 4.73656 -1.53473 0
M  V30 6254 C 587.324 6.24457 -3.56996 0
M  V30 6255 C 589.35 5.3295 -2.56356 0
M  V30 6256 C 588.712 6.07282 -3.56914 0
M  V30 6257 H 584.811 0.780832 0.0427199 0
M  V30 6258 H 587.395 1.87937 -0.508704 0
M  V30 6259 H 585.566 3.6736 1.26099 0
M  V30 6260 H 587.298 3.88528 1.13262 0
M  V30 6261 H 584.053 4.68043 -0.723393 0
M  V30 6262 H 584.477 6.10675 -2.92241 0
M  V30 6263 H 589.119 4.15714 -0.770842 0
M  V30 6264 H 586.837 6.81496 -4.34268 0
M  V30 6265 H 590.423 5.20976 -2.58989 0
M  V30 6266 H 589.303 6.52345 -4.35218 0
M  V30 6267 N 586.806 0.0935595 1.57322 0
M  V30 6268 C 588.217 -0.435807 1.81542 0
M  V30 6269 C 588.568 -1.68263 1.00907 0
M  V30 6270 O 587.693 -2.15087 0.237983 0
M  V30 6271 C 588.288 -0.797436 3.29282 0
M  V30 6272 C 586.847 -1.27155 3.54272 0
M  V30 6273 C 585.994 -0.267455 2.76007 0
M  V30 6274 H 588.945 0.31902 1.5546 0
M  V30 6275 H 588.966 -1.6571 3.42521 0
M  V30 6276 H 588.478 0.110206 3.87943 0
M  V30 6277 H 586.579 -2.19696 3.00939 0
M  V30 6278 H 586.692 -1.23445 4.62923 0
M  V30 6279 H 585.056 -0.749282 2.43429 0
M  V30 6280 H 585.839 0.632839 3.37417 0
M  V30 6281 N 588.284 -1.56567 -0.180126 0
M  V30 6282 C 589.231 -1.95725 -1.22313 0
M  V30 6283 C 590.201 -0.819911 -1.44453 0
M  V30 6284 O 591.386 -1.07931 -1.57339 0
M  V30 6285 C 588.526 -2.31484 -2.55947 0
M  V30 6286 C 587.639 -3.58354 -2.4126 0
M  V30 6287 C 586.774 -3.83366 -3.67701 0
M  V30 6288 C 585.813 -5.03612 -3.47909 0
M  V30 6289 N 584.95 -5.24802 -4.66398 0
M  V30 6290 H 589.79 -2.84642 -0.882198 0
M  V30 6291 H 587.327 -1.4085 -0.42422 0
M  V30 6292 H 589.285 -2.50237 -3.33822 0
M  V30 6293 H 587.915 -1.45689 -2.88053 0
M  V30 6294 H 586.967 -3.47565 -1.54606 0
M  V30 6295 H 588.279 -4.46386 -2.22577 0
M  V30 6296 H 587.433 -4.02439 -4.54013 0
M  V30 6297 H 586.172 -2.93692 -3.89353 0
M  V30 6298 H 585.177 -4.84447 -2.59983 0
M  V30 6299 H 586.402 -5.94809 -3.27688 0
M  V30 6300 H 584.348 -4.38079 -4.88286 0
M  V30 6301 H 584.265 -6.07041 -4.50596 0
M  V30 6302 H 585.533 -5.48346 -5.54019 0
M  V30 6303 N 589.762 0.448376 -1.51087 0
M  V30 6304 C 590.725 1.52588 -1.71025 0
M  V30 6305 C 591.725 1.49958 -0.580442 0
M  V30 6306 O 592.915 1.52176 -0.847833 0
M  V30 6307 C 590.047 2.92163 -1.75652 0
M  V30 6308 H 591.24 1.36218 -2.67179 0
M  V30 6309 H 588.793 0.676313 -1.4091 0
M  V30 6310 H 589.528 3.13951 -0.812724 0
M  V30 6311 H 589.313 2.95478 -2.57751 0
M  V30 6312 H 590.803 3.70349 -1.92953 0
M  V30 6313 N 591.24 1.41047 0.703093 0
M  V30 6314 C 592.15 1.44645 1.84703 0
M  V30 6315 C 593.166 0.337778 1.7069 0
M  V30 6316 O 594.342 0.584327 1.92737 0
M  V30 6317 C 591.407 1.31928 3.20618 0
M  V30 6318 C 590.468 2.53047 3.46794 0
M  V30 6319 C 589.701 2.40927 4.76224 0
M  V30 6320 O 589.924 1.42978 5.5219 0
M  V30 6321 O 588.858 3.30543 5.03016 0
M  V30 6322 H 592.684 2.41139 1.84624 0
M  V30 6323 H 590.269 1.22504 0.855167 0
M  V30 6324 H 592.151 1.27092 4.01778 0
M  V30 6325 H 590.826 0.385469 3.21397 0
M  V30 6326 H 589.733 2.6346 2.65593 0
M  V30 6327 H 591.066 3.45231 3.50822 0
M  V30 6328 N 592.718 -0.936591 1.26751 0
M  V30 6329 C 593.946 -1.71758 1.15355 0
M  V30 6330 C 594.361 -1.86549 -0.290683 0
M  V30 6331 O 593.718 -1.37616 -1.19868 0
M  V30 6332 C 593.769 -3.12193 1.82258 0
M  V30 6333 O 593.49 -2.98105 3.21038 0
M  V30 6334 C 594.991 -4.06485 1.76875 0
M  V30 6335 H 592.211 -0.537636 0.401483 0
M  V30 6336 H 594.755 -1.17382 1.67457 0
M  V30 6337 H 592.91 -3.63456 1.34083 0
M  V30 6338 H 593.324 -3.86824 3.54214 0
M  V30 6339 H 594.798 -5.02569 2.28316 0
M  V30 6340 H 595.275 -4.32986 0.736216 0
M  V30 6341 H 595.881 -3.61144 2.24623 0
M  V30 6342 N 594.196 -1.08629 -1.14182 0
M  V30 6343 C 595.159 -0.722027 -2.1753 0
M  V30 6344 C 596.159 0.244305 -1.58933 0
M  V30 6345 O 597.349 0.0235545 -1.74184 0
M  V30 6346 C 594.481 -0.0663966 -3.40835 0
M  V30 6347 H 595.674 -1.63719 -2.51269 0
M  V30 6348 H 593.227 -0.884442 -1.28869 0
M  V30 6349 H 593.962 0.860389 -3.12678 0
M  V30 6350 H 593.747 -0.761598 -3.84632 0
M  V30 6351 H 595.237 0.173346 -4.1724 0
M  V30 6352 N 595.674 1.31259 -0.872281 0
M  V30 6353 C 596.902 2.00795 -0.498907 0
M  V30 6354 C 597.317 1.65464 0.909238 0
M  V30 6355 O 596.674 0.885073 1.59602 0
M  V30 6356 C 596.725 3.55625 -0.649092 0
M  V30 6357 O 596.446 3.89692 -2.00179 0
M  V30 6358 C 597.947 4.42434 -0.277034 0
M  V30 6359 H 595.167 0.642299 -0.194145 0
M  V30 6360 H 597.711 1.67438 -1.17408 0
M  V30 6361 H 595.866 3.87394 -0.0214402 0
M  V30 6362 H 596.28 4.84407 -2.01122 0
M  V30 6363 H 597.754 5.50299 -0.433064 0
M  V30 6364 H 598.231 4.32146 0.783989 0
M  V30 6365 H 598.837 4.16086 -0.880483 0
M  V30 6366 N 597.152 0.631951 1.44375 0
M  V30 6367 C 598.082 -0.0593243 2.33425 0
M  V30 6368 C 599.063 -0.833964 1.48253 0
M  V30 6369 O 600.248 -0.799682 1.76971 0
M  V30 6370 C 597.378 -1.04096 3.31333 0
M  V30 6371 C 596.332 -0.377899 4.26328 0
M  V30 6372 C 595.658 -1.4695 5.14111 0
M  V30 6373 C 596.958 0.716371 5.17364 0
M  V30 6374 H 598.652 0.684287 2.91475 0
M  V30 6375 H 596.198 0.330518 1.40156 0
M  V30 6376 H 598.151 -1.53331 3.92514 0
M  V30 6377 H 596.875 -1.81547 2.71493 0
M  V30 6378 H 595.534 0.0938054 3.6648 0
M  V30 6379 H 595.182 -2.2349 4.50623 0
M  V30 6380 H 594.882 -1.03121 5.78481 0
M  V30 6381 H 596.406 -1.96363 5.78164 0
M  V30 6382 H 597.82 0.307089 5.72477 0
M  V30 6383 H 596.217 1.07784 5.90341 0
M  V30 6384 H 597.287 1.58316 4.58327 0
M  V30 6385 N 598.631 -1.53133 0.372548 0
M  V30 6386 C 599.594 -2.24569 -0.458389 0
M  V30 6387 C 600.594 -1.25603 -1.00402 0
M  V30 6388 O 601.784 -1.49827 -0.888672 0
M  V30 6389 C 598.916 -2.98783 -1.6414 0
M  V30 6390 H 600.109 -2.99436 0.166799 0
M  V30 6391 H 597.662 -1.55805 0.124357 0
M  V30 6392 H 598.397 -2.28176 -2.30448 0
M  V30 6393 H 598.182 -3.71404 -1.25704 0
M  V30 6394 H 599.672 -3.53068 -2.23008 0
M  V30 6395 N 600.109 -0.101901 -1.5727 0
M  V30 6396 C 601.339 0.567568 -1.98651 0
M  V30 6397 C 601.747 1.61839 -0.980037 0
M  V30 6398 O 601.09 1.83661 0.0376564 0
M  V30 6399 C 601.152 1.26742 -3.36417 0
M  V30 6400 C 600.816 0.366561 -4.55528 0
M  V30 6401 C 601.813 -0.388022 -5.1845 0
M  V30 6402 C 599.498 0.282629 -5.01504 0
M  V30 6403 C 601.492 -1.21445 -6.25724 0
M  V30 6404 C 599.179 -0.547443 -6.08643 0
M  V30 6405 C 600.177 -1.29462 -6.70618 0
M  V30 6406 O 599.865 -2.11095 -7.7569 0
M  V30 6407 H 599.597 0.156282 -0.657687 0
M  V30 6408 H 602.151 -0.179912 -2.04611 0
M  V30 6409 H 600.381 2.06162 -3.27161 0
M  V30 6410 H 602.07 1.8321 -3.622 0
M  V30 6411 H 602.836 -0.332949 -4.83856 0
M  V30 6412 H 598.715 0.853868 -4.53023 0
M  V30 6413 H 602.259 -1.79814 -6.74027 0
M  V30 6414 H 598.156 -0.603971 -6.42668 0
M  V30 6415 H 598.924 -2.03851 -7.92709 0
M  V30 6416 N 601.587 1.56661 0.17182 0
M  V30 6417 C 602.835 1.81606 0.886774 0
M  V30 6418 C 603.156 0.678818 1.82803 0
M  V30 6419 O 602.426 -0.301354 1.93568 0
M  V30 6420 H 601.006 0.669934 0.330451 0
M  V30 6421 H 603.668 1.94142 0.171757 0
M  V30 6422 H 602.764 2.75634 1.46398 0
M  V30 6423 N 603.065 -0.440357 1.51323 0
M  V30 6424 C 604.295 -1.21079 1.67402 0
M  V30 6425 C 604.703 -1.85555 0.369599 0
M  V30 6426 O 604.046 -1.71375 -0.661525 0
M  V30 6427 C 604.108 -2.33839 2.73056 0
M  V30 6428 C 603.772 -1.89755 4.15743 0
M  V30 6429 C 604.769 -1.40268 5.0062 0
M  V30 6430 C 602.454 -1.97539 4.61826 0
M  V30 6431 C 604.448 -0.991474 6.29642 0
M  V30 6432 C 602.135 -1.56029 5.90845 0
M  V30 6433 C 603.133 -1.06915 6.7458 0
M  V30 6434 O 602.821 -0.659933 8.01187 0
M  V30 6435 H 602.553 -0.371133 0.56501 0
M  V30 6436 H 605.107 -0.528409 1.98487 0
M  V30 6437 H 603.337 -3.05345 2.37279 0
M  V30 6438 H 605.026 -2.95713 2.78044 0
M  V30 6439 H 605.792 -1.33652 4.66221 0
M  V30 6440 H 601.671 -2.34713 3.96776 0
M  V30 6441 H 605.215 -0.607425 6.9495 0
M  V30 6442 H 601.112 -1.62315 6.24759 0
M  V30 6443 H 601.88 -0.786052 8.14717 0
M  V30 6444 N 604.543 -1.41418 -0.695603 0
M  V30 6445 C 605.791 -1.40496 -1.45277 0
M  V30 6446 C 606.112 -0.0149538 -1.94994 0
M  V30 6447 O 605.382 0.9432 -1.71699 0
M  V30 6448 H 603.962 -0.517147 -0.539044 0
M  V30 6449 H 606.624 -1.76656 -0.823321 0
M  V30 6450 H 605.72 -2.09214 -2.31595 0
M  V30 6451 N 606.021 0.929856 -1.27246 0
M  V30 6452 C 606.951 2.04722 -1.12299 0
M  V30 6453 C 607.932 1.70082 -0.0250464 0
M  V30 6454 O 609.117 1.93176 -0.199141 0
M  V30 6455 C 606.247 3.38721 -0.767145 0
M  V30 6456 C 605.201 3.87466 -1.81808 0
M  V30 6457 C 604.527 5.18246 -1.31626 0
M  V30 6458 C 605.827 4.11095 -3.22177 0
M  V30 6459 H 607.521 2.17485 -2.05769 0
M  V30 6460 H 605.067 1.04503 -0.990715 0
M  V30 6461 H 607.02 4.16366 -0.649413 0
M  V30 6462 H 605.744 3.25967 0.203259 0
M  V30 6463 H 604.403 3.12012 -1.92468 0
M  V30 6464 H 604.051 5.01881 -0.335378 0
M  V30 6465 H 603.751 5.51829 -2.01887 0
M  V30 6466 H 605.275 5.98462 -1.21143 0
M  V30 6467 H 606.689 4.79316 -3.1453 0
M  V30 6468 H 605.086 4.55982 -3.90129 0
M  V30 6469 H 606.156 3.16468 -3.67391 0
M  V30 6470 N 607.499 1.09233 1.13605 0
M  V30 6471 C 608.724 0.849067 1.89224 0
M  V30 6472 C 609.149 -0.593875 1.78479 0
M  V30 6473 O 608.507 -1.41703 1.13092 0
M  V30 6474 C 608.555 1.28642 3.36873 0
M  V30 6475 O 607.659 0.44363 4.10007 0
M  V30 6476 H 607 0.30767 0.588417 0
M  V30 6477 H 609.53 1.45595 1.43748 0
M  V30 6478 H 609.54 1.27096 3.87699 0
M  V30 6479 H 608.215 2.33729 3.44011 0
M  V30 6480 H 606.792 0.523241 3.69211 0
M  V30 6481 N 608.977 -1.30795 0.87923 0
M  V30 6482 C 610.223 -1.96653 0.495519 0
M  V30 6483 C 610.556 -1.69282 -0.951703 0
M  V30 6484 O 609.831 -0.994374 -1.6716 0
M  V30 6485 C 610.114 -3.51898 0.764174 0
M  V30 6486 C 609.967 -3.88808 2.2616 0
M  V30 6487 C 611.286 -4.39462 0.236825 0
M  V30 6488 H 608.405 -0.7143 0.181507 0
M  V30 6489 H 611.047 -1.54765 1.10217 0
M  V30 6490 H 609.197 -3.87709 0.247841 0
M  V30 6491 H 610.869 -3.63051 2.8459 0
M  V30 6492 H 609.112 -3.37082 2.73053 0
M  V30 6493 H 609.783 -4.97086 2.4002 0
M  V30 6494 H 612.259 -4.10528 0.678683 0
M  V30 6495 H 611.135 -5.47018 0.454176 0
M  V30 6496 H 611.396 -4.33621 -0.861683 0
M  V30 6497 N 610.455 -0.639598 -1.44038 0
M  V30 6498 C 611.683 -0.154811 -2.0632 0
M  V30 6499 C 612.098 1.17406 -1.47856 0
M  V30 6500 O 611.455 1.72193 -0.604638 0
M  V30 6501 C 611.506 -0.0429958 -3.61474 0
M  V30 6502 O 611.227 -1.31932 -4.17763 0
M  V30 6503 C 612.728 0.469486 -4.40807 0
M  V30 6504 H 609.948 -0.0835862 -0.665773 0
M  V30 6505 H 612.492 -0.876397 -1.84769 0
M  V30 6506 H 610.647 0.629075 -3.82258 0
M  V30 6507 H 611.061 -1.16965 -5.11292 0
M  V30 6508 H 612.535 0.496712 -5.49761 0
M  V30 6509 H 613.012 1.49819 -4.12857 0
M  V30 6510 H 613.618 -0.169624 -4.24962 0
M  V30 6511 N 611.933 1.52934 -0.380664 0
M  V30 6512 C 612.896 2.24809 0.446473 0
M  V30 6513 C 613.896 1.26133 0.997347 0
M  V30 6514 O 615.086 1.50297 0.880714 0
M  V30 6515 C 612.218 2.99649 1.62553 0
M  V30 6516 H 613.411 2.99343 -0.182677 0
M  V30 6517 H 610.964 1.55736 -0.132618 0
M  V30 6518 H 611.699 2.29395 2.29235 0
M  V30 6519 H 611.484 3.72066 1.23732 0
M  V30 6520 H 612.974 3.54246 2.21133 0
M  V30 6521 N 613.412 0.11024 1.57214 0
M  V30 6522 C 614.661 -0.549638 1.94067 0
M  V30 6523 C 614.974 -1.68388 0.995234 0
M  V30 6524 O 616.18 -2.40593 1.25807 0
M  V30 6525 C 614.636 -1.02912 3.44873 0
M  V30 6526 C 614.244 0.0761861 4.47935 0
M  V30 6527 C 615.988 -1.66087 3.9066 0
M  V30 6528 C 613.895 -0.419502 5.8991 0
M  V30 6529 H 612.825 -0.209092 0.724428 0
M  V30 6530 H 615.476 0.188683 1.82527 0
M  V30 6531 H 613.858 -1.82159 3.51616 0
M  V30 6532 H 615.032 0.852185 4.52851 0
M  V30 6533 H 613.347 0.614052 4.11847 0
M  V30 6534 H 615.944 -2.04272 4.94143 0
M  V30 6535 H 616.287 -2.53591 3.30148 0
M  V30 6536 H 616.82 -0.933959 3.86681 0
M  V30 6537 H 613.559 0.419277 6.54158 0
M  V30 6538 H 613.079 -1.16217 5.88433 0
M  V30 6539 H 614.758 -0.883577 6.40938 0
M  V30 6540 N 614.89 -1.56749 -0.16351 0
M  V30 6541 C 615.822 -1.93587 -1.22705 0
M  V30 6542 C 616.835 -0.829824 -1.40063 0
M  V30 6543 O 618.024 -1.10826 -1.39928 0
M  V30 6544 C 615.124 -2.1803 -2.59454 0
M  V30 6545 C 614.297 -3.4928 -2.63292 0
M  V30 6546 C 613.356 -3.62457 -3.8146 0
M  V30 6547 O 612.382 -4.35004 -3.67096 0
M  V30 6548 N 613.584 -2.97888 -4.9824 0
M  V30 6549 H 616.349 -2.8542 -0.914081 0
M  V30 6550 H 613.91 -1.58 -0.353214 0
M  V30 6551 H 615.902 -2.24102 -3.36987 0
M  V30 6552 H 614.472 -1.32543 -2.8311 0
M  V30 6553 H 613.692 -3.54795 -1.71796 0
M  V30 6554 H 614.98 -4.35632 -2.62873 0
M  V30 6555 H 614.378 -2.38833 -5.12811 0
M  V30 6556 H 612.935 -3.09545 -5.73607 0
M  V30 6557 N 616.368 0.432326 -1.51554 0
M  V30 6558 C 617.298 1.53242 -1.76179 0
M  V30 6559 C 618.279 1.58717 -0.611801 0
M  V30 6560 O 619.464 1.74364 -0.855033 0
M  V30 6561 C 616.594 2.91278 -1.89141 0
M  V30 6562 C 615.548 3.00663 -3.04608 0
M  V30 6563 C 614.874 4.40728 -3.02759 0
M  V30 6564 C 616.174 2.74281 -4.44485 0
M  V30 6565 H 617.868 1.32886 -2.68294 0
M  V30 6566 H 615.414 0.637841 -1.29103 0
M  V30 6567 H 617.367 3.68203 -2.04951 0
M  V30 6568 H 616.091 3.12877 -0.936785 0
M  V30 6569 H 614.75 2.26179 -2.88511 0
M  V30 6570 H 614.398 4.59301 -2.05065 0
M  V30 6571 H 614.098 4.47936 -3.80299 0
M  V30 6572 H 615.622 5.19619 -3.20669 0
M  V30 6573 H 617.036 3.40936 -4.60907 0
M  V30 6574 H 615.433 2.92893 -5.23769 0
M  V30 6575 H 616.503 1.69856 -4.54177 0
M  V30 6576 N 617.846 1.41785 0.688094 0
M  V30 6577 C 618.809 1.43936 1.78368 0
M  V30 6578 C 619.809 0.328866 1.57401 0
M  V30 6579 O 620.999 0.589093 1.63937 0
M  V30 6580 C 618.131 1.25804 3.16838 0
M  V30 6581 H 619.324 2.41472 1.77852 0
M  V30 6582 H 616.877 1.28037 0.896448 0
M  V30 6583 H 617.612 0.291386 3.22988 0
M  V30 6584 H 617.397 2.06272 3.33458 0
M  V30 6585 H 618.887 1.30162 3.96797 0
M  V30 6586 N 619.324 -0.923095 1.27737 0
M  V30 6587 C 620.274 -2.01061 1.0751 0
M  V30 6588 C 621.258 -1.609 0.00165451 0
M  V30 6589 O 622.45 -1.75618 0.220724 0
M  V30 6590 C 619.579 -3.35467 0.729162 0
M  V30 6591 C 618.665 -3.82059 1.84098 0
M  V30 6592 N 619.056 -4.01115 3.08124 0
M  V30 6593 C 617.354 -4.11135 1.7287 0
M  V30 6594 C 618.055 -4.39989 3.80506 0
M  V30 6595 N 617.031 -4.47721 3.08297 0
M  V30 6596 H 620.833 -2.13832 2.01626 0
M  V30 6597 H 618.347 -1.11027 1.18519 0
M  V30 6598 H 620.344 -4.13049 0.565355 0
M  V30 6599 H 619.004 -3.24056 -0.204334 0
M  V30 6600 H 620.015 -3.87294 3.43836 0
M  V30 6601 H 616.692 -4.08412 0.866352 0
M  V30 6602 H 618.082 -4.62773 4.87125 0
M  V30 6603 N 620.802 -1.09834 -1.13024 0
M  V30 6604 C 621.765 -0.745058 -2.16752 0
M  V30 6605 C 622.765 0.227435 -1.59183 0
M  V30 6606 O 623.955 0.0050786 -1.74199 0
M  V30 6607 C 621.087 -0.102543 -3.40746 0
M  V30 6608 H 622.28 -1.66375 -2.49518 0
M  V30 6609 H 619.833 -0.898061 -1.27924 0
M  V30 6610 H 620.568 0.827177 -3.13573 0
M  V30 6611 H 620.353 -0.80235 -3.83803 0
M  V30 6612 H 621.843 0.129082 -4.174 0
M  V30 6613 N 622.28 1.30327 -0.886154 0
M  V30 6614 C 623.51 1.99964 -0.519421 0
M  V30 6615 C 623.918 1.66593 0.89686 0
M  V30 6616 O 623.261 0.899886 1.60149 0
M  V30 6617 C 623.323 3.54187 -0.615795 0
M  V30 6618 C 622.987 4.11078 -1.9966 0
M  V30 6619 C 623.984 4.26985 -2.96614 0
M  V30 6620 C 621.669 4.46429 -2.30231 0
M  V30 6621 C 623.663 4.77456 -4.22273 0
M  V30 6622 C 621.35 4.966 -3.56135 0
M  V30 6623 C 622.348 5.12066 -4.5197 0
M  V30 6624 O 622.036 5.61154 -5.7564 0
M  V30 6625 H 621.768 0.645979 -0.199217 0
M  V30 6626 H 624.322 1.67154 -1.19368 0
M  V30 6627 H 622.552 3.86528 0.115448 0
M  V30 6628 H 624.241 4.05065 -0.26017 0
M  V30 6629 H 625.007 3.99975 -2.74308 0
M  V30 6630 H 620.886 4.33658 -1.56404 0
M  V30 6631 H 624.43 4.89444 -4.97082 0
M  V30 6632 H 620.327 5.23045 -3.78277 0
M  V30 6633 H 621.095 5.79494 -5.78039 0
M  V30 6634 N 623.758 0.647228 1.43697 0
M  V30 6635 C 624.721 -0.0385101 2.29168 0
M  V30 6636 C 625.721 -0.756487 1.41894 0
M  V30 6637 O 626.911 -0.598641 1.63591 0
M  V30 6638 C 624.043 -1.06524 3.23829 0
M  V30 6639 H 625.236 0.713445 2.9129 0
M  V30 6640 H 622.789 0.408153 1.50877 0
M  V30 6641 H 623.524 -1.84664 2.66589 0
M  V30 6642 H 623.309 -0.554147 3.88164 0
M  V30 6643 H 624.799 -1.54432 3.87996 0
M  V30 6644 N 625.236 -1.5273 0.388769 0
M  V30 6645 C 626.199 -2.25043 -0.434544 0
M  V30 6646 C 627.199 -1.26661 -0.990644 0
M  V30 6647 O 628.389 -1.50762 -0.872731 0
M  V30 6648 C 625.521 -3.00507 -1.60961 0
M  V30 6649 H 626.714 -2.99242 0.198549 0
M  V30 6650 H 624.267 -1.55664 0.140875 0
M  V30 6651 H 625.002 -2.30607 -2.28015 0
M  V30 6652 H 624.787 -3.72716 -1.21757 0
M  V30 6653 H 626.277 -3.55413 -2.19251 0
M  V30 6654 N 626.714 -0.118576 -1.57153 0
M  V30 6655 C 627.644 0.828436 -2.1831 0
M  V30 6656 C 628.625 1.27758 -1.12303 0
M  V30 6657 O 629.81 1.34026 -1.40537 0
M  V30 6658 C 626.94 2.07876 -2.78217 0
M  V30 6659 C 625.894 1.76742 -3.89803 0
M  V30 6660 C 625.22 3.08801 -4.36516 0
M  V30 6661 C 626.52 1.03606 -5.11921 0
M  V30 6662 H 628.214 0.318824 -2.97698 0
M  V30 6663 H 625.76 0.151911 -1.43196 0
M  V30 6664 H 627.713 2.74584 -3.19659 0
M  V30 6665 H 626.437 2.61161 -1.96118 0
M  V30 6666 H 625.096 1.12424 -3.48936 0
M  V30 6667 H 624.744 3.6002 -3.51276 0
M  V30 6668 H 624.444 2.88743 -5.11763 0
M  V30 6669 H 625.968 3.76627 -4.80608 0
M  V30 6670 H 627.382 1.60467 -5.50385 0
M  V30 6671 H 625.779 0.936454 -5.92748 0
M  V30 6672 H 626.849 0.0227421 -4.84895 0
M  V30 6673 N 628.193 1.56834 0.155195 0
M  V30 6674 C 629.156 1.96748 1.17571 0
M  V30 6675 C 630.156 0.853006 1.3631 0
M  V30 6676 O 631.346 1.11978 1.33441 0
M  V30 6677 C 628.478 2.27631 2.53765 0
M  V30 6678 H 629.671 2.88085 0.833498 0
M  V30 6679 H 627.224 1.51141 0.398242 0
M  V30 6680 H 627.959 1.39059 2.92973 0
M  V30 6681 H 627.744 3.0888 2.41527 0
M  V30 6682 H 629.234 2.59377 3.27282 0
M  V30 6683 N 629.671 -0.424282 1.51781 0
M  V30 6684 C 630.619 -1.53649 1.74628 0
M  V30 6685 C 631.613 -1.57923 0.612922 0
M  V30 6686 O 632.819 -1.61511 0.794618 0
M  V30 6687 H 629.194 -0.510706 0.551981 0
M  V30 6688 H 631.165 -1.31558 2.67834 0
M  V30 6689 C 629.914 -2.91177 1.9003 0
M  V30 6690 H 629.237 -2.88625 2.76651 0
M  V30 6691 H 630.677 -3.6833 2.10021 0
M  V30 6692 C 629.136 -3.30303 0.663435 0
M  V30 6693 O 629.666 -4.01315 -0.175812 0
M  V30 6694 N 627.872 -2.86201 0.503723 0
M  V30 6695 H 627.419 -2.28583 1.18776 0
M  V30 6696 H 627.377 -3.12741 -0.322575 0
M  V30 6697 N 631.149 -1.42148 -0.680565 0
M  V30 6698 C 632.426 -1.32795 -1.43614 0
M  V30 6699 C 632.806 0.037415 -2.11067 0
M  V30 6700 O 632.154 1.05258 -2.02813 0
M  V30 6701 C 632.364 -2.49206 -2.44331 0
M  V30 6702 C 633.712 -2.91059 -3.09144 0
M  V30 6703 O 634.736 -2.49054 -2.54657 0
M  V30 6704 O 633.595 -3.63741 -4.07866 0
M  V30 6705 H 630.689 -0.523397 -0.640301 0
M  V30 6706 H 633.235 -1.54144 -0.709775 0
M  V30 6707 H 632.007 -3.40252 -1.93247 0
M  V30 6708 H 631.63 -2.29813 -3.24456 0
M  V30 6709 N 632.627 0.916307 -1.28225 0
M  V30 6710 C 633.875 1.6619 -1.15002 0
M  V30 6711 C 634.196 1.92642 0.302329 0
M  V30 6712 O 633.466 1.54076 1.20985 0
M  V30 6713 H 632.046 0.615964 -0.422608 0
M  V30 6714 H 634.708 1.09963 -1.60917 0
M  V30 6715 H 633.804 2.62533 -1.68769 0
M  V30 6716 N 634.105 1.10431 1.1244 0
M  V30 6717 C 635.052 0.753103 2.18167 0
M  V30 6718 C 636.022 -0.270549 1.63882 0
M  V30 6719 O 637.207 -0.149837 1.90211 0
M  V30 6720 C 634.347 0.191046 3.44571 0
M  V30 6721 C 633.46 1.26999 4.12911 0
M  V30 6722 C 632.595 0.669586 5.26963 0
M  V30 6723 C 631.634 1.72912 5.87169 0
M  V30 6724 N 630.771 1.14898 6.92635 0
M  V30 6725 H 635.611 1.65892 2.47556 0
M  V30 6726 H 633.148 0.828631 1.21541 0
M  V30 6727 H 635.106 -0.152712 4.1692 0
M  V30 6728 H 633.736 -0.677997 3.15599 0
M  V30 6729 H 632.788 1.73087 3.3874 0
M  V30 6730 H 634.1 2.07204 4.53727 0
M  V30 6731 H 633.254 0.275274 6.06075 0
M  V30 6732 H 631.993 -0.163895 4.87425 0
M  V30 6733 H 630.998 2.13286 5.06744 0
M  V30 6734 H 632.223 2.56544 6.28778 0
M  V30 6735 H 630.169 0.336956 6.55134 0
M  V30 6736 H 630.086 1.88786 7.32049 0
M  V30 6737 H 631.354 0.78121 7.75576 0
M  V30 6738 N 635.583 -1.29855 0.893053 0
M  V30 6739 C 636.808 -2.00512 0.530066 0
M  V30 6740 C 637.233 -1.66446 -0.876199 0
M  V30 6741 O 636.591 -0.885446 -1.58207 0
M  V30 6742 C 636.639 -3.53308 0.721505 0
M  V30 6743 O 635.743 -4.11764 -0.228994 0
M  V30 6744 H 635.084 -0.630617 0.207891 0
M  V30 6745 H 637.614 -1.6551 1.20282 0
M  V30 6746 H 637.624 -4.03206 0.623599 0
M  V30 6747 H 636.299 -3.77439 1.74678 0
M  V30 6748 H 634.876 -3.72805 -0.0841034 0
M  V30 6749 N 637.061 -0.65484 -1.43351 0
M  V30 6750 C 638.307 -0.169142 -2.02093 0
M  V30 6751 C 638.64 1.21431 -1.51553 0
M  V30 6752 O 637.915 1.81105 -0.709317 0
M  V30 6753 C 638.198 -0.181775 -3.59641 0
M  V30 6754 C 638.051 -1.59926 -4.20409 0
M  V30 6755 C 639.37 0.480945 -4.37464 0
M  V30 6756 H 636.489 -0.0629371 -0.734308 0
M  V30 6757 H 639.131 -0.835833 -1.70628 0
M  V30 6758 H 637.281 0.385918 -3.86578 0
M  V30 6759 H 638.953 -2.21766 -4.04497 0
M  V30 6760 H 637.196 -2.14605 -3.76998 0
M  V30 6761 H 637.867 -1.55994 -5.295 0
M  V30 6762 H 640.343 -0.00208273 -4.161 0
M  V30 6763 H 639.219 0.441384 -5.47122 0
M  V30 6764 H 639.48 1.55533 -4.13838 0
M  V30 6765 N 638.539 1.52521 -0.396863 0
M  V30 6766 C 639.95 1.86547 0.0754868 0
M  V30 6767 C 640.301 1.31621 1.45501 0
M  V30 6768 O 639.426 0.650563 2.0639 0
M  V30 6769 C 640.021 3.38495 0.143754 0
M  V30 6770 C 638.58 3.72205 0.560413 0
M  V30 6771 C 637.727 2.75954 -0.272856 0
M  V30 6772 H 640.678 1.46323 -0.614434 0
M  V30 6773 H 640.699 3.68153 0.961425 0
M  V30 6774 H 640.211 3.78442 -0.860415 0
M  V30 6775 H 638.312 3.3783 1.57167 0
M  V30 6776 H 638.425 4.78074 0.313314 0
M  V30 6777 H 636.789 2.53339 0.263 0
M  V30 6778 H 637.572 3.1874 -1.27515 0
M  V30 6779 N 640.017 0.126909 1.57088 0
M  V30 6780 C 640.947 -0.816847 2.18746 0
M  V30 6781 C 641.928 -1.27161 1.12979 0
M  V30 6782 O 643.113 -1.33279 1.41246 0
M  V30 6783 C 640.243 -2.06398 2.79315 0
M  V30 6784 C 639.197 -1.74673 3.90735 0
M  V30 6785 C 638.523 -3.06482 4.38147 0
M  V30 6786 C 639.823 -1.0089 5.12463 0
M  V30 6787 H 641.517 -0.303032 2.97863 0
M  V30 6788 H 639.063 -0.144314 1.43275 0
M  V30 6789 H 641.016 -2.72885 3.2111 0
M  V30 6790 H 639.74 -2.60118 1.975 0
M  V30 6791 H 638.399 -1.10572 3.49527 0
M  V30 6792 H 638.047 -3.58152 3.5318 0
M  V30 6793 H 637.747 -2.86025 5.13287 0
M  V30 6794 H 639.271 -3.74073 4.82599 0
M  V30 6795 H 640.685 -1.57546 5.51228 0
M  V30 6796 H 639.082 -0.905006 5.93237 0
M  V30 6797 H 640.152 0.00297335 4.849 0
M  V30 6798 N 641.495 -1.56914 -0.146875 0
M  V30 6799 C 642.72 -1.87881 -0.878386 0
M  V30 6800 C 643.145 -0.715945 -1.73942 0
M  V30 6801 O 642.503 0.334447 -1.78189 0
M  V30 6802 C 642.551 -3.17431 -1.71084 0
M  V30 6803 O 641.655 -3.01374 -2.81509 0
M  V30 6804 H 640.996 -0.617289 -0.244644 0
M  V30 6805 H 643.526 -2.04136 -0.137654 0
M  V30 6806 H 643.536 -3.49455 -2.10582 0
M  V30 6807 H 642.211 -4.01671 -1.07856 0
M  V30 6808 H 640.788 -2.80758 -2.45416 0
M  V30 6809 N 642.974 0.416227 -1.52004 0
M  V30 6810 C 643.907 1.52736 -1.6955 0
M  V30 6811 C 644.885 1.53264 -0.54305 0
M  V30 6812 O 646.069 1.72077 -0.769527 0
M  V30 6813 C 643.196 2.91283 -1.72835 0
M  V30 6814 C 642.242 3.08695 -2.94295 0
M  V30 6815 S 643.075 2.82758 -4.54762 0
M  V30 6816 C 644.231 4.23548 -4.60823 0
M  V30 6817 H 644.464 1.37623 -2.63528 0
M  V30 6818 H 641.997 0.607335 -1.41954 0
M  V30 6819 H 643.955 3.71134 -1.75413 0
M  V30 6820 H 642.616 3.03742 -0.799966 0
M  V30 6821 H 641.809 4.10042 -2.93056 0
M  V30 6822 H 641.411 2.36699 -2.89568 0
M  V30 6823 H 643.703 5.17078 -4.37763 0
M  V30 6824 H 644.646 4.29813 -5.62731 0
M  V30 6825 H 645.054 4.08188 -3.89927 0
M  V30 6826 N 644.452 1.42507 0.673017 0
M  V30 6827 C 645.68 1.46473 1.46128 0
M  V30 6828 C 646.095 0.0765912 1.88645 0
M  V30 6829 O 645.452 -0.909057 1.58248 0
M  V30 6830 C 645.503 2.39339 2.70923 0
M  V30 6831 O 645.224 3.72752 2.3019 0
M  V30 6832 C 646.725 2.52343 3.64469 0
M  V30 6833 H 643.945 0.49812 0.449575 0
M  V30 6834 H 646.489 1.87041 0.826802 0
M  V30 6835 H 644.644 2.02019 3.30556 0
M  V30 6836 H 645.058 4.22503 3.10791 0
M  V30 6837 H 646.532 3.2144 4.48754 0
M  V30 6838 H 647.009 1.56189 4.1049 0
M  V30 6839 H 647.615 2.90392 3.10729 0
M  V30 6840 N 645.93 -0.909495 1.28709 0
M  V30 6841 C 647.346 -1.18862 1.06508 0
M  V30 6842 C 647.546 -2.00604 -0.189864 0
M  V30 6843 O 646.602 -2.36281 -0.890355 0
M  V30 6844 C 647.915 -1.91908 2.31499 0
M  V30 6845 C 649.463 -2.04773 2.36721 0
M  V30 6846 C 649.938 -2.81228 3.6149 0
M  V30 6847 N 651.429 -2.88787 3.62155 0
M  V30 6848 C 652.164 -3.48455 4.55375 0
M  V30 6849 N 651.66 -4.09369 5.58918 0
M  V30 6850 N 653.453 -3.46035 4.42963 0
M  V30 6851 H 645.604 -0.363867 2.0926 0
M  V30 6852 H 647.867 -0.223649 0.921241 0
M  V30 6853 H 647.573 -1.39275 3.22948 0
M  V30 6854 H 647.447 -2.92436 2.38245 0
M  V30 6855 H 649.834 -2.56585 1.45767 0
M  V30 6856 H 649.915 -1.03408 2.33967 0
M  V30 6857 H 649.559 -2.30094 4.5279 0
M  V30 6858 H 649.489 -3.82917 3.61499 0
M  V30 6859 H 651.98 -2.45514 2.87283 0
M  V30 6860 H 652.293 -4.52891 6.26187 0
M  V30 6861 H 650.638 -4.0786 5.62739 0
M  V30 6862 H 653.829 -2.9766 3.6127 0
M  V30 6863 H 654.002 -3.92244 5.15799 0
M  V30 6864 N 647.408 -1.11026 -1.11852 0
M  V30 6865 C 648.654 -0.857729 -1.83768 0
M  V30 6866 C 648.987 0.615143 -1.842 0
M  V30 6867 O 648.262 1.45391 -1.29196 0
M  V30 6868 C 648.545 -1.41453 -3.31154 0
M  V30 6869 C 648.398 -2.95471 -3.39142 0
M  V30 6870 C 649.717 -1.0619 -4.27097 0
M  V30 6871 H 646.836 -0.313044 -0.667212 0
M  V30 6872 H 649.478 -1.37443 -1.31185 0
M  V30 6873 H 647.628 -0.975052 -3.76065 0
M  V30 6874 H 649.3 -3.4799 -3.02821 0
M  V30 6875 H 647.543 -3.31759 -2.79497 0
M  V30 6876 H 648.214 -3.29515 -4.42859 0
M  V30 6877 H 650.69 -1.44122 -3.90344 0
M  V30 6878 H 649.566 -1.47832 -5.28618 0
M  V30 6879 H 649.827 0.0278912 -4.42091 0
M  V30 6880 N 648.886 1.2938 -0.899927 0
M  V30 6881 C 650.163 1.9046 -0.445443 0
M  V30 6882 C 650.543 1.81683 1.07492 0
M  V30 6883 O 649.891 1.24371 1.91688 0
M  V30 6884 C 650.101 3.35529 -0.960279 0
M  V30 6885 C 651.449 4.12556 -1.00412 0
M  V30 6886 O 652.473 3.44434 -0.907965 0
M  V30 6887 O 651.332 5.34294 -1.14857 0
M  V30 6888 H 648.426 0.815253 -0.138893 0
M  V30 6889 H 650.972 1.37844 -0.989808 0
M  V30 6890 H 649.744 3.36074 -2.00425 0
M  V30 6891 H 649.367 3.95624 -0.395939 0
M  V30 6892 N 650.364 0.662433 1.43002 0
M  V30 6893 C 651.78 0.330835 1.56133 0
M  V30 6894 C 651.98 -1.16454 1.64441 0
M  V30 6895 O 651.036 -1.94964 1.60453 0
M  V30 6896 C 652.349 1.05029 2.81761 0
M  V30 6897 C 653.897 1.03142 2.95518 0
M  V30 6898 C 654.372 1.73196 4.2399 0
M  V30 6899 N 655.863 1.70004 4.30875 0
M  V30 6900 C 656.598 2.21074 5.29069 0
M  V30 6901 N 656.094 2.80473 6.33488 0
M  V30 6902 N 657.887 2.1152 5.20784 0
M  V30 6903 H 650.038 1.63272 1.35853 0
M  V30 6904 H 652.301 0.687149 0.653092 0
M  V30 6905 H 652.007 2.10542 2.81718 0
M  V30 6906 H 651.881 0.607664 3.72273 0
M  V30 6907 H 654.268 -0.0153339 2.95096 0
M  V30 6908 H 654.349 1.51282 2.0627 0
M  V30 6909 H 653.993 2.77833 4.25172 0
M  V30 6910 H 653.923 1.22515 5.1215 0
M  V30 6911 H 656.414 1.26667 3.56039 0
M  V30 6912 H 656.727 3.17094 7.04749 0
M  V30 6913 H 655.072 2.84538 6.34085 0
M  V30 6914 H 658.263 1.64814 4.38126 0
M  V30 6915 H 658.436 2.51629 5.97149 0
M  V30 6916 N 651.842 -1.52309 0.404946 0
M  V30 6917 C 653.088 -2.02065 -0.172455 0
M  V30 6918 C 653.421 -1.29022 -1.45145 0
M  V30 6919 O 652.696 -0.395284 -1.90441 0
M  V30 6920 C 652.979 -3.5759 -0.424433 0
M  V30 6921 C 652.832 -4.41287 0.870945 0
M  V30 6922 C 654.151 -4.23186 -1.20837 0
M  V30 6923 H 651.27 -0.734454 -0.0612035 0
M  V30 6924 H 653.912 -1.82236 0.53759 0
M  V30 6925 H 652.062 -3.74617 -1.02929 0
M  V30 6926 H 653.734 -4.3598 1.50729 0
M  V30 6927 H 651.977 -4.07669 1.48284 0
M  V30 6928 H 652.648 -5.48171 0.649083 0
M  V30 6929 H 655.124 -4.10232 -0.696338 0
M  V30 6930 H 654 -5.31953 -1.35343 0
M  V30 6931 H 654.261 -3.81862 -2.22786 0
M  V30 6932 N 653.32 -0.135238 -1.57019 0
M  V30 6933 C 654.731 0.387521 -1.82634 0
M  V30 6934 C 655.082 1.65528 -1.05332 0
M  V30 6935 O 654.207 2.14381 -0.294926 0
M  V30 6936 C 654.802 0.709852 -3.3128 0
M  V30 6937 C 653.361 1.17718 -3.57518 0
M  V30 6938 C 652.508 0.194183 -2.76619 0
M  V30 6939 H 655.459 -0.360126 -1.5456 0
M  V30 6940 H 655.48 1.5657 -3.46794 0
M  V30 6941 H 654.992 -0.213024 -3.87515 0
M  V30 6942 H 653.093 2.1164 -3.06658 0
M  V30 6943 H 653.206 1.11128 -4.66034 0
M  V30 6944 H 651.57 0.684478 -2.4533 0
M  V30 6945 H 652.353 -0.722076 -3.3562 0
M  V30 6946 N 654.798 1.5699 0.138552 0
M  V30 6947 C 656.075 1.74741 0.87891 0
M  V30 6948 C 656.455 0.705522 1.98961 0
M  V30 6949 O 655.803 -0.274066 2.2685 0
M  V30 6950 C 656.013 3.1909 1.4136 0
M  V30 6951 C 657.361 3.81023 1.87368 0
M  V30 6952 O 658.385 3.22571 1.51084 0
M  V30 6953 O 657.244 4.83722 2.54312 0
M  V30 6954 H 654.338 0.714781 0.415953 0
M  V30 6955 H 656.884 1.69248 0.123817 0
M  V30 6956 H 655.656 3.86424 0.61579 0
M  V30 6957 H 655.279 3.29043 2.23196 0
M  V30 6958 N 656.276 -0.40816 1.52223 0
M  V30 6959 C 657.524 -1.15274 1.66001 0
M  V30 6960 C 657.845 -1.91003 0.392803 0
M  V30 6961 O 657.115 -1.8673 -0.592336 0
M  V30 6962 H 655.695 -0.428526 0.611861 0
M  V30 6963 H 658.357 -0.46512 1.89269 0
M  V30 6964 H 657.453 -1.86628 2.50153 0
M  V30 6965 N 657.755 -1.42862 -0.66545 0
M  V30 6966 C 659.001 -1.44043 -1.42757 0
M  V30 6967 C 659.334 -0.0599629 -1.94107 0
M  V30 6968 O 658.609 0.917286 -1.71511 0
M  V30 6969 C 658.892 -2.47266 -2.61786 0
M  V30 6970 C 658.745 -3.94539 -2.16007 0
M  V30 6971 C 660.064 -2.47365 -3.64003 0
M  V30 6972 H 657.183 -0.524506 -0.517748 0
M  V30 6973 H 659.825 -1.74335 -0.755466 0
M  V30 6974 H 657.975 -2.21565 -3.19126 0
M  V30 6975 H 659.647 -4.31254 -1.63762 0
M  V30 6976 H 657.89 -4.07957 -1.47491 0
M  V30 6977 H 658.561 -4.62357 -3.01546 0
M  V30 6978 H 661.037 -2.70243 -3.16399 0
M  V30 6979 H 659.913 -3.21552 -4.44854 0
M  V30 6980 H 660.174 -1.50299 -4.15767 0
M  V30 6981 N 659.233 0.902656 -1.29189 0
M  V30 6982 C 660.165 2.01149 -1.09872 0
M  V30 6983 C 661.178 1.62732 -0.0471046 0
M  V30 6984 O 662.367 1.76107 -0.29132 0
M  V30 6985 C 659.467 3.32612 -0.649818 0
M  V30 6986 C 658.64 3.99574 -1.7793 0
M  V30 6987 C 657.699 5.09325 -1.32191 0
M  V30 6988 O 656.725 5.31919 -2.02611 0
M  V30 6989 N 657.927 5.80185 -0.191171 0
M  V30 6990 H 660.692 2.18276 -2.05368 0
M  V30 6991 H 658.253 1.07466 -1.2109 0
M  V30 6992 H 660.245 4.03375 -0.327199 0
M  V30 6993 H 658.815 3.11876 0.212597 0
M  V30 6994 H 658.035 3.22213 -2.27095 0
M  V30 6995 H 659.323 4.41056 -2.53668 0
M  V30 6996 H 658.721 5.64312 0.396016 0
M  V30 6997 H 657.278 6.5176 0.0721001 0
M  V30 6998 N 660.711 1.11618 1.11262 0
M  V30 6999 C 661.957 0.867463 1.83311 0
M  V30 7000 C 662.29 -0.605366 1.84524 0
M  V30 7001 O 661.565 -1.44704 1.29965 0
M  V30 7002 C 661.848 1.43207 3.30399 0
M  V30 7003 C 661.701 2.97265 3.3757 0
M  V30 7004 C 663.02 1.08454 4.26528 0
M  V30 7005 H 660.139 0.316578 0.665543 0
M  V30 7006 H 662.781 1.38137 1.30454 0
M  V30 7007 H 660.931 0.994982 3.75543 0
M  V30 7008 H 662.603 3.49591 3.00971 0
M  V30 7009 H 660.846 3.33237 2.77733 0
M  V30 7010 H 661.517 3.31859 4.41105 0
M  V30 7011 H 663.993 1.4619 3.89574 0
M  V30 7012 H 662.869 1.50633 5.27826 0
M  V30 7013 H 663.13 -0.00444568 4.421 0
M  V30 7014 N 662.189 -1.289 0.906776 0
M  V30 7015 C 663.438 -1.9455 0.532262 0
M  V30 7016 C 663.751 -1.72219 -0.927353 0
M  V30 7017 O 664.957 -2.32033 -1.40971 0
M  V30 7018 C 663.413 -3.48438 0.901041 0
M  V30 7019 C 663.021 -3.79558 2.37991 0
M  V30 7020 C 664.765 -4.20284 0.596777 0
M  V30 7021 C 662.672 -5.26723 2.68918 0
M  V30 7022 H 661.602 -0.728259 0.195333 0
M  V30 7023 H 664.253 -1.46519 1.10474 0
M  V30 7024 H 662.635 -3.95162 0.257419 0
M  V30 7025 H 663.809 -3.43668 3.06967 0
M  V30 7026 H 662.124 -3.20868 2.65391 0
M  V30 7027 H 664.721 -5.28612 0.8046 0
M  V30 7028 H 665.064 -4.13694 -0.465072 0
M  V30 7029 H 665.597 -3.79315 1.19855 0
M  V30 7030 H 662.336 -5.38384 3.73928 0
M  V30 7031 H 661.856 -5.63836 2.04571 0
M  V30 7032 H 663.535 -5.94391 2.55555 0
M  V30 7033 N 663.667 -0.670007 -1.42649 0
M  V30 7034 C 664.892 -0.196955 -2.06463 0
M  V30 7035 C 665.317 1.1352 -1.49983 0
M  V30 7036 O 664.675 1.705 -0.616397 0
M  V30 7037 C 664.723 -0.137381 -3.60338 0
M  V30 7038 O 663.827 0.895523 -4.02559 0
M  V30 7039 H 663.168 -0.102579 -0.656029 0
M  V30 7040 H 665.698 -0.917669 -1.82866 0
M  V30 7041 H 665.708 0.0403625 -4.0798 0
M  V30 7042 H 664.383 -1.10977 -4.0082 0
M  V30 7043 H 662.96 0.689209 -3.66476 0
M  V30 7044 N 665.145 1.52092 -0.413018 0
M  V30 7045 C 666.556 1.86617 0.0556967 0
M  V30 7046 C 666.907 1.33156 1.44097 0
M  V30 7047 O 666.032 0.672417 2.05688 0
M  V30 7048 C 666.627 3.38628 0.107844 0
M  V30 7049 C 665.186 3.72778 0.520904 0
M  V30 7050 C 664.333 2.75649 -0.302109 0
M  V30 7051 H 667.284 1.45663 -0.629919 0
M  V30 7052 H 667.305 3.69152 0.922324 0
M  V30 7053 H 666.817 3.77508 -0.900506 0
M  V30 7054 H 664.918 3.39478 1.53575 0
M  V30 7055 H 665.031 4.7838 0.262591 0
M  V30 7056 H 663.395 2.53603 0.236115 0
M  V30 7057 H 664.178 3.17369 -1.30888 0
M  V30 7058 N 666.623 0.143563 1.56945 0
M  V30 7059 C 667.533 -0.810562 2.20152 0
M  V30 7060 C 668.549 -1.27431 1.1848 0
M  V30 7061 O 669.725 -1.33221 1.51044 0
M  V30 7062 C 666.79 -2.03353 2.80799 0
M  V30 7063 C 665.851 -1.61936 3.97587 0
M  V30 7064 C 665.084 -2.78403 4.55332 0
M  V30 7065 O 665.307 -3.94521 4.11958 0
M  V30 7066 O 664.241 -2.54073 5.45647 0
M  V30 7067 H 668.067 -0.30253 3.02189 0
M  V30 7068 H 665.652 -0.0832925 1.49168 0
M  V30 7069 H 667.534 -2.74932 3.19359 0
M  V30 7070 H 666.209 -2.53116 2.01777 0
M  V30 7071 H 665.116 -0.873904 3.6375 0
M  V30 7072 H 666.449 -1.16892 4.78118 0
M  V30 7073 N 668.101 -1.57061 -0.130224 0
M  V30 7074 C 669.347 -1.8453 -0.841216 0
M  V30 7075 C 669.68 -0.727666 -1.80052 0
M  V30 7076 O 668.955 0.267419 -1.92653 0
M  V30 7077 C 669.238 -3.22553 -1.60099 0
M  V30 7078 C 669.091 -4.44901 -0.662048 0
M  V30 7079 C 670.41 -3.58003 -2.55973 0
M  V30 7080 H 667.529 -0.671215 -0.304366 0
M  V30 7081 H 670.171 -1.89705 -0.105821 0
M  V30 7082 H 668.321 -3.18272 -2.22789 0
M  V30 7083 H 669.993 -4.61278 -0.0448559 0
M  V30 7084 H 668.236 -4.33791 0.0272253 0
M  V30 7085 H 668.907 -5.3812 -1.23006 0
M  V30 7086 H 671.383 -3.63002 -2.03393 0
M  V30 7087 H 670.259 -4.55576 -3.06172 0
M  V30 7088 H 670.52 -2.84833 -3.38116 0
M  V30 7089 N 669.579 0.400081 -1.52437 0
M  V30 7090 C 670.542 1.4707 -1.75793 0
M  V30 7091 C 671.542 1.48036 -0.627856 0
M  V30 7092 O 672.732 1.49401 -0.895817 0
M  V30 7093 C 669.864 2.86427 -1.84858 0
M  V30 7094 H 671.057 1.27649 -2.71377 0
M  V30 7095 H 668.61 0.631141 -1.42991 0
M  V30 7096 H 669.345 3.11207 -0.912194 0
M  V30 7097 H 669.13 2.87128 -2.6702 0
M  V30 7098 H 670.62 3.64023 -2.04638 0
M  V30 7099 N 671.057 1.43213 0.657864 0
M  V30 7100 C 672.282 1.48227 1.45064 0
M  V30 7101 C 672.707 0.0999939 1.87834 0
M  V30 7102 O 672.065 -0.905269 1.57081 0
M  V30 7103 C 672.113 2.42931 2.6649 0
M  V30 7104 O 671.217 1.91237 3.6538 0
M  V30 7105 H 670.558 0.501551 0.435135 0
M  V30 7106 H 673.088 1.8808 0.805431 0
M  V30 7107 H 673.098 2.6008 3.1436 0
M  V30 7108 H 671.773 3.43348 2.34701 0
M  V30 7109 H 670.35 1.83726 3.24498 0
M  V30 7110 N 672.536 -0.895792 1.29666 0
M  V30 7111 C 673.764 -1.68001 1.20761 0
M  V30 7112 C 674.179 -1.87379 -0.231187 0
M  V30 7113 O 673.536 -1.41359 -1.15429 0
M  V30 7114 C 673.587 -3.06236 1.92098 0
M  V30 7115 O 673.308 -2.8774 3.30359 0
M  V30 7116 C 674.809 -4.00652 1.89717 0
M  V30 7117 H 672.029 -0.524591 0.418384 0
M  V30 7118 H 674.573 -1.11995 1.71106 0
M  V30 7119 H 672.728 -3.59007 1.45578 0
M  V30 7120 H 673.142 -3.75359 3.66342 0
M  V30 7121 H 674.616 -4.95051 2.44189 0
M  V30 7122 H 675.093 -4.30424 0.873595 0
M  V30 7123 H 675.699 -3.53815 2.35998 0
M  V30 7124 N 674.014 -1.12206 -1.10668 0
M  V30 7125 C 675.26 -0.877172 -1.82848 0
M  V30 7126 C 675.593 0.595571 -1.84842 0
M  V30 7127 O 674.868 1.44013 -1.30731 0
M  V30 7128 C 675.151 -1.44957 -3.29635 0
M  V30 7129 C 675.004 -2.99051 -3.35989 0
M  V30 7130 C 676.323 -1.10714 -4.25946 0
M  V30 7131 H 673.442 -0.320103 -0.663854 0
M  V30 7132 H 676.084 -1.38827 -1.2972 0
M  V30 7133 H 674.234 -1.01488 -3.7501 0
M  V30 7134 H 675.906 -3.51182 -2.99113 0
M  V30 7135 H 674.149 -3.34705 -2.75962 0
M  V30 7136 H 674.82 -3.34194 -4.39339 0
M  V30 7137 H 677.296 -1.48254 -3.88793 0
M  V30 7138 H 676.172 -1.5343 -5.2702 0
M  V30 7139 H 676.433 -0.019 -4.42096 0
M  V30 7140 N 675.492 1.28418 -0.913599 0
M  V30 7141 C 676.424 2.26368 -0.359169 0
M  V30 7142 C 677.437 1.54858 0.502285 0
M  V30 7143 O 678.626 1.75659 0.31719 0
M  V30 7144 C 675.726 3.35112 0.50526 0
M  V30 7145 C 674.899 4.36126 -0.333648 0
M  V30 7146 C 673.958 5.24134 0.465845 0
M  V30 7147 O 672.984 5.6907 -0.121538 0
M  V30 7148 N 674.186 5.52892 1.76891 0
M  V30 7149 H 676.951 2.74579 -1.2011 0
M  V30 7150 H 674.512 1.41898 -0.779532 0
M  V30 7151 H 676.504 3.90926 1.04684 0
M  V30 7152 H 675.074 2.86611 1.2479 0
M  V30 7153 H 674.294 3.79776 -1.0566 0
M  V30 7154 H 675.582 5.00638 -0.907669 0
M  V30 7155 H 674.98 5.18217 2.26865 0
M  V30 7156 H 673.537 6.11464 2.25732 0
M  V30 7157 N 676.97 0.677563 1.42291 0
M  V30 7158 C 678.218 0.200578 2.01102 0
M  V30 7159 C 678.539 -1.19803 1.53858 0
M  V30 7160 O 677.809 -1.80496 0.761439 0
M  V30 7161 H 676.389 0.0711634 0.743603 0
M  V30 7162 H 679.051 0.874691 1.7417 0
M  V30 7163 H 678.147 0.204 3.11433 0
M  V30 7164 N 678.448 -1.51871 0.421078 0
M  V30 7165 C 679.381 -2.23851 -0.443369 0
M  V30 7166 C 680.359 -1.25142 -1.03818 0
M  V30 7167 O 681.543 -1.5423 -1.08377 0
M  V30 7168 C 678.67 -2.97637 -1.61648 0
M  V30 7169 C 677.716 -4.10873 -1.14391 0
M  V30 7170 S 678.549 -5.35408 -0.0992403 0
M  V30 7171 C 679.705 -6.12726 -1.27739 0
M  V30 7172 H 679.938 -2.96826 0.167786 0
M  V30 7173 H 677.471 -1.53027 0.205461 0
M  V30 7174 H 679.429 -3.40751 -2.28909 0
M  V30 7175 H 678.09 -2.24282 -2.199 0
M  V30 7176 H 677.283 -4.61718 -2.02069 0
M  V30 7177 H 676.885 -3.69937 -0.549775 0
M  V30 7178 H 679.177 -6.40827 -2.19881 0
M  V30 7179 H 680.12 -7.03461 -0.809239 0
M  V30 7180 H 680.528 -5.43968 -1.5086 0
M  V30 7181 N 679.926 -0.151884 -1.56866 0
M  V30 7182 C 680.856 0.781943 -2.20018 0
M  V30 7183 C 681.837 1.25347 -1.14987 0
M  V30 7184 O 683.022 1.31015 -1.43348 0
M  V30 7185 C 680.152 2.01928 -2.82564 0
M  V30 7186 C 679.106 1.68434 -3.93464 0
M  V30 7187 C 678.432 2.99472 -4.42968 0
M  V30 7188 C 679.732 0.927244 -5.14003 0
M  V30 7189 H 681.426 0.255607 -2.98307 0
M  V30 7190 H 678.972 0.121502 -1.43486 0
M  V30 7191 H 680.925 2.67741 -3.25411 0
M  V30 7192 H 679.649 2.56943 -2.01614 0
M  V30 7193 H 678.308 1.04998 -3.51242 0
M  V30 7194 H 677.956 3.52488 -3.58834 0
M  V30 7195 H 677.656 2.77823 -5.17772 0
M  V30 7196 H 679.18 3.66348 -4.88489 0
M  V30 7197 H 680.594 1.48756 -5.53665 0
M  V30 7198 H 678.991 0.810513 -5.94601 0
M  V30 7199 H 680.061 -0.0801163 -4.84834 0
M  V30 7200 N 681.404 1.57128 0.121893 0
M  V30 7201 C 682.336 1.96773 1.17529 0
M  V30 7202 C 683.349 0.866668 1.37814 0
M  V30 7203 O 684.538 1.14497 1.3694 0
M  V30 7204 C 681.638 2.24832 2.53582 0
M  V30 7205 C 680.811 3.56138 2.53939 0
M  V30 7206 C 679.87 3.72443 3.71716 0
M  V30 7207 O 678.896 4.44584 3.55434 0
M  V30 7208 N 680.098 3.10993 4.90167 0
M  V30 7209 H 682.863 2.87743 0.838086 0
M  V30 7210 H 680.424 1.58881 0.311199 0
M  V30 7211 H 682.416 2.32958 3.30927 0
M  V30 7212 H 680.986 1.40002 2.79496 0
M  V30 7213 H 680.206 3.59226 1.62329 0
M  V30 7214 H 681.494 4.42448 2.51231 0
M  V30 7215 H 680.892 2.52345 5.06299 0
M  V30 7216 H 679.449 3.24644 5.65198 0
M  V30 7217 N 682.882 -0.391992 1.52647 0
M  V30 7218 C 683.814 -1.49811 1.73463 0
M  V30 7219 C 684.827 -1.50734 0.615078 0
M  V30 7220 O 686.016 -1.5469 0.890696 0
M  V30 7221 C 683.116 -2.88667 1.77552 0
M  V30 7222 C 682.289 -3.11743 3.06815 0
M  V30 7223 C 681.348 -4.30564 3.02491 0
M  V30 7224 O 680.374 -4.27014 3.76361 0
M  V30 7225 N 681.576 -5.36593 2.21468 0
M  V30 7226 H 684.341 -1.32343 2.68897 0
M  V30 7227 H 681.902 -0.581475 1.51098 0
M  V30 7228 H 683.894 -3.66251 1.7217 0
M  V30 7229 H 682.464 -2.99508 0.895181 0
M  V30 7230 H 681.684 -2.2205 3.25711 0
M  V30 7231 H 682.972 -3.24013 3.92292 0
M  V30 7232 H 682.37 -5.42332 1.60913 0
M  V30 7233 H 680.927 -6.12855 2.21928 0
M  V30 7234 N 684.36 -1.4356 -0.65026 0
M  V30 7235 C 685.606 -1.45549 -1.41221 0
M  V30 7236 C 685.939 -0.0805472 -1.94033 0
M  V30 7237 O 685.214 0.899043 -1.72475 0
M  V30 7238 C 685.497 -2.50028 -2.59148 0
M  V30 7239 C 685.35 -3.96808 -2.1181 0
M  V30 7240 C 686.669 -2.51212 -3.61359 0
M  V30 7241 H 683.788 -0.529967 -0.512156 0
M  V30 7242 H 686.43 -1.75127 -0.736933 0
M  V30 7243 H 684.58 -2.24937 -3.16758 0
M  V30 7244 H 686.252 -4.32966 -1.59178 0
M  V30 7245 H 684.495 -4.09498 -1.43156 0
M  V30 7246 H 685.166 -4.6553 -2.96625 0
M  V30 7247 H 687.642 -2.73583 -3.13515 0
M  V30 7248 H 686.518 -3.26252 -4.41419 0
M  V30 7249 H 686.779 -1.54701 -4.1415 0
M  V30 7250 N 685.838 0.888903 -1.30139 0
M  V30 7251 C 687.084 1.6428 -1.18912 0
M  V30 7252 C 687.417 1.92499 0.256477 0
M  V30 7253 O 686.692 1.54312 1.18397 0
M  V30 7254 C 686.975 2.9851 -2.01405 0
M  V30 7255 C 686.828 2.77288 -3.54163 0
M  V30 7256 C 688.147 3.99383 -1.84882 0
M  V30 7257 H 685.266 0.596148 -0.433333 0
M  V30 7258 H 687.908 1.0289 -1.5973 0
M  V30 7259 H 686.058 3.50907 -1.66722 0
M  V30 7260 H 687.73 2.31709 -3.98884 0
M  V30 7261 H 685.973 2.11867 -3.78543 0
M  V30 7262 H 686.644 3.72717 -4.07168 0
M  V30 7263 H 689.12 3.56132 -2.15196 0
M  V30 7264 H 687.996 4.91222 -2.44934 0
M  V30 7265 H 688.257 4.34674 -0.806902 0
M  V30 7266 N 687.317 1.12792 1.10072 0
M  V30 7267 C 688.227 0.812369 2.20086 0
M  V30 7268 C 689.243 -0.200349 1.72843 0
M  V30 7269 O 690.419 -0.0330262 2.01373 0
M  V30 7270 C 687.484 0.275685 3.45602 0
M  V30 7271 C 686.545 1.34881 4.07561 0
M  V30 7272 C 685.778 0.837639 5.27086 0
M  V30 7273 O 686.001 -0.327224 5.69461 0
M  V30 7274 O 684.935 1.60894 5.79997 0
M  V30 7275 H 688.761 1.73133 2.49517 0
M  V30 7276 H 686.346 0.904863 1.18881 0
M  V30 7277 H 688.228 -0.0185375 4.21396 0
M  V30 7278 H 686.903 -0.615783 3.17789 0
M  V30 7279 H 685.81 1.69625 3.33434 0
M  V30 7280 H 687.143 2.21418 4.39585 0
M  V30 7281 N 688.795 -1.27931 0.920396 0
M  V30 7282 C 689.758 -2.25345 0.41858 0
M  V30 7283 C 690.758 -1.54116 -0.458798 0
M  V30 7284 O 691.948 -1.72235 -0.260912 0
M  V30 7285 C 689.08 -3.38556 -0.399104 0
M  V30 7286 H 690.273 -2.71251 1.27918 0
M  V30 7287 H 687.826 -1.39728 0.700406 0
M  V30 7288 H 688.561 -2.98021 -1.27882 0
M  V30 7289 H 688.346 -3.91426 0.229863 0
M  V30 7290 H 689.836 -4.10976 -0.740817 0
M  V30 7291 N 690.273 -0.685099 -1.4193 0
M  V30 7292 C 691.205 0.0258679 -2.29185 0
M  V30 7293 C 692.218 0.755076 -1.44231 0
M  V30 7294 O 693.407 0.60752 -1.67844 0
M  V30 7295 C 690.507 1.06055 -3.21878 0
M  V30 7296 C 689.68 0.403088 -4.35539 0
M  V30 7297 C 688.739 1.33895 -5.0888 0
M  V30 7298 O 687.765 0.835326 -5.63037 0
M  V30 7299 N 688.967 2.6718 -5.15359 0
M  V30 7300 H 691.732 -0.723201 -2.90843 0
M  V30 7301 H 689.293 -0.53031 -1.52968 0
M  V30 7302 H 691.285 1.68813 -3.6781 0
M  V30 7303 H 689.855 1.71126 -2.616 0
M  V30 7304 H 689.075 -0.404185 -3.92122 0
M  V30 7305 H 690.363 -0.0545098 -5.08771 0
M  V30 7306 H 689.761 3.10626 -4.72788 0
M  V30 7307 H 688.318 3.25159 -5.64903 0
M  V30 7308 N 691.751 1.51645 -0.429126 0
M  V30 7309 C 692.999 2.01616 0.139802 0
M  V30 7310 C 693.32 1.31568 1.43927 0
M  V30 7311 O 692.59 0.447688 1.90716 0
M  V30 7312 H 691.17 0.744998 0.054654 0
M  V30 7313 H 693.832 1.8638 -0.569952 0
M  V30 7314 H 692.928 3.10439 0.321609 0
M  V30 7315 N 693.229 0.160201 1.56784 0
M  V30 7316 C 694.477 -0.486625 1.96154 0
M  V30 7317 C 694.798 -1.64525 1.04673 0
M  V30 7318 O 694.068 -1.95586 0.110864 0
M  V30 7319 H 692.648 -0.182764 0.724297 0
M  V30 7320 H 695.31 0.238787 1.93432 0
M  V30 7321 H 694.406 -0.854025 3.00188 0
M  V30 7322 N 694.707 -1.5719 -0.113559 0
M  V30 7323 C 695.953 -1.85412 -0.821597 0
M  V30 7324 C 696.286 -0.746722 -1.7927 0
M  V30 7325 O 695.561 0.246971 -1.92926 0
M  V30 7326 C 695.844 -3.24233 -1.56669 0
M  V30 7327 C 695.697 -4.45578 -0.614823 0
M  V30 7328 C 697.016 -3.60697 -2.52161 0
M  V30 7329 H 694.135 -0.674406 -0.29723 0
M  V30 7330 H 696.777 -1.89807 -0.085694 0
M  V30 7331 H 694.927 -3.20617 -2.19401 0
M  V30 7332 H 696.599 -4.613 0.00407137 0
M  V30 7333 H 694.842 -4.33738 0.0732332 0
M  V30 7334 H 695.513 -5.39395 -1.17292 0
M  V30 7335 H 697.989 -3.65139 -1.99532 0
M  V30 7336 H 696.865 -4.58798 -3.01323 0
M  V30 7337 H 697.126 -2.88403 -3.35076 0
M  V30 7338 N 696.185 0.383891 -1.52853 0
M  V30 7339 C 697.432 1.12842 -1.68146 0
M  V30 7340 C 697.76 1.89823 -0.423954 0
M  V30 7341 O 697.015 1.86475 0.593765 0
M  V30 7342 C 697.314 2.12881 -2.87082 0
M  V30 7343 C 696.98 1.52519 -4.24322 0
M  V30 7344 C 695.642 1.35783 -4.61645 0
M  V30 7345 C 697.994 1.0868 -5.09743 0
M  V30 7346 C 695.322 0.737643 -5.82044 0
M  V30 7347 C 697.674 0.480699 -6.30771 0
M  V30 7348 C 696.338 0.300681 -6.66822 0
M  V30 7349 H 695.608 0.412917 -0.615289 0
M  V30 7350 H 698.255 0.412416 -1.87006 0
M  V30 7351 H 696.56 2.90719 -2.62659 0
M  V30 7352 H 698.257 2.70408 -2.96109 0
M  V30 7353 H 694.847 1.66534 -3.94923 0
M  V30 7354 H 699.031 1.2041 -4.81472 0
M  V30 7355 H 694.287 0.586415 -6.08581 0
M  V30 7356 H 698.461 0.132733 -6.96273 0
M  V30 7357 H 696.088 -0.181966 -7.59982 0
M  V30 7358 N 697.663 1.43903 0.642637 0
M  V30 7359 C 699.079 1.27536 0.959519 0
M  V30 7360 C 699.279 0.202751 2.00477 0
M  V30 7361 O 698.335 -0.415256 2.49062 0
M  V30 7362 C 699.648 2.6432 1.43372 0
M  V30 7363 C 701.196 2.71937 1.54981 0
M  V30 7364 C 701.671 4.09164 2.05789 0
M  V30 7365 N 703.162 4.11282 2.13076 0
M  V30 7366 C 703.897 5.14303 2.53534 0
M  V30 7367 N 703.393 6.27693 2.93212 0
M  V30 7368 N 705.186 5.01657 2.53567 0
M  V30 7369 H 697.337 2.12344 -0.0488376 0
M  V30 7370 H 699.6 0.947124 0.0407559 0
M  V30 7371 H 699.306 3.43826 0.740048 0
M  V30 7372 H 699.18 2.90432 2.40685 0
M  V30 7373 H 701.567 1.92757 2.23448 0
M  V30 7374 H 701.648 2.49578 0.560739 0
M  V30 7375 H 701.292 4.88815 1.37921 0
M  V30 7376 H 701.222 4.28893 3.05546 0
M  V30 7377 H 703.713 3.2944 1.85143 0
M  V30 7378 H 704.026 7.02125 3.22863 0
M  V30 7379 H 702.371 6.31149 2.90991 0
M  V30 7380 H 705.562 4.12134 2.21952 0
M  V30 7381 H 705.735 5.82072 2.84774 0
M  V30 7382 N 699.141 -0.881989 1.30609 0
M  V30 7383 C 700.104 -1.96957 1.1722 0
M  V30 7384 C 701.104 -1.60472 0.102598 0
M  V30 7385 O 702.294 -1.70628 0.350943 0
M  V30 7386 C 699.426 -3.31463 0.796572 0
M  V30 7387 H 700.619 -2.10262 2.13846 0
M  V30 7388 H 698.172 -1.06877 1.14048 0
M  V30 7389 H 698.907 -3.23859 -0.169053 0
M  V30 7390 H 698.692 -3.59314 1.56959 0
M  V30 7391 H 700.182 -4.11233 0.72645 0
M  V30 7392 N 700.619 -1.13374 -1.09472 0
M  V30 7393 C 701.551 -0.768466 -2.15933 0
M  V30 7394 C 702.564 0.209585 -1.61445 0
M  V30 7395 O 703.753 -0.010539 -1.78497 0
M  V30 7396 C 700.853 -0.118266 -3.38694 0
M  V30 7397 C 700.026 -1.12829 -4.22597 0
M  V30 7398 C 699.085 -0.503875 -5.23782 0
M  V30 7399 O 698.111 -1.16374 -5.57177 0
M  V30 7400 N 699.313 0.724288 -5.75964 0
M  V30 7401 H 702.078 -1.68457 -2.47876 0
M  V30 7402 H 699.639 -1.02668 -1.25183 0
M  V30 7403 H 701.631 0.311698 -4.03498 0
M  V30 7404 H 700.201 0.700769 -3.04644 0
M  V30 7405 H 699.421 -1.73556 -3.53938 0
M  V30 7406 H 700.709 -1.81095 -4.75481 0
M  V30 7407 H 700.107 1.27918 -5.51048 0
M  V30 7408 H 698.664 1.09692 -6.42504 0
M  V30 7409 N 702.098 1.27442 -0.927168 0
M  V30 7410 C 703.344 1.94679 -0.568164 0
M  V30 7411 C 703.677 1.72697 0.888219 0
M  V30 7412 O 702.952 1.05573 1.63354 0
M  V30 7413 C 703.235 3.4882 -0.894253 0
M  V30 7414 C 703.088 3.80146 -2.40435 0
M  V30 7415 C 704.407 4.38281 -0.399766 0
M  V30 7416 H 701.526 0.707071 -0.207892 0
M  V30 7417 H 704.168 1.50568 -1.15885 0
M  V30 7418 H 702.318 3.86522 -0.391566 0
M  V30 7419 H 703.99 3.52238 -2.97869 0
M  V30 7420 H 702.233 3.26716 -2.85375 0
M  V30 7421 H 702.904 4.87835 -2.58304 0
M  V30 7422 H 705.38 4.07726 -0.83058 0
M  V30 7423 H 704.256 5.44955 -0.656885 0
M  V30 7424 H 704.517 4.36521 0.700153 0
M  V30 7425 N 703.576 0.692616 1.41565 0
M  V30 7426 C 704.987 0.297478 1.84315 0
M  V30 7427 C 705.338 -1.16379 1.57957 0
M  V30 7428 O 704.463 -1.89303 1.0485 0
M  V30 7429 C 705.058 0.533136 3.34579 0
M  V30 7430 C 703.617 0.191944 3.7591 0
M  V30 7431 C 702.764 0.816873 2.64995 0
M  V30 7432 H 705.715 0.893488 1.31158 0
M  V30 7433 H 705.736 -0.209105 3.79925 0
M  V30 7434 H 705.248 1.59674 3.53731 0
M  V30 7435 H 703.349 -0.867512 3.6236 0
M  V30 7436 H 703.462 0.644902 4.7474 0
M  V30 7437 H 701.826 0.246715 2.53502 0
M  V30 7438 H 702.609 1.88429 2.86966 0
M  V30 7439 N 705.054 -1.51416 0.437162 0
M  V30 7440 C 706.302 -2.01687 -0.129108 0
M  V30 7441 C 706.623 -1.32329 -1.43227 0
M  V30 7442 O 705.893 -0.457796 -1.90476 0
M  V30 7443 H 704.473 -0.745277 -0.0507023 0
M  V30 7444 H 707.135 -1.86075 0.579828 0
M  V30 7445 H 706.231 -3.10605 -0.305141 0
M  V30 7446 N 706.532 -0.168513 -1.56696 0
M  V30 7447 C 707.762 0.482802 -2.0088 0
M  V30 7448 C 708.17 1.57537 -1.0478 0
M  V30 7449 O 707.513 1.83656 -0.0402746 0
M  V30 7450 C 707.575 1.1236 -3.4149 0
M  V30 7451 C 707.239 0.173027 -4.56672 0
M  V30 7452 C 708.236 -0.607565 -5.16338 0
M  V30 7453 C 705.921 0.0696691 -5.02252 0
M  V30 7454 C 707.915 -1.47874 -6.2001 0
M  V30 7455 C 705.602 -0.805096 -6.05773 0
M  V30 7456 C 706.6 -1.57789 -6.64524 0
M  V30 7457 O 706.288 -2.43804 -7.66038 0
M  V30 7458 H 706.02 0.128246 -0.663723 0
M  V30 7459 H 708.574 -0.266532 -2.03663 0
M  V30 7460 H 706.804 1.921 -3.35611 0
M  V30 7461 H 708.493 1.67683 -3.69645 0
M  V30 7462 H 709.259 -0.53787 -4.82008 0
M  V30 7463 H 705.138 0.660957 -4.56237 0
M  V30 7464 H 708.682 -2.0824 -6.65794 0
M  V30 7465 H 704.579 -0.876005 -6.39528 0
M  V30 7466 H 705.347 -2.37289 -7.83349 0
M  V30 7467 N 708.01 1.57248 0.105221 0
M  V30 7468 C 708.96 1.9777 1.1345 0
M  V30 7469 C 709.944 0.854654 1.36325 0
M  V30 7470 O 711.136 1.11844 1.37186 0
M  V30 7471 C 708.265 2.39717 2.45745 0
M  V30 7472 C 707.351 3.58686 2.26286 0
M  V30 7473 N 707.742 4.73942 1.76671 0
M  V30 7474 C 706.04 3.64586 2.56891 0
M  V30 7475 C 706.741 5.55923 1.71245 0
M  V30 7476 N 705.717 4.98803 2.16093 0
M  V30 7477 H 709.519 2.84336 0.743664 0
M  V30 7478 H 707.033 1.59359 0.312787 0
M  V30 7479 H 709.03 2.66971 3.20206 0
M  V30 7480 H 707.69 1.54523 2.85574 0
M  V30 7481 H 708.701 4.9689 1.46016 0
M  V30 7482 H 705.378 2.90031 3.00314 0
M  V30 7483 H 706.768 6.58398 1.34022 0
M  V30 7484 N 709.488 -0.375779 1.53054 0
M  V30 7485 C 710.451 -1.44254 1.7811 0
M  V30 7486 C 711.451 -1.47018 0.651328 0
M  V30 7487 O 712.641 -1.47957 0.919472 0
M  V30 7488 C 709.773 -2.8345 1.89391 0
M  V30 7489 H 710.966 -1.23316 2.73374 0
M  V30 7490 H 708.519 -0.608312 1.43977 0
M  V30 7491 H 709.254 -3.09716 0.961589 0
M  V30 7492 H 709.039 -2.82844 2.71555 0
M  V30 7493 H 710.529 -3.60722 2.10404 0
M  V30 7494 N 710.966 -1.44241 -0.634997 0
M  V30 7495 C 711.929 -1.50457 -1.72903 0
M  V30 7496 C 712.929 -0.387058 -1.56072 0
M  V30 7497 O 714.119 -0.649531 -1.61638 0
M  V30 7498 C 711.251 -1.37477 -3.1195 0
M  V30 7499 H 712.444 -2.47907 -1.68767 0
M  V30 7500 H 709.997 -1.31276 -0.84831 0
M  V30 7501 H 710.732 -0.41106 -3.21684 0
M  V30 7502 H 710.517 -2.18506 -3.25573 0
M  V30 7503 H 712.007 -1.44799 -3.91692 0
M  V30 7504 N 712.444 0.87505 -1.31075 0
M  V30 7505 C 713.692 1.62447 -1.20231 0
M  V30 7506 C 714.013 1.93506 0.240888 0
M  V30 7507 O 713.283 1.57847 1.16022 0
M  V30 7508 H 711.863 0.602207 -0.441991 0
M  V30 7509 H 714.525 1.04788 -1.64334 0
M  V30 7510 H 713.621 2.57031 -1.77036 0
M  V30 7511 N 713.922 1.13953 1.08869 0
M  V30 7512 C 714.869 0.82213 2.15661 0
M  V30 7513 C 715.839 -0.218274 1.6466 0
M  V30 7514 O 717.024 -0.0892475 1.90591 0
M  V30 7515 C 714.164 0.300572 3.43789 0
M  V30 7516 C 713.277 1.40071 4.08661 0
M  V30 7517 C 712.412 0.836897 5.24566 0
M  V30 7518 C 711.451 1.91504 5.81371 0
M  V30 7519 N 710.588 1.36875 6.88629 0
M  V30 7520 H 715.428 1.73683 2.42153 0
M  V30 7521 H 712.965 0.866879 1.18843 0
M  V30 7522 H 714.923 -0.0199943 4.17195 0
M  V30 7523 H 713.553 -0.577248 3.17597 0
M  V30 7524 H 712.605 1.83776 3.33062 0
M  V30 7525 H 713.917 2.21534 4.46905 0
M  V30 7526 H 713.071 0.467953 6.04893 0
M  V30 7527 H 711.81 -0.00874207 4.87699 0
M  V30 7528 H 710.815 2.29299 4.99702 0
M  V30 7529 H 712.04 2.76419 6.20298 0
M  V30 7530 H 709.986 0.545211 6.5373 0
M  V30 7531 H 709.903 2.1198 7.25672 0
M  V30 7532 H 711.171 1.02756 7.72698 0
M  V30 7533 N 715.4 -1.26948 0.933913 0
M  V30 7534 C 716.625 -1.98724 0.593589 0
M  V30 7535 C 717.05 -1.6915 -0.822801 0
M  V30 7536 O 716.408 -0.93533 -1.5531 0
M  V30 7537 C 716.456 -3.50834 0.833542 0
M  V30 7538 O 715.56 -4.12284 -0.0978788 0
M  V30 7539 H 714.901 -0.623683 0.227849 0
M  V30 7540 H 717.431 -1.61599 1.25486 0
M  V30 7541 H 717.441 -4.01018 0.75156 0
M  V30 7542 H 716.116 -3.71691 1.86597 0
M  V30 7543 H 714.693 -3.72884 0.0345443 0
M  V30 7544 N 716.879 -0.700114 -1.41195 0
M  V30 7545 C 718.127 -0.232546 -2.00758 0
M  V30 7546 C 718.448 1.1734 -1.55745 0
M  V30 7547 O 717.718 1.79262 -0.790058 0
M  V30 7548 H 716.298 -0.0829845 -0.742376 0
M  V30 7549 H 718.96 -0.902289 -1.72756 0
M  V30 7550 H 718.056 -0.253521 -3.11069 0
M  V30 7551 N 718.357 1.51182 -0.445186 0
M  V30 7552 C 719.585 2.06568 0.117091 0
M  V30 7553 C 720 1.31182 1.35781 0
M  V30 7554 O 719.357 0.373605 1.78635 0
M  V30 7555 C 719.408 3.58917 0.431408 0
M  V30 7556 O 719.129 4.31456 -0.760078 0
M  V30 7557 C 720.63 4.30843 1.0435 0
M  V30 7558 H 717.85 0.670985 0.00444436 0
M  V30 7559 H 720.394 1.94666 -0.626525 0
M  V30 7560 H 718.549 3.70708 1.12493 0
M  V30 7561 H 718.963 5.22215 -0.489048 0
M  V30 7562 H 720.437 5.38499 1.21337 0
M  V30 7563 H 720.914 3.89644 2.02667 0
M  V30 7564 H 721.52 4.23516 0.38913 0
M  V30 7565 N 719.835 0.176821 1.56605 0
M  V30 7566 C 720.798 -0.737429 2.17013 0
M  V30 7567 C 721.798 -1.15414 1.11965 0
M  V30 7568 O 722.988 -1.0702 1.37449 0
M  V30 7569 C 720.12 -2.00445 2.75744 0
M  V30 7570 H 721.313 -0.211455 2.99154 0
M  V30 7571 H 718.866 -0.0727582 1.56131 0
M  V30 7572 H 719.601 -2.57338 1.97352 0
M  V30 7573 H 719.386 -1.71456 3.52626 0
M  V30 7574 H 720.876 -2.65679 3.22187 0
M  V30 7575 N 721.313 -1.57302 -0.09688 0
M  V30 7576 C 722.729 -1.53094 -0.451041 0
M  V30 7577 C 722.929 -0.893265 -1.80618 0
M  V30 7578 O 721.985 -0.485013 -2.47798 0
M  V30 7579 C 723.298 -2.9782 -0.415172 0
M  V30 7580 C 724.846 -3.09026 -0.497155 0
M  V30 7581 C 725.321 -4.55356 -0.491452 0
M  V30 7582 N 726.812 -4.59896 -0.552258 0
M  V30 7583 C 727.547 -5.70563 -0.569654 0
M  V30 7584 N 727.043 -6.90666 -0.543365 0
M  V30 7585 N 728.836 -5.58733 -0.614331 0
M  V30 7586 H 720.987 -1.97131 0.790771 0
M  V30 7587 H 723.25 -0.901211 0.294147 0
M  V30 7588 H 722.956 -3.47933 0.513362 0
M  V30 7589 H 722.83 -3.56416 -1.23481 0
M  V30 7590 H 725.217 -2.58902 -1.41611 0
M  V30 7591 H 725.298 -2.53386 0.35059 0
M  V30 7592 H 724.942 -5.06131 0.423549 0
M  V30 7593 H 724.872 -5.08832 -1.35639 0
M  V30 7594 H 727.363 -3.73456 -0.577842 0
M  V30 7595 H 727.676 -7.70769 -0.559873 0
M  V30 7596 H 726.021 -6.93123 -0.510441 0
M  V30 7597 H 729.212 -4.63809 -0.632387 0
M  V30 7598 H 729.385 -6.44984 -0.62442 0
M  V30 7599 N 722.791 0.367657 -1.53252 0
M  V30 7600 C 723.738 1.45028 -1.79543 0
M  V30 7601 C 724.708 1.53288 -0.63969 0
M  V30 7602 O 725.893 1.69209 -0.881653 0
M  V30 7603 C 723.033 2.82 -1.98923 0
M  V30 7604 C 722.146 2.82722 -3.26638 0
M  V30 7605 C 721.281 4.11257 -3.36216 0
M  V30 7606 C 720.32 4.06113 -4.57972 0
M  V30 7607 N 719.457 5.26293 -4.64715 0
M  V30 7608 H 724.297 1.21908 -2.71923 0
M  V30 7609 H 721.834 0.591011 -1.34705 0
M  V30 7610 H 723.792 3.61568 -2.08146 0
M  V30 7611 H 722.422 3.03523 -1.09881 0
M  V30 7612 H 721.474 1.95399 -3.26379 0
M  V30 7613 H 722.786 2.74794 -4.16281 0
M  V30 7614 H 721.94 4.99239 -3.44739 0
M  V30 7615 H 720.679 4.21935 -2.44586 0
M  V30 7616 H 719.684 3.16517 -4.49552 0
M  V30 7617 H 720.909 3.97039 -5.50942 0
M  V30 7618 H 718.855 5.37561 -3.75985 0
M  V30 7619 H 718.772 5.20526 -5.4826 0
M  V30 7620 H 720.04 6.16113 -4.77519 0
M  V30 7621 N 724.269 1.44576 0.627338 0
M  V30 7622 C 725.515 1.47777 1.38888 0
M  V30 7623 C 725.848 0.111406 1.9388 0
M  V30 7624 O 725.123 -0.87149 1.73883 0
M  V30 7625 C 725.406 2.54119 2.55138 0
M  V30 7626 C 725.259 4.00128 2.0547 0
M  V30 7627 C 726.578 2.56929 3.57317 0
M  V30 7628 H 723.697 0.538048 0.50366 0
M  V30 7629 H 726.339 1.76277 0.708978 0
M  V30 7630 H 724.489 2.29948 3.13139 0
M  V30 7631 H 726.161 4.35444 1.5227 0
M  V30 7632 H 724.404 4.11724 1.36623 0
M  V30 7633 H 725.075 4.7019 2.89181 0
M  V30 7634 H 727.551 2.78536 3.09122 0
M  V30 7635 H 726.427 3.33234 4.36173 0
M  V30 7636 H 726.688 1.6127 4.11636 0
M  V30 7637 N 725.747 -0.868086 1.31537 0
M  V30 7638 C 726.972 -1.65926 1.24432 0
M  V30 7639 C 727.397 -1.87169 -0.186936 0
M  V30 7640 O 726.755 -1.4148 -1.13371 0
M  V30 7641 C 726.803 -3.00347 1.9956 0
M  V30 7642 O 725.907 -3.90221 1.33422 0
M  V30 7643 H 725.248 -0.506375 0.429512 0
M  V30 7644 H 727.778 -1.0822 1.73637 0
M  V30 7645 H 727.788 -3.50269 2.09226 0
M  V30 7646 H 726.463 -2.84205 3.03645 0
M  V30 7647 H 725.04 -3.48672 1.32219 0
M  V30 7648 N 727.225 -1.14528 -1.08264 0
M  V30 7649 C 728.471 -0.91576 -1.80947 0
M  V30 7650 C 728.804 0.55623 -1.86064 0
M  V30 7651 O 728.079 1.41207 -1.33756 0
M  V30 7652 C 728.362 -1.51917 -3.26486 0
M  V30 7653 C 728.215 -3.06111 -3.2957 0
M  V30 7654 C 729.534 -1.19724 -4.23502 0
M  V30 7655 H 726.653 -0.334113 -0.656915 0
M  V30 7656 H 729.295 -1.41547 -1.26746 0
M  V30 7657 H 727.445 -1.0942 -3.72773 0
M  V30 7658 H 729.117 -3.57448 -2.91597 0
M  V30 7659 H 727.36 -3.40483 -2.688 0
M  V30 7660 H 728.031 -3.43438 -4.32151 0
M  V30 7661 H 730.507 -1.56467 -3.85561 0
M  V30 7662 H 729.383 -1.64575 -5.23647 0
M  V30 7663 H 729.644 -0.112771 -4.41956 0
M  V30 7664 N 728.703 1.26451 -0.940633 0
M  V30 7665 C 729.951 1.93395 -0.586748 0
M  V30 7666 C 730.272 1.7417 0.876921 0
M  V30 7667 O 729.542 1.097 1.62304 0
M  V30 7668 H 728.122 0.715687 -0.214012 0
M  V30 7669 H 730.784 1.53902 -1.19584 0
M  V30 7670 H 729.88 3.01565 -0.804059 0
M  V30 7671 N 730.181 0.707592 1.40822 0
M  V30 7672 C 731.409 0.253073 2.05346 0
M  V30 7673 C 731.824 -1.10218 1.53289 0
M  V30 7674 O 731.181 -1.69112 0.686105 0
M  V30 7675 C 731.232 0.215411 3.60858 0
M  V30 7676 O 730.953 1.51714 4.10992 0
M  V30 7677 C 732.454 -0.258636 4.42545 0
M  V30 7678 H 729.674 0.115256 0.661027 0
M  V30 7679 H 732.218 0.963555 1.80377 0
M  V30 7680 H 730.373 -0.445978 3.84824 0
M  V30 7681 H 730.787 1.41226 5.05129 0
M  V30 7682 H 732.261 -0.233849 5.51504 0
M  V30 7683 H 732.738 -1.2995 4.19535 0
M  V30 7684 H 733.344 0.372186 4.23668 0
M  V30 7685 N 731.66 -1.50943 0.453197 0
M  V30 7686 C 732.607 -2.28128 -0.350197 0
M  V30 7687 C 733.577 -1.32398 -1.00299 0
M  V30 7688 O 734.762 -1.61319 -1.01887 0
M  V30 7689 C 731.902 -3.13782 -1.43649 0
M  V30 7690 C 731.015 -4.24523 -0.800255 0
M  V30 7691 C 730.15 -4.97462 -1.86293 0
M  V30 7692 C 729.189 -6.00102 -1.20598 0
M  V30 7693 N 728.326 -6.66387 -2.21071 0
M  V30 7694 H 733.166 -2.96337 0.31434 0
M  V30 7695 H 730.703 -1.46151 0.166863 0
M  V30 7696 H 732.661 -3.6178 -2.07776 0
M  V30 7697 H 731.291 -2.47655 -2.07044 0
M  V30 7698 H 730.343 -3.80371 -0.0468651 0
M  V30 7699 H 731.655 -4.98009 -0.280777 0
M  V30 7700 H 730.809 -5.49088 -2.58044 0
M  V30 7701 H 729.548 -4.23642 -2.41617 0
M  V30 7702 H 728.553 -5.47753 -0.474 0
M  V30 7703 H 729.778 -6.75887 -0.659859 0
M  V30 7704 H 727.724 -5.9537 -2.75446 0
M  V30 7705 H 727.641 -7.3569 -1.74058 0
M  V30 7706 H 728.909 -7.22638 -2.92257 0
M  V30 7707 N 733.138 -0.185124 -1.56509 0
M  V30 7708 C 734.386 0.455357 -1.96903 0
M  V30 7709 C 734.707 1.62839 -1.07277 0
M  V30 7710 O 733.977 1.95385 -0.141966 0
M  V30 7711 H 732.557 0.171218 -0.727113 0
M  V30 7712 H 735.219 -0.26953 -1.93027 0
M  V30 7713 H 734.315 0.80616 -3.01509 0
M  V30 7714 N 734.616 1.57351 0.0885366 0
M  V30 7715 C 735.846 1.90355 0.80303 0
M  V30 7716 C 736.254 0.777678 1.72478 0
M  V30 7717 O 735.597 -0.258908 1.81866 0
M  V30 7718 C 735.659 3.18674 1.66395 0
M  V30 7719 C 735.323 4.4778 0.913327 0
M  V30 7720 C 736.32 5.19345 0.240148 0
M  V30 7721 C 734.005 4.94434 0.885462 0
M  V30 7722 C 735.999 6.35803 -0.450854 0
M  V30 7723 C 733.686 6.10802 0.190679 0
M  V30 7724 C 734.684 6.81337 -0.476295 0
M  V30 7725 O 734.372 7.95488 -1.15992 0
M  V30 7726 H 734.104 0.634035 0.234469 0
M  V30 7727 H 736.658 2.05287 0.0681959 0
M  V30 7728 H 734.888 2.99906 2.44117 0
M  V30 7729 H 736.577 3.37458 2.2556 0
M  V30 7730 H 737.343 4.84339 0.253092 0
M  V30 7731 H 733.222 4.39417 1.39406 0
M  V30 7732 H 736.766 6.90795 -0.972019 0
M  V30 7733 H 732.663 6.45261 0.175603 0
M  V30 7734 H 733.431 8.11509 -1.06749 0
M  V30 7735 N 736.094 -0.359525 1.53444 0
M  V30 7736 C 737.51 -0.701599 1.43352 0
M  V30 7737 C 737.71 -1.93049 0.577439 0
M  V30 7738 O 736.766 -2.52423 0.0622224 0
M  V30 7739 C 738.079 -0.90915 2.86627 0
M  V30 7740 C 739.627 -1.00878 2.96298 0
M  V30 7741 C 740.102 -1.24876 4.40647 0
M  V30 7742 N 741.593 -1.31632 4.44103 0
M  V30 7743 C 742.328 -1.51922 5.52908 0
M  V30 7744 N 741.824 -1.69489 6.71748 0
M  V30 7745 N 743.617 -1.54341 5.40496 0
M  V30 7746 H 735.768 0.448685 2.07607 0
M  V30 7747 H 738.031 0.138713 0.937797 0
M  V30 7748 H 737.737 -0.0778997 3.51614 0
M  V30 7749 H 737.611 -1.81551 3.30634 0
M  V30 7750 H 739.998 -1.83057 2.31461 0
M  V30 7751 H 740.079 -0.0796721 2.55676 0
M  V30 7752 H 739.723 -0.431961 5.0606 0
M  V30 7753 H 739.653 -2.19118 4.78848 0
M  V30 7754 H 742.144 -1.19646 3.5846 0
M  V30 7755 H 742.457 -1.84561 7.50438 0
M  V30 7756 H 740.802 -1.66655 6.74723 0
M  V30 7757 H 743.993 -1.40188 4.46615 0
M  V30 7758 H 744.166 -1.69812 6.25354 0
M  V30 7759 N 737.572 -1.44907 -0.619662 0
M  V30 7760 C 738.482 -1.55168 -1.75955 0
M  V30 7761 C 739.498 -0.43672 -1.6843 0
M  V30 7762 O 740.674 -0.695704 -1.89002 0
M  V30 7763 C 737.739 -1.50397 -3.12381 0
M  V30 7764 C 736.8 -2.72835 -3.31451 0
M  V30 7765 C 736.033 -2.68283 -4.61368 0
M  V30 7766 O 736.256 -1.74929 -5.42914 0
M  V30 7767 O 735.19 -3.59308 -4.82889 0
M  V30 7768 H 739.016 -2.51493 -1.7025 0
M  V30 7769 H 736.601 -1.27282 -0.782289 0
M  V30 7770 H 738.483 -1.50301 -3.93685 0
M  V30 7771 H 737.158 -0.572197 -3.18603 0
M  V30 7772 H 736.065 -2.78496 -2.49781 0
M  V30 7773 H 737.398 -3.65098 -3.30098 0
M  V30 7774 N 739.05 0.861098 -1.31996 0
M  V30 7775 C 739.998 1.99052 -1.20337 0
M  V30 7776 C 740.992 1.69045 -0.109623 0
M  V30 7777 O 742.198 1.77931 -0.272117 0
M  V30 7778 H 738.573 0.653064 -0.372843 0
M  V30 7779 H 740.544 2.06015 -2.15872 0
M  V30 7780 C 739.293 3.34846 -0.936663 0
M  V30 7781 H 738.616 3.58462 -1.77045 0
M  V30 7782 H 740.056 4.1444 -0.895302 0
M  V30 7783 C 738.515 3.34965 0.360607 0
M  V30 7784 O 739.045 3.7745 1.37456 0
M  V30 7785 N 737.251 2.88101 0.380296 0
M  V30 7786 H 736.798 2.53721 -0.445351 0
M  V30 7787 H 736.756 2.88563 1.24816 0
M  V30 7788 N 740.528 1.15101 1.07655 0
M  V30 7789 C 741.491 0.847625 2.12951 0
M  V30 7790 C 742.491 -0.151227 1.60087 0
M  V30 7791 O 743.681 0.0780399 1.74025 0
M  V30 7792 C 740.813 0.265 3.39868 0
M  V30 7793 H 742.006 1.7809 2.41296 0
M  V30 7794 H 739.559 0.958072 1.23494 0
M  V30 7795 H 740.294 -0.676625 3.17163 0
M  V30 7796 H 740.079 0.984554 3.79538 0
M  V30 7797 H 741.569 0.0702121 4.17541 0
M  V30 7798 N 742.006 -1.2595 0.947325 0
M  V30 7799 C 743.236 -1.97258 0.614235 0
M  V30 7800 C 743.644 -1.70682 -0.816355 0
M  V30 7801 O 742.987 -0.97527 -1.55673 0
M  V30 7802 C 743.049 -3.50845 0.784081 0
M  V30 7803 C 742.713 -4.01084 2.19045 0
M  V30 7804 C 743.71 -4.12347 3.16648 0
M  V30 7805 C 741.395 -4.34936 2.51268 0
M  V30 7806 C 743.389 -4.56766 4.44572 0
M  V30 7807 C 741.076 -4.79043 3.79422 0
M  V30 7808 C 742.074 -4.89919 4.75887 0
M  V30 7809 O 741.762 -5.3305 6.01758 0
M  V30 7810 H 741.494 -0.635738 0.22981 0
M  V30 7811 H 744.048 -1.61268 1.27207 0
M  V30 7812 H 742.278 -3.86638 0.069101 0
M  V30 7813 H 743.967 -4.03363 0.453135 0
M  V30 7814 H 744.733 -3.86432 2.93079 0
M  V30 7815 H 740.612 -4.25702 1.76916 0
M  V30 7816 H 744.156 -4.6517 5.19868 0
M  V30 7817 H 740.053 -5.04402 4.02802 0
M  V30 7818 H 740.821 -5.51255 6.05029 0
M  V30 7819 N 743.484 -0.715051 -1.40445 0
M  V30 7820 C 744.9 -0.388555 -1.54798 0
M  V30 7821 C 745.1 1.10271 -1.68649 0
M  V30 7822 O 744.156 1.88875 -1.67578 0
M  V30 7823 C 745.469 -1.15414 -2.77669 0
M  V30 7824 C 747.017 -1.14039 -2.91486 0
M  V30 7825 C 747.492 -1.88812 -4.1727 0
M  V30 7826 N 748.983 -1.85878 -4.24268 0
M  V30 7827 C 749.718 -2.40558 -5.20499 0
M  V30 7828 N 749.214 -3.03791 -6.22642 0
M  V30 7829 N 751.007 -2.30703 -5.12574 0
M  V30 7830 H 743.158 -1.68201 -1.297 0
M  V30 7831 H 745.421 -0.710915 -0.627139 0
M  V30 7832 H 745.127 -2.20853 -2.7371 0
M  V30 7833 H 745.001 -0.745412 -3.69761 0
M  V30 7834 H 747.388 -0.0941996 -2.9495 0
M  V30 7835 H 747.469 -1.58834 -2.00513 0
M  V30 7836 H 747.113 -2.93422 -4.14568 0
M  V30 7837 H 747.043 -1.41438 -5.0725 0
M  V30 7838 H 749.534 -1.39794 -3.51093 0
M  V30 7839 H 749.847 -3.43032 -6.92495 0
M  V30 7840 H 748.192 -3.07875 -6.23087 0
M  V30 7841 H 751.383 -1.80961 -4.31707 0
M  V30 7842 H 751.556 -2.73618 -5.87398 0
M  V30 7843 N 744.962 1.50701 -0.461195 0
M  V30 7844 C 746.187 2.07171 0.0974773 0
M  V30 7845 C 746.612 1.32391 1.3362 0
M  V30 7846 O 745.97 0.368676 1.77512 0
M  V30 7847 C 746.018 3.58651 0.374409 0
M  V30 7848 O 745.122 3.85816 1.4567 0
M  V30 7849 H 744.463 0.663944 -0.00862047 0
M  V30 7850 H 746.993 1.94021 -0.649394 0
M  V30 7851 H 747.003 4.03295 0.617843 0
M  V30 7852 H 745.678 4.12498 -0.530829 0
M  V30 7853 H 744.255 3.53018 1.20136 0
M  V30 7854 N 746.441 0.193421 1.56409 0
M  V30 7855 C 747.371 -0.723334 2.22014 0
M  V30 7856 C 748.352 -1.22254 1.1827 0
M  V30 7857 O 749.537 -1.27168 1.46771 0
M  V30 7858 C 746.667 -1.94366 2.87818 0
M  V30 7859 C 745.621 -1.57943 3.97791 0
M  V30 7860 C 744.947 -2.87623 4.50752 0
M  V30 7861 C 746.247 -0.790639 5.16281 0
M  V30 7862 H 747.941 -0.176426 2.9888 0
M  V30 7863 H 745.487 -0.0834166 1.43758 0
M  V30 7864 H 747.44 -2.5902 3.32396 0
M  V30 7865 H 746.164 -2.51507 2.08355 0
M  V30 7866 H 744.823 -0.956482 3.53903 0
M  V30 7867 H 744.471 -3.4285 3.68053 0
M  V30 7868 H 744.171 -2.63998 5.24956 0
M  V30 7869 H 745.695 -3.53268 4.9803 0
M  V30 7870 H 747.109 -1.34024 5.57414 0
M  V30 7871 H 745.506 -0.65258 5.96541 0
M  V30 7872 H 746.576 0.208633 4.84451 0
M  V30 7873 N 747.919 -1.57396 -0.0801906 0
M  V30 7874 C 749.166 -1.86836 -0.780927 0
M  V30 7875 C 749.494 -0.784012 -1.77999 0
M  V30 7876 O 748.749 0.220881 -1.94449 0
M  V30 7877 C 749.048 -3.22915 -1.53169 0
M  V30 7878 C 748.714 -4.45843 -0.67339 0
M  V30 7879 C 747.376 -4.79213 -0.436829 0
M  V30 7880 C 749.728 -5.21142 -0.0776786 0
M  V30 7881 C 747.056 -5.853 0.405062 0
M  V30 7882 C 749.408 -6.28119 0.751619 0
M  V30 7883 C 748.072 -6.59995 0.998131 0
M  V30 7884 H 747.342 -0.683682 -0.285761 0
M  V30 7885 H 749.989 -1.91454 -0.0419435 0
M  V30 7886 H 748.294 -3.14049 -2.34265 0
M  V30 7887 H 749.991 -3.42926 -2.07853 0
M  V30 7888 H 746.581 -4.19721 -0.867891 0
M  V30 7889 H 750.765 -4.95682 -0.247572 0
M  V30 7890 H 746.021 -6.084 0.60488 0
M  V30 7891 H 750.195 -6.8563 1.22 0
M  V30 7892 H 747.822 -7.42027 1.65227 0
M  V30 7893 N 749.397 0.351382 -1.53633 0
M  V30 7894 C 750.36 1.41403 -1.80383 0
M  V30 7895 C 751.36 1.45963 -0.674635 0
M  V30 7896 O 752.55 1.46476 -0.942895 0
M  V30 7897 C 749.682 2.80401 -1.93876 0
M  V30 7898 H 750.875 1.18951 -2.75301 0
M  V30 7899 H 748.428 0.58533 -1.44926 0
M  V30 7900 H 749.163 3.08147 -1.01074 0
M  V30 7901 H 748.948 2.78488 -2.7602 0
M  V30 7902 H 750.438 3.57329 -2.16116 0
M  V30 7903 N 750.875 1.45233 0.611969 0
M  V30 7904 C 752.123 1.48727 1.36838 0
M  V30 7905 C 752.444 0.128616 1.94575 0
M  V30 7906 O 751.714 -0.84149 1.76906 0
M  V30 7907 H 750.294 0.547695 0.507976 0
M  V30 7908 H 752.956 1.81156 0.718925 0
M  V30 7909 H 752.052 2.2236 2.19003 0
M  V30 7910 N 752.353 -0.854086 1.3245 0
M  V30 7911 C 753.6 -1.60831 1.23043 0
M  V30 7912 C 753.928 -1.93389 -0.2076 0
M  V30 7913 O 753.183 -1.5756 -1.16075 0
M  V30 7914 C 753.482 -2.93746 2.03587 0
M  V30 7915 C 753.148 -2.80615 3.52939 0
M  V30 7916 C 751.81 -2.76742 3.93659 0
M  V30 7917 C 754.162 -2.66507 4.4791 0
M  V30 7918 C 751.49 -2.56638 5.27592 0
M  V30 7919 C 753.842 -2.47939 5.81987 0
M  V30 7920 C 752.506 -2.42458 6.21909 0
M  V30 7921 H 751.776 -0.588523 0.450247 0
M  V30 7922 H 754.423 -0.990699 1.63882 0
M  V30 7923 H 752.728 -3.5963 1.55478 0
M  V30 7924 H 754.425 -3.51127 1.93677 0
M  V30 7925 H 751.015 -2.84456 3.20598 0
M  V30 7926 H 755.199 -2.68544 4.1737 0
M  V30 7927 H 750.455 -2.50831 5.57579 0
M  V30 7928 H 754.629 -2.36002 6.55192 0
M  V30 7929 H 752.256 -2.2664 7.2563 0
M  V30 7930 N 753.831 -1.1567 -1.07043 0
M  V30 7931 C 754.794 -0.858906 -2.12498 0
M  V30 7932 C 755.794 0.142735 -1.60165 0
M  V30 7933 O 756.984 -0.0872678 -1.73981 0
M  V30 7934 C 754.116 -0.283021 -3.39723 0
M  V30 7935 H 755.309 -1.79368 -2.40348 0
M  V30 7936 H 752.862 -0.964608 -1.22984 0
M  V30 7937 H 753.597 0.659796 -3.17517 0
M  V30 7938 H 753.382 -1.00467 -3.7901 0
M  V30 7939 H 754.872 -0.0923543 -4.17498 0
M  V30 7940 N 755.309 1.25446 -0.953992 0
M  V30 7941 C 756.72 1.75047 -0.649255 0
M  V30 7942 C 757.071 1.77527 0.835385 0
M  V30 7943 O 756.196 1.39569 1.65377 0
M  V30 7944 C 756.791 3.17889 -1.17183 0
M  V30 7945 C 755.35 3.65052 -0.917267 0
M  V30 7946 C 754.497 2.44124 -1.31525 0
M  V30 7947 H 757.448 1.11342 -1.13087 0
M  V30 7948 H 757.469 3.76768 -0.531616 0
M  V30 7949 H 756.981 3.16052 -2.25239 0
M  V30 7950 H 755.082 3.72305 0.148354 0
M  V30 7951 H 755.195 4.53222 -1.55328 0
M  V30 7952 H 753.559 2.43906 -0.733624 0
M  V30 7953 H 754.342 2.44979 -2.405 0
M  V30 7954 N 756.787 0.722489 1.40064 0
M  V30 7955 C 757.75 0.0830209 2.2905 0
M  V30 7956 C 758.75 -0.680208 1.45705 0
M  V30 7957 O 759.94 -0.511084 1.66534 0
M  V30 7958 C 757.072 -0.892092 3.29021 0
M  V30 7959 H 758.265 0.866848 2.87099 0
M  V30 7960 H 755.818 0.487556 1.48501 0
M  V30 7961 H 756.553 -1.70273 2.76003 0
M  V30 7962 H 756.338 -0.34761 3.90556 0
M  V30 7963 H 757.828 -1.33648 3.95636 0
M  V30 7964 N 758.265 -1.50454 0.469181 0
M  V30 7965 C 759.493 -2.06729 -0.0842134 0
M  V30 7966 C 759.908 -1.33326 -1.33677 0
M  V30 7967 O 759.265 -0.401977 -1.78018 0
M  V30 7968 C 759.316 -3.59557 -0.374253 0
M  V30 7969 O 759.037 -4.30192 0.828622 0
M  V30 7970 C 760.538 -4.32449 -0.974824 0
M  V30 7971 H 757.758 -0.670971 0.006231 0
M  V30 7972 H 760.302 -1.93645 0.657415 0
M  V30 7973 H 758.457 -3.7245 -1.06581 0
M  V30 7974 H 758.871 -5.21371 0.572066 0
M  V30 7975 H 760.345 -5.40361 -1.12755 0
M  V30 7976 H 760.822 -3.92819 -1.96442 0
M  V30 7977 H 761.428 -4.24082 -0.321703 0
M  V30 7978 N 759.743 -0.201713 -1.56304 0
M  V30 7979 C 761.02 0.483273 -1.89536 0
M  V30 7980 C 761.4 1.79176 -1.11621 0
M  V30 7981 O 760.748 2.27445 -0.219339 0
M  V30 7982 C 760.958 0.695604 -3.41998 0
M  V30 7983 C 762.306 1.012 -4.12364 0
M  V30 7984 O 763.33 0.783094 -3.47485 0
M  V30 7985 O 762.189 1.44534 -5.27041 0
M  V30 7986 H 759.283 0.252801 -0.787414 0
M  V30 7987 H 761.829 -0.24242 -1.6796 0
M  V30 7988 H 760.601 -0.228165 -3.90634 0
M  V30 7989 H 760.224 1.47351 -3.69288 0
M  V30 7990 N 761.222 1.57436 0.0718424 0
M  V30 7991 C 762.633 1.75975 0.623678 0
M  V30 7992 C 762.984 0.827155 1.77912 0
M  V30 7993 O 762.109 0.0112425 2.16397 0
M  V30 7994 C 762.704 3.1911 1.13816 0
M  V30 7995 C 761.263 3.38994 1.63586 0
M  V30 7996 C 760.41 2.71684 0.555261 0
M  V30 7997 H 763.361 1.57948 -0.154328 0
M  V30 7998 H 763.382 3.23267 2.00696 0
M  V30 7999 H 762.894 3.86962 0.296998 0
M  V30 8000 H 760.995 2.76256 2.50027 0
M  V30 8001 H 761.108 4.47436 1.71283 0
M  V30 8002 H 759.472 2.34236 1.00029 0
M  V30 8003 H 760.255 3.42191 -0.275712 0
M  V30 8004 N 762.7 -0.34323 1.53817 0
M  V30 8005 C 764.116 -0.686355 1.44088 0
M  V30 8006 C 764.316 -1.92426 0.597882 0
M  V30 8007 O 763.372 -2.52343 0.0889918 0
M  V30 8008 C 764.685 -0.878698 2.87575 0
M  V30 8009 C 766.233 -0.977296 2.97352 0
M  V30 8010 C 766.708 -1.20195 4.41947 0
M  V30 8011 N 768.199 -1.26915 4.45474 0
M  V30 8012 C 768.934 -1.46049 5.54488 0
M  V30 8013 N 768.43 -1.62354 6.73508 0
M  V30 8014 N 770.223 -1.48599 5.42102 0
M  V30 8015 H 762.374 0.470679 2.07119 0
M  V30 8016 H 764.637 0.148652 0.936273 0
M  V30 8017 H 764.343 -0.040602 3.51677 0
M  V30 8018 H 764.217 -1.78034 3.32541 0
M  V30 8019 H 766.604 -1.80591 2.3339 0
M  V30 8020 H 766.685 -0.0525498 2.55746 0
M  V30 8021 H 766.329 -0.378262 5.06489 0
M  V30 8022 H 766.259 -2.14027 4.81145 0
M  V30 8023 H 768.75 -1.15837 3.59708 0
M  V30 8024 H 769.063 -1.76591 7.52353 0
M  V30 8025 H 767.408 -1.5949 6.76453 0
M  V30 8026 H 770.599 -1.35443 4.48077 0
M  V30 8027 H 770.772 -1.6317 6.2712 0
M  V30 8028 N 764.178 -1.45556 -0.604258 0
M  V30 8029 C 765.427 -1.49019 -1.35928 0
M  V30 8030 C 765.74 -0.137409 -1.95117 0
M  V30 8031 O 766.946 -0.0497032 -2.71455 0
M  V30 8032 C 765.402 -2.62477 -2.46239 0
M  V30 8033 C 765.01 -4.04082 -1.93447 0
M  V30 8034 C 766.754 -2.7519 -3.23219 0
M  V30 8035 C 764.661 -5.08917 -3.0126 0
M  V30 8036 H 763.591 -0.554518 -0.510907 0
M  V30 8037 H 766.242 -1.71705 -0.647262 0
M  V30 8038 H 764.624 -2.3308 -3.2014 0
M  V30 8039 H 765.798 -4.43173 -1.26232 0
M  V30 8040 H 764.113 -3.95849 -1.29201 0
M  V30 8041 H 766.71 -3.50683 -4.0364 0
M  V30 8042 H 767.053 -1.81941 -3.74437 0
M  V30 8043 H 767.586 -3.04129 -2.56418 0
M  V30 8044 H 764.325 -6.03886 -2.54955 0
M  V30 8045 H 763.845 -4.74393 -3.67031 0
M  V30 8046 H 765.524 -5.33814 -3.65584 0
M  V30 8047 N 765.656 0.84705 -1.32902 0
M  V30 8048 C 766.619 1.9378 -1.224 0
M  V30 8049 C 767.619 1.60144 -0.145108 0
M  V30 8050 O 768.809 1.69638 -0.396058 0
M  V30 8051 C 765.941 3.29234 -0.884174 0
M  V30 8052 H 767.134 2.04518 -2.19345 0
M  V30 8053 H 764.687 1.03816 -1.16842 0
M  V30 8054 H 765.422 3.24193 0.0831277 0
M  V30 8055 H 765.207 3.55026 -1.6643 0
M  V30 8056 H 766.697 4.09162 -0.835226 0
M  V30 8057 N 767.134 1.16236 1.06428 0
M  V30 8058 C 768.067 0.81119 2.13295 0
M  V30 8059 C 769.045 -0.216555 1.61151 0
M  V30 8060 O 770.229 -0.100949 1.88229 0
M  V30 8061 C 767.356 0.207901 3.38061 0
M  V30 8062 C 766.402 1.20904 4.09004 0
M  V30 8063 S 767.235 2.75513 4.59187 0
M  V30 8064 C 768.391 2.1663 5.87216 0
M  V30 8065 H 768.624 1.71632 2.42755 0
M  V30 8066 H 766.157 0.985693 1.18842 0
M  V30 8067 H 768.115 -0.133715 4.10282 0
M  V30 8068 H 766.776 -0.67497 3.06762 0
M  V30 8069 H 765.969 0.735326 4.98607 0
M  V30 8070 H 765.571 1.49567 3.42791 0
M  V30 8071 H 767.863 1.53413 6.59902 0
M  V30 8072 H 768.806 3.04437 6.39315 0
M  V30 8073 H 769.214 1.60565 5.41183 0
M  V30 8074 N 768.612 -1.24939 0.960631 0
M  V30 8075 C 769.858 -1.93104 0.61958 0
M  V30 8076 C 770.191 -1.74991 -0.84212 0
M  V30 8077 O 769.466 -1.09867 -1.60498 0
M  V30 8078 C 769.749 -3.46326 0.986422 0
M  V30 8079 C 769.602 -3.73638 2.50429 0
M  V30 8080 C 770.921 -4.37067 0.515827 0
M  V30 8081 H 768.04 -0.701311 0.226566 0
M  V30 8082 H 770.682 -1.47442 1.19836 0
M  V30 8083 H 768.832 -3.85348 0.493907 0
M  V30 8084 H 770.504 -3.44217 3.07103 0
M  V30 8085 H 768.747 -3.19035 2.93937 0
M  V30 8086 H 769.418 -4.80815 2.71147 0
M  V30 8087 H 771.894 -4.05381 0.938389 0
M  V30 8088 H 770.77 -5.43022 0.80114 0
M  V30 8089 H 771.031 -4.38224 -0.584171 0
M  V30 8090 N 770.09 -0.729906 -1.39679 0
M  V30 8091 C 771.336 -0.27603 -2.00913 0
M  V30 8092 C 771.669 1.13227 -1.57776 0
M  V30 8093 O 770.944 1.7709 -0.804319 0
M  V30 8094 C 771.227 -0.372157 -3.58172 0
M  V30 8095 C 771.08 -1.81986 -4.11341 0
M  V30 8096 C 772.399 0.248378 -4.39399 0
M  V30 8097 H 769.518 -0.101773 -0.729939 0
M  V30 8098 H 772.16 -0.925104 -1.65957 0
M  V30 8099 H 770.31 0.180459 -3.88081 0
M  V30 8100 H 771.982 -2.42896 -3.92172 0
M  V30 8101 H 770.225 -2.34287 -3.65092 0
M  V30 8102 H 770.896 -1.83842 -5.20486 0
M  V30 8103 H 773.372 -0.222645 -4.15504 0
M  V30 8104 H 772.248 0.150746 -5.48693 0
M  V30 8105 H 772.509 1.33378 -4.21501 0
M  V30 8106 N 771.568 1.50203 -0.477153 0
M  V30 8107 C 772.814 2.02658 0.0758507 0
M  V30 8108 C 773.147 1.358 1.38824 0
M  V30 8109 O 772.422 0.485696 1.88338 0
M  V30 8110 C 772.705 3.59208 0.253339 0
M  V30 8111 C 772.558 4.36629 -1.0805 0
M  V30 8112 C 773.877 4.28469 1.00509 0
M  V30 8113 H 770.996 0.736538 0.0260921 0
M  V30 8114 H 773.638 1.79464 -0.623925 0
M  V30 8115 H 771.788 3.79101 0.849378 0
M  V30 8116 H 773.46 4.28292 -1.71358 0
M  V30 8117 H 771.703 4.0013 -1.67566 0
M  V30 8118 H 772.374 5.44449 -0.909883 0
M  V30 8119 H 774.85 4.13087 0.499818 0
M  V30 8120 H 773.726 5.37804 1.09808 0
M  V30 8121 H 773.987 3.92057 2.04314 0
M  V30 8122 N 773.046 0.209999 1.56195 0
M  V30 8123 C 774.295 -0.425106 1.97169 0
M  V30 8124 C 774.608 -1.61718 1.10031 0
M  V30 8125 O 775.814 -2.32105 1.40853 0
M  V30 8126 C 774.27 -0.80771 3.50719 0
M  V30 8127 C 773.878 0.360902 4.46544 0
M  V30 8128 C 775.622 -1.40906 4.00432 0
M  V30 8129 C 773.529 -0.0434919 5.91384 0
M  V30 8130 H 772.459 -0.162598 0.736259 0
M  V30 8131 H 775.11 0.304382 1.80958 0
M  V30 8132 H 773.492 -1.59429 3.62489 0
M  V30 8133 H 774.666 1.13846 4.46515 0
M  V30 8134 H 772.981 0.874729 4.07109 0
M  V30 8135 H 775.578 -1.72433 5.06133 0
M  V30 8136 H 775.921 -2.32081 3.45607 0
M  V30 8137 H 776.454 -0.686154 3.91838 0
M  V30 8138 H 773.193 0.834448 6.50167 0
M  V30 8139 H 772.713 -0.785598 5.94633 0
M  V30 8140 H 774.392 -0.474176 6.4526 0
M  V30 8141 N 774.524 -1.57472 -0.0634922 0
M  V30 8142 C 775.801 -1.78736 -0.794538 0
M  V30 8143 C 776.181 -0.799645 -1.95369 0
M  V30 8144 O 775.529 0.165521 -2.279 0
M  V30 8145 C 775.739 -3.25471 -1.25975 0
M  V30 8146 C 777.087 -3.89528 -1.68976 0
M  V30 8147 O 778.111 -3.29412 -1.35521 0
M  V30 8148 O 776.97 -4.95305 -2.30944 0
M  V30 8149 H 774.064 -0.733813 -0.381376 0
M  V30 8150 H 776.61 -1.69646 -0.0429258 0
M  V30 8151 H 775.382 -3.88922 -0.430721 0
M  V30 8152 H 775.005 -3.39317 -2.07243 0
M  V30 8153 N 776.003 0.335068 -1.53997 0
M  V30 8154 C 776.913 1.43511 -1.85585 0
M  V30 8155 C 777.929 1.57162 -0.746726 0
M  V30 8156 O 779.105 1.72477 -1.03988 0
M  V30 8157 C 776.17 2.78386 -2.06646 0
M  V30 8158 C 775.231 2.74007 -3.30483 0
M  V30 8159 C 774.464 4.02449 -3.50529 0
M  V30 8160 O 774.687 5.00147 -2.74242 0
M  V30 8161 O 773.621 4.06405 -4.4398 0
M  V30 8162 H 777.447 1.19731 -2.79102 0
M  V30 8163 H 775.032 0.528033 -1.39758 0
M  V30 8164 H 776.914 3.58247 -2.21894 0
M  V30 8165 H 775.589 3.0208 -1.16317 0
M  V30 8166 H 774.496 1.92736 -3.2063 0
M  V30 8167 H 775.829 2.55267 -4.20832 0
M  V30 8168 N 777.481 1.45874 0.596531 0
M  V30 8169 C 778.892 1.44798 1.17857 0
M  V30 8170 C 779.243 0.181443 1.95359 0
M  V30 8171 O 778.368 -0.716336 2.042 0
M  V30 8172 C 778.963 2.62333 2.14398 0
M  V30 8173 C 777.522 2.64342 2.67955 0
M  V30 8174 C 776.669 2.37244 1.43564 0
M  V30 8175 H 779.62 1.53954 0.385222 0
M  V30 8176 H 779.641 2.37063 2.97626 0
M  V30 8177 H 779.153 3.54499 1.57963 0
M  V30 8178 H 777.254 1.76213 3.28298 0
M  V30 8179 H 777.367 3.63897 3.11634 0
M  V30 8180 H 775.731 1.87022 1.72901 0
M  V30 8181 H 776.514 3.31568 0.889805 0
M  V30 8182 N 778.959 -0.83999 1.33349 0
M  V30 8183 C 780.184 -1.63249 1.27924 0
M  V30 8184 C 780.609 -1.87523 -0.147193 0
M  V30 8185 O 779.967 -1.43853 -1.10345 0
M  V30 8186 C 780.015 -2.96046 2.05886 0
M  V30 8187 O 779.119 -3.87303 1.4167 0
M  V30 8188 H 778.46 -0.49715 0.440157 0
M  V30 8189 H 780.99 -1.04512 1.75893 0
M  V30 8190 H 781 -3.45752 2.16609 0
M  V30 8191 H 779.675 -2.77701 3.09605 0
M  V30 8192 H 778.252 -3.45789 1.39585 0
M  V30 8193 N 780.437 -1.16799 -1.0581 0
M  V30 8194 C 781.384 -0.87902 -2.13405 0
M  V30 8195 C 782.354 0.174541 -1.6518 0
M  V30 8196 O 783.539 0.0386843 -1.90761 0
M  V30 8197 C 780.679 -0.391616 -3.42871 0
M  V30 8198 C 779.792 -1.50857 -4.04804 0
M  V30 8199 C 778.927 -0.975682 -5.22163 0
M  V30 8200 C 777.966 -2.06851 -5.76089 0
M  V30 8201 N 777.103 -1.55085 -6.84758 0
M  V30 8202 H 781.943 -1.80043 -2.37463 0
M  V30 8203 H 779.48 -0.898083 -1.16503 0
M  V30 8204 H 781.438 -0.0906247 -4.17102 0
M  V30 8205 H 780.068 0.49284 -3.19016 0
M  V30 8206 H 779.12 -1.92542 -3.28073 0
M  V30 8207 H 780.432 -2.33305 -4.40874 0
M  V30 8208 H 779.586 -0.628165 -6.03439 0
M  V30 8209 H 778.325 -0.120566 -4.87551 0
M  V30 8210 H 777.33 -2.42467 -4.93447 0
M  V30 8211 H 778.555 -2.92768 -6.12751 0
M  V30 8212 H 776.501 -0.718345 -6.52055 0
M  V30 8213 H 776.418 -2.31145 -7.19797 0
M  V30 8214 H 777.686 -1.23206 -7.69702 0
M  V30 8215 N 781.915 1.24427 -0.967243 0
M  V30 8216 C 782.878 2.23637 -0.501927 0
M  V30 8217 C 783.878 1.55712 0.401283 0
M  V30 8218 O 785.068 1.73085 0.196808 0
M  V30 8219 C 782.2 3.39804 0.273176 0
M  V30 8220 H 783.393 2.66317 -1.37897 0
M  V30 8221 H 780.946 1.37033 -0.751783 0
M  V30 8222 H 781.681 3.02562 1.16733 0
M  V30 8223 H 781.466 3.90303 -0.37498 0
M  V30 8224 H 782.956 4.13443 0.587776 0
M  V30 8225 N 783.393 0.737304 1.3929 0
M  V30 8226 C 784.641 0.285691 2.00071 0
M  V30 8227 C 784.962 -1.13169 1.58801 0
M  V30 8228 O 784.232 -1.77104 0.837308 0
M  V30 8229 H 782.812 0.102638 0.739915 0
M  V30 8230 H 785.474 0.947775 1.70303 0
M  V30 8231 H 784.57 0.335906 3.10287 0
M  V30 8232 N 784.871 -1.49948 0.485112 0
M  V30 8233 C 786.101 -2.06506 -0.0621921 0
M  V30 8234 C 786.509 -1.34756 -1.32806 0
M  V30 8235 O 785.852 -0.41466 -1.78959 0
M  V30 8236 C 785.914 -3.57243 -0.402182 0
M  V30 8237 C 785.578 -4.50574 0.763671 0
M  V30 8238 C 786.575 -4.93032 1.6497 0
M  V30 8239 C 784.26 -4.9308 0.957973 0
M  V30 8240 C 786.254 -5.76718 2.71432 0
M  V30 8241 C 783.941 -5.76546 2.0258 0
M  V30 8242 C 784.939 -6.18267 2.90232 0
M  V30 8243 O 784.627 -7.00066 3.95174 0
M  V30 8244 H 784.359 -0.675925 0.0100672 0
M  V30 8245 H 786.913 -1.93922 0.677023 0
M  V30 8246 H 785.143 -3.6778 -1.19478 0
M  V30 8247 H 786.832 -3.96107 -0.886219 0
M  V30 8248 H 787.598 -4.60851 1.51134 0
M  V30 8249 H 783.477 -4.60117 0.285144 0
M  V30 8250 H 787.021 -6.09203 3.39878 0
M  V30 8251 H 782.918 -6.0814 2.16417 0
M  V30 8252 H 783.686 -7.18343 3.92333 0
M  V30 8253 N 786.349 -0.21828 -1.56081 0
M  V30 8254 C 787.596 0.414307 -1.98216 0
M  V30 8255 C 787.924 1.60005 -1.10584 0
M  V30 8256 O 787.179 1.95124 -0.150043 0
M  V30 8257 C 787.478 0.894782 -3.46018 0
M  V30 8258 C 787.144 -0.180083 -4.5054 0
M  V30 8259 C 785.806 -0.475367 -4.78846 0
M  V30 8260 C 788.158 -0.907191 -5.13244 0
M  V30 8261 C 785.486 -1.50233 -5.67139 0
M  V30 8262 C 787.838 -1.92347 -6.02649 0
M  V30 8263 C 786.502 -2.22571 -6.293 0
M  V30 8264 H 785.772 0.151606 -0.725325 0
M  V30 8265 H 788.419 -0.320113 -1.88806 0
M  V30 8266 H 786.724 1.7079 -3.52616 0
M  V30 8267 H 788.421 1.39403 -3.75989 0
M  V30 8268 H 785.011 0.06022 -4.28558 0
M  V30 8269 H 789.195 -0.692303 -4.91448 0
M  V30 8270 H 784.451 -1.74215 -5.86054 0
M  V30 8271 H 788.625 -2.49197 -6.50288 0
M  V30 8272 H 786.252 -3.0229 -6.97513 0
M  V30 8273 N 787.827 1.57504 0.0551401 0
M  V30 8274 C 789.075 1.87684 0.74962 0
M  V30 8275 C 789.396 0.812547 1.77264 0
M  V30 8276 O 788.666 -0.15694 1.9527 0
M  V30 8277 H 787.246 0.6926 0.279846 0
M  V30 8278 H 789.908 1.94881 0.0272745 0
M  V30 8279 H 789.004 2.85734 1.25548 0
M  V30 8280 N 789.305 -0.326896 1.54172 0
M  V30 8281 C 790.553 -1.06313 1.71878 0
M  V30 8282 C 790.874 -1.88652 0.493498 0
M  V30 8283 O 790.144 -1.89608 -0.492522 0
M  V30 8284 H 788.724 -0.39549 0.633716 0
M  V30 8285 H 791.386 -0.364139 1.91468 0
M  V30 8286 H 790.482 -1.73105 2.59694 0
M  V30 8287 N 790.784 -1.46188 -0.588786 0
M  V30 8288 C 791.714 -1.59148 -1.70863 0
M  V30 8289 C 792.695 -0.442083 -1.64255 0
M  V30 8290 O 793.88 -0.667575 -1.82365 0
M  V30 8291 C 791.01 -1.5757 -3.09498 0
M  V30 8292 C 789.964 -2.71418 -3.30932 0
M  V30 8293 C 789.29 -2.549 -4.70032 0
M  V30 8294 C 790.59 -4.1329 -3.19356 0
M  V30 8295 H 792.284 -2.52889 -1.60274 0
M  V30 8296 H 789.83 -1.21707 -0.769638 0
M  V30 8297 H 791.783 -1.65231 -3.87655 0
M  V30 8298 H 790.507 -0.603705 -3.20972 0
M  V30 8299 H 789.166 -2.63216 -2.55172 0
M  V30 8300 H 788.814 -1.55797 -4.78264 0
M  V30 8301 H 788.514 -3.31257 -4.85327 0
M  V30 8302 H 790.038 -2.64443 -5.50366 0
M  V30 8303 H 791.452 -4.22636 -3.87365 0
M  V30 8304 H 789.849 -4.90187 -3.46175 0
M  V30 8305 H 790.919 -4.33874 -2.16522 0
M  V30 8306 N 792.262 0.832906 -1.33792 0
M  V30 8307 C 793.508 1.59089 -1.25772 0
M  V30 8308 C 793.841 1.93414 0.174601 0
M  V30 8309 O 793.116 1.59195 1.11746 0
M  V30 8310 C 793.399 2.89699 -2.13885 0
M  V30 8311 C 793.252 2.62017 -3.65605 0
M  V30 8312 C 794.571 3.91182 -2.01654 0
M  V30 8313 H 791.69 0.577232 -0.458227 0
M  V30 8314 H 794.332 0.960227 -1.6395 0
M  V30 8315 H 792.482 3.4352 -1.81456 0
M  V30 8316 H 794.154 2.14582 -4.08353 0
M  V30 8317 H 792.397 1.95621 -3.87189 0
M  V30 8318 H 793.068 3.55112 -4.2261 0
M  V30 8319 H 795.544 3.46684 -2.30107 0
M  V30 8320 H 794.42 4.80391 -2.65548 0
M  V30 8321 H 794.681 4.30861 -0.990536 0
M  V30 8322 N 793.74 1.17359 1.05189 0
M  V30 8323 C 794.965 0.98709 1.82404 0
M  V30 8324 C 795.39 -0.459848 1.82392 0
M  V30 8325 O 794.748 -1.32924 1.23292 0
M  V30 8326 C 794.796 1.53276 3.26403 0
M  V30 8327 O 793.9 0.746541 4.05587 0
M  V30 8328 H 793.241 0.35047 0.563974 0
M  V30 8329 H 795.771 1.55856 1.32552 0
M  V30 8330 H 795.781 1.55504 3.77203 0
M  V30 8331 H 794.456 2.58603 3.25726 0
M  V30 8332 H 793.033 0.795671 3.64312 0
M  V30 8333 N 795.218 -1.23913 0.973828 0
M  V30 8334 C 796.181 -2.23367 0.51378 0
M  V30 8335 C 797.181 -1.55923 -0.39302 0
M  V30 8336 O 798.371 -1.73187 -0.187626 0
M  V30 8337 C 795.503 -3.39944 -0.255152 0
M  V30 8338 H 796.696 -2.65581 1.39307 0
M  V30 8339 H 794.249 -1.36632 0.759039 0
M  V30 8340 H 794.984 -3.03177 -1.15127 0
M  V30 8341 H 794.769 -3.90098 0.395673 0
M  V30 8342 H 796.259 -4.13749 -0.565842 0
M  V30 8343 N 796.696 -0.74468 -1.38897 0
M  V30 8344 C 798.107 -0.36568 -1.83084 0
M  V30 8345 C 798.458 1.10436 -1.62168 0
M  V30 8346 O 797.583 1.85281 -1.11804 0
M  V30 8347 C 798.178 -0.656946 -3.3237 0
M  V30 8348 C 796.737 -0.331329 -3.74939 0
M  V30 8349 C 795.884 -0.914661 -2.61781 0
M  V30 8350 H 798.835 -0.941551 -1.27752 0
M  V30 8351 H 798.856 0.0679546 -3.80439 0
M  V30 8352 H 798.368 -1.72693 -3.47561 0
M  V30 8353 H 796.469 0.732426 -3.6533 0
M  V30 8354 H 796.582 -0.820655 -4.72019 0
M  V30 8355 H 794.946 -0.34063 -2.52412 0
M  V30 8356 H 795.729 -1.98949 -2.79775 0
M  V30 8357 N 798.174 1.49689 -0.493057 0
M  V30 8358 C 799.42 2.02727 0.0543518 0
M  V30 8359 C 799.753 1.37264 1.37376 0
M  V30 8360 O 799.028 0.505644 1.87812 0
M  V30 8361 C 799.311 3.59456 0.215226 0
M  V30 8362 C 799.164 4.35459 -1.12675 0
M  V30 8363 C 800.483 4.29511 0.959586 0
M  V30 8364 H 797.602 0.736773 0.0182786 0
M  V30 8365 H 800.244 1.78792 -0.642924 0
M  V30 8366 H 798.394 3.79981 0.809122 0
M  V30 8367 H 800.066 4.2645 -1.75891 0
M  V30 8368 H 798.309 3.9833 -1.71801 0
M  V30 8369 H 798.98 5.43454 -0.967578 0
M  V30 8370 H 801.456 4.13594 0.455977 0
M  V30 8371 H 800.332 5.38939 1.04098 0
M  V30 8372 H 800.593 3.94202 2.00144 0
M  V30 8373 N 799.652 0.226554 1.55963 0
M  V30 8374 C 800.899 -0.403789 1.98433 0
M  V30 8375 C 801.227 -1.59416 1.1143 0
M  V30 8376 O 800.482 -1.95042 0.160389 0
M  V30 8377 C 800.781 -0.87642 3.46488 0
M  V30 8378 C 800.447 0.203973 4.50438 0
M  V30 8379 C 799.109 0.500754 4.78587 0
M  V30 8380 C 801.461 0.934396 5.12756 0
M  V30 8381 C 798.789 1.53239 5.66334 0
M  V30 8382 C 801.141 1.9554 6.0162 0
M  V30 8383 C 799.805 2.25905 6.28111 0
M  V30 8384 H 799.075 -0.147757 0.726119 0
M  V30 8385 H 801.722 0.330121 1.88633 0
M  V30 8386 H 800.027 -1.68918 3.53517 0
M  V30 8387 H 801.724 -1.37407 3.76723 0
M  V30 8388 H 798.314 -0.0374917 4.28584 0
M  V30 8389 H 802.498 0.718355 4.91074 0
M  V30 8390 H 797.754 1.77321 5.85122 0
M  V30 8391 H 801.928 2.52642 6.48957 0
M  V30 8392 H 799.555 3.05985 6.959 0
M  V30 8393 N 801.13 -1.57531 -0.0467866 0
M  V30 8394 C 802.355 -1.93087 -0.757123 0
M  V30 8395 C 802.78 -0.825116 -1.69037 0
M  V30 8396 O 802.138 0.220449 -1.79955 0
M  V30 8397 C 802.186 -3.27669 -1.5055 0
M  V30 8398 O 801.29 -3.18667 -2.61773 0
M  V30 8399 H 800.631 -0.631597 -0.204892 0
M  V30 8400 H 803.161 -2.04599 -0.00755232 0
M  V30 8401 H 803.171 -3.6214 -1.87932 0
M  V30 8402 H 801.846 -4.07717 -0.820931 0
M  V30 8403 H 800.423 -2.95798 -2.27064 0
M  V30 8404 N 802.608 0.318715 -1.54344 0
M  V30 8405 C 803.555 1.39242 -1.84066 0
M  V30 8406 C 804.525 1.51175 -0.688134 0
M  V30 8407 O 805.71 1.66318 -0.935039 0
M  V30 8408 C 802.85 2.75528 -2.07794 0
M  V30 8409 C 801.963 2.72187 -3.35467 0
M  V30 8410 C 801.098 4.00352 -3.4913 0
M  V30 8411 C 800.137 3.91338 -4.7066 0
M  V30 8412 N 799.274 5.11242 -4.81224 0
M  V30 8413 H 804.114 1.13196 -2.75664 0
M  V30 8414 H 801.651 0.547857 -1.36517 0
M  V30 8415 H 803.609 3.54763 -2.19543 0
M  V30 8416 H 802.239 2.99873 -1.19482 0
M  V30 8417 H 801.291 1.84917 -3.3243 0
M  V30 8418 H 802.603 2.61411 -4.24812 0
M  V30 8419 H 801.757 4.88019 -3.60448 0
M  V30 8420 H 800.496 4.1394 -2.57886 0
M  V30 8421 H 799.501 3.02055 -4.59394 0
M  V30 8422 H 800.726 3.7931 -5.63294 0
M  V30 8423 H 798.672 5.25327 -3.92897 0
M  V30 8424 H 798.589 5.0282 -5.64543 0
M  V30 8425 H 799.857 6.0061 -4.96879 0
M  V30 8426 N 804.086 1.46499 0.581025 0
M  V30 8427 C 805.332 1.52121 1.34116 0
M  V30 8428 C 805.665 0.173031 1.93428 0
M  V30 8429 O 804.94 -0.815729 1.76568 0
M  V30 8430 C 805.223 2.62108 2.46924 0
M  V30 8431 C 805.076 4.06462 1.92636 0
M  V30 8432 C 806.395 2.68167 3.48962 0
M  V30 8433 H 803.514 0.5538 0.486287 0
M  V30 8434 H 806.156 1.78443 0.652538 0
M  V30 8435 H 804.306 2.39794 3.05665 0
M  V30 8436 H 805.978 4.40068 1.3834 0
M  V30 8437 H 804.221 4.15862 1.23455 0
M  V30 8438 H 804.892 4.79152 2.74076 0
M  V30 8439 H 807.368 2.8823 3.00104 0
M  V30 8440 H 806.244 3.46942 4.2535 0
M  V30 8441 H 806.505 1.74284 4.06297 0
M  V30 8442 N 805.565 -0.825799 1.34232 0
M  V30 8443 C 806.498 -1.94155 1.19914 0
M  V30 8444 C 807.476 -1.62343 0.0914533 0
M  V30 8445 O 808.66 -1.86752 0.256082 0
M  V30 8446 C 805.787 -3.28064 0.842138 0
M  V30 8447 C 804.833 -3.78839 1.95917 0
M  V30 8448 S 805.666 -3.98943 3.57218 0
M  V30 8449 C 806.822 -5.35783 3.23554 0
M  V30 8450 H 807.055 -2.06003 2.14359 0
M  V30 8451 H 804.588 -0.981053 1.19225 0
M  V30 8452 H 806.546 -4.05434 0.642952 0
M  V30 8453 H 805.207 -3.13988 -0.0839363 0
M  V30 8454 H 804.4 -4.75771 1.66306 0
M  V30 8455 H 804.002 -3.08406 2.11569 0
M  V30 8456 H 806.294 -6.19094 2.7519 0
M  V30 8457 H 807.237 -5.70376 4.19615 0
M  V30 8458 H 807.645 -5.01158 2.5981 0
M  V30 8459 N 807.043 -1.17915 -1.04565 0
M  V30 8460 C 808.006 -0.903787 -2.10628 0
M  V30 8461 C 809.006 0.10873 -1.60432 0
M  V30 8462 O 810.196 -0.124152 -1.73757 0
M  V30 8463 C 807.328 -0.355017 -3.39046 0
M  V30 8464 H 808.521 -1.84425 -2.3649 0
M  V30 8465 H 806.074 -0.990477 -1.2091 0
M  V30 8466 H 806.809 0.592297 -3.18845 0
M  V30 8467 H 806.594 -1.08484 -3.76794 0
M  V30 8468 H 808.084 -0.180891 -4.17208 0
M  V30 8469 N 808.521 1.23394 -0.980386 0
M  V30 8470 C 809.769 1.91431 -0.647978 0
M  V30 8471 C 810.09 1.76871 0.821066 0
M  V30 8472 O 809.36 1.14808 1.58732 0
M  V30 8473 H 807.94 0.708516 -0.236673 0
M  V30 8474 H 810.602 1.50019 -1.2442 0
M  V30 8475 H 809.698 2.98854 -0.899592 0
M  V30 8476 N 809.999 0.752036 1.385 0
M  V30 8477 C 810.962 0.131587 2.28822 0
M  V30 8478 C 811.962 -0.649149 1.47115 0
M  V30 8479 O 813.152 -0.475645 1.67581 0
M  V30 8480 C 810.284 -0.822101 3.30839 0
M  V30 8481 H 811.477 0.927551 2.85196 0
M  V30 8482 H 809.03 0.518945 1.47434 0
M  V30 8483 H 809.765 -1.6438 2.79553 0
M  V30 8484 H 809.55 -0.264689 3.91206 0
M  V30 8485 H 811.04 -1.25226 3.98382 0
M  V30 8486 N 811.477 -1.49425 0.500989 0
M  V30 8487 C 812.407 -2.31971 -0.266775 0
M  V30 8488 C 813.388 -1.40245 -0.962563 0
M  V30 8489 O 814.573 -1.69154 -0.953968 0
M  V30 8490 C 811.703 -3.20757 -1.33163 0
M  V30 8491 C 810.657 -4.21275 -0.75572 0
M  V30 8492 C 809.983 -4.98997 -1.92109 0
M  V30 8493 C 811.283 -5.21686 0.253213 0
M  V30 8494 H 812.977 -2.96408 0.422237 0
M  V30 8495 H 810.523 -1.4254 0.204505 0
M  V30 8496 H 812.476 -3.77315 -1.87646 0
M  V30 8497 H 811.2 -2.54263 -2.04983 0
M  V30 8498 H 809.859 -3.65861 -0.232637 0
M  V30 8499 H 809.507 -4.28951 -2.62698 0
M  V30 8500 H 809.207 -5.67011 -1.54182 0
M  V30 8501 H 810.731 -5.584 -2.47026 0
M  V30 8502 H 812.145 -5.72939 -0.203483 0
M  V30 8503 H 810.542 -5.9759 0.548322 0
M  V30 8504 H 811.612 -4.70596 1.16909 0
M  V30 8505 N 812.955 -0.234822 -1.55841 0
M  V30 8506 C 814.371 0.120295 -1.59146 0
M  V30 8507 C 814.571 1.57896 -1.25184 0
M  V30 8508 O 813.627 2.32138 -0.993393 0
M  V30 8509 C 814.94 -0.217984 -2.99909 0
M  V30 8510 C 816.488 -0.161298 -3.12584 0
M  V30 8511 C 816.963 -0.473438 -4.55546 0
M  V30 8512 N 818.454 -0.423494 -4.6126 0
M  V30 8513 C 819.189 -0.638334 -5.69836 0
M  V30 8514 N 818.685 -0.915659 -6.86722 0
M  V30 8515 N 820.478 -0.569864 -5.59204 0
M  V30 8516 H 812.629 -1.18622 -1.76189 0
M  V30 8517 H 814.892 -0.476426 -0.819587 0
M  V30 8518 H 814.598 -1.2309 -3.29457 0
M  V30 8519 H 814.472 0.460707 -3.74376 0
M  V30 8520 H 816.859 0.842274 -2.82825 0
M  V30 8521 H 816.94 -0.873661 -2.40418 0
M  V30 8522 H 816.584 -1.47451 -4.86025 0
M  V30 8523 H 816.514 0.260268 -5.25956 0
M  V30 8524 H 819.005 -0.217383 -3.77274 0
M  V30 8525 H 819.318 -1.06734 -7.65394 0
M  V30 8526 H 817.663 -0.953 -6.88435 0
M  V30 8527 H 820.854 -0.35334 -4.66765 0
M  V30 8528 H 821.027 -0.740698 -6.43753 0
M  V30 8529 N 814.433 1.57553 0.0384317 0
M  V30 8530 C 815.363 2.0898 1.04161 0
M  V30 8531 C 816.344 0.99029 1.38301 0
M  V30 8532 O 817.529 1.26499 1.47349 0
M  V30 8533 C 814.659 2.56145 2.34536 0
M  V30 8534 C 813.613 3.70275 2.14663 0
M  V30 8535 C 812.939 4.03612 3.50715 0
M  V30 8536 C 814.239 4.99067 1.54045 0
M  V30 8537 H 815.933 2.93046 0.613548 0
M  V30 8538 H 813.479 1.40973 0.293684 0
M  V30 8539 H 815.432 2.90741 3.05037 0
M  V30 8540 H 814.156 1.6915 2.79385 0
M  V30 8541 H 812.815 3.36013 1.46597 0
M  V30 8542 H 812.463 3.13698 3.93195 0
M  V30 8543 H 812.163 4.80482 3.38247 0
M  V30 8544 H 813.687 4.40735 4.22593 0
M  V30 8545 H 815.101 5.3168 2.14451 0
M  V30 8546 H 813.498 5.80484 1.52178 0
M  V30 8547 H 814.568 4.8226 0.505259 0
M  V30 8548 N 815.911 -0.310526 1.54511 0
M  V30 8549 C 816.844 -1.40693 1.79668 0
M  V30 8550 C 817.822 -1.49159 0.64734 0
M  V30 8551 O 819.006 -1.66367 0.886239 0
M  V30 8552 C 816.133 -2.78685 1.92491 0
M  V30 8553 C 815.179 -2.87688 3.14861 0
M  V30 8554 S 816.012 -2.50759 4.7316 0
M  V30 8555 C 817.168 -3.90797 4.88906 0
M  V30 8556 H 817.401 -1.19142 2.72383 0
M  V30 8557 H 814.934 -0.508103 1.458 0
M  V30 8558 H 816.892 -3.58168 2.00563 0
M  V30 8559 H 815.553 -2.9751 1.00731 0
M  V30 8560 H 814.746 -3.8888 3.20607 0
M  V30 8561 H 814.348 -2.16189 3.05186 0
M  V30 8562 H 816.64 -4.85693 4.72344 0
M  V30 8563 H 817.583 -3.90027 5.91003 0
M  V30 8564 H 817.991 -3.80357 4.1712 0
M  V30 8565 N 817.389 -1.46805 -0.573248 0
M  V30 8566 C 818.337 -1.58468 -1.70267 0
M  V30 8567 C 819.331 -0.452694 -1.63239 0
M  V30 8568 O 820.537 -0.629915 -1.68618 0
M  V30 8569 H 816.912 -0.498408 -0.56311 0
M  V30 8570 H 818.883 -2.5341 -1.57563 0
M  V30 8571 C 817.632 -1.60104 -3.08645 0
M  V30 8572 H 816.955 -2.4655 -3.14727 0
M  V30 8573 H 818.395 -1.72318 -3.87405 0
M  V30 8574 C 816.854 -0.33138 -3.35266 0
M  V30 8575 O 817.384 0.57438 -3.97572 0
M  V30 8576 N 815.59 -0.216358 -2.89793 0
M  V30 8577 H 815.137 -0.954345 -2.3927 0
M  V30 8578 H 815.095 0.632253 -3.07977 0
M  V30 8579 N 818.867 0.818669 -1.34668 0
M  V30 8580 C 820.113 1.57746 -1.27453 0
M  V30 8581 C 820.446 1.93588 0.154077 0
M  V30 8582 O 819.721 1.60371 1.10051 0
M  V30 8583 C 820.004 2.87414 -2.16945 0
M  V30 8584 C 819.857 2.58125 -3.68363 0
M  V30 8585 C 821.176 3.89021 -2.05792 0
M  V30 8586 H 818.295 0.572339 -0.464324 0
M  V30 8587 H 820.937 0.942784 -1.64959 0
M  V30 8588 H 819.087 3.41576 -1.85089 0
M  V30 8589 H 820.759 2.10239 -4.10606 0
M  V30 8590 H 819.002 1.91503 -3.89242 0
M  V30 8591 H 819.673 3.5061 -4.26353 0
M  V30 8592 H 822.149 3.44224 -2.33771 0
M  V30 8593 H 821.025 4.77548 -2.70628 0
M  V30 8594 H 821.286 4.29786 -1.03618 0
M  V30 8595 N 820.346 1.18468 1.03938 0
M  V30 8596 C 821.757 0.984808 1.58614 0
M  V30 8597 C 822.108 -0.465165 1.90606 0
M  V30 8598 O 821.233 -1.34274 1.69704 0
M  V30 8599 C 821.828 1.78135 2.8819 0
M  V30 8600 C 820.387 1.62579 3.39478 0
M  V30 8601 C 819.534 1.77501 2.13046 0
M  V30 8602 H 822.485 1.32993 0.865944 0
M  V30 8603 H 822.506 1.27119 3.58638 0
M  V30 8604 H 822.018 2.83661 2.64874 0
M  V30 8605 H 820.119 0.59595 3.67803 0
M  V30 8606 H 820.232 2.42463 4.13217 0
M  V30 8607 H 818.596 1.2046 2.24414 0
M  V30 8608 H 819.379 2.84464 1.92185 0
M  V30 8609 N 821.824 -1.22873 0.986916 0
M  V30 8610 C 823.235 -1.73264 0.695438 0
M  V30 8611 C 823.586 -1.79679 -0.788023 0
M  V30 8612 O 822.711 -1.43905 -1.61618 0
M  V30 8613 C 823.306 -3.14671 1.2557 0
M  V30 8614 C 821.865 -3.62492 1.01373 0
M  V30 8615 C 821.012 -2.40551 1.37951 0
M  V30 8616 H 823.963 -1.08304 1.15999 0
M  V30 8617 H 823.984 -3.75226 0.631322 0
M  V30 8618 H 823.496 -3.0997 2.33539 0
M  V30 8619 H 821.597 -3.72567 -0.0495917 0
M  V30 8620 H 821.71 -4.48944 1.67289 0
M  V30 8621 H 820.074 -2.41875 0.798033 0
M  V30 8622 H 820.857 -2.38516 2.46911 0
M  V30 8623 N 823.302 -0.75937 -1.38099 0
M  V30 8624 C 824.579 -0.243371 -1.9408 0
M  V30 8625 C 824.959 1.25942 -1.69416 0
M  V30 8626 O 824.307 2.03667 -1.03595 0
M  V30 8627 C 824.517 -0.603328 -3.43745 0
M  V30 8628 C 825.865 -0.566195 -4.20808 0
M  V30 8629 O 826.889 -0.541969 -3.52053 0
M  V30 8630 O 825.748 -0.582261 -5.43389 0
M  V30 8631 H 822.842 -0.0526825 -0.82532 0
M  V30 8632 H 825.388 -0.839884 -1.47459 0
M  V30 8633 H 824.16 -1.64098 -3.55229 0
M  V30 8634 H 823.783 0.0208887 -3.97595 0
M  V30 8635 N 824.78 1.49157 -0.508906 0
M  V30 8636 C 825.728 2.30922 0.278906 0
M  V30 8637 C 826.722 1.39889 0.955382 0
M  V30 8638 O 827.928 1.56901 0.882169 0
M  V30 8639 H 824.303 0.744087 0.108805 0
M  V30 8640 H 826.274 2.95277 -0.430583 0
M  V30 8641 C 825.023 3.21432 1.32576 0
M  V30 8642 H 824.346 3.91413 0.814634 0
M  V30 8643 H 825.786 3.81568 1.84882 0
M  V30 8644 C 824.245 2.41583 2.34817 0
M  V30 8645 O 824.775 2.1256 3.40854 0
M  V30 8646 N 822.981 2.03462 2.07489 0
M  V30 8647 H 822.528 2.27265 1.21278 0
M  V30 8648 H 822.486 1.50345 2.76123 0
M  V30 8649 N 826.258 0.243083 1.55714 0
M  V30 8650 C 827.188 -0.652336 2.24203 0
M  V30 8651 C 828.169 -1.1843 1.221 0
M  V30 8652 O 829.354 -1.22435 1.50743 0
M  V30 8653 C 826.484 -1.85111 2.93856 0
M  V30 8654 C 825.438 -1.45208 4.02615 0
M  V30 8655 C 824.764 -2.73137 4.59674 0
M  V30 8656 C 826.064 -0.625988 5.18535 0
M  V30 8657 H 827.758 -0.0812504 2.9929 0
M  V30 8658 H 825.304 -0.0376388 1.43951 0
M  V30 8659 H 827.257 -2.48314 3.40468 0
M  V30 8660 H 825.981 -2.44751 2.16251 0
M  V30 8661 H 824.64 -0.843406 3.56766 0
M  V30 8662 H 824.288 -3.30967 3.78774 0
M  V30 8663 H 823.988 -2.47163 5.33089 0
M  V30 8664 H 825.512 -3.37245 5.09017 0
M  V30 8665 H 826.926 -1.16223 5.61396 0
M  V30 8666 H 825.323 -0.462465 5.98315 0
M  V30 8667 H 826.393 0.362652 4.83542 0
M  V30 8668 N 827.736 -1.57571 -0.0300757 0
M  V30 8669 C 829.147 -1.77567 -0.576802 0
M  V30 8670 C 829.498 -0.874034 -1.75656 0
M  V30 8671 O 828.623 -0.0686124 -2.16291 0
M  V30 8672 C 829.218 -3.22016 -1.05315 0
M  V30 8673 C 827.777 -3.43212 -1.5454 0
M  V30 8674 C 826.924 -2.73061 -0.483033 0
M  V30 8675 H 829.875 -1.57483 0.196151 0
M  V30 8676 H 829.896 -3.28474 -1.92055 0
M  V30 8677 H 829.408 -3.87613 -0.194298 0
M  V30 8678 H 827.509 -2.82788 -2.42615 0
M  V30 8679 H 827.622 -4.5182 -1.5936 0
M  V30 8680 H 825.986 -2.36805 -0.937835 0
M  V30 8681 H 826.769 -3.4134 0.366341 0
M  V30 8682 N 829.214 0.302327 -1.54673 0
M  V30 8683 C 830.442 1.05669 -1.77881 0
M  V30 8684 C 830.857 1.80983 -0.537648 0
M  V30 8685 O 830.214 1.7573 0.492467 0
M  V30 8686 C 830.265 2.03828 -2.98557 0
M  V30 8687 O 829.986 1.3157 -4.17877 0
M  V30 8688 C 831.487 2.91314 -3.34143 0
M  V30 8689 H 828.707 0.313436 -0.593295 0
M  V30 8690 H 831.251 0.342003 -2.0162 0
M  V30 8691 H 829.406 2.70801 -2.7703 0
M  V30 8692 H 829.82 1.97481 -4.85903 0
M  V30 8693 H 831.294 3.56042 -4.21827 0
M  V30 8694 H 831.771 3.59544 -2.52239 0
M  V30 8695 H 832.377 2.29874 -3.57824 0
M  V30 8696 N 830.692 1.47107 0.565454 0
M  V30 8697 C 831.655 1.58535 1.65527 0
M  V30 8698 C 832.655 0.461081 1.54048 0
M  V30 8699 O 833.845 0.725911 1.58355 0
M  V30 8700 C 830.977 1.52204 3.05036 0
M  V30 8701 H 832.17 2.55676 1.56747 0
M  V30 8702 H 829.723 1.35174 0.78471 0
M  V30 8703 H 830.458 0.564071 3.19357 0
M  V30 8704 H 830.243 2.3379 3.14777 0
M  V30 8705 H 831.733 1.63322 3.84338 0
M  V30 8706 N 832.17 -0.811516 1.35101 0
M  V30 8707 C 833.398 -1.59981 1.31201 0
M  V30 8708 C 833.813 -1.8847 -0.111552 0
M  V30 8709 O 833.17 -1.48414 -1.06205 0
M  V30 8710 C 833.221 -2.934 2.11184 0
M  V30 8711 O 832.942 -2.66148 3.4799 0
M  V30 8712 C 834.443 -3.87776 2.14813 0
M  V30 8713 H 831.663 -0.496921 0.450899 0
M  V30 8714 H 834.207 -1.00886 1.77883 0
M  V30 8715 H 832.362 -3.49022 1.68115 0
M  V30 8716 H 832.776 -3.51301 3.89471 0
M  V30 8717 H 834.25 -4.7852 2.75178 0
M  V30 8718 H 834.727 -4.23997 1.14556 0
M  V30 8719 H 835.333 -3.3809 2.58022 0
M  V30 8720 N 833.648 -1.19017 -1.03309 0
M  V30 8721 C 834.558 -0.939303 -2.14975 0
M  V30 8722 C 835.574 0.0992359 -1.73717 0
M  V30 8723 O 836.75 -0.0844362 -2.01223 0
M  V30 8724 C 833.815 -0.476712 -3.43407 0
M  V30 8725 C 832.876 -1.58413 -3.99003 0
M  V30 8726 C 832.109 -1.14352 -5.21305 0
M  V30 8727 O 832.332 -0.00534408 -5.704 0
M  V30 8728 O 831.266 -1.94436 -5.6963 0
M  V30 8729 H 835.092 -1.87386 -2.38998 0
M  V30 8730 H 832.677 -0.972635 -1.13403 0
M  V30 8731 H 834.559 -0.22718 -4.20787 0
M  V30 8732 H 833.234 0.429455 -3.20839 0
M  V30 8733 H 832.141 -1.88777 -3.22977 0
M  V30 8734 H 833.474 -2.4667 -4.25928 0
M  V30 8735 N 835.127 1.22348 -0.993418 0
M  V30 8736 C 836.059 2.23626 -0.502404 0
M  V30 8737 C 837.072 1.57739 0.402784 0
M  V30 8738 O 838.261 1.77321 0.204835 0
M  V30 8739 C 835.361 3.37647 0.291118 0
M  V30 8740 C 834.534 4.33121 -0.610332 0
M  V30 8741 C 833.593 5.26035 0.131572 0
M  V30 8742 O 832.619 5.67145 -0.483199 0
M  V30 8743 N 833.821 5.63023 1.41371 0
M  V30 8744 H 836.586 2.66385 -1.37329 0
M  V30 8745 H 834.147 1.36653 -0.868196 0
M  V30 8746 H 836.139 3.96792 0.796107 0
M  V30 8747 H 834.709 2.93967 1.0631 0
M  V30 8748 H 833.929 3.72287 -1.29598 0
M  V30 8749 H 835.217 4.93853 -1.22422 0
M  V30 8750 H 834.615 5.31596 1.93449 0
M  V30 8751 H 833.172 6.24582 1.86388 0
M  V30 8752 N 836.605 0.766683 1.37694 0
M  V30 8753 C 837.537 0.107798 2.28946 0
M  V30 8754 C 838.55 -0.669701 1.48387 0
M  V30 8755 O 839.739 -0.508629 1.711 0
M  V30 8756 C 836.839 -0.871084 3.27514 0
M  V30 8757 C 836.012 -0.148471 4.37148 0
M  V30 8758 C 835.071 -1.03998 5.1582 0
M  V30 8759 O 834.097 -0.505639 5.6695 0
M  V30 8760 N 835.299 -2.36679 5.3006 0
M  V30 8761 H 838.064 0.89154 2.86132 0
M  V30 8762 H 835.625 0.618593 1.49616 0
M  V30 8763 H 837.617 -1.47081 3.77027 0
M  V30 8764 H 836.187 -1.55582 2.71133 0
M  V30 8765 H 835.407 0.632117 3.89099 0
M  V30 8766 H 836.695 0.351045 5.07588 0
M  V30 8767 H 836.093 -2.82532 4.90094 0
M  V30 8768 H 834.65 -2.9167 5.82899 0
M  V30 8769 N 838.083 -1.48885 0.516809 0
M  V30 8770 C 839.015 -2.27357 -0.290061 0
M  V30 8771 C 840.028 -1.34558 -0.916406 0
M  V30 8772 O 841.217 -1.59715 -0.797073 0
M  V30 8773 C 838.317 -3.07496 -1.42476 0
M  V30 8774 C 837.49 -4.27982 -0.902793 0
M  V30 8775 C 836.549 -4.90038 -1.91701 0
M  V30 8776 O 835.575 -5.49643 -1.47922 0
M  V30 8777 N 836.777 -4.811 -3.24843 0
M  V30 8778 H 839.542 -2.97244 0.382884 0
M  V30 8779 H 837.103 -1.58064 0.35032 0
M  V30 8780 H 839.095 -3.45882 -2.10113 0
M  V30 8781 H 837.665 -2.40115 -2.00159 0
M  V30 8782 H 836.885 -3.94167 -0.0508272 0
M  V30 8783 H 838.173 -5.06003 -0.532723 0
M  V30 8784 H 837.571 -4.33801 -3.63088 0
M  V30 8785 H 836.128 -5.23625 -3.8815 0
M  V30 8786 N 839.561 -0.251338 -1.55583 0
M  V30 8787 C 840.807 0.37272 -1.99346 0
M  V30 8788 C 841.14 1.57266 -1.13934 0
M  V30 8789 O 840.415 1.9343 -0.20377 0
M  V30 8790 C 840.698 0.778245 -3.5159 0
M  V30 8791 C 840.551 -0.427394 -4.47765 0
M  V30 8792 C 841.87 1.62358 -4.09057 0
M  V30 8793 H 838.989 0.134002 -0.724715 0
M  V30 8794 H 841.631 -0.353536 -1.86682 0
M  V30 8795 H 839.781 1.39704 -3.62512 0
M  V30 8796 H 841.453 -1.06586 -4.48818 0
M  V30 8797 H 839.696 -1.06972 -4.20404 0
M  V30 8798 H 840.367 -0.10025 -5.51909 0
M  V30 8799 H 842.843 1.1012 -4.01264 0
M  V30 8800 H 841.719 1.87617 -5.1584 0
M  V30 8801 H 841.98 2.59688 -3.57791 0
M  V30 8802 N 841.039 1.57585 0.0217189 0
M  V30 8803 C 841.987 2.08134 1.03842 0
M  V30 8804 C 842.981 0.996662 1.36978 0
M  V30 8805 O 844.187 1.18149 1.35797 0
M  V30 8806 H 840.562 0.664298 0.352438 0
M  V30 8807 H 842.533 2.92583 0.58634 0
M  V30 8808 C 841.282 2.58218 2.32849 0
M  V30 8809 H 840.605 3.41302 2.08214 0
M  V30 8810 H 842.045 2.97289 3.02316 0
M  V30 8811 C 840.504 1.48664 3.02325 0
M  V30 8812 O 841.034 0.857075 3.9245 0
M  V30 8813 N 839.24 1.21938 2.63779 0
M  V30 8814 H 838.787 1.73319 1.90574 0
M  V30 8815 H 838.745 0.488523 3.10581 0
M  V30 8816 N 842.517 -0.29412 1.54831 0
M  V30 8817 C 843.48 -1.3461 1.85507 0
M  V30 8818 C 844.48 -1.43359 0.728343 0
M  V30 8819 O 845.67 -1.42875 0.996609 0
M  V30 8820 C 842.802 -2.73012 2.0415 0
M  V30 8821 H 843.995 -1.08651 2.79526 0
M  V30 8822 H 841.548 -0.531138 1.46999 0
M  V30 8823 H 842.283 -3.04183 1.12441 0
M  V30 8824 H 842.068 -2.68051 2.86166 0
M  V30 8825 H 843.558 -3.49061 2.29229 0
M  V30 8826 N 843.995 -1.47404 -0.557645 0
M  V30 8827 C 844.958 -1.59411 -1.64684 0
M  V30 8828 C 845.958 -0.469244 -1.53801 0
M  V30 8829 O 847.148 -0.734298 -1.57967 0
M  V30 8830 C 844.28 -1.5382 -3.04224 0
M  V30 8831 H 845.473 -2.56504 -1.55389 0
M  V30 8832 H 843.026 -1.35588 -0.777531 0
M  V30 8833 H 843.761 -0.581 -3.19053 0
M  V30 8834 H 843.546 -2.35456 -3.13533 0
M  V30 8835 H 845.036 -1.65358 -3.83466 0
M  V30 8836 N 845.473 0.80434 -1.35529 0
M  V30 8837 C 846.884 1.37849 -1.25915 0
M  V30 8838 C 847.235 1.95905 0.107495 0
M  V30 8839 O 846.36 1.91462 1.00852 0
M  V30 8840 C 846.955 2.50608 -2.27994 0
M  V30 8841 C 845.514 3.03879 -2.22114 0
M  V30 8842 C 844.661 1.76856 -2.13582 0
M  V30 8843 H 847.612 0.607192 -1.46625 0
M  V30 8844 H 847.633 3.29221 -1.90772 0
M  V30 8845 H 847.145 2.08323 -3.27449 0
M  V30 8846 H 845.246 3.50622 -1.26077 0
M  V30 8847 H 845.359 3.61707 -3.14173 0
M  V30 8848 H 843.723 1.98498 -1.59595 0
M  V30 8849 H 844.506 1.36721 -3.14901 0
M  V30 8850 N 846.951 1.19563 1.02676 0
M  V30 8851 C 847.914 0.937182 2.09164 0
M  V30 8852 C 848.914 -0.0831927 1.60585 0
M  V30 8853 O 850.104 0.15178 1.73538 0
M  V30 8854 C 847.236 0.408912 3.38439 0
M  V30 8855 H 848.429 1.88164 2.33526 0
M  V30 8856 H 845.982 1.00959 1.19319 0
M  V30 8857 H 846.717 -0.541497 3.19747 0
M  V30 8858 H 846.502 1.14464 3.7502 0
M  V30 8859 H 847.992 0.247242 4.16867 0
M  V30 8860 N 848.429 -1.21819 0.999893 0
M  V30 8861 C 849.376 -2.24003 0.556005 0
M  V30 8862 C 850.346 -1.60825 -0.415287 0
M  V30 8863 O 851.531 -1.88123 -0.318481 0
M  V30 8864 C 848.671 -3.44904 -0.116289 0
M  V30 8865 C 847.784 -4.22573 0.897574 0
M  V30 8866 C 846.919 -5.30831 0.198073 0
M  V30 8867 C 845.958 -6.00225 1.19983 0
M  V30 8868 N 845.095 -7.00111 0.528157 0
M  V30 8869 H 849.935 -2.61334 1.43208 0
M  V30 8870 H 847.472 -1.28431 0.717205 0
M  V30 8871 H 849.43 -4.13908 -0.523055 0
M  V30 8872 H 848.06 -3.08315 -0.956108 0
M  V30 8873 H 847.112 -3.52797 1.42262 0
M  V30 8874 H 848.424 -4.70363 1.66013 0
M  V30 8875 H 847.578 -6.06121 -0.265065 0
M  V30 8876 H 846.317 -4.84033 -0.596924 0
M  V30 8877 H 845.322 -5.23711 1.67353 0
M  V30 8878 H 846.547 -6.4911 1.99582 0
M  V30 8879 H 844.493 -6.55534 -0.247276 0
M  V30 8880 H 844.41 -7.45943 1.22904 0
M  V30 8881 H 845.678 -7.7945 0.0880543 0
M  V30 8882 N 849.908 -0.773975 -1.37286 0
M  V30 8883 C 851.156 -0.338636 -1.99243 0
M  V30 8884 C 851.477 1.08919 -1.61746 0
M  V30 8885 O 850.747 1.74822 -0.88397 0
M  V30 8886 H 849.327 -0.12222 -0.736934 0
M  V30 8887 H 851.989 -0.992595 -1.67731 0
M  V30 8888 H 851.085 -0.418055 -3.09287 0
M  V30 8889 N 851.386 1.48609 -0.524698 0
M  V30 8890 C 852.634 2.02097 0.0112991 0
M  V30 8891 C 852.955 1.40455 1.35268 0
M  V30 8892 O 852.225 0.56807 1.87483 0
M  V30 8893 H 850.805 0.746966 0.00716426 0
M  V30 8894 H 853.467 1.82378 -0.687329 0
M  V30 8895 H 852.563 3.11855 0.123531 0
M  V30 8896 N 852.864 0.259585 1.55447 0
M  V30 8897 C 854.28 -0.094961 1.59317 0
M  V30 8898 C 854.48 -1.55884 1.2768 0
M  V30 8899 O 853.536 -2.30528 1.0302 0
M  V30 8900 C 854.849 0.265669 2.99524 0
M  V30 8901 C 856.397 0.211007 3.12288 0
M  V30 8902 C 856.872 0.545851 4.54736 0
M  V30 8903 N 858.363 0.496823 4.60528 0
M  V30 8904 C 859.098 0.728909 5.68748 0
M  V30 8905 N 858.594 1.02479 6.85179 0
M  V30 8906 N 860.387 0.658756 5.58226 0
M  V30 8907 H 852.538 1.2141 1.7428 0
M  V30 8908 H 854.801 0.489404 0.811904 0
M  V30 8909 H 854.507 1.28316 3.27457 0
M  V30 8910 H 854.381 -0.401089 3.75061 0
M  V30 8911 H 856.768 -0.797172 2.84129 0
M  V30 8912 H 856.849 0.911799 2.38998 0
M  V30 8913 H 856.493 1.55164 4.83618 0
M  V30 8914 H 856.423 -0.17656 5.26304 0
M  V30 8915 H 858.914 0.277376 3.76881 0
M  V30 8916 H 859.227 1.18897 7.63599 0
M  V30 8917 H 857.572 1.0624 6.86832 0
M  V30 8918 H 860.763 0.427553 4.66143 0
M  V30 8919 H 860.936 0.84302 6.42493 0
M  V30 8920 N 854.342 -1.57594 -0.0133615 0
M  V30 8921 C 855.59 -1.89605 -0.699596 0
M  V30 8922 C 855.911 -0.85926 -1.75048 0
M  V30 8923 O 855.181 0.105112 -1.95618 0
M  V30 8924 H 853.761 -0.699776 -0.261385 0
M  V30 8925 H 856.423 -1.94885 0.0244044 0
M  V30 8926 H 855.519 -2.88962 -1.17928 0
M  V30 8927 O 855.859 0.155898 -1.60746 0
M  V30 8928 H 856.55 0.791038 -1.76811 0
M  V30 END ATOM
M  V30 BEGIN BOND
M  V30 END BOND
M  V30 END CTAB
M  END
$$$$
