drugbank_target|Q9UBX1 Cathepsin F (DB01810; DB01871; DB02243; DB03536; DB03573; DB03691; DB07913; DB08775)
 OpenBabel12092119553D

  0  0  0     0  0            999 V3000
M  V30 BEGIN CTAB
M  V30 COUNTS 7462 7549 0 0 0
M  V30 BEGIN ATOM
M  V30 1 H -0.908 1.98254 -0.117106 0
M  V30 2 N 0 1.576 0 0
M  V30 3 C 0.933 2.03868 1.02534 0
M  V30 4 C 1.911 0.928543 1.3348 0
M  V30 5 O 3.095 1.19667 1.45644 0
M  V30 6 C 0.222 2.43627 2.35294 0
M  V30 7 C -0.732 3.65373 2.2001 0
M  V30 8 S 0.101 5.13292 1.52614 0
M  V30 9 C 1.257 5.56322 2.86805 0
M  V30 10 H 1.49 2.90518 0.631377 0
M  V30 11 H -0.977 1.52953 0.210867 0
M  V30 12 H 0.981 2.67203 3.11629 0
M  V30 13 H -0.358 1.57376 2.7183 0
M  V30 14 H -1.165 3.90944 3.18086 0
M  V30 15 H -1.563 3.418 1.51819 0
M  V30 16 H 0.729 5.58782 3.83104 0
M  V30 17 H 1.672 6.56266 2.65933 0
M  V30 18 H 2.08 4.83886 2.90714 0
M  V30 19 N 1.4781 -0.272755 1.55222 0
M  V30 20 C 2.4411 -1.32041 1.87344 0
M  V30 21 C 3.4411 -1.42342 0.74803 0
M  V30 22 O 4.6311 -1.41488 1.0162 0
M  V30 23 C 1.7631 -2.70173 2.07893 0
M  V30 24 H 2.9561 -1.04789 2.80997 0
M  V30 25 H 0.5091 -0.51083 1.47717 0
M  V30 26 H 1.2441 -3.02605 1.16622 0
M  V30 27 H 1.0291 -2.64082 2.89833 0
M  V30 28 H 2.5191 -3.45869 2.34017 0
M  V30 29 N 2.9562 -1.48159 -0.537278 0
M  V30 30 C 4.3672 -1.49429 -1.11928 0
M  V30 31 C 4.7182 -0.26 -1.9447 0
M  V30 32 O 3.8432 0.633489 -2.0692 0
M  V30 33 C 4.4382 -2.70758 -2.03656 0
M  V30 34 C 2.9972 -2.74923 -2.57088 0
M  V30 35 C 2.1442 -2.42835 -1.3389 0
M  V30 36 H 5.0952 -1.55381 -0.322886 0
M  V30 37 H 5.1162 -2.48861 -2.87834 0
M  V30 38 H 4.6282 -3.60575 -1.43553 0
M  V30 39 H 2.7292 -1.89296 -3.20933 0
M  V30 40 H 2.8422 -3.76157 -2.9672 0
M  V30 41 H 1.2062 -1.93836 -1.65226 0
M  V30 42 H 1.9892 -3.34884 -0.755504 0
M  V30 43 N 4.4343 0.785586 -1.36625 0
M  V30 44 C 5.6803 1.5452 -1.32269 0
M  V30 45 C 6.0353 1.92159 0.0962266 0
M  V30 46 O 5.3283 1.60158 1.05167 0
M  V30 47 C 5.5223 2.83007 -2.1827 0
M  V30 48 C 5.3513 2.57925 -3.68382 0
M  V30 49 C 4.1213 2.52752 -4.37544 0
M  V30 50 C 6.3193 2.26861 -4.61561 0
M  V30 51 N 4.3013 2.19608 -5.73276 0
M  V30 52 C 5.6723 2.03738 -5.85569 0
M  V30 53 C 7.7273 2.129 -4.50087 0
M  V30 54 C 6.4303 1.68065 -6.9939 0
M  V30 55 C 8.4563 1.78626 -5.63779 0
M  V30 56 C 7.8183 1.56353 -6.86828 0
M  V30 57 H 3.9173 0.566301 -0.539283 0
M  V30 58 H 6.5013 0.917736 -1.71714 0
M  V30 59 H 4.6723 3.43614 -1.81063 0
M  V30 60 H 6.4043 3.48775 -2.05275 0
M  V30 61 H 3.1593 2.6813 -3.90389 0
M  V30 62 H 3.5833 2.05771 -6.44971 0
M  V30 63 H 8.2253 2.28808 -3.55537 0
M  V30 64 H 5.9433 1.50895 -7.93887 0
M  V30 65 H 9.5293 1.68502 -5.56865 0
M  V30 66 H 8.4093 1.30223 -7.73312 0
M  V30 67 N 5.9124 1.20967 1.01018 0
M  V30 68 C 6.8424 0.988272 2.11555 0
M  V30 69 C 7.8234 -0.0849778 1.69888 0
M  V30 70 O 9.0084 0.0738202 1.9406 0
M  V30 71 C 6.1384 0.546528 3.42973 0
M  V30 72 C 5.0924 1.56375 3.9841 0
M  V30 73 C 4.4184 0.97842 5.25672 0
M  V30 74 C 5.7184 2.94922 4.31066 0
M  V30 75 H 7.4124 1.91276 2.30334 0
M  V30 76 H 4.9584 0.921073 1.1069 0
M  V30 77 H 6.9114 0.378839 4.19694 0
M  V30 78 H 5.6354 -0.413598 3.23971 0
M  V30 79 H 4.2944 1.71891 3.23804 0
M  V30 80 H 3.9424 0.0101688 5.02999 0
M  V30 81 H 3.6424 1.65784 5.63728 0
M  V30 82 H 5.1664 0.821939 6.05043 0
M  V30 83 H 6.5804 2.8288 4.9865 0
M  V30 84 H 4.9774 3.5983 4.80253 0
M  V30 85 H 6.0474 3.4616 3.39561 0
M  V30 86 N 7.3905 -1.2043 1.01659 0
M  V30 87 C 8.3225 -2.22626 0.544988 0
M  V30 88 C 9.3355 -1.58479 -0.372609 0
M  V30 89 O 10.5245 -1.77679 -0.170958 0
M  V30 90 C 7.6245 -3.38141 -0.22663 0
M  V30 91 C 6.7975 -4.31877 0.692876 0
M  V30 92 C 5.8565 -5.26191 -0.0311616 0
M  V30 93 O 4.8825 -5.6612 0.591343 0
M  V30 94 N 6.0845 -5.65618 -1.30601 0
M  V30 95 H 8.8495 -2.63716 1.42388 0
M  V30 96 H 6.4105 -1.34971 0.894116 0
M  V30 97 H 8.4025 -3.98239 -0.72024 0
M  V30 98 H 6.9725 -2.95943 -1.00681 0
M  V30 99 H 6.1925 -3.69746 1.36679 0
M  V30 100 H 7.4805 -4.91426 1.31824 0
M  V30 101 H 6.8785 -5.3519 -1.83269 0
M  V30 102 H 5.4355 -6.28025 -1.74435 0
M  V30 103 N 8.8686 -0.792821 -1.36206 0
M  V30 104 C 9.7986 -0.207853 -2.32573 0
M  V30 105 C 10.7796 0.659055 -1.56813 0
M  V30 106 O 11.9646 0.592176 -1.84951 0
M  V30 107 C 9.0946 0.655449 -3.41059 0
M  V30 108 C 8.0486 -0.111842 -4.27854 0
M  V30 109 C 7.3746 0.872274 -5.27537 0
M  V30 110 C 8.6746 -1.30299 -5.05786 0
M  V30 111 H 10.3686 -1.01294 -2.81744 0
M  V30 112 H 7.9146 -0.48854 -1.3546 0
M  V30 113 H 9.8676 1.07464 -4.07467 0
M  V30 114 H 8.5916 1.49328 -2.90463 0
M  V30 115 H 7.2506 -0.512053 -3.63006 0
M  V30 116 H 6.8986 1.70523 -4.73214 0
M  V30 117 H 6.5986 0.363291 -5.86476 0
M  V30 118 H 8.1226 1.28996 -5.96818 0
M  V30 119 H 9.5366 -0.959379 -5.65216 0
M  V30 120 H 7.9336 -1.7455 -5.74154 0
M  V30 121 H 9.0036 -2.09663 -4.37229 0
M  V30 122 N 10.3467 1.47872 -0.545128 0
M  V30 123 C 11.2767 2.32661 0.197793 0
M  V30 124 C 12.2577 1.43041 0.920504 0
M  V30 125 O 13.4427 1.71912 0.90333 0
M  V30 126 C 10.5727 3.24569 1.23582 0
M  V30 127 C 9.5267 4.23333 0.630323 0
M  V30 128 C 8.8527 5.0448 1.77211 0
M  V30 129 C 10.1527 5.20704 -0.407974 0
M  V30 130 H 11.8467 2.95024 -0.510045 0
M  V30 131 H 9.3927 1.4187 -0.246731 0
M  V30 132 H 11.3457 3.8272 1.76362 0
M  V30 133 H 10.0697 2.60236 1.97344 0
M  V30 134 H 8.7287 3.6639 0.123922 0
M  V30 135 H 8.3767 4.36561 2.49847 0
M  V30 136 H 8.0767 5.71339 1.37281 0
M  V30 137 H 9.6007 5.65487 2.3034 0
M  V30 138 H 11.0147 5.7329 0.033305 0
M  V30 139 H 9.4117 5.95699 -0.725486 0
M  V30 140 H 10.4817 4.66917 -1.30828 0
M  V30 141 N 11.8248 0.280983 1.55075 0
M  V30 142 C 13.0498 -0.340154 2.04592 0
M  V30 143 C 13.4748 -1.48246 1.15779 0
M  V30 144 O 12.8328 -1.80614 0.15761 0
M  V30 145 C 12.8808 -0.793104 3.5177 0
M  V30 146 O 11.9848 -1.89981 3.66034 0
M  V30 147 H 11.3258 -0.0694289 0.66036 0
M  V30 148 H 13.8558 0.416993 2.00306 0
M  V30 149 H 13.8658 -1.08729 3.93245 0
M  V30 150 H 12.5408 0.0426163 4.15878 0
M  V30 151 H 11.1178 -1.60771 3.36463 0
M  V30 152 N 13.3029 -1.57598 0.00835791 0
M  V30 153 C 14.2329 -2.1198 -0.979113 0
M  V30 154 C 15.2139 -1.03091 -1.35301 0
M  V30 155 O 16.3989 -1.30818 -1.43528 0
M  V30 156 C 13.5289 -2.62995 -2.26828 0
M  V30 157 C 12.4829 -3.76485 -2.03576 0
M  V30 158 C 11.8089 -4.13846 -3.38579 0
M  V30 159 C 13.1089 -5.0342 -1.39161 0
M  V30 160 H 14.8029 -2.94738 -0.526281 0
M  V30 161 H 12.3489 -1.41783 -0.251704 0
M  V30 162 H 14.3019 -2.99669 -2.96271 0
M  V30 163 H 13.0259 -1.7737 -2.7424 0
M  V30 164 H 11.6849 -3.40217 -1.36557 0
M  V30 165 H 11.3329 -3.25232 -3.83709 0
M  V30 166 H 11.0329 -4.90312 -3.23834 0
M  V30 167 H 12.5569 -4.53086 -4.09323 0
M  V30 168 H 13.9709 -5.37812 -1.98573 0
M  V30 169 H 12.3679 -5.84746 -1.34878 0
M  V30 170 H 13.4379 -4.83548 -0.361868 0
M  V30 171 N 14.781 0.264519 -1.55364 0
M  V30 172 C 15.711 1.33121 -1.91836 0
M  V30 173 C 16.692 1.51101 -0.781192 0
M  V30 174 O 17.877 1.64003 -1.04003 0
M  V30 175 C 15.007 2.68921 -2.19769 0
M  V30 176 C 13.961 2.65661 -3.35571 0
M  V30 177 C 13.287 4.05093 -3.49004 0
M  V30 178 C 14.587 2.24187 -4.71739 0
M  V30 179 H 16.281 1.02844 -2.81182 0
M  V30 180 H 13.827 0.493286 -1.35287 0
M  V30 181 H 15.78 3.43663 -2.43872 0
M  V30 182 H 14.504 3.00799 -1.27231 0
M  V30 183 H 13.163 1.93377 -3.1145 0
M  V30 184 H 12.811 4.34206 -2.53917 0
M  V30 185 H 12.511 4.03804 -4.26868 0
M  V30 186 H 14.035 4.81561 -3.75408 0
M  V30 187 H 15.449 2.88654 -4.9533 0
M  V30 188 H 13.846 2.34044 -5.52579 0
M  V30 189 H 14.916 1.19327 -4.69988 0
M  V30 190 N 16.2591 1.48442 0.529413 0
M  V30 191 C 17.5071 1.56179 1.28267 0
M  V30 192 C 17.8281 0.237721 1.93546 0
M  V30 193 O 17.0981 -0.740779 1.81354 0
M  V30 194 H 15.6781 0.575367 0.476405 0
M  V30 195 H 18.3401 1.84909 0.61602 0
M  V30 196 H 17.4361 2.34312 2.06165 0
M  V30 197 N 17.7372 -0.778329 1.37039 0
M  V30 198 C 18.6672 -1.90546 1.34962 0
M  V30 199 C 19.6482 -1.68681 0.219274 0
M  V30 200 O 20.8332 -1.89634 0.418624 0
M  V30 201 C 17.9632 -3.27734 1.14925 0
M  V30 202 C 16.9172 -3.64147 2.24902 0
M  V30 203 C 16.2432 -4.99806 1.89996 0
M  V30 204 C 17.5432 -3.71579 3.67051 0
M  V30 205 H 19.2372 -1.92541 2.29277 0
M  V30 206 H 16.7832 -0.924948 1.10366 0
M  V30 207 H 18.7362 -4.06215 1.12104 0
M  V30 208 H 17.4602 -3.26154 0.170631 0
M  V30 209 H 16.1192 -2.8797 2.26868 0
M  V30 210 H 15.7672 -4.94759 0.906796 0
M  V30 211 H 15.4672 -5.25139 2.63634 0
M  V30 212 H 16.9912 -5.80694 1.88749 0
M  V30 213 H 18.4052 -4.40227 3.67251 0
M  V30 214 H 16.8022 -4.08405 4.39688 0
M  V30 215 H 17.8722 -2.72404 4.01154 0
M  V30 216 N 19.2153 -1.21501 -1.00376 0
M  V30 217 C 20.1453 -0.999478 -2.11028 0
M  V30 218 C 21.1263 0.0759671 -1.6993 0
M  V30 219 O 22.3113 -0.0841106 -1.94018 0
M  V30 220 C 19.4413 -0.564709 -3.42678 0
M  V30 221 C 18.3953 -1.58486 -3.97576 0
M  V30 222 C 17.7213 -1.00628 -5.25146 0
M  V30 223 C 19.0213 -2.97204 -4.29496 0
M  V30 224 H 20.7153 -1.92495 -2.29317 0
M  V30 225 H 18.2613 -0.92693 -1.102 0
M  V30 226 H 20.2143 -0.401091 -4.19487 0
M  V30 227 H 18.9383 0.396411 -3.24185 0
M  V30 228 H 17.5973 -1.73606 -3.22888 0
M  V30 229 H 17.2453 -0.0368439 -5.02987 0
M  V30 230 H 16.9453 -1.68771 -5.62841 0
M  V30 231 H 18.4693 -0.854015 -6.04598 0
M  V30 232 H 19.8833 -2.8552 -4.97143 0
M  V30 233 H 18.2803 -3.62372 -4.78338 0
M  V30 234 H 19.3503 -3.47956 -3.3772 0
M  V30 235 N 20.6934 1.19889 -1.02296 0
M  V30 236 C 22.1044 1.71124 -0.746568 0
M  V30 237 C 22.4554 1.81939 0.734335 0
M  V30 238 O 21.5804 1.48639 1.57275 0
M  V30 239 C 22.1754 3.10804 -1.34857 0
M  V30 240 C 20.7344 3.59323 -1.1209 0
M  V30 241 C 19.8814 2.3635 -1.45031 0
M  V30 242 H 22.8324 1.04813 -1.19163 0
M  V30 243 H 22.8534 3.73186 -0.742437 0
M  V30 244 H 22.3654 3.029 -2.42638 0
M  V30 245 H 20.4664 3.7255 -0.0610337 0
M  V30 246 H 20.5794 4.4378 -1.80544 0
M  V30 247 H 18.9434 2.39399 -0.869487 0
M  V30 248 H 19.7264 2.31081 -2.53883 0
M  V30 249 N 22.1715 0.800033 1.35784 0
M  V30 250 C 23.4195 0.376597 1.9856 0
M  V30 251 C 23.7405 -1.05812 1.63795 0
M  V30 252 O 23.0105 -1.73103 0.917171 0
M  V30 253 H 21.5905 0.136261 0.734467 0
M  V30 254 H 24.2525 1.02442 1.65806 0
M  V30 255 H 23.3485 0.477002 3.08433 0
M  V30 256 N 23.6496 -1.47581 0.552962 0
M  V30 257 C 24.6126 -2.28439 -0.186605 0
M  V30 258 C 25.6126 -1.36706 -0.84665 0
M  V30 259 O 26.8026 -1.59378 -0.703164 0
M  V30 260 C 23.9346 -3.16264 -1.2724 0
M  V30 261 H 25.1276 -2.95294 0.523609 0
M  V30 262 H 22.6806 -1.532 0.309745 0
M  V30 263 H 23.4156 -2.54091 -2.01514 0
M  V30 264 H 23.2006 -3.83769 -0.803968 0
M  V30 265 H 24.6906 -3.77198 -1.79196 0
M  V30 266 N 25.1277 -0.289203 -1.54924 0
M  V30 267 C 26.3737 0.323998 -2.00195 0
M  V30 268 C 26.7067 1.54441 -1.17735 0
M  V30 269 O 25.9817 1.92875 -0.250878 0
M  V30 270 C 26.2647 0.692276 -3.53383 0
M  V30 271 C 26.1177 -0.536457 -4.46589 0
M  V30 272 C 27.4367 1.52335 -4.12895 0
M  V30 273 H 24.5557 0.116289 -0.727768 0
M  V30 274 H 27.1977 -0.398954 -1.85764 0
M  V30 275 H 25.3477 1.30822 -3.65811 0
M  V30 276 H 27.0197 -1.17499 -4.46085 0
M  V30 277 H 25.2627 -1.17192 -4.1767 0
M  V30 278 H 25.9337 -0.234806 -5.515 0
M  V30 279 H 28.4097 1.00302 -4.0383 0
M  V30 280 H 27.2857 1.74982 -5.20262 0
M  V30 281 H 27.5467 2.50886 -3.64018 0
M  V30 282 N 26.6058 1.57591 -0.0167156 0
M  V30 283 C 27.5688 2.08393 0.954204 0
M  V30 284 C 28.5688 0.996531 1.26198 0
M  V30 285 O 29.7588 1.25858 1.20438 0
M  V30 286 C 26.8908 2.5394 2.27436 0
M  V30 287 H 28.0838 2.95455 0.514451 0
M  V30 288 H 25.6368 1.54582 0.231089 0
M  V30 289 H 26.3718 1.70171 2.76066 0
M  V30 290 H 26.1568 3.33371 2.06412 0
M  V30 291 H 27.6468 2.93512 2.97053 0
M  V30 292 N 28.0839 -0.256276 1.55502 0
M  V30 293 C 29.0469 -1.30047 1.88734 0
M  V30 294 C 30.0469 -1.4154 0.763086 0
M  V30 295 O 31.2369 -1.40403 1.03115 0
M  V30 296 C 28.3689 -2.67953 2.10747 0
M  V30 297 H 29.5619 -1.01802 2.82093 0
M  V30 298 H 27.1149 -0.495134 1.4825 0
M  V30 299 H 27.8499 -3.01351 1.19825 0
M  V30 300 H 27.6349 -2.60993 2.92617 0
M  V30 301 H 29.1249 -3.43368 2.37673 0
M  V30 302 N 29.562 -1.4872 -0.521534 0
M  V30 303 C 30.973 -1.50607 -1.10337 0
M  V30 304 C 31.324 -0.280612 -1.94183 0
M  V30 305 O 30.449 0.611507 -2.0758 0
M  V30 306 C 31.044 -2.72903 -2.00772 0
M  V30 307 C 29.603 -2.77634 -2.54158 0
M  V30 308 C 28.75 -2.44241 -1.31307 0
M  V30 309 H 31.701 -1.55714 -0.306388 0
M  V30 310 H 31.722 -2.519 -2.85178 0
M  V30 311 H 31.234 -3.62077 -1.39721 0
M  V30 312 H 29.335 -1.92689 -3.18907 0
M  V30 313 H 29.448 -3.79283 -2.92714 0
M  V30 314 H 27.812 -1.95577 -1.63161 0
M  V30 315 H 28.595 -3.35666 -0.719943 0
M  V30 316 N 31.0401 0.771051 -1.3745 0
M  V30 317 C 32.0031 1.86598 -1.33093 0
M  V30 318 C 33.0031 1.59076 -0.234845 0
M  V30 319 O 34.1931 1.67145 -0.490732 0
M  V30 320 C 31.3251 3.23747 -1.06773 0
M  V30 321 H 32.5181 1.91873 -2.30488 0
M  V30 322 H 30.0711 0.970876 -1.2249 0
M  V30 323 H 30.8061 3.24148 -0.099129 0
M  V30 324 H 30.5911 3.45115 -1.86112 0
M  V30 325 H 32.0811 4.03824 -1.06377 0
M  V30 326 N 32.5182 1.22032 0.997298 0
M  V30 327 C 33.4502 0.944263 2.08845 0
M  V30 328 C 34.4632 -0.0754663 1.62625 0
M  V30 329 O 35.6522 0.157994 1.77799 0
M  V30 330 C 32.7522 0.397723 3.36558 0
M  V30 331 C 31.9252 1.47362 4.11829 0
M  V30 332 C 30.9842 0.934951 5.17827 0
M  V30 333 O 30.0102 1.62016 5.45655 0
M  V30 334 N 31.2122 -0.245895 5.79979 0
M  V30 335 H 33.9772 1.88363 2.33109 0
M  V30 336 H 31.5382 1.12661 1.16272 0
M  V30 337 H 33.5302 0.0227771 4.04694 0
M  V30 338 H 32.1002 -0.446646 3.09393 0
M  V30 339 H 31.3202 2.02208 3.38386 0
M  V30 340 H 32.6082 2.19764 4.58891 0
M  V30 341 H 32.0062 -0.819475 5.59733 0
M  V30 342 H 30.5632 -0.562272 6.4937 0
M  V30 343 N 33.9963 -1.19345 1.0293 0
M  V30 344 C 35.4073 -1.70725 0.755633 0
M  V30 345 C 35.7583 -1.82326 -0.724676 0
M  V30 346 O 34.8833 -1.49471 -1.56484 0
M  V30 347 C 35.4783 -3.10084 1.36503 0
M  V30 348 C 34.0373 -3.58723 1.13994 0
M  V30 349 C 33.1843 -2.35577 1.46283 0
M  V30 350 H 36.1353 -1.0418 1.19718 0
M  V30 351 H 36.1563 -3.72787 0.762217 0
M  V30 352 H 35.6683 -3.01609 2.44241 0
M  V30 353 H 33.7693 -3.72512 0.0807901 0
M  V30 354 H 33.8823 -4.42816 1.82894 0
M  V30 355 H 32.2463 -2.38935 0.88217 0
M  V30 356 H 33.0293 -2.29731 2.55105 0
M  V30 357 N 35.4744 -0.807222 -1.35358 0
M  V30 358 C 36.8904 -0.491038 -1.51858 0
M  V30 359 C 37.0904 0.987648 -1.75635 0
M  V30 360 O 36.1464 1.77265 -1.79815 0
M  V30 361 C 37.4594 -1.33695 -2.69344 0
M  V30 362 C 39.0074 -1.33246 -2.83222 0
M  V30 363 C 39.4824 -2.1625 -4.03733 0
M  V30 364 N 40.9734 -2.1379 -4.10911 0
M  V30 365 C 41.7084 -2.74772 -5.03277 0
M  V30 366 N 41.2044 -3.44684 -6.0097 0
M  V30 367 N 42.9974 -2.6441 -4.96028 0
M  V30 368 H 35.1484 -1.76485 -1.18181 0
M  V30 369 H 37.4114 -0.751199 -0.578276 0
M  V30 370 H 37.1174 -2.38634 -2.58354 0
M  V30 371 H 36.9914 -0.990618 -3.6396 0
M  V30 372 H 39.3784 -0.290911 -2.93663 0
M  V30 373 H 39.4594 -1.71866 -1.89461 0
M  V30 374 H 39.1034 -3.20445 -3.94052 0
M  V30 375 H 39.0334 -1.74989 -4.96675 0
M  V30 376 H 41.5244 -1.62923 -3.40976 0
M  V30 377 H 41.8374 -3.88501 -6.68047 0
M  V30 378 H 40.1824 -3.48788 -6.01142 0
M  V30 379 H 43.3734 -2.0938 -4.18662 0
M  V30 380 H 43.5464 -3.12225 -5.6782 0
M  V30 381 N 36.9525 1.47285 -0.560781 0
M  V30 382 C 37.9155 2.28535 0.174488 0
M  V30 383 C 38.9155 1.37153 0.839388 0
M  V30 384 O 40.1055 1.59748 0.694702 0
M  V30 385 C 37.2375 3.16934 1.25561 0
M  V30 386 H 38.4305 2.95012 -0.539262 0
M  V30 387 H 35.9835 1.53034 -0.317865 0
M  V30 388 H 36.7185 2.55157 2.00164 0
M  V30 389 H 36.5035 3.8419 0.783604 0
M  V30 390 H 37.9935 3.78143 1.77193 0
M  V30 391 N 38.4306 0.297415 1.54768 0
M  V30 392 C 39.3936 -0.567375 2.22066 0
M  V30 393 C 40.3936 -1.06409 1.20556 0
M  V30 394 O 41.5836 -0.960691 1.45315 0
M  V30 395 C 38.7156 -1.78517 2.90421 0
M  V30 396 H 39.9086 0.0205534 2.99893 0
M  V30 397 H 37.4616 0.0482163 1.56226 0
M  V30 398 H 38.1966 -2.41303 2.16664 0
M  V30 399 H 37.9816 -1.43669 3.64831 0
M  V30 400 H 39.4716 -2.39964 3.41771 0
M  V30 401 N 39.9087 -1.5758 0.0250728 0
M  V30 402 C 41.1337 -1.96337 -0.668317 0
M  V30 403 C 41.5587 -0.901314 -1.651 0
M  V30 404 O 40.9167 0.138187 -1.80773 0
M  V30 405 C 40.9647 -3.34191 -1.35457 0
M  V30 406 O 40.0687 -3.30269 -2.46974 0
M  V30 407 H 39.4097 -0.640281 -0.175887 0
M  V30 408 H 41.9397 -2.0442 0.0857224 0
M  V30 409 H 41.9497 -3.70331 -1.71228 0
M  V30 410 H 40.6247 -4.11036 -0.634218 0
M  V30 411 H 39.2017 -3.05841 -2.13344 0
M  V30 412 N 41.3868 0.248026 -1.55636 0
M  V30 413 C 42.6338 0.976224 -1.77415 0
M  V30 414 C 42.9618 1.85361 -0.589193 0
M  V30 415 O 42.2168 1.90973 0.427529 0
M  V30 416 C 42.5158 1.86819 -3.04686 0
M  V30 417 C 42.1818 1.14625 -4.36087 0
M  V30 418 C 40.8438 0.946723 -4.71795 0
M  V30 419 C 43.1958 0.634463 -5.17324 0
M  V30 420 C 40.5238 0.223091 -5.86276 0
M  V30 421 C 42.8758 -0.0756959 -6.32555 0
M  V30 422 C 41.5398 -0.286711 -6.66884 0
M  V30 423 H 40.8098 0.357226 -0.649208 0
M  V30 424 H 43.4568 0.246415 -1.89908 0
M  V30 425 H 41.7618 2.66502 -2.872 0
M  V30 426 H 43.4588 2.43329 -3.18735 0
M  V30 427 H 40.0488 1.3117 -4.08035 0
M  V30 428 H 44.2328 0.77616 -4.90193 0
M  V30 429 H 39.4888 0.0491185 -6.1138 0
M  V30 430 H 43.6628 -0.479899 -6.94745 0
M  V30 431 H 41.2898 -0.849389 -7.5544 0
M  V30 432 N 42.8649 1.48995 0.513639 0
M  V30 433 C 43.7969 1.60836 1.63293 0
M  V30 434 C 44.8099 0.491701 1.55197 0
M  V30 435 O 45.9989 0.763238 1.6136 0
M  V30 436 C 43.0989 1.53731 3.02027 0
M  V30 437 C 42.2719 2.80715 3.35437 0
M  V30 438 C 41.3309 2.66837 4.53525 0
M  V30 439 O 40.3569 3.40753 4.55934 0
M  V30 440 N 41.5589 1.77539 5.52684 0
M  V30 441 H 44.3239 2.57366 1.53566 0
M  V30 442 H 41.8849 1.45925 0.701259 0
M  V30 443 H 43.8769 1.42118 3.78926 0
M  V30 444 H 42.4469 0.651092 3.05744 0
M  V30 445 H 41.6669 3.06772 2.47557 0
M  V30 446 H 42.9549 3.64927 3.54551 0
M  V30 447 H 42.3529 1.16719 5.53528 0
M  V30 448 H 40.9099 1.71856 6.28736 0
M  V30 449 N 44.343 -0.763751 1.37857 0
M  V30 450 C 45.306 -1.85889 1.34081 0
M  V30 451 C 46.306 -1.58949 0.243277 0
M  V30 452 O 47.496 -1.66882 0.499589 0
M  V30 453 C 44.628 -3.23176 1.08489 0
M  V30 454 H 45.821 -1.90648 2.31502 0
M  V30 455 H 43.374 -0.964367 1.23003 0
M  V30 456 H 44.109 -3.24091 0.116318 0
M  V30 457 H 43.894 -3.44124 1.8794 0
M  V30 458 H 45.384 -4.03254 1.08517 0
M  V30 459 N 45.8211 -1.22559 -0.990812 0
M  V30 460 C 47.0671 -1.06303 -1.73411 0
M  V30 461 C 47.4221 0.397442 -1.8825 0
M  V30 462 O 46.7151 1.29062 -1.41611 0
M  V30 463 C 46.9091 -1.71011 -3.13831 0
M  V30 464 C 46.7381 -3.232 -3.12685 0
M  V30 465 C 45.5081 -3.92314 -3.18461 0
M  V30 466 C 47.7061 -4.20107 -2.96673 0
M  V30 467 N 45.6881 -5.31571 -3.07091 0
M  V30 468 C 47.0591 -5.46208 -2.93354 0
M  V30 469 C 49.1141 -4.10973 -2.8108 0
M  V30 470 C 47.8171 -6.64225 -2.76039 0
M  V30 471 C 49.8431 -5.28642 -2.65126 0
M  V30 472 C 49.2051 -6.53663 -2.62496 0
M  V30 473 H 45.3041 -0.443441 -0.644115 0
M  V30 474 H 47.8881 -1.55131 -1.17654 0
M  V30 475 H 46.0591 -1.2473 -3.67827 0
M  V30 476 H 47.7911 -1.47828 -3.76735 0
M  V30 477 H 44.5461 -3.43326 -3.26227 0
M  V30 478 H 44.9701 -6.0455 -3.0471 0
M  V30 479 H 49.6121 -3.15098 -2.8191 0
M  V30 480 H 47.3301 -7.60246 -2.73954 0
M  V30 481 H 50.9161 -5.23407 -2.54039 0
M  V30 482 H 49.7961 -7.43182 -2.50302 0
M  V30 483 N 47.2992 1.18797 -1.03562 0
M  V30 484 C 48.5472 1.88278 -0.734569 0
M  V30 485 C 48.8682 1.8043 0.739586 0
M  V30 486 O 48.1382 1.21925 1.53333 0
M  V30 487 H 46.7182 0.696991 -0.268725 0
M  V30 488 H 49.3802 1.44192 -1.31129 0
M  V30 489 H 48.4762 2.94443 -1.03489 0
M  V30 490 N 48.7773 0.814389 1.34928 0
M  V30 491 C 50.1883 0.458364 1.80986 0
M  V30 492 C 50.5393 -1.02042 1.67577 0
M  V30 493 O 49.6643 -1.79352 1.21086 0
M  V30 494 C 50.2593 0.825212 3.28597 0
M  V30 495 C 48.8183 0.521677 3.72767 0
M  V30 496 C 47.9653 1.04668 2.56788 0
M  V30 497 H 50.9163 1.00533 1.22795 0
M  V30 498 H 50.9373 0.12571 3.80292 0
M  V30 499 H 50.4493 1.90154 3.38324 0
M  V30 500 H 48.5503 -0.545589 3.68584 0
M  V30 501 H 48.6633 1.05977 4.67232 0
M  V30 502 H 47.0273 0.468622 2.50352 0
M  V30 503 H 47.8103 2.12927 2.6929 0
M  V30 504 N 50.2554 -1.46986 0.568584 0
M  V30 505 C 51.6664 -1.86188 0.138219 0
M  V30 506 C 52.0174 -1.47388 -1.29504 0
M  V30 507 O 51.1424 -0.88219 -1.97602 0
M  V30 508 C 51.7374 -3.3792 0.244065 0
M  V30 509 C 50.2964 -3.76171 -0.131335 0
M  V30 510 C 49.4434 -2.71027 0.586465 0
M  V30 511 H 52.3944 -1.38342 0.777645 0
M  V30 512 H 52.4154 -3.76729 -0.534351 0
M  V30 513 H 51.9274 -3.66128 1.28731 0
M  V30 514 H 50.0284 -3.5358 -1.17526 0
M  V30 515 H 50.1414 -4.78523 0.235146 0
M  V30 516 H 48.5054 -2.54684 0.0282722 0
M  V30 517 H 49.2884 -3.02077 1.63109 0
M  V30 518 N 51.7335 -0.305618 -1.54608 0
M  V30 519 C 52.9585 0.307562 -2.05107 0
M  V30 520 C 53.3835 1.46385 -1.18123 0
M  V30 521 O 52.7415 1.8034 -0.186324 0
M  V30 522 C 52.7895 0.73704 -3.52987 0
M  V30 523 O 51.8935 1.84134 -3.6901 0
M  V30 524 H 51.2345 0.0589143 -0.661381 0
M  V30 525 H 53.7645 -0.448807 -1.99617 0
M  V30 526 H 53.7745 1.02459 -3.94925 0
M  V30 527 H 52.4495 -0.108773 -4.15758 0
M  V30 528 H 51.0265 1.55398 -3.38978 0
M  V30 529 N 53.2116 1.57565 -0.0334293 0
M  V30 530 C 54.6226 1.79746 0.504798 0
M  V30 531 C 54.9736 0.944091 1.71992 0
M  V30 532 O 54.0986 0.155694 2.15839 0
M  V30 533 C 54.6936 3.25997 0.922567 0
M  V30 534 C 53.2526 3.49159 1.40588 0
M  V30 535 C 52.3996 2.74785 0.372633 0
M  V30 536 H 55.3506 1.56565 -0.259436 0
M  V30 537 H 55.3716 3.35945 1.78666 0
M  V30 538 H 54.8836 3.88081 0.0379825 0
M  V30 539 H 52.9846 2.92332 2.31025 0
M  V30 540 H 53.0976 4.57873 1.41028 0
M  V30 541 H 51.4616 2.40391 0.841672 0
M  V30 542 H 52.2446 3.39587 -0.503559 0
M  V30 543 N 54.6897 -0.239769 1.55765 0
M  V30 544 C 55.5997 -1.31831 1.94056 0
M  V30 545 C 56.6157 -1.52275 0.841925 0
M  V30 546 O 57.7917 -1.65759 1.14394 0
M  V30 547 C 54.8567 -2.65156 2.23368 0
M  V30 548 C 53.9177 -2.53173 3.46701 0
M  V30 549 C 53.1507 -3.8014 3.74606 0
M  V30 550 O 53.3737 -4.82343 3.04469 0
M  V30 551 O 52.3077 -3.78344 4.68123 0
M  V30 552 H 56.1337 -1.02347 2.85935 0
M  V30 553 H 53.7187 -0.441123 1.42739 0
M  V30 554 H 55.6007 -3.43929 2.43497 0
M  V30 555 H 54.2757 -2.94358 1.34666 0
M  V30 556 H 53.1827 -1.72662 3.31871 0
M  V30 557 H 54.5157 -2.28915 4.35728 0
M  V30 558 N 56.1678 -1.49265 -0.50573 0
M  V30 559 C 57.0978 -1.68495 -1.61653 0
M  V30 560 C 58.0788 -0.53366 -1.61512 0
M  V30 561 O 59.2638 -0.76897 -1.78327 0
M  V30 562 C 56.3938 -1.74709 -3.00157 0
M  V30 563 C 55.3478 -2.89581 -3.15162 0
M  V30 564 C 54.6738 -2.80903 -4.5497 0
M  V30 565 C 55.9738 -4.30578 -2.95634 0
M  V30 566 H 57.6678 -2.61493 -1.45814 0
M  V30 567 H 55.2138 -1.25838 -0.70005 0
M  V30 568 H 57.1668 -1.86748 -3.77761 0
M  V30 569 H 55.8908 -0.783067 -3.17074 0
M  V30 570 H 54.5498 -2.77136 -2.39982 0
M  V30 571 H 54.1978 -1.82419 -4.68756 0
M  V30 572 H 53.8978 -3.57999 -4.65951 0
M  V30 573 H 55.4218 -2.94944 -5.34641 0
M  V30 574 H 56.8358 -4.4373 -3.63011 0
M  V30 575 H 55.2328 -5.0886 -3.18091 0
M  V30 576 H 56.3028 -4.45352 -1.91806 0
M  V30 577 N 57.6459 0.756429 -1.3826 0
M  V30 578 C 58.5759 1.88374 -1.37976 0
M  V30 579 C 59.5569 1.68311 -0.246082 0
M  V30 580 O 60.7419 1.88944 -0.44874 0
M  V30 581 C 57.8719 3.25864 -1.20125 0
M  V30 582 C 56.8259 3.60523 -2.30666 0
M  V30 583 C 56.1519 4.9672 -1.97923 0
M  V30 584 C 57.4519 3.65692 -3.72916 0
M  V30 585 H 59.1459 1.88869 -2.32312 0
M  V30 586 H 56.6919 0.907272 -1.11824 0
M  V30 587 H 58.6449 4.0438 -1.18552 0
M  V30 588 H 57.3689 3.25841 -0.222498 0
M  V30 589 H 56.0279 2.84324 -2.3142 0
M  V30 590 H 55.6759 4.93253 -0.985393 0
M  V30 591 H 55.3759 5.20878 -2.71955 0
M  V30 592 H 56.8999 5.77618 -1.97964 0
M  V30 593 H 58.3139 4.34328 -3.74208 0
M  V30 594 H 56.7109 4.01358 -4.4613 0
M  V30 595 H 57.7809 2.65987 -4.05436 0
M  V30 596 N 59.124 1.23083 0.984299 0
M  V30 597 C 60.087 1.00979 2.05757 0
M  V30 598 C 61.087 -0.0269573 1.60777 0
M  V30 599 O 62.277 0.212403 1.729 0
M  V30 600 C 59.409 0.527072 3.36801 0
M  V30 601 H 60.602 1.9622 2.26799 0
M  V30 602 H 58.155 1.05072 1.15714 0
M  V30 603 H 58.89 -0.429294 3.21446 0
M  V30 604 H 58.675 1.27515 3.70786 0
M  V30 605 H 60.165 0.392942 4.15747 0
M  V30 606 N 60.6021 -1.18246 1.0419 0
M  V30 607 C 62.0131 -1.69914 0.773698 0
M  V30 608 C 62.3641 -1.83085 -0.705297 0
M  V30 609 O 61.4891 -1.51123 -1.5489 0
M  V30 610 C 62.0841 -3.08619 1.39784 0
M  V30 611 C 60.6431 -3.57494 1.17792 0
M  V30 612 C 59.7901 -2.34013 1.48773 0
M  V30 613 H 62.7411 -1.02904 1.20816 0
M  V30 614 H 62.7621 -3.71958 0.801714 0
M  V30 615 H 62.2741 -2.99001 2.47426 0
M  V30 616 H 60.3751 -3.72406 0.120295 0
M  V30 617 H 60.4881 -4.40852 1.87581 0
M  V30 618 H 58.8521 -2.37986 0.907463 0
M  V30 619 H 59.6351 -2.27013 2.57527 0
M  V30 620 N 62.0802 -0.821533 -1.34494 0
M  V30 621 C 63.3082 -0.421884 -2.02553 0
M  V30 622 C 63.7232 0.971745 -1.61872 0
M  V30 623 O 63.0802 1.62864 -0.823496 0
M  V30 624 C 63.1312 -0.51285 -3.57844 0
M  V30 625 O 62.8522 -1.85155 -3.97051 0
M  V30 626 C 64.3532 -0.107921 -4.43169 0
M  V30 627 H 61.5732 -0.169482 -0.649243 0
M  V30 628 H 64.1172 -1.1093 -1.71798 0
M  V30 629 H 62.2722 0.126474 -3.87193 0
M  V30 630 H 62.6862 -1.82482 -4.91732 0
M  V30 631 H 64.1602 -0.222657 -5.51551 0
M  V30 632 H 64.6372 0.948401 -4.28838 0
M  V30 633 H 65.2432 -0.720989 -4.19144 0
M  V30 634 N 63.5583 1.46682 -0.576371 0
M  V30 635 C 64.9743 1.57822 -0.237562 0
M  V30 636 C 65.1743 1.57237 1.26011 0
M  V30 637 O 64.2303 1.48596 2.04146 0
M  V30 638 C 65.5433 2.87499 -0.881168 0
M  V30 639 C 67.0913 3.01119 -0.85417 0
M  V30 640 C 67.5663 4.33524 -1.4772 0
M  V30 641 N 69.0573 4.40207 -1.44125 0
M  V30 642 C 69.7923 5.4126 -1.89276 0
M  V30 643 N 69.2883 6.49021 -2.42371 0
M  V30 644 N 71.0813 5.32422 -1.80231 0
M  V30 645 H 63.2323 1.45306 -1.54919 0
M  V30 646 H 65.4953 0.692733 -0.647167 0
M  V30 647 H 65.2013 2.9372 -1.93447 0
M  V30 648 H 65.0753 3.75224 -0.385592 0
M  V30 649 H 67.4623 2.94485 0.190491 0
M  V30 650 H 67.5433 2.14887 -1.3877 0
M  V30 651 H 67.1873 4.40916 -2.52103 0
M  V30 652 H 67.1173 5.1852 -0.918947 0
M  V30 653 H 69.6083 3.62931 -1.05307 0
M  V30 654 H 69.9213 7.2233 -2.74698 0
M  V30 655 H 68.2663 6.49858 -2.46393 0
M  V30 656 H 71.4573 4.47137 -1.38514 0
M  V30 657 H 71.6303 6.11034 -2.15735 0
M  V30 658 N 65.0364 0.313813 1.54444 0
M  V30 659 C 66.2834 -0.291675 2.00388 0
M  V30 660 C 66.6114 -1.52904 1.2021 0
M  V30 661 O 65.8664 -1.93833 0.269707 0
M  V30 662 C 66.1654 -0.680386 3.50864 0
M  V30 663 C 65.8314 0.456699 4.48581 0
M  V30 664 C 64.4934 0.768824 4.75018 0
M  V30 665 C 66.8454 1.22098 5.06697 0
M  V30 666 C 64.1734 1.84812 5.56831 0
M  V30 667 C 66.5254 2.29029 5.89685 0
M  V30 668 C 65.1894 2.60834 6.14428 0
M  V30 669 H 64.4594 -0.106732 0.733273 0
M  V30 670 H 67.1064 0.43557 1.86481 0
M  V30 671 H 65.4114 -1.48791 3.62448 0
M  V30 672 H 67.1084 -1.16026 3.83847 0
M  V30 673 H 63.6984 0.203337 4.28117 0
M  V30 674 H 67.8824 0.993096 4.86263 0
M  V30 675 H 63.1384 2.09912 5.74236 0
M  V30 676 H 67.3124 2.887 6.33739 0
M  V30 677 H 64.9394 3.44596 6.77612 0
M  V30 678 N 66.5145 -1.57545 0.0417849 0
M  V30 679 C 67.4775 -2.09885 -0.92093 0
M  V30 680 C 68.4775 -1.01648 -1.24596 0
M  V30 681 O 69.6675 -1.27759 -1.1842 0
M  V30 682 C 66.7995 -2.57527 -2.23367 0
M  V30 683 H 67.9925 -2.96236 -0.467382 0
M  V30 684 H 65.5455 -1.5493 -0.206467 0
M  V30 685 H 66.2805 -1.74542 -2.73323 0
M  V30 686 H 66.0655 -3.36613 -2.01083 0
M  V30 687 H 67.5555 -2.98201 -2.92346 0
M  V30 688 N 67.9926 0.231505 -1.5589 0
M  V30 689 C 68.9226 1.29022 -1.94617 0
M  V30 690 C 69.9036 1.4941 -0.813067 0
M  V30 691 O 71.0886 1.6176 -1.07459 0
M  V30 692 C 68.2186 2.64199 -2.25424 0
M  V30 693 C 67.1726 2.58484 -3.41131 0
M  V30 694 C 66.4986 3.97599 -3.57518 0
M  V30 695 C 67.7986 2.1413 -4.76388 0
M  V30 696 H 69.4926 0.968563 -2.83301 0
M  V30 697 H 67.0386 0.464479 -1.36303 0
M  V30 698 H 68.9916 3.38413 -2.51107 0
M  V30 699 H 67.7156 2.98032 -1.33583 0
M  V30 700 H 66.3746 1.86727 -3.15481 0
M  V30 701 H 66.0226 4.28723 -2.6307 0
M  V30 702 H 65.7226 3.94659 -4.35337 0
M  V30 703 H 67.2466 4.7349 -3.85538 0
M  V30 704 H 68.6606 2.78083 -5.01341 0
M  V30 705 H 67.0576 2.2227 -5.57419 0
M  V30 706 H 68.1276 1.09331 -4.72414 0
M  V30 707 N 69.4707 1.49531 0.497807 0
M  V30 708 C 70.3807 1.69176 1.62532 0
M  V30 709 C 71.3967 0.5744 1.64246 0
M  V30 710 O 72.5727 0.849497 1.82608 0
M  V30 711 C 69.6377 1.75695 2.98885 0
M  V30 712 C 68.6987 2.9929 3.07773 0
M  V30 713 C 67.9317 3.05488 4.37622 0
M  V30 714 O 68.1547 2.19192 5.26603 0
M  V30 715 O 67.0887 3.9798 4.51548 0
M  V30 716 H 70.9147 2.647 1.48887 0
M  V30 717 H 68.4997 1.3331 0.674441 0
M  V30 718 H 70.3817 1.82317 3.79919 0
M  V30 719 H 69.0567 0.8335 3.12785 0
M  V30 720 H 67.9637 2.98183 2.25915 0
M  V30 721 H 69.2967 3.91125 2.98801 0
M  V30 722 N 70.9488 -0.749086 1.3866 0
M  V30 723 C 71.8818 -1.87111 1.30631 0
M  V30 724 C 72.8598 -1.61572 0.18251 0
M  V30 725 O 74.0438 -1.85019 0.360592 0
M  V30 726 C 71.1708 -3.22815 1.02511 0
M  V30 727 C 70.2168 -3.67234 2.1689 0
M  V30 728 S 71.0498 -3.78245 3.79066 0
M  V30 729 C 72.2058 -5.16761 3.53142 0
M  V30 730 H 72.4388 -1.93636 2.25594 0
M  V30 731 H 69.9718 -0.912525 1.24549 0
M  V30 732 H 71.9298 -4.01181 0.869701 0
M  V30 733 H 70.5908 -3.13964 0.0925884 0
M  V30 734 H 69.7838 -4.65677 1.92771 0
M  V30 735 H 69.3858 -2.96034 2.28561 0
M  V30 736 H 71.6778 -6.02656 3.09534 0
M  V30 737 H 72.6208 -5.45902 4.50995 0
M  V30 738 H 73.0288 -4.85771 2.87554 0
M  V30 739 N 72.4269 -1.23603 -0.977757 0
M  V30 740 C 73.6739 -1.06971 -1.71941 0
M  V30 741 C 74.0019 0.393009 -1.90488 0
M  V30 742 O 73.2569 1.30719 -1.4564 0
M  V30 743 C 73.5559 -1.7433 -3.11999 0
M  V30 744 C 73.2219 -3.24252 -3.13323 0
M  V30 745 C 71.8839 -3.65156 -3.13392 0
M  V30 746 C 74.2359 -4.20141 -3.08433 0
M  V30 747 C 71.5639 -5.00403 -3.0629 0
M  V30 748 C 73.9159 -5.55384 -3.02873 0
M  V30 749 C 72.5799 -5.95647 -3.01265 0
M  V30 750 H 71.8499 -0.391433 -0.629175 0
M  V30 751 H 74.4969 -1.53572 -1.14403 0
M  V30 752 H 72.8019 -1.20096 -3.7294 0
M  V30 753 H 74.4989 -1.58936 -3.68158 0
M  V30 754 H 71.0889 -2.91692 -3.14029 0
M  V30 755 H 75.2729 -3.89547 -3.07517 0
M  V30 756 H 70.5289 -5.3081 -3.03399 0
M  V30 757 H 74.7029 -6.29398 -2.98046 0
M  V30 758 H 72.3299 -7.0041 -2.95516 0
M  V30 759 N 73.905 1.17692 -1.04816 0
M  V30 760 C 74.853 2.23632 -0.63966 0
M  V30 761 C 75.847 1.6601 0.337219 0
M  V30 762 O 77.053 1.78844 0.203693 0
M  V30 763 H 73.428 0.727949 -0.188665 0
M  V30 764 H 75.399 2.55387 -1.54337 0
M  V30 765 C 74.148 3.4769 -0.0264051 0
M  V30 766 H 73.471 3.92331 -0.769164 0
M  V30 767 H 74.911 4.23418 0.222098 0
M  V30 768 C 73.37 3.13807 1.22584 0
M  V30 769 O 73.9 3.28236 2.31569 0
M  V30 770 N 72.106 2.68065 1.12202 0
M  V30 771 H 71.653 2.56525 0.235133 0
M  V30 772 H 71.611 2.45767 1.96076 0
M  V30 773 N 75.3831 0.828654 1.34056 0
M  V30 774 C 76.7991 0.515135 1.51058 0
M  V30 775 C 76.9991 -0.959581 1.77184 0
M  V30 776 O 76.0551 -1.74382 1.82612 0
M  V30 777 C 77.3681 1.37963 2.67183 0
M  V30 778 C 78.9161 1.37735 2.81066 0
M  V30 779 C 79.3911 2.22645 4.00241 0
M  V30 780 N 80.8821 2.203 4.07458 0
M  V30 781 C 81.6171 2.82744 4.98842 0
M  V30 782 N 81.1131 3.54201 5.9541 0
M  V30 783 N 82.9061 2.72268 4.91759 0
M  V30 784 H 75.0571 1.78343 1.15358 0
M  V30 785 H 77.3201 0.760304 0.566252 0
M  V30 786 H 77.0261 2.42714 2.54525 0
M  V30 787 H 76.9001 1.0484 3.62338 0
M  V30 788 H 79.2871 0.337593 2.93163 0
M  V30 789 H 79.3681 1.74859 1.86703 0
M  V30 790 H 79.0121 3.26674 3.88905 0
M  V30 791 H 78.9421 1.82869 4.93829 0
M  V30 792 H 81.4331 1.68327 3.38341 0
M  V30 793 H 81.7461 3.9908 6.61782 0
M  V30 794 H 80.0911 3.58308 5.95517 0
M  V30 795 H 83.2821 2.16014 4.15278 0
M  V30 796 H 83.4551 3.21219 5.62781 0
M  V30 797 N 76.8612 -1.46375 0.584142 0
M  V30 798 C 78.1092 -2.01978 0.0701287 0
M  V30 799 C 78.4302 -1.4579 -1.295 0
M  V30 800 O 77.7002 -0.64314 -1.85042 0
M  V30 801 H 76.2802 -0.746648 0.0229345 0
M  V30 802 H 78.9422 -1.79461 0.760245 0
M  V30 803 H 78.0382 -3.121 0.0022064 0
M  V30 804 N 78.3393 -0.321999 -1.54275 0
M  V30 805 C 79.7553 0.0306999 -1.5957 0
M  V30 806 C 79.9553 1.50614 -1.33857 0
M  V30 807 O 79.0113 2.2619 -1.12223 0
M  V30 808 C 80.3243 -0.386122 -2.98211 0
M  V30 809 C 81.8723 -0.336647 -3.11184 0
M  V30 810 C 82.3473 -0.728607 -4.52167 0
M  V30 811 N 83.8383 -0.681952 -4.58152 0
M  V30 812 C 84.5733 -0.957449 -5.6535 0
M  V30 813 N 84.0693 -1.3 -6.80494 0
M  V30 814 N 85.8623 -0.883113 -5.55119 0
M  V30 815 H 78.0133 -1.28332 -1.69247 0
M  V30 816 H 80.2763 -0.521716 -0.791528 0
M  V30 817 H 79.9823 -1.41404 -3.22022 0
M  V30 818 H 79.8563 0.249662 -3.76373 0
M  V30 819 H 82.2433 0.682058 -2.8711 0
M  V30 820 H 82.3243 -1.00734 -2.3513 0
M  V30 821 H 81.9683 -1.74522 -4.76974 0
M  V30 822 H 81.8983 -0.0356152 -5.26588 0
M  V30 823 H 84.3893 -0.428985 -3.75457 0
M  V30 824 H 84.7023 -1.49563 -7.58189 0
M  V30 825 H 83.0473 -1.33824 -6.81994 0
M  V30 826 H 86.2383 -0.615001 -4.64042 0
M  V30 827 H 86.4113 -1.10118 -6.38575 0
M  V30 828 N 79.8174 1.5752 -0.0501392 0
M  V30 829 C 80.7804 2.1037 0.909786 0
M  V30 830 C 81.7804 1.02308 1.24056 0
M  V30 831 O 82.9704 1.28385 1.17741 0
M  V30 832 C 80.1024 2.58708 2.21998 0
M  V30 833 H 81.2954 2.96479 0.451665 0
M  V30 834 H 78.8484 1.55038 0.198248 0
M  V30 835 H 79.5834 1.75989 2.72394 0
M  V30 836 H 79.3684 3.37675 1.99295 0
M  V30 837 H 80.8584 2.99747 2.9076 0
M  V30 838 N 81.2955 -0.223234 1.56011 0
M  V30 839 C 82.2585 -1.26014 1.9145 0
M  V30 840 C 83.2585 -1.3989 0.792937 0
M  V30 841 O 84.4485 -1.38184 1.0607 0
M  V30 842 C 81.5805 -2.63422 2.16383 0
M  V30 843 H 82.7735 -0.95796 2.84189 0
M  V30 844 H 80.3265 -0.463576 1.49267 0
M  V30 845 H 81.0615 -2.98741 1.2619 0
M  V30 846 H 80.8465 -2.54728 2.98088 0
M  V30 847 H 82.3365 -3.38249 2.44903 0
M  V30 848 N 82.7736 -1.49793 -0.48987 0
M  V30 849 C 84.0216 -1.59525 -1.24081 0
M  V30 850 C 84.3426 -0.288953 -1.92847 0
M  V30 851 O 83.6126 0.692436 -1.83254 0
M  V30 852 H 82.1926 -0.587796 -0.460983 0
M  V30 853 H 84.8546 -1.86477 -0.566778 0
M  V30 854 H 83.9506 -2.39696 -1.99881 0
M  V30 855 N 84.2517 0.741722 -1.39055 0
M  V30 856 C 85.4797 1.53098 -1.39171 0
M  V30 857 C 85.8947 1.88794 0.0155099 0
M  V30 858 O 85.2517 1.53626 0.985159 0
M  V30 859 C 85.3027 2.82274 -2.2584 0
M  V30 860 O 85.0237 2.48097 -3.61081 0
M  V30 861 C 86.5247 3.76343 -2.34266 0
M  V30 862 H 83.7447 0.473335 -0.4756 0
M  V30 863 H 86.2887 0.917045 -1.82785 0
M  V30 864 H 84.4437 3.40015 -1.85656 0
M  V30 865 H 84.8577 3.31029 -4.06842 0
M  V30 866 H 86.3317 4.63898 -2.9917 0
M  V30 867 H 86.8087 4.17619 -1.35982 0
M  V30 868 H 87.4147 3.24523 -2.74891 0
M  V30 869 N 85.7298 1.2412 0.971189 0
M  V30 870 C 87.1458 1.00584 1.23916 0
M  V30 871 C 87.3458 -0.287481 1.99439 0
M  V30 872 O 86.4018 -1.00454 2.31658 0
M  V30 873 C 87.7148 2.21864 2.0297 0
M  V30 874 C 89.2628 2.26452 2.16076 0
M  V30 875 C 89.7378 3.47343 2.98524 0
M  V30 876 N 91.2288 3.47639 3.06107 0
M  V30 877 C 91.9638 4.37837 3.70251 0
M  V30 878 N 91.4598 5.38286 4.36142 0
M  V30 879 N 93.2528 4.25558 3.67228 0
M  V30 880 H 85.4038 2.07236 0.465499 0
M  V30 881 H 87.6668 0.909236 0.268315 0
M  V30 882 H 87.3728 3.15771 1.54861 0
M  V30 883 H 87.2468 2.23698 3.03709 0
M  V30 884 H 89.6338 1.33078 2.6339 0
M  V30 885 H 89.7148 2.28645 1.14696 0
M  V30 886 H 89.3588 4.41029 2.51905 0
M  V30 887 H 89.2888 3.42393 4.00093 0
M  V30 888 H 91.7798 2.74966 2.59233 0
M  V30 889 H 92.0928 6.03352 4.82894 0
M  V30 890 H 90.4378 5.42176 4.34822 0
M  V30 891 H 93.6288 3.46322 3.14927 0
M  V30 892 H 93.8018 4.96054 4.16935 0
M  V30 893 N 87.2079 -1.17134 1.05439 0
M  V30 894 C 88.1709 -2.19439 0.661764 0
M  V30 895 C 89.1709 -1.58199 -0.288042 0
M  V30 896 O 90.3609 -1.74053 -0.0715803 0
M  V30 897 C 87.4929 -3.40889 -0.0276209 0
M  V30 898 H 88.6859 -2.55688 1.56728 0
M  V30 899 H 86.2389 -1.31259 0.848567 0
M  V30 900 H 86.9739 -3.10187 -0.94629 0
M  V30 901 H 86.7589 -3.86586 0.655238 0
M  V30 902 H 88.2489 -4.16603 -0.288342 0
M  V30 903 N 88.686 -0.835752 -1.33615 0
M  V30 904 C 89.932 -0.430596 -1.98176 0
M  V30 905 C 90.265 1.00684 -1.66061 0
M  V30 906 O 89.54 1.70339 -0.938877 0
M  V30 907 C 89.823 -0.648065 -3.5422 0
M  V30 908 C 89.676 -2.13255 -3.96033 0
M  V30 909 C 90.995 -0.0922113 -4.40003 0
M  V30 910 H 88.114 -0.157924 -0.719881 0
M  V30 911 H 90.756 -1.05069 -1.58305 0
M  V30 912 H 88.906 -0.120237 -3.88314 0
M  V30 913 H 90.578 -2.725 -3.72211 0
M  V30 914 H 88.821 -2.61823 -3.45878 0
M  V30 915 H 89.492 -2.23547 -5.04708 0
M  V30 916 H 91.968 -0.543343 -4.12537 0
M  V30 917 H 90.844 -0.274083 -5.48215 0
M  V30 918 H 91.105 1.00378 -4.30554 0
M  V30 919 N 90.1641 1.46063 -0.591896 0
M  V30 920 C 91.0941 2.33172 0.123673 0
M  V30 921 C 92.0751 1.45897 0.87453 0
M  V30 922 O 93.2601 1.74698 0.848181 0
M  V30 923 C 90.3901 3.28336 1.13194 0
M  V30 924 C 89.3441 4.25124 0.495324 0
M  V30 925 C 88.6701 5.09863 1.61071 0
M  V30 926 C 89.9701 5.19143 -0.573425 0
M  V30 927 H 91.6641 2.93252 -0.603646 0
M  V30 928 H 89.2101 1.41014 -0.291741 0
M  V30 929 H 91.1631 3.88137 1.64097 0
M  V30 930 H 89.8871 2.66383 1.88965 0
M  V30 931 H 88.5461 3.66599 0.00729452 0
M  V30 932 H 88.1941 4.44288 2.35832 0
M  V30 933 H 87.8941 5.75417 1.19035 0
M  V30 934 H 89.4181 5.72529 2.12233 0
M  V30 935 H 90.8321 5.73106 -0.1491 0
M  V30 936 H 89.2291 5.93089 -0.914636 0
M  V30 937 H 90.2991 4.62519 -1.45617 0
M  V30 938 N 91.6422 0.330177 1.54103 0
M  V30 939 C 92.8902 -0.269871 2.0029 0
M  V30 940 C 93.2112 -1.52133 1.21986 0
M  V30 941 O 92.4812 -1.93212 0.323438 0
M  V30 942 H 91.0612 -0.10271 0.739905 0
M  V30 943 H 93.7232 0.448249 1.89675 0
M  V30 944 H 92.8192 -0.52166 3.07709 0
M  V30 945 N 93.1203 -1.57491 0.0584922 0
M  V30 946 C 94.0503 -2.14988 -0.911178 0
M  V30 947 C 95.0313 -1.07343 -1.31952 0
M  V30 948 O 96.2163 -1.35318 -1.39294 0
M  V30 949 C 93.3463 -2.70078 -2.18347 0
M  V30 950 C 92.3003 -3.82771 -1.91495 0
M  V30 951 C 91.6263 -4.24408 -3.25241 0
M  V30 952 C 92.9263 -5.07592 -1.23075 0
M  V30 953 H 94.6203 -2.96263 -0.432246 0
M  V30 954 H 92.1663 -1.42512 -0.206469 0
M  V30 955 H 94.1193 -3.08943 -2.86587 0
M  V30 956 H 92.8433 -1.86005 -2.68458 0
M  V30 957 H 91.5023 -3.44389 -1.25664 0
M  V30 958 H 91.1503 -3.37275 -3.73168 0
M  V30 959 H 90.8503 -5.00366 -3.08071 0
M  V30 960 H 92.3743 -4.65879 -3.94701 0
M  V30 961 H 93.7883 -5.43857 -1.81362 0
M  V30 962 H 92.1853 -5.88741 -1.16207 0
M  V30 963 H 93.2553 -4.84454 -0.207847 0
M  V30 964 N 94.5984 0.214957 -1.56127 0
M  V30 965 C 95.8444 0.939762 -1.79712 0
M  V30 966 C 96.1774 1.83723 -0.629247 0
M  V30 967 O 95.4524 1.90925 0.371197 0
M  V30 968 C 95.7354 1.77306 -3.13424 0
M  V30 969 C 95.5884 0.90164 -4.40671 0
M  V30 970 C 96.9074 2.74956 -3.43638 0
M  V30 971 H 94.0264 0.340214 -0.653776 0
M  V30 972 H 96.6684 0.20824 -1.88855 0
M  V30 973 H 94.8184 2.39673 -3.0576 0
M  V30 974 H 96.4904 0.294206 -4.60361 0
M  V30 975 H 94.7334 0.207368 -4.33304 0
M  V30 976 H 95.4044 1.51923 -5.30682 0
M  V30 977 H 97.8804 2.22724 -3.51473 0
M  V30 978 H 96.7564 3.30358 -4.38355 0
M  V30 979 H 97.0174 3.53023 -2.66134 0
M  V30 980 N 96.0765 1.50051 0.48192 0
M  V30 981 C 97.4925 1.37237 0.814756 0
M  V30 982 C 97.6925 0.420109 1.97072 0
M  V30 983 O 96.7485 -0.141246 2.52105 0
M  V30 984 C 98.0615 2.78375 1.13701 0
M  V30 985 C 99.6095 2.87213 1.2441 0
M  V30 986 C 100.084 4.29161 1.59954 0
M  V30 987 N 101.575 4.32061 1.66967 0
M  V30 988 C 102.31 5.38879 1.95952 0
M  V30 989 N 101.806 6.55918 2.23031 0
M  V30 990 N 103.599 5.26312 1.97363 0
M  V30 991 H 95.7505 2.10546 -0.28005 0
M  V30 992 H 98.0135 0.945921 -0.0627454 0
M  V30 993 H 97.7195 3.49845 0.360787 0
M  V30 994 H 97.5935 3.14941 2.07586 0
M  V30 995 H 99.9805 2.15969 2.01101 0
M  V30 996 H 100.061 2.54204 0.285299 0
M  V30 997 H 99.7055 5.00938 0.838067 0
M  V30 998 H 99.6355 4.59648 2.56966 0
M  V30 999 H 102.126 3.47661 1.48123 0
M  V30 1000 H 102.439 7.33139 2.44391 0
M  V30 1001 H 100.784 6.59112 2.20447 0
M  V30 1002 H 103.975 4.33876 1.75697 0
M  V30 1003 H 104.148 6.09649 2.19618 0
M  V30 1004 N 97.5546 -0.734337 1.39446 0
M  V30 1005 C 98.8026 -1.49096 1.36436 0
M  V30 1006 C 99.1236 -1.94961 -0.0388255 0
M  V30 1007 O 98.3936 -1.69033 -0.990191 0
M  V30 1008 H 96.9736 -0.5531 0.502085 0
M  V30 1009 H 99.6356 -0.871725 1.74319 0
M  V30 1010 H 98.7316 -2.37276 2.02747 0
M  V30 1011 N 99.0327 -1.24633 -0.964593 0
M  V30 1012 C 100.449 -1.01239 -1.2338 0
M  V30 1013 C 100.649 0.2769 -1.99588 0
M  V30 1014 O 99.7047 0.992241 -2.32187 0
M  V30 1015 C 101.018 -2.22937 -2.01791 0
M  V30 1016 C 102.566 -2.27594 -2.14872 0
M  V30 1017 C 103.041 -3.48921 -2.96678 0
M  V30 1018 N 104.532 -3.49257 -3.04259 0
M  V30 1019 C 105.267 -4.39795 -3.67924 0
M  V30 1020 N 104.763 -5.40591 -4.33281 0
M  V30 1021 N 106.556 -4.275 -3.64966 0
M  V30 1022 H 98.7067 -2.0748 -0.454502 0
M  V30 1023 H 100.97 -0.910647 -0.26349 0
M  V30 1024 H 100.676 -3.16587 -1.53184 0
M  V30 1025 H 100.55 -2.25306 -3.02518 0
M  V30 1026 H 102.937 -1.34473 -2.6268 0
M  V30 1027 H 103.018 -2.2925 -1.13482 0
M  V30 1028 H 102.662 -4.42359 -2.49562 0
M  V30 1029 H 102.592 -3.4451 -3.98272 0
M  V30 1030 H 105.083 -2.76337 -2.57771 0
M  V30 1031 H 105.396 -6.05904 -4.79687 0
M  V30 1032 H 103.741 -5.44475 -4.3194 0
M  V30 1033 H 106.932 -3.47987 -3.13086 0
M  V30 1034 H 107.105 -4.98258 -4.14298 0
M  V30 1035 N 100.511 1.16574 -1.06058 0
M  V30 1036 C 101.757 1.87324 -0.777022 0
M  V30 1037 C 102.09 1.81351 0.694645 0
M  V30 1038 O 101.365 1.22753 1.50871 0
M  V30 1039 C 101.648 3.36991 -1.26922 0
M  V30 1040 C 101.501 3.51667 -2.80447 0
M  V30 1041 C 102.82 4.3131 -0.87521 0
M  V30 1042 H 99.9388 0.680191 -0.28374 0
M  V30 1043 H 102.581 1.37036 -1.3161 0
M  V30 1044 H 100.731 3.79949 -0.81063 0
M  V30 1045 H 102.403 3.17664 -3.34495 0
M  V30 1046 H 100.646 2.93656 -3.19294 0
M  V30 1047 H 101.317 4.56766 -3.0995 0
M  V30 1048 H 103.793 3.9624 -1.27014 0
M  V30 1049 H 102.669 5.34545 -1.2471 0
M  V30 1050 H 102.93 4.41552 0.220071 0
M  V30 1051 N 101.989 0.842826 1.3317 0
M  V30 1052 C 103.405 0.531128 1.50503 0
M  V30 1053 C 103.605 -0.940734 1.78192 0
M  V30 1054 O 102.661 -1.72436 1.84451 0
M  V30 1055 C 103.974 1.40789 2.65705 0
M  V30 1056 C 105.522 1.40708 2.79589 0
M  V30 1057 C 105.997 2.26878 3.97857 0
M  V30 1058 N 107.488 2.24609 4.05099 0
M  V30 1059 C 108.223 2.88019 4.95815 0
M  V30 1060 N 107.719 3.60496 5.9162 0
M  V30 1061 N 109.512 2.77469 4.88843 0
M  V30 1062 H 101.663 1.79557 1.1346 0
M  V30 1063 H 103.926 0.766267 0.558156 0
M  V30 1064 H 103.632 2.454 2.51936 0
M  V30 1065 H 103.506 1.08677 3.61205 0
M  V30 1066 H 105.893 0.368668 2.92788 0
M  V30 1067 H 105.974 1.76829 1.84838 0
M  V30 1068 H 105.618 3.3078 3.85418 0
M  V30 1069 H 105.548 1.88096 4.91861 0
M  V30 1070 H 108.039 1.71906 3.36536 0
M  V30 1071 H 108.352 4.06076 6.57512 0
M  V30 1072 H 106.697 3.64604 5.91683 0
M  V30 1073 H 109.888 2.20406 4.12963 0
M  V30 1074 H 110.061 3.2717 5.59342 0
M  V30 1075 N 103.467 -1.45747 0.599634 0
M  V30 1076 C 104.883 -1.57424 0.26264 0
M  V30 1077 C 105.083 -1.59222 -1.23493 0
M  V30 1078 O 104.139 -1.51825 -2.01756 0
M  V30 1079 C 105.452 -2.86061 0.926795 0
M  V30 1080 C 107 -2.99722 0.901967 0
M  V30 1081 C 107.475 -4.31119 1.54598 0
M  V30 1082 N 108.966 -4.37858 1.5111 0
M  V30 1083 C 109.701 -5.3818 1.97863 0
M  V30 1084 N 109.197 -6.45083 2.52666 0
M  V30 1085 N 110.99 -5.29487 1.88679 0
M  V30 1086 H 103.141 -1.42823 1.57211 0
M  V30 1087 H 105.404 -0.68235 0.658105 0
M  V30 1088 H 105.11 -2.90605 1.98095 0
M  V30 1089 H 104.984 -3.74563 0.445238 0
M  V30 1090 H 107.371 -2.9475 -0.143617 0
M  V30 1091 H 107.452 -2.12652 1.42171 0
M  V30 1092 H 107.096 -4.36849 2.59085 0
M  V30 1093 H 107.026 -5.16992 1.00132 0
M  V30 1094 H 109.517 -3.61209 1.11068 0
M  V30 1095 H 109.83 -7.17869 2.86155 0
M  V30 1096 H 108.175 -6.45856 2.56701 0
M  V30 1097 H 111.366 -4.44877 1.4561 0
M  V30 1098 H 111.539 -6.07524 2.25429 0
M  V30 1099 N 104.945 -0.338344 -1.53925 0
M  V30 1100 C 105.908 0.508299 -2.23493 0
M  V30 1101 C 106.908 1.03175 -1.23335 0
M  V30 1102 O 108.098 0.921826 -1.47811 0
M  V30 1103 C 105.23 1.70754 -2.95052 0
M  V30 1104 H 106.423 -0.100058 -2.99733 0
M  V30 1105 H 103.976 -0.0896198 -1.56043 0
M  V30 1106 H 104.711 2.35474 -2.22986 0
M  V30 1107 H 104.496 1.33946 -3.68512 0
M  V30 1108 H 105.986 2.30818 -3.48013 0
M  V30 1109 N 106.423 1.57458 -0.0668435 0
M  V30 1110 C 107.671 1.92919 0.602214 0
M  V30 1111 C 107.992 0.947215 1.70449 0
M  V30 1112 O 107.262 -0.00544117 1.95899 0
M  V30 1113 H 105.842 0.71217 0.22544 0
M  V30 1114 H 108.504 1.94508 -0.123535 0
M  V30 1115 H 107.6 2.94589 1.03073 0
M  V30 1116 N 107.901 -0.206675 1.56239 0
M  V30 1117 C 108.833 -1.27997 1.9013 0
M  V30 1118 C 109.846 -1.42299 0.790883 0
M  V30 1119 O 111.035 -1.42931 1.06925 0
M  V30 1120 C 108.135 -2.65368 2.10792 0
M  V30 1121 C 107.308 -2.72824 3.41886 0
M  V30 1122 C 106.367 -3.9131 3.51799 0
M  V30 1123 O 105.393 -3.78953 4.24716 0
M  V30 1124 N 106.595 -5.06265 2.84035 0
M  V30 1125 H 109.36 -0.992444 2.82791 0
M  V30 1126 H 106.921 -0.396652 1.56966 0
M  V30 1127 H 108.913 -3.43039 2.14724 0
M  V30 1128 H 107.483 -2.86657 1.24685 0
M  V30 1129 H 106.703 -1.81515 3.49923 0
M  V30 1130 H 107.991 -2.74786 4.28217 0
M  V30 1131 H 107.389 -5.19203 2.246 0
M  V30 1132 H 105.946 -5.81925 2.93609 0
M  V30 1133 N 109.379 -1.50304 -0.473955 0
M  V30 1134 C 110.627 -1.60832 -1.22382 0
M  V30 1135 C 110.948 -0.30939 -1.9253 0
M  V30 1136 O 110.218 0.67296 -1.83978 0
M  V30 1137 H 108.798 -0.592652 -0.454723 0
M  V30 1138 H 111.46 -1.87068 -0.546968 0
M  V30 1139 H 110.556 -2.41803 -1.97327 0
M  V30 1140 N 110.857 0.726932 -1.39834 0
M  V30 1141 C 112.082 1.52121 -1.40976 0
M  V30 1142 C 112.507 1.88098 -0.00826029 0
M  V30 1143 O 111.865 1.52479 0.980807 0
M  V30 1144 C 111.913 2.78021 -2.29644 0
M  V30 1145 O 111.017 3.74272 -1.73188 0
M  V30 1146 H 110.358 0.45908 -0.479731 0
M  V30 1147 H 112.888 0.896207 -1.83927 0
M  V30 1148 H 112.898 3.26671 -2.44438 0
M  V30 1149 H 111.573 2.51169 -3.31492 0
M  V30 1150 H 110.15 3.33073 -1.6768 0
M  V30 1151 N 112.336 1.25143 0.95797 0
M  V30 1152 C 113.266 1.07711 2.07173 0
M  V30 1153 C 114.247 -0.0128462 1.70095 0
M  V30 1154 O 115.432 0.156061 1.93572 0
M  V30 1155 C 112.562 0.691503 3.40346 0
M  V30 1156 C 111.516 1.73132 3.9142 0
M  V30 1157 C 110.842 1.20049 5.21049 0
M  V30 1158 C 112.142 3.1294 4.1817 0
M  V30 1159 H 113.836 2.00873 2.22014 0
M  V30 1160 H 111.382 0.967191 1.06684 0
M  V30 1161 H 113.335 0.556505 4.17709 0
M  V30 1162 H 112.059 -0.275819 3.25433 0
M  V30 1163 H 110.718 1.8547 3.16222 0
M  V30 1164 H 110.366 0.223499 5.02503 0
M  V30 1165 H 110.066 1.89545 5.56189 0
M  V30 1166 H 111.59 1.07782 6.01012 0
M  V30 1167 H 113.004 3.03775 4.86203 0
M  V30 1168 H 111.401 3.79875 4.64559 0
M  V30 1169 H 112.471 3.6025 3.24573 0
M  V30 1170 N 113.814 -1.1601 1.06675 0
M  V30 1171 C 115.044 -1.90251 0.805497 0
M  V30 1172 C 115.452 -1.77891 -0.64431 0
M  V30 1173 O 114.795 -1.12383 -1.45313 0
M  V30 1174 C 114.857 -3.41419 1.12576 0
M  V30 1175 C 114.521 -3.77564 2.57477 0
M  V30 1176 C 115.518 -3.79161 3.55715 0
M  V30 1177 C 113.203 -4.08079 2.92877 0
M  V30 1178 C 115.197 -4.10767 4.8739 0
M  V30 1179 C 112.884 -4.39351 4.24751 0
M  V30 1180 C 113.882 -4.40675 5.21818 0
M  V30 1181 O 113.57 -4.71202 6.51325 0
M  V30 1182 H 113.302 -0.610018 0.291297 0
M  V30 1183 H 115.856 -1.47958 1.4247 0
M  V30 1184 H 114.086 -3.84079 0.449503 0
M  V30 1185 H 115.775 -3.9694 0.84814 0
M  V30 1186 H 116.541 -3.55693 3.29708 0
M  V30 1187 H 112.42 -4.06211 2.17976 0
M  V30 1188 H 115.964 -4.11715 5.63148 0
M  V30 1189 H 111.861 -4.62285 4.50514 0
M  V30 1190 H 112.629 -4.88996 6.56373 0
M  V30 1191 N 115.292 -0.849877 -1.32721 0
M  V30 1192 C 116.517 -0.463856 -2.02146 0
M  V30 1193 C 116.942 0.930449 -1.63476 0
M  V30 1194 O 116.3 1.61033 -0.832952 0
M  V30 1195 C 116.348 -0.604955 -3.55489 0
M  V30 1196 O 115.452 0.36425 -4.10788 0
M  V30 1197 H 114.793 -0.187046 -0.637111 0
M  V30 1198 H 117.323 -1.14775 -1.69375 0
M  V30 1199 H 117.333 -0.490696 -4.05038 0
M  V30 1200 H 116.008 -1.62174 -3.82978 0
M  V30 1201 H 114.585 0.206628 -3.72327 0
M  V30 1202 N 116.77 1.45427 -0.607355 0
M  V30 1203 C 117.7 2.3329 0.0989352 0
M  V30 1204 C 118.681 1.46816 0.859007 0
M  V30 1205 O 119.866 1.75588 0.829604 0
M  V30 1206 C 116.996 3.29518 1.09705 0
M  V30 1207 C 115.95 4.25626 0.450206 0
M  V30 1208 C 115.276 5.11542 1.55655 0
M  V30 1209 C 116.576 5.18505 -0.628455 0
M  V30 1210 H 118.27 2.92595 -0.634716 0
M  V30 1211 H 115.816 1.40696 -0.306681 0
M  V30 1212 H 117.769 3.89855 1.59971 0
M  V30 1213 H 116.493 2.68372 1.86129 0
M  V30 1214 H 115.152 3.66586 -0.0315886 0
M  V30 1215 H 114.8 4.46765 2.31107 0
M  V30 1216 H 114.5 5.76647 1.12925 0
M  V30 1217 H 116.024 5.74748 2.06148 0
M  V30 1218 H 117.438 5.72916 -0.209877 0
M  V30 1219 H 115.835 5.92085 -0.977489 0
M  V30 1220 H 116.905 4.60948 -1.50514 0
M  V30 1221 N 118.248 0.346503 1.53744 0
M  V30 1222 C 119.158 -0.517293 2.28826 0
M  V30 1223 C 120.174 -1.10935 1.3405 0
M  V30 1224 O 121.35 -1.1244 1.6709 0
M  V30 1225 C 118.415 -1.65098 3.04866 0
M  V30 1226 C 117.476 -1.0884 4.15274 0
M  V30 1227 C 116.709 -2.16806 4.87679 0
M  V30 1228 O 116.932 -3.3758 4.59778 0
M  V30 1229 O 115.866 -1.80934 5.74061 0
M  V30 1230 H 119.692 0.0931396 3.03557 0
M  V30 1231 H 117.277 0.111458 1.48984 0
M  V30 1232 H 119.159 -2.31053 3.5241 0
M  V30 1233 H 117.834 -2.24717 2.32989 0
M  V30 1234 H 116.741 -0.3933 3.72027 0
M  V30 1235 H 118.074 -0.537036 4.89261 0
M  V30 1236 N 119.726 -1.57421 0.075193 0
M  V30 1237 C 120.689 -2.11791 -0.876203 0
M  V30 1238 C 121.689 -1.04268 -1.22412 0
M  V30 1239 O 122.879 -1.30242 -1.15684 0
M  V30 1240 C 120.011 -2.62207 -2.17854 0
M  V30 1241 H 121.204 -2.9716 -0.40444 0
M  V30 1242 H 118.757 -1.55333 -0.173557 0
M  V30 1243 H 119.492 -1.803 -2.6956 0
M  V30 1244 H 119.277 -3.40802 -1.93897 0
M  V30 1245 H 120.767 -3.04335 -2.85955 0
M  V30 1246 N 121.204 0.198386 -1.56346 0
M  V30 1247 C 122.432 0.935572 -1.84539 0
M  V30 1248 C 122.847 1.76989 -0.657281 0
M  V30 1249 O 122.204 1.78626 0.374043 0
M  V30 1250 C 122.255 1.8344 -3.11499 0
M  V30 1251 O 121.976 1.03377 -4.25728 0
M  V30 1252 C 123.477 2.68355 -3.52846 0
M  V30 1253 H 120.697 0.273126 -0.612897 0
M  V30 1254 H 123.241 0.20663 -2.03453 0
M  V30 1255 H 121.396 2.51701 -2.94492 0
M  V30 1256 H 121.81 1.64599 -4.98003 0
M  V30 1257 H 123.284 3.27085 -4.44657 0
M  V30 1258 H 123.761 3.41901 -2.75681 0
M  V30 1259 H 124.367 2.05471 -3.72373 0
M  V30 1260 N 122.682 1.50554 0.465978 0
M  V30 1261 C 123.612 1.72722 1.57128 0
M  V30 1262 C 124.593 0.576294 1.6004 0
M  V30 1263 O 125.778 0.81598 1.76225 0
M  V30 1264 C 122.908 1.82605 2.95419 0
M  V30 1265 C 121.862 2.97835 3.07373 0
M  V30 1266 C 121.188 2.92867 4.47363 0
M  V30 1267 C 122.488 4.38265 2.84114 0
M  V30 1268 H 124.182 2.65267 1.38829 0
M  V30 1269 H 121.728 1.2765 0.666441 0
M  V30 1270 H 123.681 1.96698 3.72677 0
M  V30 1271 H 122.405 0.866858 3.14886 0
M  V30 1272 H 121.064 2.83401 2.3255 0
M  V30 1273 H 120.712 1.94783 4.63755 0
M  V30 1274 H 120.412 3.70227 4.56296 0
M  V30 1275 H 121.936 3.09015 5.26633 0
M  V30 1276 H 123.35 4.53198 3.51118 0
M  V30 1277 H 121.747 5.17115 3.04487 0
M  V30 1278 H 122.817 4.50281 1.7993 0
M  V30 1279 N 124.16 -0.719506 1.40217 0
M  V30 1280 C 125.07 -1.86378 1.42479 0
M  V30 1281 C 126.086 -1.71073 0.317834 0
M  V30 1282 O 127.262 -1.93406 0.561794 0
M  V30 1283 C 124.327 -3.22136 1.28178 0
M  V30 1284 C 123.388 -3.49723 2.48982 0
M  V30 1285 C 122.621 -4.79004 2.35353 0
M  V30 1286 O 122.844 -5.53821 1.36524 0
M  V30 1287 O 121.778 -5.06839 3.2465 0
M  V30 1288 H 125.604 -1.87425 2.38968 0
M  V30 1289 H 123.189 -0.869405 1.21498 0
M  V30 1290 H 125.071 -4.03234 1.22395 0
M  V30 1291 H 123.746 -3.21825 0.347934 0
M  V30 1292 H 122.653 -2.6865 2.60342 0
M  V30 1293 H 123.986 -3.54828 3.41113 0
M  V30 1294 N 125.638 -1.25649 -0.95132 0
M  V30 1295 C 126.548 -1.08073 -2.08224 0
M  V30 1296 C 127.564 -0.0169666 -1.73992 0
M  V30 1297 O 128.74 -0.218593 -2.0021 0
M  V30 1298 C 125.805 -0.704922 -3.39458 0
M  V30 1299 C 124.866 -1.84699 -3.87537 0
M  V30 1300 C 124.099 -1.48902 -5.12508 0
M  V30 1301 O 124.322 -0.386156 -5.69091 0
M  V30 1302 O 123.256 -2.32033 -5.55378 0
M  V30 1303 H 127.082 -2.02924 -2.25954 0
M  V30 1304 H 124.667 -1.04618 -1.06656 0
M  V30 1305 H 126.549 -0.507609 -4.18332 0
M  V30 1306 H 125.224 0.214291 -3.2299 0
M  V30 1307 H 124.131 -2.09919 -3.09653 0
M  V30 1308 H 125.464 -2.74557 -4.08509 0
M  V30 1309 N 127.117 1.15442 -1.07289 0
M  V30 1310 C 128.528 1.67803 -0.818475 0
M  V30 1311 C 128.879 1.8489 0.656507 0
M  V30 1312 O 128.004 1.55176 1.50829 0
M  V30 1313 C 128.599 3.04805 -1.47917 0
M  V30 1314 C 127.158 3.54245 -1.27229 0
M  V30 1315 C 126.305 2.29986 -1.54925 0
M  V30 1316 H 129.256 0.996646 -1.23502 0
M  V30 1317 H 129.277 3.69702 -0.90005 0
M  V30 1318 H 128.789 2.92336 -2.55267 0
M  V30 1319 H 126.89 3.71956 -0.21899 0
M  V30 1320 H 127.003 4.35723 -1.99203 0
M  V30 1321 H 125.367 2.35496 -0.970242 0
M  V30 1322 H 126.15 2.20105 -2.63455 0
M  V30 1323 N 128.595 0.856903 1.32268 0
M  V30 1324 C 130.006 0.515711 1.79436 0
M  V30 1325 C 130.357 -0.966586 1.70738 0
M  V30 1326 O 129.482 -1.75409 1.26731 0
M  V30 1327 C 130.077 0.929335 3.25805 0
M  V30 1328 C 128.636 0.640006 3.70919 0
M  V30 1329 C 127.783 1.12784 2.53328 0
M  V30 1330 H 130.734 1.04389 1.19535 0
M  V30 1331 H 130.755 0.246633 3.797 0
M  V30 1332 H 130.267 2.00821 3.32103 0
M  V30 1333 H 128.368 -0.428051 3.70133 0
M  V30 1334 H 128.481 1.20788 4.63624 0
M  V30 1335 H 126.845 0.548033 2.48734 0
M  V30 1336 H 127.628 2.21387 2.62379 0
M  V30 1337 N 130.073 -1.45103 0.615059 0
M  V30 1338 C 131.313 -2.04069 0.116282 0
M  V30 1339 C 131.677 -1.4721 -1.2326 0
M  V30 1340 O 132.878 -1.97577 -1.82255 0
M  V30 1341 C 131.149 -3.57298 0.085482 0
M  V30 1342 S 132.708 -4.37394 -0.351015 0
M  V30 1343 H 129.526 -0.709006 0.0532183 0
M  V30 1344 H 132.128 -1.77709 0.81484 0
M  V30 1345 H 130.832 -3.9619 1.0706 0
M  V30 1346 H 130.363 -3.88244 -0.634835 0
M  V30 1347 H 132.378 -4.69734 -1.59889 0
M  V30 1348 N 131.551 -0.354651 -1.53558 0
M  V30 1349 C 132.499 0.512195 -2.26891 0
M  V30 1350 C 133.493 1.09263 -1.29452 0
M  V30 1351 O 134.699 1.03709 -1.47121 0
M  V30 1352 H 131.074 0.183878 -0.729173 0
M  V30 1353 H 133.045 -0.128202 -2.98124 0
M  V30 1354 C 131.794 1.64563 -3.06291 0
M  V30 1355 H 131.117 1.20829 -3.81104 0
M  V30 1356 H 132.557 2.22711 -3.60799 0
M  V30 1357 C 131.016 2.58158 -2.16462 0
M  V30 1358 O 131.546 3.60695 -1.76811 0
M  V30 1359 N 129.752 2.27096 -1.81317 0
M  V30 1360 H 129.299 1.43751 -2.1376 0
M  V30 1361 H 129.257 2.89975 -1.21498 0
M  V30 1362 N 133.029 1.57378 -0.0835403 0
M  V30 1363 C 134.306 1.85363 0.624507 0
M  V30 1364 C 134.686 0.978239 1.87066 0
M  V30 1365 O 134.034 0.0475908 2.2845 0
M  V30 1366 C 134.244 3.35795 0.950947 0
M  V30 1367 C 135.592 4.03581 1.31939 0
M  V30 1368 O 136.616 3.40609 1.04232 0
M  V30 1369 O 135.475 5.14672 1.83779 0
M  V30 1370 H 132.569 0.766162 0.311329 0
M  V30 1371 H 135.115 1.69307 -0.115362 0
M  V30 1372 H 133.887 3.91244 0.0663899 0
M  V30 1373 H 133.51 3.57154 1.74719 0
M  V30 1374 N 134.507 -0.190092 1.56449 0
M  V30 1375 C 135.918 -0.754312 1.70784 0
M  V30 1376 C 136.269 -1.83631 0.690951 0
M  V30 1377 O 135.394 -2.15868 -0.151604 0
M  V30 1378 C 135.989 -1.37503 3.09642 0
M  V30 1379 C 134.548 -1.88628 3.25725 0
M  V30 1380 C 133.695 -0.758098 2.66736 0
M  V30 1381 H 136.646 0.0350524 1.58661 0
M  V30 1382 H 136.667 -2.2445 3.0725 0
M  V30 1383 H 136.179 -0.587302 3.83631 0
M  V30 1384 H 134.28 -2.70103 2.56661 0
M  V30 1385 H 134.393 -2.04462 4.3328 0
M  V30 1386 H 132.757 -1.17369 2.26046 0
M  V30 1387 H 133.54 0.0174705 3.43296 0
M  V30 1388 N 135.985 -1.50799 -0.457987 0
M  V30 1389 C 136.918 -1.65273 -1.57353 0
M  V30 1390 C 137.896 -0.500578 -1.54703 0
M  V30 1391 O 139.08 -0.721781 -1.74134 0
M  V30 1392 C 136.207 -1.64737 -2.95938 0
M  V30 1393 C 135.253 -2.8567 -3.16693 0
M  V30 1394 S 136.086 -4.46791 -2.95191 0
M  V30 1395 C 137.242 -4.48968 -4.36095 0
M  V30 1396 H 137.475 -2.59633 -1.44838 0
M  V30 1397 H 135.008 -1.40225 -0.64625 0
M  V30 1398 H 136.966 -1.65112 -3.7583 0
M  V30 1399 H 135.627 -0.715899 -3.05833 0
M  V30 1400 H 134.82 -2.81637 -4.17967 0
M  V30 1401 H 134.422 -2.8293 -2.44594 0
M  V30 1402 H 136.714 -4.23337 -5.28954 0
M  V30 1403 H 137.657 -5.50664 -4.45168 0
M  V30 1404 H 138.065 -3.78522 -4.18786 0
M  V30 1405 N 137.463 0.71206 -1.40597 0
M  V30 1406 C 138.709 1.47416 -1.39271 0
M  V30 1407 C 139.042 1.942 0.00388791 0
M  V30 1408 O 138.317 1.68403 0.973179 0
M  V30 1409 C 138.6 2.69774 -2.38525 0
M  V30 1410 C 138.453 2.28861 -3.87224 0
M  V30 1411 C 139.772 3.71939 -2.35264 0
M  V30 1412 H 136.891 0.534713 -0.5072 0
M  V30 1413 H 139.533 0.812375 -1.71757 0
M  V30 1414 H 137.683 3.26238 -2.10953 0
M  V30 1415 H 139.355 1.77852 -4.25636 0
M  V30 1416 H 137.598 1.60824 -4.02887 0
M  V30 1417 H 138.269 3.16584 -4.52193 0
M  V30 1418 H 140.745 3.25113 -2.59694 0
M  V30 1419 H 139.621 4.55186 -3.06753 0
M  V30 1420 H 139.882 4.20484 -1.36549 0
M  V30 1421 N 138.941 1.26152 0.944643 0
M  V30 1422 C 140.181 1.12708 1.70517 0
M  V30 1423 C 140.545 -0.324727 1.89234 0
M  V30 1424 O 141.746 -0.581211 2.62441 0
M  V30 1425 C 140.017 1.8713 3.04495 0
M  V30 1426 S 141.576 1.89698 3.95677 0
M  V30 1427 H 138.394 0.402665 0.585988 0
M  V30 1428 H 140.996 1.59821 1.12594 0
M  V30 1429 H 139.7 2.91833 2.88551 0
M  V30 1430 H 139.231 1.40444 3.67477 0
M  V30 1431 H 141.246 0.981198 4.86402 0
M  V30 1432 N 140.419 -1.14872 1.07899 0
M  V30 1433 C 141.835 -1.37776 0.805606 0
M  V30 1434 C 142.035 -1.92743 -0.587555 0
M  V30 1435 O 141.091 -2.13678 -1.34528 0
M  V30 1436 C 142.404 -2.34361 1.88402 0
M  V30 1437 C 143.952 -2.48012 1.90942 0
M  V30 1438 C 144.427 -3.47893 2.97883 0
M  V30 1439 N 145.918 -3.55433 2.97021 0
M  V30 1440 C 146.653 -4.32553 3.76412 0
M  V30 1441 N 146.149 -5.12959 4.65666 0
M  V30 1442 N 147.942 -4.27697 3.64735 0
M  V30 1443 H 140.093 -0.775365 1.97742 0
M  V30 1444 H 142.356 -0.403521 0.857831 0
M  V30 1445 H 142.062 -2.01098 2.88535 0
M  V30 1446 H 141.936 -3.34206 1.74889 0
M  V30 1447 H 144.323 -2.8057 0.914579 0
M  V30 1448 H 144.404 -1.48147 2.08534 0
M  V30 1449 H 144.048 -3.16069 3.97571 0
M  V30 1450 H 143.978 -4.47527 2.77538 0
M  V30 1451 H 146.469 -2.98048 2.32326 0
M  V30 1452 H 146.782 -5.69065 5.22862 0
M  V30 1453 H 145.127 -5.12245 4.69712 0
M  V30 1454 H 148.318 -3.63949 2.94378 0
M  V30 1455 H 148.491 -4.8755 4.26848 0
M  V30 1456 N 141.898 -0.863906 -1.31812 0
M  V30 1457 C 142.828 -0.330843 -2.31144 0
M  V30 1458 C 143.809 0.575005 -1.60087 0
M  V30 1459 O 144.994 0.493304 -1.8783 0
M  V30 1460 C 142.124 0.47374 -3.44054 0
M  V30 1461 C 141.078 -0.338481 -4.26659 0
M  V30 1462 C 140.404 0.591412 -5.31419 0
M  V30 1463 C 141.704 -1.56926 -4.98168 0
M  V30 1464 H 143.398 -1.16086 -2.75979 0
M  V30 1465 H 140.944 -0.559657 -1.32679 0
M  V30 1466 H 142.897 0.857143 -4.12591 0
M  V30 1467 H 141.621 1.33721 -2.9797 0
M  V30 1468 H 140.28 -0.703754 -3.59782 0
M  V30 1469 H 139.928 1.45199 -4.81587 0
M  V30 1470 H 139.628 0.0519022 -5.87577 0
M  V30 1471 H 141.152 0.97179 -6.02817 0
M  V30 1472 H 142.566 -1.25764 -5.59336 0
M  V30 1473 H 140.963 -2.04739 -5.64094 0
M  V30 1474 H 142.033 -2.32544 -4.25501 0
M  V30 1475 N 143.376 1.44774 -0.622745 0
M  V30 1476 C 144.787 1.85546 -0.207226 0
M  V30 1477 C 145.138 1.52093 1.23944 0
M  V30 1478 O 144.263 0.95492 1.94191 0
M  V30 1479 C 144.858 3.36781 -0.369313 0
M  V30 1480 C 143.417 3.76399 -0.00836847 0
M  V30 1481 C 142.564 2.68664 -0.686651 0
M  V30 1482 H 145.515 1.3536 -0.828454 0
M  V30 1483 H 145.536 3.78453 0.394162 0
M  V30 1484 H 145.048 3.61098 -1.42231 0
M  V30 1485 H 143.149 3.57698 1.04322 0
M  V30 1486 H 143.262 4.7732 -0.412584 0
M  V30 1487 H 141.626 2.54404 -0.122777 0
M  V30 1488 H 142.409 2.95815 -1.74208 0
M  V30 1489 N 144.854 0.36279 1.53368 0
M  V30 1490 C 146.1 -0.228113 2.01513 0
M  V30 1491 C 146.433 -1.48648 1.2497 0
M  V30 1492 O 145.708 -1.91459 0.342616 0
M  V30 1493 C 145.991 -0.522884 3.56284 0
M  V30 1494 C 145.844 0.74892 4.43521 0
M  V30 1495 C 147.163 -1.32461 4.19693 0
M  V30 1496 H 144.282 -0.0814343 0.732487 0
M  V30 1497 H 146.924 0.48713 1.83649 0
M  V30 1498 H 145.074 -1.1322 3.71636 0
M  V30 1499 H 146.746 1.38648 4.39971 0
M  V30 1500 H 144.989 1.36986 4.11603 0
M  V30 1501 H 145.66 0.497667 5.49752 0
M  V30 1502 H 148.136 -0.809203 4.08156 0
M  V30 1503 H 147.012 -1.49961 5.28018 0
M  V30 1504 H 147.273 -2.33232 3.75573 0
M  V30 1505 N 146.332 -1.57332 0.0918853 0
M  V30 1506 C 147.557 -1.98995 -0.584442 0
M  V30 1507 C 147.982 -0.970528 -1.61128 0
M  V30 1508 O 147.34 0.0613904 -1.81196 0
M  V30 1509 C 147.388 -3.39636 -1.21161 0
M  V30 1510 O 146.492 -3.40447 -2.32744 0
M  V30 1511 H 145.833 -0.647165 -0.148572 0
M  V30 1512 H 148.363 -2.03873 0.172347 0
M  V30 1513 H 148.373 -3.7726 -1.55367 0
M  V30 1514 H 147.048 -4.13356 -0.459313 0
M  V30 1515 H 145.625 -3.14614 -2.0018 0
M  V30 1516 N 147.81 0.181792 -1.56548 0
M  V30 1517 C 148.757 1.22521 -1.95595 0
M  V30 1518 C 149.727 1.4454 -0.818373 0
M  V30 1519 O 150.912 1.57454 -1.07763 0
M  V30 1520 C 148.052 2.56193 -2.31212 0
M  V30 1521 C 147.165 2.41641 -3.58097 0
M  V30 1522 C 146.3 3.68108 -3.82975 0
M  V30 1523 C 145.339 3.48445 -5.03242 0
M  V30 1524 N 144.476 4.66956 -5.24306 0
M  V30 1525 H 149.316 0.885226 -2.84548 0
M  V30 1526 H 146.853 0.425718 -1.40805 0
M  V30 1527 H 148.811 3.34088 -2.49882 0
M  V30 1528 H 147.441 2.88208 -1.45382 0
M  V30 1529 H 146.493 1.54976 -3.474 0
M  V30 1530 H 147.805 2.23052 -4.46149 0
M  V30 1531 H 146.959 4.54441 -4.01956 0
M  V30 1532 H 145.698 3.89666 -2.93278 0
M  V30 1533 H 144.703 2.60499 -4.8417 0
M  V30 1534 H 145.928 3.2832 -5.9446 0
M  V30 1535 H 143.874 4.88752 -4.37559 0
M  V30 1536 H 143.791 4.51242 -6.06561 0
M  V30 1537 H 145.059 5.54602 -5.47756 0
M  V30 1538 N 149.288 1.51039 0.449983 0
M  V30 1539 C 150.235 1.71439 1.54523 0
M  V30 1540 C 151.205 0.555871 1.56522 0
M  V30 1541 O 152.39 0.788871 1.73728 0
M  V30 1542 C 149.53 1.83384 2.92343 0
M  V30 1543 C 148.643 3.10873 2.9997 0
M  V30 1544 C 147.778 3.13488 4.28834 0
M  V30 1545 C 146.817 4.35343 4.30282 0
M  V30 1546 N 145.954 4.35579 5.5065 0
M  V30 1547 H 150.794 2.64934 1.36433 0
M  V30 1548 H 148.331 1.31312 0.662982 0
M  V30 1549 H 150.289 1.88291 3.72293 0
M  V30 1550 H 148.919 0.933086 3.0902 0
M  V30 1551 H 147.971 3.15336 2.12761 0
M  V30 1552 H 149.283 4.00814 2.96901 0
M  V30 1553 H 148.437 3.17241 5.17149 0
M  V30 1554 H 147.176 2.21414 4.34543 0
M  V30 1555 H 146.181 4.3178 3.40362 0
M  V30 1556 H 147.406 5.28668 4.26248 0
M  V30 1557 H 145.352 3.46369 5.57104 0
M  V30 1558 H 145.269 5.19313 5.49409 0
M  V30 1559 H 146.537 4.43507 6.41032 0
M  V30 1560 N 150.766 -0.704594 1.40972 0
M  V30 1561 C 151.994 -1.49354 1.43182 0
M  V30 1562 C 152.409 -1.88768 0.0345508 0
M  V30 1563 O 151.766 -1.56184 -0.944081 0
M  V30 1564 C 151.817 -2.76187 2.33244 0
M  V30 1565 O 151.538 -2.38436 3.67532 0
M  V30 1566 C 153.039 -3.7 2.44162 0
M  V30 1567 H 150.259 -0.460559 0.487982 0
M  V30 1568 H 152.803 -0.868261 1.85153 0
M  V30 1569 H 150.958 -3.34974 1.94606 0
M  V30 1570 H 151.372 -3.20126 4.15475 0
M  V30 1571 H 152.846 -4.55803 3.11364 0
M  V30 1572 H 153.323 -4.13867 1.47006 0
M  V30 1573 H 153.929 -3.17121 2.83398 0
M  V30 1574 N 152.244 -1.26651 -0.937939 0
M  V30 1575 C 153.174 -1.10993 -2.05433 0
M  V30 1576 C 154.155 -0.0142161 -1.70094 0
M  V30 1577 O 155.34 -0.186837 -1.93299 0
M  V30 1578 C 152.47 -0.745561 -3.39203 0
M  V30 1579 C 151.424 -1.79337 -3.88616 0
M  V30 1580 C 150.75 -1.28324 -5.19073 0
M  V30 1581 C 152.05 -3.19553 -4.13138 0
M  V30 1582 H 153.744 -2.0438 -2.1879 0
M  V30 1583 H 151.29 -0.984041 -1.05131 0
M  V30 1584 H 153.243 -0.622888 -4.16771 0
M  V30 1585 H 151.967 0.22401 -3.25831 0
M  V30 1586 H 150.626 -1.90477 -3.13231 0
M  V30 1587 H 150.274 -0.303414 -5.02084 0
M  V30 1588 H 149.974 -1.98369 -5.53103 0
M  V30 1589 H 151.498 -1.1733 -5.99221 0
M  V30 1590 H 152.912 -3.11471 -4.81309 0
M  V30 1591 H 151.309 -3.87218 -4.58457 0
M  V30 1592 H 152.379 -3.65368 -3.18801 0
M  V30 1593 N 153.722 1.14298 -1.08507 0
M  V30 1594 C 154.652 2.21542 -0.737646 0
M  V30 1595 C 155.633 1.67773 0.280377 0
M  V30 1596 O 156.818 1.93616 0.150521 0
M  V30 1597 C 153.948 3.46988 -0.147259 0
M  V30 1598 C 152.902 4.13789 -1.09374 0
M  V30 1599 C 152.228 5.33449 -0.365524 0
M  V30 1600 C 153.528 4.62208 -2.4323 0
M  V30 1601 H 155.222 2.5086 -1.6343 0
M  V30 1602 H 152.768 1.20576 -0.787243 0
M  V30 1603 H 154.721 4.21262 0.107808 0
M  V30 1604 H 153.445 3.17037 0.784538 0
M  V30 1605 H 152.104 3.4147 -1.33393 0
M  V30 1606 H 151.752 4.99759 0.57011 0
M  V30 1607 H 151.452 5.79088 -0.996512 0
M  V30 1608 H 152.976 6.10485 -0.118534 0
M  V30 1609 H 154.39 5.27952 -2.23472 0
M  V30 1610 H 152.787 5.18553 -3.02031 0
M  V30 1611 H 153.857 3.77224 -3.04681 0
M  V30 1612 N 155.201 0.870884 1.31352 0
M  V30 1613 C 156.441 0.488783 1.9847 0
M  V30 1614 C 156.805 -0.941536 1.67329 0
M  V30 1615 O 158.006 -1.42903 2.27667 0
M  V30 1616 C 156.277 0.739688 3.49662 0
M  V30 1617 S 157.836 0.457582 4.36408 0
M  V30 1618 H 154.654 0.18242 0.6872 0
M  V30 1619 H 157.256 1.12711 1.59739 0
M  V30 1620 H 155.96 1.77944 3.69816 0
M  V30 1621 H 155.491 0.0883905 3.93301 0
M  V30 1622 H 157.506 -0.709752 4.91098 0
M  V30 1623 N 156.679 -1.44442 0.630414 0
M  V30 1624 C 157.904 -2.06927 0.139944 0
M  V30 1625 C 158.329 -1.46795 -1.17613 0
M  V30 1626 O 157.687 -0.569144 -1.72135 0
M  V30 1627 C 157.735 -3.6058 0.0379581 0
M  V30 1628 O 156.839 -3.99937 -1.0062 0
M  V30 1629 H 156.18 -0.658608 0.0844483 0
M  V30 1630 H 158.71 -1.85327 0.866891 0
M  V30 1631 H 158.72 -4.07714 -0.152856 0
M  V30 1632 H 157.395 -4.03728 0.998809 0
M  V30 1633 H 155.972 -3.64436 -0.79001 0
M  V30 1634 N 158.157 -0.370918 -1.53173 0
M  V30 1635 C 159.404 0.217102 -2.01333 0
M  V30 1636 C 159.732 1.48338 -1.25802 0
M  V30 1637 O 158.987 1.92698 -0.34146 0
M  V30 1638 C 159.286 0.549696 -3.53147 0
M  V30 1639 C 158.952 -0.622872 -4.46577 0
M  V30 1640 C 157.614 -0.944595 -4.71838 0
M  V30 1641 C 159.966 -1.40819 -5.01816 0
M  V30 1642 C 157.294 -2.05351 -5.49589 0
M  V30 1643 C 159.646 -2.50757 -5.80778 0
M  V30 1644 C 158.31 -2.83458 -6.04324 0
M  V30 1645 H 157.58 0.0794431 -0.736729 0
M  V30 1646 H 160.227 -0.504481 -1.84736 0
M  V30 1647 H 158.532 1.35237 -3.6772 0
M  V30 1648 H 160.229 1.017 -3.87889 0
M  V30 1649 H 156.819 -0.36209 -4.27068 0
M  V30 1650 H 161.003 -1.17289 -4.82242 0
M  V30 1651 H 156.259 -2.3108 -5.6605 0
M  V30 1652 H 160.433 -3.12022 -6.22588 0
M  V30 1653 H 158.06 -3.69508 -6.64355 0
M  V30 1654 N 159.635 1.57281 -0.100228 0
M  V30 1655 C 160.567 2.11342 0.886972 0
M  V30 1656 C 161.58 1.05182 1.24261 0
M  V30 1657 O 162.769 1.32613 1.19483 0
M  V30 1658 C 159.869 2.5825 2.19454 0
M  V30 1659 C 159.042 3.88302 2.01346 0
M  V30 1660 C 158.101 4.21004 3.15661 0
M  V30 1661 O 157.127 4.9014 2.89398 0
M  V30 1662 N 158.329 3.76818 4.41575 0
M  V30 1663 H 161.094 2.96668 0.425216 0
M  V30 1664 H 158.655 1.61678 0.0847334 0
M  V30 1665 H 160.647 2.7717 2.94888 0
M  V30 1666 H 159.217 1.77907 2.57037 0
M  V30 1667 H 158.437 3.7848 1.10212 0
M  V30 1668 H 159.725 4.73375 1.8653 0
M  V30 1669 H 159.123 3.2102 4.65792 0
M  V30 1670 H 157.68 4.00882 5.13942 0
M  V30 1671 N 161.113 -0.173488 1.56642 0
M  V30 1672 C 162.359 -0.891784 1.8214 0
M  V30 1673 C 162.692 -1.8199 0.677736 0
M  V30 1674 O 161.967 -1.91842 -0.320446 0
M  V30 1675 C 162.25 -1.68933 3.18015 0
M  V30 1676 C 162.103 -0.784487 4.42906 0
M  V30 1677 C 163.422 -2.65748 3.50808 0
M  V30 1678 H 160.541 -0.322761 0.662567 0
M  V30 1679 H 163.183 -0.158095 1.89341 0
M  V30 1680 H 161.333 -2.31482 3.12007 0
M  V30 1681 H 163.005 -0.172046 4.60979 0
M  V30 1682 H 161.248 -0.0924117 4.33702 0
M  V30 1683 H 161.919 -1.37799 5.34524 0
M  V30 1684 H 164.395 -2.13327 3.57255 0
M  V30 1685 H 163.271 -3.18619 4.4696 0
M  V30 1686 H 163.532 -3.45842 2.75401 0
M  V30 1687 N 162.591 -1.51276 -0.441967 0
M  V30 1688 C 163.521 -1.752 -1.54361 0
M  V30 1689 C 164.502 -0.601682 -1.59103 0
M  V30 1690 O 165.687 -0.843913 -1.74905 0
M  V30 1691 C 162.817 -1.87282 -2.92477 0
M  V30 1692 C 161.771 -3.02687 -3.02596 0
M  V30 1693 C 161.097 -2.99947 -4.42647 0
M  V30 1694 C 162.397 -4.4273 -2.77106 0
M  V30 1695 H 164.091 -2.67442 -1.34592 0
M  V30 1696 H 161.637 -1.28694 -0.646048 0
M  V30 1697 H 163.59 -2.02602 -3.695 0
M  V30 1698 H 162.314 -0.916844 -3.13467 0
M  V30 1699 H 160.973 -2.87065 -2.28012 0
M  V30 1700 H 160.621 -2.02136 -4.60597 0
M  V30 1701 H 160.321 -3.77439 -4.50348 0
M  V30 1702 H 161.845 -3.17354 -5.2165 0
M  V30 1703 H 163.259 -4.58727 -3.43864 0
M  V30 1704 H 161.656 -5.21893 -2.96222 0
M  V30 1705 H 162.726 -4.53087 -1.72744 0
M  V30 1706 N 164.069 0.697108 -1.41344 0
M  V30 1707 C 165.346 1.45154 -1.31109 0
M  V30 1708 C 165.726 2.11009 0.0620449 0
M  V30 1709 O 165.074 2.01571 1.07618 0
M  V30 1710 C 165.284 2.47223 -2.46337 0
M  V30 1711 C 166.632 3.1252 -2.87431 0
M  V30 1712 O 167.656 2.57547 -2.46065 0
M  V30 1713 O 166.515 4.12083 -3.58957 0
M  V30 1714 H 163.609 0.646365 -0.515889 0
M  V30 1715 H 166.155 0.727716 -1.53305 0
M  V30 1716 H 164.927 1.97204 -3.37974 0
M  V30 1717 H 164.55 3.27116 -2.2601 0
M  V30 1718 N 165.547 1.27147 0.931209 0
M  V30 1719 C 166.457 1.11372 2.06478 0
M  V30 1720 C 167.473 0.044645 1.73943 0
M  V30 1721 O 168.649 0.250417 1.99837 0
M  V30 1722 C 165.714 0.758838 3.38294 0
M  V30 1723 C 164.775 1.90841 3.84549 0
M  V30 1724 C 164.008 1.57036 5.10074 0
M  V30 1725 O 164.231 0.476645 5.68405 0
M  V30 1726 O 163.165 2.40839 5.51616 0
M  V30 1727 H 166.991 2.06493 2.22698 0
M  V30 1728 H 164.576 1.06301 1.04978 0
M  V30 1729 H 166.458 0.574098 4.17471 0
M  V30 1730 H 165.133 -0.162879 3.2329 0
M  V30 1731 H 164.04 2.14819 3.06274 0
M  V30 1732 H 165.373 2.81021 4.04089 0
M  V30 1733 N 167.025 -1.13721 1.09112 0
M  V30 1734 C 167.955 -2.21148 0.749385 0
M  V30 1735 C 168.936 -1.6792 -0.271475 0
M  V30 1736 O 170.121 -1.93693 -0.140251 0
M  V30 1737 C 167.251 -3.46905 0.165659 0
M  V30 1738 C 166.205 -4.13203 1.11567 0
M  V30 1739 C 165.531 -5.33248 0.393809 0
M  V30 1740 C 166.831 -4.60912 2.45678 0
M  V30 1741 H 168.525 -2.4999 1.64758 0
M  V30 1742 H 166.071 -1.20156 0.793626 0
M  V30 1743 H 168.024 -4.21313 -0.085466 0
M  V30 1744 H 166.748 -3.17449 -0.767714 0
M  V30 1745 H 165.407 -3.40758 1.35202 0
M  V30 1746 H 165.055 -5.00054 -0.543599 0
M  V30 1747 H 164.755 -5.78552 1.02721 0
M  V30 1748 H 166.279 -6.10413 0.150908 0
M  V30 1749 H 167.693 -5.26759 2.26269 0
M  V30 1750 H 166.09 -5.16944 3.04776 0
M  V30 1751 H 167.16 -3.75603 3.06677 0
M  V30 1752 N 168.503 -0.877838 -1.30888 0
M  V30 1753 C 169.751 -0.491723 -1.96027 0
M  V30 1754 C 170.072 0.960827 -1.69685 0
M  V30 1755 O 169.342 1.67462 -1.01654 0
M  V30 1756 H 167.922 -0.17885 -0.725273 0
M  V30 1757 H 170.584 -1.11935 -1.59551 0
M  V30 1758 H 169.68 -0.656016 -3.05128 0
M  V30 1759 N 169.982 1.44106 -0.638065 0
M  V30 1760 C 171.398 1.56672 -0.304286 0
M  V30 1761 C 171.598 1.6244 1.19228 0
M  V30 1762 O 170.654 1.57121 1.9766 0
M  V30 1763 C 171.967 2.83503 -1.00231 0
M  V30 1764 C 173.515 2.97226 -0.981116 0
M  V30 1765 C 173.99 4.26868 -1.65974 0
M  V30 1766 N 175.481 4.33698 -1.62666 0
M  V30 1767 C 176.216 5.32745 -2.12063 0
M  V30 1768 N 175.712 6.38157 -2.6968 0
M  V30 1769 N 177.505 5.24299 -2.02651 0
M  V30 1770 H 169.656 1.38605 -1.60942 0
M  V30 1771 H 171.919 0.664661 -0.675965 0
M  V30 1772 H 171.625 2.85251 -2.0573 0
M  V30 1773 H 171.499 3.73251 -0.54439 0
M  V30 1774 H 173.886 2.95027 0.0654188 0
M  V30 1775 H 173.967 2.08808 -1.47759 0
M  V30 1776 H 173.611 4.29826 -2.70576 0
M  V30 1777 H 173.541 5.14156 -1.13804 0
M  V30 1778 H 176.032 3.58138 -1.20606 0
M  V30 1779 H 176.345 7.10029 -3.05087 0
M  V30 1780 H 174.69 6.38823 -2.73734 0
M  V30 1781 H 177.881 4.4086 -1.57353 0
M  V30 1782 H 178.054 6.01334 -2.41457 0
M  V30 1783 N 171.46 0.379036 1.52974 0
M  V30 1784 C 172.41 -0.477772 2.22938 0
M  V30 1785 C 173.394 -1.03792 1.22948 0
M  V30 1786 O 174.586 -0.965725 1.48333 0
M  V30 1787 C 171.715 -1.60994 3.03209 0
M  V30 1788 C 170.801 -1.06203 4.10587 0
M  V30 1789 N 171.192 -0.238214 5.05239 0
M  V30 1790 C 169.49 -1.33554 4.25534 0
M  V30 1791 C 170.191 0.0633235 5.81666 0
M  V30 1792 N 169.167 -0.537901 5.40932 0
M  V30 1793 H 172.969 0.158295 2.93473 0
M  V30 1794 H 170.483 0.187778 1.61311 0
M  V30 1795 H 172.48 -2.23607 3.5186 0
M  V30 1796 H 171.14 -2.24893 2.34207 0
M  V30 1797 H 172.151 0.123695 5.17752 0
M  V30 1798 H 168.828 -1.97632 3.6776 0
M  V30 1799 H 170.218 0.730161 6.67921 0
M  V30 1800 N 172.938 -1.57226 0.108567 0
M  V30 1801 C 174.184 -1.95121 -0.552761 0
M  V30 1802 C 174.517 -0.991345 -1.66991 0
M  V30 1803 O 173.792 -0.0267211 -1.94482 0
M  V30 1804 C 174.075 -3.43039 -1.09528 0
M  V30 1805 C 173.928 -4.49797 0.0177332 0
M  V30 1806 C 175.247 -3.92567 -1.98945 0
M  V30 1807 H 172.366 -0.709496 -0.199461 0
M  V30 1808 H 175.008 -1.89126 0.182011 0
M  V30 1809 H 173.158 -3.48279 -1.72146 0
M  V30 1810 H 174.83 -4.56661 0.652584 0
M  V30 1811 H 173.073 -4.284 0.682309 0
M  V30 1812 H 173.744 -5.50528 -0.402919 0
M  V30 1813 H 176.22 -3.89565 -1.46214 0
M  V30 1814 H 175.096 -4.96605 -2.33827 0
M  V30 1815 H 175.357 -3.32648 -2.91201 0
M  V30 1816 N 174.416 0.165178 -1.56732 0
M  V30 1817 C 175.346 1.20651 -1.99914 0
M  V30 1818 C 176.327 1.45827 -0.875705 0
M  V30 1819 O 177.512 1.57057 -1.14223 0
M  V30 1820 C 174.642 2.54401 -2.36427 0
M  V30 1821 C 173.596 2.43782 -3.51787 0
M  V30 1822 C 172.922 3.82078 -3.7406 0
M  V30 1823 C 174.222 1.93732 -4.85041 0
M  V30 1824 H 175.916 0.847534 -2.87154 0
M  V30 1825 H 173.462 0.40625 -1.38151 0
M  V30 1826 H 175.415 3.27458 -2.65234 0
M  V30 1827 H 174.139 2.92098 -1.46103 0
M  V30 1828 H 172.798 1.73178 -3.23117 0
M  V30 1829 H 172.446 4.17179 -2.81017 0
M  V30 1830 H 172.146 3.7584 -4.51684 0
M  V30 1831 H 173.67 4.56712 -4.05274 0
M  V30 1832 H 175.084 2.56569 -5.12684 0
M  V30 1833 H 173.481 1.98428 -5.66345 0
M  V30 1834 H 174.551 0.891962 -4.76626 0
M  V30 1835 N 175.894 1.51508 0.433938 0
M  V30 1836 C 176.824 1.76016 1.53429 0
M  V30 1837 C 177.805 0.610112 1.58782 0
M  V30 1838 O 178.99 0.853177 1.74455 0
M  V30 1839 C 176.12 1.88831 2.9148 0
M  V30 1840 C 175.074 3.04288 3.00987 0
M  V30 1841 C 174.4 3.0229 4.4105 0
M  V30 1842 C 175.7 4.44193 2.74754 0
M  V30 1843 H 177.394 2.68152 1.33171 0
M  V30 1844 H 174.94 1.29035 0.639214 0
M  V30 1845 H 176.893 2.04559 3.6842 0
M  V30 1846 H 175.617 0.933455 3.12976 0
M  V30 1847 H 174.276 2.8827 2.26486 0
M  V30 1848 H 173.924 2.04576 4.59519 0
M  V30 1849 H 173.624 3.79822 4.4834 0
M  V30 1850 H 175.148 3.20116 5.1996 0
M  V30 1851 H 176.562 4.60544 3.41426 0
M  V30 1852 H 174.959 5.23457 2.9345 0
M  V30 1853 H 176.029 4.53996 1.70339 0
M  V30 1854 N 177.372 -0.689602 1.41712 0
M  V30 1855 C 178.788 -1.00093 1.24312 0
M  V30 1856 C 178.988 -2.01036 0.136729 0
M  V30 1857 O 178.044 -2.47562 -0.496918 0
M  V30 1858 C 179.357 -1.51985 2.59463 0
M  V30 1859 C 180.905 -1.63838 2.66695 0
M  V30 1860 C 181.38 -2.1913 4.02177 0
M  V30 1861 N 182.871 -2.26483 4.04054 0
M  V30 1862 C 183.606 -2.70306 5.0569 0
M  V30 1863 N 183.102 -3.13691 6.17713 0
M  V30 1864 N 184.895 -2.69923 4.9305 0
M  V30 1865 H 177.046 -0.0210029 2.1239 0
M  V30 1866 H 179.309 -0.0718733 0.945272 0
M  V30 1867 H 179.015 -0.85269 3.41207 0
M  V30 1868 H 178.889 -2.50103 2.82362 0
M  V30 1869 H 181.276 -2.29664 1.85306 0
M  V30 1870 H 181.357 -0.642492 2.476 0
M  V30 1871 H 181.001 -1.53918 4.84016 0
M  V30 1872 H 180.931 -3.19482 4.18615 0
M  V30 1873 H 183.422 -1.95874 3.23174 0
M  V30 1874 H 183.735 -3.45773 6.9113 0
M  V30 1875 H 182.08 -3.11585 6.21241 0
M  V30 1876 H 185.271 -2.35382 4.04614 0
M  V30 1877 H 185.444 -3.03758 5.72394 0
M  V30 1878 N 178.85 -1.27639 -0.924453 0
M  V30 1879 C 179.797 -1.10644 -2.0255 0
M  V30 1880 C 180.767 -0.00658438 -1.66099 0
M  V30 1881 O 181.952 -0.16952 -1.90045 0
M  V30 1882 C 179.092 -0.76309 -3.36557 0
M  V30 1883 C 178.205 -1.94091 -3.85944 0
M  V30 1884 C 177.34 -1.53914 -5.08413 0
M  V30 1885 C 176.379 -2.68425 -5.50104 0
M  V30 1886 N 175.516 -2.28815 -6.63768 0
M  V30 1887 H 180.356 -2.04858 -2.16419 0
M  V30 1888 H 177.893 -1.01974 -1.06017 0
M  V30 1889 H 179.851 -0.544822 -4.13627 0
M  V30 1890 H 178.481 0.142102 -3.22487 0
M  V30 1891 H 177.533 -2.27162 -3.05125 0
M  V30 1892 H 178.845 -2.7998 -4.12811 0
M  V30 1893 H 177.999 -1.28231 -5.92994 0
M  V30 1894 H 176.738 -0.651391 -4.8333 0
M  V30 1895 H 175.743 -2.94819 -4.64071 0
M  V30 1896 H 176.968 -3.57826 -5.7718 0
M  V30 1897 H 174.914 -1.42495 -6.40337 0
M  V30 1898 H 174.831 -3.08242 -6.90306 0
M  V30 1899 H 176.099 -2.06387 -7.51681 0
M  V30 1900 N 180.328 1.1314 -1.09713 0
M  V30 1901 C 181.605 1.80762 -0.747302 0
M  V30 1902 C 181.985 1.96663 0.767265 0
M  V30 1903 O 181.333 1.53706 1.69076 0
M  V30 1904 C 181.543 3.15606 -1.48975 0
M  V30 1905 C 182.891 3.90914 -1.65746 0
M  V30 1906 O 183.915 3.25239 -1.45251 0
M  V30 1907 O 182.774 5.08718 -1.9967 0
M  V30 1908 H 179.868 0.782103 -0.268782 0
M  V30 1909 H 182.414 1.20041 -1.19951 0
M  V30 1910 H 181.186 2.99278 -2.52088 0
M  V30 1911 H 180.809 3.84029 -1.02991 0
M  V30 1912 N 181.806 0.884767 1.30421 0
M  V30 1913 C 183.046 0.509806 1.9794 0
M  V30 1914 C 183.41 -0.923736 1.68319 0
M  V30 1915 O 184.611 -1.40481 2.29169 0
M  V30 1916 C 182.882 0.776732 3.48858 0
M  V30 1917 S 184.441 0.503843 4.35898 0
M  V30 1918 H 181.259 0.189699 0.685227 0
M  V30 1919 H 183.861 1.14399 1.58535 0
M  V30 1920 H 182.565 1.81857 3.67908 0
M  V30 1921 H 182.096 0.1301 3.93185 0
M  V30 1922 H 184.111 -0.657625 4.91823 0
M  V30 1923 N 183.284 -1.43765 0.645699 0
M  V30 1924 C 184.532 -2.01499 0.155731 0
M  V30 1925 C 184.853 -1.51151 -1.232 0
M  V30 1926 O 184.123 -0.721044 -1.82148 0
M  V30 1927 H 182.703 -0.745003 0.0545817 0
M  V30 1928 H 185.365 -1.76075 0.835677 0
M  V30 1929 H 184.461 -3.1181 0.134577 0
M  V30 1930 N 184.763 -0.387143 -1.52771 0
M  V30 1931 C 186.174 0.0873634 -1.86495 0
M  V30 1932 C 186.525 1.46336 -1.30691 0
M  V30 1933 O 185.65 2.068 -0.637409 0
M  V30 1934 C 186.245 0.165305 -3.38396 0
M  V30 1935 C 184.804 0.584101 -3.7184 0
M  V30 1936 C 183.951 -0.255279 -2.76122 0
M  V30 1937 H 186.902 -0.605104 -1.46711 0
M  V30 1938 H 186.923 0.984848 -3.67534 0
M  V30 1939 H 186.435 -0.836301 -3.78982 0
M  V30 1940 H 184.536 1.59315 -3.36823 0
M  V30 1941 H 184.649 0.343749 -4.77865 0
M  V30 1942 H 183.013 0.279126 -2.53166 0
M  V30 1943 H 183.796 -1.25482 -3.19545 0
M  V30 1944 N 186.241 1.57166 -0.116904 0
M  V30 1945 C 187.487 1.95412 0.542405 0
M  V30 1946 C 187.82 1.00019 1.66463 0
M  V30 1947 O 187.095 0.0370346 1.94465 0
M  V30 1948 C 187.378 3.43615 1.07708 0
M  V30 1949 C 187.231 4.49781 -0.0415868 0
M  V30 1950 C 188.55 3.93616 1.96861 0
M  V30 1951 H 185.669 0.710543 0.195696 0
M  V30 1952 H 188.311 1.89027 -0.192038 0
M  V30 1953 H 186.461 3.49187 1.70296 0
M  V30 1954 H 188.133 4.56308 -0.676793 0
M  V30 1955 H 186.376 4.28033 -0.705019 0
M  V30 1956 H 187.047 5.50733 0.373717 0
M  V30 1957 H 189.523 3.90335 1.44146 0
M  V30 1958 H 188.399 4.97838 2.3119 0
M  V30 1959 H 188.66 3.34188 2.89432 0
M  V30 1960 N 187.719 -0.156864 1.56817 0
M  V30 1961 C 188.996 -0.899244 1.73704 0
M  V30 1962 C 189.376 -1.99771 0.682254 0
M  V30 1963 O 188.724 -2.26515 -0.300522 0
M  V30 1964 C 188.934 -1.45075 3.17418 0
M  V30 1965 C 190.282 -1.91802 3.7881 0
M  V30 1966 O 191.306 -1.54838 3.20786 0
M  V30 1967 O 190.165 -2.5994 4.80722 0
M  V30 1968 H 187.259 -0.424267 0.709878 0
M  V30 1969 H 189.805 -0.143561 1.69092 0
M  V30 1970 H 188.577 -0.660846 3.85679 0
M  V30 1971 H 188.2 -2.27021 3.26416 0
M  V30 1972 N 189.197 -1.51736 -0.425897 0
M  V30 1973 C 190.425 -1.68794 -1.1965 0
M  V30 1974 C 190.84 -0.390164 -1.84725 0
M  V30 1975 O 190.197 0.632376 -1.71194 0
M  V30 1976 C 190.248 -2.81174 -2.27208 0
M  V30 1977 O 189.969 -4.05925 -1.64793 0
M  V30 1978 C 191.47 -3.09599 -3.17275 0
M  V30 1979 H 188.69 -0.566128 -0.360194 0
M  V30 1980 H 191.234 -1.98211 -0.503249 0
M  V30 1981 H 189.389 -2.54324 -2.9223 0
M  V30 1982 H 189.803 -4.68423 -2.35967 0
M  V30 1983 H 191.277 -3.91786 -3.88854 0
M  V30 1984 H 191.754 -2.22468 -3.78688 0
M  V30 1985 H 192.36 -3.38151 -2.57941 0
M  V30 1986 N 190.675 0.682077 -1.42076 0
M  V30 1987 C 191.622 1.79578 -1.44984 0
M  V30 1988 C 192.592 1.6332 -0.302614 0
M  V30 1989 O 193.777 1.83978 -0.505633 0
M  V30 1990 C 190.917 3.1756 -1.35091 0
M  V30 1991 C 190.03 3.45156 -2.59791 0
M  V30 1992 C 189.165 4.72826 -2.42093 0
M  V30 1993 C 188.204 4.93433 -3.62202 0
M  V30 1994 N 187.341 6.12338 -3.43491 0
M  V30 1995 H 192.181 1.76427 -2.40161 0
M  V30 1996 H 189.718 0.861376 -1.19242 0
M  V30 1997 H 191.676 3.97287 -1.27354 0
M  V30 1998 H 190.306 3.19854 -0.435133 0
M  V30 1999 H 189.358 2.59736 -2.77923 0
M  V30 2000 H 190.67 3.5628 -3.49094 0
M  V30 2001 H 189.824 5.60631 -2.319 0
M  V30 2002 H 188.563 4.63973 -1.50268 0
M  V30 2003 H 187.568 4.04073 -3.72834 0
M  V30 2004 H 188.793 5.04136 -4.54998 0
M  V30 2005 H 186.739 6.04672 -2.54377 0
M  V30 2006 H 186.656 6.2429 -4.26377 0
M  V30 2007 H 187.924 7.02841 -3.37097 0
M  V30 2008 N 192.153 1.28127 0.917671 0
M  V30 2009 C 193.399 1.15223 1.66888 0
M  V30 2010 C 193.732 -0.299293 1.9188 0
M  V30 2011 O 193.007 -1.21805 1.51637 0
M  V30 2012 C 193.29 1.94706 3.02922 0
M  V30 2013 C 193.143 3.47898 2.85109 0
M  V30 2014 C 194.462 1.75939 4.03402 0
M  V30 2015 H 191.581 0.419946 0.605652 0
M  V30 2016 H 194.223 1.57398 1.06423 0
M  V30 2017 H 192.373 1.58864 3.54534 0
M  V30 2018 H 194.045 3.93624 2.40537 0
M  V30 2019 H 192.288 3.7373 2.20246 0
M  V30 2020 H 192.959 3.98765 3.81694 0
M  V30 2021 H 195.435 2.07209 3.60837 0
M  V30 2022 H 194.311 2.33931 4.96556 0
M  V30 2023 H 194.572 0.709877 4.36364 0
M  V30 2024 N 193.631 -1.12557 1.10312 0
M  V30 2025 C 195.042 -1.65574 0.862678 0
M  V30 2026 C 195.393 -1.86566 -0.607256 0
M  V30 2027 O 194.518 -1.59121 -1.46662 0
M  V30 2028 C 195.113 -3.00776 1.55947 0
M  V30 2029 C 193.672 -3.50748 1.36576 0
M  V30 2030 C 192.819 -2.25797 1.60968 0
M  V30 2031 H 195.77 -0.963552 1.26101 0
M  V30 2032 H 195.791 -3.67185 0.997753 0
M  V30 2033 H 195.303 -2.85465 2.62928 0
M  V30 2034 H 193.404 -3.71245 0.317531 0
M  V30 2035 H 193.517 -4.30289 2.10686 0
M  V30 2036 H 191.881 -2.32841 1.03234 0
M  V30 2037 H 192.664 -2.13043 2.69198 0
M  V30 2038 N 195.109 -0.891671 -1.2995 0
M  V30 2039 C 196.357 -0.512486 -1.95494 0
M  V30 2040 C 196.678 0.942776 -1.70695 0
M  V30 2041 O 195.948 1.66374 -1.03424 0
M  V30 2042 H 194.528 -0.186533 -0.723336 0
M  V30 2043 H 197.19 -1.13621 -1.58355 0
M  V30 2044 H 196.286 -0.688342 -3.04415 0
M  V30 2045 N 196.587 1.43421 -0.653314 0
M  V30 2046 C 197.55 2.29182 0.0287951 0
M  V30 2047 C 198.55 1.42213 0.750465 0
M  V30 2048 O 199.74 1.63843 0.591701 0
M  V30 2049 C 196.872 3.24278 1.05151 0
M  V30 2050 H 198.065 2.90985 -0.725786 0
M  V30 2051 H 195.618 1.50702 -0.414545 0
M  V30 2052 H 196.353 2.6737 1.83532 0
M  V30 2053 H 196.138 3.88396 0.537687 0
M  V30 2054 H 197.628 3.88647 1.52786 0
M  V30 2055 N 198.065 0.39524 1.52563 0
M  V30 2056 C 199.313 -0.184678 2.01254 0
M  V30 2057 C 199.634 -1.46822 1.28329 0
M  V30 2058 O 198.904 -1.91666 0.405094 0
M  V30 2059 H 197.484 -0.0712355 0.743596 0
M  V30 2060 H 200.146 0.528293 1.87603 0
M  V30 2061 H 199.242 -0.390681 3.09645 0
M  V30 2062 N 199.544 -1.57102 0.125237 0
M  V30 2063 C 200.454 -2.19191 -0.8362 0
M  V30 2064 C 201.47 -1.16985 -1.28805 0
M  V30 2065 O 202.646 -1.49479 -1.34974 0
M  V30 2066 C 199.711 -2.78407 -2.06617 0
M  V30 2067 C 198.772 -3.9567 -1.66565 0
M  V30 2068 C 198.005 -4.52052 -2.83698 0
M  V30 2069 O 198.228 -4.07326 -3.99302 0
M  V30 2070 O 197.162 -5.42645 -2.60423 0
M  V30 2071 H 200.988 -3.01816 -0.337776 0
M  V30 2072 H 198.573 -1.4906 -0.100695 0
M  V30 2073 H 200.455 -3.16129 -2.7864 0
M  V30 2074 H 199.13 -1.9881 -2.55453 0
M  V30 2075 H 198.037 -3.62705 -0.916296 0
M  V30 2076 H 199.37 -4.76722 -1.22464 0
M  V30 2077 N 201.022 0.148545 -1.56898 0
M  V30 2078 C 202.433 0.708766 -1.72723 0
M  V30 2079 C 202.784 1.81734 -0.739395 0
M  V30 2080 O 201.909 2.16194 0.0943169 0
M  V30 2081 C 202.504 1.29245 -3.13179 0
M  V30 2082 C 201.063 1.79925 -3.30611 0
M  V30 2083 C 200.21 0.687111 -2.68652 0
M  V30 2084 H 203.161 -0.0771063 -1.58513 0
M  V30 2085 H 203.182 2.16224 -3.13093 0
M  V30 2086 H 202.694 0.485382 -3.85053 0
M  V30 2087 H 200.795 2.63203 -2.63732 0
M  V30 2088 H 200.908 1.92903 -4.38549 0
M  V30 2089 H 199.272 1.11335 -2.29078 0
M  V30 2090 H 200.055 -0.108483 -3.43129 0
M  V30 2091 N 202.5 1.5196 0.417844 0
M  V30 2092 C 203.447 1.74678 1.50852 0
M  V30 2093 C 204.417 0.588947 1.55308 0
M  V30 2094 O 205.602 0.825544 1.72016 0
M  V30 2095 C 202.742 1.89544 2.88387 0
M  V30 2096 C 201.855 3.17166 2.93309 0
M  V30 2097 C 200.99 3.22513 4.22088 0
M  V30 2098 C 200.029 4.44372 4.20951 0
M  V30 2099 N 199.166 4.47161 5.41287 0
M  V30 2100 H 204.006 2.67768 1.30783 0
M  V30 2101 H 201.543 1.32689 0.63498 0
M  V30 2102 H 203.501 1.96146 3.68216 0
M  V30 2103 H 202.131 0.998424 3.06971 0
M  V30 2104 H 201.183 3.19778 2.06024 0
M  V30 2105 H 202.495 4.07021 2.88332 0
M  V30 2106 H 201.649 3.28139 5.10303 0
M  V30 2107 H 200.388 2.30581 4.29748 0
M  V30 2108 H 199.393 4.38902 3.31127 0
M  V30 2109 H 200.618 5.3759 4.14938 0
M  V30 2110 H 198.564 3.58108 5.49632 0
M  V30 2111 H 198.481 5.3085 5.3827 0
M  V30 2112 H 199.749 4.57005 6.3148 0
M  V30 2113 N 203.978 -0.674533 1.42435 0
M  V30 2114 C 205.203 -1.46784 1.46524 0
M  V30 2115 C 205.628 -1.87938 0.078066 0
M  V30 2116 O 204.986 -1.56014 -0.92354 0
M  V30 2117 C 205.034 -2.69307 2.39805 0
M  V30 2118 O 204.138 -3.67587 1.86959 0
M  V30 2119 H 203.479 -0.440959 0.496439 0
M  V30 2120 H 206.009 -0.827326 1.87127 0
M  V30 2121 H 206.019 -3.17374 2.56393 0
M  V30 2122 H 204.694 -2.38692 3.40586 0
M  V30 2123 H 203.271 -3.2662 1.79927 0
M  V30 2124 N 205.456 -1.28612 -0.910864 0
M  V30 2125 C 206.419 -1.12803 -1.9952 0
M  V30 2126 C 207.419 -0.0668264 -1.60661 0
M  V30 2127 O 208.609 -0.312847 -1.71368 0
M  V30 2128 C 205.741 -0.72254 -3.33155 0
M  V30 2129 H 206.934 -2.09109 -2.14973 0
M  V30 2130 H 204.487 -1.11639 -1.09391 0
M  V30 2131 H 205.222 0.241152 -3.23402 0
M  V30 2132 H 205.007 -1.48916 -3.62721 0
M  V30 2133 H 206.497 -0.634666 -4.12749 0
M  V30 2134 N 206.934 1.1197 -1.10907 0
M  V30 2135 C 208.181 1.83588 -0.854507 0
M  V30 2136 C 208.509 1.84357 0.6199 0
M  V30 2137 O 207.764 1.28809 1.47332 0
M  V30 2138 C 208.063 3.30749 -1.35425 0
M  V30 2139 C 207.729 3.50146 -2.84093 0
M  V30 2140 C 206.391 3.55148 -3.2469 0
M  V30 2141 C 208.743 3.56857 -3.79872 0
M  V30 2142 C 206.071 3.6441 -4.59806 0
M  V30 2143 C 208.423 3.6765 -5.14797 0
M  V30 2144 C 207.087 3.7091 -5.54961 0
M  V30 2145 H 206.357 0.671795 -0.312686 0
M  V30 2146 H 209.004 1.32091 -1.38652 0
M  V30 2147 H 207.309 3.84703 -0.742361 0
M  V30 2148 H 209.006 3.8464 -1.1337 0
M  V30 2149 H 205.596 3.46919 -2.51685 0
M  V30 2150 H 209.78 3.52258 -3.49611 0
M  V30 2151 H 205.036 3.65208 -4.9034 0
M  V30 2152 H 209.21 3.71786 -5.88853 0
M  V30 2153 H 206.837 3.7784 -6.59652 0
M  V30 2154 N 208.412 0.89855 1.29475 0
M  V30 2155 C 209.64 0.539261 1.99749 0
M  V30 2156 C 210.055 -0.875716 1.67262 0
M  V30 2157 O 209.412 -1.57786 0.917049 0
M  V30 2158 C 209.463 0.72061 3.54245 0
M  V30 2159 O 209.184 2.07989 3.8558 0
M  V30 2160 C 210.685 0.366118 4.41786 0
M  V30 2161 H 207.905 0.207047 0.638258 0
M  V30 2162 H 210.449 1.20758 1.65039 0
M  V30 2163 H 208.604 0.0994862 3.87272 0
M  V30 2164 H 209.018 2.10841 4.80257 0
M  V30 2165 H 210.492 0.543848 5.49314 0
M  V30 2166 H 210.969 -0.696763 4.33638 0
M  V30 2167 H 211.575 0.964135 4.14228 0
M  V30 2168 N 209.89 -1.43072 0.660911 0
M  V30 2169 C 210.822 -2.29108 -0.0647641 0
M  V30 2170 C 211.835 -1.42928 -0.779448 0
M  V30 2171 O 213.024 -1.66788 -0.635921 0
M  V30 2172 C 210.124 -3.20032 -1.11503 0
M  V30 2173 C 209.297 -4.34792 -0.476955 0
M  V30 2174 C 208.356 -5.06534 -1.42513 0
M  V30 2175 O 207.382 -5.61538 -0.930771 0
M  V30 2176 N 208.584 -5.1075 -2.75889 0
M  V30 2177 H 211.349 -2.92029 0.673731 0
M  V30 2178 H 208.91 -1.53846 0.50427 0
M  V30 2179 H 210.902 -3.64892 -1.75032 0
M  V30 2180 H 209.472 -2.58658 -1.75541 0
M  V30 2181 H 208.692 -3.92752 0.337572 0
M  V30 2182 H 209.98 -5.0879 -0.0318525 0
M  V30 2183 H 209.378 -4.67447 -3.18606 0
M  V30 2184 H 207.935 -5.59302 -3.347 0
M  V30 2185 N 211.368 -0.403325 -1.52352 0
M  V30 2186 C 212.616 0.174003 -2.0135 0
M  V30 2187 C 212.937 1.46139 -1.29106 0
M  V30 2188 O 212.207 1.91448 -0.415253 0
M  V30 2189 H 210.787 0.0672911 -0.743963 0
M  V30 2190 H 213.449 -0.538235 -1.87321 0
M  V30 2191 H 212.545 0.374254 -3.09848 0
M  V30 2192 N 212.846 1.57033 -0.133567 0
M  V30 2193 C 214.071 2.00475 0.531477 0
M  V30 2194 C 214.496 1.01291 1.58499 0
M  V30 2195 O 213.854 -0.0133279 1.81295 0
M  V30 2196 C 213.902 3.42729 1.12113 0
M  V30 2197 O 213.006 3.46498 2.23636 0
M  V30 2198 H 212.347 0.650876 0.131362 0
M  V30 2199 H 214.877 2.03344 -0.22634 0
M  V30 2200 H 214.887 3.81246 1.4531 0
M  V30 2201 H 213.562 4.14428 0.349557 0
M  V30 2202 H 212.139 3.19811 1.91769 0
M  V30 2203 N 214.325 -0.140222 1.56975 0
M  V30 2204 C 215.288 -1.15689 1.97861 0
M  V30 2205 C 216.288 -1.3549 0.865974 0
M  V30 2206 O 217.478 -1.32367 1.13246 0
M  V30 2207 C 214.61 -2.51582 2.30042 0
M  V30 2208 H 215.803 -0.805971 2.88867 0
M  V30 2209 H 213.356 -0.383801 1.51515 0
M  V30 2210 H 214.091 -2.91632 1.41849 0
M  V30 2211 H 213.876 -2.38569 3.11171 0
M  V30 2212 H 215.366 -3.24792 2.62488 0
M  V30 2213 N 215.803 -1.52179 -0.40978 0
M  V30 2214 C 216.736 -1.70196 -1.52015 0
M  V30 2215 C 217.714 -0.549542 -1.53032 0
M  V30 2216 O 218.898 -0.776815 -1.71749 0
M  V30 2217 C 216.025 -1.74069 -2.90547 0
M  V30 2218 C 215.071 -2.95601 -3.07445 0
M  V30 2219 S 215.904 -4.55956 -2.80827 0
M  V30 2220 C 217.06 -4.62614 -4.21591 0
M  V30 2221 H 217.293 -2.64109 -1.36504 0
M  V30 2222 H 214.826 -1.4221 -0.601312 0
M  V30 2223 H 216.784 -1.76985 -3.70387 0
M  V30 2224 H 215.445 -0.812835 -3.034 0
M  V30 2225 H 214.638 -2.94791 -4.08796 0
M  V30 2226 H 214.24 -2.90569 -2.35469 0
M  V30 2227 H 216.532 -4.39951 -5.15218 0
M  V30 2228 H 217.475 -5.64548 -4.27424 0
M  V30 2229 H 217.883 -3.91654 -4.06531 0
M  V30 2230 N 217.281 0.66697 -1.42791 0
M  V30 2231 C 218.53 1.42278 -1.42968 0
M  V30 2232 C 218.843 1.9553 -0.0524489 0
M  V30 2233 O 220.049 2.71414 0.068363 0
M  V30 2234 C 218.505 2.57418 -2.51524 0
M  V30 2235 C 218.113 2.10832 -3.9529 0
M  V30 2236 C 219.857 3.34878 -2.60877 0
M  V30 2237 C 217.764 3.23101 -4.95338 0
M  V30 2238 H 216.694 0.534533 -0.531781 0
M  V30 2239 H 219.345 0.721302 -1.68729 0
M  V30 2240 H 217.727 3.29971 -2.18941 0
M  V30 2241 H 218.901 1.4538 -4.37266 0
M  V30 2242 H 217.216 1.46289 -3.89857 0
M  V30 2243 H 219.813 4.18505 -3.32802 0
M  V30 2244 H 220.156 3.81993 -1.6549 0
M  V30 2245 H 220.689 2.69398 -2.92693 0
M  V30 2246 H 217.428 2.80969 -5.9223 0
M  V30 2247 H 216.948 3.87309 -4.57987 0
M  V30 2248 H 218.627 3.88447 -5.17415 0
M  V30 2249 N 218.759 1.29093 0.90403 0
M  V30 2250 C 219.984 1.19809 1.69294 0
M  V30 2251 C 220.409 -0.238481 1.86582 0
M  V30 2252 O 219.767 -1.1723 1.383 0
M  V30 2253 C 219.815 1.91202 3.05736 0
M  V30 2254 O 218.919 1.22611 3.93752 0
M  V30 2255 H 218.26 0.415385 0.518027 0
M  V30 2256 H 220.79 1.70586 1.12967 0
M  V30 2257 H 220.8 1.99487 3.55906 0
M  V30 2258 H 219.475 2.95692 2.92471 0
M  V30 2259 H 218.052 1.22554 3.52186 0
M  V30 2260 N 220.237 -1.11381 1.11499 0
M  V30 2261 C 221.462 -1.87475 0.887019 0
M  V30 2262 C 221.887 -1.79639 -0.557796 0
M  V30 2263 O 221.245 -1.15924 -1.39396 0
M  V30 2264 C 221.293 -3.34213 1.35403 0
M  V30 2265 O 220.397 -4.0903 0.526146 0
M  V30 2266 H 219.738 -0.582099 0.319463 0
M  V30 2267 H 222.268 -1.40785 1.48461 0
M  V30 2268 H 222.278 -3.8506 1.34881 0
M  V30 2269 H 220.953 -3.39232 2.40612 0
M  V30 2270 H 219.53 -3.68082 0.597522 0
M  V30 2271 N 221.715 -0.905404 -1.28997 0
M  V30 2272 C 222.645 -0.404212 -2.29975 0
M  V30 2273 C 223.626 0.523784 -1.61835 0
M  V30 2274 O 224.811 0.433298 -1.89304 0
M  V30 2275 C 221.941 0.364042 -3.45387 0
M  V30 2276 C 220.895 -0.474048 -4.25367 0
M  V30 2277 C 220.221 0.422045 -5.33032 0
M  V30 2278 C 221.521 -1.72696 -4.92923 0
M  V30 2279 H 223.215 -1.24807 -2.72146 0
M  V30 2280 H 220.761 -0.601585 -1.30832 0
M  V30 2281 H 222.714 0.725447 -4.15109 0
M  V30 2282 H 221.438 1.24174 -3.02074 0
M  V30 2283 H 220.097 -0.81786 -3.57361 0
M  V30 2284 H 219.745 1.29804 -4.85963 0
M  V30 2285 H 219.445 -0.135057 -5.87445 0
M  V30 2286 H 220.969 0.779517 -6.05604 0
M  V30 2287 H 222.383 -1.43495 -5.55051 0
M  V30 2288 H 220.78 -2.22582 -5.57295 0
M  V30 2289 H 221.85 -2.45964 -4.17887 0
M  V30 2290 N 223.193 1.4272 -0.668489 0
M  V30 2291 C 224.418 2.06484 -0.194758 0
M  V30 2292 C 224.843 1.49862 1.13679 0
M  V30 2293 O 224.201 0.614582 1.70565 0
M  V30 2294 C 224.249 3.60353 -0.133546 0
M  V30 2295 O 223.353 4.02464 0.899806 0
M  V30 2296 H 222.694 0.656137 -0.10188 0
M  V30 2297 H 225.224 1.82964 -0.915722 0
M  V30 2298 H 225.234 4.07976 0.0447041 0
M  V30 2299 H 223.909 4.00938 -1.1055 0
M  V30 2300 H 222.486 3.66402 0.693109 0
M  V30 2301 N 224.671 0.411399 1.52136 0
M  V30 2302 C 225.603 -0.448386 2.24771 0
M  V30 2303 C 226.616 -1.00828 1.27818 0
M  V30 2304 O 227.805 -0.906841 1.53749 0
M  V30 2305 C 224.905 -1.63636 2.96777 0
M  V30 2306 C 224.078 -1.19995 4.20618 0
M  V30 2307 C 223.137 -2.25509 4.75428 0
M  V30 2308 O 222.163 -1.86007 5.3795 0
M  V30 2309 N 223.365 -3.577 4.57199 0
M  V30 2310 H 226.13 0.174025 2.99194 0
M  V30 2311 H 223.691 0.238897 1.60128 0
M  V30 2312 H 225.683 -2.33793 3.30338 0
M  V30 2313 H 224.253 -2.16465 2.25526 0
M  V30 2314 H 223.473 -0.326421 3.92846 0
M  V30 2315 H 224.761 -0.885365 5.01038 0
M  V30 2316 H 224.159 -3.92543 4.07341 0
M  V30 2317 H 222.716 -4.23827 4.95191 0
M  V30 2318 N 226.149 -1.5696 0.141893 0
M  V30 2319 C 227.097 -2.17784 -0.816874 0
M  V30 2320 C 228.091 -1.1334 -1.25899 0
M  V30 2321 O 229.297 -1.316 -1.22806 0
M  V30 2322 H 225.672 -0.697278 -0.281615 0
M  V30 2323 H 227.643 -2.97087 -0.279621 0
M  V30 2324 C 226.392 -2.80983 -2.04802 0
M  V30 2325 H 225.715 -3.61062 -1.7168 0
M  V30 2326 H 227.155 -3.2705 -2.69841 0
M  V30 2327 C 225.614 -1.79228 -2.8527 0
M  V30 2328 O 226.144 -1.25962 -3.8144 0
M  V30 2329 N 224.35 -1.48647 -2.49704 0
M  V30 2330 H 223.897 -1.92155 -1.71564 0
M  V30 2331 H 223.855 -0.808115 -3.03837 0
M  V30 2332 N 227.627 0.131896 -1.57047 0
M  V30 2333 C 228.577 1.1679 -1.95816 0
M  V30 2334 C 229.561 1.37756 -0.831393 0
M  V30 2335 O 230.753 1.39065 -1.09499 0
M  V30 2336 C 227.882 2.49778 -2.35512 0
M  V30 2337 C 226.968 2.32342 -3.54793 0
M  V30 2338 N 227.359 1.8469 -4.70875 0
M  V30 2339 C 225.657 2.63043 -3.60173 0
M  V30 2340 C 226.358 1.80656 -5.52936 0
M  V30 2341 N 225.334 2.24528 -4.95064 0
M  V30 2342 H 229.136 0.791818 -2.83033 0
M  V30 2343 H 226.65 0.339791 -1.58805 0
M  V30 2344 H 228.647 3.24692 -2.61498 0
M  V30 2345 H 227.307 2.88156 -1.49654 0
M  V30 2346 H 228.318 1.54429 -4.9434 0
M  V30 2347 H 224.995 3.05193 -2.84892 0
M  V30 2348 H 226.385 1.45178 -6.56028 0
M  V30 2349 N 229.106 1.52395 0.401703 0
M  V30 2350 C 230.517 1.58899 0.980202 0
M  V30 2351 C 230.868 0.434032 1.91339 0
M  V30 2352 O 229.993 -0.444619 2.11783 0
M  V30 2353 C 230.588 2.87994 1.78451 0
M  V30 2354 C 229.147 2.96953 2.31292 0
M  V30 2355 C 228.294 2.53903 1.11483 0
M  V30 2356 H 231.245 1.57657 0.18168 0
M  V30 2357 H 231.266 2.73765 2.64259 0
M  V30 2358 H 230.778 3.72035 1.10506 0
M  V30 2359 H 228.879 2.17422 3.02586 0
M  V30 2360 H 228.992 4.01344 2.61649 0
M  V30 2361 H 227.356 2.07925 1.47104 0
M  V30 2362 H 228.139 3.40326 0.450928 0
M  V30 2363 N 230.584 -0.659388 1.43143 0
M  V30 2364 C 231.861 -1.41627 1.34912 0
M  V30 2365 C 232.241 -2.11099 -0.00607785 0
M  V30 2366 O 231.589 -2.04353 -1.02236 0
M  V30 2367 C 231.799 -2.40604 2.52805 0
M  V30 2368 C 233.147 -3.04789 2.95616 0
M  V30 2369 O 234.171 -2.50932 2.52807 0
M  V30 2370 O 233.03 -4.02421 3.69756 0
M  V30 2371 H 230.124 -0.63246 0.532844 0
M  V30 2372 H 232.67 -0.686814 1.5518 0
M  V30 2373 H 231.442 -1.88174 3.43083 0
M  V30 2374 H 231.065 -3.21009 2.34604 0
M  V30 2375 N 232.062 -1.29571 -0.897171 0
M  V30 2376 C 233.01 -1.14802 -2.02295 0
M  V30 2377 C 234.004 -0.0629637 -1.69283 0
M  V30 2378 O 235.21 -0.222945 -1.78614 0
M  V30 2379 H 231.585 -0.354692 -0.663097 0
M  V30 2380 H 233.556 -2.10108 -2.11889 0
M  V30 2381 C 232.305 -0.843966 -3.37302 0
M  V30 2382 H 231.628 -1.67093 -3.63208 0
M  V30 2383 H 233.068 -0.780672 -4.16751 0
M  V30 2384 C 231.527 0.452843 -3.33843 0
M  V30 2385 O 232.057 1.47813 -3.73516 0
M  V30 2386 N 230.263 0.459601 -2.86943 0
M  V30 2387 H 229.81 -0.375213 -2.54853 0
M  V30 2388 H 229.768 1.32726 -2.85011 0
M  V30 2389 N 233.54 1.10788 -1.12088 0
M  V30 2390 C 234.956 1.34691 -0.856186 0
M  V30 2391 C 235.156 1.94791 0.515615 0
M  V30 2392 O 234.212 2.18524 1.26505 0
M  V30 2393 C 235.525 2.27208 -1.9697 0
M  V30 2394 C 237.073 2.40755 -2.00016 0
M  V30 2395 C 237.548 3.36598 -3.1059 0
M  V30 2396 N 239.039 3.44164 -3.10008 0
M  V30 2397 C 239.774 4.18284 -3.92206 0
M  V30 2398 N 239.27 4.95322 -4.84384 0
M  V30 2399 N 241.063 4.13865 -3.80357 0
M  V30 2400 H 233.214 0.70144 -2.00483 0
M  V30 2401 H 235.477 0.371405 -0.872217 0
M  V30 2402 H 235.183 1.90251 -2.958 0
M  V30 2403 H 235.057 3.27485 -1.87172 0
M  V30 2404 H 237.444 2.76982 -1.01808 0
M  V30 2405 H 237.525 1.40305 -2.13888 0
M  V30 2406 H 237.169 3.01096 -4.09028 0
M  V30 2407 H 237.099 4.36918 -2.93956 0
M  V30 2408 H 239.59 2.8922 -2.43228 0
M  V30 2409 H 239.903 5.49267 -5.43623 0
M  V30 2410 H 238.248 4.94459 -4.884 0
M  V30 2411 H 241.439 3.52773 -3.07683 0
M  V30 2412 H 241.612 4.71372 -4.44649 0
M  V30 2413 N 235.018 0.912232 1.28515 0
M  V30 2414 C 235.966 0.389597 2.29314 0
M  V30 2415 C 236.96 -0.517915 1.61289 0
M  V30 2416 O 238.166 -0.399328 1.75515 0
M  V30 2417 H 234.541 0.107386 0.744293 0
M  V30 2418 H 236.512 1.25286 2.70825 0
M  V30 2419 C 235.261 -0.356496 3.45868 0
M  V30 2420 H 234.584 0.332608 3.98414 0
M  V30 2421 H 236.024 -0.686851 4.184 0
M  V30 2422 C 234.483 -1.56383 2.98406 0
M  V30 2423 O 235.013 -2.66294 3.00749 0
M  V30 2424 N 233.219 -1.41029 2.54085 0
M  V30 2425 H 232.766 -0.516089 2.52377 0
M  V30 2426 H 232.724 -2.21939 2.22689 0
M  V30 2427 N 236.496 -1.42363 0.676048 0
M  V30 2428 C 237.406 -2.346 -0.00153389 0
M  V30 2429 C 238.422 -1.5516 -0.787485 0
M  V30 2430 O 239.598 -1.87723 -0.729521 0
M  V30 2431 C 236.663 -3.33705 -0.940298 0
M  V30 2432 C 235.724 -4.29042 -0.148739 0
M  V30 2433 C 234.957 -5.23413 -1.04279 0
M  V30 2434 O 235.18 -5.22749 -2.28232 0
M  V30 2435 O 234.114 -5.99795 -0.502925 0
M  V30 2436 H 237.94 -2.94082 0.758268 0
M  V30 2437 H 235.525 -1.42888 0.436289 0
M  V30 2438 H 237.407 -3.94586 -1.47917 0
M  V30 2439 H 236.082 -2.76695 -1.67993 0
M  V30 2440 H 234.989 -3.71571 0.43427 0
M  V30 2441 H 236.322 -4.89097 0.551805 0
M  V30 2442 N 237.974 -0.419461 -1.51915 0
M  V30 2443 C 239.202 0.152136 -2.0634 0
M  V30 2444 C 239.617 1.37988 -1.28859 0
M  V30 2445 O 238.974 1.79243 -0.343232 0
M  V30 2446 C 239.025 0.492266 -3.58133 0
M  V30 2447 O 238.746 -0.686736 -4.32684 0
M  V30 2448 C 240.247 1.11648 -4.2901 0
M  V30 2449 H 237.467 0.0158325 -0.670813 0
M  V30 2450 H 240.011 -0.593394 -1.95702 0
M  V30 2451 H 238.166 1.18769 -3.68745 0
M  V30 2452 H 238.58 -0.400341 -5.2297 0
M  V30 2453 H 240.054 1.3046 -5.36362 0
M  V30 2454 H 240.531 2.09251 -3.86148 0
M  V30 2455 H 241.137 0.460958 -4.22795 0
M  V30 2456 N 239.452 1.56882 -0.150215 0
M  V30 2457 C 240.699 1.96228 0.500093 0
M  V30 2458 C 241.027 1.03522 1.64661 0
M  V30 2459 O 240.282 0.0650683 1.95592 0
M  V30 2460 C 240.581 3.41801 1.04437 0
M  V30 2461 C 240.247 4.50897 0.0159671 0
M  V30 2462 C 238.909 4.8046 -0.266731 0
M  V30 2463 C 241.261 5.16703 -0.683192 0
M  V30 2464 C 238.589 5.73135 -1.25434 0
M  V30 2465 C 240.941 6.10441 -1.65964 0
M  V30 2466 C 239.605 6.38382 -1.95 0
M  V30 2467 H 238.875 0.718048 0.182997 0
M  V30 2468 H 241.522 1.90019 -0.237724 0
M  V30 2469 H 239.827 3.44857 1.85959 0
M  V30 2470 H 241.524 3.69573 1.55618 0
M  V30 2471 H 238.114 4.27891 0.246485 0
M  V30 2472 H 242.298 4.93993 -0.477983 0
M  V30 2473 H 237.554 5.93074 -1.48571 0
M  V30 2474 H 241.728 6.60507 -2.20689 0
M  V30 2475 H 239.355 7.09996 -2.71679 0
M  V30 2476 N 240.93 -0.123565 1.57115 0
M  V30 2477 C 242.155 -0.850398 1.89164 0
M  V30 2478 C 242.58 -1.7286 0.741688 0
M  V30 2479 O 241.938 -1.78665 -0.307958 0
M  V30 2480 C 241.986 -1.66353 3.19936 0
M  V30 2481 O 241.09 -2.77004 3.0552 0
M  V30 2482 H 240.431 -0.235454 0.620852 0
M  V30 2483 H 242.961 -0.107335 2.04318 0
M  V30 2484 H 242.971 -2.05372 3.52543 0
M  V30 2485 H 241.646 -1.01881 4.03228 0
M  V30 2486 H 240.223 -2.41221 2.84371 0
M  V30 2487 N 242.408 -1.52605 -0.393616 0
M  V30 2488 C 243.633 -1.71592 -1.16495 0
M  V30 2489 C 244.058 -0.43133 -1.83088 0
M  V30 2490 O 243.416 0.612523 -1.7064 0
M  V30 2491 C 243.464 -2.86318 -2.19213 0
M  V30 2492 O 242.568 -2.52969 -3.257 0
M  V30 2493 H 241.909 -0.570734 -0.33935 0
M  V30 2494 H 244.439 -1.99377 -0.459324 0
M  V30 2495 H 244.449 -3.1168 -2.63286 0
M  V30 2496 H 243.124 -3.79511 -1.7013 0
M  V30 2497 H 241.701 -2.38332 -2.86797 0
M  V30 2498 N 243.887 0.651787 -1.4349 0
M  V30 2499 C 245.133 1.41376 -1.45398 0
M  V30 2500 C 245.466 1.94041 -0.0784823 0
M  V30 2501 O 244.741 1.72379 0.900878 0
M  V30 2502 C 245.024 2.59414 -2.49752 0
M  V30 2503 C 244.877 2.12232 -3.96582 0
M  V30 2504 C 246.196 3.61626 -2.50827 0
M  V30 2505 H 243.315 0.512719 -0.529422 0
M  V30 2506 H 245.957 0.738796 -1.75048 0
M  V30 2507 H 244.107 3.16997 -2.246 0
M  V30 2508 H 245.779 1.59639 -4.32797 0
M  V30 2509 H 244.022 1.43592 -4.09346 0
M  V30 2510 H 244.693 2.9712 -4.65214 0
M  V30 2511 H 247.169 3.13805 -2.7325 0
M  V30 2512 H 246.045 4.41766 -3.25783 0
M  V30 2513 H 246.306 4.14314 -1.5426 0
M  V30 2514 N 245.365 1.30045 0.890287 0
M  V30 2515 C 246.614 1.17929 1.63633 0
M  V30 2516 C 246.927 -0.266204 1.9378 0
M  V30 2517 O 248.133 -0.508804 2.6669 0
M  V30 2518 C 246.589 2.06317 2.94892 0
M  V30 2519 C 246.197 3.55745 2.72305 0
M  V30 2520 C 247.941 2.0295 3.72843 0
M  V30 2521 C 245.848 4.36205 3.99348 0
M  V30 2522 H 244.778 0.437782 0.613892 0
M  V30 2523 H 247.429 1.54754 0.986075 0
M  V30 2524 H 245.811 1.6237 3.61182 0
M  V30 2525 H 246.985 4.07805 2.1455 0
M  V30 2526 H 245.3 3.6088 2.07737 0
M  V30 2527 H 247.897 2.60319 4.67053 0
M  V30 2528 H 248.24 1.0117 4.0382 0
M  V30 2529 H 248.773 2.4499 3.13408 0
M  V30 2530 H 245.512 5.38659 3.73533 0
M  V30 2531 H 245.032 3.8891 4.56628 0
M  V30 2532 H 246.711 4.47362 4.67415 0
M  V30 2533 N 246.843 -1.10192 1.12674 0
M  V30 2534 C 248.068 -1.86523 0.906853 0
M  V30 2535 C 248.493 -1.80221 -0.538711 0
M  V30 2536 O 247.851 -1.17396 -1.38158 0
M  V30 2537 C 247.899 -3.32758 1.3894 0
M  V30 2538 O 247.003 -4.08449 0.5695 0
M  V30 2539 H 246.344 -0.578678 0.325619 0
M  V30 2540 H 248.874 -1.39203 1.49946 0
M  V30 2541 H 248.884 -3.83608 1.38958 0
M  V30 2542 H 247.559 -3.36661 2.44197 0
M  V30 2543 H 246.136 -3.67427 0.636528 0
M  V30 2544 N 248.321 -0.919034 -1.28029 0
M  V30 2545 C 249.251 -0.428581 -2.29533 0
M  V30 2546 C 250.232 0.50659 -1.62381 0
M  V30 2547 O 251.417 0.413195 -1.89753 0
M  V30 2548 C 248.547 0.327388 -3.45753 0
M  V30 2549 C 247.501 -0.519137 -4.2484 0
M  V30 2550 C 246.827 0.365486 -5.33449 0
M  V30 2551 C 248.127 -1.77914 -4.91064 0
M  V30 2552 H 249.821 -1.27687 -2.70807 0
M  V30 2553 H 247.367 -0.615428 -1.30186 0
M  V30 2554 H 249.32 0.681378 -4.15855 0
M  V30 2555 H 248.044 1.20963 -3.03374 0
M  V30 2556 H 246.703 -0.855717 -3.56473 0
M  V30 2557 H 246.351 1.24642 -4.87312 0
M  V30 2558 H 246.051 -0.197356 -5.87268 0
M  V30 2559 H 247.575 0.715241 -6.06396 0
M  V30 2560 H 248.989 -1.49374 -5.53498 0
M  V30 2561 H 247.386 -2.2848 -5.54903 0
M  V30 2562 H 248.456 -2.50382 -4.15255 0
M  V30 2563 N 249.799 1.42003 -0.683588 0
M  V30 2564 C 250.729 2.33487 -0.024866 0
M  V30 2565 C 251.71 1.51163 0.779975 0
M  V30 2566 O 252.895 1.79739 0.735362 0
M  V30 2567 C 250.025 3.3487 0.920836 0
M  V30 2568 C 248.979 4.27414 0.223958 0
M  V30 2569 C 248.305 5.19074 1.2832 0
M  V30 2570 C 249.605 5.14445 -0.90242 0
M  V30 2571 H 251.299 2.88819 -0.788921 0
M  V30 2572 H 248.845 1.38873 -0.38083 0
M  V30 2573 H 250.798 3.97787 1.39081 0
M  V30 2574 H 249.522 2.77861 1.71642 0
M  V30 2575 H 248.181 3.65904 -0.225864 0
M  V30 2576 H 247.829 4.58387 2.071 0
M  V30 2577 H 247.529 5.81822 0.821995 0
M  V30 2578 H 249.053 5.84867 1.75392 0
M  V30 2579 H 250.467 5.70998 -0.513272 0
M  V30 2580 H 248.864 5.86072 -1.28997 0
M  V30 2581 H 249.934 4.52322 -1.74737 0
M  V30 2582 N 251.277 0.427512 1.51691 0
M  V30 2583 C 252.225 -0.403359 2.29076 0
M  V30 2584 C 253.219 -1.02962 1.34518 0
M  V30 2585 O 254.425 -0.965715 1.51901 0
M  V30 2586 H 250.8 -0.148879 0.737115 0
M  V30 2587 H 252.771 0.270295 2.97173 0
M  V30 2588 C 251.52 -1.49763 3.13794 0
M  V30 2589 H 250.843 -1.02508 3.86435 0
M  V30 2590 H 252.283 -2.05244 3.71014 0
M  V30 2591 C 250.742 -2.47536 2.28533 0
M  V30 2592 O 251.272 -3.51848 1.93819 0
M  V30 2593 N 249.478 -2.18187 1.91945 0
M  V30 2594 H 249.025 -1.33389 2.20375 0
M  V30 2595 H 248.983 -2.83848 1.35195 0
M  V30 2596 N 252.755 -1.56801 0.158532 0
M  V30 2597 C 253.665 -2.20916 -0.789518 0
M  V30 2598 C 254.681 -1.1969 -1.26294 0
M  V30 2599 O 255.857 -1.52308 -1.31773 0
M  V30 2600 C 252.922 -2.82727 -2.00665 0
M  V30 2601 C 251.983 -3.99114 -1.58134 0
M  V30 2602 C 251.216 -4.57968 -2.74045 0
M  V30 2603 O 251.439 -4.15704 -3.90572 0
M  V30 2604 O 250.373 -5.48047 -2.48855 0
M  V30 2605 H 254.199 -3.02464 -0.273681 0
M  V30 2606 H 251.784 -1.4924 -0.0690548 0
M  V30 2607 H 253.666 -3.21968 -2.71872 0
M  V30 2608 H 252.341 -2.04184 -2.51179 0
M  V30 2609 H 251.248 -3.64567 -0.839155 0
M  V30 2610 H 252.581 -4.79212 -1.12325 0
M  V30 2611 N 254.233 0.115231 -1.57178 0
M  V30 2612 C 255.51 0.852873 -1.76027 0
M  V30 2613 C 255.89 1.97892 -0.73498 0
M  V30 2614 O 255.238 2.27232 0.24036 0
M  V30 2615 C 255.448 1.36608 -3.21153 0
M  V30 2616 C 256.796 1.81692 -3.83762 0
M  V30 2617 O 257.82 1.46278 -3.24779 0
M  V30 2618 O 256.679 2.47104 -4.87444 0
M  V30 2619 H 253.773 0.405296 -0.720877 0
M  V30 2620 H 256.319 0.0986785 -1.69413 0
M  V30 2621 H 255.091 0.558357 -3.87296 0
M  V30 2622 H 254.714 2.18287 -3.3232 0
M  V30 2623 N 255.711 1.52812 0.385517 0
M  V30 2624 C 257.122 1.5993 0.963293 0
M  V30 2625 C 257.473 0.454302 1.90868 0
M  V30 2626 O 256.598 -0.422132 2.12243 0
M  V30 2627 C 257.193 2.89871 1.75387 0
M  V30 2628 C 255.752 2.99389 2.28129 0
M  V30 2629 C 254.899 2.55071 1.08783 0
M  V30 2630 H 257.85 1.5784 0.164948 0
M  V30 2631 H 257.871 2.76553 2.61341 0
M  V30 2632 H 257.383 3.73186 1.06554 0
M  V30 2633 H 255.484 2.20619 3.00263 0
M  V30 2634 H 255.597 4.04096 2.57377 0
M  V30 2635 H 253.961 2.09473 1.4489 0
M  V30 2636 H 254.744 3.40785 0.414807 0
M  V30 2637 N 257.189 -0.644168 1.43834 0
M  V30 2638 C 258.119 -1.76814 1.52509 0
M  V30 2639 C 259.1 -1.65823 0.379052 0
M  V30 2640 O 260.285 -1.84781 0.597466 0
M  V30 2641 C 257.415 -3.15288 1.4564 0
M  V30 2642 C 256.369 -3.41053 2.58586 0
M  V30 2643 C 255.695 -4.79421 2.36769 0
M  V30 2644 C 256.995 -3.34902 4.00797 0
M  V30 2645 H 258.689 -1.69812 2.46586 0
M  V30 2646 H 256.235 -0.815542 1.1868 0
M  V30 2647 H 258.188 -3.93681 1.50311 0
M  V30 2648 H 256.912 -3.23043 0.480725 0
M  V30 2649 H 255.571 -2.65035 2.53282 0
M  V30 2650 H 255.219 -4.83863 1.37424 0
M  V30 2651 H 254.919 -4.9762 3.12487 0
M  V30 2652 H 256.443 -5.6006 2.43238 0
M  V30 2653 H 257.857 -4.03218 4.07539 0
M  V30 2654 H 256.254 -3.64637 4.76613 0
M  V30 2655 H 257.324 -2.32928 4.25291 0
M  V30 2656 N 258.668 -1.30515 -0.883378 0
M  V30 2657 C 259.893 -1.22487 -1.67367 0
M  V30 2658 C 260.318 0.208767 -1.86938 0
M  V30 2659 O 259.676 1.15015 -1.40148 0
M  V30 2660 C 259.724 -1.96041 -3.02655 0
M  V30 2661 O 258.828 -1.28859 -3.91751 0
M  V30 2662 H 258.169 -0.423573 -0.511353 0
M  V30 2663 H 260.699 -1.72362 -1.10239 0
M  V30 2664 H 260.709 -2.05124 -3.52687 0
M  V30 2665 H 259.384 -3.00307 -2.8773 0
M  V30 2666 H 257.961 -1.28141 -3.50192 0
M  V30 2667 N 260.146 1.09593 -1.13257 0
M  V30 2668 C 261.078 2.16015 -0.766167 0
M  V30 2669 C 262.091 1.61423 0.211303 0
M  V30 2670 O 263.28 1.78498 -0.00863946 0
M  V30 2671 C 260.38 3.38706 -0.114662 0
M  V30 2672 C 259.553 4.22717 -1.12379 0
M  V30 2673 C 258.612 5.23835 -0.498301 0
M  V30 2674 O 257.638 5.573 -1.15781 0
M  V30 2675 N 258.84 5.75886 0.730417 0
M  V30 2676 H 261.605 2.48055 -1.68193 0
M  V30 2677 H 259.166 1.25292 -1.02535 0
M  V30 2678 H 261.158 4.03464 0.315991 0
M  V30 2679 H 259.728 3.04569 0.704011 0
M  V30 2680 H 258.948 3.54122 -1.73179 0
M  V30 2681 H 260.236 4.75673 -1.80589 0
M  V30 2682 H 259.634 5.50911 1.28504 0
M  V30 2683 H 258.191 6.42387 1.10376 0
M  V30 2684 N 261.624 0.925811 1.2754 0
M  V30 2685 C 262.901 0.483726 1.89524 0
M  V30 2686 C 263.281 -1.03809 1.83812 0
M  V30 2687 O 262.629 -1.89143 1.28207 0
M  V30 2688 C 262.839 1.02769 3.33526 0
M  V30 2689 C 264.187 1.08703 4.10449 0
M  V30 2690 O 265.211 0.977175 3.42534 0
M  V30 2691 O 264.07 1.25599 5.31871 0
M  V30 2692 H 261.164 0.15529 0.812289 0
M  V30 2693 H 263.71 1.01738 1.35822 0
M  V30 2694 H 262.482 2.07155 3.31967 0
M  V30 2695 H 262.105 0.475567 3.94746 0
M  V30 2696 N 263.102 -1.41638 0.69111 0
M  V30 2697 C 264.032 -2.3347 0.037248 0
M  V30 2698 C 265.013 -1.51575 -0.771947 0
M  V30 2699 O 266.198 -1.80126 -0.72582 0
M  V30 2700 C 263.328 -3.35354 -0.903064 0
M  V30 2701 C 262.282 -4.27526 -0.201288 0
M  V30 2702 C 261.608 -5.19747 -1.25565 0
M  V30 2703 C 262.908 -5.13959 0.929689 0
M  V30 2704 H 264.602 -2.88397 0.804227 0
M  V30 2705 H 262.148 -1.38669 0.388189 0
M  V30 2706 H 264.101 -3.98519 -1.36969 0
M  V30 2707 H 262.825 -2.78767 -1.70166 0
M  V30 2708 H 261.484 -3.65779 0.245265 0
M  V30 2709 H 261.132 -4.59479 -2.04666 0
M  V30 2710 H 260.832 -5.8225 -0.791128 0
M  V30 2711 H 262.356 -5.85789 -1.72288 0
M  V30 2712 H 263.77 -5.70718 0.543546 0
M  V30 2713 H 262.167 -5.85379 1.32103 0
M  V30 2714 H 263.237 -4.51389 1.77133 0
M  V30 2715 N 264.58 -0.43555 -1.51462 0
M  V30 2716 C 265.991 0.0279871 -1.86679 0
M  V30 2717 C 266.342 1.42104 -1.35281 0
M  V30 2718 O 265.467 2.04667 -0.702878 0
M  V30 2719 C 266.062 0.0575626 -3.38751 0
M  V30 2720 C 264.621 0.465507 -3.7351 0
M  V30 2721 C 263.768 -0.342996 -2.75171 0
M  V30 2722 H 266.719 -0.651473 -1.44712 0
M  V30 2723 H 266.74 0.867421 -3.70481 0
M  V30 2724 H 266.252 -0.956448 -3.7613 0
M  V30 2725 H 264.353 1.48519 -3.41721 0
M  V30 2726 H 264.466 0.191546 -4.78717 0
M  V30 2727 H 262.83 0.198442 -2.53926 0
M  V30 2728 H 263.613 -1.35585 -3.15391 0
M  V30 2729 N 266.058 1.56714 -0.166846 0
M  V30 2730 C 267.304 1.97039 0.479962 0
M  V30 2731 C 267.637 1.05264 1.63197 0
M  V30 2732 O 266.912 0.0988833 1.94248 0
M  V30 2733 C 267.195 3.46867 0.967212 0
M  V30 2734 C 267.048 4.49421 -0.18466 0
M  V30 2735 C 268.367 3.9968 1.84238 0
M  V30 2736 H 265.486 0.71641 0.172992 0
M  V30 2737 H 268.128 1.8832 -0.252079 0
M  V30 2738 H 266.278 3.54428 1.59101 0
M  V30 2739 H 267.95 4.53924 -0.821621 0
M  V30 2740 H 266.193 4.25573 -0.840837 0
M  V30 2741 H 266.864 5.51644 0.198317 0
M  V30 2742 H 269.34 3.94723 1.31655 0
M  V30 2743 H 268.216 5.04941 2.15234 0
M  V30 2744 H 268.477 3.43226 2.78654 0
M  V30 2745 N 267.536 -0.106894 1.57237 0
M  V30 2746 C 268.483 -1.13049 2.01217 0
M  V30 2747 C 269.453 -1.40471 0.886403 0
M  V30 2748 O 270.638 -1.52133 1.15153 0
M  V30 2749 C 267.778 -2.4487 2.43172 0
M  V30 2750 C 266.891 -2.24281 3.69218 0
M  V30 2751 C 266.026 -3.49417 4.00101 0
M  V30 2752 C 265.065 -3.24038 5.19294 0
M  V30 2753 N 264.202 -4.41409 5.45988 0
M  V30 2754 H 269.042 -0.748456 2.88448 0
M  V30 2755 H 266.579 -0.358054 1.42676 0
M  V30 2756 H 268.537 -3.21786 2.65537 0
M  V30 2757 H 267.167 -2.80944 1.58967 0
M  V30 2758 H 266.219 -1.38224 3.54398 0
M  V30 2759 H 267.531 -2.01512 4.56283 0
M  V30 2760 H 266.685 -4.34746 4.2318 0
M  V30 2761 H 265.424 -3.75229 3.11535 0
M  V30 2762 H 264.429 -2.37102 4.96047 0
M  V30 2763 H 265.654 -2.99584 6.09447 0
M  V30 2764 H 263.6 -4.67319 4.60379 0
M  V30 2765 H 263.517 -4.21788 6.274 0
M  V30 2766 H 264.785 -5.27836 5.73593 0
M  V30 2767 N 269.014 -1.53014 -0.377408 0
M  V30 2768 C 269.947 -1.73382 -1.48371 0
M  V30 2769 C 270.925 -0.581879 -1.51832 0
M  V30 2770 O 272.109 -0.81307 -1.70063 0
M  V30 2771 C 269.236 -1.80192 -2.8679 0
M  V30 2772 C 268.282 -3.02056 -3.01105 0
M  V30 2773 S 269.115 -4.61811 -2.71093 0
M  V30 2774 C 270.271 -4.71453 -4.11683 0
M  V30 2775 H 270.504 -2.66946 -1.30872 0
M  V30 2776 H 268.037 -1.43453 -0.571012 0
M  V30 2777 H 269.995 -1.84802 -3.6655 0
M  V30 2778 H 268.656 -0.877008 -3.01608 0
M  V30 2779 H 267.849 -3.03396 -4.02451 0
M  V30 2780 H 267.451 -2.95498 -2.29253 0
M  V30 2781 H 269.743 -4.50781 -5.0577 0
M  V30 2782 H 270.686 -5.73487 -4.15353 0
M  V30 2783 H 271.094 -4.00189 -3.98132 0
M  V30 2784 N 270.492 0.636531 -1.44174 0
M  V30 2785 C 271.455 1.73063 -1.50273 0
M  V30 2786 C 272.455 1.56113 -0.385397 0
M  V30 2787 O 273.645 1.61707 -0.64781 0
M  V30 2788 C 270.777 3.12096 -1.37145 0
M  V30 2789 H 271.97 1.69031 -2.47727 0
M  V30 2790 H 269.523 0.849706 -1.31186 0
M  V30 2791 H 270.258 3.21728 -0.407636 0
M  V30 2792 H 270.043 3.25805 -2.18159 0
M  V30 2793 H 271.533 3.91846 -1.44382 0
M  V30 2794 N 271.97 1.30982 0.876444 0
M  V30 2795 C 273.195 1.23373 1.66715 0
M  V30 2796 C 273.62 -0.19885 1.87046 0
M  V30 2797 O 272.978 -1.1427 1.40756 0
M  V30 2798 C 273.026 1.97644 3.01611 0
M  V30 2799 O 272.13 1.30935 3.91062 0
M  V30 2800 H 271.471 0.426279 0.509099 0
M  V30 2801 H 274.001 1.72944 1.09323 0
M  V30 2802 H 274.011 2.06992 3.51594 0
M  V30 2803 H 272.686 3.01829 2.86133 0
M  V30 2804 H 271.263 1.29996 3.49507 0
M  V30 2805 N 273.449 -1.08991 1.13837 0
M  V30 2806 C 274.698 -1.80631 0.897509 0
M  V30 2807 C 275.011 -1.86872 -0.57777 0
M  V30 2808 O 276.217 -2.54866 -0.935701 0
M  V30 2809 C 274.673 -3.24517 1.55618 0
M  V30 2810 C 274.281 -3.26529 3.0673 0
M  V30 2811 C 276.025 -4.00882 1.3962 0
M  V30 2812 C 273.932 -4.64965 3.65461 0
M  V30 2813 H 272.862 -0.67691 0.332129 0
M  V30 2814 H 275.513 -1.2246 1.3666 0
M  V30 2815 H 273.895 -3.82778 1.01476 0
M  V30 2816 H 275.069 -2.78008 3.67489 0
M  V30 2817 H 273.384 -2.63656 3.22296 0
M  V30 2818 H 275.981 -5.03167 1.80906 0
M  V30 2819 H 276.324 -4.14896 0.341578 0
M  V30 2820 H 276.857 -3.49075 1.90766 0
M  V30 2821 H 273.596 -4.56153 4.70749 0
M  V30 2822 H 273.116 -5.13792 3.09481 0
M  V30 2823 H 274.795 -5.3394 3.654 0
M  V30 2824 N 274.927 -0.932562 -1.27047 0
M  V30 2825 C 276.174 -0.575559 -1.94148 0
M  V30 2826 C 276.502 0.883984 -1.73251 0
M  V30 2827 O 275.757 1.64655 -1.0577 0
M  V30 2828 C 276.056 -0.853713 -3.47054 0
M  V30 2829 C 275.722 -2.29577 -3.88079 0
M  V30 2830 C 274.384 -2.68999 -3.9899 0
M  V30 2831 C 276.736 -3.23331 -4.08787 0
M  V30 2832 C 274.064 -4.01289 -4.28 0
M  V30 2833 C 276.416 -4.55207 -4.39282 0
M  V30 2834 C 275.08 -4.94457 -4.48407 0
M  V30 2835 H 274.35 -0.210612 -0.710439 0
M  V30 2836 H 276.997 -1.17744 -1.51025 0
M  V30 2837 H 275.302 -0.169204 -3.91434 0
M  V30 2838 H 276.999 -0.55639 -3.97121 0
M  V30 2839 H 273.589 -1.97994 -3.80127 0
M  V30 2840 H 277.773 -2.94074 -3.99793 0
M  V30 2841 H 273.029 -4.31374 -4.33275 0
M  V30 2842 H 277.203 -5.27852 -4.54252 0
M  V30 2843 H 274.83 -5.96994 -4.7064 0
M  V30 2844 N 276.405 1.4127 -0.698611 0
M  V30 2845 C 277.352 2.30773 -0.0352094 0
M  V30 2846 C 278.322 1.47273 0.768111 0
M  V30 2847 O 279.507 1.76053 0.735524 0
M  V30 2848 C 276.647 3.33346 0.893 0
M  V30 2849 C 275.76 4.31924 0.0809695 0
M  V30 2850 C 274.895 5.21566 1.0071 0
M  V30 2851 C 273.934 6.11811 0.188155 0
M  V30 2852 N 273.071 6.93926 1.06825 0
M  V30 2853 H 277.911 2.86943 -0.804207 0
M  V30 2854 H 275.448 1.4132 -0.408294 0
M  V30 2855 H 277.406 3.91368 1.44523 0
M  V30 2856 H 276.036 2.78719 1.62836 0
M  V30 2857 H 275.088 3.75825 -0.588224 0
M  V30 2858 H 276.4 4.95716 -0.553801 0
M  V30 2859 H 275.554 5.84437 1.62845 0
M  V30 2860 H 274.293 4.58008 1.67572 0
M  V30 2861 H 273.298 5.47986 -0.446254 0
M  V30 2862 H 274.523 6.77425 -0.476716 0
M  V30 2863 H 272.469 6.32973 1.72283 0
M  V30 2864 H 272.386 7.54416 0.489123 0
M  V30 2865 H 273.654 7.61262 1.67632 0
M  V30 2866 N 277.883 0.443576 1.51229 0
M  V30 2867 C 278.831 -0.37904 2.29491 0
M  V30 2868 C 279.825 -1.0153 1.35603 0
M  V30 2869 O 281.031 -0.94955 1.52917 0
M  V30 2870 H 277.406 -0.141053 0.738653 0
M  V30 2871 H 279.377 0.301799 2.9687 0
M  V30 2872 C 278.126 -1.46426 3.15364 0
M  V30 2873 H 277.449 -0.984037 3.87501 0
M  V30 2874 H 278.889 -2.01297 3.7317 0
M  V30 2875 C 277.348 -2.45099 2.31146 0
M  V30 2876 O 277.878 -3.49773 1.9754 0
M  V30 2877 N 276.084 -2.16139 1.94249 0
M  V30 2878 H 275.631 -1.31044 2.21777 0
M  V30 2879 H 275.589 -2.82398 1.38198 0
M  V30 2880 N 279.361 -1.56624 0.175154 0
M  V30 2881 C 280.608 -1.96999 -0.468811 0
M  V30 2882 C 280.936 -1.06129 -1.62994 0
M  V30 2883 O 280.191 -0.0961771 -1.95464 0
M  V30 2884 C 280.49 -3.43419 -0.989864 0
M  V30 2885 C 280.156 -4.50866 0.0557687 0
M  V30 2886 C 278.818 -4.79975 0.343134 0
M  V30 2887 C 281.17 -5.15551 0.765308 0
M  V30 2888 C 278.498 -5.71066 1.34536 0
M  V30 2889 C 280.85 -6.07724 1.75654 0
M  V30 2890 C 279.514 -6.35199 2.05132 0
M  V30 2891 H 278.784 -0.720869 -0.17155 0
M  V30 2892 H 281.431 -1.89616 0.267924 0
M  V30 2893 H 279.736 -3.47772 -1.80449 0
M  V30 2894 H 281.433 -3.72002 -1.49719 0
M  V30 2895 H 278.023 -4.28229 -0.178381 0
M  V30 2896 H 282.207 -4.9317 0.556513 0
M  V30 2897 H 277.463 -5.90635 1.57988 0
M  V30 2898 H 281.637 -6.56912 2.31169 0
M  V30 2899 H 279.264 -7.05584 2.8294 0
M  V30 2900 N 280.839 0.0985539 -1.57292 0
M  V30 2901 C 282.085 0.803867 -1.86188 0
M  V30 2902 C 282.418 1.78549 -0.763794 0
M  V30 2903 O 281.693 1.93153 0.22855 0
M  V30 2904 C 281.976 1.53568 -3.25713 0
M  V30 2905 C 281.829 0.572277 -4.46145 0
M  V30 2906 C 283.148 2.48708 -3.63087 0
M  V30 2907 H 280.267 0.290781 -0.677211 0
M  V30 2908 H 282.909 0.0675783 -1.8988 0
M  V30 2909 H 281.059 2.16332 -3.22696 0
M  V30 2910 H 282.731 -0.0480894 -4.61275 0
M  V30 2911 H 280.974 -0.114618 -4.33649 0
M  V30 2912 H 281.645 1.12139 -5.40489 0
M  V30 2913 H 284.121 1.96039 -3.67026 0
M  V30 2914 H 282.997 2.96932 -4.61652 0
M  V30 2915 H 283.258 3.32309 -2.91588 0
M  V30 2916 N 282.317 1.53212 0.369288 0
M  V30 2917 C 283.566 1.68436 1.10961 0
M  V30 2918 C 283.879 0.440738 1.9057 0
M  V30 2919 O 285.085 0.473446 2.6734 0
M  V30 2920 C 283.541 2.97744 2.0218 0
M  V30 2921 C 283.149 4.29355 1.279 0
M  V30 2922 C 284.893 3.22334 2.76226 0
M  V30 2923 C 282.8 5.49755 2.17999 0
M  V30 2924 H 281.73 0.627568 0.41794 0
M  V30 2925 H 284.381 1.79713 0.370884 0
M  V30 2926 H 282.763 2.8026 2.79768 0
M  V30 2927 H 283.937 4.57458 0.554007 0
M  V30 2928 H 282.252 4.11179 0.657311 0
M  V30 2929 H 284.849 4.09471 3.43857 0
M  V30 2930 H 285.192 2.38238 3.41392 0
M  V30 2931 H 285.725 3.40475 2.05723 0
M  V30 2932 H 282.464 6.36318 1.57417 0
M  V30 2933 H 281.984 5.25937 2.88359 0
M  V30 2934 H 283.663 5.84401 2.77641 0
M  V30 2935 N 283.795 -0.628877 1.44509 0
M  V30 2936 C 285.023 -1.41554 1.50897 0
M  V30 2937 C 285.438 -1.8832 0.134564 0
M  V30 2938 O 284.795 -1.60969 -0.859965 0
M  V30 2939 C 284.846 -2.63435 2.47556 0
M  V30 2940 O 284.567 -2.18619 3.79654 0
M  V30 2941 C 286.068 -3.56537 2.63431 0
M  V30 2942 H 283.288 -0.434044 0.511709 0
M  V30 2943 H 285.832 -0.768895 1.89495 0
M  V30 2944 H 283.987 -3.24187 2.12089 0
M  V30 2945 H 284.401 -2.97652 4.31861 0
M  V30 2946 H 285.875 -4.38657 3.35088 0
M  V30 2947 H 286.352 -4.05493 1.68738 0
M  V30 2948 H 286.958 -3.01653 2.9981 0
M  V30 2949 N 285.273 -1.31445 -0.869486 0
M  V30 2950 C 286.503 -1.23942 -1.65294 0
M  V30 2951 C 286.911 0.197561 -1.88166 0
M  V30 2952 O 286.254 1.14019 -1.44033 0
M  V30 2953 C 286.316 -1.91385 -3.04322 0
M  V30 2954 C 285.98 -3.40726 -3.04557 0
M  V30 2955 C 286.977 -4.36464 -2.82481 0
M  V30 2956 C 284.662 -3.82425 -3.25663 0
M  V30 2957 C 286.656 -5.71876 -2.8149 0
M  V30 2958 C 284.343 -5.1795 -3.243 0
M  V30 2959 C 285.341 -6.12486 -3.02241 0
M  V30 2960 O 285.029 -7.45534 -3.00724 0
M  V30 2961 H 284.761 -0.429459 -0.522054 0
M  V30 2962 H 287.315 -1.73873 -1.0935 0
M  V30 2963 H 285.545 -1.36004 -3.61994 0
M  V30 2964 H 287.234 -1.77791 -3.64891 0
M  V30 2965 H 288 -4.05576 -2.65956 0
M  V30 2966 H 283.879 -3.09274 -3.41863 0
M  V30 2967 H 287.423 -6.45638 -2.64191 0
M  V30 2968 H 283.32 -5.48473 -3.40365 0
M  V30 2969 H 284.088 -7.54713 -3.16782 0
M  V30 2970 N 286.751 1.08385 -1.14413 0
M  V30 2971 C 287.699 2.17406 -0.826888 0
M  V30 2972 C 288.693 1.6827 0.195312 0
M  V30 2973 O 289.899 1.79927 0.0513892 0
M  V30 2974 H 286.274 0.70934 -0.249681 0
M  V30 2975 H 288.245 2.41388 -1.75426 0
M  V30 2976 C 286.994 3.46215 -0.320979 0
M  V30 2977 H 286.317 3.84401 -1.0989 0
M  V30 2978 H 287.757 4.23777 -0.137549 0
M  V30 2979 C 286.216 3.23067 0.955472 0
M  V30 2980 O 286.746 3.4668 2.02918 0
M  V30 2981 N 284.952 2.7661 0.890798 0
M  V30 2982 H 284.499 2.57594 0.0168815 0
M  V30 2983 H 284.457 2.61501 1.74542 0
M  V30 2984 N 288.23 0.939286 1.26551 0
M  V30 2985 C 289.646 0.641304 1.46149 0
M  V30 2986 C 289.846 -0.805964 1.84679 0
M  V30 2987 O 288.902 -1.58278 1.96734 0
M  V30 2988 C 290.215 1.6011 2.54529 0
M  V30 2989 C 291.763 1.6106 2.68382 0
M  V30 2990 C 292.238 2.55765 3.79932 0
M  V30 2991 N 293.729 2.5404 3.87322 0
M  V30 2992 C 294.464 3.24004 4.73085 0
M  V30 2993 N 293.96 4.03388 5.63249 0
M  V30 2994 N 295.753 3.12965 4.66914 0
M  V30 2995 H 287.904 1.87478 0.998285 0
M  V30 2996 H 290.167 0.805559 0.499779 0
M  V30 2997 H 289.873 2.63412 2.33039 0
M  V30 2998 H 289.747 1.35171 3.52149 0
M  V30 2999 H 292.134 0.584835 2.89247 0
M  V30 3000 H 292.215 1.90053 1.71212 0
M  V30 3001 H 291.859 3.58458 3.5982 0
M  V30 3002 H 291.789 2.24063 4.76554 0
M  V30 3003 H 294.28 1.96396 3.22858 0
M  V30 3004 H 294.593 4.5373 6.25579 0
M  V30 3005 H 292.938 4.07489 5.63008 0
M  V30 3006 H 296.129 2.50432 3.95476 0
M  V30 3007 H 296.302 3.67759 5.33533 0
M  V30 3008 N 289.708 -1.40897 0.706093 0
M  V30 3009 C 290.936 -2.05373 0.250887 0
M  V30 3010 C 291.351 -1.53172 -1.10381 0
M  V30 3011 O 290.708 -0.684305 -1.69185 0
M  V30 3012 C 290.759 -3.6088 0.211571 0
M  V30 3013 O 290.48 -4.11153 1.51276 0
M  V30 3014 C 291.981 -4.42517 -0.263346 0
M  V30 3015 H 289.201 -0.66115 0.114552 0
M  V30 3016 H 291.745 -1.80479 0.961635 0
M  V30 3017 H 289.9 -3.84777 -0.450073 0
M  V30 3018 H 290.314 -5.05279 1.40689 0
M  V30 3019 H 291.788 -5.51479 -0.239718 0
M  V30 3020 H 292.265 -4.19396 -1.30397 0
M  V30 3021 H 292.871 -4.23708 0.367677 0
M  V30 3022 N 291.186 -0.45159 -1.50991 0
M  V30 3023 C 292.416 0.108177 -2.06317 0
M  V30 3024 C 292.824 1.35774 -1.31765 0
M  V30 3025 O 292.167 1.79838 -0.374694 0
M  V30 3026 C 292.229 0.481659 -3.56259 0
M  V30 3027 C 291.893 -0.663114 -4.52163 0
M  V30 3028 C 292.89 -1.53947 -4.96585 0
M  V30 3029 C 290.575 -0.8479 -4.95092 0
M  V30 3030 C 292.569 -2.58518 -5.82621 0
M  V30 3031 C 290.256 -1.89686 -5.80915 0
M  V30 3032 C 291.254 -2.76388 -6.24579 0
M  V30 3033 O 290.942 -3.79482 -7.08695 0
M  V30 3034 H 290.674 0.00499183 -0.675982 0
M  V30 3035 H 293.228 -0.633659 -1.95381 0
M  V30 3036 H 291.458 1.27641 -3.65027 0
M  V30 3037 H 293.147 0.974233 -3.94035 0
M  V30 3038 H 293.913 -1.4083 -4.64103 0
M  V30 3039 H 289.792 -0.18258 -4.60638 0
M  V30 3040 H 293.336 -3.26224 -6.16623 0
M  V30 3041 H 289.233 -2.02817 -6.12809 0
M  V30 3042 H 290.001 -3.76234 -7.26905 0
M  V30 3043 N 292.664 1.56529 -0.183458 0
M  V30 3044 C 293.574 2.22144 0.754272 0
M  V30 3045 C 294.59 1.21684 1.24374 0
M  V30 3046 O 295.766 1.54385 1.29333 0
M  V30 3047 C 292.831 2.85884 1.96141 0
M  V30 3048 C 291.892 4.01579 1.51765 0
M  V30 3049 C 291.125 4.6227 2.66725 0
M  V30 3050 O 291.348 4.21865 3.83909 0
M  V30 3051 O 290.282 5.51936 2.40104 0
M  V30 3052 H 294.108 3.02861 0.225527 0
M  V30 3053 H 291.693 1.49331 0.0453032 0
M  V30 3054 H 293.575 3.26253 2.66715 0
M  V30 3055 H 292.25 2.08154 2.47899 0
M  V30 3056 H 291.157 3.65856 0.781049 0
M  V30 3057 H 292.49 4.80938 1.04686 0
M  V30 3058 N 294.142 -0.090211 1.57342 0
M  V30 3059 C 295.367 -0.810082 1.90925 0
M  V30 3060 C 295.792 -1.71248 0.778187 0
M  V30 3061 O 295.15 -1.79278 -0.269991 0
M  V30 3062 C 295.198 -1.59529 3.23393 0
M  V30 3063 O 294.302 -2.70461 3.11327 0
M  V30 3064 H 293.643 -0.222231 0.625707 0
M  V30 3065 H 296.173 -0.0639716 2.045 0
M  V30 3066 H 296.183 -1.97847 3.5682 0
M  V30 3067 H 294.858 -0.933055 4.05299 0
M  V30 3068 H 293.435 -2.35135 2.89423 0
M  V30 3069 N 295.62 -1.53406 -0.361157 0
M  V30 3070 C 296.567 -1.80156 -1.44265 0
M  V30 3071 C 297.537 -0.646183 -1.53015 0
M  V30 3072 O 298.722 -0.888818 -1.68833 0
M  V30 3073 C 295.862 -2.00116 -2.81154 0
M  V30 3074 C 294.975 -3.27833 -2.81335 0
M  V30 3075 C 294.11 -3.37957 -4.09828 0
M  V30 3076 C 293.149 -4.59689 -4.04168 0
M  V30 3077 N 292.286 -4.66942 -5.24318 0
M  V30 3078 H 297.126 -2.72438 -1.20754 0
M  V30 3079 H 294.663 -1.34954 -0.585296 0
M  V30 3080 H 296.621 -2.09677 -3.60682 0
M  V30 3081 H 295.251 -1.11167 -3.03054 0
M  V30 3082 H 294.303 -3.27204 -1.94014 0
M  V30 3083 H 295.615 -4.17442 -2.73027 0
M  V30 3084 H 294.769 -3.46853 -4.97773 0
M  V30 3085 H 293.508 -2.46372 -4.20894 0
M  V30 3086 H 292.513 -4.50889 -3.14609 0
M  V30 3087 H 293.738 -5.5262 -3.947 0
M  V30 3088 H 291.684 -3.7826 -5.35962 0
M  V30 3089 H 291.601 -5.50462 -5.18197 0
M  V30 3090 H 292.869 -4.80127 -6.14084 0
M  V30 3091 N 297.098 0.621204 -1.44841 0
M  V30 3092 C 298.008 1.7612 -1.5498 0
M  V30 3093 C 299.024 1.68477 -0.434927 0
M  V30 3094 O 300.2 1.89076 -0.693693 0
M  V30 3095 C 297.265 3.1254 -1.50065 0
M  V30 3096 C 296.326 3.31741 -2.72482 0
M  V30 3097 C 295.559 4.61653 -2.67792 0
M  V30 3098 O 295.782 5.431 -1.74352 0
M  V30 3099 O 294.716 4.83271 -3.58794 0
M  V30 3100 H 298.542 1.70518 -2.51311 0
M  V30 3101 H 296.127 0.783643 -1.27198 0
M  V30 3102 H 298.009 3.93844 -1.49882 0
M  V30 3103 H 296.684 3.18663 -0.568806 0
M  V30 3104 H 295.591 2.50077 -2.7823 0
M  V30 3105 H 296.924 3.30486 -3.64746 0
M  V30 3106 N 298.576 1.31904 0.862503 0
M  V30 3107 C 299.486 1.22161 2.00285 0
M  V30 3108 C 300.502 0.136785 1.73462 0
M  V30 3109 O 301.678 0.355994 1.98229 0
M  V30 3110 C 298.743 0.937093 3.33796 0
M  V30 3111 C 297.804 2.10957 3.73893 0
M  V30 3112 C 297.037 1.83853 5.01033 0
M  V30 3113 O 297.26 0.777274 5.65079 0
M  V30 3114 O 296.194 2.69741 5.38074 0
M  V30 3115 H 300.02 2.18008 2.11439 0
M  V30 3116 H 297.605 1.11716 0.991957 0
M  V30 3117 H 299.487 0.794583 4.13841 0
M  V30 3118 H 298.162 0.00871894 3.23699 0
M  V30 3119 H 297.069 2.30752 2.94456 0
M  V30 3120 H 298.402 3.02046 3.88625 0
M  V30 3121 N 300.054 -1.07777 1.14986 0
M  V30 3122 C 301.017 -2.13041 0.845358 0
M  V30 3123 C 302.017 -1.60071 -0.152931 0
M  V30 3124 O 303.207 -1.74033 0.0761879 0
M  V30 3125 C 300.339 -3.39896 0.261383 0
M  V30 3126 H 301.532 -2.41485 1.77834 0
M  V30 3127 H 299.085 -1.23595 0.956757 0
M  V30 3128 H 299.82 -3.17091 -0.68 0
M  V30 3129 H 299.605 -3.79642 0.980514 0
M  V30 3130 H 301.095 -4.17548 0.0657687 0
M  V30 3131 N 301.532 -0.945985 -1.26051 0
M  V30 3132 C 302.948 -0.649045 -1.45807 0
M  V30 3133 C 303.148 0.796158 -1.85104 0
M  V30 3134 O 302.204 1.57233 -1.97571 0
M  V30 3135 C 303.517 -1.61458 -2.53677 0
M  V30 3136 C 305.065 -1.62481 -2.67524 0
M  V30 3137 C 305.54 -2.57776 -3.7857 0
M  V30 3138 N 307.031 -2.5609 -3.85969 0
M  V30 3139 C 307.766 -3.26508 -4.7136 0
M  V30 3140 N 307.262 -4.0637 -5.61102 0
M  V30 3141 N 309.055 -3.15437 -4.65248 0
M  V30 3142 H 301.206 -1.88005 -0.988328 0
M  V30 3143 H 303.469 -0.808198 -0.4955 0
M  V30 3144 H 303.175 -2.64644 -2.31638 0
M  V30 3145 H 303.049 -1.37036 -3.51427 0
M  V30 3146 H 305.436 -0.600167 -2.88933 0
M  V30 3147 H 305.517 -1.90958 -1.70202 0
M  V30 3148 H 305.161 -3.60361 -3.57913 0
M  V30 3149 H 305.091 -2.26587 -4.75359 0
M  V30 3150 H 307.582 -1.98105 -3.21812 0
M  V30 3151 H 307.895 -4.57042 -6.23164 0
M  V30 3152 H 306.24 -4.10469 -5.60839 0
M  V30 3153 H 309.431 -2.52525 -3.94143 0
M  V30 3154 H 309.604 -3.70584 -5.31575 0
M  V30 3155 N 303.011 1.40521 -0.713556 0
M  V30 3156 C 304.257 2.01714 -0.261382 0
M  V30 3157 C 304.612 1.55562 1.13217 0
M  V30 3158 O 303.905 0.764893 1.7567 0
M  V30 3159 C 304.099 3.56317 -0.278 0
M  V30 3160 C 303.928 4.17476 -1.67163 0
M  V30 3161 C 302.698 4.50998 -2.2788 0
M  V30 3162 C 304.896 4.42472 -2.6215 0
M  V30 3163 N 302.878 4.9754 -3.5962 0
M  V30 3164 C 304.249 4.90985 -3.78594 0
M  V30 3165 C 306.304 4.24508 -2.60188 0
M  V30 3166 C 305.007 5.2342 -4.9338 0
M  V30 3167 C 307.033 4.58043 -3.741 0
M  V30 3168 C 306.395 5.06743 -4.89276 0
M  V30 3169 H 302.494 0.769104 -0.141434 0
M  V30 3170 H 305.078 1.70785 -0.934915 0
M  V30 3171 H 303.249 3.8668 0.36509 0
M  V30 3172 H 304.981 4.0425 0.190695 0
M  V30 3173 H 301.736 4.38062 -1.79997 0
M  V30 3174 H 302.16 5.25196 -4.27198 0
M  V30 3175 H 306.802 3.86078 -1.72348 0
M  V30 3176 H 304.52 5.60765 -5.81866 0
M  V30 3177 H 308.106 4.45785 -3.73854 0
M  V30 3178 H 306.986 5.32204 -5.75959 0
M  V30 3179 N 304.489 0.459591 1.5075 0
M  V30 3180 C 305.905 0.113092 1.59199 0
M  V30 3181 C 306.105 -1.37951 1.46874 0
M  V30 3182 O 305.161 -2.15168 1.32132 0
M  V30 3183 C 306.474 0.653043 2.93523 0
M  V30 3184 C 308.022 0.615449 3.0689 0
M  V30 3185 C 308.497 1.13275 4.43771 0
M  V30 3186 N 309.988 1.09167 4.50152 0
M  V30 3187 C 310.723 1.46256 5.54434 0
M  V30 3188 N 310.219 1.90739 6.66026 0
M  V30 3189 N 312.012 1.37932 5.44914 0
M  V30 3190 H 304.163 1.43049 1.57005 0
M  V30 3191 H 306.426 0.590861 0.741341 0
M  V30 3192 H 306.132 1.69822 3.07983 0
M  V30 3193 H 306.006 0.0902132 3.77092 0
M  V30 3194 H 308.393 -0.420793 2.92084 0
M  V30 3195 H 308.474 1.21495 2.25106 0
M  V30 3196 H 308.118 2.16757 4.59324 0
M  V30 3197 H 308.048 0.509576 5.24129 0
M  V30 3198 H 310.539 0.76528 3.7007 0
M  V30 3199 H 310.852 2.17218 7.41644 0
M  V30 3200 H 309.197 1.94683 6.67176 0
M  V30 3201 H 312.388 1.0303 4.56621 0
M  V30 3202 H 312.561 1.67164 6.26067 0
M  V30 3203 N 305.967 -1.56429 0.191757 0
M  V30 3204 C 306.897 -2.21937 -0.725696 0
M  V30 3205 C 307.878 -1.1814 -1.2238 0
M  V30 3206 O 309.063 -1.46636 -1.27325 0
M  V30 3207 C 306.193 -2.87611 -1.94672 0
M  V30 3208 C 305.147 -3.97623 -1.58366 0
M  V30 3209 C 304.473 -4.50446 -2.88102 0
M  V30 3210 C 305.773 -5.16197 -0.796133 0
M  V30 3211 H 307.467 -2.98861 -0.179606 0
M  V30 3212 H 305.013 -1.43749 -0.0849464 0
M  V30 3213 H 306.966 -3.3212 -2.59373 0
M  V30 3214 H 305.69 -2.08087 -2.51728 0
M  V30 3215 H 304.349 -3.53801 -0.960247 0
M  V30 3216 H 303.997 -3.67688 -3.43241 0
M  V30 3217 H 303.697 -5.24675 -2.64556 0
M  V30 3218 H 305.221 -4.97654 -3.53798 0
M  V30 3219 H 306.635 -5.57271 -1.34618 0
M  V30 3220 H 305.032 -5.96471 -0.658928 0
M  V30 3221 H 306.102 -4.84473 0.203478 0
M  V30 3222 N 307.445 0.0818655 -1.57387 0
M  V30 3223 C 308.67 0.799946 -1.91352 0
M  V30 3224 C 309.095 1.70833 -0.787258 0
M  V30 3225 O 308.453 1.79419 0.26048 0
M  V30 3226 C 308.501 1.57812 -3.24234 0
M  V30 3227 O 307.605 2.68806 -3.12757 0
M  V30 3228 H 306.946 0.21891 -0.626877 0
M  V30 3229 H 309.476 0.0531256 -2.04531 0
M  V30 3230 H 309.486 1.95952 -3.57864 0
M  V30 3231 H 308.161 0.911548 -4.05788 0
M  V30 3232 H 306.738 2.33597 -2.90666 0
M  V30 3233 N 308.923 1.53595 0.353017 0
M  V30 3234 C 310.169 1.70638 1.09593 0
M  V30 3235 C 310.502 0.463286 1.88593 0
M  V30 3236 O 309.777 -0.539597 1.86865 0
M  V30 3237 C 310.06 2.96406 2.04489 0
M  V30 3238 C 309.913 4.30901 1.29014 0
M  V30 3239 C 311.232 3.17812 3.0444 0
M  V30 3240 H 308.351 0.620913 0.397034 0
M  V30 3241 H 310.993 1.86254 0.375446 0
M  V30 3242 H 309.143 2.83223 2.65927 0
M  V30 3243 H 310.815 4.55917 0.702638 0
M  V30 3244 H 309.058 4.29741 0.592071 0
M  V30 3245 H 309.729 5.1506 1.98537 0
M  V30 3246 H 312.205 3.30263 2.53112 0
M  V30 3247 H 311.081 4.07223 3.6805 0
M  V30 3248 H 311.342 2.33669 3.75301 0
M  V30 3249 N 310.401 -0.613514 1.45168 0
M  V30 3250 C 311.648 -1.37268 1.48875 0
M  V30 3251 C 311.976 -1.94077 0.128161 0
M  V30 3252 O 311.231 -1.75178 -0.872416 0
M  V30 3253 C 311.53 -2.54347 2.51083 0
M  V30 3254 C 311.196 -2.1572 3.95949 0
M  V30 3255 C 309.858 -2.04899 4.35396 0
M  V30 3256 C 312.21 -1.85485 4.87078 0
M  V30 3257 C 309.538 -1.62057 5.63875 0
M  V30 3258 C 311.89 -1.4413 6.15962 0
M  V30 3259 C 310.554 -1.31863 6.54346 0
M  V30 3260 H 309.824 -0.502299 0.544773 0
M  V30 3261 H 312.471 -0.694021 1.78481 0
M  V30 3262 H 310.776 -3.27524 2.15024 0
M  V30 3263 H 312.473 -3.12577 2.51191 0
M  V30 3264 H 309.063 -2.25066 3.64751 0
M  V30 3265 H 313.247 -1.92745 4.57343 0
M  V30 3266 H 308.503 -1.51177 5.92415 0
M  V30 3267 H 312.677 -1.19778 6.86022 0
M  V30 3268 H 310.304 -0.984392 7.538 0
M  V30 3269 N 311.879 -1.3236 -0.855495 0
M  V30 3270 C 313.125 -1.23054 -1.612 0
M  V30 3271 C 313.458 0.207404 -1.93089 0
M  V30 3272 O 312.733 1.14432 -1.57275 0
M  V30 3273 C 313.016 -2.08937 -2.93287 0
M  V30 3274 C 312.869 -3.61105 -2.68185 0
M  V30 3275 C 314.188 -1.94986 -3.94549 0
M  V30 3276 H 311.307 -0.448364 -0.584926 0
M  V30 3277 H 313.949 -1.62297 -0.987917 0
M  V30 3278 H 312.099 -1.75599 -3.46551 0
M  V30 3279 H 313.771 -4.04652 -2.21483 0
M  V30 3280 H 312.014 -3.83813 -2.02164 0
M  V30 3281 H 312.685 -4.16522 -3.62234 0
M  V30 3282 H 315.161 -2.24189 -3.5054 0
M  V30 3283 H 314.037 -2.57356 -4.84829 0
M  V30 3284 H 314.298 -0.917263 -4.3248 0
M  V30 3285 N 313.357 1.07166 -1.15556 0
M  V30 3286 C 314.305 2.16517 -0.8499 0
M  V30 3287 C 315.299 1.68468 0.177454 0
M  V30 3288 O 316.505 1.79971 0.0323026 0
M  V30 3289 H 312.88 0.706652 -0.25719 0
M  V30 3290 H 314.851 2.39514 -1.77976 0
M  V30 3291 C 313.6 3.45855 -0.357682 0
M  V30 3292 H 312.923 3.83214 -1.13961 0
M  V30 3293 H 314.363 4.23607 -0.182489 0
M  V30 3294 C 312.822 3.24062 0.921152 0
M  V30 3295 O 313.352 3.48813 1.9923 0
M  V30 3296 N 311.558 2.77539 0.86141 0
M  V30 3297 H 311.105 2.57598 -0.0104408 0
M  V30 3298 H 311.063 2.63337 1.71758 0
M  V30 3299 N 314.835 0.952656 1.25548 0
M  V30 3300 C 315.783 0.462354 2.27958 0
M  V30 3301 C 316.777 -0.46634 1.62855 0
M  V30 3302 O 317.983 -0.343287 1.76696 0
M  V30 3303 H 314.358 0.13101 0.7405 0
M  V30 3304 H 316.329 1.33839 2.66702 0
M  V30 3305 C 315.078 -0.24628 3.46827 0
M  V30 3306 H 314.401 0.459192 3.97154 0
M  V30 3307 H 315.841 -0.553393 4.20373 0
M  V30 3308 C 314.3 -1.4681 3.0323 0
M  V30 3309 O 314.83 -2.56591 3.09069 0
M  V30 3310 N 313.036 -1.32874 2.58443 0
M  V30 3311 H 312.583 -0.435536 2.53891 0
M  V30 3312 H 312.541 -2.14742 2.29637 0
M  V30 3313 N 316.313 -1.40141 0.720998 0
M  V30 3314 C 317.246 -2.2819 0.020916 0
M  V30 3315 C 318.224 -1.43633 -0.762129 0
M  V30 3316 O 319.408 -1.7304 -0.747633 0
M  V30 3317 C 316.535 -3.24281 -0.977715 0
M  V30 3318 C 315.581 -4.25548 -0.284836 0
M  V30 3319 S 316.414 -5.26247 0.991169 0
M  V30 3320 C 317.57 -6.259 -0.0052214 0
M  V30 3321 H 317.803 -2.87218 0.767649 0
M  V30 3322 H 315.336 -1.45656 0.512233 0
M  V30 3323 H 317.294 -3.80167 -1.54865 0
M  V30 3324 H 315.955 -2.643 -1.69719 0
M  V30 3325 H 315.148 -4.93154 -1.03996 0
M  V30 3326 H 314.75 -3.73389 0.213684 0
M  V30 3327 H 317.042 -6.72143 -0.850279 0
M  V30 3328 H 317.985 -7.05224 0.637599 0
M  V30 3329 H 318.393 -5.63277 -0.371366 0
M  V30 3330 N 317.792 -0.46758 -1.50504 0
M  V30 3331 C 319.038 0.0887532 -2.02606 0
M  V30 3332 C 319.371 1.39686 -1.34913 0
M  V30 3333 O 318.646 1.88644 -0.473694 0
M  V30 3334 C 318.929 0.276206 -3.59039 0
M  V30 3335 C 318.782 -1.05267 -4.37309 0
M  V30 3336 C 320.101 1.03235 -4.27821 0
M  V30 3337 H 317.22 0.0307814 -0.736357 0
M  V30 3338 H 319.862 -0.612485 -1.79857 0
M  V30 3339 H 318.012 0.8735 -3.78553 0
M  V30 3340 H 319.684 -1.68628 -4.29374 0
M  V30 3341 H 317.927 -1.65015 -4.01189 0
M  V30 3342 H 318.598 -0.875197 -5.45018 0
M  V30 3343 H 321.074 0.526111 -4.12761 0
M  V30 3344 H 319.95 1.1323 -5.37094 0
M  V30 3345 H 320.211 2.06806 -3.90748 0
M  V30 3346 N 319.27 1.56325 -0.20005 0
M  V30 3347 C 320.686 1.58839 0.155716 0
M  V30 3348 C 320.886 1.21636 1.60645 0
M  V30 3349 O 319.942 0.941437 2.34293 0
M  V30 3350 C 321.255 3.0032 -0.151124 0
M  V30 3351 C 322.803 3.12866 -0.0916284 0
M  V30 3352 C 323.278 4.56488 -0.371845 0
M  V30 3353 N 324.769 4.62089 -0.320641 0
M  V30 3354 C 325.504 5.71116 -0.511243 0
M  V30 3355 N 325 6.88592 -0.762461 0
M  V30 3356 N 326.793 5.60335 -0.445157 0
M  V30 3357 H 318.944 1.78788 -1.14668 0
M  V30 3358 H 321.207 0.829996 -0.458051 0
M  V30 3359 H 320.913 3.32117 -1.15721 0
M  V30 3360 H 320.787 3.73257 0.543986 0
M  V30 3361 H 323.174 2.80878 0.905065 0
M  V30 3362 H 323.255 2.42304 -0.81989 0
M  V30 3363 H 322.899 4.89189 -1.36588 0
M  V30 3364 H 322.829 5.25246 0.377362 0
M  V30 3365 H 325.32 3.77665 -0.13329 0
M  V30 3366 H 325.633 7.67581 -0.896576 0
M  V30 3367 H 323.978 6.90387 -0.799412 0
M  V30 3368 H 327.169 4.67436 -0.249278 0
M  V30 3369 H 327.342 6.45243 -0.597116 0
M  V30 3370 N 320.748 -0.0735177 1.57428 0
M  V30 3371 C 321.711 -1.07192 2.02589 0
M  V30 3372 C 322.711 -1.31695 0.922661 0
M  V30 3373 O 323.901 -1.27445 1.18758 0
M  V30 3374 C 321.033 -2.41599 2.40506 0
M  V30 3375 H 322.226 -0.682727 2.92025 0
M  V30 3376 H 319.779 -0.319193 1.53006 0
M  V30 3377 H 320.514 -2.85354 1.5409 0
M  V30 3378 H 320.299 -2.25156 3.21009 0
M  V30 3379 H 321.789 -3.13367 2.76027 0
M  V30 3380 N 322.226 -1.5378 -0.344866 0
M  V30 3381 C 323.158 -1.77988 -1.44406 0
M  V30 3382 C 324.171 -0.661138 -1.48771 0
M  V30 3383 O 325.36 -0.937842 -1.51877 0
M  V30 3384 C 322.46 -1.86345 -2.8307 0
M  V30 3385 C 321.633 -3.16256 -3.0216 0
M  V30 3386 C 320.692 -3.15588 -4.21059 0
M  V30 3387 O 319.718 -3.89314 -4.15239 0
M  V30 3388 N 320.92 -2.37864 -5.29529 0
M  V30 3389 H 323.685 -2.72839 -1.24012 0
M  V30 3390 H 321.246 -1.52814 -0.534737 0
M  V30 3391 H 323.238 -1.83351 -3.60783 0
M  V30 3392 H 321.808 -0.986858 -2.96614 0
M  V30 3393 H 321.028 -3.32385 -2.11929 0
M  V30 3394 H 322.316 -4.0207 -3.11797 0
M  V30 3395 H 321.714 -1.77514 -5.37127 0
M  V30 3396 H 320.271 -2.40668 -6.05741 0
M  V30 3397 N 323.704 0.605807 -1.45491 0
M  V30 3398 C 324.651 1.7164 -1.54299 0
M  V30 3399 C 325.621 1.61486 -0.388761 0
M  V30 3400 O 326.806 1.81039 -0.602445 0
M  V30 3401 C 323.946 3.09953 -1.51734 0
M  V30 3402 C 323.059 3.309 -2.77721 0
M  V30 3403 C 322.194 4.59329 -2.66816 0
M  V30 3404 C 321.233 4.7354 -3.87848 0
M  V30 3405 N 320.37 5.9327 -3.75467 0
M  V30 3406 H 325.21 1.63449 -2.49176 0
M  V30 3407 H 322.747 0.796957 -1.23641 0
M  V30 3408 H 324.705 3.89977 -1.48235 0
M  V30 3409 H 323.335 3.17098 -0.604068 0
M  V30 3410 H 322.387 2.44639 -2.913 0
M  V30 3411 H 323.699 3.37274 -3.67488 0
M  V30 3412 H 322.853 5.4755 -2.61292 0
M  V30 3413 H 321.592 4.55355 -1.74651 0
M  V30 3414 H 320.597 3.83741 -3.93729 0
M  V30 3415 H 321.822 4.79309 -4.81082 0
M  V30 3416 H 319.768 5.90338 -2.86072 0
M  V30 3417 H 319.685 6.00811 -4.5887 0
M  V30 3418 H 320.953 6.83984 -3.73879 0
M  V30 3419 N 325.182 1.32811 0.848464 0
M  V30 3420 C 326.431 1.23075 1.59798 0
M  V30 3421 C 326.744 -0.204419 1.94529 0
M  V30 3422 O 327.95 -0.423701 2.68173 0
M  V30 3423 C 326.406 2.15594 2.88179 0
M  V30 3424 C 326.014 3.64228 2.60849 0
M  V30 3425 C 327.758 2.14709 3.66197 0
M  V30 3426 C 325.665 4.48689 3.85269 0
M  V30 3427 H 324.595 0.457091 0.599653 0
M  V30 3428 H 327.246 1.57813 0.936342 0
M  V30 3429 H 325.628 1.73778 3.55833 0
M  V30 3430 H 326.802 4.14424 2.01467 0
M  V30 3431 H 325.117 3.67306 1.96151 0
M  V30 3432 H 327.714 2.75046 4.58534 0
M  V30 3433 H 328.057 1.13966 4.00397 0
M  V30 3434 H 328.59 2.54837 3.05455 0
M  V30 3435 H 325.329 5.5027 3.56207 0
M  V30 3436 H 324.849 4.03241 4.44024 0
M  V30 3437 H 326.528 4.62006 4.52946 0
M  V30 3438 N 326.66 -1.06551 1.16123 0
M  V30 3439 C 327.592 -2.13908 0.823171 0
M  V30 3440 C 328.605 -1.61926 -0.16843 0
M  V30 3441 O 329.794 -1.78412 0.055962 0
M  V30 3442 C 326.894 -3.38283 0.204424 0
M  V30 3443 C 326.067 -4.19589 1.23548 0
M  V30 3444 C 325.126 -5.2233 0.637011 0
M  V30 3445 O 324.152 -5.54034 1.30516 0
M  V30 3446 N 325.354 -5.77621 -0.577474 0
M  V30 3447 H 328.119 -2.43508 1.74711 0
M  V30 3448 H 325.68 -1.2253 1.05821 0
M  V30 3449 H 327.672 -4.0416 -0.208909 0
M  V30 3450 H 326.242 -3.06329 -0.623012 0
M  V30 3451 H 325.462 -3.49406 1.82507 0
M  V30 3452 H 326.75 -4.70718 1.93137 0
M  V30 3453 H 326.148 -5.54125 -1.13853 0
M  V30 3454 H 324.705 -6.45087 -0.933053 0
M  V30 3455 N 328.138 -0.959301 -1.25041 0
M  V30 3456 C 329.101 -0.487677 -2.23952 0
M  V30 3457 C 330.101 0.41119 -1.55454 0
M  V30 3458 O 331.291 0.207825 -1.72956 0
M  V30 3459 C 328.423 0.294807 -3.39623 0
M  V30 3460 H 329.616 -1.36198 -2.67189 0
M  V30 3461 H 327.169 -0.743042 -1.37508 0
M  V30 3462 H 327.904 1.18658 -3.01813 0
M  V30 3463 H 327.689 -0.35012 -3.90534 0
M  V30 3464 H 329.179 0.614089 -4.1306 0
M  V30 3465 N 329.616 1.39756 -0.72842 0
M  V30 3466 C 330.546 2.33289 -0.0991354 0
M  V30 3467 C 331.527 1.53568 0.731489 0
M  V30 3468 O 332.712 1.81987 0.677807 0
M  V30 3469 C 329.842 3.3763 0.813834 0
M  V30 3470 C 328.796 4.2791 0.0878663 0
M  V30 3471 C 328.122 5.22894 1.11741 0
M  V30 3472 C 329.422 5.11314 -1.06563 0
M  V30 3473 H 331.116 2.86163 -0.880408 0
M  V30 3474 H 328.662 1.37591 -0.424819 0
M  V30 3475 H 330.615 4.0201 1.26355 0
M  V30 3476 H 329.339 2.83181 1.62715 0
M  V30 3477 H 327.998 3.65 -0.342159 0
M  V30 3478 H 327.646 4.64744 1.92412 0
M  V30 3479 H 327.346 5.84143 0.636477 0
M  V30 3480 H 328.87 5.90151 1.56697 0
M  V30 3481 H 330.284 5.69076 -0.694671 0
M  V30 3482 H 328.681 5.81671 -1.47577 0
M  V30 3483 H 329.751 4.46534 -1.89038 0
M  V30 3484 N 331.094 0.475555 1.50254 0
M  V30 3485 C 332.371 -0.139685 1.95101 0
M  V30 3486 C 332.751 -1.56555 1.41611 0
M  V30 3487 O 332.099 -2.19956 0.618993 0
M  V30 3488 C 332.309 -0.0784298 3.48912 0
M  V30 3489 C 333.657 -0.265095 4.23772 0
M  V30 3490 O 334.681 -0.154808 3.55863 0
M  V30 3491 O 333.54 -0.488327 5.44314 0
M  V30 3492 H 330.634 -0.109236 0.819754 0
M  V30 3493 H 333.18 0.536276 1.61004 0
M  V30 3494 H 331.952 0.916918 3.80405 0
M  V30 3495 H 331.575 -0.795655 3.89558 0
M  V30 3496 N 332.573 -1.56217 0.208337 0
M  V30 3497 C 333.989 -1.58919 -0.14729 0
M  V30 3498 C 334.189 -1.22486 -1.59998 0
M  V30 3499 O 333.245 -0.953849 -2.3379 0
M  V30 3500 C 334.558 -3.00236 0.167048 0
M  V30 3501 C 336.106 -3.12813 0.108219 0
M  V30 3502 C 336.581 -4.56284 0.396049 0
M  V30 3503 N 338.072 -4.61912 0.345142 0
M  V30 3504 C 338.807 -5.70837 0.541523 0
M  V30 3505 N 338.303 -6.88178 0.798968 0
M  V30 3506 N 340.096 -5.60091 0.474867 0
M  V30 3507 H 332.247 -1.78177 1.15614 0
M  V30 3508 H 334.51 -0.827555 0.462446 0
M  V30 3509 H 334.216 -3.31499 1.1748 0
M  V30 3510 H 334.09 -3.7354 -0.524184 0
M  V30 3511 H 336.477 -2.81354 -0.890157 0
M  V30 3512 H 336.558 -2.41866 0.832729 0
M  V30 3513 H 336.202 -4.88458 1.3918 0
M  V30 3514 H 336.132 -5.25439 -0.349502 0
M  V30 3515 H 338.623 -3.77589 0.153316 0
M  V30 3516 H 338.936 -7.67095 0.93727 0
M  V30 3517 H 337.281 -6.89953 0.836013 0
M  V30 3518 H 340.472 -4.67297 0.274064 0
M  V30 3519 H 340.645 -6.44917 0.631326 0
M  V30 3520 N 334.051 0.0651679 -1.57465 0
M  V30 3521 C 335.299 0.761555 -1.87202 0
M  V30 3522 C 335.62 1.77778 -0.801243 0
M  V30 3523 O 334.89 1.95166 0.16937 0
M  V30 3524 H 333.47 0.284251 -0.690804 0
M  V30 3525 H 336.132 0.0396827 -1.9486 0
M  V30 3526 H 335.228 1.27365 -2.84929 0
M  V30 3527 N 335.529 1.53961 0.336706 0
M  V30 3528 C 336.757 1.75483 1.09605 0
M  V30 3529 C 337.172 0.4972 1.82136 0
M  V30 3530 O 336.529 -0.53149 1.74589 0
M  V30 3531 C 336.58 2.93943 2.10428 0
M  V30 3532 O 336.301 4.14842 1.40846 0
M  V30 3533 C 337.802 3.27571 2.98684 0
M  V30 3534 H 335.022 0.586166 0.326574 0
M  V30 3535 H 337.566 2.00808 0.38683 0
M  V30 3536 H 335.721 2.70929 2.76905 0
M  V30 3537 H 336.135 4.81383 2.08255 0
M  V30 3538 H 337.609 4.13791 3.6535 0
M  V30 3539 H 338.086 2.44168 3.65074 0
M  V30 3540 H 338.692 3.52615 2.37787 0
M  V30 3541 N 337.007 -0.598083 1.45811 0
M  V30 3542 C 337.97 -1.69018 1.54808 0
M  V30 3543 C 338.97 -1.55037 0.426652 0
M  V30 3544 O 340.16 -1.59932 0.690456 0
M  V30 3545 C 337.292 -3.0835 1.45371 0
M  V30 3546 H 338.485 -1.62403 2.52121 0
M  V30 3547 H 336.038 -0.814626 1.33392 0
M  V30 3548 H 336.773 -3.20534 0.492793 0
M  V30 3549 H 336.558 -3.19907 2.26721 0
M  V30 3550 H 338.048 -3.8788 1.54721 0
M  V30 3551 N 338.485 -1.33259 -0.841409 0
M  V30 3552 C 339.417 -1.19136 -1.95804 0
M  V30 3553 C 340.43 -0.122965 -1.62335 0
M  V30 3554 O 341.619 -0.373154 -1.74556 0
M  V30 3555 C 338.719 -0.804268 -3.29218 0
M  V30 3556 C 337.892 -1.96376 -3.90839 0
M  V30 3557 C 336.951 -1.55806 -5.02604 0
M  V30 3558 O 335.977 -2.27203 -5.21888 0
M  V30 3559 N 337.179 -0.461609 -5.78662 0
M  V30 3560 H 339.944 -2.15326 -2.08458 0
M  V30 3561 H 337.505 -1.25971 -1.017 0
M  V30 3562 H 339.497 -0.51501 -4.0141 0
M  V30 3563 H 338.067 0.0668809 -3.12528 0
M  V30 3564 H 337.287 -2.41879 -3.11269 0
M  V30 3565 H 338.575 -2.73966 -4.28742 0
M  V30 3566 H 337.973 0.132343 -5.65545 0
M  V30 3567 H 336.53 -0.232013 -6.51387 0
M  V30 3568 N 339.963 1.05934 -1.16686 0
M  V30 3569 C 341.193 1.82226 -0.973515 0
M  V30 3570 C 341.601 1.8297 0.481532 0
M  V30 3571 O 340.944 1.25009 1.34604 0
M  V30 3572 C 341.006 3.29897 -1.42858 0
M  V30 3573 C 340.67 3.52849 -2.90425 0
M  V30 3574 C 341.667 3.45595 -3.88407 0
M  V30 3575 C 339.352 3.80053 -3.28428 0
M  V30 3576 C 341.346 3.65217 -5.22394 0
M  V30 3577 C 339.033 3.99325 -4.62583 0
M  V30 3578 C 340.031 3.91905 -5.59374 0
M  V30 3579 O 339.719 4.10647 -6.91104 0
M  V30 3580 H 339.451 0.581314 -0.345036 0
M  V30 3581 H 342.005 1.3453 -1.55212 0
M  V30 3582 H 340.235 3.78472 -0.793477 0
M  V30 3583 H 341.924 3.87692 -1.20207 0
M  V30 3584 H 342.69 3.24564 -3.60393 0
M  V30 3585 H 338.569 3.84936 -2.53664 0
M  V30 3586 H 342.113 3.59341 -5.9793 0
M  V30 3587 H 338.01 4.19846 -4.90306 0
M  V30 3588 H 338.778 4.27915 -6.97733 0
M  V30 3589 N 341.441 0.965919 1.2453 0
M  V30 3590 C 342.689 0.625593 1.92174 0
M  V30 3591 C 343.01 -0.841652 1.75901 0
M  V30 3592 O 342.28 -1.60061 1.12948 0
M  V30 3593 H 340.86 0.228388 0.71123 0
M  V30 3594 H 343.522 1.2266 1.51461 0
M  V30 3595 H 342.618 0.864653 2.99884 0
M  V30 3596 N 342.919 -1.39368 0.735821 0
M  V30 3597 C 344.165 -2.00794 0.284544 0
M  V30 3598 C 344.498 -1.58255 -1.12557 0
M  V30 3599 O 343.773 -0.811819 -1.76748 0
M  V30 3600 C 344.056 -3.58011 0.387337 0
M  V30 3601 C 343.909 -4.10566 1.83728 0
M  V30 3602 C 345.228 -4.395 -0.22975 0
M  V30 3603 H 342.347 -0.729501 0.104866 0
M  V30 3604 H 344.989 -1.65564 0.93213 0
M  V30 3605 H 343.139 -3.88154 -0.164006 0
M  V30 3606 H 344.811 -3.91139 2.44556 0
M  V30 3607 H 343.054 -3.64095 2.35833 0
M  V30 3608 H 343.725 -5.19702 1.86047 0
M  V30 3609 H 346.201 -4.15406 0.240257 0
M  V30 3610 H 345.077 -5.48752 -0.127485 0
M  V30 3611 H 345.338 -4.22062 -1.3159 0
M  V30 3612 N 344.397 -0.483516 -1.5 0
M  V30 3613 C 345.625 0.0644831 -2.06799 0
M  V30 3614 C 346.04 1.32399 -1.34596 0
M  V30 3615 O 345.397 1.77626 -0.418946 0
M  V30 3616 C 345.448 0.339927 -3.59898 0
M  V30 3617 O 345.169 -0.869635 -4.29382 0
M  V30 3618 C 346.67 0.933515 -4.33359 0
M  V30 3619 H 343.89 -0.0126333 -0.670881 0
M  V30 3620 H 346.434 -0.675864 -1.93009 0
M  V30 3621 H 344.589 1.03022 -3.7345 0
M  V30 3622 H 345.003 -0.62179 -5.20801 0
M  V30 3623 H 346.477 1.07593 -5.41413 0
M  V30 3624 H 346.954 1.92685 -3.94676 0
M  V30 3625 H 347.56 0.281221 -4.24369 0
M  V30 3626 N 345.875 1.56104 -0.216619 0
M  V30 3627 C 346.822 2.2007 0.695531 0
M  V30 3628 C 347.792 1.15471 1.19397 0
M  V30 3629 O 348.977 1.43807 1.25396 0
M  V30 3630 C 346.117 2.88073 1.90021 0
M  V30 3631 C 345.23 4.07253 1.44113 0
M  V30 3632 C 344.365 4.63052 2.603 0
M  V30 3633 C 343.404 5.74545 2.11103 0
M  V30 3634 N 342.541 6.24656 3.20545 0
M  V30 3635 H 347.381 2.97655 0.143327 0
M  V30 3636 H 344.918 1.46982 0.0589934 0
M  V30 3637 H 346.876 3.25681 2.60745 0
M  V30 3638 H 345.506 2.13015 2.42538 0
M  V30 3639 H 344.558 3.75164 0.628999 0
M  V30 3640 H 345.87 4.8783 1.04036 0
M  V30 3641 H 345.024 5.03078 3.39113 0
M  V30 3642 H 343.763 3.81628 3.03663 0
M  V30 3643 H 342.768 5.34027 1.3075 0
M  V30 3644 H 343.993 6.57801 1.68746 0
M  V30 3645 H 341.939 5.46148 3.63399 0
M  V30 3646 H 341.856 7.00343 2.84704 0
M  V30 3647 H 343.124 6.69338 3.99508 0
M  V30 3648 N 347.353 -0.0568162 1.57498 0
M  V30 3649 C 348.6 -0.753104 1.87975 0
M  V30 3650 C 348.928 -1.76815 0.81035 0
M  V30 3651 O 348.183 -1.94756 -0.19199 0
M  V30 3652 C 348.482 -1.48359 3.25153 0
M  V30 3653 C 348.148 -0.60713 4.46794 0
M  V30 3654 C 346.81 -0.365642 4.79809 0
M  V30 3655 C 349.162 -0.000305978 5.212 0
M  V30 3656 C 346.49 0.491905 5.84634 0
M  V30 3657 C 348.842 0.844781 6.26934 0
M  V30 3658 C 347.506 1.096 6.58441 0
M  V30 3659 H 346.776 -0.27558 0.687849 0
M  V30 3660 H 349.423 -0.0135173 1.91495 0
M  V30 3661 H 347.728 -2.29577 3.17492 0
M  V30 3662 H 349.425 -2.02739 3.45974 0
M  V30 3663 H 346.015 -0.805487 4.20963 0
M  V30 3664 H 350.199 -0.173961 4.95995 0
M  V30 3665 H 345.455 0.695131 6.07436 0
M  V30 3666 H 349.629 1.32165 6.83744 0
M  V30 3667 H 347.256 1.76224 7.39492 0
M  V30 3668 N 348.832 -1.54138 -0.328536 0
M  V30 3669 C 350.057 -1.76378 -1.09112 0
M  V30 3670 C 350.482 -0.508596 -1.81094 0
M  V30 3671 O 349.84 0.539598 -1.73084 0
M  V30 3672 C 349.888 -2.95358 -2.06872 0
M  V30 3673 O 348.992 -2.66556 -3.14677 0
M  V30 3674 H 348.333 -0.584614 -0.314838 0
M  V30 3675 H 350.863 -2.01146 -0.374348 0
M  V30 3676 H 350.873 -3.22566 -2.4983 0
M  V30 3677 H 349.548 -3.86385 -1.5388 0
M  V30 3678 H 348.125 -2.50282 -2.7643 0
M  V30 3679 N 350.31 0.590341 -1.46126 0
M  V30 3680 C 351.587 1.35029 -1.41515 0
M  V30 3681 C 351.967 2.10888 -0.0946472 0
M  V30 3682 O 351.315 2.08998 0.923693 0
M  V30 3683 C 351.525 2.28269 -2.63997 0
M  V30 3684 C 352.873 2.90338 -3.09821 0
M  V30 3685 O 353.897 2.38585 -2.64492 0
M  V30 3686 O 352.756 3.84321 -3.88535 0
M  V30 3687 H 349.85 0.606317 -0.562413 0
M  V30 3688 H 352.396 0.611994 -1.58281 0
M  V30 3689 H 351.168 1.71591 -3.51671 0
M  V30 3690 H 350.791 3.0945 -2.49652 0
M  V30 3691 N 351.788 1.33704 0.83433 0
M  V30 3692 C 352.718 1.26967 1.95963 0
M  V30 3693 C 353.699 0.149337 1.69443 0
M  V30 3694 O 354.884 0.339852 1.91203 0
M  V30 3695 C 352.014 1.01275 3.32206 0
M  V30 3696 C 350.968 2.09652 3.73136 0
M  V30 3697 C 350.294 1.69166 5.07235 0
M  V30 3698 C 351.594 3.51372 3.86439 0
M  V30 3699 H 353.288 2.2112 2.01857 0
M  V30 3700 H 350.834 1.06447 0.969793 0
M  V30 3701 H 352.787 0.952106 4.10503 0
M  V30 3702 H 351.511 0.0356203 3.26581 0
M  V30 3703 H 350.17 2.14766 2.97104 0
M  V30 3704 H 349.818 0.701437 4.98085 0
M  V30 3705 H 349.518 2.41694 5.35591 0
M  V30 3706 H 351.042 1.64576 5.88003 0
M  V30 3707 H 352.456 3.48734 4.55036 0
M  V30 3708 H 350.853 4.22425 4.26236 0
M  V30 3709 H 351.923 3.89546 2.88759 0
M  V30 3710 N 353.266 -1.05314 1.17247 0
M  V30 3711 C 354.494 -1.81971 0.984593 0
M  V30 3712 C 354.909 -1.82929 -0.467166 0
M  V30 3713 O 354.266 -1.25564 -1.32438 0
M  V30 3714 C 354.317 -3.28143 1.51672 0
M  V30 3715 O 354.038 -3.27347 2.91163 0
M  V30 3716 C 355.539 -4.21493 1.37326 0
M  V30 3717 H 352.759 -0.573455 0.348411 0
M  V30 3718 H 355.303 -1.32808 1.55506 0
M  V30 3719 H 353.458 -3.74582 0.988302 0
M  V30 3720 H 353.872 -4.18824 3.15732 0
M  V30 3721 H 355.346 -5.22043 1.79375 0
M  V30 3722 H 355.823 -4.38031 0.320169 0
M  V30 3723 H 356.429 -3.80909 1.89178 0
M  V30 3724 N 354.744 -0.972509 -1.24016 0
M  V30 3725 C 355.654 -0.5143 -2.28893 0
M  V30 3726 C 356.67 0.427078 -1.68677 0
M  V30 3727 O 357.846 0.298939 -1.99169 0
M  V30 3728 C 354.911 0.183598 -3.46214 0
M  V30 3729 C 353.972 -0.798202 -4.21814 0
M  V30 3730 C 353.205 -0.133514 -5.33533 0
M  V30 3731 O 353.428 1.07714 -5.60137 0
M  V30 3732 O 352.362 -0.828103 -5.96176 0
M  V30 3733 H 356.188 -1.38629 -2.70214 0
M  V30 3734 H 353.773 -0.739769 -1.29799 0
M  V30 3735 H 355.655 0.575433 -4.17453 0
M  V30 3736 H 354.33 1.03048 -3.0686 0
M  V30 3737 H 353.237 -1.24059 -3.52931 0
M  V30 3738 H 354.57 -1.61364 -4.64997 0
M  V30 3739 N 356.222 1.38976 -0.743202 0
M  V30 3740 C 357.132 2.3434 -0.110399 0
M  V30 3741 C 358.148 1.58741 0.712559 0
M  V30 3742 O 359.324 1.9099 0.639125 0
M  V30 3743 C 356.389 3.37812 0.780012 0
M  V30 3744 C 355.45 4.29263 -0.0561319 0
M  V30 3745 C 354.683 5.27793 0.791875 0
M  V30 3746 O 354.906 5.33043 2.03031 0
M  V30 3747 O 353.84 6.01512 0.216183 0
M  V30 3748 H 357.666 2.90129 -0.897714 0
M  V30 3749 H 355.251 1.40643 -0.503966 0
M  V30 3750 H 357.133 4.01194 1.28923 0
M  V30 3751 H 355.808 2.84395 1.546 0
M  V30 3752 H 354.715 3.69076 -0.611056 0
M  V30 3753 H 356.048 4.85907 -0.784531 0
M  V30 3754 N 357.7 0.491464 1.49741 0
M  V30 3755 C 358.61 -0.296835 2.32715 0
M  V30 3756 C 359.626 -0.976536 1.44013 0
M  V30 3757 O 360.802 -0.960023 1.77047 0
M  V30 3758 C 357.867 -1.35288 3.19215 0
M  V30 3759 C 356.928 -0.687632 4.23757 0
M  V30 3760 C 356.161 -1.69336 5.06123 0
M  V30 3761 O 356.384 -2.92219 4.89861 0
M  V30 3762 O 355.318 -1.25394 5.88693 0
M  V30 3763 H 359.144 0.382048 3.01287 0
M  V30 3764 H 356.729 0.252953 1.47243 0
M  V30 3765 H 358.611 -1.96411 3.72828 0
M  V30 3766 H 357.286 -2.01487 2.53347 0
M  V30 3767 H 356.193 -0.0369159 3.74082 0
M  V30 3768 H 357.526 -0.0682566 4.92153 0
M  V30 3769 N 359.178 -1.55987 0.224894 0
M  V30 3770 C 360.425 -1.9839 -0.4059 0
M  V30 3771 C 360.753 -1.11261 -1.59535 0
M  V30 3772 O 360.008 -0.158314 -1.95059 0
M  V30 3773 C 360.307 -3.46394 -0.880106 0
M  V30 3774 C 359.973 -4.5046 0.19918 0
M  V30 3775 C 358.635 -4.7864 0.495661 0
M  V30 3776 C 360.987 -5.12855 0.928939 0
M  V30 3777 C 358.315 -5.66497 1.52636 0
M  V30 3778 C 360.667 -6.01828 1.949 0
M  V30 3779 C 359.331 -6.28351 2.25236 0
M  V30 3780 H 358.601 -0.725961 -0.148529 0
M  V30 3781 H 361.248 -1.88668 0.328113 0
M  V30 3782 H 359.553 -3.53337 -1.69294 0
M  V30 3783 H 361.25 -3.76577 -1.37808 0
M  V30 3784 H 357.84 -4.28579 -0.0420526 0
M  V30 3785 H 362.024 -4.9115 0.713129 0
M  V30 3786 H 357.28 -5.8531 1.76698 0
M  V30 3787 H 361.454 -6.49225 2.51951 0
M  V30 3788 H 359.081 -6.96226 3.05244 0
M  V30 3789 N 360.656 0.0484629 -1.57525 0
M  V30 3790 C 362.072 0.40375 -1.54409 0
M  V30 3791 C 362.272 1.77786 -0.948384 0
M  V30 3792 O 361.328 2.46189 -0.560983 0
M  V30 3793 C 362.641 0.323394 -2.98956 0
M  V30 3794 C 364.189 0.401892 -3.10409 0
M  V30 3795 C 364.664 0.351195 -4.56652 0
M  V30 3796 N 366.155 0.410576 -4.61377 0
M  V30 3797 C 366.89 0.393933 -5.72045 0
M  V30 3798 N 366.386 0.330724 -6.9201 0
M  V30 3799 N 368.179 0.442227 -5.60358 0
M  V30 3800 H 360.33 -0.851016 -1.94606 0
M  V30 3801 H 362.593 -0.321721 -0.89174 0
M  V30 3802 H 362.299 -0.62011 -3.4619 0
M  V30 3803 H 362.173 1.12463 -3.60044 0
M  V30 3804 H 364.56 1.33582 -2.63134 0
M  V30 3805 H 364.641 -0.428342 -2.52188 0
M  V30 3806 H 364.285 -0.578987 -5.04589 0
M  V30 3807 H 364.215 1.19928 -5.12762 0
M  V30 3808 H 366.706 0.462729 -3.75056 0
M  V30 3809 H 367.019 0.322592 -7.72126 0
M  V30 3810 H 365.364 0.29706 -6.94365 0
M  V30 3811 H 368.555 0.489464 -4.65534 0
M  V30 3812 H 368.728 0.425788 -6.466 0
M  V30 3813 N 362.134 1.5431 0.320358 0
M  V30 3814 C 363.362 1.76636 1.07738 0
M  V30 3815 C 363.777 0.51649 1.81598 0
M  V30 3816 O 363.134 -0.512942 1.75143 0
M  V30 3817 C 363.185 2.96158 2.07299 0
M  V30 3818 O 362.906 4.16313 1.36438 0
M  V30 3819 C 364.407 3.3072 2.95193 0
M  V30 3820 H 361.627 0.589597 0.320339 0
M  V30 3821 H 364.171 2.01207 0.36551 0
M  V30 3822 H 362.326 2.73851 2.74016 0
M  V30 3823 H 362.74 4.83565 2.03138 0
M  V30 3824 H 364.214 4.17643 3.60941 0
M  V30 3825 H 364.691 2.48026 3.62463 0
M  V30 3826 H 365.297 3.55117 2.34034 0
M  V30 3827 N 363.613 -0.582584 1.46437 0
M  V30 3828 C 364.862 -1.337 1.5102 0
M  V30 3829 C 365.175 -1.94891 0.166359 0
M  V30 3830 O 366.381 -2.71351 0.0899954 0
M  V30 3831 C 364.837 -2.42315 2.66104 0
M  V30 3832 C 364.445 -1.87427 4.06909 0
M  V30 3833 C 366.189 -3.19099 2.79958 0
M  V30 3834 C 364.096 -2.93672 5.13333 0
M  V30 3835 H 363.026 -0.502619 0.562041 0
M  V30 3836 H 365.677 -0.621701 1.72647 0
M  V30 3837 H 364.059 -3.16645 2.37807 0
M  V30 3838 H 365.233 -1.19639 4.44998 0
M  V30 3839 H 363.548 -1.2331 3.97723 0
M  V30 3840 H 366.145 -3.9839 3.56636 0
M  V30 3841 H 366.488 -3.71695 1.87479 0
M  V30 3842 H 367.021 -2.51875 3.07902 0
M  V30 3843 H 363.76 -2.45962 6.07604 0
M  V30 3844 H 363.28 -3.59948 4.79789 0
M  V30 3845 H 364.959 -3.5762 5.39182 0
M  V30 3846 N 365.091 -1.34144 -0.827227 0
M  V30 3847 C 366.321 -1.29138 -1.61267 0
M  V30 3848 C 366.729 0.137597 -1.88699 0
M  V30 3849 O 366.072 1.09379 -1.47587 0
M  V30 3850 C 366.134 -2.0097 -2.9808 0
M  V30 3851 C 365.798 -3.50242 -2.93563 0
M  V30 3852 C 366.795 -4.4523 -2.68452 0
M  V30 3853 C 364.48 -3.92592 -3.13331 0
M  V30 3854 C 366.474 -5.80542 -2.63154 0
M  V30 3855 C 364.161 -5.28005 -3.07658 0
M  V30 3856 C 365.159 -6.21792 -2.82602 0
M  V30 3857 O 364.847 -7.54723 -2.76853 0
M  V30 3858 H 364.579 -0.445851 -0.508127 0
M  V30 3859 H 367.133 -1.77263 -1.03763 0
M  V30 3860 H 365.363 -1.47451 -3.57484 0
M  V30 3861 H 367.052 -1.89309 -3.5905 0
M  V30 3862 H 367.818 -4.13832 -2.52919 0
M  V30 3863 H 363.697 -3.19994 -3.31851 0
M  V30 3864 H 367.241 -6.53717 -2.43516 0
M  V30 3865 H 363.138 -5.59023 -3.22743 0
M  V30 3866 H 363.906 -7.64409 -2.92611 0
M  V30 3867 N 366.569 1.04691 -1.17803 0
M  V30 3868 C 367.499 2.14494 -0.92275 0
M  V30 3869 C 368.48 1.69546 0.137179 0
M  V30 3870 O 369.665 1.94195 -0.0141108 0
M  V30 3871 C 366.795 3.44491 -0.440803 0
M  V30 3872 C 365.749 4.03031 -1.4405 0
M  V30 3873 C 365.075 5.28432 -0.81631 0
M  V30 3874 C 366.375 4.39932 -2.81527 0
M  V30 3875 H 368.069 2.36107 -1.84103 0
M  V30 3876 H 365.615 1.1347 -0.886599 0
M  V30 3877 H 367.568 4.2066 -0.249602 0
M  V30 3878 H 366.292 3.22546 0.513025 0
M  V30 3879 H 364.951 3.28937 -1.61853 0
M  V30 3880 H 364.599 5.02792 0.144511 0
M  V30 3881 H 364.299 5.68559 -1.48371 0
M  V30 3882 H 365.823 6.07284 -0.635496 0
M  V30 3883 H 367.237 5.07113 -2.67412 0
M  V30 3884 H 365.634 4.9109 -3.44892 0
M  V30 3885 H 366.704 3.50045 -3.35554 0
M  V30 3886 N 368.047 0.979072 1.23499 0
M  V30 3887 C 368.995 0.510604 2.26926 0
M  V30 3888 C 369.989 -0.431691 1.63807 0
M  V30 3889 O 371.195 -0.30573 1.77385 0
M  V30 3890 H 367.57 0.146688 0.737554 0
M  V30 3891 H 369.541 1.39466 2.63803 0
M  V30 3892 C 368.29 -0.172658 3.47271 0
M  V30 3893 H 367.613 0.543331 3.96091 0
M  V30 3894 H 369.053 -0.464101 4.21452 0
M  V30 3895 C 367.512 -1.40345 3.06276 0
M  V30 3896 O 368.042 -2.49978 3.14442 0
M  V30 3897 N 366.248 -1.27362 2.61203 0
M  V30 3898 H 365.795 -0.381584 2.54758 0
M  V30 3899 H 365.753 -2.09822 2.34141 0
M  V30 3900 N 369.525 -1.3858 0.750561 0
M  V30 3901 C 370.753 -2.04471 0.316098 0
M  V30 3902 C 371.168 -1.56606 -1.05452 0
M  V30 3903 O 370.525 -0.737784 -1.66922 0
M  V30 3904 C 370.576 -3.60025 0.326275 0
M  V30 3905 O 370.297 -4.06133 1.6428 0
M  V30 3906 C 371.798 -4.43131 -0.122429 0
M  V30 3907 H 369.018 -0.65717 0.135528 0
M  V30 3908 H 371.562 -1.77329 1.01857 0
M  V30 3909 H 369.717 -3.86014 -0.327431 0
M  V30 3910 H 370.131 -5.00547 1.56693 0
M  V30 3911 H 371.605 -5.51963 -0.0641473 0
M  V30 3912 H 372.082 -4.23333 -1.16988 0
M  V30 3913 H 372.688 -4.22323 0.50229 0
M  V30 3914 N 371.003 -0.499398 -1.49478 0
M  V30 3915 C 371.933 0.269244 -2.31943 0
M  V30 3916 C 372.914 0.964054 -1.40143 0
M  V30 3917 O 374.099 0.955767 -1.69052 0
M  V30 3918 C 371.229 1.33504 -3.20615 0
M  V30 3919 C 370.183 0.760202 -4.21195 0
M  V30 3920 C 369.509 1.9264 -4.98792 0
M  V30 3921 C 370.809 -0.247661 -5.21712 0
M  V30 3922 H 372.503 -0.419082 -2.96452 0
M  V30 3923 H 370.049 -0.202988 -1.42562 0
M  V30 3924 H 372.002 1.88048 -3.77115 0
M  V30 3925 H 370.726 2.05253 -2.54045 0
M  V30 3926 H 369.385 0.23653 -3.65836 0
M  V30 3927 H 369.033 2.63154 -4.28671 0
M  V30 3928 H 368.733 1.54785 -5.66847 0
M  V30 3929 H 370.257 2.4762 -5.58137 0
M  V30 3930 H 371.671 0.209579 -5.72917 0
M  V30 3931 H 370.068 -0.541962 -5.97648 0
M  V30 3932 H 371.138 -1.16409 -4.7072 0
M  V30 3933 N 372.481 1.55866 -0.233164 0
M  V30 3934 C 373.411 2.23783 0.666599 0
M  V30 3935 C 374.392 1.21343 1.19205 0
M  V30 3936 O 375.577 1.4996 1.23392 0
M  V30 3937 C 372.707 2.92671 1.86978 0
M  V30 3938 C 371.661 4.01682 1.47768 0
M  V30 3939 C 370.987 4.57926 2.76058 0
M  V30 3940 C 372.287 5.18126 0.658993 0
M  V30 3941 H 373.981 2.99232 0.100306 0
M  V30 3942 H 371.527 1.43924 0.046804 0
M  V30 3943 H 373.48 3.3888 2.50476 0
M  V30 3944 H 372.204 2.14688 2.46123 0
M  V30 3945 H 370.863 3.56222 0.866106 0
M  V30 3946 H 370.511 3.76659 3.33372 0
M  V30 3947 H 370.211 5.31505 2.50552 0
M  V30 3948 H 371.735 5.06859 3.40479 0
M  V30 3949 H 373.149 5.60644 1.19795 0
M  V30 3950 H 371.546 5.98009 0.500552 0
M  V30 3951 H 372.616 4.83763 -0.331856 0
M  V30 3952 N 373.959 -0.0401083 1.57549 0
M  V30 3953 C 375.375 -0.395556 1.54621 0
M  V30 3954 C 375.575 -1.77281 0.957799 0
M  V30 3955 O 374.631 -2.45888 0.574031 0
M  V30 3956 C 375.944 -0.307535 2.99123 0
M  V30 3957 C 377.492 -0.385425 3.10618 0
M  V30 3958 C 377.967 -0.326973 4.56831 0
M  V30 3959 N 379.458 -0.386102 4.61588 0
M  V30 3960 C 380.193 -0.363591 5.72246 0
M  V30 3961 N 379.689 -0.29402 6.92176 0
M  V30 3962 N 381.482 -0.412503 5.60584 0
M  V30 3963 H 373.633 0.861325 1.94152 0
M  V30 3964 H 375.896 0.326445 0.890021 0
M  V30 3965 H 375.602 0.638461 3.45856 0
M  V30 3966 H 375.476 -1.10552 3.60636 0
M  V30 3967 H 377.863 -1.32185 2.63839 0
M  V30 3968 H 377.944 0.44171 2.51957 0
M  V30 3969 H 377.588 0.605738 5.04275 0
M  V30 3970 H 377.518 -1.17207 5.13391 0
M  V30 3971 H 380.009 -0.442832 3.75296 0
M  V30 3972 H 380.322 -0.28164 7.72287 0
M  V30 3973 H 378.667 -0.260232 6.94513 0
M  V30 3974 H 381.858 -0.464769 4.65787 0
M  V30 3975 H 382.031 -0.391492 6.46816 0
M  V30 3976 N 375.437 -1.54477 -0.31217 0
M  V30 3977 C 376.384 -1.84655 -1.38461 0
M  V30 3978 C 377.354 -0.694536 -1.50882 0
M  V30 3979 O 378.539 -0.942081 -1.6592 0
M  V30 3980 C 375.679 -2.0896 -2.74645 0
M  V30 3981 C 374.792 -3.36618 -2.70763 0
M  V30 3982 C 373.927 -3.50824 -3.98868 0
M  V30 3983 C 372.966 -4.72315 -3.89339 0
M  V30 3984 N 372.103 -4.83387 -5.09197 0
M  V30 3985 H 376.943 -2.76142 -1.12026 0
M  V30 3986 H 374.48 -1.36748 -0.542065 0
M  V30 3987 H 376.438 -2.21045 -3.53829 0
M  V30 3988 H 375.068 -1.20752 -2.99364 0
M  V30 3989 H 374.12 -3.33211 -1.83506 0
M  V30 3990 H 375.432 -4.25917 -2.59608 0
M  V30 3991 H 374.586 -3.62513 -4.86486 0
M  V30 3992 H 373.325 -2.59638 -4.12843 0
M  V30 3993 H 372.33 -4.6067 -3.00105 0
M  V30 3994 H 373.555 -5.64897 -3.76919 0
M  V30 3995 H 371.501 -3.9512 -5.23657 0
M  V30 3996 H 371.418 -5.66669 -5.00422 0
M  V30 3997 H 372.686 -4.9942 -5.98498 0
M  V30 3998 N 376.915 0.57481 -1.46744 0
M  V30 3999 C 377.825 1.711 -1.60505 0
M  V30 4000 C 378.841 1.67008 -0.488307 0
M  V30 4001 O 380.017 1.86774 -0.753495 0
M  V30 4002 C 377.082 3.07608 -1.59932 0
M  V30 4003 C 376.143 3.22904 -2.82898 0
M  V30 4004 C 375.376 4.529 -2.82343 0
M  V30 4005 O 375.599 5.37278 -1.91542 0
M  V30 4006 O 374.533 4.71611 -3.73987 0
M  V30 4007 H 378.359 1.62436 -2.56609 0
M  V30 4008 H 375.944 0.742779 -1.29627 0
M  V30 4009 H 377.826 3.88877 -1.62336 0
M  V30 4010 H 376.501 3.16692 -0.669898 0
M  V30 4011 H 375.408 2.41099 -2.86046 0
M  V30 4012 H 376.741 3.18715 -3.75076 0
M  V30 4013 N 378.394 1.34581 0.820102 0
M  V30 4014 C 379.805 1.24298 1.39309 0
M  V30 4015 C 380.156 -0.130351 1.95767 0
M  V30 4016 O 379.281 -1.0308 1.90272 0
M  V30 4017 C 379.876 2.25054 2.53251 0
M  V30 4018 C 378.435 2.18552 3.0645 0
M  V30 4019 C 377.582 2.11503 1.79337 0
M  V30 4020 H 380.533 1.45906 0.624262 0
M  V30 4021 H 380.554 1.86917 3.31425 0
M  V30 4022 H 380.066 3.24996 2.1213 0
M  V30 4023 H 378.167 1.21976 3.52069 0
M  V30 4024 H 378.28 3.0993 3.65349 0
M  V30 4025 H 376.644 1.57268 2.00347 0
M  V30 4026 H 377.427 3.13284 1.40386 0
M  V30 4027 N 379.872 -1.04064 1.18357 0
M  V30 4028 C 381.12 -1.76915 0.977013 0
M  V30 4029 C 381.441 -1.88624 -0.494577 0
M  V30 4030 O 380.711 -1.41125 -1.3587 0
M  V30 4031 H 379.291 -0.65535 0.358504 0
M  V30 4032 H 381.953 -1.25592 1.49039 0
M  V30 4033 H 381.049 -2.78178 1.41504 0
M  V30 4034 N 381.35 -0.985608 -1.22978 0
M  V30 4035 C 382.298 -0.522631 -2.26652 0
M  V30 4036 C 383.292 0.422998 -1.64034 0
M  V30 4037 O 384.498 0.296319 -1.77544 0
M  V30 4038 H 380.873 -0.150597 -0.736766 0
M  V30 4039 H 382.844 -1.40863 -2.63059 0
M  V30 4040 C 381.593 0.154238 -3.47358 0
M  V30 4041 H 380.916 -0.564329 -3.95797 0
M  V30 4042 H 382.356 0.441744 -4.21693 0
M  V30 4043 C 380.815 1.38719 -3.07016 0
M  V30 4044 O 381.345 2.48307 -3.15764 0
M  V30 4045 N 379.551 1.25975 -2.61875 0
M  V30 4046 H 379.098 0.368068 -2.54957 0
M  V30 4047 H 379.056 2.08578 -2.3525 0
M  V30 4048 N 382.828 1.3818 -0.7579 0
M  V30 4049 C 383.775 2.30416 -0.133057 0
M  V30 4050 C 384.745 1.50398 0.704957 0
M  V30 4051 O 385.93 1.79014 0.660192 0
M  V30 4052 C 383.07 3.36834 0.750813 0
M  V30 4053 C 382.183 4.31879 -0.102297 0
M  V30 4054 C 381.318 5.25368 0.784979 0
M  V30 4055 C 380.357 6.12058 -0.0715046 0
M  V30 4056 N 379.494 6.97832 0.772972 0
M  V30 4057 H 384.334 2.83274 -0.925186 0
M  V30 4058 H 381.871 1.39461 -0.467866 0
M  V30 4059 H 383.829 3.97145 1.27794 0
M  V30 4060 H 382.459 2.85374 1.50868 0
M  V30 4061 H 381.511 3.72991 -0.747095 0
M  V30 4062 H 382.823 4.92921 -0.763552 0
M  V30 4063 H 381.977 5.90818 1.37911 0
M  V30 4064 H 380.716 4.64703 1.47996 0
M  V30 4065 H 379.721 5.456 -0.678272 0
M  V30 4066 H 380.946 6.74793 -0.763606 0
M  V30 4067 H 378.892 6.3971 1.45282 0
M  V30 4068 H 378.809 7.55812 0.168709 0
M  V30 4069 H 380.077 7.67687 1.35194 0
M  V30 4070 N 384.306 0.507319 1.49211 0
M  V30 4071 C 385.239 -0.314509 2.26022 0
M  V30 4072 C 386.217 -0.964849 1.30879 0
M  V30 4073 O 387.401 -0.993707 1.6018 0
M  V30 4074 C 384.528 -1.44346 3.06402 0
M  V30 4075 C 383.574 -0.90685 4.16748 0
M  V30 4076 S 384.407 0.207392 5.35098 0
M  V30 4077 C 385.563 -0.924573 6.19033 0
M  V30 4078 H 385.796 0.337416 2.95379 0
M  V30 4079 H 383.329 0.292718 1.516 0
M  V30 4080 H 385.287 -2.09029 3.53295 0
M  V30 4081 H 383.948 -2.06702 2.36502 0
M  V30 4082 H 383.141 -1.75309 4.72528 0
M  V30 4083 H 382.743 -0.33712 3.72478 0
M  V30 4084 H 385.035 -1.82839 6.52362 0
M  V30 4085 H 385.978 -0.405248 7.06939 0
M  V30 4086 H 386.386 -1.19476 5.51712 0
M  V30 4087 N 385.784 -1.5574 0.241426 0
M  V30 4088 C 386.731 -2.21149 -0.660432 0
M  V30 4089 C 387.701 -1.17356 -1.17545 0
M  V30 4090 O 388.886 -1.45784 -1.23093 0
M  V30 4091 C 386.026 -2.91059 -1.85414 0
M  V30 4092 C 385.139 -4.09495 -1.37616 0
M  V30 4093 C 384.274 -4.67135 -2.529 0
M  V30 4094 C 383.313 -5.77831 -2.01936 0
M  V30 4095 N 382.45 -6.29677 -3.10566 0
M  V30 4096 H 387.29 -2.97845 -0.095955 0
M  V30 4097 H 384.827 -1.47057 -0.0356024 0
M  V30 4098 H 386.785 -3.29788 -2.5553 0
M  V30 4099 H 385.415 -2.16846 -2.39118 0
M  V30 4100 H 384.467 -3.76117 -0.569235 0
M  V30 4101 H 385.779 -4.89423 -0.962618 0
M  V30 4102 H 384.933 -5.08409 -3.31067 0
M  V30 4103 H 383.672 -3.86411 -2.97553 0
M  V30 4104 H 382.677 -5.36039 -1.22238 0
M  V30 4105 H 383.902 -6.60402 -1.58259 0
M  V30 4106 H 381.848 -5.5186 -3.54664 0
M  V30 4107 H 381.765 -7.04783 -2.73526 0
M  V30 4108 H 383.033 -6.75609 -3.88809 0
M  V30 4109 N 387.262 0.0317525 -1.57568 0
M  V30 4110 C 388.194 1.06073 -2.03178 0
M  V30 4111 C 389.207 1.32627 -0.944132 0
M  V30 4112 O 390.396 1.30162 -1.22148 0
M  V30 4113 C 387.496 2.40297 -2.38978 0
M  V30 4114 C 386.669 2.33137 -3.70089 0
M  V30 4115 C 385.728 3.49787 -3.9311 0
M  V30 4116 O 384.754 3.29403 -4.64201 0
M  V30 4117 N 385.956 4.71562 -3.38541 0
M  V30 4118 H 388.721 0.672006 -2.92069 0
M  V30 4119 H 386.282 0.219745 -1.60402 0
M  V30 4120 H 388.274 3.1705 -2.51518 0
M  V30 4121 H 386.844 2.71024 -1.55771 0
M  V30 4122 H 386.064 1.415 -3.67928 0
M  V30 4123 H 387.352 2.25493 -4.56104 0
M  V30 4124 H 386.75 4.91024 -2.80912 0
M  V30 4125 H 385.307 5.45689 -3.56464 0
M  V30 4126 N 388.74 1.54641 0.303973 0
M  V30 4127 C 389.703 1.84646 1.35789 0
M  V30 4128 C 390.703 0.7192 1.4382 0
M  V30 4129 O 391.893 0.987491 1.43507 0
M  V30 4130 C 389.025 2.02407 2.74307 0
M  V30 4131 H 390.218 2.78829 1.10429 0
M  V30 4132 H 387.771 1.46658 0.540487 0
M  V30 4133 H 388.506 1.10502 3.04893 0
M  V30 4134 H 388.291 2.84453 2.69868 0
M  V30 4135 H 389.781 2.27002 3.50514 0
M  V30 4136 N 390.218 -0.567019 1.47046 0
M  V30 4137 C 391.165 -1.67489 1.58796 0
M  V30 4138 C 392.135 -1.60399 0.43144 0
M  V30 4139 O 393.32 -1.79378 0.650233 0
M  V30 4140 C 390.46 -3.05821 1.59899 0
M  V30 4141 C 389.573 -3.2342 2.86397 0
M  V30 4142 C 388.708 -4.52093 2.789 0
M  V30 4143 C 387.747 -4.6309 4.00267 0
M  V30 4144 N 386.884 -5.83106 3.91064 0
M  V30 4145 H 391.724 -1.56785 2.53422 0
M  V30 4146 H 389.261 -0.763896 1.2571 0
M  V30 4147 H 391.219 -3.8591 1.58522 0
M  V30 4148 H 389.849 -3.15384 0.687929 0
M  V30 4149 H 388.901 -2.3683 2.97684 0
M  V30 4150 H 390.213 -3.27412 3.76301 0
M  V30 4151 H 389.367 -5.4043 2.75718 0
M  V30 4152 H 388.106 -4.50565 1.86662 0
M  V30 4153 H 387.111 -3.73168 4.03765 0
M  V30 4154 H 388.336 -4.66386 4.93621 0
M  V30 4155 H 386.282 -5.82546 3.01623 0
M  V30 4156 H 386.199 -5.88434 4.74638 0
M  V30 4157 H 387.467 -6.73831 3.91882 0
M  V30 4158 N 391.696 -1.35014 -0.812953 0
M  V30 4159 C 392.921 -1.31187 -1.60639 0
M  V30 4160 C 393.346 0.109382 -1.87782 0
M  V30 4161 O 392.704 1.07424 -1.46047 0
M  V30 4162 C 392.752 -2.11809 -2.91838 0
M  V30 4163 O 391.856 -1.49444 -3.8437 0
M  V30 4164 H 391.197 -0.450084 -0.488181 0
M  V30 4165 H 393.727 -1.77963 -1.00947 0
M  V30 4166 H 393.737 -2.23531 -3.41318 0
M  V30 4167 H 392.412 -3.15137 -2.71407 0
M  V30 4168 H 390.989 -1.46524 -3.42907 0
M  V30 4169 N 393.175 1.03435 -1.18907 0
M  V30 4170 C 394.421 1.77005 -0.989798 0
M  V30 4171 C 394.754 1.88205 0.478816 0
M  V30 4172 O 394.029 1.39481 1.35556 0
M  V30 4173 C 394.312 3.19925 -1.65287 0
M  V30 4174 C 394.165 3.1663 -3.19477 0
M  V30 4175 C 395.484 4.18189 -1.37134 0
M  V30 4176 H 392.603 0.642538 -0.360991 0
M  V30 4177 H 395.245 1.20784 -1.46667 0
M  V30 4178 H 393.395 3.67929 -1.24741 0
M  V30 4179 H 395.067 2.76567 -3.692 0
M  V30 4180 H 393.31 2.54491 -3.51307 0
M  V30 4181 H 393.981 4.1758 -3.61013 0
M  V30 4182 H 396.457 3.78761 -1.72276 0
M  V30 4183 H 395.333 5.16394 -1.86087 0
M  V30 4184 H 395.594 4.41112 -0.295424 0
M  V30 4185 N 394.653 0.992116 1.22453 0
M  V30 4186 C 395.901 0.666215 1.90804 0
M  V30 4187 C 396.222 -0.804152 1.77647 0
M  V30 4188 O 395.492 -1.57629 1.16318 0
M  V30 4189 H 394.072 0.243423 0.706225 0
M  V30 4190 H 396.734 1.25845 1.48825 0
M  V30 4191 H 395.83 0.928069 2.97982 0
M  V30 4192 N 396.131 -1.37776 0.765217 0
M  V30 4193 C 397.408 -1.93975 0.251596 0
M  V30 4194 C 397.788 -1.69949 -1.25222 0
M  V30 4195 O 397.136 -1.04457 -2.03226 0
M  V30 4196 C 397.346 -3.43487 0.617895 0
M  V30 4197 C 398.694 -4.20564 0.584029 0
M  V30 4198 O 399.718 -3.5182 0.556888 0
M  V30 4199 O 398.577 -5.43138 0.605291 0
M  V30 4200 H 395.671 -0.82509 0.0561806 0
M  V30 4201 H 398.217 -1.47101 0.846128 0
M  V30 4202 H 396.989 -3.5453 1.65602 0
M  V30 4203 H 396.612 -3.976 -0.00403411 0
M  V30 4204 N 397.609 -0.515225 -1.4894 0
M  V30 4205 C 398.539 0.244628 -2.32215 0
M  V30 4206 C 399.52 0.949136 -1.41157 0
M  V30 4207 O 400.705 0.937783 -1.70057 0
M  V30 4208 C 397.835 1.30096 -3.22013 0
M  V30 4209 C 396.789 0.715486 -4.21977 0
M  V30 4210 C 396.115 1.87339 -5.00808 0
M  V30 4211 C 397.415 -0.302982 -5.2142 0
M  V30 4212 H 399.109 -0.450501 -2.95991 0
M  V30 4213 H 396.655 -0.218098 -1.42339 0
M  V30 4214 H 398.608 1.84037 -3.79089 0
M  V30 4215 H 397.332 2.02547 -2.56207 0
M  V30 4216 H 395.991 0.197715 -3.66066 0
M  V30 4217 H 395.639 2.58592 -4.31438 0
M  V30 4218 H 395.339 1.48764 -5.68457 0
M  V30 4219 H 396.863 2.41686 -5.60732 0
M  V30 4220 H 398.277 0.148802 -5.73107 0
M  V30 4221 H 396.674 -0.60532 -5.97039 0
M  V30 4222 H 397.744 -1.21395 -4.69459 0
M  V30 4223 N 399.087 1.5561 -0.249682 0
M  V30 4224 C 400.05 2.20217 0.635394 0
M  V30 4225 C 401.05 1.17227 1.10066 0
M  V30 4226 O 402.24 1.42292 1.00492 0
M  V30 4227 C 399.372 2.84794 1.87363 0
M  V30 4228 H 400.565 2.99814 0.0716752 0
M  V30 4229 H 398.118 1.563 -0.000153234 0
M  V30 4230 H 398.853 2.09142 2.47851 0
M  V30 4231 H 398.638 3.60241 1.5482 0
M  V30 4232 H 400.128 3.3423 2.5036 0
M  V30 4233 N 400.565 -0.0233959 1.57583 0
M  V30 4234 C 401.976 -0.56927 1.77809 0
M  V30 4235 C 402.327 -1.75284 0.881472 0
M  V30 4236 O 401.452 -2.1626 0.0777805 0
M  V30 4237 C 402.047 -1.03949 3.22459 0
M  V30 4238 C 400.606 -1.53084 3.43864 0
M  V30 4239 C 399.753 -0.471454 2.73263 0
M  V30 4240 H 402.704 0.202825 1.57399 0
M  V30 4241 H 402.725 -1.90661 3.29285 0
M  V30 4242 H 402.237 -0.177865 3.87692 0
M  V30 4243 H 400.338 -2.41414 2.83814 0
M  V30 4244 H 400.451 -1.57443 4.52491 0
M  V30 4245 H 398.815 -0.927788 2.37201 0
M  V30 4246 H 399.598 0.380808 3.41181 0
M  V30 4247 N 402.043 -1.548 -0.295768 0
M  V30 4248 C 403.454 -1.65274 -0.868411 0
M  V30 4249 C 403.805 -0.56481 -1.87894 0
M  V30 4250 O 402.93 0.29767 -2.14343 0
M  V30 4251 C 403.525 -2.99603 -1.58188 0
M  V30 4252 C 402.084 -3.12181 -2.10286 0
M  V30 4253 C 401.231 -2.6098 -0.93727 0
M  V30 4254 H 404.182 -1.58534 -0.0726422 0
M  V30 4255 H 404.203 -2.91319 -2.44772 0
M  V30 4256 H 403.715 -3.78764 -0.846151 0
M  V30 4257 H 401.816 -2.3775 -2.8689 0
M  V30 4258 H 401.929 -4.18415 -2.33379 0
M  V30 4259 H 400.293 -2.17564 -1.32431 0
M  V30 4260 H 401.076 -3.42623 -0.215414 0
M  V30 4261 N 403.521 0.559213 -1.47345 0
M  V30 4262 C 404.431 1.69388 -1.62311 0
M  V30 4263 C 405.447 1.6648 -0.505993 0
M  V30 4264 O 406.623 1.85964 -0.773262 0
M  V30 4265 C 403.688 3.05894 -1.63185 0
M  V30 4266 C 402.749 3.19885 -2.86307 0
M  V30 4267 C 401.982 4.49879 -2.87131 0
M  V30 4268 O 402.205 5.35217 -1.97229 0
M  V30 4269 O 401.139 4.67618 -3.78968 0
M  V30 4270 H 404.965 1.59706 -2.58317 0
M  V30 4271 H 402.55 0.728989 -1.30407 0
M  V30 4272 H 404.432 3.87133 -1.66451 0
M  V30 4273 H 403.107 3.15964 -0.70345 0
M  V30 4274 H 402.014 2.38052 -2.88587 0
M  V30 4275 H 403.347 3.14718 -3.78435 0
M  V30 4276 N 404.999 1.35443 0.805782 0
M  V30 4277 C 406.245 1.2996 1.56467 0
M  V30 4278 C 406.6 -0.124742 1.91995 0
M  V30 4279 O 405.893 -1.07533 1.58579 0
M  V30 4280 C 406.087 2.14045 2.86216 0
M  V30 4281 C 405.916 3.64512 2.63365 0
M  V30 4282 C 404.686 4.33744 2.59219 0
M  V30 4283 C 406.884 4.58142 2.33688 0
M  V30 4284 N 404.866 5.69953 2.28094 0
M  V30 4285 C 406.237 5.8248 2.12408 0
M  V30 4286 C 408.292 4.46877 2.19558 0
M  V30 4287 C 406.995 6.96818 1.78429 0
M  V30 4288 C 409.021 5.61065 1.86976 0
M  V30 4289 C 408.383 6.84431 1.66532 0
M  V30 4290 H 404.482 0.530817 0.574245 0
M  V30 4291 H 407.066 1.70333 0.943126 0
M  V30 4292 H 405.237 1.75942 3.46264 0
M  V30 4293 H 406.969 2.00075 3.51784 0
M  V30 4294 H 403.724 3.86365 2.73896 0
M  V30 4295 H 404.148 6.41845 2.15323 0
M  V30 4296 H 408.79 3.52102 2.34061 0
M  V30 4297 H 406.508 7.91559 1.62664 0
M  V30 4298 H 410.094 5.54302 1.7675 0
M  V30 4299 H 408.974 7.71294 1.41688 0
M  V30 4300 N 406.477 -1.02803 1.19454 0
M  V30 4301 C 407.754 -1.73299 0.907013 0
M  V30 4302 C 408.134 -2.02772 -0.587086 0
M  V30 4303 O 407.482 -1.68304 -1.54551 0
M  V30 4304 C 407.692 -3.00912 1.76785 0
M  V30 4305 C 409.04 -3.74403 2.00268 0
M  V30 4306 O 410.064 -3.10841 1.73943 0
M  V30 4307 O 408.923 -4.88675 2.4466 0
M  V30 4308 H 406.017 -0.754727 0.338106 0
M  V30 4309 H 408.563 -1.08754 1.30271 0
M  V30 4310 H 407.335 -2.75366 2.7801 0
M  V30 4311 H 406.958 -3.73197 1.37149 0
M  V30 4312 N 407.956 -0.998596 -1.21925 0
M  V30 4313 C 409.202 -0.688337 -1.91399 0
M  V30 4314 C 409.557 0.771805 -1.76241 0
M  V30 4315 O 408.85 1.55153 -1.1242 0
M  V30 4316 C 409.044 -1.03648 -3.42041 0
M  V30 4317 C 408.873 -2.52892 -3.71855 0
M  V30 4318 C 407.643 -3.19389 -3.91559 0
M  V30 4319 C 409.841 -3.5103 -3.75875 0
M  V30 4320 N 407.823 -4.5805 -4.08734 0
M  V30 4321 C 409.194 -4.75174 -3.98259 0
M  V30 4322 C 411.249 -3.45257 -3.58751 0
M  V30 4323 C 409.952 -5.94247 -4.05294 0
M  V30 4324 C 411.978 -4.63712 -3.67049 0
M  V30 4325 C 411.34 -5.86658 -3.89887 0
M  V30 4326 H 407.439 -0.303251 -0.720807 0
M  V30 4327 H 410.023 -1.27977 -1.46731 0
M  V30 4328 H 408.194 -0.473569 -3.85502 0
M  V30 4329 H 409.926 -0.681619 -3.98919 0
M  V30 4330 H 406.681 -2.69846 -3.89205 0
M  V30 4331 H 407.105 -5.29989 -4.21237 0
M  V30 4332 H 411.747 -2.51215 -3.40075 0
M  V30 4333 H 409.465 -6.88687 -4.22772 0
M  V30 4334 H 413.051 -4.6084 -3.5513 0
M  V30 4335 H 411.931 -6.76786 -3.96144 0
M  V30 4336 N 409.434 1.37368 -0.772513 0
M  V30 4337 C 410.85 1.53059 -0.452231 0
M  V30 4338 C 411.05 1.73065 1.03203 0
M  V30 4339 O 410.106 1.75245 1.81784 0
M  V30 4340 C 411.419 2.72659 -1.26797 0
M  V30 4341 C 412.967 2.86521 -1.25995 0
M  V30 4342 C 413.442 4.09105 -2.05905 0
M  V30 4343 N 414.933 4.16219 -2.03263 0
M  V30 4344 C 415.668 5.10107 -2.61875 0
M  V30 4345 N 415.164 6.09547 -3.29278 0
M  V30 4346 N 416.957 5.02596 -2.51701 0
M  V30 4347 H 409.108 1.22634 -1.7342 0
M  V30 4348 H 411.371 0.597206 -0.736239 0
M  V30 4349 H 411.077 2.64343 -2.31982 0
M  V30 4350 H 410.951 3.66363 -0.897672 0
M  V30 4351 H 413.338 2.94308 -0.216081 0
M  V30 4352 H 413.419 1.93774 -1.66989 0
M  V30 4353 H 413.063 4.0208 -3.10313 0
M  V30 4354 H 412.993 5.00968 -1.62292 0
M  V30 4355 H 415.484 3.45012 -1.54192 0
M  V30 4356 H 415.797 6.77718 -3.71374 0
M  V30 4357 H 414.142 6.09824 -3.33377 0
M  V30 4358 H 417.333 4.23855 -1.98657 0
M  V30 4359 H 417.506 5.75582 -2.97673 0
M  V30 4360 N 410.912 0.523116 1.48665 0
M  V30 4361 C 412.137 -0.0117284 2.07397 0
M  V30 4362 C 412.562 -1.28031 1.37803 0
M  V30 4363 O 411.92 -1.75836 0.441762 0
M  V30 4364 C 411.968 -0.225786 3.59892 0
M  V30 4365 O 411.072 -1.29592 3.91509 0
M  V30 4366 H 410.413 0.0360673 0.66302 0
M  V30 4367 H 412.943 0.729066 1.9117 0
M  V30 4368 H 412.953 -0.450552 4.05505 0
M  V30 4369 H 411.628 0.700944 4.09951 0
M  V30 4370 H 410.205 -1.05436 3.57684 0
M  V30 4371 N 412.39 -1.55475 0.257931 0
M  V30 4372 C 413.337 -2.21837 -0.636939 0
M  V30 4373 C 414.307 -1.18596 -1.16294 0
M  V30 4374 O 415.492 -1.47081 -1.21539 0
M  V30 4375 C 412.632 -2.9301 -1.82317 0
M  V30 4376 C 411.745 -4.10931 -1.33265 0
M  V30 4377 C 410.88 -4.69791 -2.47931 0
M  V30 4378 C 409.919 -5.7994 -1.95796 0
M  V30 4379 N 409.056 -6.32935 -3.0387 0
M  V30 4380 H 413.896 -2.9793 -0.0643591 0
M  V30 4381 H 411.433 -1.47086 -0.0200031 0
M  V30 4382 H 413.391 -3.3248 -2.52018 0
M  V30 4383 H 412.021 -2.1937 -2.36805 0
M  V30 4384 H 411.073 -3.76699 -0.52931 0
M  V30 4385 H 412.385 -4.90417 -0.910654 0
M  V30 4386 H 411.539 -5.11892 -3.25656 0
M  V30 4387 H 410.278 -3.89545 -2.93438 0
M  V30 4388 H 409.283 -5.37305 -1.16546 0
M  V30 4389 H 410.508 -6.62043 -1.51246 0
M  V30 4390 H 408.454 -5.55591 -3.48791 0
M  V30 4391 H 408.371 -7.07645 -2.66035 0
M  V30 4392 H 409.639 -6.79695 -3.81621 0
M  V30 4393 N 413.868 0.0150385 -1.57593 0
M  V30 4394 C 415.116 0.701613 -1.8953 0
M  V30 4395 C 415.437 1.75139 -0.857396 0
M  V30 4396 O 414.707 1.95607 0.107194 0
M  V30 4397 H 413.287 0.26213 -0.699498 0
M  V30 4398 H 415.949 -0.0223304 -1.94887 0
M  V30 4399 H 415.045 1.18236 -2.88837 0
M  V30 4400 N 415.346 1.54954 0.287554 0
M  V30 4401 C 416.309 1.86076 1.33823 0
M  V30 4402 C 417.309 0.734414 1.43049 0
M  V30 4403 O 418.499 1.00266 1.42452 0
M  V30 4404 C 415.631 2.05305 2.72144 0
M  V30 4405 H 416.824 2.79984 1.07465 0
M  V30 4406 H 414.377 1.47223 0.524902 0
M  V30 4407 H 415.112 1.1373 3.03704 0
M  V30 4408 H 414.897 2.873 2.66836 0
M  V30 4409 H 416.387 2.30706 3.48087 0
M  V30 4410 N 416.824 -0.551391 1.4764 0
M  V30 4411 C 418.07 -1.31024 1.54792 0
M  V30 4412 C 418.403 -1.9304 0.211967 0
M  V30 4413 O 417.678 -1.78175 -0.77999 0
M  V30 4414 C 417.961 -2.41593 2.67029 0
M  V30 4415 C 417.814 -1.84408 4.10261 0
M  V30 4416 C 419.133 -3.43488 2.75143 0
M  V30 4417 H 416.252 -0.475031 0.563485 0
M  V30 4418 H 418.894 -0.616454 1.79722 0
M  V30 4419 H 417.044 -3.00772 2.45904 0
M  V30 4420 H 418.716 -1.29445 4.42766 0
M  V30 4421 H 416.959 -1.15051 4.18265 0
M  V30 4422 H 417.63 -2.64367 4.84576 0
M  V30 4423 H 420.106 -2.94236 2.94218 0
M  V30 4424 H 418.982 -4.18274 3.55441 0
M  V30 4425 H 419.243 -4.02703 1.82435 0
M  V30 4426 N 418.302 -1.35869 -0.798587 0
M  V30 4427 C 419.53 -1.32722 -1.58722 0
M  V30 4428 C 419.945 0.0935631 -1.88568 0
M  V30 4429 O 419.302 1.04784 -1.49421 0
M  V30 4430 C 419.353 -2.13974 -2.91371 0
M  V30 4431 O 419.074 -3.50514 -2.62815 0
M  V30 4432 C 420.575 -2.18504 -3.85708 0
M  V30 4433 H 417.795 -0.45562 -0.492596 0
M  V30 4434 H 420.339 -1.78837 -0.991843 0
M  V30 4435 H 418.494 -1.71438 -3.47402 0
M  V30 4436 H 418.908 -3.92806 -3.47568 0
M  V30 4437 H 420.382 -2.79732 -4.75872 0
M  V30 4438 H 420.859 -1.18597 -4.22885 0
M  V30 4439 H 421.465 -2.61236 -3.35612 0
M  V30 4440 N 419.78 1.02168 -1.19998 0
M  V30 4441 C 420.727 2.10601 -0.944228 0
M  V30 4442 C 421.697 1.65639 0.123664 0
M  V30 4443 O 422.882 1.9079 -0.0199941 0
M  V30 4444 C 420.022 3.41504 -0.496865 0
M  V30 4445 C 419.135 3.99973 -1.63234 0
M  V30 4446 C 418.27 5.18915 -1.13579 0
M  V30 4447 C 417.309 5.69456 -2.24468 0
M  V30 4448 N 416.446 6.79665 -1.76068 0
M  V30 4449 H 421.286 2.31814 -1.8726 0
M  V30 4450 H 418.823 1.13686 -0.933483 0
M  V30 4451 H 420.781 4.16626 -0.218843 0
M  V30 4452 H 419.411 3.2038 0.394508 0
M  V30 4453 H 418.463 3.21997 -2.0254 0
M  V30 4454 H 419.775 4.33492 -2.46752 0
M  V30 4455 H 418.929 6.01222 -0.813429 0
M  V30 4456 H 417.668 4.8695 -0.270434 0
M  V30 4457 H 416.673 4.85757 -2.57526 0
M  V30 4458 H 417.898 6.03459 -3.11472 0
M  V30 4459 H 415.844 6.49538 -0.918516 0
M  V30 4460 H 415.761 7.12349 -2.5317 0
M  V30 4461 H 417.029 7.65549 -1.46817 0
M  V30 4462 N 421.258 1.00505 1.21394 0
M  V30 4463 C 422.504 0.688793 1.90745 0
M  V30 4464 C 422.837 -0.778486 1.77914 0
M  V30 4465 O 422.112 -1.56433 1.15581 0
M  V30 4466 C 422.395 1.11063 3.42545 0
M  V30 4467 C 422.248 2.63737 3.64367 0
M  V30 4468 C 423.567 0.673059 4.34923 0
M  V30 4469 H 420.686 0.251702 0.692687 0
M  V30 4470 H 423.328 1.25074 1.43026 0
M  V30 4471 H 421.478 0.632508 3.83317 0
M  V30 4472 H 423.15 3.19313 3.32922 0
M  V30 4473 H 421.393 3.05248 3.08231 0
M  V30 4474 H 422.064 2.88305 4.70727 0
M  V30 4475 H 424.54 1.08392 4.01734 0
M  V30 4476 H 423.416 0.996383 5.39781 0
M  V30 4477 H 423.677 -0.425808 4.40045 0
M  V30 4478 N 422.737 -1.36956 0.779787 0
M  V30 4479 C 423.684 -2.30175 0.169697 0
M  V30 4480 C 424.654 -1.51501 -0.68094 0
M  V30 4481 O 425.839 -1.80042 -0.631629 0
M  V30 4482 C 422.979 -3.37985 -0.697131 0
M  V30 4483 C 422.092 -4.31661 0.170992 0
M  V30 4484 C 421.227 -5.2655 -0.701298 0
M  V30 4485 C 420.266 -6.11867 0.168869 0
M  V30 4486 N 419.403 -6.98973 -0.661855 0
M  V30 4487 H 424.243 -2.81767 0.970135 0
M  V30 4488 H 421.78 -1.38699 0.489994 0
M  V30 4489 H 423.738 -3.99128 -1.2146 0
M  V30 4490 H 422.368 -2.87739 -1.46309 0
M  V30 4491 H 421.42 -3.71756 0.80634 0
M  V30 4492 H 422.732 -4.91644 0.841875 0
M  V30 4493 H 421.886 -5.92937 -1.28494 0
M  V30 4494 H 420.625 -4.66998 -1.40584 0
M  V30 4495 H 419.63 -5.44452 0.764986 0
M  V30 4496 H 420.855 -6.73493 0.870863 0
M  V30 4497 H 418.801 -6.41941 -1.35086 0
M  V30 4498 H 418.718 -7.55984 -0.0484447 0
M  V30 4499 H 419.986 -7.6974 -1.22963 0
M  V30 4500 N 424.215 -0.530993 -1.48385 0
M  V30 4501 C 425.492 0.0671788 -1.95485 0
M  V30 4502 C 425.872 1.51191 -1.47324 0
M  V30 4503 O 425.22 2.17507 -0.700202 0
M  V30 4504 C 425.43 -0.0511206 -3.48963 0
M  V30 4505 C 426.778 0.107632 -4.24464 0
M  V30 4506 O 427.802 0.0226248 -3.56193 0
M  V30 4507 O 426.661 0.285972 -5.45751 0
M  V30 4508 H 423.755 0.0787365 -0.823243 0
M  V30 4509 H 426.301 -0.595662 -1.58902 0
M  V30 4510 H 425.073 -1.05747 -3.7674 0
M  V30 4511 H 424.696 0.650525 -3.92242 0
M  V30 4512 N 425.693 1.55336 -0.266172 0
M  V30 4513 C 426.625 2.19544 0.658247 0
M  V30 4514 C 427.638 1.17746 1.12427 0
M  V30 4515 O 428.827 1.44517 1.04772 0
M  V30 4516 C 425.927 2.80032 1.9088 0
M  V30 4517 C 425.1 4.07436 1.59106 0
M  V30 4518 C 424.159 4.52056 2.69317 0
M  V30 4519 O 423.185 5.18023 2.35883 0
M  V30 4520 N 424.387 4.21448 3.99201 0
M  V30 4521 H 427.152 2.99503 0.108754 0
M  V30 4522 H 424.713 1.61667 -0.0869059 0
M  V30 4523 H 426.705 3.06831 2.63888 0
M  V30 4524 H 425.275 2.04119 2.36758 0
M  V30 4525 H 424.495 3.88021 0.695243 0
M  V30 4526 H 425.783 4.90462 1.35367 0
M  V30 4527 H 425.181 3.68528 4.29189 0
M  V30 4528 H 423.738 4.53039 4.68614 0
M  V30 4529 N 427.171 -0.0066808 1.57599 0
M  V30 4530 C 428.419 -0.691552 1.899 0
M  V30 4531 C 428.74 -1.74682 0.866672 0
M  V30 4532 O 428.01 -1.95661 -0.0968189 0
M  V30 4533 H 426.59 -0.258416 0.700878 0
M  V30 4534 H 429.252 0.0326655 1.94873 0
M  V30 4535 H 428.348 -1.16702 2.8946 0
M  V30 4536 N 428.649 -1.55105 -0.279332 0
M  V30 4537 C 429.582 -1.82467 -1.37044 0
M  V30 4538 C 430.56 -0.677261 -1.47824 0
M  V30 4539 O 431.744 -0.919578 -1.64548 0
M  V30 4540 C 428.871 -1.98066 -2.7475 0
M  V30 4541 C 427.917 -3.20594 -2.81286 0
M  V30 4542 S 428.75 -4.78116 -2.41175 0
M  V30 4543 C 429.906 -4.9668 -3.80867 0
M  V30 4544 H 430.139 -2.74728 -1.1363 0
M  V30 4545 H 427.672 -1.46794 -0.478625 0
M  V30 4546 H 429.63 -2.07739 -3.54055 0
M  V30 4547 H 428.291 -1.06704 -2.9542 0
M  V30 4548 H 427.484 -3.28376 -3.82341 0
M  V30 4549 H 427.086 -3.09479 -2.09996 0
M  V30 4550 H 429.378 -4.82033 -4.76078 0
M  V30 4551 H 430.321 -5.98741 -3.78041 0
M  V30 4552 H 430.729 -4.24698 -3.71876 0
M  V30 4553 N 430.127 0.543554 -1.4793 0
M  V30 4554 C 431.367 1.31072 -1.56843 0
M  V30 4555 C 431.731 1.90604 -0.231124 0
M  V30 4556 O 432.932 2.68091 -0.195165 0
M  V30 4557 C 431.203 2.38106 -2.66533 0
M  V30 4558 S 432.762 3.24729 -2.95122 0
M  V30 4559 H 429.58 0.446035 -0.553691 0
M  V30 4560 H 432.182 0.620777 -1.85382 0
M  V30 4561 H 430.886 1.92828 -3.62278 0
M  V30 4562 H 430.417 3.11824 -2.39852 0
M  V30 4563 H 432.432 4.37891 -2.3338 0
M  V30 4564 N 431.605 1.3629 0.791371 0
M  V30 4565 C 432.853 1.30154 1.5461 0
M  V30 4566 C 433.174 -0.119409 1.94634 0
M  V30 4567 O 432.444 -1.05924 1.64794 0
M  V30 4568 H 431.024 0.478784 0.573389 0
M  V30 4569 H 433.686 1.70565 0.94306 0
M  V30 4570 H 432.782 1.92762 2.45457 0
M  V30 4571 N 433.083 -1.0153 1.20538 0
M  V30 4572 C 434.308 -1.79283 1.04271 0
M  V30 4573 C 434.733 -1.8372 -0.403544 0
M  V30 4574 O 434.091 -1.27321 -1.2907 0
M  V30 4575 C 434.139 -3.21535 1.63241 0
M  V30 4576 O 433.243 -4.03099 0.870908 0
M  V30 4577 H 432.584 -0.55293 0.367647 0
M  V30 4578 H 435.114 -1.27696 1.59859 0
M  V30 4579 H 435.124 -3.72243 1.6703 0
M  V30 4580 H 433.799 -3.1762 2.68497 0
M  V30 4581 H 432.376 -3.61693 0.907323 0
M  V30 4582 N 434.561 -1.01147 -1.20859 0
M  V30 4583 C 435.801 -0.706331 -1.91808 0
M  V30 4584 C 436.165 0.749736 -1.76757 0
M  V30 4585 O 437.366 1.16716 -2.42138 0
M  V30 4586 C 435.637 -1.12371 -3.39275 0
M  V30 4587 S 437.196 -0.939764 -4.28619 0
M  V30 4588 H 434.014 -0.257665 -0.662669 0
M  V30 4589 H 436.616 -1.29766 -1.46223 0
M  V30 4590 H 435.32 -2.17943 -3.47749 0
M  V30 4591 H 434.851 -0.524952 -3.89882 0
M  V30 4592 H 436.866 0.159556 -4.95943 0
M  V30 4593 N 436.039 1.36541 -0.78704 0
M  V30 4594 C 437.285 2.00044 -0.367938 0
M  V30 4595 C 437.64 1.61345 1.04812 0
M  V30 4596 O 436.933 0.856936 1.71368 0
M  V30 4597 C 437.127 3.54343 -0.466485 0
M  V30 4598 C 436.956 4.08029 -1.89058 0
M  V30 4599 C 435.726 4.38284 -2.51466 0
M  V30 4600 C 437.924 4.27954 -2.85236 0
M  V30 4601 N 435.906 4.77778 -3.85488 0
M  V30 4602 C 437.277 4.70227 -4.04088 0
M  V30 4603 C 439.332 4.10119 -2.82324 0
M  V30 4604 C 438.035 4.96532 -5.20432 0
M  V30 4605 C 440.061 4.37569 -3.97854 0
M  V30 4606 C 439.423 4.80095 -5.15449 0
M  V30 4607 H 435.522 0.760525 -0.182004 0
M  V30 4608 H 438.106 1.65589 -1.02413 0
M  V30 4609 H 436.277 3.88072 0.159606 0
M  V30 4610 H 438.009 4.04693 -0.0238577 0
M  V30 4611 H 434.764 4.27905 -2.02965 0
M  V30 4612 H 435.188 5.01813 -4.54437 0
M  V30 4613 H 439.83 3.76399 -1.92571 0
M  V30 4614 H 437.548 5.29134 -6.10773 0
M  V30 4615 H 441.134 4.25341 -3.96958 0
M  V30 4616 H 440.014 5.00925 -6.0336 0
M  V30 4617 N 437.518 0.538854 1.48102 0
M  V30 4618 C 438.481 -0.208395 2.28251 0
M  V30 4619 C 439.481 -0.859656 1.35892 0
M  V30 4620 O 440.671 -0.71834 1.58699 0
M  V30 4621 C 437.803 -1.30252 3.15035 0
M  V30 4622 H 438.996 0.495407 2.9578 0
M  V30 4623 H 436.549 0.295112 1.53489 0
M  V30 4624 H 437.284 -2.0393 2.52157 0
M  V30 4625 H 437.069 -0.840551 3.82985 0
M  V30 4626 H 438.559 -1.82787 3.75471 0
M  V30 4627 N 438.996 -1.55193 0.274407 0
M  V30 4628 C 440.243 -1.99581 -0.342579 0
M  V30 4629 C 440.571 -1.1628 -1.55914 0
M  V30 4630 O 439.826 -0.22029 -1.94456 0
M  V30 4631 C 440.125 -3.49019 -0.769458 0
M  V30 4632 C 439.791 -4.49598 0.342389 0
M  V30 4633 C 438.453 -4.76821 0.647686 0
M  V30 4634 C 440.805 -5.0964 1.09163 0
M  V30 4635 C 438.133 -5.61354 1.70581 0
M  V30 4636 C 440.485 -5.95323 2.13948 0
M  V30 4637 C 439.149 -6.20867 2.45113 0
M  V30 4638 H 438.419 -0.730319 -0.125358 0
M  V30 4639 H 441.066 -1.87529 0.387971 0
M  V30 4640 H 439.371 -3.58544 -1.57967 0
M  V30 4641 H 441.068 -3.8077 -1.25757 0
M  V30 4642 H 437.658 -4.28496 0.094318 0
M  V30 4643 H 441.842 -4.88632 0.869024 0
M  V30 4644 H 437.098 -5.79392 1.9523 0
M  V30 4645 H 441.272 -6.40881 2.72478 0
M  V30 4646 H 438.899 -6.86162 3.27239 0
M  V30 4647 N 440.474 -0.00167713 -1.576 0
M  V30 4648 C 441.699 0.69739 -1.95323 0
M  V30 4649 C 442.124 1.6642 -0.876706 0
M  V30 4650 O 441.482 1.80548 0.165007 0
M  V30 4651 C 441.53 1.40403 -3.32144 0
M  V30 4652 O 440.634 2.5185 -3.26566 0
M  V30 4653 H 439.975 0.185373 -0.637599 0
M  V30 4654 H 442.505 -0.0553665 -2.04525 0
M  V30 4655 H 442.515 1.76707 -3.67748 0
M  V30 4656 H 441.19 0.695167 -4.10049 0
M  V30 4657 H 439.767 2.17861 -3.0264 0
M  V30 4658 N 441.952 1.55251 0.271103 0
M  V30 4659 C 443.198 1.76207 1.00394 0
M  V30 4660 C 443.531 0.562604 1.85872 0
M  V30 4661 O 442.806 -0.439785 1.89463 0
M  V30 4662 C 443.089 3.06828 1.8849 0
M  V30 4663 C 442.942 4.37134 1.05992 0
M  V30 4664 C 444.261 3.33503 2.87165 0
M  V30 4665 H 441.38 0.641086 0.363562 0
M  V30 4666 H 444.022 1.87982 0.276189 0
M  V30 4667 H 442.172 2.96921 2.5054 0
M  V30 4668 H 443.844 4.59001 0.459978 0
M  V30 4669 H 442.087 4.32275 0.363443 0
M  V30 4670 H 442.758 5.2486 1.70955 0
M  V30 4671 H 445.234 3.43215 2.3525 0
M  V30 4672 H 444.11 4.2616 3.45946 0
M  V30 4673 H 444.371 2.53235 3.62387 0
M  V30 4674 N 443.43 -0.535701 1.48216 0
M  V30 4675 C 444.658 -1.31671 1.59594 0
M  V30 4676 C 445.073 -1.87083 0.254056 0
M  V30 4677 O 444.43 -1.66112 -0.755854 0
M  V30 4678 C 444.481 -2.47158 2.63809 0
M  V30 4679 O 444.202 -1.94032 3.92789 0
M  V30 4680 C 445.703 -3.39062 2.85573 0
M  V30 4681 H 442.923 -0.400623 0.538277 0
M  V30 4682 H 445.467 -0.646827 1.94001 0
M  V30 4683 H 443.622 -3.10043 2.32276 0
M  V30 4684 H 444.036 -2.69585 4.49916 0
M  V30 4685 H 445.51 -4.16459 3.62306 0
M  V30 4686 H 445.987 -3.93941 1.94184 0
M  V30 4687 H 446.593 -2.81975 3.18387 0
M  V30 4688 N 444.908 -1.36708 -0.784132 0
M  V30 4689 C 446.156 -1.30972 -1.53918 0
M  V30 4690 C 446.477 0.109086 -1.94695 0
M  V30 4691 O 445.747 1.05048 -1.65353 0
M  V30 4692 H 444.327 -0.481819 -0.570841 0
M  V30 4693 H 446.989 -1.71063 -0.934002 0
M  V30 4694 H 446.085 -1.94061 -2.44431 0
M  V30 4695 N 446.386 1.0089 -1.21074 0
M  V30 4696 C 447.334 2.11707 -0.963476 0
M  V30 4697 C 448.328 1.69172 0.0879032 0
M  V30 4698 O 449.534 1.79889 -0.0631415 0
M  V30 4699 H 445.909 0.692026 -0.294287 0
M  V30 4700 H 447.88 2.29743 -1.90422 0
M  V30 4701 C 446.629 3.43473 -0.540509 0
M  V30 4702 H 445.952 3.76634 -1.34114 0
M  V30 4703 H 447.392 4.22044 -0.406777 0
M  V30 4704 C 445.851 3.2849 0.748079 0
M  V30 4705 O 446.381 3.58883 1.8046 0
M  V30 4706 N 444.587 2.81715 0.713081 0
M  V30 4707 H 444.134 2.5718 -0.146973 0
M  V30 4708 H 444.092 2.72071 1.57558 0
M  V30 4709 N 447.864 1.01787 1.20321 0
M  V30 4710 C 449.11 0.708985 1.90003 0
M  V30 4711 C 449.443 -0.759572 1.78729 0
M  V30 4712 O 448.718 -1.55198 1.17234 0
M  V30 4713 C 449.001 1.1469 3.41348 0
M  V30 4714 C 448.854 2.67586 3.61549 0
M  V30 4715 C 450.173 0.71915 4.34185 0
M  V30 4716 H 447.292 0.259034 0.689978 0
M  V30 4717 H 449.934 1.26584 1.41692 0
M  V30 4718 H 448.084 0.673128 3.82624 0
M  V30 4719 H 449.756 3.22826 3.29517 0
M  V30 4720 H 447.999 3.085 3.04976 0
M  V30 4721 H 448.67 2.93281 4.67643 0
M  V30 4722 H 451.146 1.12647 4.00562 0
M  V30 4723 H 450.022 1.05358 5.38694 0
M  V30 4724 H 450.283 -0.379111 4.40472 0
M  V30 4725 N 449.342 -1.36122 0.79427 0
M  V30 4726 C 450.252 -2.33769 0.197296 0
M  V30 4727 C 451.268 -1.61276 -0.653153 0
M  V30 4728 O 452.444 -1.9323 -0.5678 0
M  V30 4729 C 449.509 -3.40474 -0.654098 0
M  V30 4730 C 448.57 -4.28759 0.215411 0
M  V30 4731 C 447.803 -5.30368 -0.595443 0
M  V30 4732 O 448.026 -5.40211 -1.83107 0
M  V30 4733 O 446.96 -6.019 0.00721351 0
M  V30 4734 H 450.786 -2.86597 1.00478 0
M  V30 4735 H 448.371 -1.38676 0.555818 0
M  V30 4736 H 450.253 -4.05703 -1.13944 0
M  V30 4737 H 448.928 -2.89937 -1.43938 0
M  V30 4738 H 447.835 -3.66554 0.747615 0
M  V30 4739 H 449.168 -4.82661 0.964332 0
M  V30 4740 N 450.82 -0.546701 -1.47814 0
M  V30 4741 C 452.068 -0.0187037 -2.02091 0
M  V30 4742 C 452.389 1.33168 -1.42447 0
M  V30 4743 O 451.659 1.86619 -0.595839 0
M  V30 4744 H 450.239 -0.00392531 -0.74699 0
M  V30 4745 H 452.901 -0.714327 -1.81338 0
M  V30 4746 H 451.997 0.0772219 -3.12004 0
M  V30 4747 N 452.299 1.55045 -0.282633 0
M  V30 4748 C 453.231 2.2023 0.634924 0
M  V30 4749 C 454.244 1.18931 1.11172 0
M  V30 4750 O 455.433 1.4562 1.03233 0
M  V30 4751 C 452.533 2.82041 1.87899 0
M  V30 4752 C 451.706 4.091 1.54776 0
M  V30 4753 C 450.765 4.54887 2.64507 0
M  V30 4754 O 449.791 5.20496 2.30375 0
M  V30 4755 N 450.993 4.25659 3.94709 0
M  V30 4756 H 453.758 2.99601 0.0769811 0
M  V30 4757 H 451.319 1.61565 -0.104048 0
M  V30 4758 H 453.311 3.09613 2.60619 0
M  V30 4759 H 451.881 2.06618 2.3458 0
M  V30 4760 H 451.101 3.88736 0.654049 0
M  V30 4761 H 452.389 4.9187 1.30158 0
M  V30 4762 H 451.787 3.7306 4.25256 0
M  V30 4763 H 450.344 4.57984 4.63782 0
M  V30 4764 N 453.777 0.010035 1.57597 0
M  V30 4765 C 455.023 -0.668011 1.92118 0
M  V30 4766 C 455.378 -1.70821 0.885328 0
M  V30 4767 O 454.671 -1.91333 -0.101187 0
M  V30 4768 C 454.865 -1.34434 3.31153 0
M  V30 4769 C 454.694 -0.371176 4.48166 0
M  V30 4770 C 453.464 0.0220686 5.05295 0
M  V30 4771 C 455.662 0.366731 5.12991 0
M  V30 4772 N 453.644 0.9924 6.05826 0
M  V30 4773 C 455.015 1.19142 6.08445 0
M  V30 4774 C 457.07 0.429489 4.96044 0
M  V30 4775 C 455.773 2.07317 6.88776 0
M  V30 4776 C 457.799 1.2985 5.76969 0
M  V30 4777 C 457.161 2.11101 6.72023 0
M  V30 4778 H 453.26 -0.217337 0.751192 0
M  V30 4779 H 455.844 0.0727375 1.94564 0
M  V30 4780 H 454.015 -2.05533 3.29561 0
M  V30 4781 H 455.747 -1.97789 3.53075 0
M  V30 4782 H 452.502 -0.348409 4.72317 0
M  V30 4783 H 452.926 1.47324 6.60776 0
M  V30 4784 H 457.568 -0.18442 4.22398 0
M  V30 4785 H 455.286 2.69771 7.61741 0
M  V30 4786 H 458.872 1.3511 5.65894 0
M  V30 4787 H 457.752 2.77257 7.33552 0
M  V30 4788 N 455.255 -1.55392 -0.262866 0
M  V30 4789 C 456.502 -1.76476 -0.993109 0
M  V30 4790 C 456.83 -0.571479 -1.85915 0
M  V30 4791 O 456.085 0.445733 -1.90556 0
M  V30 4792 C 456.384 -3.02889 -1.89718 0
M  V30 4793 C 456.05 -4.34974 -1.18781 0
M  V30 4794 C 454.712 -4.7087 -0.991699 0
M  V30 4795 C 457.064 -5.16695 -0.683798 0
M  V30 4796 C 454.392 -5.86036 -0.279024 0
M  V30 4797 C 456.744 -6.32598 0.0153327 0
M  V30 4798 C 455.408 -6.67127 0.223062 0
M  V30 4799 H 454.678 -0.64577 -0.363404 0
M  V30 4800 H 457.325 -1.89664 -0.264525 0
M  V30 4801 H 455.63 -2.84644 -2.6923 0
M  V30 4802 H 457.327 -3.16399 -2.46359 0
M  V30 4803 H 453.917 -4.06765 -1.35058 0
M  V30 4804 H 458.101 -4.8943 -0.8229 0
M  V30 4805 H 453.357 -6.11306 -0.107456 0
M  V30 4806 H 457.531 -6.95171 0.413584 0
M  V30 4807 H 455.158 -7.56216 0.777265 0
M  V30 4808 N 456.733 0.527833 -1.48498 0
M  V30 4809 C 457.663 1.64136 -1.66077 0
M  V30 4810 C 458.644 1.62286 -0.509625 0
M  V30 4811 O 459.829 1.79449 -0.742413 0
M  V30 4812 C 456.959 3.02717 -1.70234 0
M  V30 4813 C 455.913 3.19426 -2.8487 0
M  V30 4814 C 455.239 4.5909 -2.74118 0
M  V30 4815 C 456.539 3.01993 -4.26142 0
M  V30 4816 H 458.233 1.4968 -2.593 0
M  V30 4817 H 455.779 0.718654 -1.24785 0
M  V30 4818 H 457.732 3.80491 -1.8112 0
M  V30 4819 H 456.456 3.18201 -0.735911 0
M  V30 4820 H 455.115 2.4407 -2.73542 0
M  V30 4821 H 454.763 4.71413 -1.7544 0
M  V30 4822 H 454.463 4.71214 -3.51042 0
M  V30 4823 H 455.987 5.3896 -2.86974 0
M  V30 4824 H 457.401 3.69558 -4.38292 0
M  V30 4825 H 455.798 3.2561 -5.04082 0
M  V30 4826 H 456.868 1.98396 -4.42456 0
M  V30 4827 N 458.211 1.37122 0.776871 0
M  V30 4828 C 459.159 1.32549 1.91138 0
M  V30 4829 C 460.153 0.215119 1.68029 0
M  V30 4830 O 461.359 0.382852 1.75881 0
M  V30 4831 H 457.734 0.412952 0.62847 0
M  V30 4832 H 459.705 2.28332 1.92112 0
M  V30 4833 C 458.454 1.14422 3.28333 0
M  V30 4834 H 457.777 1.99115 3.46689 0
M  V30 4835 H 459.217 1.15272 4.0803 0
M  V30 4836 C 457.676 -0.150434 3.36564 0
M  V30 4837 O 458.206 -1.13584 3.85307 0
M  V30 4838 N 456.412 -0.19939 2.89915 0
M  V30 4839 H 455.959 0.603142 2.5044 0
M  V30 4840 H 455.917 -1.06526 2.95803 0
M  V30 4841 N 459.689 -1.00246 1.21608 0
M  V30 4842 C 460.621 -2.09244 0.935401 0
M  V30 4843 C 461.634 -1.62592 -0.0823594 0
M  V30 4844 O 462.823 -1.77865 0.150456 0
M  V30 4845 C 459.923 -3.36724 0.383453 0
M  V30 4846 C 459.096 -4.1245 1.45615 0
M  V30 4847 C 458.155 -5.18219 0.912991 0
M  V30 4848 O 457.181 -5.46337 1.59701 0
M  V30 4849 N 458.383 -5.7987 -0.270478 0
M  V30 4850 H 461.148 -2.33905 1.87373 0
M  V30 4851 H 458.709 -1.16748 1.12167 0
M  V30 4852 H 460.701 -4.047 0.00562157 0
M  V30 4853 H 459.271 -3.09201 -0.459758 0
M  V30 4854 H 458.491 -3.39241 2.00772 0
M  V30 4855 H 459.779 -4.59819 2.17817 0
M  V30 4856 H 459.177 -5.59381 -0.843195 0
M  V30 4857 H 457.734 -6.49126 -0.589794 0
M  V30 4858 N 461.167 -1.02423 -1.1978 0
M  V30 4859 C 462.415 -0.716569 -1.8897 0
M  V30 4860 C 462.736 0.756769 -1.79716 0
M  V30 4861 O 462.006 1.5449 -1.20456 0
M  V30 4862 H 460.586 -0.262062 -0.699523 0
M  V30 4863 H 463.248 -1.29747 -1.45436 0
M  V30 4864 H 462.344 -1.00675 -2.95417 0
M  V30 4865 N 462.645 1.35699 -0.801477 0
M  V30 4866 C 463.873 2.03157 -0.391768 0
M  V30 4867 C 464.288 1.60412 0.995668 0
M  V30 4868 O 463.645 0.799228 1.64069 0
M  V30 4869 C 463.696 3.58566 -0.459671 0
M  V30 4870 O 463.417 3.99756 -1.7924 0
M  V30 4871 C 464.918 4.4328 -0.0421205 0
M  V30 4872 H 462.138 0.651688 -0.159825 0
M  V30 4873 H 464.682 1.73426 -1.08368 0
M  V30 4874 H 462.837 3.86963 0.183939 0
M  V30 4875 H 463.251 4.94387 -1.75162 0
M  V30 4876 H 464.725 5.51821 -0.140754 0
M  V30 4877 H 465.202 4.27383 1.01196 0
M  V30 4878 H 465.808 4.20168 -0.658687 0
M  V30 4879 N 464.123 0.554532 1.47522 0
M  V30 4880 C 465.053 -0.182974 2.32782 0
M  V30 4881 C 466.034 -0.911377 1.43624 0
M  V30 4882 O 467.219 -0.892366 1.72483 0
M  V30 4883 C 464.349 -1.21513 3.25349 0
M  V30 4884 C 463.303 -0.603355 4.23726 0
M  V30 4885 C 462.629 -1.73995 5.05598 0
M  V30 4886 C 463.929 0.441121 5.20434 0
M  V30 4887 H 465.623 0.52882 2.94693 0
M  V30 4888 H 463.169 0.255759 1.41711 0
M  V30 4889 H 465.122 -1.73922 3.83835 0
M  V30 4890 H 463.846 -1.95683 2.61487 0
M  V30 4891 H 462.505 -0.10059 3.66462 0
M  V30 4892 H 462.153 -2.47063 4.38143 0
M  V30 4893 H 461.853 -1.3364 5.72201 0
M  V30 4894 H 463.377 -2.26735 5.66942 0
M  V30 4895 H 464.791 0.00319931 5.733 0
M  V30 4896 H 463.188 0.763402 5.95224 0
M  V30 4897 H 464.258 1.33799 4.66075 0
M  V30 4898 N 465.601 -1.54893 0.290851 0
M  V30 4899 C 466.531 -2.26103 -0.583084 0
M  V30 4900 C 467.512 -1.25684 -1.14619 0
M  V30 4901 O 468.697 -1.54436 -1.17741 0
M  V30 4902 C 465.827 -2.99409 -1.75987 0
M  V30 4903 C 464.781 -4.0689 -1.32758 0
M  V30 4904 C 464.107 -4.67856 -2.58872 0
M  V30 4905 C 465.407 -5.20215 -0.46624 0
M  V30 4906 H 467.101 -2.99398 0.0108214 0
M  V30 4907 H 464.647 -1.43998 0.00664468 0
M  V30 4908 H 466.6 -3.47943 -2.37727 0
M  V30 4909 H 465.324 -2.23675 -2.37985 0
M  V30 4910 H 463.983 -3.59191 -0.733299 0
M  V30 4911 H 463.631 -3.88772 -3.19163 0
M  V30 4912 H 463.331 -5.40438 -2.30653 0
M  V30 4913 H 464.855 -5.19147 -3.21433 0
M  V30 4914 H 466.269 -5.64704 -0.989047 0
M  V30 4915 H 464.666 -5.99455 -0.27826 0
M  V30 4916 H 465.736 -4.82198 0.511173 0
M  V30 4917 N 467.08 -0.0183926 -1.57589 0
M  V30 4918 C 468.305 0.676634 -1.96052 0
M  V30 4919 C 468.73 1.6548 -0.894307 0
M  V30 4920 O 468.088 1.80712 0.145849 0
M  V30 4921 C 468.136 1.36872 -3.33614 0
M  V30 4922 O 467.24 2.48372 -3.29219 0
M  V30 4923 H 466.581 0.1786 -0.63953 0
M  V30 4924 H 469.111 -0.077056 -2.04455 0
M  V30 4925 H 469.121 1.72797 -3.69601 0
M  V30 4926 H 467.796 0.651636 -4.10763 0
M  V30 4927 H 466.373 2.14639 -3.04934 0
M  V30 4928 N 468.558 1.5553 0.254621 0
M  V30 4929 C 469.488 1.9268 1.31897 0
M  V30 4930 C 470.469 0.790797 1.506 0
M  V30 4931 O 471.654 1.05045 1.63337 0
M  V30 4932 C 468.784 2.21477 2.67517 0
M  V30 4933 C 467.738 3.37256 2.63519 0
M  V30 4934 C 467.064 3.51576 4.02862 0
M  V30 4935 C 468.364 4.73157 2.21179 0
M  V30 4936 H 470.058 2.81832 1.01051 0
M  V30 4937 H 467.604 1.35599 0.484662 0
M  V30 4938 H 469.557 2.46055 3.42104 0
M  V30 4939 H 468.281 1.29144 2.99982 0
M  V30 4940 H 466.94 3.12675 1.9139 0
M  V30 4941 H 466.588 2.56676 4.32581 0
M  V30 4942 H 466.288 4.2943 4.01078 0
M  V30 4943 H 467.812 3.78467 4.79161 0
M  V30 4944 H 469.226 4.97158 2.85494 0
M  V30 4945 H 467.623 5.54058 2.30521 0
M  V30 4946 H 468.693 4.70739 1.16332 0
M  V30 4947 N 470.036 -0.519951 1.48776 0
M  V30 4948 C 471.261 -1.30447 1.6124 0
M  V30 4949 C 471.686 -1.86055 0.276591 0
M  V30 4950 O 471.044 -1.64915 -0.753183 0
M  V30 4951 C 471.092 -2.42406 2.66967 0
M  V30 4952 O 470.196 -3.45728 2.24824 0
M  V30 4953 H 469.537 -0.385924 0.540332 0
M  V30 4954 H 472.067 -0.624572 1.94834 0
M  V30 4955 H 472.077 -2.88447 2.88552 0
M  V30 4956 H 470.752 -2.01294 3.63941 0
M  V30 4957 H 469.329 -3.05737 2.13494 0
M  V30 4958 N 471.514 -1.37532 -0.769588 0
M  V30 4959 C 472.424 -1.35668 -1.91393 0
M  V30 4960 C 473.44 -0.255954 -1.72107 0
M  V30 4961 O 474.616 -0.491704 -1.95305 0
M  V30 4962 C 471.681 -1.16481 -3.26547 0
M  V30 4963 C 470.742 -2.36212 -3.58472 0
M  V30 4964 C 469.975 -2.17932 -4.87177 0
M  V30 4965 O 470.198 -1.1647 -5.58382 0
M  V30 4966 O 469.132 -3.06167 -5.18214 0
M  V30 4967 H 472.958 -2.32055 -1.95918 0
M  V30 4968 H 470.543 -1.18284 -0.912641 0
M  V30 4969 H 472.425 -1.07778 -4.07384 0
M  V30 4970 H 471.1 -0.231687 -3.2287 0
M  V30 4971 H 470.007 -2.50488 -2.77861 0
M  V30 4972 H 471.34 -3.281 -3.66894 0
M  V30 4973 N 472.992 0.995999 -1.22138 0
M  V30 4974 C 473.924 2.08745 -0.946485 0
M  V30 4975 C 474.937 1.62633 0.0737356 0
M  V30 4976 O 476.126 1.77782 -0.159886 0
M  V30 4977 C 473.226 3.36516 -0.401305 0
M  V30 4978 C 472.399 4.11672 -1.47801 0
M  V30 4979 C 471.458 5.17728 -0.940461 0
M  V30 4980 O 470.484 5.45482 -1.62596 0
M  V30 4981 N 471.686 5.80005 0.239723 0
M  V30 4982 H 474.451 2.32908 -1.88611 0
M  V30 4983 H 472.012 1.16152 -1.12785 0
M  V30 4984 H 474.004 4.04691 -0.0270837 0
M  V30 4985 H 472.574 3.0944 0.443354 0
M  V30 4986 H 471.794 3.38171 -2.02568 0
M  V30 4987 H 473.082 4.58657 -2.20253 0
M  V30 4988 H 472.48 5.5982 0.813518 0
M  V30 4989 H 471.037 6.4943 0.555361 0
M  V30 4990 N 474.47 1.03057 1.19235 0
M  V30 4991 C 475.38 0.622922 2.26179 0
M  V30 4992 C 476.396 -0.346113 1.70523 0
M  V30 4993 O 477.572 -0.203572 2.00369 0
M  V30 4994 C 474.637 -0.0182063 3.46695 0
M  V30 4995 C 473.698 0.998546 4.17526 0
M  V30 4996 C 472.931 0.387917 5.32288 0
M  V30 4997 O 473.154 -0.808668 5.64639 0
M  V30 4998 O 472.088 1.1116 5.91546 0
M  V30 4999 H 475.914 1.51363 2.63292 0
M  V30 5000 H 473.499 0.800856 1.26122 0
M  V30 5001 H 475.381 -0.375606 4.19723 0
M  V30 5002 H 474.056 -0.882895 3.11427 0
M  V30 5003 H 472.963 1.40756 3.4661 0
M  V30 5004 H 474.296 1.83366 4.56769 0
M  V30 5005 N 475.948 -1.35272 0.808662 0
M  V30 5006 C 476.878 -2.32315 0.234981 0
M  V30 5007 C 477.859 -1.57572 -0.64071 0
M  V30 5008 O 479.044 -1.8563 -0.570551 0
M  V30 5009 C 476.174 -3.41801 -0.615601 0
M  V30 5010 C 475.128 -4.27694 0.161767 0
M  V30 5011 C 474.454 -5.28519 -0.810649 0
M  V30 5012 C 475.754 -5.04231 1.36193 0
M  V30 5013 H 477.448 -2.80543 1.04575 0
M  V30 5014 H 474.994 -1.3488 0.504315 0
M  V30 5015 H 476.947 -4.08693 -1.02702 0
M  V30 5016 H 475.671 -2.92186 -1.45928 0
M  V30 5017 H 474.33 -3.62384 0.554382 0
M  V30 5018 H 473.978 -4.75171 -1.64988 0
M  V30 5019 H 473.678 -5.8686 -0.294822 0
M  V30 5020 H 475.202 -5.98283 -1.22023 0
M  V30 5021 H 476.616 -5.64058 1.02528 0
M  V30 5022 H 475.013 -5.72077 1.81239 0
M  V30 5023 H 476.083 -4.34753 2.14751 0
M  V30 5024 N 477.426 -0.562348 -1.47226 0
M  V30 5025 C 478.356 0.170627 -2.32876 0
M  V30 5026 C 479.337 0.903748 -1.44106 0
M  V30 5027 O 480.522 0.883206 -1.72954 0
M  V30 5028 C 477.652 1.19786 -3.25989 0
M  V30 5029 C 476.606 0.580875 -4.2404 0
M  V30 5030 C 475.932 1.71311 -5.06514 0
M  V30 5031 C 477.232 -0.468714 -5.20193 0
M  V30 5032 H 478.926 -0.544441 -2.94408 0
M  V30 5033 H 476.472 -0.263271 -1.41573 0
M  V30 5034 H 478.425 1.71884 -3.84752 0
M  V30 5035 H 477.149 1.94294 -2.62521 0
M  V30 5036 H 475.808 0.0811538 -3.6651 0
M  V30 5037 H 475.456 2.44736 -4.39447 0
M  V30 5038 H 475.156 1.30604 -5.72902 0
M  V30 5039 H 476.68 2.23725 -5.68137 0
M  V30 5040 H 478.094 -0.0336028 -5.7329 0
M  V30 5041 H 476.491 -0.794957 -5.94811 0
M  V30 5042 H 477.561 -1.36269 -4.65359 0
M  V30 5043 N 478.904 1.54736 -0.299062 0
M  V30 5044 C 480.181 1.92187 0.363802 0
M  V30 5045 C 480.561 1.22607 1.71845 0
M  V30 5046 O 479.909 0.361141 2.25628 0
M  V30 5047 C 480.119 3.45678 0.480377 0
M  V30 5048 C 481.467 4.17885 0.752147 0
M  V30 5049 O 482.491 3.51702 0.564264 0
M  V30 5050 O 481.35 5.35048 1.11294 0
M  V30 5051 H 478.444 0.801681 0.203066 0
M  V30 5052 H 480.99 1.66115 -0.346978 0
M  V30 5053 H 479.762 3.88443 -0.471999 0
M  V30 5054 H 479.385 3.77779 1.2397 0
M  V30 5055 N 480.382 0.0267497 1.57577 0
M  V30 5056 C 481.622 -0.65659 1.93567 0
M  V30 5057 C 481.986 -1.69429 0.903213 0
M  V30 5058 O 483.187 -2.42994 1.14923 0
M  V30 5059 C 481.458 -1.25912 3.34486 0
M  V30 5060 S 483.017 -1.96386 3.924 0
M  V30 5061 H 479.835 -0.216237 0.67732 0
M  V30 5062 H 482.437 0.0898475 1.95293 0
M  V30 5063 H 481.141 -0.491405 4.07447 0
M  V30 5064 H 480.672 -2.04291 3.36198 0
M  V30 5065 H 482.687 -3.24202 3.75643 0
M  V30 5066 N 481.861 -1.55662 -0.24637 0
M  V30 5067 C 483.138 -1.68272 -0.997198 0
M  V30 5068 C 483.518 -0.566785 -2.03349 0
M  V30 5069 O 482.866 0.429688 -2.24424 0
M  V30 5070 C 483.076 -3.08594 -1.63006 0
M  V30 5071 C 484.424 -3.6721 -2.13171 0
M  V30 5072 O 485.448 -3.11397 -1.72946 0
M  V30 5073 O 484.307 -4.65054 -2.87031 0
M  V30 5074 H 481.401 -0.684429 -0.464205 0
M  V30 5075 H 483.947 -1.67993 -0.240114 0
M  V30 5076 H 482.719 -3.81264 -0.880527 0
M  V30 5077 H 482.342 -3.12886 -2.45333 0
M  V30 5078 N 483.339 0.512053 -1.4905 0
M  V30 5079 C 484.286 1.6148 -1.64902 0
M  V30 5080 C 485.256 1.58687 -0.490673 0
M  V30 5081 O 486.441 1.76842 -0.71636 0
M  V30 5082 C 483.581 2.99676 -1.71139 0
M  V30 5083 C 482.694 3.12568 -2.98203 0
M  V30 5084 C 481.829 4.4143 -2.95487 0
M  V30 5085 C 480.868 4.47916 -4.17179 0
M  V30 5086 N 480.005 5.68191 -4.12437 0
M  V30 5087 H 484.845 1.47271 -2.59066 0
M  V30 5088 H 482.382 0.716713 -1.28459 0
M  V30 5089 H 484.34 3.79761 -1.72736 0
M  V30 5090 H 482.97 3.12614 -0.804508 0
M  V30 5091 H 482.022 2.25618 -3.06269 0
M  V30 5092 H 483.334 3.1322 -3.88194 0
M  V30 5093 H 482.488 5.29825 -2.95585 0
M  V30 5094 H 481.227 4.43326 -2.03256 0
M  V30 5095 H 480.232 3.57925 -4.17337 0
M  V30 5096 H 481.457 4.47744 -5.1059 0
M  V30 5097 H 479.403 5.7095 -3.23036 0
M  V30 5098 H 479.32 5.70413 -4.96151 0
M  V30 5099 H 480.588 6.58823 -4.16621 0
M  V30 5100 N 484.817 1.37938 0.762283 0
M  V30 5101 C 485.75 1.2884 1.88349 0
M  V30 5102 C 486.728 0.167084 1.61739 0
M  V30 5103 O 487.912 0.34292 1.85355 0
M  V30 5104 C 485.039 0.994257 3.23778 0
M  V30 5105 C 484.085 2.13376 3.69287 0
M  V30 5106 S 484.918 3.75439 3.81845 0
M  V30 5107 C 486.074 3.48195 5.20107 0
M  V30 5108 H 486.307 2.23736 1.95779 0
M  V30 5109 H 483.84 1.23672 0.924368 0
M  V30 5110 H 485.798 0.83138 4.01993 0
M  V30 5111 H 484.459 0.0626251 3.14038 0
M  V30 5112 H 483.652 1.88319 4.67495 0
M  V30 5113 H 483.254 2.25726 2.98201 0
M  V30 5114 H 485.546 3.0377 6.05583 0
M  V30 5115 H 486.489 4.45765 5.50181 0
M  V30 5116 H 486.897 2.82905 4.88493 0
M  V30 5117 N 486.295 -0.989507 1.22664 0
M  V30 5118 C 487.572 -1.70326 0.961688 0
M  V30 5119 C 487.952 -2.04537 -0.522279 0
M  V30 5120 O 487.3 -1.73136 -1.49118 0
M  V30 5121 C 487.51 -2.95135 1.86269 0
M  V30 5122 C 488.858 -3.67842 2.12078 0
M  V30 5123 O 489.882 -3.0515 1.83745 0
M  V30 5124 O 488.741 -4.80644 2.60083 0
M  V30 5125 H 485.835 -0.743589 0.361946 0
M  V30 5126 H 488.381 -1.04555 1.33665 0
M  V30 5127 H 487.153 -2.66382 2.8663 0
M  V30 5128 H 486.776 -3.68645 1.48952 0
M  V30 5129 N 487.773 -1.03688 -1.18687 0
M  V30 5130 C 488.72 -0.624624 -2.22187 0
M  V30 5131 C 489.69 0.365636 -1.62026 0
M  V30 5132 O 490.875 0.260481 -1.89014 0
M  V30 5133 C 488.015 0.0101738 -3.45099 0
M  V30 5134 C 487.128 -1.02709 -4.19613 0
M  V30 5135 C 486.263 -0.361213 -5.2997 0
M  V30 5136 C 485.302 -1.38384 -5.96252 0
M  V30 5137 N 484.439 -0.743196 -6.98155 0
M  V30 5138 H 489.279 -1.51176 -2.56807 0
M  V30 5139 H 486.816 -0.75636 -1.26165 0
M  V30 5140 H 488.774 0.395528 -4.15321 0
M  V30 5141 H 487.404 0.860848 -3.1111 0
M  V30 5142 H 486.456 -1.53043 -3.48256 0
M  V30 5143 H 487.768 -1.80398 -4.65036 0
M  V30 5144 H 486.922 0.0785537 -6.06649 0
M  V30 5145 H 485.661 0.447799 -4.8564 0
M  V30 5146 H 484.666 -1.83378 -5.18317 0
M  V30 5147 H 485.891 -2.19448 -6.42666 0
M  V30 5148 H 483.837 0.0455789 -6.55984 0
M  V30 5149 H 483.754 -1.45784 -7.41811 0
M  V30 5150 H 485.022 -0.327698 -7.78811 0
M  V30 5151 N 489.251 1.34841 -0.815825 0
M  V30 5152 C 490.214 2.27959 -0.238185 0
M  V30 5153 C 491.214 1.49983 0.579816 0
M  V30 5154 O 492.404 1.69617 0.396953 0
M  V30 5155 C 489.536 3.34314 0.666876 0
M  V30 5156 H 490.729 2.80558 -1.05958 0
M  V30 5157 H 488.282 1.44852 -0.587156 0
M  V30 5158 H 489.017 2.86916 1.5116 0
M  V30 5159 H 488.802 3.92014 0.0819106 0
M  V30 5160 H 490.292 4.0379 1.06506 0
M  V30 5161 N 490.729 0.570148 1.46925 0
M  V30 5162 C 491.969 0.0534743 2.0433 0
M  V30 5163 C 492.333 -1.27729 1.4335 0
M  V30 5164 O 493.534 -1.88244 1.91879 0
M  V30 5165 C 491.805 -0.0244296 3.57392 0
M  V30 5166 S 493.364 -0.485351 4.36108 0
M  V30 5167 H 490.182 0.0313908 0.710307 0
M  V30 5168 H 492.784 0.759808 1.80131 0
M  V30 5169 H 491.488 0.948261 3.99295 0
M  V30 5170 H 491.019 -0.753922 3.86108 0
M  V30 5171 H 493.034 -1.74258 4.64595 0
M  V30 5172 N 492.207 -1.54576 0.307264 0
M  V30 5173 C 493.14 -2.19946 -0.608195 0
M  V30 5174 C 494.118 -1.17096 -1.12815 0
M  V30 5175 O 495.302 -1.45766 -1.19518 0
M  V30 5176 C 492.429 -2.84826 -1.8328 0
M  V30 5177 C 491.475 -4.01256 -1.44554 0
M  V30 5178 S 492.308 -5.33197 -0.49612 0
M  V30 5179 C 493.464 -6.01563 -1.72838 0
M  V30 5180 H 493.697 -2.97253 -0.0528544 0
M  V30 5181 H 491.23 -1.54129 0.0913837 0
M  V30 5182 H 493.188 -3.22832 -2.53554 0
M  V30 5183 H 491.849 -2.07353 -2.35931 0
M  V30 5184 H 491.042 -4.45457 -2.35762 0
M  V30 5185 H 490.644 -3.6484 -0.822671 0
M  V30 5186 H 492.936 -6.22751 -2.6681 0
M  V30 5187 H 493.879 -6.9552 -1.32882 0
M  V30 5188 H 494.287 -5.31279 -1.90795 0
M  V30 5189 N 493.685 -0.035106 -1.57561 0
M  V30 5190 C 494.933 0.64096 -1.91667 0
M  V30 5191 C 495.254 1.72323 -0.912681 0
M  V30 5192 O 494.524 1.95849 0.0449089 0
M  V30 5193 H 493.104 0.239743 -0.707483 0
M  V30 5194 H 495.766 -0.084321 -1.94718 0
M  V30 5195 H 494.862 1.08987 -2.92452 0
M  V30 5196 N 495.163 1.55791 0.238111 0
M  V30 5197 C 496.411 1.77681 0.963001 0
M  V30 5198 C 496.732 0.600674 1.85518 0
M  V30 5199 O 496.002 -0.383182 1.92116 0
M  V30 5200 H 494.582 0.655315 0.358568 0
M  V30 5201 H 497.244 1.93239 0.253945 0
M  V30 5202 H 496.34 2.69177 1.57956 0
M  V30 5203 N 496.642 -0.504142 1.49319 0
M  V30 5204 C 497.572 -1.61473 1.68667 0
M  V30 5205 C 498.553 -1.61455 0.535378 0
M  V30 5206 O 499.738 -1.78245 0.770868 0
M  V30 5207 C 496.868 -2.99971 1.75028 0
M  V30 5208 C 495.822 -3.14854 2.89916 0
M  V30 5209 C 495.148 -4.54671 2.81387 0
M  V30 5210 C 496.448 -2.95176 4.30893 0
M  V30 5211 H 498.142 -1.45535 2.61648 0
M  V30 5212 H 495.688 -0.698711 1.25913 0
M  V30 5213 H 497.641 -3.77562 1.8715 0
M  V30 5214 H 496.365 -3.1699 0.786441 0
M  V30 5215 H 495.024 -2.39687 2.77391 0
M  V30 5216 H 494.672 -4.68562 1.82917 0
M  V30 5217 H 494.372 -4.6557 3.58494 0
M  V30 5218 H 495.896 -5.34327 2.95512 0
M  V30 5219 H 497.31 -3.62538 4.44116 0
M  V30 5220 H 495.707 -3.17549 5.09198 0
M  V30 5221 H 496.777 -1.91332 4.45556 0
M  V30 5222 N 498.12 -1.38341 -0.754957 0
M  V30 5223 C 499.531 -1.30803 -1.3322 0
M  V30 5224 C 499.882 0.0368 -1.96165 0
M  V30 5225 O 499.007 0.938844 -1.94974 0
M  V30 5226 C 499.602 -2.3688 -2.42225 0
M  V30 5227 C 498.161 -2.32925 -2.95674 0
M  V30 5228 C 497.308 -2.19819 -1.69042 0
M  V30 5229 H 500.259 -1.48719 -0.553937 0
M  V30 5230 H 500.28 -2.02517 -3.22129 0
M  V30 5231 H 499.792 -3.34747 -1.96383 0
M  V30 5232 H 497.893 -1.38635 -3.45848 0
M  V30 5233 H 498.006 -3.27008 -3.50146 0
M  V30 5234 H 496.37 -1.66648 -1.92615 0
M  V30 5235 H 497.153 -3.19625 -1.25279 0
M  V30 5236 N 499.598 0.982988 -1.23187 0
M  V30 5237 C 500.823 1.76455 -1.08988 0
M  V30 5238 C 501.248 1.84726 0.354691 0
M  V30 5239 O 500.606 1.30699 1.25649 0
M  V30 5240 C 500.654 3.17094 -1.71708 0
M  V30 5241 O 499.758 4.00648 -0.977477 0
M  V30 5242 H 499.099 0.542988 -0.382177 0
M  V30 5243 H 501.629 1.23413 -1.63188 0
M  V30 5244 H 501.639 3.67684 -1.76841 0
M  V30 5245 H 500.314 3.10389 -2.76823 0
M  V30 5246 H 498.891 3.59161 -1.0029 0
M  V30 5247 N 501.076 1.04316 1.18135 0
M  V30 5248 C 502.024 0.630175 2.23901 0
M  V30 5249 C 503.018 -0.344254 1.65865 0
M  V30 5250 O 504.224 -0.211273 1.78756 0
M  V30 5251 H 500.599 0.185578 0.728742 0
M  V30 5252 H 502.57 1.53253 2.56039 0
M  V30 5253 C 501.319 0.011666 3.47698 0
M  V30 5254 H 500.642 0.752526 3.92654 0
M  V30 5255 H 502.082 -0.240046 4.2332 0
M  V30 5256 C 500.541 -1.23913 3.13285 0
M  V30 5257 O 501.071 -2.32959 3.27251 0
M  V30 5258 N 499.277 -1.13338 2.67587 0
M  V30 5259 H 498.824 -0.246006 2.56423 0
M  V30 5260 H 498.782 -1.97116 2.44934 0
M  V30 5261 N 502.554 -1.34406 0.822964 0
M  V30 5262 C 503.517 -2.2783 0.250271 0
M  V30 5263 C 504.517 -1.50288 -0.571854 0
M  V30 5264 O 505.707 -1.69825 -0.387952 0
M  V30 5265 C 502.839 -3.34663 -0.649137 0
M  V30 5266 H 504.032 -2.79992 1.07444 0
M  V30 5267 H 501.585 -1.44539 0.594829 0
M  V30 5268 H 502.32 -2.87714 -1.49637 0
M  V30 5269 H 502.105 -3.92052 -0.0611199 0
M  V30 5270 H 503.595 -4.04349 -1.04363 0
M  V30 5271 N 504.032 -0.577932 -1.46621 0
M  V30 5272 C 505.262 -0.0670668 -2.06491 0
M  V30 5273 C 505.67 1.24119 -1.42798 0
M  V30 5274 O 505.013 1.76016 -0.525759 0
M  V30 5275 C 505.075 0.177995 -3.59059 0
M  V30 5276 C 504.739 -1.04394 -4.44917 0
M  V30 5277 C 505.736 -1.95479 -4.81751 0
M  V30 5278 C 503.421 -1.26444 -4.86125 0
M  V30 5279 C 505.415 -3.06965 -5.58615 0
M  V30 5280 C 503.102 -2.38237 -5.62749 0
M  V30 5281 C 504.1 -3.28327 -5.98908 0
M  V30 5282 O 503.788 -4.38179 -6.73984 0
M  V30 5283 H 503.52 -0.0523159 -0.673973 0
M  V30 5284 H 506.074 -0.796966 -1.89308 0
M  V30 5285 H 504.304 0.962451 -3.74531 0
M  V30 5286 H 505.993 0.636782 -4.00874 0
M  V30 5287 H 506.759 -1.79657 -4.50498 0
M  V30 5288 H 502.638 -0.572316 -4.57434 0
M  V30 5289 H 506.182 -3.77309 -5.86757 0
M  V30 5290 H 502.079 -2.54023 -5.93416 0
M  V30 5291 H 502.847 -4.36486 -6.92403 0
M  V30 5292 N 505.51 1.54411 -0.315457 0
M  V30 5293 C 506.735 2.05299 0.294496 0
M  V30 5294 C 507.16 1.19052 1.4563 0
M  V30 5295 O 506.518 0.197804 1.80218 0
M  V30 5296 C 506.566 3.5345 0.714549 0
M  V30 5297 O 505.67 3.70175 1.81781 0
M  V30 5298 H 505.011 0.661743 0.0547019 0
M  V30 5299 H 507.541 1.99327 -0.461508 0
M  V30 5300 H 507.551 3.9557 0.999426 0
M  V30 5301 H 506.226 4.1568 -0.135244 0
M  V30 5302 H 504.803 3.3996 1.53236 0
M  V30 5303 N 506.988 0.0434614 1.5754 0
M  V30 5304 C 507.951 -0.918696 2.09982 0
M  V30 5305 C 508.951 -1.24488 1.01781 0
M  V30 5306 O 510.141 -1.18284 1.27885 0
M  V30 5307 C 507.273 -2.23093 2.57764 0
M  V30 5308 H 508.466 -0.464229 2.96285 0
M  V30 5309 H 506.019 -0.204818 1.54952 0
M  V30 5310 H 506.754 -2.73137 1.74832 0
M  V30 5311 H 506.539 -2.00724 3.36827 0
M  V30 5312 H 508.029 -2.92028 2.98512 0
M  V30 5313 N 508.466 -1.55915 -0.229846 0
M  V30 5314 C 509.715 -1.77742 -0.953455 0
M  V30 5315 C 510.028 -0.610524 -1.85828 0
M  V30 5316 O 511.234 -0.712219 -2.61992 0
M  V30 5317 C 509.69 -3.14738 -1.74551 0
M  V30 5318 C 509.298 -4.39126 -0.887242 0
M  V30 5319 C 511.042 -3.45895 -2.46084 0
M  V30 5320 C 508.949 -5.67149 -1.67617 0
M  V30 5321 H 507.879 -0.662648 -0.359741 0
M  V30 5322 H 510.53 -1.82322 -0.207576 0
M  V30 5323 H 508.912 -3.04311 -2.53399 0
M  V30 5324 H 510.086 -4.60588 -0.139892 0
M  V30 5325 H 508.401 -4.15427 -0.284443 0
M  V30 5326 H 510.998 -4.38767 -3.05594 0
M  V30 5327 H 511.341 -2.68007 -3.18556 0
M  V30 5328 H 511.874 -3.57614 -1.74233 0
M  V30 5329 H 508.613 -6.47906 -0.994881 0
M  V30 5330 H 508.133 -5.49763 -2.39836 0
M  V30 5331 H 509.812 -6.07025 -2.23898 0
M  V30 5332 N 509.944 0.496216 -1.49584 0
M  V30 5333 C 510.891 1.59722 -1.66606 0
M  V30 5334 C 511.861 1.58158 -0.507477 0
M  V30 5335 O 513.046 1.76072 -0.735076 0
M  V30 5336 C 510.186 2.97844 -1.74308 0
M  V30 5337 C 509.299 3.09388 -3.01502 0
M  V30 5338 C 508.434 4.38271 -3.00153 0
M  V30 5339 C 507.473 4.43466 -4.21906 0
M  V30 5340 N 506.61 5.63784 -4.1844 0
M  V30 5341 H 511.45 1.44515 -2.60613 0
M  V30 5342 H 508.987 0.703048 -1.29212 0
M  V30 5343 H 510.945 3.77907 -1.76754 0
M  V30 5344 H 509.575 3.11743 -0.837619 0
M  V30 5345 H 508.627 2.22357 -3.08645 0
M  V30 5346 H 509.939 3.09085 -3.91494 0
M  V30 5347 H 509.093 5.2666 -3.01188 0
M  V30 5348 H 507.832 4.41146 -2.07947 0
M  V30 5349 H 506.837 3.53478 -4.21109 0
M  V30 5350 H 508.062 4.42303 -5.1531 0
M  V30 5351 H 506.008 5.67491 -3.29074 0
M  V30 5352 H 505.925 5.65118 -5.02173 0
M  V30 5353 H 507.193 6.54367 -4.23585 0
M  V30 5354 N 511.423 1.38739 0.74761 0
M  V30 5355 C 512.371 1.36573 1.88283 0
M  V30 5356 C 513.365 0.250712 1.67534 0
M  V30 5357 O 514.571 0.420073 1.7503 0
M  V30 5358 H 510.946 0.42619 0.619569 0
M  V30 5359 H 512.917 2.32356 1.87226 0
M  V30 5360 C 511.666 1.21361 3.25832 0
M  V30 5361 H 510.989 2.06424 3.42388 0
M  V30 5362 H 512.429 1.23901 4.05493 0
M  V30 5363 C 510.888 -0.0790099 3.36807 0
M  V30 5364 O 511.418 -1.05385 3.8763 0
M  V30 5365 N 509.624 -0.13785 2.90273 0
M  V30 5366 H 509.171 0.656128 2.49104 0
M  V30 5367 H 509.129 -1.00228 2.97996 0
M  V30 5368 N 512.901 -0.976442 1.23707 0
M  V30 5369 C 513.831 -2.08749 1.04624 0
M  V30 5370 C 514.812 -1.70057 -0.0380956 0
M  V30 5371 O 515.997 -1.93782 0.127308 0
M  V30 5372 C 513.127 -3.41335 0.640902 0
M  V30 5373 C 512.081 -3.93947 1.67302 0
M  V30 5374 C 511.407 -5.22774 1.12301 0
M  V30 5375 C 512.707 -4.22769 3.06697 0
M  V30 5376 H 514.401 -2.24972 1.97555 0
M  V30 5377 H 511.947 -1.08108 0.951247 0
M  V30 5378 H 513.9 -4.18489 0.494434 0
M  V30 5379 H 512.624 -3.24988 -0.324099 0
M  V30 5380 H 511.283 -3.18941 1.80755 0
M  V30 5381 H 510.931 -5.0278 0.148877 0
M  V30 5382 H 510.631 -5.58942 1.81267 0
M  V30 5383 H 512.155 -6.02546 0.988479 0
M  V30 5384 H 513.569 -4.90659 2.96524 0
M  V30 5385 H 511.966 -4.70147 3.72937 0
M  V30 5386 H 513.036 -3.29885 3.55392 0
M  V30 5387 N 514.379 -1.04941 -1.1758 0
M  V30 5388 C 515.627 -0.756492 -1.87408 0
M  V30 5389 C 515.948 0.718478 -1.81281 0
M  V30 5390 O 515.218 1.519 -1.23706 0
M  V30 5391 H 513.798 -0.276841 -0.693807 0
M  V30 5392 H 516.46 -1.32803 -1.42652 0
M  V30 5393 H 515.556 -1.06918 -2.93215 0
M  V30 5394 N 515.857 1.33968 -0.830081 0
M  V30 5395 C 517.105 1.97672 -0.420734 0
M  V30 5396 C 517.426 1.66111 1.02138 0
M  V30 5397 O 516.696 0.955503 1.71017 0
M  V30 5398 H 515.276 0.73125 -0.152587 0
M  V30 5399 H 517.938 1.63483 -1.0611 0
M  V30 5400 H 517.034 3.07294 -0.545588 0
M  V30 5401 N 517.335 0.585699 1.46312 0
M  V30 5402 C 518.265 -0.133556 2.33118 0
M  V30 5403 C 519.246 -0.880707 1.45525 0
M  V30 5404 O 520.431 -0.855579 1.74337 0
M  V30 5405 C 517.561 -1.14585 3.27853 0
M  V30 5406 C 516.515 -0.513341 4.2491 0
M  V30 5407 C 515.841 -1.63231 5.09175 0
M  V30 5408 C 517.141 0.551413 5.19381 0
M  V30 5409 H 518.835 0.59121 2.93505 0
M  V30 5410 H 516.381 0.285761 1.41136 0
M  V30 5411 H 518.334 -1.65741 3.87438 0
M  V30 5412 H 517.058 -1.90093 2.65579 0
M  V30 5413 H 515.717 -0.0228349 3.66593 0
M  V30 5414 H 515.365 -2.37713 4.43285 0
M  V30 5415 H 515.065 -1.21473 5.74907 0
M  V30 5416 H 516.589 -2.14658 5.71624 0
M  V30 5417 H 518.003 0.124804 5.73164 0
M  V30 5418 H 516.4 0.889486 5.93471 0
M  V30 5419 H 517.47 1.43655 4.63132 0
M  V30 5420 N 518.813 -1.54241 0.323641 0
M  V30 5421 C 519.723 -2.28033 -0.551205 0
M  V30 5422 C 520.739 -1.32388 -1.12913 0
M  V30 5423 O 521.915 -1.65403 -1.14908 0
M  V30 5424 C 518.98 -3.02382 -1.69606 0
M  V30 5425 C 518.041 -4.13612 -1.14993 0
M  V30 5426 C 517.274 -4.84407 -2.24022 0
M  V30 5427 O 517.497 -4.54716 -3.44368 0
M  V30 5428 O 516.431 -5.71312 -1.89436 0
M  V30 5429 H 520.257 -3.03662 0.048066 0
M  V30 5430 H 517.842 -1.49133 0.0893289 0
M  V30 5431 H 519.724 -3.48941 -2.36259 0
M  V30 5432 H 518.399 -2.29628 -2.28151 0
M  V30 5433 H 517.306 -3.71402 -0.448484 0
M  V30 5434 H 518.639 -4.8841 -0.609608 0
M  V30 5435 N 520.291 -0.0518155 -1.57515 0
M  V30 5436 C 521.519 0.631395 -1.9703 0
M  V30 5437 C 521.934 1.64341 -0.92938 0
M  V30 5438 O 521.291 1.82296 0.0863266 0
M  V30 5439 C 521.342 1.31774 -3.36627 0
M  V30 5440 O 521.063 0.346247 -4.3673 0
M  V30 5441 C 522.564 2.09065 -3.90905 0
M  V30 5442 H 519.784 0.172576 -0.648428 0
M  V30 5443 H 522.328 -0.118306 -2.04158 0
M  V30 5444 H 520.483 2.01867 -3.30649 0
M  V30 5445 H 520.897 0.836226 -5.17791 0
M  V30 5446 H 522.371 2.52508 -4.9086 0
M  V30 5447 H 522.848 2.93908 -3.26366 0
M  V30 5448 H 523.454 1.43882 -4.00223 0
M  V30 5449 N 521.769 1.56035 0.221574 0
M  V30 5450 C 522.679 1.95581 1.29558 0
M  V30 5451 C 523.695 0.859639 1.51282 0
M  V30 5452 O 524.871 1.16321 1.64413 0
M  V30 5453 C 521.936 2.26447 2.62531 0
M  V30 5454 C 520.997 3.49632 2.4911 0
M  V30 5455 C 520.23 3.79017 3.75742 0
M  V30 5456 O 520.453 3.10077 4.78757 0
M  V30 5457 O 519.387 4.72507 3.72855 0
M  V30 5458 H 523.213 2.8711 0.990035 0
M  V30 5459 H 520.798 1.43244 0.424434 0
M  V30 5460 H 522.68 2.47494 3.41064 0
M  V30 5461 H 521.355 1.38092 2.92766 0
M  V30 5462 H 520.262 3.33864 1.68777 0
M  V30 5463 H 521.595 4.3837 2.23814 0
M  V30 5464 N 523.247 -0.488276 1.49845 0
M  V30 5465 C 524.524 -1.24959 1.50481 0
M  V30 5466 C 524.904 -2.09735 0.239698 0
M  V30 5467 O 524.252 -2.14865 -0.777524 0
M  V30 5468 C 524.462 -2.0954 2.79095 0
M  V30 5469 C 525.81 -2.68305 3.29086 0
M  V30 5470 O 526.834 -2.19797 2.80299 0
M  V30 5471 O 525.693 -3.56643 4.14087 0
M  V30 5472 H 522.787 -0.566133 0.602845 0
M  V30 5473 H 525.333 -0.501504 1.6212 0
M  V30 5474 H 524.105 -1.46958 3.62656 0
M  V30 5475 H 523.728 -2.91517 2.70377 0
M  V30 5476 N 524.725 -1.39134 -0.740242 0
M  V30 5477 C 526.002 -1.26584 -1.49117 0
M  V30 5478 C 526.382 0.126902 -2.10718 0
M  V30 5479 O 525.73 1.13765 -1.98166 0
M  V30 5480 C 525.94 -2.38619 -2.54681 0
M  V30 5481 C 527.288 -2.77685 -3.21211 0
M  V30 5482 O 528.312 -2.38029 -2.64991 0
M  V30 5483 O 527.171 -3.46115 -4.22926 0
M  V30 5484 H 524.265 -0.495769 -0.661923 0
M  V30 5485 H 526.811 -1.50995 -0.774514 0
M  V30 5486 H 525.583 -3.3175 -2.07504 0
M  V30 5487 H 525.206 -2.15845 -3.33911 0
M  V30 5488 N 526.204 0.969867 -1.24223 0
M  V30 5489 C 527.434 1.74502 -1.106 0
M  V30 5490 C 527.842 1.86038 0.344483 0
M  V30 5491 O 527.185 1.3465 1.24961 0
M  V30 5492 C 527.247 3.18391 -1.66935 0
M  V30 5493 C 526.911 3.30334 -3.15798 0
M  V30 5494 C 527.908 3.15832 -4.12973 0
M  V30 5495 C 525.593 3.54644 -3.55715 0
M  V30 5496 C 527.587 3.25461 -5.48045 0
M  V30 5497 C 525.274 3.63912 -4.90929 0
M  V30 5498 C 526.272 3.49332 -5.86904 0
M  V30 5499 O 525.96 3.58251 -7.1966 0
M  V30 5500 H 525.692 0.554119 -0.387206 0
M  V30 5501 H 528.246 1.22646 -1.64764 0
M  V30 5502 H 526.476 3.71543 -1.07203 0
M  V30 5503 H 528.165 3.77707 -1.48634 0
M  V30 5504 H 528.931 2.96937 -3.83476 0
M  V30 5505 H 524.81 3.65059 -2.81519 0
M  V30 5506 H 528.354 3.13998 -6.22937 0
M  V30 5507 H 524.251 3.82319 -5.20098 0
M  V30 5508 H 525.019 3.7498 -7.27552 0
M  V30 5509 N 527.682 1.05563 1.17022 0
M  V30 5510 C 528.907 0.788437 1.91829 0
M  V30 5511 C 529.332 -0.650356 1.76499 0
M  V30 5512 O 528.69 -1.45229 1.08527 0
M  V30 5513 C 528.738 1.1786 3.40795 0
M  V30 5514 O 527.842 0.312965 4.11211 0
M  V30 5515 H 527.183 0.288794 0.597908 0
M  V30 5516 H 529.713 1.40948 1.48307 0
M  V30 5517 H 529.723 1.14697 3.91546 0
M  V30 5518 H 528.398 2.22666 3.51273 0
M  V30 5519 H 526.975 0.405515 3.70689 0
M  V30 5520 N 529.16 -1.33526 0.837174 0
M  V30 5521 C 530.39 -2.01754 0.444848 0
M  V30 5522 C 530.798 -1.63149 -0.958072 0
M  V30 5523 O 530.141 -0.839827 -1.63379 0
M  V30 5524 C 530.203 -3.56228 0.483917 0
M  V30 5525 C 529.867 -4.18205 1.84265 0
M  V30 5526 C 530.864 -4.37699 2.80563 0
M  V30 5527 C 528.549 -4.54667 2.13503 0
M  V30 5528 C 530.543 -4.928 4.04261 0
M  V30 5529 C 528.23 -5.09475 3.37458 0
M  V30 5530 C 529.228 -5.28488 4.32654 0
M  V30 5531 O 528.916 -5.82132 5.54417 0
M  V30 5532 H 528.648 -0.652928 0.175104 0
M  V30 5533 H 531.202 -1.71469 1.13082 0
M  V30 5534 H 529.432 -3.85833 -0.258826 0
M  V30 5535 H 531.121 -4.05752 0.109653 0
M  V30 5536 H 531.887 -4.0988 2.59274 0
M  V30 5537 H 527.766 -4.39164 1.40201 0
M  V30 5538 H 531.31 -5.07555 4.78574 0
M  V30 5539 H 527.207 -5.36725 3.58604 0
M  V30 5540 H 527.975 -6.00548 5.56133 0
M  V30 5541 N 530.638 -0.59345 -1.46 0
M  V30 5542 C 531.57 0.171569 -2.28557 0
M  V30 5543 C 532.583 0.845273 -1.39137 0
M  V30 5544 O 533.772 0.713033 -1.6364 0
M  V30 5545 C 530.872 1.26311 -3.14482 0
M  V30 5546 C 530.045 0.679258 -4.32094 0
M  V30 5547 C 529.104 1.65987 -4.99334 0
M  V30 5548 O 528.13 1.19171 -5.56585 0
M  V30 5549 N 529.332 2.99414 -4.97324 0
M  V30 5550 H 532.097 -0.536771 -2.94854 0
M  V30 5551 H 529.658 -0.431954 -1.56031 0
M  V30 5552 H 531.65 1.91863 -3.5633 0
M  V30 5553 H 530.22 1.87416 -2.50188 0
M  V30 5554 H 529.44 -0.153992 -3.93899 0
M  V30 5555 H 530.728 0.26916 -5.08088 0
M  V30 5556 H 530.126 3.40064 -4.52076 0
M  V30 5557 H 528.683 3.60426 -5.4308 0
M  V30 5558 N 532.116 1.54067 -0.331816 0
M  V30 5559 C 533.364 2.00319 0.267739 0
M  V30 5560 C 533.685 1.22148 1.52003 0
M  V30 5561 O 532.955 0.325494 1.93177 0
M  V30 5562 H 531.535 0.740014 0.101922 0
M  V30 5563 H 534.197 1.89628 -0.450267 0
M  V30 5564 H 533.293 3.07765 0.518385 0
M  V30 5565 N 533.594 0.0601682 1.57485 0
M  V30 5566 C 534.544 -0.920969 2.08572 0
M  V30 5567 C 535.528 -1.26617 0.992827 0
M  V30 5568 O 536.72 -1.24708 1.25606 0
M  V30 5569 C 533.849 -2.19267 2.64153 0
M  V30 5570 C 532.935 -1.87447 3.80427 0
M  V30 5571 N 533.326 -1.26025 4.89848 0
M  V30 5572 C 531.624 -2.17265 3.89502 0
M  V30 5573 C 532.325 -1.12036 5.70809 0
M  V30 5574 N 531.301 -1.62624 5.18705 0
M  V30 5575 H 535.103 -0.441561 2.90564 0
M  V30 5576 H 532.617 -0.144043 1.6176 0
M  V30 5577 H 534.614 -2.90462 2.99061 0
M  V30 5578 H 533.274 -2.67806 1.83603 0
M  V30 5579 H 534.285 -0.931336 5.09457 0
M  V30 5580 H 530.962 -2.68262 3.19909 0
M  V30 5581 H 532.352 -0.642783 6.68818 0
M  V30 5582 N 535.072 -1.5615 -0.213296 0
M  V30 5583 C 536.005 -1.88115 -1.29182 0
M  V30 5584 C 536.983 -0.739348 -1.44819 0
M  V30 5585 O 538.167 -0.988541 -1.605 0
M  V30 5586 C 535.294 -2.09541 -2.66102 0
M  V30 5587 C 534.34 -3.32236 -2.67436 0
M  V30 5588 S 535.173 -4.87915 -2.20679 0
M  V30 5589 C 536.329 -5.12387 -3.59458 0
M  V30 5590 H 536.562 -2.793 -1.01876 0
M  V30 5591 H 534.095 -1.48692 -0.415934 0
M  V30 5592 H 536.053 -2.22568 -3.44925 0
M  V30 5593 H 534.714 -1.19138 -2.90628 0
M  V30 5594 H 533.907 -3.44297 -3.6807 0
M  V30 5595 H 533.509 -3.18108 -1.96681 0
M  V30 5596 H 535.801 -5.01791 -4.55205 0
M  V30 5597 H 536.744 -6.14236 -3.52306 0
M  V30 5598 H 537.152 -4.40089 -3.53528 0
M  V30 5599 N 536.55 0.480323 -1.50102 0
M  V30 5600 C 537.482 1.59669 -1.64433 0
M  V30 5601 C 538.495 1.54063 -0.52615 0
M  V30 5602 O 539.684 1.59619 -0.798992 0
M  V30 5603 C 536.784 2.98527 -1.6042 0
M  V30 5604 C 535.957 3.291 -2.88117 0
M  V30 5605 C 535.016 4.47468 -2.76873 0
M  V30 5606 O 534.042 4.4823 -3.50825 0
M  V30 5607 N 535.244 5.48593 -1.89806 0
M  V30 5608 H 538.009 1.47795 -2.60723 0
M  V30 5609 H 535.57 0.66858 -1.4745 0
M  V30 5610 H 537.562 3.75666 -1.50523 0
M  V30 5611 H 536.132 3.04218 -0.719036 0
M  V30 5612 H 535.352 2.40662 -3.12211 0
M  V30 5613 H 536.64 3.46334 -3.72734 0
M  V30 5614 H 536.038 5.50791 -1.2902 0
M  V30 5615 H 534.595 6.24752 -1.85819 0
M  V30 5616 N 538.028 1.39524 0.732853 0
M  V30 5617 C 539.253 1.40329 1.52717 0
M  V30 5618 C 539.678 0.000286574 1.881 0
M  V30 5619 O 539.036 -0.987262 1.52062 0
M  V30 5620 C 539.084 2.28464 2.78992 0
M  V30 5621 O 538.188 1.716 3.75003 0
M  V30 5622 H 537.529 0.47778 0.461109 0
M  V30 5623 H 540.059 1.83546 0.903996 0
M  V30 5624 H 540.069 2.43051 3.27705 0
M  V30 5625 H 538.744 3.30425 2.52572 0
M  V30 5626 H 537.321 1.66267 3.33781 0
M  V30 5627 N 539.506 -0.963266 1.24736 0
M  V30 5628 C 540.746 -1.72172 1.10165 0
M  V30 5629 C 541.11 -1.88731 -0.352784 0
M  V30 5630 O 542.311 -2.61549 -0.620107 0
M  V30 5631 C 540.582 -3.0724 1.82589 0
M  V30 5632 S 542.141 -3.98449 1.83803 0
M  V30 5633 H 538.959 -0.591901 0.393922 0
M  V30 5634 H 541.561 -1.14955 1.58132 0
M  V30 5635 H 540.265 -2.92851 2.87518 0
M  V30 5636 H 539.796 -3.69521 1.34973 0
M  V30 5637 H 541.811 -4.87805 0.908883 0
M  V30 5638 N 540.985 -1.06182 -1.16461 0
M  V30 5639 C 541.933 -0.665716 -2.2287 0
M  V30 5640 C 542.927 0.317822 -1.66392 0
M  V30 5641 O 544.133 0.182807 -1.79069 0
M  V30 5642 H 540.508 -0.197148 -0.725697 0
M  V30 5643 H 542.479 -1.57307 -2.53569 0
M  V30 5644 C 541.228 -0.0669803 -3.47635 0
M  V30 5645 H 540.551 -0.814899 -3.91407 0
M  V30 5646 H 541.991 0.172669 -4.23648 0
M  V30 5647 C 540.45 1.18913 -3.15216 0
M  V30 5648 O 540.98 2.27723 -3.30916 0
M  V30 5649 N 539.186 1.09066 -2.69357 0
M  V30 5650 H 538.733 0.20518 -2.56782 0
M  V30 5651 H 538.691 1.93195 -2.48039 0
M  V30 5652 N 542.463 1.3308 -0.844243 0
M  V30 5653 C 543.71 1.97605 -0.44255 0
M  V30 5654 C 544.038 1.66856 0.999458 0
M  V30 5655 O 543.293 0.943586 1.7145 0
M  V30 5656 C 543.592 3.52045 -0.616354 0
M  V30 5657 C 543.258 4.02757 -2.02726 0
M  V30 5658 C 541.92 4.16316 -2.41317 0
M  V30 5659 C 544.272 4.29776 -2.9486 0
M  V30 5660 C 541.6 4.54232 -3.71335 0
M  V30 5661 C 543.952 4.69146 -4.24364 0
M  V30 5662 C 542.616 4.80911 -4.62904 0
M  V30 5663 H 541.886 0.723088 -0.161941 0
M  V30 5664 H 544.533 1.58663 -1.0723 0
M  V30 5665 H 542.838 3.91681 0.0966812 0
M  V30 5666 H 544.535 3.99981 -0.285756 0
M  V30 5667 H 541.125 3.9268 -1.71756 0
M  V30 5668 H 545.309 4.18818 -2.6628 0
M  V30 5669 H 540.565 4.61535 -4.00993 0
M  V30 5670 H 544.739 4.89008 -4.95827 0
M  V30 5671 H 542.366 5.10048 -5.63698 0
M  V30 5672 N 543.941 0.601185 1.45683 0
M  V30 5673 C 545.166 0.0982245 2.07167 0
M  V30 5674 C 545.591 -1.20546 1.44396 0
M  V30 5675 O 544.949 -1.73247 0.534347 0
M  V30 5676 C 544.997 -0.0346976 3.60583 0
M  V30 5677 O 544.101 -1.08657 3.97828 0
M  V30 5678 H 543.442 0.0711618 0.660176 0
M  V30 5679 H 545.972 0.829376 1.87036 0
M  V30 5680 H 545.982 -0.234969 4.07323 0
M  V30 5681 H 544.657 0.917265 4.05659 0
M  V30 5682 H 543.234 -0.863275 3.6277 0
M  V30 5683 N 545.419 -1.53889 0.339982 0
M  V30 5684 C 546.382 -2.23547 -0.50592 0
M  V30 5685 C 547.382 -1.23445 -1.03044 0
M  V30 5686 O 548.572 -1.47909 -0.920253 0
M  V30 5687 C 545.704 -2.95234 -1.7044 0
M  V30 5688 H 546.897 -2.99722 0.103247 0
M  V30 5689 H 544.45 -1.56033 0.0912804 0
M  V30 5690 H 545.185 -2.23236 -2.35236 0
M  V30 5691 H 544.97 -3.68654 -1.33553 0
M  V30 5692 H 546.46 -3.48258 -2.30447 0
M  V30 5693 N 546.897 -0.0685191 -1.57451 0
M  V30 5694 C 547.807 0.914677 -2.16034 0
M  V30 5695 C 548.823 1.32938 -1.12265 0
M  V30 5696 O 549.999 1.40275 -1.44516 0
M  V30 5697 C 547.064 2.16519 -2.70777 0
M  V30 5698 C 546.125 1.80721 -3.89408 0
M  V30 5699 C 545.358 2.9981 -4.41531 0
M  V30 5700 O 545.581 4.13727 -3.92666 0
M  V30 5701 O 544.515 2.79817 -5.32903 0
M  V30 5702 H 548.341 0.446364 -3.00402 0
M  V30 5703 H 545.926 0.154367 -1.486 0
M  V30 5704 H 547.808 2.89856 -3.05878 0
M  V30 5705 H 546.483 2.62454 -1.89471 0
M  V30 5706 H 545.39 1.04646 -3.59166 0
M  V30 5707 H 546.723 1.39571 -4.71997 0
M  V30 5708 N 548.375 1.56261 0.205012 0
M  V30 5709 C 549.322 1.93754 1.25411 0
M  V30 5710 C 550.292 0.796826 1.45739 0
M  V30 5711 O 551.477 1.05414 1.59036 0
M  V30 5712 C 548.617 2.27383 2.59598 0
M  V30 5713 C 547.73 3.5447 2.46931 0
M  V30 5714 C 546.865 3.77468 3.73753 0
M  V30 5715 C 545.904 4.98014 3.55877 0
M  V30 5716 N 545.041 5.17316 4.74688 0
M  V30 5717 H 549.881 2.83203 0.92737 0
M  V30 5718 H 547.418 1.40158 0.446574 0
M  V30 5719 H 549.376 2.44895 3.37761 0
M  V30 5720 H 548.006 1.41088 2.90335 0
M  V30 5721 H 547.058 3.45061 1.60116 0
M  V30 5722 H 548.37 4.42789 2.29651 0
M  V30 5723 H 547.524 3.95165 4.60358 0
M  V30 5724 H 546.263 2.87461 3.93976 0
M  V30 5725 H 545.268 4.80249 2.67657 0
M  V30 5726 H 546.493 5.8952 3.37109 0
M  V30 5727 H 544.439 4.30255 4.95194 0
M  V30 5728 H 544.356 5.99796 4.60197 0
M  V30 5729 H 545.624 5.39463 5.62672 0
M  V30 5730 N 549.853 -0.472356 1.50355 0
M  V30 5731 C 550.816 -1.5529 1.68576 0
M  V30 5732 C 551.816 -1.50863 0.556511 0
M  V30 5733 O 553.006 -1.53505 0.823516 0
M  V30 5734 C 550.138 -2.94921 1.70981 0
M  V30 5735 H 551.331 -1.40451 2.64978 0
M  V30 5736 H 548.884 -0.698645 1.39816 0
M  V30 5737 H 549.619 -3.15204 0.762675 0
M  V30 5738 H 549.404 -2.99541 2.53017 0
M  V30 5739 H 550.894 -3.73372 1.87037 0
M  V30 5740 N 551.331 -1.39911 -0.725443 0
M  V30 5741 C 552.278 -1.39393 -1.83952 0
M  V30 5742 C 553.248 -0.252249 -1.64173 0
M  V30 5743 O 554.433 -0.44882 -1.85446 0
M  V30 5744 C 551.573 -1.25262 -3.21564 0
M  V30 5745 C 550.686 -2.49054 -3.52982 0
M  V30 5746 C 549.821 -2.27439 -4.80047 0
M  V30 5747 C 548.86 -3.46857 -5.04338 0
M  V30 5748 N 547.997 -3.24499 -6.22611 0
M  V30 5749 H 552.837 -2.34622 -1.83729 0
M  V30 5750 H 550.374 -1.16537 -0.897636 0
M  V30 5751 H 552.332 -1.15077 -4.01015 0
M  V30 5752 H 550.962 -0.33657 -3.21041 0
M  V30 5753 H 550.014 -2.69805 -2.6816 0
M  V30 5754 H 551.326 -3.37973 -3.66846 0
M  V30 5755 H 550.48 -2.14551 -5.67497 0
M  V30 5756 H 549.219 -1.35929 -4.68374 0
M  V30 5757 H 548.224 -3.60232 -4.15346 0
M  V30 5758 H 549.449 -4.3928 -5.17889 0
M  V30 5759 H 547.395 -2.35663 -6.12208 0
M  V30 5760 H 547.312 -4.06978 -6.37106 0
M  V30 5761 H 548.58 -3.15325 -7.12875 0
M  V30 5762 N 552.809 0.956637 -1.25245 0
M  V30 5763 C 554.055 1.70352 -1.10036 0
M  V30 5764 C 554.388 1.90869 0.358156 0
M  V30 5765 O 553.663 1.47819 1.26411 0
M  V30 5766 C 553.946 3.08766 -1.85298 0
M  V30 5767 C 553.799 2.95672 -3.38966 0
M  V30 5768 C 555.118 4.08622 -1.63451 0
M  V30 5769 H 552.237 0.618279 -0.401123 0
M  V30 5770 H 554.879 1.11212 -1.54051 0
M  V30 5771 H 553.029 3.59252 -1.47887 0
M  V30 5772 H 554.701 2.52527 -3.86041 0
M  V30 5773 H 552.944 2.31634 -3.6678 0
M  V30 5774 H 553.615 3.93776 -3.86839 0
M  V30 5775 H 556.091 3.67038 -1.96015 0
M  V30 5776 H 554.967 5.03514 -2.18551 0
M  V30 5777 H 555.228 4.3834 -0.575357 0
M  V30 5778 N 554.287 1.06798 1.15896 0
M  V30 5779 C 555.517 0.807522 1.90165 0
M  V30 5780 C 555.925 -0.642417 1.7796 0
M  V30 5781 O 555.268 -1.45193 1.12537 0
M  V30 5782 C 555.33 1.12939 3.41299 0
M  V30 5783 C 554.994 2.57879 3.7729 0
M  V30 5784 C 555.991 3.56118 3.78782 0
M  V30 5785 C 553.676 2.93311 4.07767 0
M  V30 5786 C 555.67 4.87827 4.10248 0
M  V30 5787 C 553.357 4.25219 4.38899 0
M  V30 5788 C 554.355 5.22287 4.4012 0
M  V30 5789 O 554.043 6.51826 4.70508 0
M  V30 5790 H 553.775 0.291946 0.609708 0
M  V30 5791 H 556.329 1.42627 1.47806 0
M  V30 5792 H 554.559 0.45359 3.84031 0
M  V30 5793 H 556.248 0.852363 3.9685 0
M  V30 5794 H 557.014 3.30086 3.55342 0
M  V30 5795 H 552.893 2.18409 4.05979 0
M  V30 5796 H 556.437 5.63586 4.11116 0
M  V30 5797 H 552.334 4.51006 4.61805 0
M  V30 5798 H 553.102 6.56893 4.88298 0
M  V30 5799 N 555.766 -1.3263 0.851289 0
M  V30 5800 C 557.015 -1.96633 0.449267 0
M  V30 5801 C 557.328 -1.68131 -0.999562 0
M  V30 5802 O 558.534 -2.25845 -1.50685 0
M  V30 5803 C 556.99 -3.51946 0.752446 0
M  V30 5804 C 556.598 -3.89311 2.21678 0
M  V30 5805 C 558.342 -4.22437 0.417983 0
M  V30 5806 C 556.249 -5.37655 2.46336 0
M  V30 5807 H 555.179 -0.735888 0.164269 0
M  V30 5808 H 557.83 -1.51073 1.0416 0
M  V30 5809 H 556.212 -3.95899 0.0895858 0
M  V30 5810 H 557.386 -3.56378 2.92115 0
M  V30 5811 H 555.701 -3.31836 2.51543 0
M  V30 5812 H 558.298 -5.31549 0.579674 0
M  V30 5813 H 558.641 -4.11349 -0.640115 0
M  V30 5814 H 559.174 -3.84057 1.03659 0
M  V30 5815 H 555.913 -5.5376 3.50757 0
M  V30 5816 H 555.433 -5.72005 1.80473 0
M  V30 5817 H 557.112 -6.04695 2.30115 0
M  V30 5818 N 557.244 -0.608902 -1.45362 0
M  V30 5819 C 558.192 0.121639 -2.32282 0
M  V30 5820 C 559.186 0.858301 -1.46046 0
M  V30 5821 O 560.392 0.773718 -1.62523 0
M  V30 5822 H 556.767 0.058086 -0.749753 0
M  V30 5823 H 558.738 -0.629866 -2.91677 0
M  V30 5824 C 557.487 1.1047 -3.29684 0
M  V30 5825 H 556.81 0.547278 -3.96036 0
M  V30 5826 H 558.25 1.58576 -3.9323 0
M  V30 5827 C 556.709 2.17891 -2.56954 0
M  V30 5828 O 557.239 3.25652 -2.35189 0
M  V30 5829 N 555.445 1.93211 -2.17066 0
M  V30 5830 H 554.992 1.05584 -2.34967 0
M  V30 5831 H 554.95 2.6529 -1.68727 0
M  V30 5832 N 558.722 1.53707 -0.348139 0
M  V30 5833 C 559.999 1.93247 0.302475 0
M  V30 5834 C 560.379 1.28012 1.67857 0
M  V30 5835 O 559.727 0.43274 2.24365 0
M  V30 5836 C 559.937 3.47031 0.370159 0
M  V30 5837 C 561.285 4.20066 0.61882 0
M  V30 5838 O 562.309 3.53319 0.452087 0
M  V30 5839 O 561.168 5.38318 0.94215 0
M  V30 5840 H 558.262 0.807736 0.177458 0
M  V30 5841 H 560.808 1.64927 -0.399651 0
M  V30 5842 H 559.58 3.86745 -0.59534 0
M  V30 5843 H 559.203 3.81532 1.11888 0
M  V30 5844 N 560.2 0.0768682 1.57412 0
M  V30 5845 C 561.425 -0.603404 1.98428 0
M  V30 5846 C 561.85 -1.62047 0.955108 0
M  V30 5847 O 561.208 -1.81129 -0.0786778 0
M  V30 5848 C 561.256 -1.24396 3.38464 0
M  V30 5849 O 560.36 -2.35982 3.3821 0
M  V30 5850 H 559.701 -0.154741 0.645718 0
M  V30 5851 H 562.231 0.152885 2.04028 0
M  V30 5852 H 562.241 -1.5896 3.7576 0
M  V30 5853 H 560.916 -0.498735 4.12899 0
M  V30 5854 H 559.493 -2.03173 3.1269 0
M  V30 5855 N 561.678 -1.56367 -0.196722 0
M  V30 5856 C 562.924 -1.80796 -0.918725 0
M  V30 5857 C 563.257 -0.650645 -1.82976 0
M  V30 5858 O 562.532 0.348889 -1.91345 0
M  V30 5859 C 562.815 -3.15472 -1.73636 0
M  V30 5860 C 562.668 -4.41693 -0.85015 0
M  V30 5861 C 563.987 -3.46824 -2.70927 0
M  V30 5862 H 561.106 -0.657702 -0.332561 0
M  V30 5863 H 563.748 -1.89086 -0.186186 0
M  V30 5864 H 561.898 -3.08536 -2.36088 0
M  V30 5865 H 563.57 -4.60673 -0.240459 0
M  V30 5866 H 561.813 -4.33517 -0.156785 0
M  V30 5867 H 562.484 -5.32419 -1.45719 0
M  V30 5868 H 564.96 -3.54049 -2.18607 0
M  V30 5869 H 563.836 -4.4218 -3.25219 0
M  V30 5870 H 564.097 -2.70236 -3.49893 0
M  V30 5871 N 563.156 0.464375 -1.50603 0
M  V30 5872 C 564.066 1.58723 -1.72754 0
M  V30 5873 C 565.082 1.62925 -0.610844 0
M  V30 5874 O 566.258 1.8067 -0.889963 0
M  V30 5875 C 563.323 2.94897 -1.82309 0
M  V30 5876 C 562.384 3.0103 -3.06071 0
M  V30 5877 C 561.617 4.30708 -3.1516 0
M  V30 5878 O 561.84 5.2159 -2.30868 0
M  V30 5879 O 560.774 4.42571 -4.0794 0
M  V30 5880 H 564.6 1.42954 -2.67951 0
M  V30 5881 H 562.185 0.644579 -1.3478 0
M  V30 5882 H 564.067 3.75764 -1.90735 0
M  V30 5883 H 562.742 3.10851 -0.902967 0
M  V30 5884 H 561.649 2.19217 -3.03142 0
M  V30 5885 H 562.982 2.90014 -3.97684 0
M  V30 5886 N 564.634 1.40294 0.718013 0
M  V30 5887 C 565.564 1.43118 1.84498 0
M  V30 5888 C 566.545 0.292403 1.67568 0
M  V30 5889 O 567.73 0.500675 1.87635 0
M  V30 5890 C 564.86 1.29065 3.22427 0
M  V30 5891 C 563.814 2.40521 3.54025 0
M  V30 5892 C 563.14 2.11546 4.91073 0
M  V30 5893 C 564.44 3.82859 3.55269 0
M  V30 5894 H 566.134 2.37432 1.82391 0
M  V30 5895 H 563.68 1.14283 0.87609 0
M  V30 5896 H 565.633 1.29658 4.00957 0
M  V30 5897 H 564.357 0.312271 3.25104 0
M  V30 5898 H 563.016 2.39173 2.77834 0
M  V30 5899 H 562.664 1.12104 4.90348 0
M  V30 5900 H 562.364 2.86216 5.1318 0
M  V30 5901 H 563.888 2.13817 5.71939 0
M  V30 5902 H 565.302 3.86044 4.23843 0
M  V30 5903 H 563.699 4.57029 3.88902 0
M  V30 5904 H 564.769 4.12617 2.54706 0
M  V30 5905 N 566.112 -0.949982 1.2575 0
M  V30 5906 C 567.337 -1.73503 1.13628 0
M  V30 5907 C 567.762 -1.85601 -0.30559 0
M  V30 5908 O 567.12 -1.33984 -1.22139 0
M  V30 5909 C 567.168 -3.1243 1.80055 0
M  V30 5910 O 566.272 -3.97916 1.08336 0
M  V30 5911 H 565.613 -0.532665 0.396439 0
M  V30 5912 H 568.143 -1.19043 1.66403 0
M  V30 5913 H 568.153 -3.62866 1.86527 0
M  V30 5914 H 566.828 -3.02941 2.84956 0
M  V30 5915 H 565.405 -3.56375 1.09777 0
M  V30 5916 N 567.59 -1.07411 -1.15328 0
M  V30 5917 C 568.522 -0.652924 -2.19703 0
M  V30 5918 C 569.535 0.294869 -1.60107 0
M  V30 5919 O 570.724 0.0840932 -1.78302 0
M  V30 5920 C 567.824 0.061434 -3.38844 0
M  V30 5921 C 566.997 -0.902696 -4.27984 0
M  V30 5922 C 566.056 -0.225521 -5.25717 0
M  V30 5923 O 565.082 -0.86676 -5.62562 0
M  V30 5924 N 566.284 1.02858 -5.71315 0
M  V30 5925 H 569.049 -1.55081 -2.56457 0
M  V30 5926 H 566.61 -0.958883 -1.30449 0
M  V30 5927 H 568.602 0.525145 -4.01278 0
M  V30 5928 H 567.172 0.861269 -3.00501 0
M  V30 5929 H 566.392 -1.54551 -3.6264 0
M  V30 5930 H 567.68 -1.55636 -4.84412 0
M  V30 5931 H 567.078 1.56948 -5.43492 0
M  V30 5932 H 565.635 1.43596 -6.35786 0
M  V30 5933 N 569.068 1.32177 -0.85831 0
M  V30 5934 C 570.016 2.30729 -0.294442 0
M  V30 5935 C 571.01 1.59009 0.584165 0
M  V30 5936 O 572.216 1.73713 0.471562 0
M  V30 5937 H 568.591 0.748097 -0.0765171 0
M  V30 5938 H 570.562 2.75774 -1.1398 0
M  V30 5939 C 569.311 3.44098 0.499208 0
M  V30 5940 H 568.634 3.99449 -0.167579 0
M  V30 5941 H 570.074 4.15202 0.859273 0
M  V30 5942 C 568.533 2.91684 1.68588 0
M  V30 5943 O 569.063 2.89481 2.78503 0
M  V30 5944 N 567.269 2.48036 1.51415 0
M  V30 5945 H 566.816 2.50027 0.620006 0
M  V30 5946 H 566.774 2.13322 2.30957 0
M  V30 5947 N 570.547 0.616602 1.45037 0
M  V30 5948 C 571.457 -0.0985401 2.34393 0
M  V30 5949 C 572.473 -0.850971 1.51771 0
M  V30 5950 O 573.649 -0.806521 1.84546 0
M  V30 5951 C 570.714 -1.07748 3.29532 0
M  V30 5952 C 569.775 -0.326022 4.2806 0
M  V30 5953 C 569.008 -1.25833 5.18654 0
M  V30 5954 O 569.231 -2.49652 5.12864 0
M  V30 5955 O 568.165 -0.750512 5.97203 0
M  V30 5956 H 571.991 0.636016 2.96966 0
M  V30 5957 H 569.576 0.376832 1.44569 0
M  V30 5958 H 571.458 -1.64107 3.88133 0
M  V30 5959 H 570.133 -1.79291 2.69512 0
M  V30 5960 H 569.04 0.280253 3.73049 0
M  V30 5961 H 570.373 0.349091 4.9096 0
M  V30 5962 N 572.025 -1.5352 0.356285 0
M  V30 5963 C 572.957 -2.23009 -0.529127 0
M  V30 5964 C 573.97 -1.241 -1.05371 0
M  V30 5965 O 575.159 -1.50379 -0.961679 0
M  V30 5966 C 572.259 -2.90685 -1.74229 0
M  V30 5967 C 571.432 -4.16019 -1.35081 0
M  V30 5968 C 570.491 -4.66989 -2.42502 0
M  V30 5969 O 569.517 -5.30895 -2.05279 0
M  V30 5970 N 570.719 -4.44006 -3.7395 0
M  V30 5971 H 573.484 -2.99627 0.0660501 0
M  V30 5972 H 571.045 -1.60885 0.181014 0
M  V30 5973 H 573.037 -3.21695 -2.4555 0
M  V30 5974 H 571.607 -2.17575 -2.24454 0
M  V30 5975 H 570.827 -3.91414 -0.467833 0
M  V30 5976 H 572.115 -4.9752 -1.06542 0
M  V30 5977 H 571.513 -3.92924 -4.06973 0
M  V30 5978 H 570.07 -4.7959 -4.41403 0
M  V30 5979 N 573.503 -0.0852151 -1.57369 0
M  V30 5980 C 574.45 0.877268 -2.13478 0
M  V30 5981 C 575.42 1.28642 -1.05073 0
M  V30 5982 O 576.605 1.36992 -1.32808 0
M  V30 5983 C 573.745 2.13464 -2.71159 0
M  V30 5984 C 572.858 1.77691 -3.93764 0
M  V30 5985 C 571.993 2.98139 -4.39643 0
M  V30 5986 C 571.032 2.58447 -5.54862 0
M  V30 5987 N 570.169 3.71698 -5.95639 0
M  V30 5988 H 575.009 0.391933 -2.95411 0
M  V30 5989 H 572.546 0.181796 -1.45972 0
M  V30 5990 H 574.504 2.87086 -3.02717 0
M  V30 5991 H 573.134 2.59514 -1.91969 0
M  V30 5992 H 572.186 0.940768 -3.68583 0
M  V30 5993 H 573.498 1.44497 -4.77412 0
M  V30 5994 H 572.652 3.80026 -4.72933 0
M  V30 5995 H 571.391 3.34536 -3.54876 0
M  V30 5996 H 570.396 1.74984 -5.21211 0
M  V30 5997 H 571.621 2.23205 -6.41371 0
M  V30 5998 H 569.567 4.07831 -5.13819 0
M  V30 5999 H 569.484 3.42317 -6.74059 0
M  V30 6000 H 570.752 4.54123 -6.33555 0
M  V30 6001 N 574.981 1.5647 0.188427 0
M  V30 6002 C 575.911 1.98101 1.23606 0
M  V30 6003 C 576.892 0.853961 1.47111 0
M  V30 6004 O 578.077 1.11879 1.58735 0
M  V30 6005 C 575.207 2.32624 2.57882 0
M  V30 6006 C 574.161 3.48129 2.48978 0
M  V30 6007 C 573.487 3.68347 3.87588 0
M  V30 6008 C 574.787 4.82112 2.00911 0
M  V30 6009 H 576.481 2.85864 0.890068 0
M  V30 6010 H 574.027 1.37532 0.426714 0
M  V30 6011 H 575.98 2.60343 3.3136 0
M  V30 6012 H 574.704 1.41751 2.94235 0
M  V30 6013 H 573.363 3.20511 1.77956 0
M  V30 6014 H 573.011 2.74793 4.21305 0
M  V30 6015 H 572.711 4.46055 3.82503 0
M  V30 6016 H 574.235 3.98449 4.62678 0
M  V30 6017 H 575.649 5.08819 2.64151 0
M  V30 6018 H 574.046 5.63337 2.06814 0
M  V30 6019 H 575.116 4.75249 0.96262 0
M  V30 6020 N 576.459 -0.456382 1.50847 0
M  V30 6021 C 577.422 -1.53493 1.70213 0
M  V30 6022 C 578.422 -1.50264 0.572481 0
M  V30 6023 O 579.612 -1.52623 0.839751 0
M  V30 6024 C 576.744 -2.93091 1.741 0
M  V30 6025 H 577.937 -1.37633 2.66453 0
M  V30 6026 H 575.49 -0.683776 1.4055 0
M  V30 6027 H 576.225 -3.14378 0.796063 0
M  V30 6028 H 576.01 -2.9684 2.5618 0
M  V30 6029 H 577.5 -3.71368 1.90987 0
M  V30 6030 N 577.937 -1.40673 -0.710563 0
M  V30 6031 C 578.9 -1.4108 -1.80635 0
M  V30 6032 C 579.9 -0.303783 -1.57904 0
M  V30 6033 O 581.09 -0.562937 -1.64853 0
M  V30 6034 C 578.222 -1.20748 -3.18799 0
M  V30 6035 H 579.415 -2.38612 -1.81671 0
M  V30 6036 H 576.968 -1.26595 -0.916704 0
M  V30 6037 H 577.703 -0.239964 -3.23411 0
M  V30 6038 H 577.488 -2.00941 -3.36698 0
M  V30 6039 H 578.978 -1.23833 -3.98817 0
M  V30 6040 N 579.415 0.9433 -1.26252 0
M  V30 6041 C 580.661 1.69226 -1.12846 0
M  V30 6042 C 581.016 1.8963 0.325282 0
M  V30 6043 O 580.309 1.46435 1.23561 0
M  V30 6044 C 580.503 3.07073 -1.82868 0
M  V30 6045 C 580.332 3.00118 -3.34902 0
M  V30 6046 C 579.102 3.03251 -4.04186 0
M  V30 6047 C 581.3 2.80418 -4.31127 0
M  V30 6048 N 579.282 2.86573 -5.42908 0
M  V30 6049 C 580.653 2.72287 -5.5701 0
M  V30 6050 C 582.708 2.65185 -4.21404 0
M  V30 6051 C 581.411 2.50479 -6.74279 0
M  V30 6052 C 583.437 2.4475 -5.38378 0
M  V30 6053 C 582.799 2.37349 -6.63208 0
M  V30 6054 H 578.898 0.626716 -0.467708 0
M  V30 6055 H 581.482 1.11645 -1.5951 0
M  V30 6056 H 579.653 3.62797 -1.38682 0
M  V30 6057 H 581.385 3.70816 -1.62103 0
M  V30 6058 H 578.14 3.12882 -3.55531 0
M  V30 6059 H 578.564 2.81408 -6.15742 0
M  V30 6060 H 583.206 2.69675 -3.25631 0
M  V30 6061 H 580.924 2.4473 -7.70151 0
M  V30 6062 H 584.51 2.33872 -5.32724 0
M  V30 6063 H 583.39 2.21746 -7.52196 0
M  V30 6064 N 580.893 1.08022 1.14757 0
M  V30 6065 C 581.823 0.728248 2.21853 0
M  V30 6066 C 582.804 -0.287486 1.67653 0
M  V30 6067 O 583.989 -0.158727 1.9355 0
M  V30 6068 C 581.119 0.132549 3.47047 0
M  V30 6069 C 580.073 1.07619 4.14249 0
M  V30 6070 C 579.399 0.342907 5.33599 0
M  V30 6071 C 580.699 2.41268 4.63235 0
M  V30 6072 H 582.393 1.62365 2.51551 0
M  V30 6073 H 579.939 0.782125 1.20908 0
M  V30 6074 H 581.892 -0.125665 4.21213 0
M  V30 6075 H 580.616 -0.797971 3.16702 0
M  V30 6076 H 579.275 1.31944 3.42033 0
M  V30 6077 H 578.923 -0.59129 4.99513 0
M  V30 6078 H 578.623 0.971955 5.79506 0
M  V30 6079 H 580.147 0.0926538 6.1053 0
M  V30 6080 H 581.561 2.21232 5.28894 0
M  V30 6081 H 579.958 2.9983 5.19829 0
M  V30 6082 H 581.028 3.03079 3.78512 0
M  V30 6083 N 582.371 -1.3172 0.865308 0
M  V30 6084 C 583.334 -2.26918 0.322627 0
M  V30 6085 C 584.334 -1.52031 -0.523751 0
M  V30 6086 O 585.524 -1.70973 -0.333727 0
M  V30 6087 C 582.656 -3.36558 -0.542338 0
M  V30 6088 H 583.849 -2.76432 1.16298 0
M  V30 6089 H 581.402 -1.42573 0.640512 0
M  V30 6090 H 582.137 -2.92329 -1.40407 0
M  V30 6091 H 581.922 -3.92048 0.0636395 0
M  V30 6092 H 583.412 -4.07465 -0.91446 0
M  V30 6093 N 583.85 -0.624285 -1.44708 0
M  V30 6094 C 584.797 0.0847135 -2.30644 0
M  V30 6095 C 585.767 0.843575 -1.43084 0
M  V30 6096 O 586.952 0.825982 -1.71995 0
M  V30 6097 C 584.091 1.06495 -3.28257 0
M  V30 6098 C 583.205 0.305224 -4.3092 0
M  V30 6099 C 582.34 1.27667 -5.1563 0
M  V30 6100 C 581.379 0.505706 -6.10007 0
M  V30 6101 N 580.516 1.42727 -6.8744 0
M  V30 6102 H 585.356 -0.654068 -2.90733 0
M  V30 6103 H 582.893 -0.334334 -1.4325 0
M  V30 6104 H 584.851 1.64658 -3.83332 0
M  V30 6105 H 583.481 1.77094 -2.69884 0
M  V30 6106 H 582.533 -0.392207 -3.78373 0
M  V30 6107 H 583.845 -0.295553 -4.97924 0
M  V30 6108 H 582.999 1.92984 -5.75189 0
M  V30 6109 H 581.738 1.91137 -4.48685 0
M  V30 6110 H 580.743 -0.160999 -5.49564 0
M  V30 6111 H 581.968 -0.124183 -6.78986 0
M  V30 6112 H 579.913 2.04931 -6.23169 0
M  V30 6113 H 579.831 0.880345 -7.50857 0
M  V30 6114 H 581.099 2.0695 -7.51526 0
M  V30 6115 N 585.328 1.53329 -0.364422 0
M  V30 6116 C 586.744 1.59594 -0.0133165 0
M  V30 6117 C 586.944 1.37959 1.46865 0
M  V30 6118 O 586 1.18418 2.2301 0
M  V30 6119 C 587.313 2.97032 -0.468213 0
M  V30 6120 C 588.861 3.10138 -0.422334 0
M  V30 6121 C 589.336 4.49986 -0.853024 0
M  V30 6122 N 590.827 4.56098 -0.808037 0
M  V30 6123 C 591.562 5.62495 -1.11299 0
M  V30 6124 N 591.058 6.7665 -1.48717 0
M  V30 6125 N 592.851 5.52473 -1.03586 0
M  V30 6126 H 585.002 1.65644 -1.32951 0
M  V30 6127 H 587.265 0.77684 -0.543345 0
M  V30 6128 H 586.971 3.18 -1.5023 0
M  V30 6129 H 586.845 3.76918 0.145775 0
M  V30 6130 H 589.232 2.88881 0.602622 0
M  V30 6131 H 589.313 2.32263 -1.0718 0
M  V30 6132 H 588.957 4.7198 -1.87609 0
M  V30 6133 H 588.887 5.26289 -0.180819 0
M  V30 6134 H 591.378 3.74131 -0.532361 0
M  V30 6135 H 591.691 7.53776 -1.70415 0
M  V30 6136 H 590.036 6.78044 -1.52581 0
M  V30 6137 H 593.227 4.6217 -0.742736 0
M  V30 6138 H 593.4 6.35295 -1.27686 0
M  V30 6139 N 586.806 0.0935595 1.57322 0
M  V30 6140 C 588.054 -0.569383 1.93913 0
M  V30 6141 C 588.375 -1.68817 0.976009 0
M  V30 6142 O 587.645 -1.9588 0.0278099 0
M  V30 6143 H 586.225 -0.21332 0.715894 0
M  V30 6144 H 588.887 0.156531 1.9427 0
M  V30 6145 H 587.983 -0.980577 2.96296 0
M  V30 6146 N 588.284 -1.56567 -0.180126 0
M  V30 6147 C 589.695 -1.7126 -0.743422 0
M  V30 6148 C 590.046 -0.70263 -1.83187 0
M  V30 6149 O 589.171 0.137856 -2.1596 0
M  V30 6150 C 589.766 -3.10512 -1.35528 0
M  V30 6151 C 588.325 -3.26919 -1.8655 0
M  V30 6152 C 587.472 -2.67213 -0.741099 0
M  V30 6153 H 590.423 -1.58636 0.0451543 0
M  V30 6154 H 590.444 -3.08673 -2.22489 0
M  V30 6155 H 589.956 -3.83997 -0.562862 0
M  V30 6156 H 588.057 -2.58376 -2.68464 0
M  V30 6157 H 588.17 -4.34574 -2.01699 0
M  V30 6158 H 586.534 -2.26788 -1.15927 0
M  V30 6159 H 587.317 -3.43277 0.0393291 0
M  V30 6160 N 589.762 0.448376 -1.51087 0
M  V30 6161 C 591.011 1.19561 -1.62444 0
M  V30 6162 C 591.324 1.92602 -0.341151 0
M  V30 6163 O 592.53 2.69439 -0.333936 0
M  V30 6164 C 590.986 2.17373 -2.8684 0
M  V30 6165 C 590.594 1.5003 -4.22131 0
M  V30 6166 C 592.338 2.92597 -3.0755 0
M  V30 6167 C 590.245 2.46262 -5.37689 0
M  V30 6168 H 589.175 0.449975 -0.605011 0
M  V30 6169 H 591.826 0.463735 -1.77544 0
M  V30 6170 H 590.208 2.93948 -2.65349 0
M  V30 6171 H 591.382 0.790886 -4.53962 0
M  V30 6172 H 589.697 0.870011 -4.0721 0
M  V30 6173 H 592.294 3.64663 -3.91056 0
M  V30 6174 H 592.637 3.53306 -2.20183 0
M  V30 6175 H 593.17 2.23131 -3.29329 0
M  V30 6176 H 589.909 1.90258 -6.27281 0
M  V30 6177 H 589.429 3.15289 -5.10248 0
M  V30 6178 H 591.108 3.07623 -5.6919 0
M  V30 6179 N 591.24 1.41047 0.703093 0
M  V30 6180 C 592.465 1.43537 1.49706 0
M  V30 6181 C 592.89 0.0401853 1.88057 0
M  V30 6182 O 592.248 -0.954785 1.54122 0
M  V30 6183 C 592.296 2.3433 2.74084 0
M  V30 6184 O 591.4 1.79515 3.71279 0
M  V30 6185 H 590.741 0.487454 0.450871 0
M  V30 6186 H 593.271 1.85422 0.86486 0
M  V30 6187 H 593.281 2.49947 3.22476 0
M  V30 6188 H 591.956 3.35708 2.45506 0
M  V30 6189 H 590.533 1.7331 3.30179 0
M  V30 6190 N 592.718 -0.936591 1.26751 0
M  V30 6191 C 593.964 -1.6858 1.12733 0
M  V30 6192 C 594.297 -1.91414 -0.327745 0
M  V30 6193 O 593.572 -1.49812 -1.24043 0
M  V30 6194 C 593.855 -3.05779 1.90187 0
M  V30 6195 C 593.708 -2.90242 3.43627 0
M  V30 6196 C 595.027 -4.0597 1.69931 0
M  V30 6197 H 592.146 -0.61182 0.410908 0
M  V30 6198 H 594.788 -1.08747 1.55801 0
M  V30 6199 H 592.938 -3.56853 1.53584 0
M  V30 6200 H 594.61 -2.46354 3.9001 0
M  V30 6201 H 592.853 -2.2577 3.70419 0
M  V30 6202 H 593.524 -3.87572 3.93055 0
M  V30 6203 H 596 -3.63874 2.0183 0
M  V30 6204 H 594.876 -4.99974 2.26534 0
M  V30 6205 H 595.137 -4.37369 0.64502 0
M  V30 6206 N 594.196 -1.08629 -1.14182 0
M  V30 6207 C 595.159 -0.722027 -2.1753 0
M  V30 6208 C 596.159 0.244305 -1.58933 0
M  V30 6209 O 597.349 0.0235545 -1.74184 0
M  V30 6210 C 594.481 -0.0663966 -3.40835 0
M  V30 6211 H 595.674 -1.63719 -2.51269 0
M  V30 6212 H 593.227 -0.884442 -1.28869 0
M  V30 6213 H 593.962 0.860389 -3.12678 0
M  V30 6214 H 593.747 -0.761598 -3.84632 0
M  V30 6215 H 595.237 0.173346 -4.1724 0
M  V30 6216 N 595.674 1.31259 -0.872281 0
M  V30 6217 C 596.923 1.95893 -0.480493 0
M  V30 6218 C 597.236 1.697 0.972688 0
M  V30 6219 O 598.442 2.28214 1.47073 0
M  V30 6220 C 596.898 3.50705 -0.808342 0
M  V30 6221 C 596.506 3.85735 -2.27844 0
M  V30 6222 C 598.25 4.21719 -0.485136 0
M  V30 6223 C 596.157 5.33668 -2.54858 0
M  V30 6224 H 595.087 0.733182 -0.175955 0
M  V30 6225 H 597.738 1.49396 -1.0655 0
M  V30 6226 H 596.12 3.95706 -0.152558 0
M  V30 6227 H 597.294 3.51686 -2.97748 0
M  V30 6228 H 595.609 3.27792 -2.56791 0
M  V30 6229 H 598.206 5.30559 -0.664166 0
M  V30 6230 H 598.549 4.12316 0.574592 0
M  V30 6231 H 599.082 3.82359 -1.09756 0
M  V30 6232 H 595.821 5.48109 -3.59523 0
M  V30 6233 H 595.341 5.69061 -1.8955 0
M  V30 6234 H 597.02 6.00958 -2.39706 0
M  V30 6235 N 597.152 0.631951 1.44375 0
M  V30 6236 C 598.1 -0.0846693 2.32446 0
M  V30 6237 C 599.094 -0.834957 1.47393 0
M  V30 6238 O 600.3 -0.747764 1.63733 0
M  V30 6239 H 596.675 -0.0461508 0.750583 0
M  V30 6240 H 598.646 0.67619 2.90638 0
M  V30 6241 C 597.395 -1.05211 3.314 0
M  V30 6242 H 596.718 -0.484203 3.96857 0
M  V30 6243 H 598.158 -1.523 3.95703 0
M  V30 6244 C 596.617 -2.13776 2.60387 0
M  V30 6245 O 597.147 -3.21869 2.4034 0
M  V30 6246 N 595.353 -1.89733 2.20113 0
M  V30 6247 H 594.9 -1.01833 2.36618 0
M  V30 6248 H 594.858 -2.62572 1.72926 0
M  V30 6249 N 598.631 -1.53133 0.372548 0
M  V30 6250 C 599.594 -2.24569 -0.458389 0
M  V30 6251 C 600.594 -1.25603 -1.00402 0
M  V30 6252 O 601.784 -1.49827 -0.888672 0
M  V30 6253 C 598.916 -2.98783 -1.6414 0
M  V30 6254 H 600.109 -2.99436 0.166799 0
M  V30 6255 H 597.662 -1.55805 0.124357 0
M  V30 6256 H 598.397 -2.28176 -2.30448 0
M  V30 6257 H 598.182 -3.71404 -1.25704 0
M  V30 6258 H 599.672 -3.53068 -2.23008 0
M  V30 6259 N 600.109 -0.101901 -1.5727 0
M  V30 6260 C 601.356 0.560197 -1.94597 0
M  V30 6261 C 601.684 1.67767 -0.984101 0
M  V30 6262 O 600.939 1.95699 -0.00489193 0
M  V30 6263 C 601.238 1.14898 -3.38427 0
M  V30 6264 C 600.904 0.154613 -4.50635 0
M  V30 6265 C 599.566 -0.118861 -4.81053 0
M  V30 6266 C 601.918 -0.523979 -5.18559 0
M  V30 6267 C 599.246 -1.0775 -5.76721 0
M  V30 6268 C 601.598 -1.47114 -6.15256 0
M  V30 6269 C 600.262 -1.75278 -6.44076 0
M  V30 6270 H 599.532 0.204991 -0.712081 0
M  V30 6271 H 602.179 -0.17918 -1.9066 0
M  V30 6272 H 600.484 1.96476 -3.38976 0
M  V30 6273 H 602.181 1.66909 -3.64613 0
M  V30 6274 H 598.771 0.377948 -4.2693 0
M  V30 6275 H 602.955 -0.325851 -4.95229 0
M  V30 6276 H 598.211 -1.30263 -5.97362 0
M  V30 6277 H 602.385 -2.00274 -6.66981 0
M  V30 6278 H 600.012 -2.49717 -7.18015 0
M  V30 6279 N 601.587 1.56661 0.17182 0
M  V30 6280 C 602.835 1.81606 0.886774 0
M  V30 6281 C 603.156 0.678818 1.82803 0
M  V30 6282 O 602.426 -0.301354 1.93568 0
M  V30 6283 H 601.006 0.669934 0.330451 0
M  V30 6284 H 603.668 1.94142 0.171757 0
M  V30 6285 H 602.764 2.75634 1.46398 0
M  V30 6286 N 603.065 -0.440357 1.51323 0
M  V30 6287 C 603.998 -1.55414 1.67098 0
M  V30 6288 C 604.976 -1.54108 0.518599 0
M  V30 6289 O 606.16 -1.7328 0.742054 0
M  V30 6290 C 603.287 -2.93996 1.68179 0
M  V30 6291 C 602.333 -3.13338 2.89347 0
M  V30 6292 S 603.166 -2.89957 4.50206 0
M  V30 6293 C 604.322 -4.30826 4.54027 0
M  V30 6294 H 604.555 -1.41798 2.61306 0
M  V30 6295 H 602.088 -0.629841 1.40969 0
M  V30 6296 H 604.046 -3.73878 1.69487 0
M  V30 6297 H 602.707 -3.04976 0.751542 0
M  V30 6298 H 601.9 -4.14652 2.86495 0
M  V30 6299 H 601.502 -2.41276 2.85766 0
M  V30 6300 H 603.794 -5.23977 4.29481 0
M  V30 6301 H 604.737 -4.38712 5.55822 0
M  V30 6302 H 605.145 -4.1434 3.83384 0
M  V30 6303 N 604.543 -1.41418 -0.695603 0
M  V30 6304 C 605.475 -1.39195 -1.82092 0
M  V30 6305 C 606.488 -0.294132 -1.60121 0
M  V30 6306 O 607.677 -0.555854 -1.69625 0
M  V30 6307 C 604.777 -1.14828 -3.18854 0
M  V30 6308 C 603.95 -2.36649 -3.67853 0
M  V30 6309 C 603.009 -2.08139 -4.83285 0
M  V30 6310 O 602.035 -2.81177 -4.94902 0
M  V30 6311 N 603.237 -1.07162 -5.70523 0
M  V30 6312 H 606.002 -2.36185 -1.84491 0
M  V30 6313 H 603.563 -1.3603 -0.877923 0
M  V30 6314 H 605.555 -0.937075 -3.93702 0
M  V30 6315 H 604.125 -0.264358 -3.1148 0
M  V30 6316 H 603.345 -2.73472 -2.83913 0
M  V30 6317 H 604.633 -3.17816 -3.97329 0
M  V30 6318 H 604.031 -0.467124 -5.63768 0
M  V30 6319 H 602.588 -0.920311 -6.4527 0
M  V30 6320 N 606.021 0.929856 -1.27246 0
M  V30 6321 C 607.268 1.67731 -1.13457 0
M  V30 6322 C 607.596 1.9185 0.319998 0
M  V30 6323 O 606.851 1.50524 1.25064 0
M  V30 6324 C 607.15 3.05116 -1.86115 0
M  V30 6325 C 606.816 3.00715 -3.35978 0
M  V30 6326 C 605.478 2.99222 -3.76855 0
M  V30 6327 C 607.83 2.92168 -4.3161 0
M  V30 6328 C 605.158 2.86962 -5.11732 0
M  V30 6329 C 607.51 2.81449 -5.66542 0
M  V30 6330 C 606.174 2.78305 -6.06715 0
M  V30 6331 H 605.444 0.613772 -0.415168 0
M  V30 6332 H 608.091 1.08456 -1.57827 0
M  V30 6333 H 606.396 3.68083 -1.34246 0
M  V30 6334 H 608.093 3.61822 -1.72876 0
M  V30 6335 H 604.683 3.02664 -3.03468 0
M  V30 6336 H 608.867 2.92421 -4.01003 0
M  V30 6337 H 604.123 2.82913 -5.42006 0
M  V30 6338 H 608.297 2.738 -6.40317 0
M  V30 6339 H 605.924 2.68561 -7.11181 0
M  V30 6340 N 607.499 1.09233 1.13605 0
M  V30 6341 C 608.729 0.847677 1.88409 0
M  V30 6342 C 609.137 -0.604524 1.79282 0
M  V30 6343 O 608.48 -1.42773 1.15592 0
M  V30 6344 C 608.542 1.20153 3.38827 0
M  V30 6345 C 608.206 2.65824 3.71735 0
M  V30 6346 C 609.203 3.64072 3.71143 0
M  V30 6347 C 606.888 3.01894 4.01454 0
M  V30 6348 C 608.882 4.96419 3.99808 0
M  V30 6349 C 606.569 4.34433 4.29781 0
M  V30 6350 C 607.567 5.31505 4.28942 0
M  V30 6351 O 607.255 6.61659 4.56576 0
M  V30 6352 H 606.987 0.304813 0.603378 0
M  V30 6353 H 609.541 1.4573 1.44748 0
M  V30 6354 H 607.771 0.534946 3.82982 0
M  V30 6355 H 609.46 0.936349 3.94952 0
M  V30 6356 H 610.226 3.37549 3.4826 0
M  V30 6357 H 606.105 2.26971 4.01255 0
M  V30 6358 H 609.649 5.7218 3.99069 0
M  V30 6359 H 605.546 4.607 4.52135 0
M  V30 6360 H 606.314 6.67102 4.74254 0
M  V30 6361 N 608.977 -1.30795 0.87923 0
M  V30 6362 C 610.393 -1.48981 0.57243 0
M  V30 6363 C 610.593 -1.80719 -0.891236 0
M  V30 6364 O 609.649 -1.89136 -1.67283 0
M  V30 6365 C 610.962 -2.61721 1.48063 0
M  V30 6366 C 612.51 -2.75603 1.48365 0
M  V30 6367 C 612.985 -3.91449 2.37763 0
M  V30 6368 N 614.476 -3.98751 2.35695 0
M  V30 6369 C 615.211 -4.87684 3.01583 0
M  V30 6370 N 614.707 -5.81454 3.76674 0
M  V30 6371 N 616.5 -4.81005 2.90844 0
M  V30 6372 H 608.651 -1.08465 1.82617 0
M  V30 6373 H 610.914 -0.536813 0.781368 0
M  V30 6374 H 610.62 -2.45073 2.52254 0
M  V30 6375 H 610.494 -3.58071 1.18596 0
M  V30 6376 H 612.881 -2.9166 0.44927 0
M  V30 6377 H 612.962 -1.79891 1.81859 0
M  V30 6378 H 612.606 -3.76149 3.41283 0
M  V30 6379 H 612.536 -4.86487 2.01589 0
M  V30 6380 H 615.027 -3.31668 1.81121 0
M  V30 6381 H 615.34 -6.46063 4.24054 0
M  V30 6382 H 613.685 -5.81403 3.80782 0
M  V30 6383 H 616.876 -4.06728 2.31711 0
M  V30 6384 H 617.049 -5.50107 3.42471 0
M  V30 6385 N 610.455 -0.639598 -1.44038 0
M  V30 6386 C 611.405 0.0823038 -2.27851 0
M  V30 6387 C 612.389 0.807991 -1.39141 0
M  V30 6388 O 613.581 0.692702 -1.62882 0
M  V30 6389 C 610.71 1.05742 -3.26609 0
M  V30 6390 C 609.796 0.330911 -4.22807 0
M  V30 6391 N 610.187 -0.645126 -5.01669 0
M  V30 6392 C 608.485 0.574214 -4.42288 0
M  V30 6393 C 609.186 -1.07513 -5.71678 0
M  V30 6394 N 608.162 -0.412164 -5.42035 0
M  V30 6395 H 611.964 -0.666861 -2.86234 0
M  V30 6396 H 609.478 -0.465777 -1.55577 0
M  V30 6397 H 611.475 1.58927 -3.85419 0
M  V30 6398 H 610.135 1.80679 -2.69787 0
M  V30 6399 H 611.146 -1.02329 -5.0769 0
M  V30 6400 H 607.823 1.30581 -3.96554 0
M  V30 6401 H 609.213 -1.88196 -6.45005 0
M  V30 6402 N 611.933 1.52934 -0.380664 0
M  V30 6403 C 613.181 2.01069 0.203874 0
M  V30 6404 C 613.502 1.26922 1.4804 0
M  V30 6405 O 612.772 0.386787 1.92044 0
M  V30 6406 H 611.352 0.742882 0.0783279 0
M  V30 6407 H 614.014 1.88099 -0.510368 0
M  V30 6408 H 613.11 3.09258 0.42021 0
M  V30 6409 N 613.412 0.11024 1.57214 0
M  V30 6410 C 614.661 -0.549638 1.94067 0
M  V30 6411 C 614.974 -1.68388 0.995234 0
M  V30 6412 O 616.18 -2.40593 1.25807 0
M  V30 6413 C 614.636 -1.02912 3.44873 0
M  V30 6414 C 614.244 0.0761861 4.47935 0
M  V30 6415 C 615.988 -1.66087 3.9066 0
M  V30 6416 C 613.895 -0.419502 5.8991 0
M  V30 6417 H 612.825 -0.209092 0.724428 0
M  V30 6418 H 615.476 0.188683 1.82527 0
M  V30 6419 H 613.858 -1.82159 3.51616 0
M  V30 6420 H 615.032 0.852185 4.52851 0
M  V30 6421 H 613.347 0.614052 4.11847 0
M  V30 6422 H 615.944 -2.04272 4.94143 0
M  V30 6423 H 616.287 -2.53591 3.30148 0
M  V30 6424 H 616.82 -0.933959 3.86681 0
M  V30 6425 H 613.559 0.419277 6.54158 0
M  V30 6426 H 613.079 -1.16217 5.88433 0
M  V30 6427 H 614.758 -0.883577 6.40938 0
M  V30 6428 N 614.89 -1.56749 -0.16351 0
M  V30 6429 C 616.115 -1.86938 -0.898264 0
M  V30 6430 C 616.54 -0.697456 -1.74692 0
M  V30 6431 O 615.898 0.353327 -1.77824 0
M  V30 6432 C 615.946 -3.15599 -1.74441 0
M  V30 6433 O 615.05 -2.98371 -2.8469 0
M  V30 6434 H 614.391 -0.614659 -0.251178 0
M  V30 6435 H 616.921 -2.03979 -0.159298 0
M  V30 6436 H 616.931 -3.47202 -2.14277 0
M  V30 6437 H 615.606 -4.00505 -1.1211 0
M  V30 6438 H 614.183 -2.7814 -2.4838 0
M  V30 6439 N 616.368 0.432326 -1.51554 0
M  V30 6440 C 617.784 0.769195 -1.39841 0
M  V30 6441 C 617.984 1.95584 -0.484675 0
M  V30 6442 O 617.04 2.52433 0.0582829 0
M  V30 6443 C 618.353 1.04487 -2.81963 0
M  V30 6444 C 619.901 1.149 -2.91148 0
M  V30 6445 C 620.376 1.45758 -4.34187 0
M  V30 6446 N 621.867 1.52671 -4.37317 0
M  V30 6447 C 622.602 1.78129 -5.4503 0
M  V30 6448 N 622.098 2.01345 -6.62897 0
M  V30 6449 N 623.891 1.79953 -5.32516 0
M  V30 6450 H 616.042 -0.349122 -2.09511 0
M  V30 6451 H 618.305 -0.0938113 -0.943347 0
M  V30 6452 H 618.011 0.24557 -3.50842 0
M  V30 6453 H 617.885 1.97119 -3.21596 0
M  V30 6454 H 620.272 1.93891 -2.22464 0
M  V30 6455 H 620.353 0.201568 -2.55005 0
M  V30 6456 H 619.997 0.672917 -5.03423 0
M  V30 6457 H 619.927 2.41715 -4.67848 0
M  V30 6458 H 622.418 1.36612 -3.52343 0
M  V30 6459 H 622.731 2.20155 -7.40778 0
M  V30 6460 H 621.076 1.98657 -6.66003 0
M  V30 6461 H 624.267 1.61337 -4.39418 0
M  V30 6462 H 624.44 1.99455 -6.1654 0
M  V30 6463 N 617.846 1.41785 0.688094 0
M  V30 6464 C 619.257 1.3701 1.26828 0
M  V30 6465 C 619.608 0.056835 1.96118 0
M  V30 6466 O 618.733 -0.84475 1.99231 0
M  V30 6467 C 619.328 2.48168 2.30648 0
M  V30 6468 C 617.887 2.46766 2.84224 0
M  V30 6469 C 617.034 2.27633 1.58361 0
M  V30 6470 H 619.985 1.51192 0.482351 0
M  V30 6471 H 620.006 2.17655 3.121 0
M  V30 6472 H 619.518 3.43735 1.80188 0
M  V30 6473 H 617.619 1.54978 3.3884 0
M  V30 6474 H 617.732 3.43342 3.34145 0
M  V30 6475 H 616.096 1.75648 1.84445 0
M  V30 6476 H 616.879 3.25238 1.09887 0
M  V30 6477 N 619.324 -0.923095 1.27737 0
M  V30 6478 C 620.254 -2.04124 1.13383 0
M  V30 6479 C 621.235 -1.70066 0.0340658 0
M  V30 6480 O 622.42 -1.93068 0.209383 0
M  V30 6481 C 619.55 -3.3831 0.785097 0
M  V30 6482 C 618.504 -3.86496 1.8386 0
M  V30 6483 C 617.83 -5.1754 1.34373 0
M  V30 6484 C 619.13 -4.09381 3.24353 0
M  V30 6485 H 620.824 -2.1639 2.06919 0
M  V30 6486 H 618.37 -1.03976 0.996243 0
M  V30 6487 H 620.323 -4.16016 0.671485 0
M  V30 6488 H 619.047 -3.2607 -0.185969 0
M  V30 6489 H 617.706 -3.10987 1.9412 0
M  V30 6490 H 617.354 -5.01696 0.361989 0
M  V30 6491 H 617.054 -5.50751 2.04811 0
M  V30 6492 H 618.578 -5.97811 1.24315 0
M  V30 6493 H 619.992 -4.77641 3.17067 0
M  V30 6494 H 618.389 -4.53906 3.92542 0
M  V30 6495 H 619.459 -3.14515 3.69064 0
M  V30 6496 N 620.802 -1.09834 -1.13024 0
M  V30 6497 C 622.218 -0.828875 -1.36388 0
M  V30 6498 C 622.418 0.554756 -1.93713 0
M  V30 6499 O 621.474 1.30882 -2.15931 0
M  V30 6500 C 622.787 -1.92352 -2.3113 0
M  V30 6501 C 624.335 -1.95124 -2.44735 0
M  V30 6502 C 624.81 -3.03745 -3.42787 0
M  V30 6503 N 626.301 -3.03012 -3.5034 0
M  V30 6504 C 627.036 -3.83699 -4.26101 0
M  V30 6505 N 626.532 -4.74306 -5.04981 0
M  V30 6506 N 628.325 -3.71942 -4.21445 0
M  V30 6507 H 620.476 -1.99029 -0.74169 0
M  V30 6508 H 622.739 -0.864557 -0.388903 0
M  V30 6509 H 622.445 -2.91906 -1.96172 0
M  V30 6510 H 622.319 -1.80536 -3.3119 0
M  V30 6511 H 624.706 -0.962069 -2.78977 0
M  V30 6512 H 624.787 -2.11018 -1.44586 0
M  V30 6513 H 624.431 -4.02878 -3.09276 0
M  V30 6514 H 624.361 -2.85094 -4.42752 0
M  V30 6515 H 626.852 -2.37352 -2.94062 0
M  V30 6516 H 627.165 -5.32446 -5.60108 0
M  V30 6517 H 625.51 -4.78339 -5.04199 0
M  V30 6518 H 628.701 -3.00513 -3.589 0
M  V30 6519 H 628.874 -4.35062 -4.80235 0
M  V30 6520 N 622.28 1.30327 -0.886154 0
M  V30 6521 C 623.691 1.78243 -0.555554 0
M  V30 6522 C 624.042 1.72849 0.928314 0
M  V30 6523 O 623.167 1.30607 1.72542 0
M  V30 6524 C 623.762 3.23654 -1.00168 0
M  V30 6525 C 622.321 3.69401 -0.722471 0
M  V30 6526 C 621.468 2.50753 -1.18399 0
M  V30 6527 H 624.419 1.1718 -1.07026 0
M  V30 6528 H 624.44 3.79056 -0.331152 0
M  V30 6529 H 623.952 3.27548 -2.08169 0
M  V30 6530 H 622.053 3.70995 0.345496 0
M  V30 6531 H 622.166 4.60818 -1.31085 0
M  V30 6532 H 620.53 2.47452 -0.603303 0
M  V30 6533 H 621.313 2.57383 -2.27176 0
M  V30 6534 N 623.758 0.647228 1.43697 0
M  V30 6535 C 624.688 -0.0345631 2.33474 0
M  V30 6536 C 625.669 -0.818193 1.4913 0
M  V30 6537 O 626.854 -0.780867 1.77809 0
M  V30 6538 C 623.984 -1.00576 3.32418 0
M  V30 6539 C 622.938 -0.33266 4.26705 0
M  V30 6540 C 622.264 -1.41489 5.1564 0
M  V30 6541 C 623.564 0.771204 5.16575 0
M  V30 6542 H 625.258 0.715163 2.90733 0
M  V30 6543 H 622.804 0.345364 1.39797 0
M  V30 6544 H 624.757 -1.49159 3.94119 0
M  V30 6545 H 623.481 -1.78657 2.73403 0
M  V30 6546 H 622.14 0.13267 3.6636 0
M  V30 6547 H 621.788 -2.18698 4.52968 0
M  V30 6548 H 621.488 -0.969799 5.79542 0
M  V30 6549 H 623.012 -1.9022 5.80214 0
M  V30 6550 H 624.426 0.36779 5.72119 0
M  V30 6551 H 622.823 1.1404 5.89165 0
M  V30 6552 H 623.893 1.63169 4.56622 0
M  V30 6553 N 625.236 -1.5273 0.388769 0
M  V30 6554 C 626.476 -2.03483 -0.193372 0
M  V30 6555 C 626.84 -1.26897 -1.44087 0
M  V30 6556 O 628.041 -1.67773 -2.10014 0
M  V30 6557 C 626.312 -3.54488 -0.455325 0
M  V30 6558 S 627.871 -4.27069 -1.00783 0
M  V30 6559 H 624.689 -0.708907 -0.0545131 0
M  V30 6560 H 627.291 -1.8798 0.536993 0
M  V30 6561 H 625.995 -4.07817 0.459722 0
M  V30 6562 H 625.526 -3.74196 -1.21413 0
M  V30 6563 H 627.541 -4.40185 -2.29023 0
M  V30 6564 N 626.714 -0.118576 -1.57153 0
M  V30 6565 C 627.939 0.550582 -1.99958 0
M  V30 6566 C 628.364 1.59458 -0.997736 0
M  V30 6567 O 627.722 1.81274 0.0306269 0
M  V30 6568 C 627.77 1.15379 -3.41643 0
M  V30 6569 O 626.874 2.26932 -3.44348 0
M  V30 6570 H 626.215 0.137567 -0.649593 0
M  V30 6571 H 628.745 -0.206926 -2.03551 0
M  V30 6572 H 628.755 1.48942 -3.79843 0
M  V30 6573 H 627.43 0.389087 -4.14076 0
M  V30 6574 H 626.007 1.94812 -3.17967 0
M  V30 6575 N 628.193 1.56834 0.155195 0
M  V30 6576 C 629.604 1.72421 0.716082 0
M  V30 6577 C 629.955 0.731685 1.82046 0
M  V30 6578 O 629.08 -0.103481 2.16152 0
M  V30 6579 C 629.675 3.12629 1.30571 0
M  V30 6580 C 628.234 3.29846 1.81325 0
M  V30 6581 C 627.381 2.68359 0.698494 0
M  V30 6582 H 630.332 1.58544 -0.0703861 0
M  V30 6583 H 630.353 3.12174 2.1755 0
M  V30 6584 H 629.865 3.84844 0.501701 0
M  V30 6585 H 627.966 2.62614 2.64319 0
M  V30 6586 H 628.079 4.37727 1.9476 0
M  V30 6587 H 626.443 2.28604 1.12305 0
M  V30 6588 H 627.226 3.43171 -0.0939366 0
M  V30 6589 N 629.671 -0.424282 1.51781 0
M  V30 6590 C 630.917 -1.17117 1.66298 0
M  V30 6591 C 631.272 -1.88595 0.380767 0
M  V30 6592 O 630.565 -1.81151 -0.624094 0
M  V30 6593 C 630.759 -2.20418 2.81337 0
M  V30 6594 C 630.588 -1.59081 4.20622 0
M  V30 6595 C 629.358 -1.37007 4.86371 0
M  V30 6596 C 631.556 -1.05992 5.0326 0
M  V30 6597 N 629.538 -0.714049 6.09733 0
M  V30 6598 C 630.909 -0.529933 6.17731 0
M  V30 6599 C 632.964 -0.952927 4.88696 0
M  V30 6600 C 631.667 0.0965457 7.19235 0
M  V30 6601 C 633.693 -0.340325 5.9042 0
M  V30 6602 C 633.055 0.179057 7.04172 0
M  V30 6603 H 629.154 -0.41577 0.662314 0
M  V30 6604 H 631.738 -0.46579 1.89046 0
M  V30 6605 H 629.909 -2.8833 2.60231 0
M  V30 6606 H 631.641 -2.8736 2.84968 0
M  V30 6607 H 628.396 -1.63543 4.44467 0
M  V30 6608 H 628.82 -0.403101 6.75799 0
M  V30 6609 H 633.462 -1.34033 4.00993 0
M  V30 6610 H 631.18 0.496044 8.06576 0
M  V30 6611 H 634.766 -0.259266 5.81222 0
M  V30 6612 H 633.646 0.645626 7.81538 0
M  V30 6613 N 631.149 -1.42148 -0.680565 0
M  V30 6614 C 632.079 -1.4796 -1.80638 0
M  V30 6615 C 633.06 -0.336728 -1.66734 0
M  V30 6616 O 634.245 -0.550247 -1.86242 0
M  V30 6617 C 631.375 -1.37569 -3.18892 0
M  V30 6618 C 630.329 -2.49823 -3.47524 0
M  V30 6619 C 629.655 -2.24491 -4.85291 0
M  V30 6620 C 630.955 -3.92144 -3.44994 0
M  V30 6621 H 632.649 -2.42184 -1.76032 0
M  V30 6622 H 630.195 -1.16566 -0.845481 0
M  V30 6623 H 632.148 -1.40243 -3.97379 0
M  V30 6624 H 630.872 -0.398357 -3.24162 0
M  V30 6625 H 629.531 -2.46455 -2.71395 0
M  V30 6626 H 629.179 -1.25066 -4.87204 0
M  V30 6627 H 628.879 -2.99722 -5.05411 0
M  V30 6628 H 630.403 -2.28906 -5.66069 0
M  V30 6629 H 631.817 -3.97145 -4.13459 0
M  V30 6630 H 630.214 -4.67179 -3.76648 0
M  V30 6631 H 631.284 -4.19225 -2.43676 0
M  V30 6632 N 632.627 0.916307 -1.28225 0
M  V30 6633 C 633.876 1.65975 -1.14608 0
M  V30 6634 C 634.189 1.93204 0.305191 0
M  V30 6635 O 635.395 2.65611 0.562432 0
M  V30 6636 C 633.851 2.98989 -2.00333 0
M  V30 6637 C 633.459 2.79417 -3.50186 0
M  V30 6638 C 635.203 3.76856 -1.95397 0
M  V30 6639 C 633.11 4.08056 -4.28071 0
M  V30 6640 H 632.04 0.622587 -0.425324 0
M  V30 6641 H 634.691 1.01705 -1.52736 0
M  V30 6642 H 633.073 3.6438 -1.5506 0
M  V30 6643 H 634.247 2.22723 -4.034 0
M  V30 6644 H 632.562 2.14966 -3.56621 0
M  V30 6645 H 635.159 4.72203 -2.50856 0
M  V30 6646 H 635.502 4.05776 -0.930137 0
M  V30 6647 H 636.035 3.1828 -2.38626 0
M  V30 6648 H 632.774 3.8431 -5.31024 0
M  V30 6649 H 632.294 4.64371 -3.79631 0
M  V30 6650 H 633.973 4.76333 -4.37854 0
M  V30 6651 N 634.105 1.10431 1.1244 0
M  V30 6652 C 635.382 0.758797 1.80282 0
M  V30 6653 C 635.762 -0.754727 1.97147 0
M  V30 6654 O 635.11 -1.68094 1.54779 0
M  V30 6655 C 635.32 1.50982 3.14651 0
M  V30 6656 C 636.668 1.68232 3.8985 0
M  V30 6657 O 637.692 1.47319 3.24308 0
M  V30 6658 O 636.551 2.02905 5.07437 0
M  V30 6659 H 633.645 0.273756 0.780376 0
M  V30 6660 H 636.191 1.20713 1.19275 0
M  V30 6661 H 634.963 2.53989 2.97666 0
M  V30 6662 H 634.586 1.05435 3.83366 0
M  V30 6663 N 635.583 -1.29855 0.893053 0
M  V30 6664 C 636.533 -2.25493 0.337211 0
M  V30 6665 C 637.517 -1.51606 -0.53894 0
M  V30 6666 O 638.709 -1.72828 -0.382043 0
M  V30 6667 C 635.838 -3.40467 -0.440117 0
M  V30 6668 C 634.924 -4.217 0.450578 0
M  V30 6669 N 635.315 -4.81312 1.55476 0
M  V30 6670 C 633.613 -4.45315 0.247154 0
M  V30 6671 C 634.314 -5.42241 2.10593 0
M  V30 6672 N 633.29 -5.25267 1.39982 0
M  V30 6673 H 637.092 -2.69137 1.18079 0
M  V30 6674 H 634.606 -1.44388 0.743359 0
M  V30 6675 H 636.603 -4.08038 -0.855021 0
M  V30 6676 H 635.263 -2.98361 -1.28104 0
M  V30 6677 H 636.274 -4.80291 1.93755 0
M  V30 6678 H 632.951 -4.13782 -0.555939 0
M  V30 6679 H 634.341 -5.99517 3.03362 0
M  V30 6680 N 637.061 -0.65484 -1.43351 0
M  V30 6681 C 638.024 0.0263562 -2.29185 0
M  V30 6682 C 639.024 0.748951 -1.42293 0
M  V30 6683 O 640.214 0.589957 -1.63906 0
M  V30 6684 C 637.346 1.04806 -3.2439 0
M  V30 6685 H 638.539 -0.728883 -2.90908 0
M  V30 6686 H 636.092 -0.416149 -1.50658 0
M  V30 6687 H 636.827 1.83247 -2.67565 0
M  V30 6688 H 636.612 0.533554 -3.88453 0
M  V30 6689 H 638.102 1.52372 -3.88809 0
M  V30 6690 N 638.539 1.52521 -0.396863 0
M  V30 6691 C 639.785 2.01971 0.183169 0
M  V30 6692 C 640.118 1.2825 1.45827 0
M  V30 6693 O 639.393 0.385179 1.90648 0
M  V30 6694 C 639.676 3.5736 0.443391 0
M  V30 6695 C 639.529 4.41743 -0.84753 0
M  V30 6696 C 640.848 4.22539 1.2308 0
M  V30 6697 H 637.967 0.734119 0.0650976 0
M  V30 6698 H 640.609 1.82519 -0.527918 0
M  V30 6699 H 638.759 3.74066 1.04914 0
M  V30 6700 H 640.431 4.36773 -1.48414 0
M  V30 6701 H 638.674 4.0845 -1.4612 0
M  V30 6702 H 639.345 5.48507 -0.620003 0
M  V30 6703 H 641.821 4.09857 0.718084 0
M  V30 6704 H 640.697 5.31227 1.38162 0
M  V30 6705 H 640.958 3.80675 2.24808 0
M  V30 6706 N 640.017 0.126909 1.57088 0
M  V30 6707 C 640.947 -0.816847 2.18746 0
M  V30 6708 C 641.928 -1.27161 1.12979 0
M  V30 6709 O 643.113 -1.33279 1.41246 0
M  V30 6710 C 640.243 -2.06398 2.79315 0
M  V30 6711 C 639.197 -1.74673 3.90735 0
M  V30 6712 C 638.523 -3.06482 4.38147 0
M  V30 6713 C 639.823 -1.0089 5.12463 0
M  V30 6714 H 641.517 -0.303032 2.97863 0
M  V30 6715 H 639.063 -0.144314 1.43275 0
M  V30 6716 H 641.016 -2.72885 3.2111 0
M  V30 6717 H 639.74 -2.60118 1.975 0
M  V30 6718 H 638.399 -1.10572 3.49527 0
M  V30 6719 H 638.047 -3.58152 3.5318 0
M  V30 6720 H 637.747 -2.86025 5.13287 0
M  V30 6721 H 639.271 -3.74073 4.82599 0
M  V30 6722 H 640.685 -1.57546 5.51228 0
M  V30 6723 H 639.082 -0.905006 5.93237 0
M  V30 6724 H 640.152 0.00297335 4.849 0
M  V30 6725 N 641.495 -1.56914 -0.146875 0
M  V30 6726 C 642.425 -2.01308 -1.1831 0
M  V30 6727 C 643.406 -0.892664 -1.44795 0
M  V30 6728 O 644.591 -1.16048 -1.55713 0
M  V30 6729 C 641.721 -2.3938 -2.51624 0
M  V30 6730 C 640.675 -3.54608 -2.3966 0
M  V30 6731 C 640.001 -3.78493 -3.77686 0
M  V30 6732 C 641.301 -4.87269 -1.88058 0
M  V30 6733 H 642.995 -2.88123 -0.813964 0
M  V30 6734 H 640.541 -1.38615 -0.3901 0
M  V30 6735 H 642.494 -2.69037 -3.24341 0
M  V30 6736 H 641.218 -1.49502 -2.90373 0
M  V30 6737 H 639.877 -3.25116 -1.69396 0
M  V30 6738 H 639.525 -2.85866 -4.13871 0
M  V30 6739 H 639.225 -4.56039 -3.70543 0
M  V30 6740 H 640.749 -4.10576 -4.51951 0
M  V30 6741 H 642.163 -5.15644 -2.50568 0
M  V30 6742 H 640.56 -5.68622 -1.91805 0
M  V30 6743 H 641.63 -4.77634 -0.836277 0
M  V30 6744 N 642.974 0.416227 -1.52004 0
M  V30 6745 C 644.22 1.16555 -1.6596 0
M  V30 6746 C 644.553 1.90347 -0.384906 0
M  V30 6747 O 643.828 1.84474 0.616405 0
M  V30 6748 C 644.111 2.1657 -2.87696 0
M  V30 6749 C 643.964 1.46722 -4.25197 0
M  V30 6750 C 645.283 3.17321 -3.04951 0
M  V30 6751 H 642.402 0.422369 -0.603965 0
M  V30 6752 H 645.044 0.452141 -1.84542 0
M  V30 6753 H 643.194 2.77411 -2.71985 0
M  V30 6754 H 644.866 0.89056 -4.52622 0
M  V30 6755 H 643.109 0.769263 -4.26925 0
M  V30 6756 H 643.78 2.19665 -5.0641 0
M  V30 6757 H 646.256 2.66552 -3.19514 0
M  V30 6758 H 645.132 3.84573 -3.91656 0
M  V30 6759 H 645.393 3.84643 -2.17951 0
M  V30 6760 N 644.452 1.42507 0.673017 0
M  V30 6761 C 645.7 1.42789 1.43023 0
M  V30 6762 C 646.021 0.0459738 1.94946 0
M  V30 6763 O 645.291 -0.915765 1.73178 0
M  V30 6764 H 643.871 0.525657 0.530748 0
M  V30 6765 H 646.533 1.77944 0.795113 0
M  V30 6766 H 645.629 2.12872 2.28237 0
M  V30 6767 N 645.93 -0.909495 1.28709 0
M  V30 6768 C 647.16 -1.69027 1.188 0
M  V30 6769 C 647.568 -1.87469 -0.255329 0
M  V30 6770 O 646.911 -1.40458 -1.18394 0
M  V30 6771 C 646.973 -3.10064 1.81936 0
M  V30 6772 C 646.637 -3.14891 3.31199 0
M  V30 6773 C 647.634 -2.95768 4.27571 0
M  V30 6774 C 645.319 -3.37269 3.7223 0
M  V30 6775 C 647.313 -2.98942 5.6295 0
M  V30 6776 C 645 -3.40074 5.07733 0
M  V30 6777 C 645.998 -3.20932 6.02903 0
M  V30 6778 O 645.686 -3.23507 7.35934 0
M  V30 6779 H 645.418 -0.535014 0.413203 0
M  V30 6780 H 647.972 -1.14645 1.70428 0
M  V30 6781 H 646.202 -3.66005 1.24808 0
M  V30 6782 H 647.891 -3.70185 1.66486 0
M  V30 6783 H 648.657 -2.78302 3.97206 0
M  V30 6784 H 644.536 -3.51212 2.98615 0
M  V30 6785 H 648.08 -2.83919 6.37209 0
M  V30 6786 H 643.977 -3.5707 5.37747 0
M  V30 6787 H 644.745 -3.3984 7.44615 0
M  V30 6788 N 647.408 -1.11026 -1.11852 0
M  V30 6789 C 648.656 -0.854769 -1.83134 0
M  V30 6790 C 648.977 0.621375 -1.84835 0
M  V30 6791 O 648.247 1.45129 -1.31584 0
M  V30 6792 H 646.827 -0.313229 -0.678157 0
M  V30 6793 H 649.489 -1.40178 -1.35411 0
M  V30 6794 H 648.585 -1.22311 -2.87135 0
M  V30 6795 N 648.886 1.2938 -0.899927 0
M  V30 6796 C 649.834 2.29675 -0.367698 0
M  V30 6797 C 650.828 1.60787 0.533282 0
M  V30 6798 O 652.034 1.75126 0.416058 0
M  V30 6799 H 648.409 0.745284 -0.100279 0
M  V30 6800 H 650.38 2.72008 -1.22696 0
M  V30 6801 C 649.129 3.45512 0.389483 0
M  V30 6802 H 648.452 3.98713 -0.294575 0
M  V30 6803 H 649.892 4.17725 0.726744 0
M  V30 6804 C 648.351 2.969 1.59223 0
M  V30 6805 O 648.881 2.98195 2.69152 0
M  V30 6806 N 647.087 2.52728 1.43447 0
M  V30 6807 H 646.634 2.51873 0.540148 0
M  V30 6808 H 646.592 2.20561 2.24054 0
M  V30 6809 N 650.364 0.662433 1.43002 0
M  V30 6810 C 651.78 0.330835 1.56133 0
M  V30 6811 C 651.98 -1.16454 1.64441 0
M  V30 6812 O 651.036 -1.94964 1.60453 0
M  V30 6813 C 652.349 1.05029 2.81761 0
M  V30 6814 C 653.897 1.03142 2.95518 0
M  V30 6815 C 654.372 1.73196 4.2399 0
M  V30 6816 N 655.863 1.70004 4.30875 0
M  V30 6817 C 656.598 2.21074 5.29069 0
M  V30 6818 N 656.094 2.80473 6.33488 0
M  V30 6819 N 657.887 2.1152 5.20784 0
M  V30 6820 H 650.038 1.63272 1.35853 0
M  V30 6821 H 652.301 0.687149 0.653092 0
M  V30 6822 H 652.007 2.10542 2.81718 0
M  V30 6823 H 651.881 0.607664 3.72273 0
M  V30 6824 H 654.268 -0.0153339 2.95096 0
M  V30 6825 H 654.349 1.51282 2.0627 0
M  V30 6826 H 653.993 2.77833 4.25172 0
M  V30 6827 H 653.923 1.22515 5.1215 0
M  V30 6828 H 656.414 1.26667 3.56039 0
M  V30 6829 H 656.727 3.17094 7.04749 0
M  V30 6830 H 655.072 2.84538 6.34085 0
M  V30 6831 H 658.263 1.64814 4.38126 0
M  V30 6832 H 658.436 2.51629 5.97149 0
M  V30 6833 N 651.842 -1.52309 0.404946 0
M  V30 6834 C 653.067 -2.06666 -0.1743 0
M  V30 6835 C 653.492 -1.27341 -1.38441 0
M  V30 6836 O 652.85 -0.302539 -1.78758 0
M  V30 6837 C 652.898 -3.57014 -0.507262 0
M  V30 6838 O 652.002 -3.80144 -1.59889 0
M  V30 6839 H 651.343 -0.663807 -0.0160273 0
M  V30 6840 H 653.873 -1.96297 0.576937 0
M  V30 6841 H 653.883 -4.00724 -0.767098 0
M  V30 6842 H 652.558 -4.14184 0.377368 0
M  V30 6843 H 651.135 -3.48316 -1.33155 0
M  V30 6844 N 653.32 -0.135238 -1.57019 0
M  V30 6845 C 654.597 0.563227 -1.87316 0
M  V30 6846 C 654.977 1.83749 -1.03921 0
M  V30 6847 O 654.325 2.2817 -0.122675 0
M  V30 6848 C 654.535 0.840031 -3.3874 0
M  V30 6849 C 655.883 1.18598 -4.077 0
M  V30 6850 O 656.907 0.92977 -3.43851 0
M  V30 6851 O 655.766 1.66758 -5.20436 0
M  V30 6852 H 652.86 0.285971 -0.775983 0
M  V30 6853 H 655.406 -0.170965 -1.68837 0
M  V30 6854 H 654.178 -0.0622785 -3.9125 0
M  V30 6855 H 653.801 1.62882 -3.62706 0
M  V30 6856 N 654.798 1.5699 0.138552 0
M  V30 6857 C 656.044 1.84081 0.85099 0
M  V30 6858 C 656.377 0.718107 1.80435 0
M  V30 6859 O 655.652 -0.277633 1.92508 0
M  V30 6860 C 655.935 3.21699 1.61808 0
M  V30 6861 C 655.788 4.44544 0.685633 0
M  V30 6862 C 657.107 3.5664 2.57868 0
M  V30 6863 H 654.226 0.669592 0.307922 0
M  V30 6864 H 656.868 1.89646 0.11588 0
M  V30 6865 H 655.018 3.17086 2.24474 0
M  V30 6866 H 656.69 4.61248 0.0693179 0
M  V30 6867 H 654.933 4.338 -0.00421993 0
M  V30 6868 H 655.604 5.3746 1.25858 0
M  V30 6869 H 658.08 3.61918 2.05316 0
M  V30 6870 H 656.956 4.53946 3.08584 0
M  V30 6871 H 657.217 2.83036 3.39622 0
M  V30 6872 N 656.276 -0.40816 1.52223 0
M  V30 6873 C 657.687 -0.986929 1.58482 0
M  V30 6874 C 658.038 -1.91521 0.425917 0
M  V30 6875 O 657.163 -2.11593 -0.453593 0
M  V30 6876 C 657.758 -1.7967 2.87235 0
M  V30 6877 C 656.317 -2.32549 2.9597 0
M  V30 6878 C 655.464 -1.12558 2.53428 0
M  V30 6879 H 658.415 -0.188362 1.57578 0
M  V30 6880 H 658.436 -2.65417 2.72642 0
M  V30 6881 H 657.948 -1.12082 3.71563 0
M  V30 6882 H 656.049 -3.03505 2.16137 0
M  V30 6883 H 656.162 -2.63348 4.00231 0
M  V30 6884 H 654.526 -1.47984 2.07299 0
M  V30 6885 H 655.309 -0.465351 3.40131 0
M  V30 6886 N 657.755 -1.42862 -0.66545 0
M  V30 6887 C 659.002 -1.4383 -1.42546 0
M  V30 6888 C 659.33 -0.0581114 -1.94413 0
M  V30 6889 O 658.585 0.935002 -1.71919 0
M  V30 6890 C 658.884 -2.4175 -2.63233 0
M  V30 6891 C 658.55 -3.87915 -2.29854 0
M  V30 6892 C 657.212 -4.27726 -2.20463 0
M  V30 6893 C 659.564 -4.80074 -2.02924 0
M  V30 6894 C 656.892 -5.57666 -1.82279 0
M  V30 6895 C 659.244 -6.10366 -1.66242 0
M  V30 6896 C 657.908 -6.49167 -1.55367 0
M  V30 6897 H 657.178 -0.52631 -0.521612 0
M  V30 6898 H 659.825 -1.75863 -0.757914 0
M  V30 6899 H 658.13 -2.03077 -3.35063 0
M  V30 6900 H 659.827 -2.39759 -3.21429 0
M  V30 6901 H 656.417 -3.564 -2.3807 0
M  V30 6902 H 660.601 -4.50097 -2.09108 0
M  V30 6903 H 655.857 -5.8658 -1.72436 0
M  V30 6904 H 660.031 -6.81258 -1.44432 0
M  V30 6905 H 657.658 -7.49761 -1.2555 0
M  V30 6906 N 659.233 0.902656 -1.29189 0
M  V30 6907 C 660.479 1.6555 -1.18172 0
M  V30 6908 C 660.834 1.90569 0.264788 0
M  V30 6909 O 660.127 1.50292 1.1884 0
M  V30 6910 C 660.321 3.011 -1.92545 0
M  V30 6911 C 660.15 2.89312 -3.4428 0
M  V30 6912 C 658.92 2.90239 -4.1363 0
M  V30 6913 C 661.118 2.6656 -4.3983 0
M  V30 6914 N 659.1 2.69156 -5.5175 0
M  V30 6915 C 660.471 2.54429 -5.6539 0
M  V30 6916 C 662.526 2.51644 -4.29627 0
M  V30 6917 C 661.229 2.289 -6.81907 0
M  V30 6918 C 663.255 2.27498 -5.45892 0
M  V30 6919 C 662.617 2.16129 -6.70423 0
M  V30 6920 H 658.716 0.611519 -0.48741 0
M  V30 6921 H 661.3 1.06514 -1.62981 0
M  V30 6922 H 659.471 3.58202 -1.50154 0
M  V30 6923 H 661.203 3.65471 -1.73818 0
M  V30 6924 H 657.958 3.01412 -3.65305 0
M  V30 6925 H 658.382 2.61676 -6.24383 0
M  V30 6926 H 663.024 2.59178 -3.34045 0
M  V30 6927 H 660.742 2.20104 -7.77547 0
M  V30 6928 H 664.328 2.16805 -5.39895 0
M  V30 6929 H 663.208 1.97703 -7.5887 0
M  V30 6930 N 660.711 1.11618 1.11262 0
M  V30 6931 C 661.674 0.779447 2.15539 0
M  V30 6932 C 662.674 -0.202081 1.59525 0
M  V30 6933 O 663.864 0.0226356 1.74185 0
M  V30 6934 C 660.996 0.15674 3.40539 0
M  V30 6935 H 662.189 1.70324 2.4684 0
M  V30 6936 H 659.742 0.918298 1.26479 0
M  V30 6937 H 660.477 -0.777186 3.1485 0
M  V30 6938 H 660.262 0.863308 3.82478 0
M  V30 6939 H 661.752 -0.062661 4.17553 0
M  V30 6940 N 662.189 -1.289 0.906776 0
M  V30 6941 C 663.438 -1.9455 0.532262 0
M  V30 6942 C 663.751 -1.72219 -0.927353 0
M  V30 6943 O 664.957 -2.32033 -1.40971 0
M  V30 6944 C 663.413 -3.48438 0.901041 0
M  V30 6945 C 663.021 -3.79558 2.37991 0
M  V30 6946 C 664.765 -4.20284 0.596777 0
M  V30 6947 C 662.672 -5.26723 2.68918 0
M  V30 6948 H 661.602 -0.728259 0.195333 0
M  V30 6949 H 664.253 -1.46519 1.10474 0
M  V30 6950 H 662.635 -3.95162 0.257419 0
M  V30 6951 H 663.809 -3.43668 3.06967 0
M  V30 6952 H 662.124 -3.20868 2.65391 0
M  V30 6953 H 664.721 -5.28612 0.8046 0
M  V30 6954 H 665.064 -4.13694 -0.465072 0
M  V30 6955 H 665.597 -3.79315 1.19855 0
M  V30 6956 H 662.336 -5.38384 3.73928 0
M  V30 6957 H 661.856 -5.63836 2.04571 0
M  V30 6958 H 663.535 -5.94391 2.55555 0
M  V30 6959 N 663.667 -0.670007 -1.42649 0
M  V30 6960 C 664.614 0.0112928 -2.30797 0
M  V30 6961 C 665.584 0.797627 -1.45695 0
M  V30 6962 O 666.769 0.770845 -1.74535 0
M  V30 6963 C 663.909 0.95998 -3.31479 0
M  V30 6964 C 663.022 0.167975 -4.31673 0
M  V30 6965 C 662.157 1.11198 -5.19431 0
M  V30 6966 C 661.196 0.311381 -6.11307 0
M  V30 6967 N 660.333 1.20784 -6.91633 0
M  V30 6968 H 665.173 -0.746231 -2.88505 0
M  V30 6969 H 662.71 -0.379739 -1.42114 0
M  V30 6970 H 664.668 1.52379 -3.88377 0
M  V30 6971 H 663.298 1.68419 -2.75382 0
M  V30 6972 H 662.35 -0.512385 -3.76933 0
M  V30 6973 H 663.662 -0.453814 -4.96731 0
M  V30 6974 H 662.816 1.74587 -5.81037 0
M  V30 6975 H 661.555 1.76766 -4.54538 0
M  V30 6976 H 660.56 -0.335758 -5.48774 0
M  V30 6977 H 661.785 -0.340135 -6.78248 0
M  V30 6978 H 659.731 1.85001 -6.29373 0
M  V30 6979 H 659.648 0.64102 -7.53277 0
M  V30 6980 H 660.916 1.82936 -7.5773 0
M  V30 6981 N 665.145 1.52092 -0.413018 0
M  V30 6982 C 666.093 2.28681 0.425199 0
M  V30 6983 C 667.087 1.3353 1.04241 0
M  V30 6984 O 668.293 1.50973 0.980166 0
M  V30 6985 H 664.668 0.735661 0.155906 0
M  V30 6986 H 666.639 2.97418 -0.241926 0
M  V30 6987 C 665.388 3.1235 1.5275 0
M  V30 6988 H 664.711 3.85439 1.06191 0
M  V30 6989 H 666.151 3.69038 2.08774 0
M  V30 6990 C 664.61 2.26161 2.49706 0
M  V30 6991 O 665.14 1.90452 3.53682 0
M  V30 6992 N 663.346 1.89854 2.20008 0
M  V30 6993 H 662.893 2.19092 1.35486 0
M  V30 6994 H 662.851 1.3248 2.85125 0
M  V30 6995 N 666.623 0.143563 1.56945 0
M  V30 6996 C 667.848 -0.518701 2.00809 0
M  V30 6997 C 668.273 -1.5785 1.02298 0
M  V30 6998 O 667.631 -1.813 -0.0017839 0
M  V30 6999 C 667.679 -1.09929 3.43436 0
M  V30 7000 O 666.783 -2.21425 3.47915 0
M  V30 7001 H 666.124 -0.127215 0.6517 0
M  V30 7002 H 668.654 0.239283 2.03196 0
M  V30 7003 H 668.664 -1.4288 3.82164 0
M  V30 7004 H 667.339 -0.323162 4.14643 0
M  V30 7005 H 665.916 -1.89728 3.21026 0
M  V30 7006 N 668.101 -1.57061 -0.130224 0
M  V30 7007 C 669.347 -1.85412 -0.836295 0
M  V30 7008 C 669.702 -0.729831 -1.7802 0
M  V30 7009 O 668.995 0.271021 -1.89673 0
M  V30 7010 C 669.189 -3.17878 -1.63365 0
M  V30 7011 C 669.018 -4.43086 -0.768453 0
M  V30 7012 C 667.788 -5.03488 -0.427598 0
M  V30 7013 C 669.986 -5.14219 -0.0911495 0
M  V30 7014 N 667.968 -6.12253 0.449439 0
M  V30 7015 C 669.339 -6.16632 0.645341 0
M  V30 7016 C 671.394 -4.97898 -0.0135625 0
M  V30 7017 C 670.097 -7.0449 1.45212 0
M  V30 7018 C 672.123 -5.86234 0.780001 0
M  V30 7019 C 671.485 -6.88141 1.50472 0
M  V30 7020 H 667.584 -0.728875 -0.283311 0
M  V30 7021 H 670.168 -1.9444 -0.100662 0
M  V30 7022 H 668.339 -3.09967 -2.3404 0
M  V30 7023 H 670.071 -3.34076 -2.28419 0
M  V30 7024 H 666.826 -4.67344 -0.767264 0
M  V30 7025 H 667.25 -6.71263 0.879476 0
M  V30 7026 H 671.892 -4.19082 -0.559511 0
M  V30 7027 H 669.61 -7.82722 2.00926 0
M  V30 7028 H 673.196 -5.75671 0.842246 0
M  V30 7029 H 672.076 -7.55311 2.1089 0
M  V30 7030 N 669.579 0.400081 -1.52437 0
M  V30 7031 C 670.827 1.14392 -1.6661 0
M  V30 7032 C 671.148 1.90792 -0.402927 0
M  V30 7033 O 670.418 1.87042 0.582425 0
M  V30 7034 H 668.998 0.425275 -0.614125 0
M  V30 7035 H 671.66 0.455076 -1.89513 0
M  V30 7036 H 670.756 1.85298 -2.51139 0
M  V30 7037 N 671.057 1.43213 0.657864 0
M  V30 7038 C 672.285 1.48015 1.44566 0
M  V30 7039 C 672.7 0.0965951 1.88553 0
M  V30 7040 O 672.057 -0.892221 1.59203 0
M  V30 7041 C 672.108 2.42199 2.68369 0
M  V30 7042 O 671.829 3.75173 2.26223 0
M  V30 7043 C 673.33 2.56195 3.61772 0
M  V30 7044 H 670.55 0.502861 0.444266 0
M  V30 7045 H 673.094 1.87907 0.806917 0
M  V30 7046 H 671.249 2.05514 3.28394 0
M  V30 7047 H 671.663 4.25776 3.06293 0
M  V30 7048 H 673.137 3.26182 4.4532 0
M  V30 7049 H 673.614 1.60534 4.0881 0
M  V30 7050 H 674.22 2.93671 3.07632 0
M  V30 7051 N 672.536 -0.895792 1.29666 0
M  V30 7052 C 673.813 -1.62723 1.08538 0
M  V30 7053 C 674.193 -2.07848 -0.369119 0
M  V30 7054 O 673.541 -1.8372 -1.35864 0
M  V30 7055 C 673.751 -2.80505 2.07648 0
M  V30 7056 C 675.099 -3.51098 2.3878 0
M  V30 7057 O 676.123 -2.90679 2.05874 0
M  V30 7058 O 674.982 -4.60028 2.9502 0
M  V30 7059 H 672.076 -0.714692 0.416106 0
M  V30 7060 H 674.622 -0.943517 1.41053 0
M  V30 7061 H 673.394 -2.44386 3.05599 0
M  V30 7062 H 673.017 -3.5658 1.75887 0
M  V30 7063 N 674.014 -1.12206 -1.10668 0
M  V30 7064 C 675.26 -0.887096 -1.83036 0
M  V30 7065 C 675.615 0.580887 -1.83422 0
M  V30 7066 O 674.908 1.42379 -1.28213 0
M  V30 7067 C 675.102 -1.39276 -3.29146 0
M  V30 7068 C 674.931 -2.90837 -3.42992 0
M  V30 7069 C 673.701 -3.59047 -3.55546 0
M  V30 7070 C 675.899 -3.8885 -3.36601 0
M  V30 7071 N 673.881 -4.98747 -3.57945 0
M  V30 7072 C 675.252 -5.14666 -3.45716 0
M  V30 7073 C 677.307 -3.81296 -3.20184 0
M  V30 7074 C 676.01 -6.33814 -3.40106 0
M  V30 7075 C 678.036 -4.99965 -3.15895 0
M  V30 7076 C 677.398 -6.24637 -3.25589 0
M  V30 7077 H 673.497 -0.377857 -0.684652 0
M  V30 7078 H 676.081 -1.42791 -1.32358 0
M  V30 7079 H 674.252 -0.879026 -3.78322 0
M  V30 7080 H 675.984 -1.10011 -3.89461 0
M  V30 7081 H 672.739 -3.09533 -3.5845 0
M  V30 7082 H 673.163 -5.71606 -3.62762 0
M  V30 7083 H 677.805 -2.85806 -3.11569 0
M  V30 7084 H 675.523 -7.29574 -3.47487 0
M  V30 7085 H 679.109 -4.95847 -3.04347 0
M  V30 7086 H 677.989 -7.14921 -3.22269 0
M  V30 7087 N 675.492 1.28418 -0.913599 0
M  V30 7088 C 676.74 1.94596 -0.545594 0
M  V30 7089 C 677.061 1.7227 0.913668 0
M  V30 7090 O 676.331 1.06233 1.64595 0
M  V30 7091 H 674.911 0.720065 -0.198783 0
M  V30 7092 H 677.573 1.56404 -1.16292 0
M  V30 7093 H 676.669 3.03202 -0.739911 0
M  V30 7094 N 676.97 0.677563 1.42291 0
M  V30 7095 C 677.88 0.000962654 2.346 0
M  V30 7096 C 678.896 -0.785833 1.55244 0
M  V30 7097 O 680.072 -0.727523 1.87801 0
M  V30 7098 C 677.137 -0.936746 3.33805 0
M  V30 7099 C 676.198 -0.144173 4.29058 0
M  V30 7100 C 675.431 -1.03722 5.23524 0
M  V30 7101 O 675.654 -2.27675 5.22992 0
M  V30 7102 O 674.588 -0.496542 5.99848 0
M  V30 7103 H 678.414 0.761397 2.94001 0
M  V30 7104 H 675.999 0.43781 1.42841 0
M  V30 7105 H 677.881 -1.47497 3.94744 0
M  V30 7106 H 676.556 -1.67698 2.76874 0
M  V30 7107 H 675.463 0.438224 3.71524 0
M  V30 7108 H 676.796 0.55701 4.89038 0
M  V30 7109 N 678.448 -1.51871 0.421078 0
M  V30 7110 C 679.395 -2.27334 -0.398508 0
M  V30 7111 C 680.365 -1.30241 -1.03085 0
M  V30 7112 O 681.55 -1.59121 -1.05285 0
M  V30 7113 C 678.69 -3.10664 -1.50272 0
M  V30 7114 C 677.803 -4.2273 -0.890122 0
M  V30 7115 C 676.938 -4.93399 -1.96803 0
M  V30 7116 C 675.977 -5.97409 -1.333 0
M  V30 7117 N 675.114 -6.61548 -2.35156 0
M  V30 7118 H 679.954 -2.96938 0.251411 0
M  V30 7119 H 677.491 -1.46472 0.135825 0
M  V30 7120 H 679.449 -3.57292 -2.15403 0
M  V30 7121 H 678.079 -2.43207 -2.1225 0
M  V30 7122 H 677.131 -3.80186 -0.127537 0
M  V30 7123 H 678.443 -4.97302 -0.386349 0
M  V30 7124 H 677.597 -5.43491 -2.69633 0
M  V30 7125 H 676.336 -4.18421 -2.50549 0
M  V30 7126 H 675.341 -5.46624 -0.59008 0
M  V30 7127 H 676.566 -6.74335 -0.803076 0
M  V30 7128 H 674.512 -5.89394 -2.88012 0
M  V30 7129 H 674.429 -7.31832 -1.89624 0
M  V30 7130 H 675.697 -7.16276 -3.0752 0
M  V30 7131 N 679.926 -0.151884 -1.56866 0
M  V30 7132 C 681.174 0.497021 -1.95893 0
M  V30 7133 C 681.495 1.65078 -1.03799 0
M  V30 7134 O 680.765 1.95642 -0.10049 0
M  V30 7135 H 679.345 0.186603 -0.723318 0
M  V30 7136 H 682.007 -0.228525 -1.93556 0
M  V30 7137 H 681.103 0.869933 -2.99731 0
M  V30 7138 N 681.404 1.57128 0.121893 0
M  V30 7139 C 682.634 1.88609 0.843227 0
M  V30 7140 C 683.042 0.740917 1.74089 0
M  V30 7141 O 682.385 -0.297426 1.81276 0
M  V30 7142 C 682.447 3.15073 1.73117 0
M  V30 7143 C 682.111 4.45742 1.0081 0
M  V30 7144 C 683.108 5.18719 0.350255 0
M  V30 7145 C 680.793 4.92444 0.99014 0
M  V30 7146 C 682.787 6.36617 -0.315889 0
M  V30 7147 C 680.474 6.10261 0.320196 0
M  V30 7148 C 681.472 6.82194 -0.331666 0
M  V30 7149 O 681.16 7.97769 -0.990927 0
M  V30 7150 H 680.892 0.628919 0.247865 0
M  V30 7151 H 683.446 2.05096 0.111725 0
M  V30 7152 H 681.676 2.9466 2.50424 0
M  V30 7153 H 683.365 3.32597 2.32667 0
M  V30 7154 H 684.131 4.83693 0.35577 0
M  V30 7155 H 680.01 4.36361 1.48695 0
M  V30 7156 H 683.554 6.92701 -0.825272 0
M  V30 7157 H 679.451 6.44743 0.312433 0
M  V30 7158 H 680.219 8.13591 -0.895113 0
M  V30 7159 N 682.882 -0.391992 1.52647 0
M  V30 7160 C 684.112 -1.15692 1.71169 0
M  V30 7161 C 684.52 -1.84285 0.428444 0
M  V30 7162 O 683.863 -1.73393 -0.606669 0
M  V30 7163 C 683.925 -2.25033 2.80357 0
M  V30 7164 C 683.589 -1.76433 4.21569 0
M  V30 7165 C 684.586 -1.2427 5.0483 0
M  V30 7166 C 682.271 -1.82746 4.67877 0
M  V30 7167 C 684.265 -0.790657 6.32477 0
M  V30 7168 C 681.952 -1.37153 5.9551 0
M  V30 7169 C 682.95 -0.853997 6.7764 0
M  V30 7170 O 682.638 -0.404708 8.02881 0
M  V30 7171 H 682.37 -0.35297 0.576531 0
M  V30 7172 H 684.924 -0.464994 2.00067 0
M  V30 7173 H 683.154 -2.97641 2.46874 0
M  V30 7174 H 684.843 -2.86718 2.87311 0
M  V30 7175 H 685.609 -1.18752 4.70237 0
M  V30 7176 H 681.488 -2.21971 4.04042 0
M  V30 7177 H 685.032 -0.386024 6.96531 0
M  V30 7178 H 680.929 -1.42356 6.29607 0
M  V30 7179 H 681.697 -0.526459 8.16805 0
M  V30 7180 N 684.36 -1.4356 -0.65026 0
M  V30 7181 C 685.59 -1.48563 -1.4357 0
M  V30 7182 C 685.998 -0.103041 -1.88919 0
M  V30 7183 O 685.341 0.897602 -1.60277 0
M  V30 7184 C 685.403 -2.37181 -2.70158 0
M  V30 7185 C 685.067 -3.84673 -2.4673 0
M  V30 7186 C 686.064 -4.75704 -2.09765 0
M  V30 7187 C 683.749 -4.29189 -2.60963 0
M  V30 7188 C 685.743 -6.09249 -1.87334 0
M  V30 7189 C 683.43 -5.62787 -2.38147 0
M  V30 7190 C 684.428 -6.52634 -2.01389 0
M  V30 7191 O 684.116 -7.83761 -1.78813 0
M  V30 7192 H 683.848 -0.506743 -0.447423 0
M  V30 7193 H 686.402 -1.89001 -0.80423 0
M  V30 7194 H 684.632 -1.91636 -3.35876 0
M  V30 7195 H 686.321 -2.33354 -3.32116 0
M  V30 7196 H 687.087 -4.42589 -1.98343 0
M  V30 7197 H 682.966 -3.59529 -2.88548 0
M  V30 7198 H 686.51 -6.7934 -1.58567 0
M  V30 7199 H 682.407 -5.95469 -2.49173 0
M  V30 7200 H 683.175 -7.95368 -1.93214 0
M  V30 7201 N 685.838 0.888903 -1.30139 0
M  V30 7202 C 686.768 2.01046 -1.18755 0
M  V30 7203 C 687.749 1.69916 -0.0791438 0
M  V30 7204 O 688.934 1.92445 -0.260498 0
M  V30 7205 C 686.064 3.36109 -0.874518 0
M  V30 7206 C 685.018 3.81486 -1.94043 0
M  V30 7207 C 684.344 5.13796 -1.48047 0
M  V30 7208 C 685.644 4.00637 -3.35093 0
M  V30 7209 H 687.338 2.10828 -2.12584 0
M  V30 7210 H 684.884 1.01298 -1.02346 0
M  V30 7211 H 686.837 4.14089 -0.781548 0
M  V30 7212 H 685.561 3.26449 0.0994519 0
M  V30 7213 H 684.22 3.05731 -2.02297 0
M  V30 7214 H 683.868 5.0056 -0.494878 0
M  V30 7215 H 683.568 5.45127 -2.19341 0
M  V30 7216 H 685.092 5.94305 -1.40121 0
M  V30 7217 H 686.506 4.69067 -3.2962 0
M  V30 7218 H 684.903 4.43339 -4.04438 0
M  V30 7219 H 685.973 3.0462 -3.77273 0
M  V30 7220 N 687.317 1.12792 1.10072 0
M  V30 7221 C 688.267 0.768086 2.14673 0
M  V30 7222 C 689.251 -0.234716 1.59179 0
M  V30 7223 O 690.443 -0.039643 1.76956 0
M  V30 7224 C 687.572 0.228472 3.42539 0
M  V30 7225 C 686.658 1.25979 4.04957 0
M  V30 7226 N 687.049 2.4586 4.42025 0
M  V30 7227 C 685.347 1.10602 4.32069 0
M  V30 7228 C 686.048 3.11747 4.9111 0
M  V30 7229 N 685.024 2.39185 4.88151 0
M  V30 7230 H 688.826 1.68029 2.4113 0
M  V30 7231 H 686.34 1.00925 1.27232 0
M  V30 7232 H 688.337 -0.0475216 4.16873 0
M  V30 7233 H 686.997 -0.678136 3.1754 0
M  V30 7234 H 688.008 2.83215 4.33601 0
M  V30 7235 H 684.685 0.257021 4.16708 0
M  V30 7236 H 686.075 4.13862 5.29309 0
M  V30 7237 N 688.795 -1.27931 0.920396 0
M  V30 7238 C 690.211 -1.47085 0.619537 0
M  V30 7239 C 690.411 -1.83463 -0.833291 0
M  V30 7240 O 689.467 -1.94363 -1.61181 0
M  V30 7241 C 690.78 -2.56878 1.56314 0
M  V30 7242 C 692.328 -2.70743 1.57058 0
M  V30 7243 C 692.803 -3.83687 2.50097 0
M  V30 7244 N 694.294 -3.9105 2.48262 0
M  V30 7245 C 695.029 -4.77842 3.16945 0
M  V30 7246 N 694.525 -5.69176 3.94982 0
M  V30 7247 N 696.318 -4.71509 3.06 0
M  V30 7248 H 688.469 -1.02601 1.85975 0
M  V30 7249 H 690.732 -0.511682 0.798051 0
M  V30 7250 H 690.438 -2.36923 2.59923 0
M  V30 7251 H 690.312 -3.54117 1.29928 0
M  V30 7252 H 692.699 -2.90083 0.541832 0
M  V30 7253 H 692.78 -1.74015 1.8749 0
M  V30 7254 H 692.424 -3.65101 3.53077 0
M  V30 7255 H 692.354 -4.79827 2.16964 0
M  V30 7256 H 694.845 -3.25738 1.91581 0
M  V30 7257 H 695.158 -6.32245 4.44394 0
M  V30 7258 H 693.503 -5.68995 3.99086 0
M  V30 7259 H 696.694 -3.99151 2.44533 0
M  V30 7260 H 696.867 -5.38933 3.59799 0
M  V30 7261 N 690.273 -0.685099 -1.4193 0
M  V30 7262 C 691.521 -0.21124 -2.00993 0
M  V30 7263 C 691.842 1.18985 -1.54491 0
M  V30 7264 O 691.112 1.8009 -0.771 0
M  V30 7265 H 689.692 -0.0751059 -0.743215 0
M  V30 7266 H 692.354 -0.883915 -1.73704 0
M  V30 7267 H 691.45 -0.220513 -3.1132 0
M  V30 7268 N 691.751 1.51645 -0.429126 0
M  V30 7269 C 692.976 2.06917 0.141399 0
M  V30 7270 C 693.401 1.29527 1.36398 0
M  V30 7271 O 692.759 0.33094 1.78254 0
M  V30 7272 C 692.807 3.57776 0.4504 0
M  V30 7273 O 691.911 3.82639 1.53821 0
M  V30 7274 H 691.252 0.663978 0.0054647 0
M  V30 7275 H 693.782 1.95355 -0.608093 0
M  V30 7276 H 693.792 4.01894 0.703249 0
M  V30 7277 H 692.467 4.13532 -0.443213 0
M  V30 7278 H 691.044 3.5039 1.27597 0
M  V30 7279 N 693.229 0.160201 1.56784 0
M  V30 7280 C 694.477 -0.486625 1.96154 0
M  V30 7281 C 694.798 -1.64525 1.04673 0
M  V30 7282 O 694.068 -1.95586 0.110864 0
M  V30 7283 H 692.648 -0.182764 0.724297 0
M  V30 7284 H 695.31 0.238787 1.93432 0
M  V30 7285 H 694.406 -0.854025 3.00188 0
M  V30 7286 N 694.707 -1.5719 -0.113559 0
M  V30 7287 C 695.67 -1.99796 -1.12314 0
M  V30 7288 C 696.67 -0.888847 -1.34001 0
M  V30 7289 O 697.86 -1.15476 -1.30426 0
M  V30 7290 C 694.992 -2.34279 -2.47641 0
M  V30 7291 H 696.185 -2.90193 -0.756825 0
M  V30 7292 H 693.738 -1.52144 -0.358029 0
M  V30 7293 H 694.473 -1.46778 -2.89183 0
M  V30 7294 H 694.258 -3.15175 -2.33253 0
M  V30 7295 H 695.748 -2.67963 -3.2029 0
M  V30 7296 N 696.185 0.383891 -1.52853 0
M  V30 7297 C 697.425 1.13731 -1.69837 0
M  V30 7298 C 697.789 1.87086 -0.431611 0
M  V30 7299 O 698.99 2.64518 -0.477886 0
M  V30 7300 C 697.261 2.08551 -2.90243 0
M  V30 7301 S 698.82 2.9166 -3.27841 0
M  V30 7302 H 695.638 0.384911 -0.5978 0
M  V30 7303 H 698.24 0.42103 -1.90913 0
M  V30 7304 H 696.944 1.53392 -3.80656 0
M  V30 7305 H 696.475 2.8468 -2.71516 0
M  V30 7306 H 698.49 4.10723 -2.78426 0
M  V30 7307 N 697.663 1.43903 0.642637 0
M  V30 7308 C 698.911 1.45791 1.39962 0
M  V30 7309 C 699.232 0.0873144 1.94804 0
M  V30 7310 O 698.502 -0.878825 1.75081 0
M  V30 7311 H 697.082 0.536797 0.519479 0
M  V30 7312 H 699.744 1.7959 0.757189 0
M  V30 7313 H 698.84 2.17665 2.2367 0
M  V30 7314 N 699.141 -0.881989 1.30609 0
M  V30 7315 C 700.387 -1.63647 1.19781 0
M  V30 7316 C 700.72 -1.92632 -0.246265 0
M  V30 7317 O 699.995 -1.54938 -1.17577 0
M  V30 7318 C 700.278 -2.97437 2.02985 0
M  V30 7319 C 700.131 -2.75406 3.55628 0
M  V30 7320 C 701.45 -3.98397 1.86997 0
M  V30 7321 H 698.569 -0.593841 0.436488 0
M  V30 7322 H 701.211 -1.02041 1.60273 0
M  V30 7323 H 699.361 -3.50018 1.68581 0
M  V30 7324 H 701.033 -2.2959 4.00107 0
M  V30 7325 H 699.276 -2.09856 3.79662 0
M  V30 7326 H 699.947 -3.70552 4.09139 0
M  V30 7327 H 702.423 -3.54986 2.17081 0
M  V30 7328 H 701.299 -4.89916 2.47536 0
M  V30 7329 H 701.56 -4.3424 0.829943 0
M  V30 7330 N 700.619 -1.13374 -1.09472 0
M  V30 7331 C 701.567 -0.806105 -2.18185 0
M  V30 7332 C 702.561 0.21136 -1.68076 0
M  V30 7333 O 703.767 0.0685558 -1.79869 0
M  V30 7334 H 700.142 -0.242901 -0.71169 0
M  V30 7335 H 702.113 -1.73115 -2.43051 0
M  V30 7336 C 700.862 -0.287928 -3.46506 0
M  V30 7337 H 700.185 -1.06217 -3.85432 0
M  V30 7338 H 701.625 -0.0971054 -4.23889 0
M  V30 7339 C 700.084 0.986256 -3.22141 0
M  V30 7340 O 700.614 2.06217 -3.44728 0
M  V30 7341 N 698.82 0.917153 -2.75747 0
M  V30 7342 H 698.367 0.0414609 -2.57567 0
M  V30 7343 H 698.325 1.77029 -2.59823 0
M  V30 7344 N 702.098 1.27442 -0.927168 0
M  V30 7345 C 703.326 1.98498 -0.583622 0
M  V30 7346 C 703.741 1.69171 0.838241 0
M  V30 7347 O 703.098 0.951969 1.55704 0
M  V30 7348 C 703.149 3.52552 -0.799341 0
M  V30 7349 O 702.87 3.80851 -2.16527 0
M  V30 7350 C 704.371 4.4086 -0.464436 0
M  V30 7351 H 701.591 0.633487 -0.221213 0
M  V30 7352 H 704.135 1.62308 -1.24404 0
M  V30 7353 H 702.29 3.86955 -0.185728 0
M  V30 7354 H 702.704 4.75441 -2.21487 0
M  V30 7355 H 704.178 5.47967 -0.666075 0
M  V30 7356 H 704.655 4.35082 0.599995 0
M  V30 7357 H 705.261 4.11977 -1.05617 0
M  V30 7358 N 703.576 0.692616 1.41565 0
M  V30 7359 C 704.509 -0.025063 2.28186 0
M  V30 7360 C 705.487 -0.790912 1.42068 0
M  V30 7361 O 706.671 -0.782344 1.71498 0
M  V30 7362 C 703.798 -1.04285 3.22246 0
M  V30 7363 C 702.844 -0.370515 4.24888 0
M  V30 7364 S 703.677 0.884942 5.28137 0
M  V30 7365 C 704.833 -0.131324 6.25762 0
M  V30 7366 H 705.066 0.709626 2.88707 0
M  V30 7367 H 702.599 0.482783 1.46658 0
M  V30 7368 H 704.557 -1.62493 3.7697 0
M  V30 7369 H 703.218 -1.7501 2.60827 0
M  V30 7370 H 702.411 -1.13911 4.90959 0
M  V30 7371 H 702.013 0.138411 3.73744 0
M  V30 7372 H 704.305 -0.985527 6.70294 0
M  V30 7373 H 705.248 0.495384 7.06365 0
M  V30 7374 H 705.656 -0.484777 5.62415 0
M  V30 7375 N 705.054 -1.51416 0.437162 0
M  V30 7376 C 706.017 -2.26312 -0.362729 0
M  V30 7377 C 707.017 -1.29748 -0.949847 0
M  V30 7378 O 708.207 -1.53462 -0.824325 0
M  V30 7379 C 705.339 -3.05475 -1.5132 0
M  V30 7380 H 706.532 -2.98459 0.29365 0
M  V30 7381 H 704.085 -1.55137 0.190327 0
M  V30 7382 H 704.82 -2.37744 -2.20563 0
M  V30 7383 H 704.605 -3.76401 -1.09838 0
M  V30 7384 H 706.095 -3.62209 -2.07833 0
M  V30 7385 N 706.532 -0.168513 -1.56696 0
M  V30 7386 C 707.757 0.486688 -2.01609 0
M  V30 7387 C 708.182 1.56203 -1.04796 0
M  V30 7388 O 707.54 1.8128 -0.0270596 0
M  V30 7389 C 707.588 1.04451 -3.45141 0
M  V30 7390 O 706.692 2.15862 -3.51393 0
M  V30 7391 H 706.033 0.116831 -0.653641 0
M  V30 7392 H 708.563 -0.271579 -2.0279 0
M  V30 7393 H 708.573 1.36782 -3.84389 0
M  V30 7394 H 707.248 0.257155 -4.15104 0
M  V30 7395 H 705.825 1.84597 -3.24004 0
M  V30 7396 N 708.01 1.57248 0.105221 0
M  V30 7397 C 709.235 1.90143 0.828264 0
M  V30 7398 C 709.66 0.761811 1.71983 0
M  V30 7399 O 709.018 -0.287086 1.79013 0
M  V30 7400 C 709.066 3.21856 1.62608 0
M  V30 7401 O 708.17 3.08732 2.7342 0
M  V30 7402 H 707.511 0.623558 0.228192 0
M  V30 7403 H 710.041 2.0443 0.0834826 0
M  V30 7404 H 710.051 3.54916 2.01243 0
M  V30 7405 H 708.726 4.0439 0.971687 0
M  V30 7406 H 707.303 2.87167 2.37886 0
M  V30 7407 N 709.488 -0.375779 1.53054 0
M  V30 7408 C 710.451 -1.44254 1.7811 0
M  V30 7409 C 711.451 -1.47018 0.651328 0
M  V30 7410 O 712.641 -1.47957 0.919472 0
M  V30 7411 C 709.773 -2.8345 1.89391 0
M  V30 7412 H 710.966 -1.23316 2.73374 0
M  V30 7413 H 708.519 -0.608312 1.43977 0
M  V30 7414 H 709.254 -3.09716 0.961589 0
M  V30 7415 H 709.039 -2.82844 2.71555 0
M  V30 7416 H 710.529 -3.60722 2.10404 0
M  V30 7417 N 710.966 -1.44241 -0.634997 0
M  V30 7418 C 712.212 -1.47038 -1.39669 0
M  V30 7419 C 712.545 -0.101122 -1.93937 0
M  V30 7420 O 711.82 0.880699 -1.73418 0
M  V30 7421 C 712.103 -2.52763 -2.56482 0
M  V30 7422 C 711.956 -3.99032 -2.07589 0
M  V30 7423 C 713.275 -2.55031 -3.58674 0
M  V30 7424 H 710.394 -0.53537 -0.506506 0
M  V30 7425 H 713.036 -1.75898 -0.718317 0
M  V30 7426 H 711.186 -2.28284 -3.14354 0
M  V30 7427 H 712.858 -4.3463 -1.54577 0
M  V30 7428 H 711.101 -4.10994 -1.38804 0
M  V30 7429 H 711.772 -4.68649 -2.91671 0
M  V30 7430 H 714.248 -2.76893 -3.10595 0
M  V30 7431 H 713.124 -3.30916 -4.37934 0
M  V30 7432 H 713.385 -1.59085 -4.12486 0
M  V30 7433 N 712.444 0.87505 -1.31075 0
M  V30 7434 C 713.69 1.63009 -1.20647 0
M  V30 7435 C 714.023 1.9276 0.236045 0
M  V30 7436 O 713.298 1.55559 1.16754 0
M  V30 7437 C 713.581 2.96357 -2.0456 0
M  V30 7438 C 713.434 2.73516 -3.57084 0
M  V30 7439 C 714.753 3.974 -1.89107 0
M  V30 7440 H 711.872 0.591518 -0.439631 0
M  V30 7441 H 714.514 1.0119 -1.60812 0
M  V30 7442 H 712.664 3.49119 -1.70435 0
M  V30 7443 H 714.336 2.27465 -4.01319 0
M  V30 7444 H 712.579 2.0784 -3.80769 0
M  V30 7445 H 713.25 3.68377 -4.11099 0
M  V30 7446 H 715.726 3.5383 -2.18961 0
M  V30 7447 H 714.602 4.88596 -2.5013 0
M  V30 7448 H 714.863 4.33794 -0.85296 0
M  V30 7449 N 713.922 1.13953 1.08869 0
M  V30 7450 C 715.199 0.815768 1.77777 0
M  V30 7451 C 715.579 -0.691624 1.99449 0
M  V30 7452 O 714.927 -1.63085 1.60049 0
M  V30 7453 C 715.137 1.60916 3.09689 0
M  V30 7454 C 716.485 1.80549 3.84301 0
M  V30 7455 O 717.509 1.57562 3.19457 0
M  V30 7456 O 716.368 2.18946 5.00724 0
M  V30 7457 H 713.462 0.298445 0.771271 0
M  V30 7458 H 716.008 1.24446 1.15374 0
M  V30 7459 H 714.78 2.6333 2.89435 0
M  V30 7460 H 714.403 1.17578 3.79817 0
M  V30 7461 O 715.439 -1.21416 1.06491 0
M  V30 7462 H 716.13 -1.7871 0.747168 0
M  V30 END ATOM
M  V30 BEGIN BOND
M  V30 END BOND
M  V30 END CTAB
M  END
$$$$
