drugbank_target|Q9X0A2 Oxidoreductase, aldo/keto reductase family (DB03461)
 OpenBabel12092120283D

  0  0  0     0  0            999 V3000
M  V30 BEGIN CTAB
M  V30 COUNTS 4687 4739 0 0 0
M  V30 BEGIN ATOM
M  V30 1 H -0.908 1.98254 -0.117106 0
M  V30 2 N 0 1.576 0 0
M  V30 3 C 0.933 2.03868 1.02534 0
M  V30 4 C 1.911 0.928543 1.3348 0
M  V30 5 O 3.095 1.19667 1.45644 0
M  V30 6 C 0.222 2.43627 2.35294 0
M  V30 7 C -0.732 3.65373 2.2001 0
M  V30 8 S 0.101 5.13292 1.52614 0
M  V30 9 C 1.257 5.56322 2.86805 0
M  V30 10 H 1.49 2.90518 0.631377 0
M  V30 11 H -0.977 1.52953 0.210867 0
M  V30 12 H 0.981 2.67203 3.11629 0
M  V30 13 H -0.358 1.57376 2.7183 0
M  V30 14 H -1.165 3.90944 3.18086 0
M  V30 15 H -1.563 3.418 1.51819 0
M  V30 16 H 0.729 5.58782 3.83104 0
M  V30 17 H 1.672 6.56266 2.65933 0
M  V30 18 H 2.08 4.83886 2.90714 0
M  V30 19 N 1.4781 -0.272755 1.55222 0
M  V30 20 C 2.4101 -1.35946 1.8453 0
M  V30 21 C 3.4231 -1.45525 0.729818 0
M  V30 22 O 4.6121 -1.47337 1.00767 0
M  V30 23 C 1.7121 -2.74069 1.99347 0
M  V30 24 C 0.8851 -2.87079 3.30007 0
M  V30 25 C -0.0559 -4.05879 3.34886 0
M  V30 26 O -1.0299 -3.96626 4.08261 0
M  V30 27 N 0.1721 -5.17857 2.62307 0
M  V30 28 H 2.9371 -1.11149 2.78327 0
M  V30 29 H 0.4981 -0.462869 1.55142 0
M  V30 30 H 2.4901 -3.51838 1.99981 0
M  V30 31 H 1.0601 -2.91688 1.12415 0
M  V30 32 H 0.2801 -1.96193 3.41909 0
M  V30 33 H 1.5681 -2.92701 4.16177 0
M  V30 34 H 0.9661 -5.28261 2.02377 0
M  V30 35 H -0.4769 -5.93855 2.68663 0
M  V30 36 N 2.9562 -1.48159 -0.537278 0
M  V30 37 C 4.2022 -1.56035 -1.29541 0
M  V30 38 C 4.5352 -0.230377 -1.92829 0
M  V30 39 O 3.8102 0.762952 -1.78911 0
M  V30 40 C 4.0932 -2.69323 -2.39034 0
M  V30 41 C 3.9462 -4.12002 -1.80485 0
M  V30 42 C 5.2652 -2.78408 -3.40847 0
M  V30 43 H 2.3842 -0.567992 -0.469632 0
M  V30 44 H 5.0262 -1.80302 -0.599277 0
M  V30 45 H 3.1762 -2.48763 -2.98412 0
M  V30 46 H 4.8482 -4.43981 -1.25215 0
M  V30 47 H 3.0912 -4.19344 -1.11055 0
M  V30 48 H 3.7622 -4.87077 -2.59731 0
M  V30 49 H 6.2382 -2.97012 -2.91416 0
M  V30 50 H 5.1142 -3.59416 -4.14863 0
M  V30 51 H 5.3752 -1.86269 -4.00944 0
M  V30 52 N 4.4343 0.785586 -1.36625 0
M  V30 53 C 5.8453 1.36101 -1.27803 0
M  V30 54 C 6.1963 1.96035 0.0804875 0
M  V30 55 O 5.3213 1.92834 0.982042 0
M  V30 56 C 5.9163 2.47442 -2.31426 0
M  V30 57 C 4.4753 3.00789 -2.26281 0
M  V30 58 C 3.6223 1.73896 -2.15999 0
M  V30 59 H 6.5733 0.586928 -1.47448 0
M  V30 60 H 6.5943 3.2656 -1.95291 0
M  V30 61 H 6.1063 2.03791 -3.30289 0
M  V30 62 H 4.2073 3.48851 -1.30896 0
M  V30 63 H 4.3203 3.57343 -3.19128 0
M  V30 64 H 2.6843 1.9628 -1.62316 0
M  V30 65 H 3.4673 1.32368 -3.16755 0
M  V30 66 N 5.9124 1.20967 1.01018 0
M  V30 67 C 6.8594 0.964281 2.09691 0
M  V30 68 C 7.8294 -0.107853 1.65749 0
M  V30 69 O 9.0144 0.0381987 1.90762 0
M  V30 70 C 6.1544 0.52943 3.41015 0
M  V30 71 C 5.2674 1.67043 3.98398 0
M  V30 72 C 4.4024 1.18525 5.17808 0
M  V30 73 C 3.4414 2.29892 5.67288 0
M  V30 74 N 2.5784 1.82546 6.77954 0
M  V30 75 H 7.4184 1.89463 2.30017 0
M  V30 76 H 4.9554 0.944289 1.1279 0
M  V30 77 H 6.9134 0.258588 4.16398 0
M  V30 78 H 5.5434 -0.363919 3.20742 0
M  V30 79 H 4.5954 2.05603 3.20049 0
M  V30 80 H 5.9074 2.50877 4.31117 0
M  V30 81 H 5.0614 0.870762 6.00419 0
M  V30 82 H 3.8004 0.316887 4.86669 0
M  V30 83 H 2.8054 2.6215 4.83278 0
M  V30 84 H 4.0304 3.17216 6.00459 0
M  V30 85 H 1.9764 0.980454 6.48632 0
M  V30 86 H 1.8934 2.59956 7.09901 0
M  V30 87 H 3.1614 1.54115 7.64113 0
M  V30 88 N 7.3905 -1.2043 1.01659 0
M  V30 89 C 8.6365 -1.90079 0.706963 0
M  V30 90 C 8.9695 -1.78648 -0.761474 0
M  V30 91 O 8.2445 -1.17069 -1.55323 0
M  V30 92 C 8.5275 -3.41469 1.14327 0
M  V30 93 C 8.3805 -3.61833 2.67201 0
M  V30 94 C 9.6995 -4.34261 0.714529 0
M  V30 95 H 6.8185 -0.690254 0.2583 0
M  V30 96 H 9.4605 -1.41826 1.26433 0
M  V30 97 H 7.6105 -3.82696 0.669056 0
M  V30 98 H 9.2825 -3.2986 3.22475 0
M  V30 99 H 7.5255 -3.05304 3.08175 0
M  V30 100 H 8.1965 -4.67955 2.92783 0
M  V30 101 H 10.6725 -4.00682 1.12221 0
M  V30 102 H 9.5485 -5.38806 1.04784 0
M  V30 103 H 9.8095 -4.40431 -0.383799 0
M  V30 104 N 8.8686 -0.792821 -1.36206 0
M  V30 105 C 10.0966 -0.378825 -2.03402 0
M  V30 106 C 10.5116 1.00586 -1.59774 0
M  V30 107 O 9.8686 1.64574 -0.788764 0
M  V30 108 C 9.9196 -0.43683 -3.58851 0
M  V30 109 O 9.6406 -1.76691 -4.00889 0
M  V30 110 C 11.1416 -0.0138943 -4.43298 0
M  V30 111 H 8.3616 -0.155673 -0.652692 0
M  V30 112 H 10.9056 -1.07261 -1.74113 0
M  V30 113 H 9.0606 0.208575 -3.86838 0
M  V30 114 H 9.4746 -1.72011 -4.95492 0
M  V30 115 H 10.9486 -0.105615 -5.51899 0
M  V30 116 H 11.4256 1.03915 -4.2673 0
M  V30 117 H 12.0316 -0.63192 -4.20579 0
M  V30 118 N 10.3467 1.47872 -0.545128 0
M  V30 119 C 11.2767 2.32661 0.197793 0
M  V30 120 C 12.2577 1.43041 0.920504 0
M  V30 121 O 13.4427 1.71912 0.90333 0
M  V30 122 C 10.5727 3.24569 1.23582 0
M  V30 123 C 9.5267 4.23333 0.630323 0
M  V30 124 C 8.8527 5.0448 1.77211 0
M  V30 125 C 10.1527 5.20704 -0.407974 0
M  V30 126 H 11.8467 2.95024 -0.510045 0
M  V30 127 H 9.3927 1.4187 -0.246731 0
M  V30 128 H 11.3457 3.8272 1.76362 0
M  V30 129 H 10.0697 2.60236 1.97344 0
M  V30 130 H 8.7287 3.6639 0.123922 0
M  V30 131 H 8.3767 4.36561 2.49847 0
M  V30 132 H 8.0767 5.71339 1.37281 0
M  V30 133 H 9.6007 5.65487 2.3034 0
M  V30 134 H 11.0147 5.7329 0.033305 0
M  V30 135 H 9.4117 5.95699 -0.725486 0
M  V30 136 H 10.4817 4.66917 -1.30828 0
M  V30 137 N 11.8248 0.280983 1.55075 0
M  V30 138 C 12.7728 -0.619864 2.24188 0
M  V30 139 C 13.7668 -1.15315 1.24092 0
M  V30 140 O 14.9728 -1.1061 1.42005 0
M  V30 141 H 11.3478 -0.218459 0.719569 0
M  V30 142 H 13.3188 -0.0141831 2.98397 0
M  V30 143 C 12.0678 -1.7899 2.98091 0
M  V30 144 H 11.3908 -1.38874 3.74905 0
M  V30 145 H 12.8308 -2.39672 3.49762 0
M  V30 146 C 11.2898 -2.68192 2.03899 0
M  V30 147 O 11.8198 -3.6872 1.594 0
M  V30 148 N 10.0258 -2.35488 1.70275 0
M  V30 149 H 9.5728 -1.53787 2.06658 0
M  V30 150 H 9.5308 -2.95442 1.07524 0
M  V30 151 N 13.3029 -1.57598 0.00835791 0
M  V30 152 C 14.2509 -2.10078 -0.998508 0
M  V30 153 C 15.2449 -1.02262 -1.35051 0
M  V30 154 O 16.4509 -1.20719 -1.33518 0
M  V30 155 H 12.8259 -0.670903 -0.339696 0
M  V30 156 H 14.7969 -2.93648 -0.530398 0
M  V30 157 C 13.5459 -2.62615 -2.27879 0
M  V30 158 H 12.8689 -3.45213 -2.01662 0
M  V30 159 H 14.3089 -3.03004 -2.96588 0
M  V30 160 C 12.7679 -1.54407 -2.99433 0
M  V30 161 O 13.2979 -0.931812 -3.90743 0
M  V30 162 N 11.5039 -1.2695 -2.61404 0
M  V30 163 H 11.0509 -1.76924 -1.87232 0
M  V30 164 H 11.0089 -0.547704 -3.09593 0
M  V30 165 N 14.781 0.264519 -1.55364 0
M  V30 166 C 16.029 0.993021 -1.76021 0
M  V30 167 C 16.35 1.86511 -0.569099 0
M  V30 168 O 15.62 1.91438 0.415735 0
M  V30 169 H 14.2 0.369639 -0.649135 0
M  V30 170 H 16.862 0.286707 -1.9278 0
M  V30 171 H 15.958 1.62502 -2.66457 0
M  V30 172 N 16.2591 1.48442 0.529413 0
M  V30 173 C 17.5051 1.5672 1.28711 0
M  V30 174 C 17.8381 0.2406 1.92704 0
M  V30 175 O 17.1131 -0.753454 1.79313 0
M  V30 176 C 17.3961 2.70587 2.37603 0
M  V30 177 C 17.2491 4.12953 1.78297 0
M  V30 178 C 18.5681 2.80212 3.39366 0
M  V30 179 H 15.6871 0.570474 0.466613 0
M  V30 180 H 18.3291 1.80617 0.589706 0
M  V30 181 H 16.4791 2.50342 2.97088 0
M  V30 182 H 18.1511 4.44639 1.22858 0
M  V30 183 H 16.3941 4.19927 1.0883 0
M  V30 184 H 17.0651 4.88448 2.57144 0
M  V30 185 H 19.5411 2.98553 2.89836 0
M  V30 186 H 18.4171 3.61611 4.12951 0
M  V30 187 H 18.6781 1.88393 3.99951 0
M  V30 188 N 17.7372 -0.778329 1.37039 0
M  V30 189 C 18.6472 -1.92253 1.34446 0
M  V30 190 C 19.6632 -1.72267 0.244991 0
M  V30 191 O 20.8392 -1.95615 0.479258 0
M  V30 192 C 17.9042 -3.27282 1.144 0
M  V30 193 C 16.9652 -3.59969 2.33925 0
M  V30 194 C 16.1982 -4.88555 2.14825 0
M  V30 195 O 16.4212 -5.59113 1.12912 0
M  V30 196 O 15.3552 -5.20153 3.02861 0
M  V30 197 H 19.1812 -1.97392 2.30803 0
M  V30 198 H 16.7662 -0.920154 1.17701 0
M  V30 199 H 18.6482 -4.08062 1.05182 0
M  V30 200 H 17.3232 -3.23011 0.211124 0
M  V30 201 H 16.2302 -2.7945 2.48714 0
M  V30 202 H 17.5632 -3.68976 3.25757 0
M  V30 203 N 19.2153 -1.21501 -1.00376 0
M  V30 204 C 20.1483 -0.918669 -2.08892 0
M  V30 205 C 21.1263 0.134277 -1.62045 0
M  V30 206 O 22.3103 0.00504255 -1.88499 0
M  V30 207 C 19.4373 -0.379645 -3.36566 0
M  V30 208 C 18.4833 -1.41559 -4.02323 0
M  V30 209 S 19.3163 -2.98521 -4.44574 0
M  V30 210 C 20.4723 -2.46228 -5.75433 0
M  V30 211 H 20.7053 -1.83761 -2.33707 0
M  V30 212 H 18.2383 -1.04489 -1.13673 0
M  V30 213 H 20.1963 -0.0752195 -4.10431 0
M  V30 214 H 18.8573 0.518008 -3.09799 0
M  V30 215 H 18.0503 -0.988076 -4.9422 0
M  V30 216 H 17.6523 -1.66815 -3.34737 0
M  V30 217 H 19.9443 -1.86791 -6.51241 0
M  V30 218 H 20.8873 -3.36572 -6.22997 0
M  V30 219 H 21.2953 -1.87894 -5.32312 0
M  V30 220 N 20.6934 1.19889 -1.02296 0
M  V30 221 C 22.1044 1.71124 -0.746568 0
M  V30 222 C 22.4554 1.81939 0.734335 0
M  V30 223 O 21.5804 1.48639 1.57275 0
M  V30 224 C 22.1754 3.10804 -1.34857 0
M  V30 225 C 20.7344 3.59323 -1.1209 0
M  V30 226 C 19.8814 2.3635 -1.45031 0
M  V30 227 H 22.8324 1.04813 -1.19163 0
M  V30 228 H 22.8534 3.73186 -0.742437 0
M  V30 229 H 22.3654 3.029 -2.42638 0
M  V30 230 H 20.4664 3.7255 -0.0610337 0
M  V30 231 H 20.5794 4.4378 -1.80544 0
M  V30 232 H 18.9434 2.39399 -0.869487 0
M  V30 233 H 19.7264 2.31081 -2.53883 0
M  V30 234 N 22.1715 0.800033 1.35784 0
M  V30 235 C 23.4205 0.37387 1.98205 0
M  V30 236 C 23.7335 -1.06302 1.64193 0
M  V30 237 O 24.9395 -1.59198 2.19928 0
M  V30 238 C 23.3955 0.617532 3.54562 0
M  V30 239 C 23.0035 2.06654 3.9749 0
M  V30 240 C 24.7475 0.256401 4.23725 0
M  V30 241 C 22.6545 2.2563 5.46667 0
M  V30 242 H 21.5845 0.136055 0.741623 0
M  V30 243 H 24.2355 0.983166 1.54939 0
M  V30 244 H 22.6175 -0.0616248 3.95952 0
M  V30 245 H 23.7915 2.78296 3.67271 0
M  V30 246 H 22.1065 2.38691 3.41197 0
M  V30 247 H 24.7035 0.376318 5.33374 0
M  V30 248 H 25.0465 -0.796692 4.08606 0
M  V30 249 H 25.5795 0.889214 3.87734 0
M  V30 250 H 22.3185 3.2936 5.66747 0
M  V30 251 H 21.8385 1.58504 5.78478 0
M  V30 252 H 23.5175 2.06861 6.1304 0
M  V30 253 N 23.6496 -1.47581 0.552962 0
M  V30 254 C 24.5796 -2.32762 -0.185451 0
M  V30 255 C 25.5606 -1.43527 -0.912905 0
M  V30 256 O 26.7456 -1.72388 -0.894201 0
M  V30 257 C 23.8756 -3.25219 -1.21859 0
M  V30 258 C 22.8296 -4.23661 -0.607864 0
M  V30 259 C 22.1556 -5.05413 -1.74533 0
M  V30 260 C 23.4556 -5.20481 0.435582 0
M  V30 261 H 25.1496 -2.94749 0.525684 0
M  V30 262 H 22.6956 -1.41738 0.254251 0
M  V30 263 H 24.6486 -3.8365 -1.7433 0
M  V30 264 H 23.3726 -2.61279 -1.95961 0
M  V30 265 H 22.0316 -3.66451 -0.104489 0
M  V30 266 H 21.6796 -4.3788 -2.47529 0
M  V30 267 H 21.3796 -5.72059 -1.34249 0
M  V30 268 H 22.9036 -5.66701 -2.27338 0
M  V30 269 H 24.3176 -5.733 -0.00290157 0
M  V30 270 H 22.7146 -5.95305 0.757067 0
M  V30 271 H 23.7846 -4.66217 1.33303 0
M  V30 272 N 25.1277 -0.289203 -1.54924 0
M  V30 273 C 26.3757 0.322879 -1.99504 0
M  V30 274 C 26.6967 1.55313 -1.1791 0
M  V30 275 O 25.9667 1.94001 -0.272097 0
M  V30 276 H 24.5467 0.122291 -0.736922 0
M  V30 277 H 27.2087 -0.397802 -1.90797 0
M  V30 278 H 26.3047 0.603061 -3.06218 0
M  V30 279 N 26.6058 1.57591 -0.0167156 0
M  V30 280 C 27.8358 1.95292 0.674149 0
M  V30 281 C 28.2438 0.891097 1.66901 0
M  V30 282 O 27.5868 -0.136908 1.83189 0
M  V30 283 C 27.6488 3.29072 1.44747 0
M  V30 284 C 27.3128 4.52879 0.612331 0
M  V30 285 C 28.3098 5.1979 -0.107126 0
M  V30 286 C 25.9948 4.99242 0.553381 0
M  V30 287 C 27.9888 6.31375 -0.874339 0
M  V30 288 C 25.6758 6.10713 -0.217546 0
M  V30 289 C 26.6738 6.76637 -0.930123 0
M  V30 290 O 26.3618 7.85969 -1.68844 0
M  V30 291 H 26.0938 0.648275 0.191615 0
M  V30 292 H 28.6478 2.05284 -0.0690148 0
M  V30 293 H 26.8778 3.15535 2.2355 0
M  V30 294 H 28.5668 3.51764 2.02526 0
M  V30 295 H 29.3328 4.84948 -0.0708392 0
M  V30 296 H 25.2118 4.47744 1.09757 0
M  V30 297 H 28.7558 6.82764 -1.43106 0
M  V30 298 H 24.6528 6.44994 -0.255593 0
M  V30 299 H 25.4208 8.02571 -1.6069 0
M  V30 300 N 28.0839 -0.256276 1.55502 0
M  V30 301 C 29.3319 -0.983672 1.76545 0
M  V30 302 C 29.6529 -1.86206 0.578982 0
M  V30 303 O 28.9229 -1.91656 -0.405577 0
M  V30 304 H 27.5029 -0.366191 0.651086 0
M  V30 305 H 30.1649 -0.276479 1.92929 0
M  V30 306 H 29.2609 -1.61087 2.67315 0
M  V30 307 N 29.562 -1.4872 -0.521534 0
M  V30 308 C 30.808 -1.574 -1.27879 0
M  V30 309 C 31.141 -0.250817 -1.92573 0
M  V30 310 O 30.416 0.743934 -1.79711 0
M  V30 311 C 30.699 -2.71843 -2.36164 0
M  V30 312 C 30.552 -4.13893 -1.76105 0
M  V30 313 C 31.871 -2.82008 -3.37875 0
M  V30 314 H 28.99 -0.572941 -0.463581 0
M  V30 315 H 31.632 -1.80927 -0.580119 0
M  V30 316 H 29.782 -2.51914 -2.95756 0
M  V30 317 H 31.454 -4.45284 -1.20499 0
M  V30 318 H 29.697 -4.20498 -1.06601 0
M  V30 319 H 30.368 -4.89804 -2.5455 0
M  V30 320 H 32.844 -3.00086 -2.88249 0
M  V30 321 H 31.72 -3.63796 -4.11028 0
M  V30 322 H 31.981 -1.90511 -3.98946 0
M  V30 323 N 31.0401 0.771051 -1.3745 0
M  V30 324 C 32.2871 1.52963 -1.32697 0
M  V30 325 C 32.6151 1.94299 0.0883274 0
M  V30 326 O 31.8701 1.64397 1.0617 0
M  V30 327 C 32.1691 2.80676 -2.2126 0
M  V30 328 C 31.8351 2.58389 -3.69521 0
M  V30 329 C 30.4971 2.52019 -4.09927 0
M  V30 330 C 32.8491 2.38469 -4.63446 0
M  V30 331 C 30.1771 2.23721 -5.42371 0
M  V30 332 C 32.5291 2.11694 -5.96128 0
M  V30 333 C 31.1931 2.03769 -6.35637 0
M  V30 334 H 30.4631 0.559732 -0.485573 0
M  V30 335 H 33.1101 0.888083 -1.69662 0
M  V30 336 H 31.4151 3.49392 -1.77291 0
M  V30 337 H 33.1121 3.38557 -2.14895 0
M  V30 338 H 29.7021 2.6421 -3.37478 0
M  V30 339 H 33.8861 2.4238 -4.33089 0
M  V30 340 H 29.1421 2.16081 -5.71943 0
M  V30 341 H 33.3161 1.9528 -6.6846 0
M  V30 342 H 30.9431 1.81606 -7.38189 0
M  V30 343 N 32.5182 1.22032 0.997298 0
M  V30 344 C 33.4502 0.944263 2.08845 0
M  V30 345 C 34.4632 -0.0754663 1.62625 0
M  V30 346 O 35.6522 0.157994 1.77799 0
M  V30 347 C 32.7522 0.397723 3.36558 0
M  V30 348 C 31.9252 1.47362 4.11829 0
M  V30 349 C 30.9842 0.934951 5.17827 0
M  V30 350 O 30.0102 1.62016 5.45655 0
M  V30 351 N 31.2122 -0.245895 5.79979 0
M  V30 352 H 33.9772 1.88363 2.33109 0
M  V30 353 H 31.5382 1.12661 1.16272 0
M  V30 354 H 33.5302 0.0227771 4.04694 0
M  V30 355 H 32.1002 -0.446646 3.09393 0
M  V30 356 H 31.3202 2.02208 3.38386 0
M  V30 357 H 32.6082 2.19764 4.58891 0
M  V30 358 H 32.0062 -0.819475 5.59733 0
M  V30 359 H 30.5632 -0.562272 6.4937 0
M  V30 360 N 33.9963 -1.19345 1.0293 0
M  V30 361 C 35.2453 -1.88363 0.721256 0
M  V30 362 C 35.5583 -1.80514 -0.753254 0
M  V30 363 O 36.7643 -2.44788 -1.17436 0
M  V30 364 C 35.2203 -3.37872 1.23978 0
M  V30 365 C 34.8283 -3.54278 2.74211 0
M  V30 366 C 36.5723 -4.12365 1.00775 0
M  V30 367 C 34.4793 -4.97682 3.19479 0
M  V30 368 H 33.4093 -0.705484 0.266098 0
M  V30 369 H 36.0603 -1.34928 1.24365 0
M  V30 370 H 34.4423 -3.90707 0.6453 0
M  V30 371 H 35.6163 -3.11769 3.39318 0
M  V30 372 H 33.9313 -2.93174 2.95699 0
M  V30 373 H 36.5283 -5.18119 1.32123 0
M  V30 374 H 36.8713 -4.16263 -0.0554308 0
M  V30 375 H 37.4043 -3.65668 1.56625 0
M  V30 376 H 34.1433 -4.98945 4.25128 0
M  V30 377 H 33.6633 -5.4095 2.591 0
M  V30 378 H 35.3423 -5.66337 3.12845 0
M  V30 379 N 35.4744 -0.807222 -1.35358 0
M  V30 380 C 36.8854 -0.44876 -1.81226 0
M  V30 381 C 37.2364 1.02929 -1.67033 0
M  V30 382 O 36.3614 1.79991 -1.20133 0
M  V30 383 C 36.9564 -0.807774 -3.2903 0
M  V30 384 C 35.5154 -0.501901 -3.73039 0
M  V30 385 C 34.6624 -1.03304 -2.57339 0
M  V30 386 H 37.6134 -0.998808 -1.23327 0
M  V30 387 H 37.6344 -0.10554 -3.80354 0
M  V30 388 H 37.1464 -1.88357 -3.39328 0
M  V30 389 H 35.2474 0.565128 -3.68289 0
M  V30 390 H 35.3604 -1.03497 -4.67787 0
M  V30 391 H 33.7244 -0.455339 -2.50597 0
M  V30 392 H 34.5074 -2.11496 -2.70415 0
M  V30 393 N 36.9525 1.47285 -0.560781 0
M  V30 394 C 38.3635 1.86258 -0.128343 0
M  V30 395 C 38.7145 1.46699 1.30284 0
M  V30 396 O 37.8395 0.871698 1.98067 0
M  V30 397 C 38.4345 3.38044 -0.22614 0
M  V30 398 C 36.9935 3.76096 0.151283 0
M  V30 399 C 36.1405 2.71335 -0.572084 0
M  V30 400 H 39.0915 1.38752 -0.770297 0
M  V30 401 H 39.1125 3.76441 0.554322 0
M  V30 402 H 38.6245 3.66806 -1.26788 0
M  V30 403 H 36.7255 3.52951 1.19399 0
M  V30 404 H 36.8385 4.78641 -0.209765 0
M  V30 405 H 35.2025 2.54696 -0.0147653 0
M  V30 406 H 35.9855 3.02938 -1.61504 0
M  V30 407 N 38.4306 0.297415 1.54768 0
M  V30 408 C 39.3406 -0.58983 2.27064 0
M  V30 409 C 40.3566 -1.15144 1.30453 0
M  V30 410 O 41.5326 -1.17699 1.63428 0
M  V30 411 C 38.5976 -1.74714 2.9946 0
M  V30 412 C 37.6586 -1.21997 4.11601 0
M  V30 413 C 36.8916 -2.32212 4.80535 0
M  V30 414 O 37.1146 -3.52036 4.48806 0
M  V30 415 O 36.0486 -1.99106 5.68014 0
M  V30 416 H 39.8746 -0.00348199 3.037 0
M  V30 417 H 37.4596 0.0640035 1.49263 0
M  V30 418 H 39.3416 -2.42147 3.44881 0
M  V30 419 H 38.0166 -2.32016 2.25722 0
M  V30 420 H 36.9236 -0.511458 3.70587 0
M  V30 421 H 38.2566 -0.692419 4.87305 0
M  V30 422 N 39.9087 -1.5758 0.0250728 0
M  V30 423 C 40.8557 -2.09973 -0.958129 0
M  V30 424 C 41.8257 -1.00085 -1.3256 0
M  V30 425 O 43.0107 -1.27481 -1.41962 0
M  V30 426 C 40.1507 -2.62812 -2.2366 0
M  V30 427 C 39.2637 -3.86693 -1.92594 0
M  V30 428 C 38.3987 -4.27941 -3.14707 0
M  V30 429 C 37.4377 -5.44591 -2.79442 0
M  V30 430 N 36.5747 -5.81014 -3.94167 0
M  V30 431 H 41.4147 -2.937 -0.504428 0
M  V30 432 H 38.9517 -1.45172 -0.237392 0
M  V30 433 H 40.9097 -2.91536 -2.98434 0
M  V30 434 H 39.5397 -1.81922 -2.66654 0
M  V30 435 H 38.5917 -3.64723 -1.0808 0
M  V30 436 H 39.9037 -4.71547 -1.62619 0
M  V30 437 H 39.0577 -4.58079 -3.97804 0
M  V30 438 H 37.7967 -3.41845 -3.4784 0
M  V30 439 H 36.8017 -5.1415 -1.94755 0
M  V30 440 H 38.0267 -6.32382 -2.47528 0
M  V30 441 H 35.9727 -4.97874 -4.2715 0
M  V30 442 H 35.8897 -6.60498 -3.67801 0
M  V30 443 H 37.1577 -6.15756 -4.7798 0
M  V30 444 N 41.3868 0.248026 -1.55636 0
M  V30 445 C 42.6148 0.993808 -1.81469 0
M  V30 446 C 43.0298 1.78991 -0.60064 0
M  V30 447 O 42.3868 1.77345 0.430682 0
M  V30 448 C 42.4378 1.93258 -3.05506 0
M  V30 449 O 42.1588 1.16869 -4.22224 0
M  V30 450 C 43.6598 2.79444 -3.4413 0
M  V30 451 H 40.8798 0.292486 -0.603898 0
M  V30 452 H 43.4238 0.271253 -2.02693 0
M  V30 453 H 41.5788 2.60943 -2.86335 0
M  V30 454 H 41.9928 1.80359 -4.92515 0
M  V30 455 H 43.4668 3.41066 -4.34026 0
M  V30 456 H 43.9438 3.50499 -2.64665 0
M  V30 457 H 44.5498 2.17214 -3.65648 0
M  V30 458 N 42.8649 1.48995 0.513639 0
M  V30 459 C 43.7749 1.67443 1.64317 0
M  V30 460 C 44.7909 0.556947 1.64846 0
M  V30 461 O 45.9669 0.830082 1.83498 0
M  V30 462 C 43.0319 1.72515 3.00732 0
M  V30 463 C 42.0929 2.96009 3.1093 0
M  V30 464 C 41.3259 3.00829 4.40837 0
M  V30 465 O 41.5489 2.13594 5.28898 0
M  V30 466 O 40.4829 3.93168 4.55744 0
M  V30 467 H 44.3089 2.63106 1.51687 0
M  V30 468 H 41.8939 1.32588 0.688543 0
M  V30 469 H 43.7759 1.78277 3.81831 0
M  V30 470 H 42.4509 0.800278 3.13651 0
M  V30 471 H 41.3579 2.9577 2.29065 0
M  V30 472 H 42.6909 3.87934 3.02933 0
M  V30 473 N 44.343 -0.763751 1.37857 0
M  V30 474 C 45.253 -1.90817 1.36478 0
M  V30 475 C 46.269 -1.71997 0.263248 0
M  V30 476 O 47.445 -1.95095 0.499979 0
M  V30 477 C 44.51 -3.2605 1.17864 0
M  V30 478 C 43.571 -3.57467 2.3773 0
M  V30 479 C 42.804 -4.86249 2.19995 0
M  V30 480 O 43.027 -5.57884 1.18836 0
M  V30 481 O 41.961 -5.16911 3.08361 0
M  V30 482 H 45.787 -1.94933 2.32884 0
M  V30 483 H 43.372 -0.907619 1.1867 0
M  V30 484 H 45.254 -4.06924 1.09504 0
M  V30 485 H 43.929 -3.22769 0.245372 0
M  V30 486 H 42.836 -2.76796 2.51664 0
M  V30 487 H 44.169 -3.655 3.29652 0
M  V30 488 N 45.8211 -1.22559 -0.990812 0
M  V30 489 C 47.0611 -1.06302 -1.74583 0
M  V30 490 C 47.4251 0.394737 -1.87898 0
M  V30 491 O 48.6261 0.678214 -2.60103 0
M  V30 492 C 46.8971 -1.75699 -3.11231 0
M  V30 493 S 48.4561 -1.74882 -4.02445 0
M  V30 494 H 45.2741 -0.380639 -0.600529 0
M  V30 495 H 47.8761 -1.55532 -1.18449 0
M  V30 496 H 46.5801 -2.80923 -2.99183 0
M  V30 497 H 46.1111 -1.26708 -3.72436 0
M  V30 498 H 48.1261 -0.799997 -4.89709 0
M  V30 499 N 47.2992 1.18797 -1.03562 0
M  V30 500 C 48.5452 1.8893 -0.737113 0
M  V30 501 C 48.8782 1.79837 0.732956 0
M  V30 502 O 48.1532 1.19525 1.5344 0
M  V30 503 C 48.4362 3.39607 -1.19745 0
M  V30 504 C 48.2892 3.57537 -2.72924 0
M  V30 505 C 49.6082 4.33069 -0.783526 0
M  V30 506 H 46.7272 0.686057 -0.269249 0
M  V30 507 H 49.3692 1.39797 -1.28673 0
M  V30 508 H 47.5192 3.81583 -0.729855 0
M  V30 509 H 49.1912 3.24688 -3.27682 0
M  V30 510 H 47.4342 3.00363 -3.12993 0
M  V30 511 H 48.1052 4.63238 -3.00191 0
M  V30 512 H 50.5812 3.98846 -1.18581 0
M  V30 513 H 49.4572 5.3707 -1.13343 0
M  V30 514 H 49.7182 4.40986 0.313681 0
M  V30 515 N 48.7773 0.814389 1.34928 0
M  V30 516 C 50.0073 0.41054 2.0248 0
M  V30 517 C 50.4153 -0.985625 1.61499 0
M  V30 518 O 49.7583 -1.64781 0.811976 0
M  V30 519 C 49.8203 0.423384 3.56998 0
M  V30 520 C 49.4843 1.77141 4.21272 0
M  V30 521 C 50.4813 2.73093 4.42398 0
M  V30 522 C 48.1663 2.05755 4.58225 0
M  V30 523 C 50.1603 3.95838 4.9959 0
M  V30 524 C 47.8473 3.28762 5.1513 0
M  V30 525 C 48.8453 4.23621 5.35755 0
M  V30 526 O 48.5333 5.44456 5.91458 0
M  V30 527 H 48.2653 0.163997 0.655806 0
M  V30 528 H 50.8193 1.10155 1.73364 0
M  V30 529 H 49.0493 -0.324276 3.85338 0
M  V30 530 H 50.7383 0.0407683 4.0588 0
M  V30 531 H 51.5043 2.5228 4.14222 0
M  V30 532 H 47.3833 1.32727 4.4148 0
M  V30 533 H 50.9273 4.69891 5.15605 0
M  V30 534 H 46.8243 3.49443 5.42734 0
M  V30 535 H 47.5923 5.4586 6.09901 0
M  V30 536 N 50.2554 -1.46986 0.568584 0
M  V30 537 C 51.1654 -2.33942 -0.17555 0
M  V30 538 C 52.1814 -1.48891 -0.90041 0
M  V30 539 O 53.3574 -1.81794 -0.86676 0
M  V30 540 C 50.4224 -3.25811 -1.18524 0
M  V30 541 C 49.4834 -4.26757 -0.466582 0
M  V30 542 C 48.7164 -5.14236 -1.42817 0
M  V30 543 O 48.9394 -5.04379 -2.66379 0
M  V30 544 O 47.8734 -5.94412 -0.946453 0
M  V30 545 H 51.6994 -2.98896 0.538036 0
M  V30 546 H 49.2844 -1.4573 0.329097 0
M  V30 547 H 51.1664 -3.82527 -1.76779 0
M  V30 548 H 49.8414 -2.63471 -1.88055 0
M  V30 549 H 48.7484 -3.73769 0.157451 0
M  V30 550 H 50.0814 -4.91843 0.187485 0
M  V30 551 N 51.7335 -0.305618 -1.54608 0
M  V30 552 C 52.6965 0.555591 -2.22364 0
M  V30 553 C 53.6965 1.05768 -1.21119 0
M  V30 554 O 54.8865 0.952972 -1.45822 0
M  V30 555 C 52.0185 1.76974 -2.91364 0
M  V30 556 H 53.2115 -0.0364572 -2.99878 0
M  V30 557 H 50.7645 -0.0565007 -1.56198 0
M  V30 558 H 51.4995 2.40151 -2.17941 0
M  V30 559 H 51.2845 1.41732 -3.65588 0
M  V30 560 H 52.7745 2.38148 -3.43038 0
M  V30 561 N 53.2116 1.57565 -0.0334293 0
M  V30 562 C 54.4606 1.91155 0.643639 0
M  V30 563 C 54.7736 0.91192 1.73042 0
M  V30 564 O 55.9796 1.13923 2.46442 0
M  V30 565 C 54.4356 3.39443 1.1961 0
M  V30 566 C 54.0436 4.47774 0.142381 0
M  V30 567 C 55.7876 3.82094 1.84944 0
M  V30 568 C 53.6946 5.87162 0.706727 0
M  V30 569 H 52.6246 0.713368 0.244176 0
M  V30 570 H 55.2756 1.8323 -0.0994323 0
M  V30 571 H 53.6576 3.42313 1.99092 0
M  V30 572 H 54.8316 4.56469 -0.630296 0
M  V30 573 H 53.1466 4.14352 -0.412446 0
M  V30 574 H 55.7436 4.83591 2.2813 0
M  V30 575 H 56.0866 3.17386 2.69392 0
M  V30 576 H 56.6196 3.81665 1.12145 0
M  V30 577 H 53.3586 6.55424 -0.0997178 0
M  V30 578 H 52.8786 5.82064 1.44779 0
M  V30 579 H 54.5576 6.35866 1.19514 0
M  V30 580 N 54.6897 -0.239769 1.55765 0
M  V30 581 C 55.6367 -1.29696 1.90913 0
M  V30 582 C 56.6067 -1.47478 0.764164 0
M  V30 583 O 57.7917 -1.61345 1.01845 0
M  V30 584 C 54.9317 -2.64598 2.21544 0
M  V30 585 C 54.0447 -2.54765 3.48882 0
M  V30 586 C 53.1797 -3.82069 3.69049 0
M  V30 587 C 52.2187 -3.66883 4.89963 0
M  V30 588 N 51.3557 -4.86094 5.06614 0
M  V30 589 H 56.1957 -0.990224 2.81067 0
M  V30 590 H 53.7327 -0.477684 1.39128 0
M  V30 591 H 55.6907 -3.43132 2.3731 0
M  V30 592 H 54.3207 -2.93405 1.34585 0
M  V30 593 H 53.3727 -1.67763 3.41409 0
M  V30 594 H 54.6847 -2.39457 4.37563 0
M  V30 595 H 53.8387 -4.69046 3.84812 0
M  V30 596 H 52.5777 -4.00282 2.78614 0
M  V30 597 H 51.5827 -2.78289 4.74168 0
M  V30 598 H 52.8077 -3.50157 5.81865 0
M  V30 599 H 50.7537 -5.04655 4.19117 0
M  V30 600 H 50.6707 -4.73443 5.89396 0
M  V30 601 H 51.9387 -5.74549 5.26795 0
M  V30 602 N 56.1678 -1.49265 -0.50573 0
M  V30 603 C 57.4138 -1.58748 -1.26202 0
M  V30 604 C 57.7468 -0.271227 -1.92297 0
M  V30 605 O 57.0218 0.724831 -1.80489 0
M  V30 606 C 57.3048 -2.74332 -2.33268 0
M  V30 607 C 57.1578 -4.15737 -1.71705 0
M  V30 608 C 58.4768 -2.85576 -3.34865 0
M  V30 609 H 55.5958 -0.577826 -0.457478 0
M  V30 610 H 58.2378 -1.81532 -0.560897 0
M  V30 611 H 56.3878 -2.55036 -2.93068 0
M  V30 612 H 58.0598 -4.46537 -1.15769 0
M  V30 613 H 56.3028 -4.21605 -1.02135 0
M  V30 614 H 56.9738 -4.92477 -2.49341 0
M  V30 615 H 59.4498 -3.03127 -2.8505 0
M  V30 616 H 58.3258 -3.68135 -4.07146 0
M  V30 617 H 58.5868 -1.94732 -3.96903 0
M  V30 618 N 57.6459 0.756429 -1.3826 0
M  V30 619 C 58.8939 1.51248 -1.34047 0
M  V30 620 C 59.2149 1.94875 0.0698372 0
M  V30 621 O 58.4849 1.67436 1.01696 0
M  V30 622 H 57.0649 0.561018 -0.493222 0
M  V30 623 H 59.7269 0.899347 -1.7291 0
M  V30 624 H 58.8229 2.40472 -1.98947 0
M  V30 625 N 59.124 1.23083 0.984299 0
M  V30 626 C 60.354 1.08556 1.75781 0
M  V30 627 C 60.762 -0.366171 1.85623 0
M  V30 628 O 60.105 -1.26524 1.33182 0
M  V30 629 C 60.167 1.63208 3.20318 0
M  V30 630 C 59.831 3.11922 3.33997 0
M  V30 631 C 60.828 4.09259 3.2063 0
M  V30 632 C 58.513 3.51552 3.58771 0
M  V30 633 C 60.507 5.4421 3.31835 0
M  V30 634 C 58.194 4.86649 3.69616 0
M  V30 635 C 59.192 5.82787 3.56157 0
M  V30 636 O 58.88 7.15431 3.66626 0
M  V30 637 H 58.612 0.380713 0.5586 0
M  V30 638 H 61.166 1.63321 1.2456 0
M  V30 639 H 59.396 1.0286 3.72769 0
M  V30 640 H 61.085 1.44216 3.79416 0
M  V30 641 H 61.851 3.79984 3.01392 0
M  V30 642 H 57.73 2.77239 3.6832 0
M  V30 643 H 61.274 6.1923 3.21247 0
M  V30 644 H 57.171 5.15601 3.88363 0
M  V30 645 H 57.939 7.23127 3.83445 0
M  V30 646 N 60.6021 -1.18246 1.0419 0
M  V30 647 C 62.0181 -1.40269 0.761366 0
M  V30 648 C 62.2181 -1.90777 -0.648578 0
M  V30 649 O 61.2741 -2.0929 -1.41258 0
M  V30 650 C 62.5871 -2.40237 1.8085 0
M  V30 651 C 64.1351 -2.53961 1.82955 0
M  V30 652 C 64.6101 -3.57194 2.86664 0
M  V30 653 N 66.1011 -3.64702 2.85563 0
M  V30 654 C 66.8361 -4.44309 3.6246 0
M  V30 655 N 66.3321 -5.27514 4.49111 0
M  V30 656 N 68.1251 -4.39084 3.50944 0
M  V30 657 H 60.2761 -0.837882 1.95175 0
M  V30 658 H 62.5391 -0.430608 0.84456 0
M  V30 659 H 62.2451 -2.10176 2.81991 0
M  V30 660 H 62.1191 -3.39601 1.64168 0
M  V30 661 H 64.5061 -2.83338 0.824855 0
M  V30 662 H 64.5871 -1.54706 2.03715 0
M  V30 663 H 64.2311 -3.28558 3.87314 0
M  V30 664 H 64.1611 -4.5613 2.6316 0
M  V30 665 H 66.6521 -3.05289 2.22727 0
M  V30 666 H 66.9651 -5.85411 5.04493 0
M  V30 667 H 65.3101 -5.2693 4.53178 0
M  V30 668 H 68.5011 -3.7313 2.82651 0
M  V30 669 H 68.6741 -5.00883 4.11121 0
M  V30 670 N 62.0802 -0.821533 -1.34494 0
M  V30 671 C 63.0102 -0.257138 -2.3208 0
M  V30 672 C 63.9912 0.625645 -1.58176 0
M  V30 673 O 65.1762 0.552811 -1.86166 0
M  V30 674 C 62.3062 0.582958 -3.42372 0
M  V30 675 C 61.2602 -0.202571 -4.2752 0
M  V30 676 C 60.5862 0.760179 -5.29269 0
M  V30 677 C 61.8862 -1.40998 -5.02908 0
M  V30 678 H 63.5802 -1.07247 -2.79532 0
M  V30 679 H 61.1262 -0.517163 -1.34393 0
M  V30 680 H 63.0792 0.987972 -4.09655 0
M  V30 681 H 61.8032 1.43133 -2.93565 0
M  V30 682 H 60.4622 -0.588936 -3.61838 0
M  V30 683 H 60.1102 1.60447 -4.76724 0
M  V30 684 H 59.8102 0.238809 -5.87115 0
M  V30 685 H 61.3342 1.16308 -5.9942 0
M  V30 686 H 62.7482 -1.07905 -5.63054 0
M  V30 687 H 61.1452 -1.86689 -5.70322 0
M  V30 688 H 62.2152 -2.1889 -4.32684 0
M  V30 689 N 63.5583 1.46682 -0.576371 0
M  V30 690 C 64.8073 2.01619 -0.0572825 0
M  V30 691 C 65.1203 1.45417 1.30818 0
M  V30 692 O 66.3263 1.92133 1.91825 0
M  V30 693 C 64.7823 3.59863 -0.0518371 0
M  V30 694 C 64.3903 4.25059 -1.41523 0
M  V30 695 C 66.1343 4.2248 0.413639 0
M  V30 696 C 64.0413 5.75364 -1.36785 0
M  V30 697 H 62.9713 0.753794 -0.0176448 0
M  V30 698 H 65.6223 1.68481 -0.727076 0
M  V30 699 H 64.0043 3.90048 0.683994 0
M  V30 700 H 65.1783 4.06491 -2.17029 0
M  V30 701 H 63.4933 3.7451 -1.8202 0
M  V30 702 H 66.0903 5.3265 0.467779 0
M  V30 703 H 66.4333 3.90976 1.42982 0
M  V30 704 H 66.9663 3.96897 -0.267929 0
M  V30 705 H 63.7053 6.11518 -2.36063 0
M  V30 706 H 63.2253 5.96214 -0.654895 0
M  V30 707 H 64.9043 6.37955 -1.07805 0
M  V30 708 N 65.0364 0.313813 1.54444 0
M  V30 709 C 66.3134 -0.345447 1.92525 0
M  V30 710 C 66.6934 -1.70667 1.24242 0
M  V30 711 O 66.0414 -2.25273 0.382654 0
M  V30 712 C 66.2514 -0.44737 3.46121 0
M  V30 713 C 67.5994 -0.712238 4.18584 0
M  V30 714 O 68.6234 -0.530678 3.52225 0
M  V30 715 O 67.4824 -1.06183 5.36085 0
M  V30 716 H 64.5764 -0.195407 0.803583 0
M  V30 717 H 67.1224 0.362813 1.65776 0
M  V30 718 H 65.8944 0.509043 3.87975 0
M  V30 719 H 65.5174 -1.20359 3.78945 0
M  V30 720 N 66.5145 -1.57545 0.0417849 0
M  V30 721 C 67.7425 -1.96624 -0.643928 0
M  V30 722 C 68.1575 -0.918897 -1.64929 0
M  V30 723 O 67.5145 0.0979323 -1.82237 0
M  V30 724 C 67.5655 -3.35781 -1.33914 0
M  V30 725 O 67.2865 -4.365 -0.374048 0
M  V30 726 C 68.7875 -3.89566 -2.1155 0
M  V30 727 H 66.0075 -0.647316 -0.176702 0
M  V30 728 H 68.5515 -2.04229 0.105304 0
M  V30 729 H 66.7065 -3.29357 -2.03968 0
M  V30 730 H 67.1205 -5.17248 -0.869179 0
M  V30 731 H 68.5945 -4.89242 -2.55628 0
M  V30 732 H 69.0715 -3.24488 -2.9598 0
M  V30 733 H 69.6775 -3.99298 -1.46427 0
M  V30 734 N 67.9926 0.231505 -1.5589 0
M  V30 735 C 68.9556 1.27028 -1.90779 0
M  V30 736 C 69.9556 1.40308 -0.785507 0
M  V30 737 O 71.1456 1.38744 -1.05336 0
M  V30 738 C 68.2776 2.64566 -2.14983 0
M  V30 739 H 69.4706 0.973017 -2.83677 0
M  V30 740 H 67.0236 0.471486 -1.49019 0
M  V30 741 H 67.7586 2.99406 -1.24604 0
M  V30 742 H 67.5436 2.56305 -2.96732 0
M  V30 743 H 69.0336 3.39543 -2.43105 0
M  V30 744 N 69.4707 1.49531 0.497807 0
M  V30 745 C 70.4337 1.65916 1.58128 0
M  V30 746 C 71.4337 0.530825 1.51786 0
M  V30 747 O 72.6237 0.797342 1.54881 0
M  V30 748 C 69.7557 1.65951 2.9778 0
M  V30 749 H 70.9487 2.62556 1.44929 0
M  V30 750 H 68.5017 1.38611 0.722275 0
M  V30 751 H 69.2367 0.709065 3.16453 0
M  V30 752 H 69.0217 2.47897 3.03792 0
M  V30 753 H 70.5117 1.80673 3.76493 0
M  V30 754 N 70.9488 -0.749086 1.3866 0
M  V30 755 C 72.1738 -1.54344 1.38538 0
M  V30 756 C 72.5988 -1.88088 -0.0216655 0
M  V30 757 O 71.9568 -1.50899 -1.00494 0
M  V30 758 C 72.0048 -2.8164 2.25192 0
M  V30 759 O 71.1088 -3.7698 1.67212 0
M  V30 760 H 70.4498 -0.466654 0.472367 0
M  V30 761 H 72.9798 -0.925355 1.82478 0
M  V30 762 H 72.9898 -3.30519 2.3921 0
M  V30 763 H 71.6648 -2.56411 3.27454 0
M  V30 764 H 70.2418 -3.35699 1.6236 0
M  V30 765 N 72.4269 -1.23603 -0.977757 0
M  V30 766 C 73.6569 -1.09487 -1.75203 0
M  V30 767 C 74.0649 0.356321 -1.85814 0
M  V30 768 O 73.4079 1.25816 -1.33851 0
M  V30 769 C 73.4699 -1.64905 -3.19447 0
M  V30 770 C 73.1339 -3.13688 -3.32338 0
M  V30 771 C 74.1309 -4.10953 -3.18455 0
M  V30 772 C 71.8159 -3.53449 -3.56902 0
M  V30 773 C 73.8099 -5.45962 -3.28944 0
M  V30 774 C 71.4969 -4.88602 -3.6703 0
M  V30 775 C 72.4949 -5.84668 -3.53062 0
M  V30 776 O 72.1829 -7.17365 -3.62826 0
M  V30 777 H 71.9149 -0.38367 -0.556573 0
M  V30 778 H 74.4689 -1.6398 -1.23693 0
M  V30 779 H 72.6989 -1.04835 -3.72218 0
M  V30 780 H 74.3879 -1.46226 -3.78646 0
M  V30 781 H 75.1539 -3.81577 -2.99372 0
M  V30 782 H 71.0329 -2.79188 -3.66844 0
M  V30 783 H 74.5769 -6.20925 -3.17958 0
M  V30 784 H 70.4739 -5.17653 -3.85623 0
M  V30 785 H 71.2419 -7.2515 -3.79605 0
M  V30 786 N 73.905 1.17692 -1.04816 0
M  V30 787 C 74.838 2.20436 -0.590173 0
M  V30 788 C 75.816 1.58115 0.379244 0
M  V30 789 O 77 1.86228 0.291762 0
M  V30 790 C 74.127 3.38424 0.136817 0
M  V30 791 C 73.173 4.19176 -0.787023 0
M  V30 792 S 74.006 4.84815 -2.27409 0
M  V30 793 C 75.162 6.06195 -1.55817 0
M  V30 794 H 75.395 2.58944 -1.46067 0
M  V30 795 H 72.928 1.28246 -0.859784 0
M  V30 796 H 74.886 4.06798 0.550076 0
M  V30 797 H 73.547 2.98312 0.983299 0
M  V30 798 H 72.74 5.03499 -0.224681 0
M  V30 799 H 72.342 3.56219 -1.13947 0
M  V30 800 H 74.634 6.72078 -0.855387 0
M  V30 801 H 75.577 6.6695 -2.37873 0
M  V30 802 H 75.985 5.54701 -1.04722 0
M  V30 803 N 75.3831 0.828654 1.34056 0
M  V30 804 C 76.3311 0.242973 2.31327 0
M  V30 805 C 77.3251 -0.61944 1.57668 0
M  V30 806 O 78.5311 -0.51014 1.7262 0
M  V30 807 H 74.9061 0.059834 0.749616 0
M  V30 808 H 76.8771 1.07809 2.78244 0
M  V30 809 C 75.6261 -0.575733 3.429 0
M  V30 810 H 74.9491 0.0785582 3.99723 0
M  V30 811 H 76.3891 -0.951547 4.13185 0
M  V30 812 C 74.8481 -1.75044 2.87856 0
M  V30 813 O 75.3781 -2.84882 2.83205 0
M  V30 814 N 73.5841 -1.56903 2.44602 0
M  V30 815 H 73.1311 -0.675547 2.48584 0
M  V30 816 H 73.0891 -2.35652 2.08124 0
M  V30 817 N 76.8612 -1.46375 0.584142 0
M  V30 818 C 77.7712 -2.34115 -0.150728 0
M  V30 819 C 78.7872 -1.49838 -0.884567 0
M  V30 820 O 79.9632 -1.82704 -0.847429 0
M  V30 821 C 77.0282 -3.2705 -1.15062 0
M  V30 822 C 76.0892 -4.27228 -0.421293 0
M  V30 823 C 75.3222 -5.15722 -1.37355 0
M  V30 824 O 75.5452 -5.07176 -2.61014 0
M  V30 825 O 74.4792 -5.95383 -0.883355 0
M  V30 826 H 78.3052 -2.98309 0.569708 0
M  V30 827 H 75.8902 -1.45373 0.344535 0
M  V30 828 H 77.7722 -3.84381 -1.72712 0
M  V30 829 H 76.4472 -2.65451 -1.8525 0
M  V30 830 H 75.3542 -3.7358 0.197085 0
M  V30 831 H 76.6872 -4.91616 0.239641 0
M  V30 832 N 78.3393 -0.321999 -1.54275 0
M  V30 833 C 79.2493 0.553631 -2.27974 0
M  V30 834 C 80.2653 1.13054 -1.32268 0
M  V30 835 O 81.4413 1.15084 -1.6528 0
M  V30 836 C 78.5063 1.69927 -3.02201 0
M  V30 837 C 77.5673 1.15433 -4.1349 0
M  V30 838 C 76.8003 2.24537 -4.84168 0
M  V30 839 O 77.0233 3.44852 -4.5435 0
M  V30 840 O 75.9573 1.90044 -5.7111 0
M  V30 841 H 79.7833 -0.0448345 -3.03667 0
M  V30 842 H 77.3683 -0.0877418 -1.49142 0
M  V30 843 H 79.2503 2.3663 -3.48689 0
M  V30 844 H 77.9253 2.28395 -2.29385 0
M  V30 845 H 76.8323 0.452436 -3.71354 0
M  V30 846 H 78.1653 0.614805 -4.88345 0
M  V30 847 N 79.8174 1.5752 -0.0501392 0
M  V30 848 C 81.0654 1.9227 0.622642 0
M  V30 849 C 81.3864 0.929083 1.71444 0
M  V30 850 O 80.6564 -0.0262186 1.95882 0
M  V30 851 H 79.2364 0.709739 0.232981 0
M  V30 852 H 81.8984 1.94628 -0.102898 0
M  V30 853 H 80.9944 2.93479 1.06191 0
M  V30 854 N 81.2955 -0.223234 1.56011 0
M  V30 855 C 82.5415 -0.949279 1.79211 0
M  V30 856 C 82.8745 -1.84054 0.619494 0
M  V30 857 O 82.1495 -1.90726 -0.381317 0
M  V30 858 C 82.4325 -1.78965 3.12479 0
M  V30 859 C 82.2855 -0.924997 4.40186 0
M  V30 860 C 83.6045 -2.76774 3.42175 0
M  V30 861 H 80.7235 -0.343676 0.651963 0
M  V30 862 H 83.3655 -0.218253 1.88742 0
M  V30 863 H 81.5155 -2.41291 3.04485 0
M  V30 864 H 83.1875 -0.318615 4.60198 0
M  V30 865 H 81.4305 -0.230344 4.33188 0
M  V30 866 H 82.1015 -1.54735 5.29869 0
M  V30 867 H 84.5775 -2.24584 3.50287 0
M  V30 868 H 83.4535 -3.32678 4.36597 0
M  V30 869 H 83.7145 -3.54429 2.64258 0
M  V30 870 N 82.7736 -1.49793 -0.48987 0
M  V30 871 C 84.0216 -1.59525 -1.24081 0
M  V30 872 C 84.3426 -0.288953 -1.92847 0
M  V30 873 O 83.6126 0.692436 -1.83254 0
M  V30 874 H 82.1926 -0.587796 -0.460983 0
M  V30 875 H 84.8546 -1.86477 -0.566778 0
M  V30 876 H 83.9506 -2.39696 -1.99881 0
M  V30 877 N 84.2517 0.741722 -1.39055 0
M  V30 878 C 85.6677 1.04638 -1.20512 0
M  V30 879 C 85.8677 2.01405 -0.0620218 0
M  V30 880 O 84.9237 2.45547 0.588457 0
M  V30 881 C 86.2367 1.6151 -2.53643 0
M  V30 882 C 87.7847 1.73623 -2.6043 0
M  V30 883 C 88.2597 2.33906 -3.93767 0
M  V30 884 N 89.7507 2.41323 -3.9537 0
M  V30 885 C 90.4857 2.88888 -4.95309 0
M  V30 886 N 89.9817 3.36401 -6.05645 0
M  V30 887 N 91.7747 2.88037 -4.82692 0
M  V30 888 H 83.9257 0.0998155 -2.12165 0
M  V30 889 H 86.1887 0.106907 -0.941953 0
M  V30 890 H 85.8947 0.978739 -3.37807 0
M  V30 891 H 85.7687 2.60411 -2.72885 0
M  V30 892 H 88.1557 2.36384 -1.76655 0
M  V30 893 H 88.2367 0.733945 -2.45045 0
M  V30 894 H 87.8807 1.71776 -4.7797 0
M  V30 895 H 87.8107 3.34799 -4.06469 0
M  V30 896 H 90.3017 2.07734 -3.15682 0
M  V30 897 H 90.6147 3.71186 -6.77821 0
M  V30 898 H 88.9597 3.34427 -6.09248 0
M  V30 899 H 92.1507 2.50237 -3.95599 0
M  V30 900 H 92.3237 3.24792 -5.60726 0
M  V30 901 N 85.7298 1.2412 0.971189 0
M  V30 902 C 86.6928 1.03156 2.04674 0
M  V30 903 C 87.6928 -0.00990322 1.60797 0
M  V30 904 O 88.8828 0.230729 1.72665 0
M  V30 905 C 86.0148 0.562765 3.36223 0
M  V30 906 H 87.2078 1.98614 2.24705 0
M  V30 907 H 84.7608 1.06293 1.14593 0
M  V30 908 H 85.4958 -0.395176 3.21883 0
M  V30 909 H 85.2808 1.31441 3.69413 0
M  V30 910 H 86.7708 0.437015 4.15307 0
M  V30 911 N 87.2079 -1.17134 1.05439 0
M  V30 912 C 88.4569 -1.86791 0.761049 0
M  V30 913 C 88.7699 -1.82072 -0.714795 0
M  V30 914 O 89.9759 -2.47223 -1.12218 0
M  V30 915 C 88.4319 -3.35166 1.31117 0
M  V30 916 C 88.0399 -3.48381 2.81664 0
M  V30 917 C 89.7839 -4.10134 1.09499 0
M  V30 918 C 87.6909 -4.90793 3.29964 0
M  V30 919 H 86.6209 -0.699681 0.281002 0
M  V30 920 H 89.2719 -1.3226 1.27199 0
M  V30 921 H 87.6539 -3.8925 0.72803 0
M  V30 922 H 88.8279 -3.04502 3.45855 0
M  V30 923 H 87.1429 -2.86836 3.01851 0
M  V30 924 H 89.7399 -5.152 1.43084 0
M  V30 925 H 90.0829 -4.16287 0.0328772 0
M  V30 926 H 90.6159 -3.62264 1.64346 0
M  V30 927 H 87.3549 -4.89816 4.35616 0
M  V30 928 H 86.8749 -5.35333 2.70516 0
M  V30 929 H 88.5539 -5.59573 3.24787 0
M  V30 930 N 88.686 -0.835752 -1.33615 0
M  V30 931 C 89.633 -0.26473 -2.29277 0
M  V30 932 C 90.603 0.617712 -1.54187 0
M  V30 933 O 91.788 0.556641 -1.825 0
M  V30 934 C 88.928 0.556777 -3.40579 0
M  V30 935 C 88.041 -0.349339 -4.30585 0
M  V30 936 C 87.176 0.482969 -5.29 0
M  V30 937 C 86.215 -0.421732 -6.10645 0
M  V30 938 N 85.352 0.372262 -7.01112 0
M  V30 939 H 90.192 -1.08582 -2.77514 0
M  V30 940 H 87.729 -0.546927 -1.36554 0
M  V30 941 H 89.687 1.04852 -4.03809 0
M  V30 942 H 88.317 1.34286 -2.93542 0
M  V30 943 H 87.369 -0.959372 -3.68104 0
M  V30 944 H 88.681 -1.04445 -4.87742 0
M  V30 945 H 87.835 1.03866 -5.97743 0
M  V30 946 H 86.574 1.21153 -4.72412 0
M  V30 947 H 85.579 -0.989464 -5.40823 0
M  V30 948 H 86.804 -1.14861 -6.69316 0
M  V30 949 H 84.75 1.08426 -6.46977 0
M  V30 950 H 84.667 -0.264198 -7.55538 0
M  V30 951 H 85.935 0.910293 -7.74167 0
M  V30 952 N 90.1641 1.46063 -0.591896 0
M  V30 953 C 91.5801 1.57561 -0.254288 0
M  V30 954 C 91.7801 1.58565 1.24336 0
M  V30 955 O 90.8361 1.50753 2.02558 0
M  V30 956 C 92.1491 2.86549 -0.911611 0
M  V30 957 C 93.6971 3.00197 -0.886059 0
M  V30 958 C 94.1721 4.31933 -1.5231 0
M  V30 959 N 95.6631 4.38654 -1.48786 0
M  V30 960 C 96.3981 5.39222 -1.95006 0
M  V30 961 N 95.8941 6.46414 -2.49241 0
M  V30 962 N 97.6871 5.3048 -1.85868 0
M  V30 963 H 89.8381 1.43655 -1.56451 0
M  V30 964 H 92.1011 0.68583 -0.654478 0
M  V30 965 H 91.8071 2.91651 -1.96551 0
M  V30 966 H 91.6811 3.74794 -0.425368 0
M  V30 967 H 94.0681 2.9467 0.159246 0
M  V30 968 H 94.1491 2.13403 -1.41041 0
M  V30 969 H 93.7931 4.38217 -2.56765 0
M  V30 970 H 93.7231 5.17516 -0.973891 0
M  V30 971 H 96.2141 3.61793 -1.09151 0
M  V30 972 H 96.5271 7.19376 -2.82344 0
M  V30 973 H 94.8721 6.47208 -2.53272 0
M  V30 974 H 98.0631 4.45643 -1.43248 0
M  V30 975 H 98.2361 6.08711 -2.22204 0
M  V30 976 N 91.6422 0.330177 1.54103 0
M  V30 977 C 92.6052 -0.520144 2.2322 0
M  V30 978 C 93.6052 -1.03828 1.22786 0
M  V30 979 O 94.7952 -0.929652 1.4732 0
M  V30 980 C 91.9272 -1.72317 2.94142 0
M  V30 981 H 93.1202 0.0841605 2.99782 0
M  V30 982 H 90.6732 0.0813433 1.56088 0
M  V30 983 H 91.4082 -2.36653 2.21734 0
M  V30 984 H 91.1932 -1.35898 3.67796 0
M  V30 985 H 92.6832 -2.3266 3.46784 0
M  V30 986 N 93.1203 -1.57491 0.0584922 0
M  V30 987 C 94.3693 -1.92155 -0.613146 0
M  V30 988 C 94.6823 -0.939334 -1.71569 0
M  V30 989 O 95.8883 -1.17829 -2.44599 0
M  V30 990 C 94.3443 -3.41303 -1.14195 0
M  V30 991 C 93.9523 -4.47944 -0.0711265 0
M  V30 992 C 95.6963 -3.84988 -1.78841 0
M  V30 993 C 93.6033 -5.88212 -0.613225 0
M  V30 994 H 92.5333 -0.717162 -0.232796 0
M  V30 995 H 95.1843 -1.83049 0.12857 0
M  V30 996 H 93.5663 -3.45437 -1.93621 0
M  V30 997 H 94.7403 -4.55408 0.702836 0
M  V30 998 H 93.0553 -4.13644 0.478313 0
M  V30 999 H 95.6523 -4.87159 -2.20408 0
M  V30 1000 H 95.9953 -3.21632 -2.64308 0
M  V30 1001 H 96.5283 -3.83401 -1.06059 0
M  V30 1002 H 93.2673 -6.55183 0.203978 0
M  V30 1003 H 92.7873 -5.84294 -1.35501 0
M  V30 1004 H 94.4663 -6.37687 -1.09383 0
M  V30 1005 N 94.5984 0.214957 -1.56127 0
M  V30 1006 C 95.8754 0.963093 -1.70247 0
M  V30 1007 C 96.2554 2.02166 -0.60764 0
M  V30 1008 O 95.6034 2.25244 0.384385 0
M  V30 1009 C 95.8134 1.56756 -3.11815 0
M  V30 1010 C 97.1614 2.0573 -3.7143 0
M  V30 1011 O 98.1854 1.66637 -3.14818 0
M  V30 1012 O 97.0444 2.77603 -4.70743 0
M  V30 1013 H 94.1384 0.450321 -0.693643 0
M  V30 1014 H 96.6844 0.206219 -1.68442 0
M  V30 1015 H 95.4564 0.803533 -3.82961 0
M  V30 1016 H 95.0794 2.3898 -3.17765 0
M  V30 1017 N 96.0765 1.50051 0.48192 0
M  V30 1018 C 96.9865 1.7089 1.60728 0
M  V30 1019 C 98.0025 0.591788 1.63627 0
M  V30 1020 O 99.1785 0.868817 1.81696 0
M  V30 1021 C 96.2435 1.78855 2.97005 0
M  V30 1022 C 95.3045 3.02537 3.04581 0
M  V30 1023 C 94.5375 3.10112 4.34357 0
M  V30 1024 O 94.7605 2.24765 5.24249 0
M  V30 1025 O 93.6945 4.02747 4.47301 0
M  V30 1026 H 97.5205 2.66264 1.46072 0
M  V30 1027 H 95.1055 1.34018 0.660264 0
M  V30 1028 H 96.9875 1.86336 3.77964 0
M  V30 1029 H 95.6625 0.866628 3.11883 0
M  V30 1030 H 94.5695 3.00563 2.22739 0
M  V30 1031 H 95.9025 3.94272 2.94636 0
M  V30 1032 N 97.5546 -0.734337 1.39446 0
M  V30 1033 C 98.8026 -1.49096 1.36436 0
M  V30 1034 C 99.1236 -1.94961 -0.0388255 0
M  V30 1035 O 98.3936 -1.69033 -0.990191 0
M  V30 1036 H 96.9736 -0.5531 0.502085 0
M  V30 1037 H 99.6356 -0.871725 1.74319 0
M  V30 1038 H 98.7316 -2.37276 2.02747 0
M  V30 1039 N 99.0327 -1.24633 -0.964593 0
M  V30 1040 C 100.282 -1.08188 -1.7023 0
M  V30 1041 C 100.595 0.37873 -1.91898 0
M  V30 1042 O 101.801 0.663427 -2.6327 0
M  V30 1043 C 100.257 -1.88773 -3.06419 0
M  V30 1044 C 99.8647 -3.39263 -2.92582 0
M  V30 1045 C 101.609 -1.80867 -3.84041 0
M  V30 1046 C 99.5157 -4.1218 -4.24101 0
M  V30 1047 H 98.4457 -0.401245 -0.638372 0
M  V30 1048 H 101.097 -1.48742 -1.07462 0
M  V30 1049 H 99.4787 -1.41035 -3.70034 0
M  V30 1050 H 100.653 -3.94603 -2.37961 0
M  V30 1051 H 98.9677 -3.48154 -2.28424 0
M  V30 1052 H 101.565 -2.32646 -4.81435 0
M  V30 1053 H 101.908 -0.774543 -4.09031 0
M  V30 1054 H 102.441 -2.26301 -3.27159 0
M  V30 1055 H 99.1797 -5.15965 -4.04303 0
M  V30 1056 H 98.6997 -3.61626 -4.78526 0
M  V30 1057 H 100.379 -4.19349 -4.92702 0
M  V30 1058 N 100.511 1.16574 -1.06058 0
M  V30 1059 C 101.757 1.87324 -0.777022 0
M  V30 1060 C 102.09 1.81351 0.694645 0
M  V30 1061 O 101.365 1.22753 1.50871 0
M  V30 1062 C 101.648 3.36991 -1.26922 0
M  V30 1063 C 101.501 3.51667 -2.80447 0
M  V30 1064 C 102.82 4.3131 -0.87521 0
M  V30 1065 H 99.9388 0.680191 -0.28374 0
M  V30 1066 H 102.581 1.37036 -1.3161 0
M  V30 1067 H 100.731 3.79949 -0.81063 0
M  V30 1068 H 102.403 3.17664 -3.34495 0
M  V30 1069 H 100.646 2.93656 -3.19294 0
M  V30 1070 H 101.317 4.56766 -3.0995 0
M  V30 1071 H 103.793 3.9624 -1.27014 0
M  V30 1072 H 102.669 5.34545 -1.2471 0
M  V30 1073 H 102.93 4.41552 0.220071 0
M  V30 1074 N 101.989 0.842826 1.3317 0
M  V30 1075 C 103.405 0.531128 1.50503 0
M  V30 1076 C 103.605 -0.940734 1.78192 0
M  V30 1077 O 102.661 -1.72436 1.84451 0
M  V30 1078 C 103.974 1.40789 2.65705 0
M  V30 1079 C 105.522 1.40708 2.79589 0
M  V30 1080 C 105.997 2.26878 3.97857 0
M  V30 1081 N 107.488 2.24609 4.05099 0
M  V30 1082 C 108.223 2.88019 4.95815 0
M  V30 1083 N 107.719 3.60496 5.9162 0
M  V30 1084 N 109.512 2.77469 4.88843 0
M  V30 1085 H 101.663 1.79557 1.1346 0
M  V30 1086 H 103.926 0.766267 0.558156 0
M  V30 1087 H 103.632 2.454 2.51936 0
M  V30 1088 H 103.506 1.08677 3.61205 0
M  V30 1089 H 105.893 0.368668 2.92788 0
M  V30 1090 H 105.974 1.76829 1.84838 0
M  V30 1091 H 105.618 3.3078 3.85418 0
M  V30 1092 H 105.548 1.88096 4.91861 0
M  V30 1093 H 108.039 1.71906 3.36536 0
M  V30 1094 H 108.352 4.06076 6.57512 0
M  V30 1095 H 106.697 3.64604 5.91683 0
M  V30 1096 H 109.888 2.20406 4.12963 0
M  V30 1097 H 110.061 3.2717 5.59342 0
M  V30 1098 N 103.467 -1.45747 0.599634 0
M  V30 1099 C 104.883 -1.57424 0.26264 0
M  V30 1100 C 105.083 -1.59222 -1.23493 0
M  V30 1101 O 104.139 -1.51825 -2.01756 0
M  V30 1102 C 105.452 -2.86061 0.926795 0
M  V30 1103 C 107 -2.99722 0.901967 0
M  V30 1104 C 107.475 -4.31119 1.54598 0
M  V30 1105 N 108.966 -4.37858 1.5111 0
M  V30 1106 C 109.701 -5.3818 1.97863 0
M  V30 1107 N 109.197 -6.45083 2.52666 0
M  V30 1108 N 110.99 -5.29487 1.88679 0
M  V30 1109 H 103.141 -1.42823 1.57211 0
M  V30 1110 H 105.404 -0.68235 0.658105 0
M  V30 1111 H 105.11 -2.90605 1.98095 0
M  V30 1112 H 104.984 -3.74563 0.445238 0
M  V30 1113 H 107.371 -2.9475 -0.143617 0
M  V30 1114 H 107.452 -2.12652 1.42171 0
M  V30 1115 H 107.096 -4.36849 2.59085 0
M  V30 1116 H 107.026 -5.16992 1.00132 0
M  V30 1117 H 109.517 -3.61209 1.11068 0
M  V30 1118 H 109.83 -7.17869 2.86155 0
M  V30 1119 H 108.175 -6.45856 2.56701 0
M  V30 1120 H 111.366 -4.44877 1.4561 0
M  V30 1121 H 111.539 -6.07524 2.25429 0
M  V30 1122 N 104.945 -0.338344 -1.53925 0
M  V30 1123 C 105.855 0.529421 -2.28548 0
M  V30 1124 C 106.871 1.11645 -1.3346 0
M  V30 1125 O 108.047 1.13325 -1.66492 0
M  V30 1126 C 105.112 1.66713 -3.03987 0
M  V30 1127 C 104.173 1.11041 -4.14691 0
M  V30 1128 C 103.406 2.19389 -4.86522 0
M  V30 1129 O 103.629 3.40013 -4.57982 0
M  V30 1130 O 102.563 1.83976 -5.73094 0
M  V30 1131 H 106.389 -0.0770399 -3.03602 0
M  V30 1132 H 103.974 -0.103555 -1.49041 0
M  V30 1133 H 105.856 2.32918 -3.5118 0
M  V30 1134 H 104.531 2.25949 -2.31794 0
M  V30 1135 H 103.438 0.413024 -3.71813 0
M  V30 1136 H 104.771 0.562975 -4.8897 0
M  V30 1137 N 106.423 1.57458 -0.0668435 0
M  V30 1138 C 107.333 2.15937 0.916975 0
M  V30 1139 C 108.349 1.12123 1.33058 0
M  V30 1140 O 109.525 1.44366 1.40429 0
M  V30 1141 C 106.59 2.70547 2.16807 0
M  V30 1142 C 105.651 3.89215 1.81135 0
M  V30 1143 C 104.884 4.41211 3.0028 0
M  V30 1144 O 105.107 3.92225 4.14144 0
M  V30 1145 O 104.041 5.32605 2.80384 0
M  V30 1146 H 107.867 3.00354 0.449561 0
M  V30 1147 H 105.452 1.48584 0.155949 0
M  V30 1148 H 107.334 3.0557 2.90181 0
M  V30 1149 H 106.009 1.89192 2.62656 0
M  V30 1150 H 104.916 3.59054 1.05028 0
M  V30 1151 H 106.249 4.71848 1.40073 0
M  V30 1152 N 107.901 -0.206675 1.56239 0
M  V30 1153 C 108.831 -1.25909 1.96645 0
M  V30 1154 C 109.812 -1.48097 0.836734 0
M  V30 1155 O 110.997 -1.6003 1.10019 0
M  V30 1156 C 108.127 -2.6058 2.29599 0
M  V30 1157 C 107.081 -2.53024 3.452 0
M  V30 1158 C 106.407 -3.91861 3.63798 0
M  V30 1159 C 107.707 -2.06524 4.79734 0
M  V30 1160 H 109.401 -0.923369 2.84806 0
M  V30 1161 H 106.947 -0.442735 1.37025 0
M  V30 1162 H 108.9 -3.34375 2.56459 0
M  V30 1163 H 107.624 -2.95869 1.38307 0
M  V30 1164 H 106.283 -1.81684 3.18412 0
M  V30 1165 H 105.931 -4.24483 2.69857 0
M  V30 1166 H 105.631 -3.87683 4.4156 0
M  V30 1167 H 107.155 -4.67296 3.93022 0
M  V30 1168 H 108.569 -2.70072 5.05702 0
M  V30 1169 H 106.966 -2.13374 5.60885 0
M  V30 1170 H 108.036 -1.01802 4.74093 0
M  V30 1171 N 109.379 -1.50304 -0.473955 0
M  V30 1172 C 110.626 -1.6115 -1.22625 0
M  V30 1173 C 110.954 -0.310517 -1.92005 0
M  V30 1174 O 110.209 0.703419 -1.82621 0
M  V30 1175 C 110.508 -2.73938 -2.29549 0
M  V30 1176 C 110.174 -4.14519 -1.7744 0
M  V30 1177 C 108.836 -4.5277 -1.62949 0
M  V30 1178 C 111.188 -5.02392 -1.3875 0
M  V30 1179 C 108.516 -5.76639 -1.08187 0
M  V30 1180 C 110.868 -6.26805 -0.854309 0
M  V30 1181 C 109.532 -6.63861 -0.696011 0
M  V30 1182 H 108.802 -0.589691 -0.448715 0
M  V30 1183 H 111.449 -1.84228 -0.522705 0
M  V30 1184 H 109.754 -2.44937 -3.05799 0
M  V30 1185 H 111.451 -2.79534 -2.87509 0
M  V30 1186 H 108.041 -3.8434 -1.89685 0
M  V30 1187 H 112.225 -4.73474 -1.4878 0
M  V30 1188 H 107.481 -6.04027 -0.946666 0
M  V30 1189 H 111.655 -6.94258 -0.545843 0
M  V30 1190 H 109.282 -7.59722 -0.26952 0
M  V30 1191 N 110.857 0.726932 -1.39834 0
M  V30 1192 C 112.103 1.48884 -1.377 0
M  V30 1193 C 112.436 1.94185 0.0244852 0
M  V30 1194 O 111.711 1.67361 0.990986 0
M  V30 1195 C 111.994 2.72288 -2.3565 0
M  V30 1196 C 111.847 2.32956 -3.84775 0
M  V30 1197 C 113.166 3.74414 -2.31306 0
M  V30 1198 H 110.285 0.540062 -0.5015 0
M  V30 1199 H 112.927 0.830547 -1.70886 0
M  V30 1200 H 111.077 3.28457 -2.07481 0
M  V30 1201 H 112.749 1.82356 -4.23726 0
M  V30 1202 H 110.992 1.65088 -4.01159 0
M  V30 1203 H 111.663 3.21362 -4.4881 0
M  V30 1204 H 114.139 3.27849 -2.56231 0
M  V30 1205 H 113.015 4.58414 -3.01907 0
M  V30 1206 H 113.276 4.21909 -1.32081 0
M  V30 1207 N 112.336 1.25143 0.95797 0
M  V30 1208 C 113.564 1.12424 1.73691 0
M  V30 1209 C 113.979 -0.322304 1.86029 0
M  V30 1210 O 113.336 -1.22186 1.35561 0
M  V30 1211 C 113.387 1.76933 3.15241 0
M  V30 1212 O 113.108 3.15932 3.03511 0
M  V30 1213 C 114.609 1.6995 4.09429 0
M  V30 1214 H 111.829 0.3923 0.544373 0
M  V30 1215 H 114.373 1.6544 1.20207 0
M  V30 1216 H 112.528 1.27895 3.6568 0
M  V30 1217 H 112.942 3.47598 3.9278 0
M  V30 1218 H 114.416 2.19753 5.06372 0
M  V30 1219 H 114.893 0.662619 4.34173 0
M  V30 1220 H 115.499 2.18461 3.64904 0
M  V30 1221 N 113.814 -1.1601 1.06675 0
M  V30 1222 C 115.042 -1.90527 0.806667 0
M  V30 1223 C 115.457 -1.77643 -0.639396 0
M  V30 1224 O 114.814 -1.12369 -1.43803 0
M  V30 1225 C 114.865 -3.41106 1.19705 0
M  V30 1226 O 114.586 -3.53608 2.58636 0
M  V30 1227 C 116.087 -4.32663 0.965266 0
M  V30 1228 H 113.307 -0.604053 0.292166 0
M  V30 1229 H 115.851 -1.47026 1.4214 0
M  V30 1230 H 114.006 -3.82296 0.626774 0
M  V30 1231 H 114.42 -4.47011 2.74375 0
M  V30 1232 H 115.894 -5.36763 1.288 0
M  V30 1233 H 116.371 -4.39089 -0.0987936 0
M  V30 1234 H 116.977 -3.97206 1.52011 0
M  V30 1235 N 115.292 -0.849877 -1.32721 0
M  V30 1236 C 116.239 -0.289033 -2.28983 0
M  V30 1237 C 117.209 0.601324 -1.54833 0
M  V30 1238 O 118.394 0.537253 -1.8308 0
M  V30 1239 C 115.534 0.520623 -3.4115 0
M  V30 1240 C 114.647 -0.394989 -4.3019 0
M  V30 1241 C 113.782 0.426834 -5.29482 0
M  V30 1242 C 112.821 -0.486476 -6.10164 0
M  V30 1243 N 111.958 0.297879 -7.01468 0
M  V30 1244 H 116.798 -1.11519 -2.76347 0
M  V30 1245 H 114.335 -0.56138 -1.35967 0
M  V30 1246 H 116.293 1.00563 -4.04899 0
M  V30 1247 H 114.923 1.31165 -2.9495 0
M  V30 1248 H 113.975 -0.99836 -3.67065 0
M  V30 1249 H 115.287 -1.09612 -4.86607 0
M  V30 1250 H 114.441 0.975205 -5.98811 0
M  V30 1251 H 113.18 1.16136 -4.73671 0
M  V30 1252 H 112.185 -1.04677 -5.39743 0
M  V30 1253 H 113.41 -1.21953 -6.6806 0
M  V30 1254 H 111.356 1.01558 -6.48091 0
M  V30 1255 H 111.273 -0.344318 -7.55216 0
M  V30 1256 H 112.541 0.828131 -7.75089 0
M  V30 1257 N 116.77 1.45427 -0.607355 0
M  V30 1258 C 117.7 2.3329 0.0989352 0
M  V30 1259 C 118.681 1.46816 0.859007 0
M  V30 1260 O 119.866 1.75588 0.829604 0
M  V30 1261 C 116.996 3.29518 1.09705 0
M  V30 1262 C 115.95 4.25626 0.450206 0
M  V30 1263 C 115.276 5.11542 1.55655 0
M  V30 1264 C 116.576 5.18505 -0.628455 0
M  V30 1265 H 118.27 2.92595 -0.634716 0
M  V30 1266 H 115.816 1.40696 -0.306681 0
M  V30 1267 H 117.769 3.89855 1.59971 0
M  V30 1268 H 116.493 2.68372 1.86129 0
M  V30 1269 H 115.152 3.66586 -0.0315886 0
M  V30 1270 H 114.8 4.46765 2.31107 0
M  V30 1271 H 114.5 5.76647 1.12925 0
M  V30 1272 H 116.024 5.74748 2.06148 0
M  V30 1273 H 117.438 5.72916 -0.209877 0
M  V30 1274 H 115.835 5.92085 -0.977489 0
M  V30 1275 H 116.905 4.60948 -1.50514 0
M  V30 1276 N 118.248 0.346503 1.53744 0
M  V30 1277 C 119.494 -0.242135 2.01954 0
M  V30 1278 C 119.849 -1.47962 1.22984 0
M  V30 1279 O 119.142 -1.89077 0.309924 0
M  V30 1280 C 119.336 -0.605809 3.52228 0
M  V30 1281 C 119.165 0.594882 4.45748 0
M  V30 1282 C 117.935 1.1011 4.93157 0
M  V30 1283 C 120.133 1.45425 4.93311 0
M  V30 1284 N 118.115 2.26381 5.70636 0
M  V30 1285 C 119.486 2.46383 5.68942 0
M  V30 1286 C 121.541 1.47935 4.75415 0
M  V30 1287 C 120.244 3.49684 6.28581 0
M  V30 1288 C 122.27 2.50119 5.35905 0
M  V30 1289 C 121.632 3.49803 6.11406 0
M  V30 1290 H 117.731 -0.0518296 0.780281 0
M  V30 1291 H 120.315 0.486736 1.88518 0
M  V30 1292 H 118.486 -1.30378 3.65864 0
M  V30 1293 H 120.218 -1.17789 3.87179 0
M  V30 1294 H 116.973 0.668721 4.68855 0
M  V30 1295 H 117.397 2.85094 6.14044 0
M  V30 1296 H 122.039 0.722274 4.16585 0
M  V30 1297 H 119.757 4.26285 6.86518 0
M  V30 1298 H 123.343 2.52892 5.23963 0
M  V30 1299 H 122.223 4.27576 6.5738 0
M  V30 1300 N 119.726 -1.57421 0.075193 0
M  V30 1301 C 120.972 -1.93905 -0.594025 0
M  V30 1302 C 121.305 -0.955701 -1.69056 0
M  V30 1303 O 120.58 0.0145373 -1.94495 0
M  V30 1304 C 120.863 -3.40638 -1.1678 0
M  V30 1305 C 120.716 -4.49733 -0.0776792 0
M  V30 1306 C 122.035 -3.88259 -2.07228 0
M  V30 1307 H 119.154 -0.705105 -0.214466 0
M  V30 1308 H 121.796 -1.8947 0.141854 0
M  V30 1309 H 119.946 -3.44549 -1.79494 0
M  V30 1310 H 121.618 -4.57942 0.555573 0
M  V30 1311 H 119.861 -4.29751 0.591286 0
M  V30 1312 H 120.532 -5.49549 -0.519603 0
M  V30 1313 H 123.008 -3.86376 -1.54445 0
M  V30 1314 H 121.884 -4.91533 -2.44308 0
M  V30 1315 H 122.145 -3.26396 -2.98191 0
M  V30 1316 N 121.204 0.198386 -1.56346 0
M  V30 1317 C 122.429 0.939682 -1.84891 0
M  V30 1318 C 122.854 1.76202 -0.658369 0
M  V30 1319 O 122.212 1.76993 0.392851 0
M  V30 1320 C 122.26 1.81428 -3.11635 0
M  V30 1321 O 121.364 2.91265 -2.91956 0
M  V30 1322 H 120.705 0.264807 -0.608912 0
M  V30 1323 H 123.235 0.204695 -2.03573 0
M  V30 1324 H 123.245 2.21958 -3.42343 0
M  V30 1325 H 121.92 1.21004 -3.97908 0
M  V30 1326 H 120.497 2.54514 -2.72538 0
M  V30 1327 N 122.682 1.50554 0.465978 0
M  V30 1328 C 123.959 1.5232 1.22712 0
M  V30 1329 C 124.339 0.270807 2.09356 0
M  V30 1330 O 123.687 -0.745541 2.15995 0
M  V30 1331 C 123.897 2.82175 2.05374 0
M  V30 1332 C 125.245 3.33033 2.6339 0
M  V30 1333 O 126.269 2.83531 2.15612 0
M  V30 1334 O 125.128 4.19336 3.50456 0
M  V30 1335 H 122.222 0.611183 0.557122 0
M  V30 1336 H 124.768 1.62847 0.477381 0
M  V30 1337 H 123.54 3.64797 1.41558 0
M  V30 1338 H 123.163 2.74675 2.87471 0
M  V30 1339 N 124.16 -0.719506 1.40217 0
M  V30 1340 C 125.406 -1.48152 1.38488 0
M  V30 1341 C 125.739 -1.94195 -0.0141867 0
M  V30 1342 O 125.014 -1.67884 -0.982096 0
M  V30 1343 C 125.297 -2.71035 2.37091 0
M  V30 1344 C 125.15 -2.30912 3.86005 0
M  V30 1345 C 126.469 -3.73182 2.33288 0
M  V30 1346 H 123.588 -0.537395 0.504357 0
M  V30 1347 H 126.23 -0.821472 1.71324 0
M  V30 1348 H 124.38 -3.27352 2.0922 0
M  V30 1349 H 126.052 -1.80107 4.24687 0
M  V30 1350 H 124.295 -1.62958 4.02029 0
M  V30 1351 H 124.966 -3.18978 4.50508 0
M  V30 1352 H 127.442 -3.26485 2.57966 0
M  V30 1353 H 126.318 -4.56806 3.04334 0
M  V30 1354 H 126.579 -4.21202 1.34317 0
M  V30 1355 N 125.638 -1.25649 -0.95132 0
M  V30 1356 C 126.886 -1.10375 -1.69298 0
M  V30 1357 C 127.207 0.355339 -1.91735 0
M  V30 1358 O 126.477 1.25188 -1.50681 0
M  V30 1359 H 125.057 -0.405461 -0.627384 0
M  V30 1360 H 127.719 -1.57823 -1.14358 0
M  V30 1361 H 126.815 -1.61465 -2.67087 0
M  V30 1362 N 127.117 1.15442 -1.07289 0
M  V30 1363 C 128.347 1.89821 -0.815576 0
M  V30 1364 C 128.755 1.7823 0.634867 0
M  V30 1365 O 128.098 1.13152 1.44715 0
M  V30 1366 C 128.16 3.40817 -1.14385 0
M  V30 1367 C 127.824 3.76193 -2.59476 0
M  V30 1368 C 128.821 3.77269 -3.57721 0
M  V30 1369 C 126.506 4.0652 -2.95037 0
M  V30 1370 C 128.5 4.08176 -4.89562 0
M  V30 1371 C 126.187 4.37092 -4.27076 0
M  V30 1372 C 127.185 4.37902 -5.24148 0
M  V30 1373 O 126.873 4.67741 -6.53815 0
M  V30 1374 H 126.605 0.608465 -0.294528 0
M  V30 1375 H 129.159 1.472 -1.43252 0
M  V30 1376 H 127.389 3.83835 -0.469865 0
M  V30 1377 H 129.078 3.96485 -0.869179 0
M  V30 1378 H 129.844 3.5394 -3.3159 0
M  V30 1379 H 125.723 4.05049 -2.20128 0
M  V30 1380 H 129.267 4.08723 -5.65324 0
M  V30 1381 H 125.164 4.59889 -4.5296 0
M  V30 1382 H 125.932 4.85509 -6.58957 0
M  V30 1383 N 128.595 0.856903 1.32268 0
M  V30 1384 C 129.505 0.306131 2.32594 0
M  V30 1385 C 130.521 -0.577209 1.64147 0
M  V30 1386 O 131.697 -0.477043 1.95669 0
M  V30 1387 C 128.762 -0.494561 3.43154 0
M  V30 1388 C 127.823 0.415186 4.27288 0
M  V30 1389 C 127.056 -0.347387 5.32568 0
M  V30 1390 O 127.279 -1.57708 5.48165 0
M  V30 1391 O 126.213 0.287982 6.01211 0
M  V30 1392 H 130.039 1.13737 2.81598 0
M  V30 1393 H 127.624 0.619902 1.35932 0
M  V30 1394 H 129.506 -0.948944 4.10576 0
M  V30 1395 H 128.181 -1.30257 2.96336 0
M  V30 1396 H 127.088 0.917793 3.62667 0
M  V30 1397 H 128.421 1.18844 4.77637 0
M  V30 1398 N 130.073 -1.45103 0.615059 0
M  V30 1399 C 131.298 -2.07064 0.117988 0
M  V30 1400 C 131.723 -1.4554 -1.19163 0
M  V30 1401 O 131.081 -0.550855 -1.72729 0
M  V30 1402 C 131.129 -3.606 -0.000288387 0
M  V30 1403 O 130.233 -3.98847 -1.04856 0
M  V30 1404 H 129.574 -0.659467 0.0774581 0
M  V30 1405 H 132.104 -1.86236 0.847186 0
M  V30 1406 H 132.114 -4.07529 -0.196091 0
M  V30 1407 H 130.789 -4.04765 0.955932 0
M  V30 1408 H 129.366 -3.63577 -0.828619 0
M  V30 1409 N 131.551 -0.354651 -1.53558 0
M  V30 1410 C 132.779 0.239515 -2.05509 0
M  V30 1411 C 133.194 1.4333 -1.2289 0
M  V30 1412 O 132.551 1.80538 -0.266899 0
M  V30 1413 C 132.602 0.643719 -3.55723 0
M  V30 1414 O 132.323 -0.502602 -4.35207 0
M  V30 1415 C 133.824 1.29743 -4.23889 0
M  V30 1416 H 131.044 0.0442697 -0.669538 0
M  V30 1417 H 133.588 -0.509856 -1.98042 0
M  V30 1418 H 131.743 1.34302 -3.63376 0
M  V30 1419 H 132.157 -0.178172 -5.24197 0
M  V30 1420 H 133.631 1.53091 -5.30346 0
M  V30 1421 H 134.108 2.25441 -3.76926 0
M  V30 1422 H 134.714 0.639865 -4.20459 0
M  V30 1423 N 133.029 1.57378 -0.0835403 0
M  V30 1424 C 133.976 2.13384 0.879539 0
M  V30 1425 C 134.946 1.04936 1.28754 0
M  V30 1426 O 136.131 1.32662 1.37133 0
M  V30 1427 C 133.271 2.70932 2.13752 0
M  V30 1428 C 132.384 3.93575 1.7811 0
M  V30 1429 C 131.519 4.39326 2.98607 0
M  V30 1430 C 130.558 5.54587 2.59037 0
M  V30 1431 N 129.695 5.95243 3.72331 0
M  V30 1432 H 134.535 2.9537 0.395076 0
M  V30 1433 H 132.072 1.45953 0.183349 0
M  V30 1434 H 134.03 3.02411 2.87408 0
M  V30 1435 H 132.66 1.91693 2.59718 0
M  V30 1436 H 131.712 3.68483 0.94469 0
M  V30 1437 H 133.024 4.77258 1.45005 0
M  V30 1438 H 132.178 4.72528 3.80529 0
M  V30 1439 H 130.917 3.5452 3.34913 0
M  V30 1440 H 129.922 5.21024 1.75539 0
M  V30 1441 H 131.147 6.41133 2.23887 0
M  V30 1442 H 129.093 5.13385 4.08378 0
M  V30 1443 H 129.01 6.73694 3.43034 0
M  V30 1444 H 130.278 6.33072 4.54797 0
M  V30 1445 N 134.507 -0.190092 1.56449 0
M  V30 1446 C 135.454 -1.23557 1.94942 0
M  V30 1447 C 136.424 -1.44972 0.810696 0
M  V30 1448 O 137.609 -1.58023 1.06927 0
M  V30 1449 C 134.749 -2.57416 2.2985 0
M  V30 1450 C 133.862 -2.43537 3.5681 0
M  V30 1451 C 132.997 -3.70134 3.81017 0
M  V30 1452 C 132.036 -3.51109 5.01387 0
M  V30 1453 N 131.173 -4.6973 5.21822 0
M  V30 1454 H 136.013 -0.900304 2.84075 0
M  V30 1455 H 133.55 -0.43318 1.40577 0
M  V30 1456 H 135.508 -3.35409 2.48106 0
M  V30 1457 H 134.138 -2.88975 1.43852 0
M  V30 1458 H 133.19 -1.56816 3.46573 0
M  V30 1459 H 134.502 -2.25415 4.4496 0
M  V30 1460 H 133.656 -4.56566 3.9954 0
M  V30 1461 H 132.395 -3.91215 2.91207 0
M  V30 1462 H 131.4 -2.63063 4.82782 0
M  V30 1463 H 132.625 -3.31468 5.9271 0
M  V30 1464 H 130.571 -4.91065 4.34961 0
M  V30 1465 H 130.488 -4.54452 6.0416 0
M  V30 1466 H 131.756 -5.57499 5.44808 0
M  V30 1467 N 135.985 -1.50799 -0.457987 0
M  V30 1468 C 136.948 -1.7005 -1.53674 0
M  V30 1469 C 137.948 -0.570881 -1.50325 0
M  V30 1470 O 139.138 -0.838126 -1.52712 0
M  V30 1471 C 136.27 -1.73788 -2.93276 0
M  V30 1472 H 137.463 -2.66306 -1.37917 0
M  V30 1473 H 135.016 -1.40477 -0.685271 0
M  V30 1474 H 135.751 -0.792717 -3.14462 0
M  V30 1475 H 135.536 -2.55864 -2.97113 0
M  V30 1476 H 137.026 -1.90591 -3.71571 0
M  V30 1477 N 137.463 0.71206 -1.40597 0
M  V30 1478 C 138.71 1.47197 -1.39065 0
M  V30 1479 C 139.038 1.94499 0.00583891 0
M  V30 1480 O 138.293 1.68752 0.99102 0
M  V30 1481 C 138.592 2.71039 -2.32965 0
M  V30 1482 C 138.258 2.42484 -3.80148 0
M  V30 1483 C 136.92 2.34406 -4.20247 0
M  V30 1484 C 139.272 2.18598 -4.73143 0
M  V30 1485 C 136.6 2.00516 -5.51371 0
M  V30 1486 C 138.952 1.8622 -6.0457 0
M  V30 1487 C 137.616 1.76626 -6.43708 0
M  V30 1488 H 136.886 0.538634 -0.508876 0
M  V30 1489 H 139.533 0.815325 -1.73276 0
M  V30 1490 H 137.838 3.41558 -1.91951 0
M  V30 1491 H 139.535 3.29138 -2.29061 0
M  V30 1492 H 136.125 2.49659 -3.4838 0
M  V30 1493 H 140.309 2.23793 -4.42979 0
M  V30 1494 H 135.565 1.91628 -5.80593 0
M  V30 1495 H 139.739 1.66752 -6.76141 0
M  V30 1496 H 137.366 1.50133 -7.45228 0
M  V30 1497 N 138.941 1.26152 0.944643 0
M  V30 1498 C 139.851 1.09176 2.07648 0
M  V30 1499 C 140.867 0.0261935 1.7398 0
M  V30 1500 O 142.043 0.229208 2.00091 0
M  V30 1501 C 139.108 0.722915 3.39079 0
M  V30 1502 C 138.169 1.86752 3.86552 0
M  V30 1503 C 137.402 1.51617 5.11711 0
M  V30 1504 O 137.625 0.416331 5.68879 0
M  V30 1505 O 136.559 2.34975 5.54139 0
M  V30 1506 H 140.385 2.0412 2.24875 0
M  V30 1507 H 137.97 1.05182 1.061 0
M  V30 1508 H 139.852 0.529787 4.18056 0
M  V30 1509 H 138.527 -0.197159 3.23099 0
M  V30 1510 H 137.434 2.11558 3.08535 0
M  V30 1511 H 138.767 2.76719 4.07047 0
M  V30 1512 N 140.419 -1.14872 1.07899 0
M  V30 1513 C 141.366 -2.19791 0.704319 0
M  V30 1514 C 142.336 -1.63238 -0.306987 0
M  V30 1515 O 143.521 -1.8983 -0.192171 0
M  V30 1516 C 140.661 -3.44911 0.114244 0
M  V30 1517 C 139.774 -4.15637 1.1777 0
M  V30 1518 C 138.909 -5.28324 0.552037 0
M  V30 1519 C 137.948 -5.90875 1.59789 0
M  V30 1520 N 137.085 -6.95022 0.994404 0
M  V30 1521 H 141.925 -2.5119 1.60336 0
M  V30 1522 H 139.462 -1.23356 0.801352 0
M  V30 1523 H 141.42 -4.16477 -0.245544 0
M  V30 1524 H 140.05 -3.14011 -0.74813 0
M  V30 1525 H 139.102 -3.42512 1.65499 0
M  V30 1526 H 140.414 -4.5823 1.97046 0
M  V30 1527 H 139.568 -6.06538 0.1402 0
M  V30 1528 H 138.307 -4.86939 -0.272431 0
M  V30 1529 H 137.312 -5.11369 2.01945 0
M  V30 1530 H 138.537 -6.34337 2.42474 0
M  V30 1531 H 136.483 -6.55722 0.190939 0
M  V30 1532 H 136.4 -7.36073 1.72432 0
M  V30 1533 H 137.668 -7.77123 0.608253 0
M  V30 1534 N 141.898 -0.863906 -1.31812 0
M  V30 1535 C 143.123 -0.48527 -2.01643 0
M  V30 1536 C 143.548 0.913058 -1.64453 0
M  V30 1537 O 142.906 1.6014 -0.849985 0
M  V30 1538 C 142.954 -0.642625 -3.54828 0
M  V30 1539 O 142.058 0.320659 -4.11151 0
M  V30 1540 H 141.399 -0.193793 -0.635091 0
M  V30 1541 H 143.929 -1.16565 -1.68148 0
M  V30 1542 H 143.939 -0.533628 -4.04495 0
M  V30 1543 H 142.614 -1.66227 -3.81237 0
M  V30 1544 H 141.191 0.167126 -3.72525 0
M  V30 1545 N 143.376 1.44774 -0.622745 0
M  V30 1546 C 144.306 2.33382 0.0741861 0
M  V30 1547 C 145.287 1.47719 0.843387 0
M  V30 1548 O 146.472 1.76458 0.810934 0
M  V30 1549 C 143.602 3.30663 1.06204 0
M  V30 1550 C 142.556 4.26079 0.405037 0
M  V30 1551 C 141.882 5.13165 1.5022 0
M  V30 1552 C 143.182 5.1781 -0.683414 0
M  V30 1553 H 144.876 2.91905 -0.665713 0
M  V30 1554 H 142.422 1.40363 -0.321587 0
M  V30 1555 H 144.375 3.9153 1.55827 0
M  V30 1556 H 143.099 2.70331 1.83272 0
M  V30 1557 H 141.758 3.66532 -0.0704683 0
M  V30 1558 H 141.406 4.49191 2.26355 0
M  V30 1559 H 141.106 5.77812 1.06803 0
M  V30 1560 H 142.63 5.76902 2.00041 0
M  V30 1561 H 144.044 5.72661 -0.270631 0
M  V30 1562 H 142.441 5.91015 -1.04023 0
M  V30 1563 H 143.511 4.59326 -1.55395 0
M  V30 1564 N 144.854 0.36279 1.53368 0
M  V30 1565 C 145.801 -0.485008 2.25646 0
M  V30 1566 C 146.771 -1.07982 1.2621 0
M  V30 1567 O 147.956 -1.11284 1.54986 0
M  V30 1568 C 145.096 -1.62023 3.04701 0
M  V30 1569 C 144.209 -1.05086 4.19024 0
M  V30 1570 C 143.344 -2.15496 4.85525 0
M  V30 1571 C 142.383 -1.5601 5.91884 0
M  V30 1572 N 141.52 -2.60241 6.52088 0
M  V30 1573 H 146.36 0.137864 2.97681 0
M  V30 1574 H 143.897 0.0798061 1.46883 0
M  V30 1575 H 145.855 -2.28887 3.48807 0
M  V30 1576 H 144.485 -2.2138 2.34927 0
M  V30 1577 H 143.537 -0.27259 3.79422 0
M  V30 1578 H 144.849 -0.575926 4.95464 0
M  V30 1579 H 144.003 -2.90186 5.32801 0
M  V30 1580 H 142.742 -2.66341 4.08551 0
M  V30 1581 H 141.747 -0.798338 5.43973 0
M  V30 1582 H 142.972 -1.05994 6.70777 0
M  V30 1583 H 140.918 -3.10304 5.77968 0
M  V30 1584 H 140.835 -2.17426 7.24059 0
M  V30 1585 H 142.103 -3.34641 7.04014 0
M  V30 1586 N 146.332 -1.57332 0.0918853 0
M  V30 1587 C 147.279 -2.13847 -0.868211 0
M  V30 1588 C 148.249 -1.05618 -1.28196 0
M  V30 1589 O 149.434 -1.33387 -1.36427 0
M  V30 1590 C 146.574 -2.72062 -2.12312 0
M  V30 1591 C 145.687 -3.94514 -1.7602 0
M  V30 1592 C 144.822 -4.40903 -2.96273 0
M  V30 1593 C 143.861 -5.55953 -2.56092 0
M  V30 1594 N 142.998 -5.97209 -3.69169 0
M  V30 1595 H 147.838 -2.95575 -0.379406 0
M  V30 1596 H 145.375 -1.46048 -0.175606 0
M  V30 1597 H 147.333 -3.03931 -2.858 0
M  V30 1598 H 145.963 -1.93068 -2.58698 0
M  V30 1599 H 145.015 -3.68979 -0.925135 0
M  V30 1600 H 146.327 -4.7802 -1.42472 0
M  V30 1601 H 145.481 -4.74539 -3.78018 0
M  V30 1602 H 144.22 -3.56291 -3.33029 0
M  V30 1603 H 143.225 -5.21948 -1.72773 0
M  V30 1604 H 144.45 -6.42311 -2.20484 0
M  V30 1605 H 142.396 -5.15543 -4.05649 0
M  V30 1606 H 142.313 -6.75504 -3.39456 0
M  V30 1607 H 143.581 -6.35475 -4.51434 0
M  V30 1608 N 147.81 0.181792 -1.56548 0
M  V30 1609 C 148.74 1.22765 -1.98623 0
M  V30 1610 C 149.721 1.46747 -0.860189 0
M  V30 1611 O 150.906 1.58259 -1.12551 0
M  V30 1612 C 148.036 2.56894 -2.33715 0
M  V30 1613 C 146.99 2.475 -3.49182 0
M  V30 1614 C 146.316 3.86023 -3.69986 0
M  V30 1615 C 147.616 1.98866 -4.82959 0
M  V30 1616 H 149.31 0.877942 -2.86239 0
M  V30 1617 H 146.856 0.42088 -1.37712 0
M  V30 1618 H 148.809 3.30253 -2.61746 0
M  V30 1619 H 147.533 2.93632 -1.42997 0
M  V30 1620 H 146.192 1.76596 -3.21262 0
M  V30 1621 H 145.84 4.20136 -2.76576 0
M  V30 1622 H 145.54 3.80609 -4.47672 0
M  V30 1623 H 147.064 4.60984 -4.00407 0
M  V30 1624 H 148.478 2.61992 -5.09934 0
M  V30 1625 H 146.875 2.04424 -5.64208 0
M  V30 1626 H 147.945 0.942465 -4.75653 0
M  V30 1627 N 149.288 1.51039 0.449983 0
M  V30 1628 C 150.22 1.67617 1.56324 0
M  V30 1629 C 151.233 0.557083 1.52972 0
M  V30 1630 O 152.422 0.830989 1.57977 0
M  V30 1631 C 149.522 1.66402 2.95235 0
M  V30 1632 C 148.695 2.9469 3.23229 0
M  V30 1633 C 147.754 2.85832 4.41799 0
M  V30 1634 O 146.78 3.59785 4.41071 0
M  V30 1635 N 147.982 2.00821 5.44657 0
M  V30 1636 H 150.747 2.63648 1.42512 0
M  V30 1637 H 148.308 1.48767 0.638737 0
M  V30 1638 H 150.3 1.58062 3.72557 0
M  V30 1639 H 148.87 0.780182 3.02708 0
M  V30 1640 H 148.09 3.16996 2.34323 0
M  V30 1641 H 149.378 3.79636 3.38754 0
M  V30 1642 H 148.776 1.40091 5.48079 0
M  V30 1643 H 147.333 1.98368 6.20881 0
M  V30 1644 N 150.766 -0.704594 1.40972 0
M  V30 1645 C 151.696 -1.83124 1.44872 0
M  V30 1646 C 152.677 -1.67281 0.30838 0
M  V30 1647 O 153.862 -1.87149 0.518556 0
M  V30 1648 C 150.992 -3.21181 1.32136 0
M  V30 1649 C 149.946 -3.51714 2.43888 0
M  V30 1650 C 149.272 -4.89032 2.16222 0
M  V30 1651 C 150.572 -3.516 3.86232 0
M  V30 1652 H 152.266 -1.80117 2.39161 0
M  V30 1653 H 149.812 -0.865145 1.15114 0
M  V30 1654 H 151.765 -3.99702 1.33479 0
M  V30 1655 H 150.489 -3.24791 0.343279 0
M  V30 1656 H 149.148 -2.75539 2.41813 0
M  V30 1657 H 148.796 -4.89256 1.16778 0
M  V30 1658 H 148.496 -5.10426 2.911 0
M  V30 1659 H 150.02 -5.69873 2.19265 0
M  V30 1660 H 151.434 -4.2014 3.9007 0
M  V30 1661 H 149.831 -3.84523 4.60719 0
M  V30 1662 H 150.901 -2.50757 4.15029 0
M  V30 1663 N 152.244 -1.26651 -0.937939 0
M  V30 1664 C 153.154 -1.10276 -2.07066 0
M  V30 1665 C 154.17 -0.0354197 -1.73964 0
M  V30 1666 O 155.346 -0.239816 -1.99967 0
M  V30 1667 C 152.411 -0.740887 -3.38691 0
M  V30 1668 C 151.472 -1.88799 -3.85556 0
M  V30 1669 C 150.705 -1.54329 -5.10899 0
M  V30 1670 O 150.928 -0.446494 -5.6865 0
M  V30 1671 O 149.862 -2.37911 -5.52885 0
M  V30 1672 H 153.688 -2.05309 -2.23789 0
M  V30 1673 H 151.273 -1.05743 -1.0554 0
M  V30 1674 H 153.155 -0.55195 -4.1777 0
M  V30 1675 H 151.83 0.180022 -3.23199 0
M  V30 1676 H 150.737 -2.13191 -3.07409 0
M  V30 1677 H 152.07 -2.78874 -4.05574 0
M  V30 1678 N 153.722 1.14298 -1.08507 0
M  V30 1679 C 154.952 1.88945 -0.835663 0
M  V30 1680 C 155.36 1.78894 0.615928 0
M  V30 1681 O 154.703 1.1468 1.43506 0
M  V30 1682 C 154.765 3.39585 -1.17994 0
M  V30 1683 C 154.429 3.7342 -2.63451 0
M  V30 1684 C 155.426 3.73454 -3.61702 0
M  V30 1685 C 153.111 4.03368 -2.99332 0
M  V30 1686 C 155.105 4.02961 -4.93864 0
M  V30 1687 C 152.792 4.32538 -4.31687 0
M  V30 1688 C 153.79 4.32318 -5.28763 0
M  V30 1689 O 153.478 4.6078 -6.58739 0
M  V30 1690 H 153.21 0.605307 -0.300965 0
M  V30 1691 H 155.764 1.45673 -1.44806 0
M  V30 1692 H 153.994 3.83315 -0.51055 0
M  V30 1693 H 155.683 3.9554 -0.911182 0
M  V30 1694 H 156.449 3.50403 -3.35325 0
M  V30 1695 H 152.328 4.02692 -2.24411 0
M  V30 1696 H 155.872 4.02704 -5.69627 0
M  V30 1697 H 151.769 4.55059 -4.57812 0
M  V30 1698 H 152.537 4.78492 -6.64069 0
M  V30 1699 N 155.201 0.870884 1.31352 0
M  V30 1700 C 156.45 0.478408 1.95944 0
M  V30 1701 C 156.763 -0.974493 1.69597 0
M  V30 1702 O 157.969 -1.47316 2.28058 0
M  V30 1703 C 156.425 0.804609 3.50791 0
M  V30 1704 C 156.033 2.27433 3.85977 0
M  V30 1705 C 157.777 0.480648 4.2177 0
M  V30 1706 C 155.684 2.5429 5.33939 0
M  V30 1707 H 154.614 0.175175 0.733369 0
M  V30 1708 H 157.265 1.06391 1.4951 0
M  V30 1709 H 155.647 0.148347 3.95722 0
M  V30 1710 H 156.821 2.97373 3.52002 0
M  V30 1711 H 155.136 2.56442 3.28065 0
M  V30 1712 H 157.733 0.658519 5.30629 0
M  V30 1713 H 158.076 -0.578979 4.12254 0
M  V30 1714 H 158.609 1.09349 3.82476 0
M  V30 1715 H 155.348 3.58939 5.48491 0
M  V30 1716 H 154.868 1.88945 5.69263 0
M  V30 1717 H 156.547 2.39066 6.01212 0
M  V30 1718 N 156.679 -1.44442 0.630414 0
M  V30 1719 C 157.956 -1.9549 0.0655657 0
M  V30 1720 C 158.336 -1.5724 -1.40851 0
M  V30 1721 O 157.684 -0.846116 -2.12257 0
M  V30 1722 C 157.894 -3.47812 0.287691 0
M  V30 1723 C 159.242 -4.24216 0.180513 0
M  V30 1724 O 160.266 -3.55526 0.219019 0
M  V30 1725 O 159.125 -5.46434 0.0848493 0
M  V30 1726 H 156.219 -0.826688 -0.0227177 0
M  V30 1727 H 158.765 -1.54496 0.702068 0
M  V30 1728 H 157.537 -3.687 1.31056 0
M  V30 1729 H 157.16 -3.95751 -0.382984 0
M  V30 1730 N 158.157 -0.370918 -1.53173 0
M  V30 1731 C 159.087 0.464847 -2.28826 0
M  V30 1732 C 160.068 1.07936 -1.31468 0
M  V30 1733 O 161.253 1.0956 -1.60344 0
M  V30 1734 C 158.383 1.60196 -3.08147 0
M  V30 1735 C 157.337 1.11443 -4.13237 0
M  V30 1736 C 156.663 2.3422 -4.80672 0
M  V30 1737 C 157.963 0.195384 -5.21934 0
M  V30 1738 H 159.657 -0.166329 -2.98938 0
M  V30 1739 H 157.203 -0.0814359 -1.4377 0
M  V30 1740 H 159.156 2.19332 -3.59822 0
M  V30 1741 H 157.88 2.26045 -2.35735 0
M  V30 1742 H 156.539 0.545727 -3.62515 0
M  V30 1743 H 156.187 2.98537 -4.04827 0
M  V30 1744 H 155.887 2.02269 -5.51689 0
M  V30 1745 H 157.411 2.94032 -5.35143 0
M  V30 1746 H 158.825 0.694375 -5.69079 0
M  V30 1747 H 157.222 -0.0335027 -6.00091 0
M  V30 1748 H 158.292 -0.760961 -4.78892 0
M  V30 1749 N 159.635 1.57281 -0.100228 0
M  V30 1750 C 160.865 1.98591 0.569681 0
M  V30 1751 C 161.273 0.978315 1.61943 0
M  V30 1752 O 160.616 -0.0396108 1.83657 0
M  V30 1753 C 160.678 3.36282 1.271 0
M  V30 1754 C 160.342 4.55488 0.371409 0
M  V30 1755 C 161.339 5.18491 -0.382504 0
M  V30 1756 C 159.024 5.01474 0.287965 0
M  V30 1757 C 161.018 6.25852 -1.20779 0
M  V30 1758 C 158.705 6.08701 -0.540965 0
M  V30 1759 C 159.703 6.70755 -1.28749 0
M  V30 1760 O 159.391 7.75914 -2.10269 0
M  V30 1761 H 159.123 0.65752 0.156982 0
M  V30 1762 H 161.677 2.0463 -0.177734 0
M  V30 1763 H 159.907 3.26941 2.0651 0
M  V30 1764 H 161.596 3.62005 1.83595 0
M  V30 1765 H 162.362 4.83891 -0.3278 0
M  V30 1766 H 158.241 4.52932 0.858689 0
M  V30 1767 H 161.785 6.74218 -1.79096 0
M  V30 1768 H 157.682 6.42732 -0.597131 0
M  V30 1769 H 158.45 7.92925 -2.03007 0
M  V30 1770 N 161.113 -0.173488 1.56642 0
M  V30 1771 C 162.043 -1.2171 1.99271 0
M  V30 1772 C 163.024 -1.46289 0.867959 0
M  V30 1773 O 164.209 -1.5766 1.13388 0
M  V30 1774 C 161.339 -2.55651 2.35074 0
M  V30 1775 C 160.293 -2.45645 3.50489 0
M  V30 1776 C 159.619 -3.84056 3.72028 0
M  V30 1777 C 160.919 -1.96302 4.84007 0
M  V30 1778 H 162.613 -0.86275 2.867 0
M  V30 1779 H 160.159 -0.413571 1.37933 0
M  V30 1780 H 162.112 -3.2886 2.63494 0
M  V30 1781 H 160.836 -2.92869 1.44552 0
M  V30 1782 H 159.495 -1.7489 3.22194 0
M  V30 1783 H 159.143 -4.18664 2.788 0
M  V30 1784 H 158.843 -3.7823 4.49684 0
M  V30 1785 H 160.367 -4.58854 4.02846 0
M  V30 1786 H 161.781 -2.59284 5.11317 0
M  V30 1787 H 160.178 -2.01429 5.65284 0
M  V30 1788 H 161.248 -0.917226 4.76146 0
M  V30 1789 N 162.591 -1.51276 -0.441967 0
M  V30 1790 C 163.84 -1.6295 -1.18871 0
M  V30 1791 C 164.153 -0.349312 -1.92456 0
M  V30 1792 O 165.359 -0.345355 -2.69295 0
M  V30 1793 C 163.815 -2.87759 -2.16155 0
M  V30 1794 C 163.423 -4.22764 -1.48239 0
M  V30 1795 C 165.167 -3.08788 -2.91291 0
M  V30 1796 C 163.074 -5.38728 -2.4398 0
M  V30 1797 H 162.004 -0.606913 -0.447406 0
M  V30 1798 H 164.655 -1.77739 -0.456205 0
M  V30 1799 H 163.037 -2.66593 -2.92821 0
M  V30 1800 H 164.211 -4.54293 -0.771635 0
M  V30 1801 H 162.526 -4.07575 -0.852741 0
M  V30 1802 H 165.123 -3.92599 -3.63002 0
M  V30 1803 H 165.466 -2.21679 -3.5237 0
M  V30 1804 H 165.999 -3.30272 -2.21733 0
M  V30 1805 H 162.738 -6.28082 -1.87598 0
M  V30 1806 H 162.258 -5.1158 -3.13123 0
M  V30 1807 H 163.937 -5.70489 -3.05207 0
M  V30 1808 N 164.069 0.697108 -1.41344 0
M  V30 1809 C 165.019 1.80313 -1.39539 0
M  V30 1810 C 166.003 1.58618 -0.270001 0
M  V30 1811 O 167.195 1.69477 -0.510551 0
M  V30 1812 C 164.324 3.18606 -1.27848 0
M  V30 1813 C 163.41 3.46001 -2.45244 0
M  V30 1814 N 163.801 3.44103 -3.70711 0
M  V30 1815 C 162.099 3.76542 -2.39023 0
M  V30 1816 C 162.8 3.7036 -4.48563 0
M  V30 1817 N 161.776 3.90027 -3.78655 0
M  V30 1818 H 165.578 1.77207 -2.34468 0
M  V30 1819 H 163.092 0.897031 -1.35378 0
M  V30 1820 H 165.089 3.97833 -1.24637 0
M  V30 1821 H 163.749 3.22925 -0.339032 0
M  V30 1822 H 164.76 3.2452 -4.03618 0
M  V30 1823 H 161.437 3.88241 -1.53542 0
M  V30 1824 H 162.827 3.75042 -5.57488 0
M  V30 1825 N 165.547 1.27147 0.931209 0
M  V30 1826 C 166.479 1.05364 2.03546 0
M  V30 1827 C 167.492 0.0108438 1.62796 0
M  V30 1828 O 168.681 0.25202 1.76712 0
M  V30 1829 C 165.781 0.575566 3.33977 0
M  V30 1830 C 164.954 1.68985 4.03439 0
M  V30 1831 C 164.013 1.20813 5.12143 0
M  V30 1832 O 163.039 1.90712 5.363 0
M  V30 1833 N 164.241 0.0618851 5.80467 0
M  V30 1834 H 167.006 2.00454 2.22796 0
M  V30 1835 H 164.567 1.18666 1.10136 0
M  V30 1836 H 166.559 0.237264 4.04004 0
M  V30 1837 H 165.129 -0.282016 3.11325 0
M  V30 1838 H 164.349 2.19861 3.27192 0
M  V30 1839 H 165.637 2.4378 4.46597 0
M  V30 1840 H 165.035 -0.521621 5.6329 0
M  V30 1841 H 163.592 -0.217264 6.51438 0
M  V30 1842 N 167.025 -1.13721 1.09112 0
M  V30 1843 C 168.436 -1.6648 0.845068 0
M  V30 1844 C 168.787 -1.85911 -0.62701 0
M  V30 1845 O 167.912 -1.57556 -1.48341 0
M  V30 1846 C 168.507 -3.02413 1.52748 0
M  V30 1847 C 167.066 -3.52176 1.32849 0
M  V30 1848 C 166.213 -2.27492 1.58564 0
M  V30 1849 H 169.164 -0.976872 1.25072 0
M  V30 1850 H 169.185 -3.68223 0.958752 0
M  V30 1851 H 168.697 -2.88238 2.59885 0
M  V30 1852 H 166.798 -3.7156 0.278137 0
M  V30 1853 H 166.911 -4.32499 2.0611 0
M  V30 1854 H 165.275 -2.33923 1.00758 0
M  V30 1855 H 166.058 -2.15886 2.66924 0
M  V30 1856 N 168.503 -0.877838 -1.30888 0
M  V30 1857 C 169.75 -0.492696 -1.96415 0
M  V30 1858 C 170.078 0.956671 -1.69346 0
M  V30 1859 O 169.333 1.68993 -0.986913 0
M  V30 1860 C 169.632 -0.705748 -3.50363 0
M  V30 1861 C 169.298 -2.1291 -3.97467 0
M  V30 1862 C 167.96 -2.51834 -4.1004 0
M  V30 1863 C 170.312 -3.05702 -4.22132 0
M  V30 1864 C 167.64 -3.82775 -4.44635 0
M  V30 1865 C 169.992 -4.36166 -4.58194 0
M  V30 1866 C 168.656 -4.74993 -4.68975 0
M  V30 1867 H 167.926 -0.18029 -0.718733 0
M  V30 1868 H 170.573 -1.11233 -1.55883 0
M  V30 1869 H 168.878 -0.00303058 -3.918 0
M  V30 1870 H 170.575 -0.387456 -3.99124 0
M  V30 1871 H 167.165 -1.81694 -3.88182 0
M  V30 1872 H 171.349 -2.76853 -4.11906 0
M  V30 1873 H 166.605 -4.12609 -4.51181 0
M  V30 1874 H 170.779 -5.08111 -4.76231 0
M  V30 1875 H 168.406 -5.76495 -4.95537 0
M  V30 1876 N 169.982 1.44106 -0.638065 0
M  V30 1877 C 171.23 2.01579 -0.145043 0
M  V30 1878 C 171.551 1.50496 1.24 0
M  V30 1879 O 170.821 0.711374 1.82527 0
M  V30 1880 H 169.401 0.745282 -0.05063 0
M  V30 1881 H 172.063 1.76516 -0.826327 0
M  V30 1882 H 171.159 3.11877 -0.118039 0
M  V30 1883 N 171.46 0.379036 1.52974 0
M  V30 1884 C 172.737 -0.263479 1.93817 0
M  V30 1885 C 173.117 -1.65244 1.31368 0
M  V30 1886 O 172.465 -2.23448 0.477856 0
M  V30 1887 C 172.675 -0.300166 3.47707 0
M  V30 1888 C 174.023 -0.534061 4.21228 0
M  V30 1889 O 175.047 -0.38081 3.54159 0
M  V30 1890 O 173.906 -0.833501 5.40106 0
M  V30 1891 H 171 -0.161149 0.811147 0
M  V30 1892 H 173.546 0.432798 1.64088 0
M  V30 1893 H 172.318 0.673138 3.85467 0
M  V30 1894 H 171.941 -1.04179 3.83709 0
M  V30 1895 N 172.938 -1.57226 0.108567 0
M  V30 1896 C 174.184 -1.95121 -0.552761 0
M  V30 1897 C 174.517 -0.991345 -1.66991 0
M  V30 1898 O 173.792 -0.0267211 -1.94482 0
M  V30 1899 C 174.075 -3.43039 -1.09528 0
M  V30 1900 C 173.928 -4.49797 0.0177332 0
M  V30 1901 C 175.247 -3.92567 -1.98945 0
M  V30 1902 H 172.366 -0.709496 -0.199461 0
M  V30 1903 H 175.008 -1.89126 0.182011 0
M  V30 1904 H 173.158 -3.48279 -1.72146 0
M  V30 1905 H 174.83 -4.56661 0.652584 0
M  V30 1906 H 173.073 -4.284 0.682309 0
M  V30 1907 H 173.744 -5.50528 -0.402919 0
M  V30 1908 H 176.22 -3.89565 -1.46214 0
M  V30 1909 H 175.096 -4.96605 -2.33827 0
M  V30 1910 H 175.357 -3.32648 -2.91201 0
M  V30 1911 N 174.416 0.165178 -1.56732 0
M  V30 1912 C 175.366 1.20917 -1.93295 0
M  V30 1913 C 176.35 1.39488 -0.801985 0
M  V30 1914 O 177.542 1.41356 -1.06525 0
M  V30 1915 C 174.671 2.54718 -2.3016 0
M  V30 1916 C 173.757 2.39815 -3.49785 0
M  V30 1917 N 174.148 1.94637 -4.66851 0
M  V30 1918 C 172.446 2.70623 -3.54513 0
M  V30 1919 C 173.147 1.92344 -5.4898 0
M  V30 1920 N 172.123 2.34978 -4.9019 0
M  V30 1921 H 175.925 0.851675 -2.81289 0
M  V30 1922 H 173.439 0.373399 -1.58049 0
M  V30 1923 H 175.436 3.30165 -2.54552 0
M  V30 1924 H 174.096 2.91265 -1.43508 0
M  V30 1925 H 175.107 1.6488 -4.90953 0
M  V30 1926 H 171.784 3.11167 -2.78354 0
M  V30 1927 H 173.174 1.5906 -6.52801 0
M  V30 1928 N 175.894 1.51508 0.433938 0
M  V30 1929 C 177.134 1.66006 1.19253 0
M  V30 1930 C 177.498 0.369868 1.88404 0
M  V30 1931 O 178.699 0.39066 2.65946 0
M  V30 1932 C 176.97 2.83229 2.17981 0
M  V30 1933 S 178.529 3.18075 3.02281 0
M  V30 1934 H 175.347 0.584821 0.404358 0
M  V30 1935 H 177.949 1.89425 0.48357 0
M  V30 1936 H 176.653 3.75407 1.65824 0
M  V30 1937 H 176.184 2.6201 2.93453 0
M  V30 1938 H 178.199 2.64772 4.19655 0
M  V30 1939 N 177.372 -0.689602 1.41712 0
M  V30 1940 C 178.335 -1.78521 1.43746 0
M  V30 1941 C 179.335 -1.57436 0.327191 0
M  V30 1942 O 180.525 -1.64 0.587348 0
M  V30 1943 C 177.657 -3.16971 1.25467 0
M  V30 1944 H 178.85 -1.78108 2.41283 0
M  V30 1945 H 176.403 -0.89781 1.27942 0
M  V30 1946 H 177.138 -3.23019 0.287948 0
M  V30 1947 H 176.923 -3.33678 2.05917 0
M  V30 1948 H 178.413 -3.96935 1.2974 0
M  V30 1949 N 178.85 -1.27639 -0.924453 0
M  V30 1950 C 180.096 -1.15345 -1.67532 0
M  V30 1951 C 180.451 0.297096 -1.90092 0
M  V30 1952 O 179.744 1.21374 -1.48253 0
M  V30 1953 C 179.938 -1.87407 -3.04325 0
M  V30 1954 C 179.767 -3.3932 -2.95114 0
M  V30 1955 C 178.537 -4.08644 -2.97218 0
M  V30 1956 C 180.735 -4.35242 -2.73987 0
M  V30 1957 N 178.717 -5.47102 -2.78482 0
M  V30 1958 C 180.088 -5.6099 -2.63988 0
M  V30 1959 C 182.143 -4.25294 -2.589 0
M  V30 1960 C 180.846 -6.77924 -2.40442 0
M  V30 1961 C 182.872 -5.41952 -2.36731 0
M  V30 1962 C 182.234 -6.66658 -2.27478 0
M  V30 1963 H 178.333 -0.47696 -0.619704 0
M  V30 1964 H 180.917 -1.6115 -1.09265 0
M  V30 1965 H 179.088 -1.44053 -3.60699 0
M  V30 1966 H 180.82 -1.6759 -3.68369 0
M  V30 1967 H 177.575 -3.60136 -3.07569 0
M  V30 1968 H 177.999 -6.19852 -2.72236 0
M  V30 1969 H 182.641 -3.29598 -2.64811 0
M  V30 1970 H 180.359 -7.73699 -2.3327 0
M  V30 1971 H 183.945 -5.36137 -2.25938 0
M  V30 1972 H 182.825 -7.55405 -2.10555 0
M  V30 1973 N 180.328 1.1314 -1.09713 0
M  V30 1974 C 181.275 2.18642 -0.739196 0
M  V30 1975 C 182.245 1.63706 0.280978 0
M  V30 1976 O 183.43 1.90111 0.161946 0
M  V30 1977 C 180.57 3.44685 -0.169102 0
M  V30 1978 C 179.683 4.13711 -1.24367 0
M  V30 1979 C 178.818 5.27379 -0.636019 0
M  V30 1980 C 177.857 5.88259 -1.69169 0
M  V30 1981 N 176.994 6.93352 -1.10485 0
M  V30 1982 H 181.834 2.48607 -1.64312 0
M  V30 1983 H 179.371 1.22066 -0.820875 0
M  V30 1984 H 181.329 4.16815 0.179256 0
M  V30 1985 H 179.959 3.15161 0.698079 0
M  V30 1986 H 179.011 3.39835 -1.70927 0
M  V30 1987 H 180.323 4.55037 -2.04311 0
M  V30 1988 H 179.477 6.06238 -0.236677 0
M  V30 1989 H 178.216 4.8731 0.194928 0
M  V30 1990 H 177.221 5.08092 -2.10055 0
M  V30 1991 H 178.446 6.30399 -2.52536 0
M  V30 1992 H 176.392 6.55335 -0.295234 0
M  V30 1993 H 176.309 7.33236 -1.84121 0
M  V30 1994 H 177.577 7.76057 -0.73181 0
M  V30 1995 N 181.806 0.884767 1.30421 0
M  V30 1996 C 182.769 0.356277 2.26414 0
M  V30 1997 C 183.769 -0.501124 1.52792 0
M  V30 1998 O 184.959 -0.30831 1.7145 0
M  V30 1999 C 182.091 -0.492316 3.37326 0
M  V30 2000 H 183.284 1.20389 2.74675 0
M  V30 2001 H 180.837 0.661607 1.41607 0
M  V30 2002 H 181.572 -1.36052 2.94381 0
M  V30 2003 H 181.357 0.121832 3.91911 0
M  V30 2004 H 182.847 -0.853871 4.08777 0
M  V30 2005 N 183.284 -1.43765 0.645699 0
M  V30 2006 C 184.217 -2.2798 -0.100072 0
M  V30 2007 C 185.195 -1.39391 -0.837194 0
M  V30 2008 O 186.379 -1.68833 -0.838306 0
M  V30 2009 C 183.506 -3.18643 -1.14823 0
M  V30 2010 C 182.552 -4.2344 -0.510009 0
M  V30 2011 S 183.385 -5.30761 0.710824 0
M  V30 2012 C 184.541 -6.24992 -0.33699 0
M  V30 2013 H 184.774 -2.90884 0.614322 0
M  V30 2014 H 182.307 -1.48166 0.434304 0
M  V30 2015 H 184.265 -3.71424 -1.74799 0
M  V30 2016 H 182.926 -2.54932 -1.8349 0
M  V30 2017 H 182.119 -4.86948 -1.29991 0
M  V30 2018 H 181.721 -3.73997 0.0154577 0
M  V30 2019 H 184.013 -6.66691 -1.20537 0
M  V30 2020 H 184.956 -7.07612 0.262879 0
M  V30 2021 H 185.364 -5.60517 -0.669425 0
M  V30 2022 N 184.763 -0.387143 -1.52771 0
M  V30 2023 C 185.673 0.456442 -2.30117 0
M  V30 2024 C 186.689 1.07342 -1.36944 0
M  V30 2025 O 187.865 1.07971 -1.70013 0
M  V30 2026 C 184.93 1.56957 -3.09136 0
M  V30 2027 C 183.991 0.977916 -4.18014 0
M  V30 2028 C 183.224 2.038 -4.93256 0
M  V30 2029 O 183.447 3.25271 -4.68567 0
M  V30 2030 O 182.381 1.6565 -5.78657 0
M  V30 2031 H 186.207 -0.17359 -3.03203 0
M  V30 2032 H 183.792 -0.150919 -1.48636 0
M  V30 2033 H 185.674 2.21628 -3.58412 0
M  V30 2034 H 184.349 2.18461 -2.38865 0
M  V30 2035 H 183.256 0.294525 -3.72939 0
M  V30 2036 H 184.589 0.407128 -4.90513 0
M  V30 2037 N 186.241 1.57166 -0.116904 0
M  V30 2038 C 187.151 2.18745 0.847812 0
M  V30 2039 C 188.167 1.163 1.29423 0
M  V30 2040 O 189.343 1.48761 1.35765 0
M  V30 2041 C 186.408 2.77307 2.0809 0
M  V30 2042 C 185.469 3.94781 1.68661 0
M  V30 2043 C 184.702 4.50541 2.86091 0
M  V30 2044 O 184.925 4.05202 4.01456 0
M  V30 2045 O 183.859 5.41256 2.63298 0
M  V30 2046 H 187.685 3.01632 0.353778 0
M  V30 2047 H 185.27 1.49005 0.108599 0
M  V30 2048 H 187.152 3.14647 2.80313 0
M  V30 2049 H 185.827 1.97452 2.56504 0
M  V30 2050 H 184.734 3.62214 0.935518 0
M  V30 2051 H 186.067 4.76065 1.24991 0
M  V30 2052 N 187.719 -0.156864 1.56817 0
M  V30 2053 C 188.652 -1.22316 1.9265 0
M  V30 2054 C 189.63 -1.42059 0.791076 0
M  V30 2055 O 190.814 -1.56831 1.04576 0
M  V30 2056 C 187.941 -2.58375 2.18998 0
M  V30 2057 C 186.987 -2.55284 3.41661 0
M  V30 2058 S 187.82 -2.02946 4.95553 0
M  V30 2059 C 188.976 -3.40753 5.25013 0
M  V30 2060 H 189.209 -0.917403 2.82791 0
M  V30 2061 H 186.742 -0.362059 1.50095 0
M  V30 2062 H 188.7 -3.36677 2.34859 0
M  V30 2063 H 187.361 -2.86145 1.29538 0
M  V30 2064 H 186.554 -3.55418 3.57343 0
M  V30 2065 H 186.156 -1.85086 3.24991 0
M  V30 2066 H 188.448 -4.36819 5.17876 0
M  V30 2067 H 189.391 -3.29933 6.26538 0
M  V30 2068 H 189.799 -3.37433 4.52548 0
M  V30 2069 N 189.197 -1.51736 -0.425897 0
M  V30 2070 C 190.427 -1.68549 -1.19476 0
M  V30 2071 C 190.835 -0.387288 -1.85194 0
M  V30 2072 O 190.178 0.645142 -1.71999 0
M  V30 2073 C 190.24 -2.75275 -2.31223 0
M  V30 2074 C 189.904 -4.17534 -1.8578 0
M  V30 2075 C 190.901 -5.01936 -1.35485 0
M  V30 2076 C 188.586 -4.6369 -1.93123 0
M  V30 2077 C 190.58 -6.30559 -0.931347 0
M  V30 2078 C 188.267 -5.92307 -1.50384 0
M  V30 2079 C 189.265 -6.75569 -1.00473 0
M  V30 2080 O 188.953 -8.0178 -0.583452 0
M  V30 2081 H 188.685 -0.568525 -0.365725 0
M  V30 2082 H 191.239 -1.98982 -0.509444 0
M  V30 2083 H 189.469 -2.40182 -3.03067 0
M  V30 2084 H 191.158 -2.80853 -2.93047 0
M  V30 2085 H 191.924 -4.67475 -1.29197 0
M  V30 2086 H 187.803 -3.98997 -2.30916 0
M  V30 2087 H 191.347 -6.95498 -0.541084 0
M  V30 2088 H 187.244 -6.2628 -1.56346 0
M  V30 2089 H 188.012 -8.1543 -0.708275 0
M  V30 2090 N 190.675 0.682077 -1.42076 0
M  V30 2091 C 191.622 1.79578 -1.44984 0
M  V30 2092 C 192.592 1.6332 -0.302614 0
M  V30 2093 O 193.777 1.83978 -0.505633 0
M  V30 2094 C 190.917 3.1756 -1.35091 0
M  V30 2095 C 190.03 3.45156 -2.59791 0
M  V30 2096 C 189.165 4.72826 -2.42093 0
M  V30 2097 C 188.204 4.93433 -3.62202 0
M  V30 2098 N 187.341 6.12338 -3.43491 0
M  V30 2099 H 192.181 1.76427 -2.40161 0
M  V30 2100 H 189.718 0.861376 -1.19242 0
M  V30 2101 H 191.676 3.97287 -1.27354 0
M  V30 2102 H 190.306 3.19854 -0.435133 0
M  V30 2103 H 189.358 2.59736 -2.77923 0
M  V30 2104 H 190.67 3.5628 -3.49094 0
M  V30 2105 H 189.824 5.60631 -2.319 0
M  V30 2106 H 188.563 4.63973 -1.50268 0
M  V30 2107 H 187.568 4.04073 -3.72834 0
M  V30 2108 H 188.793 5.04136 -4.54998 0
M  V30 2109 H 186.739 6.04672 -2.54377 0
M  V30 2110 H 186.656 6.2429 -4.26377 0
M  V30 2111 H 187.924 7.02841 -3.37097 0
M  V30 2112 N 192.153 1.28127 0.917671 0
M  V30 2113 C 193.43 1.05761 1.64542 0
M  V30 2114 C 193.81 -0.404344 2.07191 0
M  V30 2115 O 193.158 -1.38963 1.81388 0
M  V30 2116 C 193.368 2.02857 2.83989 0
M  V30 2117 C 194.716 2.32786 3.551 0
M  V30 2118 O 195.74 2.0091 2.94132 0
M  V30 2119 O 194.599 2.87169 4.64969 0
M  V30 2120 H 191.693 0.403916 0.721652 0
M  V30 2121 H 194.239 1.39431 0.967322 0
M  V30 2122 H 193.011 3.01407 2.49538 0
M  V30 2123 H 192.634 1.69809 3.59514 0
M  V30 2124 N 193.631 -1.12557 1.10312 0
M  V30 2125 C 194.879 -1.83675 0.843091 0
M  V30 2126 C 195.2 -1.84435 -0.633131 0
M  V30 2127 O 194.47 -1.30657 -1.45964 0
M  V30 2128 H 193.05 -0.680138 0.308904 0
M  V30 2129 H 195.712 -1.36301 1.39313 0
M  V30 2130 H 194.808 -2.87908 1.2048 0
M  V30 2131 N 195.109 -0.891671 -1.2995 0
M  V30 2132 C 196.039 -0.379797 -2.30391 0
M  V30 2133 C 197.02 0.540919 -1.6127 0
M  V30 2134 O 198.205 0.453352 -1.88834 0
M  V30 2135 C 195.335 0.400654 -3.44981 0
M  V30 2136 C 194.289 -0.428905 -4.25846 0
M  V30 2137 C 193.615 0.478557 -5.32554 0
M  V30 2138 C 194.915 -1.67458 -4.94727 0
M  V30 2139 H 196.609 -1.21914 -2.73454 0
M  V30 2140 H 194.155 -0.587675 -1.31462 0
M  V30 2141 H 196.108 0.769434 -4.14316 0
M  V30 2142 H 194.832 1.27371 -3.0074 0
M  V30 2143 H 193.491 -0.779911 -3.58208 0
M  V30 2144 H 193.139 1.34951 -4.84559 0
M  V30 2145 H 192.839 -0.0727433 -5.87555 0
M  V30 2146 H 194.363 0.843705 -6.04743 0
M  V30 2147 H 195.777 -1.376 -5.56542 0
M  V30 2148 H 194.174 -2.16659 -5.59624 0
M  V30 2149 H 195.244 -2.41518 -4.20473 0
M  V30 2150 N 196.587 1.43421 -0.653314 0
M  V30 2151 C 197.833 2.02111 -0.166992 0
M  V30 2152 C 198.166 1.51423 1.21592 0
M  V30 2153 O 197.441 0.707389 1.8118 0
M  V30 2154 C 197.724 3.5966 -0.177948 0
M  V30 2155 C 197.577 4.20579 -1.59478 0
M  V30 2156 C 198.896 4.37413 0.4856 0
M  V30 2157 H 196.015 0.734374 -0.0621557 0
M  V30 2158 H 198.657 1.70717 -0.834016 0
M  V30 2159 H 196.807 3.86537 0.390032 0
M  V30 2160 H 198.479 4.04732 -2.21336 0
M  V30 2161 H 196.722 3.77226 -2.14204 0
M  V30 2162 H 197.393 5.29665 -1.5543 0
M  V30 2163 H 199.869 4.161 0.00234528 0
M  V30 2164 H 198.745 5.47075 0.447207 0
M  V30 2165 H 199.006 4.13672 1.55974 0
M  V30 2166 N 198.065 0.39524 1.52563 0
M  V30 2167 C 199.481 0.0454682 1.59535 0
M  V30 2168 C 199.681 -1.44056 1.4089 0
M  V30 2169 O 198.737 -2.20579 1.22888 0
M  V30 2170 C 200.05 0.527963 2.96029 0
M  V30 2171 C 201.598 0.484733 3.09224 0
M  V30 2172 C 202.073 0.943512 4.48176 0
M  V30 2173 N 203.564 0.899765 4.54377 0
M  V30 2174 C 204.299 1.22609 5.60138 0
M  V30 2175 N 203.795 1.62319 6.73516 0
M  V30 2176 N 205.588 1.14696 5.50274 0
M  V30 2177 H 197.739 1.36261 1.62931 0
M  V30 2178 H 200.002 0.558887 0.765735 0
M  V30 2179 H 199.708 1.56607 3.14908 0
M  V30 2180 H 199.582 -0.0698056 3.77135 0
M  V30 2181 H 201.969 -0.544298 2.90037 0
M  V30 2182 H 202.05 1.11838 2.30056 0
M  V30 2183 H 201.694 1.9708 4.68104 0
M  V30 2184 H 201.624 0.286817 5.25818 0
M  V30 2185 H 204.115 0.607632 3.72983 0
M  V30 2186 H 204.428 1.85567 7.5019 0
M  V30 2187 H 202.773 1.66211 6.74833 0
M  V30 2188 H 205.964 0.835701 4.6058 0
M  V30 2189 H 206.137 1.40459 6.32594 0
M  V30 2190 N 199.544 -1.57102 0.125237 0
M  V30 2191 C 200.507 -2.14471 -0.80838 0
M  V30 2192 C 201.507 -1.0811 -1.19033 0
M  V30 2193 O 202.697 -1.33856 -1.11482 0
M  V30 2194 C 199.829 -2.69005 -2.09402 0
M  V30 2195 H 201.022 -2.98297 -0.309696 0
M  V30 2196 H 198.575 -1.55807 -0.124051 0
M  V30 2197 H 199.31 -1.88785 -2.63687 0
M  V30 2198 H 199.095 -3.46799 -1.82957 0
M  V30 2199 H 200.585 -3.13278 -2.76128 0
M  V30 2200 N 201.022 0.148545 -1.56898 0
M  V30 2201 C 202.271 0.85984 -1.82454 0
M  V30 2202 C 202.584 1.82406 -0.706229 0
M  V30 2203 O 203.79 2.57938 -0.847349 0
M  V30 2204 C 202.246 1.57967 -3.2338 0
M  V30 2205 C 201.854 0.65794 -4.43142 0
M  V30 2206 C 203.598 2.27784 -3.58211 0
M  V30 2207 C 201.505 1.3793 -5.75091 0
M  V30 2208 H 200.435 0.324834 -0.68044 0
M  V30 2209 H 203.086 0.112588 -1.83154 0
M  V30 2210 H 201.468 2.37249 -3.17063 0
M  V30 2211 H 202.642 -0.0995497 -4.60692 0
M  V30 2212 H 200.957 0.0682643 -4.16344 0
M  V30 2213 H 203.554 2.8239 -4.54048 0
M  V30 2214 H 203.897 3.04204 -2.84193 0
M  V30 2215 H 204.43 1.55421 -3.66182 0
M  V30 2216 H 201.169 0.656982 -6.52199 0
M  V30 2217 H 200.689 2.10954 -5.61479 0
M  V30 2218 H 202.368 1.92063 -6.17835 0
M  V30 2219 N 202.5 1.5196 0.417844 0
M  V30 2220 C 203.748 1.65263 1.16329 0
M  V30 2221 C 204.069 0.380634 1.91249 0
M  V30 2222 O 203.339 -0.604214 1.86349 0
M  V30 2223 H 201.919 0.60912 0.432414 0
M  V30 2224 H 204.581 1.88969 0.477162 0
M  V30 2225 H 203.677 2.4896 1.88217 0
M  V30 2226 N 203.978 -0.674533 1.42435 0
M  V30 2227 C 205.224 -1.43671 1.43131 0
M  V30 2228 C 205.557 -1.94142 0.0476021 0
M  V30 2229 O 204.832 -1.70924 -0.928188 0
M  V30 2230 C 205.115 -2.63355 2.45594 0
M  V30 2231 C 204.968 -2.18514 3.93156 0
M  V30 2232 C 206.287 -3.65571 2.45043 0
M  V30 2233 H 203.406 -0.521077 0.521198 0
M  V30 2234 H 206.048 -0.766551 1.7385 0
M  V30 2235 H 204.198 -3.2053 2.19528 0
M  V30 2236 H 205.87 -1.66504 4.30202 0
M  V30 2237 H 204.113 -1.50086 4.07009 0
M  V30 2238 H 204.784 -3.04484 4.60428 0
M  V30 2239 H 207.26 -3.18113 2.68223 0
M  V30 2240 H 206.136 -4.46893 3.18713 0
M  V30 2241 H 206.397 -4.16716 1.47649 0
M  V30 2242 N 205.456 -1.28612 -0.910864 0
M  V30 2243 C 206.681 -1.1891 -1.69927 0
M  V30 2244 C 207.106 0.248372 -1.86453 0
M  V30 2245 O 206.464 1.17961 -1.37676 0
M  V30 2246 C 206.512 -1.89578 -3.06745 0
M  V30 2247 O 205.616 -1.20521 -3.94396 0
M  V30 2248 H 204.957 -0.412632 -0.520222 0
M  V30 2249 H 207.487 -1.69985 -1.1387 0
M  V30 2250 H 207.497 -1.97597 -3.56958 0
M  V30 2251 H 206.172 -2.94136 -2.94035 0
M  V30 2252 H 204.749 -1.20684 -3.52831 0
M  V30 2253 N 206.934 1.1197 -1.10907 0
M  V30 2254 C 207.882 2.19927 -0.757303 0
M  V30 2255 C 208.876 1.67564 0.248747 0
M  V30 2256 O 210.082 1.79672 0.108605 0
M  V30 2257 H 206.457 0.716925 -0.226987 0
M  V30 2258 H 208.428 2.46847 -1.67658 0
M  V30 2259 C 207.177 3.47061 -0.210671 0
M  V30 2260 H 206.5 3.87703 -0.976049 0
M  V30 2261 H 207.94 4.24 -0.0026584 0
M  V30 2262 C 206.399 3.19864 1.05777 0
M  V30 2263 O 206.929 3.40049 2.13845 0
M  V30 2264 N 205.135 2.73636 0.978349 0
M  V30 2265 H 204.682 2.5741 0.0988246 0
M  V30 2266 H 204.64 2.55815 1.82773 0
M  V30 2267 N 208.412 0.89855 1.29475 0
M  V30 2268 C 209.659 0.523882 1.95606 0
M  V30 2269 C 209.987 -0.929608 1.70847 0
M  V30 2270 O 209.242 -1.67401 1.01367 0
M  V30 2271 C 209.541 0.761398 3.49195 0
M  V30 2272 C 209.207 2.19207 3.94029 0
M  V30 2273 C 207.869 2.58326 4.05982 0
M  V30 2274 C 210.221 3.12379 4.17216 0
M  V30 2275 C 207.549 3.898 4.38489 0
M  V30 2276 C 209.901 4.43401 4.51197 0
M  V30 2277 C 208.565 4.82394 4.61359 0
M  V30 2278 H 207.835 0.191702 0.715773 0
M  V30 2279 H 210.482 1.13699 1.54094 0
M  V30 2280 H 208.787 0.0653622 3.91745 0
M  V30 2281 H 210.484 0.450904 3.98457 0
M  V30 2282 H 207.074 1.87846 3.85242 0
M  V30 2283 H 211.258 2.83371 4.07449 0
M  V30 2284 H 206.514 4.19734 4.44559 0
M  V30 2285 H 210.688 5.15623 4.68087 0
M  V30 2286 H 208.315 5.84306 4.86303 0
M  V30 2287 N 209.89 -1.43072 0.660911 0
M  V30 2288 C 211.12 -2.05769 0.185153 0
M  V30 2289 C 211.528 -1.49668 -1.15742 0
M  V30 2290 O 210.871 -0.625649 -1.72717 0
M  V30 2291 C 210.933 -3.59489 0.0278237 0
M  V30 2292 C 210.597 -4.38212 1.2969 0
M  V30 2293 C 211.594 -4.69772 2.22734 0
M  V30 2294 C 209.279 -4.7809 1.54063 0
M  V30 2295 C 211.273 -5.40129 3.38437 0
M  V30 2296 C 208.96 -5.4819 2.70058 0
M  V30 2297 C 209.958 -5.79132 3.62071 0
M  V30 2298 O 209.646 -6.47798 4.76039 0
M  V30 2299 H 209.378 -0.669873 0.0908086 0
M  V30 2300 H 211.932 -1.84436 0.90402 0
M  V30 2301 H 210.162 -3.79426 -0.746489 0
M  V30 2302 H 211.851 -4.03862 -0.406275 0
M  V30 2303 H 212.617 -4.39476 2.05149 0
M  V30 2304 H 208.496 -4.53408 0.833215 0
M  V30 2305 H 212.04 -5.64198 4.10277 0
M  V30 2306 H 207.937 -5.77902 2.87574 0
M  V30 2307 H 208.705 -6.66283 4.75404 0
M  V30 2308 N 211.368 -0.403325 -1.52352 0
M  V30 2309 C 212.779 0.0675782 -1.86578 0
M  V30 2310 C 213.13 1.44941 -1.32236 0
M  V30 2311 O 212.255 2.06112 -0.659307 0
M  V30 2312 C 212.85 0.129404 -3.38553 0
M  V30 2313 C 211.409 0.544629 -3.72439 0
M  V30 2314 C 210.556 -0.284551 -2.75836 0
M  V30 2315 H 213.507 -0.620631 -1.46061 0
M  V30 2316 H 213.528 0.94581 -3.68558 0
M  V30 2317 H 213.04 -0.87645 -3.78074 0
M  V30 2318 H 211.141 1.55734 -3.38493 0
M  V30 2319 H 211.254 0.293046 -4.78203 0
M  V30 2320 H 209.618 0.252258 -2.53448 0
M  V30 2321 H 210.401 -1.28865 -3.18196 0
M  V30 2322 N 212.846 1.57033 -0.133567 0
M  V30 2323 C 214.123 1.87256 0.56522 0
M  V30 2324 C 214.503 1.03726 1.83859 0
M  V30 2325 O 213.851 0.120247 2.28183 0
M  V30 2326 C 214.061 3.3865 0.843636 0
M  V30 2327 C 215.409 4.07574 1.19032 0
M  V30 2328 O 216.433 3.43752 0.933429 0
M  V30 2329 O 215.292 5.20259 1.67312 0
M  V30 2330 H 212.386 0.775678 0.286796 0
M  V30 2331 H 214.932 1.68855 -0.169168 0
M  V30 2332 H 213.704 3.91257 -0.0581149 0
M  V30 2333 H 213.327 3.62532 1.63268 0
M  V30 2334 N 214.325 -0.140222 1.56975 0
M  V30 2335 C 215.741 -0.493088 1.51792 0
M  V30 2336 C 215.941 -1.83013 0.843116 0
M  V30 2337 O 214.997 -2.49041 0.416493 0
M  V30 2338 C 216.31 -0.497144 2.96562 0
M  V30 2339 C 217.858 -0.582186 3.07538 0
M  V30 2340 C 218.333 -0.616838 4.53827 0
M  V30 2341 N 219.824 -0.678873 4.58198 0
M  V30 2342 C 220.559 -0.726782 5.68775 0
M  V30 2343 N 220.055 -0.733623 6.88905 0
M  V30 2344 N 221.848 -0.768179 5.56826 0
M  V30 2345 H 213.999 0.736108 1.99237 0
M  V30 2346 H 216.262 0.269182 0.90898 0
M  V30 2347 H 215.968 0.417217 3.49217 0
M  V30 2348 H 215.842 -1.33263 3.52875 0
M  V30 2349 H 218.229 -1.48697 2.54899 0
M  V30 2350 H 218.31 0.280581 2.54257 0
M  V30 2351 H 217.954 0.283812 5.07106 0
M  V30 2352 H 217.884 -1.49619 5.04898 0
M  V30 2353 H 220.375 -0.68061 3.7172 0
M  V30 2354 H 220.688 -0.772215 7.68932 0
M  V30 2355 H 219.033 -0.701389 6.91452 0
M  V30 2356 H 222.224 -0.760051 4.61888 0
M  V30 2357 H 222.397 -0.80205 6.43017 0
M  V30 2358 N 215.803 -1.52179 -0.40978 0
M  V30 2359 C 216.733 -1.78435 -1.5061 0
M  V30 2360 C 217.714 -0.635295 -1.57791 0
M  V30 2361 O 218.899 -0.880823 -1.73076 0
M  V30 2362 C 216.029 -1.93444 -2.88439 0
M  V30 2363 C 214.983 -3.09038 -2.96108 0
M  V30 2364 C 214.309 -3.09268 -4.36185 0
M  V30 2365 C 215.609 -4.48508 -2.67652 0
M  V30 2366 H 217.303 -2.70237 -1.28889 0
M  V30 2367 H 214.849 -1.30036 -0.618605 0
M  V30 2368 H 216.802 -2.10394 -3.65119 0
M  V30 2369 H 215.526 -0.983129 -3.11452 0
M  V30 2370 H 214.185 -2.91837 -2.21872 0
M  V30 2371 H 213.833 -2.11861 -4.56206 0
M  V30 2372 H 213.533 -3.86907 -4.42241 0
M  V30 2373 H 215.057 -3.28348 -5.14801 0
M  V30 2374 H 216.471 -4.65918 -3.34056 0
M  V30 2375 H 214.868 -5.28059 -2.85085 0
M  V30 2376 H 215.938 -4.56649 -1.63095 0
M  V30 2377 N 217.281 0.66697 -1.42791 0
M  V30 2378 C 218.214 1.79177 -1.41318 0
M  V30 2379 C 219.192 1.60234 -0.276401 0
M  V30 2380 O 220.376 1.82602 -0.46785 0
M  V30 2381 C 217.503 3.16289 -1.21157 0
M  V30 2382 C 216.549 3.53964 -2.37932 0
M  V30 2383 S 217.382 3.55501 -4.00474 0
M  V30 2384 C 218.538 4.95292 -3.8267 0
M  V30 2385 H 218.771 1.80153 -2.365 0
M  V30 2386 H 216.304 0.838357 -1.29657 0
M  V30 2387 H 218.262 3.95428 -1.10212 0
M  V30 2388 H 216.923 3.1289 -0.275481 0
M  V30 2389 H 216.116 4.53646 -2.19594 0
M  V30 2390 H 215.718 2.82204 -2.45432 0
M  V30 2391 H 218.01 5.83584 -3.44145 0
M  V30 2392 H 218.953 5.18679 -4.82055 0
M  V30 2393 H 219.361 4.68179 -3.15386 0
M  V30 2394 N 218.759 1.29093 0.90403 0
M  V30 2395 C 220.036 1.075 1.63411 0
M  V30 2396 C 220.416 -0.382346 2.07609 0
M  V30 2397 O 219.764 -1.37031 1.82851 0
M  V30 2398 C 219.974 2.05858 2.81822 0
M  V30 2399 C 221.322 2.36539 3.52611 0
M  V30 2400 O 222.346 2.04019 2.91984 0
M  V30 2401 O 221.205 2.92085 4.61897 0
M  V30 2402 H 218.299 0.411547 0.717327 0
M  V30 2403 H 220.845 1.40449 0.952479 0
M  V30 2404 H 219.617 3.04037 2.46327 0
M  V30 2405 H 219.24 1.73613 3.57693 0
M  V30 2406 N 220.237 -1.11381 1.11499 0
M  V30 2407 C 221.167 -2.19509 0.796125 0
M  V30 2408 C 222.148 -1.68458 -0.235796 0
M  V30 2409 O 223.333 -1.93947 -0.0991344 0
M  V30 2410 C 220.463 -3.46475 0.239205 0
M  V30 2411 C 219.417 -4.10744 1.20307 0
M  V30 2412 C 218.743 -5.32293 0.50683 0
M  V30 2413 C 220.043 -4.55597 2.55399 0
M  V30 2414 H 221.737 -2.46439 1.70024 0
M  V30 2415 H 219.283 -1.18446 0.818935 0
M  V30 2416 H 221.236 -4.214 0.00392006 0
M  V30 2417 H 219.96 -3.19006 -0.700206 0
M  V30 2418 H 218.619 -3.37813 1.42399 0
M  V30 2419 H 218.267 -5.01095 -0.437408 0
M  V30 2420 H 217.967 -5.76243 1.1497 0
M  V30 2421 H 219.491 -6.09956 0.280351 0
M  V30 2422 H 220.905 -5.21841 2.37391 0
M  V30 2423 H 219.302 -5.10363 3.15673 0
M  V30 2424 H 220.372 -3.69013 3.14575 0
M  V30 2425 N 221.715 -0.905404 -1.28997 0
M  V30 2426 C 222.648 -0.331959 -2.25773 0
M  V30 2427 C 223.626 0.559099 -1.52685 0
M  V30 2428 O 224.81 0.50463 -1.8162 0
M  V30 2429 C 221.937 0.526276 -3.34586 0
M  V30 2430 C 220.983 -0.298249 -4.25456 0
M  V30 2431 S 221.816 -1.69968 -5.0781 0
M  V30 2432 C 222.972 -0.848519 -6.20122 0
M  V30 2433 H 223.205 -1.15222 -2.74064 0
M  V30 2434 H 220.738 -0.706112 -1.37308 0
M  V30 2435 H 222.696 1.01565 -3.97737 0
M  V30 2436 H 221.357 1.32084 -2.84978 0
M  V30 2437 H 220.55 0.357607 -5.0273 0
M  V30 2438 H 220.152 -0.720968 -3.66985 0
M  V30 2439 H 222.444 -0.0744325 -6.77459 0
M  V30 2440 H 223.387 -1.59353 -6.89937 0
M  V30 2441 H 223.795 -0.400383 -5.63078 0
M  V30 2442 N 223.193 1.4272 -0.668489 0
M  V30 2443 C 224.439 2.01923 -0.188419 0
M  V30 2444 C 224.772 1.52704 1.19979 0
M  V30 2445 O 224.047 0.726566 1.8042 0
M  V30 2446 C 224.33 3.59451 -0.216085 0
M  V30 2447 C 224.183 4.18864 -1.6393 0
M  V30 2448 C 225.502 4.37903 0.439179 0
M  V30 2449 H 222.621 0.733674 -0.0699412 0
M  V30 2450 H 225.263 1.69822 -0.852076 0
M  V30 2451 H 223.413 3.86929 0.349012 0
M  V30 2452 H 225.085 4.02362 -2.25616 0
M  V30 2453 H 223.328 3.74933 -2.18193 0
M  V30 2454 H 223.999 5.27987 -1.61039 0
M  V30 2455 H 226.475 4.16079 -0.0417878 0
M  V30 2456 H 225.351 5.47519 0.389157 0
M  V30 2457 H 225.612 4.15303 1.51577 0
M  V30 2458 N 224.671 0.411399 1.52136 0
M  V30 2459 C 225.621 -0.430376 2.23901 0
M  V30 2460 C 226.605 -1.0116 1.25121 0
M  V30 2461 O 227.797 -0.934044 1.50348 0
M  V30 2462 C 224.926 -1.54527 3.06556 0
M  V30 2463 C 224.012 -0.9747 4.12747 0
M  V30 2464 N 224.403 -0.130991 5.0563 0
M  V30 2465 C 222.701 -1.24497 4.28271 0
M  V30 2466 C 223.402 0.186689 5.814 0
M  V30 2467 N 222.378 -0.42304 5.41951 0
M  V30 2468 H 226.18 0.220509 2.93072 0
M  V30 2469 H 223.694 0.221952 1.60876 0
M  V30 2470 H 225.691 -2.16093 3.56524 0
M  V30 2471 H 224.351 -2.19875 2.38925 0
M  V30 2472 H 225.362 0.23349 5.17373 0
M  V30 2473 H 222.039 -1.89787 3.7187 0
M  V30 2474 H 223.429 0.871673 6.66222 0
M  V30 2475 N 226.149 -1.5696 0.141893 0
M  V30 2476 C 227.099 -2.13074 -0.811383 0
M  V30 2477 C 228.083 -1.05726 -1.21288 0
M  V30 2478 O 229.275 -1.31914 -1.18015 0
M  V30 2479 C 226.404 -2.75186 -2.0525 0
M  V30 2480 C 225.49 -3.8965 -1.67432 0
M  V30 2481 N 225.881 -4.95733 -1.0041 0
M  V30 2482 C 224.179 -4.00262 -1.96739 0
M  V30 2483 C 224.88 -5.75858 -0.822345 0
M  V30 2484 N 223.856 -5.26452 -1.3546 0
M  V30 2485 H 227.658 -2.92465 -0.290031 0
M  V30 2486 H 225.172 -1.6229 -0.0598218 0
M  V30 2487 H 227.169 -3.13745 -2.74535 0
M  V30 2488 H 225.829 -1.97266 -2.57907 0
M  V30 2489 H 226.84 -5.13607 -0.665441 0
M  V30 2490 H 223.517 -3.33412 -2.51282 0
M  V30 2491 H 224.907 -6.71254 -0.294496 0
M  V30 2492 N 227.627 0.131896 -1.57047 0
M  V30 2493 C 228.537 1.1815 -2.02676 0
M  V30 2494 C 229.553 1.46113 -0.944824 0
M  V30 2495 O 230.729 1.57485 -1.25541 0
M  V30 2496 C 227.794 2.49139 -2.41103 0
M  V30 2497 C 226.855 2.28688 -3.63318 0
M  V30 2498 C 226.088 3.53431 -3.99903 0
M  V30 2499 O 226.311 4.60223 -3.36973 0
M  V30 2500 O 225.245 3.45198 -4.93074 0
M  V30 2501 H 229.071 0.824069 -2.92306 0
M  V30 2502 H 226.656 0.341745 -1.45439 0
M  V30 2503 H 228.538 3.26338 -2.66611 0
M  V30 2504 H 227.213 2.84382 -1.54624 0
M  V30 2505 H 226.12 1.4939 -3.42977 0
M  V30 2506 H 227.453 1.98355 -4.50462 0
M  V30 2507 N 229.106 1.52395 0.401703 0
M  V30 2508 C 230.355 1.66044 1.14509 0
M  V30 2509 C 230.668 0.400216 1.91462 0
M  V30 2510 O 231.874 0.416632 2.68284 0
M  V30 2511 C 230.33 2.93388 2.0845 0
M  V30 2512 C 229.938 4.26545 1.36978 0
M  V30 2513 C 231.682 3.16402 2.83001 0
M  V30 2514 C 229.589 5.45007 2.29611 0
M  V30 2515 H 228.519 0.618562 0.431158 0
M  V30 2516 H 231.17 1.78886 0.40892 0
M  V30 2517 H 229.552 2.74263 2.8565 0
M  V30 2518 H 230.726 4.56179 0.650916 0
M  V30 2519 H 229.041 4.09692 0.74438 0
M  V30 2520 H 231.638 4.02085 3.52465 0
M  V30 2521 H 231.981 2.30943 3.46368 0
M  V30 2522 H 232.514 3.36034 2.12898 0
M  V30 2523 H 229.253 6.32835 1.70879 0
M  V30 2524 H 228.773 5.19702 2.9945 0
M  V30 2525 H 230.452 5.7838 2.89974 0
M  V30 2526 N 230.584 -0.659388 1.43143 0
M  V30 2527 C 231.83 -1.42145 1.44647 0
M  V30 2528 C 232.163 -1.9408 0.0681907 0
M  V30 2529 O 231.438 -1.71899 -0.910007 0
M  V30 2530 C 231.721 -2.60735 2.48373 0
M  V30 2531 C 231.574 -2.14332 3.95451 0
M  V30 2532 C 232.893 -3.62951 2.48906 0
M  V30 2533 H 230.012 -0.51552 0.526696 0
M  V30 2534 H 232.654 -0.748069 1.74654 0
M  V30 2535 H 230.804 -3.18184 2.22916 0
M  V30 2536 H 232.476 -1.61932 4.31944 0
M  V30 2537 H 230.719 -1.4576 4.08578 0
M  V30 2538 H 231.39 -2.99583 4.63631 0
M  V30 2539 H 233.866 -3.1525 2.71582 0
M  V30 2540 H 232.742 -4.43487 3.23435 0
M  V30 2541 H 233.003 -4.15126 1.52061 0
M  V30 2542 N 232.062 -1.29571 -0.897171 0
M  V30 2543 C 233.473 -1.15964 -1.46319 0
M  V30 2544 C 233.824 0.244267 -1.94674 0
M  V30 2545 O 232.949 1.13998 -1.83939 0
M  V30 2546 C 233.544 -2.09906 -2.65942 0
M  V30 2547 C 232.103 -2.00314 -3.18671 0
M  V30 2548 C 231.25 -2.00687 -1.91363 0
M  V30 2549 H 234.201 -1.42019 -0.708268 0
M  V30 2550 H 234.222 -1.67276 -3.41759 0
M  V30 2551 H 233.734 -3.12075 -2.30718 0
M  V30 2552 H 231.835 -1.01242 -3.58582 0
M  V30 2553 H 231.948 -2.88102 -3.82798 0
M  V30 2554 H 230.312 -1.45319 -2.09175 0
M  V30 2555 H 231.095 -3.04566 -1.58413 0
M  V30 2556 N 233.54 1.10788 -1.12088 0
M  V30 2557 C 234.503 2.15207 -0.788577 0
M  V30 2558 C 235.503 1.59609 0.195317 0
M  V30 2559 O 236.693 1.74174 -0.0300193 0
M  V30 2560 C 233.825 3.4047 -0.171174 0
M  V30 2561 H 235.018 2.46116 -1.71368 0
M  V30 2562 H 232.571 1.26089 -0.923652 0
M  V30 2563 H 233.306 3.15176 0.763832 0
M  V30 2564 H 233.091 3.82109 -0.879514 0
M  V30 2565 H 234.581 4.17576 0.04496 0
M  V30 2566 N 235.018 0.912232 1.28515 0
M  V30 2567 C 236.264 0.545405 1.95328 0
M  V30 2568 C 236.597 -0.908313 1.71649 0
M  V30 2569 O 235.872 -1.64575 1.03659 0
M  V30 2570 C 236.155 0.853483 3.4984 0
M  V30 2571 C 236.008 2.35982 3.82926 0
M  V30 2572 C 237.327 0.348589 4.38717 0
M  V30 2573 H 234.446 0.199626 0.709449 0
M  V30 2574 H 237.088 1.1412 1.5191 0
M  V30 2575 H 235.238 0.34643 3.86952 0
M  V30 2576 H 236.91 2.93738 3.55691 0
M  V30 2577 H 235.153 2.81543 3.30024 0
M  V30 2578 H 235.824 2.52593 4.90816 0
M  V30 2579 H 238.3 0.78294 4.08668 0
M  V30 2580 H 237.176 0.593242 5.45685 0
M  V30 2581 H 237.437 -0.751049 4.35674 0
M  V30 2582 N 236.496 -1.42363 0.676048 0
M  V30 2583 C 237.444 -2.32596 -0.0131507 0
M  V30 2584 C 238.438 -1.49891 -0.789238 0
M  V30 2585 O 239.644 -1.65955 -0.697061 0
M  V30 2586 H 236.019 -0.751647 -0.0230481 0
M  V30 2587 H 237.99 -2.88421 0.765243 0
M  V30 2588 C 236.739 -3.34479 -0.949702 0
M  V30 2589 H 236.062 -3.98158 -0.361938 0
M  V30 2590 H 237.502 -4.00199 -1.4006 0
M  V30 2591 C 235.961 -2.66838 -2.05667 0
M  V30 2592 O 236.491 -2.50124 -3.14326 0
M  V30 2593 N 234.697 -2.25843 -1.82875 0
M  V30 2594 H 234.244 -2.39637 -0.945085 0
M  V30 2595 H 234.202 -1.80918 -2.5713 0
M  V30 2596 N 237.974 -0.419461 -1.51915 0
M  V30 2597 C 238.906 0.43646 -2.25006 0
M  V30 2598 C 239.919 1.00149 -1.28351 0
M  V30 2599 O 241.108 0.898674 -1.54227 0
M  V30 2600 C 238.208 1.6206 -2.9764 0
M  V30 2601 C 237.381 1.17763 -4.21249 0
M  V30 2602 C 236.44 2.22985 -4.76617 0
M  V30 2603 O 235.466 1.83151 -5.38929 0
M  V30 2604 N 236.668 3.55271 -4.59089 0
M  V30 2605 H 239.433 -0.18989 -2.99098 0
M  V30 2606 H 236.994 -0.247386 -1.59999 0
M  V30 2607 H 238.986 2.32038 -3.31573 0
M  V30 2608 H 237.556 2.15266 -2.2667 0
M  V30 2609 H 236.776 0.305582 -3.93014 0
M  V30 2610 H 238.064 0.858781 -5.015 0
M  V30 2611 H 237.462 3.90377 -4.09417 0
M  V30 2612 H 236.019 4.21195 -4.97432 0
M  V30 2613 N 239.452 1.56882 -0.150215 0
M  V30 2614 C 240.701 1.95403 0.500071 0
M  V30 2615 C 241.014 1.03777 1.658 0
M  V30 2616 O 242.22 1.31889 2.37313 0
M  V30 2617 C 240.676 3.4738 0.941018 0
M  V30 2618 C 240.284 4.47596 -0.190158 0
M  V30 2619 C 242.028 3.9476 1.56091 0
M  V30 2620 C 239.935 5.90787 0.269237 0
M  V30 2621 H 238.865 0.729515 0.190588 0
M  V30 2622 H 241.516 1.81988 -0.235074 0
M  V30 2623 H 239.898 3.56138 1.73152 0
M  V30 2624 H 241.072 4.50536 -0.967157 0
M  V30 2625 H 239.387 4.10151 -0.718666 0
M  V30 2626 H 241.984 4.99181 1.9163 0
M  V30 2627 H 242.327 3.36494 2.45107 0
M  V30 2628 H 242.86 3.88932 0.835249 0
M  V30 2629 H 239.599 6.52879 -0.585621 0
M  V30 2630 H 239.119 5.912 1.01204 0
M  V30 2631 H 240.798 6.42979 0.720176 0
M  V30 2632 N 240.93 -0.123565 1.57115 0
M  V30 2633 C 241.84 -1.17074 2.033 0
M  V30 2634 C 242.856 -1.4561 0.952559 0
M  V30 2635 O 244.032 -1.56817 1.26374 0
M  V30 2636 C 241.097 -2.47857 2.42421 0
M  V30 2637 C 240.158 -2.26758 3.64526 0
M  V30 2638 C 239.391 -3.51305 4.01771 0
M  V30 2639 O 239.614 -4.5843 3.39409 0
M  V30 2640 O 238.548 -3.42578 4.94898 0
M  V30 2641 H 242.374 -0.808555 2.92739 0
M  V30 2642 H 239.959 -0.334027 1.45618 0
M  V30 2643 H 241.841 -3.2492 2.68338 0
M  V30 2644 H 240.516 -2.83558 1.5613 0
M  V30 2645 H 239.423 -1.47569 3.43765 0
M  V30 2646 H 240.756 -1.95963 4.51508 0
M  V30 2647 N 242.408 -1.52605 -0.393616 0
M  V30 2648 C 243.657 -1.66649 -1.13627 0
M  V30 2649 C 243.97 -0.410364 -1.91247 0
M  V30 2650 O 245.176 -0.430854 -2.68059 0
M  V30 2651 C 243.632 -2.9449 -2.06891 0
M  V30 2652 C 243.24 -4.27266 -1.34714 0
M  V30 2653 C 244.984 -3.17899 -2.81319 0
M  V30 2654 C 242.891 -5.46217 -2.26717 0
M  V30 2655 H 241.821 -0.62084 -0.427871 0
M  V30 2656 H 244.472 -1.791 -0.399428 0
M  V30 2657 H 242.854 -2.75774 -2.84191 0
M  V30 2658 H 244.028 -4.56518 -0.626714 0
M  V30 2659 H 242.343 -4.10081 -0.722643 0
M  V30 2660 H 244.94 -4.03949 -3.50328 0
M  V30 2661 H 245.283 -2.32777 -3.45139 0
M  V30 2662 H 245.816 -3.37159 -2.11113 0
M  V30 2663 H 242.555 -6.33733 -1.67521 0
M  V30 2664 H 242.075 -5.21283 -2.96689 0
M  V30 2665 H 243.754 -5.7991 -2.86903 0
M  V30 2666 N 243.887 0.651787 -1.4349 0
M  V30 2667 C 244.837 1.75783 -1.45205 0
M  V30 2668 C 245.821 1.57679 -0.320328 0
M  V30 2669 O 247.013 1.67767 -0.564211 0
M  V30 2670 C 244.142 3.14377 -1.3792 0
M  V30 2671 C 243.228 3.38023 -2.56127 0
M  V30 2672 N 243.619 3.32135 -3.81471 0
M  V30 2673 C 241.917 3.68747 -2.50882 0
M  V30 2674 C 242.618 3.55902 -4.60118 0
M  V30 2675 N 241.594 3.77783 -3.90872 0
M  V30 2676 H 245.396 1.69657 -2.39987 0
M  V30 2677 H 242.91 0.853508 -1.38163 0
M  V30 2678 H 244.907 3.93666 -1.37231 0
M  V30 2679 H 243.567 3.21683 -0.441596 0
M  V30 2680 H 244.578 3.11515 -4.13738 0
M  V30 2681 H 241.255 3.8316 -1.65816 0
M  V30 2682 H 242.645 3.57116 -5.69138 0
M  V30 2683 N 245.365 1.30045 0.890287 0
M  V30 2684 C 246.776 1.16738 1.45702 0
M  V30 2685 C 247.127 -0.233939 1.948 0
M  V30 2686 O 246.252 -1.13021 1.84541 0
M  V30 2687 C 246.847 2.11313 2.64825 0
M  V30 2688 C 245.406 2.02001 3.17604 0
M  V30 2689 C 244.553 2.01699 1.90296 0
M  V30 2690 H 247.504 1.42392 0.700726 0
M  V30 2691 H 247.525 1.69086 3.40867 0
M  V30 2692 H 247.037 3.13294 2.2906 0
M  V30 2693 H 245.138 1.03142 3.5804 0
M  V30 2694 H 245.251 2.90128 3.81264 0
M  V30 2695 H 243.615 1.46427 2.08402 0
M  V30 2696 H 244.398 3.05402 1.56795 0
M  V30 2697 N 246.843 -1.10192 1.12674 0
M  V30 2698 C 248.09 -1.82205 0.883606 0
M  V30 2699 C 248.418 -1.8532 -0.590492 0
M  V30 2700 O 247.673 -1.31137 -1.45264 0
M  V30 2701 C 247.972 -3.28552 1.4067 0
M  V30 2702 C 247.638 -3.45582 2.89627 0
M  V30 2703 C 246.3 -3.49937 3.30299 0
M  V30 2704 C 248.652 -3.50768 3.85501 0
M  V30 2705 C 245.98 -3.57049 4.65546 0
M  V30 2706 C 248.332 -3.59414 5.20581 0
M  V30 2707 C 246.996 -3.62034 5.60792 0
M  V30 2708 H 246.266 -0.666735 0.323334 0
M  V30 2709 H 248.913 -1.29868 1.40736 0
M  V30 2710 H 247.218 -3.83473 0.80347 0
M  V30 2711 H 248.915 -3.82788 1.19475 0
M  V30 2712 H 245.505 -3.42871 2.57172 0
M  V30 2713 H 249.689 -3.46651 3.55171 0
M  V30 2714 H 244.945 -3.57361 4.96088 0
M  V30 2715 H 249.119 -3.62371 5.94693 0
M  V30 2716 H 246.746 -3.67298 6.6558 0
M  V30 2717 N 248.321 -0.919034 -1.28029 0
M  V30 2718 C 249.551 -0.570143 -1.98577 0
M  V30 2719 C 249.959 0.854172 -1.68821 0
M  V30 2720 O 249.302 1.57807 -0.940351 0
M  V30 2721 C 249.364 -0.705734 -3.52505 0
M  V30 2722 C 249.028 -2.10057 -4.05863 0
M  V30 2723 C 250.025 -3.07385 -4.19298 0
M  V30 2724 C 247.71 -2.41517 -4.40426 0
M  V30 2725 C 249.704 -4.34287 -4.66555 0
M  V30 2726 C 247.391 -3.68657 -4.87376 0
M  V30 2727 C 248.389 -4.64856 -5.00398 0
M  V30 2728 O 248.077 -5.89735 -5.46322 0
M  V30 2729 H 247.809 -0.215592 -0.6407 0
M  V30 2730 H 250.363 -1.23583 -1.64062 0
M  V30 2731 H 248.593 0.0170414 -3.86696 0
M  V30 2732 H 250.282 -0.363172 -4.04272 0
M  V30 2733 H 251.048 -2.84398 -3.92865 0
M  V30 2734 H 246.927 -1.67389 -4.29537 0
M  V30 2735 H 250.471 -5.09377 -4.76635 0
M  V30 2736 H 246.368 -3.91466 -5.13249 0
M  V30 2737 H 247.136 -5.92599 -5.64596 0
M  V30 2738 N 249.799 1.42003 -0.683588 0
M  V30 2739 C 250.731 2.29183 0.0283068 0
M  V30 2740 C 251.744 1.4415 0.756611 0
M  V30 2741 O 252.933 1.67779 0.609306 0
M  V30 2742 C 250.033 3.21765 1.06398 0
M  V30 2743 C 249.206 4.35496 0.407723 0
M  V30 2744 C 248.265 5.08737 1.34437 0
M  V30 2745 O 247.291 5.62948 0.841318 0
M  V30 2746 N 248.493 5.15075 2.67728 0
M  V30 2747 H 251.258 2.9092 -0.720105 0
M  V30 2748 H 248.819 1.53025 -0.528682 0
M  V30 2749 H 250.811 3.6763 1.69204 0
M  V30 2750 H 249.381 2.61418 1.71404 0
M  V30 2751 H 248.601 3.92165 -0.400012 0
M  V30 2752 H 249.889 5.08776 -0.0490956 0
M  V30 2753 H 249.287 4.72457 3.11129 0
M  V30 2754 H 247.844 5.64556 3.2576 0
M  V30 2755 N 251.277 0.427512 1.51691 0
M  V30 2756 C 252.693 0.0792977 1.59403 0
M  V30 2757 C 252.893 -1.41035 1.43914 0
M  V30 2758 O 251.949 -2.17922 1.27539 0
M  V30 2759 C 253.262 0.590636 2.94842 0
M  V30 2760 C 254.81 0.550215 3.08126 0
M  V30 2761 C 255.285 1.03836 4.46074 0
M  V30 2762 N 256.776 0.995943 4.52366 0
M  V30 2763 C 257.511 1.34463 5.57411 0
M  V30 2764 N 257.007 1.76569 6.69922 0
M  V30 2765 N 258.8 1.26343 5.47717 0
M  V30 2766 H 250.951 1.39687 1.60004 0
M  V30 2767 H 253.214 0.575003 0.753708 0
M  V30 2768 H 252.92 1.63251 3.11516 0
M  V30 2769 H 252.794 0.0102061 3.77199 0
M  V30 2770 H 255.181 -0.482654 2.91126 0
M  V30 2771 H 255.262 1.16693 2.27632 0
M  V30 2772 H 254.906 2.06965 4.63819 0
M  V30 2773 H 254.836 0.398286 5.25092 0
M  V30 2774 H 257.327 0.68661 3.7161 0
M  V30 2775 H 257.64 2.01438 7.46085 0
M  V30 2776 H 255.985 1.80488 6.71155 0
M  V30 2777 H 259.176 0.933209 4.58703 0
M  V30 2778 H 259.349 1.53846 6.29472 0
M  V30 2779 N 252.755 -1.56801 0.158532 0
M  V30 2780 C 253.687 -2.14488 -0.807923 0
M  V30 2781 C 254.7 -1.09721 -1.20271 0
M  V30 2782 O 255.889 -1.36956 -1.14478 0
M  V30 2783 C 252.989 -2.66217 -2.09718 0
M  V30 2784 C 252.162 -3.95507 -1.86796 0
M  V30 2785 C 251.221 -4.3243 -2.99818 0
M  V30 2786 O 250.247 -5.00543 -2.71008 0
M  V30 2787 N 251.449 -3.92947 -4.27285 0
M  V30 2788 H 254.214 -2.98042 -0.314816 0
M  V30 2789 H 251.775 -1.61881 -0.0246692 0
M  V30 2790 H 253.767 -2.87924 -2.84398 0
M  V30 2791 H 252.337 -1.87324 -2.50257 0
M  V30 2792 H 251.557 -3.82309 -0.96089 0
M  V30 2793 H 252.845 -4.79972 -1.68833 0
M  V30 2794 H 252.243 -3.38087 -4.53557 0
M  V30 2795 H 250.8 -4.19681 -4.9871 0
M  V30 2796 N 254.233 0.115231 -1.57178 0
M  V30 2797 C 255.143 1.15994 -2.03918 0
M  V30 2798 C 256.159 1.45103 -0.960268 0
M  V30 2799 O 257.335 1.56144 -1.27204 0
M  V30 2800 C 254.4 2.46568 -2.43732 0
M  V30 2801 C 253.461 2.24822 -3.65723 0
M  V30 2802 C 252.694 3.4917 -4.03629 0
M  V30 2803 O 252.917 4.56623 -3.41835 0
M  V30 2804 O 251.851 3.39949 -4.96708 0
M  V30 2805 H 255.677 0.793019 -2.93164 0
M  V30 2806 H 253.262 0.3263 -1.45793 0
M  V30 2807 H 255.144 3.23492 -2.70057 0
M  V30 2808 H 253.819 2.82726 -1.57631 0
M  V30 2809 H 252.726 1.45744 -3.44542 0
M  V30 2810 H 254.059 1.93566 -4.52541 0
M  V30 2811 N 255.711 1.52812 0.385517 0
M  V30 2812 C 256.621 1.80766 1.49535 0
M  V30 2813 C 257.637 0.694651 1.59532 0
M  V30 2814 O 258.813 0.982611 1.75803 0
M  V30 2815 C 255.878 1.97381 2.85029 0
M  V30 2816 C 254.939 3.21295 2.84724 0
M  V30 2817 C 254.172 3.37108 4.13756 0
M  V30 2818 O 254.395 2.5765 5.08893 0
M  V30 2819 O 253.329 4.30378 4.20783 0
M  V30 2820 H 257.155 2.75015 1.28842 0
M  V30 2821 H 254.74 1.37946 0.573697 0
M  V30 2822 H 256.622 2.09996 3.65349 0
M  V30 2823 H 255.297 1.06322 3.05741 0
M  V30 2824 H 254.204 3.1412 2.03174 0
M  V30 2825 H 255.537 4.12212 2.68965 0
M  V30 2826 N 257.189 -0.644168 1.43834 0
M  V30 2827 C 258.438 -1.39985 1.45214 0
M  V30 2828 C 258.751 -1.95421 0.0835494 0
M  V30 2829 O 259.957 -2.71488 -0.0251748 0
M  V30 2830 C 258.413 -2.53384 2.55587 0
M  V30 2831 C 258.021 -2.04517 3.98594 0
M  V30 2832 C 259.765 -3.30685 2.66172 0
M  V30 2833 C 257.672 -3.1518 5.00416 0
M  V30 2834 H 256.602 -0.526005 0.540218 0
M  V30 2835 H 259.253 -0.694367 1.69855 0
M  V30 2836 H 257.635 -3.26446 2.24163 0
M  V30 2837 H 258.809 -1.38405 4.39523 0
M  V30 2838 H 257.124 -1.40068 3.92135 0
M  V30 2839 H 259.721 -4.13158 3.39418 0
M  V30 2840 H 260.064 -3.79312 1.71546 0
M  V30 2841 H 260.597 -2.64708 2.96942 0
M  V30 2842 H 257.336 -2.71511 5.96625 0
M  V30 2843 H 256.856 -3.79974 4.64091 0
M  V30 2844 H 258.535 -3.80166 5.23529 0
M  V30 2845 N 258.668 -1.30515 -0.883378 0
M  V30 2846 C 259.578 -1.18959 -2.02203 0
M  V30 2847 C 260.594 -0.109172 -1.73657 0
M  V30 2848 O 261.77 -0.324413 -1.9877 0
M  V30 2849 C 258.835 -0.883871 -3.35244 0
M  V30 2850 C 257.896 -2.04982 -3.77201 0
M  V30 2851 C 257.129 -1.75859 -5.03894 0
M  V30 2852 O 257.352 -0.687276 -5.66244 0
M  V30 2853 O 256.286 -2.61146 -5.42297 0
M  V30 2854 H 260.112 -2.14616 -2.1488 0
M  V30 2855 H 257.697 -1.10124 -1.0096 0
M  V30 2856 H 259.579 -0.728644 -4.15053 0
M  V30 2857 H 258.254 0.0427798 -3.23672 0
M  V30 2858 H 257.161 -2.26038 -2.9809 0
M  V30 2859 H 258.494 -2.95825 -3.93381 0
M  V30 2860 N 260.146 1.09593 -1.13257 0
M  V30 2861 C 261.393 1.81734 -0.893257 0
M  V30 2862 C 261.721 1.8563 0.580656 0
M  V30 2863 O 260.976 1.31906 1.44566 0
M  V30 2864 C 261.275 3.27802 -1.42411 0
M  V30 2865 C 260.941 3.44041 -2.91456 0
M  V30 2866 C 259.603 3.48181 -3.3215 0
M  V30 2867 C 261.955 3.48719 -3.87356 0
M  V30 2868 C 259.283 3.54575 -4.67433 0
M  V30 2869 C 261.635 3.56648 -5.2248 0
M  V30 2870 C 260.299 3.59055 -5.62704 0
M  V30 2871 H 259.569 0.665011 -0.326866 0
M  V30 2872 H 262.216 1.2912 -1.41422 0
M  V30 2873 H 260.521 3.83042 -0.823795 0
M  V30 2874 H 262.218 3.82149 -1.21503 0
M  V30 2875 H 258.808 3.41502 -2.58987 0
M  V30 2876 H 262.992 3.44763 -3.57004 0
M  V30 2877 H 258.248 3.54725 -4.97976 0
M  V30 2878 H 262.422 3.59212 -5.96607 0
M  V30 2879 H 260.049 3.63763 -6.67518 0
M  V30 2880 N 261.624 0.925811 1.2754 0
M  V30 2881 C 262.557 0.367836 2.25216 0
M  V30 2882 C 263.535 -0.534738 1.53556 0
M  V30 2883 O 264.719 -0.475672 1.824 0
M  V30 2884 C 261.846 -0.47298 3.35381 0
M  V30 2885 C 260.892 0.365898 4.24928 0
M  V30 2886 S 261.725 1.78025 5.05042 0
M  V30 2887 C 262.881 0.947068 6.18693 0
M  V30 2888 H 263.114 1.19568 2.72196 0
M  V30 2889 H 260.647 0.727867 1.36167 0
M  V30 2890 H 262.605 -0.952242 3.99303 0
M  V30 2891 H 261.266 -1.27533 2.87044 0
M  V30 2892 H 260.459 -0.277582 5.03235 0
M  V30 2893 H 260.061 0.779261 3.65792 0
M  V30 2894 H 262.353 0.182201 6.77255 0
M  V30 2895 H 263.296 1.70309 6.87314 0
M  V30 2896 H 263.704 0.489913 5.6237 0
M  V30 2897 N 263.102 -1.41638 0.69111 0
M  V30 2898 C 264.518 -1.55435 0.362224 0
M  V30 2899 C 264.718 -1.66754 -1.13117 0
M  V30 2900 O 263.774 -1.64348 -1.91692 0
M  V30 2901 C 265.087 -2.79588 1.10684 0
M  V30 2902 C 266.635 -2.9338 1.09075 0
M  V30 2903 C 267.11 -4.20414 1.81703 0
M  V30 2904 N 268.601 -4.27362 1.7865 0
M  V30 2905 C 269.336 -5.24507 2.31689 0
M  V30 2906 N 268.832 -6.27708 2.93179 0
M  V30 2907 N 270.625 -5.16416 2.2197 0
M  V30 2908 H 262.776 -1.32536 1.65976 0
M  V30 2909 H 265.039 -0.639115 0.700168 0
M  V30 2910 H 264.745 -2.77419 2.16175 0
M  V30 2911 H 264.619 -3.70973 0.682545 0
M  V30 2912 H 267.006 -2.95067 0.0441238 0
M  V30 2913 H 267.087 -2.0318 1.55407 0
M  V30 2914 H 266.731 -4.19488 2.86343 0
M  V30 2915 H 266.661 -5.09578 1.32808 0
M  V30 2916 H 269.152 -3.53415 1.33815 0
M  V30 2917 H 269.465 -6.98217 3.31229 0
M  V30 2918 H 267.81 -6.28223 2.97255 0
M  V30 2919 H 271.001 -4.34716 1.73607 0
M  V30 2920 H 271.174 -5.91958 2.63609 0
M  V30 2921 N 264.58 -0.43555 -1.51462 0
M  V30 2922 C 265.528 0.391205 -2.29287 0
M  V30 2923 C 266.522 1.02247 -1.35062 0
M  V30 2924 O 267.728 0.957646 -1.52411 0
M  V30 2925 H 264.103 0.144968 -0.737895 0
M  V30 2926 H 266.074 -0.286051 -2.97026 0
M  V30 2927 C 264.823 1.48096 -3.14583 0
M  V30 2928 H 264.146 1.00457 -3.86973 0
M  V30 2929 H 265.586 2.03273 -3.72097 0
M  V30 2930 C 264.045 2.46321 -2.29843 0
M  V30 2931 O 264.575 3.50815 -1.95682 0
M  V30 2932 N 262.781 2.17166 -1.931 0
M  V30 2933 H 262.328 1.32218 -2.21079 0
M  V30 2934 H 262.286 2.83127 -1.36698 0
M  V30 2935 N 266.058 1.56714 -0.166846 0
M  V30 2936 C 267.288 2.00828 0.48494 0
M  V30 2937 C 267.696 1.04612 1.57648 0
M  V30 2938 O 267.039 0.0383201 1.8366 0
M  V30 2939 C 267.101 3.4137 1.12723 0
M  V30 2940 C 266.765 4.56654 0.177886 0
M  V30 2941 C 267.762 5.16402 -0.60207 0
M  V30 2942 C 265.447 5.02244 0.0750139 0
M  V30 2943 C 267.441 6.20167 -1.47215 0
M  V30 2944 C 265.128 6.05859 -0.798649 0
M  V30 2945 C 266.126 6.64691 -1.57082 0
M  V30 2946 O 265.814 7.66297 -2.42989 0
M  V30 2947 H 265.546 0.663587 0.128953 0
M  V30 2948 H 268.1 2.03692 -0.264365 0
M  V30 2949 H 266.33 3.35406 1.92457 0
M  V30 2950 H 268.019 3.69466 1.68076 0
M  V30 2951 H 268.785 4.82065 -0.53274 0
M  V30 2952 H 264.664 4.56167 0.665812 0
M  V30 2953 H 268.208 6.66016 -2.07531 0
M  V30 2954 H 264.105 6.39621 -0.869199 0
M  V30 2955 H 264.873 7.83601 -2.36455 0
M  V30 2956 N 267.536 -0.106894 1.57237 0
M  V30 2957 C 268.484 -1.14944 2.02215 0
M  V30 2958 C 269.478 -1.42167 0.92114 0
M  V30 2959 O 270.684 -1.41987 1.10634 0
M  V30 2960 H 267.059 -0.387841 0.64427 0
M  V30 2961 H 269.03 -0.743683 2.88984 0
M  V30 2962 C 267.779 -2.4647 2.4525 0
M  V30 2963 H 267.102 -2.26363 3.29545 0
M  V30 2964 H 268.542 -3.17948 2.80508 0
M  V30 2965 C 267.001 -3.09921 1.321 0
M  V30 2966 O 267.531 -3.9651 0.643622 0
M  V30 2967 N 265.737 -2.69986 1.07497 0
M  V30 2968 H 265.284 -1.99667 1.62761 0
M  V30 2969 H 265.242 -3.12769 0.319876 0
M  V30 2970 N 269.014 -1.53014 -0.377408 0
M  V30 2971 C 270.263 -1.67845 -1.11853 0
M  V30 2972 C 270.576 -0.430625 -1.90801 0
M  V30 2973 O 271.782 -0.459261 -2.67587 0
M  V30 2974 C 270.238 -2.96668 -2.03756 0
M  V30 2975 C 269.846 -4.28671 -1.30175 0
M  V30 2976 C 271.59 -3.20865 -2.77932 0
M  V30 2977 C 269.497 -5.48591 -2.20911 0
M  V30 2978 H 268.427 -0.625343 -0.421263 0
M  V30 2979 H 271.078 -1.79514 -0.380409 0
M  V30 2980 H 269.46 -2.78773 -2.8125 0
M  V30 2981 H 270.634 -4.57157 -0.578259 0
M  V30 2982 H 268.949 -4.10825 -0.679108 0
M  V30 2983 H 271.546 -4.07642 -3.46024 0
M  V30 2984 H 271.889 -2.36424 -3.4265 0
M  V30 2985 H 272.422 -3.39379 -2.07525 0
M  V30 2986 H 269.161 -6.35474 -1.6079 0
M  V30 2987 H 268.681 -5.244 -2.91144 0
M  V30 2988 H 270.36 -5.8292 -2.80736 0
M  V30 2989 N 270.492 0.636531 -1.44174 0
M  V30 2990 C 271.424 1.7618 -1.46606 0
M  V30 2991 C 272.437 1.58768 -0.360091 0
M  V30 2992 O 273.626 1.67181 -0.625518 0
M  V30 2993 C 270.726 3.13833 -1.27915 0
M  V30 2994 C 269.899 3.57753 -2.51658 0
M  V30 2995 C 268.958 4.74265 -2.27945 0
M  V30 2996 O 267.984 4.82852 -3.01401 0
M  V30 2997 N 269.186 5.65604 -1.30662 0
M  V30 2998 H 271.951 1.74567 -2.43612 0
M  V30 2999 H 269.512 0.820924 -1.39544 0
M  V30 3000 H 271.504 3.8949 -1.09907 0
M  V30 3001 H 270.074 3.10121 -0.39293 0
M  V30 3002 H 269.294 2.72362 -2.84978 0
M  V30 3003 H 270.582 3.83847 -3.33974 0
M  V30 3004 H 269.98 5.61354 -0.699844 0
M  V30 3005 H 268.537 6.40913 -1.18634 0
M  V30 3006 N 271.97 1.30982 0.876444 0
M  V30 3007 C 273.381 1.18277 1.44456 0
M  V30 3008 C 273.732 -0.213265 1.95037 0
M  V30 3009 O 272.857 -1.11057 1.85729 0
M  V30 3010 C 273.452 2.1411 2.62569 0
M  V30 3011 C 272.011 2.05358 3.15444 0
M  V30 3012 C 271.158 2.03706 1.88146 0
M  V30 3013 H 274.109 1.43127 0.685584 0
M  V30 3014 H 274.13 1.72692 3.39054 0
M  V30 3015 H 273.642 3.15706 2.25724 0
M  V30 3016 H 271.743 1.06934 3.56926 0
M  V30 3017 H 271.856 2.94156 3.78166 0
M  V30 3018 H 270.22 1.48629 2.06837 0
M  V30 3019 H 271.003 3.07047 1.53547 0
M  V30 3020 N 273.449 -1.08991 1.13837 0
M  V30 3021 C 274.359 -2.19301 0.833333 0
M  V30 3022 C 275.375 -1.73026 -0.183847 0
M  V30 3023 O 276.551 -2.01395 -0.0138092 0
M  V30 3024 C 273.616 -3.45323 0.308651 0
M  V30 3025 C 272.677 -4.06255 1.38764 0
M  V30 3026 C 271.91 -5.26262 0.887896 0
M  V30 3027 O 272.133 -5.69747 -0.27287 0
M  V30 3028 O 271.067 -5.78435 1.66421 0
M  V30 3029 H 274.893 -2.47854 1.75506 0
M  V30 3030 H 272.478 -1.18012 0.916166 0
M  V30 3031 H 274.36 -4.21394 0.0216739 0
M  V30 3032 H 273.035 -3.18362 -0.585431 0
M  V30 3033 H 271.942 -3.318 1.72799 0
M  V30 3034 H 273.275 -4.37452 2.25602 0
M  V30 3035 N 274.927 -0.932562 -1.27047 0
M  V30 3036 C 275.89 -0.440064 -2.24936 0
M  V30 3037 C 276.89 0.444071 -1.54547 0
M  V30 3038 O 278.08 0.244465 -1.72476 0
M  V30 3039 C 275.212 0.36678 -3.38921 0
M  V30 3040 H 276.405 -1.305 -2.70018 0
M  V30 3041 H 273.958 -0.713707 -1.39054 0
M  V30 3042 H 274.693 1.25033 -2.99228 0
M  V30 3043 H 274.478 -0.267204 -3.91188 0
M  V30 3044 H 275.968 0.701567 -4.11665 0
M  V30 3045 N 276.405 1.4127 -0.698611 0
M  V30 3046 C 277.651 2.01979 -0.239972 0
M  V30 3047 C 278.006 1.54353 1.14861 0
M  V30 3048 O 277.299 0.746218 1.76471 0
M  V30 3049 C 277.493 3.56592 -0.240192 0
M  V30 3050 C 277.322 4.19226 -1.62726 0
M  V30 3051 C 276.092 4.53389 -2.23084 0
M  V30 3052 C 278.29 4.45228 -2.57443 0
M  V30 3053 N 276.272 5.01327 -3.54323 0
M  V30 3054 C 277.643 4.94973 -3.73365 0
M  V30 3055 C 279.698 4.27243 -2.55671 0
M  V30 3056 C 278.401 5.28624 -4.878 0
M  V30 3057 C 280.427 4.61985 -3.69221 0
M  V30 3058 C 279.789 5.11904 -4.83873 0
M  V30 3059 H 275.888 0.770561 -0.133269 0
M  V30 3060 H 278.472 1.71767 -0.916748 0
M  V30 3061 H 276.643 3.86271 0.406082 0
M  V30 3062 H 278.375 4.04025 0.23356 0
M  V30 3063 H 275.13 4.39946 -1.75341 0
M  V30 3064 H 275.554 5.29697 -4.21604 0
M  V30 3065 H 280.196 3.87884 -1.68243 0
M  V30 3066 H 277.914 5.66905 -5.75885 0
M  V30 3067 H 281.5 4.49725 -3.69105 0
M  V30 3068 H 280.38 5.38282 -5.70282 0
M  V30 3069 N 277.883 0.443576 1.51229 0
M  V30 3070 C 279.131 -0.120557 2.0174 0
M  V30 3071 C 279.452 -1.42665 1.32935 0
M  V30 3072 O 278.722 -1.9028 0.465866 0
M  V30 3073 H 277.302 -0.0475426 0.745486 0
M  V30 3074 H 279.964 0.587711 1.85828 0
M  V30 3075 H 279.06 -0.291972 3.10731 0
M  V30 3076 N 279.361 -1.56624 0.175154 0
M  V30 3077 C 280.772 -1.83561 -0.340916 0
M  V30 3078 C 281.123 -1.09511 -1.62794 0
M  V30 3079 O 280.248 -0.349389 -2.13561 0
M  V30 3080 C 280.843 -3.32979 -0.625313 0
M  V30 3081 C 279.402 -3.60399 -1.08581 0
M  V30 3082 C 278.549 -2.77024 -0.123722 0
M  V30 3083 H 281.5 -1.53593 0.399344 0
M  V30 3084 H 281.521 -3.50666 -1.47694 0
M  V30 3085 H 281.033 -3.86847 0.311575 0
M  V30 3086 H 279.134 -3.11945 -2.03767 0
M  V30 3087 H 279.247 -4.68711 -0.992317 0
M  V30 3088 H 277.611 -2.46993 -0.621821 0
M  V30 3089 H 278.394 -3.33674 0.807256 0
M  V30 3090 N 280.839 0.0985539 -1.57292 0
M  V30 3091 C 282.086 0.802678 -1.85912 0
M  V30 3092 C 282.414 1.78901 -0.763186 0
M  V30 3093 O 281.669 1.94178 0.243559 0
M  V30 3094 C 281.968 1.56927 -3.21105 0
M  V30 3095 C 281.634 0.725376 -4.45027 0
M  V30 3096 C 280.296 0.492726 -4.78671 0
M  V30 3097 C 282.648 0.138493 -5.21016 0
M  V30 3098 C 279.976 -0.336727 -5.85733 0
M  V30 3099 C 282.328 -0.678264 -6.28953 0
M  V30 3100 C 280.992 -0.921039 -6.61115 0
M  V30 3101 H 280.262 0.293721 -0.680301 0
M  V30 3102 H 282.909 0.0642841 -1.91392 0
M  V30 3103 H 281.214 2.37914 -3.11294 0
M  V30 3104 H 282.911 2.11841 -3.40477 0
M  V30 3105 H 279.501 0.916815 -4.18679 0
M  V30 3106 H 283.685 0.305404 -4.95359 0
M  V30 3107 H 278.941 -0.533836 -6.09065 0
M  V30 3108 H 283.115 -1.1399 -6.87007 0
M  V30 3109 H 280.742 -1.56556 -7.43905 0
M  V30 3110 N 282.317 1.53212 0.369288 0
M  V30 3111 C 283.28 1.7872 1.43498 0
M  V30 3112 C 284.28 0.657554 1.46741 0
M  V30 3113 O 285.47 0.925736 1.47566 0
M  V30 3114 C 282.602 1.90591 2.82645 0
M  V30 3115 H 283.795 2.73894 1.22156 0
M  V30 3116 H 281.348 1.44233 0.602203 0
M  V30 3117 H 282.083 0.974709 3.09306 0
M  V30 3118 H 281.868 2.72751 2.8169 0
M  V30 3119 H 283.358 2.11931 3.59826 0
M  V30 3120 N 283.795 -0.628877 1.44509 0
M  V30 3121 C 284.705 -1.7694 1.54044 0
M  V30 3122 C 285.721 -1.68705 0.425987 0
M  V30 3123 O 286.897 -1.89442 0.683656 0
M  V30 3124 C 283.962 -3.13332 1.48405 0
M  V30 3125 C 283.023 -3.33181 2.70719 0
M  V30 3126 C 282.256 -4.63067 2.6534 0
M  V30 3127 O 282.479 -5.44017 1.71469 0
M  V30 3128 O 281.413 -4.85167 3.56226 0
M  V30 3129 H 285.239 -1.71848 2.50403 0
M  V30 3130 H 282.824 -0.790378 1.26781 0
M  V30 3131 H 284.706 -3.94634 1.47791 0
M  V30 3132 H 283.381 -3.1896 0.551898 0
M  V30 3133 H 282.288 -2.51549 2.769 0
M  V30 3134 H 283.621 -3.32416 3.62988 0
M  V30 3135 N 285.273 -1.31445 -0.869486 0
M  V30 3136 C 286.521 -1.20918 -1.61936 0
M  V30 3137 C 286.842 0.232683 -1.93607 0
M  V30 3138 O 286.112 1.15352 -1.58338 0
M  V30 3139 H 284.692 -0.44454 -0.600328 0
M  V30 3140 H 287.354 -1.64776 -1.0409 0
M  V30 3141 H 286.45 -1.78124 -2.56278 0
M  V30 3142 N 286.751 1.08385 -1.14413 0
M  V30 3143 C 288.167 1.32844 -0.884563 0
M  V30 3144 C 288.367 1.95841 0.474181 0
M  V30 3145 O 287.423 2.21158 1.21842 0
M  V30 3146 C 288.736 2.22978 -2.01745 0
M  V30 3147 C 290.284 2.36458 -2.05077 0
M  V30 3148 C 290.759 3.29934 -3.1766 0
M  V30 3149 N 292.25 3.37511 -3.17239 0
M  V30 3150 C 292.985 4.09871 -4.0099 0
M  V30 3151 N 292.481 4.84936 -4.94781 0
M  V30 3152 N 294.274 4.05704 -3.89051 0
M  V30 3153 H 286.425 0.658756 -2.01926 0
M  V30 3154 H 288.688 0.352821 -0.879899 0
M  V30 3155 H 288.394 1.83934 -2.99769 0
M  V30 3156 H 288.268 3.23441 -1.94077 0
M  V30 3157 H 290.655 2.7476 -1.0766 0
M  V30 3158 H 290.736 1.35736 -2.16816 0
M  V30 3159 H 290.38 2.92352 -4.15322 0
M  V30 3160 H 290.31 4.30584 -3.03158 0
M  V30 3161 H 292.801 2.83996 -2.49308 0
M  V30 3162 H 293.114 5.37612 -5.55151 0
M  V30 3163 H 291.459 4.83988 -4.98779 0
M  V30 3164 H 294.65 3.46167 -3.15097 0
M  V30 3165 H 294.823 4.61834 -4.54547 0
M  V30 3166 N 288.23 0.939286 1.26551 0
M  V30 3167 C 289.177 0.446088 2.26448 0
M  V30 3168 C 290.147 -0.493234 1.58608 0
M  V30 3169 O 291.332 -0.409857 1.86346 0
M  V30 3170 C 288.472 -0.284375 3.43926 0
M  V30 3171 C 287.585 0.690399 4.26448 0
M  V30 3172 C 286.72 -0.0610712 5.31165 0
M  V30 3173 C 285.759 0.905649 6.05363 0
M  V30 3174 N 284.896 0.186055 7.01853 0
M  V30 3175 H 289.736 1.30291 2.68008 0
M  V30 3176 H 287.273 0.65371 1.31776 0
M  V30 3177 H 289.231 -0.724313 4.10864 0
M  V30 3178 H 287.861 -1.10535 3.03285 0
M  V30 3179 H 286.913 1.24885 3.59316 0
M  V30 3180 H 288.225 1.42873 4.779 0
M  V30 3181 H 287.379 -0.56038 6.04106 0
M  V30 3182 H 286.118 -0.832297 4.80546 0
M  V30 3183 H 285.123 1.4161 5.3125 0
M  V30 3184 H 286.348 1.67685 6.58072 0
M  V30 3185 H 284.294 -0.566714 6.53548 0
M  V30 3186 H 284.211 0.863752 7.51049 0
M  V30 3187 H 285.479 -0.292221 7.78952 0
M  V30 3188 N 289.708 -1.40897 0.706093 0
M  V30 3189 C 290.656 -2.32572 0.0361893 0
M  V30 3190 C 291.65 -1.51532 -0.757266 0
M  V30 3191 O 292.856 -1.67396 -0.661703 0
M  V30 3192 H 289.231 -0.751966 -0.00709935 0
M  V30 3193 H 291.202 -2.86733 0.826249 0
M  V30 3194 C 289.951 -3.36418 -0.87854 0
M  V30 3195 H 289.274 -3.98836 -0.277401 0
M  V30 3196 H 290.714 -4.0308 -1.3154 0
M  V30 3197 C 289.173 -2.71141 -1.99961 0
M  V30 3198 O 289.703 -2.56735 -3.0895 0
M  V30 3199 N 287.909 -2.29671 -1.78043 0
M  V30 3200 H 287.456 -2.41588 -0.894042 0
M  V30 3201 H 287.414 -1.86332 -2.53235 0
M  V30 3202 N 291.186 -0.45159 -1.50991 0
M  V30 3203 C 292.435 0.111653 -2.01391 0
M  V30 3204 C 292.748 1.42529 -1.33959 0
M  V30 3205 O 293.954 2.07232 -1.75405 0
M  V30 3206 C 292.41 0.249514 -3.59034 0
M  V30 3207 C 292.018 -1.05453 -4.35412 0
M  V30 3208 C 293.762 0.765762 -4.17536 0
M  V30 3209 C 291.669 -0.881529 -5.84793 0
M  V30 3210 H 290.599 0.0455022 -0.752626 0
M  V30 3211 H 293.25 -0.583524 -1.73975 0
M  V30 3212 H 291.632 1.00803 -3.82955 0
M  V30 3213 H 292.806 -1.82248 -4.23229 0
M  V30 3214 H 291.121 -1.50039 -3.88429 0
M  V30 3215 H 293.718 0.911913 -5.26866 0
M  V30 3216 H 294.061 1.75201 -3.77638 0
M  V30 3217 H 294.594 0.0651744 -3.97747 0
M  V30 3218 H 291.333 -1.84057 -6.29129 0
M  V30 3219 H 290.853 -0.153625 -5.99603 0
M  V30 3220 H 292.532 -0.540363 -6.4474 0
M  V30 3221 N 292.664 1.56529 -0.183458 0
M  V30 3222 C 293.911 1.97244 0.458357 0
M  V30 3223 C 294.239 1.06992 1.62428 0
M  V30 3224 O 293.494 0.106542 1.9541 0
M  V30 3225 C 293.793 3.43939 0.971637 0
M  V30 3226 C 293.459 4.5083 -0.0796784 0
M  V30 3227 C 292.121 4.79786 -0.368584 0
M  V30 3228 C 294.473 5.15138 -0.792638 0
M  V30 3229 C 291.801 5.70345 -1.37563 0
M  V30 3230 C 294.153 6.06784 -1.78875 0
M  V30 3231 C 292.817 6.34102 -2.08497 0
M  V30 3232 H 292.087 0.721768 0.167725 0
M  V30 3233 H 294.734 1.89472 -0.277976 0
M  V30 3234 H 293.039 3.48724 1.78602 0
M  V30 3235 H 294.736 3.72791 1.47744 0
M  V30 3236 H 291.326 4.28317 0.155668 0
M  V30 3237 H 295.51 4.92868 -0.582659 0
M  V30 3238 H 290.766 5.89789 -1.61118 0
M  V30 3239 H 294.94 6.55677 -2.3465 0
M  V30 3240 H 292.567 7.04074 -2.86678 0
M  V30 3241 N 294.142 -0.090211 1.57342 0
M  V30 3242 C 295.074 -1.13541 1.99101 0
M  V30 3243 C 296.087 -1.3604 0.894258 0
M  V30 3244 O 297.276 -1.34606 1.17233 0
M  V30 3245 C 294.376 -2.49001 2.29895 0
M  V30 3246 C 293.549 -2.46712 3.61182 0
M  V30 3247 C 292.608 -3.64136 3.79857 0
M  V30 3248 O 291.634 -3.46405 4.51655 0
M  V30 3249 N 292.836 -4.83802 3.20806 0
M  V30 3250 H 295.601 -0.779942 2.89373 0
M  V30 3251 H 293.162 -0.279125 1.59476 0
M  V30 3252 H 295.154 -3.26166 2.39578 0
M  V30 3253 H 293.724 -2.76619 1.45605 0
M  V30 3254 H 292.944 -1.55058 3.62423 0
M  V30 3255 H 294.232 -2.42265 4.4742 0
M  V30 3256 H 293.63 -5.01112 2.62494 0
M  V30 3257 H 292.187 -5.58543 3.35966 0
M  V30 3258 N 295.62 -1.53406 -0.361157 0
M  V30 3259 C 296.568 -1.80832 -1.46296 0
M  V30 3260 C 297.562 -0.677699 -1.55253 0
M  V30 3261 O 298.768 -0.860723 -1.58087 0
M  V30 3262 H 295.143 -0.572627 -0.487445 0
M  V30 3263 H 297.114 -2.73045 -1.20371 0
M  V30 3264 C 295.863 -2.01907 -2.8307 0
M  V30 3265 H 295.186 -2.88349 -2.76938 0
M  V30 3266 H 296.626 -2.25072 -3.59331 0
M  V30 3267 C 295.085 -0.799449 -3.27277 0
M  V30 3268 O 295.615 0.00971761 -4.01699 0
M  V30 3269 N 293.821 -0.621637 -2.83873 0
M  V30 3270 H 293.368 -1.28126 -2.23476 0
M  V30 3271 H 293.326 0.19298 -3.13807 0
M  V30 3272 N 297.098 0.621204 -1.44841 0
M  V30 3273 C 298.346 1.37783 -1.47852 0
M  V30 3274 C 298.667 1.94653 -0.116224 0
M  V30 3275 O 297.937 1.76367 0.852737 0
M  V30 3276 H 296.517 0.511453 -0.544449 0
M  V30 3277 H 299.179 0.730446 -1.80694 0
M  V30 3278 H 298.275 2.20414 -2.20961 0
M  V30 3279 N 298.576 1.31904 0.862503 0
M  V30 3280 C 299.822 1.22197 1.61851 0
M  V30 3281 C 300.155 -0.217641 1.92977 0
M  V30 3282 O 299.43 -1.15264 1.56666 0
M  V30 3283 C 299.713 2.07378 2.94391 0
M  V30 3284 C 299.566 3.59678 2.70096 0
M  V30 3285 C 300.885 1.92891 3.95577 0
M  V30 3286 H 298.004 0.445255 0.587296 0
M  V30 3287 H 300.646 1.6177 0.99651 0
M  V30 3288 H 298.796 1.73758 3.47477 0
M  V30 3289 H 300.468 4.03472 2.23625 0
M  V30 3290 H 298.711 3.82735 2.04197 0
M  V30 3291 H 299.382 4.14595 3.64438 0
M  V30 3292 H 301.858 2.22327 3.51724 0
M  V30 3293 H 300.734 2.54781 4.86187 0
M  V30 3294 H 300.995 0.894315 4.3296 0
M  V30 3295 N 300.054 -1.07777 1.14986 0
M  V30 3296 C 300.984 -2.16865 0.865557 0
M  V30 3297 C 301.965 -1.69123 -0.182083 0
M  V30 3298 O 303.15 -1.94164 -0.0373815 0
M  V30 3299 C 300.28 -3.45539 0.349313 0
M  V30 3300 C 299.234 -4.06708 1.33313 0
M  V30 3301 C 298.56 -5.30411 0.675918 0
M  V30 3302 C 299.86 -4.47241 2.69764 0
M  V30 3303 H 301.554 -2.40905 1.77778 0
M  V30 3304 H 299.1 -1.15781 0.856203 0
M  V30 3305 H 301.053 -4.21174 0.137983 0
M  V30 3306 H 299.777 -3.21072 -0.598362 0
M  V30 3307 H 298.436 -3.33112 1.53075 0
M  V30 3308 H 298.084 -5.02232 -0.277767 0
M  V30 3309 H 297.784 -5.72293 1.33244 0
M  V30 3310 H 299.308 -6.08755 0.474262 0
M  V30 3311 H 300.722 -5.14025 2.53873 0
M  V30 3312 H 299.119 -5.00062 3.3175 0
M  V30 3313 H 300.189 -3.58818 3.26156 0
M  V30 3314 N 301.532 -0.945985 -1.26051 0
M  V30 3315 C 302.948 -0.649045 -1.45807 0
M  V30 3316 C 303.148 0.796158 -1.85104 0
M  V30 3317 O 302.204 1.57233 -1.97571 0
M  V30 3318 C 303.517 -1.61458 -2.53677 0
M  V30 3319 C 305.065 -1.62481 -2.67524 0
M  V30 3320 C 305.54 -2.57776 -3.7857 0
M  V30 3321 N 307.031 -2.5609 -3.85969 0
M  V30 3322 C 307.766 -3.26508 -4.7136 0
M  V30 3323 N 307.262 -4.0637 -5.61102 0
M  V30 3324 N 309.055 -3.15437 -4.65248 0
M  V30 3325 H 301.206 -1.88005 -0.988328 0
M  V30 3326 H 303.469 -0.808198 -0.4955 0
M  V30 3327 H 303.175 -2.64644 -2.31638 0
M  V30 3328 H 303.049 -1.37036 -3.51427 0
M  V30 3329 H 305.436 -0.600167 -2.88933 0
M  V30 3330 H 305.517 -1.90958 -1.70202 0
M  V30 3331 H 305.161 -3.60361 -3.57913 0
M  V30 3332 H 305.091 -2.26587 -4.75359 0
M  V30 3333 H 307.582 -1.98105 -3.21812 0
M  V30 3334 H 307.895 -4.57042 -6.23164 0
M  V30 3335 H 306.24 -4.10469 -5.60839 0
M  V30 3336 H 309.431 -2.52525 -3.94143 0
M  V30 3337 H 309.604 -3.70584 -5.31575 0
M  V30 3338 N 303.011 1.40521 -0.713556 0
M  V30 3339 C 304.236 2.05759 -0.26035 0
M  V30 3340 C 304.661 1.53403 1.08854 0
M  V30 3341 O 304.019 0.668535 1.68524 0
M  V30 3342 C 304.067 3.59745 -0.248122 0
M  V30 3343 O 303.171 4.05123 0.77131 0
M  V30 3344 H 302.512 0.652564 -0.122703 0
M  V30 3345 H 305.042 1.79958 -0.973467 0
M  V30 3346 H 305.052 4.07911 -0.0851129 0
M  V30 3347 H 303.727 3.97218 -1.2325 0
M  V30 3348 H 302.304 3.68422 0.57619 0
M  V30 3349 N 304.489 0.459591 1.5075 0
M  V30 3350 C 305.738 -0.100971 2.01447 0
M  V30 3351 C 306.051 -1.41816 1.34713 0
M  V30 3352 O 307.257 -2.06299 1.76502 0
M  V30 3353 C 305.713 -0.23047 3.59161 0
M  V30 3354 C 305.321 1.0776 4.34847 0
M  V30 3355 C 307.065 -0.743608 4.17936 0
M  V30 3356 C 304.972 0.91253 5.84317 0
M  V30 3357 H 303.902 -0.0415102 0.752856 0
M  V30 3358 H 306.553 0.592742 1.73663 0
M  V30 3359 H 304.935 -0.987703 3.83485 0
M  V30 3360 H 306.109 1.8449 4.22256 0
M  V30 3361 H 304.424 1.52097 3.87628 0
M  V30 3362 H 307.021 -0.883959 5.27343 0
M  V30 3363 H 307.364 -1.73196 3.78562 0
M  V30 3364 H 307.897 -0.04408 3.97776 0
M  V30 3365 H 304.636 1.87391 6.28144 0
M  V30 3366 H 304.156 0.185422 5.99513 0
M  V30 3367 H 305.835 0.574547 6.44444 0
M  V30 3368 N 305.967 -1.56429 0.191757 0
M  V30 3369 C 306.93 -2.17707 -0.716688 0
M  V30 3370 C 307.93 -1.13061 -1.14341 0
M  V30 3371 O 309.12 -1.38464 -1.05704 0
M  V30 3372 C 306.252 -2.77644 -1.97804 0
M  V30 3373 H 307.445 -2.99342 -0.1829 0
M  V30 3374 H 304.998 -1.56193 -0.0578566 0
M  V30 3375 H 305.733 -1.99799 -2.55443 0
M  V30 3376 H 305.518 -3.54246 -1.68083 0
M  V30 3377 H 307.008 -3.24708 -2.62592 0
M  V30 3378 N 307.445 0.0818655 -1.57387 0
M  V30 3379 C 308.355 1.11642 -2.06333 0
M  V30 3380 C 309.371 1.43033 -0.99083 0
M  V30 3381 O 310.547 1.53411 -1.30488 0
M  V30 3382 C 307.612 2.41342 -2.48907 0
M  V30 3383 C 306.673 2.17014 -3.7041 0
M  V30 3384 C 305.906 3.4053 -4.10944 0
M  V30 3385 O 306.129 4.4927 -3.51444 0
M  V30 3386 O 305.063 3.29336 -5.03807 0
M  V30 3387 H 308.889 0.730657 -2.9478 0
M  V30 3388 H 306.474 0.295301 -1.46452 0
M  V30 3389 H 308.356 3.17691 -2.76858 0
M  V30 3390 H 307.031 2.79319 -1.63593 0
M  V30 3391 H 305.938 1.38403 -3.47556 0
M  V30 3392 H 307.271 1.83923 -4.56545 0
M  V30 3393 N 308.923 1.53595 0.353017 0
M  V30 3394 C 309.87 1.80919 1.43308 0
M  V30 3395 C 310.84 0.654288 1.5267 0
M  V30 3396 O 312.025 0.897759 1.6836 0
M  V30 3397 C 309.165 2.01605 2.80089 0
M  V30 3398 C 308.278 3.29321 2.79593 0
M  V30 3399 C 307.413 3.40125 4.0803 0
M  V30 3400 C 306.452 4.61826 4.01725 0
M  V30 3401 N 305.589 4.69716 5.21834 0
M  V30 3402 H 310.429 2.73074 1.19308 0
M  V30 3403 H 307.966 1.35263 0.578131 0
M  V30 3404 H 309.924 2.11586 3.59565 0
M  V30 3405 H 308.554 1.12772 3.0246 0
M  V30 3406 H 307.606 3.28229 1.92276 0
M  V30 3407 H 308.918 4.18884 2.70809 0
M  V30 3408 H 308.072 3.49488 4.95927 0
M  V30 3409 H 306.811 2.48601 4.19582 0
M  V30 3410 H 305.816 4.52552 3.12213 0
M  V30 3411 H 307.041 5.54705 3.91764 0
M  V30 3412 H 304.987 3.81097 5.33948 0
M  V30 3413 H 304.904 5.53202 5.1527 0
M  V30 3414 H 306.172 4.83376 6.11529 0
M  V30 3415 N 310.401 -0.613514 1.45168 0
M  V30 3416 C 311.631 -1.39743 1.52169 0
M  V30 3417 C 312.039 -1.88596 0.151086 0
M  V30 3418 O 311.382 -1.6251 -0.856521 0
M  V30 3419 C 311.444 -2.64035 2.43979 0
M  V30 3420 C 311.108 -2.36861 3.90827 0
M  V30 3421 C 312.105 -1.97591 4.80889 0
M  V30 3422 C 309.79 -2.49956 4.35692 0
M  V30 3423 C 311.784 -1.71768 6.1382 0
M  V30 3424 C 309.471 -2.23747 5.68665 0
M  V30 3425 C 310.469 -1.84714 6.57548 0
M  V30 3426 O 310.157 -1.58809 7.88058 0
M  V30 3427 H 309.889 -0.434382 0.517966 0
M  V30 3428 H 312.443 -0.75587 1.90986 0
M  V30 3429 H 310.673 -3.3089 2.00122 0
M  V30 3430 H 312.362 -3.26069 2.41731 0
M  V30 3431 H 313.128 -1.87015 4.47493 0
M  V30 3432 H 309.007 -2.79305 3.66756 0
M  V30 3433 H 312.551 -1.41227 6.83155 0
M  V30 3434 H 308.448 -2.33938 6.01617 0
M  V30 3435 H 309.216 -1.7291 8.00028 0
M  V30 3436 N 311.879 -1.3236 -0.855495 0
M  V30 3437 C 313.127 -1.22629 -1.60644 0
M  V30 3438 C 313.448 0.212136 -1.93843 0
M  V30 3439 O 312.718 1.13666 -1.59552 0
M  V30 3440 H 311.298 -0.450882 -0.595579 0
M  V30 3441 H 313.96 -1.65871 -1.02337 0
M  V30 3442 H 313.056 -1.80832 -2.54374 0
M  V30 3443 N 313.357 1.07166 -1.15556 0
M  V30 3444 C 314.304 2.14417 -0.854055 0
M  V30 3445 C 315.274 1.64965 0.193806 0
M  V30 3446 O 316.459 1.90703 0.0609443 0
M  V30 3447 C 313.599 3.43304 -0.351574 0
M  V30 3448 C 312.712 4.06537 -1.46123 0
M  V30 3449 C 311.847 5.23266 -0.914677 0
M  V30 3450 C 310.886 5.78464 -2.00114 0
M  V30 3451 N 310.023 6.86521 -1.47083 0
M  V30 3452 H 314.863 2.39548 -1.77259 0
M  V30 3453 H 312.4 1.17543 -0.884425 0
M  V30 3454 H 314.358 4.17179 -0.0419409 0
M  V30 3455 H 312.988 3.18419 0.530037 0
M  V30 3456 H 312.04 3.30297 -1.88701 0
M  V30 3457 H 313.352 4.43567 -2.28144 0
M  V30 3458 H 312.506 6.04131 -0.557698 0
M  V30 3459 H 311.245 4.87658 -0.0636583 0
M  V30 3460 H 310.25 4.96243 -2.36692 0
M  V30 3461 H 311.475 6.16126 -2.85597 0
M  V30 3462 H 309.421 6.52849 -0.642198 0
M  V30 3463 H 309.338 7.22446 -2.22729 0
M  V30 3464 H 310.606 7.71087 -1.14215 0
M  V30 3465 N 314.835 0.952656 1.25548 0
M  V30 3466 C 316.063 0.623496 1.97282 0
M  V30 3467 C 316.478 -0.803987 1.70826 0
M  V30 3468 O 315.835 -1.53755 0.983147 0
M  V30 3469 C 315.886 0.870209 3.5087 0
M  V30 3470 O 315.607 2.24156 3.76412 0
M  V30 3471 C 317.108 0.553164 4.39835 0
M  V30 3472 H 314.328 0.233931 0.628902 0
M  V30 3473 H 316.872 1.27649 1.59768 0
M  V30 3474 H 315.027 0.263652 3.86502 0
M  V30 3475 H 315.441 2.31021 4.70882 0
M  V30 3476 H 316.915 0.776342 5.46513 0
M  V30 3477 H 317.392 -0.512215 4.36203 0
M  V30 3478 H 317.998 1.13896 4.09766 0
M  V30 3479 N 316.313 -1.40141 0.720998 0
M  V30 3480 C 317.559 -2.01084 0.263231 0
M  V30 3481 C 317.892 -1.57052 -1.14229 0
M  V30 3482 O 317.167 -0.793027 -1.77599 0
M  V30 3483 C 317.45 -3.58401 0.349344 0
M  V30 3484 C 317.303 -4.12491 1.79363 0
M  V30 3485 C 318.622 -4.39231 -0.276351 0
M  V30 3486 H 315.741 -0.730572 0.0971228 0
M  V30 3487 H 318.383 -1.66543 0.914518 0
M  V30 3488 H 316.533 -3.87958 -0.205165 0
M  V30 3489 H 318.205 -3.93711 2.40394 0
M  V30 3490 H 316.448 -3.66576 2.31958 0
M  V30 3491 H 317.119 -5.21646 1.80524 0
M  V30 3492 H 319.595 -4.15637 0.196184 0
M  V30 3493 H 318.471 -5.48586 -0.185681 0
M  V30 3494 H 318.732 -4.20643 -1.36059 0
M  V30 3495 N 317.792 -0.46758 -1.50504 0
M  V30 3496 C 318.755 0.317059 -2.26996 0
M  V30 3497 C 319.755 0.923513 -1.31635 0
M  V30 3498 O 320.945 0.793239 -1.55091 0
M  V30 3499 C 318.077 1.45134 -3.08462 0
M  V30 3500 H 319.27 -0.353723 -2.97807 0
M  V30 3501 H 316.823 -0.221545 -1.54722 0
M  V30 3502 H 317.558 2.15728 -2.4214 0
M  V30 3503 H 317.343 1.02232 -3.78538 0
M  V30 3504 H 318.833 2.00493 -3.66323 0
M  V30 3505 N 319.27 1.56325 -0.20005 0
M  V30 3506 C 320.202 2.16555 0.750771 0
M  V30 3507 C 321.215 1.12871 1.1732 0
M  V30 3508 O 322.404 1.39943 1.10807 0
M  V30 3509 C 319.504 2.71684 2.02586 0
M  V30 3510 C 318.677 4.00321 1.76244 0
M  V30 3511 C 317.736 4.40227 2.88248 0
M  V30 3512 O 316.762 5.07552 2.57642 0
M  V30 3513 N 317.964 4.04138 4.16717 0
M  V30 3514 H 320.729 2.98772 0.235685 0
M  V30 3515 H 318.29 1.6189 -0.0182594 0
M  V30 3516 H 320.282 2.95363 2.76664 0
M  V30 3517 H 318.852 1.93893 2.45202 0
M  V30 3518 H 318.072 3.84723 0.85919 0
M  V30 3519 H 319.36 4.84279 1.56048 0
M  V30 3520 H 318.758 3.49993 4.44434 0
M  V30 3521 H 317.315 4.32756 4.87407 0
M  V30 3522 N 320.748 -0.0735177 1.57428 0
M  V30 3523 C 321.994 -0.774145 1.87443 0
M  V30 3524 C 322.327 -1.77311 0.792103 0
M  V30 3525 O 321.602 -1.93492 -0.197793 0
M  V30 3526 C 321.885 -1.48367 3.28115 0
M  V30 3527 C 321.738 -0.501227 4.46999 0
M  V30 3528 C 323.057 -2.429 3.66998 0
M  V30 3529 H 320.176 -0.279971 0.681752 0
M  V30 3530 H 322.818 -0.0373616 1.89963 0
M  V30 3531 H 320.968 -2.11171 3.26097 0
M  V30 3532 H 322.64 0.121468 4.6114 0
M  V30 3533 H 320.883 0.183593 4.33411 0
M  V30 3534 H 321.554 -1.03526 5.42205 0
M  V30 3535 H 324.03 -1.90175 3.70098 0
M  V30 3536 H 322.906 -2.89549 4.66318 0
M  V30 3537 H 323.167 -3.27628 2.96837 0
M  V30 3538 N 322.226 -1.5378 -0.344866 0
M  V30 3539 C 323.475 -1.7018 -1.08267 0
M  V30 3540 C 323.788 -0.471 -1.89845 0
M  V30 3541 O 324.994 -0.515917 -2.66553 0
M  V30 3542 C 323.45 -3.00923 -1.97417 0
M  V30 3543 C 323.058 -4.31335 -1.21053 0
M  V30 3544 C 324.802 -3.26688 -2.71063 0
M  V30 3545 C 322.709 -5.53153 -2.09225 0
M  V30 3546 H 321.639 -0.634138 -0.407903 0
M  V30 3547 H 324.29 -1.8028 -0.342246 0
M  V30 3548 H 322.672 -2.84676 -2.75274 0
M  V30 3549 H 323.846 -4.58281 -0.481159 0
M  V30 3550 H 322.161 -4.12173 -0.591813 0
M  V30 3551 H 324.758 -4.1489 -3.37299 0
M  V30 3552 H 325.101 -2.43639 -3.37558 0
M  V30 3553 H 325.634 -3.43705 -2.0028 0
M  V30 3554 H 322.373 -6.38741 -1.47274 0
M  V30 3555 H 321.893 -5.30458 -2.79955 0
M  V30 3556 H 323.572 -5.88744 -2.68308 0
M  V30 3557 N 323.704 0.605807 -1.45491 0
M  V30 3558 C 324.634 1.72709 -1.57143 0
M  V30 3559 C 325.615 1.6476 -0.422884 0
M  V30 3560 O 326.8 1.83132 -0.646247 0
M  V30 3561 C 323.93 3.11316 -1.53948 0
M  V30 3562 C 322.884 3.34077 -2.67537 0
M  V30 3563 C 322.21 4.72975 -2.49397 0
M  V30 3564 C 323.51 3.24158 -4.09535 0
M  V30 3565 H 325.204 1.63214 -2.51001 0
M  V30 3566 H 322.75 0.78379 -1.208 0
M  V30 3567 H 324.703 3.89557 -1.60696 0
M  V30 3568 H 323.427 3.21655 -0.566205 0
M  V30 3569 H 322.086 2.58227 -2.6022 0
M  V30 3570 H 321.734 4.8005 -1.50205 0
M  V30 3571 H 321.434 4.8916 -3.25571 0
M  V30 3572 H 322.958 5.53414 -2.58002 0
M  V30 3573 H 324.372 3.92271 -4.18086 0
M  V30 3574 H 322.769 3.51872 -4.86113 0
M  V30 3575 H 323.839 2.2157 -4.31317 0
M  V30 3576 N 325.182 1.32811 0.848464 0
M  V30 3577 C 326.598 1.11937 1.13764 0
M  V30 3578 C 326.798 -0.0960789 2.01271 0
M  V30 3579 O 325.854 -0.779165 2.40178 0
M  V30 3580 C 327.167 2.402 1.809 0
M  V30 3581 C 328.715 2.46016 1.93508 0
M  V30 3582 C 329.19 3.74215 2.64059 0
M  V30 3583 N 330.681 3.75232 2.71579 0
M  V30 3584 C 331.416 4.71134 3.26833 0
M  V30 3585 N 330.912 5.77406 3.8285 0
M  V30 3586 N 332.705 4.58623 3.24995 0
M  V30 3587 H 324.856 2.1073 0.265855 0
M  V30 3588 H 327.119 0.930671 0.180431 0
M  V30 3589 H 326.825 3.29093 1.24058 0
M  V30 3590 H 326.699 2.51628 2.81004 0
M  V30 3591 H 329.086 1.57577 2.49506 0
M  V30 3592 H 329.167 2.38536 0.923811 0
M  V30 3593 H 328.811 4.63031 2.08722 0
M  V30 3594 H 328.741 3.78968 3.65637 0
M  V30 3595 H 331.232 2.98423 2.31845 0
M  V30 3596 H 331.545 6.46632 4.23187 0
M  V30 3597 H 329.89 5.81152 3.81165 0
M  V30 3598 H 333.081 3.74762 2.80484 0
M  V30 3599 H 333.254 5.33535 3.67756 0
M  V30 3600 N 326.66 -1.06551 1.16123 0
M  V30 3601 C 327.906 -1.79719 0.952505 0
M  V30 3602 C 328.261 -1.85396 -0.514385 0
M  V30 3603 O 327.554 -1.33263 -1.37665 0
M  V30 3604 C 327.748 -3.23911 1.51052 0
M  V30 3605 C 327.577 -3.32284 3.03013 0
M  V30 3606 C 326.347 -3.42371 3.71632 0
M  V30 3607 C 328.545 -3.22363 4.00732 0
M  V30 3608 N 326.527 -3.39732 5.11327 0
M  V30 3609 C 327.898 -3.26937 5.26794 0
M  V30 3610 C 329.953 -3.0623 3.92591 0
M  V30 3611 C 328.656 -3.17035 6.45663 0
M  V30 3612 C 330.682 -2.97665 5.11028 0
M  V30 3613 C 330.044 -3.02858 6.35969 0
M  V30 3614 H 326.143 -0.670585 0.402293 0
M  V30 3615 H 328.727 -1.27125 1.4747 0
M  V30 3616 H 326.898 -3.74907 1.01484 0
M  V30 3617 H 328.63 -3.85242 1.2398 0
M  V30 3618 H 325.385 -3.47058 3.22254 0
M  V30 3619 H 325.809 -3.41919 5.84312 0
M  V30 3620 H 330.451 -3.01063 2.96852 0
M  V30 3621 H 328.169 -3.2096 7.41627 0
M  V30 3622 H 331.755 -2.86273 5.06497 0
M  V30 3623 H 330.635 -2.96286 7.26075 0
M  V30 3624 N 328.138 -0.959301 -1.25041 0
M  V30 3625 C 329.068 -0.501388 -2.28053 0
M  V30 3626 C 330.049 0.454673 -1.63911 0
M  V30 3627 O 331.234 0.352618 -1.90972 0
M  V30 3628 C 328.364 0.217224 -3.4662 0
M  V30 3629 C 327.318 -0.654034 -4.22973 0
M  V30 3630 C 326.644 0.195589 -5.34342 0
M  V30 3631 C 327.944 -1.93447 -4.85155 0
M  V30 3632 H 329.638 -1.36238 -2.66608 0
M  V30 3633 H 327.184 -0.656534 -1.28163 0
M  V30 3634 H 329.137 0.548732 -4.17812 0
M  V30 3635 H 327.861 1.1125 -3.07068 0
M  V30 3636 H 326.52 -0.968693 -3.5357 0
M  V30 3637 H 326.168 1.09076 -4.91031 0
M  V30 3638 H 325.868 -0.384091 -5.86343 0
M  V30 3639 H 327.392 0.521958 -6.08365 0
M  V30 3640 H 328.806 -1.66908 -5.48466 0
M  V30 3641 H 327.203 -2.46018 -5.47353 0
M  V30 3642 H 328.273 -2.63466 -4.07079 0
M  V30 3643 N 329.616 1.39756 -0.72842 0
M  V30 3644 C 330.844 2.04948 -0.283528 0
M  V30 3645 C 331.259 1.54908 1.0793 0
M  V30 3646 O 330.616 0.711135 1.68075 0
M  V30 3647 C 330.667 3.60498 -0.268957 0
M  V30 3648 O 330.388 4.08695 -1.57798 0
M  V30 3649 C 331.889 4.4288 0.192912 0
M  V30 3650 H 329.109 0.659243 -0.125056 0
M  V30 3651 H 331.653 1.78927 -0.990226 0
M  V30 3652 H 329.808 3.85444 0.388801 0
M  V30 3653 H 330.222 5.02977 -1.48709 0
M  V30 3654 H 331.696 5.51791 0.151952 0
M  V30 3655 H 332.173 4.21418 1.23708 0
M  V30 3656 H 332.779 4.23069 -0.435039 0
M  V30 3657 N 331.094 0.475555 1.50254 0
M  V30 3658 C 332.026 -0.352649 2.26471 0
M  V30 3659 C 333.039 -0.953165 1.3198 0
M  V30 3660 O 334.228 -0.840815 1.57457 0
M  V30 3661 C 331.328 -1.50902 3.0345 0
M  V30 3662 C 330.501 -1.02047 4.25329 0
M  V30 3663 C 329.56 -2.05142 4.84565 0
M  V30 3664 O 328.586 -1.63023 5.45355 0
M  V30 3665 N 329.788 -3.37987 4.71959 0
M  V30 3666 H 332.553 0.300767 2.98187 0
M  V30 3667 H 330.114 0.306598 1.5897 0
M  V30 3668 H 332.106 -2.19572 3.39956 0
M  V30 3669 H 330.676 -2.06705 2.34504 0
M  V30 3670 H 329.896 -0.159507 3.93877 0
M  V30 3671 H 331.184 -0.672061 5.04342 0
M  V30 3672 H 330.582 -3.74913 4.23623 0
M  V30 3673 H 329.139 -4.02443 5.12721 0
M  V30 3674 N 332.573 -1.56217 0.208337 0
M  V30 3675 C 333.52 -2.19699 -0.707192 0
M  V30 3676 C 334.49 -1.14836 -1.20008 0
M  V30 3677 O 335.675 -1.4314 -1.26157 0
M  V30 3678 C 332.815 -2.87061 -1.91546 0
M  V30 3679 C 331.928 -4.06483 -1.46271 0
M  V30 3680 C 331.063 -4.61665 -2.62752 0
M  V30 3681 C 330.102 -5.73417 -2.14147 0
M  V30 3682 N 329.239 -6.22948 -3.23853 0
M  V30 3683 H 334.079 -2.97575 -0.159111 0
M  V30 3684 H 331.616 -1.46948 -0.0667874 0
M  V30 3685 H 333.574 -3.24294 -2.62468 0
M  V30 3686 H 332.204 -2.11725 -2.43664 0
M  V30 3687 H 331.256 -3.74825 -0.648886 0
M  V30 3688 H 332.568 -4.87271 -1.06622 0
M  V30 3689 H 331.722 -5.01272 -3.41776 0
M  V30 3690 H 330.461 -3.80013 -3.05682 0
M  V30 3691 H 329.466 -5.33326 -1.33581 0
M  V30 3692 H 330.691 -6.56897 -1.72232 0
M  V30 3693 H 328.637 -5.44213 -3.6629 0
M  V30 3694 H 328.554 -6.98823 -2.88414 0
M  V30 3695 H 329.822 -6.6721 -4.03052 0
M  V30 3696 N 334.051 0.0651679 -1.57465 0
M  V30 3697 C 335.299 0.761555 -1.87202 0
M  V30 3698 C 335.62 1.77778 -0.801243 0
M  V30 3699 O 334.89 1.95166 0.16937 0
M  V30 3700 H 333.47 0.284251 -0.690804 0
M  V30 3701 H 336.132 0.0396827 -1.9486 0
M  V30 3702 H 335.228 1.27365 -2.84929 0
M  V30 3703 N 335.529 1.53961 0.336706 0
M  V30 3704 C 336.778 1.70751 1.07363 0
M  V30 3705 C 337.091 0.481061 1.89592 0
M  V30 3706 O 338.297 0.530046 2.66276 0
M  V30 3707 C 336.753 3.01965 1.95818 0
M  V30 3708 C 336.361 4.31971 1.18764 0
M  V30 3709 C 338.105 3.28121 2.69327 0
M  V30 3710 C 336.012 5.54255 2.06289 0
M  V30 3711 H 334.942 0.636292 0.404535 0
M  V30 3712 H 337.593 1.80459 0.332681 0
M  V30 3713 H 335.975 2.86132 2.7376 0
M  V30 3714 H 337.149 4.5853 0.456849 0
M  V30 3715 H 335.464 4.12481 0.569946 0
M  V30 3716 H 338.061 4.16673 3.35094 0
M  V30 3717 H 338.404 2.45426 3.36261 0
M  V30 3718 H 338.937 3.44762 1.98454 0
M  V30 3719 H 335.676 6.39513 1.43885 0
M  V30 3720 H 335.196 5.31935 2.77138 0
M  V30 3721 H 336.875 5.90159 2.65182 0
M  V30 3722 N 337.007 -0.598083 1.45811 0
M  V30 3723 C 338.253 -1.35882 1.50545 0
M  V30 3724 C 338.586 -1.93616 0.150445 0
M  V30 3725 O 337.861 -1.75604 -0.83628 0
M  V30 3726 C 338.144 -2.49966 2.59208 0
M  V30 3727 C 337.997 -1.97367 4.04186 0
M  V30 3728 C 339.316 -3.52068 2.64076 0
M  V30 3729 H 336.435 -0.492717 0.548087 0
M  V30 3730 H 339.077 -0.673319 1.77669 0
M  V30 3731 H 337.227 -3.08443 2.3621 0
M  V30 3732 H 338.899 -1.43466 4.38423 0
M  V30 3733 H 337.142 -1.283 4.14393 0
M  V30 3734 H 337.813 -2.79649 4.75921 0
M  V30 3735 H 340.289 -3.03448 2.84708 0
M  V30 3736 H 339.165 -4.2937 3.41954 0
M  V30 3737 H 339.426 -4.08304 1.69531 0
M  V30 3738 N 338.485 -1.33259 -0.841409 0
M  V30 3739 C 339.448 -1.23221 -1.9326 0
M  V30 3740 C 340.448 -0.151895 -1.60081 0
M  V30 3741 O 341.638 -0.403246 -1.69468 0
M  V30 3742 C 338.77 -0.898123 -3.28856 0
M  V30 3743 H 339.963 -2.2021 -2.03587 0
M  V30 3744 H 337.516 -1.17281 -1.03319 0
M  V30 3745 H 338.251 0.0693841 -3.24226 0
M  V30 3746 H 338.036 -1.67934 -3.54317 0
M  V30 3747 H 339.526 -0.852563 -4.08805 0
M  V30 3748 N 339.963 1.05934 -1.16686 0
M  V30 3749 C 341.212 1.78188 -0.945085 0
M  V30 3750 C 341.525 1.88338 0.528021 0
M  V30 3751 O 342.731 2.57258 0.867799 0
M  V30 3752 C 341.187 3.20277 -1.64167 0
M  V30 3753 C 340.795 3.18281 -3.15279 0
M  V30 3754 C 342.539 3.97039 -1.502 0
M  V30 3755 C 340.446 4.55112 -3.7766 0
M  V30 3756 H 339.376 0.667866 -0.349959 0
M  V30 3757 H 342.027 1.18794 -1.39858 0
M  V30 3758 H 340.409 3.79952 -1.11589 0
M  V30 3759 H 341.583 2.68167 -3.74731 0
M  V30 3760 H 339.898 2.55018 -3.29173 0
M  V30 3761 H 342.495 4.98194 -1.94183 0
M  V30 3762 H 342.838 4.13845 -0.451461 0
M  V30 3763 H 343.371 3.43894 -1.99954 0
M  V30 3764 H 340.11 4.43512 -4.82677 0
M  V30 3765 H 339.63 5.05406 -3.22994 0
M  V30 3766 H 341.309 5.24064 -3.79428 0
M  V30 3767 N 341.441 0.965919 1.2453 0
M  V30 3768 C 342.852 0.665929 1.7442 0
M  V30 3769 C 343.203 -0.818407 1.78316 0
M  V30 3770 O 342.328 -1.64037 1.41141 0
M  V30 3771 C 342.923 1.20211 3.16757 0
M  V30 3772 C 341.482 0.952059 3.6416 0
M  V30 3773 C 340.629 1.33848 2.42858 0
M  V30 3774 H 343.58 1.14144 1.10258 0
M  V30 3775 H 343.601 0.567544 3.76244 0
M  V30 3776 H 343.113 2.28244 3.13889 0
M  V30 3777 H 341.214 -0.112821 3.72429 0
M  V30 3778 H 341.327 1.59645 4.51719 0
M  V30 3779 H 339.691 0.756864 2.43195 0
M  V30 3780 H 340.474 2.42827 2.42673 0
M  V30 3781 N 342.919 -1.39368 0.735821 0
M  V30 3782 C 343.866 -2.30599 0.0963825 0
M  V30 3783 C 344.836 -1.49257 -0.728794 0
M  V30 3784 O 346.021 -1.77941 -0.688588 0
M  V30 3785 C 343.161 -3.35596 -0.804305 0
M  V30 3786 C 342.274 -4.31987 0.0335761 0
M  V30 3787 C 341.409 -5.24053 -0.868461 0
M  V30 3788 C 340.448 -6.12095 -0.0258776 0
M  V30 3789 N 339.585 -6.96514 -0.883893 0
M  V30 3790 H 344.425 -2.8471 0.880002 0
M  V30 3791 H 341.962 -1.40188 0.445619 0
M  V30 3792 H 343.92 -3.95062 -1.34096 0
M  V30 3793 H 342.55 -2.82938 -1.55389 0
M  V30 3794 H 341.602 -3.74133 0.68766 0
M  V30 3795 H 342.914 -4.94074 0.685036 0
M  V30 3796 H 342.068 -5.88549 -1.47293 0
M  V30 3797 H 340.807 -4.62289 -1.5537 0
M  V30 3798 H 339.812 -5.4661 0.591386 0
M  V30 3799 H 341.037 -6.75923 0.656156 0
M  V30 3800 H 338.983 -6.37318 -1.55441 0
M  V30 3801 H 338.9 -7.55448 -0.288931 0
M  V30 3802 H 340.168 -7.65439 -1.4739 0
M  V30 3803 N 344.397 -0.483516 -1.5 0
M  V30 3804 C 345.625 0.0644831 -2.06799 0
M  V30 3805 C 346.04 1.32399 -1.34596 0
M  V30 3806 O 345.397 1.77626 -0.418946 0
M  V30 3807 C 345.448 0.339927 -3.59898 0
M  V30 3808 O 345.169 -0.869635 -4.29382 0
M  V30 3809 C 346.67 0.933515 -4.33359 0
M  V30 3810 H 343.89 -0.0126333 -0.670881 0
M  V30 3811 H 346.434 -0.675864 -1.93009 0
M  V30 3812 H 344.589 1.03022 -3.7345 0
M  V30 3813 H 345.003 -0.62179 -5.20801 0
M  V30 3814 H 346.477 1.07593 -5.41413 0
M  V30 3815 H 346.954 1.92685 -3.94676 0
M  V30 3816 H 347.56 0.281221 -4.24369 0
M  V30 3817 N 345.875 1.56104 -0.216619 0
M  V30 3818 C 347.121 1.98466 0.417033 0
M  V30 3819 C 347.454 1.10403 1.59765 0
M  V30 3820 O 346.729 0.160632 1.93836 0
M  V30 3821 C 347.012 3.49769 0.85637 0
M  V30 3822 C 346.865 4.48606 -0.327546 0
M  V30 3823 C 348.184 4.05339 1.7143 0
M  V30 3824 H 345.303 0.721551 0.150112 0
M  V30 3825 H 347.945 1.87423 -0.311864 0
M  V30 3826 H 346.095 3.5931 1.47745 0
M  V30 3827 H 347.767 4.5108 -0.965618 0
M  V30 3828 H 346.01 4.22682 -0.975805 0
M  V30 3829 H 346.681 5.51995 0.0227149 0
M  V30 3830 H 349.157 3.98712 1.19031 0
M  V30 3831 H 348.033 5.11533 1.99061 0
M  V30 3832 H 348.294 3.51918 2.67593 0
M  V30 3833 N 347.353 -0.0568162 1.57498 0
M  V30 3834 C 348.769 -0.411933 1.54192 0
M  V30 3835 C 348.969 -1.78287 0.938942 0
M  V30 3836 O 348.025 -2.46483 0.547919 0
M  V30 3837 C 349.338 -0.339244 2.9878 0
M  V30 3838 C 350.886 -0.418348 3.10192 0
M  V30 3839 C 351.361 -0.375407 4.56459 0
M  V30 3840 N 352.852 -0.435038 4.61153 0
M  V30 3841 C 353.587 -0.424265 5.71828 0
M  V30 3842 N 353.083 -0.367418 6.91825 0
M  V30 3843 N 354.876 -0.471938 5.60115 0
M  V30 3844 H 347.027 0.840684 1.95055 0
M  V30 3845 H 349.29 0.316987 0.893433 0
M  V30 3846 H 348.996 0.601742 3.46514 0
M  V30 3847 H 348.87 -1.14371 3.59443 0
M  V30 3848 H 351.257 -1.34976 2.62422 0
M  V30 3849 H 351.338 0.414962 2.52412 0
M  V30 3850 H 350.982 0.552219 5.04889 0
M  V30 3851 H 350.912 -1.22645 5.12119 0
M  V30 3852 H 353.403 -0.482612 3.74806 0
M  V30 3853 H 353.716 -0.363535 7.71944 0
M  V30 3854 H 352.061 -0.333879 6.94198 0
M  V30 3855 H 355.252 -0.514145 4.65268 0
M  V30 3856 H 355.425 -0.460073 6.46365 0
M  V30 3857 N 348.832 -1.54138 -0.328536 0
M  V30 3858 C 350.248 -1.44736 -0.672574 0
M  V30 3859 C 350.448 -0.616217 -1.91846 0
M  V30 3860 O 349.504 -0.113067 -2.52247 0
M  V30 3861 C 350.817 -2.884 -0.851217 0
M  V30 3862 C 352.365 -2.98271 -0.948877 0
M  V30 3863 C 352.84 -4.43074 -1.15973 0
M  V30 3864 N 354.331 -4.46665 -1.22658 0
M  V30 3865 C 355.066 -5.55857 -1.40751 0
M  V30 3866 N 354.562 -6.75026 -1.5592 0
M  V30 3867 N 356.355 -5.43495 -1.4342 0
M  V30 3868 H 348.506 -2.06661 0.490421 0
M  V30 3869 H 350.769 -0.934812 0.157579 0
M  V30 3870 H 350.475 -3.51699 -0.00704236 0
M  V30 3871 H 350.349 -3.34225 -1.74853 0
M  V30 3872 H 352.736 -2.35102 -1.78356 0
M  V30 3873 H 352.817 -2.55785 -0.0281435 0
M  V30 3874 H 352.461 -5.06827 -0.329915 0
M  V30 3875 H 352.391 -4.83165 -2.09426 0
M  V30 3876 H 354.882 -3.60797 -1.124 0
M  V30 3877 H 355.195 -7.54004 -1.69404 0
M  V30 3878 H 353.54 -6.77944 -1.53027 0
M  V30 3879 H 356.731 -4.49349 -1.31162 0
M  V30 3880 H 356.904 -6.28649 -1.57178 0
M  V30 3881 N 350.31 0.590341 -1.46126 0
M  V30 3882 C 351.22 1.72793 -1.58681 0
M  V30 3883 C 352.236 1.67516 -0.470566 0
M  V30 3884 O 353.412 1.87562 -0.733642 0
M  V30 3885 C 350.477 3.09287 -1.5666 0
M  V30 3886 C 349.538 3.25886 -2.79458 0
M  V30 3887 C 348.771 4.55869 -2.77524 0
M  V30 3888 O 348.994 5.3928 -1.85832 0
M  V30 3889 O 347.928 4.75552 -3.68964 0
M  V30 3890 H 351.754 1.65149 -2.54872 0
M  V30 3891 H 349.339 0.756486 -1.28832 0
M  V30 3892 H 351.221 3.90577 -1.58202 0
M  V30 3893 H 349.896 3.17385 -0.636271 0
M  V30 3894 H 348.803 2.44119 -2.83472 0
M  V30 3895 H 350.136 3.22675 -3.71674 0
M  V30 3896 N 351.788 1.33704 0.83433 0
M  V30 3897 C 353.204 1.13137 1.12571 0
M  V30 3898 C 353.404 -0.0747261 2.01361 0
M  V30 3899 O 352.46 -0.753647 2.4099 0
M  V30 3900 C 353.773 2.42105 1.78342 0
M  V30 3901 C 355.321 2.48054 1.90888 0
M  V30 3902 C 355.796 3.76995 2.60075 0
M  V30 3903 N 357.287 3.78092 2.67584 0
M  V30 3904 C 358.022 4.74574 3.21818 0
M  V30 3905 N 357.518 5.81434 3.76705 0
M  V30 3906 N 359.311 4.62044 3.20112 0
M  V30 3907 H 351.462 2.11 0.243489 0
M  V30 3908 H 353.725 0.932532 0.17055 0
M  V30 3909 H 353.431 3.30391 1.20561 0
M  V30 3910 H 353.305 2.54594 2.7832 0
M  V30 3911 H 355.692 1.60215 2.47821 0
M  V30 3912 H 355.773 2.39502 0.898459 0
M  V30 3913 H 355.417 4.65219 2.03799 0
M  V30 3914 H 355.347 3.82825 3.61597 0
M  V30 3915 H 357.838 3.00865 2.28667 0
M  V30 3916 H 358.151 6.51084 4.16305 0
M  V30 3917 H 356.496 5.85163 3.7498 0
M  V30 3918 H 359.687 3.77716 2.76493 0
M  V30 3919 H 359.86 5.37406 3.62076 0
M  V30 3920 N 353.266 -1.05314 1.17247 0
M  V30 3921 C 354.199 -2.12512 0.831507 0
M  V30 3922 C 355.177 -1.61351 -0.201168 0
M  V30 3923 O 356.361 -1.88317 -0.0829831 0
M  V30 3924 C 353.488 -3.37848 0.24015 0
M  V30 3925 C 352.534 -4.07832 1.24801 0
M  V30 3926 S 353.367 -4.56537 2.79882 0
M  V30 3927 C 354.523 -5.85122 2.22223 0
M  V30 3928 H 354.756 -2.41106 1.7394 0
M  V30 3929 H 352.289 -1.17896 0.996988 0
M  V30 3930 H 354.247 -4.10391 -0.0945588 0
M  V30 3931 H 352.908 -3.07392 -0.645668 0
M  V30 3932 H 352.101 -4.97883 0.78287 0
M  V30 3933 H 351.703 -3.41348 1.52831 0
M  V30 3934 H 353.995 -6.58408 1.59703 0
M  V30 3935 H 354.938 -6.36381 3.10523 0
M  V30 3936 H 355.346 -5.39626 1.65722 0
M  V30 3937 N 354.744 -0.972509 -1.24016 0
M  V30 3938 C 355.691 -0.505969 -2.25186 0
M  V30 3939 C 356.661 0.451009 -1.5986 0
M  V30 3940 O 357.846 0.360307 -1.87367 0
M  V30 3941 C 354.986 0.193089 -3.44559 0
M  V30 3942 C 354.099 -0.803222 -4.24467 0
M  V30 3943 C 353.234 -0.0797793 -5.3114 0
M  V30 3944 C 352.273 -1.06583 -6.02749 0
M  V30 3945 N 351.41 -0.372074 -7.01113 0
M  V30 3946 H 356.25 -1.37351 -2.64459 0
M  V30 3947 H 353.787 -0.688419 -1.29997 0
M  V30 3948 H 355.745 0.615125 -4.1264 0
M  V30 3949 H 354.375 1.02455 -3.06109 0
M  V30 3950 H 353.427 -1.34368 -3.55878 0
M  V30 3951 H 354.739 -1.55494 -4.73944 0
M  V30 3952 H 353.893 0.400015 -6.0538 0
M  V30 3953 H 352.632 0.704597 -4.82583 0
M  V30 3954 H 351.637 -1.55645 -5.27309 0
M  V30 3955 H 352.862 -1.85074 -6.53395 0
M  V30 3956 H 350.808 0.393238 -6.5482 0
M  V30 3957 H 350.725 -1.06258 -7.48495 0
M  V30 3958 H 351.993 0.0855932 -7.79453 0
M  V30 3959 N 356.222 1.38976 -0.743202 0
M  V30 3960 C 357.132 2.3434 -0.110399 0
M  V30 3961 C 358.148 1.58741 0.712559 0
M  V30 3962 O 359.324 1.9099 0.639125 0
M  V30 3963 C 356.389 3.37812 0.780012 0
M  V30 3964 C 355.45 4.29263 -0.0561319 0
M  V30 3965 C 354.683 5.27793 0.791875 0
M  V30 3966 O 354.906 5.33043 2.03031 0
M  V30 3967 O 353.84 6.01512 0.216183 0
M  V30 3968 H 357.666 2.90129 -0.897714 0
M  V30 3969 H 355.251 1.40643 -0.503966 0
M  V30 3970 H 357.133 4.01194 1.28923 0
M  V30 3971 H 355.808 2.84395 1.546 0
M  V30 3972 H 354.715 3.69076 -0.611056 0
M  V30 3973 H 356.048 4.85907 -0.784531 0
M  V30 3974 N 357.7 0.491464 1.49741 0
M  V30 3975 C 358.648 -0.305837 2.30581 0
M  V30 3976 C 359.642 -0.971642 1.38764 0
M  V30 3977 O 360.848 -0.90042 1.5586 0
M  V30 3978 H 357.223 -0.117482 0.742767 0
M  V30 3979 H 359.194 0.396093 2.95759 0
M  V30 3980 C 357.943 -1.36319 3.19863 0
M  V30 3981 H 357.266 -0.860258 3.90435 0
M  V30 3982 H 358.706 -1.89323 3.79385 0
M  V30 3983 C 357.165 -2.37621 2.38826 0
M  V30 3984 O 357.695 -3.43311 2.08567 0
M  V30 3985 N 355.901 -2.09849 2.01026 0
M  V30 3986 H 355.448 -1.23922 2.25834 0
M  V30 3987 H 355.406 -2.77859 1.47112 0
M  V30 3988 N 359.178 -1.55987 0.224894 0
M  V30 3989 C 360.427 -1.97566 -0.406273 0
M  V30 3990 C 360.74 -1.11569 -1.6066 0
M  V30 3991 O 361.946 -1.43062 -2.3075 0
M  V30 3992 C 360.402 -3.51474 -0.774207 0
M  V30 3993 C 360.01 -4.46179 0.403496 0
M  V30 3994 C 361.754 -4.01758 -1.37079 0
M  V30 3995 C 359.661 -5.91399 0.0129412 0
M  V30 3996 H 358.591 -0.737777 -0.155565 0
M  V30 3997 H 361.242 -1.80659 0.321635 0
M  V30 3998 H 359.624 -3.63994 -1.55963 0
M  V30 3999 H 360.798 -4.45409 1.18101 0
M  V30 4000 H 359.113 -4.06255 0.913536 0
M  V30 4001 H 361.71 -5.07756 -1.67596 0
M  V30 4002 H 362.053 -3.47805 -2.28773 0
M  V30 4003 H 362.586 -3.92475 -0.648733 0
M  V30 4004 H 359.325 -6.49341 0.896451 0
M  V30 4005 H 358.845 -5.95356 -0.728821 0
M  V30 4006 H 360.524 -6.45683 -0.412582 0
M  V30 4007 N 360.656 0.0484629 -1.57525 0
M  V30 4008 C 361.881 0.759177 -1.93006 0
M  V30 4009 C 362.306 1.69125 -0.823317 0
M  V30 4010 O 361.664 1.79931 0.222364 0
M  V30 4011 C 361.712 1.50899 -3.27509 0
M  V30 4012 O 360.816 2.62112 -3.18388 0
M  V30 4013 H 360.157 0.205564 -0.631379 0
M  V30 4014 H 362.687 0.00972959 -2.04598 0
M  V30 4015 H 362.697 1.88317 -3.6194 0
M  V30 4016 H 361.372 0.825269 -4.0763 0
M  V30 4017 H 359.949 2.27379 -2.95556 0
M  V30 4018 N 362.134 1.5431 0.320358 0
M  V30 4019 C 363.383 1.7188 1.05546 0
M  V30 4020 C 363.696 0.501143 1.89071 0
M  V30 4021 O 364.902 0.558258 2.65699 0
M  V30 4022 C 363.358 3.04025 1.92605 0
M  V30 4023 C 362.966 4.33207 1.14176 0
M  V30 4024 C 364.71 3.30959 2.65832 0
M  V30 4025 C 362.617 5.56412 2.00399 0
M  V30 4026 H 361.547 0.640547 0.397763 0
M  V30 4027 H 364.198 1.80802 0.313522 0
M  V30 4028 H 362.58 2.89019 2.7071 0
M  V30 4029 H 363.754 4.58989 0.40819 0
M  V30 4030 H 362.069 4.13062 0.526165 0
M  V30 4031 H 364.666 4.20203 3.30656 0
M  V30 4032 H 365.009 2.48979 3.33639 0
M  V30 4033 H 365.542 3.46847 1.94787 0
M  V30 4034 H 362.281 6.41004 1.37094 0
M  V30 4035 H 361.801 5.34844 2.7148 0
M  V30 4036 H 363.48 5.92938 2.58908 0
M  V30 4037 N 363.613 -0.582584 1.46437 0
M  V30 4038 C 364.86 -1.34079 1.51753 0
M  V30 4039 C 365.188 -1.93762 0.169299 0
M  V30 4040 O 364.443 -1.76989 -0.835062 0
M  V30 4041 C 364.742 -2.48964 2.56421 0
M  V30 4042 C 364.408 -2.07273 4.00436 0
M  V30 4043 C 363.07 -1.95618 4.39644 0
M  V30 4044 C 365.422 -1.75111 4.90903 0
M  V30 4045 C 362.75 -1.5006 5.67185 0
M  V30 4046 C 365.102 -1.31032 6.18881 0
M  V30 4047 C 363.766 -1.17954 6.56996 0
M  V30 4048 H 363.036 -0.49063 0.555304 0
M  V30 4049 H 365.683 -0.656007 1.79913 0
M  V30 4050 H 363.988 -3.22889 2.21923 0
M  V30 4051 H 365.685 -3.07178 2.57765 0
M  V30 4052 H 362.275 -2.17279 3.69443 0
M  V30 4053 H 366.459 -1.83001 4.61329 0
M  V30 4054 H 361.715 -1.38577 5.95488 0
M  V30 4055 H 365.889 -1.052 6.88408 0
M  V30 4056 H 363.516 -0.824279 7.55718 0
M  V30 4057 N 365.091 -1.34144 -0.827227 0
M  V30 4058 C 366.368 -1.16844 -1.56865 0
M  V30 4059 C 366.748 0.260654 -2.09485 0
M  V30 4060 O 366.096 1.26138 -1.9053 0
M  V30 4061 C 366.306 -2.21939 -2.6934 0
M  V30 4062 C 367.654 -2.56695 -3.3822 0
M  V30 4063 O 368.678 -2.20695 -2.79593 0
M  V30 4064 O 367.537 -3.18518 -4.44082 0
M  V30 4065 H 364.631 -0.452669 -0.692112 0
M  V30 4066 H 367.177 -1.45763 -0.868973 0
M  V30 4067 H 365.949 -3.17882 -2.28182 0
M  V30 4068 H 365.572 -1.94172 -3.46962 0
M  V30 4069 N 366.569 1.04691 -1.17803 0
M  V30 4070 C 367.816 1.77782 -0.969532 0
M  V30 4071 C 368.144 1.87926 0.501401 0
M  V30 4072 O 367.399 1.37918 1.38842 0
M  V30 4073 C 367.698 3.21467 -1.56186 0
M  V30 4074 C 367.364 3.3137 -3.05786 0
M  V30 4075 C 366.026 3.3378 -3.46619 0
M  V30 4076 C 368.378 3.31976 -4.01797 0
M  V30 4077 C 365.706 3.34431 -4.82051 0
M  V30 4078 C 368.058 3.34167 -5.37136 0
M  V30 4079 C 366.722 3.34866 -5.77426 0
M  V30 4080 H 365.992 0.650549 -0.354777 0
M  V30 4081 H 368.639 1.23006 -1.46772 0
M  V30 4082 H 366.944 3.79203 -0.985515 0
M  V30 4083 H 368.641 3.76652 -1.37602 0
M  V30 4084 H 365.231 3.3021 -2.73238 0
M  V30 4085 H 369.415 3.29311 -3.71306 0
M  V30 4086 H 364.671 3.33285 -5.12573 0
M  V30 4087 H 368.845 3.33585 -6.11305 0
M  V30 4088 H 366.472 3.35124 -6.82346 0
M  V30 4089 N 368.047 0.979072 1.23499 0
M  V30 4090 C 368.957 0.526431 2.28617 0
M  V30 4091 C 369.973 -0.418126 1.68901 0
M  V30 4092 O 371.149 -0.288372 1.99325 0
M  V30 4093 C 368.214 -0.165235 3.46306 0
M  V30 4094 C 367.275 0.82056 4.21385 0
M  V30 4095 C 366.508 0.161807 5.33455 0
M  V30 4096 O 366.731 -1.04742 5.60701 0
M  V30 4097 O 365.665 0.859708 5.95729 0
M  V30 4098 H 369.491 1.4006 2.69475 0
M  V30 4099 H 367.076 0.746643 1.29405 0
M  V30 4100 H 368.958 -0.553287 4.17752 0
M  V30 4101 H 367.633 -1.01419 3.07402 0
M  V30 4102 H 366.54 1.25929 3.52268 0
M  V30 4103 H 367.873 1.63828 4.64135 0
M  V30 4104 N 369.525 -1.3858 0.750561 0
M  V30 4105 C 370.455 -2.33102 0.136237 0
M  V30 4106 C 371.436 -1.54713 -0.706965 0
M  V30 4107 O 372.621 -1.83043 -0.648769 0
M  V30 4108 C 369.751 -3.38882 -0.760017 0
M  V30 4109 C 368.705 -4.27995 -0.0197785 0
M  V30 4110 C 368.031 -5.24605 -1.03408 0
M  V30 4111 C 369.331 -5.09554 1.14684 0
M  V30 4112 H 371.025 -2.84726 0.925822 0
M  V30 4113 H 368.571 -1.36898 0.446654 0
M  V30 4114 H 370.524 -4.0397 -1.19943 0
M  V30 4115 H 369.248 -2.85734 -1.58189 0
M  V30 4116 H 367.907 -3.64409 0.400184 0
M  V30 4117 H 367.555 -4.67746 -1.84994 0
M  V30 4118 H 367.255 -5.85081 -0.543464 0
M  V30 4119 H 368.779 -5.9257 -1.47288 0
M  V30 4120 H 370.193 -5.67899 0.785118 0
M  V30 4121 H 368.59 -5.7925 1.56812 0
M  V30 4122 H 369.66 -4.4347 1.96118 0
M  V30 4123 N 371.003 -0.499398 -1.49478 0
M  V30 4124 C 372.231 0.0425456 -2.06856 0
M  V30 4125 C 372.646 1.30964 -1.35992 0
M  V30 4126 O 372.003 1.77172 -0.437762 0
M  V30 4127 C 372.054 0.301735 -3.60239 0
M  V30 4128 O 371.775 -0.915127 -4.28436 0
M  V30 4129 C 373.276 0.887499 -4.34325 0
M  V30 4130 H 370.496 -0.0197482 -0.670709 0
M  V30 4131 H 373.04 -0.696297 -1.92281 0
M  V30 4132 H 371.195 0.990556 -3.74522 0
M  V30 4133 H 371.609 -0.676993 -5.20113 0
M  V30 4134 H 373.083 1.01845 -5.42523 0
M  V30 4135 H 373.56 1.88488 -3.96698 0
M  V30 4136 H 374.166 0.236196 -4.24644 0
M  V30 4137 N 372.481 1.55866 -0.233164 0
M  V30 4138 C 373.413 2.18099 0.704668 0
M  V30 4139 C 374.426 1.15334 1.14899 0
M  V30 4140 O 375.615 1.42262 1.07814 0
M  V30 4141 C 372.715 2.7592 1.96777 0
M  V30 4142 C 371.888 4.03969 1.67713 0
M  V30 4143 C 370.947 4.46242 2.78845 0
M  V30 4144 O 369.973 5.12903 2.46818 0
M  V30 4145 N 371.175 4.12886 4.08051 0
M  V30 4146 H 373.94 2.99205 0.172258 0
M  V30 4147 H 371.501 1.61815 -0.0525945 0
M  V30 4148 H 373.493 3.01165 2.70337 0
M  V30 4149 H 372.063 1.99051 2.41034 0
M  V30 4150 H 371.283 3.86459 0.777391 0
M  V30 4151 H 372.571 4.8748 1.4574 0
M  V30 4152 H 371.969 3.59342 4.3691 0
M  V30 4153 H 370.526 4.42997 4.78118 0
M  V30 4154 N 373.959 -0.0401083 1.57549 0
M  V30 4155 C 374.869 -1.06133 2.0922 0
M  V30 4156 C 375.885 -1.40356 1.0284 0
M  V30 4157 O 377.061 -1.49897 1.34509 0
M  V30 4158 C 374.126 -2.34658 2.55218 0
M  V30 4159 C 373.187 -2.07117 3.76033 0
M  V30 4160 C 372.42 -3.29514 4.19829 0
M  V30 4161 O 372.643 -4.39794 3.63232 0
M  V30 4162 O 371.577 -3.15863 5.12362 0
M  V30 4163 H 375.403 -0.652244 2.96613 0
M  V30 4164 H 372.988 -0.256368 1.47184 0
M  V30 4165 H 374.87 -3.10239 2.85184 0
M  V30 4166 H 373.545 -2.74883 1.70941 0
M  V30 4167 H 372.452 -1.29139 3.51104 0
M  V30 4168 H 373.785 -1.71754 4.61261 0
M  V30 4169 N 375.437 -1.54477 -0.31217 0
M  V30 4170 C 376.714 -1.63891 -1.06767 0
M  V30 4171 C 377.094 -0.480028 -2.0557 0
M  V30 4172 O 376.442 0.524487 -2.22399 0
M  V30 4173 C 376.652 -3.01402 -1.75948 0
M  V30 4174 C 378 -3.57838 -2.28554 0
M  V30 4175 O 379.024 -3.03782 -1.85998 0
M  V30 4176 O 377.883 -4.52462 -3.06497 0
M  V30 4177 H 374.977 -0.664125 -0.492816 0
M  V30 4178 H 377.523 -1.66823 -0.311149 0
M  V30 4179 H 376.295 -3.77187 -1.04144 0
M  V30 4180 H 375.918 -3.02199 -2.58383 0
M  V30 4181 N 376.915 0.57481 -1.46744 0
M  V30 4182 C 377.848 1.69827 -1.52427 0
M  V30 4183 C 378.826 1.58151 -0.377744 0
M  V30 4184 O 380.01 1.79257 -0.58303 0
M  V30 4185 C 377.137 3.07943 -1.41027 0
M  V30 4186 C 376.183 3.38116 -2.59961 0
M  V30 4187 S 377.016 3.29313 -4.22272 0
M  V30 4188 C 378.172 4.69953 -4.13394 0
M  V30 4189 H 378.405 1.64748 -2.47478 0
M  V30 4190 H 375.938 0.754203 -1.34726 0
M  V30 4191 H 377.896 3.87619 -1.35137 0
M  V30 4192 H 376.557 3.10504 -0.473909 0
M  V30 4193 H 375.75 4.38762 -2.47999 0
M  V30 4194 H 375.352 2.66024 -2.62882 0
M  V30 4195 H 377.644 5.60517 -3.80562 0
M  V30 4196 H 378.587 4.86972 -5.14066 0
M  V30 4197 H 378.995 4.47174 -3.44522 0
M  V30 4198 N 378.394 1.34581 0.820102 0
M  V30 4199 C 379.304 1.28471 1.96297 0
M  V30 4200 C 380.32 0.191902 1.72939 0
M  V30 4201 O 381.496 0.418879 1.96996 0
M  V30 4202 C 378.561 1.04281 3.30645 0
M  V30 4203 C 377.622 2.22745 3.66992 0
M  V30 4204 C 376.855 1.997 4.9493 0
M  V30 4205 O 377.078 0.956656 5.6232 0
M  V30 4206 O 376.012 2.86723 5.2922 0
M  V30 4207 H 379.838 2.24624 2.04396 0
M  V30 4208 H 377.423 1.14816 0.955913 0
M  V30 4209 H 379.305 0.925841 4.11104 0
M  V30 4210 H 377.98 0.111697 3.23507 0
M  V30 4211 H 376.887 2.40003 2.86966 0
M  V30 4212 H 378.22 3.14257 3.78819 0
M  V30 4213 N 379.872 -1.04064 1.18357 0
M  V30 4214 C 380.819 -2.12077 0.910603 0
M  V30 4215 C 381.789 -1.65421 -0.15 0
M  V30 4216 O 382.974 -1.90797 -0.0103614 0
M  V30 4217 C 380.114 -3.42252 0.442472 0
M  V30 4218 C 379.227 -4.0252 1.5685 0
M  V30 4219 C 378.362 -5.20657 1.05309 0
M  V30 4220 C 377.401 -5.72955 2.1538 0
M  V30 4221 N 376.538 -6.8238 1.65233 0
M  V30 4222 H 381.378 -2.34764 1.83548 0
M  V30 4223 H 378.915 -1.15157 0.915279 0
M  V30 4224 H 380.873 -4.16921 0.152534 0
M  V30 4225 H 379.503 -3.19712 -0.445428 0
M  V30 4226 H 378.555 -3.25178 1.97391 0
M  V30 4227 H 379.867 -4.37362 2.39824 0
M  V30 4228 H 379.021 -6.0244 0.717677 0
M  V30 4229 H 377.76 -4.87318 0.19293 0
M  V30 4230 H 376.765 -4.89793 2.49766 0
M  V30 4231 H 377.99 -6.08337 3.01832 0
M  V30 4232 H 375.936 -6.50917 0.815064 0
M  V30 4233 H 375.853 -7.16286 2.41805 0
M  V30 4234 H 377.121 -7.67788 1.34619 0
M  V30 4235 N 381.35 -0.985608 -1.22978 0
M  V30 4236 C 382.599 -0.652881 -1.90841 0
M  V30 4237 C 382.912 0.817842 -1.77681 0
M  V30 4238 O 384.118 1.26185 -2.40395 0
M  V30 4239 C 382.574 -1.11717 -3.42122 0
M  V30 4240 C 382.182 -2.6126 -3.63933 0
M  V30 4241 C 383.926 -0.85843 -4.1573 0
M  V30 4242 C 381.833 -3.0133 -5.08876 0
M  V30 4243 H 380.763 -0.240491 -0.714619 0
M  V30 4244 H 383.414 -1.1942 -1.39324 0
M  V30 4245 H 381.796 -0.504027 -3.92779 0
M  V30 4246 H 382.97 -3.27858 -3.23799 0
M  V30 4247 H 381.285 -2.84937 -3.03644 0
M  V30 4248 H 383.882 -1.13359 -5.22546 0
M  V30 4249 H 384.225 0.205461 -4.15793 0
M  V30 4250 H 384.758 -1.43341 -3.71077 0
M  V30 4251 H 381.497 -4.06864 -5.13947 0
M  V30 4252 H 381.017 -2.3943 -5.49939 0
M  V30 4253 H 382.696 -2.92224 -5.77247 0
M  V30 4254 N 382.828 1.3818 -0.7579 0
M  V30 4255 C 383.791 2.28764 -0.141286 0
M  V30 4256 C 384.791 1.47388 0.642907 0
M  V30 4257 O 385.981 1.67781 0.468536 0
M  V30 4258 C 383.113 3.31184 0.808069 0
M  V30 4259 H 384.306 2.848 -0.939633 0
M  V30 4260 H 381.859 1.47212 -0.525191 0
M  V30 4261 H 382.594 2.80247 1.63193 0
M  V30 4262 H 382.379 3.91314 0.248104 0
M  V30 4263 H 383.869 3.98909 1.23536 0
M  V30 4264 N 384.306 0.507319 1.49211 0
M  V30 4265 C 385.534 -0.0315749 2.06876 0
M  V30 4266 C 385.949 -1.30241 1.36685 0
M  V30 4267 O 385.306 -1.76937 0.447152 0
M  V30 4268 C 385.357 -0.282627 3.60393 0
M  V30 4269 O 385.078 0.937835 4.27944 0
M  V30 4270 C 386.579 -0.864453 4.3479 0
M  V30 4271 H 383.799 0.0233048 0.670595 0
M  V30 4272 H 386.343 0.706484 1.91909 0
M  V30 4273 H 384.498 -0.97068 3.75042 0
M  V30 4274 H 384.912 0.704567 5.19746 0
M  V30 4275 H 386.386 -0.989664 5.43056 0
M  V30 4276 H 386.863 -1.86382 3.97692 0
M  V30 4277 H 387.469 -0.213672 4.24763 0
M  V30 4278 N 385.784 -1.5574 0.241426 0
M  V30 4279 C 386.714 -2.24133 -0.654722 0
M  V30 4280 C 387.695 -1.21974 -1.1856 0
M  V30 4281 O 388.88 -1.50612 -1.22595 0
M  V30 4282 C 386.01 -2.93659 -1.85423 0
M  V30 4283 C 384.964 -4.0246 -1.45636 0
M  V30 4284 C 384.29 -4.59383 -2.73626 0
M  V30 4285 C 385.59 -5.18468 -0.631506 0
M  V30 4286 H 387.284 -2.99281 -0.0844353 0
M  V30 4287 H 384.83 -1.43947 -0.0391707 0
M  V30 4288 H 386.783 -3.40203 -2.48676 0
M  V30 4289 H 385.507 -2.15991 -2.44981 0
M  V30 4290 H 384.166 -3.56676 -0.847202 0
M  V30 4291 H 383.814 -3.78422 -3.3137 0
M  V30 4292 H 383.514 -5.32826 -2.4773 0
M  V30 4293 H 385.038 -5.08658 -3.37786 0
M  V30 4294 H 386.452 -5.61272 -1.1682 0
M  V30 4295 H 384.849 -5.98266 -0.468831 0
M  V30 4296 H 385.919 -4.8358 0.357506 0
M  V30 4297 N 387.262 0.0317525 -1.57568 0
M  V30 4298 C 388.539 0.758366 -1.803 0
M  V30 4299 C 388.919 1.93718 -0.838845 0
M  V30 4300 O 388.267 2.28187 0.119571 0
M  V30 4301 C 388.477 1.19392 -3.27943 0
M  V30 4302 C 389.825 1.61094 -3.92854 0
M  V30 4303 O 390.849 1.28857 -3.32076 0
M  V30 4304 O 389.708 2.20918 -4.99858 0
M  V30 4305 H 386.802 0.366514 -0.741348 0
M  V30 4306 H 389.348 0.00873765 -1.69698 0
M  V30 4307 H 388.12 0.352275 -3.89711 0
M  V30 4308 H 387.743 2.00365 -3.43424 0
M  V30 4309 N 388.74 1.54641 0.303973 0
M  V30 4310 C 389.65 1.88439 1.39743 0
M  V30 4311 C 390.666 0.778239 1.55626 0
M  V30 4312 O 391.842 1.07442 1.70347 0
M  V30 4313 C 388.907 2.12212 2.74166 0
M  V30 4314 C 387.968 3.35936 2.67293 0
M  V30 4315 C 387.201 3.58566 3.95305 0
M  V30 4316 O 387.424 2.84263 4.9452 0
M  V30 4317 O 386.358 4.52078 3.97378 0
M  V30 4318 H 390.184 2.81458 1.14083 0
M  V30 4319 H 387.769 1.40793 0.499768 0
M  V30 4320 H 389.651 2.29067 3.53704 0
M  V30 4321 H 388.326 1.22379 2.99675 0
M  V30 4322 H 387.233 3.24448 1.86237 0
M  V30 4323 H 388.566 4.2589 2.46736 0
M  V30 4324 N 390.218 -0.567019 1.47046 0
M  V30 4325 C 391.466 -1.322 1.52864 0
M  V30 4326 C 391.787 -1.94088 0.188388 0
M  V30 4327 O 391.057 -1.7941 -0.786693 0
M  V30 4328 H 389.637 -0.490894 0.563056 0
M  V30 4329 H 392.299 -0.662879 1.83281 0
M  V30 4330 H 391.395 -2.12062 2.2899 0
M  V30 4331 N 391.696 -1.35014 -0.812953 0
M  V30 4332 C 392.628 -1.23262 -1.93233 0
M  V30 4333 C 393.641 -0.157371 -1.62038 0
M  V30 4334 O 394.83 -0.410096 -1.73725 0
M  V30 4335 C 391.93 -0.87392 -3.27438 0
M  V30 4336 C 391.103 -2.04622 -3.86586 0
M  V30 4337 C 390.162 -1.66432 -4.99186 0
M  V30 4338 O 389.188 -2.38222 -5.16951 0
M  V30 4339 N 390.39 -0.584248 -5.77552 0
M  V30 4340 H 393.155 -2.19699 -2.03844 0
M  V30 4341 H 390.716 -1.281 -0.99005 0
M  V30 4342 H 392.708 -0.600039 -4.00227 0
M  V30 4343 H 391.278 0.00057392 -3.126 0
M  V30 4344 H 390.498 -2.48427 -3.06068 0
M  V30 4345 H 391.786 -2.82999 -4.22835 0
M  V30 4346 H 391.184 0.0123526 -5.65699 0
M  V30 4347 H 389.741 -0.37013 -6.50748 0
M  V30 4348 N 393.175 1.03435 -1.18907 0
M  V30 4349 C 394.4 1.80919 -1.01406 0
M  V30 4350 C 394.825 1.83055 0.432721 0
M  V30 4351 O 394.183 1.25252 1.31079 0
M  V30 4352 C 394.231 3.24091 -1.58105 0
M  V30 4353 O 393.335 4.04434 -0.806669 0
M  V30 4354 H 392.676 0.558709 -0.358803 0
M  V30 4355 H 395.206 1.30223 -1.57807 0
M  V30 4356 H 395.216 3.74853 -1.61087 0
M  V30 4357 H 393.891 3.21851 -2.6341 0
M  V30 4358 H 392.468 3.63091 -0.849666 0
M  V30 4359 N 394.653 0.992116 1.22453 0
M  V30 4360 C 395.616 0.546883 2.2258 0
M  V30 4361 C 396.616 -0.369829 1.56489 0
M  V30 4362 O 397.806 -0.161896 1.73446 0
M  V30 4363 C 394.938 -0.204659 3.40285 0
M  V30 4364 H 396.131 1.43234 2.63484 0
M  V30 4365 H 393.684 0.779239 1.3549 0
M  V30 4366 H 394.419 -1.10614 3.04853 0
M  V30 4367 H 394.204 0.45354 3.89468 0
M  V30 4368 H 395.694 -0.504358 4.14543 0
M  V30 4369 N 396.131 -1.37776 0.765217 0
M  V30 4370 C 397.378 -1.99849 0.326588 0
M  V30 4371 C 397.706 -1.60746 -1.09504 0
M  V30 4372 O 396.961 -0.84202 -1.76659 0
M  V30 4373 C 397.26 -3.5504 0.410053 0
M  V30 4374 C 396.926 -4.13891 1.78899 0
M  V30 4375 C 395.588 -4.29678 2.16635 0
M  V30 4376 C 397.94 -4.46236 2.69301 0
M  V30 4377 C 395.268 -4.7511 3.44221 0
M  V30 4378 C 397.62 -4.93089 3.9629 0
M  V30 4379 C 396.284 -5.07082 4.34078 0
M  V30 4380 H 395.554 -0.7313 0.119507 0
M  V30 4381 H 398.201 -1.64645 0.977968 0
M  V30 4382 H 396.506 -3.90451 -0.324878 0
M  V30 4383 H 398.203 -4.00966 0.0520699 0
M  V30 4384 H 394.793 -4.02026 1.48569 0
M  V30 4385 H 398.977 -4.3363 2.41409 0
M  V30 4386 H 394.233 -4.84129 3.73402 0
M  V30 4387 H 398.407 -5.17084 4.66472 0
M  V30 4388 H 396.034 -5.42046 5.33001 0
M  V30 4389 N 397.609 -0.515225 -1.4894 0
M  V30 4390 C 398.856 0.024215 -2.02486 0
M  V30 4391 C 399.184 1.35671 -1.39368 0
M  V30 4392 O 398.439 1.88566 -0.523574 0
M  V30 4393 C 398.738 0.210595 -3.56779 0
M  V30 4394 C 398.404 -1.04569 -4.38607 0
M  V30 4395 C 397.066 -1.39002 -4.60686 0
M  V30 4396 C 399.418 -1.88008 -4.86109 0
M  V30 4397 C 396.746 -2.568 -5.27514 0
M  V30 4398 C 399.098 -3.04972 -5.54234 0
M  V30 4399 C 397.762 -3.39768 -5.74555 0
M  V30 4400 H 397.032 0.00886088 -0.740947 0
M  V30 4401 H 399.679 -0.678263 -1.79086 0
M  V30 4402 H 397.984 0.99572 -3.78936 0
M  V30 4403 H 399.681 0.642659 -3.95817 0
M  V30 4404 H 396.271 -0.767497 -4.21672 0
M  V30 4405 H 400.455 -1.62719 -4.68867 0
M  V30 4406 H 395.711 -2.8398 -5.41447 0
M  V30 4407 H 399.885 -3.69943 -5.90013 0
M  V30 4408 H 397.512 -4.31148 -6.26112 0
M  V30 4409 N 399.087 1.5561 -0.249682 0
M  V30 4410 C 400.312 2.03865 0.381305 0
M  V30 4411 C 400.737 1.12769 1.50548 0
M  V30 4412 O 400.095 0.121189 1.80895 0
M  V30 4413 C 400.143 3.50101 0.863816 0
M  V30 4414 O 399.247 3.62132 1.97318 0
M  V30 4415 H 398.588 0.658827 0.0827194 0
M  V30 4416 H 401.118 2.01105 -0.376552 0
M  V30 4417 H 401.128 3.90975 1.1663 0
M  V30 4418 H 399.803 4.1588 0.0411816 0
M  V30 4419 H 398.38 3.33155 1.67517 0
M  V30 4420 N 400.565 -0.0233959 1.57583 0
M  V30 4421 C 401.515 -1.03023 2.03397 0
M  V30 4422 C 402.499 -1.31701 0.924315 0
M  V30 4423 O 403.691 -1.31191 1.18819 0
M  V30 4424 C 400.82 -2.32961 2.52159 0
M  V30 4425 C 399.906 -2.07349 3.69956 0
M  V30 4426 N 400.297 -1.51814 4.82479 0
M  V30 4427 C 398.595 -2.37606 3.77438 0
M  V30 4428 C 399.296 -1.42136 5.64068 0
M  V30 4429 N 398.272 -1.89891 5.09355 0
M  V30 4430 H 402.074 -0.594962 2.87815 0
M  V30 4431 H 399.588 -0.229586 1.60769 0
M  V30 4432 H 401.585 -3.05906 2.83244 0
M  V30 4433 H 400.245 -2.77162 1.69149 0
M  V30 4434 H 401.256 -1.20008 5.03804 0
M  V30 4435 H 397.933 -2.84842 3.05239 0
M  V30 4436 H 399.323 -0.996405 6.64471 0
M  V30 4437 N 402.043 -1.548 -0.295768 0
M  V30 4438 C 403.459 -1.4613 -0.641722 0
M  V30 4439 C 403.659 -0.656771 -1.90496 0
M  V30 4440 O 402.715 -0.166547 -2.5195 0
M  V30 4441 C 404.028 -2.90141 -0.789852 0
M  V30 4442 C 405.576 -3.00216 -0.885396 0
M  V30 4443 C 406.051 -4.45434 -1.06548 0
M  V30 4444 N 407.542 -4.49166 -1.13156 0
M  V30 4445 C 408.277 -5.58717 -1.28929 0
M  V30 4446 N 407.773 -6.78182 -1.41567 0
M  V30 4447 N 409.566 -5.46415 -1.31859 0
M  V30 4448 H 401.717 -2.05574 0.534147 0
M  V30 4449 H 403.98 -0.931259 0.177372 0
M  V30 4450 H 403.686 -3.51635 0.0675598 0
M  V30 4451 H 403.56 -3.37859 -1.67724 0
M  V30 4452 H 405.947 -2.38833 -1.73329 0
M  V30 4453 H 406.028 -2.55787 0.0261185 0
M  V30 4454 H 405.672 -5.07413 -0.222335 0
M  V30 4455 H 405.602 -4.87499 -1.9913 0
M  V30 4456 H 408.093 -3.631 -1.04721 0
M  V30 4457 H 408.406 -7.57428 -1.53372 0
M  V30 4458 H 406.751 -6.81037 -1.38613 0
M  V30 4459 H 409.942 -4.5203 -1.21601 0
M  V30 4460 H 410.115 -6.31841 -1.43808 0
M  V30 4461 N 403.521 0.559213 -1.47345 0
M  V30 4462 C 404.798 1.31997 -1.44348 0
M  V30 4463 C 405.178 2.1064 -0.139358 0
M  V30 4464 O 404.526 2.1091 0.879153 0
M  V30 4465 C 404.736 2.22618 -2.68779 0
M  V30 4466 C 406.084 2.83701 -3.1591 0
M  V30 4467 O 407.108 2.32921 -2.69493 0
M  V30 4468 O 405.967 3.75993 -3.966 0
M  V30 4469 H 403.061 0.594251 -0.575147 0
M  V30 4470 H 405.607 0.578282 -1.59543 0
M  V30 4471 H 404.379 1.64093 -3.55231 0
M  V30 4472 H 404.002 3.04085 -2.5616 0
M  V30 4473 N 404.999 1.35443 0.805782 0
M  V30 4474 C 406.41 1.25768 1.37983 0
M  V30 4475 C 406.761 -0.10958 1.95894 0
M  V30 4476 O 405.886 -1.01056 1.91355 0
M  V30 4477 C 406.481 2.27727 2.5085 0
M  V30 4478 C 405.04 2.2179 3.04115 0
M  V30 4479 C 404.187 2.13393 1.77084 0
M  V30 4480 H 407.138 1.4656 0.608752 0
M  V30 4481 H 407.159 1.90422 3.29424 0
M  V30 4482 H 406.671 3.27227 2.08671 0
M  V30 4483 H 404.772 1.25703 3.50756 0
M  V30 4484 H 404.885 3.13788 3.62042 0
M  V30 4485 H 403.249 1.59384 1.98668 0
M  V30 4486 H 404.032 3.14755 1.37056 0
M  V30 4487 N 406.477 -1.02803 1.19454 0
M  V30 4488 C 407.387 -2.14575 0.948408 0
M  V30 4489 C 408.403 -1.73757 -0.091871 0
M  V30 4490 O 409.579 -2.01185 0.0929654 0
M  V30 4491 C 406.644 -3.43202 0.491265 0
M  V30 4492 C 405.705 -3.98328 1.60103 0
M  V30 4493 C 404.938 -5.20816 1.16561 0
M  V30 4494 O 405.161 -5.70392 0.0295238 0
M  V30 4495 O 404.095 -5.68801 1.96849 0
M  V30 4496 H 407.921 -2.38202 1.88397 0
M  V30 4497 H 405.506 -1.12989 0.977433 0
M  V30 4498 H 407.388 -4.20687 0.245015 0
M  V30 4499 H 406.063 -3.21018 -0.415851 0
M  V30 4500 H 404.97 -3.22174 1.90144 0
M  V30 4501 H 406.303 -4.24879 2.48473 0
M  V30 4502 N 407.956 -0.998596 -1.21925 0
M  V30 4503 C 409.202 -0.678667 -1.91107 0
M  V30 4504 C 409.535 0.78791 -1.77498 0
M  V30 4505 O 408.81 1.57043 -1.1475 0
M  V30 4506 C 409.093 -1.09245 -3.43129 0
M  V30 4507 C 408.946 -2.61801 -3.6576 0
M  V30 4508 C 410.265 -0.649984 -4.35274 0
M  V30 4509 H 407.384 -0.248025 -0.694012 0
M  V30 4510 H 410.026 -1.24314 -1.43688 0
M  V30 4511 H 408.176 -0.612171 -3.83647 0
M  V30 4512 H 409.848 -3.17543 -3.34611 0
M  V30 4513 H 408.091 -3.03609 -3.09845 0
M  V30 4514 H 408.762 -2.85804 -4.7225 0
M  V30 4515 H 411.238 -1.0626 -4.02303 0
M  V30 4516 H 410.114 -0.967743 -5.40302 0
M  V30 4517 H 410.375 0.449139 -4.39813 0
M  V30 4518 N 409.434 1.37368 -0.772513 0
M  V30 4519 C 410.68 1.99969 -0.337681 0
M  V30 4520 C 411.013 1.61184 1.08321 0
M  V30 4521 O 410.288 0.858395 1.74533 0
M  V30 4522 C 410.571 3.56858 -0.482121 0
M  V30 4523 C 410.424 4.0555 -1.94549 0
M  V30 4524 C 411.743 4.39955 0.113143 0
M  V30 4525 H 408.862 0.726464 -0.124171 0
M  V30 4526 H 411.504 1.63034 -0.975699 0
M  V30 4527 H 409.654 3.88452 0.0610361 0
M  V30 4528 H 411.326 3.84518 -2.54841 0
M  V30 4529 H 409.569 3.57715 -2.45403 0
M  V30 4530 H 410.24 5.14587 -1.9976 0
M  V30 4531 H 412.716 4.14623 -0.35031 0
M  V30 4532 H 411.592 5.48897 -0.0180514 0
M  V30 4533 H 411.853 4.25403 1.20354 0
M  V30 4534 N 410.912 0.523116 1.48665 0
M  V30 4535 C 411.859 -0.243398 2.29513 0
M  V30 4536 C 412.829 -0.940139 1.36933 0
M  V30 4537 O 414.014 -0.942503 1.65896 0
M  V30 4538 C 411.154 -1.28855 3.20141 0
M  V30 4539 C 410.267 -0.60135 4.27794 0
M  V30 4540 C 409.402 -1.62884 5.05611 0
M  V30 4541 C 408.441 -0.924726 6.05075 0
M  V30 4542 N 407.578 -1.89744 6.75975 0
M  V30 4543 H 412.418 0.452234 2.94549 0
M  V30 4544 H 409.955 0.234858 1.45213 0
M  V30 4545 H 411.913 -1.90674 3.71079 0
M  V30 4546 H 410.543 -1.95266 2.57043 0
M  V30 4547 H 409.595 0.130623 3.80176 0
M  V30 4548 H 410.907 -0.0481585 4.98777 0
M  V30 4549 H 410.061 -2.32149 5.60528 0
M  V30 4550 H 408.8 -2.21592 4.34452 0
M  V30 4551 H 407.805 -0.217966 5.49368 0
M  V30 4552 H 409.03 -0.343851 6.78229 0
M  V30 4553 H 406.976 -2.47373 6.07571 0
M  V30 4554 H 406.893 -1.3955 7.43009 0
M  V30 4555 H 408.161 -2.58229 7.35485 0
M  V30 4556 N 412.39 -1.55475 0.257931 0
M  V30 4557 C 413.636 -2.00237 -0.357338 0
M  V30 4558 C 413.991 -1.14313 -1.54759 0
M  V30 4559 O 413.284 -0.201187 -1.90541 0
M  V30 4560 C 413.478 -3.48183 -0.806433 0
M  V30 4561 C 413.307 -4.48422 0.338758 0
M  V30 4562 C 412.077 -4.98651 0.817011 0
M  V30 4563 C 414.275 -5.00827 1.16949 0
M  V30 4564 N 412.257 -5.82658 1.93346 0
M  V30 4565 C 413.628 -5.82113 2.13413 0
M  V30 4566 C 415.683 -4.83104 1.2048 0
M  V30 4567 C 414.386 -6.47566 3.13131 0
M  V30 4568 C 416.412 -5.49343 2.19034 0
M  V30 4569 C 415.774 -6.30427 3.14232 0
M  V30 4570 H 411.873 -0.776034 -0.0964083 0
M  V30 4571 H 414.457 -1.90995 0.37803 0
M  V30 4572 H 412.628 -3.57801 -1.51107 0
M  V30 4573 H 414.36 -3.79802 -1.39758 0
M  V30 4574 H 411.115 -4.71914 0.39925 0
M  V30 4575 H 411.539 -6.29356 2.49478 0
M  V30 4576 H 416.181 -4.20036 0.482634 0
M  V30 4577 H 413.899 -7.09793 3.8629 0
M  V30 4578 H 417.485 -5.37579 2.22485 0
M  V30 4579 H 416.365 -6.80777 3.89246 0
M  V30 4580 N 413.868 0.0150385 -1.57593 0
M  V30 4581 C 415.117 0.702115 -1.89085 0
M  V30 4582 C 415.43 1.75764 -0.858277 0
M  V30 4583 O 416.636 2.49829 -1.0629 0
M  V30 4584 C 415.092 1.29992 -3.35604 0
M  V30 4585 C 414.7 0.280007 -4.47124 0
M  V30 4586 C 416.444 1.96606 -3.76227 0
M  V30 4587 C 414.351 0.886949 -5.84711 0
M  V30 4588 H 413.281 0.265997 -0.705522 0
M  V30 4589 H 415.932 -0.0430408 -1.8345 0
M  V30 4590 H 414.314 2.09525 -3.36029 0
M  V30 4591 H 415.488 -0.489631 -4.58191 0
M  V30 4592 H 413.803 -0.284835 -4.15425 0
M  V30 4593 H 416.4 2.42893 -4.76347 0
M  V30 4594 H 416.743 2.79024 -3.08952 0
M  V30 4595 H 417.276 1.23828 -3.78036 0
M  V30 4596 H 414.015 0.101876 -6.55421 0
M  V30 4597 H 413.535 1.6261 -5.77337 0
M  V30 4598 H 415.214 1.39011 -6.3189 0
M  V30 4599 N 415.346 1.54954 0.287554 0
M  V30 4600 C 416.586 1.76617 1.02887 0
M  V30 4601 C 416.95 0.547759 1.84021 0
M  V30 4602 O 418.151 0.642365 2.61012 0
M  V30 4603 C 416.422 3.02717 1.89993 0
M  V30 4604 S 417.981 3.45438 2.70588 0
M  V30 4605 H 414.799 0.6207 0.346775 0
M  V30 4606 H 417.401 1.93172 0.30082 0
M  V30 4607 H 416.105 3.89503 1.29287 0
M  V30 4608 H 415.636 2.88787 2.67144 0
M  V30 4609 H 417.651 3.03566 3.92508 0
M  V30 4610 N 416.824 -0.551391 1.4764 0
M  V30 4611 C 418.049 -1.33837 1.58437 0
M  V30 4612 C 418.474 -1.866 0.237063 0
M  V30 4613 O 417.832 -1.6328 -0.787994 0
M  V30 4614 C 417.88 -2.48014 2.61766 0
M  V30 4615 O 416.984 -3.50419 2.1744 0
M  V30 4616 H 416.325 -0.397299 0.532024 0
M  V30 4617 H 418.855 -0.665759 1.93465 0
M  V30 4618 H 418.865 -2.94503 2.82369 0
M  V30 4619 H 417.54 -2.08969 3.5959 0
M  V30 4620 H 416.117 -3.10196 2.06961 0
M  V30 4621 N 418.302 -1.35869 -0.798587 0
M  V30 4622 C 419.232 -1.32118 -1.92528 0
M  V30 4623 C 420.213 -0.194209 -1.68988 0
M  V30 4624 O 421.398 -0.390426 -1.90235 0
M  V30 4625 C 418.528 -1.10047 -3.29404 0
M  V30 4626 C 417.482 -2.19471 -3.67446 0
M  V30 4627 C 416.808 -1.82555 -5.02571 0
M  V30 4628 C 418.108 -3.61495 -3.76987 0
M  V30 4629 H 419.802 -2.26394 -1.95924 0
M  V30 4630 H 417.348 -1.08981 -0.94123 0
M  V30 4631 H 419.301 -1.06061 -4.07835 0
M  V30 4632 H 418.025 -0.122195 -3.26371 0
M  V30 4633 H 416.684 -2.22568 -2.91306 0
M  V30 4634 H 416.332 -0.833249 -4.9605 0
M  V30 4635 H 416.032 -2.5581 -5.28995 0
M  V30 4636 H 417.556 -1.80108 -5.83432 0
M  V30 4637 H 418.97 -3.60676 -4.4563 0
M  V30 4638 H 417.367 -4.33577 -4.14887 0
M  V30 4639 H 418.437 -3.97065 -2.78329 0
M  V30 4640 N 419.78 1.02168 -1.19998 0
M  V30 4641 C 420.727 2.10601 -0.944228 0
M  V30 4642 C 421.697 1.65639 0.123664 0
M  V30 4643 O 422.882 1.9079 -0.0199941 0
M  V30 4644 C 420.022 3.41504 -0.496865 0
M  V30 4645 C 419.135 3.99973 -1.63234 0
M  V30 4646 C 418.27 5.18915 -1.13579 0
M  V30 4647 C 417.309 5.69456 -2.24468 0
M  V30 4648 N 416.446 6.79665 -1.76068 0
M  V30 4649 H 421.286 2.31814 -1.8726 0
M  V30 4650 H 418.823 1.13686 -0.933483 0
M  V30 4651 H 420.781 4.16626 -0.218843 0
M  V30 4652 H 419.411 3.2038 0.394508 0
M  V30 4653 H 418.463 3.21997 -2.0254 0
M  V30 4654 H 419.775 4.33492 -2.46752 0
M  V30 4655 H 418.929 6.01222 -0.813429 0
M  V30 4656 H 417.668 4.8695 -0.270434 0
M  V30 4657 H 416.673 4.85757 -2.57526 0
M  V30 4658 H 417.898 6.03459 -3.11472 0
M  V30 4659 H 415.844 6.49538 -0.918516 0
M  V30 4660 H 415.761 7.12349 -2.5317 0
M  V30 4661 H 417.029 7.65549 -1.46817 0
M  V30 4662 N 421.258 1.00505 1.21394 0
M  V30 4663 C 422.674 0.717873 1.42544 0
M  V30 4664 C 422.874 -0.706936 1.88692 0
M  V30 4665 O 421.93 -1.47627 2.04847 0
M  V30 4666 C 423.243 1.73377 2.45684 0
M  V30 4667 C 424.791 1.75059 2.59467 0
M  V30 4668 C 425.266 2.75545 3.6584 0
M  V30 4669 N 426.757 2.74213 3.73311 0
M  V30 4670 C 427.492 3.48626 4.55245 0
M  V30 4671 N 426.988 4.32678 5.41075 0
M  V30 4672 N 428.781 3.37276 4.49668 0
M  V30 4673 H 420.932 1.92506 0.897503 0
M  V30 4674 H 423.195 0.830919 0.456375 0
M  V30 4675 H 422.901 2.75395 2.18748 0
M  V30 4676 H 422.775 1.53647 3.44489 0
M  V30 4677 H 425.162 0.737337 2.8574 0
M  V30 4678 H 425.243 1.98861 1.60897 0
M  V30 4679 H 424.887 3.77028 3.40313 0
M  V30 4680 H 424.817 2.49009 4.64007 0
M  V30 4681 H 427.308 2.13234 3.11993 0
M  V30 4682 H 427.621 4.86253 6.00648 0
M  V30 4683 H 425.966 4.3676 5.40616 0
M  V30 4684 H 429.157 2.71043 3.81646 0
M  V30 4685 H 429.33 3.95524 5.13288 0
M  V30 4686 O 422.775 -1.32987 0.916334 0
M  V30 4687 H 423.466 -1.86192 0.534057 0
M  V30 END ATOM
M  V30 BEGIN BOND
M  V30 END BOND
M  V30 END CTAB
M  END
$$$$
