drugbank_target|P37802 Transgelin-2 (DB11638)
 OpenBabel12092121093D

  0  0  0     0  0            999 V3000
M  V30 BEGIN CTAB
M  V30 COUNTS 3122 3150 0 0 0
M  V30 BEGIN ATOM
M  V30 1 H -0.908 1.98254 -0.117106 0
M  V30 2 N 0 1.576 0 0
M  V30 3 C 0.933 2.03868 1.02534 0
M  V30 4 C 1.911 0.928543 1.3348 0
M  V30 5 O 3.095 1.19667 1.45644 0
M  V30 6 C 0.222 2.43627 2.35294 0
M  V30 7 C -0.732 3.65373 2.2001 0
M  V30 8 S 0.101 5.13292 1.52614 0
M  V30 9 C 1.257 5.56322 2.86805 0
M  V30 10 H 1.49 2.90518 0.631377 0
M  V30 11 H -0.977 1.52953 0.210867 0
M  V30 12 H 0.981 2.67203 3.11629 0
M  V30 13 H -0.358 1.57376 2.7183 0
M  V30 14 H -1.165 3.90944 3.18086 0
M  V30 15 H -1.563 3.418 1.51819 0
M  V30 16 H 0.729 5.58782 3.83104 0
M  V30 17 H 1.672 6.56266 2.65933 0
M  V30 18 H 2.08 4.83886 2.90714 0
M  V30 19 N 1.4781 -0.272755 1.55222 0
M  V30 20 C 2.4411 -1.32041 1.87344 0
M  V30 21 C 3.4411 -1.42342 0.74803 0
M  V30 22 O 4.6311 -1.41488 1.0162 0
M  V30 23 C 1.7631 -2.70173 2.07893 0
M  V30 24 H 2.9561 -1.04789 2.80997 0
M  V30 25 H 0.5091 -0.51083 1.47717 0
M  V30 26 H 1.2441 -3.02605 1.16622 0
M  V30 27 H 1.0291 -2.64082 2.89833 0
M  V30 28 H 2.5191 -3.45869 2.34017 0
M  V30 29 N 2.9562 -1.48159 -0.537278 0
M  V30 30 C 3.9042 -1.62573 -1.66352 0
M  V30 31 C 4.8982 -0.492366 -1.62087 0
M  V30 32 O 6.1042 -0.670847 -1.67032 0
M  V30 33 H 2.4792 -0.511992 -0.550789 0
M  V30 34 H 4.4502 -2.57176 -1.51337 0
M  V30 35 C 3.1992 -1.67583 -3.04649 0
M  V30 36 H 2.5222 -2.54151 -3.08622 0
M  V30 37 H 3.9622 -1.81713 -3.83088 0
M  V30 38 C 2.4212 -0.413039 -3.34358 0
M  V30 39 O 2.9512 0.477259 -3.98855 0
M  V30 40 N 1.1572 -0.286961 -2.8918 0
M  V30 41 H 0.7042 -1.01241 -2.36871 0
M  V30 42 H 0.6622 0.556963 -3.09427 0
M  V30 43 N 4.4343 0.785586 -1.36625 0
M  V30 44 C 5.8503 1.08419 -1.17122 0
M  V30 45 C 6.0503 2.015 0.00208491 0
M  V30 46 O 5.1063 2.43551 0.666278 0
M  V30 47 C 6.4193 1.69498 -2.48377 0
M  V30 48 C 7.9673 1.81821 -2.54775 0
M  V30 49 C 8.4423 2.46315 -3.86126 0
M  V30 50 N 9.9333 2.53779 -3.87492 0
M  V30 51 C 10.6683 3.045 -4.85868 0
M  V30 52 N 10.1643 3.55499 -5.94637 0
M  V30 53 N 11.9573 3.03247 -4.73284 0
M  V30 54 H 4.1083 0.167264 -2.1174 0
M  V30 55 H 6.3713 0.13682 -0.938075 0
M  V30 56 H 6.0773 1.08571 -3.34522 0
M  V30 57 H 5.9513 2.6896 -2.64462 0
M  V30 58 H 8.3383 2.41884 -1.69045 0
M  V30 59 H 8.4193 0.811532 -2.42586 0
M  V30 60 H 8.0633 1.86895 -4.72263 0
M  V30 61 H 7.9933 3.47561 -3.95612 0
M  V30 62 H 10.4843 2.17672 -3.08913 0
M  V30 63 H 10.7973 3.92562 -6.65669 0
M  V30 64 H 9.1423 3.5364 -5.98301 0
M  V30 65 H 12.3333 2.62696 -3.87438 0
M  V30 66 H 12.5063 3.42467 -5.50109 0
M  V30 67 N 5.9124 1.20967 1.01018 0
M  V30 68 C 7.1604 1.02172 1.74371 0
M  V30 69 C 7.4814 -0.446414 1.89821 0
M  V30 70 O 6.7514 -1.32234 1.44537 0
M  V30 71 H 5.3314 0.375066 0.646014 0
M  V30 72 H 7.9934 1.52187 1.21758 0
M  V30 73 H 7.0894 1.48538 2.74487 0
M  V30 74 N 7.3905 -1.2043 1.01659 0
M  V30 75 C 8.8015 -1.71517 0.737482 0
M  V30 76 C 9.1525 -1.81547 -0.743973 0
M  V30 77 O 8.2775 -1.47803 -1.58061 0
M  V30 78 C 8.8725 -3.11515 1.33206 0
M  V30 79 C 7.4315 -3.59912 1.10183 0
M  V30 80 C 6.5785 -2.37116 1.43776 0
M  V30 81 H 9.5295 -1.05444 1.18606 0
M  V30 82 H 9.5505 -3.73575 0.722636 0
M  V30 83 H 9.0625 -3.04182 2.41028 0
M  V30 84 H 7.1635 -3.72577 0.0412756 0
M  V30 85 H 7.2765 -4.44731 1.78188 0
M  V30 86 H 5.6405 -2.39857 0.856778 0
M  V30 87 H 6.4235 -2.32424 2.52654 0
M  V30 88 N 8.8686 -0.792821 -1.36206 0
M  V30 89 C 9.8316 -0.199459 -2.2833 0
M  V30 90 C 10.8316 0.605189 -1.48977 0
M  V30 91 O 12.0216 0.425685 -1.68919 0
M  V30 92 C 9.1536 0.723523 -3.33134 0
M  V30 93 H 10.3466 -1.01181 -2.82316 0
M  V30 94 H 7.8996 -0.562485 -1.45828 0
M  V30 95 H 8.6346 1.56008 -2.84309 0
M  V30 96 H 8.4196 0.148436 -3.91819 0
M  V30 97 H 9.9096 1.13344 -4.01924 0
M  V30 98 N 10.3467 1.47872 -0.545128 0
M  V30 99 C 11.5767 2.06589 -0.0210534 0
M  V30 100 C 11.9847 1.39997 1.27269 0
M  V30 101 O 11.3277 0.486421 1.77143 0
M  V30 102 C 11.3897 3.58574 0.257933 0
M  V30 103 C 11.0537 4.47132 -0.944573 0
M  V30 104 C 12.0507 4.85986 -1.84699 0
M  V30 105 C 9.7357 4.88821 -1.15584 0
M  V30 106 C 11.7297 5.65314 -2.94446 0
M  V30 107 C 9.4167 5.67916 -2.25642 0
M  V30 108 C 10.4147 6.06073 -3.14905 0
M  V30 109 O 10.1027 6.83578 -4.23057 0
M  V30 110 H 9.8347 0.674971 -0.0372899 0
M  V30 111 H 12.3887 1.91037 -0.754599 0
M  V30 112 H 10.6187 3.72295 1.04564 0
M  V30 113 H 12.3077 3.99356 0.72592 0
M  V30 114 H 13.0737 4.54388 -1.69577 0
M  V30 115 H 8.9527 4.58595 -0.470279 0
M  V30 116 H 12.4967 5.95016 -3.64145 0
M  V30 117 H 8.3937 5.98927 -2.40742 0
M  V30 118 H 9.1617 7.01954 -4.20954 0
M  V30 119 N 11.8248 0.280983 1.55075 0
M  V30 120 C 13.0728 -0.333455 1.9933 0
M  V30 121 C 13.3938 -1.55937 1.17085 0
M  V30 122 O 12.6638 -1.94143 0.261805 0
M  V30 123 H 11.2438 -0.126197 0.736263 0
M  V30 124 H 13.9058 0.387678 1.91005 0
M  V30 125 H 13.0018 -0.619292 3.05894 0
M  V30 126 N 13.3029 -1.57598 0.00835791 0
M  V30 127 C 14.2329 -2.1198 -0.979113 0
M  V30 128 C 15.2139 -1.03091 -1.35301 0
M  V30 129 O 16.3989 -1.30818 -1.43528 0
M  V30 130 C 13.5289 -2.62995 -2.26828 0
M  V30 131 C 12.4829 -3.76485 -2.03576 0
M  V30 132 C 11.8089 -4.13846 -3.38579 0
M  V30 133 C 13.1089 -5.0342 -1.39161 0
M  V30 134 H 14.8029 -2.94738 -0.526281 0
M  V30 135 H 12.3489 -1.41783 -0.251704 0
M  V30 136 H 14.3019 -2.99669 -2.96271 0
M  V30 137 H 13.0259 -1.7737 -2.7424 0
M  V30 138 H 11.6849 -3.40217 -1.36557 0
M  V30 139 H 11.3329 -3.25232 -3.83709 0
M  V30 140 H 11.0329 -4.90312 -3.23834 0
M  V30 141 H 12.5569 -4.53086 -4.09323 0
M  V30 142 H 13.9709 -5.37812 -1.98573 0
M  V30 143 H 12.3679 -5.84746 -1.34878 0
M  V30 144 H 13.4379 -4.83548 -0.361868 0
M  V30 145 N 14.781 0.264519 -1.55364 0
M  V30 146 C 16.006 1.01726 -1.80739 0
M  V30 147 C 16.431 1.78836 -0.583044 0
M  V30 148 O 15.789 1.75167 0.467566 0
M  V30 149 C 15.837 1.94482 -3.03659 0
M  V30 150 O 14.941 3.03386 -2.7934 0
M  V30 151 H 14.282 0.290395 -0.597132 0
M  V30 152 H 16.812 0.290854 -2.02522 0
M  V30 153 H 16.822 2.36278 -3.32621 0
M  V30 154 H 15.497 1.37772 -3.92418 0
M  V30 155 H 14.074 2.65844 -2.61498 0
M  V30 156 N 16.2591 1.48442 0.529413 0
M  V30 157 C 17.6751 1.34575 0.858004 0
M  V30 158 C 17.8751 0.3572 1.98309 0
M  V30 159 O 16.9311 -0.221379 2.51528 0
M  V30 160 C 18.2441 2.74617 1.22499 0
M  V30 161 C 19.7921 2.83109 1.33484 0
M  V30 162 C 20.2671 4.23854 1.73526 0
M  V30 163 N 21.7581 4.2653 1.80628 0
M  V30 164 C 22.4931 5.32372 2.12997 0
M  V30 165 N 21.9891 6.48491 2.43786 0
M  V30 166 N 23.7821 5.19766 2.14008 0
M  V30 167 H 15.9331 2.1133 -0.212925 0
M  V30 168 H 18.1961 0.947439 -0.0326199 0
M  V30 169 H 17.9021 3.4852 0.471905 0
M  V30 170 H 17.7761 3.08177 2.17501 0
M  V30 171 H 20.1631 2.09462 2.0787 0
M  V30 172 H 20.2441 2.53168 0.366027 0
M  V30 173 H 19.8881 4.98018 0.997013 0
M  V30 174 H 19.8181 4.5124 2.71459 0
M  V30 175 H 22.3091 3.42772 1.59108 0
M  V30 176 H 22.6221 7.24993 2.67592 0
M  V30 177 H 20.9671 6.51765 2.41304 0
M  V30 178 H 24.1581 4.28066 1.89412 0
M  V30 179 H 24.3311 6.02354 2.38902 0
M  V30 180 N 17.7372 -0.778329 1.37039 0
M  V30 181 C 18.6472 -1.92253 1.34446 0
M  V30 182 C 19.6632 -1.72267 0.244991 0
M  V30 183 O 20.8392 -1.95615 0.479258 0
M  V30 184 C 17.9042 -3.27282 1.144 0
M  V30 185 C 16.9652 -3.59969 2.33925 0
M  V30 186 C 16.1982 -4.88555 2.14825 0
M  V30 187 O 16.4212 -5.59113 1.12912 0
M  V30 188 O 15.3552 -5.20153 3.02861 0
M  V30 189 H 19.1812 -1.97392 2.30803 0
M  V30 190 H 16.7662 -0.920154 1.17701 0
M  V30 191 H 18.6482 -4.08062 1.05182 0
M  V30 192 H 17.3232 -3.23011 0.211124 0
M  V30 193 H 16.2302 -2.7945 2.48714 0
M  V30 194 H 17.5632 -3.68976 3.25757 0
M  V30 195 N 19.2153 -1.21501 -1.00376 0
M  V30 196 C 20.4613 -1.03452 -1.74429 0
M  V30 197 C 20.7943 0.430764 -1.89362 0
M  V30 198 O 20.0693 1.31962 -1.42886 0
M  V30 199 C 20.3523 -1.73375 -3.15615 0
M  V30 200 C 20.2053 -3.27431 -3.08397 0
M  V30 201 C 21.5243 -1.47732 -4.14564 0
M  V30 202 H 18.6433 -0.377226 -0.633143 0
M  V30 203 H 21.2853 -1.49693 -1.17013 0
M  V30 204 H 19.4353 -1.34064 -3.64636 0
M  V30 205 H 21.1073 -3.76119 -2.67081 0
M  V30 206 H 19.3503 -3.5767 -2.45468 0
M  V30 207 H 20.0213 -3.71524 -4.08258 0
M  V30 208 H 22.4973 -1.8186 -3.74254 0
M  V30 209 H 21.3733 -1.99169 -5.11491 0
M  V30 210 H 21.6343 -0.407589 -4.40217 0
M  V30 211 N 20.6934 1.19889 -1.02296 0
M  V30 212 C 21.6254 2.22334 -0.556787 0
M  V30 213 C 22.6384 1.58674 0.364199 0
M  V30 214 O 23.8274 1.77768 0.161533 0
M  V30 215 C 20.9274 3.38257 0.208694 0
M  V30 216 C 20.1004 4.31504 -0.71577 0
M  V30 217 C 19.1594 5.262 0.00325597 0
M  V30 218 O 18.1854 5.65798 -0.621357 0
M  V30 219 N 19.3874 5.66303 1.27599 0
M  V30 220 H 22.1524 2.62957 -1.43784 0
M  V30 221 H 19.7134 1.34495 -0.901261 0
M  V30 222 H 21.7054 3.98616 0.699111 0
M  V30 223 H 20.2754 2.96472 0.991102 0
M  V30 224 H 19.4954 3.69016 -1.38638 0
M  V30 225 H 20.7834 4.9072 -1.34428 0
M  V30 226 H 20.1814 5.36155 1.80429 0
M  V30 227 H 18.7384 6.28942 1.71102 0
M  V30 228 N 22.1715 0.800033 1.35784 0
M  V30 229 C 23.1035 0.163596 2.28615 0
M  V30 230 C 24.1165 -0.633317 1.49976 0
M  V30 231 O 25.3055 -0.466754 1.72289 0
M  V30 232 C 22.4055 -0.790958 3.29541 0
M  V30 233 C 21.5785 -0.0418255 4.3738 0
M  V30 234 C 20.6375 -0.91389 5.18203 0
M  V30 235 O 19.6635 -0.367234 5.68014 0
M  V30 236 N 20.8655 -2.23682 5.35674 0
M  V30 237 H 23.6305 0.96105 2.83873 0
M  V30 238 H 21.1915 0.654894 1.48063 0
M  V30 239 H 23.1835 -1.37844 3.80501 0
M  V30 240 H 21.7535 -1.48925 2.74846 0
M  V30 241 H 20.9735 0.726813 3.87442 0
M  V30 242 H 22.2615 0.474719 5.06581 0
M  V30 243 H 21.6595 -2.70497 4.96838 0
M  V30 244 H 20.2165 -2.77369 5.89839 0
M  V30 245 N 23.6496 -1.47581 0.552962 0
M  V30 246 C 24.5966 -2.29957 -0.197108 0
M  V30 247 C 25.5666 -1.38799 -0.912359 0
M  V30 248 O 26.7516 -1.67761 -0.908888 0
M  V30 249 C 23.8916 -3.22672 -1.22379 0
M  V30 250 C 23.0046 -4.28919 -0.515038 0
M  V30 251 C 22.1396 -5.0879 -1.52664 0
M  V30 252 C 21.1786 -6.06815 -0.802631 0
M  V30 253 N 20.3156 -6.7966 -1.76086 0
M  V30 254 H 25.1556 -2.93578 0.511486 0
M  V30 255 H 22.6926 -1.4471 0.264067 0
M  V30 256 H 24.6506 -3.74845 -1.83159 0
M  V30 257 H 23.2806 -2.60925 -1.90047 0
M  V30 258 H 22.3326 -3.79835 0.207192 0
M  V30 259 H 23.6446 -4.98773 0.0523425 0
M  V30 260 H 22.7986 -5.65091 -2.20809 0
M  V30 261 H 21.5376 -4.38828 -2.12794 0
M  V30 262 H 20.5426 -5.49695 -0.107238 0
M  V30 263 H 21.7676 -6.78784 -0.207135 0
M  V30 264 H 19.7136 -6.12432 -2.35081 0
M  V30 265 H 19.6306 -7.45669 -1.24552 0
M  V30 266 H 20.8986 -7.40538 -2.43359 0
M  V30 267 N 25.1277 -0.289203 -1.54924 0
M  V30 268 C 26.3767 0.324231 -1.99077 0
M  V30 269 C 26.6897 1.5591 -1.18117 0
M  V30 270 O 27.8957 2.24637 -1.52481 0
M  V30 271 C 26.3517 0.628209 -3.54375 0
M  V30 272 C 25.9597 -0.587647 -4.44129 0
M  V30 273 C 27.7037 1.20349 -4.07083 0
M  V30 274 C 25.6107 -0.257475 -5.90839 0
M  V30 275 H 24.5407 0.124924 -0.743579 0
M  V30 276 H 27.1917 -0.396063 -1.79175 0
M  V30 277 H 25.5737 1.40778 -3.70132 0
M  V30 278 H 26.7477 -1.36418 -4.40144 0
M  V30 279 H 25.0627 -1.08074 -4.0213 0
M  V30 280 H 27.6597 1.46456 -5.14252 0
M  V30 281 H 28.0027 2.14195 -3.56968 0
M  V30 282 H 28.5357 0.485889 -3.94821 0
M  V30 283 H 25.2747 -1.16419 -6.45079 0
M  V30 284 H 24.7947 0.482018 -5.9786 0
M  V30 285 H 26.4737 0.145238 -6.46837 0
M  V30 286 N 26.6058 1.57591 -0.0167156 0
M  V30 287 C 27.5158 2.1291 0.98521 0
M  V30 288 C 28.5318 1.07834 1.36557 0
M  V30 289 O 29.7078 1.39826 1.44951 0
M  V30 290 C 26.7728 2.63512 2.25305 0
M  V30 291 C 25.8338 3.83256 1.93426 0
M  V30 292 C 25.0668 4.31435 3.14165 0
M  V30 293 O 25.2898 3.78851 4.26413 0
M  V30 294 O 24.2238 5.23416 2.97186 0
M  V30 295 H 28.0498 2.98772 0.544888 0
M  V30 296 H 25.6348 1.48012 0.203141 0
M  V30 297 H 27.5168 2.96183 2.99756 0
M  V30 298 H 26.1918 1.8074 2.68542 0
M  V30 299 H 25.0988 3.55531 1.16398 0
M  V30 300 H 26.4318 4.67153 1.55013 0
M  V30 301 N 28.0839 -0.256276 1.55502 0
M  V30 302 C 29.0309 -1.31714 1.89526 0
M  V30 303 C 30.0009 -1.4828 0.748479 0
M  V30 304 O 31.1859 -1.62416 1.00128 0
M  V30 305 C 28.3259 -2.66933 2.18725 0
M  V30 306 C 27.4389 -2.58452 3.4616 0
M  V30 307 C 26.5739 -3.85961 3.64976 0
M  V30 308 C 25.6129 -3.72059 4.86044 0
M  V30 309 N 24.7499 -4.9144 5.01429 0
M  V30 310 H 29.5899 -1.01998 2.80001 0
M  V30 311 H 27.1269 -0.492413 1.38613 0
M  V30 312 H 29.0849 -3.4563 2.33657 0
M  V30 313 H 27.7149 -2.94816 1.31466 0
M  V30 314 H 26.7669 -1.71374 3.3961 0
M  V30 315 H 28.0789 -2.44085 4.34999 0
M  V30 316 H 27.2329 -4.73101 3.79816 0
M  V30 317 H 25.9719 -4.03215 2.74353 0
M  V30 318 H 24.9769 -2.83302 4.7119 0
M  V30 319 H 26.2019 -3.56309 5.78118 0
M  V30 320 H 24.1479 -5.09072 4.13741 0
M  V30 321 H 24.0649 -4.79668 5.84341 0
M  V30 322 H 25.3329 -5.80104 5.20672 0
M  V30 323 N 29.562 -1.4872 -0.521534 0
M  V30 324 C 30.494 -1.59968 -1.64143 0
M  V30 325 C 31.507 -0.483463 -1.55456 0
M  V30 326 O 32.696 -0.75467 -1.61762 0
M  V30 327 C 29.796 -1.52127 -3.02838 0
M  V30 328 C 28.969 -2.78932 -3.36921 0
M  V30 329 C 28.028 -2.64428 -4.54933 0
M  V30 330 O 27.054 -3.38331 -4.57735 0
M  V30 331 N 28.256 -1.74606 -5.53618 0
M  V30 332 H 31.021 -2.56548 -1.54929 0
M  V30 333 H 28.582 -1.45551 -0.708988 0
M  V30 334 H 30.574 -1.40106 -3.79674 0
M  V30 335 H 29.144 -0.634868 -3.06085 0
M  V30 336 H 28.364 -3.05455 -2.4918 0
M  V30 337 H 29.652 -3.63041 -3.56481 0
M  V30 338 H 29.05 -1.13782 -5.54139 0
M  V30 339 H 27.607 -1.6852 -6.29638 0
M  V30 340 N 31.0401 0.771051 -1.3745 0
M  V30 341 C 32.2701 1.55789 -1.35696 0
M  V30 342 C 32.6781 1.89107 0.0594523 0
M  V30 343 O 32.0211 1.51984 1.03183 0
M  V30 344 C 32.0831 2.89515 -2.13123 0
M  V30 345 C 31.7471 2.78829 -3.62082 0
M  V30 346 C 32.7441 2.49812 -4.5595 0
M  V30 347 C 30.4291 2.9683 -4.05213 0
M  V30 348 C 32.4231 2.38923 -5.90927 0
M  V30 349 C 30.1101 2.85562 -5.40276 0
M  V30 350 C 31.1081 2.56649 -6.32946 0
M  V30 351 O 30.7961 2.45408 -7.65526 0
M  V30 352 H 30.5281 0.489257 -0.466481 0
M  V30 353 H 33.0821 0.963446 -1.81403 0
M  V30 354 H 31.3121 3.51081 -1.62107 0
M  V30 355 H 33.0011 3.50915 -2.03994 0
M  V30 356 H 33.7671 2.3559 -4.23937 0
M  V30 357 H 29.6461 3.18335 -3.33442 0
M  V30 358 H 33.1901 2.16277 -6.63227 0
M  V30 359 H 29.0871 2.99351 -5.71891 0
M  V30 360 H 29.8551 2.60753 -7.75855 0
M  V30 361 N 32.5182 1.22032 0.997298 0
M  V30 362 C 33.7952 0.950823 1.70935 0
M  V30 363 C 34.1752 -0.535292 2.042 0
M  V30 364 O 33.5232 -1.50217 1.72183 0
M  V30 365 C 33.7332 1.84386 2.96315 0
M  V30 366 C 35.0812 2.09732 3.69185 0
M  V30 367 O 36.1052 1.81798 3.06314 0
M  V30 368 O 34.9642 2.57018 4.82291 0
M  V30 369 H 32.0582 0.357204 0.745878 0
M  V30 370 H 34.6042 1.32997 1.05404 0
M  V30 371 H 33.3762 2.84928 2.68201 0
M  V30 372 H 32.9992 1.46602 3.69586 0
M  V30 373 N 33.9963 -1.19345 1.0293 0
M  V30 374 C 34.9593 -2.20793 0.615069 0
M  V30 375 C 35.9593 -1.57553 -0.321533 0
M  V30 376 O 37.1493 -1.73862 -0.108483 0
M  V30 377 C 34.2813 -3.40754 -0.0999222 0
M  V30 378 H 35.4743 -2.58955 1.51269 0
M  V30 379 H 33.0273 -1.3303 0.820534 0
M  V30 380 H 33.7623 -3.0811 -1.01187 0
M  V30 381 H 33.5473 -3.87889 0.57309 0
M  V30 382 H 35.0373 -4.15898 -0.376645 0
M  V30 383 N 35.4744 -0.807222 -1.35358 0
M  V30 384 C 36.7514 -0.311126 -1.9311 0
M  V30 385 C 37.1314 1.19937 -1.73719 0
M  V30 386 O 36.4794 1.99918 -1.10657 0
M  V30 387 C 36.6894 -0.723226 -3.41424 0
M  V30 388 C 38.0374 -0.713078 -4.18569 0
M  V30 389 O 39.0614 -0.664811 -3.49941 0
M  V30 390 O 37.9204 -0.772022 -5.41019 0
M  V30 391 H 35.0144 -0.081526 -0.822972 0
M  V30 392 H 37.5604 -0.890962 -1.4443 0
M  V30 393 H 36.3324 -1.76426 -3.4927 0
M  V30 394 H 35.9554 -0.118232 -3.97424 0
M  V30 395 N 36.9525 1.47285 -0.560781 0
M  V30 396 C 37.8825 2.32857 0.173105 0
M  V30 397 C 38.8635 1.44009 0.905281 0
M  V30 398 O 40.0485 1.7286 0.885046 0
M  V30 399 C 37.1785 3.25861 1.20133 0
M  V30 400 C 36.1325 4.23978 0.585388 0
M  V30 401 C 35.4585 5.06332 1.7185 0
M  V30 402 C 36.7585 5.20242 -0.463178 0
M  V30 403 H 38.4525 2.94466 -0.541307 0
M  V30 404 H 35.9985 1.41601 -0.261764 0
M  V30 405 H 37.9515 3.84569 1.72293 0
M  V30 406 H 36.6755 2.62315 1.94573 0
M  V30 407 H 35.3345 3.66501 0.085054 0
M  V30 408 H 34.9825 4.39186 2.45203 0
M  V30 409 H 34.6825 5.72762 1.31213 0
M  V30 410 H 36.2065 5.67899 2.24329 0
M  V30 411 H 37.6205 5.73293 -0.027502 0
M  V30 412 H 36.0175 5.94896 -0.788627 0
M  V30 413 H 37.0875 4.65504 -1.35773 0
M  V30 414 N 38.4306 0.297415 1.54768 0
M  V30 415 C 39.3406 -0.58983 2.27064 0
M  V30 416 C 40.3566 -1.15144 1.30453 0
M  V30 417 O 41.5326 -1.17699 1.63428 0
M  V30 418 C 38.5976 -1.74714 2.9946 0
M  V30 419 C 37.6586 -1.21997 4.11601 0
M  V30 420 C 36.8916 -2.32212 4.80535 0
M  V30 421 O 37.1146 -3.52036 4.48806 0
M  V30 422 O 36.0486 -1.99106 5.68014 0
M  V30 423 H 39.8746 -0.00348199 3.037 0
M  V30 424 H 37.4596 0.0640035 1.49263 0
M  V30 425 H 39.3416 -2.42147 3.44881 0
M  V30 426 H 38.0166 -2.32016 2.25722 0
M  V30 427 H 36.9236 -0.511458 3.70587 0
M  V30 428 H 38.2566 -0.692419 4.87305 0
M  V30 429 N 39.9087 -1.5758 0.0250728 0
M  V30 430 C 40.8407 -2.06869 -0.986796 0
M  V30 431 C 41.8537 -0.991332 -1.29137 0
M  V30 432 O 43.0427 -1.26761 -1.25674 0
M  V30 433 C 40.1427 -2.47486 -2.31525 0
M  V30 434 C 39.3157 -3.78253 -2.19643 0
M  V30 435 C 38.3747 -4.05464 -3.35388 0
M  V30 436 O 37.4007 -4.75774 -3.12454 0
M  V30 437 N 38.6027 -3.55321 -4.59051 0
M  V30 438 H 41.3677 -2.94302 -0.566276 0
M  V30 439 H 38.9287 -1.6109 -0.161776 0
M  V30 440 H 40.9207 -2.62785 -3.07776 0
M  V30 441 H 39.4907 -1.65441 -2.65232 0
M  V30 442 H 38.7107 -3.7279 -1.28144 0
M  V30 443 H 39.9987 -4.63936 -2.08903 0
M  V30 444 H 39.3967 -2.98431 -4.80578 0
M  V30 445 H 37.9537 -3.75905 -5.32483 0
M  V30 446 N 41.3868 0.248026 -1.55636 0
M  V30 447 C 42.6358 0.974134 -1.76617 0
M  V30 448 C 42.9488 1.86528 -0.588796 0
M  V30 449 O 44.1548 2.62805 -0.681594 0
M  V30 450 C 42.6108 1.78213 -3.12679 0
M  V30 451 C 42.2188 0.93843 -4.38061 0
M  V30 452 C 43.9628 2.50104 -3.42999 0
M  V30 453 C 41.8698 1.74225 -5.65155 0
M  V30 454 H 40.7998 0.36745 -0.658405 0
M  V30 455 H 43.4508 0.22884 -1.82067 0
M  V30 456 H 41.8328 2.56933 -3.01333 0
M  V30 457 H 43.0068 0.193635 -4.60393 0
M  V30 458 H 41.3218 0.332905 -4.15067 0
M  V30 459 H 43.9188 3.10694 -4.3517 0
M  V30 460 H 44.2618 3.21662 -2.64271 0
M  V30 461 H 44.7948 1.78395 -3.55556 0
M  V30 462 H 41.5338 1.07043 -6.46701 0
M  V30 463 H 41.0538 2.46235 -5.46926 0
M  V30 464 H 42.7328 2.30967 -6.0437 0
M  V30 465 N 42.8649 1.48995 0.513639 0
M  V30 466 C 43.7949 1.67636 1.62544 0
M  V30 467 C 44.7759 0.525087 1.61793 0
M  V30 468 O 45.9609 0.759502 1.78732 0
M  V30 469 C 43.0909 1.73114 3.01079 0
M  V30 470 C 42.0449 2.87905 3.16693 0
M  V30 471 C 41.3709 2.78486 4.56453 0
M  V30 472 C 42.6709 4.29005 2.97913 0
M  V30 473 H 44.3649 2.60716 1.47198 0
M  V30 474 H 41.9109 1.25465 0.706714 0
M  V30 475 H 43.8639 1.84742 3.78746 0
M  V30 476 H 42.5879 0.766241 3.17484 0
M  V30 477 H 41.2469 2.75859 2.41448 0
M  V30 478 H 40.8949 1.7993 4.69717 0
M  V30 479 H 40.5949 3.55523 4.67843 0
M  V30 480 H 42.1189 2.92104 5.36197 0
M  V30 481 H 43.5329 4.41798 3.65359 0
M  V30 482 H 41.9299 5.07166 3.20785 0
M  V30 483 H 42.9999 4.44329 1.94165 0
M  V30 484 N 44.343 -0.763751 1.37857 0
M  V30 485 C 45.592 -1.51789 1.32827 0
M  V30 486 C 45.905 -1.95426 -0.0823719 0
M  V30 487 O 47.111 -2.70298 -0.255172 0
M  V30 488 C 45.567 -2.74133 2.33193 0
M  V30 489 C 45.175 -2.37562 3.79827 0
M  V30 490 C 46.919 -3.52054 2.37188 0
M  V30 491 C 44.826 -3.56456 4.71904 0
M  V30 492 H 43.756 -0.569896 0.493695 0
M  V30 493 H 46.407 -0.835822 1.63359 0
M  V30 494 H 44.789 -3.4427 1.9569 0
M  V30 495 H 45.963 -1.75157 4.26212 0
M  V30 496 H 44.278 -1.72798 3.78853 0
M  V30 497 H 46.875 -4.40437 3.03182 0
M  V30 498 H 47.218 -3.92486 1.38782 0
M  V30 499 H 47.751 -2.88921 2.7344 0
M  V30 500 H 44.49 -3.21099 5.71468 0
M  V30 501 H 44.01 -4.17938 4.30218 0
M  V30 502 H 45.689 -4.23168 4.89426 0
M  V30 503 N 45.8211 -1.22559 -0.990812 0
M  V30 504 C 46.7531 -0.955325 -2.08342 0
M  V30 505 C 47.7661 0.0668408 -1.62663 0
M  V30 506 O 48.9551 -0.167421 -1.77713 0
M  V30 507 C 46.0551 -0.415566 -3.36342 0
M  V30 508 C 45.2281 -1.49544 -4.11042 0
M  V30 509 C 44.2871 -0.962399 -5.17324 0
M  V30 510 O 43.3131 -1.64907 -5.44788 0
M  V30 511 N 44.5151 0.215134 -5.80101 0
M  V30 512 H 47.2801 -1.89596 -2.32106 0
M  V30 513 H 44.8411 -1.13276 -1.15673 0
M  V30 514 H 46.8331 -0.0442386 -4.04676 0
M  V30 515 H 45.4031 0.430232 -3.09625 0
M  V30 516 H 44.6231 -2.04 -3.37309 0
M  V30 517 H 45.9111 -2.22195 -4.57719 0
M  V30 518 H 45.3091 0.789779 -5.6016 0
M  V30 519 H 43.8661 0.527826 -6.49659 0
M  V30 520 N 47.2992 1.18797 -1.03562 0
M  V30 521 C 48.5452 1.89192 -0.746867 0
M  V30 522 C 48.9002 1.78531 0.717245 0
M  V30 523 O 48.1932 1.17137 1.51622 0
M  V30 524 C 48.3872 3.38692 -1.14117 0
M  V30 525 C 48.2162 3.63902 -2.64207 0
M  V30 526 C 46.9862 3.81553 -3.31279 0
M  V30 527 C 49.1842 3.64903 -3.62423 0
M  V30 528 N 47.1662 3.94455 -4.70402 0
M  V30 529 C 48.5372 3.83458 -4.87196 0
M  V30 530 C 50.5922 3.47965 -3.56125 0
M  V30 531 C 49.2952 3.86829 -6.06429 0
M  V30 532 C 51.3212 3.52616 -4.7478 0
M  V30 533 C 50.6832 3.71663 -5.9837 0
M  V30 534 H 46.7822 0.711141 -0.325273 0
M  V30 535 H 49.3662 1.42727 -1.32428 0
M  V30 536 H 47.5372 3.83864 -0.591889 0
M  V30 537 H 49.2692 3.96634 -0.803966 0
M  V30 538 H 46.0242 3.80723 -2.81686 0
M  V30 539 H 46.4482 4.0474 -5.42692 0
M  V30 540 H 51.0902 3.32189 -2.61553 0
M  V30 541 H 48.8082 4.01395 -7.01362 0
M  V30 542 H 52.3942 3.40791 -4.71543 0
M  V30 543 H 51.2742 3.75145 -6.88648 0
M  V30 544 N 48.7773 0.814389 1.34928 0
M  V30 545 C 50.0263 0.394871 1.97797 0
M  V30 546 C 50.3393 -1.04555 1.65311 0
M  V30 547 O 51.5453 -1.56856 2.21604 0
M  V30 548 C 50.0013 0.655103 3.53888 0
M  V30 549 C 49.6093 2.10858 3.95276 0
M  V30 550 C 51.3533 0.301329 4.23429 0
M  V30 551 C 49.2603 2.31415 5.44244 0
M  V30 552 H 48.1903 0.143913 0.740139 0
M  V30 553 H 50.8413 0.999544 1.53888 0
M  V30 554 H 49.2233 -0.0196253 3.95995 0
M  V30 555 H 50.3973 2.82176 3.64298 0
M  V30 556 H 48.7123 2.42297 3.38646 0
M  V30 557 H 51.3093 0.432869 5.32945 0
M  V30 558 H 51.6523 -0.75331 4.09428 0
M  V30 559 H 52.1853 0.930288 3.86769 0
M  V30 560 H 48.9243 3.35353 5.63222 0
M  V30 561 H 48.4443 1.6463 5.76764 0
M  V30 562 H 50.1233 2.13352 6.10811 0
M  V30 563 N 50.2554 -1.46986 0.568584 0
M  V30 564 C 51.4834 -2.0683 0.0539956 0
M  V30 565 C 51.8984 -1.41953 -1.24478 0
M  V30 566 O 51.2554 -0.519933 -1.74937 0
M  V30 567 C 51.3064 -3.61254 -0.133362 0
M  V30 568 O 51.0274 -4.237 1.11399 0
M  V30 569 C 52.5284 -4.37992 -0.683927 0
M  V30 570 H 49.7484 -0.669058 0.0510141 0
M  V30 571 H 52.2924 -1.88824 0.785234 0
M  V30 572 H 50.4474 -3.78735 -0.81477 0
M  V30 573 H 50.8614 -5.16388 0.91888 0
M  V30 574 H 52.3354 -5.46684 -0.764263 0
M  V30 575 H 52.8124 -4.05058 -1.69778 0
M  V30 576 H 53.4184 -4.25283 -0.0378494 0
M  V30 577 N 51.7335 -0.305618 -1.54608 0
M  V30 578 C 52.9615 0.304775 -2.04643 0
M  V30 579 C 53.3765 1.47167 -1.18268 0
M  V30 580 O 52.7335 1.81296 -0.209328 0
M  V30 581 C 52.7845 0.756564 -3.53495 0
M  V30 582 O 52.5055 -0.36389 -4.36586 0
M  V30 583 C 54.0065 1.43163 -4.19546 0
M  V30 584 H 51.2265 0.0655481 -0.667791 0
M  V30 585 H 53.7705 -0.446592 -1.99564 0
M  V30 586 H 51.9255 1.45794 -3.58919 0
M  V30 587 H 52.3395 -0.0113121 -5.24499 0
M  V30 588 H 53.8135 1.69886 -5.25207 0
M  V30 589 H 54.2905 2.37318 -3.69563 0
M  V30 590 H 54.8965 0.773307 -4.18211 0
M  V30 591 N 53.2116 1.57565 -0.0334293 0
M  V30 592 C 54.1436 2.0739 0.975811 0
M  V30 593 C 55.1566 0.998166 1.2861 0
M  V30 594 O 56.3456 1.27426 1.25 0
M  V30 595 C 53.4456 2.4871 2.30209 0
M  V30 596 C 52.6186 3.79413 2.17634 0
M  V30 597 C 51.6776 4.07237 3.33233 0
M  V30 598 O 50.7036 4.77425 3.09927 0
M  V30 599 N 51.9056 3.5775 4.5716 0
M  V30 600 H 54.6706 2.94598 0.55066 0
M  V30 601 H 52.2316 1.61173 0.15323 0
M  V30 602 H 54.2236 2.64413 3.06378 0
M  V30 603 H 52.7936 1.66845 2.64351 0
M  V30 604 H 52.0136 3.73465 1.26165 0
M  V30 605 H 53.3016 4.65038 2.0644 0
M  V30 606 H 52.6996 3.00976 4.78989 0
M  V30 607 H 51.2566 3.78724 5.30482 0
M  V30 608 N 54.6897 -0.239769 1.55765 0
M  V30 609 C 55.9297 -0.974076 1.79697 0
M  V30 610 C 56.2937 -1.82249 0.604088 0
M  V30 611 O 57.4947 -2.58913 0.722324 0
M  V30 612 C 55.7657 -1.80595 3.08416 0
M  V30 613 S 57.3247 -2.59838 3.53596 0
M  V30 614 H 54.1427 -0.327524 0.63107 0
M  V30 615 H 56.7447 -0.241277 1.94005 0
M  V30 616 H 55.4487 -1.17249 3.93295 0
M  V30 617 H 54.9797 -2.58137 2.96865 0
M  V30 618 H 56.9947 -3.82987 3.15492 0
M  V30 619 N 56.1678 -1.49265 -0.50573 0
M  V30 620 C 57.5838 -1.35923 -0.836486 0
M  V30 621 C 57.7838 -0.388704 -1.97715 0
M  V30 622 O 56.8398 0.181336 -2.51848 0
M  V30 623 C 58.1528 -2.76531 -1.18115 0
M  V30 624 C 59.7008 -2.85197 -1.28964 0
M  V30 625 C 60.1758 -4.26561 -1.66761 0
M  V30 626 N 61.6668 -4.2935 -1.73819 0
M  V30 627 C 62.4018 -5.35693 -2.045 0
M  V30 628 N 61.8978 -6.52287 -2.33438 0
M  V30 629 N 63.6908 -5.23105 -2.05711 0
M  V30 630 H 55.8418 -2.10965 0.246519 0
M  V30 631 H 58.1048 -0.9468 0.0476887 0
M  V30 632 H 57.8108 -3.49226 -0.416398 0
M  V30 633 H 57.6848 -3.11599 -2.1257 0
M  V30 634 H 60.0718 -2.12742 -2.04511 0
M  V30 635 H 60.1528 -2.53718 -0.325704 0
M  V30 636 H 59.7968 -4.99541 -0.917656 0
M  V30 637 H 59.7268 -4.55502 -2.64246 0
M  V30 638 H 62.2178 -3.4526 -1.53635 0
M  V30 639 H 62.5308 -7.29158 -2.56024 0
M  V30 640 H 60.8758 -6.55521 -2.30905 0
M  V30 641 H 64.0668 -4.31026 -1.82577 0
M  V30 642 H 64.2398 -6.06078 -2.29289 0
M  V30 643 N 57.6459 0.756429 -1.3826 0
M  V30 644 C 58.5929 1.87011 -1.35261 0
M  V30 645 C 59.5629 1.64695 -0.215616 0
M  V30 646 O 60.7479 1.864 -0.407399 0
M  V30 647 C 57.8879 3.24275 -1.18068 0
M  V30 648 C 57.0009 3.58442 -2.41129 0
M  V30 649 C 56.1359 4.84994 -2.16689 0
M  V30 650 C 55.1749 5.11939 -3.35537 0
M  V30 651 N 54.3119 6.29685 -3.10549 0
M  V30 652 H 59.1519 1.8891 -2.30472 0
M  V30 653 H 56.6889 0.923373 -1.14509 0
M  V30 654 H 58.6469 4.03479 -1.06116 0
M  V30 655 H 57.2769 3.21711 -0.264973 0
M  V30 656 H 56.3289 2.74103 -2.63764 0
M  V30 657 H 57.6409 3.74283 -3.29717 0
M  V30 658 H 56.7949 5.72135 -2.01857 0
M  V30 659 H 55.5339 4.71286 -1.25462 0
M  V30 660 H 54.5389 4.23268 -3.50891 0
M  V30 661 H 55.7639 5.27546 -4.27635 0
M  V30 662 H 53.7099 6.17306 -2.21967 0
M  V30 663 H 53.6269 6.46014 -3.92686 0
M  V30 664 H 54.8949 7.19722 -2.99367 0
M  V30 665 N 59.124 1.23083 0.984299 0
M  V30 666 C 60.401 0.9689 1.69917 0
M  V30 667 C 60.781 -0.513604 2.04757 0
M  V30 668 O 60.129 -1.48383 1.73767 0
M  V30 669 C 60.339 1.87518 2.94343 0
M  V30 670 C 61.687 2.13636 3.6694 0
M  V30 671 O 62.711 1.85036 3.04368 0
M  V30 672 O 61.57 2.62119 4.79537 0
M  V30 673 H 58.664 0.365095 0.742048 0
M  V30 674 H 61.21 1.34107 1.03987 0
M  V30 675 H 59.982 2.87756 2.65164 0
M  V30 676 H 59.605 1.50514 3.6801 0
M  V30 677 N 60.6021 -1.18246 1.0419 0
M  V30 678 C 61.8481 -1.88536 0.747122 0
M  V30 679 C 62.1811 -1.80223 -0.723409 0
M  V30 680 O 61.4561 -1.20337 -1.52804 0
M  V30 681 C 61.7391 -3.38968 1.21544 0
M  V30 682 C 61.5921 -3.56084 2.74816 0
M  V30 683 C 62.9111 -4.32648 0.806482 0
M  V30 684 H 60.0301 -0.684619 0.272883 0
M  V30 685 H 62.6721 -1.39113 1.29413 0
M  V30 686 H 60.8221 -3.8119 0.750081 0
M  V30 687 H 62.4941 -3.22946 3.29399 0
M  V30 688 H 60.7371 -2.98699 3.14582 0
M  V30 689 H 61.4081 -4.61639 3.02644 0
M  V30 690 H 63.8841 -3.98211 1.20695 0
M  V30 691 H 62.7601 -5.36462 1.1619 0
M  V30 692 H 63.0211 -4.41146 -0.29029 0
M  V30 693 N 62.0802 -0.821533 -1.34494 0
M  V30 694 C 63.3282 -0.408139 -1.97936 0
M  V30 695 C 63.6492 1.03193 -1.65457 0
M  V30 696 O 62.9192 1.71622 -0.944595 0
M  V30 697 H 61.4992 -0.147928 -0.732206 0
M  V30 698 H 64.1612 -1.05067 -1.64155 0
M  V30 699 H 63.2572 -0.52601 -3.07635 0
M  V30 700 N 63.5583 1.46682 -0.576371 0
M  V30 701 C 64.9743 1.57822 -0.237562 0
M  V30 702 C 65.1743 1.57237 1.26011 0
M  V30 703 O 64.2303 1.48596 2.04146 0
M  V30 704 C 65.5433 2.87499 -0.881168 0
M  V30 705 C 67.0913 3.01119 -0.85417 0
M  V30 706 C 67.5663 4.33524 -1.4772 0
M  V30 707 N 69.0573 4.40207 -1.44125 0
M  V30 708 C 69.7923 5.4126 -1.89276 0
M  V30 709 N 69.2883 6.49021 -2.42371 0
M  V30 710 N 71.0813 5.32422 -1.80231 0
M  V30 711 H 63.2323 1.45306 -1.54919 0
M  V30 712 H 65.4953 0.692733 -0.647167 0
M  V30 713 H 65.2013 2.9372 -1.93447 0
M  V30 714 H 65.0753 3.75224 -0.385592 0
M  V30 715 H 67.4623 2.94485 0.190491 0
M  V30 716 H 67.5433 2.14887 -1.3877 0
M  V30 717 H 67.1873 4.40916 -2.52103 0
M  V30 718 H 67.1173 5.1852 -0.918947 0
M  V30 719 H 69.6083 3.62931 -1.05307 0
M  V30 720 H 69.9213 7.2233 -2.74698 0
M  V30 721 H 68.2663 6.49858 -2.46393 0
M  V30 722 H 71.4573 4.47137 -1.38514 0
M  V30 723 H 71.6303 6.11034 -2.15735 0
M  V30 724 N 65.0364 0.313813 1.54444 0
M  V30 725 C 66.4474 -0.176243 1.85866 0
M  V30 726 C 66.7984 -1.52405 1.23561 0
M  V30 727 O 65.9234 -2.09605 0.538016 0
M  V30 728 C 66.5184 -0.32657 3.37222 0
M  V30 729 C 65.0774 -0.760846 3.6863 0
M  V30 730 C 64.2244 0.123247 2.77026 0
M  V30 731 H 67.1754 0.534418 1.49431 0
M  V30 732 H 67.1964 -1.15908 3.62416 0
M  V30 733 H 66.7084 0.654531 3.82541 0
M  V30 734 H 64.8094 -1.75204 3.28838 0
M  V30 735 H 64.9224 -0.571353 4.75681 0
M  V30 736 H 63.2864 -0.399597 2.51546 0
M  V30 737 H 64.0694 1.10094 3.25168 0
M  V30 738 N 66.5145 -1.57545 0.0417849 0
M  V30 739 C 67.4465 -2.07904 -0.964799 0
M  V30 740 C 68.4595 -1.00497 -1.28079 0
M  V30 741 O 69.6485 -1.28087 -1.24322 0
M  V30 742 C 66.7485 -2.49928 -2.28887 0
M  V30 743 C 65.9215 -3.80562 -2.15619 0
M  V30 744 C 64.9805 -4.08999 -3.31069 0
M  V30 745 O 64.0065 -4.79061 -3.0739 0
M  V30 746 N 65.2085 -3.6017 -4.55256 0
M  V30 747 H 67.9735 -2.94886 -0.535029 0
M  V30 748 H 65.5345 -1.61252 -0.144681 0
M  V30 749 H 67.5265 -2.66034 -3.04972 0
M  V30 750 H 66.0965 -1.68245 -2.63463 0
M  V30 751 H 65.3165 -3.74129 -1.24183 0
M  V30 752 H 66.6045 -4.66126 -2.03971 0
M  V30 753 H 66.0025 -3.03512 -4.77386 0
M  V30 754 H 64.5595 -3.81532 -5.28466 0
M  V30 755 N 67.9926 0.231505 -1.5589 0
M  V30 756 C 69.4036 0.799327 -1.68724 0
M  V30 757 C 69.7546 1.85398 -0.642022 0
M  V30 758 O 68.8796 2.1539 0.208784 0
M  V30 759 C 69.4746 1.45664 -3.05888 0
M  V30 760 C 68.0336 1.97197 -3.20609 0
M  V30 761 C 67.1806 0.828552 -2.64632 0
M  V30 762 H 70.1316 0.00702616 -1.58698 0
M  V30 763 H 70.1526 2.32517 -3.01191 0
M  V30 764 H 69.6646 0.688808 -3.81939 0
M  V30 765 H 67.7656 2.76813 -2.4941 0
M  V30 766 H 67.8786 2.15878 -4.27707 0
M  V30 767 H 66.2426 1.23321 -2.22854 0
M  V30 768 H 67.0256 0.0735544 -3.43221 0
M  V30 769 N 69.4707 1.49531 0.497807 0
M  V30 770 C 70.7187 1.58865 1.24926 0
M  V30 771 C 71.0397 0.278721 1.92998 0
M  V30 772 O 70.3097 -0.702144 1.82885 0
M  V30 773 H 68.8897 0.585343 0.464094 0
M  V30 774 H 71.5517 1.86174 0.57666 0
M  V30 775 H 70.6477 2.38633 2.01149 0
M  V30 776 N 70.9488 -0.749086 1.3866 0
M  V30 777 C 72.3648 -1.05276 1.19955 0
M  V30 778 C 72.5648 -2.01435 0.05134 0
M  V30 779 O 71.6208 -2.45232 -0.60147 0
M  V30 780 C 72.9338 -1.62853 2.52783 0
M  V30 781 C 74.4818 -1.75002 2.59506 0
M  V30 782 C 74.9568 -2.35991 3.92521 0
M  V30 783 N 76.4478 -2.43416 3.94085 0
M  V30 784 C 77.1828 -2.91511 4.9377 0
M  V30 785 N 76.6788 -3.39608 6.03853 0
M  V30 786 N 78.4718 -2.90592 4.81157 0
M  V30 787 H 70.6228 -0.111066 2.12109 0
M  V30 788 H 72.8858 -0.111901 0.941373 0
M  V30 789 H 72.5918 -0.99664 3.37283 0
M  V30 790 H 72.4658 -2.61854 2.715 0
M  V30 791 H 74.8528 -2.37317 1.75398 0
M  V30 792 H 74.9338 -0.74693 2.44652 0
M  V30 793 H 74.5778 -1.74308 4.77053 0
M  V30 794 H 74.5078 -3.3695 4.04688 0
M  V30 795 H 76.9988 -2.09405 3.14576 0
M  V30 796 H 77.3118 -3.74775 6.75843 0
M  V30 797 H 75.6568 -3.37653 6.07466 0
M  V30 798 H 78.8478 -2.52332 3.94267 0
M  V30 799 H 79.0208 -3.27762 5.58996 0
M  V30 800 N 72.4269 -1.23603 -0.977757 0
M  V30 801 C 73.3369 -1.03632 -2.1047 0
M  V30 802 C 74.3529 0.0199435 -1.73989 0
M  V30 803 O 75.5289 -0.176076 -2.00629 0
M  V30 804 C 72.5939 -0.63276 -3.40877 0
M  V30 805 C 71.6549 -1.76437 -3.91367 0
M  V30 806 C 70.8879 -1.37997 -5.15551 0
M  V30 807 O 71.1109 -0.265357 -5.69782 0
M  V30 808 O 70.0449 -2.20201 -5.60174 0
M  V30 809 H 73.8709 -1.98086 -2.30208 0
M  V30 810 H 71.4559 -1.02332 -1.08851 0
M  V30 811 H 73.3379 -0.418761 -4.19314 0
M  V30 812 H 72.0129 0.282754 -3.22463 0
M  V30 813 H 70.9199 -2.03304 -3.14036 0
M  V30 814 H 72.2529 -2.6583 -4.14241 0
M  V30 815 N 73.905 1.17692 -1.04816 0
M  V30 816 C 74.853 2.23632 -0.63966 0
M  V30 817 C 75.847 1.6601 0.337219 0
M  V30 818 O 77.053 1.78844 0.203693 0
M  V30 819 H 73.428 0.727949 -0.188665 0
M  V30 820 H 75.399 2.55387 -1.54337 0
M  V30 821 C 74.148 3.4769 -0.0264051 0
M  V30 822 H 73.471 3.92331 -0.769164 0
M  V30 823 H 74.911 4.23418 0.222098 0
M  V30 824 C 73.37 3.13807 1.22584 0
M  V30 825 O 73.9 3.28236 2.31569 0
M  V30 826 N 72.106 2.68065 1.12202 0
M  V30 827 H 71.653 2.56525 0.235133 0
M  V30 828 H 71.611 2.45767 1.96076 0
M  V30 829 N 75.3831 0.828654 1.34056 0
M  V30 830 C 76.6301 0.419458 1.98108 0
M  V30 831 C 76.9581 -1.01886 1.65679 0
M  V30 832 O 76.2131 -1.72539 0.923512 0
M  V30 833 C 76.5121 0.575226 3.52741 0
M  V30 834 C 76.1781 1.98012 4.05095 0
M  V30 835 C 74.8401 2.36442 4.19104 0
M  V30 836 C 77.1921 2.89824 4.33188 0
M  V30 837 C 74.5201 3.66009 4.58535 0
M  V30 838 C 76.8721 4.1886 4.74066 0
M  V30 839 C 75.5361 4.5726 4.86281 0
M  V30 840 H 74.8061 0.153491 0.724929 0
M  V30 841 H 77.4531 1.05371 1.59904 0
M  V30 842 H 75.7581 -0.142385 3.91541 0
M  V30 843 H 77.4551 0.239057 4.00287 0
M  V30 844 H 74.0451 1.67162 3.94658 0
M  V30 845 H 78.2291 2.61375 4.21897 0
M  V30 846 H 73.4851 3.95579 4.66184 0
M  V30 847 H 77.6591 4.90086 4.94761 0
M  V30 848 H 75.2861 5.57707 5.16592 0
M  V30 849 N 76.8612 -1.46375 0.584142 0
M  V30 850 C 77.7932 -2.28443 -0.186119 0
M  V30 851 C 78.8062 -1.38596 -0.854115 0
M  V30 852 O 79.9952 -1.63183 -0.723438 0
M  V30 853 C 77.0952 -3.13671 -1.28311 0
M  V30 854 C 76.2682 -4.31652 -0.706758 0
M  V30 855 C 75.3272 -4.98267 -1.69163 0
M  V30 856 O 74.3532 -5.55815 -1.22712 0
M  V30 857 N 75.5552 -4.95408 -3.02575 0
M  V30 858 H 78.3202 -2.9519 0.517986 0
M  V30 859 H 75.8812 -1.56303 0.42201 0
M  V30 860 H 77.8732 -3.55101 -1.94128 0
M  V30 861 H 76.4432 -2.48989 -1.89005 0
M  V30 862 H 75.6632 -3.93989 0.128908 0
M  V30 863 H 76.9512 -5.07906 -0.301506 0
M  V30 864 H 76.3492 -4.49902 -3.42936 0
M  V30 865 H 74.9062 -5.40774 -3.63877 0
M  V30 866 N 78.3393 -0.321999 -1.54275 0
M  V30 867 C 79.2873 0.560206 -2.25753 0
M  V30 868 C 80.2813 1.11984 -1.27106 0
M  V30 869 O 81.4873 1.06806 -1.44888 0
M  V30 870 H 77.8623 0.199304 -0.725108 0
M  V30 871 H 79.8333 -0.0649365 -2.98329 0
M  V30 872 C 78.5823 1.71023 -3.02731 0
M  V30 873 H 77.9053 1.28885 -3.78456 0
M  V30 874 H 79.3453 2.30314 -3.55993 0
M  V30 875 C 77.8043 2.62692 -2.10938 0
M  V30 876 O 78.3343 3.64364 -1.6912 0
M  V30 877 N 76.5403 2.30891 -1.76459 0
M  V30 878 H 76.0873 1.48253 -2.10663 0
M  V30 879 H 76.0453 2.92487 -1.1532 0
M  V30 880 N 79.8174 1.5752 -0.0501392 0
M  V30 881 C 81.0634 1.93755 0.618901 0
M  V30 882 C 81.4184 0.928514 1.68512 0
M  V30 883 O 80.7114 -0.0524613 1.91528 0
M  V30 884 C 80.9054 3.34467 1.25963 0
M  V30 885 C 80.7344 4.48965 0.257 0
M  V30 886 C 79.5044 5.05075 -0.150656 0
M  V30 887 C 81.7024 5.11891 -0.497166 0
M  V30 888 N 79.6844 6.03104 -1.14626 0
M  V30 889 C 81.0554 6.05216 -1.34588 0
M  V30 890 C 83.1104 4.9479 -0.55559 0
M  V30 891 C 81.8134 6.83277 -2.24778 0
M  V30 892 C 83.8394 5.73477 -1.44492 0
M  V30 893 C 83.2014 6.66433 -2.28136 0
M  V30 894 H 79.3004 0.756479 0.198149 0
M  V30 895 H 81.8844 1.94316 -0.122229 0
M  V30 896 H 80.0554 3.34685 1.97079 0
M  V30 897 H 81.7874 3.57994 1.88739 0
M  V30 898 H 78.5424 4.7305 0.228094 0
M  V30 899 H 78.9664 6.56813 -1.64092 0
M  V30 900 H 83.6084 4.2273 0.0768625 0
M  V30 901 H 81.3264 7.54629 -2.89069 0
M  V30 902 H 84.9124 5.62273 -1.49468 0
M  V30 903 H 83.7924 7.26258 -2.95835 0
M  V30 904 N 81.2955 -0.223234 1.56011 0
M  V30 905 C 82.2255 -1.27988 1.95298 0
M  V30 906 C 83.2065 -1.48976 0.820979 0
M  V30 907 O 84.3915 -1.61188 1.08315 0
M  V30 908 C 81.5215 -2.63 2.26822 0
M  V30 909 C 80.4755 -2.56671 3.42497 0
M  V30 910 C 79.8015 -3.95697 3.59622 0
M  V30 911 C 81.1015 -2.11601 4.77517 0
M  V30 912 H 82.7955 -0.953525 2.8381 0
M  V30 913 H 80.3415 -0.457244 1.36548 0
M  V30 914 H 82.2945 -3.37077 2.52898 0
M  V30 915 H 81.0185 -2.9732 1.35161 0
M  V30 916 H 79.6775 -1.85051 3.16467 0
M  V30 917 H 79.3255 -4.27322 2.6534 0
M  V30 918 H 79.0255 -3.92345 4.37424 0
M  V30 919 H 80.5495 -4.71438 3.88044 0
M  V30 920 H 81.9635 -2.7542 5.02809 0
M  V30 921 H 80.3605 -2.19311 5.5859 0
M  V30 922 H 81.4305 -1.06824 4.72987 0
M  V30 923 N 82.7736 -1.49793 -0.48987 0
M  V30 924 C 83.7206 -1.67281 -1.59014 0
M  V30 925 C 84.6906 -0.514177 -1.57941 0
M  V30 926 O 85.8756 -0.742533 -1.75759 0
M  V30 927 C 83.0156 -1.75569 -2.97102 0
M  V30 928 C 82.1286 -3.0281 -3.08107 0
M  V30 929 C 81.2636 -3.02008 -4.36995 0
M  V30 930 C 80.3026 -4.23782 -4.41673 0
M  V30 931 N 79.4396 -4.20826 -5.62005 0
M  V30 932 H 84.2796 -2.61224 -1.43409 0
M  V30 933 H 81.8166 -1.29508 -0.697565 0
M  V30 934 H 83.7746 -1.78354 -3.77155 0
M  V30 935 H 82.4046 -0.850827 -3.11385 0
M  V30 936 H 81.4566 -3.09584 -2.21047 0
M  V30 937 H 82.7686 -3.92801 -3.07423 0
M  V30 938 H 81.9226 -3.03418 -5.25378 0
M  V30 939 H 80.6616 -2.09815 -4.4026 0
M  V30 940 H 79.6666 -4.22604 -3.5169 0
M  V30 941 H 80.8916 -5.17181 -4.40115 0
M  V30 942 H 78.8376 -3.31476 -5.66091 0
M  V30 943 H 78.7546 -5.04564 -5.62984 0
M  V30 944 H 80.0226 -4.26355 -6.52565 0
M  V30 945 N 84.2517 0.741722 -1.39055 0
M  V30 946 C 85.5287 1.49252 -1.26425 0
M  V30 947 C 85.9087 2.10705 0.129144 0
M  V30 948 O 85.2567 1.98045 1.13976 0
M  V30 949 C 85.4667 2.54934 -2.38347 0
M  V30 950 C 86.8147 3.21506 -2.77343 0
M  V30 951 O 87.8387 2.65245 -2.37747 0
M  V30 952 O 86.6977 4.23294 -3.45665 0
M  V30 953 H 83.7917 0.662451 -0.495064 0
M  V30 954 H 86.3377 0.776121 -1.50912 0
M  V30 955 H 85.1097 2.07857 -3.31529 0
M  V30 956 H 84.7327 3.34141 -2.15489 0
M  V30 957 N 85.7298 1.2412 0.971189 0
M  V30 958 C 86.9778 1.07668 1.71032 0
M  V30 959 C 87.2988 -0.385797 1.91146 0
M  V30 960 O 86.5688 -1.27569 1.4867 0
M  V30 961 H 85.1488 0.395429 0.633755 0
M  V30 962 H 87.8108 1.55984 1.16855 0
M  V30 963 H 86.9068 1.57195 2.69622 0
M  V30 964 N 87.2079 -1.17134 1.05439 0
M  V30 965 C 88.4359 -1.91372 0.786414 0
M  V30 966 C 88.8509 -1.76955 -0.658202 0
M  V30 967 O 88.2079 -1.10838 -1.44987 0
M  V30 968 C 88.2589 -3.42356 1.1608 0
M  V30 969 O 87.9799 -3.56332 2.54871 0
M  V30 970 C 89.4809 -4.33663 0.919322 0
M  V30 971 H 86.7009 -0.607118 0.285743 0
M  V30 972 H 89.2449 -1.48525 1.40572 0
M  V30 973 H 87.3999 -3.82939 0.586191 0
M  V30 974 H 87.8139 -4.49896 2.69618 0
M  V30 975 H 89.2879 -5.38099 1.231 0
M  V30 976 H 89.7649 -4.38959 -0.145359 0
M  V30 977 H 90.3709 -3.98796 1.47789 0
M  V30 978 N 88.686 -0.835752 -1.33615 0
M  V30 979 C 89.932 -0.430596 -1.98176 0
M  V30 980 C 90.265 1.00684 -1.66061 0
M  V30 981 O 89.54 1.70339 -0.938877 0
M  V30 982 C 89.823 -0.648065 -3.5422 0
M  V30 983 C 89.676 -2.13255 -3.96033 0
M  V30 984 C 90.995 -0.0922113 -4.40003 0
M  V30 985 H 88.114 -0.157924 -0.719881 0
M  V30 986 H 90.756 -1.05069 -1.58305 0
M  V30 987 H 88.906 -0.120237 -3.88314 0
M  V30 988 H 90.578 -2.725 -3.72211 0
M  V30 989 H 88.821 -2.61823 -3.45878 0
M  V30 990 H 89.492 -2.23547 -5.04708 0
M  V30 991 H 91.968 -0.543343 -4.12537 0
M  V30 992 H 90.844 -0.274083 -5.48215 0
M  V30 993 H 91.105 1.00378 -4.30554 0
M  V30 994 N 90.1641 1.46063 -0.591896 0
M  V30 995 C 91.0941 2.33172 0.123673 0
M  V30 996 C 92.0751 1.45897 0.87453 0
M  V30 997 O 93.2601 1.74698 0.848181 0
M  V30 998 C 90.3901 3.28336 1.13194 0
M  V30 999 C 89.3441 4.25124 0.495324 0
M  V30 1000 C 88.6701 5.09863 1.61071 0
M  V30 1001 C 89.9701 5.19143 -0.573425 0
M  V30 1002 H 91.6641 2.93252 -0.603646 0
M  V30 1003 H 89.2101 1.41014 -0.291741 0
M  V30 1004 H 91.1631 3.88137 1.64097 0
M  V30 1005 H 89.8871 2.66383 1.88965 0
M  V30 1006 H 88.5461 3.66599 0.00729452 0
M  V30 1007 H 88.1941 4.44288 2.35832 0
M  V30 1008 H 87.8941 5.75417 1.19035 0
M  V30 1009 H 89.4181 5.72529 2.12233 0
M  V30 1010 H 90.8321 5.73106 -0.1491 0
M  V30 1011 H 89.2291 5.93089 -0.914636 0
M  V30 1012 H 90.2991 4.62519 -1.45617 0
M  V30 1013 N 91.6422 0.330177 1.54103 0
M  V30 1014 C 92.8822 -0.270916 2.02597 0
M  V30 1015 C 93.2462 -1.48826 1.21304 0
M  V30 1016 O 94.4472 -2.16266 1.59633 0
M  V30 1017 C 92.7182 -0.590328 3.52491 0
M  V30 1018 S 94.2772 -1.17014 4.2291 0
M  V30 1019 H 91.0952 -0.0815379 0.706309 0
M  V30 1020 H 93.6972 0.464835 1.89893 0
M  V30 1021 H 92.4012 0.303691 4.09275 0
M  V30 1022 H 91.9322 -1.3561 3.69288 0
M  V30 1023 H 93.9472 -2.45662 4.3112 0
M  V30 1024 N 93.1203 -1.57491 0.0584922 0
M  V30 1025 C 94.0303 -2.15448 -0.928414 0
M  V30 1026 C 95.0463 -1.11416 -1.3365 0
M  V30 1027 O 96.2223 -1.4362 -1.41193 0
M  V30 1028 C 93.2873 -2.69393 -2.18239 0
M  V30 1029 C 92.3483 -3.88249 -1.83196 0
M  V30 1030 C 91.5813 -4.39613 -3.02616 0
M  V30 1031 O 91.8043 -3.90023 -4.16219 0
M  V30 1032 O 90.7383 -5.31111 -2.83204 0
M  V30 1033 H 94.5643 -3.00112 -0.465483 0
M  V30 1034 H 92.1493 -1.48499 -0.163826 0
M  V30 1035 H 94.0313 -3.04026 -2.91798 0
M  V30 1036 H 92.7063 -1.87796 -2.63656 0
M  V30 1037 H 91.6133 -3.58492 -1.06931 0
M  V30 1038 H 92.9463 -4.71098 -1.42573 0
M  V30 1039 N 94.5984 0.214957 -1.56127 0
M  V30 1040 C 95.5284 1.2695 -1.95974 0
M  V30 1041 C 96.5094 1.48539 -0.828868 0
M  V30 1042 O 97.6944 1.60611 -1.09168 0
M  V30 1043 C 94.8244 2.61794 -2.28214 0
M  V30 1044 C 93.7784 2.54851 -3.43853 0
M  V30 1045 C 93.1044 3.93785 -3.61715 0
M  V30 1046 C 94.4044 2.09065 -4.78632 0
M  V30 1047 H 96.0984 0.93846 -2.84312 0
M  V30 1048 H 93.6444 0.449996 -1.36788 0
M  V30 1049 H 95.5974 3.35731 -2.54682 0
M  V30 1050 H 94.3214 2.96599 -1.36736 0
M  V30 1051 H 92.9804 1.8337 -3.17444 0
M  V30 1052 H 92.6284 4.25908 -2.67602 0
M  V30 1053 H 92.3284 3.90019 -4.39498 0
M  V30 1054 H 93.8524 4.69374 -3.90539 0
M  V30 1055 H 95.2664 2.7275 -5.04262 0
M  V30 1056 H 93.6634 2.16346 -5.59745 0
M  V30 1057 H 94.7334 1.04315 -4.73547 0
M  V30 1058 N 96.0765 1.50051 0.48192 0
M  V30 1059 C 97.3255 1.59741 1.23149 0
M  V30 1060 C 97.6385 0.298163 1.93314 0
M  V30 1061 O 98.8445 0.273835 2.70116 0
M  V30 1062 C 97.3005 2.81926 2.23708 0
M  V30 1063 C 96.9085 4.18685 1.59396 0
M  V30 1064 C 98.6525 3.00956 2.99375 0
M  V30 1065 C 96.5595 5.3207 2.58178 0
M  V30 1066 H 95.4895 0.594838 0.46334 0
M  V30 1067 H 98.1405 1.76467 0.503169 0
M  V30 1068 H 96.5225 2.58736 2.99786 0
M  V30 1069 H 97.6965 4.52088 0.891811 0
M  V30 1070 H 96.0115 4.05171 0.960503 0
M  V30 1071 H 98.6085 3.82836 3.73283 0
M  V30 1072 H 98.9515 2.12258 3.58123 0
M  V30 1073 H 99.4845 3.24277 2.30411 0
M  V30 1074 H 96.2235 6.22888 2.04184 0
M  V30 1075 H 95.7435 5.03098 3.26577 0
M  V30 1076 H 97.4225 5.62196 3.20225 0
M  V30 1077 N 97.5546 -0.734337 1.39446 0
M  V30 1078 C 98.5026 -1.86971 1.38364 0
M  V30 1079 C 99.4966 -1.67288 0.266687 0
M  V30 1080 O 100.703 -1.74621 0.436755 0
M  V30 1081 H 97.0776 -0.615474 0.432082 0
M  V30 1082 H 99.0486 -1.85 2.34132 0
M  V30 1083 C 97.7976 -3.2466 1.24465 0
M  V30 1084 H 97.1206 -3.40402 2.09682 0
M  V30 1085 H 98.5606 -4.04292 1.27764 0
M  V30 1086 C 97.0196 -3.36867 -0.0468674 0
M  V30 1087 O 97.5496 -3.88618 -1.01681 0
M  V30 1088 N 95.7556 -2.90391 -0.110145 0
M  V30 1089 H 95.3026 -2.48466 0.679868 0
M  V30 1090 H 95.2606 -2.98939 -0.973799 0
M  V30 1091 N 99.0327 -1.24633 -0.964593 0
M  V30 1092 C 99.9957 -1.0424 -2.04124 0
M  V30 1093 C 100.996 0.00137563 -1.608 0
M  V30 1094 O 102.186 -0.239883 -1.7254 0
M  V30 1095 C 99.3177 -0.580588 -3.3592 0
M  V30 1096 H 100.511 -1.99803 -2.23649 0
M  V30 1097 H 98.0637 -1.06899 -1.14027 0
M  V30 1098 H 98.7987 0.3781 -3.22088 0
M  V30 1099 H 98.5837 -1.33398 -3.6871 0
M  V30 1100 H 100.074 -0.459034 -4.15069 0
M  V30 1101 N 100.511 1.16574 -1.06058 0
M  V30 1102 C 101.441 2.23057 -0.690488 0
M  V30 1103 C 102.422 1.67141 0.315901 0
M  V30 1104 O 103.607 1.93253 0.191556 0
M  V30 1105 C 100.737 3.47222 -0.073625 0
M  V30 1106 C 99.6908 4.16016 -1.00573 0
M  V30 1107 C 99.0168 5.34104 -0.252289 0
M  V30 1108 C 100.317 4.67264 -2.33371 0
M  V30 1109 H 102.011 2.54271 -1.58072 0
M  V30 1110 H 99.5568 1.22218 -0.76149 0
M  V30 1111 H 101.51 4.20939 0.19714 0
M  V30 1112 H 100.234 3.15302 0.85161 0
M  V30 1113 H 98.8928 3.44223 -1.2612 0
M  V30 1114 H 98.5408 4.98437 0.675988 0
M  V30 1115 H 98.2408 5.81072 -0.873455 0
M  V30 1116 H 99.7648 6.10599 0.0109857 0
M  V30 1117 H 101.179 5.32573 -2.12223 0
M  V30 1118 H 99.5758 5.24843 -2.90963 0
M  V30 1119 H 100.646 3.83602 -2.96611 0
M  V30 1120 N 101.989 0.842826 1.3317 0
M  V30 1121 C 103.219 0.453397 2.01564 0
M  V30 1122 C 103.627 -0.951147 1.63554 0
M  V30 1123 O 102.97 -1.63021 0.846746 0
M  V30 1124 C 103.032 0.499013 3.5602 0
M  V30 1125 C 102.696 1.86037 4.1742 0
M  V30 1126 C 103.693 2.82416 4.36506 0
M  V30 1127 C 101.378 2.15428 4.53757 0
M  V30 1128 C 103.372 4.06346 4.91082 0
M  V30 1129 C 101.059 3.39615 5.0804 0
M  V30 1130 C 102.057 4.3489 5.26649 0
M  V30 1131 O 101.745 5.5688 5.79776 0
M  V30 1132 H 101.477 0.177871 0.652179 0
M  V30 1133 H 104.031 1.13808 1.70988 0
M  V30 1134 H 102.261 -0.242467 3.85939 0
M  V30 1135 H 103.95 0.126852 4.05702 0
M  V30 1136 H 104.716 2.6101 4.08777 0
M  V30 1137 H 100.595 1.42061 4.38565 0
M  V30 1138 H 104.139 4.80722 5.05522 0
M  V30 1139 H 100.036 3.60876 5.352 0
M  V30 1140 H 100.804 5.58674 5.98185 0
M  V30 1141 N 103.467 -1.45747 0.599634 0
M  V30 1142 C 104.878 -1.85853 0.177681 0
M  V30 1143 C 105.229 -1.50102 -1.26348 0
M  V30 1144 O 104.354 -0.923905 -1.95686 0
M  V30 1145 C 104.949 -3.37326 0.315688 0
M  V30 1146 C 103.508 -3.76365 -0.0515144 0
M  V30 1147 C 102.655 -2.69722 0.643822 0
M  V30 1148 H 105.606 -1.36661 0.806814 0
M  V30 1149 H 105.627 -3.77778 -0.454321 0
M  V30 1150 H 105.139 -3.63315 1.36468 0
M  V30 1151 H 103.24 -3.55993 -1.09999 0
M  V30 1152 H 103.353 -4.77916 0.336594 0
M  V30 1153 H 101.717 -2.54567 0.0822881 0
M  V30 1154 H 102.5 -2.98549 1.6948 0
M  V30 1155 N 104.945 -0.338344 -1.53925 0
M  V30 1156 C 105.855 0.529421 -2.28548 0
M  V30 1157 C 106.871 1.11645 -1.3346 0
M  V30 1158 O 108.047 1.13325 -1.66492 0
M  V30 1159 C 105.112 1.66713 -3.03987 0
M  V30 1160 C 104.173 1.11041 -4.14691 0
M  V30 1161 C 103.406 2.19389 -4.86522 0
M  V30 1162 O 103.629 3.40013 -4.57982 0
M  V30 1163 O 102.563 1.83976 -5.73094 0
M  V30 1164 H 106.389 -0.0770399 -3.03602 0
M  V30 1165 H 103.974 -0.103555 -1.49041 0
M  V30 1166 H 105.856 2.32918 -3.5118 0
M  V30 1167 H 104.531 2.25949 -2.31794 0
M  V30 1168 H 103.438 0.413024 -3.71813 0
M  V30 1169 H 104.771 0.562975 -4.8897 0
M  V30 1170 N 106.423 1.57458 -0.0668435 0
M  V30 1171 C 107.671 1.92919 0.602214 0
M  V30 1172 C 107.992 0.947215 1.70449 0
M  V30 1173 O 107.262 -0.00544117 1.95899 0
M  V30 1174 H 105.842 0.71217 0.22544 0
M  V30 1175 H 108.504 1.94508 -0.123535 0
M  V30 1176 H 107.6 2.94589 1.03073 0
M  V30 1177 N 107.901 -0.206675 1.56239 0
M  V30 1178 C 108.833 -1.27997 1.9013 0
M  V30 1179 C 109.846 -1.42299 0.790883 0
M  V30 1180 O 111.035 -1.42931 1.06925 0
M  V30 1181 C 108.135 -2.65368 2.10792 0
M  V30 1182 C 107.308 -2.72824 3.41886 0
M  V30 1183 C 106.367 -3.9131 3.51799 0
M  V30 1184 O 105.393 -3.78953 4.24716 0
M  V30 1185 N 106.595 -5.06265 2.84035 0
M  V30 1186 H 109.36 -0.992444 2.82791 0
M  V30 1187 H 106.921 -0.396652 1.56966 0
M  V30 1188 H 108.913 -3.43039 2.14724 0
M  V30 1189 H 107.483 -2.86657 1.24685 0
M  V30 1190 H 106.703 -1.81515 3.49923 0
M  V30 1191 H 107.991 -2.74786 4.28217 0
M  V30 1192 H 107.389 -5.19203 2.246 0
M  V30 1193 H 105.946 -5.81925 2.93609 0
M  V30 1194 N 109.379 -1.50304 -0.473955 0
M  V30 1195 C 110.342 -1.6841 -1.55469 0
M  V30 1196 C 111.342 -0.554905 -1.50922 0
M  V30 1197 O 112.532 -0.821882 -1.53593 0
M  V30 1198 C 109.664 -1.70667 -2.95102 0
M  V30 1199 H 110.857 -2.64828 -1.40733 0
M  V30 1200 H 108.41 -1.39742 -0.700132 0
M  V30 1201 H 109.145 -0.75932 -3.15285 0
M  V30 1202 H 108.93 -2.52698 -2.9981 0
M  V30 1203 H 110.42 -1.8664 -3.73571 0
M  V30 1204 N 110.857 0.726932 -1.39834 0
M  V30 1205 C 112.268 1.30558 -1.3346 0
M  V30 1206 C 112.619 1.962 -0.00273003 0
M  V30 1207 O 111.744 1.96826 0.899371 0
M  V30 1208 C 112.339 2.37404 -2.41713 0
M  V30 1209 C 110.898 2.90921 -2.38835 0
M  V30 1210 C 110.045 1.64578 -2.2318 0
M  V30 1211 H 112.996 0.523862 -1.49804 0
M  V30 1212 H 113.017 3.17984 -2.08966 0
M  V30 1213 H 112.529 1.89599 -3.38635 0
M  V30 1214 H 110.63 3.42985 -1.45575 0
M  V30 1215 H 110.743 3.43487 -3.33997 0
M  V30 1216 H 109.107 1.89219 -1.70494 0
M  V30 1217 H 109.89 1.18814 -3.22084 0
M  V30 1218 N 112.336 1.25143 0.95797 0
M  V30 1219 C 113.582 1.09855 1.70469 0
M  V30 1220 C 113.915 -0.360187 1.90831 0
M  V30 1221 O 113.19 -1.26568 1.47685 0
M  V30 1222 C 113.473 1.8497 3.08963 0
M  V30 1223 C 113.326 3.38652 2.96032 0
M  V30 1224 C 114.645 1.63016 4.08795 0
M  V30 1225 H 111.764 0.400465 0.618706 0
M  V30 1226 H 114.406 1.53933 1.11376 0
M  V30 1227 H 112.556 1.47505 3.59409 0
M  V30 1228 H 114.228 3.85772 2.52938 0
M  V30 1229 H 112.471 3.66534 2.32025 0
M  V30 1230 H 113.142 3.8642 3.94187 0
M  V30 1231 H 115.618 1.95625 3.67247 0
M  V30 1232 H 114.494 2.18015 5.03747 0
M  V30 1233 H 114.755 0.570692 4.38401 0
M  V30 1234 N 113.814 -1.1601 1.06675 0
M  V30 1235 C 114.761 -2.20525 0.680967 0
M  V30 1236 C 115.731 -1.62904 -0.324283 0
M  V30 1237 O 116.916 -1.89615 -0.212294 0
M  V30 1238 C 114.056 -3.45013 0.0776551 0
M  V30 1239 C 113.169 -4.16863 1.13355 0
M  V30 1240 C 112.304 -5.2888 0.49597 0
M  V30 1241 C 111.343 -5.92537 1.53513 0
M  V30 1242 N 110.48 -6.96038 0.920631 0
M  V30 1243 H 115.32 -2.52876 1.57663 0
M  V30 1244 H 112.857 -1.24199 0.788223 0
M  V30 1245 H 114.815 -4.16193 -0.289704 0
M  V30 1246 H 113.445 -3.132 -0.781393 0
M  V30 1247 H 112.497 -3.44248 1.61857 0
M  V30 1248 H 113.809 -4.60294 1.92174 0
M  V30 1249 H 112.963 -6.06653 0.0758604 0
M  V30 1250 H 111.702 -4.86622 -0.324062 0
M  V30 1251 H 110.707 -5.13482 1.9651 0
M  V30 1252 H 111.932 -6.36873 2.35733 0
M  V30 1253 H 109.878 -6.55888 0.12138 0
M  V30 1254 H 109.795 -7.3786 1.64616 0
M  V30 1255 H 111.063 -7.77725 0.525795 0
M  V30 1256 N 115.292 -0.849877 -1.32721 0
M  V30 1257 C 116.239 -0.289033 -2.28983 0
M  V30 1258 C 117.209 0.601324 -1.54833 0
M  V30 1259 O 118.394 0.537253 -1.8308 0
M  V30 1260 C 115.534 0.520623 -3.4115 0
M  V30 1261 C 114.647 -0.394989 -4.3019 0
M  V30 1262 C 113.782 0.426834 -5.29482 0
M  V30 1263 C 112.821 -0.486476 -6.10164 0
M  V30 1264 N 111.958 0.297879 -7.01468 0
M  V30 1265 H 116.798 -1.11519 -2.76347 0
M  V30 1266 H 114.335 -0.56138 -1.35967 0
M  V30 1267 H 116.293 1.00563 -4.04899 0
M  V30 1268 H 114.923 1.31165 -2.9495 0
M  V30 1269 H 113.975 -0.99836 -3.67065 0
M  V30 1270 H 115.287 -1.09612 -4.86607 0
M  V30 1271 H 114.441 0.975205 -5.98811 0
M  V30 1272 H 113.18 1.16136 -4.73671 0
M  V30 1273 H 112.185 -1.04677 -5.39743 0
M  V30 1274 H 113.41 -1.21953 -6.6806 0
M  V30 1275 H 111.356 1.01558 -6.48091 0
M  V30 1276 H 111.273 -0.344318 -7.55216 0
M  V30 1277 H 112.541 0.828131 -7.75089 0
M  V30 1278 N 116.77 1.45427 -0.607355 0
M  V30 1279 C 118.019 2.01452 -0.100036 0
M  V30 1280 C 118.332 1.48159 1.27704 0
M  V30 1281 O 119.538 1.96159 1.87707 0
M  V30 1282 C 117.994 3.59672 -0.128158 0
M  V30 1283 C 117.602 4.21962 -1.50507 0
M  V30 1284 C 119.346 4.23262 0.323932 0
M  V30 1285 C 117.253 5.72333 -1.48959 0
M  V30 1286 H 116.183 0.75325 -0.0336299 0
M  V30 1287 H 118.834 1.66901 -0.76265 0
M  V30 1288 H 117.216 3.91411 0.601105 0
M  V30 1289 H 118.39 4.01796 -2.25602 0
M  V30 1290 H 116.705 3.70565 -1.89923 0
M  V30 1291 H 119.302 5.33522 0.354691 0
M  V30 1292 H 119.645 3.93921 1.34656 0
M  V30 1293 H 120.178 3.96239 -0.352056 0
M  V30 1294 H 116.917 6.06373 -2.48981 0
M  V30 1295 H 116.437 5.94691 -0.781214 0
M  V30 1296 H 118.116 6.35525 -1.21313 0
M  V30 1297 N 118.248 0.346503 1.53744 0
M  V30 1298 C 119.18 -0.543316 2.22667 0
M  V30 1299 C 120.193 -1.06159 1.23427 0
M  V30 1300 O 121.382 -0.971235 1.49764 0
M  V30 1301 C 118.482 -1.76076 2.89569 0
M  V30 1302 C 117.655 -1.37727 4.15151 0
M  V30 1303 C 116.714 -2.45471 4.65436 0
M  V30 1304 O 115.74 -2.08655 5.29577 0
M  V30 1305 N 116.942 -3.7677 4.41616 0
M  V30 1306 H 119.707 0.0469703 2.99663 0
M  V30 1307 H 117.268 0.170766 1.60997 0
M  V30 1308 H 119.26 -2.47593 3.20125 0
M  V30 1309 H 117.83 -2.25835 2.16142 0
M  V30 1310 H 117.05 -0.492746 3.91108 0
M  V30 1311 H 118.338 -1.09708 4.96832 0
M  V30 1312 H 117.736 -4.09467 3.90325 0
M  V30 1313 H 116.293 -4.44448 4.7677 0
M  V30 1314 N 119.726 -1.57421 0.075193 0
M  V30 1315 C 120.689 -2.11791 -0.876203 0
M  V30 1316 C 121.689 -1.04268 -1.22412 0
M  V30 1317 O 122.879 -1.30242 -1.15684 0
M  V30 1318 C 120.011 -2.62207 -2.17854 0
M  V30 1319 H 121.204 -2.9716 -0.40444 0
M  V30 1320 H 118.757 -1.55333 -0.173557 0
M  V30 1321 H 119.492 -1.803 -2.6956 0
M  V30 1322 H 119.277 -3.40802 -1.93897 0
M  V30 1323 H 120.767 -3.04335 -2.85955 0
M  V30 1324 N 121.204 0.198386 -1.56346 0
M  V30 1325 C 122.429 0.939682 -1.84891 0
M  V30 1326 C 122.854 1.76202 -0.658369 0
M  V30 1327 O 122.212 1.76993 0.392851 0
M  V30 1328 C 122.26 1.81428 -3.11635 0
M  V30 1329 O 121.364 2.91265 -2.91956 0
M  V30 1330 H 120.705 0.264807 -0.608912 0
M  V30 1331 H 123.235 0.204695 -2.03573 0
M  V30 1332 H 123.245 2.21958 -3.42343 0
M  V30 1333 H 121.92 1.21004 -3.97908 0
M  V30 1334 H 120.497 2.54514 -2.72538 0
M  V30 1335 N 122.682 1.50554 0.465978 0
M  V30 1336 C 123.91 1.65563 1.24083 0
M  V30 1337 C 124.325 0.341051 1.85694 0
M  V30 1338 O 123.682 -0.677543 1.69457 0
M  V30 1339 C 123.733 2.75051 2.34583 0
M  V30 1340 O 123.454 4.01413 1.75497 0
M  V30 1341 C 124.955 3.01078 3.25372 0
M  V30 1342 H 122.175 0.55638 0.375077 0
M  V30 1343 H 124.719 1.96807 0.555624 0
M  V30 1344 H 122.874 2.46486 2.9887 0
M  V30 1345 H 123.288 4.62002 2.48303 0
M  V30 1346 H 124.762 3.81339 3.99105 0
M  V30 1347 H 125.239 2.12349 3.84453 0
M  V30 1348 H 125.845 3.31194 2.66816 0
M  V30 1349 N 124.16 -0.719506 1.40217 0
M  V30 1350 C 125.093 -1.84298 1.34571 0
M  V30 1351 C 126.071 -1.61149 0.216741 0
M  V30 1352 O 127.255 -1.84212 0.399756 0
M  V30 1353 C 124.382 -3.20568 1.09335 0
M  V30 1354 C 123.428 -3.62551 2.24631 0
M  V30 1355 S 124.261 -3.7012 3.87004 0
M  V30 1356 C 125.417 -5.09154 3.64024 0
M  V30 1357 H 125.65 -1.88807 2.2965 0
M  V30 1358 H 123.183 -0.885901 1.26456 0
M  V30 1359 H 125.141 -3.99246 0.954602 0
M  V30 1360 H 123.802 -3.13696 0.159164 0
M  V30 1361 H 122.995 -4.61483 2.02606 0
M  V30 1362 H 122.597 -2.91119 2.34789 0
M  V30 1363 H 124.889 -5.95955 3.22248 0
M  V30 1364 H 125.832 -5.36213 4.62473 0
M  V30 1365 H 126.24 -4.79562 2.97793 0
M  V30 1366 N 125.638 -1.25649 -0.95132 0
M  V30 1367 C 126.601 -1.06399 -2.03007 0
M  V30 1368 C 127.601 -0.0156794 -1.60792 0
M  V30 1369 O 128.791 -0.25817 -1.72276 0
M  V30 1370 C 125.923 -0.616184 -3.35285 0
M  V30 1371 H 127.116 -2.02164 -2.21517 0
M  V30 1372 H 124.669 -1.08103 -1.12887 0
M  V30 1373 H 125.404 0.343917 -3.22471 0
M  V30 1374 H 125.189 -1.37301 -3.67275 0
M  V30 1375 H 126.679 -0.503032 -4.14559 0
M  V30 1376 N 127.117 1.15442 -1.07289 0
M  V30 1377 C 128.364 1.86213 -0.795668 0
M  V30 1378 C 128.692 1.82291 0.678238 0
M  V30 1379 O 127.947 1.24057 1.51355 0
M  V30 1380 C 128.246 3.3489 -1.24834 0
M  V30 1381 C 127.912 3.59007 -2.72809 0
M  V30 1382 C 126.574 3.65298 -3.13227 0
M  V30 1383 C 128.926 3.68762 -3.68326 0
M  V30 1384 C 126.254 3.78854 -4.4798 0
M  V30 1385 C 128.606 3.83842 -5.0284 0
M  V30 1386 C 127.27 3.88378 -5.4288 0
M  V30 1387 H 126.54 0.681403 -0.291155 0
M  V30 1388 H 129.187 1.36435 -1.34379 0
M  V30 1389 H 127.492 3.8687 -0.619595 0
M  V30 1390 H 129.189 3.88052 -1.01076 0
M  V30 1391 H 125.779 3.5475 -2.40521 0
M  V30 1392 H 129.963 3.63202 -3.38227 0
M  V30 1393 H 125.219 3.80623 -4.78472 0
M  V30 1394 H 129.393 3.90332 -5.76727 0
M  V30 1395 H 127.02 3.98635 -6.47298 0
M  V30 1396 N 128.595 0.856903 1.32268 0
M  V30 1397 C 129.542 0.301172 2.28827 0
M  V30 1398 C 130.512 -0.593104 1.5515 0
M  V30 1399 O 131.697 -0.527537 1.83362 0
M  V30 1400 C 128.837 -0.502523 3.41422 0
M  V30 1401 C 127.95 0.417797 4.29975 0
M  V30 1402 C 127.085 -0.398749 5.29701 0
M  V30 1403 C 126.124 0.518827 6.09897 0
M  V30 1404 N 125.261 -0.260674 7.01616 0
M  V30 1405 H 130.101 1.12983 2.75751 0
M  V30 1406 H 127.638 0.568582 1.35667 0
M  V30 1407 H 129.596 -0.984141 4.05426 0
M  V30 1408 H 128.226 -1.29599 2.95642 0
M  V30 1409 H 127.278 1.01781 3.66531 0
M  V30 1410 H 128.59 1.12191 4.86019 0
M  V30 1411 H 127.744 -0.943435 5.9932 0
M  V30 1412 H 126.483 -1.13622 4.7428 0
M  V30 1413 H 125.488 1.07538 5.39181 0
M  V30 1414 H 126.713 1.25495 6.67404 0
M  V30 1415 H 124.659 -0.981198 6.4862 0
M  V30 1416 H 124.576 0.384364 7.55022 0
M  V30 1417 H 125.844 -0.787014 7.75517 0
M  V30 1418 N 130.073 -1.45103 0.615059 0
M  V30 1419 C 131.005 -2.28786 -0.13762 0
M  V30 1420 C 132.018 -1.40376 -0.824525 0
M  V30 1421 O 133.207 -1.64681 -0.688662 0
M  V30 1422 C 130.307 -3.16322 -1.21628 0
M  V30 1423 C 129.48 -4.33054 -0.615039 0
M  V30 1424 C 128.539 -5.01743 -1.58556 0
M  V30 1425 O 127.565 -5.58293 -1.10895 0
M  V30 1426 N 128.767 -5.01714 -2.91998 0
M  V30 1427 H 131.532 -2.94025 0.580483 0
M  V30 1428 H 129.093 -1.55373 0.45507 0
M  V30 1429 H 131.085 -3.59139 -1.86552 0
M  V30 1430 H 129.655 -2.52943 -1.83681 0
M  V30 1431 H 128.875 -3.93627 0.21245 0
M  V30 1432 H 130.163 -5.08431 -0.193704 0
M  V30 1433 H 129.561 -4.57075 -3.33316 0
M  V30 1434 H 128.118 -5.48371 -3.52325 0
M  V30 1435 N 131.551 -0.354651 -1.53558 0
M  V30 1436 C 132.484 0.540273 -2.21712 0
M  V30 1437 C 133.462 1.09161 -1.2051 0
M  V30 1438 O 134.646 1.14979 -1.49372 0
M  V30 1439 C 131.773 1.74435 -2.90328 0
M  V30 1440 C 130.819 1.32146 -4.05512 0
M  V30 1441 S 131.652 0.331924 -5.3447 0
M  V30 1442 C 132.808 1.54258 -6.06593 0
M  V30 1443 H 133.041 -0.0385776 -2.97275 0
M  V30 1444 H 130.574 -0.138736 -1.53775 0
M  V30 1445 H 132.532 2.43507 -3.30476 0
M  V30 1446 H 131.193 2.29444 -2.1451 0
M  V30 1447 H 130.386 2.21952 -4.52497 0
M  V30 1448 H 129.988 0.710091 -3.67197 0
M  V30 1449 H 132.28 2.47534 -6.30661 0
M  V30 1450 H 133.223 1.11431 -6.99277 0
M  V30 1451 H 133.631 1.74367 -5.36895 0
M  V30 1452 N 133.029 1.57378 -0.0835403 0
M  V30 1453 C 133.939 2.16897 0.894021 0
M  V30 1454 C 134.955 1.13528 1.31861 0
M  V30 1455 O 136.131 1.45848 1.3889 0
M  V30 1456 C 133.196 2.72831 2.13925 0
M  V30 1457 C 132.257 3.91115 1.76997 0
M  V30 1458 C 131.49 4.44371 2.95584 0
M  V30 1459 O 131.713 3.96596 4.09961 0
M  V30 1460 O 130.647 5.35549 2.74719 0
M  V30 1461 H 134.473 3.00814 0.417679 0
M  V30 1462 H 132.058 1.48741 0.140181 0
M  V30 1463 H 133.94 3.0863 2.86924 0
M  V30 1464 H 132.615 1.91967 2.60635 0
M  V30 1465 H 131.522 3.60148 1.01214 0
M  V30 1466 H 132.855 4.73307 1.3506 0
M  V30 1467 N 134.507 -0.190092 1.56449 0
M  V30 1468 C 135.439 -1.25973 1.91477 0
M  V30 1469 C 136.452 -1.41452 0.805931 0
M  V30 1470 O 137.641 -1.41789 1.08435 0
M  V30 1471 C 134.741 -2.63117 2.13594 0
M  V30 1472 C 133.914 -2.69182 3.4476 0
M  V30 1473 C 132.973 -3.87557 3.5593 0
M  V30 1474 O 131.999 -3.74427 4.28711 0
M  V30 1475 N 133.201 -5.03224 2.89388 0
M  V30 1476 H 135.966 -0.962394 2.83828 0
M  V30 1477 H 133.527 -0.379981 1.57378 0
M  V30 1478 H 135.519 -3.40742 2.1835 0
M  V30 1479 H 134.089 -2.85319 1.27719 0
M  V30 1480 H 133.309 -1.77793 3.51828 0
M  V30 1481 H 134.597 -2.70229 4.31107 0
M  V30 1482 H 133.995 -5.16791 2.30094 0
M  V30 1483 H 132.552 -5.78778 2.99764 0
M  V30 1484 N 135.985 -1.50799 -0.457987 0
M  V30 1485 C 137.234 -1.6168 -1.20593 0
M  V30 1486 C 137.547 -0.32888 -1.92815 0
M  V30 1487 O 138.753 -0.316773 -2.69646 0
M  V30 1488 C 137.209 -2.8545 -2.19195 0
M  V30 1489 C 136.817 -4.21168 -1.52715 0
M  V30 1490 C 138.561 -3.05681 -2.94549 0
M  V30 1491 C 136.468 -5.3611 -2.4968 0
M  V30 1492 H 135.398 -0.602134 -0.453818 0
M  V30 1493 H 138.049 -1.77245 -0.475031 0
M  V30 1494 H 136.431 -2.63472 -2.95632 0
M  V30 1495 H 137.605 -4.53449 -0.819775 0
M  V30 1496 H 135.92 -4.06648 -0.895922 0
M  V30 1497 H 138.517 -3.88727 -3.67145 0
M  V30 1498 H 138.86 -2.17929 -3.54701 0
M  V30 1499 H 139.393 -3.27901 -2.25223 0
M  V30 1500 H 136.132 -6.26057 -1.94249 0
M  V30 1501 H 135.652 -5.0823 -3.18532 0
M  V30 1502 H 137.331 -5.6722 -3.11241 0
M  V30 1503 N 137.463 0.71206 -1.40597 0
M  V30 1504 C 138.688 1.50617 -1.42581 0
M  V30 1505 C 139.113 1.88079 -0.0282102 0
M  V30 1506 O 138.471 1.53511 0.964579 0
M  V30 1507 C 138.519 2.7557 -2.3258 0
M  V30 1508 O 137.623 3.72414 -1.77148 0
M  V30 1509 H 136.964 0.453966 -0.484573 0
M  V30 1510 H 139.494 0.876649 -1.84868 0
M  V30 1511 H 139.504 3.2406 -2.47889 0
M  V30 1512 H 138.179 2.47639 -3.34138 0
M  V30 1513 H 136.756 3.31276 -1.71204 0
M  V30 1514 N 138.941 1.26152 0.944643 0
M  V30 1515 C 139.873 1.03199 2.04652 0
M  V30 1516 C 140.886 -0.00642356 1.62799 0
M  V30 1517 O 142.075 0.233263 1.76969 0
M  V30 1518 C 139.175 0.540111 3.34568 0
M  V30 1519 C 138.348 1.64697 4.05208 0
M  V30 1520 C 137.407 1.15374 5.13396 0
M  V30 1521 O 136.433 1.85013 5.38293 0
M  V30 1522 N 137.635 0.00031529 5.805 0
M  V30 1523 H 140.4 1.9808 2.2491 0
M  V30 1524 H 137.961 1.17491 1.11389 0
M  V30 1525 H 139.953 0.194401 4.04233 0
M  V30 1526 H 138.523 -0.315021 3.11009 0
M  V30 1527 H 137.743 2.16379 3.29506 0
M  V30 1528 H 139.031 2.3903 4.49157 0
M  V30 1529 H 138.429 -0.581336 5.62705 0
M  V30 1530 H 136.986 -0.286346 6.51171 0
M  V30 1531 N 140.419 -1.14872 1.07899 0
M  V30 1532 C 141.666 -1.85789 0.805532 0
M  V30 1533 C 141.994 -1.82649 -0.668561 0
M  V30 1534 O 141.249 -1.24858 -1.50695 0
M  V30 1535 C 141.548 -3.34223 1.26609 0
M  V30 1536 C 141.214 -3.57555 2.74709 0
M  V30 1537 C 139.876 -3.63631 3.1516 0
M  V30 1538 C 142.228 -3.66803 3.70277 0
M  V30 1539 C 139.556 -3.76473 4.49983 0
M  V30 1540 C 141.908 -3.8117 5.04869 0
M  V30 1541 C 140.572 -3.85494 5.44932 0
M  V30 1542 H 139.842 -0.679849 0.294765 0
M  V30 1543 H 142.489 -1.3572 1.35101 0
M  V30 1544 H 140.794 -3.86536 0.640103 0
M  V30 1545 H 142.491 -3.87511 1.03132 0
M  V30 1546 H 139.081 -3.5347 2.42398 0
M  V30 1547 H 143.265 -3.61404 3.40149 0
M  V30 1548 H 138.521 -3.7808 4.80484 0
M  V30 1549 H 142.695 -3.87268 5.78789 0
M  V30 1550 H 140.322 -3.95197 6.49403 0
M  V30 1551 N 141.898 -0.863906 -1.31812 0
M  V30 1552 C 142.828 -0.330843 -2.31144 0
M  V30 1553 C 143.809 0.575005 -1.60087 0
M  V30 1554 O 144.994 0.493304 -1.8783 0
M  V30 1555 C 142.124 0.47374 -3.44054 0
M  V30 1556 C 141.078 -0.338481 -4.26659 0
M  V30 1557 C 140.404 0.591412 -5.31419 0
M  V30 1558 C 141.704 -1.56926 -4.98168 0
M  V30 1559 H 143.398 -1.16086 -2.75979 0
M  V30 1560 H 140.944 -0.559657 -1.32679 0
M  V30 1561 H 142.897 0.857143 -4.12591 0
M  V30 1562 H 141.621 1.33721 -2.9797 0
M  V30 1563 H 140.28 -0.703754 -3.59782 0
M  V30 1564 H 139.928 1.45199 -4.81587 0
M  V30 1565 H 139.628 0.0519022 -5.87577 0
M  V30 1566 H 141.152 0.97179 -6.02817 0
M  V30 1567 H 142.566 -1.25764 -5.59336 0
M  V30 1568 H 140.963 -2.04739 -5.64094 0
M  V30 1569 H 142.033 -2.32544 -4.25501 0
M  V30 1570 N 143.376 1.44774 -0.622745 0
M  V30 1571 C 144.308 2.28856 0.125485 0
M  V30 1572 C 145.321 1.40811 0.817069 0
M  V30 1573 O 146.51 1.65044 0.679918 0
M  V30 1574 C 143.61 3.16963 1.19949 0
M  V30 1575 C 142.783 4.33374 0.592064 0
M  V30 1576 C 141.842 5.02577 1.55893 0
M  V30 1577 O 140.868 5.58873 1.07933 0
M  V30 1578 N 142.07 5.03256 2.89334 0
M  V30 1579 H 144.835 2.93713 -0.596068 0
M  V30 1580 H 142.396 1.55129 -0.463303 0
M  V30 1581 H 144.388 3.60123 1.84644 0
M  V30 1582 H 142.958 2.53913 1.82337 0
M  V30 1583 H 142.178 3.93509 -0.233322 0
M  V30 1584 H 143.466 5.08527 0.166738 0
M  V30 1585 H 142.864 4.58836 3.30887 0
M  V30 1586 H 141.421 5.50232 3.49412 0
M  V30 1587 N 144.854 0.36279 1.53368 0
M  V30 1588 C 145.817 -0.472679 2.24273 0
M  V30 1589 C 146.817 -1.012 1.24961 0
M  V30 1590 O 148.007 -0.898194 1.49259 0
M  V30 1591 C 145.139 -1.66039 2.97731 0
M  V30 1592 H 146.332 0.14773 2.99536 0
M  V30 1593 H 143.885 0.114434 1.55881 0
M  V30 1594 H 144.62 -2.31896 2.26704 0
M  V30 1595 H 144.405 -1.28066 3.70596 0
M  V30 1596 H 145.895 -2.25252 3.51641 0
M  V30 1597 N 146.332 -1.57332 0.0918853 0
M  V30 1598 C 147.295 -2.12708 -0.85369 0
M  V30 1599 C 148.295 -1.05561 -1.213 0
M  V30 1600 O 149.485 -1.31461 -1.14296 0
M  V30 1601 C 146.617 -2.64503 -2.15061 0
M  V30 1602 H 147.81 -2.97573 -0.3729 0
M  V30 1603 H 145.363 -1.55509 -0.157072 0
M  V30 1604 H 146.098 -1.83149 -2.67632 0
M  V30 1605 H 145.883 -3.4284 -1.90272 0
M  V30 1606 H 147.373 -3.07351 -2.82711 0
M  V30 1607 N 147.81 0.181792 -1.56548 0
M  V30 1608 C 148.72 1.24538 -1.98815 0
M  V30 1609 C 149.736 1.49045 -0.897861 0
M  V30 1610 O 150.912 1.61399 -1.20467 0
M  V30 1611 C 147.977 2.56683 -2.33055 0
M  V30 1612 C 147.038 2.40131 -3.55859 0
M  V30 1613 C 146.271 3.65975 -3.88456 0
M  V30 1614 O 146.494 4.70711 -3.22161 0
M  V30 1615 O 145.428 3.6071 -4.81842 0
M  V30 1616 H 149.254 0.916647 -2.89536 0
M  V30 1617 H 146.839 0.387842 -1.44278 0
M  V30 1618 H 148.721 3.34655 -2.56094 0
M  V30 1619 H 147.396 2.89157 -1.45498 0
M  V30 1620 H 146.303 1.60226 -3.38051 0
M  V30 1621 H 147.636 2.12585 -4.43924 0
M  V30 1622 N 149.288 1.51039 0.449983 0
M  V30 1623 C 150.704 1.38934 0.785462 0
M  V30 1624 C 150.904 0.461817 1.96136 0
M  V30 1625 O 149.96 -0.0877389 2.52348 0
M  V30 1626 C 151.273 2.80724 1.0777 0
M  V30 1627 C 152.821 2.89787 1.1829 0
M  V30 1628 C 153.296 4.32457 1.50815 0
M  V30 1629 N 154.787 4.35505 1.57764 0
M  V30 1630 C 155.522 5.42914 1.84477 0
M  V30 1631 N 155.018 6.60502 2.09068 0
M  V30 1632 N 156.811 5.3038 1.86155 0
M  V30 1633 H 148.962 2.09904 -0.324647 0
M  V30 1634 H 151.225 0.944378 -0.0827957 0
M  V30 1635 H 150.931 3.50531 0.286498 0
M  V30 1636 H 150.805 3.19273 2.00859 0
M  V30 1637 H 153.192 2.20186 1.96474 0
M  V30 1638 H 153.273 2.54752 0.231314 0
M  V30 1639 H 152.917 5.02603 0.731622 0
M  V30 1640 H 152.847 4.64995 2.47158 0
M  V30 1641 H 155.338 3.50724 1.40715 0
M  V30 1642 H 155.651 7.38158 2.28785 0
M  V30 1643 H 153.996 6.63639 2.06416 0
M  V30 1644 H 157.187 4.37505 1.66454 0
M  V30 1645 H 157.36 6.1417 2.06637 0
M  V30 1646 N 150.766 -0.704594 1.40972 0
M  V30 1647 C 151.996 -1.49138 1.42974 0
M  V30 1648 C 152.404 -1.89175 0.0308406 0
M  V30 1649 O 151.747 -1.56734 -0.958138 0
M  V30 1650 C 151.809 -2.79016 2.26694 0
M  V30 1651 C 151.473 -2.61236 3.74973 0
M  V30 1652 C 152.47 -2.27773 4.67349 0
M  V30 1653 C 150.155 -2.77158 4.18914 0
M  V30 1654 C 152.149 -2.10457 6.01653 0
M  V30 1655 C 149.836 -2.59459 5.53285 0
M  V30 1656 C 150.834 -2.26158 6.4447 0
M  V30 1657 O 150.522 -2.08605 7.76363 0
M  V30 1658 H 150.254 -0.466443 0.489292 0
M  V30 1659 H 152.808 -0.8758 1.85793 0
M  V30 1660 H 151.038 -3.42947 1.78673 0
M  V30 1661 H 152.727 -3.40782 2.20504 0
M  V30 1662 H 153.493 -2.15095 4.34694 0
M  V30 1663 H 149.372 -3.02064 3.48251 0
M  V30 1664 H 152.916 -1.84387 6.72791 0
M  V30 1665 H 148.813 -2.71725 5.85522 0
M  V30 1666 H 149.581 -2.23439 7.87412 0
M  V30 1667 N 152.244 -1.26651 -0.937939 0
M  V30 1668 C 153.492 -1.12165 -1.68118 0
M  V30 1669 C 153.813 0.334983 -1.92101 0
M  V30 1670 O 153.083 1.23583 -1.52 0
M  V30 1671 H 151.663 -0.412093 -0.623048 0
M  V30 1672 H 154.325 -1.59027 -1.12678 0
M  V30 1673 H 153.421 -1.64289 -2.6536 0
M  V30 1674 N 153.722 1.14298 -1.08507 0
M  V30 1675 C 154.971 1.84708 -0.810305 0
M  V30 1676 C 155.284 1.83903 0.666271 0
M  V30 1677 O 156.49 2.50112 1.05624 0
M  V30 1678 C 154.946 3.31572 -1.39957 0
M  V30 1679 C 154.554 3.40791 -2.90801 0
M  V30 1680 C 156.298 4.07087 -1.20334 0
M  V30 1681 C 154.205 4.81872 -3.4286 0
M  V30 1682 H 153.135 0.691985 -0.299454 0
M  V30 1683 H 155.786 1.28841 -1.30661 0
M  V30 1684 H 154.168 3.87183 -0.830976 0
M  V30 1685 H 155.342 2.95225 -3.53806 0
M  V30 1686 H 153.657 2.78732 -3.0935 0
M  V30 1687 H 156.254 5.11225 -1.56693 0
M  V30 1688 H 156.597 4.16054 -0.143237 0
M  V30 1689 H 157.13 3.57779 -1.73893 0
M  V30 1690 H 153.869 4.78094 -4.48449 0
M  V30 1691 H 153.389 5.27972 -2.84615 0
M  V30 1692 H 155.068 5.50765 -3.39509 0
M  V30 1693 N 155.201 0.870884 1.31352 0
M  V30 1694 C 156.149 0.316445 2.30437 0
M  V30 1695 C 157.143 -0.568965 1.59559 0
M  V30 1696 O 158.349 -0.454964 1.74155 0
M  V30 1697 H 154.724 0.0836521 0.747333 0
M  V30 1698 H 156.695 1.16606 2.74673 0
M  V30 1699 C 155.444 -0.46635 3.44558 0
M  V30 1700 H 154.767 0.205687 3.99271 0
M  V30 1701 H 156.207 -0.819614 4.16003 0
M  V30 1702 C 154.666 -1.65797 2.9328 0
M  V30 1703 O 155.196 -2.75728 2.92125 0
M  V30 1704 N 153.402 -1.49041 2.4947 0
M  V30 1705 H 152.949 -0.59612 2.50608 0
M  V30 1706 H 152.907 -2.28911 2.15516 0
M  V30 1707 N 156.679 -1.44442 0.630414 0
M  V30 1708 C 157.907 -2.06414 0.141671 0
M  V30 1709 C 158.322 -1.47105 -1.18345 0
M  V30 1710 O 157.679 -0.593662 -1.72574 0
M  V30 1711 C 157.73 -3.61494 0.0199784 0
M  V30 1712 O 157.451 -4.18594 1.29269 0
M  V30 1713 C 158.952 -4.40499 -0.497544 0
M  V30 1714 H 156.172 -0.666292 0.0793452 0
M  V30 1715 H 158.716 -1.85323 0.864614 0
M  V30 1716 H 156.871 -3.8185 -0.653402 0
M  V30 1717 H 157.285 -5.12026 1.13707 0
M  V30 1718 H 158.759 -5.49433 -0.531708 0
M  V30 1719 H 159.236 -4.11895 -1.52445 0
M  V30 1720 H 159.842 -4.25061 0.142562 0
M  V30 1721 N 158.157 -0.370918 -1.53173 0
M  V30 1722 C 159.385 0.217704 -2.05751 0
M  V30 1723 C 159.8 1.42018 -1.24404 0
M  V30 1724 O 159.157 1.80245 -0.286033 0
M  V30 1725 C 159.208 0.605954 -3.56385 0
M  V30 1726 O 158.929 -0.548734 -4.3465 0
M  V30 1727 C 160.43 1.2524 -4.25241 0
M  V30 1728 H 157.65 0.0371659 -0.66997 0
M  V30 1729 H 160.194 -0.530832 -1.9749 0
M  V30 1730 H 158.349 1.3044 -3.6478 0
M  V30 1731 H 158.763 -0.23376 -5.23979 0
M  V30 1732 H 160.237 1.47458 -5.3194 0
M  V30 1733 H 160.714 2.2143 -3.79296 0
M  V30 1734 H 161.32 0.595233 -4.21114 0
M  V30 1735 N 159.635 1.57281 -0.100228 0
M  V30 1736 C 160.912 1.86014 0.604812 0
M  V30 1737 C 161.292 0.998025 1.86018 0
M  V30 1738 O 160.64 0.0718184 2.28387 0
M  V30 1739 C 160.85 3.36784 0.915278 0
M  V30 1740 C 162.198 4.04957 1.27651 0
M  V30 1741 O 163.222 3.41695 1.00613 0
M  V30 1742 O 162.081 5.16593 1.7831 0
M  V30 1743 H 159.175 0.76942 0.303185 0
M  V30 1744 H 161.721 1.69176 -0.133313 0
M  V30 1745 H 160.493 3.91292 0.0248896 0
M  V30 1746 H 160.116 3.58987 1.70921 0
M  V30 1747 N 161.113 -0.173488 1.56642 0
M  V30 1748 C 162.362 -0.888758 1.81063 0
M  V30 1749 C 162.675 -1.83506 0.67712 0
M  V30 1750 O 163.881 -2.59254 0.806206 0
M  V30 1751 C 162.337 -1.63091 3.20826 0
M  V30 1752 C 161.945 -0.728357 4.4204 0
M  V30 1753 C 163.689 -2.33454 3.54541 0
M  V30 1754 C 161.596 -1.47062 5.72823 0
M  V30 1755 H 160.526 -0.335618 0.675186 0
M  V30 1756 H 163.177 -0.141712 1.82952 0
M  V30 1757 H 161.559 -2.42263 3.13248 0
M  V30 1758 H 162.733 0.0262449 4.60793 0
M  V30 1759 H 161.048 -0.134492 4.16183 0
M  V30 1760 H 163.645 -2.89578 4.49498 0
M  V30 1761 H 163.988 -3.08687 2.79317 0
M  V30 1762 H 164.521 -1.61227 3.63663 0
M  V30 1763 H 161.26 -0.760658 6.51072 0
M  V30 1764 H 160.78 -2.1986 5.58052 0
M  V30 1765 H 162.459 -2.01868 6.14702 0
M  V30 1766 N 162.591 -1.51276 -0.441967 0
M  V30 1767 C 163.838 -1.63715 -1.19179 0
M  V30 1768 C 164.166 -0.351175 -1.91303 0
M  V30 1769 O 163.421 0.664524 -1.84072 0
M  V30 1770 C 163.72 -2.78746 -2.23686 0
M  V30 1771 C 163.386 -4.18189 -1.68607 0
M  V30 1772 C 162.048 -4.56125 -1.53308 0
M  V30 1773 C 164.4 -5.05222 -1.28062 0
M  V30 1774 C 161.728 -5.78804 -0.959317 0
M  V30 1775 C 164.08 -6.28476 -0.721162 0
M  V30 1776 C 162.744 -6.65188 -0.55504 0
M  V30 1777 H 162.014 -0.599076 -0.436106 0
M  V30 1778 H 164.661 -1.85296 -0.48351 0
M  V30 1779 H 162.966 -2.51369 -3.00535 0
M  V30 1780 H 164.663 -2.8557 -2.81515 0
M  V30 1781 H 161.253 -3.88277 -1.8149 0
M  V30 1782 H 165.437 -4.76524 -1.38704 0
M  V30 1783 H 160.693 -6.05899 -0.81833 0
M  V30 1784 H 164.867 -6.95259 -0.398458 0
M  V30 1785 H 162.494 -7.60123 -0.108311 0
M  V30 1786 N 164.069 0.697108 -1.41344 0
M  V30 1787 C 165.001 1.8224 -1.39001 0
M  V30 1788 C 166.014 1.60152 -0.292428 0
M  V30 1789 O 167.203 1.69684 -0.554048 0
M  V30 1790 C 164.303 3.18976 -1.14489 0
M  V30 1791 C 163.476 3.68105 -2.36258 0
M  V30 1792 C 162.535 4.83506 -2.07625 0
M  V30 1793 O 161.561 4.95201 -2.8065 0
M  V30 1794 N 162.763 5.70637 -1.06555 0
M  V30 1795 H 165.528 1.84742 -2.35988 0
M  V30 1796 H 163.089 0.87937 -1.35936 0
M  V30 1797 H 165.081 3.93801 -0.932885 0
M  V30 1798 H 163.651 3.11508 -0.261043 0
M  V30 1799 H 162.871 2.84204 -2.7317 0
M  V30 1800 H 164.159 3.97667 -3.17393 0
M  V30 1801 H 163.557 5.63817 -0.461125 0
M  V30 1802 H 162.114 6.45368 -0.913444 0
M  V30 1803 N 165.547 1.27147 0.931209 0
M  V30 1804 C 166.775 1.16082 1.71267 0
M  V30 1805 C 167.19 -0.282772 1.8667 0
M  V30 1806 O 166.547 -1.19283 1.38122 0
M  V30 1807 C 166.598 1.8358 3.11417 0
M  V30 1808 O 166.319 3.22299 2.96741 0
M  V30 1809 C 167.82 1.78597 4.05732 0
M  V30 1810 H 165.04 0.403758 0.535929 0
M  V30 1811 H 167.584 1.67953 1.16671 0
M  V30 1812 H 165.739 1.35623 3.62885 0
M  V30 1813 H 166.153 3.55851 3.85319 0
M  V30 1814 H 167.627 2.30444 5.01597 0
M  V30 1815 H 168.104 0.754564 4.3267 0
M  V30 1816 H 168.71 2.26152 3.60188 0
M  V30 1817 N 167.025 -1.13721 1.09112 0
M  V30 1818 C 168.271 -1.85198 0.826414 0
M  V30 1819 C 168.604 -1.83129 -0.646319 0
M  V30 1820 O 167.879 -1.2671 -1.47563 0
M  V30 1821 C 168.162 -3.33507 1.35812 0
M  V30 1822 C 168.015 -3.44108 2.89672 0
M  V30 1823 C 169.334 -4.28838 0.989256 0
M  V30 1824 H 166.453 -0.67243 0.301675 0
M  V30 1825 H 169.095 -1.33499 1.35197 0
M  V30 1826 H 167.245 -3.77666 0.911082 0
M  V30 1827 H 168.917 -3.08684 3.428 0
M  V30 1828 H 167.16 -2.85087 3.26967 0
M  V30 1829 H 167.831 -4.48388 3.21951 0
M  V30 1830 H 170.307 -3.92734 1.37475 0
M  V30 1831 H 169.183 -5.31051 1.38838 0
M  V30 1832 H 169.444 -4.4198 -0.102924 0
M  V30 1833 N 168.503 -0.877838 -1.30888 0
M  V30 1834 C 169.78 -0.413052 -1.91189 0
M  V30 1835 C 170.16 1.1056 -1.79832 0
M  V30 1836 O 169.508 1.93771 -1.21099 0
M  V30 1837 C 169.718 -0.903191 -3.3711 0
M  V30 1838 C 171.066 -0.93395 -4.14201 0
M  V30 1839 O 172.09 -0.849373 -3.45925 0
M  V30 1840 O 170.949 -1.05772 -5.36167 0
M  V30 1841 H 168.043 -0.125035 -0.817493 0
M  V30 1842 H 170.589 -0.966269 -1.39504 0
M  V30 1843 H 169.361 -1.94692 -3.39427 0
M  V30 1844 H 168.984 -0.328732 -3.96239 0
M  V30 1845 N 169.982 1.44106 -0.638065 0
M  V30 1846 C 170.912 2.33448 0.0494287 0
M  V30 1847 C 171.893 1.48606 0.827672 0
M  V30 1848 O 173.078 1.77308 0.792173 0
M  V30 1849 C 170.208 3.31771 1.02691 0
M  V30 1850 C 169.162 4.26485 0.359823 0
M  V30 1851 C 168.488 5.14729 1.44769 0
M  V30 1852 C 169.788 5.17056 -0.738296 0
M  V30 1853 H 171.482 2.91183 -0.696636 0
M  V30 1854 H 169.028 1.40014 -0.336456 0
M  V30 1855 H 170.981 3.93161 1.51666 0
M  V30 1856 H 169.705 2.7226 1.80395 0
M  V30 1857 H 168.364 3.66437 -0.10934 0
M  V30 1858 H 168.012 4.51566 2.21578 0
M  V30 1859 H 167.712 5.78913 1.00668 0
M  V30 1860 H 169.236 5.78991 1.93911 0
M  V30 1861 H 170.65 5.72342 -0.331354 0
M  V30 1862 H 169.047 5.89879 -1.10286 0
M  V30 1863 H 170.117 4.57652 -1.60258 0
M  V30 1864 N 171.46 0.379036 1.52974 0
M  V30 1865 C 172.706 -0.199244 2.02422 0
M  V30 1866 C 173.061 -1.4532 1.26095 0
M  V30 1867 O 172.354 -1.88377 0.34996 0
M  V30 1868 C 172.548 -0.53096 3.53434 0
M  V30 1869 C 172.377 0.689298 4.44386 0
M  V30 1870 C 171.147 1.20546 4.9071 0
M  V30 1871 C 173.345 1.55856 4.90116 0
M  V30 1872 N 171.327 2.38434 5.65705 0
M  V30 1873 C 172.698 2.58396 5.63588 0
M  V30 1874 C 174.753 1.57986 4.7217 0
M  V30 1875 C 173.456 3.62939 6.21022 0
M  V30 1876 C 175.482 2.6143 5.30479 0
M  V30 1877 C 174.844 3.62693 6.03849 0
M  V30 1878 H 170.943 -0.0352671 0.781204 0
M  V30 1879 H 173.527 0.526614 1.87443 0
M  V30 1880 H 171.698 -1.22588 3.68547 0
M  V30 1881 H 173.43 -1.0955 3.89591 0
M  V30 1882 H 170.185 0.768022 4.67331 0
M  V30 1883 H 170.609 2.98055 6.07859 0
M  V30 1884 H 175.251 0.810475 4.14959 0
M  V30 1885 H 172.969 4.40751 6.77321 0
M  V30 1886 H 176.555 2.63949 5.18481 0
M  V30 1887 H 175.435 4.41424 6.48163 0
M  V30 1888 N 172.938 -1.57226 0.108567 0
M  V30 1889 C 173.848 -2.18292 -0.859401 0
M  V30 1890 C 174.864 -1.15612 -1.30038 0
M  V30 1891 O 176.04 -1.48039 -1.36552 0
M  V30 1892 C 173.105 -2.762 -2.09558 0
M  V30 1893 C 172.166 -3.93881 -1.70752 0
M  V30 1894 C 171.399 -4.49018 -2.88477 0
M  V30 1895 O 171.622 -4.03068 -4.036 0
M  V30 1896 O 170.556 -5.39852 -2.66164 0
M  V30 1897 H 174.382 -3.01441 -0.369769 0
M  V30 1898 H 171.967 -1.48945 -0.1165 0
M  V30 1899 H 173.849 -3.13156 -2.81978 0
M  V30 1900 H 172.524 -1.96089 -2.57548 0
M  V30 1901 H 171.431 -3.61713 -0.954714 0
M  V30 1902 H 172.764 -4.75396 -1.27513 0
M  V30 1903 N 174.416 0.165178 -1.56732 0
M  V30 1904 C 175.664 0.879068 -1.8198 0
M  V30 1905 C 175.985 1.82514 -0.686561 0
M  V30 1906 O 175.255 1.93694 0.293146 0
M  V30 1907 H 173.835 0.327608 -0.671329 0
M  V30 1908 H 176.497 0.163526 -1.94213 0
M  V30 1909 H 175.593 1.45228 -2.76252 0
M  V30 1910 N 175.894 1.51508 0.433938 0
M  V30 1911 C 176.841 1.73068 1.52696 0
M  V30 1912 C 177.811 0.572441 1.55924 0
M  V30 1913 O 178.996 0.807253 1.72882 0
M  V30 1914 C 176.136 1.86474 2.90381 0
M  V30 1915 C 175.249 3.14037 2.96656 0
M  V30 1916 C 174.384 3.18019 4.25485 0
M  V30 1917 C 173.423 4.39882 4.2564 0
M  V30 1918 N 172.56 4.41394 5.45999 0
M  V30 1919 H 177.4 2.66366 1.33615 0
M  V30 1920 H 174.937 1.32008 0.649018 0
M  V30 1921 H 176.895 1.92229 3.70275 0
M  V30 1922 H 175.525 0.965809 3.08013 0
M  V30 1923 H 174.577 3.17575 2.09404 0
M  V30 1924 H 175.889 4.0394 2.92633 0
M  V30 1925 H 175.043 3.22708 5.13755 0
M  V30 1926 H 173.782 2.2601 4.3217 0
M  V30 1927 H 172.787 4.35366 3.35763 0
M  V30 1928 H 174.012 5.33159 4.20617 0
M  V30 1929 H 171.958 3.52258 5.53399 0
M  V30 1930 H 171.875 5.25111 5.4387 0
M  V30 1931 H 173.143 4.50281 6.36292 0
M  V30 1932 N 177.372 -0.689602 1.41712 0
M  V30 1933 C 178.32 -1.82475 1.44242 0
M  V30 1934 C 179.314 -1.66354 0.319774 0
M  V30 1935 O 180.52 -1.73143 0.492089 0
M  V30 1936 H 176.895 -0.601416 0.451445 0
M  V30 1937 H 178.866 -1.77458 2.39899 0
M  V30 1938 C 177.615 -3.20535 1.3473 0
M  V30 1939 H 176.938 -3.33559 2.20405 0
M  V30 1940 H 178.378 -4.00023 1.40562 0
M  V30 1941 C 176.837 -3.36846 0.0603281 0
M  V30 1942 O 177.367 -3.91656 -0.892663 0
M  V30 1943 N 175.573 -2.90595 -0.0177039 0
M  V30 1944 H 175.12 -2.46178 0.758572 0
M  V30 1945 H 175.078 -3.01886 -0.878201 0
M  V30 1946 N 178.85 -1.27639 -0.924453 0
M  V30 1947 C 179.783 -1.04966 -2.02626 0
M  V30 1948 C 180.761 0.0309505 -1.62571 0
M  V30 1949 O 181.945 -0.114846 -1.8815 0
M  V30 1950 C 179.072 -0.59292 -3.3347 0
M  V30 1951 C 178.118 -1.66858 -3.92506 0
M  V30 1952 S 178.951 -3.2619 -4.24689 0
M  V30 1953 C 180.107 -2.82325 -5.58609 0
M  V30 1954 H 180.34 -1.98252 -2.21547 0
M  V30 1955 H 177.873 -1.11506 -1.06798 0
M  V30 1956 H 179.831 -0.336086 -4.09122 0
M  V30 1957 H 178.492 0.319939 -3.12466 0
M  V30 1958 H 177.685 -1.30038 -4.86935 0
M  V30 1959 H 177.287 -1.87766 -3.2345 0
M  V30 1960 H 179.579 -2.2783 -6.38044 0
M  V30 1961 H 180.522 -3.75511 -6.00331 0
M  V30 1962 H 180.93 -2.21367 -5.19285 0
M  V30 1963 N 180.328 1.1314 -1.09713 0
M  V30 1964 C 181.291 2.16831 -0.742751 0
M  V30 1965 C 182.291 1.59159 0.229129 0
M  V30 1966 O 183.481 1.74199 0.00693237 0
M  V30 1967 C 180.613 3.40756 -0.0989168 0
M  V30 1968 H 181.806 2.49695 -1.66109 0
M  V30 1969 H 179.359 1.2802 -0.896699 0
M  V30 1970 H 180.094 3.13485 0.830514 0
M  V30 1971 H 179.879 3.83888 -0.798265 0
M  V30 1972 H 181.369 4.17386 0.133524 0
M  V30 1973 N 181.806 0.884767 1.30421 0
M  V30 1974 C 183.046 0.509806 1.9794 0
M  V30 1975 C 183.41 -0.923736 1.68319 0
M  V30 1976 O 184.611 -1.40481 2.29169 0
M  V30 1977 C 182.882 0.776732 3.48858 0
M  V30 1978 S 184.441 0.503843 4.35898 0
M  V30 1979 H 181.259 0.189699 0.685227 0
M  V30 1980 H 183.861 1.14399 1.58535 0
M  V30 1981 H 182.565 1.81857 3.67908 0
M  V30 1982 H 182.096 0.1301 3.93185 0
M  V30 1983 H 184.111 -0.657625 4.91823 0
M  V30 1984 N 183.284 -1.43765 0.645699 0
M  V30 1985 C 184.53 -2.02197 0.156271 0
M  V30 1986 C 184.863 -1.50776 -1.22393 0
M  V30 1987 O 184.138 -0.697771 -1.81553 0
M  V30 1988 C 184.421 -3.59749 0.158872 0
M  V30 1989 C 184.274 -4.21419 1.57245 0
M  V30 1990 C 185.593 -4.37149 -0.50879 0
M  V30 1991 H 182.712 -0.734694 0.0582602 0
M  V30 1992 H 185.354 -1.71157 0.824951 0
M  V30 1993 H 183.504 -3.86325 -0.410525 0
M  V30 1994 H 185.176 -4.059 2.19186 0
M  V30 1995 H 183.419 -3.78356 2.122 0
M  V30 1996 H 184.09 -5.30482 1.52619 0
M  V30 1997 H 186.566 -4.16093 -0.024412 0
M  V30 1998 H 185.442 -5.4683 -0.476213 0
M  V30 1999 H 185.703 -4.12839 -1.58165 0
M  V30 2000 N 184.763 -0.387143 -1.52771 0
M  V30 2001 C 185.695 0.484089 -2.2403 0
M  V30 2002 C 186.708 1.02849 -1.26198 0
M  V30 2003 O 187.897 0.931186 -1.52286 0
M  V30 2004 C 184.997 1.68337 -2.94136 0
M  V30 2005 C 184.17 1.26672 -4.18656 0
M  V30 2006 C 183.229 2.33045 -4.7178 0
M  V30 2007 O 182.255 1.94541 -5.34923 0
M  V30 2008 N 183.457 3.64929 -4.5145 0
M  V30 2009 H 186.222 -0.126404 -2.99433 0
M  V30 2010 H 183.783 -0.213392 -1.60488 0
M  V30 2011 H 185.775 2.39019 -3.26577 0
M  V30 2012 H 184.345 2.20025 -2.22053 0
M  V30 2013 H 183.565 0.388878 -3.92277 0
M  V30 2014 H 184.853 0.964964 -4.99566 0
M  V30 2015 H 184.251 3.98974 -4.01044 0
M  V30 2016 H 182.808 4.31651 -4.88386 0
M  V30 2017 N 186.241 1.57166 -0.116904 0
M  V30 2018 C 187.657 1.5779 0.239693 0
M  V30 2019 C 187.857 1.1295 1.66867 0
M  V30 2020 O 186.913 0.81592 2.38954 0
M  V30 2021 C 188.226 3.00699 0.00828202 0
M  V30 2022 C 189.774 3.12912 0.0743438 0
M  V30 2023 C 190.249 4.57817 -0.129348 0
M  V30 2024 N 191.74 4.63139 -0.075247 0
M  V30 2025 C 192.475 5.73023 -0.207788 0
M  V30 2026 N 191.971 6.91665 -0.396382 0
M  V30 2027 N 193.764 5.61906 -0.14751 0
M  V30 2028 H 185.915 1.84615 -1.05029 0
M  V30 2029 H 188.178 0.85311 -0.41341 0
M  V30 2030 H 187.884 3.37784 -0.979531 0
M  V30 2031 H 187.758 3.69848 0.741077 0
M  V30 2032 H 190.145 2.75686 1.05268 0
M  V30 2033 H 190.226 2.4631 -0.690297 0
M  V30 2034 H 189.87 4.95742 -1.10465 0
M  V30 2035 H 189.8 5.22507 0.655253 0
M  V30 2036 H 192.291 3.7784 0.0670898 0
M  V30 2037 H 192.604 7.71255 -0.488437 0
M  V30 2038 H 190.949 6.93654 -0.432329 0
M  V30 2039 H 194.14 4.681 -0.00115036 0
M  V30 2040 H 194.313 6.47501 -0.254247 0
M  V30 2041 N 187.719 -0.156864 1.56817 0
M  V30 2042 C 188.947 -0.886316 1.86955 0
M  V30 2043 C 189.362 -1.75185 0.703975 0
M  V30 2044 O 188.719 -1.79555 -0.326552 0
M  V30 2045 C 188.77 -1.75117 3.16253 0
M  V30 2046 O 188.491 -0.920537 4.2832 0
M  V30 2047 C 189.992 -2.58905 3.59837 0
M  V30 2048 H 187.212 -0.25678 0.619923 0
M  V30 2049 H 189.756 -0.152615 2.0393 0
M  V30 2050 H 187.911 -2.43805 3.01062 0
M  V30 2051 H 188.325 -1.51337 5.02192 0
M  V30 2052 H 189.799 -3.1518 4.53172 0
M  V30 2053 H 190.276 -3.34472 2.84649 0
M  V30 2054 H 190.882 -1.95526 3.7769 0
M  V30 2055 N 189.197 -1.51736 -0.425897 0
M  V30 2056 C 190.127 -1.76827 -1.52494 0
M  V30 2057 C 191.108 -0.618524 -1.58456 0
M  V30 2058 O 192.293 -0.862416 -1.74 0
M  V30 2059 C 189.423 -1.90374 -2.90474 0
M  V30 2060 C 188.377 -3.0588 -2.99369 0
M  V30 2061 C 187.703 -3.04625 -4.3944 0
M  V30 2062 C 189.003 -4.45644 -2.72394 0
M  V30 2063 H 190.697 -2.68855 -1.31748 0
M  V30 2064 H 188.243 -1.29372 -0.632362 0
M  V30 2065 H 190.196 -2.0651 -3.6733 0
M  V30 2066 H 188.92 -0.95004 -3.12477 0
M  V30 2067 H 187.579 -2.89467 -2.24954 0
M  V30 2068 H 187.227 -2.0701 -4.58428 0
M  V30 2069 H 186.927 -3.82195 -4.46319 0
M  V30 2070 H 188.451 -3.22869 -5.18255 0
M  V30 2071 H 189.865 -4.62348 -3.38979 0
M  V30 2072 H 188.262 -5.25006 -2.9067 0
M  V30 2073 H 189.332 -4.54893 -1.67929 0
M  V30 2074 N 190.675 0.682077 -1.42076 0
M  V30 2075 C 191.608 1.80666 -1.3941 0
M  V30 2076 C 192.586 1.60518 -0.25939 0
M  V30 2077 O 193.77 1.83088 -0.448456 0
M  V30 2078 C 190.897 3.17556 -1.17796 0
M  V30 2079 C 189.943 3.56468 -2.34164 0
M  V30 2080 S 190.776 3.59729 -3.96681 0
M  V30 2081 C 191.932 4.99323 -3.77395 0
M  V30 2082 H 192.165 1.82652 -2.34575 0
M  V30 2083 H 189.698 0.852062 -1.2876 0
M  V30 2084 H 191.656 3.96575 -1.06012 0
M  V30 2085 H 190.317 3.13164 -0.242279 0
M  V30 2086 H 189.51 4.5595 -2.1477 0
M  V30 2087 H 189.112 2.84792 -2.42425 0
M  V30 2088 H 191.404 5.87202 -3.37935 0
M  V30 2089 H 192.347 5.23763 -4.76527 0
M  V30 2090 H 192.755 4.71498 -3.10403 0
M  V30 2091 N 192.153 1.28127 0.917671 0
M  V30 2092 C 193.101 1.11569 2.04096 0
M  V30 2093 C 194.095 0.0360242 1.69362 0
M  V30 2094 O 195.301 0.194501 1.78946 0
M  V30 2095 H 191.676 0.344097 0.668656 0
M  V30 2096 H 193.647 2.06711 2.15205 0
M  V30 2097 C 192.396 0.790197 3.38602 0
M  V30 2098 H 191.719 1.61293 3.6582 0
M  V30 2099 H 193.159 0.714271 4.1794 0
M  V30 2100 C 191.618 -0.505897 3.3308 0
M  V30 2101 O 192.148 -1.53736 3.71117 0
M  V30 2102 N 190.354 -0.505193 2.86175 0
M  V30 2103 H 189.901 0.334621 2.55417 0
M  V30 2104 H 189.859 -1.37243 2.82863 0
M  V30 2105 N 193.631 -1.12557 1.10312 0
M  V30 2106 C 194.561 -2.20341 0.772798 0
M  V30 2107 C 195.542 -1.68198 -0.25365 0
M  V30 2108 O 196.727 -1.93831 -0.119699 0
M  V30 2109 C 193.857 -3.46709 0.202443 0
M  V30 2110 C 192.811 -4.11996 1.15943 0
M  V30 2111 C 192.137 -5.328 0.450345 0
M  V30 2112 C 193.437 -4.5828 2.50552 0
M  V30 2113 H 195.131 -2.48229 1.674 0
M  V30 2114 H 192.677 -1.19308 0.806326 0
M  V30 2115 H 194.63 -4.2138 -0.0407752 0
M  V30 2116 H 193.354 -3.18245 -0.734001 0
M  V30 2117 H 192.013 -3.39305 1.38808 0
M  V30 2118 H 191.661 -5.00602 -0.490531 0
M  V30 2119 H 191.361 -5.7743 1.08851 0
M  V30 2120 H 192.885 -6.10219 0.215642 0
M  V30 2121 H 194.299 -5.2433 2.31843 0
M  V30 2122 H 192.696 -5.13683 3.10242 0
M  V30 2123 H 193.766 -3.72329 3.10643 0
M  V30 2124 N 195.109 -0.891671 -1.2995 0
M  V30 2125 C 196.357 -0.512486 -1.95494 0
M  V30 2126 C 196.678 0.942776 -1.70695 0
M  V30 2127 O 195.948 1.66374 -1.03424 0
M  V30 2128 H 194.528 -0.186533 -0.723336 0
M  V30 2129 H 197.19 -1.13621 -1.58355 0
M  V30 2130 H 196.286 -0.688342 -3.04415 0
M  V30 2131 N 196.587 1.43421 -0.653314 0
M  V30 2132 C 197.835 2.01414 -0.166415 0
M  V30 2133 C 198.156 1.51803 1.22397 0
M  V30 2134 O 197.426 0.730693 1.81763 0
M  V30 2135 H 196.006 0.744703 -0.0585319 0
M  V30 2136 H 198.668 1.75629 -0.845003 0
M  V30 2137 H 197.764 3.11734 -0.151111 0
M  V30 2138 N 198.065 0.39524 1.52563 0
M  V30 2139 C 198.995 -0.428384 2.29537 0
M  V30 2140 C 199.976 -1.05831 1.33169 0
M  V30 2141 O 201.161 -1.06995 1.62067 0
M  V30 2142 C 198.291 -1.55274 3.10656 0
M  V30 2143 C 197.245 -1.04855 4.14957 0
M  V30 2144 C 196.571 -2.26543 4.84337 0
M  V30 2145 C 197.871 -0.112324 5.22179 0
M  V30 2146 H 199.565 0.213867 2.98635 0
M  V30 2147 H 197.111 0.104298 1.43622 0
M  V30 2148 H 199.064 -2.1358 3.63265 0
M  V30 2149 H 197.788 -2.22266 2.39302 0
M  V30 2150 H 196.447 -0.487985 3.63338 0
M  V30 2151 H 196.095 -2.92059 4.09525 0
M  V30 2152 H 195.795 -1.93466 5.54837 0
M  V30 2153 H 197.319 -2.85481 5.39753 0
M  V30 2154 H 198.733 -0.603752 5.70112 0
M  V30 2155 H 197.13 0.128968 5.99961 0
M  V30 2156 H 198.2 0.837052 4.77621 0
M  V30 2157 N 199.544 -1.57102 0.125237 0
M  V30 2158 C 200.507 -2.14471 -0.80838 0
M  V30 2159 C 201.507 -1.0811 -1.19033 0
M  V30 2160 O 202.697 -1.33856 -1.11482 0
M  V30 2161 C 199.829 -2.69005 -2.09402 0
M  V30 2162 H 201.022 -2.98297 -0.309696 0
M  V30 2163 H 198.575 -1.55807 -0.124051 0
M  V30 2164 H 199.31 -1.88785 -2.63687 0
M  V30 2165 H 199.095 -3.46799 -1.82957 0
M  V30 2166 H 200.585 -3.13278 -2.76128 0
M  V30 2167 N 201.022 0.148545 -1.56898 0
M  V30 2168 C 202.268 0.862694 -1.83536 0
M  V30 2169 C 202.601 1.80889 -0.706604 0
M  V30 2170 O 201.876 1.92328 0.289885 0
M  V30 2171 C 202.159 1.63853 -3.20662 0
M  V30 2172 C 202.012 0.713925 -4.44098 0
M  V30 2173 C 203.331 2.60133 -3.54991 0
M  V30 2174 H 200.45 0.312179 -0.667618 0
M  V30 2175 H 203.092 0.127953 -1.89569 0
M  V30 2176 H 201.242 2.26489 -3.1565 0
M  V30 2177 H 202.914 0.098686 -4.61194 0
M  V30 2178 H 201.157 0.0234019 -4.33794 0
M  V30 2179 H 201.828 1.29278 -5.36648 0
M  V30 2180 H 204.304 2.07616 -3.60603 0
M  V30 2181 H 203.18 3.11468 -4.51972 0
M  V30 2182 H 203.441 3.41417 -2.80868 0
M  V30 2183 N 202.5 1.5196 0.417844 0
M  V30 2184 C 203.463 1.74065 1.49111 0
M  V30 2185 C 204.463 0.610537 1.48758 0
M  V30 2186 O 205.653 0.87832 1.50437 0
M  V30 2187 C 202.785 1.81502 2.88565 0
M  V30 2188 H 203.978 2.69869 1.30807 0
M  V30 2189 H 201.531 1.42244 0.647785 0
M  V30 2190 H 202.266 0.875813 3.1225 0
M  V30 2191 H 202.051 2.63651 2.90225 0
M  V30 2192 H 203.541 2.00376 3.66387 0
M  V30 2193 N 203.978 -0.674533 1.42435 0
M  V30 2194 C 205.394 -0.98769 1.25367 0
M  V30 2195 C 205.594 -2.00879 0.158044 0
M  V30 2196 O 204.65 -2.48075 -0.470633 0
M  V30 2197 C 205.963 -1.49224 2.6106 0
M  V30 2198 C 207.511 -1.61 2.68417 0
M  V30 2199 C 207.986 -2.14852 4.04478 0
M  V30 2200 N 209.477 -2.22185 4.06434 0
M  V30 2201 C 210.212 -2.64928 5.08528 0
M  V30 2202 N 209.708 -3.07121 6.21006 0
M  V30 2203 N 211.501 -2.64679 4.95885 0
M  V30 2204 H 203.652 0.00152503 2.124 0
M  V30 2205 H 205.915 -0.0618434 0.945981 0
M  V30 2206 H 205.621 -0.816453 3.42092 0
M  V30 2207 H 205.495 -2.47094 2.84999 0
M  V30 2208 H 207.882 -2.27686 1.87732 0
M  V30 2209 H 207.963 -0.616195 2.48267 0
M  V30 2210 H 207.607 -1.48775 4.85622 0
M  V30 2211 H 207.537 -3.15024 4.2198 0
M  V30 2212 H 210.028 -1.92435 3.25234 0
M  V30 2213 H 210.341 -3.38423 6.94759 0
M  V30 2214 H 208.686 -3.04978 6.24511 0
M  V30 2215 H 211.877 -2.31078 4.07088 0
M  V30 2216 H 212.05 -2.9767 5.75584 0
M  V30 2217 N 205.456 -1.28612 -0.910864 0
M  V30 2218 C 206.733 -1.06632 -1.63979 0
M  V30 2219 C 207.113 0.393351 -2.07403 0
M  V30 2220 O 206.461 1.37999 -1.82122 0
M  V30 2221 C 206.671 -2.0436 -2.8291 0
M  V30 2222 C 208.019 -2.34666 -3.5386 0
M  V30 2223 O 209.043 -2.02467 -2.93062 0
M  V30 2224 O 207.902 -2.89631 -4.63439 0
M  V30 2225 H 204.996 -0.407737 -0.7195 0
M  V30 2226 H 207.542 -1.39942 -0.959914 0
M  V30 2227 H 206.314 -3.02727 -2.47936 0
M  V30 2228 H 205.937 -1.71714 -3.58609 0
M  V30 2229 N 206.934 1.1197 -1.10907 0
M  V30 2230 C 208.211 1.79959 -0.766432 0
M  V30 2231 C 208.591 1.97466 0.746363 0
M  V30 2232 O 207.939 1.55491 1.67436 0
M  V30 2233 C 208.149 3.14009 -1.52314 0
M  V30 2234 C 209.497 3.89134 -1.69883 0
M  V30 2235 O 210.521 3.2368 -1.48692 0
M  V30 2236 O 209.38 5.06572 -2.05054 0
M  V30 2237 H 206.474 0.779208 -0.277062 0
M  V30 2238 H 209.02 1.18762 -1.21217 0
M  V30 2239 H 207.792 2.96587 -2.55249 0
M  V30 2240 H 207.415 3.82915 -1.07059 0
M  V30 2241 N 208.412 0.89855 1.29475 0
M  V30 2242 C 209.66 0.522847 1.9522 0
M  V30 2243 C 209.981 -0.93371 1.71192 0
M  V30 2244 O 209.251 -1.65823 1.04305 0
M  V30 2245 H 207.831 0.190366 0.722336 0
M  V30 2246 H 210.493 1.14459 1.5775 0
M  V30 2247 H 209.589 0.704476 3.04045 0
M  V30 2248 N 209.89 -1.43072 0.660911 0
M  V30 2249 C 210.82 -2.33497 -0.0122829 0
M  V30 2250 C 211.801 -1.49903 -0.803925 0
M  V30 2251 O 212.986 -1.78546 -0.763864 0
M  V30 2252 C 210.116 -3.33363 -0.973994 0
M  V30 2253 C 209.07 -4.27003 -0.291928 0
M  V30 2254 C 208.396 -5.16967 -1.36562 0
M  V30 2255 C 209.696 -5.15816 0.820462 0
M  V30 2256 H 211.39 -2.90038 0.742873 0
M  V30 2257 H 208.936 -1.39461 0.358688 0
M  V30 2258 H 210.889 -3.95524 -1.45392 0
M  V30 2259 H 209.613 -2.75095 -1.7604 0
M  V30 2260 H 208.272 -3.66217 0.167623 0
M  V30 2261 H 207.92 -4.55034 -2.14366 0
M  V30 2262 H 207.62 -5.80441 -0.914454 0
M  V30 2263 H 209.144 -5.82003 -1.84675 0
M  V30 2264 H 210.558 -5.71742 0.422366 0
M  V30 2265 H 208.955 -5.8805 1.19656 0
M  V30 2266 H 210.025 -4.55045 1.67518 0
M  V30 2267 N 211.368 -0.403325 -1.52352 0
M  V30 2268 C 212.615 0.174347 -2.01748 0
M  V30 2269 C 212.943 1.45636 -1.2892 0
M  V30 2270 O 212.198 1.9193 -0.382258 0
M  V30 2271 C 212.497 0.474665 -3.54234 0
M  V30 2272 C 212.163 -0.717458 -4.45155 0
M  V30 2273 C 210.825 -1.04447 -4.69728 0
M  V30 2274 C 213.177 -1.51432 -4.98716 0
M  V30 2275 C 210.505 -2.16963 -5.45109 0
M  V30 2276 C 212.857 -2.6302 -5.75329 0
M  V30 2277 C 211.521 -2.96213 -5.98175 0
M  V30 2278 H 210.791 0.0637981 -0.738248 0
M  V30 2279 H 213.438 -0.543553 -1.83624 0
M  V30 2280 H 211.743 1.27406 -3.70506 0
M  V30 2281 H 213.44 0.934496 -3.89959 0
M  V30 2282 H 210.03 -0.452596 -4.26204 0
M  V30 2283 H 214.214 -1.27491 -4.79645 0
M  V30 2284 H 209.47 -2.43034 -5.61021 0
M  V30 2285 H 213.644 -3.25158 -6.15829 0
M  V30 2286 H 211.271 -3.83516 -6.56368 0
M  V30 2287 N 212.846 1.57033 -0.133567 0
M  V30 2288 C 214.071 2.00475 0.531477 0
M  V30 2289 C 214.496 1.01291 1.58499 0
M  V30 2290 O 213.854 -0.0133279 1.81295 0
M  V30 2291 C 213.902 3.42729 1.12113 0
M  V30 2292 O 213.006 3.46498 2.23636 0
M  V30 2293 H 212.347 0.650876 0.131362 0
M  V30 2294 H 214.877 2.03344 -0.22634 0
M  V30 2295 H 214.887 3.81246 1.4531 0
M  V30 2296 H 213.562 4.14428 0.349557 0
M  V30 2297 H 212.139 3.19811 1.91769 0
M  V30 2298 N 214.325 -0.140222 1.56975 0
M  V30 2299 C 215.573 -0.850005 1.83356 0
M  V30 2300 C 215.894 -1.81399 0.71551 0
M  V30 2301 O 215.164 -1.94136 -0.262294 0
M  V30 2302 H 213.744 -0.316886 0.676456 0
M  V30 2303 H 216.406 -0.132608 1.94448 0
M  V30 2304 H 215.502 -1.40814 2.78528 0
M  V30 2305 N 215.803 -1.52179 -0.40978 0
M  V30 2306 C 217.08 -1.56769 -1.16974 0
M  V30 2307 C 217.46 -0.348322 -2.08206 0
M  V30 2308 O 216.808 0.664862 -2.18613 0
M  V30 2309 C 217.018 -2.89603 -1.9476 0
M  V30 2310 C 218.366 -3.42579 -2.50849 0
M  V30 2311 O 219.39 -2.91338 -2.04941 0
M  V30 2312 O 218.249 -4.32054 -3.34652 0
M  V30 2313 H 215.343 -0.631439 -0.534054 0
M  V30 2314 H 217.889 -1.64507 -0.416613 0
M  V30 2315 H 216.661 -3.698 -1.27921 0
M  V30 2316 H 216.284 -2.85155 -2.77079 0
M  V30 2317 N 217.281 0.66697 -1.42791 0
M  V30 2318 C 218.692 1.2478 -1.38877 0
M  V30 2319 C 219.043 1.96012 -0.0859426 0
M  V30 2320 O 218.168 2.00463 0.815081 0
M  V30 2321 C 218.763 2.26938 -2.51564 0
M  V30 2322 C 217.322 2.80529 -2.50959 0
M  V30 2323 C 216.469 1.54965 -2.29959 0
M  V30 2324 H 219.42 0.459853 -1.51892 0
M  V30 2325 H 219.441 3.08834 -2.22265 0
M  V30 2326 H 218.953 1.75065 -3.46372 0
M  V30 2327 H 217.054 3.36502 -1.59991 0
M  V30 2328 H 217.167 3.29012 -3.48265 0
M  V30 2329 H 215.531 1.81817 -1.78366 0
M  V30 2330 H 216.314 1.05047 -3.26833 0
M  V30 2331 N 218.759 1.29093 0.90403 0
M  V30 2332 C 219.707 1.13727 2.02901 0
M  V30 2333 C 220.701 0.0539853 1.69314 0
M  V30 2334 O 221.907 0.213469 1.7873 0
M  V30 2335 H 218.282 0.35117 0.664969 0
M  V30 2336 H 220.253 2.08982 2.13001 0
M  V30 2337 C 219.002 0.826066 3.37745 0
M  V30 2338 H 218.325 1.65164 3.64089 0
M  V30 2339 H 219.765 0.758559 4.17159 0
M  V30 2340 C 218.224 -0.470541 3.33598 0
M  V30 2341 O 218.754 -1.49792 3.72727 0
M  V30 2342 N 216.96 -0.474812 2.86695 0
M  V30 2343 H 216.507 0.361692 2.55048 0
M  V30 2344 H 216.465 -1.34236 2.84303 0
M  V30 2345 N 220.237 -1.11381 1.11499 0
M  V30 2346 C 221.483 -1.83597 0.875423 0
M  V30 2347 C 221.838 -1.83048 -0.592555 0
M  V30 2348 O 221.131 -1.27304 -1.43193 0
M  V30 2349 C 221.325 -3.30026 1.37177 0
M  V30 2350 C 221.154 -3.44837 2.88647 0
M  V30 2351 C 219.924 -3.57825 3.56776 0
M  V30 2352 C 222.122 -3.3907 3.86699 0
M  V30 2353 N 220.104 -3.61113 4.96458 0
M  V30 2354 C 221.475 -3.48986 5.12454 0
M  V30 2355 C 223.53 -3.22605 3.7925 0
M  V30 2356 C 222.233 -3.44135 6.31636 0
M  V30 2357 C 224.259 -3.19072 4.97943 0
M  V30 2358 C 223.621 -3.29559 6.22551 0
M  V30 2359 H 219.72 -0.687044 0.37349 0
M  V30 2360 H 222.304 -1.33265 1.41946 0
M  V30 2361 H 220.475 -3.78874 0.854919 0
M  V30 2362 H 222.207 -3.90153 1.07529 0
M  V30 2363 H 218.962 -3.60414 3.07244 0
M  V30 2364 H 219.386 -3.66394 5.69284 0
M  V30 2365 H 224.028 -3.13382 2.83816 0
M  V30 2366 H 221.746 -3.52126 7.27347 0
M  V30 2367 H 225.332 -3.07498 4.93899 0
M  V30 2368 H 224.212 -3.26815 7.12855 0
M  V30 2369 N 221.715 -0.905404 -1.28997 0
M  V30 2370 C 222.962 -0.534248 -1.95325 0
M  V30 2371 C 223.29 0.920535 -1.71337 0
M  V30 2372 O 222.545 1.66861 -1.02254 0
M  V30 2373 C 222.844 -0.779906 -3.48787 0
M  V30 2374 C 222.51 -2.21293 -3.92861 0
M  V30 2375 C 221.172 -2.60475 -4.04606 0
M  V30 2376 C 223.524 -3.14587 -4.15553 0
M  V30 2377 C 220.852 -3.9212 -4.36416 0
M  V30 2378 C 223.204 -4.45787 -4.48839 0
M  V30 2379 C 221.868 -4.84834 -4.58794 0
M  V30 2380 H 221.138 -0.195495 -0.714747 0
M  V30 2381 H 223.785 -1.14514 -1.53488 0
M  V30 2382 H 222.09 -0.0861365 -3.91705 0
M  V30 2383 H 223.787 -0.472029 -3.98212 0
M  V30 2384 H 220.377 -1.89887 -3.84241 0
M  V30 2385 H 224.561 -2.85528 -4.0594 0
M  V30 2386 H 219.817 -4.22086 -4.42327 0
M  V30 2387 H 223.991 -5.18098 -4.65346 0
M  V30 2388 H 221.618 -5.86877 -4.83197 0
M  V30 2389 N 223.193 1.4272 -0.668489 0
M  V30 2390 C 224.604 1.84793 -0.266151 0
M  V30 2391 C 224.955 1.55959 1.19043 0
M  V30 2392 O 224.08 1.01622 1.91055 0
M  V30 2393 C 224.675 3.35436 -0.476271 0
M  V30 2394 C 223.234 3.76182 -0.128113 0
M  V30 2395 C 222.381 2.66344 -0.771777 0
M  V30 2396 H 225.332 1.32656 -0.871098 0
M  V30 2397 H 225.353 3.79515 0.273561 0
M  V30 2398 H 224.865 3.5639 -1.53647 0
M  V30 2399 H 222.966 3.60836 0.928891 0
M  V30 2400 H 223.079 4.75766 -0.564231 0
M  V30 2401 H 221.443 2.53885 -0.203652 0
M  V30 2402 H 222.226 2.90123 -1.83531 0
M  V30 2403 N 224.671 0.411399 1.52136 0
M  V30 2404 C 225.618 -0.412975 2.27075 0
M  V30 2405 C 226.588 -1.03912 1.29582 0
M  V30 2406 O 227.773 -1.06296 1.58448 0
M  V30 2407 C 224.913 -1.52247 3.09701 0
M  V30 2408 C 224.026 -0.917021 4.22155 0
M  V30 2409 C 223.161 -1.9994 4.92135 0
M  V30 2410 C 222.2 -1.37101 5.96548 0
M  V30 2411 N 221.337 -2.39364 6.60038 0
M  V30 2412 H 226.177 0.232499 2.97092 0
M  V30 2413 H 223.714 0.126496 1.46555 0
M  V30 2414 H 225.672 -2.17674 3.55913 0
M  V30 2415 H 224.302 -2.13794 2.41851 0
M  V30 2416 H 223.354 -0.151742 3.80097 0
M  V30 2417 H 224.666 -0.418006 4.97045 0
M  V30 2418 H 223.82 -2.73088 5.41763 0
M  V30 2419 H 222.559 -2.53208 4.16818 0
M  V30 2420 H 221.564 -0.624873 5.46237 0
M  V30 2421 H 222.789 -0.845998 6.7381 0
M  V30 2422 H 220.735 -2.91759 5.87548 0
M  V30 2423 H 220.652 -1.9428 7.3061 0
M  V30 2424 H 221.92 -3.12074 7.14304 0
M  V30 2425 N 226.149 -1.5696 0.141893 0
M  V30 2426 C 227.096 -2.16501 -0.799737 0
M  V30 2427 C 228.066 -1.09643 -1.24771 0
M  V30 2428 O 229.251 -1.3766 -1.32115 0
M  V30 2429 C 226.391 -2.78679 -2.03549 0
M  V30 2430 C 225.504 -3.99914 -1.6338 0
M  V30 2431 C 224.639 -4.50106 -2.82096 0
M  V30 2432 C 223.678 -5.63819 -2.38275 0
M  V30 2433 N 222.815 -6.08651 -3.49983 0
M  V30 2434 H 227.655 -2.96632 -0.285179 0
M  V30 2435 H 225.192 -1.46533 -0.129053 0
M  V30 2436 H 227.15 -3.1287 -2.75986 0
M  V30 2437 H 225.78 -2.012 -2.52425 0
M  V30 2438 H 224.832 -3.71735 -0.807279 0
M  V30 2439 H 226.144 -4.82311 -1.27192 0
M  V30 2440 H 225.298 -4.86325 -3.62729 0
M  V30 2441 H 224.037 -3.66706 -3.21525 0
M  V30 2442 H 223.042 -5.2718 -1.56081 0
M  V30 2443 H 224.267 -6.49 -1.99938 0
M  V30 2444 H 222.213 -5.28188 -3.89042 0
M  V30 2445 H 222.13 -6.85961 -3.17794 0
M  V30 2446 H 223.398 -6.49515 -4.30988 0
M  V30 2447 N 227.627 0.131896 -1.57047 0
M  V30 2448 C 228.852 0.860418 -1.8871 0
M  V30 2449 C 229.277 1.73251 -0.73251 0
M  V30 2450 O 228.635 1.785 0.317429 0
M  V30 2451 C 228.683 1.68047 -3.19049 0
M  V30 2452 O 227.787 2.7862 -3.04047 0
M  V30 2453 H 227.128 0.238743 -0.619595 0
M  V30 2454 H 229.658 0.118169 -2.04258 0
M  V30 2455 H 229.668 2.07238 -3.51449 0
M  V30 2456 H 228.343 1.04018 -4.02682 0
M  V30 2457 H 226.92 2.42726 -2.83088 0
M  V30 2458 N 229.106 1.52395 0.401703 0
M  V30 2459 C 230.053 1.76268 1.48991 0
M  V30 2460 C 231.023 0.605386 1.54675 0
M  V30 2461 O 232.208 0.843742 1.7113 0
M  V30 2462 C 229.348 1.92592 2.86361 0
M  V30 2463 C 228.461 3.20259 2.89928 0
M  V30 2464 C 227.596 3.26972 4.18644 0
M  V30 2465 C 226.635 4.48812 4.16214 0
M  V30 2466 N 225.772 4.52877 5.36514 0
M  V30 2467 H 230.612 2.6914 1.27935 0
M  V30 2468 H 228.149 1.33355 0.620871 0
M  V30 2469 H 230.107 2.0004 3.66115 0
M  V30 2470 H 228.737 1.03093 3.05895 0
M  V30 2471 H 227.789 3.21945 2.02621 0
M  V30 2472 H 229.101 4.10056 2.83999 0
M  V30 2473 H 228.255 3.33533 5.06794 0
M  V30 2474 H 226.994 2.35126 4.27278 0
M  V30 2475 H 225.999 4.4239 3.26453 0
M  V30 2476 H 227.224 5.41961 4.09213 0
M  V30 2477 H 225.17 3.63917 5.45802 0
M  V30 2478 H 225.087 5.36529 5.32609 0
M  V30 2479 H 226.355 4.63676 6.26597 0
M  V30 2480 N 230.584 -0.659388 1.43143 0
M  V30 2481 C 231.494 -1.80167 1.50256 0
M  V30 2482 C 232.51 -1.69571 0.390106 0
M  V30 2483 O 233.686 -1.90849 0.643319 0
M  V30 2484 C 230.751 -3.16409 1.41725 0
M  V30 2485 C 229.812 -3.38848 2.63591 0
M  V30 2486 C 229.045 -4.68591 2.55458 0
M  V30 2487 O 229.268 -5.47532 1.59891 0
M  V30 2488 O 228.202 -4.92614 3.45854 0
M  V30 2489 H 232.028 -1.77121 2.46702 0
M  V30 2490 H 229.613 -0.817092 1.25076 0
M  V30 2491 H 231.495 -3.9768 1.39387 0
M  V30 2492 H 230.17 -3.20059 0.484118 0
M  V30 2493 H 229.077 -2.57366 2.71502 0
M  V30 2494 H 230.41 -3.4004 3.55856 0
M  V30 2495 N 232.062 -1.29571 -0.897171 0
M  V30 2496 C 233.01 -1.14802 -2.02295 0
M  V30 2497 C 234.004 -0.0629637 -1.69283 0
M  V30 2498 O 235.21 -0.222945 -1.78614 0
M  V30 2499 H 231.585 -0.354692 -0.663097 0
M  V30 2500 H 233.556 -2.10108 -2.11889 0
M  V30 2501 C 232.305 -0.843966 -3.37302 0
M  V30 2502 H 231.628 -1.67093 -3.63208 0
M  V30 2503 H 233.068 -0.780672 -4.16751 0
M  V30 2504 C 231.527 0.452843 -3.33843 0
M  V30 2505 O 232.057 1.47813 -3.73516 0
M  V30 2506 N 230.263 0.459601 -2.86943 0
M  V30 2507 H 229.81 -0.375213 -2.54853 0
M  V30 2508 H 229.768 1.32726 -2.85011 0
M  V30 2509 N 233.54 1.10788 -1.12088 0
M  V30 2510 C 234.951 1.64181 -0.88891 0
M  V30 2511 C 235.302 1.87508 0.577498 0
M  V30 2512 O 234.427 1.61434 1.44112 0
M  V30 2513 C 235.022 2.98257 -1.60712 0
M  V30 2514 C 233.581 3.4853 -1.42139 0
M  V30 2515 C 232.728 2.23208 -1.6454 0
M  V30 2516 H 235.679 0.943368 -1.27618 0
M  V30 2517 H 235.7 3.65552 -1.05604 0
M  V30 2518 H 235.212 2.81246 -2.67436 0
M  V30 2519 H 233.313 3.70692 -0.376552 0
M  V30 2520 H 233.426 4.26882 -2.17505 0
M  V30 2521 H 231.79 2.31169 -1.06925 0
M  V30 2522 H 232.573 2.08733 -2.72554 0
M  V30 2523 N 235.018 0.912232 1.28515 0
M  V30 2524 C 236.434 0.610159 1.47476 0
M  V30 2525 C 236.634 -0.844955 1.82928 0
M  V30 2526 O 235.69 -1.62416 1.93332 0
M  V30 2527 C 237.003 1.54675 2.57868 0
M  V30 2528 C 238.551 1.55331 2.71738 0
M  V30 2529 C 239.026 2.47649 3.85272 0
M  V30 2530 N 240.517 2.45767 3.92623 0
M  V30 2531 C 241.252 3.13896 4.79851 0
M  V30 2532 N 240.748 3.9135 5.71679 0
M  V30 2533 N 242.541 3.02991 4.73448 0
M  V30 2534 H 234.692 1.85318 1.03783 0
M  V30 2535 H 236.955 0.794777 0.516753 0
M  V30 2536 H 236.661 2.5841 2.38574 0
M  V30 2537 H 236.535 1.27671 3.54937 0
M  V30 2538 H 238.922 0.52335 2.90422 0
M  V30 2539 H 239.003 1.86378 1.75205 0
M  V30 2540 H 238.647 3.50745 3.67342 0
M  V30 2541 H 238.577 2.13904 4.81199 0
M  V30 2542 H 241.068 1.89503 3.26951 0
M  V30 2543 H 241.381 4.40359 6.35062 0
M  V30 2544 H 239.726 3.95455 5.71524 0
M  V30 2545 H 242.917 2.41987 4.007 0
M  V30 2546 H 243.09 3.5636 5.41213 0
M  V30 2547 N 236.496 -1.42363 0.676048 0
M  V30 2548 C 237.444 -2.32596 -0.0131507 0
M  V30 2549 C 238.438 -1.49891 -0.789238 0
M  V30 2550 O 239.644 -1.65955 -0.697061 0
M  V30 2551 H 236.019 -0.751647 -0.0230481 0
M  V30 2552 H 237.99 -2.88421 0.765243 0
M  V30 2553 C 236.739 -3.34479 -0.949702 0
M  V30 2554 H 236.062 -3.98158 -0.361938 0
M  V30 2555 H 237.502 -4.00199 -1.4006 0
M  V30 2556 C 235.961 -2.66838 -2.05667 0
M  V30 2557 O 236.491 -2.50124 -3.14326 0
M  V30 2558 N 234.697 -2.25843 -1.82875 0
M  V30 2559 H 234.244 -2.39637 -0.945085 0
M  V30 2560 H 234.202 -1.80918 -2.5713 0
M  V30 2561 N 237.974 -0.419461 -1.51915 0
M  V30 2562 C 239.221 0.152939 -2.01922 0
M  V30 2563 C 239.549 1.4426 -1.30458 0
M  V30 2564 O 238.804 1.91514 -0.402593 0
M  V30 2565 C 239.103 0.437067 -3.54717 0
M  V30 2566 C 238.769 -0.764632 -4.44369 0
M  V30 2567 C 237.431 -1.09423 -4.68594 0
M  V30 2568 C 239.783 -1.56713 -4.97082 0
M  V30 2569 C 237.111 -2.22732 -5.42777 0
M  V30 2570 C 239.463 -2.69107 -5.72507 0
M  V30 2571 C 238.127 -3.02541 -5.95 0
M  V30 2572 H 237.397 0.0559644 -0.738884 0
M  V30 2573 H 240.044 -0.562998 -1.83037 0
M  V30 2574 H 238.349 1.23469 -3.71837 0
M  V30 2575 H 240.046 0.893083 -3.90928 0
M  V30 2576 H 236.636 -0.497775 -4.257 0
M  V30 2577 H 240.82 -1.32571 -4.78266 0
M  V30 2578 H 236.076 -2.48971 -5.58411 0
M  V30 2579 H 240.25 -3.31671 -6.12346 0
M  V30 2580 H 237.877 -3.90457 -6.52264 0
M  V30 2581 N 239.452 1.56882 -0.150215 0
M  V30 2582 C 240.677 2.01027 0.510184 0
M  V30 2583 C 241.102 1.02966 1.57415 0
M  V30 2584 O 240.46 0.00590158 1.81299 0
M  V30 2585 C 240.508 3.43899 1.08472 0
M  V30 2586 O 239.612 3.4885 2.19948 0
M  V30 2587 H 238.953 0.652233 0.124451 0
M  V30 2588 H 241.483 2.03093 -0.247894 0
M  V30 2589 H 241.493 3.82766 1.41259 0
M  V30 2590 H 240.168 4.14776 0.305582 0
M  V30 2591 H 238.745 3.21827 1.88366 0
M  V30 2592 N 240.93 -0.123565 1.57115 0
M  V30 2593 C 242.207 -0.862196 1.75572 0
M  V30 2594 C 242.587 -1.98279 0.724475 0
M  V30 2595 O 241.935 -2.27102 -0.252407 0
M  V30 2596 C 242.145 -1.38309 3.20424 0
M  V30 2597 C 243.493 -1.83724 3.82793 0
M  V30 2598 O 244.517 -1.47999 3.23998 0
M  V30 2599 O 243.376 -2.49685 4.86127 0
M  V30 2600 H 240.47 -0.409113 0.718718 0
M  V30 2601 H 243.016 -0.107661 1.69358 0
M  V30 2602 H 241.788 -0.578889 3.86994 0
M  V30 2603 H 241.411 -2.20046 3.31158 0
M  V30 2604 N 242.408 -1.52605 -0.393616 0
M  V30 2605 C 243.356 -1.77688 -1.50099 0
M  V30 2606 C 244.35 -0.644615 -1.56656 0
M  V30 2607 O 245.556 -0.826997 -1.59877 0
M  V30 2608 H 241.931 -0.562159 -0.499481 0
M  V30 2609 H 243.902 -2.7043 -1.26135 0
M  V30 2610 C 242.651 -1.95858 -2.87289 0
M  V30 2611 H 241.974 -2.8241 -2.82992 0
M  V30 2612 H 243.414 -2.174 -3.64024 0
M  V30 2613 C 241.873 -0.729848 -3.28899 0
M  V30 2614 O 242.403 0.0949217 -4.01588 0
M  V30 2615 N 240.609 -0.561283 -2.85128 0
M  V30 2616 H 240.156 -1.23357 -2.26143 0
M  V30 2617 H 240.114 0.2595 -3.13327 0
M  V30 2618 N 243.887 0.651787 -1.4349 0
M  V30 2619 C 244.819 1.77725 -1.44729 0
M  V30 2620 C 245.832 1.59141 -0.343231 0
M  V30 2621 O 247.021 1.67835 -0.607751 0
M  V30 2622 C 244.121 3.15172 -1.24579 0
M  V30 2623 C 243.294 3.60402 -2.47849 0
M  V30 2624 C 242.353 4.76656 -2.22902 0
M  V30 2625 O 241.379 4.86022 -2.96263 0
M  V30 2626 N 242.581 5.66958 -1.24656 0
M  V30 2627 H 245.346 1.77141 -2.41746 0
M  V30 2628 H 242.907 0.835678 -1.38665 0
M  V30 2629 H 244.899 3.90634 -1.0577 0
M  V30 2630 H 243.469 3.1052 -0.360015 0
M  V30 2631 H 242.689 2.75369 -2.82073 0
M  V30 2632 H 243.977 3.87368 -3.29884 0
M  V30 2633 H 243.375 5.62065 -0.640265 0
M  V30 2634 H 241.932 6.42135 -1.1183 0
M  V30 2635 N 245.365 1.30045 0.890287 0
M  V30 2636 C 246.295 1.18541 2.01172 0
M  V30 2637 C 247.276 0.0773356 1.69924 0
M  V30 2638 O 248.461 0.25845 1.92473 0
M  V30 2639 C 245.591 0.870941 3.36202 0
M  V30 2640 C 244.545 1.93637 3.81692 0
M  V30 2641 C 243.871 1.475 5.13953 0
M  V30 2642 C 245.171 3.34666 4.00994 0
M  V30 2643 H 246.865 2.12359 2.11054 0
M  V30 2644 H 244.411 1.02238 1.01407 0
M  V30 2645 H 246.364 0.777141 4.14172 0
M  V30 2646 H 245.088 -0.102926 3.26438 0
M  V30 2647 H 243.747 2.01972 3.05946 0
M  V30 2648 H 243.395 0.489551 5.00612 0
M  V30 2649 H 243.095 2.1876 5.4536 0
M  V30 2650 H 244.619 1.39489 5.94454 0
M  V30 2651 H 246.033 3.2912 4.69417 0
M  V30 2652 H 244.43 4.03966 4.43769 0
M  V30 2653 H 245.5 3.76949 3.05021 0
M  V30 2654 N 246.843 -1.10192 1.12674 0
M  V30 2655 C 247.775 -2.16418 0.754701 0
M  V30 2656 C 248.788 -1.61309 -0.21986 0
M  V30 2657 O 249.977 -1.785 -0.000826841 0
M  V30 2658 C 247.077 -3.38762 0.096698 0
M  V30 2659 C 246.25 -4.23307 1.10136 0
M  V30 2660 C 245.309 -5.24092 0.470513 0
M  V30 2661 O 244.335 -5.57906 1.12824 0
M  V30 2662 N 245.537 -5.75491 -0.760948 0
M  V30 2663 H 248.302 -2.48943 1.66875 0
M  V30 2664 H 245.863 -1.25834 1.01869 0
M  V30 2665 H 247.855 -4.03291 -0.337384 0
M  V30 2666 H 246.425 -3.04192 -0.720153 0
M  V30 2667 H 245.645 -3.55036 1.71299 0
M  V30 2668 H 246.933 -4.76624 1.78064 0
M  V30 2669 H 246.331 -5.50222 -1.31424 0
M  V30 2670 H 244.888 -6.41792 -1.13781 0
M  V30 2671 N 248.321 -0.919034 -1.28029 0
M  V30 2672 C 249.231 -0.416756 -2.30869 0
M  V30 2673 C 250.247 0.498235 -1.66714 0
M  V30 2674 O 251.423 0.383144 -1.97722 0
M  V30 2675 C 248.488 0.330274 -3.45123 0
M  V30 2676 C 247.549 -0.618578 -4.2482 0
M  V30 2677 C 246.782 0.0928959 -5.33619 0
M  V30 2678 O 247.005 1.31375 -5.55065 0
M  V30 2679 O 245.939 -0.574499 -5.99152 0
M  V30 2680 H 249.765 -1.27043 -2.75851 0
M  V30 2681 H 247.35 -0.684052 -1.3282 0
M  V30 2682 H 249.232 0.751972 -4.14636 0
M  V30 2683 H 247.907 1.1597 -3.02213 0
M  V30 2684 H 246.814 -1.08978 -3.57875 0
M  V30 2685 H 248.147 -1.41497 -4.71423 0
M  V30 2686 N 249.799 1.42003 -0.683588 0
M  V30 2687 C 251.047 2.01015 -0.209101 0
M  V30 2688 C 251.368 1.54365 1.19149 0
M  V30 2689 O 250.638 0.769083 1.80172 0
M  V30 2690 H 249.218 0.743294 -0.074315 0
M  V30 2691 H 251.88 1.73798 -0.882066 0
M  V30 2692 H 250.976 3.11343 -0.2172 0
M  V30 2693 N 251.277 0.427512 1.51691 0
M  V30 2694 C 252.224 -0.388867 2.275 0
M  V30 2695 C 253.194 -1.02532 1.30677 0
M  V30 2696 O 254.379 -1.0461 1.59566 0
M  V30 2697 C 251.519 -1.48954 3.11298 0
M  V30 2698 C 250.632 -0.872194 4.23104 0
M  V30 2699 C 249.767 -1.94709 4.94228 0
M  V30 2700 C 248.806 -1.30766 5.97969 0
M  V30 2701 N 247.943 -2.32349 6.62539 0
M  V30 2702 H 252.783 0.263997 2.96828 0
M  V30 2703 H 250.32 0.142033 1.46413 0
M  V30 2704 H 252.278 -2.13887 3.58201 0
M  V30 2705 H 250.908 -2.11217 2.44105 0
M  V30 2706 H 249.96 -0.111419 3.80237 0
M  V30 2707 H 251.272 -0.365264 4.97461 0
M  V30 2708 H 250.426 -2.67327 5.44629 0
M  V30 2709 H 249.165 -2.48773 4.1948 0
M  V30 2710 H 248.17 -0.566902 5.4687 0
M  V30 2711 H 249.395 -0.774483 6.74669 0
M  V30 2712 H 247.341 -2.85511 5.90609 0
M  V30 2713 H 247.258 -1.8652 7.3263 0
M  V30 2714 H 248.526 -3.04481 7.17574 0
M  V30 2715 N 252.755 -1.56801 0.158532 0
M  V30 2716 C 253.703 -2.18638 -0.793729 0
M  V30 2717 C 254.697 -1.14669 -1.24689 0
M  V30 2718 O 255.903 -1.32895 -1.21403 0
M  V30 2719 H 252.278 -0.700226 -0.274204 0
M  V30 2720 H 254.249 -2.97367 -0.248095 0
M  V30 2721 C 252.998 -2.83139 -2.0181 0
M  V30 2722 H 252.321 -3.62863 -1.67841 0
M  V30 2723 H 253.761 -3.29894 -2.66357 0
M  V30 2724 C 252.22 -1.82244 -2.83353 0
M  V30 2725 O 252.75 -1.3 -3.80083 0
M  V30 2726 N 250.956 -1.51288 -2.48114 0
M  V30 2727 H 250.503 -1.93964 -1.69516 0
M  V30 2728 H 250.461 -0.840296 -3.02963 0
M  V30 2729 N 254.233 0.115231 -1.57178 0
M  V30 2730 C 255.479 0.82357 -1.85325 0
M  V30 2731 C 255.812 1.79349 -0.744814 0
M  V30 2732 O 255.087 1.92899 0.249024 0
M  V30 2733 C 255.37 1.57014 -3.24066 0
M  V30 2734 C 255.223 0.619565 -4.45513 0
M  V30 2735 C 256.542 2.52545 -3.60429 0
M  V30 2736 H 253.661 0.297948 -0.674089 0
M  V30 2737 H 256.303 0.0877138 -1.89797 0
M  V30 2738 H 254.453 2.19742 -3.20383 0
M  V30 2739 H 256.125 0.000837639 -4.613 0
M  V30 2740 H 254.368 -0.0686174 -4.33746 0
M  V30 2741 H 255.039 1.17866 -5.3927 0
M  V30 2742 H 257.515 1.9992 -3.64926 0
M  V30 2743 H 256.391 3.01811 -4.58477 0
M  V30 2744 H 256.652 3.35383 -2.88047 0
M  V30 2745 N 255.711 1.52812 0.385517 0
M  V30 2746 C 256.96 1.67249 1.12741 0
M  V30 2747 C 257.273 0.4205 1.91027 0
M  V30 2748 O 258.479 0.445064 2.67827 0
M  V30 2749 C 256.935 2.95583 2.05326 0
M  V30 2750 C 256.543 4.27974 1.32447 0
M  V30 2751 C 258.287 3.19386 2.7963 0
M  V30 2752 C 256.194 5.47412 2.23818 0
M  V30 2753 H 255.124 0.6231 0.424573 0
M  V30 2754 H 257.775 1.79309 0.389924 0
M  V30 2755 H 256.157 2.77277 2.82725 0
M  V30 2756 H 257.331 4.56844 0.602495 0
M  V30 2757 H 255.646 4.10459 0.700885 0
M  V30 2758 H 258.243 4.05801 3.48181 0
M  V30 2759 H 258.586 2.34604 3.43899 0
M  V30 2760 H 259.119 3.38274 2.09322 0
M  V30 2761 H 255.858 6.34612 1.64157 0
M  V30 2762 H 255.378 5.22849 2.93921 0
M  V30 2763 H 257.057 5.81423 2.83824 0
M  V30 2764 N 257.189 -0.644168 1.43834 0
M  V30 2765 C 258.437 -1.40117 1.45642 0
M  V30 2766 C 258.758 -1.94814 0.0852413 0
M  V30 2767 O 258.028 -1.74988 -0.880688 0
M  V30 2768 H 256.608 -0.52005 0.536243 0
M  V30 2769 H 259.27 -0.7591 1.7951 0
M  V30 2770 H 258.366 -2.23902 2.17427 0
M  V30 2771 N 258.668 -1.30515 -0.883378 0
M  V30 2772 C 259.598 -1.19607 -2.00541 0
M  V30 2773 C 260.579 -0.086346 -1.69881 0
M  V30 2774 O 261.764 -0.268654 -1.92333 0
M  V30 2775 C 258.894 -0.888758 -3.35736 0
M  V30 2776 C 257.848 -1.95659 -3.8066 0
M  V30 2777 C 257.174 -1.50224 -5.13164 0
M  V30 2778 C 258.474 -3.36788 -3.99213 0
M  V30 2779 H 260.168 -2.13476 -2.09925 0
M  V30 2780 H 257.714 -1.02775 -1.00863 0
M  V30 2781 H 259.667 -0.799094 -4.13754 0
M  V30 2782 H 258.391 0.0856125 -3.26488 0
M  V30 2783 H 257.05 -2.03591 -3.04871 0
M  V30 2784 H 256.698 -0.516092 -5.00345 0
M  V30 2785 H 256.398 -2.2165 -5.44192 0
M  V30 2786 H 257.922 -1.42639 -5.93706 0
M  V30 2787 H 259.336 -3.31605 -4.67665 0
M  V30 2788 H 257.733 -4.06314 -4.41621 0
M  V30 2789 H 258.803 -3.78561 -3.03017 0
M  V30 2790 N 260.146 1.09593 -1.13257 0
M  V30 2791 C 261.078 2.16015 -0.766167 0
M  V30 2792 C 262.091 1.61423 0.211303 0
M  V30 2793 O 263.28 1.78498 -0.00863946 0
M  V30 2794 C 260.38 3.38706 -0.114662 0
M  V30 2795 C 259.553 4.22717 -1.12379 0
M  V30 2796 C 258.612 5.23835 -0.498301 0
M  V30 2797 O 257.638 5.573 -1.15781 0
M  V30 2798 N 258.84 5.75886 0.730417 0
M  V30 2799 H 261.605 2.48055 -1.68193 0
M  V30 2800 H 259.166 1.25292 -1.02535 0
M  V30 2801 H 261.158 4.03464 0.315991 0
M  V30 2802 H 259.728 3.04569 0.704011 0
M  V30 2803 H 258.948 3.54122 -1.73179 0
M  V30 2804 H 260.236 4.75673 -1.80589 0
M  V30 2805 H 259.634 5.50911 1.28504 0
M  V30 2806 H 258.191 6.42387 1.10376 0
M  V30 2807 N 261.624 0.925811 1.2754 0
M  V30 2808 C 262.557 0.367836 2.25216 0
M  V30 2809 C 263.535 -0.534738 1.53556 0
M  V30 2810 O 264.719 -0.475672 1.824 0
M  V30 2811 C 261.846 -0.47298 3.35381 0
M  V30 2812 C 260.892 0.365898 4.24928 0
M  V30 2813 S 261.725 1.78025 5.05042 0
M  V30 2814 C 262.881 0.947068 6.18693 0
M  V30 2815 H 263.114 1.19568 2.72196 0
M  V30 2816 H 260.647 0.727867 1.36167 0
M  V30 2817 H 262.605 -0.952242 3.99303 0
M  V30 2818 H 261.266 -1.27533 2.87044 0
M  V30 2819 H 260.459 -0.277582 5.03235 0
M  V30 2820 H 260.061 0.779261 3.65792 0
M  V30 2821 H 262.353 0.182201 6.77255 0
M  V30 2822 H 263.296 1.70309 6.87314 0
M  V30 2823 H 263.704 0.489913 5.6237 0
M  V30 2824 N 263.102 -1.41638 0.69111 0
M  V30 2825 C 264.35 -2.00902 0.219758 0
M  V30 2826 C 264.671 -1.54994 -1.18329 0
M  V30 2827 O 263.941 -0.778628 -1.79762 0
M  V30 2828 H 262.521 -0.74289 0.0782558 0
M  V30 2829 H 265.183 -1.73327 0.891271 0
M  V30 2830 H 264.279 -3.11224 0.233708 0
M  V30 2831 N 264.58 -0.43555 -1.51462 0
M  V30 2832 C 265.808 0.130242 -2.0649 0
M  V30 2833 C 266.223 1.36614 -1.30315 0
M  V30 2834 O 265.58 1.78869 -0.362223 0
M  V30 2835 C 265.631 0.454253 -3.58635 0
M  V30 2836 O 265.352 -0.73259 -4.31931 0
M  V30 2837 C 266.853 1.07091 -4.3017 0
M  V30 2838 H 264.073 0.00871669 -0.670943 0
M  V30 2839 H 266.617 -0.614117 -1.95061 0
M  V30 2840 H 264.772 1.14851 -3.69984 0
M  V30 2841 H 265.186 -0.455787 -5.22516 0
M  V30 2842 H 266.66 1.24764 -5.37716 0
M  V30 2843 H 267.137 2.05144 -3.88346 0
M  V30 2844 H 267.743 0.416089 -4.2326 0
M  V30 2845 N 266.058 1.56714 -0.166846 0
M  V30 2846 C 267.006 2.19056 0.782123 0
M  V30 2847 C 268 1.15328 1.24079 0
M  V30 2848 O 269.206 1.33537 1.20697 0
M  V30 2849 H 265.581 0.70167 0.270486 0
M  V30 2850 H 267.552 2.97494 0.232322 0
M  V30 2851 C 266.301 2.84206 2.00306 0
M  V30 2852 H 265.624 3.63748 1.65914 0
M  V30 2853 H 267.064 3.31302 2.64604 0
M  V30 2854 C 265.523 1.83744 2.82382 0
M  V30 2855 O 266.053 1.32014 3.79388 0
M  V30 2856 N 264.259 1.52601 2.47308 0
M  V30 2857 H 263.806 1.9486 1.68485 0
M  V30 2858 H 263.764 0.856351 3.02513 0
M  V30 2859 N 267.536 -0.106894 1.57237 0
M  V30 2860 C 268.952 -0.46078 1.52804 0
M  V30 2861 C 269.152 -1.81184 0.881746 0
M  V30 2862 O 268.208 -2.48102 0.469224 0
M  V30 2863 C 269.521 -0.434127 2.9755 0
M  V30 2864 C 271.069 -0.516821 3.08704 0
M  V30 2865 C 271.544 -0.520436 4.55033 0
M  V30 2866 N 273.035 -0.58153 4.59535 0
M  V30 2867 C 273.77 -0.605973 5.70189 0
M  V30 2868 N 273.266 -0.587331 6.90306 0
M  V30 2869 N 275.059 -0.649895 5.5833 0
M  V30 2870 H 267.21 0.778203 1.9763 0
M  V30 2871 H 269.473 0.288403 0.903066 0
M  V30 2872 H 269.179 0.491197 3.48253 0
M  V30 2873 H 269.053 -1.25748 3.55622 0
M  V30 2874 H 271.44 -1.43256 2.57995 0
M  V30 2875 H 271.521 0.334449 2.53604 0
M  V30 2876 H 271.165 0.391313 5.0639 0
M  V30 2877 H 271.095 -1.38876 5.07958 0
M  V30 2878 H 273.586 -0.60161 3.73081 0
M  V30 2879 H 273.899 -0.60894 7.70397 0
M  V30 2880 H 272.244 -0.554564 6.92784 0
M  V30 2881 H 275.435 -0.661907 4.63397 0
M  V30 2882 H 275.608 -0.665476 6.44574 0
M  V30 2883 N 269.014 -1.53014 -0.377408 0
M  V30 2884 C 270.262 -1.6829 -1.11906 0
M  V30 2885 C 270.583 -0.431206 -1.90173 0
M  V30 2886 O 269.853 0.554595 -1.87886 0
M  V30 2887 H 268.433 -0.620371 -0.416112 0
M  V30 2888 H 271.095 -1.90167 -0.426893 0
M  V30 2889 H 270.191 -2.53862 -1.8155 0
M  V30 2890 N 270.492 0.636531 -1.44174 0
M  V30 2891 C 271.455 1.73063 -1.50273 0
M  V30 2892 C 272.455 1.56113 -0.385397 0
M  V30 2893 O 273.645 1.61707 -0.64781 0
M  V30 2894 C 270.777 3.12096 -1.37145 0
M  V30 2895 H 271.97 1.69031 -2.47727 0
M  V30 2896 H 269.523 0.849706 -1.31186 0
M  V30 2897 H 270.258 3.21728 -0.407636 0
M  V30 2898 H 270.043 3.25805 -2.18159 0
M  V30 2899 H 271.533 3.91846 -1.44382 0
M  V30 2900 N 271.97 1.30982 0.876444 0
M  V30 2901 C 273.195 1.23373 1.66715 0
M  V30 2902 C 273.62 -0.19885 1.87046 0
M  V30 2903 O 272.978 -1.1427 1.40756 0
M  V30 2904 C 273.026 1.97644 3.01611 0
M  V30 2905 O 272.13 1.30935 3.91062 0
M  V30 2906 H 271.471 0.426279 0.509099 0
M  V30 2907 H 274.001 1.72944 1.09323 0
M  V30 2908 H 274.011 2.06992 3.51594 0
M  V30 2909 H 272.686 3.01829 2.86133 0
M  V30 2910 H 271.263 1.29996 3.49507 0
M  V30 2911 N 273.449 -1.08991 1.13837 0
M  V30 2912 C 274.381 -2.15606 0.777612 0
M  V30 2913 C 275.394 -1.61533 -0.202739 0
M  V30 2914 O 276.583 -1.78491 0.0181055 0
M  V30 2915 C 273.683 -3.3864 0.132623 0
M  V30 2916 C 272.856 -4.22115 1.1462 0
M  V30 2917 C 271.915 -5.23564 0.526074 0
M  V30 2918 O 270.941 -5.56678 1.18735 0
M  V30 2919 N 272.143 -5.76266 -0.699866 0
M  V30 2920 H 274.908 -2.47159 1.69506 0
M  V30 2921 H 272.469 -1.24747 1.03198 0
M  V30 2922 H 274.461 -4.03626 -0.29459 0
M  V30 2923 H 273.031 -3.04938 -0.687849 0
M  V30 2924 H 272.251 -3.53199 1.75055 0
M  V30 2925 H 273.539 -4.74709 1.83109 0
M  V30 2926 H 272.937 -5.51585 -1.25581 0
M  V30 2927 H 271.494 -6.42963 -1.06968 0
M  V30 2928 N 274.927 -0.932562 -1.27047 0
M  V30 2929 C 275.89 -0.440064 -2.24936 0
M  V30 2930 C 276.89 0.444071 -1.54547 0
M  V30 2931 O 278.08 0.244465 -1.72476 0
M  V30 2932 C 275.212 0.36678 -3.38921 0
M  V30 2933 H 276.405 -1.305 -2.70018 0
M  V30 2934 H 273.958 -0.713707 -1.39054 0
M  V30 2935 H 274.693 1.25033 -2.99228 0
M  V30 2936 H 274.478 -0.267204 -3.91188 0
M  V30 2937 H 275.968 0.701567 -4.11665 0
M  V30 2938 N 276.405 1.4127 -0.698611 0
M  V30 2939 C 277.653 2.00782 -0.230409 0
M  V30 2940 C 277.974 1.5562 1.17505 0
M  V30 2941 O 277.244 0.78815 1.79346 0
M  V30 2942 H 275.824 0.742464 -0.0821944 0
M  V30 2943 H 278.486 1.72852 -0.90045 0
M  V30 2944 H 277.582 3.11095 -0.25021 0
M  V30 2945 N 277.883 0.443576 1.51229 0
M  V30 2946 C 278.816 -0.410089 2.24485 0
M  V30 2947 C 279.794 -1.01949 1.26669 0
M  V30 2948 O 280.978 -1.06075 1.55821 0
M  V30 2949 C 278.105 -1.57211 3.00004 0
M  V30 2950 C 277.151 -1.08279 4.12526 0
M  V30 2951 S 277.984 -0.0197476 5.35496 0
M  V30 2952 C 279.14 -1.18629 6.14555 0
M  V30 2953 H 279.373 0.211832 2.96544 0
M  V30 2954 H 276.906 0.228156 1.52705 0
M  V30 2955 H 278.864 -2.23825 3.44111 0
M  V30 2956 H 277.525 -2.16547 2.27522 0
M  V30 2957 H 276.718 -1.95193 4.64667 0
M  V30 2958 H 276.32 -0.494797 3.70713 0
M  V30 2959 H 278.612 -2.10344 6.4402 0
M  V30 2960 H 279.555 -0.70472 7.04584 0
M  V30 2961 H 279.963 -1.42768 5.46148 0
M  V30 2962 N 279.361 -1.56624 0.175154 0
M  V30 2963 C 280.589 -2.01374 -0.474971 0
M  V30 2964 C 281.004 -1.05537 -1.56548 0
M  V30 2965 O 280.361 -0.0568668 -1.82411 0
M  V30 2966 C 280.412 -3.45923 -1.04975 0
M  V30 2967 O 280.133 -4.381 -0.00276605 0
M  V30 2968 C 281.634 -4.06093 -1.77773 0
M  V30 2969 H 278.854 -0.659962 -0.121206 0
M  V30 2970 H 281.398 -2.02601 0.27801 0
M  V30 2971 H 279.553 -3.45458 -1.75321 0
M  V30 2972 H 279.967 -5.22753 -0.427681 0
M  V30 2973 H 281.441 -5.09147 -2.13245 0
M  V30 2974 H 281.918 -3.48405 -2.67414 0
M  V30 2975 H 282.524 -4.10272 -1.12059 0
M  V30 2976 N 280.839 0.0985539 -1.57292 0
M  V30 2977 C 282.087 0.801092 -1.85545 0
M  V30 2978 C 282.408 1.79438 -0.763353 0
M  V30 2979 O 281.678 1.94763 0.21073 0
M  V30 2980 H 280.258 0.29884 -0.684619 0
M  V30 2981 H 282.92 0.0810064 -1.94732 0
M  V30 2982 H 282.016 1.3338 -2.82163 0
M  V30 2983 N 282.317 1.53212 0.369288 0
M  V30 2984 C 283.547 1.72868 1.13139 0
M  V30 2985 C 283.955 0.455754 1.83629 0
M  V30 2986 O 283.298 -0.580861 1.74275 0
M  V30 2987 C 283.36 2.83667 2.20847 0
M  V30 2988 C 283.024 4.24142 1.70155 0
M  V30 2989 C 284.021 5.06619 1.16763 0
M  V30 2990 C 281.706 4.70539 1.7578 0
M  V30 2991 C 283.7 6.33581 0.696678 0
M  V30 2992 C 281.387 5.97481 1.28297 0
M  V30 2993 C 282.385 6.78833 0.753307 0
M  V30 2994 O 282.073 8.03393 0.285475 0
M  V30 2995 H 281.805 0.581707 0.344373 0
M  V30 2996 H 284.359 2.00736 0.435243 0
M  V30 2997 H 282.589 2.51265 2.93944 0
M  V30 2998 H 284.278 2.91536 2.82421 0
M  V30 2999 H 285.044 4.71948 1.11758 0
M  V30 3000 H 280.923 4.07293 2.15949 0
M  V30 3001 H 284.467 6.97027 0.282581 0
M  V30 3002 H 280.364 6.31651 1.32994 0
M  V30 3003 H 281.132 8.17497 0.405145 0
M  V30 3004 N 283.795 -0.628877 1.44509 0
M  V30 3005 C 285.043 -1.38565 1.4712 0
M  V30 3006 C 285.364 -1.94712 0.105899 0
M  V30 3007 O 284.634 -1.75912 -0.862079 0
M  V30 3008 H 283.214 -0.514333 0.541729 0
M  V30 3009 H 285.876 -0.740018 1.80305 0
M  V30 3010 H 284.972 -2.21583 2.19789 0
M  V30 3011 N 285.273 -1.31445 -0.869486 0
M  V30 3012 C 286.206 -1.13465 -1.97992 0
M  V30 3013 C 287.184 -0.0380291 -1.62556 0
M  V30 3014 O 288.368 -0.194544 -1.87493 0
M  V30 3015 C 285.495 -0.733822 -3.30655 0
M  V30 3016 C 284.541 -1.83356 -3.85075 0
M  V30 3017 S 285.374 -3.43909 -4.10472 0
M  V30 3018 C 286.53 -3.05763 -5.46132 0
M  V30 3019 H 286.763 -2.07471 -2.1294 0
M  V30 3020 H 284.296 -1.15936 -1.01972 0
M  V30 3021 H 286.254 -0.509306 -4.07328 0
M  V30 3022 H 284.915 0.187123 -3.13542 0
M  V30 3023 H 284.108 -1.50574 -4.80982 0
M  V30 3024 H 283.71 -2.01315 -3.15195 0
M  V30 3025 H 286.002 -2.54686 -6.27807 0
M  V30 3026 H 286.945 -4.00635 -5.83864 0
M  V30 3027 H 287.353 -2.43192 -5.09429 0
M  V30 3028 N 286.751 1.08385 -1.14413 0
M  V30 3029 C 288.162 1.62258 -0.923535 0
M  V30 3030 C 288.513 1.88691 0.537595 0
M  V30 3031 O 287.638 1.64454 1.40655 0
M  V30 3032 C 288.233 2.94781 -1.67002 0
M  V30 3033 C 286.792 3.45437 -1.495 0
M  V30 3034 C 285.939 2.19668 -1.69238 0
M  V30 3035 H 288.89 0.916086 -1.2959 0
M  V30 3036 H 288.911 3.63229 -1.13334 0
M  V30 3037 H 288.423 2.7551 -2.73342 0
M  V30 3038 H 286.524 3.6981 -0.455097 0
M  V30 3039 H 286.637 4.22173 -2.2651 0
M  V30 3040 H 285.001 2.28849 -1.11804 0
M  V30 3041 H 285.784 2.02905 -2.7692 0
M  V30 3042 N 288.23 0.939286 1.26551 0
M  V30 3043 C 289.646 0.641304 1.46149 0
M  V30 3044 C 289.846 -0.805964 1.84679 0
M  V30 3045 O 288.902 -1.58278 1.96734 0
M  V30 3046 C 290.215 1.6011 2.54529 0
M  V30 3047 C 291.763 1.6106 2.68382 0
M  V30 3048 C 292.238 2.55765 3.79932 0
M  V30 3049 N 293.729 2.5404 3.87322 0
M  V30 3050 C 294.464 3.24004 4.73085 0
M  V30 3051 N 293.96 4.03388 5.63249 0
M  V30 3052 N 295.753 3.12965 4.66914 0
M  V30 3053 H 287.904 1.87478 0.998285 0
M  V30 3054 H 290.167 0.805559 0.499779 0
M  V30 3055 H 289.873 2.63412 2.33039 0
M  V30 3056 H 289.747 1.35171 3.52149 0
M  V30 3057 H 292.134 0.584835 2.89247 0
M  V30 3058 H 292.215 1.90053 1.71212 0
M  V30 3059 H 291.859 3.58458 3.5982 0
M  V30 3060 H 291.789 2.24063 4.76554 0
M  V30 3061 H 294.28 1.96396 3.22858 0
M  V30 3062 H 294.593 4.5373 6.25579 0
M  V30 3063 H 292.938 4.07489 5.63008 0
M  V30 3064 H 296.129 2.50432 3.95476 0
M  V30 3065 H 296.302 3.67759 5.33533 0
M  V30 3066 N 289.708 -1.40897 0.706093 0
M  V30 3067 C 290.64 -2.29199 0.00815776 0
M  V30 3068 C 291.653 -1.45336 -0.733582 0
M  V30 3069 O 292.842 -1.68727 -0.582537 0
M  V30 3070 C 289.942 -3.23417 -1.01265 0
M  V30 3071 C 289.115 -4.36089 -0.338387 0
M  V30 3072 C 288.174 -5.10811 -1.26326 0
M  V30 3073 O 287.2 -5.64215 -0.751651 0
M  V30 3074 N 288.402 -5.19269 -2.595 0
M  V30 3075 H 291.167 -2.89738 0.766297 0
M  V30 3076 H 288.728 -1.52164 0.55296 0
M  V30 3077 H 290.72 -3.70276 -1.63334 0
M  V30 3078 H 289.29 -2.64112 -1.67223 0
M  V30 3079 H 288.51 -3.91479 0.462352 0
M  V30 3080 H 289.798 -5.08634 0.130031 0
M  V30 3081 H 289.196 -4.77347 -3.03573 0
M  V30 3082 H 287.753 -5.69667 -3.16737 0
M  V30 3083 N 291.186 -0.45159 -1.50991 0
M  V30 3084 C 292.435 0.111653 -2.01391 0
M  V30 3085 C 292.748 1.42529 -1.33959 0
M  V30 3086 O 293.954 2.07232 -1.75405 0
M  V30 3087 C 292.41 0.249514 -3.59034 0
M  V30 3088 C 292.018 -1.05453 -4.35412 0
M  V30 3089 C 293.762 0.765762 -4.17536 0
M  V30 3090 C 291.669 -0.881529 -5.84793 0
M  V30 3091 H 290.599 0.0455022 -0.752626 0
M  V30 3092 H 293.25 -0.583524 -1.73975 0
M  V30 3093 H 291.632 1.00803 -3.82955 0
M  V30 3094 H 292.806 -1.82248 -4.23229 0
M  V30 3095 H 291.121 -1.50039 -3.88429 0
M  V30 3096 H 293.718 0.911913 -5.26866 0
M  V30 3097 H 294.061 1.75201 -3.77638 0
M  V30 3098 H 294.594 0.0651744 -3.97747 0
M  V30 3099 H 291.333 -1.84057 -6.29129 0
M  V30 3100 H 290.853 -0.153625 -5.99603 0
M  V30 3101 H 292.532 -0.540363 -6.4474 0
M  V30 3102 N 292.664 1.56529 -0.183458 0
M  V30 3103 C 293.594 2.21549 0.737456 0
M  V30 3104 C 294.575 1.17489 1.23005 0
M  V30 3105 O 295.76 1.45959 1.281 0
M  V30 3106 C 292.89 2.86575 1.96194 0
M  V30 3107 C 291.844 3.96778 1.60473 0
M  V30 3108 C 291.17 4.48911 2.90487 0
M  V30 3109 C 292.47 5.15767 0.823497 0
M  V30 3110 H 294.164 2.98761 0.195453 0
M  V30 3111 H 291.71 1.43702 0.0925686 0
M  V30 3112 H 293.663 3.30739 2.61131 0
M  V30 3113 H 292.387 2.06749 2.52828 0
M  V30 3114 H 291.046 3.53286 0.978997 0
M  V30 3115 H 290.694 3.65862 3.45186 0
M  V30 3116 H 290.394 5.23265 2.67335 0
M  V30 3117 H 291.918 4.95771 3.56432 0
M  V30 3118 H 293.332 5.56549 1.37571 0
M  V30 3119 H 291.729 5.96114 0.690551 0
M  V30 3120 H 292.799 4.84574 -0.177782 0
M  V30 3121 O 294.181 0.04597 1.61435 0
M  V30 3122 H 294.872 -0.564149 1.85303 0
M  V30 END ATOM
M  V30 BEGIN BOND
M  V30 END BOND
M  V30 END CTAB
M  END
$$$$
