drugbank_target|P62491 Ras-related protein Rab-11A (DB01864; DB04315)
 OpenBabel12092120553D

  0  0  0     0  0            999 V3000
M  V30 BEGIN CTAB
M  V30 COUNTS 3420 3448 0 0 0
M  V30 BEGIN ATOM
M  V30 1 H -0.908 1.98254 -0.117106 0
M  V30 2 N 0 1.576 0 0
M  V30 3 C 0.933 2.03868 1.02534 0
M  V30 4 C 1.911 0.928543 1.3348 0
M  V30 5 O 3.095 1.19667 1.45644 0
M  V30 6 C 0.222 2.43627 2.35294 0
M  V30 7 C -0.732 3.65373 2.2001 0
M  V30 8 S 0.101 5.13292 1.52614 0
M  V30 9 C 1.257 5.56322 2.86805 0
M  V30 10 H 1.49 2.90518 0.631377 0
M  V30 11 H -0.977 1.52953 0.210867 0
M  V30 12 H 0.981 2.67203 3.11629 0
M  V30 13 H -0.358 1.57376 2.7183 0
M  V30 14 H -1.165 3.90944 3.18086 0
M  V30 15 H -1.563 3.418 1.51819 0
M  V30 16 H 0.729 5.58782 3.83104 0
M  V30 17 H 1.672 6.56266 2.65933 0
M  V30 18 H 2.08 4.83886 2.90714 0
M  V30 19 N 1.4781 -0.272755 1.55222 0
M  V30 20 C 2.7261 -1.00234 1.75492 0
M  V30 21 C 3.0471 -1.8681 0.5592 0
M  V30 22 O 2.3171 -1.91215 -0.425882 0
M  V30 23 H 0.8971 -0.373076 0.647166 0
M  V30 24 H 3.5591 -0.296926 1.92625 0
M  V30 25 H 2.6551 -1.63913 2.65592 0
M  V30 26 N 2.9562 -1.48159 -0.537278 0
M  V30 27 C 4.1842 -1.59454 -1.31841 0
M  V30 28 C 4.5992 -0.252065 -1.8711 0
M  V30 29 O 3.9562 0.757621 -1.66031 0
M  V30 30 C 4.0072 -2.63546 -2.47439 0
M  V30 31 O 3.7282 -3.92583 -1.94449 0
M  V30 32 C 5.2292 -2.85212 -3.39366 0
M  V30 33 H 2.4492 -0.53785 -0.401196 0
M  V30 34 H 4.9932 -1.93932 -0.648891 0
M  V30 35 H 3.1482 -2.31946 -3.1029 0
M  V30 36 H 3.5622 -4.49629 -2.70063 0
M  V30 37 H 5.0362 -3.61863 -4.16844 0
M  V30 38 H 5.5132 -1.93765 -3.94147 0
M  V30 39 H 6.1192 -3.18086 -2.82314 0
M  V30 40 N 4.4343 0.785586 -1.36625 0
M  V30 41 C 5.8503 1.08419 -1.17122 0
M  V30 42 C 6.0503 2.015 0.00208491 0
M  V30 43 O 5.1063 2.43551 0.666278 0
M  V30 44 C 6.4193 1.69498 -2.48377 0
M  V30 45 C 7.9673 1.81821 -2.54775 0
M  V30 46 C 8.4423 2.46315 -3.86126 0
M  V30 47 N 9.9333 2.53779 -3.87492 0
M  V30 48 C 10.6683 3.045 -4.85868 0
M  V30 49 N 10.1643 3.55499 -5.94637 0
M  V30 50 N 11.9573 3.03247 -4.73284 0
M  V30 51 H 4.1083 0.167264 -2.1174 0
M  V30 52 H 6.3713 0.13682 -0.938075 0
M  V30 53 H 6.0773 1.08571 -3.34522 0
M  V30 54 H 5.9513 2.6896 -2.64462 0
M  V30 55 H 8.3383 2.41884 -1.69045 0
M  V30 56 H 8.4193 0.811532 -2.42586 0
M  V30 57 H 8.0633 1.86895 -4.72263 0
M  V30 58 H 7.9933 3.47561 -3.95612 0
M  V30 59 H 10.4843 2.17672 -3.08913 0
M  V30 60 H 10.7973 3.92562 -6.65669 0
M  V30 61 H 9.1423 3.5364 -5.98301 0
M  V30 62 H 12.3333 2.62696 -3.87438 0
M  V30 63 H 12.5063 3.42467 -5.50109 0
M  V30 64 N 5.9124 1.20967 1.01018 0
M  V30 65 C 7.1894 0.93264 1.71934 0
M  V30 66 C 7.5694 -0.55692 2.03621 0
M  V30 67 O 6.9174 -1.52035 1.7058 0
M  V30 68 C 7.1274 1.81233 2.98254 0
M  V30 69 C 8.4754 2.05804 3.71389 0
M  V30 70 O 9.4994 1.78539 3.08225 0
M  V30 71 O 8.3584 2.51888 4.84989 0
M  V30 72 H 5.4524 0.349272 0.749625 0
M  V30 73 H 7.9984 1.31871 1.06808 0
M  V30 74 H 6.7704 2.82067 2.71208 0
M  V30 75 H 6.3934 1.42674 3.7112 0
M  V30 76 N 7.3905 -1.2043 1.01659 0
M  V30 77 C 8.6675 -1.8548 0.621004 0
M  V30 78 C 9.0475 -1.9091 -0.900919 0
M  V30 79 O 8.3955 -1.41694 -1.79263 0
M  V30 80 C 8.6055 -3.25119 1.2688 0
M  V30 81 C 9.9535 -4.01403 1.38423 0
M  V30 82 O 10.9775 -3.34473 1.22501 0
M  V30 83 O 9.8365 -5.21265 1.64151 0
M  V30 84 H 6.9305 -0.798761 0.214266 0
M  V30 85 H 9.4765 -1.28019 1.11396 0
M  V30 86 H 8.2485 -3.15932 2.30873 0
M  V30 87 H 7.8715 -3.90212 0.762917 0
M  V30 88 N 8.8686 -0.792821 -1.36206 0
M  V30 89 C 9.7786 -0.194808 -2.3379 0
M  V30 90 C 10.7946 0.654869 -1.61206 0
M  V30 91 O 11.9706 0.569856 -1.9317 0
M  V30 92 C 9.0356 0.657721 -3.40404 0
M  V30 93 C 8.0966 -0.210849 -4.28782 0
M  V30 94 C 7.3296 0.601086 -5.30304 0
M  V30 95 O 7.5526 1.83682 -5.40016 0
M  V30 96 O 6.4866 -0.000808277 -6.019 0
M  V30 97 H 10.3126 -1.00172 -2.86704 0
M  V30 98 H 7.8976 -0.554341 -1.38735 0
M  V30 99 H 9.7796 1.14375 -4.05581 0
M  V30 100 H 8.4546 1.44247 -2.89784 0
M  V30 101 H 7.3616 -0.743714 -3.66633 0
M  V30 102 H 8.6946 -0.959195 -4.82763 0
M  V30 103 N 10.3467 1.47872 -0.545128 0
M  V30 104 C 11.5767 2.06589 -0.0210534 0
M  V30 105 C 11.9847 1.39997 1.27269 0
M  V30 106 O 11.3277 0.486421 1.77143 0
M  V30 107 C 11.3897 3.58574 0.257933 0
M  V30 108 C 11.0537 4.47132 -0.944573 0
M  V30 109 C 12.0507 4.85986 -1.84699 0
M  V30 110 C 9.7357 4.88821 -1.15584 0
M  V30 111 C 11.7297 5.65314 -2.94446 0
M  V30 112 C 9.4167 5.67916 -2.25642 0
M  V30 113 C 10.4147 6.06073 -3.14905 0
M  V30 114 O 10.1027 6.83578 -4.23057 0
M  V30 115 H 9.8347 0.674971 -0.0372899 0
M  V30 116 H 12.3887 1.91037 -0.754599 0
M  V30 117 H 10.6187 3.72295 1.04564 0
M  V30 118 H 12.3077 3.99356 0.72592 0
M  V30 119 H 13.0737 4.54388 -1.69577 0
M  V30 120 H 8.9527 4.58595 -0.470279 0
M  V30 121 H 12.4967 5.95016 -3.64145 0
M  V30 122 H 8.3937 5.98927 -2.40742 0
M  V30 123 H 9.1617 7.01954 -4.20954 0
M  V30 124 N 11.8248 0.280983 1.55075 0
M  V30 125 C 13.1018 -0.386207 1.91749 0
M  V30 126 C 13.4818 -1.73264 1.20594 0
M  V30 127 O 12.8298 -2.26034 0.334784 0
M  V30 128 C 13.0398 -0.520687 3.45094 0
M  V30 129 C 14.3878 -0.800865 4.16979 0
M  V30 130 O 15.4118 -0.605271 3.5102 0
M  V30 131 O 14.2708 -1.1753 5.33712 0
M  V30 132 H 11.3648 -0.212408 0.799257 0
M  V30 133 H 13.9108 0.327568 1.66509 0
M  V30 134 H 12.6828 0.426633 3.88967 0
M  V30 135 H 12.3058 -1.2837 3.76307 0
M  V30 136 N 13.3029 -1.57598 0.00835791 0
M  V30 137 C 14.5329 -1.94931 -0.684496 0
M  V30 138 C 14.9409 -0.882233 -1.67372 0
M  V30 139 O 14.2839 0.146621 -1.83114 0
M  V30 140 C 14.3459 -3.283 -1.4649 0
M  V30 141 C 14.0099 -4.52548 -0.63634 0
M  V30 142 C 15.0069 -5.19839 0.0795586 0
M  V30 143 C 12.6919 -4.98942 -0.579849 0
M  V30 144 C 14.6859 -6.3183 0.840843 0
M  V30 145 C 12.3729 -6.10819 0.185155 0
M  V30 146 C 13.3709 -6.77121 0.894227 0
M  V30 147 O 13.0589 -7.86853 1.64673 0
M  V30 148 H 12.7909 -0.647249 -0.19505 0
M  V30 149 H 15.3449 -2.05318 0.0581272 0
M  V30 150 H 13.5749 -3.14345 -2.2522 0
M  V30 151 H 15.2639 -3.50685 -2.04389 0
M  V30 152 H 16.0299 -4.84979 0.0451202 0
M  V30 153 H 11.9089 -4.47155 -1.1213 0
M  V30 154 H 15.4529 -6.83513 1.39483 0
M  V30 155 H 11.3499 -6.4512 0.221384 0
M  V30 156 H 12.1179 -8.03412 1.56432 0
M  V30 157 N 14.781 0.264519 -1.55364 0
M  V30 158 C 15.711 1.33121 -1.91836 0
M  V30 159 C 16.692 1.51101 -0.781192 0
M  V30 160 O 17.877 1.64003 -1.04003 0
M  V30 161 C 15.007 2.68921 -2.19769 0
M  V30 162 C 13.961 2.65661 -3.35571 0
M  V30 163 C 13.287 4.05093 -3.49004 0
M  V30 164 C 14.587 2.24187 -4.71739 0
M  V30 165 H 16.281 1.02844 -2.81182 0
M  V30 166 H 13.827 0.493286 -1.35287 0
M  V30 167 H 15.78 3.43663 -2.43872 0
M  V30 168 H 14.504 3.00799 -1.27231 0
M  V30 169 H 13.163 1.93377 -3.1145 0
M  V30 170 H 12.811 4.34206 -2.53917 0
M  V30 171 H 12.511 4.03804 -4.26868 0
M  V30 172 H 14.035 4.81561 -3.75408 0
M  V30 173 H 15.449 2.88654 -4.9533 0
M  V30 174 H 13.846 2.34044 -5.52579 0
M  V30 175 H 14.916 1.19327 -4.69988 0
M  V30 176 N 16.2591 1.48442 0.529413 0
M  V30 177 C 17.5061 1.56488 1.28521 0
M  V30 178 C 17.8341 0.239042 1.93025 0
M  V30 179 O 17.0891 -0.770713 1.79885 0
M  V30 180 C 17.3881 2.6523 2.39558 0
M  V30 181 C 17.0541 4.07648 1.92702 0
M  V30 182 C 15.7161 4.46411 1.79641 0
M  V30 183 C 18.0681 4.96896 1.573 0
M  V30 184 C 15.3961 5.72226 1.29514 0
M  V30 185 C 17.7481 6.23202 1.08636 0
M  V30 186 C 16.4121 6.60821 0.941919 0
M  V30 187 H 15.6821 0.572631 0.470292 0
M  V30 188 H 18.3291 1.82161 0.59072 0
M  V30 189 H 16.6341 2.33419 3.14679 0
M  V30 190 H 18.3311 2.68671 2.97686 0
M  V30 191 H 14.9211 3.77036 2.03819 0
M  V30 192 H 19.1051 4.67626 1.66251 0
M  V30 193 H 14.3611 6.00097 1.17019 0
M  V30 194 H 18.5351 6.91753 0.803136 0
M  V30 195 H 16.1621 7.58198 0.5513 0
M  V30 196 N 17.7372 -0.778329 1.37039 0
M  V30 197 C 18.6842 -1.89139 1.32269 0
M  V30 198 C 19.6542 -1.65017 0.189387 0
M  V30 199 O 20.8392 -1.87024 0.377693 0
M  V30 200 C 17.9792 -3.26112 1.12894 0
M  V30 201 C 17.0922 -3.62233 2.35396 0
M  V30 202 C 16.2272 -4.8838 2.08946 0
M  V30 203 C 15.2662 -5.17212 3.2735 0
M  V30 204 N 14.4032 -6.34546 3.00492 0
M  V30 205 H 19.2432 -1.92552 2.27437 0
M  V30 206 H 16.7802 -0.941473 1.13025 0
M  V30 207 H 18.7382 -4.05116 0.996835 0
M  V30 208 H 17.3682 -3.22091 0.213758 0
M  V30 209 H 16.4202 -2.78265 2.5937 0
M  V30 210 H 17.7322 -3.79481 3.23721 0
M  V30 211 H 16.8862 -5.75274 1.92729 0
M  V30 212 H 15.6252 -4.73222 1.17949 0
M  V30 213 H 14.6302 -4.28796 3.44113 0
M  V30 214 H 15.8552 -5.34283 4.19188 0
M  V30 215 H 13.8012 -6.20759 2.12118 0
M  V30 216 H 13.7182 -6.52179 3.82358 0
M  V30 217 H 14.9862 -7.24394 2.87879 0
M  V30 218 N 19.2153 -1.21501 -1.00376 0
M  V30 219 C 20.4613 -1.03452 -1.74429 0
M  V30 220 C 20.7943 0.430764 -1.89362 0
M  V30 221 O 20.0693 1.31962 -1.42886 0
M  V30 222 C 20.3523 -1.73375 -3.15615 0
M  V30 223 C 20.2053 -3.27431 -3.08397 0
M  V30 224 C 21.5243 -1.47732 -4.14564 0
M  V30 225 H 18.6433 -0.377226 -0.633143 0
M  V30 226 H 21.2853 -1.49693 -1.17013 0
M  V30 227 H 19.4353 -1.34064 -3.64636 0
M  V30 228 H 21.1073 -3.76119 -2.67081 0
M  V30 229 H 19.3503 -3.5767 -2.45468 0
M  V30 230 H 20.0213 -3.71524 -4.08258 0
M  V30 231 H 22.4973 -1.8186 -3.74254 0
M  V30 232 H 21.3733 -1.99169 -5.11491 0
M  V30 233 H 21.6343 -0.407589 -4.40217 0
M  V30 234 N 20.6934 1.19889 -1.02296 0
M  V30 235 C 21.9394 1.89701 -0.717033 0
M  V30 236 C 22.2724 1.7905 0.751989 0
M  V30 237 O 21.5474 1.17891 1.547 0
M  V30 238 C 21.8304 3.40858 -1.16136 0
M  V30 239 C 21.6834 3.60411 -2.69117 0
M  V30 240 C 23.0024 4.33876 -0.737549 0
M  V30 241 H 20.1214 0.688874 -0.261957 0
M  V30 242 H 22.7634 1.41154 -1.27183 0
M  V30 243 H 20.9134 3.82335 -0.689342 0
M  V30 244 H 22.5854 3.28145 -3.2422 0
M  V30 245 H 20.8284 3.03665 -3.0979 0
M  V30 246 H 21.4994 4.66396 -2.95261 0
M  V30 247 H 23.9754 4.00081 -1.14344 0
M  V30 248 H 22.8514 5.38242 -1.0764 0
M  V30 249 H 23.1124 4.40628 0.360436 0
M  V30 250 N 22.1715 0.800033 1.35784 0
M  V30 251 C 23.1015 0.220184 2.3246 0
M  V30 252 C 24.0825 -0.65073 1.57161 0
M  V30 253 O 25.2675 -0.582359 1.85263 0
M  V30 254 C 22.3975 -0.637353 3.41402 0
M  V30 255 C 21.3515 0.134531 4.27789 0
M  V30 256 C 20.6775 -0.844285 5.27992 0
M  V30 257 C 21.9775 1.32979 5.05088 0
M  V30 258 H 23.6715 1.02787 2.81203 0
M  V30 259 H 21.2175 0.495717 1.35199 0
M  V30 260 H 23.1705 -1.05302 4.08031 0
M  V30 261 H 21.8945 -1.47785 2.91251 0
M  V30 262 H 20.5535 0.531296 3.6273 0
M  V30 263 H 20.2015 -1.68011 4.74111 0
M  V30 264 H 19.9015 -0.332184 5.8666 0
M  V30 265 H 21.4255 -1.2583 5.97494 0
M  V30 266 H 22.8395 0.98934 5.64699 0
M  V30 267 H 21.2365 1.77593 5.7322 0
M  V30 268 H 22.3065 2.11978 4.36111 0
M  V30 269 N 23.6496 -1.47581 0.552962 0
M  V30 270 C 24.8986 -2.01684 0.0251995 0
M  V30 271 C 25.2116 -1.43317 -1.33115 0
M  V30 272 O 26.4176 -1.89057 -1.94858 0
M  V30 273 C 24.8736 -3.599 -0.00542052 0
M  V30 274 C 24.4816 -4.27257 1.34742 0
M  V30 275 C 26.2256 -4.21768 -0.4808 0
M  V30 276 C 24.1326 -5.77467 1.27614 0
M  V30 277 H 23.0626 -0.753979 0.00565033 0
M  V30 278 H 25.7136 -1.69616 0.70018 0
M  V30 279 H 24.0956 -3.88911 -0.745961 0
M  V30 280 H 25.2696 -4.09893 2.10534 0
M  V30 281 H 23.5846 -3.77358 1.76039 0
M  V30 282 H 26.1816 -5.31838 -0.55246 0
M  V30 283 H 26.5246 -3.88651 -1.49184 0
M  V30 284 H 27.0576 -3.97273 0.204752 0
M  V30 285 H 23.7966 -6.15196 2.26304 0
M  V30 286 H 23.3166 -5.9718 0.55996 0
M  V30 287 H 24.9956 -6.3959 0.976421 0
M  V30 288 N 25.1277 -0.289203 -1.54924 0
M  V30 289 C 26.3757 0.322879 -1.99504 0
M  V30 290 C 26.6967 1.55313 -1.1791 0
M  V30 291 O 25.9667 1.94001 -0.272097 0
M  V30 292 H 24.5467 0.122291 -0.736922 0
M  V30 293 H 27.2087 -0.397802 -1.90797 0
M  V30 294 H 26.3047 0.603061 -3.06218 0
M  V30 295 N 26.6058 1.57591 -0.0167156 0
M  V30 296 C 27.8828 1.82547 0.702564 0
M  V30 297 C 28.2628 0.898018 1.91047 0
M  V30 298 O 27.6108 -0.0493456 2.28447 0
M  V30 299 C 27.8208 3.31459 1.09251 0
M  V30 300 C 29.1688 3.97622 1.48937 0
M  V30 301 O 30.1928 3.35881 1.18584 0
M  V30 302 O 29.0518 5.06415 2.05442 0
M  V30 303 H 26.1458 0.752268 0.343544 0
M  V30 304 H 28.6918 1.69644 -0.0434495 0
M  V30 305 H 27.4638 3.9061 0.23227 0
M  V30 306 H 27.0868 3.49422 1.89709 0
M  V30 307 N 28.0839 -0.256276 1.55502 0
M  V30 308 C 29.3089 -1.00766 1.81276 0
M  V30 309 C 29.7339 -1.78524 0.59252 0
M  V30 310 O 29.0919 -1.75413 -0.45827 0
M  V30 311 C 29.1399 -1.92869 3.04687 0
M  V30 312 O 28.2439 -3.019 2.80945 0
M  V30 313 H 27.5849 -0.287224 0.598664 0
M  V30 314 H 30.1149 -0.280109 2.02674 0
M  V30 315 H 30.1249 -2.34511 3.33869 0
M  V30 316 H 28.7999 -1.35689 3.93143 0
M  V30 317 H 27.3769 -2.64454 2.62904 0
M  V30 318 N 29.562 -1.4872 -0.521534 0
M  V30 319 C 30.81 -1.56857 -1.27437 0
M  V30 320 C 31.131 -0.247982 -1.93417 0
M  V30 321 O 30.401 0.731151 -1.81744 0
M  V30 322 H 28.981 -0.577885 -0.473347 0
M  V30 323 H 31.643 -1.85233 -0.606205 0
M  V30 324 H 30.739 -2.35402 -2.0492 0
M  V30 325 N 31.0401 0.771051 -1.3745 0
M  V30 326 C 32.2861 1.5319 -1.32894 0
M  V30 327 C 32.6191 1.94008 0.0862511 0
M  V30 328 O 31.8941 1.64124 1.04373 0
M  V30 329 C 32.1771 2.79648 -2.26868 0
M  V30 330 C 32.0301 2.45079 -3.77169 0
M  V30 331 C 33.3491 3.81583 -2.19277 0
M  V30 332 H 30.4681 0.555744 -0.484064 0
M  V30 333 H 33.1101 0.884492 -1.68157 0
M  V30 334 H 31.2601 3.34891 -1.96926 0
M  V30 335 H 32.9321 1.95745 -4.1771 0
M  V30 336 H 31.1751 1.77767 -3.95704 0
M  V30 337 H 31.8461 3.35478 -4.38359 0
M  V30 338 H 34.3221 3.35835 -2.45671 0
M  V30 339 H 33.1981 4.67787 -2.87171 0
M  V30 340 H 33.4591 4.25897 -1.18592 0
M  V30 341 N 32.5182 1.22032 0.997298 0
M  V30 342 C 33.7662 1.04016 1.73278 0
M  V30 343 C 34.0872 -0.426255 1.90284 0
M  V30 344 O 33.3572 -1.30694 1.45931 0
M  V30 345 H 31.9372 0.381897 0.642 0
M  V30 346 H 34.5992 1.5347 1.20137 0
M  V30 347 H 33.6952 1.51441 2.72896 0
M  V30 348 N 33.9963 -1.19345 1.0293 0
M  V30 349 C 34.9433 -2.2258 0.610464 0
M  V30 350 C 35.9133 -1.6179 -0.375946 0
M  V30 351 O 37.0983 -1.88844 -0.272511 0
M  V30 352 C 34.2383 -3.45085 -0.0321473 0
M  V30 353 C 33.3513 -4.20258 1.00035 0
M  V30 354 C 32.4863 -5.3019 0.32746 0
M  V30 355 C 31.5253 -5.97121 1.34584 0
M  V30 356 N 30.6623 -6.98615 0.698726 0
M  V30 357 H 35.5023 -2.57764 1.49538 0
M  V30 358 H 33.0393 -1.26644 0.748311 0
M  V30 359 H 34.9973 -4.15061 -0.421966 0
M  V30 360 H 33.6273 -3.10555 -0.88064 0
M  V30 361 H 32.6793 -3.49223 1.50823 0
M  V30 362 H 33.9913 -4.66175 1.77433 0
M  V30 363 H 33.1453 -6.06587 -0.11718 0
M  V30 364 H 31.8843 -4.85345 -0.478713 0
M  V30 365 H 30.8893 -5.19474 1.80074 0
M  V30 366 H 32.1143 -6.4405 2.15352 0
M  V30 367 H 30.0603 -6.55942 -0.0873471 0
M  V30 368 H 29.9773 -7.42724 1.41058 0
M  V30 369 H 31.2453 -7.79004 0.278102 0
M  V30 370 N 35.4744 -0.807222 -1.35358 0
M  V30 371 C 36.6994 -0.399309 -2.0352 0
M  V30 372 C 37.1244 0.981986 -1.60433 0
M  V30 373 O 36.4824 1.63601 -0.781299 0
M  V30 374 C 36.5304 -0.491552 -3.57234 0
M  V30 375 O 35.6344 0.494754 -4.09421 0
M  V30 376 H 34.9754 -0.166682 -0.642739 0
M  V30 377 H 37.5054 -1.09328 -1.72941 0
M  V30 378 H 37.5154 -0.361588 -4.06395 0
M  V30 379 H 36.1904 -1.49907 -3.87944 0
M  V30 380 H 34.7674 0.324977 -3.71481 0
M  V30 381 N 36.9525 1.47285 -0.560781 0
M  V30 382 C 37.9005 2.31756 0.197942 0
M  V30 383 C 38.8945 1.43146 0.905854 0
M  V30 384 O 40.1005 1.59891 0.826733 0
M  V30 385 H 36.4755 0.747438 0.0827049 0
M  V30 386 H 38.4465 2.9359 -0.533629 0
M  V30 387 C 37.1955 3.25874 1.21249 0
M  V30 388 H 36.5185 3.94023 0.67719 0
M  V30 389 H 37.9585 3.87803 1.71419 0
M  V30 390 C 36.4175 2.49651 2.26221 0
M  V30 391 O 36.9475 2.24355 3.33208 0
M  V30 392 N 35.1535 2.10597 2.00243 0
M  V30 393 H 34.7005 2.31369 1.13252 0
M  V30 394 H 34.6585 1.59913 2.70694 0
M  V30 395 N 38.4306 0.297415 1.54768 0
M  V30 396 C 39.3606 -0.573494 2.26348 0
M  V30 397 C 40.3416 -1.14085 1.26169 0
M  V30 398 O 41.5266 -1.17086 1.54934 0
M  V30 399 C 38.6566 -1.74716 3.00153 0
M  V30 400 C 37.6106 -1.31032 4.07449 0
M  V30 401 C 36.9366 -2.56887 4.68949 0
M  V30 402 C 38.2366 -0.444183 5.20408 0
M  V30 403 H 39.9306 0.0235131 2.99391 0
M  V30 404 H 37.4766 0.0127488 1.43994 0
M  V30 405 H 39.4296 -2.3625 3.48947 0
M  V30 406 H 38.1536 -2.37035 2.24682 0
M  V30 407 H 36.8126 -0.718066 3.59499 0
M  V30 408 H 36.4606 -3.17512 3.90122 0
M  V30 409 H 36.1606 -2.2836 5.41411 0
M  V30 410 H 37.6846 -3.19229 5.20505 0
M  V30 411 H 39.0986 -0.9651 5.65118 0
M  V30 412 H 37.4956 -0.252846 5.99567 0
M  V30 413 H 38.5656 0.531609 4.81977 0
M  V30 414 N 39.9087 -1.5758 0.0250728 0
M  V30 415 C 40.8387 -2.13007 -0.956575 0
M  V30 416 C 41.8197 -1.0452 -1.342 0
M  V30 417 O 43.0047 -1.32332 -1.42133 0
M  V30 418 C 40.1347 -2.65386 -2.24026 0
M  V30 419 C 39.0887 -3.78623 -1.99571 0
M  V30 420 C 38.4147 -4.17414 -3.3417 0
M  V30 421 C 39.7147 -5.04867 -1.33814 0
M  V30 422 H 41.4087 -2.9528 -0.494991 0
M  V30 423 H 38.9547 -1.42042 -0.236651 0
M  V30 424 H 40.9077 -3.02794 -2.93076 0
M  V30 425 H 39.6317 -1.80268 -2.72343 0
M  V30 426 H 38.2907 -3.41646 -1.32941 0
M  V30 427 H 37.9387 -3.29284 -3.80238 0
M  V30 428 H 37.6387 -4.93719 -3.18615 0
M  V30 429 H 39.1627 -4.57402 -4.04495 0
M  V30 430 H 40.5767 -5.39888 -1.92857 0
M  V30 431 H 38.9737 -5.86144 -1.28669 0
M  V30 432 H 40.0437 -4.83904 -0.310561 0
M  V30 433 N 41.3868 0.248026 -1.55636 0
M  V30 434 C 42.6118 0.998028 -1.81808 0
M  V30 435 C 43.0368 1.78207 -0.601979 0
M  V30 436 O 42.3948 1.75653 0.448961 0
M  V30 437 C 42.4428 1.9125 -3.05705 0
M  V30 438 O 41.5468 3.00406 -2.82542 0
M  V30 439 H 40.8878 0.284045 -0.600179 0
M  V30 440 H 43.4178 0.269357 -2.02819 0
M  V30 441 H 43.4278 2.32737 -3.35108 0
M  V30 442 H 42.1028 1.33602 -3.93857 0
M  V30 443 H 40.6798 2.63056 -2.64303 0
M  V30 444 N 42.8649 1.48995 0.513639 0
M  V30 445 C 44.2809 1.35478 0.843682 0
M  V30 446 C 44.4809 0.378213 1.97919 0
M  V30 447 O 43.5369 -0.194689 2.51748 0
M  V30 448 C 44.8499 2.75901 1.1958 0
M  V30 449 C 46.3979 2.84509 1.30474 0
M  V30 450 C 46.8729 4.25671 1.69021 0
M  V30 451 N 48.3639 4.28422 1.76094 0
M  V30 452 C 49.0989 5.34601 2.07338 0
M  V30 453 N 48.5949 6.5104 2.36894 0
M  V30 454 N 50.3879 5.22007 2.08483 0
M  V30 455 H 42.5389 2.11092 -0.235328 0
M  V30 456 H 44.8019 0.947039 -0.0426669 0
M  V30 457 H 44.5079 3.49001 0.434913 0
M  V30 458 H 44.3819 3.10467 2.1422 0
M  V30 459 H 46.7689 2.11655 2.05637 0
M  V30 460 H 46.8499 2.53542 0.339155 0
M  V30 461 H 46.4939 4.99048 0.944135 0
M  V30 462 H 46.4239 4.54094 2.66658 0
M  V30 463 H 48.9149 3.44441 1.55464 0
M  V30 464 H 49.2279 7.2779 2.59887 0
M  V30 465 H 47.5729 6.54287 2.34378 0
M  V30 466 H 50.7639 4.30051 1.84861 0
M  V30 467 H 50.9369 6.04854 2.325 0
M  V30 468 N 44.343 -0.763751 1.37857 0
M  V30 469 C 45.59 -1.52257 1.33506 0
M  V30 470 C 45.918 -1.94343 -0.078022 0
M  V30 471 O 45.173 -1.64958 -1.05297 0
M  V30 472 C 45.472 -2.79499 2.22745 0
M  V30 473 C 45.138 -2.56426 3.70886 0
M  V30 474 C 43.8 -2.49842 4.11257 0
M  V30 475 C 46.152 -2.36008 4.64704 0
M  V30 476 C 43.48 -2.20841 5.43549 0
M  V30 477 C 45.832 -2.0853 5.97242 0
M  V30 478 C 44.496 -2.00396 6.36709 0
M  V30 479 H 43.766 -0.557149 0.488534 0
M  V30 480 H 46.413 -0.879073 1.70131 0
M  V30 481 H 44.718 -3.48447 1.79142 0
M  V30 482 H 46.415 -3.37413 2.16688 0
M  V30 483 H 43.005 -2.62416 3.38874 0
M  V30 484 H 47.189 -2.40079 4.34368 0
M  V30 485 H 42.445 -2.13045 5.73081 0
M  V30 486 H 46.619 -1.91732 6.69486 0
M  V30 487 H 44.246 -1.77688 7.39142 0
M  V30 488 N 45.8211 -1.22559 -0.990812 0
M  V30 489 C 47.0491 -1.07779 -1.76611 0
M  V30 490 C 47.4641 0.371513 -1.85109 0
M  V30 491 O 46.8211 1.25737 -1.32274 0
M  V30 492 C 46.8721 -1.68512 -3.19822 0
M  V30 493 O 46.5931 -3.07774 -3.1178 0
M  V30 494 C 48.0941 -1.59035 -4.13791 0
M  V30 495 H 45.3141 -0.377729 -0.554583 0
M  V30 496 H 47.8581 -1.62195 -1.24551 0
M  V30 497 H 46.0131 -1.18154 -3.68942 0
M  V30 498 H 46.4271 -3.37062 -4.01858 0
M  V30 499 H 47.9011 -2.0625 -5.1202 0
M  V30 500 H 48.3781 -0.547273 -4.35777 0
M  V30 501 H 48.9841 -2.08709 -3.70568 0
M  V30 502 N 47.2992 1.18797 -1.03562 0
M  V30 503 C 48.7152 1.40671 -0.753917 0
M  V30 504 C 48.9152 1.9043 0.658686 0
M  V30 505 O 47.9712 2.08538 1.42366 0
M  V30 506 C 49.2842 2.41192 -1.79574 0
M  V30 507 C 50.8322 2.54928 -1.81606 0
M  V30 508 C 51.3072 3.58709 -2.84766 0
M  V30 509 N 52.7982 3.66212 -2.83625 0
M  V30 510 C 53.5332 4.46225 -3.60098 0
M  V30 511 N 53.0292 5.29888 -4.46308 0
M  V30 512 N 54.8222 4.40939 -3.4861 0
M  V30 513 H 46.9732 0.848221 -1.94728 0
M  V30 514 H 49.2362 0.435081 -0.842264 0
M  V30 515 H 48.9422 2.11669 -2.80872 0
M  V30 516 H 48.8162 3.40467 -1.62365 0
M  V30 517 H 51.2032 2.83771 -0.809817 0
M  V30 518 H 51.2842 1.55784 -2.02891 0
M  V30 519 H 50.9282 3.30607 -3.85566 0
M  V30 520 H 50.8582 4.57519 -2.60737 0
M  V30 521 H 53.3492 3.06466 -2.21105 0
M  V30 522 H 53.6622 5.88078 -5.01382 0
M  V30 523 H 52.0072 5.29326 -4.50377 0
M  V30 524 H 55.1982 3.74624 -2.80668 0
M  V30 525 H 55.3712 5.03056 -4.08459 0
M  V30 526 N 48.7773 0.814389 1.34928 0
M  V30 527 C 49.7253 0.218424 2.31572 0
M  V30 528 C 50.7193 -0.636128 1.57002 0
M  V30 529 O 51.9253 -0.52842 1.72069 0
M  V30 530 H 48.3003 0.0518799 0.750208 0
M  V30 531 H 50.2713 1.04852 2.79372 0
M  V30 532 C 49.0203 -0.61207 3.4227 0
M  V30 533 H 48.3433 0.0361578 3.99784 0
M  V30 534 H 49.7833 -0.995317 4.12152 0
M  V30 535 C 48.2423 -1.78087 2.85984 0
M  V30 536 O 48.7723 -2.8787 2.80168 0
M  V30 537 N 46.9783 -1.59488 2.42924 0
M  V30 538 H 46.5253 -0.701874 2.47854 0
M  V30 539 H 46.4833 -2.37846 2.05613 0
M  V30 540 N 50.2554 -1.46986 0.568584 0
M  V30 541 C 51.1654 -2.33942 -0.17555 0
M  V30 542 C 52.1814 -1.48891 -0.90041 0
M  V30 543 O 53.3574 -1.81794 -0.86676 0
M  V30 544 C 50.4224 -3.25811 -1.18524 0
M  V30 545 C 49.4834 -4.26757 -0.466582 0
M  V30 546 C 48.7164 -5.14236 -1.42817 0
M  V30 547 O 48.9394 -5.04379 -2.66379 0
M  V30 548 O 47.8734 -5.94412 -0.946453 0
M  V30 549 H 51.6994 -2.98896 0.538036 0
M  V30 550 H 49.2844 -1.4573 0.329097 0
M  V30 551 H 51.1664 -3.82527 -1.76779 0
M  V30 552 H 49.8414 -2.63471 -1.88055 0
M  V30 553 H 48.7484 -3.73769 0.157451 0
M  V30 554 H 50.0814 -4.91843 0.187485 0
M  V30 555 N 51.7335 -0.305618 -1.54608 0
M  V30 556 C 52.9805 0.302298 -2.00231 0
M  V30 557 C 53.3085 1.5354 -1.19398 0
M  V30 558 O 52.5635 1.93973 -0.259423 0
M  V30 559 C 52.8625 0.698983 -3.50498 0
M  V30 560 C 52.5285 -0.432903 -4.48817 0
M  V30 561 C 51.1905 -0.743622 -4.75419 0
M  V30 562 C 53.5425 -1.19409 -5.07337 0
M  V30 563 C 50.8705 -1.81857 -5.57804 0
M  V30 564 C 53.2225 -2.25899 -5.90891 0
M  V30 565 C 51.8865 -2.57572 -6.15803 0
M  V30 566 H 51.1565 0.110619 -0.732697 0
M  V30 567 H 53.8035 -0.425674 -1.86709 0
M  V30 568 H 52.1085 1.50711 -3.61654 0
M  V30 569 H 53.8055 1.1806 -3.83227 0
M  V30 570 H 50.3955 -0.18063 -4.28219 0
M  V30 571 H 54.5795 -0.967295 -4.86782 0
M  V30 572 H 49.8355 -2.06864 -5.75341 0
M  V30 573 H 54.0095 -2.85335 -6.35261 0
M  V30 574 H 51.6365 -3.40998 -6.7943 0
M  V30 575 N 53.2116 1.57565 -0.0334293 0
M  V30 576 C 54.1596 2.1164 0.96496 0
M  V30 577 C 55.1536 1.04398 1.33407 0
M  V30 578 O 56.3596 1.22828 1.3158 0
M  V30 579 H 52.7346 0.676222 0.32898 0
M  V30 580 H 54.7056 2.94455 0.483614 0
M  V30 581 C 53.4546 2.66207 2.23672 0
M  V30 582 H 52.7776 3.48378 1.96145 0
M  V30 583 H 54.2176 3.07685 2.9173 0
M  V30 584 C 52.6766 1.59151 2.96939 0
M  V30 585 O 53.2066 0.993858 3.89211 0
M  V30 586 N 51.4126 1.31093 2.59351 0
M  V30 587 H 50.9596 1.7988 1.84393 0
M  V30 588 H 50.9176 0.596889 3.08682 0
M  V30 589 N 54.6897 -0.239769 1.55765 0
M  V30 590 C 55.6197 -1.30052 1.9393 0
M  V30 591 C 56.6007 -1.49839 0.805132 0
M  V30 592 O 57.7857 -1.62328 1.06599 0
M  V30 593 C 54.9157 -2.65391 2.2402 0
M  V30 594 C 53.8697 -2.60289 3.39755 0
M  V30 595 C 53.1957 -3.99489 3.55405 0
M  V30 596 C 54.4957 -2.16654 4.75246 0
M  V30 597 H 56.1897 -0.983573 2.82783 0
M  V30 598 H 53.7357 -0.471701 1.36055 0
M  V30 599 H 55.6887 -3.3974 2.49308 0
M  V30 600 H 54.4127 -2.98736 1.32 0
M  V30 601 H 53.0717 -1.88398 3.14487 0
M  V30 602 H 52.7197 -4.30112 2.60793 0
M  V30 603 H 52.4197 -3.96962 4.33238 0
M  V30 604 H 53.9437 -4.75528 3.83022 0
M  V30 605 H 55.3577 -2.80737 4.99859 0
M  V30 606 H 53.7547 -2.25223 5.56232 0
M  V30 607 H 54.8247 -1.11835 4.71827 0
M  V30 608 N 56.1678 -1.49265 -0.50573 0
M  V30 609 C 57.0778 -1.68312 -1.63427 0
M  V30 610 C 58.0938 -0.565682 -1.64548 0
M  V30 611 O 59.2698 -0.839801 -1.83055 0
M  V30 612 C 56.3348 -1.74107 -2.99813 0
M  V30 613 C 55.3958 -2.97653 -3.09356 0
M  V30 614 C 54.6288 -3.03163 -4.39236 0
M  V30 615 O 54.8518 -2.16396 -5.27758 0
M  V30 616 O 53.7858 -3.9558 -4.53652 0
M  V30 617 H 57.6118 -2.63907 -1.50289 0
M  V30 618 H 55.1968 -1.32951 -0.681502 0
M  V30 619 H 57.0788 -1.803 -3.80881 0
M  V30 620 H 55.7538 -0.816901 -3.13223 0
M  V30 621 H 54.6608 -2.96981 -2.27493 0
M  V30 622 H 55.9938 -3.89535 -3.00871 0
M  V30 623 N 57.6459 0.756429 -1.3826 0
M  V30 624 C 58.8709 1.55077 -1.37717 0
M  V30 625 C 59.2959 1.88073 0.03164 0
M  V30 626 O 58.6539 1.50364 1.01293 0
M  V30 627 C 58.7019 2.8283 -2.23695 0
M  V30 628 O 57.8059 3.77862 -1.6521 0
M  V30 629 H 57.1469 0.469152 -0.469885 0
M  V30 630 H 59.6769 0.935019 -1.81985 0
M  V30 631 H 59.6869 3.31783 -2.37453 0
M  V30 632 H 58.3619 2.58144 -3.2609 0
M  V30 633 H 56.9389 3.36555 -1.60578 0
M  V30 634 N 59.124 1.23083 0.984299 0
M  V30 635 C 60.071 1.00854 2.07598 0
M  V30 636 C 61.041 -0.0726709 1.65941 0
M  V30 637 O 62.226 0.0786535 1.90638 0
M  V30 638 C 59.366 0.601645 3.39815 0
M  V30 639 C 58.479 1.75456 3.94765 0
M  V30 640 C 57.614 1.29482 5.15177 0
M  V30 641 C 56.653 2.41873 5.62284 0
M  V30 642 N 55.79 1.96885 6.73929 0
M  V30 643 H 60.63 1.943 2.25946 0
M  V30 644 H 58.167 0.968001 1.10762 0
M  V30 645 H 60.125 0.346854 4.15756 0
M  V30 646 H 58.755 -0.295803 3.21442 0
M  V30 647 H 57.807 2.12346 3.15616 0
M  V30 648 H 59.119 2.59965 4.25699 0
M  V30 649 H 58.273 0.997923 5.98437 0
M  V30 650 H 57.012 0.420046 4.85888 0
M  V30 651 H 56.017 2.72342 4.77608 0
M  V30 652 H 57.242 3.29881 5.93595 0
M  V30 653 H 55.188 1.11782 6.46406 0
M  V30 654 H 55.105 2.74956 7.04227 0
M  V30 655 H 56.373 1.70289 7.60672 0
M  V30 656 N 60.6021 -1.18246 1.0419 0
M  V30 657 C 61.8271 -1.92736 0.765996 0
M  V30 658 C 62.2521 -1.75728 -0.67091 0
M  V30 659 O 61.6101 -1.06825 -1.46486 0
M  V30 660 C 61.6581 -3.42148 1.13875 0
M  V30 661 O 60.7621 -4.11548 0.264954 0
M  V30 662 H 60.1031 -0.601238 0.281797 0
M  V30 663 H 62.6331 -1.49942 1.39207 0
M  V30 664 H 62.6431 -3.92858 1.1012 0
M  V30 665 H 61.3181 -3.53848 2.18551 0
M  V30 666 H 59.8951 -3.71137 0.362226 0
M  V30 667 N 62.0802 -0.821533 -1.34494 0
M  V30 668 C 63.3082 -0.421884 -2.02553 0
M  V30 669 C 63.7232 0.971745 -1.61872 0
M  V30 670 O 63.0802 1.62864 -0.823496 0
M  V30 671 C 63.1312 -0.51285 -3.57844 0
M  V30 672 O 62.8522 -1.85155 -3.97051 0
M  V30 673 C 64.3532 -0.107921 -4.43169 0
M  V30 674 H 61.5732 -0.169482 -0.649243 0
M  V30 675 H 64.1172 -1.1093 -1.71798 0
M  V30 676 H 62.2722 0.126474 -3.87193 0
M  V30 677 H 62.6862 -1.82482 -4.91732 0
M  V30 678 H 64.1602 -0.222657 -5.51551 0
M  V30 679 H 64.6372 0.948401 -4.28838 0
M  V30 680 H 65.2432 -0.720989 -4.19144 0
M  V30 681 N 63.5583 1.46682 -0.576371 0
M  V30 682 C 64.8073 2.01619 -0.0572825 0
M  V30 683 C 65.1203 1.45417 1.30818 0
M  V30 684 O 66.3263 1.92133 1.91825 0
M  V30 685 C 64.7823 3.59863 -0.0518371 0
M  V30 686 C 64.3903 4.25059 -1.41523 0
M  V30 687 C 66.1343 4.2248 0.413639 0
M  V30 688 C 64.0413 5.75364 -1.36785 0
M  V30 689 H 62.9713 0.753794 -0.0176448 0
M  V30 690 H 65.6223 1.68481 -0.727076 0
M  V30 691 H 64.0043 3.90048 0.683994 0
M  V30 692 H 65.1783 4.06491 -2.17029 0
M  V30 693 H 63.4933 3.7451 -1.8202 0
M  V30 694 H 66.0903 5.3265 0.467779 0
M  V30 695 H 66.4333 3.90976 1.42982 0
M  V30 696 H 66.9663 3.96897 -0.267929 0
M  V30 697 H 63.7053 6.11518 -2.36063 0
M  V30 698 H 63.2253 5.96214 -0.654895 0
M  V30 699 H 64.9043 6.37955 -1.07805 0
M  V30 700 N 65.0364 0.313813 1.54444 0
M  V30 701 C 66.2844 -0.291099 1.99993 0
M  V30 702 C 66.6054 -1.53418 1.20366 0
M  V30 703 O 65.8754 -1.93544 0.302927 0
M  V30 704 H 64.4554 -0.110552 0.738774 0
M  V30 705 H 67.1174 0.428106 1.9014 0
M  V30 706 H 66.2134 -0.554268 3.07139 0
M  V30 707 N 66.5145 -1.57545 0.0417849 0
M  V30 708 C 67.7605 -1.92601 -0.635021 0
M  V30 709 C 68.0935 -0.919627 -1.71045 0
M  V30 710 O 67.3685 0.0557892 -1.9442 0
M  V30 711 C 67.6515 -3.38085 -1.23979 0
M  V30 712 C 67.5045 -4.49467 -0.173057 0
M  V30 713 C 68.8235 -3.83776 -2.15416 0
M  V30 714 H 65.9425 -0.700397 -0.229374 0
M  V30 715 H 68.5845 -1.89728 0.101633 0
M  V30 716 H 66.7345 -3.40664 -1.86762 0
M  V30 717 H 68.4065 -4.59018 0.458312 0
M  V30 718 H 66.6495 -4.30909 0.499996 0
M  V30 719 H 67.3205 -5.48323 -0.636054 0
M  V30 720 H 69.7965 -3.83013 -1.62605 0
M  V30 721 H 68.6725 -4.8624 -2.54679 0
M  V30 722 H 68.9335 -3.19998 -3.05047 0
M  V30 723 N 67.9926 0.231505 -1.5589 0
M  V30 724 C 68.9026 1.308 -1.94752 0
M  V30 725 C 69.9186 1.51826 -0.849989 0
M  V30 726 O 71.0946 1.6515 -1.15271 0
M  V30 727 C 68.1596 2.63968 -2.24771 0
M  V30 728 C 67.2206 2.51331 -3.48039 0
M  V30 729 C 66.4536 3.78148 -3.76616 0
M  V30 730 O 66.6766 4.80722 -3.07022 0
M  V30 731 O 65.6106 3.75857 -4.70123 0
M  V30 732 H 69.4366 1.0083 -2.86474 0
M  V30 733 H 67.0216 0.433547 -1.42971 0
M  V30 734 H 68.9036 3.42633 -2.45318 0
M  V30 735 H 67.5786 2.9364 -1.36225 0
M  V30 736 H 66.4856 1.709 -3.32782 0
M  V30 737 H 67.8186 2.26601 -4.36936 0
M  V30 738 N 69.4707 1.49531 0.497807 0
M  V30 739 C 70.7177 1.59179 1.25173 0
M  V30 740 C 71.0457 0.279932 1.92475 0
M  V30 741 O 70.3007 -0.732383 1.81479 0
M  V30 742 C 70.5997 2.70252 2.33878 0
M  V30 743 C 70.2657 4.11644 1.84012 0
M  V30 744 C 68.9277 4.50121 1.70132 0
M  V30 745 C 71.2797 5.00121 1.46725 0
M  V30 746 C 68.6077 5.74845 1.17348 0
M  V30 747 C 70.9597 6.25366 0.95392 0
M  V30 748 C 69.6237 6.6267 0.801538 0
M  V30 749 H 68.8937 0.582478 0.45804 0
M  V30 750 H 71.5407 1.83373 0.551948 0
M  V30 751 H 69.8457 2.40041 3.09657 0
M  V30 752 H 71.5427 2.74925 2.9192 0
M  V30 753 H 68.1327 3.81274 1.95775 0
M  V30 754 H 72.3167 4.71048 1.56294 0
M  V30 755 H 67.5727 6.02444 1.04264 0
M  V30 756 H 71.7467 6.93301 0.656225 0
M  V30 757 H 69.3737 7.59197 0.390351 0
M  V30 758 N 70.9488 -0.749086 1.3866 0
M  V30 759 C 71.9118 -1.84457 1.36045 0
M  V30 760 C 72.9118 -1.58682 0.260122 0
M  V30 761 O 74.1018 -1.66343 0.517261 0
M  V30 762 C 71.2338 -3.22008 1.11911 0
M  V30 763 H 72.4268 -1.88182 2.33512 0
M  V30 764 H 69.9798 -0.951266 1.24019 0
M  V30 765 H 70.7148 -3.2395 0.150686 0
M  V30 766 H 70.4998 -3.42111 1.91579 0
M  V30 767 H 71.9898 -4.0208 1.12788 0
M  V30 768 N 72.4269 -1.23603 -0.977757 0
M  V30 769 C 73.6549 -1.09646 -1.75458 0
M  V30 770 C 74.0699 0.351859 -1.85492 0
M  V30 771 O 73.4269 1.24327 -1.336 0
M  V30 772 C 73.4779 -1.71895 -3.18016 0
M  V30 773 O 73.1989 -3.11063 -3.08498 0
M  V30 774 C 74.6999 -1.63415 -4.12081 0
M  V30 775 H 71.9199 -0.38359 -0.550545 0
M  V30 776 H 74.4639 -1.63507 -1.22824 0
M  V30 777 H 72.6189 -1.22061 -3.67668 0
M  V30 778 H 73.0329 -3.41305 -3.9826 0
M  V30 779 H 74.5069 -2.11669 -5.09804 0
M  V30 780 H 74.9839 -0.593462 -4.35172 0
M  V30 781 H 75.5899 -2.12628 -3.68334 0
M  V30 782 N 73.905 1.17692 -1.04816 0
M  V30 783 C 75.321 1.39863 -0.768794 0
M  V30 784 C 75.521 1.91118 0.638451 0
M  V30 785 O 74.577 2.10036 1.40146 0
M  V30 786 C 75.89 2.39274 -1.82122 0
M  V30 787 C 77.438 2.52987 -1.843 0
M  V30 788 C 77.913 3.55669 -2.88555 0
M  V30 789 N 79.404 3.63183 -2.87493 0
M  V30 790 C 80.139 4.42381 -3.64811 0
M  V30 791 N 79.635 5.25125 -4.51903 0
M  V30 792 N 81.428 4.37217 -3.53267 0
M  V30 793 H 73.579 0.82752 -1.95617 0
M  V30 794 H 75.842 0.426123 -0.846831 0
M  V30 795 H 75.548 2.08678 -2.83102 0
M  V30 796 H 75.422 3.38725 -1.65967 0
M  V30 797 H 77.809 2.82896 -0.839869 0
M  V30 798 H 77.89 1.53623 -2.04532 0
M  V30 799 H 77.534 3.26499 -3.89051 0
M  V30 800 H 77.464 4.54728 -2.65575 0
M  V30 801 H 79.955 3.04103 -2.24343 0
M  V30 802 H 80.268 5.82728 -5.07591 0
M  V30 803 H 78.613 5.24519 -4.55966 0
M  V30 804 H 81.804 3.71626 -2.84625 0
M  V30 805 H 81.977 4.98696 -4.13771 0
M  V30 806 N 75.3831 0.828654 1.34056 0
M  V30 807 C 76.6081 0.431637 2.02859 0
M  V30 808 C 77.0331 -0.956339 1.61975 0
M  V30 809 O 76.3911 -1.62338 0.807228 0
M  V30 810 C 76.4391 0.548323 3.56407 0
M  V30 811 O 75.5431 -0.429556 4.10157 0
M  V30 812 H 74.8841 0.176886 0.640006 0
M  V30 813 H 77.4141 1.12066 1.71179 0
M  V30 814 H 77.4241 0.426196 4.05768 0
M  V30 815 H 76.0991 1.5606 3.8551 0
M  V30 816 H 74.6761 -0.265836 3.71951 0
M  V30 817 N 76.8612 -1.46375 0.584142 0
M  V30 818 C 78.1102 -2.01585 0.0679741 0
M  V30 819 C 78.4232 -1.46109 -1.30045 0
M  V30 820 O 79.6292 -1.93148 -1.90804 0
M  V30 821 C 78.0852 -3.5983 0.0709207 0
M  V30 822 C 77.6932 -4.24303 1.43775 0
M  V30 823 C 79.4372 -4.22693 -0.391228 0
M  V30 824 C 77.3442 -5.74631 1.39834 0
M  V30 825 H 76.2742 -0.753689 0.0216421 0
M  V30 826 H 78.9252 -1.68093 0.736001 0
M  V30 827 H 77.3072 -3.90405 -0.663299 0
M  V30 828 H 78.4812 -4.05335 2.19181 0
M  V30 829 H 76.7962 -3.73539 1.84004 0
M  V30 830 H 79.3932 -5.3289 -0.439524 0
M  V30 831 H 79.7362 -3.91728 -1.40906 0
M  V30 832 H 80.2692 -3.96749 0.288974 0
M  V30 833 H 77.0082 -6.10258 2.39303 0
M  V30 834 H 76.5282 -5.95858 0.686505 0
M  V30 835 H 78.2072 -6.37375 1.11187 0
M  V30 836 N 78.3393 -0.321999 -1.54275 0
M  V30 837 C 79.2713 0.578671 -2.21775 0
M  V30 838 C 80.2843 1.08109 -1.21722 0
M  V30 839 O 81.4733 0.994938 -1.482 0
M  V30 840 C 78.5733 1.80661 -2.86731 0
M  V30 841 C 77.7463 1.44314 -4.12907 0
M  V30 842 C 76.8053 2.52845 -4.61472 0
M  V30 843 O 75.8313 2.17054 -5.2619 0
M  V30 844 N 77.0333 3.83748 -4.35566 0
M  V30 845 H 79.7983 0.000709447 -2.997 0
M  V30 846 H 77.3593 -0.145132 -1.61248 0
M  V30 847 H 79.3513 2.52655 -3.16145 0
M  V30 848 H 77.9213 2.29245 -2.12521 0
M  V30 849 H 77.1413 0.554906 -3.90275 0
M  V30 850 H 78.4293 1.17598 -4.95023 0
M  V30 851 H 77.8273 4.15625 -3.83761 0
M  V30 852 H 76.3843 4.51977 -4.69638 0
M  V30 853 N 79.8174 1.5752 -0.0501392 0
M  V30 854 C 81.0634 1.92936 0.624798 0
M  V30 855 C 81.3964 0.928685 1.70555 0
M  V30 856 O 80.6714 -0.0454779 1.94447 0
M  V30 857 C 80.9544 3.38737 1.22185 0
M  V30 858 C 80.8074 4.49552 0.149218 0
M  V30 859 C 82.1264 3.84913 2.13378 0
M  V30 860 H 79.2454 0.701604 0.225657 0
M  V30 861 H 81.8874 1.89671 -0.111693 0
M  V30 862 H 80.0374 3.4165 1.84953 0
M  V30 863 H 81.7094 4.58768 -0.482648 0
M  V30 864 H 79.9524 4.30638 -0.522841 0
M  V30 865 H 80.6234 5.48653 0.606966 0
M  V30 866 H 83.0994 3.8387 1.60572 0
M  V30 867 H 81.9754 4.87584 2.52097 0
M  V30 868 H 82.2364 3.21611 3.03346 0
M  V30 869 N 81.2955 -0.223234 1.56011 0
M  V30 870 C 82.5725 -0.972108 1.69733 0
M  V30 871 C 82.9525 -2.02485 0.59691 0
M  V30 872 O 82.3005 -2.25037 -0.396324 0
M  V30 873 C 82.5105 -1.58407 3.10979 0
M  V30 874 C 83.8585 -2.07696 3.70334 0
M  V30 875 O 84.8825 -1.68304 3.1393 0
M  V30 876 O 83.7415 -2.80096 4.69264 0
M  V30 877 H 80.8355 -0.453993 0.691245 0
M  V30 878 H 83.3815 -0.215149 1.68331 0
M  V30 879 H 82.1535 -0.823831 3.82529 0
M  V30 880 H 81.7765 -2.40661 3.16493 0
M  V30 881 N 82.7736 -1.49793 -0.48987 0
M  V30 882 C 84.0216 -1.59525 -1.24081 0
M  V30 883 C 84.3426 -0.288953 -1.92847 0
M  V30 884 O 83.6126 0.692436 -1.83254 0
M  V30 885 H 82.1926 -0.587796 -0.460983 0
M  V30 886 H 84.8546 -1.86477 -0.566778 0
M  V30 887 H 83.9506 -2.39696 -1.99881 0
M  V30 888 N 84.2517 0.741722 -1.39055 0
M  V30 889 C 85.1987 1.85566 -1.37237 0
M  V30 890 C 86.1687 1.64457 -0.233072 0
M  V30 891 O 87.3537 1.85957 -0.427147 0
M  V30 892 C 84.4937 3.23004 -1.215 0
M  V30 893 C 83.6067 3.55864 -2.44918 0
M  V30 894 C 82.7417 4.82669 -2.21821 0
M  V30 895 C 81.7807 5.08351 -3.40948 0
M  V30 896 N 80.9177 6.26356 -3.17211 0
M  V30 897 H 85.7577 1.86455 -2.32462 0
M  V30 898 H 83.2947 0.911176 -1.15482 0
M  V30 899 H 85.2527 4.02331 -1.10389 0
M  V30 900 H 83.8827 3.21411 -0.29908 0
M  V30 901 H 82.9347 2.7129 -2.66657 0
M  V30 902 H 84.2467 3.70765 -3.33668 0
M  V30 903 H 83.4007 5.69962 -2.07914 0
M  V30 904 H 82.1397 4.69929 -1.30454 0
M  V30 905 H 81.1447 4.19522 -3.55361 0
M  V30 906 H 82.3697 5.22981 -4.33207 0
M  V30 907 H 80.3157 6.14917 -2.28502 0
M  V30 908 H 80.2327 6.41813 -3.99515 0
M  V30 909 H 81.5007 7.16506 -3.06984 0
M  V30 910 N 85.7298 1.2412 0.971189 0
M  V30 911 C 86.9578 1.10575 1.74874 0
M  V30 912 C 87.3728 -0.342017 1.85676 0
M  V30 913 O 86.7298 -1.23617 1.34258 0
M  V30 914 C 86.7808 1.73579 3.171 0
M  V30 915 O 86.5018 3.12695 3.06844 0
M  V30 916 C 88.0028 1.65598 4.11208 0
M  V30 917 H 85.2228 0.386504 0.548503 0
M  V30 918 H 87.7668 1.64156 1.21955 0
M  V30 919 H 85.9218 1.24009 3.67016 0
M  V30 920 H 86.3358 3.43412 3.96445 0
M  V30 921 H 87.8098 2.1437 5.08674 0
M  V30 922 H 88.2868 0.616532 4.34851 0
M  V30 923 H 88.8928 2.14578 3.67201 0
M  V30 924 N 87.2079 -1.17134 1.05439 0
M  V30 925 C 88.4569 -1.86791 0.761049 0
M  V30 926 C 88.7699 -1.82072 -0.714795 0
M  V30 927 O 89.9759 -2.47223 -1.12218 0
M  V30 928 C 88.4319 -3.35166 1.31117 0
M  V30 929 C 88.0399 -3.48381 2.81664 0
M  V30 930 C 89.7839 -4.10134 1.09499 0
M  V30 931 C 87.6909 -4.90793 3.29964 0
M  V30 932 H 86.6209 -0.699681 0.281002 0
M  V30 933 H 89.2719 -1.3226 1.27199 0
M  V30 934 H 87.6539 -3.8925 0.72803 0
M  V30 935 H 88.8279 -3.04502 3.45855 0
M  V30 936 H 87.1429 -2.86836 3.01851 0
M  V30 937 H 89.7399 -5.152 1.43084 0
M  V30 938 H 90.0829 -4.16287 0.0328772 0
M  V30 939 H 90.6159 -3.62264 1.64346 0
M  V30 940 H 87.3549 -4.89816 4.35616 0
M  V30 941 H 86.8749 -5.35333 2.70516 0
M  V30 942 H 88.5539 -5.59573 3.24787 0
M  V30 943 N 88.686 -0.835752 -1.33615 0
M  V30 944 C 89.633 -0.26473 -2.29277 0
M  V30 945 C 90.603 0.617712 -1.54187 0
M  V30 946 O 91.788 0.556641 -1.825 0
M  V30 947 C 88.928 0.556777 -3.40579 0
M  V30 948 C 88.041 -0.349339 -4.30585 0
M  V30 949 C 87.176 0.482969 -5.29 0
M  V30 950 C 86.215 -0.421732 -6.10645 0
M  V30 951 N 85.352 0.372262 -7.01112 0
M  V30 952 H 90.192 -1.08582 -2.77514 0
M  V30 953 H 87.729 -0.546927 -1.36554 0
M  V30 954 H 89.687 1.04852 -4.03809 0
M  V30 955 H 88.317 1.34286 -2.93542 0
M  V30 956 H 87.369 -0.959372 -3.68104 0
M  V30 957 H 88.681 -1.04445 -4.87742 0
M  V30 958 H 87.835 1.03866 -5.97743 0
M  V30 959 H 86.574 1.21153 -4.72412 0
M  V30 960 H 85.579 -0.989464 -5.40823 0
M  V30 961 H 86.804 -1.14861 -6.69316 0
M  V30 962 H 84.75 1.08426 -6.46977 0
M  V30 963 H 84.667 -0.264198 -7.55538 0
M  V30 964 H 85.935 0.910293 -7.74167 0
M  V30 965 N 90.1641 1.46063 -0.591896 0
M  V30 966 C 91.1271 2.28854 0.125973 0
M  V30 967 C 92.1271 1.38903 0.810107 0
M  V30 968 O 93.3171 1.61186 0.66066 0
M  V30 969 C 90.4491 3.19526 1.1881 0
M  V30 970 H 91.6421 2.93802 -0.601717 0
M  V30 971 H 89.1951 1.52325 -0.350254 0
M  V30 972 H 89.9301 2.59345 1.94707 0
M  V30 973 H 89.7151 3.85766 0.701936 0
M  V30 974 H 91.2051 3.81817 1.69132 0
M  V30 975 N 91.6422 0.330177 1.54103 0
M  V30 976 C 92.5742 -0.566902 2.22079 0
M  V30 977 C 93.5872 -1.07462 1.22294 0
M  V30 978 O 94.7762 -0.987065 1.48726 0
M  V30 979 C 91.8762 -1.79138 2.87685 0
M  V30 980 C 91.0492 -1.42123 4.13666 0
M  V30 981 C 90.1082 -2.50394 4.62806 0
M  V30 982 O 89.1342 -2.14261 5.27334 0
M  V30 983 N 90.3362 -3.81433 4.37595 0
M  V30 984 H 93.1012 0.0151844 2.99696 0
M  V30 985 H 90.6622 0.153681 1.61169 0
M  V30 986 H 92.6542 -2.50975 3.1748 0
M  V30 987 H 91.2242 -2.28115 2.13734 0
M  V30 988 H 90.4442 -0.534201 3.90564 0
M  V30 989 H 91.7322 -1.14971 4.9564 0
M  V30 990 H 91.1302 -4.13584 3.8596 0
M  V30 991 H 89.6872 -4.4948 4.72029 0
M  V30 992 N 93.1203 -1.57491 0.0584922 0
M  V30 993 C 94.3693 -1.92155 -0.613146 0
M  V30 994 C 94.6823 -0.939334 -1.71569 0
M  V30 995 O 95.8883 -1.17829 -2.44599 0
M  V30 996 C 94.3443 -3.41303 -1.14195 0
M  V30 997 C 93.9523 -4.47944 -0.0711265 0
M  V30 998 C 95.6963 -3.84988 -1.78841 0
M  V30 999 C 93.6033 -5.88212 -0.613225 0
M  V30 1000 H 92.5333 -0.717162 -0.232796 0
M  V30 1001 H 95.1843 -1.83049 0.12857 0
M  V30 1002 H 93.5663 -3.45437 -1.93621 0
M  V30 1003 H 94.7403 -4.55408 0.702836 0
M  V30 1004 H 93.0553 -4.13644 0.478313 0
M  V30 1005 H 95.6523 -4.87159 -2.20408 0
M  V30 1006 H 95.9953 -3.21632 -2.64308 0
M  V30 1007 H 96.5283 -3.83401 -1.06059 0
M  V30 1008 H 93.2673 -6.55183 0.203978 0
M  V30 1009 H 92.7873 -5.84294 -1.35501 0
M  V30 1010 H 94.4663 -6.37687 -1.09383 0
M  V30 1011 N 94.5984 0.214957 -1.56127 0
M  V30 1012 C 95.8444 0.935325 -1.80619 0
M  V30 1013 C 96.1994 1.81706 -0.632507 0
M  V30 1014 O 95.4924 1.87931 0.373182 0
M  V30 1015 C 95.6864 1.80314 -3.0858 0
M  V30 1016 C 95.5154 1.00691 -4.38282 0
M  V30 1017 C 94.2854 0.699211 -5.00439 0
M  V30 1018 C 96.4834 0.369057 -5.12974 0
M  V30 1019 N 94.4654 -0.117734 -6.13787 0
M  V30 1020 C 95.8364 -0.310981 -6.1922 0
M  V30 1021 C 97.8914 0.282759 -4.97096 0
M  V30 1022 C 96.5944 -1.06907 -7.11311 0
M  V30 1023 C 98.6204 -0.461881 -5.89594 0
M  V30 1024 C 97.9824 -1.13044 -6.9527 0
M  V30 1025 H 94.0814 0.322307 -0.71249 0
M  V30 1026 H 96.6654 0.205649 -1.93611 0
M  V30 1027 H 94.8364 2.50458 -2.96859 0
M  V30 1028 H 96.5684 2.46148 -3.21237 0
M  V30 1029 H 93.3234 1.01884 -4.62511 0
M  V30 1030 H 93.7474 -0.515235 -6.75037 0
M  V30 1031 H 98.3894 0.785292 -4.15443 0
M  V30 1032 H 96.1074 -1.5831 -7.92442 0
M  V30 1033 H 99.6934 -0.529746 -5.79383 0
M  V30 1034 H 98.5734 -1.69742 -7.65609 0
M  V30 1035 N 96.0765 1.50051 0.48192 0
M  V30 1036 C 97.3535 1.51009 1.2432 0
M  V30 1037 C 97.7335 0.248587 2.09631 0
M  V30 1038 O 97.0815 -0.768409 2.15192 0
M  V30 1039 C 97.2915 2.79981 2.08355 0
M  V30 1040 C 98.6395 3.3022 2.66908 0
M  V30 1041 O 99.6635 2.81228 2.18607 0
M  V30 1042 O 98.5225 4.15595 3.54884 0
M  V30 1043 H 95.6165 0.605239 0.563573 0
M  V30 1044 H 98.1625 1.62332 0.494627 0
M  V30 1045 H 96.9345 3.63275 1.45419 0
M  V30 1046 H 96.5575 2.7161 2.90368 0
M  V30 1047 N 97.5546 -0.734337 1.39446 0
M  V30 1048 C 98.7826 -1.52358 1.39981 0
M  V30 1049 C 99.1976 -1.88799 -0.0054975 0
M  V30 1050 O 98.5546 -1.54146 -0.976998 0
M  V30 1051 C 98.6056 -2.81072 2.27333 0
M  V30 1052 O 98.3266 -2.46178 3.62392 0
M  V30 1053 C 99.8276 -3.75096 2.36259 0
M  V30 1054 H 97.0476 -0.470806 0.478103 0
M  V30 1055 H 99.5916 -0.907339 1.83269 0
M  V30 1056 H 97.7466 -3.39026 1.87457 0
M  V30 1057 H 98.1606 -3.28866 4.08592 0
M  V30 1058 H 99.6346 -4.62305 3.01626 0
M  V30 1059 H 100.112 -4.16892 1.38194 0
M  V30 1060 H 100.718 -3.23061 2.76608 0
M  V30 1061 N 99.0327 -1.24633 -0.964593 0
M  V30 1062 C 99.9957 -1.0424 -2.04124 0
M  V30 1063 C 100.996 0.00137563 -1.608 0
M  V30 1064 O 102.186 -0.239883 -1.7254 0
M  V30 1065 C 99.3177 -0.580588 -3.3592 0
M  V30 1066 H 100.511 -1.99803 -2.23649 0
M  V30 1067 H 98.0637 -1.06899 -1.14027 0
M  V30 1068 H 98.7987 0.3781 -3.22088 0
M  V30 1069 H 98.5837 -1.33398 -3.6871 0
M  V30 1070 H 100.074 -0.459034 -4.15069 0
M  V30 1071 N 100.511 1.16574 -1.06058 0
M  V30 1072 C 101.759 1.86677 -0.77434 0
M  V30 1073 C 102.08 1.81959 0.701147 0
M  V30 1074 O 101.35 1.2515 1.50713 0
M  V30 1075 H 99.9298 0.691134 -0.283449 0
M  V30 1076 H 102.592 1.41378 -1.34158 0
M  V30 1077 H 101.688 2.92181 -1.09711 0
M  V30 1078 N 101.989 0.842826 1.3317 0
M  V30 1079 C 102.921 0.236245 2.27979 0
M  V30 1080 C 103.934 -0.585282 1.51915 0
M  V30 1081 O 105.123 -0.411705 1.73687 0
M  V30 1082 C 102.223 -0.685717 3.3189 0
M  V30 1083 C 101.396 0.0973448 4.37292 0
M  V30 1084 C 100.455 -0.748565 5.20848 0
M  V30 1085 O 99.4809 -0.186339 5.68895 0
M  V30 1086 N 100.683 -2.06527 5.42519 0
M  V30 1087 H 103.448 1.05088 2.80672 0
M  V30 1088 H 101.009 0.701667 1.45905 0
M  V30 1089 H 103.001 -1.25669 3.84694 0
M  V30 1090 H 101.571 -1.40105 2.79445 0
M  V30 1091 H 100.791 0.849706 3.84933 0
M  V30 1092 H 102.079 0.635643 5.04814 0
M  V30 1093 H 101.477 -2.54554 5.05192 0
M  V30 1094 H 100.034 -2.58464 5.98364 0
M  V30 1095 N 103.467 -1.45747 0.599634 0
M  V30 1096 C 104.377 -2.34262 -0.125888 0
M  V30 1097 C 105.393 -1.50768 -0.868625 0
M  V30 1098 O 106.569 -1.83592 -0.828003 0
M  V30 1099 C 103.634 -3.28252 -1.11587 0
M  V30 1100 C 102.695 -4.27651 -0.375956 0
M  V30 1101 C 101.928 -5.1715 -1.31877 0
M  V30 1102 O 102.151 -5.09916 -2.55621 0
M  V30 1103 O 101.085 -5.96286 -0.820157 0
M  V30 1104 H 104.911 -2.97688 0.601315 0
M  V30 1105 H 102.496 -1.44999 0.359934 0
M  V30 1106 H 104.378 -3.86191 -1.68626 0
M  V30 1107 H 103.053 -2.67401 -1.82424 0
M  V30 1108 H 101.96 -3.7335 0.236698 0
M  V30 1109 H 103.293 -4.91334 0.29177 0
M  V30 1110 N 104.945 -0.338344 -1.53925 0
M  V30 1111 C 106.361 0.0137736 -1.59594 0
M  V30 1112 C 106.561 1.49186 -1.35447 0
M  V30 1113 O 105.617 2.24987 -1.14616 0
M  V30 1114 C 106.93 -0.41773 -2.97784 0
M  V30 1115 C 108.478 -0.369633 -3.1081 0
M  V30 1116 C 108.953 -0.776524 -4.51369 0
M  V30 1117 N 110.444 -0.730506 -4.57403 0
M  V30 1118 C 111.179 -1.01736 -5.64303 0
M  V30 1119 N 110.675 -1.3721 -6.79077 0
M  V30 1120 N 112.468 -0.941942 -5.54151 0
M  V30 1121 H 104.619 -1.3012 -1.67876 0
M  V30 1122 H 106.882 -0.530082 -0.78595 0
M  V30 1123 H 106.588 -1.44811 -3.20504 0
M  V30 1124 H 106.462 0.209729 -3.76616 0
M  V30 1125 H 108.849 0.651568 -2.87817 0
M  V30 1126 H 108.93 -1.03223 -2.34049 0
M  V30 1127 H 108.574 -1.79571 -4.75096 0
M  V30 1128 H 108.504 -0.0914649 -5.26521 0
M  V30 1129 H 110.995 -0.468783 -3.74981 0
M  V30 1130 H 111.308 -1.57597 -7.5656 0
M  V30 1131 H 109.653 -1.4105 -6.80536 0
M  V30 1132 H 112.844 -0.664184 -4.63364 0
M  V30 1133 H 113.017 -1.16884 -6.37371 0
M  V30 1134 N 106.423 1.57458 -0.0668435 0
M  V30 1135 C 107.653 1.97337 0.611677 0
M  V30 1136 C 108.061 0.943744 1.63982 0
M  V30 1137 O 107.404 -0.0785584 1.83532 0
M  V30 1138 C 107.466 3.33511 1.34205 0
M  V30 1139 C 107.13 4.54598 0.467941 0
M  V30 1140 C 108.127 5.19186 -0.272439 0
M  V30 1141 C 105.812 5.0075 0.39427 0
M  V30 1142 C 107.806 6.28274 -1.07476 0
M  V30 1143 C 105.493 6.09711 -0.411729 0
M  V30 1144 C 106.491 6.73335 -1.14492 0
M  V30 1145 O 106.179 7.80199 -1.93763 0
M  V30 1146 H 105.911 0.654042 0.170893 0
M  V30 1147 H 108.465 2.04961 -0.134289 0
M  V30 1148 H 106.695 3.22487 2.13398 0
M  V30 1149 H 108.384 3.58029 1.91233 0
M  V30 1150 H 109.15 4.84477 -0.225086 0
M  V30 1151 H 105.029 4.51009 0.954569 0
M  V30 1152 H 108.573 6.77866 -1.64755 0
M  V30 1153 H 104.47 6.43854 -0.460664 0
M  V30 1154 H 105.238 7.97053 -1.86142 0
M  V30 1155 N 107.901 -0.206675 1.56239 0
M  V30 1156 C 109.317 -0.557025 1.49564 0
M  V30 1157 C 109.517 -1.86424 0.764735 0
M  V30 1158 O 108.573 -2.50584 0.310491 0
M  V30 1159 C 109.886 -0.622478 2.94186 0
M  V30 1160 C 111.434 -0.712099 3.04792 0
M  V30 1161 C 111.909 -0.808767 4.50803 0
M  V30 1162 N 113.4 -0.8726 4.54907 0
M  V30 1163 C 114.135 -0.967365 5.65181 0
M  V30 1164 N 113.631 -1.02515 6.85173 0
M  V30 1165 N 115.424 -1.00366 5.53067 0
M  V30 1166 H 107.575 0.650943 2.02179 0
M  V30 1167 H 109.838 0.230387 0.919579 0
M  V30 1168 H 109.544 0.268727 3.50672 0
M  V30 1169 H 109.418 -1.4811 3.46905 0
M  V30 1170 H 111.805 -1.59374 2.48363 0
M  V30 1171 H 111.886 0.172489 2.55218 0
M  V30 1172 H 111.53 0.0684754 5.07854 0
M  V30 1173 H 111.46 -1.70899 4.98098 0
M  V30 1174 H 113.951 -0.837657 3.68499 0
M  V30 1175 H 114.264 -1.09765 7.64965 0
M  V30 1176 H 112.609 -0.994026 6.87855 0
M  V30 1177 H 115.8 -0.95527 4.58249 0
M  V30 1178 H 115.973 -1.07405 6.39037 0
M  V30 1179 N 109.379 -1.50304 -0.473955 0
M  V30 1180 C 110.342 -1.6841 -1.55469 0
M  V30 1181 C 111.342 -0.554905 -1.50922 0
M  V30 1182 O 112.532 -0.821882 -1.53593 0
M  V30 1183 C 109.664 -1.70667 -2.95102 0
M  V30 1184 H 110.857 -2.64828 -1.40733 0
M  V30 1185 H 108.41 -1.39742 -0.700132 0
M  V30 1186 H 109.145 -0.75932 -3.15285 0
M  V30 1187 H 108.93 -2.52698 -2.9981 0
M  V30 1188 H 110.42 -1.8664 -3.73571 0
M  V30 1189 N 110.857 0.726932 -1.39834 0
M  V30 1190 C 112.106 1.48214 -1.36805 0
M  V30 1191 C 112.419 1.95576 0.0305291 0
M  V30 1192 O 113.625 2.7088 0.183417 0
M  V30 1193 C 112.081 2.67854 -2.40379 0
M  V30 1194 C 111.689 2.27408 -3.85992 0
M  V30 1195 C 113.433 3.45641 -2.46439 0
M  V30 1196 C 111.34 3.43819 -4.81189 0
M  V30 1197 H 110.27 0.556606 -0.508631 0
M  V30 1198 H 112.921 0.792216 -1.65518 0
M  V30 1199 H 111.303 3.3896 -2.04749 0
M  V30 1200 H 112.477 1.63795 -4.30706 0
M  V30 1201 H 110.792 1.62692 -3.83302 0
M  V30 1202 H 113.389 4.32244 -3.14753 0
M  V30 1203 H 113.732 3.88669 -1.49139 0
M  V30 1204 H 114.265 2.8157 -2.81004 0
M  V30 1205 H 111.004 3.05834 -5.79781 0
M  V30 1206 H 110.524 4.06385 -4.41148 0
M  V30 1207 H 112.203 4.10043 -5.00474 0
M  V30 1208 N 112.336 1.25143 0.95797 0
M  V30 1209 C 113.564 1.12424 1.73691 0
M  V30 1210 C 113.979 -0.322304 1.86029 0
M  V30 1211 O 113.336 -1.22186 1.35561 0
M  V30 1212 C 113.387 1.76933 3.15241 0
M  V30 1213 O 113.108 3.15932 3.03511 0
M  V30 1214 C 114.609 1.6995 4.09429 0
M  V30 1215 H 111.829 0.3923 0.544373 0
M  V30 1216 H 114.373 1.6544 1.20207 0
M  V30 1217 H 112.528 1.27895 3.6568 0
M  V30 1218 H 112.942 3.47598 3.9278 0
M  V30 1219 H 114.416 2.19753 5.06372 0
M  V30 1220 H 114.893 0.662619 4.34173 0
M  V30 1221 H 115.499 2.18461 3.64904 0
M  V30 1222 N 113.814 -1.1601 1.06675 0
M  V30 1223 C 115.039 -1.91068 0.806706 0
M  V30 1224 C 115.464 -1.77112 -0.633485 0
M  V30 1225 O 114.822 -1.09908 -1.44187 0
M  V30 1226 C 114.87 -3.39655 1.21106 0
M  V30 1227 O 113.974 -4.10893 0.352189 0
M  V30 1228 H 113.315 -0.595125 0.294486 0
M  V30 1229 H 115.845 -1.46955 1.42356 0
M  V30 1230 H 115.855 -3.90434 1.18428 0
M  V30 1231 H 114.53 -3.49132 2.26008 0
M  V30 1232 H 113.107 -3.70285 0.440868 0
M  V30 1233 N 115.292 -0.849877 -1.32721 0
M  V30 1234 C 116.255 -0.296122 -2.27279 0
M  V30 1235 C 117.255 0.541458 -1.5141 0
M  V30 1236 O 118.445 0.353658 -1.70572 0
M  V30 1237 C 115.577 0.581579 -3.35902 0
M  V30 1238 H 116.77 -1.13064 -2.77771 0
M  V30 1239 H 114.323 -0.62383 -1.43311 0
M  V30 1240 H 115.058 1.43809 -2.9067 0
M  V30 1241 H 114.843 -0.0178814 -3.92096 0
M  V30 1242 H 116.333 0.961951 -4.0637 0
M  V30 1243 N 116.77 1.45427 -0.607355 0
M  V30 1244 C 118 2.06314 -0.108656 0
M  V30 1245 C 118.408 1.45269 1.21217 0
M  V30 1246 O 117.751 0.561115 1.74921 0
M  V30 1247 C 117.813 3.59345 0.105618 0
M  V30 1248 C 117.477 4.42723 -1.13337 0
M  V30 1249 C 118.474 4.77715 -2.05145 0
M  V30 1250 C 116.159 4.83478 -1.36213 0
M  V30 1251 C 118.153 5.52317 -3.18158 0
M  V30 1252 C 115.84 5.57835 -2.49527 0
M  V30 1253 C 116.838 5.92171 -3.40327 0
M  V30 1254 O 116.526 6.65019 -4.51669 0
M  V30 1255 H 116.258 0.672782 -0.0658842 0
M  V30 1256 H 118.812 1.87664 -0.834945 0
M  V30 1257 H 117.042 3.76394 0.886796 0
M  V30 1258 H 118.731 4.02076 0.555886 0
M  V30 1259 H 119.497 4.46787 -1.88697 0
M  V30 1260 H 115.376 4.56188 -0.664362 0
M  V30 1261 H 118.92 5.79036 -3.89054 0
M  V30 1262 H 114.817 5.88177 -2.65928 0
M  V30 1263 H 115.585 6.83469 -4.50348 0
M  V30 1264 N 118.248 0.346503 1.53744 0
M  V30 1265 C 119.478 -0.250047 2.05081 0
M  V30 1266 C 119.886 -1.44529 1.22098 0
M  V30 1267 O 119.229 -1.81992 0.249917 0
M  V30 1268 C 119.291 -0.725934 3.52094 0
M  V30 1269 C 118.955 0.350053 4.55657 0
M  V30 1270 C 119.952 1.19372 5.0601 0
M  V30 1271 C 117.637 0.504827 4.99757 0
M  V30 1272 C 119.631 2.17768 5.99046 0
M  V30 1273 C 117.318 1.49218 5.92602 0
M  V30 1274 C 118.316 2.32706 6.42135 0
M  V30 1275 O 118.004 3.2976 7.33153 0
M  V30 1276 H 117.736 -0.0515469 0.674032 0
M  V30 1277 H 120.29 0.497559 1.99282 0
M  V30 1278 H 118.52 -1.52483 3.55367 0
M  V30 1279 H 120.209 -1.24336 3.86388 0
M  V30 1280 H 120.975 1.08525 4.72702 0
M  V30 1281 H 116.854 -0.135178 4.60802 0
M  V30 1282 H 120.398 2.82971 6.37631 0
M  V30 1283 H 116.295 1.6012 6.25325 0
M  V30 1284 H 117.063 3.25265 7.51096 0
M  V30 1285 N 119.726 -1.57421 0.075193 0
M  V30 1286 C 121.142 -1.57099 -0.281444 0
M  V30 1287 C 121.342 -1.08486 -1.69803 0
M  V30 1288 O 120.398 -0.752279 -2.41033 0
M  V30 1289 C 121.711 -3.00571 -0.0880041 0
M  V30 1290 C 123.259 -3.12605 -0.157281 0
M  V30 1291 C 123.734 -4.57999 0.0079207 0
M  V30 1292 N 125.225 -4.63176 -0.0475725 0
M  V30 1293 C 125.96 -5.73373 0.0557876 0
M  V30 1294 N 125.456 -6.92473 0.21286 0
M  V30 1295 N 127.249 -5.621 -0.00152098 0
M  V30 1296 H 119.4 -1.87335 1.00098 0
M  V30 1297 H 121.663 -0.86377 0.390646 0
M  V30 1298 H 121.369 -3.40262 0.889629 0
M  V30 1299 H 121.243 -3.67754 -0.838875 0
M  V30 1300 H 123.63 -2.72798 -1.1254 0
M  V30 1301 H 123.711 -2.48053 0.62475 0
M  V30 1302 H 123.355 -4.98496 0.972824 0
M  V30 1303 H 123.285 -5.20586 -0.793556 0
M  V30 1304 H 125.776 -3.7753 -0.167244 0
M  V30 1305 H 126.089 -7.72279 0.283781 0
M  V30 1306 H 124.434 -6.94556 0.248267 0
M  V30 1307 H 127.625 -4.67938 -0.122958 0
M  V30 1308 H 127.798 -6.47948 0.0824844 0
M  V30 1309 N 121.204 0.198386 -1.56346 0
M  V30 1310 C 122.452 0.91747 -1.80075 0
M  V30 1311 C 122.773 1.83929 -0.647692 0
M  V30 1312 O 122.043 1.93029 0.334166 0
M  V30 1313 H 120.623 0.341774 -0.664228 0
M  V30 1314 H 123.285 0.204684 -1.93822 0
M  V30 1315 H 122.381 1.51055 -2.7311 0
M  V30 1316 N 122.682 1.50554 0.465978 0
M  V30 1317 C 123.645 1.69233 1.54574 0
M  V30 1318 C 124.645 0.562901 1.50626 0
M  V30 1319 O 125.835 0.830016 1.53155 0
M  V30 1320 C 122.967 1.7223 2.94193 0
M  V30 1321 H 124.16 2.65571 1.39327 0
M  V30 1322 H 121.713 1.40111 0.692711 0
M  V30 1323 H 122.448 0.77603 3.14878 0
M  V30 1324 H 122.233 2.54285 2.98466 0
M  V30 1325 H 123.723 1.88618 3.72576 0
M  V30 1326 N 124.16 -0.719506 1.40217 0
M  V30 1327 C 125.406 -1.48152 1.38488 0
M  V30 1328 C 125.739 -1.94195 -0.0141867 0
M  V30 1329 O 125.014 -1.67884 -0.982096 0
M  V30 1330 C 125.297 -2.71035 2.37091 0
M  V30 1331 C 125.15 -2.30912 3.86005 0
M  V30 1332 C 126.469 -3.73182 2.33288 0
M  V30 1333 H 123.588 -0.537395 0.504357 0
M  V30 1334 H 126.23 -0.821472 1.71324 0
M  V30 1335 H 124.38 -3.27352 2.0922 0
M  V30 1336 H 126.052 -1.80107 4.24687 0
M  V30 1337 H 124.295 -1.62958 4.02029 0
M  V30 1338 H 124.966 -3.18978 4.50508 0
M  V30 1339 H 127.442 -3.26485 2.57966 0
M  V30 1340 H 126.318 -4.56806 3.04334 0
M  V30 1341 H 126.579 -4.21202 1.34317 0
M  V30 1342 N 125.638 -1.25649 -0.95132 0
M  V30 1343 C 126.886 -1.10375 -1.69298 0
M  V30 1344 C 127.207 0.355339 -1.91735 0
M  V30 1345 O 126.477 1.25188 -1.50681 0
M  V30 1346 H 125.057 -0.405461 -0.627384 0
M  V30 1347 H 127.719 -1.57823 -1.14358 0
M  V30 1348 H 126.815 -1.61465 -2.67087 0
M  V30 1349 N 127.117 1.15442 -1.07289 0
M  V30 1350 C 128.08 2.18358 -0.696591 0
M  V30 1351 C 129.08 1.58637 0.262837 0
M  V30 1352 O 130.27 1.74145 0.0438809 0
M  V30 1353 C 127.402 3.4089 -0.0266151 0
M  V30 1354 H 128.595 2.53162 -1.60776 0
M  V30 1355 H 126.148 1.29893 -0.869342 0
M  V30 1356 H 126.883 3.11653 0.896822 0
M  V30 1357 H 126.668 3.85495 -0.716657 0
M  V30 1358 H 128.158 4.17009 0.222028 0
M  V30 1359 N 128.595 0.856903 1.32268 0
M  V30 1360 C 129.525 0.31858 2.31316 0
M  V30 1361 C 130.506 -0.583487 1.59779 0
M  V30 1362 O 131.691 -0.503259 1.87566 0
M  V30 1363 C 128.821 -0.491979 3.43798 0
M  V30 1364 C 127.775 0.315849 4.26833 0
M  V30 1365 C 127.101 -0.619586 5.31098 0
M  V30 1366 C 128.401 1.54282 4.98993 0
M  V30 1367 H 130.095 1.14621 2.76591 0
M  V30 1368 H 127.641 0.552613 1.32974 0
M  V30 1369 H 129.594 -0.879012 4.1213 0
M  V30 1370 H 128.318 -1.35299 2.97257 0
M  V30 1371 H 126.977 0.684664 3.6015 0
M  V30 1372 H 126.625 -1.47751 4.8081 0
M  V30 1373 H 126.325 -0.0830621 5.87541 0
M  V30 1374 H 127.849 -1.00375 6.02293 0
M  V30 1375 H 129.263 1.22796 5.59995 0
M  V30 1376 H 127.66 2.01745 5.65172 0
M  V30 1377 H 128.73 2.30285 4.26728 0
M  V30 1378 N 130.073 -1.45103 0.615059 0
M  V30 1379 C 131.003 -2.33339 -0.0865619 0
M  V30 1380 C 131.984 -1.4727 -0.851209 0
M  V30 1381 O 133.169 -1.76026 -0.820281 0
M  V30 1382 C 130.299 -3.30095 -1.07956 0
M  V30 1383 C 129.253 -4.25858 -0.427628 0
M  V30 1384 C 128.579 -5.12361 -1.5294 0
M  V30 1385 C 129.879 -5.18165 0.655944 0
M  V30 1386 H 131.573 -2.92254 0.650224 0
M  V30 1387 H 129.119 -1.40532 0.314138 0
M  V30 1388 H 131.072 -3.90698 -1.57901 0
M  V30 1389 H 129.796 -2.69355 -1.84703 0
M  V30 1390 H 128.455 -3.66564 0.0510292 0
M  V30 1391 H 128.103 -4.47984 -2.28734 0
M  V30 1392 H 127.803 -5.77238 -1.09865 0
M  V30 1393 H 129.327 -5.75833 -2.03098 0
M  V30 1394 H 130.741 -5.72796 0.240257 0
M  V30 1395 H 129.138 -5.91559 1.00888 0
M  V30 1396 H 130.208 -4.60144 1.52957 0
M  V30 1397 N 131.551 -0.354651 -1.53558 0
M  V30 1398 C 132.797 0.238797 -2.01389 0
M  V30 1399 C 133.13 1.49309 -1.2418 0
M  V30 1400 O 132.405 1.91638 -0.332457 0
M  V30 1401 C 132.688 0.541771 -3.56001 0
M  V30 1402 C 132.541 -0.725388 -4.43912 0
M  V30 1403 C 133.86 1.34685 -4.18984 0
M  V30 1404 H 130.979 0.0853177 -0.732045 0
M  V30 1405 H 133.621 -0.477384 -1.83905 0
M  V30 1406 H 131.771 1.15189 -3.71031 0
M  V30 1407 H 133.443 -1.36313 -4.407 0
M  V30 1408 H 131.686 -1.34801 -4.12324 0
M  V30 1409 H 132.357 -0.468505 -5.50008 0
M  V30 1410 H 134.833 0.830837 -4.07721 0
M  V30 1411 H 133.709 1.52759 -5.27215 0
M  V30 1412 H 133.97 2.35221 -3.74331 0
M  V30 1413 N 133.029 1.57378 -0.0835403 0
M  V30 1414 C 134.259 1.97975 0.590713 0
M  V30 1415 C 134.667 0.961083 1.62972 0
M  V30 1416 O 134.01 -0.0590879 1.83605 0
M  V30 1417 C 134.072 3.34915 1.3066 0
M  V30 1418 C 133.736 4.55069 0.419698 0
M  V30 1419 C 134.733 5.18868 -0.32749 0
M  V30 1420 C 132.418 5.0114 0.341137 0
M  V30 1421 C 134.412 6.27098 -1.14134 0
M  V30 1422 C 132.099 6.0924 -0.476374 0
M  V30 1423 C 133.097 6.72083 -1.21627 0
M  V30 1424 O 132.785 7.781 -2.02028 0
M  V30 1425 H 132.517 0.655818 0.163947 0
M  V30 1426 H 135.071 2.04807 -0.156021 0
M  V30 1427 H 133.301 3.24733 2.09966 0
M  V30 1428 H 134.99 3.60037 1.87424 0
M  V30 1429 H 135.756 4.84211 -0.276459 0
M  V30 1430 H 131.635 4.51996 0.90668 0
M  V30 1431 H 135.179 6.7608 -1.71935 0
M  V30 1432 H 131.076 6.43329 -0.528927 0
M  V30 1433 H 131.844 7.95034 -1.94586 0
M  V30 1434 N 134.507 -0.190092 1.56449 0
M  V30 1435 C 135.784 -0.935886 1.71757 0
M  V30 1436 C 136.164 -2.01173 0.639726 0
M  V30 1437 O 135.512 -2.25827 -0.348502 0
M  V30 1438 C 135.722 -1.51775 3.1427 0
M  V30 1439 C 137.07 -1.99794 3.74656 0
M  V30 1440 O 138.094 -1.61607 3.1743 0
M  V30 1441 O 136.953 -2.70079 4.751 0
M  V30 1442 H 134.047 -0.439229 0.700719 0
M  V30 1443 H 136.593 -0.179395 1.68749 0
M  V30 1444 H 135.365 -0.742505 3.84191 0
M  V30 1445 H 134.988 -2.33894 3.21527 0
M  V30 1446 N 135.985 -1.50799 -0.457987 0
M  V30 1447 C 137.234 -1.6168 -1.20593 0
M  V30 1448 C 137.547 -0.32888 -1.92815 0
M  V30 1449 O 138.753 -0.316773 -2.69646 0
M  V30 1450 C 137.209 -2.8545 -2.19195 0
M  V30 1451 C 136.817 -4.21168 -1.52715 0
M  V30 1452 C 138.561 -3.05681 -2.94549 0
M  V30 1453 C 136.468 -5.3611 -2.4968 0
M  V30 1454 H 135.398 -0.602134 -0.453818 0
M  V30 1455 H 138.049 -1.77245 -0.475031 0
M  V30 1456 H 136.431 -2.63472 -2.95632 0
M  V30 1457 H 137.605 -4.53449 -0.819775 0
M  V30 1458 H 135.92 -4.06648 -0.895922 0
M  V30 1459 H 138.517 -3.88727 -3.67145 0
M  V30 1460 H 138.86 -2.17929 -3.54701 0
M  V30 1461 H 139.393 -3.27901 -2.25223 0
M  V30 1462 H 136.132 -6.26057 -1.94249 0
M  V30 1463 H 135.652 -5.0823 -3.18532 0
M  V30 1464 H 137.331 -5.6722 -3.11241 0
M  V30 1465 N 137.463 0.71206 -1.40597 0
M  V30 1466 C 138.426 1.80785 -1.40888 0
M  V30 1467 C 139.426 1.57937 -0.302103 0
M  V30 1468 O 140.616 1.64913 -0.561182 0
M  V30 1469 C 137.748 3.18927 -1.20409 0
M  V30 1470 H 138.941 1.81924 -2.38419 0
M  V30 1471 H 136.494 0.91805 -1.26497 0
M  V30 1472 H 137.229 3.23436 -0.236522 0
M  V30 1473 H 137.014 3.36911 -2.00582 0
M  V30 1474 H 138.504 3.98949 -1.23408 0
M  V30 1475 N 138.941 1.26152 0.944643 0
M  V30 1476 C 139.888 1.07408 2.04285 0
M  V30 1477 C 140.858 -0.0198413 1.66088 0
M  V30 1478 O 142.043 0.139264 1.90291 0
M  V30 1479 C 139.183 0.70945 3.37729 0
M  V30 1480 C 138.296 1.87926 3.88983 0
M  V30 1481 C 137.431 1.45807 5.10797 0
M  V30 1482 C 136.47 2.5964 5.54305 0
M  V30 1483 N 135.607 2.18226 6.67324 0
M  V30 1484 H 140.447 2.01389 2.1965 0
M  V30 1485 H 137.984 1.00275 1.07626 0
M  V30 1486 H 139.942 0.478948 4.14442 0
M  V30 1487 H 138.572 -0.193389 3.2222 0
M  V30 1488 H 137.624 2.22279 3.08701 0
M  V30 1489 H 138.936 2.73377 4.17213 0
M  V30 1490 H 138.09 1.18781 5.94959 0
M  V30 1491 H 136.829 0.574414 4.84305 0
M  V30 1492 H 135.834 2.87399 4.68702 0
M  V30 1493 H 137.059 3.48599 5.828 0
M  V30 1494 H 135.005 1.3229 6.42523 0
M  V30 1495 H 134.922 2.97221 6.95123 0
M  V30 1496 H 136.19 1.94403 7.54869 0
M  V30 1497 N 140.419 -1.14872 1.07899 0
M  V30 1498 C 141.369 -2.17809 0.674027 0
M  V30 1499 C 142.353 -1.58008 -0.303699 0
M  V30 1500 O 143.545 -1.76616 -0.11654 0
M  V30 1501 C 140.674 -3.43208 0.0793318 0
M  V30 1502 C 139.76 -4.10051 1.08253 0
M  V30 1503 N 140.151 -4.52296 2.2641 0
M  V30 1504 C 138.449 -4.36469 0.917124 0
M  V30 1505 C 139.15 -5.04199 2.901 0
M  V30 1506 N 138.126 -4.98088 2.17736 0
M  V30 1507 H 141.928 -2.48207 1.57386 0
M  V30 1508 H 139.442 -1.315 0.952976 0
M  V30 1509 H 141.439 -4.16272 -0.228719 0
M  V30 1510 H 140.099 -3.14291 -0.815551 0
M  V30 1511 H 141.11 -4.45504 2.64096 0
M  V30 1512 H 137.787 -4.17432 0.0756078 0
M  V30 1513 H 139.177 -5.46802 3.90458 0
M  V30 1514 N 141.898 -0.863906 -1.31812 0
M  V30 1515 C 142.828 -0.330843 -2.31144 0
M  V30 1516 C 143.809 0.575005 -1.60087 0
M  V30 1517 O 144.994 0.493304 -1.8783 0
M  V30 1518 C 142.124 0.47374 -3.44054 0
M  V30 1519 C 141.078 -0.338481 -4.26659 0
M  V30 1520 C 140.404 0.591412 -5.31419 0
M  V30 1521 C 141.704 -1.56926 -4.98168 0
M  V30 1522 H 143.398 -1.16086 -2.75979 0
M  V30 1523 H 140.944 -0.559657 -1.32679 0
M  V30 1524 H 142.897 0.857143 -4.12591 0
M  V30 1525 H 141.621 1.33721 -2.9797 0
M  V30 1526 H 140.28 -0.703754 -3.59782 0
M  V30 1527 H 139.928 1.45199 -4.81587 0
M  V30 1528 H 139.628 0.0519022 -5.87577 0
M  V30 1529 H 141.152 0.97179 -6.02817 0
M  V30 1530 H 142.566 -1.25764 -5.59336 0
M  V30 1531 H 140.963 -2.04739 -5.64094 0
M  V30 1532 H 142.033 -2.32544 -4.25501 0
M  V30 1533 N 143.376 1.44774 -0.622745 0
M  V30 1534 C 144.604 2.06487 -0.130722 0
M  V30 1535 C 145.019 1.46476 1.19123 0
M  V30 1536 O 144.376 0.584502 1.72887 0
M  V30 1537 C 144.427 3.615 -0.000807207 0
M  V30 1538 O 144.148 4.19274 -1.27048 0
M  V30 1539 C 145.649 4.40229 0.520898 0
M  V30 1540 H 142.869 0.666704 -0.0758106 0
M  V30 1541 H 145.413 1.85779 -0.854774 0
M  V30 1542 H 143.568 3.81498 0.673643 0
M  V30 1543 H 143.982 5.12622 -1.1099 0
M  V30 1544 H 145.456 5.49144 0.560838 0
M  V30 1545 H 145.933 4.1108 1.54627 0
M  V30 1546 H 146.539 4.25131 -0.120018 0
M  V30 1547 N 144.854 0.36279 1.53368 0
M  V30 1548 C 146.084 -0.228281 2.05335 0
M  V30 1549 C 146.492 -1.43226 1.23625 0
M  V30 1550 O 145.835 -1.81717 0.269206 0
M  V30 1551 C 145.897 -0.688549 3.52845 0
M  V30 1552 C 145.561 0.398362 4.5526 0
M  V30 1553 C 146.558 1.24732 5.04716 0
M  V30 1554 C 144.243 0.557805 4.99193 0
M  V30 1555 C 146.237 2.2411 5.96702 0
M  V30 1556 C 143.924 1.55495 5.90986 0
M  V30 1557 C 144.922 2.39503 6.39631 0
M  V30 1558 O 144.61 3.37517 7.29615 0
M  V30 1559 H 144.342 -0.044395 0.674541 0
M  V30 1560 H 146.896 0.518668 1.98744 0
M  V30 1561 H 145.126 -1.48706 3.56964 0
M  V30 1562 H 146.815 -1.20231 3.87685 0
M  V30 1563 H 147.581 1.13532 4.71525 0
M  V30 1564 H 143.46 -0.0862959 4.60919 0
M  V30 1565 H 147.004 2.89718 6.34594 0
M  V30 1566 H 142.901 1.66744 6.23592 0
M  V30 1567 H 143.669 3.33213 7.47604 0
M  V30 1568 N 146.332 -1.57332 0.0918853 0
M  V30 1569 C 147.242 -2.17368 -0.882505 0
M  V30 1570 C 148.258 -1.14226 -1.31257 0
M  V30 1571 O 149.434 -1.46582 -1.38115 0
M  V30 1572 C 146.499 -2.73962 -2.12476 0
M  V30 1573 C 145.56 -3.92048 -1.7492 0
M  V30 1574 C 144.793 -4.45933 -2.93223 0
M  V30 1575 O 145.016 -3.98764 -4.07852 0
M  V30 1576 O 143.95 -5.36999 -2.71875 0
M  V30 1577 H 147.776 -3.01031 -0.40172 0
M  V30 1578 H 145.361 -1.48813 -0.132291 0
M  V30 1579 H 147.243 -3.10147 -2.85283 0
M  V30 1580 H 145.918 -1.93347 -2.59613 0
M  V30 1581 H 144.825 -3.6068 -0.993025 0
M  V30 1582 H 146.158 -4.74017 -1.32548 0
M  V30 1583 N 147.81 0.181792 -1.56548 0
M  V30 1584 C 148.758 1.24461 -1.965 0
M  V30 1585 C 149.752 1.464 -0.852261 0
M  V30 1586 O 150.958 1.47103 -1.03733 0
M  V30 1587 H 147.333 0.418138 -0.625031 0
M  V30 1588 H 149.304 0.880714 -2.85107 0
M  V30 1589 C 148.053 2.57891 -2.33212 0
M  V30 1590 H 147.376 2.41829 -3.18369 0
M  V30 1591 H 148.816 3.3097 -2.65019 0
M  V30 1592 C 147.275 3.15871 -1.17163 0
M  V30 1593 O 147.805 3.9913 -0.453708 0
M  V30 1594 N 146.011 2.74808 -0.944936 0
M  V30 1595 H 145.558 2.07205 -1.53049 0
M  V30 1596 H 145.516 3.13939 -0.170286 0
M  V30 1597 N 149.288 1.51039 0.449983 0
M  V30 1598 C 150.534 1.63322 1.20223 0
M  V30 1599 C 150.867 0.34241 1.91158 0
M  V30 1600 O 150.142 -0.657344 1.83055 0
M  V30 1601 C 150.425 2.82801 2.22925 0
M  V30 1602 C 150.278 4.21823 1.56157 0
M  V30 1603 C 151.597 2.97807 3.24035 0
M  V30 1604 H 148.716 0.594407 0.435718 0
M  V30 1605 H 151.358 1.83489 0.493136 0
M  V30 1606 H 149.508 2.65738 2.834 0
M  V30 1607 H 151.18 4.50526 0.991162 0
M  V30 1608 H 149.423 4.25105 0.864172 0
M  V30 1609 H 150.094 5.01391 2.30891 0
M  V30 1610 H 152.57 3.13497 2.73603 0
M  V30 1611 H 151.446 3.82992 3.93202 0
M  V30 1612 H 151.707 2.09328 3.89402 0
M  V30 1613 N 150.766 -0.704594 1.40972 0
M  V30 1614 C 151.676 -1.84856 1.44448 0
M  V30 1615 C 152.692 -1.70726 0.335961 0
M  V30 1616 O 153.868 -1.92799 0.582276 0
M  V30 1617 C 150.933 -3.20758 1.31587 0
M  V30 1618 C 149.994 -3.47063 2.52677 0
M  V30 1619 C 149.227 -4.76481 2.4042 0
M  V30 1620 O 149.45 -5.52341 1.42391 0
M  V30 1621 O 148.384 -5.03367 3.30007 0
M  V30 1622 H 152.21 -1.8488 2.40942 0
M  V30 1623 H 149.795 -0.85647 1.22413 0
M  V30 1624 H 151.677 -4.01913 1.26665 0
M  V30 1625 H 150.352 -3.21438 0.382049 0
M  V30 1626 H 149.259 -2.65873 2.63177 0
M  V30 1627 H 150.592 -3.5119 3.44858 0
M  V30 1628 N 152.244 -1.26651 -0.937939 0
M  V30 1629 C 153.66 -1.03834 -1.21205 0
M  V30 1630 C 153.86 0.234502 -2.00131 0
M  V30 1631 O 152.916 0.942767 -2.3424 0
M  V30 1632 C 154.229 -2.27167 -1.97017 0
M  V30 1633 C 155.777 -2.32101 -2.09996 0
M  V30 1634 C 156.252 -3.55136 -2.8921 0
M  V30 1635 N 157.743 -3.55632 -2.96783 0
M  V30 1636 C 158.478 -4.475 -3.58512 0
M  V30 1637 N 157.974 -5.4966 -4.21717 0
M  V30 1638 N 159.767 -4.35145 -3.55816 0
M  V30 1639 H 151.918 -2.08398 -0.410391 0
M  V30 1640 H 154.181 -0.916031 -0.244114 0
M  V30 1641 H 153.887 -3.19765 -1.46434 0
M  V30 1642 H 153.761 -2.31672 -2.97671 0
M  V30 1643 H 156.148 -1.40015 -2.59769 0
M  V30 1644 H 156.229 -2.31605 -1.08594 0
M  V30 1645 H 155.873 -4.47553 -2.40123 0
M  V30 1646 H 155.803 -3.5288 -3.90875 0
M  V30 1647 H 158.294 -2.81743 -2.51852 0
M  V30 1648 H 158.607 -6.15943 -4.66727 0
M  V30 1649 H 156.952 -5.53514 -4.20294 0
M  V30 1650 H 160.143 -3.5455 -3.05634 0
M  V30 1651 H 160.316 -5.06934 -4.03636 0
M  V30 1652 N 153.722 1.14298 -1.08507 0
M  V30 1653 C 154.968 1.85854 -0.826438 0
M  V30 1654 C 155.323 1.81413 0.640878 0
M  V30 1655 O 154.616 1.23463 1.46518 0
M  V30 1656 C 154.81 3.33547 -1.28379 0
M  V30 1657 C 154.639 3.52369 -2.79403 0
M  V30 1658 C 153.409 3.67159 -3.47164 0
M  V30 1659 C 155.607 3.49203 -3.77573 0
M  V30 1660 N 153.589 3.74149 -4.86709 0
M  V30 1661 C 154.96 3.6245 -5.03021 0
M  V30 1662 C 157.015 3.32547 -3.70563 0
M  V30 1663 C 155.718 3.60761 -6.2229 0
M  V30 1664 C 157.744 3.32162 -4.89308 0
M  V30 1665 C 157.106 3.45949 -6.13595 0
M  V30 1666 H 153.205 0.696705 -0.355143 0
M  V30 1667 H 155.789 1.36981 -1.38362 0
M  V30 1668 H 153.96 3.81008 -0.754166 0
M  V30 1669 H 155.692 3.92867 -0.971469 0
M  V30 1670 H 152.447 3.68433 -2.9758 0
M  V30 1671 H 152.871 3.81359 -5.5937 0
M  V30 1672 H 157.513 3.20797 -2.75407 0
M  V30 1673 H 155.231 3.71286 -7.17755 0
M  V30 1674 H 158.817 3.20485 -4.85573 0
M  V30 1675 H 157.697 3.456 -7.03939 0
M  V30 1676 N 155.201 0.870884 1.31352 0
M  V30 1677 C 156.131 0.343096 2.30966 0
M  V30 1678 C 157.112 -0.566507 1.60389 0
M  V30 1679 O 158.297 -0.483336 1.88089 0
M  V30 1680 C 155.427 -0.455487 3.443 0
M  V30 1681 C 154.381 0.361103 4.26474 0
M  V30 1682 C 153.707 -0.563221 5.31725 0
M  V30 1683 C 155.007 1.59566 4.97329 0
M  V30 1684 H 156.701 1.17548 2.75359 0
M  V30 1685 H 154.247 0.566686 1.32381 0
M  V30 1686 H 156.2 -0.83525 4.13039 0
M  V30 1687 H 154.924 -1.32139 2.98675 0
M  V30 1688 H 153.583 0.722825 3.59403 0
M  V30 1689 H 153.231 -1.42643 4.82351 0
M  V30 1690 H 152.931 -0.0207409 5.87596 0
M  V30 1691 H 154.455 -0.939808 6.03324 0
M  V30 1692 H 155.869 1.28728 5.58661 0
M  V30 1693 H 154.266 2.07728 5.63 0
M  V30 1694 H 155.336 2.34798 4.24262 0
M  V30 1695 N 156.679 -1.44442 0.630414 0
M  V30 1696 C 157.626 -2.30678 -0.0749355 0
M  V30 1697 C 158.596 -1.4344 -0.837502 0
M  V30 1698 O 159.781 -1.72343 -0.818684 0
M  V30 1699 C 156.921 -3.28706 -1.05103 0
M  V30 1700 C 156.034 -4.31046 -0.286954 0
M  V30 1701 C 155.169 -5.16167 -1.2548 0
M  V30 1702 C 154.208 -6.10216 -0.479843 0
M  V30 1703 N 153.345 -6.88039 -1.39811 0
M  V30 1704 H 158.185 -2.90454 0.666386 0
M  V30 1705 H 155.722 -1.43107 0.340404 0
M  V30 1706 H 157.68 -3.84027 -1.63031 0
M  V30 1707 H 156.31 -2.70632 -1.75949 0
M  V30 1708 H 155.362 -3.78203 0.408243 0
M  V30 1709 H 156.674 -4.97794 0.316657 0
M  V30 1710 H 155.828 -5.76002 -1.90544 0
M  V30 1711 H 154.567 -4.49491 -1.89233 0
M  V30 1712 H 153.572 -5.49491 0.184295 0
M  V30 1713 H 154.797 -6.78928 0.152965 0
M  V30 1714 H 152.743 -6.24032 -2.02287 0
M  V30 1715 H 152.66 -7.51223 -0.848508 0
M  V30 1716 H 153.928 -7.52397 -2.03762 0
M  V30 1717 N 158.157 -0.370918 -1.53173 0
M  V30 1718 C 159.067 0.480823 -2.2962 0
M  V30 1719 C 160.083 1.08789 -1.35798 0
M  V30 1720 O 161.259 1.09768 -1.68858 0
M  V30 1721 C 158.324 1.60227 -3.07454 0
M  V30 1722 C 157.385 1.0222 -4.16953 0
M  V30 1723 C 156.618 2.0902 -4.91066 0
M  V30 1724 O 156.841 3.30222 -4.65091 0
M  V30 1725 O 155.775 1.71778 -5.76867 0
M  V30 1726 H 159.601 -0.141421 -3.03371 0
M  V30 1727 H 157.186 -0.135146 -1.48787 0
M  V30 1728 H 159.068 2.25417 -3.56041 0
M  V30 1729 H 157.743 2.20982 -2.36535 0
M  V30 1730 H 156.65 0.334064 -3.72605 0
M  V30 1731 H 157.983 0.459131 -4.90054 0
M  V30 1732 N 159.635 1.57281 -0.100228 0
M  V30 1733 C 160.565 2.17328 0.853857 0
M  V30 1734 C 161.546 1.10804 1.2906 0
M  V30 1735 O 162.731 1.38963 1.35657 0
M  V30 1736 C 159.861 2.75772 2.11109 0
M  V30 1737 C 158.815 3.87713 1.81279 0
M  V30 1738 C 158.141 4.32882 3.13874 0
M  V30 1739 C 159.441 5.10677 1.09574 0
M  V30 1740 H 161.135 2.97305 0.353545 0
M  V30 1741 H 158.681 1.43009 0.168612 0
M  V30 1742 H 160.634 3.16433 2.78296 0
M  V30 1743 H 159.358 1.93057 2.63432 0
M  V30 1744 H 158.017 3.476 1.16489 0
M  V30 1745 H 157.665 3.47051 3.64095 0
M  V30 1746 H 157.365 5.08358 2.94696 0
M  V30 1747 H 158.889 4.7618 3.82211 0
M  V30 1748 H 160.303 5.48474 1.66879 0
M  V30 1749 H 158.7 5.91615 1.00557 0
M  V30 1750 H 159.77 4.84835 0.0793299 0
M  V30 1751 N 161.113 -0.173488 1.56642 0
M  V30 1752 C 162.529 -0.525174 1.50712 0
M  V30 1753 C 162.729 -1.8476 0.804107 0
M  V30 1754 O 161.785 -2.49869 0.363574 0
M  V30 1755 C 163.098 -0.559937 2.95441 0
M  V30 1756 C 164.646 -0.647288 3.06234 0
M  V30 1757 C 165.121 -0.712963 4.52417 0
M  V30 1758 N 166.612 -0.775911 4.56655 0
M  V30 1759 C 167.347 -0.847264 5.67106 0
M  V30 1760 N 166.843 -0.879585 6.87194 0
M  V30 1761 N 168.636 -0.886117 5.55071 0
M  V30 1762 H 160.787 0.693681 2.00753 0
M  V30 1763 H 163.05 0.249841 0.914485 0
M  V30 1764 H 162.756 0.343049 3.50023 0
M  V30 1765 H 162.63 -1.40718 3.49969 0
M  V30 1766 H 165.017 -1.5407 2.51687 0
M  V30 1767 H 165.098 0.226586 2.54794 0
M  V30 1768 H 164.742 0.176183 5.07594 0
M  V30 1769 H 164.672 -1.60295 5.0161 0
M  V30 1770 H 167.163 -0.759304 3.70193 0
M  V30 1771 H 167.476 -0.935144 7.67121 0
M  V30 1772 H 165.821 -0.847898 6.89808 0
M  V30 1773 H 169.012 -0.857853 4.60172 0
M  V30 1774 H 169.185 -0.938263 6.41171 0
M  V30 1775 N 162.591 -1.51276 -0.441967 0
M  V30 1776 C 163.868 -1.54252 -1.20273 0
M  V30 1777 C 164.248 -0.30408 -2.08898 0
M  V30 1778 O 163.596 0.711084 -2.17154 0
M  V30 1779 C 163.806 -2.85406 -2.00859 0
M  V30 1780 C 165.154 -3.37181 -2.58059 0
M  V30 1781 O 166.178 -2.86925 -2.11074 0
M  V30 1782 O 165.037 -4.24858 -3.43741 0
M  V30 1783 H 162.131 -0.619969 -0.547328 0
M  V30 1784 H 164.677 -1.63586 -0.451413 0
M  V30 1785 H 163.449 -3.67003 -1.35736 0
M  V30 1786 H 163.072 -2.79213 -2.83065 0
M  V30 1787 N 164.069 0.697108 -1.41344 0
M  V30 1788 C 165.019 1.80313 -1.39539 0
M  V30 1789 C 166.003 1.58618 -0.270001 0
M  V30 1790 O 167.195 1.69477 -0.510551 0
M  V30 1791 C 164.324 3.18606 -1.27848 0
M  V30 1792 C 163.41 3.46001 -2.45244 0
M  V30 1793 N 163.801 3.44103 -3.70711 0
M  V30 1794 C 162.099 3.76542 -2.39023 0
M  V30 1795 C 162.8 3.7036 -4.48563 0
M  V30 1796 N 161.776 3.90027 -3.78655 0
M  V30 1797 H 165.578 1.77207 -2.34468 0
M  V30 1798 H 163.092 0.897031 -1.35378 0
M  V30 1799 H 165.089 3.97833 -1.24637 0
M  V30 1800 H 163.749 3.22925 -0.339032 0
M  V30 1801 H 164.76 3.2452 -4.03618 0
M  V30 1802 H 161.437 3.88241 -1.53542 0
M  V30 1803 H 162.827 3.75042 -5.57488 0
M  V30 1804 N 165.547 1.27147 0.931209 0
M  V30 1805 C 166.51 1.09615 2.01289 0
M  V30 1806 C 167.51 0.0412581 1.60747 0
M  V30 1807 O 168.7 0.285545 1.71844 0
M  V30 1808 C 165.832 0.669447 3.34262 0
M  V30 1809 H 167.025 2.05662 2.18273 0
M  V30 1810 H 164.578 1.09885 1.11153 0
M  V30 1811 H 165.313 -0.292572 3.22978 0
M  V30 1812 H 165.098 1.43127 3.65044 0
M  V30 1813 H 166.588 0.568921 4.13706 0
M  V30 1814 N 167.025 -1.13721 1.09112 0
M  V30 1815 C 168.302 -1.81155 0.737706 0
M  V30 1816 C 168.682 -1.96253 -0.777683 0
M  V30 1817 O 168.03 -1.52807 -1.69889 0
M  V30 1818 C 168.24 -3.16392 1.47299 0
M  V30 1819 C 169.588 -3.91787 1.63671 0
M  V30 1820 O 170.612 -3.26005 1.43524 0
M  V30 1821 O 169.471 -5.0977 1.96969 0
M  V30 1822 H 166.565 -0.783518 0.26463 0
M  V30 1823 H 169.111 -1.20676 1.19312 0
M  V30 1824 H 167.883 -3.0061 2.50498 0
M  V30 1825 H 167.506 -3.8457 1.00953 0
M  V30 1826 N 168.503 -0.877838 -1.30888 0
M  V30 1827 C 169.728 -0.506629 -2.01117 0
M  V30 1828 C 170.153 0.895564 -1.65412 0
M  V30 1829 O 169.511 1.5923 -0.866922 0
M  V30 1830 C 169.559 -0.680223 -3.54126 0
M  V30 1831 O 168.663 0.277033 -4.11468 0
M  V30 1832 H 168.004 -0.200518 -0.633 0
M  V30 1833 H 170.534 -1.18342 -1.66902 0
M  V30 1834 H 170.544 -0.5765 -4.03907 0
M  V30 1835 H 169.219 -1.70261 -3.79452 0
M  V30 1836 H 167.796 0.127606 -3.72682 0
M  V30 1837 N 169.982 1.44106 -0.638065 0
M  V30 1838 C 170.93 2.3248 0.0748149 0
M  V30 1839 C 171.924 1.47746 0.828702 0
M  V30 1840 O 173.13 1.64049 0.740816 0
M  V30 1841 H 169.505 0.750771 0.0429686 0
M  V30 1842 H 171.476 2.90348 -0.688504 0
M  V30 1843 C 170.225 3.31843 1.03805 0
M  V30 1844 H 169.548 3.97059 0.467375 0
M  V30 1845 H 170.988 3.96345 1.50622 0
M  V30 1846 C 169.447 2.61291 2.1267 0
M  V30 1847 O 169.977 2.41702 3.20847 0
M  V30 1848 N 168.183 2.20915 1.88798 0
M  V30 1849 H 167.73 2.37047 1.00829 0
M  V30 1850 H 167.688 1.74038 2.61836 0
M  V30 1851 N 171.46 0.379036 1.52974 0
M  V30 1852 C 172.709 -0.207612 2.00629 0
M  V30 1853 C 173.022 -1.48758 1.27006 0
M  V30 1854 O 174.228 -2.15365 1.65318 0
M  V30 1855 C 172.684 -0.42053 3.57435 0
M  V30 1856 C 172.292 0.845587 4.39948 0
M  V30 1857 C 174.036 -0.964102 4.13407 0
M  V30 1858 C 171.943 0.601513 5.88333 0
M  V30 1859 H 170.873 -0.0813591 0.749598 0
M  V30 1860 H 173.524 0.499853 1.76561 0
M  V30 1861 H 171.906 -1.18959 3.7771 0
M  V30 1862 H 173.08 1.61848 4.31442 0
M  V30 1863 H 171.395 1.31336 3.95145 0
M  V30 1864 H 173.992 -1.16225 5.21916 0
M  V30 1865 H 174.335 -1.93019 3.68849 0
M  V30 1866 H 174.868 -0.25487 3.96983 0
M  V30 1867 H 171.607 1.53831 6.37194 0
M  V30 1868 H 171.127 -0.132628 5.99653 0
M  V30 1869 H 172.806 0.232134 6.46583 0
M  V30 1870 N 172.938 -1.57226 0.108567 0
M  V30 1871 C 174.184 -1.95121 -0.552761 0
M  V30 1872 C 174.517 -0.991345 -1.66991 0
M  V30 1873 O 173.792 -0.0267211 -1.94482 0
M  V30 1874 C 174.075 -3.43039 -1.09528 0
M  V30 1875 C 173.928 -4.49797 0.0177332 0
M  V30 1876 C 175.247 -3.92567 -1.98945 0
M  V30 1877 H 172.366 -0.709496 -0.199461 0
M  V30 1878 H 175.008 -1.89126 0.182011 0
M  V30 1879 H 173.158 -3.48279 -1.72146 0
M  V30 1880 H 174.83 -4.56661 0.652584 0
M  V30 1881 H 173.073 -4.284 0.682309 0
M  V30 1882 H 173.744 -5.50528 -0.402919 0
M  V30 1883 H 176.22 -3.89565 -1.46214 0
M  V30 1884 H 175.096 -4.96605 -2.33827 0
M  V30 1885 H 175.357 -3.32648 -2.91201 0
M  V30 1886 N 174.416 0.165178 -1.56732 0
M  V30 1887 C 175.665 0.879143 -1.81532 0
M  V30 1888 C 175.978 1.83144 -0.686842 0
M  V30 1889 O 177.184 2.58823 -0.819944 0
M  V30 1890 C 175.64 1.61388 -3.21686 0
M  V30 1891 C 175.248 0.704904 -4.4242 0
M  V30 1892 C 176.992 2.3157 -3.55774 0
M  V30 1893 C 174.899 1.44022 -5.73595 0
M  V30 1894 H 173.829 0.332033 -0.676957 0
M  V30 1895 H 176.48 0.132008 -1.83025 0
M  V30 1896 H 174.862 2.40599 -3.14529 0
M  V30 1897 H 176.036 -0.0506815 -4.60772 0
M  V30 1898 H 174.351 0.112419 -4.16248 0
M  V30 1899 H 176.948 2.8719 -4.51028 0
M  V30 1900 H 177.291 3.07201 -2.8095 0
M  V30 1901 H 177.824 1.59297 -3.64513 0
M  V30 1902 H 174.563 0.72612 -6.51466 0
M  V30 1903 H 174.083 2.16898 -5.5921 0
M  V30 1904 H 175.762 1.98606 -6.15764 0
M  V30 1905 N 175.894 1.51508 0.433938 0
M  V30 1906 C 176.827 1.67756 1.54704 0
M  V30 1907 C 177.805 0.525127 1.53887 0
M  V30 1908 O 178.989 0.749393 1.72963 0
M  V30 1909 C 176.116 1.69424 2.9328 0
M  V30 1910 C 175.162 2.90673 3.12108 0
M  V30 1911 S 175.995 4.51431 2.88046 0
M  V30 1912 C 177.151 4.55849 4.28897 0
M  V30 1913 H 177.384 2.61904 1.40689 0
M  V30 1914 H 174.917 1.41235 0.62386 0
M  V30 1915 H 176.875 1.7107 3.73156 0
M  V30 1916 H 175.536 0.764464 3.04655 0
M  V30 1917 H 174.729 2.88251 4.13434 0
M  V30 1918 H 174.331 2.86786 2.40062 0
M  V30 1919 H 176.623 4.31699 5.22152 0
M  V30 1920 H 177.566 5.57676 4.36351 0
M  V30 1921 H 177.974 3.85137 4.12711 0
M  V30 1922 N 177.372 -0.689602 1.41712 0
M  V30 1923 C 178.302 -1.81577 1.46806 0
M  V30 1924 C 179.283 -1.66945 0.326105 0
M  V30 1925 O 180.468 -1.86588 0.538377 0
M  V30 1926 C 177.598 -3.19762 1.35535 0
M  V30 1927 C 176.552 -3.49107 2.47605 0
M  V30 1928 C 175.878 -4.86711 2.21397 0
M  V30 1929 C 177.178 -3.47483 3.89939 0
M  V30 1930 H 178.872 -1.7757 2.41058 0
M  V30 1931 H 176.418 -0.852887 1.16025 0
M  V30 1932 H 178.371 -3.98263 1.3771 0
M  V30 1933 H 177.095 -3.24409 0.377708 0
M  V30 1934 H 175.754 -2.72959 2.44722 0
M  V30 1935 H 175.402 -4.8799 1.21961 0
M  V30 1936 H 175.102 -5.0731 2.96497 0
M  V30 1937 H 176.626 -5.67515 2.25297 0
M  V30 1938 H 178.04 -4.1598 3.94505 0
M  V30 1939 H 176.437 -3.79615 4.64771 0
M  V30 1940 H 177.507 -2.46341 4.17665 0
M  V30 1941 N 178.85 -1.27639 -0.924453 0
M  V30 1942 C 180.096 -1.14336 -1.67497 0
M  V30 1943 C 180.429 0.309465 -1.91718 0
M  V30 1944 O 179.704 1.22608 -1.50989 0
M  V30 1945 C 179.987 -1.93096 -3.0395 0
M  V30 1946 C 179.84 -3.46381 -2.8695 0
M  V30 1947 C 181.159 -1.73798 -4.0433 0
M  V30 1948 H 178.278 -0.416728 -0.607871 0
M  V30 1949 H 180.92 -1.56832 -1.07256 0
M  V30 1950 H 179.07 -1.56982 -3.55372 0
M  V30 1951 H 180.742 -3.92343 -2.42621 0
M  V30 1952 H 178.985 -3.72557 -2.22225 0
M  V30 1953 H 179.656 -3.96735 -3.83804 0
M  V30 1954 H 182.132 -2.05293 -3.61931 0
M  V30 1955 H 181.008 -2.31294 -4.97789 0
M  V30 1956 H 181.269 -0.686725 -4.36734 0
M  V30 1957 N 180.328 1.1314 -1.09713 0
M  V30 1958 C 181.576 1.84119 -0.833338 0
M  V30 1959 C 181.897 1.84097 0.642904 0
M  V30 1960 O 181.167 1.29881 1.46655 0
M  V30 1961 H 179.747 0.681766 -0.305293 0
M  V30 1962 H 182.409 1.37038 -1.38588 0
M  V30 1963 H 181.505 2.88543 -1.18951 0
M  V30 1964 N 181.806 0.884767 1.30421 0
M  V30 1965 C 182.754 0.340869 2.30089 0
M  V30 1966 C 183.748 -0.55201 1.60154 0
M  V30 1967 O 184.954 -0.436467 1.74628 0
M  V30 1968 H 181.329 0.0915739 0.746404 0
M  V30 1969 H 183.3 1.19513 2.73421 0
M  V30 1970 C 182.049 -0.429779 3.45034 0
M  V30 1971 H 181.372 0.248024 3.9903 0
M  V30 1972 H 182.812 -0.775445 4.16849 0
M  V30 1973 C 181.271 -1.62677 2.95022 0
M  V30 1974 O 181.801 -2.72614 2.95033 0
M  V30 1975 N 180.007 -1.46387 2.51036 0
M  V30 1976 H 179.554 -0.569506 2.51226 0
M  V30 1977 H 179.512 -2.26612 2.17932 0
M  V30 1978 N 183.284 -1.43765 0.645699 0
M  V30 1979 C 184.231 -2.30745 -0.0504648 0
M  V30 1980 C 185.201 -1.4432 -0.822241 0
M  V30 1981 O 186.386 -1.73202 -0.800358 0
M  V30 1982 C 183.526 -3.29802 -1.0161 0
M  V30 1983 C 182.639 -4.31326 -0.241219 0
M  V30 1984 C 181.774 -5.17469 -1.19998 0
M  V30 1985 C 180.813 -6.10691 -0.415094 0
M  V30 1986 N 179.95 -6.89483 -1.32506 0
M  V30 1987 H 184.79 -2.8973 0.697155 0
M  V30 1988 H 182.327 -1.42738 0.355563 0
M  V30 1989 H 184.285 -3.85734 -1.58949 0
M  V30 1990 H 182.915 -2.72483 -1.73069 0
M  V30 1991 H 181.967 -3.77749 0.448334 0
M  V30 1992 H 183.279 -4.9743 0.369437 0
M  V30 1993 H 182.433 -5.7799 -1.84424 0
M  V30 1994 H 181.172 -4.51473 -1.84455 0
M  V30 1995 H 180.177 -5.49265 0.242565 0
M  V30 1996 H 181.402 -6.78727 0.224966 0
M  V30 1997 H 179.348 -6.26142 -1.95657 0
M  V30 1998 H 179.265 -7.52081 -0.768783 0
M  V30 1999 H 180.533 -7.54516 -1.9577 0
M  V30 2000 N 184.763 -0.387143 -1.52771 0
M  V30 2001 C 185.988 0.198407 -2.06449 0
M  V30 2002 C 186.413 1.39918 -1.25716 0
M  V30 2003 O 185.771 1.79099 -0.281657 0
M  V30 2004 C 185.819 0.548893 -3.56398 0
M  V30 2005 O 184.923 1.64315 -3.78252 0
M  V30 2006 H 184.264 0.0237731 -0.663574 0
M  V30 2007 H 186.794 -0.553989 -1.96957 0
M  V30 2008 H 186.804 0.813812 -3.99801 0
M  V30 2009 H 185.479 -0.329005 -4.14597 0
M  V30 2010 H 184.056 1.37211 -3.46738 0
M  V30 2011 N 186.241 1.57166 -0.116904 0
M  V30 2012 C 187.518 1.86645 0.585049 0
M  V30 2013 C 187.898 1.0177 1.84949 0
M  V30 2014 O 187.246 0.0960379 2.28298 0
M  V30 2015 C 187.456 3.37736 0.879507 0
M  V30 2016 C 188.804 4.06289 1.23348 0
M  V30 2017 O 189.828 3.42743 0.969836 0
M  V30 2018 O 188.687 5.18455 1.7282 0
M  V30 2019 H 185.781 0.772593 0.295007 0
M  V30 2020 H 188.327 1.69025 -0.151249 0
M  V30 2021 H 187.099 3.91296 -0.0166136 0
M  V30 2022 H 186.722 3.6078 1.67103 0
M  V30 2023 N 187.719 -0.156864 1.56817 0
M  V30 2024 C 188.649 -1.19589 2.00551 0
M  V30 2025 C 189.63 -1.4536 0.883426 0
M  V30 2026 O 190.815 -1.56449 1.15054 0
M  V30 2027 C 187.945 -2.53143 2.37773 0
M  V30 2028 C 186.899 -2.41913 3.53075 0
M  V30 2029 C 186.225 -3.80088 3.76081 0
M  V30 2030 C 187.525 -1.91157 4.86062 0
M  V30 2031 H 189.219 -0.832293 2.87599 0
M  V30 2032 H 186.765 -0.398918 1.38364 0
M  V30 2033 H 188.718 -3.26047 2.66967 0
M  V30 2034 H 187.442 -2.91319 1.4765 0
M  V30 2035 H 186.101 -1.71462 3.24031 0
M  V30 2036 H 185.749 -4.15683 2.83225 0
M  V30 2037 H 185.449 -3.73439 4.53671 0
M  V30 2038 H 186.973 -4.54556 4.0769 0
M  V30 2039 H 188.387 -2.53846 5.14038 0
M  V30 2040 H 186.784 -1.95422 5.67389 0
M  V30 2041 H 187.854 -0.866673 4.77092 0
M  V30 2042 N 189.197 -1.51736 -0.425897 0
M  V30 2043 C 190.613 -1.40166 -0.76326 0
M  V30 2044 C 190.813 -0.492962 -1.95377 0
M  V30 2045 O 189.869 0.0475815 -2.52455 0
M  V30 2046 C 191.182 -2.82403 -1.03291 0
M  V30 2047 C 192.73 -2.91632 -1.13665 0
M  V30 2048 C 193.205 -4.34801 -1.43916 0
M  V30 2049 N 194.696 -4.3796 -1.50816 0
M  V30 2050 C 195.431 -5.4578 -1.75817 0
M  V30 2051 N 194.927 -6.63744 -1.98534 0
M  V30 2052 N 196.72 -5.33274 -1.77694 0
M  V30 2053 H 188.871 -2.09361 0.358 0
M  V30 2054 H 191.134 -0.942941 0.0978094 0
M  V30 2055 H 190.84 -3.50943 -0.230696 0
M  V30 2056 H 190.714 -3.22428 -1.95754 0
M  V30 2057 H 193.101 -2.23284 -1.92947 0
M  V30 2058 H 193.182 -2.55088 -0.190756 0
M  V30 2059 H 192.826 -5.03703 -0.65157 0
M  V30 2060 H 192.756 -4.68868 -2.39729 0
M  V30 2061 H 195.247 -3.52919 -1.35118 0
M  V30 2062 H 195.56 -7.41704 -2.17013 0
M  V30 2063 H 193.905 -6.66839 -1.95832 0
M  V30 2064 H 197.096 -4.40098 -1.59473 0
M  V30 2065 H 197.269 -6.1738 -1.9684 0
M  V30 2066 N 190.675 0.682077 -1.42076 0
M  V30 2067 C 191.625 1.78823 -1.41444 0
M  V30 2068 C 192.609 1.58323 -0.28681 0
M  V30 2069 O 193.801 1.68926 -0.528498 0
M  V30 2070 C 190.93 3.17232 -1.3122 0
M  V30 2071 C 190.016 3.4338 -2.489 0
M  V30 2072 N 190.407 3.40152 -3.7434 0
M  V30 2073 C 188.705 3.73986 -2.43003 0
M  V30 2074 C 189.406 3.65581 -4.52466 0
M  V30 2075 N 188.382 3.85989 -3.8277 0
M  V30 2076 H 192.184 1.7471 -2.36334 0
M  V30 2077 H 189.698 0.882622 -1.36321 0
M  V30 2078 H 191.695 3.96489 -1.2885 0
M  V30 2079 H 190.355 3.22547 -0.373263 0
M  V30 2080 H 191.366 3.20221 -4.07037 0
M  V30 2081 H 188.043 3.86591 -1.57651 0
M  V30 2082 H 189.433 3.69108 -5.61435 0
M  V30 2083 N 192.153 1.28127 0.917671 0
M  V30 2084 C 193.083 1.14248 2.03641 0
M  V30 2085 C 194.064 0.0412748 1.7005 0
M  V30 2086 O 195.249 0.217566 1.92977 0
M  V30 2087 C 192.379 0.799431 3.37974 0
M  V30 2088 C 191.333 1.85497 3.85713 0
M  V30 2089 C 190.659 1.36565 5.16966 0
M  V30 2090 C 191.959 3.26085 4.08002 0
M  V30 2091 H 193.653 2.07835 2.15511 0
M  V30 2092 H 191.199 1.00064 1.03553 0
M  V30 2093 H 193.152 0.689114 4.15727 0
M  V30 2094 H 191.876 -0.172145 3.26146 0
M  V30 2095 H 190.535 1.95437 3.10161 0
M  V30 2096 H 190.183 0.383253 5.01538 0
M  V30 2097 H 189.883 2.07143 5.49878 0
M  V30 2098 H 191.407 1.26848 5.97279 0
M  V30 2099 H 192.821 3.19089 4.76293 0
M  V30 2100 H 191.218 3.94462 4.52238 0
M  V30 2101 H 192.288 3.70394 3.12948 0
M  V30 2102 N 193.631 -1.12557 1.10312 0
M  V30 2103 C 195.047 -1.36036 0.834649 0
M  V30 2104 C 195.247 -1.93946 -0.546539 0
M  V30 2105 O 194.303 -2.16484 -1.29966 0
M  V30 2106 C 195.616 -2.30312 1.9333 0
M  V30 2107 C 197.164 -2.43906 1.9616 0
M  V30 2108 C 197.639 -3.41496 3.05195 0
M  V30 2109 N 199.13 -3.49053 3.04494 0
M  V30 2110 C 199.865 -4.24471 3.85502 0
M  V30 2111 N 199.361 -5.02966 4.76442 0
M  V30 2112 N 201.154 -4.19864 3.73725 0
M  V30 2113 H 193.305 -0.733246 1.99342 0
M  V30 2114 H 195.568 -0.385234 0.866198 0
M  V30 2115 H 195.274 -1.94933 2.92735 0
M  V30 2116 H 195.148 -3.30421 1.81939 0
M  V30 2117 H 197.535 -2.78567 0.973886 0
M  V30 2118 H 197.616 -1.4369 2.11629 0
M  V30 2119 H 197.26 -3.07565 4.04186 0
M  V30 2120 H 197.19 -4.41539 2.86968 0
M  V30 2121 H 199.681 -2.93053 2.38596 0
M  V30 2122 H 199.994 -5.57846 5.34815 0
M  V30 2123 H 198.339 -5.02167 4.80472 0
M  V30 2124 H 201.53 -3.57623 3.02032 0
M  V30 2125 H 201.703 -4.78386 4.37093 0
M  V30 2126 N 195.109 -0.891671 -1.2995 0
M  V30 2127 C 196.072 -0.36828 -2.26222 0
M  V30 2128 C 197.072 0.493014 -1.53056 0
M  V30 2129 O 198.262 0.299213 -1.71611 0
M  V30 2130 C 195.394 0.47442 -3.37583 0
M  V30 2131 H 196.587 -1.21844 -2.74033 0
M  V30 2132 H 194.14 -0.669107 -1.41254 0
M  V30 2133 H 194.875 1.34489 -2.95099 0
M  V30 2134 H 194.66 -0.142615 -3.91841 0
M  V30 2135 H 196.15 0.83218 -4.09224 0
M  V30 2136 N 196.587 1.43421 -0.653314 0
M  V30 2137 C 197.833 2.02111 -0.166992 0
M  V30 2138 C 198.166 1.51423 1.21592 0
M  V30 2139 O 197.441 0.707389 1.8118 0
M  V30 2140 C 197.724 3.5966 -0.177948 0
M  V30 2141 C 197.577 4.20579 -1.59478 0
M  V30 2142 C 198.896 4.37413 0.4856 0
M  V30 2143 H 196.015 0.734374 -0.0621557 0
M  V30 2144 H 198.657 1.70717 -0.834016 0
M  V30 2145 H 196.807 3.86537 0.390032 0
M  V30 2146 H 198.479 4.04732 -2.21336 0
M  V30 2147 H 196.722 3.77226 -2.14204 0
M  V30 2148 H 197.393 5.29665 -1.5543 0
M  V30 2149 H 199.869 4.161 0.00234528 0
M  V30 2150 H 198.745 5.47075 0.447207 0
M  V30 2151 H 199.006 4.13672 1.55974 0
M  V30 2152 N 198.065 0.39524 1.52563 0
M  V30 2153 C 199.476 -0.0774719 1.86539 0
M  V30 2154 C 199.827 -1.45641 1.31466 0
M  V30 2155 O 198.952 -2.06459 0.648367 0
M  V30 2156 C 199.547 -0.147356 3.38479 0
M  V30 2157 C 198.106 -0.564373 3.72145 0
M  V30 2158 C 197.253 0.269919 2.75983 0
M  V30 2159 H 200.204 0.612876 1.46388 0
M  V30 2160 H 200.225 -0.965343 3.68051 0
M  V30 2161 H 199.737 0.856387 3.78534 0
M  V30 2162 H 197.838 -1.57527 3.37663 0
M  V30 2163 H 197.951 -0.318402 4.78041 0
M  V30 2164 H 196.315 -0.265696 2.5331 0
M  V30 2165 H 197.098 1.27175 3.18875 0
M  V30 2166 N 199.544 -1.57102 0.125237 0
M  V30 2167 C 200.772 -1.99761 -0.538797 0
M  V30 2168 C 201.187 -1.00503 -1.59827 0
M  V30 2169 O 200.544 0.00119474 -1.825 0
M  V30 2170 C 200.595 -3.42408 -1.15927 0
M  V30 2171 O 200.316 -4.37869 -0.142143 0
M  V30 2172 C 201.817 -4.00232 -1.90602 0
M  V30 2173 H 199.037 -0.655772 -0.14214 0
M  V30 2174 H 201.581 -2.03383 0.213413 0
M  V30 2175 H 199.736 -3.39706 -1.86223 0
M  V30 2176 H 200.15 -5.21128 -0.593775 0
M  V30 2177 H 201.624 -5.02105 -2.29335 0
M  V30 2178 H 202.101 -3.39721 -2.78363 0
M  V30 2179 H 202.707 -4.06499 -1.25055 0
M  V30 2180 N 201.022 0.148545 -1.56898 0
M  V30 2181 C 202.299 0.890019 -1.74178 0
M  V30 2182 C 202.679 1.99407 -0.692839 0
M  V30 2183 O 202.027 2.26671 0.288505 0
M  V30 2184 C 202.237 1.43389 -3.18183 0
M  V30 2185 C 203.585 1.89791 -3.79822 0
M  V30 2186 O 204.609 1.53134 -3.21603 0
M  V30 2187 O 203.468 2.57387 -4.82093 0
M  V30 2188 H 200.562 0.420496 -0.712118 0
M  V30 2189 H 203.108 0.134591 -1.69165 0
M  V30 2190 H 201.88 0.640383 -3.86024 0
M  V30 2191 H 201.503 2.25287 -3.27615 0
M  V30 2192 N 202.5 1.5196 0.417844 0
M  V30 2193 C 203.41 1.77554 1.53336 0
M  V30 2194 C 204.426 0.660655 1.6097 0
M  V30 2195 O 205.602 0.945099 1.77848 0
M  V30 2196 C 202.667 1.91291 2.89152 0
M  V30 2197 C 201.728 3.15183 2.91475 0
M  V30 2198 C 200.961 3.28256 4.20813 0
M  V30 2199 O 201.184 2.46798 5.14244 0
M  V30 2200 O 200.118 4.21356 4.29817 0
M  V30 2201 H 203.944 2.7222 1.34647 0
M  V30 2202 H 201.529 1.36698 0.602828 0
M  V30 2203 H 203.411 2.02199 3.69721 0
M  V30 2204 H 202.086 0.998129 3.07927 0
M  V30 2205 H 200.993 3.09739 2.09791 0
M  V30 2206 H 202.326 4.06414 2.77648 0
M  V30 2207 N 203.978 -0.674533 1.42435 0
M  V30 2208 C 204.941 -1.76986 1.45632 0
M  V30 2209 C 205.941 -1.5708 0.343871 0
M  V30 2210 O 207.131 -1.63367 0.604709 0
M  V30 2211 C 204.263 -3.15623 1.28822 0
M  V30 2212 H 205.456 -1.75539 2.43158 0
M  V30 2213 H 203.009 -0.884189 1.28887 0
M  V30 2214 H 203.744 -3.22696 0.322193 0
M  V30 2215 H 203.529 -3.31475 2.09444 0
M  V30 2216 H 205.019 -3.95537 1.33942 0
M  V30 2217 N 205.456 -1.28612 -0.910864 0
M  V30 2218 C 206.872 -1.06381 -1.18976 0
M  V30 2219 C 207.072 0.191998 -2.00583 0
M  V30 2220 O 206.128 0.892869 -2.36187 0
M  V30 2221 C 207.441 -2.31295 -1.92154 0
M  V30 2222 C 208.989 -2.36503 -2.05025 0
M  V30 2223 C 209.464 -3.61191 -2.81612 0
M  V30 2224 N 210.955 -3.61847 -2.89172 0
M  V30 2225 C 211.69 -4.55004 -3.4894 0
M  V30 2226 N 211.186 -5.58482 -4.09963 0
M  V30 2227 N 212.979 -4.42594 -3.46506 0
M  V30 2228 H 205.13 -2.09221 -0.366094 0
M  V30 2229 H 207.393 -0.921003 -0.224629 0
M  V30 2230 H 207.099 -3.228 -1.39618 0
M  V30 2231 H 206.973 -2.37934 -2.9269 0
M  V30 2232 H 209.36 -1.45494 -2.5674 0
M  V30 2233 H 209.441 -2.33857 -1.03657 0
M  V30 2234 H 209.085 -4.52545 -2.30576 0
M  V30 2235 H 209.015 -3.61092 -3.83302 0
M  V30 2236 H 211.506 -2.87022 -2.45819 0
M  V30 2237 H 211.819 -6.25704 -4.53557 0
M  V30 2238 H 210.164 -5.62305 -4.08459 0
M  V30 2239 H 213.355 -3.60953 -2.98045 0
M  V30 2240 H 213.528 -5.15381 -3.92793 0
M  V30 2241 N 206.934 1.1197 -1.10907 0
M  V30 2242 C 207.897 2.16031 -0.765707 0
M  V30 2243 C 208.897 1.59393 0.212235 0
M  V30 2244 O 210.087 1.74196 -0.0115441 0
M  V30 2245 C 207.219 3.40632 -0.135053 0
M  V30 2246 H 208.412 2.47919 -1.68748 0
M  V30 2247 H 205.965 1.27061 -0.910226 0
M  V30 2248 H 206.7 3.14348 0.797218 0
M  V30 2249 H 206.485 3.8302 -0.838937 0
M  V30 2250 H 207.975 4.17505 0.0892469 0
M  V30 2251 N 208.412 0.89855 1.29475 0
M  V30 2252 C 209.659 0.523882 1.95606 0
M  V30 2253 C 209.987 -0.929608 1.70847 0
M  V30 2254 O 209.242 -1.67401 1.01367 0
M  V30 2255 C 209.541 0.761398 3.49195 0
M  V30 2256 C 209.207 2.19207 3.94029 0
M  V30 2257 C 207.869 2.58326 4.05982 0
M  V30 2258 C 210.221 3.12379 4.17216 0
M  V30 2259 C 207.549 3.898 4.38489 0
M  V30 2260 C 209.901 4.43401 4.51197 0
M  V30 2261 C 208.565 4.82394 4.61359 0
M  V30 2262 H 207.835 0.191702 0.715773 0
M  V30 2263 H 210.482 1.13699 1.54094 0
M  V30 2264 H 208.787 0.0653622 3.91745 0
M  V30 2265 H 210.484 0.450904 3.98457 0
M  V30 2266 H 207.074 1.87846 3.85242 0
M  V30 2267 H 211.258 2.83371 4.07449 0
M  V30 2268 H 206.514 4.19734 4.44559 0
M  V30 2269 H 210.688 5.15623 4.68087 0
M  V30 2270 H 208.315 5.84306 4.86303 0
M  V30 2271 N 209.89 -1.43072 0.660911 0
M  V30 2272 C 210.853 -2.29194 -0.0166406 0
M  V30 2273 C 211.853 -1.42609 -0.742912 0
M  V30 2274 O 213.043 -1.64155 -0.583004 0
M  V30 2275 C 210.175 -3.24831 -1.0343 0
M  V30 2276 H 211.368 -2.90596 0.741208 0
M  V30 2277 H 208.921 -1.5048 0.422532 0
M  V30 2278 H 209.656 -2.68339 -1.82111 0
M  V30 2279 H 209.441 -3.88676 -0.517082 0
M  V30 2280 H 210.931 -3.89451 -1.50723 0
M  V30 2281 N 211.368 -0.403325 -1.52352 0
M  V30 2282 C 212.278 0.432009 -2.30588 0
M  V30 2283 C 213.294 1.05884 -1.38075 0
M  V30 2284 O 214.47 1.06161 -1.71148 0
M  V30 2285 C 211.535 1.53669 -3.10784 0
M  V30 2286 C 210.596 0.933525 -4.19027 0
M  V30 2287 C 209.829 1.98557 -4.9539 0
M  V30 2288 O 210.052 3.20283 -4.71991 0
M  V30 2289 O 208.986 1.59504 -5.80381 0
M  V30 2290 H 212.812 -0.205739 -3.03002 0
M  V30 2291 H 210.397 -0.166675 -1.48467 0
M  V30 2292 H 212.279 2.17814 -3.60742 0
M  V30 2293 H 210.954 2.15915 -2.41169 0
M  V30 2294 H 209.861 0.254954 -3.7323 0
M  V30 2295 H 211.194 0.35508 -4.90918 0
M  V30 2296 N 212.846 1.57033 -0.133567 0
M  V30 2297 C 213.793 2.16074 0.811208 0
M  V30 2298 C 214.763 1.08979 1.2535 0
M  V30 2299 O 215.948 1.36958 1.32843 0
M  V30 2300 C 213.088 2.77595 2.05024 0
M  V30 2301 C 212.201 3.99042 1.65498 0
M  V30 2302 C 211.336 4.48603 2.84479 0
M  V30 2303 C 210.375 5.62547 2.41262 0
M  V30 2304 N 209.512 6.06787 3.53206 0
M  V30 2305 H 214.352 2.96477 0.300906 0
M  V30 2306 H 211.889 1.46462 0.136822 0
M  V30 2307 H 213.847 3.11402 2.77642 0
M  V30 2308 H 212.477 1.99859 2.53488 0
M  V30 2309 H 211.529 3.71302 0.826981 0
M  V30 2310 H 212.841 4.81629 1.29748 0
M  V30 2311 H 211.995 4.84395 3.65303 0
M  V30 2312 H 210.734 3.64995 3.23465 0
M  V30 2313 H 209.739 5.26345 1.58874 0
M  V30 2314 H 210.964 6.47931 2.03377 0
M  V30 2315 H 208.91 5.26117 3.91838 0
M  V30 2316 H 208.827 6.84266 3.21427 0
M  V30 2317 H 210.095 6.4722 4.34427 0
M  V30 2318 N 214.325 -0.140222 1.56975 0
M  V30 2319 C 215.273 -1.19207 1.99731 0
M  V30 2320 C 216.267 -1.44089 0.890777 0
M  V30 2321 O 217.473 -1.44301 1.07597 0
M  V30 2322 H 213.848 -0.40142 0.635898 0
M  V30 2323 H 215.819 -0.804813 2.87342 0
M  V30 2324 C 214.568 -2.51617 2.39967 0
M  V30 2325 H 213.891 -2.33303 3.24669 0
M  V30 2326 H 215.331 -3.23827 2.73701 0
M  V30 2327 C 213.79 -3.12654 1.25496 0
M  V30 2328 O 214.32 -3.97786 0.559371 0
M  V30 2329 N 212.526 -2.72206 1.01746 0
M  V30 2330 H 212.073 -2.03074 1.58489 0
M  V30 2331 H 212.031 -3.13377 0.253461 0
M  V30 2332 N 215.803 -1.52179 -0.40978 0
M  V30 2333 C 217.051 -1.65878 -1.15451 0
M  V30 2334 C 217.372 -0.390771 -1.91044 0
M  V30 2335 O 216.642 0.594323 -1.86667 0
M  V30 2336 H 215.222 -0.611405 -0.429177 0
M  V30 2337 H 217.884 -1.89219 -0.467134 0
M  V30 2338 H 216.98 -2.49954 -1.86894 0
M  V30 2339 N 217.281 0.66697 -1.42791 0
M  V30 2340 C 218.211 1.79218 -1.49677 0
M  V30 2341 C 219.192 1.66405 -0.352623 0
M  V30 2342 O 220.377 1.85708 -0.567993 0
M  V30 2343 C 217.507 3.17565 -1.40605 0
M  V30 2344 C 216.461 3.45124 -2.53127 0
M  V30 2345 C 215.787 4.83127 -2.29112 0
M  V30 2346 C 217.087 3.41236 -3.95418 0
M  V30 2347 H 218.781 1.73713 -2.43853 0
M  V30 2348 H 216.327 0.83432 -1.17367 0
M  V30 2349 H 218.28 3.96022 -1.44029 0
M  V30 2350 H 217.004 3.23767 -0.429271 0
M  V30 2351 H 215.663 2.69031 -2.49034 0
M  V30 2352 H 215.311 4.85988 -1.29709 0
M  V30 2353 H 215.011 5.02528 -3.04531 0
M  V30 2354 H 216.535 5.63859 -2.34297 0
M  V30 2355 H 217.949 4.09651 -4.01073 0
M  V30 2356 H 216.346 3.72173 -4.70752 0
M  V30 2357 H 217.416 2.39665 -4.21532 0
M  V30 2358 N 218.759 1.29093 0.90403 0
M  V30 2359 C 219.984 1.19809 1.69294 0
M  V30 2360 C 220.409 -0.238481 1.86582 0
M  V30 2361 O 219.767 -1.1723 1.383 0
M  V30 2362 C 219.815 1.91202 3.05736 0
M  V30 2363 O 218.919 1.22611 3.93752 0
M  V30 2364 H 218.26 0.415385 0.518027 0
M  V30 2365 H 220.79 1.70586 1.12967 0
M  V30 2366 H 220.8 1.99487 3.55906 0
M  V30 2367 H 219.475 2.95692 2.92471 0
M  V30 2368 H 218.052 1.22554 3.52186 0
M  V30 2369 N 220.237 -1.11381 1.11499 0
M  V30 2370 C 221.484 -1.83132 0.864231 0
M  V30 2371 C 221.812 -1.84683 -0.610114 0
M  V30 2372 O 221.067 -1.29589 -1.46646 0
M  V30 2373 C 221.366 -3.30026 1.37177 0
M  V30 2374 C 221.032 -3.48634 2.85946 0
M  V30 2375 C 219.694 -3.53421 3.26569 0
M  V30 2376 C 222.046 -3.54837 3.81759 0
M  V30 2377 C 219.374 -3.61967 4.61733 0
M  V30 2378 C 221.726 -3.64915 5.1674 0
M  V30 2379 C 220.39 -3.67962 5.5692 0
M  V30 2380 H 219.66 -0.670127 0.316245 0
M  V30 2381 H 222.307 -1.31354 1.3935 0
M  V30 2382 H 220.612 -3.84304 0.762753 0
M  V30 2383 H 222.309 -3.84034 1.15408 0
M  V30 2384 H 218.899 -3.45579 2.53521 0
M  V30 2385 H 223.083 -3.50399 3.51474 0
M  V30 2386 H 218.339 -3.62603 4.92269 0
M  V30 2387 H 222.513 -3.68658 5.90816 0
M  V30 2388 H 220.14 -3.74336 6.61647 0
M  V30 2389 N 221.715 -0.905404 -1.28997 0
M  V30 2390 C 222.964 -0.530191 -1.94607 0
M  V30 2391 C 223.277 0.929185 -1.72121 0
M  V30 2392 O 224.483 1.41218 -2.31883 0
M  V30 2393 C 222.939 -0.897333 -3.48534 0
M  V30 2394 C 222.547 -2.37587 -3.79811 0
M  V30 2395 C 224.291 -0.592304 -4.20347 0
M  V30 2396 C 222.198 -2.68357 -5.27009 0
M  V30 2397 H 221.128 -0.194558 -0.728466 0
M  V30 2398 H 223.779 -1.10318 -1.46636 0
M  V30 2399 H 222.161 -0.253214 -3.9519 0
M  V30 2400 H 223.335 -3.06602 -3.43994 0
M  V30 2401 H 221.65 -2.6505 -3.2115 0
M  V30 2402 H 224.247 -0.798975 -5.28697 0
M  V30 2403 H 224.59 0.469474 -4.13644 0
M  V30 2404 H 225.123 -1.19452 -3.79442 0
M  V30 2405 H 221.862 -3.73355 -5.38782 0
M  V30 2406 H 221.382 -2.03971 -5.64053 0
M  V30 2407 H 223.061 -2.54922 -5.94663 0
M  V30 2408 N 223.193 1.4272 -0.668489 0
M  V30 2409 C 224.103 2.34596 0.0139753 0
M  V30 2410 C 225.119 1.5474 0.795703 0
M  V30 2411 O 226.295 1.87334 0.739466 0
M  V30 2412 C 223.36 3.33202 0.957982 0
M  V30 2413 C 222.421 4.28957 0.17149 0
M  V30 2414 C 221.654 5.22853 1.07053 0
M  V30 2415 O 221.877 5.21531 2.31001 0
M  V30 2416 O 220.811 5.9952 0.534727 0
M  V30 2417 H 224.637 2.9448 -0.742661 0
M  V30 2418 H 222.222 1.43117 -0.428705 0
M  V30 2419 H 224.104 3.93796 1.50008 0
M  V30 2420 H 222.779 2.758 1.69458 0
M  V30 2421 H 221.686 3.71796 -0.414558 0
M  V30 2422 H 223.019 4.89383 -0.52586 0
M  V30 2423 N 224.671 0.411399 1.52136 0
M  V30 2424 C 225.899 -0.163076 2.06256 0
M  V30 2425 C 226.314 -1.3867 1.28125 0
M  V30 2426 O 225.671 -1.79423 0.333721 0
M  V30 2427 C 225.722 -0.511252 3.57867 0
M  V30 2428 O 225.443 0.66378 4.33042 0
M  V30 2429 C 226.944 -1.13921 4.28412 0
M  V30 2430 H 224.164 -0.0193897 0.67072 0
M  V30 2431 H 226.708 0.583007 1.96013 0
M  V30 2432 H 224.863 -1.20723 3.6811 0
M  V30 2433 H 225.277 0.372601 5.23175 0
M  V30 2434 H 226.751 -1.33302 5.35663 0
M  V30 2435 H 227.228 -2.11296 3.85033 0
M  V30 2436 H 227.834 -0.483373 4.22544 0
M  V30 2437 N 226.149 -1.5696 0.141893 0
M  V30 2438 C 227.374 -2.00754 -0.520838 0
M  V30 2439 C 227.799 -1.0213 -1.57959 0
M  V30 2440 O 227.157 0.00371324 -1.813 0
M  V30 2441 C 227.205 -3.43318 -1.10294 0
M  V30 2442 O 226.309 -3.47679 -2.21795 0
M  V30 2443 H 225.65 -0.651564 -0.127908 0
M  V30 2444 H 228.18 -2.03221 0.23712 0
M  V30 2445 H 228.19 -3.82012 -1.43287 0
M  V30 2446 H 226.865 -4.14608 -0.327574 0
M  V30 2447 H 225.442 -3.20824 -1.9007 0
M  V30 2448 N 227.627 0.131896 -1.57047 0
M  V30 2449 C 228.59 1.14638 -1.98471 0
M  V30 2450 C 229.59 1.35029 -0.873148 0
M  V30 2451 O 230.78 1.31764 -1.13946 0
M  V30 2452 C 227.912 2.50358 -2.31373 0
M  V30 2453 H 229.105 0.79064 -2.8929 0
M  V30 2454 H 226.658 0.375761 -1.51716 0
M  V30 2455 H 227.393 2.90876 -1.43393 0
M  V30 2456 H 227.178 2.36915 -3.12432 0
M  V30 2457 H 228.668 3.23395 -2.64207 0
M  V30 2458 N 229.106 1.52395 0.401703 0
M  V30 2459 C 230.036 1.79231 1.49661 0
M  V30 2460 C 231.017 0.643654 1.57452 0
M  V30 2461 O 232.202 0.889989 1.72606 0
M  V30 2462 C 229.332 1.94971 2.87409 0
M  V30 2463 C 228.286 3.10604 2.94465 0
M  V30 2464 C 227.612 3.11577 4.34538 0
M  V30 2465 C 228.912 4.49921 2.6527 0
M  V30 2466 H 230.606 2.70917 1.27454 0
M  V30 2467 H 228.152 1.30362 0.6117 0
M  V30 2468 H 230.105 2.12328 3.63999 0
M  V30 2469 H 228.829 0.999632 3.10926 0
M  V30 2470 H 227.488 2.93009 2.20321 0
M  V30 2471 H 227.136 2.14277 4.55076 0
M  V30 2472 H 226.836 3.89247 4.40183 0
M  V30 2473 H 228.36 3.31073 5.13053 0
M  V30 2474 H 229.774 4.67683 3.31581 0
M  V30 2475 H 228.171 5.29564 2.82281 0
M  V30 2476 H 229.241 4.57507 1.60671 0
M  V30 2477 N 230.584 -0.659388 1.43143 0
M  V30 2478 C 231.861 -1.41627 1.34912 0
M  V30 2479 C 232.241 -2.11099 -0.00607785 0
M  V30 2480 O 231.589 -2.04353 -1.02236 0
M  V30 2481 C 231.799 -2.40604 2.52805 0
M  V30 2482 C 233.147 -3.04789 2.95616 0
M  V30 2483 O 234.171 -2.50932 2.52807 0
M  V30 2484 O 233.03 -4.02421 3.69756 0
M  V30 2485 H 230.124 -0.63246 0.532844 0
M  V30 2486 H 232.67 -0.686814 1.5518 0
M  V30 2487 H 231.442 -1.88174 3.43083 0
M  V30 2488 H 231.065 -3.21009 2.34604 0
M  V30 2489 N 232.062 -1.29571 -0.897171 0
M  V30 2490 C 233.287 -1.20705 -1.68656 0
M  V30 2491 C 233.712 0.228582 -1.86706 0
M  V30 2492 O 233.07 1.16494 -1.3892 0
M  V30 2493 C 233.118 -1.9282 -3.04717 0
M  V30 2494 O 232.222 -1.24697 -3.93096 0
M  V30 2495 H 231.563 -0.418126 -0.515816 0
M  V30 2496 H 234.093 -1.71183 -1.12061 0
M  V30 2497 H 234.103 -2.01372 -3.54843 0
M  V30 2498 H 232.778 -2.97239 -2.90899 0
M  V30 2499 H 231.355 -1.2442 -3.51531 0
M  V30 2500 N 233.54 1.10788 -1.12088 0
M  V30 2501 C 234.768 1.86461 -0.896651 0
M  V30 2502 C 235.183 1.80492 0.553912 0
M  V30 2503 O 234.54 1.19102 1.38278 0
M  V30 2504 C 234.591 3.35006 -1.35843 0
M  V30 2505 O 234.312 3.40866 -2.75213 0
M  V30 2506 C 235.813 4.27565 -1.1706 0
M  V30 2507 H 233.033 0.589425 -0.320654 0
M  V30 2508 H 235.577 1.40076 -1.48993 0
M  V30 2509 H 233.732 3.7887 -0.808458 0
M  V30 2510 H 234.146 4.33411 -2.9539 0
M  V30 2511 H 235.62 5.30007 -1.54263 0
M  V30 2512 H 236.097 4.3906 -0.110814 0
M  V30 2513 H 236.703 3.89501 -1.70789 0
M  V30 2514 N 235.018 0.912232 1.28515 0
M  V30 2515 C 235.966 0.389597 2.29314 0
M  V30 2516 C 236.96 -0.517915 1.61289 0
M  V30 2517 O 238.166 -0.399328 1.75515 0
M  V30 2518 H 234.541 0.107386 0.744293 0
M  V30 2519 H 236.512 1.25286 2.70825 0
M  V30 2520 C 235.261 -0.356496 3.45868 0
M  V30 2521 H 234.584 0.332608 3.98414 0
M  V30 2522 H 236.024 -0.686851 4.184 0
M  V30 2523 C 234.483 -1.56383 2.98406 0
M  V30 2524 O 235.013 -2.66294 3.00749 0
M  V30 2525 N 233.219 -1.41029 2.54085 0
M  V30 2526 H 232.766 -0.516089 2.52377 0
M  V30 2527 H 232.724 -2.21939 2.22689 0
M  V30 2528 N 236.496 -1.42363 0.676048 0
M  V30 2529 C 237.742 -2.0182 0.199125 0
M  V30 2530 C 238.075 -1.53339 -1.19168 0
M  V30 2531 O 237.35 -0.736124 -1.80032 0
M  V30 2532 C 237.633 -3.59331 0.235144 0
M  V30 2533 C 237.486 -4.17989 1.66149 0
M  V30 2534 C 238.805 -4.3813 -0.41595 0
M  V30 2535 H 235.924 -0.733293 0.0738311 0
M  V30 2536 H 238.566 -1.69368 0.86107 0
M  V30 2537 H 236.716 -3.87109 -0.328487 0
M  V30 2538 H 238.388 -4.0116 2.27747 0
M  V30 2539 H 236.631 -3.7377 2.20178 0
M  V30 2540 H 237.302 -5.27126 1.63837 0
M  V30 2541 H 239.778 -4.16051 0.0638529 0
M  V30 2542 H 238.654 -5.47717 -0.360115 0
M  V30 2543 H 238.915 -4.16101 -1.49373 0
M  V30 2544 N 237.974 -0.419461 -1.51915 0
M  V30 2545 C 238.884 0.407528 -2.31033 0
M  V30 2546 C 239.9 1.04413 -1.3919 0
M  V30 2547 O 241.076 1.0434 -1.72265 0
M  V30 2548 C 238.141 1.50365 -3.12396 0
M  V30 2549 C 237.202 0.889029 -4.19994 0
M  V30 2550 C 236.435 1.93291 -4.97468 0
M  V30 2551 O 236.658 3.15259 -4.75361 0
M  V30 2552 O 235.592 1.53339 -5.8204 0
M  V30 2553 H 239.418 -0.237865 -3.02767 0
M  V30 2554 H 237.003 -0.182413 -1.48282 0
M  V30 2555 H 238.885 2.13975 -3.63032 0
M  V30 2556 H 237.56 2.13345 -2.43445 0
M  V30 2557 H 236.467 0.215353 -3.7348 0
M  V30 2558 H 237.8 0.302991 -4.91267 0
M  V30 2559 N 239.452 1.56882 -0.150215 0
M  V30 2560 C 240.415 2.1573 0.774157 0
M  V30 2561 C 241.415 1.0999 1.17298 0
M  V30 2562 O 242.605 1.35613 1.09338 0
M  V30 2563 C 239.737 2.72302 2.05096 0
M  V30 2564 H 240.93 2.98752 0.262201 0
M  V30 2565 H 238.483 1.55985 0.099248 0
M  V30 2566 H 239.218 1.92956 2.6065 0
M  V30 2567 H 239.003 3.49665 1.77416 0
M  V30 2568 H 240.493 3.17632 2.71109 0
M  V30 2569 N 240.93 -0.123565 1.57115 0
M  V30 2570 C 241.893 -1.13583 1.99076 0
M  V30 2571 C 242.893 -1.34564 0.880296 0
M  V30 2572 O 244.083 -1.31158 1.14644 0
M  V30 2573 C 241.215 -2.49128 2.32698 0
M  V30 2574 H 242.408 -0.775287 2.89706 0
M  V30 2575 H 239.961 -0.36771 1.51913 0
M  V30 2576 H 240.696 -2.90111 1.44934 0
M  V30 2577 H 240.481 -2.35255 3.13684 0
M  V30 2578 H 241.971 -3.2199 2.65918 0
M  V30 2579 N 242.408 -1.52605 -0.393616 0
M  V30 2580 C 243.655 -1.67424 -1.1391 0
M  V30 2581 C 243.983 -0.411859 -1.90089 0
M  V30 2582 O 243.238 0.605626 -1.86093 0
M  V30 2583 C 243.537 -2.85721 -2.14705 0
M  V30 2584 C 243.203 -4.23342 -1.55218 0
M  V30 2585 C 241.865 -4.60771 -1.3872 0
M  V30 2586 C 244.217 -5.09041 -1.11924 0
M  V30 2587 C 241.545 -5.81563 -0.774689 0
M  V30 2588 C 243.897 -6.30452 -0.520853 0
M  V30 2589 C 242.561 -6.66617 -0.343134 0
M  V30 2590 H 241.831 -0.612648 -0.416826 0
M  V30 2591 H 244.478 -1.8674 -0.424315 0
M  V30 2592 H 242.783 -2.60803 -2.92385 0
M  V30 2593 H 244.48 -2.94382 -2.72288 0
M  V30 2594 H 241.07 -3.93855 -1.69045 0
M  V30 2595 H 245.254 -4.80695 -1.23473 0
M  V30 2596 H 240.51 -6.08196 -0.625154 0
M  V30 2597 H 244.684 -6.96175 -0.177065 0
M  V30 2598 H 242.311 -7.60083 0.133571 0
M  V30 2599 N 243.887 0.651787 -1.4349 0
M  V30 2600 C 244.819 1.77725 -1.44729 0
M  V30 2601 C 245.832 1.59141 -0.343231 0
M  V30 2602 O 247.021 1.67835 -0.607751 0
M  V30 2603 C 244.121 3.15172 -1.24579 0
M  V30 2604 C 243.294 3.60402 -2.47849 0
M  V30 2605 C 242.353 4.76656 -2.22902 0
M  V30 2606 O 241.379 4.86022 -2.96263 0
M  V30 2607 N 242.581 5.66958 -1.24656 0
M  V30 2608 H 245.346 1.77141 -2.41746 0
M  V30 2609 H 242.907 0.835678 -1.38665 0
M  V30 2610 H 244.899 3.90634 -1.0577 0
M  V30 2611 H 243.469 3.1052 -0.360015 0
M  V30 2612 H 242.689 2.75369 -2.82073 0
M  V30 2613 H 243.977 3.87368 -3.29884 0
M  V30 2614 H 243.375 5.62065 -0.640265 0
M  V30 2615 H 241.932 6.42135 -1.1183 0
M  V30 2616 N 245.365 1.30045 0.890287 0
M  V30 2617 C 246.593 1.21472 1.67487 0
M  V30 2618 C 247.008 -0.223241 1.87476 0
M  V30 2619 O 246.365 -1.14828 1.41847 0
M  V30 2620 C 246.416 1.93394 3.05419 0
M  V30 2621 O 246.137 3.31576 2.86337 0
M  V30 2622 C 247.638 1.91414 3.99844 0
M  V30 2623 H 244.858 0.420604 0.522813 0
M  V30 2624 H 247.402 1.7158 1.11268 0
M  V30 2625 H 245.557 1.47099 3.58386 0
M  V30 2626 H 245.971 3.67929 3.73802 0
M  V30 2627 H 247.445 2.46285 4.94012 0
M  V30 2628 H 247.922 0.891833 4.3005 0
M  V30 2629 H 248.528 2.37496 3.52811 0
M  V30 2630 N 246.843 -1.10192 1.12674 0
M  V30 2631 C 248.092 -1.81573 0.8783 0
M  V30 2632 C 248.405 -1.86249 -0.597557 0
M  V30 2633 O 249.611 -2.5386 -0.962681 0
M  V30 2634 C 248.067 -3.26149 1.52167 0
M  V30 2635 C 247.675 -3.29763 3.03249 0
M  V30 2636 C 249.419 -4.0234 1.3536 0
M  V30 2637 C 247.326 -4.68815 3.60508 0
M  V30 2638 H 246.256 -0.680394 0.324931 0
M  V30 2639 H 248.907 -1.23902 1.35353 0
M  V30 2640 H 247.289 -3.83832 0.974104 0
M  V30 2641 H 248.463 -2.8189 3.6452 0
M  V30 2642 H 246.778 -2.67059 3.19481 0
M  V30 2643 H 249.375 -5.05058 1.75559 0
M  V30 2644 H 249.718 -4.15235 0.297554 0
M  V30 2645 H 250.251 -3.51079 1.87052 0
M  V30 2646 H 246.99 -4.61121 4.65884 0
M  V30 2647 H 246.51 -5.17045 3.04014 0
M  V30 2648 H 248.189 -5.37785 3.59717 0
M  V30 2649 N 248.321 -0.919034 -1.28029 0
M  V30 2650 C 249.251 -0.428581 -2.29533 0
M  V30 2651 C 250.232 0.50659 -1.62381 0
M  V30 2652 O 251.417 0.413195 -1.89753 0
M  V30 2653 C 248.547 0.327388 -3.45753 0
M  V30 2654 C 247.501 -0.519137 -4.2484 0
M  V30 2655 C 246.827 0.365486 -5.33449 0
M  V30 2656 C 248.127 -1.77914 -4.91064 0
M  V30 2657 H 249.821 -1.27687 -2.70807 0
M  V30 2658 H 247.367 -0.615428 -1.30186 0
M  V30 2659 H 249.32 0.681378 -4.15855 0
M  V30 2660 H 248.044 1.20963 -3.03374 0
M  V30 2661 H 246.703 -0.855717 -3.56473 0
M  V30 2662 H 246.351 1.24642 -4.87312 0
M  V30 2663 H 246.051 -0.197356 -5.87268 0
M  V30 2664 H 247.575 0.715241 -6.06396 0
M  V30 2665 H 248.989 -1.49374 -5.53498 0
M  V30 2666 H 247.386 -2.2848 -5.54903 0
M  V30 2667 H 248.456 -2.50382 -4.15255 0
M  V30 2668 N 249.799 1.42003 -0.683588 0
M  V30 2669 C 251.027 2.05746 -0.218182 0
M  V30 2670 C 251.442 1.51396 1.12804 0
M  V30 2671 O 250.799 0.657303 1.70252 0
M  V30 2672 C 250.85 3.61171 -0.154131 0
M  V30 2673 O 250.571 4.13508 -1.44716 0
M  V30 2674 C 252.072 4.42042 0.333713 0
M  V30 2675 H 249.292 0.662888 -0.10402 0
M  V30 2676 H 251.836 1.81987 -0.9328 0
M  V30 2677 H 249.991 3.84012 0.511231 0
M  V30 2678 H 250.405 5.07453 -1.32632 0
M  V30 2679 H 251.879 5.51028 0.327423 0
M  V30 2680 H 252.356 4.17269 1.37053 0
M  V30 2681 H 252.962 4.24239 -0.300222 0
M  V30 2682 N 251.277 0.427512 1.51691 0
M  V30 2683 C 252.187 -0.39527 2.31246 0
M  V30 2684 C 253.203 -1.03674 1.39742 0
M  V30 2685 O 254.379 -1.03425 1.72816 0
M  V30 2686 C 251.444 -1.48706 3.13189 0
M  V30 2687 C 250.505 -0.866743 4.20459 0
M  V30 2688 C 249.738 -1.90651 4.98486 0
M  V30 2689 O 249.961 -3.12733 4.77026 0
M  V30 2690 O 248.895 -1.5025 5.82845 0
M  V30 2691 H 252.721 0.253918 3.02637 0
M  V30 2692 H 250.306 0.190274 1.48183 0
M  V30 2693 H 252.188 -2.12047 3.64162 0
M  V30 2694 H 250.863 -2.12051 2.44573 0
M  V30 2695 H 249.77 -0.195544 3.73589 0
M  V30 2696 H 251.103 -0.276934 4.9142 0
M  V30 2697 N 252.755 -1.56801 0.158532 0
M  V30 2698 C 254.004 -1.95665 -0.489702 0
M  V30 2699 C 254.317 -1.04654 -1.65248 0
M  V30 2700 O 255.523 -1.33146 -2.3661 0
M  V30 2701 C 253.979 -3.47874 -0.922582 0
M  V30 2702 C 253.587 -4.47489 0.213893 0
M  V30 2703 C 255.331 -3.95583 -1.53996 0
M  V30 2704 C 253.238 -5.90921 -0.237903 0
M  V30 2705 H 252.168 -0.730516 -0.186716 0
M  V30 2706 H 254.819 -1.81861 0.244722 0
M  V30 2707 H 253.201 -3.57051 -1.71261 0
M  V30 2708 H 254.375 -4.50017 0.991036 0
M  V30 2709 H 252.69 -4.09764 0.740407 0
M  V30 2710 H 255.287 -5.0019 -1.8898 0
M  V30 2711 H 255.63 -3.37789 -2.43319 0
M  V30 2712 H 256.163 -3.8937 -0.814611 0
M  V30 2713 H 252.902 -6.52559 0.620236 0
M  V30 2714 H 252.422 -5.91729 -0.980676 0
M  V30 2715 H 254.101 -6.43352 -0.686067 0
M  V30 2716 N 254.233 0.115231 -1.57178 0
M  V30 2717 C 255.463 0.835224 -1.88964 0
M  V30 2718 C 255.871 1.73774 -0.74829 0
M  V30 2719 O 255.214 1.81401 0.289739 0
M  V30 2720 C 255.276 1.7178 -3.15804 0
M  V30 2721 C 254.94 0.989198 -4.46166 0
M  V30 2722 C 255.937 0.328263 -5.18863 0
M  V30 2723 C 253.622 0.969256 -4.9286 0
M  V30 2724 C 255.616 -0.342873 -6.36477 0
M  V30 2725 C 253.303 0.294324 -6.10391 0
M  V30 2726 C 254.301 -0.360582 -6.82048 0
M  V30 2727 O 253.989 -1.02474 -7.97342 0
M  V30 2728 H 253.721 0.245197 -0.629964 0
M  V30 2729 H 256.275 0.10303 -2.05141 0
M  V30 2730 H 254.505 2.49173 -2.95719 0
M  V30 2731 H 256.194 2.31255 -3.33581 0
M  V30 2732 H 256.96 0.335263 -4.8384 0
M  V30 2733 H 252.839 1.46844 -4.36987 0
M  V30 2734 H 256.383 -0.854629 -6.92345 0
M  V30 2735 H 252.28 0.285099 -6.4487 0
M  V30 2736 H 253.048 -0.929594 -8.13204 0
M  V30 2737 N 255.711 1.52812 0.385517 0
M  V30 2738 C 257.127 1.4214 0.725829 0
M  V30 2739 C 257.327 0.544589 1.94001 0
M  V30 2740 O 256.383 0.0193693 2.52493 0
M  V30 2741 C 257.696 2.85042 0.957668 0
M  V30 2742 C 259.244 2.94543 1.05892 0
M  V30 2743 C 259.719 4.38464 1.32337 0
M  V30 2744 N 261.21 4.41804 1.39151 0
M  V30 2745 C 261.945 5.5025 1.61285 0
M  V30 2746 N 261.441 6.68775 1.80866 0
M  V30 2747 N 263.234 5.37798 1.63492 0
M  V30 2748 H 255.385 2.08338 -0.413383 0
M  V30 2749 H 257.648 0.940016 -0.122775 0
M  V30 2750 H 257.354 3.51431 0.137568 0
M  V30 2751 H 257.228 3.27505 1.87137 0
M  V30 2752 H 259.615 2.28321 1.86959 0
M  V30 2753 H 259.696 2.55504 0.123057 0
M  V30 2754 H 259.34 5.05254 0.517793 0
M  V30 2755 H 259.27 4.75059 2.27214 0
M  V30 2756 H 261.761 3.56377 1.25713 0
M  V30 2757 H 262.074 7.47197 1.97271 0
M  V30 2758 H 260.419 6.71797 1.78083 0
M  V30 2759 H 263.61 4.44171 1.47749 0
M  V30 2760 H 263.783 6.22382 1.80402 0
M  V30 2761 N 257.189 -0.644168 1.43834 0
M  V30 2762 C 258.438 -1.39985 1.45214 0
M  V30 2763 C 258.751 -1.95421 0.0835494 0
M  V30 2764 O 259.957 -2.71488 -0.0251748 0
M  V30 2765 C 258.413 -2.53384 2.55587 0
M  V30 2766 C 258.021 -2.04517 3.98594 0
M  V30 2767 C 259.765 -3.30685 2.66172 0
M  V30 2768 C 257.672 -3.1518 5.00416 0
M  V30 2769 H 256.602 -0.526005 0.540218 0
M  V30 2770 H 259.253 -0.694367 1.69855 0
M  V30 2771 H 257.635 -3.26446 2.24163 0
M  V30 2772 H 258.809 -1.38405 4.39523 0
M  V30 2773 H 257.124 -1.40068 3.92135 0
M  V30 2774 H 259.721 -4.13158 3.39418 0
M  V30 2775 H 260.064 -3.79312 1.71546 0
M  V30 2776 H 260.597 -2.64708 2.96942 0
M  V30 2777 H 257.336 -2.71511 5.96625 0
M  V30 2778 H 256.856 -3.79974 4.64091 0
M  V30 2779 H 258.535 -3.80166 5.23529 0
M  V30 2780 N 258.668 -1.30515 -0.883378 0
M  V30 2781 C 259.914 -1.19607 -1.63774 0
M  V30 2782 C 260.247 0.248314 -1.92606 0
M  V30 2783 O 259.522 1.17742 -1.54813 0
M  V30 2784 C 259.805 -2.02669 -2.97653 0
M  V30 2785 C 259.658 -3.55335 -2.75784 0
M  V30 2786 C 260.977 -1.86573 -3.98596 0
M  V30 2787 H 258.096 -0.435856 -0.594305 0
M  V30 2788 H 260.738 -1.60165 -1.02212 0
M  V30 2789 H 258.888 -1.68208 -3.50197 0
M  V30 2790 H 260.56 -3.99863 -2.30016 0
M  V30 2791 H 258.803 -3.79438 -2.1026 0
M  V30 2792 H 259.474 -4.08745 -3.70988 0
M  V30 2793 H 261.95 -2.16703 -3.55217 0
M  V30 2794 H 260.826 -2.47014 -4.90179 0
M  V30 2795 H 261.087 -0.825321 -4.34328 0
M  V30 2796 N 260.146 1.09593 -1.13257 0
M  V30 2797 C 261.371 1.8604 -0.916732 0
M  V30 2798 C 261.796 1.80504 0.529146 0
M  V30 2799 O 261.154 1.18127 1.37534 0
M  V30 2800 C 261.202 3.32017 -1.40703 0
M  V30 2801 O 260.306 4.08141 -0.591153 0
M  V30 2802 H 259.647 0.576943 -0.328683 0
M  V30 2803 H 262.177 1.38405 -1.50682 0
M  V30 2804 H 262.187 3.82865 -1.4099 0
M  V30 2805 H 260.862 3.35361 -2.45979 0
M  V30 2806 H 259.439 3.67084 -0.656005 0
M  V30 2807 N 261.624 0.925811 1.2754 0
M  V30 2808 C 262.556 0.380753 2.26015 0
M  V30 2809 C 263.569 -0.487485 1.5533 0
M  V30 2810 O 264.758 -0.300413 1.75954 0
M  V30 2811 C 261.858 -0.473259 3.35579 0
M  V30 2812 C 261.031 0.375249 4.35787 0
M  V30 2813 C 260.09 -0.415809 5.24555 0
M  V30 2814 O 259.116 0.175834 5.68928 0
M  V30 2815 N 260.318 -1.71607 5.54555 0
M  V30 2816 H 263.083 1.22725 2.73421 0
M  V30 2817 H 260.644 0.793037 1.41147 0
M  V30 2818 H 262.636 -1.00949 3.91907 0
M  V30 2819 H 261.206 -1.2205 2.87789 0
M  V30 2820 H 260.426 1.09279 3.7875 0
M  V30 2821 H 261.714 0.955399 4.99749 0
M  V30 2822 H 261.112 -2.2191 5.20358 0
M  V30 2823 H 259.669 -2.19887 6.1359 0
M  V30 2824 N 263.102 -1.41638 0.69111 0
M  V30 2825 C 264.049 -2.30789 0.0229705 0
M  V30 2826 C 265.019 -1.46863 -0.775911 0
M  V30 2827 O 266.204 -1.75661 -0.74485 0
M  V30 2828 C 263.344 -3.32868 -0.910666 0
M  V30 2829 C 262.457 -4.31875 -0.103874 0
M  V30 2830 C 261.592 -5.21024 -1.03475 0
M  V30 2831 C 260.631 -6.11702 -0.220598 0
M  V30 2832 N 259.768 -6.93349 -1.10504 0
M  V30 2833 H 264.608 -2.87366 0.788978 0
M  V30 2834 H 262.145 -1.41535 0.400794 0
M  V30 2835 H 264.103 -3.90596 -1.46597 0
M  V30 2836 H 262.733 -2.77851 -1.64312 0
M  V30 2837 H 261.785 -3.76131 0.568285 0
M  V30 2838 H 263.097 -4.96003 0.527504 0
M  V30 2839 H 262.251 -5.83565 -1.65943 0
M  V30 2840 H 260.99 -4.57112 -1.69999 0
M  V30 2841 H 259.995 -5.48215 0.417187 0
M  V30 2842 H 261.22 -6.77668 0.440784 0
M  V30 2843 H 259.166 -6.3205 -1.75638 0
M  V30 2844 H 259.083 -7.54146 -0.529125 0
M  V30 2845 H 260.351 -7.60362 -1.71667 0
M  V30 2846 N 264.58 -0.43555 -1.51462 0
M  V30 2847 C 265.512 0.41257 -2.25456 0
M  V30 2848 C 266.525 0.987822 -1.29406 0
M  V30 2849 O 267.714 0.882266 -1.55172 0
M  V30 2850 C 264.814 1.58894 -2.99342 0
M  V30 2851 C 263.987 1.13288 -4.22474 0
M  V30 2852 C 263.046 2.17917 -4.78956 0
M  V30 2853 O 262.072 1.77425 -5.40841 0
M  V30 2854 N 263.274 3.50382 -4.62832 0
M  V30 2855 H 266.039 -0.221603 -2.9888 0
M  V30 2856 H 263.6 -0.264342 -1.59727 0
M  V30 2857 H 265.592 2.28508 -3.34015 0
M  V30 2858 H 264.162 2.12849 -2.28941 0
M  V30 2859 H 263.382 0.263881 -3.93316 0
M  V30 2860 H 264.67 0.805542 -5.02383 0
M  V30 2861 H 264.068 3.86013 -4.13534 0
M  V30 2862 H 262.625 4.15895 -5.01871 0
M  V30 2863 N 266.058 1.56714 -0.166846 0
M  V30 2864 C 266.991 2.13577 0.80375 0
M  V30 2865 C 267.969 1.06464 1.22899 0
M  V30 2866 O 269.153 1.34413 1.32157 0
M  V30 2867 C 266.28 2.67168 2.0818 0
M  V30 2868 C 265.326 3.86612 1.80093 0
M  V30 2869 S 266.159 5.26565 0.97416 0
M  V30 2870 C 267.315 5.83558 2.26297 0
M  V30 2871 H 267.548 2.9557 0.320267 0
M  V30 2872 H 265.081 1.54326 0.0477555 0
M  V30 2873 H 267.039 2.98692 2.8159 0
M  V30 2874 H 265.7 1.85269 2.53642 0
M  V30 2875 H 264.893 4.22422 2.7491 0
M  V30 2876 H 264.495 3.55951 1.14781 0
M  V30 2877 H 266.787 5.962 3.21795 0
M  V30 2878 H 267.73 6.80731 1.94962 0
M  V30 2879 H 268.138 5.11944 2.37853 0
M  V30 2880 N 267.536 -0.106894 1.57237 0
M  V30 2881 C 268.761 -0.830287 1.90055 0
M  V30 2882 C 269.186 -1.72064 0.75998 0
M  V30 2883 O 268.544 -1.78982 -0.288991 0
M  V30 2884 C 268.592 -1.6295 3.21683 0
M  V30 2885 O 267.696 -2.73748 3.08441 0
M  V30 2886 H 267.037 -0.228855 0.623315 0
M  V30 2887 H 269.567 -0.085658 2.04421 0
M  V30 2888 H 269.577 -2.01621 3.54701 0
M  V30 2889 H 268.252 -0.975989 4.04286 0
M  V30 2890 H 266.829 -2.38192 2.86913 0
M  V30 2891 N 269.014 -1.53014 -0.377408 0
M  V30 2892 C 270.291 -1.59215 -1.13622 0
M  V30 2893 C 270.671 -0.392407 -2.07421 0
M  V30 2894 O 270.019 0.618342 -2.19975 0
M  V30 2895 C 270.229 -2.93669 -1.88573 0
M  V30 2896 C 271.577 -3.47822 -2.43526 0
M  V30 2897 O 272.601 -2.9562 -1.98715 0
M  V30 2898 O 271.46 -4.39055 -3.25412 0
M  V30 2899 H 268.554 -0.642625 -0.52054 0
M  V30 2900 H 271.1 -1.65353 -0.381625 0
M  V30 2901 H 269.872 -3.7243 -1.20048 0
M  V30 2902 H 269.495 -2.90968 -2.70968 0
M  V30 2903 N 270.492 0.636531 -1.44174 0
M  V30 2904 C 271.908 0.954104 -1.27941 0
M  V30 2905 C 272.108 2.0039 -0.211248 0
M  V30 2906 O 271.164 2.49236 0.404695 0
M  V30 2907 C 272.477 1.4225 -2.64925 0
M  V30 2908 C 274.025 1.53827 -2.72592 0
M  V30 2909 C 274.5 2.04053 -4.10032 0
M  V30 2910 N 275.991 2.11331 -4.12182 0
M  V30 2911 C 276.726 2.51352 -5.15374 0
M  V30 2912 N 276.222 2.90549 -6.2893 0
M  V30 2913 N 278.015 2.51438 -5.02728 0
M  V30 2914 H 270.166 -0.0578386 -2.12321 0
M  V30 2915 H 272.429 0.0367406 -0.947288 0
M  V30 2916 H 272.135 0.725466 -3.44136 0
M  V30 2917 H 272.009 2.39451 -2.9145 0
M  V30 2918 H 274.396 2.22628 -1.93702 0
M  V30 2919 H 274.477 0.550154 -2.49814 0
M  V30 2920 H 274.121 1.35848 -4.89395 0
M  V30 2921 H 274.051 3.03726 -4.30184 0
M  V30 2922 H 276.542 1.83745 -3.30222 0
M  V30 2923 H 276.855 3.19884 -7.03487 0
M  V30 2924 H 275.2 2.88313 -6.32377 0
M  V30 2925 H 278.391 2.20203 -4.13072 0
M  V30 2926 H 278.564 2.82304 -5.83274 0
M  V30 2927 N 271.97 1.30982 0.876444 0
M  V30 2928 C 273.386 1.09498 1.16113 0
M  V30 2929 C 273.586 -0.13875 2.01022 0
M  V30 2930 O 272.642 -0.829935 2.38471 0
M  V30 2931 C 273.955 2.36308 1.85954 0
M  V30 2932 C 275.503 2.41856 1.98683 0
M  V30 2933 C 275.978 3.6853 2.71937 0
M  V30 2934 N 277.469 3.69387 2.79477 0
M  V30 2935 C 278.204 4.64096 3.36753 0
M  V30 2936 N 277.7 5.69155 3.95012 0
M  V30 2937 N 279.493 4.51626 3.3465 0
M  V30 2938 H 271.644 2.10118 0.310494 0
M  V30 2939 H 273.907 0.926634 0.200131 0
M  V30 2940 H 273.613 3.26388 1.31011 0
M  V30 2941 H 273.487 2.4561 2.86278 0
M  V30 2942 H 275.874 1.52249 2.52793 0
M  V30 2943 H 275.955 2.36523 0.9742 0
M  V30 2944 H 275.599 4.58499 2.18496 0
M  V30 2945 H 275.529 3.71127 3.73593 0
M  V30 2946 H 278.02 2.93438 2.38123 0
M  V30 2947 H 278.333 6.3751 4.36808 0
M  V30 2948 H 276.678 5.72937 3.93406 0
M  V30 2949 H 279.869 3.68728 2.8837 0
M  V30 2950 H 280.042 5.25614 3.7899 0
M  V30 2951 N 273.449 -1.08991 1.13837 0
M  V30 2952 C 274.359 -2.19301 0.833333 0
M  V30 2953 C 275.375 -1.73026 -0.183847 0
M  V30 2954 O 276.551 -2.01395 -0.0138092 0
M  V30 2955 C 273.616 -3.45323 0.308651 0
M  V30 2956 C 272.677 -4.06255 1.38764 0
M  V30 2957 C 271.91 -5.26262 0.887896 0
M  V30 2958 O 272.133 -5.69747 -0.27287 0
M  V30 2959 O 271.067 -5.78435 1.66421 0
M  V30 2960 H 274.893 -2.47854 1.75506 0
M  V30 2961 H 272.478 -1.18012 0.916166 0
M  V30 2962 H 274.36 -4.21394 0.0216739 0
M  V30 2963 H 273.035 -3.18362 -0.585431 0
M  V30 2964 H 271.942 -3.318 1.72799 0
M  V30 2965 H 273.275 -4.37452 2.25602 0
M  V30 2966 N 274.927 -0.932562 -1.27047 0
M  V30 2967 C 275.875 -0.42603 -2.28665 0
M  V30 2968 C 276.869 0.49219 -1.62092 0
M  V30 2969 O 278.075 0.371355 -1.76128 0
M  V30 2970 H 274.45 -0.119213 -0.742491 0
M  V30 2971 H 276.421 -1.29579 -2.68797 0
M  V30 2972 C 275.17 0.301426 -3.46391 0
M  V30 2973 H 274.493 -0.39595 -3.97834 0
M  V30 2974 H 275.933 0.6202 -4.1944 0
M  V30 2975 C 274.392 1.51616 -3.00856 0
M  V30 2976 O 274.922 2.61476 -3.04948 0
M  V30 2977 N 273.128 1.36969 -2.56296 0
M  V30 2978 H 272.675 0.475873 -2.53166 0
M  V30 2979 H 272.633 2.18368 -2.26192 0
M  V30 2980 N 276.405 1.4127 -0.698611 0
M  V30 2981 C 277.682 1.94955 -0.158762 0
M  V30 2982 C 278.062 1.63781 1.33188 0
M  V30 2983 O 277.41 0.946423 2.07979 0
M  V30 2984 C 277.62 3.46044 -0.453309 0
M  V30 2985 C 278.968 4.22872 -0.382707 0
M  V30 2986 O 279.992 3.54076 -0.388396 0
M  V30 2987 O 278.851 5.45407 -0.345463 0
M  V30 2988 H 275.945 0.82683 -0.0167505 0
M  V30 2989 H 278.491 1.50971 -0.77498 0
M  V30 2990 H 277.263 3.62028 -1.48498 0
M  V30 2991 H 276.886 3.97128 0.19373 0
M  V30 2992 N 277.883 0.443576 1.51229 0
M  V30 2993 C 278.816 -0.410089 2.24485 0
M  V30 2994 C 279.794 -1.01949 1.26669 0
M  V30 2995 O 280.978 -1.06075 1.55821 0
M  V30 2996 C 278.105 -1.57211 3.00004 0
M  V30 2997 C 277.151 -1.08279 4.12526 0
M  V30 2998 S 277.984 -0.0197476 5.35496 0
M  V30 2999 C 279.14 -1.18629 6.14555 0
M  V30 3000 H 279.373 0.211832 2.96544 0
M  V30 3001 H 276.906 0.228156 1.52705 0
M  V30 3002 H 278.864 -2.23825 3.44111 0
M  V30 3003 H 277.525 -2.16547 2.27522 0
M  V30 3004 H 276.718 -1.95193 4.64667 0
M  V30 3005 H 276.32 -0.494797 3.70713 0
M  V30 3006 H 278.612 -2.10344 6.4402 0
M  V30 3007 H 279.555 -0.70472 7.04584 0
M  V30 3008 H 279.963 -1.42768 5.46148 0
M  V30 3009 N 279.361 -1.56624 0.175154 0
M  V30 3010 C 280.586 -2.01813 -0.478137 0
M  V30 3011 C 281.011 -1.05457 -1.55757 0
M  V30 3012 O 280.369 -0.0347439 -1.81267 0
M  V30 3013 C 280.417 -3.45581 -1.02987 0
M  V30 3014 O 279.521 -3.52305 -2.14371 0
M  V30 3015 H 278.862 -0.65413 -0.114059 0
M  V30 3016 H 281.392 -2.02673 0.280173 0
M  V30 3017 H 281.402 -3.84965 -1.35151 0
M  V30 3018 H 280.077 -4.1521 -0.239556 0
M  V30 3019 H 278.654 -3.24783 -1.83222 0
M  V30 3020 N 280.839 0.0985539 -1.57292 0
M  V30 3021 C 282.25 0.653457 -1.74891 0
M  V30 3022 C 282.601 1.7929 -0.796838 0
M  V30 3023 O 281.726 2.16385 0.0254886 0
M  V30 3024 C 282.321 1.19216 -3.17133 0
M  V30 3025 C 280.88 1.69316 -3.36168 0
M  V30 3026 C 280.027 0.601294 -2.70702 0
M  V30 3027 H 282.978 -0.127497 -1.58187 0
M  V30 3028 H 282.999 2.06154 -3.19814 0
M  V30 3029 H 282.511 0.362635 -3.86402 0
M  V30 3030 H 280.612 2.5468 -2.71972 0
M  V30 3031 H 280.725 1.78853 -4.44464 0
M  V30 3032 H 279.089 1.0399 -2.32504 0
M  V30 3033 H 279.872 -0.217592 -3.4261 0
M  V30 3034 N 282.317 1.53212 0.369288 0
M  V30 3035 C 283.542 1.73423 1.1375 0
M  V30 3036 C 283.967 0.460404 1.82378 0
M  V30 3037 O 283.325 -0.585298 1.71592 0
M  V30 3038 C 283.373 2.89769 2.1463 0
M  V30 3039 O 282.477 2.58119 3.21634 0
M  V30 3040 H 281.818 0.576061 0.330227 0
M  V30 3041 H 284.348 2.00083 0.427547 0
M  V30 3042 H 284.358 3.15829 2.58294 0
M  V30 3043 H 283.033 3.8217 1.64071 0
M  V30 3044 H 281.61 2.42864 2.82969 0
M  V30 3045 N 283.795 -0.628877 1.44509 0
M  V30 3046 C 284.743 -1.76193 1.51852 0
M  V30 3047 C 285.737 -1.64849 0.390042 0
M  V30 3048 O 286.943 -1.709 0.565082 0
M  V30 3049 H 283.318 -0.581728 0.476547 0
M  V30 3050 H 285.289 -1.67123 2.47209 0
M  V30 3051 C 284.038 -3.14533 1.48204 0
M  V30 3052 H 283.361 -3.23911 2.34354 0
M  V30 3053 H 284.801 -3.93701 1.57402 0
M  V30 3054 C 283.26 -3.36287 0.203142 0
M  V30 3055 O 283.79 -3.9509 -0.725745 0
M  V30 3056 N 281.996 -2.90408 0.105563 0
M  V30 3057 H 281.543 -2.42739 0.862301 0
M  V30 3058 H 281.501 -3.05339 -0.749371 0
M  V30 3059 N 285.273 -1.31445 -0.869486 0
M  V30 3060 C 286.221 -1.19067 -1.99814 0
M  V30 3061 C 287.215 -0.0988569 -1.69111 0
M  V30 3062 O 288.421 -0.260781 -1.78101 0
M  V30 3063 H 284.796 -0.368677 -0.655425 0
M  V30 3064 H 286.767 -2.14555 -2.07385 0
M  V30 3065 C 285.516 -0.915323 -3.35436 0
M  V30 3066 H 284.839 -1.74759 -3.59582 0
M  V30 3067 H 286.279 -0.868895 -4.15001 0
M  V30 3068 C 284.738 0.381928 -3.34728 0
M  V30 3069 O 285.268 1.39857 -3.76567 0
M  V30 3070 N 283.474 0.398633 -2.87853 0
M  V30 3071 H 283.021 -0.429186 -2.54 0
M  V30 3072 H 282.979 1.26651 -2.87762 0
M  V30 3073 N 286.751 1.08385 -1.14413 0
M  V30 3074 C 287.997 1.81044 -0.913834 0
M  V30 3075 C 288.33 1.86004 0.558209 0
M  V30 3076 O 287.605 1.33606 1.4135 0
M  V30 3077 C 287.888 3.26648 -1.51569 0
M  V30 3078 C 287.741 3.29895 -3.0576 0
M  V30 3079 C 289.06 4.23629 -1.19273 0
M  V30 3080 H 286.179 0.65727 -0.333414 0
M  V30 3081 H 288.821 1.26896 -1.41412 0
M  V30 3082 H 286.971 3.72889 -1.09023 0
M  V30 3083 H 288.643 2.91977 -3.57137 0
M  V30 3084 H 286.886 2.69163 -3.40197 0
M  V30 3085 H 287.557 4.32516 -3.42977 0
M  V30 3086 H 290.033 3.85727 -1.56057 0
M  V30 3087 H 288.909 5.23822 -1.64017 0
M  V30 3088 H 289.17 4.41968 -0.108068 0
M  V30 3089 N 288.23 0.939286 1.26551 0
M  V30 3090 C 289.476 0.586715 1.94128 0
M  V30 3091 C 289.809 -0.8717 1.73537 0
M  V30 3092 O 289.084 -1.62339 1.07127 0
M  V30 3093 C 289.367 0.927497 3.4795 0
M  V30 3094 C 289.22 2.44052 3.77834 0
M  V30 3095 C 290.539 0.441569 4.37879 0
M  V30 3096 H 287.658 0.21463 0.705055 0
M  V30 3097 H 290.3 1.17316 1.49455 0
M  V30 3098 H 288.45 0.428431 3.8613 0
M  V30 3099 H 290.122 3.01216 3.4938 0
M  V30 3100 H 288.365 2.8848 3.23978 0
M  V30 3101 H 289.036 2.62947 4.85348 0
M  V30 3102 H 291.512 0.869448 4.06915 0
M  V30 3103 H 290.388 0.708856 5.44304 0
M  V30 3104 H 290.649 -0.658467 4.37169 0
M  V30 3105 N 289.708 -1.40897 0.706093 0
M  V30 3106 C 291.119 -1.84023 0.315052 0
M  V30 3107 C 291.47 -1.5906 -1.14866 0
M  V30 3108 O 290.595 -1.06651 -1.88293 0
M  V30 3109 C 291.19 -3.34055 0.565038 0
M  V30 3110 C 289.749 -3.7571 0.227806 0
M  V30 3111 C 288.896 -2.64204 0.842122 0
M  V30 3112 H 291.847 -1.303 0.905963 0
M  V30 3113 H 291.868 -3.80107 -0.172843 0
M  V30 3114 H 291.38 -3.52192 1.63042 0
M  V30 3115 H 289.481 -3.63172 -0.832895 0
M  V30 3116 H 289.594 -4.74103 0.690174 0
M  V30 3117 H 287.958 -2.53255 0.270893 0
M  V30 3118 H 288.741 -2.85155 1.91158 0
M  V30 3119 N 291.186 -0.45159 -1.50991 0
M  V30 3120 C 292.435 0.111653 -2.01391 0
M  V30 3121 C 292.748 1.42529 -1.33959 0
M  V30 3122 O 293.954 2.07232 -1.75405 0
M  V30 3123 C 292.41 0.249514 -3.59034 0
M  V30 3124 C 292.018 -1.05453 -4.35412 0
M  V30 3125 C 293.762 0.765762 -4.17536 0
M  V30 3126 C 291.669 -0.881529 -5.84793 0
M  V30 3127 H 290.599 0.0455022 -0.752626 0
M  V30 3128 H 293.25 -0.583524 -1.73975 0
M  V30 3129 H 291.632 1.00803 -3.82955 0
M  V30 3130 H 292.806 -1.82248 -4.23229 0
M  V30 3131 H 291.121 -1.50039 -3.88429 0
M  V30 3132 H 293.718 0.911913 -5.26866 0
M  V30 3133 H 294.061 1.75201 -3.77638 0
M  V30 3134 H 294.594 0.0651744 -3.97747 0
M  V30 3135 H 291.333 -1.84057 -6.29129 0
M  V30 3136 H 290.853 -0.153625 -5.99603 0
M  V30 3137 H 292.532 -0.540363 -6.4474 0
M  V30 3138 N 292.664 1.56529 -0.183458 0
M  V30 3139 C 293.614 2.1515 0.754605 0
M  V30 3140 C 294.598 1.08904 1.18443 0
M  V30 3141 O 295.79 1.34997 1.14476 0
M  V30 3142 C 292.919 2.80531 1.97881 0
M  V30 3143 C 292.005 3.93952 1.57043 0
M  V30 3144 N 292.396 4.98221 0.87231 0
M  V30 3145 C 290.694 4.05338 1.86057 0
M  V30 3146 C 291.395 5.77836 0.669377 0
M  V30 3147 N 290.371 5.29858 1.21454 0
M  V30 3148 H 294.173 2.93132 0.212387 0
M  V30 3149 H 291.687 1.62391 0.0167725 0
M  V30 3150 H 293.684 3.20914 2.6612 0
M  V30 3151 H 292.344 2.04035 2.52586 0
M  V30 3152 H 293.355 5.15191 0.529033 0
M  V30 3153 H 290.032 3.39957 2.42354 0
M  V30 3154 H 291.422 6.71799 0.116422 0
M  V30 3155 N 294.142 -0.090211 1.57342 0
M  V30 3156 C 295.388 -0.793982 1.86611 0
M  V30 3157 C 295.721 -1.78142 0.773252 0
M  V30 3158 O 294.996 -1.93271 -0.218304 0
M  V30 3159 C 295.279 -1.51839 3.26523 0
M  V30 3160 C 295.132 -0.548609 4.46442 0
M  V30 3161 C 296.451 -2.46779 3.64401 0
M  V30 3162 H 293.57 -0.287186 0.678744 0
M  V30 3163 H 296.212 -0.0575076 1.89913 0
M  V30 3164 H 294.362 -2.14617 3.23839 0
M  V30 3165 H 296.034 0.0725513 4.61243 0
M  V30 3166 H 294.277 0.137614 4.33582 0
M  V30 3167 H 294.948 -1.09271 5.41076 0
M  V30 3168 H 297.424 -1.94089 3.68061 0
M  V30 3169 H 296.3 -2.94479 4.63221 0
M  V30 3170 H 296.561 -3.30758 2.93346 0
M  V30 3171 N 295.62 -1.53406 -0.361157 0
M  V30 3172 C 297.031 -1.61442 -0.937728 0
M  V30 3173 C 297.382 -0.48461 -1.90121 0
M  V30 3174 O 296.507 0.388312 -2.12888 0
M  V30 3175 C 297.102 -2.92624 -1.70753 0
M  V30 3176 C 295.661 -3.02981 -2.23337 0
M  V30 3177 C 294.808 -2.5677 -1.04712 0
M  V30 3178 H 297.759 -1.58083 -0.139816 0
M  V30 3179 H 297.78 -2.80675 -2.56908 0
M  V30 3180 H 297.292 -3.74834 -1.00604 0
M  V30 3181 H 295.393 -2.25368 -2.96715 0
M  V30 3182 H 295.506 -4.0814 -2.50916 0
M  V30 3183 H 293.87 -2.11752 -1.41539 0
M  V30 3184 H 294.653 -3.41402 -0.360539 0
M  V30 3185 N 297.098 0.621204 -1.44841 0
M  V30 3186 C 298.509 1.20298 -1.42777 0
M  V30 3187 C 298.86 1.95639 -0.148259 0
M  V30 3188 O 297.985 2.02955 0.750892 0
M  V30 3189 C 298.58 2.1882 -2.58657 0
M  V30 3190 C 297.139 2.72403 -2.59756 0
M  V30 3191 C 296.286 1.4757 -2.34773 0
M  V30 3192 H 299.237 0.411297 -1.53278 0
M  V30 3193 H 299.258 3.01607 -2.31977 0
M  V30 3194 H 298.77 1.63957 -3.51766 0
M  V30 3195 H 296.871 3.31242 -1.70615 0
M  V30 3196 H 296.984 3.17765 -3.58556 0
M  V30 3197 H 295.348 1.76051 -1.8406 0
M  V30 3198 H 296.131 0.945954 -3.3001 0
M  V30 3199 N 298.576 1.31904 0.862503 0
M  V30 3200 C 299.804 1.24998 1.64873 0
M  V30 3201 C 300.219 -0.183425 1.87907 0
M  V30 3202 O 299.576 -1.11794 1.44251 0
M  V30 3203 C 299.627 1.99829 3.01248 0
M  V30 3204 O 299.348 3.37575 2.79239 0
M  V30 3205 C 300.849 1.99852 3.95694 0
M  V30 3206 H 298.069 0.431599 0.513773 0
M  V30 3207 H 300.613 1.73901 1.07604 0
M  V30 3208 H 298.768 1.54668 3.55185 0
M  V30 3209 H 299.182 3.75776 3.65914 0
M  V30 3210 H 300.656 2.56709 4.88676 0
M  V30 3211 H 301.133 0.982852 4.28062 0
M  V30 3212 H 301.739 2.44926 3.47694 0
M  V30 3213 N 300.054 -1.07777 1.14986 0
M  V30 3214 C 301.282 -1.84018 0.945773 0
M  V30 3215 C 301.697 -1.81897 -0.505863 0
M  V30 3216 O 301.054 -1.22726 -1.35072 0
M  V30 3217 C 301.105 -3.31287 1.44677 0
M  V30 3218 O 300.826 -3.33449 2.84154 0
M  V30 3219 C 302.327 -4.24311 1.28355 0
M  V30 3220 H 299.547 -0.580716 0.336169 0
M  V30 3221 H 302.091 -1.36077 1.52654 0
M  V30 3222 H 300.246 -3.76594 0.908625 0
M  V30 3223 H 300.66 -4.25427 3.06777 0
M  V30 3224 H 302.134 -5.2573 1.68261 0
M  V30 3225 H 302.611 -4.38612 0.227184 0
M  V30 3226 H 303.217 -3.84836 1.81056 0
M  V30 3227 N 301.532 -0.945985 -1.26051 0
M  V30 3228 C 302.442 -0.465633 -2.29933 0
M  V30 3229 C 303.458 0.462761 -1.67733 0
M  V30 3230 O 304.634 0.341118 -1.9849 0
M  V30 3231 C 301.699 0.256994 -3.45746 0
M  V30 3232 C 300.76 -0.708549 -4.23412 0
M  V30 3233 C 299.993 -0.0203135 -5.33696 0
M  V30 3234 O 300.216 1.19571 -5.57726 0
M  V30 3235 O 299.15 -0.701459 -5.97799 0
M  V30 3236 H 302.976 -1.32866 -2.73094 0
M  V30 3237 H 300.561 -0.712071 -1.31339 0
M  V30 3238 H 302.443 0.663852 -4.16138 0
M  V30 3239 H 301.118 1.09533 -3.04605 0
M  V30 3240 H 300.025 -1.16545 -3.55483 0
M  V30 3241 H 301.358 -1.51465 -4.68315 0
M  V30 3242 N 303.011 1.40521 -0.713556 0
M  V30 3243 C 303.959 2.32549 -0.0485227 0
M  V30 3244 C 304.953 1.51931 0.74922 0
M  V30 3245 O 306.159 1.67745 0.652816 0
M  V30 3246 H 302.534 0.751994 0.00311138 0
M  V30 3247 H 304.505 2.86291 -0.841443 0
M  V30 3248 C 303.254 3.36879 0.860687 0
M  V30 3249 H 302.577 3.98978 0.256246 0
M  V30 3250 H 304.017 4.03772 1.294 0
M  V30 3251 C 302.476 2.72197 1.9852 0
M  V30 3252 O 303.006 2.5837 3.07584 0
M  V30 3253 N 301.212 2.30612 1.76823 0
M  V30 3254 H 300.759 2.42059 0.881217 0
M  V30 3255 H 300.717 1.87672 2.52243 0
M  V30 3256 N 304.489 0.459591 1.5075 0
M  V30 3257 C 305.436 -0.340524 2.28274 0
M  V30 3258 C 306.406 -0.997371 1.32822 0
M  V30 3259 O 307.591 -1.01202 1.61749 0
M  V30 3260 C 304.731 -1.42317 3.14388 0
M  V30 3261 C 303.844 -0.782251 4.24859 0
M  V30 3262 C 302.979 -1.84182 4.98247 0
M  V30 3263 C 302.018 -1.18053 6.00608 0
M  V30 3264 N 301.155 -2.18244 6.67319 0
M  V30 3265 H 305.995 0.326899 2.96202 0
M  V30 3266 H 303.532 0.173057 1.46078 0
M  V30 3267 H 305.49 -2.06241 3.62658 0
M  V30 3268 H 304.12 -2.05992 2.4853 0
M  V30 3269 H 303.172 -0.0307404 3.80388 0
M  V30 3270 H 304.484 -0.259663 4.98124 0
M  V30 3271 H 303.638 -2.55714 5.50177 0
M  V30 3272 H 302.377 -2.39819 4.24662 0
M  V30 3273 H 301.382 -0.450776 5.47949 0
M  V30 3274 H 302.607 -0.631202 6.7616 0
M  V30 3275 H 300.553 -2.72919 5.96533 0
M  V30 3276 H 300.47 -1.70938 7.36421 0
M  V30 3277 H 301.738 -2.89191 7.23871 0
M  V30 3278 N 305.967 -1.56429 0.191757 0
M  V30 3279 C 307.378 -1.83912 -0.321428 0
M  V30 3280 C 307.729 -1.11231 -1.61623 0
M  V30 3281 O 306.854 -0.37202 -2.13178 0
M  V30 3282 C 307.449 -3.33624 -0.589961 0
M  V30 3283 C 306.008 -3.6153 -1.04753 0
M  V30 3284 C 305.155 -2.7714 -0.0943327 0
M  V30 3285 H 308.106 -1.53161 0.415612 0
M  V30 3286 H 308.127 -3.52213 -1.43966 0
M  V30 3287 H 307.639 -3.86495 0.352588 0
M  V30 3288 H 305.74 -3.14089 -2.00447 0
M  V30 3289 H 305.853 -4.69737 -0.942549 0
M  V30 3290 H 304.217 -2.47638 -0.595589 0
M  V30 3291 H 305 -3.32799 0.842601 0
M  V30 3292 N 307.445 0.0818655 -1.57387 0
M  V30 3293 C 308.392 1.09834 -2.0299 0
M  V30 3294 C 309.362 1.39043 -0.908639 0
M  V30 3295 O 310.547 1.50282 -1.17559 0
M  V30 3296 C 307.687 2.40971 -2.47037 0
M  V30 3297 C 306.8 2.18379 -3.7274 0
M  V30 3298 C 305.935 3.43008 -4.0561 0
M  V30 3299 C 304.974 3.15736 -5.24383 0
M  V30 3300 N 304.111 4.32667 -5.52941 0
M  V30 3301 H 308.951 0.702472 -2.89602 0
M  V30 3302 H 306.488 0.33531 -1.43227 0
M  V30 3303 H 308.446 3.1752 -2.70623 0
M  V30 3304 H 307.076 2.78379 -1.63417 0
M  V30 3305 H 306.128 1.32569 -3.56552 0
M  V30 3306 H 307.44 1.94227 -4.59431 0
M  V30 3307 H 306.594 4.27958 -4.30043 0
M  V30 3308 H 305.333 3.70225 -3.17466 0
M  V30 3309 H 304.338 2.2918 -4.99757 0
M  V30 3310 H 305.563 2.8985 -6.14136 0
M  V30 3311 H 303.509 4.59935 -4.67756 0
M  V30 3312 H 303.426 4.11753 -6.34031 0
M  V30 3313 H 304.694 5.18644 -5.81918 0
M  V30 3314 N 308.923 1.53595 0.353017 0
M  V30 3315 C 310.169 1.70638 1.09593 0
M  V30 3316 C 310.502 0.463286 1.88593 0
M  V30 3317 O 309.777 -0.539597 1.86865 0
M  V30 3318 C 310.06 2.96406 2.04489 0
M  V30 3319 C 309.913 4.30901 1.29014 0
M  V30 3320 C 311.232 3.17812 3.0444 0
M  V30 3321 H 308.351 0.620913 0.397034 0
M  V30 3322 H 310.993 1.86254 0.375446 0
M  V30 3323 H 309.143 2.83223 2.65927 0
M  V30 3324 H 310.815 4.55917 0.702638 0
M  V30 3325 H 309.058 4.29741 0.592071 0
M  V30 3326 H 309.729 5.1506 1.98537 0
M  V30 3327 H 312.205 3.30263 2.53112 0
M  V30 3328 H 311.081 4.07223 3.6805 0
M  V30 3329 H 311.342 2.33669 3.75301 0
M  V30 3330 N 310.401 -0.613514 1.45168 0
M  V30 3331 C 311.333 -1.73825 1.4939 0
M  V30 3332 C 312.346 -1.58175 0.385304 0
M  V30 3333 O 313.535 -1.66165 0.652036 0
M  V30 3334 C 310.635 -3.11758 1.32891 0
M  V30 3335 C 309.808 -3.53704 2.57317 0
M  V30 3336 C 308.867 -4.70579 2.35462 0
M  V30 3337 O 307.893 -4.77996 3.09044 0
M  V30 3338 N 309.095 -5.63454 1.39644 0
M  V30 3339 H 311.86 -1.70669 2.46358 0
M  V30 3340 H 309.421 -0.79862 1.40832 0
M  V30 3341 H 311.413 -3.87692 1.1609 0
M  V30 3342 H 309.983 -3.09456 0.442218 0
M  V30 3343 H 309.203 -2.67794 2.89275 0
M  V30 3344 H 310.491 -3.78486 3.40038 0
M  V30 3345 H 309.889 -5.6017 0.789062 0
M  V30 3346 H 308.446 -6.38944 1.28816 0
M  V30 3347 N 311.879 -1.3236 -0.855495 0
M  V30 3348 C 313.119 -1.24187 -1.62348 0
M  V30 3349 C 313.483 0.193597 -1.91021 0
M  V30 3350 O 314.684 0.39904 -2.65822 0
M  V30 3351 C 312.955 -2.07661 -2.90881 0
M  V30 3352 S 314.514 -2.16505 -3.81669 0
M  V30 3353 H 311.332 -0.442076 -0.556857 0
M  V30 3354 H 313.934 -1.67198 -1.01317 0
M  V30 3355 H 312.638 -3.11018 -2.67761 0
M  V30 3356 H 312.169 -1.65425 -3.56929 0
M  V30 3357 H 314.184 -1.31394 -4.78487 0
M  V30 3358 N 313.357 1.07166 -1.15556 0
M  V30 3359 C 314.597 1.81391 -0.94216 0
M  V30 3360 C 314.961 1.84788 0.521272 0
M  V30 3361 O 316.162 2.54904 0.85307 0
M  V30 3362 C 314.433 3.22431 -1.54185 0
M  V30 3363 S 315.992 4.13379 -1.47183 0
M  V30 3364 H 312.81 0.624963 -0.339031 0
M  V30 3365 H 315.412 1.28725 -1.4714 0
M  V30 3366 H 314.116 3.17548 -2.59984 0
M  V30 3367 H 313.647 3.80172 -1.01156 0
M  V30 3368 H 315.662 4.94007 -0.466004 0
M  V30 3369 N 314.835 0.952656 1.25548 0
M  V30 3370 C 315.767 0.428609 2.25157 0
M  V30 3371 C 316.78 -0.454428 1.56329 0
M  V30 3372 O 317.969 -0.263023 1.76552 0
M  V30 3373 C 315.069 -0.401972 3.36508 0
M  V30 3374 C 314.242 0.467601 4.34893 0
M  V30 3375 C 313.301 -0.30445 5.25319 0
M  V30 3376 O 312.327 0.296473 5.68427 0
M  V30 3377 N 313.529 -1.59805 5.5807 0
M  V30 3378 H 316.294 1.28497 2.70756 0
M  V30 3379 H 313.855 0.822798 1.39433 0
M  V30 3380 H 315.847 -0.926134 3.9396 0
M  V30 3381 H 314.417 -1.15918 2.90313 0
M  V30 3382 H 313.637 1.17288 3.76347 0
M  V30 3383 H 314.925 1.06119 4.97611 0
M  V30 3384 H 314.323 -2.10823 5.24948 0
M  V30 3385 H 312.88 -2.06822 6.18116 0
M  V30 3386 N 316.313 -1.40141 0.720998 0
M  V30 3387 C 317.261 -2.3252 0.0608547 0
M  V30 3388 C 318.255 -1.52326 -0.741152 0
M  V30 3389 O 319.461 -1.68089 -0.643911 0
M  V30 3390 H 315.836 -0.751999 0.000876664 0
M  V30 3391 H 317.807 -2.8584 0.856614 0
M  V30 3392 C 316.556 -3.37331 -0.842809 0
M  V30 3393 H 315.879 -3.99108 -0.235084 0
M  V30 3394 H 317.319 -4.04452 -1.27257 0
M  V30 3395 C 315.778 -2.73246 -1.97074 0
M  V30 3396 O 316.308 -2.59998 -3.06209 0
M  V30 3397 N 314.514 -2.31547 -1.75597 0
M  V30 3398 H 314.061 -2.42522 -0.868368 0
M  V30 3399 H 314.019 -1.89007 -2.51244 0
M  V30 3400 N 317.792 -0.46758 -1.50504 0
M  V30 3401 C 319.041 0.0902868 -2.01498 0
M  V30 3402 C 319.354 1.411 -1.35463 0
M  V30 3403 O 320.56 2.0536 -1.77594 0
M  V30 3404 C 319.016 0.21142 -3.59278 0
M  V30 3405 C 318.624 -1.10065 -4.34269 0
M  V30 3406 C 320.368 0.721433 -4.18325 0
M  V30 3407 C 318.275 -0.943505 -5.83825 0
M  V30 3408 H 317.205 0.037517 -0.753066 0
M  V30 3409 H 319.856 -0.601943 -1.73346 0
M  V30 3410 H 318.238 0.967352 -3.84003 0
M  V30 3411 H 319.412 -1.86726 -4.21272 0
M  V30 3412 H 317.727 -1.5415 -3.86816 0
M  V30 3413 H 320.324 0.85598 -5.27804 0
M  V30 3414 H 320.667 1.71186 -3.79475 0
M  V30 3415 H 321.2 0.0229843 -3.97793 0
M  V30 3416 H 317.939 -1.90719 -6.27141 0
M  V30 3417 H 317.459 -0.217213 -5.99407 0
M  V30 3418 H 319.138 -0.608715 -6.4413 0
M  V30 3419 O 319.309 1.5785 -0.341429 0
M  V30 3420 H 320 1.92508 0.21453 0
M  V30 END ATOM
M  V30 BEGIN BOND
M  V30 END BOND
M  V30 END CTAB
M  END
$$$$
